# Generated by pormake.
# Topology ssa, (4,4)-cn, num edge types: 1
# Building blocks:
#     Node 0, Type 0, BuildingBlock: IZENUY_clean_linker_0, # of connection points: 4
#     Node 1, Type 0, BuildingBlock: IZENUY_clean_linker_0, # of connection points: 4
#     Node 2, Type 0, BuildingBlock: IZENUY_clean_linker_0, # of connection points: 4
#     Node 3, Type 0, BuildingBlock: IZENUY_clean_linker_0, # of connection points: 4
#     Node 4, Type 0, BuildingBlock: IZENUY_clean_linker_0, # of connection points: 4
#     Node 5, Type 0, BuildingBlock: IZENUY_clean_linker_0, # of connection points: 4
#     Node 6, Type 1, BuildingBlock: MUDLON_clean_sbu_0, # of connection points: 4
#     Node 7, Type 1, BuildingBlock: MUDLON_clean_sbu_0, # of connection points: 4
#     Node 8, Type 1, BuildingBlock: MUDLON_clean_sbu_0, # of connection points: 4
#     Node 9, Type 1, BuildingBlock: MUDLON_clean_sbu_0, # of connection points: 4
#     Node 10, Type 1, BuildingBlock: MUDLON_clean_sbu_0, # of connection points: 4
#     Node 11, Type 1, BuildingBlock: MUDLON_clean_sbu_0, # of connection points: 4
#     Edge 12, Type (0, 1), BuildingBlock: OJICUG_clean_linker_0, # of connection points: 2
#     Edge 13, Type (0, 1), BuildingBlock: OJICUG_clean_linker_0, # of connection points: 2
#     Edge 14, Type (0, 1), BuildingBlock: OJICUG_clean_linker_0, # of connection points: 2
#     Edge 15, Type (0, 1), BuildingBlock: OJICUG_clean_linker_0, # of connection points: 2
#     Edge 16, Type (0, 1), BuildingBlock: OJICUG_clean_linker_0, # of connection points: 2
#     Edge 17, Type (0, 1), BuildingBlock: OJICUG_clean_linker_0, # of connection points: 2
#     Edge 18, Type (0, 1), BuildingBlock: OJICUG_clean_linker_0, # of connection points: 2
#     Edge 19, Type (0, 1), BuildingBlock: OJICUG_clean_linker_0, # of connection points: 2
#     Edge 20, Type (0, 1), BuildingBlock: OJICUG_clean_linker_0, # of connection points: 2
#     Edge 21, Type (0, 1), BuildingBlock: OJICUG_clean_linker_0, # of connection points: 2
#     Edge 22, Type (0, 1), BuildingBlock: OJICUG_clean_linker_0, # of connection points: 2
#     Edge 23, Type (0, 1), BuildingBlock: OJICUG_clean_linker_0, # of connection points: 2
#     Edge 24, Type (0, 1), BuildingBlock: OJICUG_clean_linker_0, # of connection points: 2
#     Edge 25, Type (0, 1), BuildingBlock: OJICUG_clean_linker_0, # of connection points: 2
#     Edge 26, Type (0, 1), BuildingBlock: OJICUG_clean_linker_0, # of connection points: 2
#     Edge 27, Type (0, 1), BuildingBlock: OJICUG_clean_linker_0, # of connection points: 2
#     Edge 28, Type (0, 1), BuildingBlock: OJICUG_clean_linker_0, # of connection points: 2
#     Edge 29, Type (0, 1), BuildingBlock: OJICUG_clean_linker_0, # of connection points: 2
#     Edge 30, Type (0, 1), BuildingBlock: OJICUG_clean_linker_0, # of connection points: 2
#     Edge 31, Type (0, 1), BuildingBlock: OJICUG_clean_linker_0, # of connection points: 2
#     Edge 32, Type (0, 1), BuildingBlock: OJICUG_clean_linker_0, # of connection points: 2
#     Edge 33, Type (0, 1), BuildingBlock: OJICUG_clean_linker_0, # of connection points: 2
#     Edge 34, Type (0, 1), BuildingBlock: OJICUG_clean_linker_0, # of connection points: 2
#     Edge 35, Type (0, 1), BuildingBlock: OJICUG_clean_linker_0, # of connection points: 2
# Relax obj value: 0.000
# Max RMSD: 0.033
# Mean RMSD: 0.019
data_MOF--net-ssa--node1-MUDLON_clean_sbu_0--node2-IZENUY_clean_linker_0--edge1-OJICUG_clean_linker_0
_symmetry_space_group_name_H-M    P1
_symmetry_Int_Tables_number       1
_symmetry_cell_setting            triclinic
loop_
_symmetry_equiv_pos_as_xyz
'x, y, z'
_cell_length_a     36.665639
_cell_length_b     36.786774
_cell_length_c     29.859934
_cell_angle_alpha  90.621793
_cell_angle_beta   90.275433
_cell_angle_gamma 120.37803
loop_
_atom_site_label
_atom_site_type_symbol
_atom_site_fract_x
_atom_site_fract_y
_atom_site_fract_z
_atom_type_partial_charge
H0 H 0.97161 0.41723 1.03848 0.0
H1 H 0.94144 0.51594 1.03805 0.0
H2 H 0.86142 0.39881 0.96739 0.0
H3 H 0.03297 0.55537 0.1336 0.0
H4 H 0.08053 0.47166 0.10616 0.0
H5 H 0.13948 0.56826 0.20785 0.0
N6 N -0.00677 0.49524 1.073 0.0
N7 N 0.02052 0.4863 0.08412 0.0
C8 C 0.95102 0.42893 1.02848 0.0
C9 C 0.91548 0.4036 1.00109 0.0
C10 C 0.9593 0.46914 1.04318 0.0
C11 C 0.93321 0.48422 1.02834 0.0
C12 C 0.89811 0.45959 1.00017 0.0
C13 C 0.88886 0.41877 0.98819 0.0
C14 C 0.05598 0.54571 0.13952 0.0
C15 C 0.0872 0.56628 0.17319 0.0
C16 C 0.05364 0.5112 0.11525 0.0
C17 C 0.08305 0.49857 0.12423 0.0
C18 C 0.11422 0.51896 0.15754 0.0
C19 C 0.11626 0.55301 0.18116 0.0
H20 H 0.55152 -0.00615 0.66076 0.0
H21 H 0.4496 0.01949 0.6702 0.0
H22 H 0.57111 0.10514 0.73019 0.0
H23 H 0.39839 0.91314 0.59359 0.0
H24 H 0.50936 0.9055 0.56503 0.0
H25 H 0.3912 0.81952 0.50063 0.0
N26 N 0.47023 0.96794 0.63333 0.0
N27 N 0.48291 0.94639 0.61368 0.0
C28 C 0.53944 0.01384 0.67189 0.0
C29 C 0.56574 0.05053 0.69726 0.0
C30 C 0.49758 0.00336 0.661 0.0
C31 C 0.48222 0.0289 0.67728 0.0
C32 C 0.50825 0.06576 0.70261 0.0
C33 C 0.55022 0.07656 0.71143 0.0
C34 C 0.41317 0.89769 0.57689 0.0
C35 C 0.38914 0.86375 0.54675 0.0
C36 C 0.45656 0.91178 0.58466 0.0
C37 C 0.47567 0.89295 0.56086 0.0
C38 C 0.45246 0.86034 0.52973 0.0
C39 C 0.4091 0.84491 0.52456 0.0
H40 H 0.45828 0.42121 1.04866 0.0
H41 H 0.56788 0.54421 1.06908 0.0
H42 H 0.57015 0.46033 0.97003 0.0
H43 H 0.48125 0.54507 0.14325 0.0
H44 H 0.38587 0.41512 0.1609 0.0
H45 H 0.37706 0.51299 0.23107 0.0
N46 N 0.49025 0.49305 0.0979 0.0
N47 N 0.45544 0.46662 0.11405 0.0
C48 C 0.49058 0.44417 1.04052 0.0
C49 C 0.51135 0.43553 1.00595 0.0
C50 C 0.51099 0.48311 1.06381 0.0
C51 C 0.55227 0.51395 1.05176 0.0
C52 C 0.57306 0.50598 1.01701 0.0
C53 C 0.55279 0.46665 0.99519 0.0
C54 C 0.45177 0.52172 0.15786 0.0
C55 C 0.43135 0.53459 0.1884 0.0
C56 C 0.43519 0.47888 0.1467 0.0
C57 C 0.3982 0.44827 0.16806 0.0
C58 C 0.37746 0.46076 0.19893 0.0
C59 C 0.39362 0.50377 0.20778 0.0
H60 H 0.02688 0.4961 0.5374 0.0
H61 H 0.0333 0.61619 0.53885 0.0
H62 H 0.09896 0.58826 0.43762 0.0
H63 H 0.95869 0.56164 0.63904 0.0
H64 H 0.93684 0.43503 0.63458 0.0
H65 H 0.87733 0.47177 0.73521 0.0
N66 N -0.00058 0.54471 0.57984 0.0
N67 N -0.01967 0.50892 0.59658 0.0
C68 C 0.03856 0.52706 0.52341 0.0
C69 C 0.06444 0.53885 0.48515 0.0
C70 C 0.02711 0.55517 0.54266 0.0
C71 C 0.04263 0.59509 0.52413 0.0
C72 C 0.06842 0.60745 0.48617 0.0
C73 C 0.07887 0.57896 0.46679 0.0
C74 C 0.94419 0.53021 0.65258 0.0
C75 C 0.91713 0.52005 0.68947 0.0
C76 C 0.9524 0.49968 0.63345 0.0
C77 C 0.93172 0.45864 0.65052 0.0
C78 C 0.90384 0.44779 0.68686 0.0
C79 C 0.89794 0.47923 0.70666 0.0
H80 H 0.42684 0.02322 1.04614 0.0
H81 H 0.55447 0.04853 1.03228 0.0
H82 H 0.50825 0.11119 0.94822 0.0
H83 H 0.5111 0.96358 0.12703 0.0
H84 H 0.38504 0.94075 0.14992 0.0
H85 H 0.43457 0.87821 0.22921 0.0
N86 N 0.48566 0.00435 1.07817 0.0
N87 N 0.45263 0.98456 0.10028 0.0
C88 C 0.45715 0.03926 1.02967 0.0
C89 C 0.46349 0.06693 0.9944 0.0
C90 C 0.49021 0.03241 1.0432 0.0
C91 C 0.52941 0.05411 1.02179 0.0
C92 C 0.53648 0.08268 0.98733 0.0
C93 C 0.50308 0.08842 0.9738 0.0
C94 C 0.48186 0.94848 0.14553 0.0
C95 C 0.47692 0.92065 0.18008 0.0
C96 C 0.44888 0.95656 0.13505 0.0
C97 C 0.41075 0.93558 0.15874 0.0
C98 C 0.40512 0.90674 0.1923 0.0
C99 C 0.4387 0.90035 0.20325 0.0
H100 H 0.43436 0.50262 0.5569 0.0
H101 H 0.56604 0.59299 0.53681 0.0
H102 H 0.47111 0.59371 0.45254 0.0
H103 H 0.55704 0.52211 0.64966 0.0
H104 H 0.43468 0.41196 0.62722 0.0
H105 H 0.51875 0.40982 0.72589 0.0
N106 N 0.51268 0.52484 0.58406 0.0
N107 N 0.48592 0.48983 0.59933 0.0
C108 C 0.45874 0.52858 0.53834 0.0
C109 C 0.44722 0.54617 0.50343 0.0
C110 C 0.50148 0.54447 0.55002 0.0
C111 C 0.5331 0.57994 0.52753 0.0
C112 C 0.52188 0.59784 0.49244 0.0
C113 C 0.4792 0.58037 0.4804 0.0
C114 C 0.53419 0.48973 0.65729 0.0
C115 C 0.54307 0.46881 0.69112 0.0
C116 C 0.49537 0.46927 0.63375 0.0
C117 C 0.46476 0.42777 0.64496 0.0
C118 C 0.47296 0.40682 0.6791 0.0
C119 C 0.5122 0.42722 0.70122 0.0
Mg120 Mg 0.2144 0.44957 0.36278 0.0
C121 C 0.19011 0.45415 0.27076 0.0
O122 O 0.17156 0.41349 0.27793 0.0
C123 C 0.27627 0.47452 0.43679 0.0
O124 O 0.24531 0.43821 0.45064 0.0
C125 C 0.13497 0.45233 0.38744 0.0
O126 O 0.13346 0.45406 0.34363 0.0
O127 O 0.16242 0.44498 0.40495 0.0
O128 O 0.21234 0.47973 0.30205 0.0
O129 O 0.22185 0.39904 0.33164 0.0
C130 C 0.25636 0.39881 0.33612 0.0
O131 O 0.27713 0.41208 0.3743 0.0
O132 O 0.27193 0.48905 0.40003 0.0
Mg133 Mg 0.76594 0.2162 0.83348 0.0
C134 C 0.71888 0.12747 0.79609 0.0
O135 O 0.71142 0.11882 0.83879 0.0
C136 C 0.85167 0.26332 0.88358 0.0
O137 O 0.86712 0.27403 0.84318 0.0
C138 C 0.70159 0.18076 0.90654 0.0
O139 O 0.73419 0.18205 0.92659 0.0
O140 O 0.70612 0.19574 0.86736 0.0
O141 O 0.74771 0.16439 0.78548 0.0
O142 O 0.78722 0.2729 0.79395 0.0
C143 C 0.81527 0.28114 0.76446 0.0
O144 O 0.82797 0.25401 0.75716 0.0
O145 O 0.81304 0.23484 0.88769 0.0
Mg146 Mg 0.55236 0.77842 0.31651 0.0
C147 C 0.55794 0.8316 0.23632 0.0
O148 O 0.53942 0.79449 0.21635 0.0
C149 C 0.56336 0.72523 0.3762 0.0
O150 O 0.52286 0.71157 0.37095 0.0
C151 C 0.53502 0.80444 0.40588 0.0
O152 O 0.57298 0.81089 0.41473 0.0
O153 O 0.5181 0.78976 0.36771 0.0
O154 O 0.57287 0.83501 0.27584 0.0
O155 O 0.50826 0.72188 0.27989 0.0
C156 C 0.52119 0.70828 0.24807 0.0
O157 O 0.56052 0.73087 0.23486 0.0
O158 O 0.58992 0.75801 0.35517 0.0
Mg159 Mg 0.76781 0.56196 0.85532 0.0
C160 C 0.70257 0.54817 0.78767 0.0
O161 O 0.72684 0.58935 0.78667 0.0
C162 C 0.81407 0.53916 0.91836 0.0
O163 O 0.83397 0.58043 0.92234 0.0
C164 C 0.73657 0.58022 0.94274 0.0
O165 O 0.75602 0.56194 0.96013 0.0
O166 O 0.74305 0.59104 0.90176 0.0
O167 O 0.71288 0.52688 0.81253 0.0
O168 O 0.82526 0.59344 0.8144 0.0
C169 C 0.82315 0.5852 0.7725 0.0
O170 O 0.7861 0.5675 0.75234 0.0
O171 O 0.78195 0.5205 0.89251 0.0
Mg172 Mg 0.1866 0.77318 0.36085 0.0
C173 C 0.13905 0.71206 0.28599 0.0
O174 O 0.1427 0.74703 0.27052 0.0
C175 C 0.24032 0.81434 0.44135 0.0
O176 O 0.23194 0.84287 0.4265 0.0
C177 C 0.11096 0.76811 0.41025 0.0
O178 O 0.08675 0.78271 0.42388 0.0
O179 O 0.13956 0.78888 0.38167 0.0
O180 O 0.15495 0.71289 0.32436 0.0
O181 O 0.23311 0.81812 0.31438 0.0
C182 C 0.25405 0.80395 0.29438 0.0
O183 O 0.24487 0.76523 0.30265 0.0
O184 O 0.22385 0.7788 0.42084 0.0
Mg185 Mg 0.4172 0.21148 0.83965 0.0
C186 C 0.43652 0.16084 0.77837 0.0
O187 O 0.39551 0.14435 0.7731 0.0
C188 C 0.43163 0.27726 0.90712 0.0
O189 O 0.39025 0.25357 0.90769 0.0
C190 C 0.39149 0.15724 0.92249 0.0
O191 O 0.41083 0.19435 0.94243 0.0
O192 O 0.38243 0.15515 0.88087 0.0
O193 O 0.45674 0.19292 0.80403 0.0
O194 O 0.38964 0.23643 0.79203 0.0
C195 C 0.40333 0.24433 0.75203 0.0
O196 O 0.42488 0.22733 0.73673 0.0
O197 O 0.45291 0.26654 0.8824 0.0
C198 C 0.18088 0.5277 0.19148 0.0
C199 C 0.13999 0.50103 0.1738 0.0
H200 H 0.22892 0.5337 0.23714 0.0
C201 C 0.1206 0.45745 0.18053 0.0
H202 H 0.19722 0.5613 0.18567 0.0
C203 C 0.13927 0.44162 0.20902 0.0
C204 C 0.17719 0.46919 0.23177 0.0
H205 H 0.08918 0.43593 0.16749 0.0
H206 H 0.12193 0.40829 0.2163 0.0
C207 C 0.19908 0.51198 0.22086 0.0
C208 C 0.61348 0.04193 0.75011 0.0
C209 C 0.60877 0.06183 0.71253 0.0
H210 H 0.65276 0.04692 0.80596 0.0
C211 C 0.64384 0.09922 0.69767 0.0
H212 H 0.58667 0.01343 0.76259 0.0
C213 C 0.68183 0.11839 0.72226 0.0
C214 C 0.68511 0.10097 0.7628 0.0
H215 H 0.64072 0.11541 0.66911 0.0
H216 H 0.70711 0.1488 0.71166 0.0
C217 C 0.6513 0.06134 0.77508 0.0
C218 C 0.47554 0.61226 0.17211 0.0
C219 C 0.45092 0.57981 0.20219 0.0
H220 H 0.51764 0.67852 0.16332 0.0
C221 C 0.44725 0.59092 0.24655 0.0
H222 H 0.47832 0.60527 0.13742 0.0
C223 C 0.46835 0.63302 0.26064 0.0
C224 C 0.49457 0.66488 0.23115 0.0
H225 H 0.42953 0.56714 0.27115 0.0
H226 H 0.4659 0.6404 0.29534 0.0
C227 C 0.49774 0.65431 0.18669 0.0
C228 C 0.8807 0.5617 0.68263 0.0
C229 C 0.90475 0.54969 0.70861 0.0
H230 H 0.8361 0.5831 0.68274 0.0
C231 C 0.90845 0.55803 0.75502 0.0
H232 H 0.87695 0.55521 0.6469 0.0
C233 C 0.88546 0.57445 0.77559 0.0
C234 C 0.85765 0.58206 0.75019 0.0
H235 H 0.92661 0.54879 0.77582 0.0
H236 H 0.88645 0.57731 0.81178 0.0
C237 C 0.85717 0.5775 0.70326 0.0
C238 C 0.34216 0.89891 0.23499 0.0
C239 C 0.36373 0.88073 0.21448 0.0
H240 H 0.29036 0.88895 0.27681 0.0
C241 C 0.34691 0.83706 0.21754 0.0
H242 H 0.35446 0.93252 0.23312 0.0
C243 C 0.31062 0.81234 0.24223 0.0
C244 C 0.29 0.83053 0.26468 0.0
H245 H 0.36241 0.82203 0.20144 0.0
H246 H 0.29931 0.77893 0.24448 0.0
C247 C 0.3056 0.874 0.26005 0.0
C248 C 0.43764 0.32921 0.66554 0.0
C249 C 0.44221 0.36302 0.69198 0.0
H250 H 0.42069 0.26427 0.66383 0.0
C251 C 0.42566 0.35515 0.73546 0.0
H252 H 0.4507 0.33467 0.63217 0.0
C253 C 0.40817 0.31484 0.7536 0.0
C254 C 0.40776 0.28189 0.72883 0.0
H255 H 0.42936 0.38093 0.75663 0.0
H256 H 0.3988 0.31065 0.78838 0.0
C257 C 0.42064 0.28899 0.68383 0.0
C258 C 0.46129 0.83756 0.45347 0.0
C259 C 0.47367 0.84515 0.49887 0.0
H260 H 0.47041 0.81821 0.38899 0.0
C261 C 0.50657 0.83898 0.51367 0.0
H262 H 0.43702 0.84327 0.44049 0.0
C263 C 0.52649 0.82537 0.48357 0.0
C264 C 0.51353 0.81738 0.43839 0.0
H265 H 0.51671 0.84444 0.54844 0.0
H266 H 0.55187 0.82096 0.49567 0.0
C267 C 0.48063 0.82342 0.42375 0.0
C268 C 0.62319 0.55152 0.95844 0.0
C269 C 0.61641 0.53735 1.00281 0.0
H270 H 0.66714 0.57777 0.90474 0.0
C271 C 0.65132 0.5456 1.02967 0.0
H272 H 0.59661 0.54514 0.937 0.0
C273 C 0.69176 0.56386 1.01111 0.0
C274 C 0.69799 0.57439 0.96543 0.0
H275 H 0.64679 0.53454 1.0638 0.0
H276 H 0.71754 0.56671 1.03165 0.0
C277 C 0.66366 0.57026 0.94001 0.0
C278 C 0.09689 0.68562 0.49376 0.0
C279 C 0.08308 0.64961 0.46617 0.0
H280 H 0.117 0.75151 0.49741 0.0
C281 C 0.08113 0.65383 0.41954 0.0
H282 H 0.09908 0.6836 0.52974 0.0
C283 C 0.09149 0.69278 0.40122 0.0
C284 C 0.10477 0.7284 0.42892 0.0
H285 H 0.06978 0.62665 0.39738 0.0
H286 H 0.08701 0.69456 0.36565 0.0
C287 C 0.10741 0.72453 0.47533 0.0
C288 C 0.42114 0.10176 1.00795 0.0
C289 C 0.43099 0.07714 0.97994 0.0
H290 H 0.39981 0.14623 1.01152 0.0
C291 C 0.41839 0.07177 0.93464 0.0
H292 H 0.43096 0.10676 1.04283 0.0
C293 C 0.40027 0.09407 0.91665 0.0
C294 C 0.39518 0.12279 0.94354 0.0
H295 H 0.426 0.05319 0.91232 0.0
H296 H 0.39441 0.09202 0.88086 0.0
C297 C 0.40349 0.12451 0.98987 0.0
C298 C 0.38757 0.55438 0.47298 0.0
C299 C 0.40205 0.52828 0.49006 0.0
H300 H 0.33637 0.55766 0.4422 0.0
C301 C 0.37335 0.48468 0.49251 0.0
H302 H 0.40822 0.5882 0.47169 0.0
C303 C 0.33174 0.46759 0.47734 0.0
C304 C 0.31821 0.49352 0.45828 0.0
H305 H 0.38325 0.46333 0.50457 0.0
H306 H 0.31077 0.43377 0.47847 0.0
C307 C 0.34628 0.53706 0.45656 0.0
C308 C 0.93123 0.36218 0.94601 0.0
C309 C 0.90663 0.36267 0.98161 0.0
H310 H 0.93328 0.32966 0.88699 0.0
C311 C 0.86769 0.32622 0.98993 0.0
H312 H 0.96111 0.39013 0.9386 0.0
C313 C 0.85168 0.29148 0.96055 0.0
C314 C 0.87402 0.29289 0.92176 0.0
H315 H 0.84799 0.32606 1.01696 0.0
H316 H 0.82012 0.26527 0.96611 0.0
C317 C 0.91505 0.3276 0.91628 0.0
C318 C 0.86792 0.50783 1.00465 0.0
C319 C 0.8728 0.47728 0.98094 0.0
H320 H 0.84581 0.55178 1.00297 0.0
C321 C 0.85511 0.46534 0.93746 0.0
H322 H 0.88001 0.51721 1.03851 0.0
C323 C 0.83385 0.48384 0.91809 0.0
C324 C 0.83104 0.51565 0.94111 0.0
H325 H 0.85896 0.44287 0.91738 0.0
H326 H 0.8216 0.47487 0.88418 0.0
C327 C 0.8479 0.52734 0.98459 0.0
C328 C 0.31572 0.80772 0.52372 0.0
C329 C 0.34518 0.85069 0.53209 0.0
H330 H 0.25984 0.76243 0.48796 0.0
C331 C 0.33574 0.88089 0.51647 0.0
H332 H 0.32182 0.78361 0.53578 0.0
C333 C 0.29994 0.86867 0.48935 0.0
C334 C 0.27306 0.82603 0.47696 0.0
H335 H 0.3578 0.91418 0.52197 0.0
H336 H 0.29504 0.89302 0.47563 0.0
C337 C 0.28032 0.79555 0.49608 0.0
C338 C 0.46029 0.35689 1.00118 0.0
C339 C 0.49027 0.39451 0.98064 0.0
H340 H 0.41783 0.29023 0.9936 0.0
C341 C 0.50057 0.39252 0.93553 0.0
H342 H 0.45188 0.35668 1.0359 0.0
C343 C 0.48257 0.35412 0.91226 0.0
C344 C 0.45258 0.31703 0.93285 0.0
H345 H 0.52219 0.42066 0.91766 0.0
H346 H 0.49109 0.35362 0.87764 0.0
C347 C 0.44111 0.31866 0.97722 0.0
C348 C 0.06811 0.50092 0.41681 0.0
C349 C 0.0763 0.50985 0.4628 0.0
H350 H 0.07895 0.4749 0.35758 0.0
C351 C 0.09992 0.49502 0.48536 0.0
H352 H 0.04988 0.51178 0.39857 0.0
C353 C 0.1173 0.47411 0.46163 0.0
C354 C 0.11096 0.46726 0.41497 0.0
H355 H 0.10692 0.50168 0.52079 0.0
H356 H 0.13722 0.46507 0.47944 0.0
C357 C 0.08488 0.4797 0.39333 0.0
C358 C 0.58263 0.11759 0.92053 0.0
C359 C 0.57891 0.10779 0.96641 0.0
H360 H 0.62407 0.14877 0.86582 0.0
C361 C 0.61607 0.12341 0.99242 0.0
H362 H 0.55484 0.10564 0.89918 0.0
C363 C 0.65578 0.14773 0.97307 0.0
C364 C 0.65938 0.15751 0.92734 0.0
H365 H 0.61458 0.11733 1.02796 0.0
H366 H 0.68373 0.15894 0.99405 0.0
C367 C 0.62236 0.14238 0.90131 0.0
C368 C 0.56279 0.67551 0.48342 0.0
C369 C 0.55285 0.63543 0.46748 0.0
H370 H 0.57589 0.73733 0.46575 0.0
C371 C 0.5595 0.6305 0.42204 0.0
H372 H 0.55686 0.67985 0.51803 0.0
C373 C 0.57052 0.66347 0.39212 0.0
C374 C 0.57516 0.70188 0.40719 0.0
H375 H 0.55104 0.59966 0.40874 0.0
H376 H 0.57011 0.65711 0.35654 0.0
C377 C 0.57378 0.7085 0.45344 0.0
C378 C 0.50607 0.11359 0.76252 0.0
C379 C 0.49154 0.09241 0.72085 0.0
H380 H 0.50078 0.15272 0.81275 0.0
C381 C 0.46033 0.09631 0.69736 0.0
H382 H 0.52926 0.11072 0.78234 0.0
C383 C 0.44312 0.11935 0.71572 0.0
C384 C 0.45754 0.14004 0.75731 0.0
H385 H 0.44896 0.08147 0.6648 0.0
H386 H 0.41839 0.12093 0.69739 0.0
C387 C 0.48967 0.13762 0.78021 0.0
C388 C 0.30133 0.42684 0.21956 0.0
C389 C 0.34103 0.43047 0.22598 0.0
H390 H 0.24239 0.41231 0.24883 0.0
C391 C 0.34875 0.41524 0.26567 0.0
H392 H 0.29493 0.43911 0.18958 0.0
C393 C 0.31902 0.40065 0.30015 0.0
C394 C 0.28086 0.40084 0.29553 0.0
H395 H 0.37941 0.41844 0.27178 0.0
H396 H 0.32741 0.39244 0.33174 0.0
C397 C 0.2713 0.41167 0.25376 0.0
C398 C 0.83883 0.38713 0.72075 0.0
C399 C 0.88016 0.40381 0.70416 0.0
H400 H 0.7862 0.33576 0.7531 0.0
C401 C 0.89881 0.37853 0.70557 0.0
H402 H 0.82271 0.40492 0.7191 0.0
C403 C 0.87717 0.33823 0.72398 0.0
C404 C 0.83663 0.32246 0.74204 0.0
H405 H 0.93062 0.39023 0.69365 0.0
H406 H 0.89283 0.31997 0.72534 0.0
C407 C 0.81758 0.34723 0.73994 0.0
C408 C 0.51709 0.88467 0.15974 0.0
C409 C 0.50923 0.90888 0.1906 0.0
H410 H 0.53935 0.84134 0.15006 0.0
C411 C 0.52504 0.9137 0.2346 0.0
H412 H 0.50478 0.88004 0.1258 0.0
C413 C 0.54531 0.892 0.24846 0.0
C414 C 0.54931 0.86428 0.2188 0.0
H415 H 0.51904 0.93193 0.25911 0.0
H416 H 0.55436 0.89408 0.2834 0.0
C417 C 0.53672 0.86238 0.17377 0.0
C418 C 0.58673 0.47938 0.76076 0.0
C419 C 0.58435 0.48982 0.71593 0.0
H420 H 0.62629 0.48879 0.8179 0.0
C421 C 0.62185 0.51984 0.69506 0.0
H422 H 0.55866 0.45761 0.77877 0.0
C423 C 0.66039 0.53899 0.71846 0.0
C424 C 0.66244 0.52745 0.76257 0.0
H425 H 0.62175 0.52827 0.66047 0.0
H426 H 0.68875 0.56226 0.70184 0.0
C427 C 0.62545 0.4974 0.78347 0.0
C428 C 0.09792 0.63888 0.18404 0.0
C429 C 0.09024 0.60073 0.20234 0.0
H430 H 0.11958 0.70427 0.19628 0.0
C431 C 0.09381 0.59835 0.24908 0.0
H432 H 0.09579 0.64168 0.14817 0.0
C433 C 0.10824 0.63414 0.27649 0.0
C434 C 0.11891 0.67309 0.25787 0.0
H435 H 0.08781 0.56917 0.26412 0.0
H436 H 0.1124 0.63157 0.31203 0.0
C437 C 0.11199 0.67475 0.21162 0.0
loop_
_geom_bond_atom_site_label_1
_geom_bond_atom_site_label_2
_geom_bond_distance
_geom_bond_site_symmetry_2
_ccdc_geom_bond_type
H0 C8 0.940 . S
H1 C11 0.940 . S
H2 C13 0.940 . S
H3 C14 0.940 . S
H4 C17 0.940 . S
H5 C19 0.940 . S
N6 N7 1.190 1_655 S
N6 C10 1.477 1_554 S
N7 N6 1.190 1_455 S
N7 C16 1.477 . S
C8 H0 0.940 . S
C8 C9 1.390 . S
C8 C10 1.322 . S
C9 C8 1.390 . S
C9 C13 1.370 . S
C10 N6 1.477 1_556 S
C10 C8 1.322 . S
C10 C11 1.447 . S
C11 H1 0.940 . S
C11 C10 1.447 . S
C11 C12 1.373 . S
C12 C11 1.373 . S
C12 C13 1.417 . S
C13 H2 0.940 . S
C13 C9 1.370 . S
C13 C12 1.417 . S
C14 H3 0.940 . S
C14 C15 1.390 . S
C14 C16 1.322 . S
C15 C14 1.390 . S
C15 C19 1.370 . S
C16 N7 1.477 . S
C16 C14 1.322 . S
C16 C17 1.447 . S
C17 H4 0.940 . S
C17 C16 1.447 . S
C17 C18 1.373 . S
C18 C17 1.373 . S
C18 C19 1.417 . S
C19 H5 0.940 . S
C19 C15 1.370 . S
C19 C18 1.417 . S
H20 C28 0.940 . S
H21 C31 0.940 . S
H22 C33 0.940 . S
H23 C34 0.940 . S
H24 C37 0.940 . S
H25 C39 0.940 . S
N26 N27 1.190 . S
N26 C30 1.477 . S
N27 N26 1.190 . S
N27 C36 1.477 1_545 S
C28 H20 0.940 . S
C28 C29 1.390 . S
C28 C30 1.322 . S
C29 C28 1.390 . S
C29 C33 1.370 . S
C30 N26 1.477 . S
C30 C28 1.322 . S
C30 C31 1.447 . S
C31 H21 0.940 . S
C31 C30 1.447 . S
C31 C32 1.373 . S
C32 C31 1.373 . S
C32 C33 1.417 . S
C33 H22 0.940 . S
C33 C29 1.370 . S
C33 C32 1.417 . S
C34 H23 0.940 . S
C34 C35 1.390 . S
C34 C36 1.322 . S
C35 C34 1.390 . S
C35 C39 1.370 . S
C36 N27 1.477 1_565 S
C36 C34 1.322 . S
C36 C37 1.447 . S
C37 H24 0.940 . S
C37 C36 1.447 . S
C37 C38 1.373 . S
C38 C37 1.373 . S
C38 C39 1.417 . S
C39 H25 0.940 . S
C39 C35 1.370 . S
C39 C38 1.417 . S
H40 C48 0.940 . S
H41 C51 0.940 . S
H42 C53 0.940 . S
H43 C54 0.940 . S
H44 C57 0.940 . S
H45 C59 0.940 . S
N46 N47 1.190 1_556 S
N46 C50 1.477 . S
N47 N46 1.190 1_554 S
N47 C56 1.477 . S
C48 H40 0.940 . S
C48 C49 1.390 . S
C48 C50 1.322 . S
C49 C48 1.390 . S
C49 C53 1.370 . S
C50 N46 1.477 . S
C50 C48 1.322 . S
C50 C51 1.447 . S
C51 H41 0.940 . S
C51 C50 1.447 . S
C51 C52 1.373 . S
C52 C51 1.373 . S
C52 C53 1.417 . S
C53 H42 0.940 . S
C53 C49 1.370 . S
C53 C52 1.417 . S
C54 H43 0.940 . S
C54 C55 1.390 . S
C54 C56 1.322 . S
C55 C54 1.390 . S
C55 C59 1.370 . S
C56 N47 1.477 . S
C56 C54 1.322 . S
C56 C57 1.447 . S
C57 H44 0.940 . S
C57 C56 1.447 . S
C57 C58 1.373 . S
C58 C57 1.373 . S
C58 C59 1.417 . S
C59 H45 0.940 . S
C59 C55 1.370 . S
C59 C58 1.417 . S
H60 C68 0.940 . S
H61 C71 0.940 . S
H62 C73 0.940 . S
H63 C74 0.940 . S
H64 C77 0.940 . S
H65 C79 0.940 . S
N66 N67 1.190 . S
N66 C70 1.477 1_655 S
N67 N66 1.190 . S
N67 C76 1.477 . S
C68 H60 0.940 . S
C68 C69 1.390 . S
C68 C70 1.322 . S
C69 C68 1.390 . S
C69 C73 1.370 . S
C70 N66 1.477 1_455 S
C70 C68 1.322 . S
C70 C71 1.447 . S
C71 H61 0.940 . S
C71 C70 1.447 . S
C71 C72 1.373 . S
C72 C71 1.373 . S
C72 C73 1.417 . S
C73 H62 0.940 . S
C73 C69 1.370 . S
C73 C72 1.417 . S
C74 H63 0.940 . S
C74 C75 1.390 . S
C74 C76 1.322 . S
C75 C74 1.390 . S
C75 C79 1.370 . S
C76 N67 1.477 . S
C76 C74 1.322 . S
C76 C77 1.447 . S
C77 H64 0.940 . S
C77 C76 1.447 . S
C77 C78 1.373 . S
C78 C77 1.373 . S
C78 C79 1.417 . S
C79 H65 0.940 . S
C79 C75 1.370 . S
C79 C78 1.417 . S
H80 C88 0.940 . S
H81 C91 0.940 . S
H82 C93 0.940 . S
H83 C94 0.940 . S
H84 C97 0.940 . S
H85 C99 0.940 . S
N86 N87 1.190 . S
N86 C90 1.477 1_554 S
N87 N86 1.190 . S
N87 C96 1.477 1_545 S
C88 H80 0.940 . S
C88 C89 1.390 . S
C88 C90 1.322 . S
C89 C88 1.390 . S
C89 C93 1.370 . S
C90 N86 1.477 1_556 S
C90 C88 1.322 . S
C90 C91 1.447 . S
C91 H81 0.940 . S
C91 C90 1.447 . S
C91 C92 1.373 . S
C92 C91 1.373 . S
C92 C93 1.417 . S
C93 H82 0.940 . S
C93 C89 1.370 . S
C93 C92 1.417 . S
C94 H83 0.940 . S
C94 C95 1.390 . S
C94 C96 1.322 . S
C95 C94 1.390 . S
C95 C99 1.370 . S
C96 N87 1.477 1_565 S
C96 C94 1.322 . S
C96 C97 1.447 . S
C97 H84 0.940 . S
C97 C96 1.447 . S
C97 C98 1.373 . S
C98 C97 1.373 . S
C98 C99 1.417 . S
C99 H85 0.940 . S
C99 C95 1.370 . S
C99 C98 1.417 . S
H100 C108 0.940 . S
H101 C111 0.940 . S
H102 C113 0.940 . S
H103 C114 0.940 . S
H104 C117 0.940 . S
H105 C119 0.940 . S
N106 N107 1.190 . S
N106 C110 1.477 . S
N107 N106 1.190 . S
N107 C116 1.477 . S
C108 H100 0.940 . S
C108 C109 1.390 . S
C108 C110 1.322 . S
C109 C108 1.390 . S
C109 C113 1.370 . S
C110 N106 1.477 . S
C110 C108 1.322 . S
C110 C111 1.447 . S
C111 H101 0.940 . S
C111 C110 1.447 . S
C111 C112 1.373 . S
C112 C111 1.373 . S
C112 C113 1.417 . S
C113 H102 0.940 . S
C113 C109 1.370 . S
C113 C112 1.417 . S
C114 H103 0.940 . S
C114 C115 1.390 . S
C114 C116 1.322 . S
C115 C114 1.390 . S
C115 C119 1.370 . S
C116 N107 1.477 . S
C116 C114 1.322 . S
C116 C117 1.447 . S
C117 H104 0.940 . S
C117 C116 1.447 . S
C117 C118 1.373 . S
C118 C117 1.373 . S
C118 C119 1.417 . S
C119 H105 0.940 . S
C119 C115 1.370 . S
C119 C118 1.417 . S
Mg120 O127 2.141 . S
Mg120 O128 2.048 . S
Mg120 O129 2.048 . S
Mg120 O132 2.141 . S
C121 O122 1.313 . S
C121 O128 1.195 . S
O122 C121 1.313 . S
C123 O124 1.245 . S
C123 O132 1.289 . S
O124 C123 1.245 . S
C125 O126 1.245 . S
C125 O127 1.289 . S
O126 C125 1.245 . S
O127 Mg120 2.141 . S
O127 C125 1.289 . S
O128 Mg120 2.048 . S
O128 C121 1.195 . S
O129 Mg120 2.048 . S
O129 C130 1.195 . S
C130 O129 1.195 . S
C130 O131 1.313 . S
O131 C130 1.313 . S
O132 Mg120 2.141 . S
O132 C123 1.289 . S
Mg133 O140 2.141 . S
Mg133 O141 2.048 . S
Mg133 O142 2.048 . S
Mg133 O145 2.141 . S
C134 O135 1.313 . S
C134 O141 1.195 . S
O135 C134 1.313 . S
C136 O137 1.245 . S
C136 O145 1.289 . S
O137 C136 1.245 . S
C138 O139 1.245 . S
C138 O140 1.289 . S
O139 C138 1.245 . S
O140 Mg133 2.141 . S
O140 C138 1.289 . S
O141 Mg133 2.048 . S
O141 C134 1.195 . S
O142 Mg133 2.048 . S
O142 C143 1.195 . S
C143 O142 1.195 . S
C143 O144 1.313 . S
O144 C143 1.313 . S
O145 Mg133 2.141 . S
O145 C136 1.289 . S
Mg146 O153 2.141 . S
Mg146 O154 2.048 . S
Mg146 O155 2.048 . S
Mg146 O158 2.141 . S
C147 O148 1.313 . S
C147 O154 1.195 . S
O148 C147 1.313 . S
C149 O150 1.245 . S
C149 O158 1.289 . S
O150 C149 1.245 . S
C151 O152 1.245 . S
C151 O153 1.289 . S
O152 C151 1.245 . S
O153 Mg146 2.141 . S
O153 C151 1.289 . S
O154 Mg146 2.048 . S
O154 C147 1.195 . S
O155 Mg146 2.048 . S
O155 C156 1.195 . S
C156 O155 1.195 . S
C156 O157 1.313 . S
O157 C156 1.313 . S
O158 Mg146 2.141 . S
O158 C149 1.289 . S
Mg159 O166 2.141 . S
Mg159 O167 2.048 . S
Mg159 O168 2.048 . S
Mg159 O171 2.141 . S
C160 O161 1.313 . S
C160 O167 1.195 . S
O161 C160 1.313 . S
C162 O163 1.245 . S
C162 O171 1.289 . S
O163 C162 1.245 . S
C164 O165 1.245 . S
C164 O166 1.289 . S
O165 C164 1.245 . S
O166 Mg159 2.141 . S
O166 C164 1.289 . S
O167 Mg159 2.048 . S
O167 C160 1.195 . S
O168 Mg159 2.048 . S
O168 C169 1.195 . S
C169 O168 1.195 . S
C169 O170 1.313 . S
O170 C169 1.313 . S
O171 Mg159 2.141 . S
O171 C162 1.289 . S
Mg172 O179 2.141 . S
Mg172 O180 2.048 . S
Mg172 O181 2.048 . S
Mg172 O184 2.141 . S
C173 O174 1.313 . S
C173 O180 1.195 . S
O174 C173 1.313 . S
C175 O176 1.245 . S
C175 O184 1.289 . S
O176 C175 1.245 . S
C177 O178 1.245 . S
C177 O179 1.289 . S
O178 C177 1.245 . S
O179 Mg172 2.141 . S
O179 C177 1.289 . S
O180 Mg172 2.048 . S
O180 C173 1.195 . S
O181 Mg172 2.048 . S
O181 C182 1.195 . S
C182 O181 1.195 . S
C182 O183 1.313 . S
O183 C182 1.313 . S
O184 Mg172 2.141 . S
O184 C175 1.289 . S
Mg185 O192 2.141 . S
Mg185 O193 2.048 . S
Mg185 O194 2.048 . S
Mg185 O197 2.141 . S
C186 O187 1.313 . S
C186 O193 1.195 . S
O187 C186 1.313 . S
C188 O189 1.245 . S
C188 O197 1.289 . S
O189 C188 1.245 . S
C190 O191 1.245 . S
C190 O192 1.289 . S
O191 C190 1.245 . S
O192 Mg185 2.141 . S
O192 C190 1.289 . S
O193 Mg185 2.048 . S
O193 C186 1.195 . S
O194 Mg185 2.048 . S
O194 C195 1.195 . S
C195 O194 1.195 . S
C195 O196 1.313 . S
O196 C195 1.313 . S
O197 Mg185 2.141 . S
O197 C188 1.289 . S
C198 C199 1.387 . S
C198 H202 0.950 . S
C198 C207 1.390 . S
C199 C198 1.387 . S
C199 C201 1.387 . S
H200 C207 0.950 . S
C201 C199 1.387 . S
C201 C203 1.390 . S
C201 H205 0.950 . S
H202 C198 0.950 . S
C203 C201 1.390 . S
C203 C204 1.387 . S
C203 H206 0.950 . S
C204 C203 1.387 . S
C204 C207 1.387 . S
H205 C201 0.950 . S
H206 C203 0.950 . S
C207 C198 1.390 . S
C207 H200 0.950 . S
C207 C204 1.387 . S
C208 C209 1.387 . S
C208 H212 0.950 . S
C208 C217 1.390 . S
C209 C208 1.387 . S
C209 C211 1.387 . S
H210 C217 0.950 . S
C211 C209 1.387 . S
C211 C213 1.390 . S
C211 H215 0.950 . S
H212 C208 0.950 . S
C213 C211 1.390 . S
C213 C214 1.387 . S
C213 H216 0.950 . S
C214 C213 1.387 . S
C214 C217 1.387 . S
H215 C211 0.950 . S
H216 C213 0.950 . S
C217 C208 1.390 . S
C217 H210 0.950 . S
C217 C214 1.387 . S
C218 C219 1.387 . S
C218 H222 0.950 . S
C218 C227 1.390 . S
C219 C218 1.387 . S
C219 C221 1.387 . S
H220 C227 0.950 . S
C221 C219 1.387 . S
C221 C223 1.390 . S
C221 H225 0.950 . S
H222 C218 0.950 . S
C223 C221 1.390 . S
C223 C224 1.387 . S
C223 H226 0.950 . S
C224 C223 1.387 . S
C224 C227 1.387 . S
H225 C221 0.950 . S
H226 C223 0.950 . S
C227 C218 1.390 . S
C227 H220 0.950 . S
C227 C224 1.387 . S
C228 C229 1.387 . S
C228 H232 0.950 . S
C228 C237 1.390 . S
C229 C228 1.387 . S
C229 C231 1.387 . S
H230 C237 0.950 . S
C231 C229 1.387 . S
C231 C233 1.390 . S
C231 H235 0.950 . S
H232 C228 0.950 . S
C233 C231 1.390 . S
C233 C234 1.387 . S
C233 H236 0.950 . S
C234 C233 1.387 . S
C234 C237 1.387 . S
H235 C231 0.950 . S
H236 C233 0.950 . S
C237 C228 1.390 . S
C237 H230 0.950 . S
C237 C234 1.387 . S
C238 C239 1.387 . S
C238 H242 0.950 . S
C238 C247 1.390 . S
C239 C238 1.387 . S
C239 C241 1.387 . S
H240 C247 0.950 . S
C241 C239 1.387 . S
C241 C243 1.390 . S
C241 H245 0.950 . S
H242 C238 0.950 . S
C243 C241 1.390 . S
C243 C244 1.387 . S
C243 H246 0.950 . S
C244 C243 1.387 . S
C244 C247 1.387 . S
H245 C241 0.950 . S
H246 C243 0.950 . S
C247 C238 1.390 . S
C247 H240 0.950 . S
C247 C244 1.387 . S
C248 C249 1.387 . S
C248 H252 0.950 . S
C248 C257 1.390 . S
C249 C248 1.387 . S
C249 C251 1.387 . S
H250 C257 0.950 . S
C251 C249 1.387 . S
C251 C253 1.390 . S
C251 H255 0.950 . S
H252 C248 0.950 . S
C253 C251 1.390 . S
C253 C254 1.387 . S
C253 H256 0.950 . S
C254 C253 1.387 . S
C254 C257 1.387 . S
H255 C251 0.950 . S
H256 C253 0.950 . S
C257 C248 1.390 . S
C257 H250 0.950 . S
C257 C254 1.387 . S
C258 C259 1.387 . S
C258 H262 0.950 . S
C258 C267 1.390 . S
C259 C258 1.387 . S
C259 C261 1.387 . S
H260 C267 0.950 . S
C261 C259 1.387 . S
C261 C263 1.390 . S
C261 H265 0.950 . S
H262 C258 0.950 . S
C263 C261 1.390 . S
C263 C264 1.387 . S
C263 H266 0.950 . S
C264 C263 1.387 . S
C264 C267 1.387 . S
H265 C261 0.950 . S
H266 C263 0.950 . S
C267 C258 1.390 . S
C267 H260 0.950 . S
C267 C264 1.387 . S
C268 C269 1.387 . S
C268 H272 0.950 . S
C268 C277 1.390 . S
C269 C268 1.387 . S
C269 C271 1.387 . S
H270 C277 0.950 . S
C271 C269 1.387 . S
C271 C273 1.390 . S
C271 H275 0.950 . S
H272 C268 0.950 . S
C273 C271 1.390 . S
C273 C274 1.387 . S
C273 H276 0.950 . S
C274 C273 1.387 . S
C274 C277 1.387 . S
H275 C271 0.950 . S
H276 C273 0.950 . S
C277 C268 1.390 . S
C277 H270 0.950 . S
C277 C274 1.387 . S
C278 C279 1.387 . S
C278 H282 0.950 . S
C278 C287 1.390 . S
C279 C278 1.387 . S
C279 C281 1.387 . S
H280 C287 0.950 . S
C281 C279 1.387 . S
C281 C283 1.390 . S
C281 H285 0.950 . S
H282 C278 0.950 . S
C283 C281 1.390 . S
C283 C284 1.387 . S
C283 H286 0.950 . S
C284 C283 1.387 . S
C284 C287 1.387 . S
H285 C281 0.950 . S
H286 C283 0.950 . S
C287 C278 1.390 . S
C287 H280 0.950 . S
C287 C284 1.387 . S
C288 C289 1.387 . S
C288 H292 0.950 . S
C288 C297 1.390 . S
C289 C288 1.387 . S
C289 C291 1.387 . S
H290 C297 0.950 . S
C291 C289 1.387 . S
C291 C293 1.390 . S
C291 H295 0.950 . S
H292 C288 0.950 . S
C293 C291 1.390 . S
C293 C294 1.387 . S
C293 H296 0.950 . S
C294 C293 1.387 . S
C294 C297 1.387 . S
H295 C291 0.950 . S
H296 C293 0.950 . S
C297 C288 1.390 . S
C297 H290 0.950 . S
C297 C294 1.387 . S
C298 C299 1.387 . S
C298 H302 0.950 . S
C298 C307 1.390 . S
C299 C298 1.387 . S
C299 C301 1.387 . S
H300 C307 0.950 . S
C301 C299 1.387 . S
C301 C303 1.390 . S
C301 H305 0.950 . S
H302 C298 0.950 . S
C303 C301 1.390 . S
C303 C304 1.387 . S
C303 H306 0.950 . S
C304 C303 1.387 . S
C304 C307 1.387 . S
H305 C301 0.950 . S
H306 C303 0.950 . S
C307 C298 1.390 . S
C307 H300 0.950 . S
C307 C304 1.387 . S
C308 C309 1.387 . S
C308 H312 0.950 . S
C308 C317 1.390 . S
C309 C308 1.387 . S
C309 C311 1.387 . S
H310 C317 0.950 . S
C311 C309 1.387 . S
C311 C313 1.390 . S
C311 H315 0.950 . S
H312 C308 0.950 . S
C313 C311 1.390 . S
C313 C314 1.387 . S
C313 H316 0.950 . S
C314 C313 1.387 . S
C314 C317 1.387 . S
H315 C311 0.950 . S
H316 C313 0.950 . S
C317 C308 1.390 . S
C317 H310 0.950 . S
C317 C314 1.387 . S
C318 C319 1.387 . S
C318 H322 0.950 . S
C318 C327 1.390 . S
C319 C318 1.387 . S
C319 C321 1.387 . S
H320 C327 0.950 . S
C321 C319 1.387 . S
C321 C323 1.390 . S
C321 H325 0.950 . S
H322 C318 0.950 . S
C323 C321 1.390 . S
C323 C324 1.387 . S
C323 H326 0.950 . S
C324 C323 1.387 . S
C324 C327 1.387 . S
H325 C321 0.950 . S
H326 C323 0.950 . S
C327 C318 1.390 . S
C327 H320 0.950 . S
C327 C324 1.387 . S
C328 C329 1.387 . S
C328 H332 0.950 . S
C328 C337 1.390 . S
C329 C328 1.387 . S
C329 C331 1.387 . S
H330 C337 0.950 . S
C331 C329 1.387 . S
C331 C333 1.390 . S
C331 H335 0.950 . S
H332 C328 0.950 . S
C333 C331 1.390 . S
C333 C334 1.387 . S
C333 H336 0.950 . S
C334 C333 1.387 . S
C334 C337 1.387 . S
H335 C331 0.950 . S
H336 C333 0.950 . S
C337 C328 1.390 . S
C337 H330 0.950 . S
C337 C334 1.387 . S
C338 C339 1.387 . S
C338 H342 0.950 . S
C338 C347 1.390 . S
C339 C338 1.387 . S
C339 C341 1.387 . S
H340 C347 0.950 . S
C341 C339 1.387 . S
C341 C343 1.390 . S
C341 H345 0.950 . S
H342 C338 0.950 . S
C343 C341 1.390 . S
C343 C344 1.387 . S
C343 H346 0.950 . S
C344 C343 1.387 . S
C344 C347 1.387 . S
H345 C341 0.950 . S
H346 C343 0.950 . S
C347 C338 1.390 . S
C347 H340 0.950 . S
C347 C344 1.387 . S
C348 C349 1.387 . S
C348 H352 0.950 . S
C348 C357 1.390 . S
C349 C348 1.387 . S
C349 C351 1.387 . S
H350 C357 0.950 . S
C351 C349 1.387 . S
C351 C353 1.390 . S
C351 H355 0.950 . S
H352 C348 0.950 . S
C353 C351 1.390 . S
C353 C354 1.387 . S
C353 H356 0.950 . S
C354 C353 1.387 . S
C354 C357 1.387 . S
H355 C351 0.950 . S
H356 C353 0.950 . S
C357 C348 1.390 . S
C357 H350 0.950 . S
C357 C354 1.387 . S
C358 C359 1.387 . S
C358 H362 0.950 . S
C358 C367 1.390 . S
C359 C358 1.387 . S
C359 C361 1.387 . S
H360 C367 0.950 . S
C361 C359 1.387 . S
C361 C363 1.390 . S
C361 H365 0.950 . S
H362 C358 0.950 . S
C363 C361 1.390 . S
C363 C364 1.387 . S
C363 H366 0.950 . S
C364 C363 1.387 . S
C364 C367 1.387 . S
H365 C361 0.950 . S
H366 C363 0.950 . S
C367 C358 1.390 . S
C367 H360 0.950 . S
C367 C364 1.387 . S
C368 C369 1.387 . S
C368 H372 0.950 . S
C368 C377 1.390 . S
C369 C368 1.387 . S
C369 C371 1.387 . S
H370 C377 0.950 . S
C371 C369 1.387 . S
C371 C373 1.390 . S
C371 H375 0.950 . S
H372 C368 0.950 . S
C373 C371 1.390 . S
C373 C374 1.387 . S
C373 H376 0.950 . S
C374 C373 1.387 . S
C374 C377 1.387 . S
H375 C371 0.950 . S
H376 C373 0.950 . S
C377 C368 1.390 . S
C377 H370 0.950 . S
C377 C374 1.387 . S
C378 C379 1.387 . S
C378 H382 0.950 . S
C378 C387 1.390 . S
C379 C378 1.387 . S
C379 C381 1.387 . S
H380 C387 0.950 . S
C381 C379 1.387 . S
C381 C383 1.390 . S
C381 H385 0.950 . S
H382 C378 0.950 . S
C383 C381 1.390 . S
C383 C384 1.387 . S
C383 H386 0.950 . S
C384 C383 1.387 . S
C384 C387 1.387 . S
H385 C381 0.950 . S
H386 C383 0.950 . S
C387 C378 1.390 . S
C387 H380 0.950 . S
C387 C384 1.387 . S
C388 C389 1.387 . S
C388 H392 0.950 . S
C388 C397 1.390 . S
C389 C388 1.387 . S
C389 C391 1.387 . S
H390 C397 0.950 . S
C391 C389 1.387 . S
C391 C393 1.390 . S
C391 H395 0.950 . S
H392 C388 0.950 . S
C393 C391 1.390 . S
C393 C394 1.387 . S
C393 H396 0.950 . S
C394 C393 1.387 . S
C394 C397 1.387 . S
H395 C391 0.950 . S
H396 C393 0.950 . S
C397 C388 1.390 . S
C397 H390 0.950 . S
C397 C394 1.387 . S
C398 C399 1.387 . S
C398 H402 0.950 . S
C398 C407 1.390 . S
C399 C398 1.387 . S
C399 C401 1.387 . S
H400 C407 0.950 . S
C401 C399 1.387 . S
C401 C403 1.390 . S
C401 H405 0.950 . S
H402 C398 0.950 . S
C403 C401 1.390 . S
C403 C404 1.387 . S
C403 H406 0.950 . S
C404 C403 1.387 . S
C404 C407 1.387 . S
H405 C401 0.950 . S
H406 C403 0.950 . S
C407 C398 1.390 . S
C407 H400 0.950 . S
C407 C404 1.387 . S
C408 C409 1.387 . S
C408 H412 0.950 . S
C408 C417 1.390 . S
C409 C408 1.387 . S
C409 C411 1.387 . S
H410 C417 0.950 . S
C411 C409 1.387 . S
C411 C413 1.390 . S
C411 H415 0.950 . S
H412 C408 0.950 . S
C413 C411 1.390 . S
C413 C414 1.387 . S
C413 H416 0.950 . S
C414 C413 1.387 . S
C414 C417 1.387 . S
H415 C411 0.950 . S
H416 C413 0.950 . S
C417 C408 1.390 . S
C417 H410 0.950 . S
C417 C414 1.387 . S
C418 C419 1.387 . S
C418 H422 0.950 . S
C418 C427 1.390 . S
C419 C418 1.387 . S
C419 C421 1.387 . S
H420 C427 0.950 . S
C421 C419 1.387 . S
C421 C423 1.390 . S
C421 H425 0.950 . S
H422 C418 0.950 . S
C423 C421 1.390 . S
C423 C424 1.387 . S
C423 H426 0.950 . S
C424 C423 1.387 . S
C424 C427 1.387 . S
H425 C421 0.950 . S
H426 C423 0.950 . S
C427 C418 1.390 . S
C427 H420 0.950 . S
C427 C424 1.387 . S
C428 C429 1.387 . S
C428 H432 0.950 . S
C428 C437 1.390 . S
C429 C428 1.387 . S
C429 C431 1.387 . S
H430 C437 0.950 . S
C431 C429 1.387 . S
C431 C433 1.390 . S
C431 H435 0.950 . S
H432 C428 0.950 . S
C433 C431 1.390 . S
C433 C434 1.387 . S
C433 H436 0.950 . S
C434 C433 1.387 . S
C434 C437 1.387 . S
H435 C431 0.950 . S
H436 C433 0.950 . S
C437 C428 1.390 . S
C437 H430 0.950 . S
C437 C434 1.387 . S
C199 C18 1.415 . S
C204 C121 1.464 . S
C209 C29 1.449 . S
C214 C134 1.547 . S
C224 C156 1.480 . S
C219 C55 1.406 . S
C234 C169 1.545 . S
C229 C75 1.465 . S
C244 C182 1.461 . S
C239 C98 1.426 . S
C254 C195 1.509 . S
C249 C118 1.474 . S
C259 C38 1.410 . S
C264 C151 1.445 . S
C269 C52 1.470 . S
C274 C164 1.505 . S
C284 C177 1.456 . S
C279 C72 1.426 . S
C294 C190 1.538 . S
C289 C89 1.457 . S
C299 C109 1.398 . S
C304 C123 1.494 . S
C314 C136 1.543 . S
C309 C9 1.442 . S
C324 C162 1.438 . S
C319 C12 1.410 . S
C329 C35 1.441 . S
C334 C175 1.519 . S
C344 C188 1.469 . S
C339 C49 1.394 . S
C349 C69 1.456 . S
C354 C125 1.552 . S
C359 C92 1.424 . S
C364 C138 1.473 . S
C369 C112 1.470 . S
C374 C149 1.499 . S
C379 C32 1.424 . S
C384 C186 1.452 . S
C394 C130 1.532 . S
C389 C58 1.480 . S
C399 C78 1.433 . S
C404 C143 1.484 . S
C409 C95 1.463 . S
C414 C147 1.547 . S
C419 C115 1.406 . S
C424 C160 1.484 . S
C429 C15 1.450 . S
C434 C173 1.533 . S
