# Generated by pormake.
# Topology ptr, (4,4)-cn, num edge types: 1
# Building blocks:
#     Node 0, Type 0, BuildingBlock: QUQFOY_clean_sbu_3, # of connection points: 4
#     Node 1, Type 0, BuildingBlock: QUQFOY_clean_sbu_3, # of connection points: 4
#     Node 2, Type 0, BuildingBlock: QUQFOY_clean_sbu_3, # of connection points: 4
#     Node 3, Type 0, BuildingBlock: QUQFOY_clean_sbu_3, # of connection points: 4
#     Node 4, Type 0, BuildingBlock: QUQFOY_clean_sbu_3, # of connection points: 4
#     Node 5, Type 0, BuildingBlock: QUQFOY_clean_sbu_3, # of connection points: 4
#     Node 6, Type 0, BuildingBlock: QUQFOY_clean_sbu_3, # of connection points: 4
#     Node 7, Type 0, BuildingBlock: QUQFOY_clean_sbu_3, # of connection points: 4
#     Node 8, Type 0, BuildingBlock: QUQFOY_clean_sbu_3, # of connection points: 4
#     Node 9, Type 0, BuildingBlock: QUQFOY_clean_sbu_3, # of connection points: 4
#     Node 10, Type 0, BuildingBlock: QUQFOY_clean_sbu_3, # of connection points: 4
#     Node 11, Type 0, BuildingBlock: QUQFOY_clean_sbu_3, # of connection points: 4
#     Node 12, Type 0, BuildingBlock: QUQFOY_clean_sbu_3, # of connection points: 4
#     Node 13, Type 0, BuildingBlock: QUQFOY_clean_sbu_3, # of connection points: 4
#     Node 14, Type 0, BuildingBlock: QUQFOY_clean_sbu_3, # of connection points: 4
#     Node 15, Type 0, BuildingBlock: QUQFOY_clean_sbu_3, # of connection points: 4
#     Node 16, Type 0, BuildingBlock: QUQFOY_clean_sbu_3, # of connection points: 4
#     Node 17, Type 0, BuildingBlock: QUQFOY_clean_sbu_3, # of connection points: 4
#     Node 18, Type 1, BuildingBlock: NAHDIM_clean_linker_0, # of connection points: 4
#     Node 19, Type 1, BuildingBlock: NAHDIM_clean_linker_0, # of connection points: 4
#     Node 20, Type 1, BuildingBlock: NAHDIM_clean_linker_0, # of connection points: 4
#     Node 21, Type 1, BuildingBlock: NAHDIM_clean_linker_0, # of connection points: 4
#     Node 22, Type 1, BuildingBlock: NAHDIM_clean_linker_0, # of connection points: 4
#     Node 23, Type 1, BuildingBlock: NAHDIM_clean_linker_0, # of connection points: 4
#     Node 24, Type 1, BuildingBlock: NAHDIM_clean_linker_0, # of connection points: 4
#     Node 25, Type 1, BuildingBlock: NAHDIM_clean_linker_0, # of connection points: 4
#     Node 26, Type 1, BuildingBlock: NAHDIM_clean_linker_0, # of connection points: 4
#     Node 27, Type 1, BuildingBlock: NAHDIM_clean_linker_0, # of connection points: 4
#     Node 28, Type 1, BuildingBlock: NAHDIM_clean_linker_0, # of connection points: 4
#     Node 29, Type 1, BuildingBlock: NAHDIM_clean_linker_0, # of connection points: 4
#     Node 30, Type 1, BuildingBlock: NAHDIM_clean_linker_0, # of connection points: 4
#     Node 31, Type 1, BuildingBlock: NAHDIM_clean_linker_0, # of connection points: 4
#     Node 32, Type 1, BuildingBlock: NAHDIM_clean_linker_0, # of connection points: 4
#     Node 33, Type 1, BuildingBlock: NAHDIM_clean_linker_0, # of connection points: 4
#     Node 34, Type 1, BuildingBlock: NAHDIM_clean_linker_0, # of connection points: 4
#     Node 35, Type 1, BuildingBlock: NAHDIM_clean_linker_0, # of connection points: 4
#     Edge 36, Type (0, 1), BuildingBlock: OJICUG_clean_linker_0, # of connection points: 2
#     Edge 37, Type (0, 1), BuildingBlock: OJICUG_clean_linker_0, # of connection points: 2
#     Edge 38, Type (0, 1), BuildingBlock: OJICUG_clean_linker_0, # of connection points: 2
#     Edge 39, Type (0, 1), BuildingBlock: OJICUG_clean_linker_0, # of connection points: 2
#     Edge 40, Type (0, 1), BuildingBlock: OJICUG_clean_linker_0, # of connection points: 2
#     Edge 41, Type (0, 1), BuildingBlock: OJICUG_clean_linker_0, # of connection points: 2
#     Edge 42, Type (0, 1), BuildingBlock: OJICUG_clean_linker_0, # of connection points: 2
#     Edge 43, Type (0, 1), BuildingBlock: OJICUG_clean_linker_0, # of connection points: 2
#     Edge 44, Type (0, 1), BuildingBlock: OJICUG_clean_linker_0, # of connection points: 2
#     Edge 45, Type (0, 1), BuildingBlock: OJICUG_clean_linker_0, # of connection points: 2
#     Edge 46, Type (0, 1), BuildingBlock: OJICUG_clean_linker_0, # of connection points: 2
#     Edge 47, Type (0, 1), BuildingBlock: OJICUG_clean_linker_0, # of connection points: 2
#     Edge 48, Type (0, 1), BuildingBlock: OJICUG_clean_linker_0, # of connection points: 2
#     Edge 49, Type (0, 1), BuildingBlock: OJICUG_clean_linker_0, # of connection points: 2
#     Edge 50, Type (0, 1), BuildingBlock: OJICUG_clean_linker_0, # of connection points: 2
#     Edge 51, Type (0, 1), BuildingBlock: OJICUG_clean_linker_0, # of connection points: 2
#     Edge 52, Type (0, 1), BuildingBlock: OJICUG_clean_linker_0, # of connection points: 2
#     Edge 53, Type (0, 1), BuildingBlock: OJICUG_clean_linker_0, # of connection points: 2
#     Edge 54, Type (0, 1), BuildingBlock: OJICUG_clean_linker_0, # of connection points: 2
#     Edge 55, Type (0, 1), BuildingBlock: OJICUG_clean_linker_0, # of connection points: 2
#     Edge 56, Type (0, 1), BuildingBlock: OJICUG_clean_linker_0, # of connection points: 2
#     Edge 57, Type (0, 1), BuildingBlock: OJICUG_clean_linker_0, # of connection points: 2
#     Edge 58, Type (0, 1), BuildingBlock: OJICUG_clean_linker_0, # of connection points: 2
#     Edge 59, Type (0, 1), BuildingBlock: OJICUG_clean_linker_0, # of connection points: 2
#     Edge 60, Type (0, 1), BuildingBlock: OJICUG_clean_linker_0, # of connection points: 2
#     Edge 61, Type (0, 1), BuildingBlock: OJICUG_clean_linker_0, # of connection points: 2
#     Edge 62, Type (0, 1), BuildingBlock: OJICUG_clean_linker_0, # of connection points: 2
#     Edge 63, Type (0, 1), BuildingBlock: OJICUG_clean_linker_0, # of connection points: 2
#     Edge 64, Type (0, 1), BuildingBlock: OJICUG_clean_linker_0, # of connection points: 2
#     Edge 65, Type (0, 1), BuildingBlock: OJICUG_clean_linker_0, # of connection points: 2
#     Edge 66, Type (0, 1), BuildingBlock: OJICUG_clean_linker_0, # of connection points: 2
#     Edge 67, Type (0, 1), BuildingBlock: OJICUG_clean_linker_0, # of connection points: 2
#     Edge 68, Type (0, 1), BuildingBlock: OJICUG_clean_linker_0, # of connection points: 2
#     Edge 69, Type (0, 1), BuildingBlock: OJICUG_clean_linker_0, # of connection points: 2
#     Edge 70, Type (0, 1), BuildingBlock: OJICUG_clean_linker_0, # of connection points: 2
#     Edge 71, Type (0, 1), BuildingBlock: OJICUG_clean_linker_0, # of connection points: 2
#     Edge 72, Type (0, 1), BuildingBlock: OJICUG_clean_linker_0, # of connection points: 2
#     Edge 73, Type (0, 1), BuildingBlock: OJICUG_clean_linker_0, # of connection points: 2
#     Edge 74, Type (0, 1), BuildingBlock: OJICUG_clean_linker_0, # of connection points: 2
#     Edge 75, Type (0, 1), BuildingBlock: OJICUG_clean_linker_0, # of connection points: 2
#     Edge 76, Type (0, 1), BuildingBlock: OJICUG_clean_linker_0, # of connection points: 2
#     Edge 77, Type (0, 1), BuildingBlock: OJICUG_clean_linker_0, # of connection points: 2
#     Edge 78, Type (0, 1), BuildingBlock: OJICUG_clean_linker_0, # of connection points: 2
#     Edge 79, Type (0, 1), BuildingBlock: OJICUG_clean_linker_0, # of connection points: 2
#     Edge 80, Type (0, 1), BuildingBlock: OJICUG_clean_linker_0, # of connection points: 2
#     Edge 81, Type (0, 1), BuildingBlock: OJICUG_clean_linker_0, # of connection points: 2
#     Edge 82, Type (0, 1), BuildingBlock: OJICUG_clean_linker_0, # of connection points: 2
#     Edge 83, Type (0, 1), BuildingBlock: OJICUG_clean_linker_0, # of connection points: 2
#     Edge 84, Type (0, 1), BuildingBlock: OJICUG_clean_linker_0, # of connection points: 2
#     Edge 85, Type (0, 1), BuildingBlock: OJICUG_clean_linker_0, # of connection points: 2
#     Edge 86, Type (0, 1), BuildingBlock: OJICUG_clean_linker_0, # of connection points: 2
#     Edge 87, Type (0, 1), BuildingBlock: OJICUG_clean_linker_0, # of connection points: 2
#     Edge 88, Type (0, 1), BuildingBlock: OJICUG_clean_linker_0, # of connection points: 2
#     Edge 89, Type (0, 1), BuildingBlock: OJICUG_clean_linker_0, # of connection points: 2
#     Edge 90, Type (0, 1), BuildingBlock: OJICUG_clean_linker_0, # of connection points: 2
#     Edge 91, Type (0, 1), BuildingBlock: OJICUG_clean_linker_0, # of connection points: 2
#     Edge 92, Type (0, 1), BuildingBlock: OJICUG_clean_linker_0, # of connection points: 2
#     Edge 93, Type (0, 1), BuildingBlock: OJICUG_clean_linker_0, # of connection points: 2
#     Edge 94, Type (0, 1), BuildingBlock: OJICUG_clean_linker_0, # of connection points: 2
#     Edge 95, Type (0, 1), BuildingBlock: OJICUG_clean_linker_0, # of connection points: 2
#     Edge 96, Type (0, 1), BuildingBlock: OJICUG_clean_linker_0, # of connection points: 2
#     Edge 97, Type (0, 1), BuildingBlock: OJICUG_clean_linker_0, # of connection points: 2
#     Edge 98, Type (0, 1), BuildingBlock: OJICUG_clean_linker_0, # of connection points: 2
#     Edge 99, Type (0, 1), BuildingBlock: OJICUG_clean_linker_0, # of connection points: 2
#     Edge 100, Type (0, 1), BuildingBlock: OJICUG_clean_linker_0, # of connection points: 2
#     Edge 101, Type (0, 1), BuildingBlock: OJICUG_clean_linker_0, # of connection points: 2
#     Edge 102, Type (0, 1), BuildingBlock: OJICUG_clean_linker_0, # of connection points: 2
#     Edge 103, Type (0, 1), BuildingBlock: OJICUG_clean_linker_0, # of connection points: 2
#     Edge 104, Type (0, 1), BuildingBlock: OJICUG_clean_linker_0, # of connection points: 2
#     Edge 105, Type (0, 1), BuildingBlock: OJICUG_clean_linker_0, # of connection points: 2
#     Edge 106, Type (0, 1), BuildingBlock: OJICUG_clean_linker_0, # of connection points: 2
#     Edge 107, Type (0, 1), BuildingBlock: OJICUG_clean_linker_0, # of connection points: 2
# Relax obj value: 0.030
# Max RMSD: 0.173
# Mean RMSD: 0.060
data_MOF--net-ptr--node1-QUQFOY_clean_sbu_3--node2-NAHDIM_clean_linker_0--edge1-OJICUG_clean_linker_0
_symmetry_space_group_name_H-M    P1
_symmetry_Int_Tables_number       1
_symmetry_cell_setting            triclinic
loop_
_symmetry_equiv_pos_as_xyz
'x, y, z'
_cell_length_a     76.60545
_cell_length_b     76.564876
_cell_length_c     65.327621
_cell_angle_alpha  91.293952
_cell_angle_beta   89.990162
_cell_angle_gamma 120.65929
loop_
_atom_site_label
_atom_site_type_symbol
_atom_site_fract_x
_atom_site_fract_y
_atom_site_fract_z
_atom_type_partial_charge
C0 C 0.96772 0.30436 0.98762 0.0
O1 O 0.9563 0.31004 0.99567 0.0
Cd2 Cd 0.97142 0.34268 0.01344 0.0
O3 O 0.98687 0.31507 0.98967 0.0
Cd4 Cd 0.0148 0.3462 0.00522 0.0
C5 C 0.00078 0.37045 0.97271 0.0
O6 O 0.99789 0.34729 0.0365 0.0
O7 O 0.02637 0.37428 0.0294 0.0
O8 O 0.02413 0.32164 0.01348 0.0
C9 C 0.01173 0.36523 0.04163 0.0
O10 O 0.98597 0.36516 0.98483 0.0
C11 C 0.04291 0.33277 0.01009 0.0
O12 O 0.01372 0.36491 0.97559 0.0
O13 O 0.04917 0.35069 0.00411 0.0
C14 C 0.65771 0.68822 0.04829 0.0
O15 O 0.63862 0.68035 0.04692 0.0
Cd16 Cd 0.61791 0.65177 0.02428 0.0
O17 O 0.66686 0.6814 0.03753 0.0
Cd18 Cd 0.66028 0.65529 0.0111 0.0
C19 C 0.62946 0.61661 0.04157 0.0
O20 O 0.63515 0.65932 0.9923 0.0
O21 O 0.63977 0.6351 0.9816 0.0
O22 O 0.69131 0.68234 0.99718 0.0
C23 C 0.63077 0.645 0.97941 0.0
O24 O 0.61653 0.62211 0.03889 0.0
C25 C 0.70025 0.67229 0.9953 0.0
O26 O 0.64732 0.6267 0.03446 0.0
O27 O 0.69044 0.65386 0.00064 0.0
C28 C 0.30283 0.96552 0.01645 0.0
O29 O 0.30797 0.95348 0.00874 0.0
Cd30 Cd 0.34197 0.96782 0.99599 0.0
O31 O 0.31427 0.98457 0.01466 0.0
Cd32 Cd 0.34503 0.00957 0.99746 0.0
C33 C 0.36874 0.00214 0.03571 0.0
O34 O 0.34911 0.99073 0.96864 0.0
O35 O 0.37533 0.01935 0.97872 0.0
O36 O 0.31991 0.01322 0.98003 0.0
C37 C 0.36731 0.0048 0.96563 0.0
O38 O 0.36331 0.98576 0.0255 0.0
C39 C 0.32922 0.03242 0.98026 0.0
O40 O 0.36355 0.01467 0.02986 0.0
O41 O 0.34625 0.04189 0.98973 0.0
C42 C 0.96547 0.66616 0.99754 0.0
O43 O 0.95185 0.64748 0.99761 0.0
Cd44 Cd 0.9606 0.62393 0.01203 0.0
O45 O 0.98293 0.67222 0.00514 0.0
Cd46 Cd 0.00619 0.6649 0.02281 0.0
C47 C 0.00193 0.63431 0.98178 0.0
O48 O 0.97974 0.63972 0.04298 0.0
O49 O 0.00965 0.64433 0.04889 0.0
O50 O 0.01161 0.69453 0.04162 0.0
C51 C 0.99074 0.63452 0.05252 0.0
O52 O 0.98336 0.62306 0.98652 0.0
C53 C 0.03006 0.70596 0.03696 0.0
O54 O 0.01371 0.65054 0.99209 0.0
O55 O 0.03834 0.69782 0.02669 0.0
C56 C 0.30957 0.34503 0.0267 0.0
O57 O 0.31741 0.36353 0.03231 0.0
Cd58 Cd 0.34957 0.3878 0.01742 0.0
O59 O 0.31874 0.3395 0.01436 0.0
Cd60 Cd 0.3489 0.35011 0.99382 0.0
C61 C 0.3809 0.37171 0.03528 0.0
O62 O 0.34705 0.37855 0.98125 0.0
O63 O 0.37057 0.37404 0.96825 0.0
O64 O 0.32372 0.32265 0.97238 0.0
C65 C 0.36155 0.38412 0.96875 0.0
O66 O 0.37485 0.38437 0.03664 0.0
C67 C 0.33122 0.31129 0.97371 0.0
O68 O 0.37389 0.35777 0.02138 0.0
O69 O 0.34823 0.31875 0.983 0.0
C70 C 0.70383 0.03948 0.99196 0.0
O71 O 0.69861 0.05248 0.99591 0.0
Cd72 Cd 0.66447 0.04009 0.00786 0.0
O73 O 0.69217 0.021 0.99639 0.0
Cd74 Cd 0.66057 0.99746 0.01342 0.0
C75 C 0.63511 0.00112 0.97325 0.0
O76 O 0.65984 0.02115 0.03846 0.0
O77 O 0.63342 0.99076 0.03682 0.0
O78 O 0.6837 0.99149 0.03242 0.0
C79 C 0.64262 0.00825 0.04546 0.0
O80 O 0.64189 0.0193 0.97971 0.0
C81 C 0.67574 0.97281 0.02769 0.0
O82 O 0.63964 0.98942 0.98242 0.0
O83 O 0.65966 0.96485 0.01664 0.0
C84 C 0.62857 0.6418 0.31456 0.0
O85 O 0.61744 0.64967 0.31481 0.0
Cd86 Cd 0.62876 0.68232 0.33047 0.0
O87 O 0.64588 0.65074 0.32345 0.0
Cd88 Cd 0.66833 0.68104 0.34484 0.0
C89 C 0.67397 0.7117 0.30579 0.0
O90 O 0.6402 0.67901 0.36356 0.0
O91 O 0.66957 0.70428 0.37233 0.0
O92 O 0.67488 0.65688 0.36121 0.0
C93 C 0.65057 0.6944 0.37516 0.0
O94 O 0.65543 0.70639 0.30819 0.0
C95 C 0.69407 0.66784 0.36088 0.0
O96 O 0.68236 0.70457 0.31692 0.0
O97 O 0.70146 0.68548 0.35366 0.0
C98 C 0.32362 0.0209 0.37919 0.0
O99 O 0.30454 0.01337 0.38025 0.0
Cd100 Cd 0.28034 0.98221 0.36283 0.0
O101 O 0.33088 0.01156 0.36933 0.0
Cd102 Cd 0.31815 0.97983 0.34912 0.0
C103 C 0.28824 0.9471 0.3848 0.0
O104 O 0.29465 0.98584 0.32934 0.0
O105 O 0.29532 0.95875 0.32123 0.0
O106 O 0.35179 0.99874 0.33416 0.0
C107 C 0.28867 0.97048 0.31751 0.0
O108 O 0.27551 0.95267 0.38131 0.0
C109 C 0.35434 0.9836 0.33317 0.0
O110 O 0.30553 0.95579 0.37651 0.0
O111 O 0.33999 0.96683 0.33943 0.0
C112 C 0.97522 0.29745 0.356 0.0
O113 O 0.98304 0.28639 0.35792 0.0
Cd114 Cd 0.01613 0.29445 0.34753 0.0
O115 O 0.98529 0.31498 0.34825 0.0
Cd116 Cd 0.01994 0.33652 0.33429 0.0
C117 C 0.04639 0.33706 0.37657 0.0
O118 O 0.01976 0.30918 0.3148 0.0
O119 O 0.04827 0.3375 0.31515 0.0
O120 O 0.01162 0.35394 0.30824 0.0
C121 C 0.03783 0.31924 0.30871 0.0
O122 O 0.04052 0.31846 0.37289 0.0
C123 C 0.02074 0.37106 0.31767 0.0
O124 O 0.04026 0.34637 0.3655 0.0
O125 O 0.02917 0.37191 0.33465 0.0
C126 C 0.63675 0.97097 0.30585 0.0
O127 O 0.6298 0.95202 0.30689 0.0
Cd128 Cd 0.63959 0.93728 0.33333 0.0
O129 O 0.64969 0.98346 0.31887 0.0
Cd130 Cd 0.66915 0.98339 0.34886 0.0
C131 C 0.68888 0.95999 0.31932 0.0
O132 O 0.63995 0.95513 0.3643 0.0
O133 O 0.66819 0.96609 0.38073 0.0
O134 O 0.66802 0.0135 0.36015 0.0
C135 C 0.64911 0.95417 0.37997 0.0
O136 O 0.67225 0.94328 0.32112 0.0
C137 C 0.68703 0.02469 0.36317 0.0
O138 O 0.69111 0.9764 0.32717 0.0
O139 O 0.69768 0.0165 0.36011 0.0
C140 C 0.98047 0.68309 0.36354 0.0
O141 O 0.98764 0.70119 0.37026 0.0
Cd142 Cd 0.02003 0.72741 0.35769 0.0
O143 O 0.9906 0.67859 0.35135 0.0
Cd144 Cd 0.02329 0.69326 0.33392 0.0
C145 C 0.05201 0.71381 0.37779 0.0
O146 O 0.01943 0.72072 0.32089 0.0
O147 O 0.04505 0.71889 0.30964 0.0
O148 O 0.00214 0.66371 0.31198 0.0
C149 C 0.03447 0.72732 0.30897 0.0
O150 O 0.04537 0.72599 0.37902 0.0
C151 C 0.01392 0.65662 0.31234 0.0
O152 O 0.04618 0.70059 0.36328 0.0
O153 O 0.0308 0.66731 0.32171 0.0
C154 C 0.35929 0.36942 0.31711 0.0
O155 O 0.35275 0.38166 0.31627 0.0
Cd156 Cd 0.32012 0.37189 0.33062 0.0
O157 O 0.34951 0.35296 0.32674 0.0
Cd158 Cd 0.31994 0.33318 0.34859 0.0
C159 C 0.2887 0.32481 0.30787 0.0
O160 O 0.32293 0.36324 0.36528 0.0
O161 O 0.29835 0.33453 0.37564 0.0
O162 O 0.34536 0.32996 0.36728 0.0
C163 C 0.30823 0.35378 0.37736 0.0
O164 O 0.29525 0.3438 0.3086 0.0
C165 C 0.33608 0.31072 0.36673 0.0
O166 O 0.29505 0.31691 0.32063 0.0
O167 O 0.31846 0.30154 0.35854 0.0
C168 C 0.30502 0.97783 0.64224 0.0
O169 O 0.29429 0.98594 0.63998 0.0
Cd170 Cd 0.30074 0.01613 0.65859 0.0
O171 O 0.32057 0.98601 0.65399 0.0
Cd172 Cd 0.33859 0.01714 0.67616 0.0
C173 C 0.34688 0.05167 0.64077 0.0
O174 O 0.30793 0.01271 0.69351 0.0
O175 O 0.33622 0.04029 0.70045 0.0
O176 O 0.34724 0.9957 0.69545 0.0
C177 C 0.3176 0.02887 0.70434 0.0
O178 O 0.32828 0.046 0.64304 0.0
C179 C 0.3651 0.00968 0.70019 0.0
O180 O 0.35466 0.0424 0.6493 0.0
O181 O 0.37112 0.02713 0.69317 0.0
C182 C 0.97974 0.3452 0.70937 0.0
O183 O 0.96069 0.33382 0.70708 0.0
Cd184 Cd 0.94512 0.30639 0.68245 0.0
O185 O 0.99207 0.34204 0.69913 0.0
Cd186 Cd 0.99113 0.31713 0.67338 0.0
C187 C 0.96147 0.27627 0.70261 0.0
O188 O 0.96597 0.3192 0.65306 0.0
O189 O 0.97336 0.29721 0.64176 0.0
O190 O 0.02303 0.34586 0.66203 0.0
C191 C 0.96353 0.30624 0.63932 0.0
O192 O 0.94681 0.27874 0.69782 0.0
C193 C 0.03245 0.33627 0.66026 0.0
O194 O 0.97955 0.28874 0.69718 0.0
O195 O 0.0227 0.31762 0.66476 0.0
C196 C 0.644 0.63203 0.69559 0.0
O197 O 0.65255 0.62154 0.69447 0.0
Cd198 Cd 0.68414 0.63362 0.67704 0.0
O199 O 0.65177 0.64911 0.68695 0.0
Cd200 Cd 0.68026 0.67223 0.66526 0.0
C201 C 0.71447 0.6796 0.70234 0.0
O202 O 0.67894 0.64472 0.64482 0.0
O203 O 0.70299 0.67491 0.63758 0.0
O204 O 0.65389 0.67618 0.64972 0.0
C205 C 0.69387 0.65596 0.63365 0.0
O206 O 0.7098 0.66132 0.69857 0.0
C207 C 0.66374 0.69544 0.65011 0.0
O208 O 0.70553 0.68732 0.69296 0.0
O209 O 0.68176 0.70419 0.65728 0.0
C210 C 0.30305 0.32665 0.65511 0.0
O211 O 0.29257 0.30811 0.6494 0.0
Cd212 Cd 0.29963 0.2839 0.66545 0.0
O213 O 0.31761 0.33247 0.66781 0.0
Cd214 Cd 0.33679 0.32197 0.6884 0.0
C215 C 0.34717 0.29945 0.64808 0.0
O216 O 0.30604 0.29347 0.7015 0.0
O217 O 0.33436 0.29809 0.71395 0.0
O218 O 0.34015 0.35034 0.70871 0.0
C219 C 0.31508 0.288 0.71381 0.0
O220 O 0.32852 0.28561 0.64788 0.0
C221 C 0.35937 0.36085 0.70823 0.0
O222 O 0.35377 0.31473 0.66035 0.0
O223 O 0.36842 0.35252 0.6999 0.0
C224 C 0.65892 0.03073 0.69163 0.0
O225 O 0.67057 0.04992 0.69242 0.0
Cd226 Cd 0.70231 0.06628 0.67463 0.0
O227 O 0.6636 0.01952 0.68115 0.0
Cd228 Cd 0.68932 0.02031 0.65801 0.0
C229 C 0.72647 0.04312 0.69508 0.0
O230 O 0.69095 0.04884 0.6421 0.0
O231 O 0.70908 0.03831 0.6272 0.0
O232 O 0.65922 0.99062 0.64373 0.0
C233 C 0.7027 0.05071 0.62766 0.0
O234 O 0.72549 0.05915 0.69362 0.0
C235 C 0.66663 0.9791 0.6434 0.0
O236 O 0.7148 0.02724 0.68438 0.0
O237 O 0.68507 0.98702 0.64906 0.0
C238 C 0.0203 0.70138 0.65226 0.0
O239 O 0.01403 0.71364 0.64939 0.0
Cd240 Cd 0.98089 0.70566 0.66056 0.0
O241 O 0.00946 0.68501 0.66178 0.0
Cd242 Cd 0.97703 0.66659 0.68023 0.0
C243 C 0.94879 0.65977 0.6373 0.0
O244 O 0.9817 0.69775 0.69614 0.0
O245 O 0.95553 0.66998 0.70599 0.0
O246 O 0.9969 0.65649 0.70051 0.0
C247 C 0.96657 0.68914 0.70785 0.0
O248 O 0.95615 0.67888 0.63713 0.0
C249 C 0.98411 0.63758 0.69914 0.0
O250 O 0.95394 0.65187 0.65118 0.0
O251 O 0.96755 0.63223 0.68976 0.0
C252 C 0.23569 0.2585 0.05223 0.0
C253 C 0.23433 0.2776 0.05574 0.0
C254 C 0.21637 0.28195 0.08372 0.0
C255 C 0.22028 0.30137 0.08911 0.0
C256 C 0.20523 0.3041 0.09819 0.0
C257 C 0.18603 0.2869 0.10208 0.0
C258 C 0.18191 0.26725 0.09611 0.0
C259 C 0.19725 0.265 0.08701 0.0
C260 C 0.21 0.32526 0.10412 0.0
C261 C 0.16153 0.24864 0.09993 0.0
C262 C 0.06849 0.3138 0.04211 0.0
C263 C 0.07915 0.30414 0.05124 0.0
C264 C 0.1063 0.31141 0.07575 0.0
C265 C 0.10273 0.29146 0.07563 0.0
C266 C 0.11441 0.28637 0.08792 0.0
C267 C 0.1304 0.30162 0.10014 0.0
C268 C 0.13441 0.32183 0.09988 0.0
C269 C 0.12209 0.32637 0.08789 0.0
C270 C 0.10964 0.26464 0.08782 0.0
C271 C 0.15175 0.33867 0.11216 0.0
C272 C 0.09353 0.30025 0.23032 0.0
C273 C 0.0894 0.2803 0.22683 0.0
C274 C 0.1035 0.27665 0.21686 0.0
C275 C 0.12212 0.29327 0.21049 0.0
C276 C 0.12646 0.31336 0.21435 0.0
C277 C 0.11195 0.31656 0.22402 0.0
C278 C 0.0984 0.25504 0.2129 0.0
C279 C 0.14632 0.33146 0.20807 0.0
C280 C 0.24361 0.25816 0.23445 0.0
C281 C 0.2383 0.27454 0.23937 0.0
C282 C 0.20482 0.27019 0.23352 0.0
C283 C 0.18495 0.25469 0.22914 0.0
C284 C 0.17147 0.25859 0.21838 0.0
C285 C 0.17797 0.27862 0.21234 0.0
C286 C 0.19774 0.29457 0.21773 0.0
C287 C 0.21099 0.29018 0.2282 0.0
C288 C 0.15045 0.24124 0.21305 0.0
C289 C 0.20496 0.31621 0.21214 0.0
C290 C 0.17074 0.28937 0.11359 0.0
C291 C 0.15802 0.29404 0.10274 0.0
C292 C 0.14324 0.29649 0.11273 0.0
C293 C 0.14101 0.29413 0.13417 0.0
C294 C 0.12592 0.29586 0.14465 0.0
C295 C 0.12431 0.29418 0.16582 0.0
C296 C 0.13772 0.29067 0.17732 0.0
C297 C 0.13667 0.28966 0.1989 0.0
C298 C 0.1499 0.2857 0.20986 0.0
C299 C 0.16435 0.28276 0.19981 0.0
C300 C 0.16583 0.28402 0.17823 0.0
C301 C 0.18029 0.28132 0.16761 0.0
C302 C 0.18193 0.28306 0.14646 0.0
C303 C 0.16906 0.28739 0.13507 0.0
C304 C 0.15418 0.28985 0.14539 0.0
C305 C 0.15255 0.28814 0.16699 0.0
C306 C 0.0555 0.30083 0.26445 0.0
C307 C 0.06332 0.29079 0.2506 0.0
O308 O 0.23146 0.2795 0.07637 0.0
O309 O 0.21763 0.26534 0.24278 0.0
O310 O 0.08025 0.30443 0.23982 0.0
O311 O 0.09492 0.31683 0.06452 0.0
H312 H 0.22114 0.27569 0.04658 0.0
H313 H 0.22175 0.24506 0.05794 0.0
H314 H 0.24904 0.25994 0.06053 0.0
H315 H 0.23696 0.25582 0.03566 0.0
H316 H 0.2352 0.31434 0.08643 0.0
H317 H 0.19455 0.25004 0.08281 0.0
H318 H 0.19914 0.32855 0.09635 0.0
H319 H 0.22568 0.33703 0.1 0.0
H320 H 0.20815 0.32632 0.12088 0.0
H321 H 0.16011 0.23472 0.09261 0.0
H322 H 0.14918 0.25079 0.09402 0.0
H323 H 0.15938 0.24635 0.11666 0.0
H324 H 0.06866 0.2889 0.05758 0.0
H325 H 0.05263 0.30523 0.04828 0.0
H326 H 0.07466 0.31426 0.01079 0.0
H327 H 0.07304 0.32803 0.05156 0.0
H328 H 0.09086 0.2797 0.06606 0.0
H329 H 0.12485 0.34173 0.08781 0.0
H330 H 0.10876 0.25949 0.10374 0.0
H331 H 0.12201 0.26363 0.08008 0.0
H332 H 0.09512 0.25413 0.0797 0.0
H333 H 0.15453 0.3539 0.10814 0.0
H334 H 0.16589 0.33829 0.10965 0.0
H335 H 0.14827 0.3365 0.12872 0.0
H336 H 0.05164 0.27803 0.24081 0.0
H337 H 0.07514 0.26754 0.2316 0.0
H338 H 0.115 0.33187 0.22687 0.0
H339 H 0.0998 0.25249 0.19633 0.0
H340 H 0.08282 0.24378 0.2178 0.0
H341 H 0.10937 0.25234 0.22129 0.0
H342 H 0.14839 0.34597 0.21448 0.0
H343 H 0.14682 0.33225 0.19112 0.0
H344 H 0.15922 0.32983 0.2132 0.0
H345 H 0.24252 0.28398 0.22547 0.0
H346 H 0.26025 0.26515 0.23249 0.0
H347 H 0.23592 0.24999 0.21994 0.0
H348 H 0.23853 0.24685 0.24674 0.0
H349 H 0.18024 0.23937 0.23358 0.0
H350 H 0.22613 0.30237 0.23224 0.0
H351 H 0.14786 0.24035 0.19624 0.0
H352 H 0.13899 0.24401 0.2204 0.0
H353 H 0.148 0.22641 0.21812 0.0
H354 H 0.21993 0.32713 0.21925 0.0
H355 H 0.19372 0.3205 0.21703 0.0
H356 H 0.20632 0.31757 0.19526 0.0
H357 H 0.15964 0.29581 0.08629 0.0
H358 H 0.11524 0.29864 0.13663 0.0
H359 H 0.11246 0.29577 0.17305 0.0
H360 H 0.14902 0.285 0.22642 0.0
H361 H 0.1906 0.27796 0.17554 0.0
H362 H 0.19349 0.28103 0.13918 0.0
H363 H 0.0399 0.29592 0.25826 0.0
H364 H 0.06239 0.31698 0.25935 0.0
H365 H 0.06041 0.29347 0.29386 0.0
C366 C 0.7379 0.94212 0.02298 0.0
C367 C 0.72303 0.9344 0.04075 0.0
C368 C 0.72993 0.92752 0.07504 0.0
C369 C 0.70997 0.91348 0.08058 0.0
C370 C 0.70613 0.89929 0.09571 0.0
C371 C 0.72259 0.89892 0.10512 0.0
C372 C 0.74275 0.91397 0.10047 0.0
C373 C 0.74613 0.92838 0.08573 0.0
C374 C 0.68442 0.88396 0.10069 0.0
C375 C 0.76073 0.91402 0.11001 0.0
C376 C 0.68631 0.74311 0.05788 0.0
C377 C 0.69916 0.76449 0.0653 0.0
C378 C 0.69459 0.79233 0.07727 0.0
C379 C 0.71477 0.80532 0.08378 0.0
C380 C 0.72022 0.8231 0.0953 0.0
C381 C 0.70508 0.82766 0.10081 0.0
C382 C 0.68481 0.81473 0.09401 0.0
C383 C 0.6799 0.79734 0.08208 0.0
C384 C 0.74209 0.83688 0.10182 0.0
C385 C 0.66828 0.8191 0.09963 0.0
C386 C 0.71034 0.78968 0.22436 0.0
C387 C 0.7299 0.80584 0.22038 0.0
C388 C 0.73275 0.8243 0.21334 0.0
C389 C 0.7157 0.82656 0.21039 0.0
C390 C 0.69606 0.81047 0.215 0.0
C391 C 0.69364 0.79211 0.22166 0.0
C392 C 0.75385 0.84108 0.20823 0.0
C393 C 0.67756 0.81235 0.21206 0.0
C394 C 0.76395 0.98131 0.25444 0.0
C395 C 0.74368 0.96139 0.25677 0.0
C396 C 0.7424 0.93045 0.24444 0.0
C397 C 0.75658 0.92495 0.23898 0.0
C398 C 0.75159 0.90896 0.22487 0.0
C399 C 0.7316 0.89765 0.2167 0.0
C400 C 0.71697 0.90282 0.22265 0.0
C401 C 0.72264 0.91941 0.23622 0.0
C402 C 0.76767 0.904 0.21901 0.0
C403 C 0.69526 0.89054 0.21509 0.0
C404 C 0.7187 0.88083 0.11662 0.0
C405 C 0.71379 0.86334 0.10496 0.0
C406 C 0.71032 0.84563 0.11417 0.0
C407 C 0.71193 0.84523 0.13565 0.0
C408 C 0.70869 0.82765 0.14533 0.0
C409 C 0.71081 0.82749 0.1664 0.0
C410 C 0.71586 0.8448 0.17869 0.0
C411 C 0.71809 0.84471 0.20012 0.0
C412 C 0.72285 0.862 0.212 0.0
C413 C 0.72579 0.8797 0.20299 0.0
C414 C 0.72385 0.88018 0.18145 0.0
C415 C 0.72696 0.89774 0.17171 0.0
C416 C 0.72498 0.89794 0.1505 0.0
C417 C 0.72024 0.88074 0.13821 0.0
C418 C 0.71697 0.86286 0.14772 0.0
C419 C 0.71881 0.8626 0.16931 0.0
C420 C 0.72815 0.75724 0.2262 0.0
C421 C 0.71941 0.76674 0.24071 0.0
O422 O 0.73401 0.9399 0.05901 0.0
O423 O 0.74799 0.94594 0.25829 0.0
O424 O 0.70672 0.77117 0.22979 0.0
O425 O 0.68861 0.77475 0.06655 0.0
H426 H 0.71387 0.91753 0.03891 0.0
H427 H 0.74777 0.93541 0.02352 0.0
H428 H 0.74768 0.95894 0.02396 0.0
H429 H 0.72954 0.93764 0.00809 0.0
H430 H 0.69741 0.91328 0.07275 0.0
H431 H 0.76147 0.93958 0.08153 0.0
H432 H 0.67972 0.86965 0.09188 0.0
H433 H 0.67397 0.8894 0.09649 0.0
H434 H 0.68281 0.88051 0.11724 0.0
H435 H 0.7754 0.92612 0.1039 0.0
H436 H 0.75956 0.8991 0.10716 0.0
H437 H 0.76084 0.91641 0.12682 0.0
H438 H 0.71411 0.77328 0.05765 0.0
H439 H 0.69312 0.74234 0.04285 0.0
H440 H 0.67232 0.74179 0.05063 0.0
H441 H 0.68509 0.72603 0.08312 0.0
H442 H 0.72633 0.80172 0.07988 0.0
H443 H 0.66441 0.78724 0.07688 0.0
H444 H 0.74718 0.85284 0.09807 0.0
H445 H 0.75236 0.83246 0.09434 0.0
H446 H 0.74352 0.83628 0.11866 0.0
H447 H 0.65304 0.80676 0.09438 0.0
H448 H 0.67144 0.83346 0.09258 0.0
H449 H 0.66807 0.82118 0.11649 0.0
H450 H 0.73213 0.78077 0.248 0.0
H451 H 0.74285 0.80386 0.22197 0.0
H452 H 0.67861 0.77944 0.22468 0.0
H453 H 0.75454 0.84447 0.19171 0.0
H454 H 0.76557 0.83709 0.2117 0.0
H455 H 0.7575 0.85512 0.21704 0.0
H456 H 0.66375 0.79944 0.21867 0.0
H457 H 0.67481 0.81279 0.19545 0.0
H458 H 0.6801 0.82675 0.21927 0.0
H459 H 0.73447 0.95924 0.24274 0.0
H460 H 0.76148 0.99361 0.24924 0.0
H461 H 0.7732 0.97925 0.24258 0.0
H462 H 0.77268 0.98599 0.26911 0.0
H463 H 0.77172 0.93346 0.24562 0.0
H464 H 0.71149 0.92337 0.24087 0.0
H465 H 0.76717 0.90087 0.20228 0.0
H466 H 0.76476 0.89015 0.227 0.0
H467 H 0.78315 0.9165 0.22338 0.0
H468 H 0.68527 0.89506 0.223 0.0
H469 H 0.68921 0.87411 0.21743 0.0
H470 H 0.69461 0.89265 0.19842 0.0
H471 H 0.71274 0.86353 0.08841 0.0
H472 H 0.70465 0.81382 0.13673 0.0
H473 H 0.70838 0.81356 0.17289 0.0
H474 H 0.72448 0.86172 0.22847 0.0
H475 H 0.73092 0.91151 0.18039 0.0
H476 H 0.72738 0.9118 0.14381 0.0
H477 H 0.73872 0.75395 0.23461 0.0
H478 H 0.73672 0.76791 0.21385 0.0
H479 H 0.71578 0.74289 0.21911 0.0
C480 C 0.20896 0.92967 0.03648 0.0
C481 C 0.22432 0.93581 0.0542 0.0
C482 C 0.20362 0.91047 0.07972 0.0
C483 C 0.19102 0.91835 0.08457 0.0
C484 C 0.17422 0.90777 0.09728 0.0
C485 C 0.17008 0.88911 0.10542 0.0
C486 C 0.18324 0.88161 0.10129 0.0
C487 C 0.19986 0.89244 0.08849 0.0
C488 C 0.16064 0.9163 0.10173 0.0
C489 C 0.17947 0.86192 0.11004 0.0
C490 C 0.04964 0.79436 0.02133 0.0
C491 C 0.06092 0.79231 0.03957 0.0
C492 C 0.06976 0.81026 0.07264 0.0
C493 C 0.08494 0.80618 0.07832 0.0
C494 C 0.09931 0.81802 0.09353 0.0
C495 C 0.09873 0.83456 0.10292 0.0
C496 C 0.08291 0.83819 0.09779 0.0
C497 C 0.06834 0.82565 0.08297 0.0
C498 C 0.11564 0.81333 0.09885 0.0
C499 C 0.08194 0.85586 0.10721 0.0
C500 C 0.06109 0.80753 0.23417 0.0
C501 C 0.07625 0.80319 0.22874 0.0
C502 C 0.09385 0.81759 0.21884 0.0
C503 C 0.09637 0.83674 0.21442 0.0
C504 C 0.08159 0.84151 0.22075 0.0
C505 C 0.06417 0.82683 0.2307 0.0
C506 C 0.10962 0.81225 0.21283 0.0
C507 C 0.08403 0.86193 0.21657 0.0
C508 C 0.24234 0.96612 0.23231 0.0
C509 C 0.23168 0.95299 0.25075 0.0
C510 C 0.20452 0.92024 0.23616 0.0
C511 C 0.19896 0.90001 0.23255 0.0
C512 C 0.1807 0.88635 0.22251 0.0
C513 C 0.1676 0.89315 0.21606 0.0
C514 C 0.17282 0.91348 0.22014 0.0
C515 C 0.19134 0.92692 0.23004 0.0
C516 C 0.17562 0.86477 0.21836 0.0
C517 C 0.15909 0.92113 0.21352 0.0
C518 C 0.15131 0.87671 0.11712 0.0
C519 C 0.13392 0.86285 0.1061 0.0
C520 C 0.11602 0.8494 0.11602 0.0
C521 C 0.11528 0.84989 0.13764 0.0
C522 C 0.09773 0.83624 0.1482 0.0
C523 C 0.09726 0.83687 0.16951 0.0
C524 C 0.1144 0.85104 0.18106 0.0
C525 C 0.11425 0.85155 0.20273 0.0
C526 C 0.13158 0.86576 0.21371 0.0
C527 C 0.14929 0.87938 0.20362 0.0
C528 C 0.14981 0.87907 0.182 0.0
C529 C 0.16754 0.89238 0.17142 0.0
C530 C 0.16804 0.89173 0.15017 0.0
C531 C 0.15083 0.87775 0.13868 0.0
C532 C 0.13274 0.86426 0.14899 0.0
C533 C 0.13227 0.86488 0.17069 0.0
C534 C 0.01143 0.7643 0.23404 0.0
C535 C 0.03381 0.77265 0.23945 0.0
O536 O 0.21928 0.91941 0.06645 0.0
O537 O 0.22283 0.93262 0.24528 0.0
O538 O 0.04333 0.7935 0.24262 0.0
O539 O 0.05655 0.79997 0.057 0.0
H540 H 0.22455 0.94826 0.06355 0.0
H541 H 0.21351 0.94275 0.02636 0.0
H542 H 0.20806 0.91685 0.02727 0.0
H543 H 0.19361 0.92489 0.04232 0.0
H544 H 0.19394 0.93253 0.0783 0.0
H545 H 0.20979 0.88662 0.08486 0.0
H546 H 0.14526 0.90584 0.09523 0.0
H547 H 0.16653 0.93155 0.09519 0.0
H548 H 0.15907 0.91743 0.11853 0.0
H549 H 0.19151 0.85852 0.10591 0.0
H550 H 0.16465 0.84924 0.10431 0.0
H551 H 0.17864 0.8626 0.12699 0.0
H552 H 0.07745 0.80158 0.03627 0.0
H553 H 0.05317 0.78872 0.00701 0.0
H554 H 0.05443 0.81058 0.01946 0.0
H555 H 0.03297 0.7856 0.02373 0.0
H556 H 0.08576 0.7939 0.07074 0.0
H557 H 0.05637 0.82848 0.07861 0.0
H558 H 0.11909 0.81549 0.11554 0.0
H559 H 0.12971 0.82387 0.09067 0.0
H560 H 0.11123 0.79754 0.09419 0.0
H561 H 0.06944 0.85736 0.10055 0.0
H562 H 0.09652 0.87022 0.10494 0.0
H563 H 0.0796 0.85385 0.12395 0.0
H564 H 0.04018 0.76886 0.22588 0.0
H565 H 0.0744 0.78858 0.23217 0.0
H566 H 0.05254 0.83016 0.23527 0.0
H567 H 0.11106 0.81247 0.19591 0.0
H568 H 0.1058 0.79702 0.21811 0.0
H569 H 0.12463 0.82376 0.2194 0.0
H570 H 0.07122 0.86333 0.22259 0.0
H571 H 0.08506 0.86435 0.19982 0.0
H572 H 0.09839 0.87415 0.2237 0.0
H573 H 0.21995 0.9563 0.25643 0.0
H574 H 0.24957 0.98249 0.2367 0.0
H575 H 0.2312 0.96279 0.21978 0.0
H576 H 0.25416 0.96304 0.22647 0.0
H577 H 0.20924 0.89504 0.23738 0.0
H578 H 0.19544 0.94256 0.2326 0.0
H579 H 0.17337 0.86123 0.20166 0.0
H580 H 0.16119 0.85414 0.22596 0.0
H581 H 0.18769 0.86203 0.22397 0.0
H582 H 0.16426 0.93669 0.21966 0.0
H583 H 0.14336 0.91073 0.21869 0.0
H584 H 0.15866 0.92134 0.19654 0.0
H585 H 0.13448 0.86219 0.08951 0.0
H586 H 0.08417 0.82492 0.1401 0.0
H587 H 0.0833 0.82603 0.17682 0.0
H588 H 0.13143 0.86591 0.23033 0.0
H589 H 0.1813 0.90343 0.17944 0.0
H590 H 0.1821 0.90231 0.14285 0.0
H591 H 0.00335 0.74749 0.23207 0.0
H592 H 0.01025 0.77077 0.21941 0.0
H593 H 0.00384 0.76841 0.24609 0.0
C594 C 0.30232 0.06008 0.96393 0.0
C595 C 0.29207 0.06847 0.9516 0.0
C596 C 0.29517 0.10016 0.94171 0.0
C597 C 0.27534 0.09245 0.93409 0.0
C598 C 0.27077 0.10387 0.92097 0.0
C599 C 0.28642 0.12324 0.91505 0.0
C600 C 0.30642 0.13104 0.92268 0.0
C601 C 0.31045 0.1195 0.93621 0.0
C602 C 0.24917 0.09532 0.91361 0.0
C603 C 0.32352 0.15158 0.91657 0.0
C604 C 0.25888 0.22417 0.98536 0.0
C605 C 0.2736 0.22559 0.96876 0.0
C606 C 0.26607 0.20546 0.9373 0.0
C607 C 0.28564 0.20921 0.93328 0.0
C608 C 0.28855 0.19599 0.92049 0.0
C609 C 0.27146 0.17843 0.91195 0.0
C610 C 0.2517 0.1749 0.91559 0.0
C611 C 0.24932 0.18879 0.9279 0.0
C612 C 0.30988 0.20056 0.91666 0.0
C613 C 0.23308 0.15618 0.90706 0.0
C614 C 0.26157 0.19892 0.78084 0.0
C615 C 0.28116 0.20368 0.78676 0.0
C616 C 0.28425 0.18945 0.79678 0.0
C617 C 0.26739 0.17011 0.80096 0.0
C618 C 0.24781 0.16488 0.79393 0.0
C619 C 0.24519 0.17936 0.78374 0.0
C620 C 0.30545 0.19526 0.80341 0.0
C621 C 0.22958 0.14427 0.79782 0.0
C622 C 0.27624 0.03883 0.78694 0.0
C623 C 0.27965 0.05175 0.76814 0.0
C624 C 0.28752 0.08502 0.783 0.0
C625 C 0.30328 0.10492 0.78678 0.0
C626 C 0.29989 0.1191 0.79716 0.0
C627 C 0.28013 0.11316 0.80388 0.0
C628 C 0.26398 0.09309 0.7999 0.0
C629 C 0.26782 0.07916 0.78952 0.0
C630 C 0.31744 0.1404 0.80107 0.0
C631 C 0.24271 0.08638 0.80678 0.0
C632 C 0.28166 0.13586 0.90189 0.0
C633 C 0.27843 0.15039 0.91159 0.0
C634 C 0.27426 0.16317 0.90036 0.0
C635 C 0.27316 0.16146 0.87876 0.0
C636 C 0.26946 0.17439 0.86698 0.0
C637 C 0.26826 0.17249 0.84573 0.0
C638 C 0.27096 0.15772 0.83542 0.0
C639 C 0.27013 0.15591 0.8138 0.0
C640 C 0.27272 0.14099 0.80403 0.0
C641 C 0.2765 0.12793 0.81531 0.0
C642 C 0.2777 0.12968 0.83693 0.0
C643 C 0.28198 0.11711 0.84871 0.0
C644 C 0.28337 0.11914 0.86997 0.0
C645 C 0.28035 0.13369 0.88028 0.0
C646 C 0.27603 0.14652 0.8687 0.0
C647 C 0.27481 0.14458 0.84701 0.0
C648 C 0.25241 0.23923 0.78471 0.0
C649 C 0.26799 0.23338 0.77818 0.0
O650 O 0.30003 0.08921 0.95412 0.0
O651 O 0.29223 0.07215 0.77321 0.0
O652 O 0.25795 0.21292 0.77264 0.0
O653 O 0.26287 0.21737 0.95059 0.0
H654 H 0.27518 0.05945 0.95216 0.0
H655 H 0.31141 0.07188 0.97622 0.0
H656 H 0.31564 0.05048 0.94172 0.0
H657 H 0.29041 0.04929 0.97471 0.0
H658 H 0.26327 0.07771 0.93866 0.0
H659 H 0.32569 0.12533 0.94218 0.0
H660 H 0.24398 0.10611 0.91759 0.0
H661 H 0.23858 0.08041 0.92036 0.0
H662 H 0.24841 0.09338 0.89669 0.0
H663 H 0.33857 0.1543 0.92164 0.0
H664 H 0.32122 0.16358 0.92355 0.0
H665 H 0.32357 0.153 0.89969 0.0
H666 H 0.28023 0.21641 0.974 0.0
H667 H 0.26709 0.23054 0.00016 0.0
H668 H 0.24709 0.20801 0.9875 0.0
H669 H 0.25121 0.23259 0.98099 0.0
H670 H 0.29867 0.22241 0.9402 0.0
H671 H 0.23429 0.18618 0.93101 0.0
H672 H 0.3117 0.19728 0.9004 0.0
H673 H 0.31299 0.19072 0.92636 0.0
H674 H 0.32135 0.21664 0.92051 0.0
H675 H 0.21882 0.15456 0.91322 0.0
H676 H 0.23363 0.14237 0.91067 0.0
H677 H 0.23265 0.15697 0.89014 0.0
H678 H 0.27788 0.23652 0.79192 0.0
H679 H 0.29402 0.21855 0.78371 0.0
H680 H 0.2302 0.17574 0.77875 0.0
H681 H 0.30661 0.19647 0.82038 0.0
H682 H 0.31714 0.21001 0.79713 0.0
H683 H 0.30878 0.18332 0.7984 0.0
H684 H 0.21538 0.14253 0.79126 0.0
H685 H 0.22769 0.14188 0.81457 0.0
H686 H 0.23199 0.13225 0.79107 0.0
H687 H 0.26483 0.04904 0.7622 0.0
H688 H 0.26628 0.02245 0.78286 0.0
H689 H 0.26876 0.0428 0.79923 0.0
H690 H 0.29094 0.04139 0.79302 0.0
H691 H 0.31839 0.10928 0.78164 0.0
H692 H 0.25543 0.06381 0.78669 0.0
H693 H 0.31902 0.14414 0.81774 0.0
H694 H 0.31441 0.15139 0.79337 0.0
H695 H 0.33202 0.14243 0.79542 0.0
H696 H 0.23163 0.0705 0.80178 0.0
H697 H 0.23778 0.09659 0.80058 0.0
H698 H 0.24249 0.08751 0.82375 0.0
H699 H 0.27931 0.15185 0.92818 0.0
H700 H 0.26741 0.18614 0.87406 0.0
H701 H 0.26523 0.1828 0.8375 0.0
H702 H 0.27219 0.13978 0.78744 0.0
H703 H 0.28438 0.10561 0.84161 0.0
H704 H 0.2868 0.10913 0.87825 0.0
H705 H 0.2601 0.25574 0.78861 0.0
H706 H 0.24433 0.2307 0.79848 0.0
H707 H 0.24097 0.23554 0.77238 0.0
C708 C 0.79108 0.04928 0.9884 0.0
C709 C 0.78583 0.06037 0.97256 0.0
C710 C 0.79814 0.06812 0.93805 0.0
C711 C 0.79274 0.08249 0.93323 0.0
C712 C 0.8042 0.09783 0.9194 0.0
C713 C 0.82171 0.09906 0.91066 0.0
C714 C 0.82655 0.08391 0.91474 0.0
C715 C 0.81436 0.06831 0.92811 0.0
C716 C 0.79815 0.1133 0.91502 0.0
C717 C 0.84523 0.08483 0.90597 0.0
C718 C 0.93961 0.249 0.97189 0.0
C719 C 0.9313 0.22919 0.96063 0.0
C720 C 0.89932 0.20236 0.94598 0.0
C721 C 0.90719 0.19101 0.93696 0.0
C722 C 0.89551 0.17498 0.92303 0.0
C723 C 0.87576 0.17055 0.91758 0.0
C724 C 0.86786 0.18206 0.92651 0.0
C725 C 0.87967 0.19764 0.94085 0.0
C726 C 0.90418 0.1626 0.91432 0.0
C727 C 0.84692 0.17786 0.92099 0.0
C728 C 0.91344 0.21202 0.7866 0.0
C729 C 0.91985 0.1989 0.79344 0.0
C730 C 0.90634 0.18103 0.80357 0.0
C731 C 0.88616 0.17633 0.80696 0.0
C732 C 0.87982 0.1897 0.80032 0.0
C733 C 0.8936 0.2074 0.79027 0.0
C734 C 0.91357 0.16712 0.81061 0.0
C735 C 0.85845 0.1852 0.80373 0.0
C736 C 0.77481 0.02036 0.76488 0.0
C737 C 0.77632 0.04081 0.76121 0.0
C738 C 0.80774 0.07121 0.77281 0.0
C739 C 0.82793 0.077 0.77671 0.0
C740 C 0.84007 0.09322 0.79031 0.0
C741 C 0.83197 0.10441 0.79959 0.0
C742 C 0.81173 0.09909 0.79508 0.0
C743 C 0.79972 0.08232 0.78202 0.0
C744 C 0.86153 0.09837 0.79478 0.0
C745 C 0.80283 0.11123 0.80386 0.0
C746 C 0.83637 0.11767 0.89989 0.0
C747 C 0.84877 0.13491 0.91206 0.0
C748 C 0.86299 0.15318 0.90342 0.0
C749 C 0.86508 0.15444 0.88192 0.0
C750 C 0.87914 0.17267 0.87269 0.0
C751 C 0.88132 0.17367 0.85154 0.0
C752 C 0.86943 0.15651 0.8388 0.0
C753 C 0.87156 0.15737 0.8173 0.0
C754 C 0.85923 0.14016 0.80505 0.0
C755 C 0.84478 0.1219 0.81368 0.0
C756 C 0.84258 0.12064 0.8352 0.0
C757 C 0.82835 0.10247 0.84446 0.0
C758 C 0.82607 0.10151 0.86562 0.0
C759 C 0.83826 0.11854 0.87836 0.0
C760 C 0.85276 0.13701 0.86936 0.0
C761 C 0.85493 0.13805 0.84777 0.0
C762 C 0.9496 0.24927 0.75102 0.0
C763 C 0.94472 0.23523 0.76832 0.0
O764 O 0.78863 0.05471 0.95309 0.0
O765 O 0.79672 0.05533 0.75955 0.0
O766 O 0.92567 0.22912 0.7762 0.0
O767 O 0.91028 0.21802 0.95947 0.0
H768 H 0.79662 0.07693 0.97544 0.0
H769 H 0.80724 0.05362 0.98689 0.0
H770 H 0.78149 0.03255 0.98611 0.0
H771 H 0.78883 0.05352 0.00415 0.0
H772 H 0.77985 0.08197 0.94064 0.0
H773 H 0.81822 0.05696 0.93188 0.0
H774 H 0.80769 0.12721 0.92453 0.0
H775 H 0.782 0.10759 0.91876 0.0
H776 H 0.8006 0.11755 0.89868 0.0
H777 H 0.84753 0.0726 0.91172 0.0
H778 H 0.85889 0.09975 0.90991 0.0
H779 H 0.84389 0.08337 0.88903 0.0
H780 H 0.93818 0.22001 0.96508 0.0
H781 H 0.9478 0.2478 0.9856 0.0
H782 H 0.92673 0.24816 0.98104 0.0
H783 H 0.95457 0.27048 0.94914 0.0
H784 H 0.92231 0.19437 0.94097 0.0
H785 H 0.87375 0.20648 0.94788 0.0
H786 H 0.8935 0.14619 0.91674 0.0
H787 H 0.9191 0.16693 0.92137 0.0
H788 H 0.90618 0.16478 0.89757 0.0
H789 H 0.8442 0.18998 0.9269 0.0
H790 H 0.83544 0.16325 0.9276 0.0
H791 H 0.84467 0.1764 0.9041 0.0
H792 H 0.95672 0.24018 0.78038 0.0
H793 H 0.93529 0.20251 0.79092 0.0
H794 H 0.88886 0.21768 0.78495 0.0
H795 H 0.91205 0.16562 0.82748 0.0
H796 H 0.92963 0.17274 0.80657 0.0
H797 H 0.9039 0.15173 0.80358 0.0
H798 H 0.85607 0.19744 0.79814 0.0
H799 H 0.85495 0.18324 0.82031 0.0
H800 H 0.84754 0.17073 0.79567 0.0
H801 H 0.76954 0.04394 0.77485 0.0
H802 H 0.75909 0.00869 0.76899 0.0
H803 H 0.78489 0.02198 0.77792 0.0
H804 H 0.77962 0.01519 0.7511 0.0
H805 H 0.83404 0.06847 0.76935 0.0
H806 H 0.78425 0.07827 0.77867 0.0
H807 H 0.86444 0.0999 0.81156 0.0
H808 H 0.87232 0.11318 0.78799 0.0
H809 H 0.86467 0.08669 0.78839 0.0
H810 H 0.78815 0.10712 0.79638 0.0
H811 H 0.81356 0.12774 0.80209 0.0
H812 H 0.80021 0.10841 0.82047 0.0
H813 H 0.84737 0.13406 0.9286 0.0
H814 H 0.88866 0.18636 0.88173 0.0
H815 H 0.89246 0.18808 0.84529 0.0
H816 H 0.86077 0.14104 0.78854 0.0
H817 H 0.81874 0.08879 0.83544 0.0
H818 H 0.81473 0.08721 0.8719 0.0
H819 H 0.95136 0.23296 0.72564 0.0
H820 H 0.96294 0.2641 0.75672 0.0
H821 H 0.93863 0.25497 0.75166 0.0
C822 C 0.7972 0.71469 0.98657 0.0
C823 C 0.78374 0.71184 0.96794 0.0
C824 C 0.80211 0.70689 0.93959 0.0
C825 C 0.8179 0.72729 0.93867 0.0
C826 C 0.83424 0.73298 0.9254 0.0
C827 C 0.83494 0.71801 0.91295 0.0
C828 C 0.81897 0.69754 0.91362 0.0
C829 C 0.80267 0.69232 0.92683 0.0
C830 C 0.85101 0.75495 0.92497 0.0
C831 C 0.81936 0.68112 0.90077 0.0
C832 C 0.97998 0.74646 0.95137 0.0
C833 C 0.95865 0.72851 0.9555 0.0
C834 C 0.93397 0.72292 0.92862 0.0
C835 C 0.91955 0.70718 0.91608 0.0
C836 C 0.90375 0.70849 0.90696 0.0
C837 C 0.90293 0.72643 0.90987 0.0
C838 C 0.91762 0.74256 0.92242 0.0
C839 C 0.93299 0.74059 0.93182 0.0
C840 C 0.88803 0.69072 0.89414 0.0
C841 C 0.91726 0.76195 0.92558 0.0
C842 C 0.94129 0.74516 0.78325 0.0
C843 C 0.92476 0.72578 0.78718 0.0
C844 C 0.90714 0.72351 0.79623 0.0
C845 C 0.906 0.74098 0.80129 0.0
C846 C 0.9221 0.76041 0.79613 0.0
C847 C 0.93953 0.76223 0.78702 0.0
C848 C 0.89003 0.7025 0.80107 0.0
C849 C 0.92124 0.77929 0.80109 0.0
C850 C 0.76559 0.73348 0.78265 0.0
C851 C 0.77488 0.72628 0.76611 0.0
C852 C 0.79963 0.71985 0.78358 0.0
C853 C 0.80325 0.70434 0.78855 0.0
C854 C 0.82139 0.7086 0.79812 0.0
C855 C 0.83622 0.72898 0.80305 0.0
C856 C 0.83283 0.74486 0.79784 0.0
C857 C 0.81452 0.74015 0.78811 0.0
C858 C 0.82455 0.69127 0.80328 0.0
C859 C 0.84837 0.76672 0.80304 0.0
C860 C 0.85307 0.72351 0.9004 0.0
C861 C 0.86964 0.72415 0.9101 0.0
C862 C 0.88698 0.72838 0.89922 0.0
C863 C 0.88812 0.73245 0.87814 0.0
C864 C 0.90555 0.73712 0.86687 0.0
C865 C 0.906 0.73969 0.84585 0.0
C866 C 0.88906 0.73772 0.8353 0.0
C867 C 0.88891 0.73899 0.81375 0.0
C868 C 0.8718 0.73689 0.80371 0.0
C869 C 0.85468 0.7334 0.81469 0.0
C870 C 0.85457 0.73213 0.83626 0.0
C871 C 0.83756 0.72857 0.84775 0.0
C872 C 0.83716 0.72616 0.86884 0.0
C873 C 0.8537 0.72708 0.87919 0.0
C874 C 0.87126 0.73139 0.86801 0.0
C875 C 0.87172 0.734 0.84654 0.0
C876 C 0.98915 0.74823 0.78634 0.0
C877 C 0.96692 0.73536 0.77945 0.0
O878 O 0.78628 0.70051 0.95266 0.0
O879 O 0.78136 0.71426 0.77495 0.0
O880 O 0.95922 0.748 0.77618 0.0
O881 O 0.94887 0.72064 0.93686 0.0
H882 H 0.78787 0.72699 0.96211 0.0
H883 H 0.81346 0.72331 0.9824 0.0
H884 H 0.79372 0.69975 0.99244 0.0
H885 H 0.79477 0.72336 -0.00101 0.0
H886 H 0.81783 0.73888 0.94834 0.0
H887 H 0.79044 0.67666 0.92759 0.0
H888 H 0.86515 0.7565 0.93142 0.0
H889 H 0.84725 0.76508 0.93393 0.0
H890 H 0.85409 0.7601 0.90892 0.0
H891 H 0.80607 0.66583 0.90355 0.0
H892 H 0.83345 0.68088 0.90413 0.0
H893 H 0.8195 0.68441 0.88429 0.0
H894 H 0.95027 0.73397 0.96508 0.0
H895 H 0.98741 0.75516 0.96571 0.0
H896 H 0.97901 0.75709 0.94079 0.0
H897 H 0.98957 0.74103 0.9442 0.0
H898 H 0.92057 0.69367 0.9137 0.0
H899 H 0.94442 0.75301 0.9412 0.0
H900 H 0.89012 0.69474 0.87775 0.0
H901 H 0.87252 0.68708 0.89842 0.0
H902 H 0.88916 0.67693 0.89589 0.0
H903 H 0.93042 0.77351 0.93489 0.0
H904 H 0.90307 0.75861 0.93343 0.0
H905 H 0.91732 0.76844 0.91053 0.0
H906 H 0.959 0.72504 0.79233 0.0
H907 H 0.92563 0.7124 0.78345 0.0
H908 H 0.95223 0.77709 0.78357 0.0
H909 H 0.88865 0.70087 0.81793 0.0
H910 H 0.89246 0.6904 0.79452 0.0
H911 H 0.87545 0.70022 0.79502 0.0
H912 H 0.93459 0.7932 0.79523 0.0
H913 H 0.92062 0.78105 0.81795 0.0
H914 H 0.90721 0.7778 0.7944 0.0
H915 H 0.78783 0.73964 0.75892 0.0
H916 H 0.76128 0.74409 0.77625 0.0
H917 H 0.75191 0.72031 0.78914 0.0
H918 H 0.77673 0.74164 0.79527 0.0
H919 H 0.79164 0.68875 0.78498 0.0
H920 H 0.81183 0.75231 0.7845 0.0
H921 H 0.82569 0.69057 0.82015 0.0
H922 H 0.83901 0.69387 0.79669 0.0
H923 H 0.81198 0.67638 0.79742 0.0
H924 H 0.84371 0.77739 0.79755 0.0
H925 H 0.86314 0.77068 0.79613 0.0
H926 H 0.85073 0.76876 0.8199 0.0
H927 H 0.86881 0.72076 0.92624 0.0
H928 H 0.91895 0.7386 0.87413 0.0
H929 H 0.91974 0.74297 0.83797 0.0
H930 H 0.87157 0.73733 0.78712 0.0
H931 H 0.82426 0.72739 0.84055 0.0
H932 H 0.82361 0.72325 0.87688 0.0
H933 H 0.99577 0.73843 0.78857 0.0
H934 H 0.99016 0.75615 0.80114 0.0
H935 H 0.99827 0.75989 0.77493 0.0
C936 C 0.90215 0.59525 0.37922 0.0
C937 C 0.9024 0.61473 0.38568 0.0
C938 C 0.88417 0.61664 0.41482 0.0
C939 C 0.88746 0.63614 0.4185 0.0
C940 C 0.8727 0.63891 0.42825 0.0
C941 C 0.85423 0.6217 0.43412 0.0
C942 C 0.8507 0.60193 0.4298 0.0
C943 C 0.86593 0.59967 0.42045 0.0
C944 C 0.87694 0.66019 0.43254 0.0
C945 C 0.83096 0.58322 0.43523 0.0
C946 C 0.75041 0.62849 0.36022 0.0
C947 C 0.74423 0.63376 0.3807 0.0
C948 C 0.77286 0.64261 0.40417 0.0
C949 C 0.7688 0.62265 0.40654 0.0
C950 C 0.78106 0.61871 0.41927 0.0
C951 C 0.79787 0.63504 0.4296 0.0
C952 C 0.80218 0.65514 0.42707 0.0
C953 C 0.78951 0.65863 0.41446 0.0
C954 C 0.77605 0.59707 0.42168 0.0
C955 C 0.82017 0.67292 0.43768 0.0
C956 C 0.75501 0.63108 0.55752 0.0
C957 C 0.75021 0.6116 0.55055 0.0
C958 C 0.76507 0.60846 0.54157 0.0
C959 C 0.785 0.62511 0.53943 0.0
C960 C 0.78993 0.64465 0.54671 0.0
C961 C 0.77483 0.64734 0.55567 0.0
C962 C 0.75941 0.58743 0.53397 0.0
C963 C 0.81106 0.66273 0.54465 0.0
C964 C 0.90747 0.59023 0.56685 0.0
C965 C 0.90105 0.60606 0.56969 0.0
C966 C 0.86752 0.6016 0.56424 0.0
C967 C 0.84759 0.58638 0.55963 0.0
C968 C 0.83431 0.5908 0.54927 0.0
C969 C 0.84111 0.61107 0.5439 0.0
C970 C 0.8608 0.62676 0.54985 0.0
C971 C 0.87387 0.62184 0.55983 0.0
C972 C 0.81329 0.57375 0.54343 0.0
C973 C 0.86826 0.64865 0.54512 0.0
C974 C 0.83879 0.62438 0.4451 0.0
C975 C 0.82618 0.62874 0.4336 0.0
C976 C 0.81102 0.63101 0.4429 0.0
C977 C 0.80823 0.62887 0.46428 0.0
C978 C 0.79296 0.63084 0.47408 0.0
C979 C 0.7904 0.62876 0.49513 0.0
C980 C 0.80292 0.62448 0.50719 0.0
C981 C 0.80046 0.62237 0.52861 0.0
C982 C 0.81304 0.61798 0.54016 0.0
C983 C 0.82818 0.61566 0.53085 0.0
C984 C 0.83098 0.61784 0.50945 0.0
C985 C 0.84614 0.61571 0.49959 0.0
C986 C 0.84892 0.61811 0.47859 0.0
C987 C 0.83638 0.62233 0.46653 0.0
C988 C 0.82099 0.62452 0.47613 0.0
C989 C 0.81829 0.62228 0.49761 0.0
C990 C 0.70817 0.61766 0.55006 0.0
C991 C 0.72084 0.62165 0.5696 0.0
O992 O 0.89888 0.61412 0.40649 0.0
O993 O 0.88027 0.5962 0.57259 0.0
O994 O 0.74115 0.6351 0.56587 0.0
O995 O 0.76133 0.64717 0.39212 0.0
H996 H 0.89004 0.61505 0.37697 0.0
H997 H 0.88759 0.58181 0.38376 0.0
H998 H 0.91483 0.59465 0.38678 0.0
H999 H 0.90347 0.59429 0.36236 0.0
H1000 H 0.9017 0.64916 0.41404 0.0
H1001 H 0.86367 0.58467 0.41745 0.0
H1002 H 0.86615 0.66272 0.42358 0.0
H1003 H 0.89265 0.67192 0.42846 0.0
H1004 H 0.87459 0.66217 0.44901 0.0
H1005 H 0.82944 0.56919 0.42811 0.0
H1006 H 0.81788 0.58465 0.43025 0.0
H1007 H 0.83015 0.58161 0.45209 0.0
H1008 H 0.73492 0.6196 0.38928 0.0
H1009 H 0.75988 0.64243 0.3514 0.0
H1010 H 0.73671 0.61791 0.35096 0.0
H1011 H 0.75931 0.62096 0.36281 0.0
H1012 H 0.75619 0.61001 0.39854 0.0
H1013 H 0.79259 0.67396 0.4125 0.0
H1014 H 0.78852 0.5953 0.41536 0.0
H1015 H 0.76166 0.58594 0.41372 0.0
H1016 H 0.77476 0.59343 0.43817 0.0
H1017 H 0.82213 0.68772 0.43318 0.0
H1018 H 0.83425 0.67275 0.43402 0.0
H1019 H 0.8182 0.6716 0.45452 0.0
H1020 H 0.71881 0.60707 0.57506 0.0
H1021 H 0.73494 0.59882 0.55178 0.0
H1022 H 0.77837 0.66229 0.56111 0.0
H1023 H 0.76137 0.58747 0.51713 0.0
H1024 H 0.74348 0.57588 0.53755 0.0
H1025 H 0.7697 0.58294 0.54098 0.0
H1026 H 0.81257 0.67682 0.55161 0.0
H1027 H 0.81497 0.66529 0.52819 0.0
H1028 H 0.82222 0.65967 0.5521 0.0
H1029 H 0.90505 0.61458 0.55516 0.0
H1030 H 0.92417 0.59783 0.56491 0.0
H1031 H 0.89996 0.58069 0.55291 0.0
H1032 H 0.90301 0.58011 0.58016 0.0
H1033 H 0.84273 0.57086 0.56343 0.0
H1034 H 0.88906 0.63381 0.56401 0.0
H1035 H 0.81106 0.57323 0.52658 0.0
H1036 H 0.80181 0.57659 0.55064 0.0
H1037 H 0.81051 0.55873 0.54826 0.0
H1038 H 0.88267 0.65926 0.55337 0.0
H1039 H 0.85664 0.65264 0.5493 0.0
H1040 H 0.87089 0.65085 0.52842 0.0
H1041 H 0.82807 0.6302 0.41714 0.0
H1042 H 0.78283 0.63405 0.46558 0.0
H1043 H 0.77843 0.63051 0.50182 0.0
H1044 H 0.81108 0.61644 0.5566 0.0
H1045 H 0.85612 0.61223 0.508 0.0
H1046 H 0.86098 0.6165 0.47192 0.0
H1047 H 0.69186 0.60698 0.55309 0.0
H1048 H 0.71302 0.61076 0.53788 0.0
H1049 H 0.71001 0.63207 0.54436 0.0
C1050 C 0.39757 0.27953 0.36233 0.0
C1051 C 0.3829 0.27197 0.38027 0.0
C1052 C 0.39186 0.26393 0.41296 0.0
C1053 C 0.3727 0.24809 0.41856 0.0
C1054 C 0.37086 0.23334 0.43215 0.0
C1055 C 0.38858 0.23439 0.44007 0.0
C1056 C 0.40791 0.25102 0.43532 0.0
C1057 C 0.40926 0.26581 0.42204 0.0
C1058 C 0.34997 0.21616 0.43729 0.0
C1059 C 0.42712 0.2526 0.44343 0.0
C1060 C 0.39463 0.11407 0.37837 0.0
C1061 C 0.37984 0.10647 0.39632 0.0
C1062 C 0.3731 0.13293 0.40886 0.0
C1063 C 0.39238 0.14649 0.41726 0.0
C1064 C 0.39556 0.16312 0.42961 0.0
C1065 C 0.37903 0.16592 0.43392 0.0
C1066 C 0.35965 0.15236 0.4253 0.0
C1067 C 0.35706 0.1362 0.41261 0.0
C1068 C 0.41655 0.17766 0.43808 0.0
C1069 C 0.34167 0.15486 0.42954 0.0
C1070 C 0.3708 0.12255 0.56107 0.0
C1071 C 0.39086 0.13844 0.55846 0.0
C1072 C 0.39486 0.15682 0.55002 0.0
C1073 C 0.37848 0.15931 0.54415 0.0
C1074 C 0.35829 0.14334 0.54689 0.0
C1075 C 0.35475 0.1251 0.55517 0.0
C1076 C 0.41655 0.17349 0.54703 0.0
C1077 C 0.34045 0.14543 0.54081 0.0
C1078 C 0.41743 0.31326 0.5797 0.0
C1079 C 0.39791 0.29357 0.58498 0.0
C1080 C 0.39908 0.26294 0.5768 0.0
C1081 C 0.41426 0.25815 0.57412 0.0
C1082 C 0.41117 0.24193 0.56114 0.0
C1083 C 0.39206 0.22968 0.55134 0.0
C1084 C 0.37628 0.23386 0.55483 0.0
C1085 C 0.38011 0.25071 0.56718 0.0
C1086 C 0.42838 0.238 0.55782 0.0
C1087 C 0.35537 0.22054 0.54556 0.0
C1088 C 0.38692 0.21681 0.45094 0.0
C1089 C 0.3843 0.20033 0.43887 0.0
C1090 C 0.3819 0.18284 0.44771 0.0
C1091 C 0.382 0.18155 0.46923 0.0
C1092 C 0.37908 0.16391 0.47857 0.0
C1093 C 0.37931 0.16279 0.49974 0.0
C1094 C 0.38233 0.17922 0.51242 0.0
C1095 C 0.38236 0.17809 0.53397 0.0
C1096 C 0.38551 0.1947 0.54617 0.0
C1097 C 0.38864 0.21258 0.53741 0.0
C1098 C 0.38846 0.21392 0.51582 0.0
C1099 C 0.39139 0.23157 0.50641 0.0
C1100 C 0.39063 0.23249 0.48517 0.0
C1101 C 0.38755 0.21605 0.47253 0.0
C1102 C 0.38499 0.19828 0.48168 0.0
C1103 C 0.38527 0.19715 0.50333 0.0
C1104 C 0.368 0.08375 0.59488 0.0
C1105 C 0.3791 0.10024 0.58002 0.0
O1106 O 0.39402 0.27723 0.39843 0.0
O1107 O 0.40301 0.27905 0.5892 0.0
O1108 O 0.36616 0.10459 0.56933 0.0
O1109 O 0.36936 0.1168 0.39669 0.0
H1110 H 0.37348 0.25513 0.37825 0.0
H1111 H 0.40703 0.27235 0.36245 0.0
H1112 H 0.40779 0.29629 0.36344 0.0
H1113 H 0.38904 0.27543 0.34755 0.0
H1114 H 0.3592 0.24707 0.41202 0.0
H1115 H 0.42397 0.27832 0.41782 0.0
H1116 H 0.34695 0.20226 0.42858 0.0
H1117 H 0.33795 0.21958 0.43325 0.0
H1118 H 0.34903 0.21288 0.45385 0.0
H1119 H 0.44096 0.26642 0.43817 0.0
H1120 H 0.4278 0.23902 0.43836 0.0
H1121 H 0.42711 0.25294 0.46042 0.0
H1122 H 0.38848 0.10914 0.41089 0.0
H1123 H 0.40433 0.13088 0.37933 0.0
H1124 H 0.38616 0.10976 0.36354 0.0
H1125 H 0.4048 0.10772 0.3787 0.0
H1126 H 0.40503 0.14435 0.41399 0.0
H1127 H 0.34231 0.12574 0.40583 0.0
H1128 H 0.41662 0.17626 0.45495 0.0
H1129 H 0.42087 0.19355 0.43492 0.0
H1130 H 0.42817 0.17467 0.43149 0.0
H1131 H 0.32722 0.14172 0.42362 0.0
H1132 H 0.34399 0.16877 0.42212 0.0
H1133 H 0.34029 0.15674 0.44626 0.0
H1134 H 0.39002 0.0987 0.56997 0.0
H1135 H 0.40339 0.13647 0.56277 0.0
H1136 H 0.33934 0.11272 0.55725 0.0
H1137 H 0.4191 0.17733 0.53059 0.0
H1138 H 0.42761 0.16914 0.55218 0.0
H1139 H 0.41949 0.18738 0.55572 0.0
H1140 H 0.32575 0.13229 0.54555 0.0
H1141 H 0.34013 0.14664 0.52393 0.0
H1142 H 0.34205 0.15955 0.54779 0.0
H1143 H 0.38789 0.28911 0.57116 0.0
H1144 H 0.41393 0.32492 0.57468 0.0
H1145 H 0.42511 0.31024 0.56684 0.0
H1146 H 0.42805 0.31918 0.59305 0.0
H1147 H 0.42877 0.26755 0.58182 0.0
H1148 H 0.36813 0.25405 0.56953 0.0
H1149 H 0.43036 0.23625 0.5412 0.0
H1150 H 0.42473 0.2236 0.56515 0.0
H1151 H 0.44296 0.25041 0.5644 0.0
H1152 H 0.34398 0.22358 0.55271 0.0
H1153 H 0.35032 0.20424 0.54728 0.0
H1154 H 0.35577 0.2234 0.52895 0.0
H1155 H 0.38399 0.20107 0.42231 0.0
H1156 H 0.37658 0.15074 0.46962 0.0
H1157 H 0.37706 0.14884 0.50602 0.0
H1158 H 0.38542 0.19366 0.56272 0.0
H1159 H 0.39412 0.24483 0.51534 0.0
H1160 H 0.39265 0.24632 0.47877 0.0
H1161 H 0.37015 0.07098 0.58917 0.0
H1162 H 0.35143 0.07575 0.59041 0.0
H1163 H 0.37894 0.0983 0.62356 0.0
C1164 C 0.87797 0.2564 0.36212 0.0
C1165 C 0.89171 0.26528 0.38118 0.0
C1166 C 0.87014 0.24065 0.40708 0.0
C1167 C 0.85573 0.24676 0.40889 0.0
C1168 C 0.83839 0.2358 0.42087 0.0
C1169 C 0.83548 0.21847 0.43118 0.0
C1170 C 0.85013 0.21249 0.42955 0.0
C1171 C 0.86734 0.2238 0.41764 0.0
C1172 C 0.82314 0.24266 0.42251 0.0
C1173 C 0.84758 0.19408 0.44028 0.0
C1174 C 0.71567 0.11863 0.35642 0.0
C1175 C 0.72364 0.11193 0.37427 0.0
C1176 C 0.73393 0.13183 0.40602 0.0
C1177 C 0.75035 0.12968 0.41175 0.0
C1178 C 0.76586 0.14423 0.42461 0.0
C1179 C 0.76499 0.16139 0.4317 0.0
C1180 C 0.74808 0.16324 0.42645 0.0
C1181 C 0.73255 0.14819 0.41392 0.0
C1182 C 0.78341 0.14148 0.43023 0.0
C1183 C 0.74672 0.18137 0.43361 0.0
C1184 C 0.7307 0.13424 0.55835 0.0
C1185 C 0.74681 0.13115 0.55353 0.0
C1186 C 0.76488 0.14686 0.54555 0.0
C1187 C 0.76688 0.16603 0.54249 0.0
C1188 C 0.7513 0.16961 0.5488 0.0
C1189 C 0.73339 0.15363 0.55678 0.0
C1190 C 0.78148 0.14272 0.53952 0.0
C1191 C 0.75318 0.19002 0.54613 0.0
C1192 C 0.91248 0.29564 0.55584 0.0
C1193 C 0.90265 0.28359 0.57511 0.0
C1194 C 0.87494 0.25063 0.56162 0.0
C1195 C 0.86937 0.23047 0.55748 0.0
C1196 C 0.85097 0.21693 0.54752 0.0
C1197 C 0.83764 0.22371 0.54182 0.0
C1198 C 0.84287 0.24396 0.54644 0.0
C1199 C 0.86157 0.25731 0.55611 0.0
C1200 C 0.84592 0.19545 0.54283 0.0
C1201 C 0.82886 0.25158 0.5408 0.0
C1202 C 0.81701 0.20628 0.44339 0.0
C1203 C 0.79952 0.19148 0.43307 0.0
C1204 C 0.78227 0.17778 0.44375 0.0
C1205 C 0.78231 0.17898 0.46538 0.0
C1206 C 0.76539 0.16521 0.47664 0.0
C1207 C 0.76579 0.1662 0.49793 0.0
C1208 C 0.78323 0.18083 0.50881 0.0
C1209 C 0.78408 0.18138 0.53046 0.0
C1210 C 0.80172 0.19586 0.54082 0.0
C1211 C 0.81878 0.20987 0.53006 0.0
C1212 C 0.81819 0.20965 0.5084 0.0
C1213 C 0.83511 0.22346 0.49711 0.0
C1214 C 0.8346 0.22269 0.47582 0.0
C1215 C 0.81726 0.20791 0.46499 0.0
C1216 C 0.7999 0.19411 0.47602 0.0
C1217 C 0.80037 0.195 0.49776 0.0
C1218 C 0.6818 0.08892 0.55385 0.0
C1219 C 0.70425 0.0984 0.55958 0.0
O1220 O 0.88688 0.2503 0.39531 0.0
O1221 O 0.89333 0.26294 0.57075 0.0
O1222 O 0.71228 0.11889 0.5641 0.0
O1223 O 0.7195 0.11859 0.39255 0.0
H1224 H 0.88997 0.27766 0.38823 0.0
H1225 H 0.8823 0.26832 0.35056 0.0
H1226 H 0.87924 0.2437 0.3552 0.0
H1227 H 0.86187 0.25054 0.3661 0.0
H1228 H 0.85785 0.25998 0.40102 0.0
H1229 H 0.87864 0.21934 0.41624 0.0
H1230 H 0.8085 0.23087 0.41547 0.0
H1231 H 0.82827 0.25724 0.41476 0.0
H1232 H 0.8203 0.24449 0.43887 0.0
H1233 H 0.85927 0.1903 0.43575 0.0
H1234 H 0.83234 0.18071 0.43683 0.0
H1235 H 0.84873 0.19694 0.45709 0.0
H1236 H 0.74034 0.11933 0.37203 0.0
H1237 H 0.71843 0.11306 0.34162 0.0
H1238 H 0.72372 0.13549 0.35628 0.0
H1239 H 0.69917 0.11282 0.35787 0.0
H1240 H 0.75107 0.11666 0.40604 0.0
H1241 H 0.71966 0.14956 0.40954 0.0
H1242 H 0.78674 0.14425 0.44692 0.0
H1243 H 0.79716 0.15273 0.42205 0.0
H1244 H 0.78038 0.12603 0.42604 0.0
H1245 H 0.7331 0.18108 0.42729 0.0
H1246 H 0.76048 0.1956 0.42896 0.0
H1247 H 0.74611 0.18176 0.45057 0.0
H1248 H 0.71167 0.09625 0.54586 0.0
H1249 H 0.74521 0.11641 0.5556 0.0
H1250 H 0.72103 0.15596 0.56098 0.0
H1251 H 0.78299 0.1432 0.52261 0.0
H1252 H 0.77839 0.12767 0.5446 0.0
H1253 H 0.79621 0.15468 0.54622 0.0
H1254 H 0.74037 0.1908 0.55314 0.0
H1255 H 0.75356 0.19307 0.52955 0.0
H1256 H 0.76764 0.20218 0.55313 0.0
H1257 H 0.89129 0.28737 0.58089 0.0
H1258 H 0.92016 0.31221 0.55939 0.0
H1259 H 0.90077 0.29189 0.54381 0.0
H1260 H 0.92381 0.29198 0.5497 0.0
H1261 H 0.87973 0.22544 0.56184 0.0
H1262 H 0.86556 0.27286 0.5591 0.0
H1263 H 0.84252 0.19182 0.52623 0.0
H1264 H 0.83215 0.18473 0.55131 0.0
H1265 H 0.85847 0.19292 0.54716 0.0
H1266 H 0.83413 0.26706 0.54725 0.0
H1267 H 0.81332 0.24106 0.54637 0.0
H1268 H 0.82789 0.25198 0.52388 0.0
H1269 H 0.7996 0.19013 0.4165 0.0
H1270 H 0.75167 0.15344 0.46913 0.0
H1271 H 0.75229 0.15515 0.50572 0.0
H1272 H 0.80236 0.19591 0.55741 0.0
H1273 H 0.849 0.23497 0.50458 0.0
H1274 H 0.84808 0.23369 0.46794 0.0
H1275 H 0.67497 0.07245 0.55017 0.0
H1276 H 0.68024 0.09637 0.54014 0.0
H1277 H 0.67328 0.09088 0.56659 0.0
C1278 C 0.05605 0.46021 0.28372 0.0
C1279 C 0.03298 0.44598 0.28413 0.0
C1280 C 0.018 0.45482 0.25671 0.0
C1281 C 0.99717 0.44745 0.25586 0.0
C1282 C 0.98959 0.45851 0.24628 0.0
C1283 C 0.0033 0.47727 0.23737 0.0
C1284 C 0.02444 0.48489 0.23858 0.0
C1285 C 0.03153 0.47339 0.24801 0.0
C1286 C 0.96698 0.4499 0.2451 0.0
C1287 C 0.0395 0.50487 0.22932 0.0
C1288 C 0.9663 0.56192 0.31481 0.0
C1289 C 0.9806 0.57088 0.29671 0.0
C1290 C 0.97341 0.55188 0.26454 0.0
C1291 C 0.99325 0.55802 0.2585 0.0
C1292 C 0.99703 0.54583 0.24505 0.0
C1293 C 0.98061 0.52706 0.23768 0.0
C1294 C 0.96051 0.52125 0.24313 0.0
C1295 C 0.95716 0.53398 0.25626 0.0
C1296 C 0.0186 0.55278 0.23911 0.0
C1297 C 0.94265 0.50131 0.23565 0.0
C1298 C 0.95682 0.54251 0.11184 0.0
C1299 C 0.97768 0.55084 0.11544 0.0
C1300 C 0.98516 0.53883 0.12287 0.0
C1301 C 0.97142 0.51815 0.12686 0.0
C1302 C 0.95063 0.50937 0.12164 0.0
C1303 C 0.94362 0.5217 0.11397 0.0
C1304 C 0.00755 0.54845 0.12744 0.0
C1305 C 0.93568 0.48724 0.12521 0.0
C1306 C 0.01759 0.40744 0.13109 0.0
C1307 C 0.00599 0.40881 0.11272 0.0
C1308 C 0.00743 0.44166 0.11327 0.0
C1309 C 0.02176 0.46223 0.11635 0.0
C1310 C 0.01598 0.47594 0.12344 0.0
C1311 C 0.99528 0.46882 0.12732 0.0
C1312 C 0.98051 0.44834 0.12273 0.0
C1313 C 0.98672 0.43494 0.11562 0.0
C1314 C 0.03209 0.49779 0.12783 0.0
C1315 C 0.95827 0.44045 0.12615 0.0
C1316 C 0.99554 0.48821 0.22546 0.0
C1317 C 0.99097 0.50143 0.23594 0.0
C1318 C 0.98464 0.51299 0.22541 0.0
C1319 C 0.98281 0.51137 0.20382 0.0
C1320 C 0.97674 0.52294 0.19272 0.0
C1321 C 0.97499 0.52118 0.17147 0.0
C1322 C 0.97963 0.50807 0.16044 0.0
C1323 C 0.97829 0.50644 0.13878 0.0
C1324 C 0.98337 0.49354 0.1283 0.0
C1325 C 0.98954 0.48194 0.13897 0.0
C1326 C 0.99059 0.48307 0.1606 0.0
C1327 C 0.99637 0.47127 0.17176 0.0
C1328 C 0.99778 0.47276 0.19298 0.0
C1329 C 0.99355 0.48617 0.20392 0.0
C1330 C 0.98731 0.4979 0.19304 0.0
C1331 C 0.98581 0.49632 0.17135 0.0
C1332 C 0.93773 0.57408 0.12487 0.0
C1333 C 0.95555 0.57357 0.11484 0.0
O1334 O 0.02484 0.44321 0.26459 0.0
O1335 O 0.01424 0.42901 0.10771 0.0
O1336 O 0.9489 0.55421 0.10689 0.0
O1337 O 0.9696 0.56271 0.27866 0.0
H1338 H 0.02638 0.4529 0.29442 0.0
H1339 H 0.05983 0.47574 0.27972 0.0
H1340 H 0.06294 0.45459 0.27232 0.0
H1341 H 0.06291 0.46133 0.29903 0.0
H1342 H 0.98688 0.43288 0.26242 0.0
H1343 H 0.0476 0.47863 0.24814 0.0
H1344 H 0.96318 0.46078 0.25237 0.0
H1345 H 0.95834 0.4351 0.25278 0.0
H1346 H 0.96199 0.44778 0.22881 0.0
H1347 H 0.05539 0.50983 0.23375 0.0
H1348 H 0.03618 0.51687 0.23417 0.0
H1349 H 0.03812 0.50335 0.21237 0.0
H1350 H 0.99235 0.56651 0.29847 0.0
H1351 H 0.97477 0.56821 0.3295 0.0
H1352 H 0.95946 0.54517 0.31461 0.0
H1353 H 0.95386 0.56535 0.31396 0.0
H1354 H 0.00577 0.57226 0.26446 0.0
H1355 H 0.94189 0.52957 0.26086 0.0
H1356 H 0.01956 0.55099 0.2223 0.0
H1357 H 0.02359 0.54318 0.24664 0.0
H1358 H 0.02923 0.56888 0.24374 0.0
H1359 H 0.92811 0.49849 0.24229 0.0
H1360 H 0.94498 0.48861 0.23965 0.0
H1361 H 0.94141 0.50123 0.21872 0.0
H1362 H 0.9669 0.57753 0.12741 0.0
H1363 H 0.98808 0.5668 0.11287 0.0
H1364 H 0.92761 0.51535 0.11066 0.0
H1365 H 0.0101 0.55016 0.14428 0.0
H1366 H 0.01654 0.56368 0.12066 0.0
H1367 H 0.01322 0.53857 0.12151 0.0
H1368 H 0.92014 0.48259 0.11972 0.0
H1369 H 0.93512 0.48425 0.14182 0.0
H1370 H 0.94074 0.47767 0.11721 0.0
H1371 H 0.98986 0.40182 0.11715 0.0
H1372 H 0.01133 0.39132 0.13516 0.0
H1373 H 0.01603 0.41569 0.14451 0.0
H1374 H 0.03398 0.41434 0.12766 0.0
H1375 H 0.03765 0.46737 0.11395 0.0
H1376 H 0.97534 0.41933 0.112 0.0
H1377 H 0.03373 0.50073 0.14464 0.0
H1378 H 0.02755 0.50812 0.12115 0.0
H1379 H 0.04707 0.5015 0.12163 0.0
H1380 H 0.94854 0.42448 0.12055 0.0
H1381 H 0.9536 0.45012 0.11823 0.0
H1382 H 0.9556 0.44127 0.14276 0.0
H1383 H 0.99261 0.50295 0.25249 0.0
H1384 H 0.97323 0.53345 0.20035 0.0
H1385 H 0.97009 0.53037 0.16382 0.0
H1386 H 0.98252 0.49253 0.1117 0.0
H1387 H -7e-05 0.46074 0.16425 0.0
H1388 H 0.00232 0.4633 0.20068 0.0
H1389 H 0.92476 0.56876 0.114 0.0
H1390 H 0.94253 0.58973 0.13046 0.0
H1391 H 0.93245 0.56391 0.13818 0.0
C1392 C 0.44744 0.38049 0.31442 0.0
C1393 C 0.44147 0.39074 0.29826 0.0
C1394 C 0.45546 0.39868 0.26437 0.0
C1395 C 0.45175 0.41425 0.25958 0.0
C1396 C 0.46462 0.42969 0.24645 0.0
C1397 C 0.48176 0.42971 0.23831 0.0
C1398 C 0.48487 0.41337 0.24226 0.0
C1399 C 0.47138 0.3978 0.25501 0.0
C1400 C 0.46046 0.44652 0.2422 0.0
C1401 C 0.50305 0.41296 0.23399 0.0
C1402 C 0.60193 0.54822 0.30831 0.0
C1403 C 0.59713 0.5576 0.29027 0.0
C1404 C 0.56491 0.53179 0.27398 0.0
C1405 C 0.57169 0.51928 0.26555 0.0
C1406 C 0.5591 0.50294 0.25227 0.0
C1407 C 0.53958 0.49935 0.24708 0.0
C1408 C 0.53274 0.5119 0.25565 0.0
C1409 C 0.54546 0.52781 0.26921 0.0
C1410 C 0.56663 0.48949 0.2438 0.0
C1411 C 0.51201 0.50852 0.25055 0.0
C1412 C 0.58016 0.54558 0.12072 0.0
C1413 C 0.58411 0.52977 0.12354 0.0
C1414 C 0.56929 0.51131 0.13177 0.0
C1415 C 0.55019 0.50863 0.13716 0.0
C1416 C 0.54624 0.52457 0.13434 0.0
C1417 C 0.56138 0.5429 0.12631 0.0
C1418 C 0.57409 0.49473 0.13492 0.0
C1419 C 0.5261 0.5223 0.14 0.0
C1420 C 0.43069 0.35037 0.10093 0.0
C1421 C 0.43474 0.37193 0.09817 0.0
C1422 C 0.46764 0.4025 0.10407 0.0
C1423 C 0.48759 0.40754 0.10814 0.0
C1424 C 0.50066 0.42483 0.12014 0.0
C1425 C 0.49367 0.43763 0.12771 0.0
C1426 C 0.47392 0.43332 0.12245 0.0
C1427 C 0.46104 0.4157 0.1108 0.0
C1428 C 0.52171 0.42908 0.12524 0.0
C1429 C 0.46625 0.44707 0.12958 0.0
C1430 C 0.49773 0.44805 0.22814 0.0
C1431 C 0.51108 0.46445 0.24081 0.0
C1432 C 0.52629 0.48252 0.23265 0.0
C1433 C 0.52842 0.48444 0.21122 0.0
C1434 C 0.54342 0.50255 0.20254 0.0
C1435 C 0.54556 0.50423 0.18144 0.0
C1436 C 0.53265 0.48794 0.16818 0.0
C1437 C 0.53468 0.48957 0.1467 0.0
C1438 C 0.52172 0.47304 0.13392 0.0
C1439 C 0.50661 0.4548 0.14205 0.0
C1440 C 0.50418 0.45296 0.16353 0.0
C1441 C 0.489 0.43492 0.17227 0.0
C1442 C 0.48666 0.43334 0.19341 0.0
C1443 C 0.49971 0.44955 0.20663 0.0
C1444 C 0.51516 0.46784 0.19816 0.0
C1445 C 0.51732 0.46958 0.17661 0.0
C1446 C 0.61714 0.58427 0.087 0.0
C1447 C 0.61129 0.56783 0.10193 0.0
O1448 O 0.44462 0.38512 0.27892 0.0
O1449 O 0.45508 0.38473 0.09388 0.0
O1450 O 0.59386 0.56353 0.11246 0.0
O1451 O 0.57633 0.54758 0.28709 0.0
H1452 H 0.45173 0.40741 0.30106 0.0
H1453 H 0.4639 0.38595 0.31334 0.0
H1454 H 0.43894 0.36372 0.3121 0.0
H1455 H 0.44444 0.38433 0.33004 0.0
H1456 H 0.43907 0.41457 0.26652 0.0
H1457 H 0.47394 0.38556 0.25874 0.0
H1458 H 0.47069 0.46002 0.25192 0.0
H1459 H 0.44454 0.44207 0.24571 0.0
H1460 H 0.46348 0.45096 0.22594 0.0
H1461 H 0.5035 0.39938 0.23884 0.0
H1462 H 0.51722 0.4268 0.23934 0.0
H1463 H 0.5028 0.41302 0.21701 0.0
H1464 H 0.60482 0.5564 0.2763 0.0
H1465 H 0.59564 0.53174 0.30534 0.0
H1466 H 0.59516 0.55017 0.3226 0.0
H1467 H 0.61859 0.55547 0.3106 0.0
H1468 H 0.5866 0.52198 0.26946 0.0
H1469 H 0.54035 0.53746 0.27599 0.0
H1470 H 0.55519 0.47328 0.24625 0.0
H1471 H 0.58125 0.49298 0.25097 0.0
H1472 H 0.56881 0.49154 0.22705 0.0
H1473 H 0.51006 0.52116 0.25637 0.0
H1474 H 0.50029 0.49426 0.25755 0.0
H1475 H 0.50934 0.50682 0.23372 0.0
H1476 H 0.6237 0.56939 0.11212 0.0
H1477 H 0.59875 0.53185 0.11952 0.0
H1478 H 0.55855 0.55524 0.12411 0.0
H1479 H 0.57184 0.49033 0.15122 0.0
H1480 H 0.58989 0.49943 0.13064 0.0
H1481 H 0.56348 0.48108 0.12556 0.0
H1482 H 0.52479 0.53542 0.13517 0.0
H1483 H 0.52424 0.521 0.15685 0.0
H1484 H 0.51349 0.50818 0.13284 0.0
H1485 H 0.43094 0.37636 0.11316 0.0
H1486 H 0.41429 0.3397 0.10354 0.0
H1487 H 0.43936 0.35016 0.11445 0.0
H1488 H 0.43555 0.34502 0.08733 0.0
H1489 H 0.49263 0.39741 0.10257 0.0
H1490 H 0.44583 0.41221 0.10704 0.0
H1491 H 0.52402 0.43022 0.14211 0.0
H1492 H 0.53313 0.44389 0.11889 0.0
H1493 H 0.5245 0.41713 0.11896 0.0
H1494 H 0.45169 0.44315 0.12195 0.0
H1495 H 0.47768 0.46315 0.12653 0.0
H1496 H 0.46386 0.44576 0.14636 0.0
H1497 H 0.50952 0.46318 0.25731 0.0
H1498 H 0.55374 0.51564 0.21195 0.0
H1499 H 0.55749 0.51851 0.17568 0.0
H1500 H 0.52341 0.47439 0.11744 0.0
H1501 H 0.47867 0.42183 0.16288 0.0
H1502 H 0.4746 0.41919 0.19928 0.0
H1503 H 0.63225 0.59705 0.09279 0.0
H1504 H 0.60867 0.59227 0.09126 0.0
H1505 H 0.61351 0.56964 0.05839 0.0
C1506 C 0.43588 0.97875 0.31991 0.0
C1507 C 0.42952 0.99046 0.306 0.0
C1508 C 0.44182 0.98929 0.27193 0.0
C1509 C 0.45621 0.00994 0.26957 0.0
C1510 C 0.47235 0.01592 0.25602 0.0
C1511 C 0.47394 0.00095 0.24453 0.0
C1512 C 0.45865 0.98025 0.24582 0.0
C1513 C 0.44264 0.97472 0.25944 0.0
C1514 C 0.48798 0.03817 0.25431 0.0
C1515 C 0.45961 0.96393 0.23334 0.0
C1516 C 0.60339 0.98292 0.2751 0.0
C1517 C 0.59377 0.98883 0.25913 0.0
C1518 C 0.57382 0.00542 0.25991 0.0
C1519 C 0.55471 0.98808 0.25609 0.0
C1520 C 0.53877 0.98976 0.24789 0.0
C1521 C 0.54183 0.00925 0.24414 0.0
C1522 C 0.56039 0.02681 0.24997 0.0
C1523 C 0.57625 0.02464 0.25771 0.0
C1524 C 0.51884 0.97066 0.24278 0.0
C1525 C 0.56376 0.04781 0.2472 0.0
C1526 C 0.58687 0.0337 0.12207 0.0
C1527 C 0.57016 0.01375 0.12143 0.0
C1528 C 0.55107 0.00964 0.1282 0.0
C1529 C 0.54865 0.02583 0.1354 0.0
C1530 C 0.565 0.04607 0.1343 0.0
C1531 C 0.58393 0.04973 0.12755 0.0
C1532 C 0.53377 0.98793 0.12871 0.0
C1533 C 0.56279 0.06372 0.1414 0.0
C1534 C 0.39964 0.00777 0.12927 0.0
C1535 C 0.41425 0.01445 0.11127 0.0
C1536 C 0.44164 0.00697 0.11809 0.0
C1537 C 0.44444 0.99055 0.12108 0.0
C1538 C 0.46254 0.99338 0.12951 0.0
C1539 C 0.47832 0.01323 0.13489 0.0
C1540 C 0.47607 0.03006 0.13089 0.0
C1541 C 0.45772 0.02679 0.12254 0.0
C1542 C 0.46452 0.97509 0.13336 0.0
C1543 C 0.49289 0.05144 0.13599 0.0
C1544 C 0.49244 0.00665 0.23264 0.0
C1545 C 0.50884 0.00766 0.24308 0.0
C1546 C 0.52615 0.01104 0.23269 0.0
C1547 C 0.52745 0.01401 0.21133 0.0
C1548 C 0.54457 0.01718 0.20034 0.0
C1549 C 0.54562 0.01988 0.17934 0.0
C1550 C 0.52943 0.01912 0.16838 0.0
C1551 C 0.53023 0.0215 0.14693 0.0
C1552 C 0.51355 0.01982 0.13635 0.0
C1553 C 0.49608 0.0161 0.14681 0.0
C1554 C 0.49527 0.01436 0.16834 0.0
C1555 C 0.47808 0.01109 0.17934 0.0
C1556 C 0.4772 0.00882 0.20044 0.0
C1557 C 0.49343 0.00966 0.21133 0.0
C1558 C 0.51102 0.01332 0.20064 0.0
C1559 C 0.51195 0.01571 0.17912 0.0
C1560 C 0.63166 0.03625 0.13656 0.0
C1561 C 0.61403 0.02572 0.12111 0.0
O1562 O 0.42701 0.98291 0.28608 0.0
O1563 O 0.42337 0.00276 0.11048 0.0
O1564 O 0.60602 0.03809 0.11778 0.0
O1565 O 0.59018 0.00415 0.26544 0.0
H1566 H 0.4418 0.00665 0.3072 0.0
H1567 H 0.45107 0.98158 0.31538 0.0
H1568 H 0.42498 0.96214 0.31864 0.0
H1569 H 0.43684 0.98392 0.33612 0.0
H1570 H 0.45493 0.02143 0.27826 0.0
H1571 H 0.43112 0.95888 0.26102 0.0
H1572 H 0.5027 0.04113 0.26069 0.0
H1573 H 0.4835 0.04806 0.26266 0.0
H1574 H 0.49035 0.04239 0.23796 0.0
H1575 H 0.44643 0.94855 0.23605 0.0
H1576 H 0.47375 0.96399 0.23717 0.0
H1577 H 0.46004 0.9671 0.21679 0.0
H1578 H 0.58116 0.9761 0.25016 0.0
H1579 H 0.59183 0.96664 0.27832 0.0
H1580 H 0.6013 0.98906 0.29017 0.0
H1581 H 0.63208 0.99178 0.26311 0.0
H1582 H 0.55222 0.97316 0.25923 0.0
H1583 H 0.59087 0.03796 0.26134 0.0
H1584 H 0.5142 0.97085 0.22672 0.0
H1585 H 0.50689 0.96994 0.25293 0.0
H1586 H 0.5196 0.9567 0.2448 0.0
H1587 H 0.57747 0.0596 0.25567 0.0
H1588 H 0.55036 0.04854 0.2525 0.0
H1589 H 0.56573 0.05139 0.23069 0.0
H1590 H 0.60279 0.01127 0.12829 0.0
H1591 H 0.572 0.00133 0.11601 0.0
H1592 H 0.59679 0.06511 0.12745 0.0
H1593 H 0.52991 0.98343 0.14487 0.0
H1594 H 0.53755 0.97723 0.12097 0.0
H1595 H 0.52008 0.98652 0.12122 0.0
H1596 H 0.57612 0.07857 0.13736 0.0
H1597 H 0.56109 0.06339 0.15829 0.0
H1598 H 0.54891 0.06243 0.13453 0.0
H1599 H 0.42554 0.03083 0.11343 0.0
H1600 H 0.39217 0.01696 0.1303 0.0
H1601 H 0.40812 0.00998 0.14381 0.0
H1602 H 0.38779 0.99145 0.12746 0.0
H1603 H 0.43209 0.97536 0.11726 0.0
H1604 H 0.45629 0.03981 0.11954 0.0
H1605 H 0.46479 0.97308 0.15012 0.0
H1606 H 0.47904 0.97747 0.12712 0.0
H1607 H 0.45179 0.96093 0.12639 0.0
H1608 H 0.48926 0.06301 0.13096 0.0
H1609 H 0.50714 0.05435 0.12856 0.0
H1610 H 0.49573 0.05327 0.15278 0.0
H1611 H 0.5078 0.00498 0.2594 0.0
H1612 H 0.5574 0.01763 0.20782 0.0
H1613 H 0.55925 0.02234 0.1718 0.0
H1614 H 0.51412 0.02128 0.11985 0.0
H1615 H 0.46505 0.01017 0.17178 0.0
H1616 H 0.46359 0.00626 0.2081 0.0
H1617 H 0.6388 0.02692 0.13879 0.0
H1618 H 0.62588 0.03812 0.15156 0.0
H1619 H 0.64334 0.05153 0.13141 0.0
C1620 C 0.56335 0.97351 0.69365 0.0
C1621 C 0.57378 0.98996 0.71048 0.0
C1622 C 0.56033 0.98732 0.74453 0.0
C1623 C 0.56757 0.00798 0.74867 0.0
C1624 C 0.55765 0.014 0.76266 0.0
C1625 C 0.54009 0.99901 0.77253 0.0
C1626 C 0.53346 0.97817 0.7692 0.0
C1627 C 0.54397 0.97264 0.75546 0.0
C1628 C 0.56545 0.03633 0.76631 0.0
C1629 C 0.51472 0.96171 0.77934 0.0
C1630 C 0.40636 0.00097 0.71872 0.0
C1631 C 0.41958 0.99598 0.73086 0.0
C1632 C 0.45385 0.01146 0.74513 0.0
C1633 C 0.44998 0.99421 0.756 0.0
C1634 C 0.46495 0.99443 0.76847 0.0
C1635 C 0.48412 0.01244 0.7706 0.0
C1636 C 0.48804 0.02994 0.75994 0.0
C1637 C 0.47286 0.02916 0.7472 0.0
C1638 C 0.46029 0.97526 0.77919 0.0
C1639 C 0.50825 0.0494 0.76202 0.0
C1640 C 0.44651 0.01616 0.89151 0.0
C1641 C 0.443 0.99646 0.88769 0.0
C1642 C 0.45896 0.99349 0.88192 0.0
C1643 C 0.47881 0.01047 0.88039 0.0
C1644 C 0.48265 0.03005 0.88603 0.0
C1645 C 0.46639 0.03262 0.89148 0.0
C1646 C 0.45449 0.97231 0.87656 0.0
C1647 C 0.50371 0.04842 0.88504 0.0
C1648 C 0.58709 0.95669 0.88762 0.0
C1649 C 0.58512 0.9732 0.89922 0.0
C1650 C 0.55394 0.97435 0.89812 0.0
C1651 C 0.53373 0.96157 0.89211 0.0
C1652 C 0.52232 0.96949 0.88399 0.0
C1653 C 0.53129 0.99078 0.88237 0.0
C1654 C 0.55123 0.00386 0.88999 0.0
C1655 C 0.5624 0.9955 0.89774 0.0
C1656 C 0.50098 0.95508 0.8763 0.0
C1657 C 0.56099 0.02661 0.88911 0.0
C1658 C 0.52743 0.00498 0.78446 0.0
C1659 C 0.51416 0.0088 0.77341 0.0
C1660 C 0.50016 0.01244 0.78334 0.0
C1661 C 0.49974 0.01293 0.80496 0.0
C1662 C 0.48607 0.0169 0.81542 0.0
C1663 C 0.48463 0.01576 0.8366 0.0
C1664 C 0.49683 0.01062 0.84815 0.0
C1665 C 0.49458 0.00821 0.86957 0.0
C1666 C 0.50643 0.00242 0.88054 0.0
C1667 C 0.52068 0.99907 0.87058 0.0
C1668 C 0.52349 0.0019 0.84922 0.0
C1669 C 0.53787 0.99893 0.83875 0.0
C1670 C 0.53971 0.00064 0.8176 0.0
C1671 C 0.52692 0.00491 0.80606 0.0
C1672 C 0.51286 0.00872 0.81634 0.0
C1673 C 0.51126 0.00736 0.83796 0.0
C1674 C 0.40445 0.01743 0.8749 0.0
C1675 C 0.41076 0.0081 0.89171 0.0
O1676 O 0.56823 0.98112 0.72943 0.0
O1677 O 0.56492 0.96582 0.90382 0.0
O1678 O 0.43149 0.02024 0.89528 0.0
O1679 O 0.43969 0.01152 0.73258 0.0
H1680 H 0.56812 0.00064 0.70826 0.0
H1681 H 0.54663 0.96659 0.69465 0.0
H1682 H 0.56694 0.96126 0.69531 0.0
H1683 H 0.56818 0.9802 0.6783 0.0
H1684 H 0.58071 0.01937 0.74067 0.0
H1685 H 0.53875 0.95675 0.7523 0.0
H1686 H 0.55498 0.04034 0.75887 0.0
H1687 H 0.58086 0.04599 0.76 0.0
H1688 H 0.56587 0.03981 0.78296 0.0
H1689 H 0.51065 0.94627 0.77373 0.0
H1690 H 0.50164 0.96384 0.77649 0.0
H1691 H 0.51727 0.96264 0.79614 0.0
H1692 H 0.41788 0.98096 0.72674 0.0
H1693 H 0.40118 0.99018 0.70507 0.0
H1694 H 0.41681 0.01476 0.70968 0.0
H1695 H 0.38609 0.00085 0.74045 0.0
H1696 H 0.43536 0.98038 0.7547 0.0
H1697 H 0.47573 0.04243 0.73886 0.0
H1698 H 0.45955 0.97746 0.79595 0.0
H1699 H 0.4725 0.97176 0.77646 0.0
H1700 H 0.4456 0.96195 0.774 0.0
H1701 H 0.50833 0.06216 0.75417 0.0
H1702 H 0.52027 0.04708 0.75534 0.0
H1703 H 0.51213 0.05365 0.77846 0.0
H1704 H 0.40638 0.99258 0.88626 0.0
H1705 H 0.42798 0.98332 0.88889 0.0
H1706 H 0.46904 0.04769 0.89499 0.0
H1707 H 0.45827 0.97146 0.8603 0.0
H1708 H 0.43832 0.96062 0.87892 0.0
H1709 H 0.46414 0.96869 0.88613 0.0
H1710 H 0.50474 0.06196 0.89286 0.0
H1711 H 0.50791 0.05202 0.86876 0.0
H1712 H 0.51492 0.04521 0.89214 0.0
H1713 H 0.59075 0.98603 0.88848 0.0
H1714 H 0.60331 0.96194 0.88474 0.0
H1715 H 0.57904 0.9533 0.87261 0.0
H1716 H 0.58024 0.9424 0.89625 0.0
H1717 H 0.52722 0.94528 0.89287 0.0
H1718 H 0.5778 0.00546 0.90321 0.0
H1719 H 0.49988 0.95716 0.85968 0.0
H1720 H 0.49028 0.95854 0.88429 0.0
H1721 H 0.49617 0.93893 0.87878 0.0
H1722 H 0.57557 0.0347 0.89783 0.0
H1723 H 0.55055 0.03143 0.89532 0.0
H1724 H 0.56395 0.03125 0.87291 0.0
H1725 H 0.51403 0.0079 0.7568 0.0
H1726 H 0.47613 0.02064 0.8073 0.0
H1727 H 0.47354 0.01862 0.8437 0.0
H1728 H 0.50417 -0.0 0.89685 0.0
H1729 H 0.54777 0.99506 0.84673 0.0
H1730 H 0.55095 0.99808 0.81034 0.0
H1731 H 0.38784 0.00804 0.87185 0.0
H1732 H 0.41248 0.01805 0.86053 0.0
H1733 H 0.40834 0.03311 0.87939 0.0
C1734 C 0.02466 0.58356 0.69978 0.0
C1735 C 0.00924 0.57988 0.71649 0.0
C1736 C 0.01185 0.56832 0.75013 0.0
C1737 C 0.99113 0.55518 0.75375 0.0
C1738 C 0.98477 0.53945 0.76768 0.0
C1739 C -0.00054 0.53682 0.77804 0.0
C1740 C 0.02039 0.55078 0.77519 0.0
C1741 C 0.02627 0.56661 0.76151 0.0
C1742 C 0.96237 0.52521 0.77077 0.0
C1743 C 0.0366 0.54853 0.78587 0.0
C1744 C 0.98975 0.39589 0.72413 0.0
C1745 C 0.99626 0.4163 0.7332 0.0
C1746 C 0.98182 0.4346 0.75043 0.0
C1747 C 0.00068 0.45132 0.75651 0.0
C1748 C 0.00181 0.46719 0.76865 0.0
C1749 C 0.98372 0.46637 0.77486 0.0
C1750 C 0.96469 0.44966 0.76868 0.0
C1751 C 0.964 0.43396 0.7565 0.0
C1752 C 0.02241 0.48491 0.77472 0.0
C1753 C 0.94516 0.44836 0.77511 0.0
C1754 C 0.98451 0.42716 0.89323 0.0
C1755 C 0.00428 0.44388 0.89131 0.0
C1756 C 0.00738 0.46309 0.88671 0.0
C1757 C 0.99046 0.46569 0.88459 0.0
C1758 C 0.97079 0.4494 0.8887 0.0
C1759 C 0.96808 0.43028 0.89277 0.0
C1760 C 0.02864 0.48032 0.88295 0.0
C1761 C 0.95246 0.45177 0.88724 0.0
C1762 C 0.04814 0.62897 0.89949 0.0
C1763 C 0.03035 0.6107 0.90958 0.0
C1764 C 0.02723 0.57743 0.90691 0.0
C1765 C 0.03966 0.56971 0.90145 0.0
C1766 C 0.03153 0.55049 0.89188 0.0
C1767 C 0.01032 0.53846 0.88831 0.0
C1768 C 0.9975 0.54563 0.89516 0.0
C1769 C 0.00611 0.56513 0.90428 0.0
C1770 C 0.04569 0.54329 0.88506 0.0
C1771 C 0.97479 0.53294 0.89227 0.0
C1772 C 0.99309 0.51818 0.78973 0.0
C1773 C 0.98828 0.50056 0.77838 0.0
C1774 C 0.985 0.48307 0.78797 0.0
C1775 C 0.98589 0.48281 0.80954 0.0
C1776 C 0.98286 0.46549 0.8196 0.0
C1777 C 0.98482 0.46569 0.84073 0.0
C1778 C 0.98999 0.48326 0.85269 0.0
C1779 C 0.99282 0.48378 0.87414 0.0
C1780 C -0.00126 0.50169 0.88551 0.0
C1781 C 0.00191 0.51925 0.87593 0.0
C1782 C -0.00134 0.51884 0.85452 0.0
C1783 C 0.00154 0.53613 0.84435 0.0
C1784 C -0.00091 0.53577 0.8232 0.0
C1785 C 0.99412 0.51828 0.81134 0.0
C1786 C 0.99064 0.50054 0.82127 0.0
C1787 C 0.99284 0.5008 0.84288 0.0
C1788 C 0.98339 0.3807 0.88109 0.0
C1789 C 0.99334 0.40018 0.89439 0.0
O1790 O 0.01843 0.58248 0.73547 0.0
O1791 O 0.03607 0.59679 0.9145 0.0
O1792 O 0.9803 0.40774 0.895 0.0
O1793 O 0.98023 0.41885 0.73887 0.0
H1794 H 0.99651 0.56394 0.71408 0.0
H1795 H 0.02979 0.57242 0.70101 0.0
H1796 H 0.03814 0.59911 0.70137 0.0
H1797 H 0.01765 0.58162 0.68438 0.0
H1798 H 0.97994 0.55705 0.74552 0.0
H1799 H 0.04222 0.57712 0.75882 0.0
H1800 H 0.95767 0.51038 0.76302 0.0
H1801 H 0.95309 0.53124 0.76441 0.0
H1802 H 0.9591 0.52243 0.78733 0.0
H1803 H 0.05199 0.55902 0.77991 0.0
H1804 H 0.03344 0.53273 0.78406 0.0
H1805 H 0.03666 0.55185 0.80249 0.0
H1806 H 0.00812 0.42926 0.72443 0.0
H1807 H 5e-05 0.38293 0.74548 0.0
H1808 H 0.99525 0.39877 0.70788 0.0
H1809 H 0.97324 0.38889 0.7197 0.0
H1810 H 0.01462 0.45212 0.75187 0.0
H1811 H 0.94952 0.42101 0.75176 0.0
H1812 H 0.02338 0.48757 0.79157 0.0
H1813 H 0.02458 0.49884 0.76747 0.0
H1814 H 0.03498 0.48253 0.76996 0.0
H1815 H 0.93159 0.43471 0.76844 0.0
H1816 H 0.94507 0.46214 0.7703 0.0
H1817 H 0.9441 0.44787 0.79206 0.0
H1818 H 0.00792 0.41079 0.88703 0.0
H1819 H 0.01733 0.4421 0.89275 0.0
H1820 H 0.95292 0.41743 0.89482 0.0
H1821 H 0.02984 0.48537 0.86694 0.0
H1822 H 0.04025 0.47598 0.88556 0.0
H1823 H 0.03203 0.49342 0.89326 0.0
H1824 H 0.93899 0.4391 0.89455 0.0
H1825 H 0.94872 0.45202 0.87087 0.0
H1826 H 0.95571 0.46637 0.89459 0.0
H1827 H 0.01794 0.60414 0.8978 0.0
H1828 H 0.04423 0.6408 0.89646 0.0
H1829 H 0.05156 0.62404 0.88465 0.0
H1830 H 0.06205 0.63564 0.90926 0.0
H1831 H 0.0559 0.5792 0.90392 0.0
H1832 H 0.99638 0.57079 0.90926 0.0
H1833 H 0.04327 0.53895 0.86852 0.0
H1834 H 0.04234 0.52961 0.89365 0.0
H1835 H 0.0619 0.55505 0.88769 0.0
H1836 H 0.96677 0.53939 0.90089 0.0
H1837 H 0.96914 0.51721 0.89731 0.0
H1838 H 0.97091 0.53207 0.87577 0.0
H1839 H 0.98825 0.50083 0.76178 0.0
H1840 H 0.97909 0.45161 0.81124 0.0
H1841 H 0.98251 0.4519 0.84747 0.0
H1842 H 0.00138 0.50211 0.90187 0.0
H1843 H 0.00586 0.5502 0.85259 0.0
H1844 H 0.00152 0.54951 0.81619 0.0
H1845 H 0.96877 0.36911 0.88776 0.0
H1846 H 0.99356 0.37435 0.8797 0.0
H1847 H 0.98035 0.38406 0.86547 0.0
C1848 C 0.54888 0.58883 0.7076 0.0
C1849 C 0.56242 0.59796 0.72679 0.0
C1850 C 0.54081 0.57345 0.75254 0.0
C1851 C 0.52644 0.57967 0.75401 0.0
C1852 C 0.50884 0.56872 0.7656 0.0
C1853 C 0.50558 0.55128 0.77589 0.0
C1854 C 0.52016 0.54518 0.77469 0.0
C1855 C 0.53767 0.55648 0.76314 0.0
C1856 C 0.49364 0.57568 0.76674 0.0
C1857 C 0.51713 0.52657 0.78539 0.0
C1858 C 0.38615 0.45108 0.69516 0.0
C1859 C 0.39567 0.44769 0.71411 0.0
C1860 C 0.40491 0.46781 0.74581 0.0
C1861 C 0.42056 0.4647 0.75224 0.0
C1862 C 0.43539 0.4782 0.76632 0.0
C1863 C 0.43465 0.49528 0.7739 0.0
C1864 C 0.41844 0.49802 0.76799 0.0
C1865 C 0.40352 0.48396 0.75427 0.0
C1866 C 0.45218 0.47452 0.7726 0.0
C1867 C 0.41728 0.51618 0.77553 0.0
C1868 C 0.39484 0.47128 0.90218 0.0
C1869 C 0.4099 0.46669 0.89708 0.0
C1870 C 0.4282 0.48134 0.88846 0.0
C1871 C 0.43144 0.50092 0.88484 0.0
C1872 C 0.41683 0.50594 0.89111 0.0
C1873 C 0.39874 0.49104 0.8999 0.0
C1874 C 0.44379 0.4757 0.8826 0.0
C1875 C 0.42001 0.5268 0.8878 0.0
C1876 C 0.57497 0.63118 0.89874 0.0
C1877 C 0.56639 0.6199 0.9187 0.0
C1878 C 0.53909 0.58617 0.9063 0.0
C1879 C 0.53419 0.56612 0.90273 0.0
C1880 C 0.51608 0.552 0.8927 0.0
C1881 C 0.50243 0.55812 0.88624 0.0
C1882 C 0.50692 0.57821 0.89039 0.0
C1883 C 0.52527 0.5921 0.90032 0.0
C1884 C 0.51177 0.53068 0.88851 0.0
C1885 C 0.49257 0.58512 0.88381 0.0
C1886 C 0.48668 0.53901 0.78747 0.0
C1887 C 0.46955 0.52441 0.77658 0.0
C1888 C 0.4517 0.51104 0.78662 0.0
C1889 C 0.45078 0.51228 0.80818 0.0
C1890 C 0.43325 0.49878 0.81885 0.0
C1891 C 0.43263 0.50003 0.84009 0.0
C1892 C 0.44964 0.51464 0.85152 0.0
C1893 C 0.4494 0.5156 0.87317 0.0
C1894 C 0.46661 0.53018 0.88406 0.0
C1895 C 0.48423 0.54387 0.87386 0.0
C1896 C 0.48477 0.54318 0.85224 0.0
C1897 C 0.50233 0.55668 0.84155 0.0
C1898 C 0.50291 0.55554 0.82032 0.0
C1899 C 0.48599 0.54079 0.80897 0.0
C1900 C 0.46801 0.52728 0.81938 0.0
C1901 C 0.46742 0.52845 0.84105 0.0
C1902 C 0.3444 0.42936 0.89772 0.0
C1903 C 0.36639 0.43649 0.90372 0.0
O1904 O 0.55774 0.58308 0.74099 0.0
O1905 O 0.55737 0.59913 0.91526 0.0
O1906 O 0.37633 0.457 0.90896 0.0
O1907 O 0.39125 0.4558 0.73115 0.0
H1908 H 0.56026 0.61013 0.73368 0.0
H1909 H 0.55299 0.60071 0.69604 0.0
H1910 H 0.55063 0.5764 0.70074 0.0
H1911 H 0.53268 0.58254 0.71142 0.0
H1912 H 0.52874 0.59292 0.74611 0.0
H1913 H 0.54888 0.55188 0.762 0.0
H1914 H 0.47918 0.56404 0.75928 0.0
H1915 H 0.49907 0.59037 0.75911 0.0
H1916 H 0.49034 0.57733 0.78299 0.0
H1917 H 0.52923 0.5231 0.78177 0.0
H1918 H 0.50221 0.5132 0.78091 0.0
H1919 H 0.51705 0.52894 0.8022 0.0
H1920 H 0.41237 0.45589 0.71157 0.0
H1921 H 0.38959 0.44485 0.68121 0.0
H1922 H 0.39248 0.46761 0.69323 0.0
H1923 H 0.36942 0.44364 0.69669 0.0
H1924 H 0.42129 0.45181 0.74613 0.0
H1925 H 0.39121 0.48605 0.74934 0.0
H1926 H 0.45497 0.47692 0.78939 0.0
H1927 H 0.4664 0.48552 0.7649 0.0
H1928 H 0.44867 0.45892 0.76829 0.0
H1929 H 0.40443 0.51677 0.76841 0.0
H1930 H 0.43163 0.5304 0.77215 0.0
H1931 H 0.41539 0.51563 0.79239 0.0
H1932 H 0.37321 0.43376 0.88983 0.0
H1933 H 0.40732 0.45163 0.89963 0.0
H1934 H 0.38718 0.49453 0.90427 0.0
H1935 H 0.4446 0.47499 0.86566 0.0
H1936 H 0.44009 0.46076 0.88863 0.0
H1937 H 0.45904 0.48748 0.88844 0.0
H1938 H 0.40724 0.52835 0.89368 0.0
H1939 H 0.42167 0.53 0.87119 0.0
H1940 H 0.43426 0.53844 0.89559 0.0
H1941 H 0.55506 0.62352 0.92494 0.0
H1942 H 0.58255 0.64785 0.90163 0.0
H1943 H 0.56261 0.62679 0.88731 0.0
H1944 H 0.58613 0.62752 0.89213 0.0
H1945 H 0.5449 0.56167 0.9075 0.0
H1946 H 0.52871 0.60752 0.90308 0.0
H1947 H 0.51018 0.52739 0.87175 0.0
H1948 H 0.49718 0.51961 0.89558 0.0
H1949 H 0.52393 0.52831 0.89457 0.0
H1950 H 0.49739 0.60069 0.88966 0.0
H1951 H 0.47704 0.57447 0.88932 0.0
H1952 H 0.49179 0.58494 0.86683 0.0
H1953 H 0.47028 0.52311 0.76006 0.0
H1954 H 0.41981 0.48707 0.81088 0.0
H1955 H 0.41867 0.48926 0.84744 0.0
H1956 H 0.4664 0.53064 0.90067 0.0
H1957 H 0.5159 0.56824 0.84946 0.0
H1958 H 0.51684 0.56629 0.81292 0.0
H1959 H 0.3365 0.43243 0.91031 0.0
H1960 H 0.33602 0.41282 0.89388 0.0
H1961 H 0.34414 0.43758 0.88403 0.0
C1962 C 0.6202 0.74816 0.64792 0.0
C1963 C 0.62404 0.73989 0.6279 0.0
C1964 C 0.62945 0.7658 0.60298 0.0
C1965 C 0.60902 0.76062 0.60132 0.0
C1966 C 0.60339 0.77178 0.58902 0.0
C1967 C 0.61846 0.78857 0.57835 0.0
C1968 C 0.639 0.79381 0.57994 0.0
C1969 C 0.64417 0.78221 0.59211 0.0
C1970 C 0.58133 0.76573 0.58754 0.0
C1971 C 0.65553 0.8118 0.56898 0.0
C1972 C 0.59785 0.88807 0.65549 0.0
C1973 C 0.61192 0.89218 0.63731 0.0
C1974 C 0.60219 0.87252 0.60538 0.0
C1975 C 0.62127 0.87583 0.59964 0.0
C1976 C 0.62288 0.86227 0.58609 0.0
C1977 C 0.60503 0.84492 0.5784 0.0
C1978 C 0.58577 0.84193 0.58367 0.0
C1979 C 0.58465 0.85607 0.59682 0.0
C1980 C 0.64367 0.86622 0.58042 0.0
C1981 C 0.56641 0.82347 0.57601 0.0
C1982 C 0.59377 0.86912 0.44968 0.0
C1983 C 0.61316 0.87274 0.45479 0.0
C1984 C 0.61558 0.85758 0.46366 0.0
C1985 C 0.59824 0.83844 0.46744 0.0
C1986 C 0.57883 0.83434 0.46108 0.0
C1987 C 0.57689 0.84976 0.45209 0.0
C1988 C 0.63658 0.86221 0.46961 0.0
C1989 C 0.56011 0.81397 0.46453 0.0
C1990 C 0.60905 0.70728 0.45632 0.0
C1991 C 0.61182 0.71881 0.43657 0.0
C1992 C 0.61838 0.7524 0.4488 0.0
C1993 C 0.63364 0.77264 0.45184 0.0
C1994 C 0.62961 0.78677 0.46133 0.0
C1995 C 0.60968 0.78045 0.4678 0.0
C1996 C 0.59395 0.76012 0.46419 0.0
C1997 C 0.59846 0.74622 0.45482 0.0
C1998 C 0.64677 0.80834 0.46489 0.0
C1999 C 0.5725 0.75298 0.47077 0.0
C2000 C 0.61288 0.80116 0.56617 0.0
C2001 C 0.61068 0.81602 0.5766 0.0
C2002 C 0.60655 0.82923 0.56611 0.0
C2003 C 0.60457 0.82767 0.54453 0.0
C2004 C 0.601 0.84108 0.53343 0.0
C2005 C 0.5993 0.83954 0.51218 0.0
C2006 C 0.6013 0.82464 0.50119 0.0
C2007 C 0.60031 0.8234 0.47953 0.0
C2008 C 0.60241 0.80846 0.46908 0.0
C2009 C 0.60577 0.79478 0.47972 0.0
C2010 C 0.60691 0.79583 0.50136 0.0
C2011 C 0.61055 0.78245 0.51249 0.0
C2012 C 0.61223 0.78397 0.53373 0.0
C2013 C 0.6105 0.79903 0.54465 0.0
C2014 C 0.60646 0.81244 0.53378 0.0
C2015 C 0.60473 0.81086 0.5121 0.0
C2016 C 0.58854 0.91238 0.45424 0.0
C2017 C 0.60251 0.9045 0.44768 0.0
O2018 O 0.63572 0.75566 0.61493 0.0
O2019 O 0.6238 0.73953 0.44031 0.0
O2020 O 0.59077 0.88396 0.44266 0.0
O2021 O 0.60028 0.88464 0.61954 0.0
H2022 H 0.60924 0.7291 0.62036 0.0
H2023 H 0.61154 0.75585 0.64486 0.0
H2024 H 0.63478 0.75932 0.65558 0.0
H2025 H 0.6112 0.73554 0.65847 0.0
H2026 H 0.59733 0.74803 0.6096 0.0
H2027 H 0.65986 0.7861 0.59345 0.0
H2028 H 0.57928 0.7778 0.59481 0.0
H2029 H 0.57122 0.75119 0.59518 0.0
H2030 H 0.57658 0.76419 0.57122 0.0
H2031 H 0.67091 0.81475 0.57302 0.0
H2032 H 0.65481 0.82562 0.57279 0.0
H2033 H 0.65322 0.80902 0.55218 0.0
H2034 H 0.62011 0.88391 0.6403 0.0
H2035 H 0.60685 0.89402 0.66995 0.0
H2036 H 0.58742 0.87145 0.65682 0.0
H2037 H 0.58858 0.89531 0.65344 0.0
H2038 H 0.63487 0.88892 0.60587 0.0
H2039 H 0.57002 0.85381 0.60124 0.0
H2040 H 0.64445 0.86403 0.56365 0.0
H2041 H 0.64659 0.8552 0.58818 0.0
H2042 H 0.65585 0.88182 0.58501 0.0
H2043 H 0.5527 0.82265 0.58274 0.0
H2044 H 0.56651 0.80944 0.57975 0.0
H2045 H 0.56534 0.82382 0.5591 0.0
H2046 H 0.61248 0.90704 0.46119 0.0
H2047 H 0.62641 0.88745 0.45207 0.0
H2048 H 0.56203 0.847 0.44768 0.0
H2049 H 0.63798 0.86268 0.48655 0.0
H2050 H 0.64862 0.87699 0.46373 0.0
H2051 H 0.63914 0.85001 0.46366 0.0
H2052 H 0.54618 0.813 0.4582 0.0
H2053 H 0.55814 0.81113 0.4812 0.0
H2054 H 0.56195 0.80175 0.45727 0.0
H2055 H 0.59673 0.71511 0.43045 0.0
H2056 H 0.59966 0.69065 0.45323 0.0
H2057 H 0.60121 0.71152 0.46796 0.0
H2058 H 0.62399 0.71091 0.46275 0.0
H2059 H 0.64891 0.77726 0.44704 0.0
H2060 H 0.58641 0.73061 0.45255 0.0
H2061 H 0.64822 0.81244 0.48147 0.0
H2062 H 0.64337 0.81886 0.45675 0.0
H2063 H 0.66153 0.81067 0.45945 0.0
H2064 H 0.56161 0.73731 0.46504 0.0
H2065 H 0.56759 0.76341 0.46513 0.0
H2066 H 0.57193 0.75328 0.48774 0.0
H2067 H 0.6125 0.81752 0.59314 0.0
H2068 H 0.59955 0.85298 0.54105 0.0
H2069 H 0.59653 0.85028 0.50448 0.0
H2070 H 0.60196 0.80781 0.45247 0.0
H2071 H 0.61224 0.77068 0.50493 0.0
H2072 H 0.61506 0.77328 0.54148 0.0
H2073 H 0.59759 0.92888 0.4582 0.0
H2074 H 0.57992 0.90425 0.46797 0.0
H2075 H 0.5775 0.90986 0.44184 0.0
C2076 C 0.10826 0.71169 0.66018 0.0
C2077 C 0.10421 0.72333 0.64391 0.0
C2078 C 0.12204 0.73436 0.61198 0.0
C2079 C 0.11866 0.75023 0.60755 0.0
C2080 C 0.13232 0.7664 0.59556 0.0
C2081 C 0.14989 0.76682 0.58815 0.0
C2082 C 0.15297 0.75045 0.59204 0.0
C2083 C 0.13872 0.73418 0.60362 0.0
C2084 C 0.12823 0.78329 0.5913 0.0
C2085 C 0.17161 0.75045 0.58456 0.0
C2086 C 0.27455 0.92224 0.63658 0.0
C2087 C 0.26422 0.90031 0.63167 0.0
C2088 C 0.23182 0.87417 0.61645 0.0
C2089 C 0.23768 0.8597 0.6129 0.0
C2090 C 0.22497 0.84161 0.60179 0.0
C2091 C 0.20616 0.83802 0.59398 0.0
C2092 C 0.20006 0.85236 0.59794 0.0
C2093 C 0.21296 0.87021 0.60924 0.0
C2094 C 0.23179 0.82651 0.59796 0.0
C2095 C 0.18016 0.84909 0.58975 0.0
C2096 C 0.24392 0.87954 0.4678 0.0
C2097 C 0.24888 0.86449 0.47101 0.0
C2098 C 0.23461 0.84577 0.47915 0.0
C2099 C 0.21507 0.84211 0.4841 0.0
C2100 C 0.21004 0.85723 0.48079 0.0
C2101 C 0.22466 0.87586 0.47286 0.0
C2102 C 0.24048 0.83005 0.48283 0.0
C2103 C 0.18932 0.85379 0.48589 0.0
C2104 C 0.09251 0.68524 0.44592 0.0
C2105 C 0.0988 0.70761 0.44426 0.0
C2106 C 0.13237 0.73643 0.45286 0.0
C2107 C 0.15203 0.74066 0.45715 0.0
C2108 C 0.16539 0.75757 0.46945 0.0
C2109 C 0.15899 0.77078 0.47722 0.0
C2110 C 0.13948 0.76718 0.472 0.0
C2111 C 0.12632 0.74998 0.45994 0.0
C2112 C 0.18621 0.76114 0.47444 0.0
C2113 C 0.13245 0.78139 0.47934 0.0
C2114 C 0.16557 0.78494 0.57746 0.0
C2115 C 0.17865 0.80213 0.58946 0.0
C2116 C 0.19345 0.81997 0.58052 0.0
C2117 C 0.19554 0.82072 0.55902 0.0
C2118 C 0.21041 0.8384 0.54958 0.0
C2119 C 0.21214 0.83917 0.52842 0.0
C2120 C 0.19903 0.82231 0.51585 0.0
C2121 C 0.2004 0.82317 0.49431 0.0
C2122 C 0.1873 0.80617 0.48217 0.0
C2123 C 0.17258 0.78818 0.49103 0.0
C2124 C 0.1708 0.78709 0.51261 0.0
C2125 C 0.156 0.76936 0.52209 0.0
C2126 C 0.15415 0.76863 0.5433 0.0
C2127 C 0.16725 0.78548 0.55589 0.0
C2128 C 0.18235 0.80345 0.54666 0.0
C2129 C 0.1841 0.80425 0.52503 0.0
C2130 C 0.27858 0.91746 0.43236 0.0
C2131 C 0.27391 0.90179 0.44787 0.0
O2132 O 0.10987 0.71955 0.62494 0.0
O2133 O 0.11965 0.71917 0.44197 0.0
O2134 O 0.25708 0.89761 0.45942 0.0
O2135 O 0.24393 0.89217 0.62648 0.0
H2136 H 0.11398 0.73971 0.64843 0.0
H2137 H 0.1248 0.71746 0.66123 0.0
H2138 H 0.1004 0.6952 0.65624 0.0
H2139 H 0.1031 0.71391 0.6754 0.0
H2140 H 0.10543 0.75005 0.61362 0.0
H2141 H 0.14105 0.72173 0.60705 0.0
H2142 H 0.13887 0.79699 0.60057 0.0
H2143 H 0.11247 0.77912 0.59519 0.0
H2144 H 0.13084 0.78733 0.57491 0.0
H2145 H 0.17254 0.7374 0.59029 0.0
H2146 H 0.1855 0.76477 0.58954 0.0
H2147 H 0.17143 0.74973 0.56757 0.0
H2148 H 0.26704 0.89135 0.64299 0.0
H2149 H 0.29577 0.93658 0.61343 0.0
H2150 H 0.26448 0.9269 0.64443 0.0
H2151 H 0.26448 0.9269 0.64443 0.0
H2152 H 0.25217 0.86251 0.61863 0.0
H2153 H 0.20858 0.88144 0.61211 0.0
H2154 H 0.2201 0.81136 0.60339 0.0
H2155 H 0.24646 0.83111 0.60575 0.0
H2156 H 0.23349 0.82494 0.58125 0.0
H2157 H 0.17719 0.86123 0.595 0.0
H2158 H 0.1675 0.83421 0.59469 0.0
H2159 H 0.18027 0.8487 0.57275 0.0
H2160 H 0.28699 0.90392 0.45734 0.0
H2161 H 0.2639 0.86738 0.46738 0.0
H2162 H 0.22103 0.8876 0.47027 0.0
H2163 H 0.2393 0.8267 0.4994 0.0
H2164 H 0.25619 0.83509 0.47785 0.0
H2165 H 0.22981 0.81569 0.47446 0.0
H2166 H 0.1873 0.86643 0.48088 0.0
H2167 H 0.18707 0.85228 0.50269 0.0
H2168 H 0.17737 0.83941 0.47847 0.0
H2169 H 0.09425 0.71165 0.45902 0.0
H2170 H 0.07575 0.67561 0.44707 0.0
H2171 H 0.09948 0.68323 0.4599 0.0
H2172 H 0.09767 0.67999 0.43249 0.0
H2173 H 0.15666 0.73029 0.45134 0.0
H2174 H 0.11138 0.74721 0.45603 0.0
H2175 H 0.18848 0.76203 0.49131 0.0
H2176 H 0.19795 0.7759 0.46826 0.0
H2177 H 0.18856 0.74896 0.46796 0.0
H2178 H 0.11763 0.77753 0.47238 0.0
H2179 H 0.14391 0.79728 0.47564 0.0
H2180 H 0.13087 0.78066 0.49623 0.0
H2181 H 0.17712 0.80169 0.60599 0.0
H2182 H 0.22088 0.85188 0.55841 0.0
H2183 H 0.22388 0.85322 0.52207 0.0
H2184 H 0.18843 0.80702 0.46562 0.0
H2185 H 0.14558 0.75589 0.5132 0.0
H2186 H 0.14233 0.75467 0.54973 0.0
H2187 H 0.27345 0.90158 0.40421 0.0
H2188 H 0.2939 0.93061 0.43711 0.0
H2189 H 0.27015 0.92543 0.43693 0.0
C2190 C 0.12981 0.38156 0.65366 0.0
C2191 C 0.11667 0.37727 0.63438 0.0
C2192 C 0.13662 0.37171 0.60812 0.0
C2193 C 0.15216 0.39216 0.60667 0.0
C2194 C 0.16913 0.39761 0.59435 0.0
C2195 C 0.17068 0.38237 0.58332 0.0
C2196 C 0.15499 0.36183 0.58455 0.0
C2197 C 0.13811 0.35682 0.59683 0.0
C2198 C 0.18555 0.41967 0.59327 0.0
C2199 C 0.15621 0.34512 0.57316 0.0
C2200 C 0.31907 0.41131 0.62213 0.0
C2201 C 0.29726 0.3934 0.62288 0.0
C2202 C 0.27243 0.38991 0.59762 0.0
C2203 C 0.25655 0.37296 0.58767 0.0
C2204 C 0.23972 0.37346 0.58014 0.0
C2205 C 0.23932 0.39172 0.58193 0.0
C2206 C 0.25527 0.40886 0.59233 0.0
C2207 C 0.27168 0.40771 0.60028 0.0
C2208 C 0.22272 0.35469 0.56964 0.0
C2209 C 0.25539 0.4286 0.59415 0.0
C2210 C 0.27777 0.40707 0.45303 0.0
C2211 C 0.26214 0.38777 0.45867 0.0
C2212 C 0.24484 0.38539 0.46859 0.0
C2213 C 0.24306 0.40264 0.47278 0.0
C2214 C 0.2583 0.42193 0.46617 0.0
C2215 C 0.27542 0.42385 0.45623 0.0
C2216 C 0.22865 0.3645 0.47498 0.0
C2217 C 0.25674 0.44057 0.47016 0.0
C2218 C 0.09883 0.38507 0.45885 0.0
C2219 C 0.10802 0.38168 0.4394 0.0
C2220 C 0.13568 0.37733 0.45275 0.0
C2221 C 0.14097 0.36279 0.45675 0.0
C2222 C 0.15921 0.36809 0.4668 0.0
C2223 C 0.1726 0.38859 0.47281 0.0
C2224 C 0.16769 0.40356 0.46827 0.0
C2225 C 0.14919 0.39778 0.45835 0.0
C2226 C 0.16402 0.35173 0.47129 0.0
C2227 C 0.18181 0.42557 0.47432 0.0
C2228 C 0.18911 0.38779 0.57119 0.0
C2229 C 0.20582 0.38922 0.58147 0.0
C2230 C 0.22331 0.39329 0.57092 0.0
C2231 C 0.22451 0.39653 0.54963 0.0
C2232 C 0.2421 0.40106 0.5387 0.0
C2233 C 0.2427 0.40284 0.51756 0.0
C2234 C 0.2257 0.40008 0.50651 0.0
C2235 C 0.2257 0.40056 0.48487 0.0
C2236 C 0.20848 0.39761 0.47435 0.0
C2237 C 0.1911 0.39398 0.48489 0.0
C2238 C 0.19083 0.39354 0.50652 0.0
C2239 C 0.17354 0.38986 0.51757 0.0
C2240 C 0.17309 0.38846 0.5388 0.0
C2241 C 0.1898 0.3904 0.54976 0.0
C2242 C 0.20756 0.39467 0.53896 0.0
C2243 C 0.20812 0.39636 0.51734 0.0
C2244 C 0.32646 0.41303 0.45488 0.0
C2245 C 0.30439 0.39872 0.44811 0.0
O2246 O 0.12013 0.36558 0.62027 0.0
O2247 O 0.11733 0.37071 0.44372 0.0
O2248 O 0.29527 0.41007 0.44458 0.0
O2249 O 0.28892 0.38908 0.60337 0.0
H2250 H 0.12041 0.39191 0.62747 0.0
H2251 H 0.14616 0.39039 0.6499 0.0
H2252 H 0.12662 0.36713 0.66062 0.0
H2253 H 0.12672 0.39059 0.6651 0.0
H2254 H 0.15132 0.40399 0.61515 0.0
H2255 H 0.12607 0.34112 0.59796 0.0
H2256 H 0.19982 0.42181 0.60008 0.0
H2257 H 0.18146 0.42989 0.60154 0.0
H2258 H 0.18861 0.4242 0.57704 0.0
H2259 H 0.14309 0.32983 0.57632 0.0
H2260 H 0.17041 0.3455 0.57753 0.0
H2261 H 0.1567 0.34756 0.55644 0.0
H2262 H 0.28849 0.39772 0.63336 0.0
H2263 H 0.32595 0.4155 0.63774 0.0
H2264 H 0.31919 0.42473 0.61584 0.0
H2265 H 0.32846 0.40743 0.61221 0.0
H2266 H 0.25743 0.35933 0.58576 0.0
H2267 H 0.28426 0.42088 0.60779 0.0
H2268 H 0.22284 0.35724 0.55297 0.0
H2269 H 0.20784 0.35154 0.5756 0.0
H2270 H 0.22412 0.34111 0.57185 0.0
H2271 H 0.26854 0.44033 0.60334 0.0
H2272 H 0.24115 0.42598 0.60134 0.0
H2273 H 0.25598 0.43449 0.57863 0.0
H2274 H 0.29713 0.38837 0.46112 0.0
H2275 H 0.2634 0.37454 0.45539 0.0
H2276 H 0.2874 0.43862 0.45148 0.0
H2277 H 0.22807 0.364 0.49195 0.0
H2278 H 0.23149 0.35244 0.46913 0.0
H2279 H 0.21357 0.36114 0.46932 0.0
H2280 H 0.26987 0.45449 0.46402 0.0
H2281 H 0.25588 0.44283 0.4869 0.0
H2282 H 0.24258 0.43838 0.46304 0.0
H2283 H 0.11926 0.3966 0.43302 0.0
H2284 H 0.11088 0.39399 0.47049 0.0
H2285 H 0.09114 0.39366 0.45531 0.0
H2286 H 0.08763 0.3703 0.46548 0.0
H2287 H 0.1305 0.34709 0.45225 0.0
H2288 H 0.14538 0.40928 0.45528 0.0
H2289 H 0.16655 0.35149 0.48799 0.0
H2290 H 0.17824 0.3551 0.46348 0.0
H2291 H 0.15171 0.33641 0.4661 0.0
H2292 H 0.17653 0.43561 0.46842 0.0
H2293 H 0.19726 0.43073 0.46843 0.0
H2294 H 0.18302 0.42722 0.49127 0.0
H2295 H 0.20496 0.38648 0.59777 0.0
H2296 H 0.25558 0.40308 0.54633 0.0
H2297 H 0.25657 0.40612 0.50997 0.0
H2298 H 0.20837 0.39746 0.45774 0.0
H2299 H 0.16008 0.38785 0.50993 0.0
H2300 H 0.15935 0.38548 0.54648 0.0
H2301 H 0.33488 0.42474 0.44328 0.0
H2302 H 0.33422 0.40431 0.45733 0.0
H2303 H 0.3269 0.42091 0.46953 0.0
C2304 C 0.99281 0.36702 0.07218 0.0
C2305 C 0.01037 0.37579 0.06021 0.0
H2306 H 0.97768 0.37064 0.09814 0.0
C2307 C 0.02665 0.39512 0.06584 0.0
H2308 H 0.98006 0.35211 0.06824 0.0
C2309 C 0.02529 0.40564 0.08287 0.0
C2310 C 0.00752 0.39717 0.0945 0.0
H2311 H 0.04046 0.40222 0.05702 0.0
H2312 H 0.03808 0.42052 0.08685 0.0
C2313 C 0.99141 0.37763 0.08921 0.0
C2314 C 0.59648 0.58174 0.0576 0.0
C2315 C 0.6232 0.59802 0.05275 0.0
H2316 H 0.57171 0.54983 0.07585 0.0
C2317 C 0.64178 0.59143 0.06026 0.0
H2318 H 0.58573 0.5858 0.05213 0.0
C2319 C 0.63431 0.5688 0.07444 0.0
C2320 C 0.60775 0.55605 0.0839 0.0
H2321 H 0.65755 0.60122 0.05642 0.0
H2322 H 0.64552 0.56571 0.08068 0.0
C2323 C 0.58746 0.55884 0.07155 0.0
C2324 C 0.38461 0.99082 0.0615 0.0
C2325 C 0.38063 0.00581 0.05484 0.0
H2326 H 0.3977 0.98145 0.08436 0.0
C2327 C 0.38773 0.02371 0.06679 0.0
H2328 H 0.37928 0.97675 0.05281 0.0
C2329 C 0.39872 0.02655 0.08494 0.0
C2330 C 0.4028 0.01157 0.09142 0.0
H2331 H 0.38477 0.03547 0.06217 0.0
H2332 H 0.40398 0.04041 0.09398 0.0
C2333 C 0.3953 0.99354 0.07963 0.0
C2334 C 0.37084 0.98825 0.93358 0.0
C2335 C 0.3784 0.00519 0.94704 0.0
H2336 H 0.37527 0.9759 0.90557 0.0
C2337 C 0.39659 0.02298 0.94235 0.0
H2338 H 0.35678 0.97439 0.93677 0.0
C2339 C 0.40697 0.02389 0.92455 0.0
C2340 C 0.39965 0.00687 0.91122 0.0
H2341 H 0.40269 0.03638 0.95229 0.0
H2342 H 0.42073 0.03796 0.92117 0.0
C2343 C 0.38139 0.98909 0.9158 0.0
C2344 C 0.98593 0.38583 0.9506 0.0
C2345 C 0.00117 0.38109 0.9539 0.0
H2346 H 0.97124 0.39517 0.92959 0.0
C2347 C 0.01514 0.38469 0.93827 0.0
H2348 H 0.97493 0.38336 0.96229 0.0
C2349 C 0.01322 0.39191 0.91939 0.0
C2350 C 0.99725 0.39555 0.91577 0.0
H2351 H 0.02704 0.38117 0.9403 0.0
H2352 H 0.02367 0.39383 0.90728 0.0
C2353 C 0.98384 0.39273 0.93175 0.0
C2354 C 0.61141 0.62429 0.94852 0.0
C2355 C 0.61487 0.63915 0.96356 0.0
H2356 H 0.59367 0.6068 0.92247 0.0
C2357 C 0.60274 0.64806 0.96354 0.0
H2358 H 0.62064 0.61729 0.94803 0.0
C2359 C 0.58714 0.64188 0.94903 0.0
C2360 C 0.58335 0.62665 0.93432 0.0
H2361 H 0.60512 0.65964 0.97488 0.0
H2362 H 0.57792 0.64889 0.9494 0.0
C2363 C 0.59594 0.61823 0.93394 0.0
C2364 C 0.03011 0.63471 0.9617 0.0
C2365 C 0.00948 0.62844 0.9636 0.0
H2366 H 0.0528 0.63342 0.94365 0.0
C2367 C 0.99582 0.61616 0.94797 0.0
H2368 H 0.04093 0.64396 0.97364 0.0
C2369 C 0.00264 0.61055 0.93063 0.0
C2370 C 0.02327 0.61691 0.92858 0.0
H2371 H 0.97981 0.61107 0.94898 0.0
H2372 H 0.99175 0.60127 0.91876 0.0
C2373 C 0.03689 0.62872 0.94451 0.0
C2374 C 0.37416 0.39911 0.93444 0.0
C2375 C 0.36516 0.3992 0.95314 0.0
H2376 H 0.38136 0.41066 0.90411 0.0
C2377 C 0.35812 0.41277 0.9562 0.0
H2378 H 0.37972 0.3888 0.93167 0.0
C2379 C 0.35933 0.42546 0.94056 0.0
C2380 C 0.36724 0.42453 0.92142 0.0
H2381 H 0.35128 0.41328 0.97055 0.0
H2382 H 0.35349 0.43555 0.94318 0.0
C2383 C 0.37505 0.41156 0.91866 0.0
C2384 C 0.62355 0.00775 0.94012 0.0
C2385 C 0.62215 0.99382 0.95462 0.0
H2386 H 0.61329 0.0121 0.91127 0.0
C2387 C 0.60825 0.97304 0.95116 0.0
H2388 H 0.63412 0.02387 0.94239 0.0
C2389 C 0.59599 0.96634 0.93351 0.0
C2390 C 0.59787 0.98023 0.91868 0.0
H2391 H 0.60666 0.962 0.96222 0.0
H2392 H 0.58513 0.95028 0.93144 0.0
C2393 C 0.61165 0.00101 0.92229 0.0
C2394 C 0.64292 0.0329 0.07139 0.0
C2395 C 0.6346 0.01278 0.0641 0.0
H2396 H 0.64261 0.05277 0.09479 0.0
C2397 C 0.61901 0.99699 0.07514 0.0
H2398 H 0.65481 0.04539 0.06309 0.0
C2399 C 0.6123 0.00119 0.09346 0.0
C2400 C 0.62092 0.02127 0.10099 0.0
H2401 H 0.61229 0.98132 0.06986 0.0
H2402 H 0.60049 0.98871 0.10185 0.0
C2403 C 0.636 0.03712 0.08955 0.0
C2404 C 0.9942 0.61809 0.08362 0.0
C2405 C 0.98203 0.61845 0.06776 0.0
H2406 H 0.99526 0.60386 0.11105 0.0
C2407 C 0.96134 0.60355 0.0668 0.0
H2408 H 0.01022 0.62938 0.08464 0.0
C2409 C 0.95288 0.58871 0.08164 0.0
C2410 C 0.96482 0.58889 0.09808 0.0
H2411 H 0.95171 0.60332 0.05453 0.0
H2412 H 0.93693 0.57727 0.08042 0.0
C2413 C 0.98563 0.60353 0.09873 0.0
C2414 C 0.39616 0.38075 0.07046 0.0
C2415 C 0.39542 0.3726 0.05077 0.0
H2416 H 0.40875 0.3865 0.10078 0.0
C2417 C 0.40822 0.36492 0.04633 0.0
H2418 H 0.38644 0.38675 0.07435 0.0
C2419 C 0.4214 0.36524 0.06138 0.0
C2420 C 0.42151 0.37262 0.08134 0.0
H2421 H 0.40812 0.35875 0.03122 0.0
H2422 H 0.43126 0.35942 0.05749 0.0
C2423 C 0.40891 0.38059 0.08561 0.0
C2424 C 0.65256 0.71562 0.40573 0.0
C2425 C 0.64081 0.70054 0.39092 0.0
H2426 H 0.65264 0.73292 0.43197 0.0
C2427 C 0.61956 0.69122 0.39134 0.0
H2428 H 0.66895 0.72289 0.40593 0.0
C2429 C 0.61024 0.69712 0.40608 0.0
C2430 C 0.62199 0.71247 0.42066 0.0
H2431 H 0.6101 0.67945 0.38017 0.0
H2432 H 0.59384 0.68976 0.40603 0.0
C2433 C 0.64323 0.72138 0.42059 0.0
C2434 C 0.25624 0.91353 0.404 0.0
C2435 C 0.28257 0.92962 0.39757 0.0
H2436 H 0.23273 0.88234 0.424 0.0
C2437 C 0.30167 0.92351 0.40435 0.0
H2438 H 0.2451 0.91716 0.39877 0.0
C2439 C 0.29524 0.90164 0.41931 0.0
C2440 C 0.26933 0.88922 0.43027 0.0
H2441 H 0.31714 0.93307 0.39942 0.0
H2442 H 0.30686 0.89889 0.42504 0.0
C2443 C 0.24821 0.89131 0.41886 0.0
C2444 C 0.06543 0.33791 0.40806 0.0
C2445 C 0.06127 0.34833 0.39323 0.0
H2446 H 0.08302 0.34017 0.43448 0.0
C2447 C 0.07196 0.3697 0.39405 0.0
H2448 H 0.05729 0.32146 0.40798 0.0
C2449 C 0.08694 0.38041 0.40903 0.0
C2450 C 0.09151 0.36999 0.42348 0.0
H2451 H 0.06907 0.37819 0.38287 0.0
H2452 H 0.09514 0.39686 0.40918 0.0
C2453 C 0.08021 0.34862 0.42318 0.0
C2454 C 0.07405 0.323 0.2935 0.0
C2455 C 0.04705 0.30916 0.29781 0.0
H2456 H 0.10198 0.31942 0.27683 0.0
C2457 C 0.0313 0.28249 0.29112 0.0
H2458 H 0.08311 0.3387 0.29862 0.0
C2459 C 0.04187 0.26899 0.27836 0.0
C2460 C 0.06823 0.2854 0.26922 0.0
H2461 H 0.01535 0.27451 0.2948 0.0
H2462 H 0.03226 0.25355 0.27268 0.0
C2463 C 0.08612 0.3109 0.28086 0.0
C2464 C 0.70695 0.73666 0.2898 0.0
C2465 C 0.68561 0.72574 0.28936 0.0
H2466 H 0.73422 0.75833 0.27487 0.0
C2467 C 0.67535 0.72798 0.27276 0.0
H2468 H 0.71526 0.73514 0.30238 0.0
C2469 C 0.68615 0.74084 0.25692 0.0
C2470 C 0.70751 0.75228 0.25757 0.0
H2471 H 0.65893 0.71953 0.27183 0.0
H2472 H 0.67763 0.74187 0.24424 0.0
C2473 C 0.71779 0.7499 0.27411 0.0
C2474 C 0.26402 0.97693 0.29901 0.0
C2475 C 0.27457 0.96642 0.30029 0.0
H2476 H 0.24215 0.98081 0.28237 0.0
C2477 C 0.27154 0.95197 0.28497 0.0
H2478 H 0.26618 0.98826 0.31056 0.0
C2479 C 0.25802 0.94791 0.26878 0.0
C2480 C 0.24685 0.95784 0.26789 0.0
H2481 H 0.27969 0.94385 0.28542 0.0
H2482 H 0.25613 0.9368 0.25709 0.0
C2483 C 0.25026 0.97266 0.28295 0.0
C2484 C 0.70418 0.94283 0.29934 0.0
C2485 C 0.7047 0.96074 0.3057 0.0
H2486 H 0.71607 0.92904 0.27942 0.0
C2487 C 0.71908 0.97916 0.29708 0.0
H2488 H 0.69317 0.92835 0.30559 0.0
C2489 C 0.73204 0.97956 0.28182 0.0
C2490 C 0.73147 0.96162 0.27516 0.0
H2491 H 0.71967 0.9932 0.30137 0.0
H2492 H 0.74208 0.99398 0.27497 0.0
C2493 C 0.71737 0.94326 0.28429 0.0
C2494 C 0.04624 0.74073 0.27396 0.0
C2495 C 0.03675 0.741 0.29227 0.0
H2496 H 0.05245 0.75028 0.2429 0.0
C2497 C 0.02787 0.75311 0.29382 0.0
H2498 H 0.05321 0.73153 0.27232 0.0
C2499 C 0.02775 0.76411 0.27709 0.0
C2500 C 0.03604 0.76277 0.25832 0.0
H2501 H 0.02063 0.75375 0.30783 0.0
H2502 H 0.02057 0.77312 0.27861 0.0
C2503 C 0.04574 0.75139 0.25709 0.0
C2504 C 0.2744 0.32087 0.27255 0.0
C2505 C 0.27461 0.31208 0.29113 0.0
H2506 H 0.26313 0.31591 0.24171 0.0
C2507 C 0.26197 0.29101 0.29314 0.0
H2508 H 0.284 0.33707 0.27051 0.0
C2509 C 0.24965 0.27893 0.27674 0.0
C2510 C 0.25023 0.28761 0.2578 0.0
H2511 H 0.26166 0.28385 0.30736 0.0
H2512 H 0.24001 0.26275 0.27873 0.0
C2513 C 0.26248 0.30875 0.25603 0.0
C2514 C 0.29538 0.35456 0.41245 0.0
C2515 C 0.30496 0.36468 0.39451 0.0
H2516 H 0.28789 0.35745 0.44349 0.0
C2517 C 0.31283 0.38571 0.39363 0.0
H2518 H 0.2892 0.33836 0.41356 0.0
C2519 C 0.31182 0.39656 0.41062 0.0
C2520 C 0.30327 0.38665 0.42897 0.0
H2521 H 0.32014 0.39386 0.37992 0.0
H2522 H 0.3183 0.41281 0.40963 0.0
C2523 C 0.29468 0.36549 0.42958 0.0
C2524 C 0.64719 0.94233 0.41582 0.0
C2525 C 0.63779 0.94042 0.39677 0.0
H2526 H 0.64335 0.9325 0.44683 0.0
C2527 C 0.61712 0.92579 0.39411 0.0
H2528 H 0.6631 0.95348 0.41832 0.0
C2529 C 0.60591 0.91371 0.41032 0.0
C2530 C 0.61511 0.91608 0.42959 0.0
H2531 H 0.60947 0.92388 0.37957 0.0
H2532 H 0.58991 0.90283 0.40797 0.0
C2533 C 0.63591 0.93034 0.43212 0.0
C2534 C 0.07823 0.70614 0.39043 0.0
C2535 C 0.06543 0.71398 0.39417 0.0
H2536 H 0.09938 0.69871 0.40309 0.0
C2537 C 0.06462 0.72089 0.41405 0.0
H2538 H 0.07929 0.70088 0.37521 0.0
C2539 C 0.07564 0.71911 0.43008 0.0
C2540 C 0.08801 0.71073 0.42651 0.0
H2541 H 0.05485 0.72695 0.41741 0.0
H2542 H 0.07418 0.72392 0.44538 0.0
C2543 C 0.08965 0.70483 0.40639 0.0
C2544 C 0.28655 0.02443 0.72194 0.0
C2545 C 0.30779 0.0344 0.7206 0.0
H2546 H 0.26107 0.02229 0.73793 0.0
C2547 C 0.31977 0.04984 0.73501 0.0
H2548 H 0.27695 0.01238 0.71108 0.0
C2549 C 0.31074 0.05531 0.75041 0.0
C2550 C 0.28948 0.04582 0.75143 0.0
H2551 H 0.33618 0.05762 0.73452 0.0
H2552 H 0.32044 0.06706 0.76147 0.0
C2553 C 0.27748 0.03012 0.73721 0.0
C2554 C 0.97758 0.25797 0.72793 0.0
C2555 C 0.95714 0.25911 0.71545 0.0
H2556 H 0.9842 0.23845 0.75468 0.0
C2557 C 0.93086 0.23984 0.71874 0.0
H2558 H 0.99315 0.26956 0.72521 0.0
C2559 C 0.9239 0.21943 0.73594 0.0
C2560 C 0.94496 0.22244 0.75264 0.0
H2561 H 0.91908 0.24073 0.71054 0.0
H2562 H 0.90816 0.2088 0.73924 0.0
C2563 C 0.97221 0.23811 0.74559 0.0
C2564 C 0.7372 0.71248 0.72156 0.0
C2565 C 0.73011 0.6917 0.71819 0.0
H2566 H 0.75709 0.73961 0.73899 0.0
C2567 C 0.73794 0.68233 0.73037 0.0
H2568 H 0.73152 0.72018 0.71239 0.0
C2569 C 0.75223 0.69331 0.74577 0.0
C2570 C 0.75935 0.71413 0.74929 0.0
H2571 H 0.73287 0.66637 0.72821 0.0
H2572 H 0.75759 0.6853 0.75485 0.0
C2573 C 0.75179 0.7236 0.73682 0.0
C2574 C 0.69285 0.62621 0.61581 0.0
C2575 C 0.70055 0.64725 0.61719 0.0
H2576 H 0.69333 0.60173 0.59976 0.0
C2577 C 0.71465 0.65987 0.60272 0.0
H2578 H 0.68188 0.6161 0.62671 0.0
C2579 C 0.72105 0.65161 0.58725 0.0
C2580 C 0.71381 0.63063 0.58621 0.0
H2581 H 0.72066 0.67611 0.60327 0.0
H2582 H 0.73178 0.66168 0.57616 0.0
C2583 C 0.69942 0.61798 0.60046 0.0
C2584 C 0.38493 0.07646 0.62193 0.0
C2585 C 0.35956 0.06992 0.62908 0.0
H2586 H 0.41523 0.10222 0.60189 0.0
C2587 C 0.34956 0.08626 0.62396 0.0
H2588 H 0.39067 0.0667 0.62604 0.0
C2589 C 0.36412 0.10919 0.61011 0.0
C2590 C 0.3874 0.11195 0.59812 0.0
H2591 H 0.33466 0.08229 0.62932 0.0
H2592 H 0.35768 0.11828 0.60569 0.0
C2593 C 0.40077 0.09912 0.60787 0.0
C2594 C 0.94578 0.28632 0.6073 0.0
C2595 C 0.94843 0.30065 0.62264 0.0
H2596 H 0.92941 0.26983 0.58015 0.0
C2597 C 0.9363 0.30955 0.62212 0.0
H2598 H 0.95502 0.27933 0.60721 0.0
C2599 C 0.92159 0.30401 0.60679 0.0
C2600 C 0.9186 0.28937 0.59169 0.0
H2601 H 0.93804 0.32073 0.63367 0.0
H2602 H 0.91245 0.3111 0.60679 0.0
C2603 C 0.93109 0.28084 0.59187 0.0
C2604 C 0.37907 0.31551 0.62759 0.0
C2605 C 0.36106 0.29805 0.63328 0.0
H2606 H 0.40478 0.32835 0.60827 0.0
C2607 C 0.35595 0.27929 0.62402 0.0
H2608 H 0.38336 0.33022 0.63439 0.0
C2609 C 0.36837 0.27808 0.60909 0.0
C2610 C 0.38612 0.29557 0.60281 0.0
H2611 H 0.34225 0.26551 0.62819 0.0
H2612 H 0.36383 0.26337 0.60223 0.0
C2613 C 0.39139 0.31436 0.61245 0.0
C2614 C 0.70092 0.07976 0.61376 0.0
C2615 C 0.70608 0.06469 0.61093 0.0
H2616 H 0.69647 0.10226 0.59985 0.0
C2617 C 0.71246 0.06199 0.59157 0.0
H2618 H 0.69603 0.08226 0.62854 0.0
C2619 C 0.7126 0.07343 0.57509 0.0
C2620 C 0.70662 0.08791 0.57778 0.0
H2621 H 0.71644 0.05044 0.58894 0.0
H2622 H 0.71676 0.07053 0.56009 0.0
C2623 C 0.7012 0.09125 0.59738 0.0
C2624 C 0.9214 0.62592 0.62383 0.0
C2625 C 0.93517 0.64659 0.62056 0.0
H2626 H 0.89939 0.59709 0.61048 0.0
C2627 C 0.93682 0.65417 0.60084 0.0
H2628 H 0.91972 0.61971 0.63892 0.0
C2629 C 0.92561 0.64112 0.5845 0.0
C2630 C 0.9122 0.62034 0.58765 0.0
H2631 H 0.94739 0.67001 0.59788 0.0
H2632 H 0.92767 0.64721 0.56931 0.0
C2633 C 0.90983 0.61298 0.60758 0.0
C2634 C 0.9542 0.69062 0.74297 0.0
C2635 C 0.96436 0.70057 0.72517 0.0
H2636 H 0.9473 0.69386 0.77413 0.0
C2637 C 0.97395 0.72183 0.72468 0.0
H2638 H 0.94672 0.67425 0.74379 0.0
C2639 C 0.97403 0.733 0.74191 0.0
C2640 C 0.96488 0.72316 0.76011 0.0
H2641 H 0.98177 0.72987 0.71109 0.0
H2642 H 0.9818 0.7494 0.74122 0.0
C2643 C 0.9546 0.70184 0.76034 0.0
C2644 C 0.28268 0.25894 0.72641 0.0
C2645 C 0.30359 0.27254 0.72922 0.0
H2646 H 0.25518 0.2355 0.73939 0.0
C2647 C 0.31308 0.27207 0.74742 0.0
H2648 H 0.27502 0.25881 0.71242 0.0
C2649 C 0.30165 0.25903 0.763 0.0
C2650 C 0.28058 0.24603 0.76056 0.0
H2651 H 0.32919 0.28233 0.74996 0.0
H2652 H 0.30921 0.25947 0.77717 0.0
C2653 C 0.27132 0.24565 0.74184 0.0
C2654 C 0.75576 0.06044 0.71988 0.0
C2655 C 0.74035 0.04249 0.71044 0.0
H2656 H 0.77925 0.07385 0.74263 0.0
C2657 C 0.7375 0.0238 0.71672 0.0
H2658 H 0.7584 0.07511 0.71536 0.0
C2659 C 0.74928 0.02301 0.7326 0.0
C2660 C 0.7646 0.04099 0.74238 0.0
H2661 H 0.72565 0.00965 0.70986 0.0
H2662 H 0.74593 0.00817 0.73726 0.0
C2663 C 0.76774 0.05969 0.73557 0.0
C2664 C 0.08311 0.34209 0.01899 0.0
C2665 C 0.05646 0.32491 0.01356 0.0
H2666 H 0.11485 0.34251 0.03099 0.0
C2667 C 0.04528 0.29767 0.01324 0.0
H2668 H 0.0893 0.35831 0.01858 0.0
C2669 C 0.06014 0.28649 0.01993 0.0
C2670 C 0.08559 0.30464 0.03103 0.0
H2671 H 0.02937 0.28791 0.00944 0.0
H2672 H 0.05309 0.27026 0.02166 0.0
C2673 C 0.09933 0.33241 0.02595 0.0
C2674 C 0.69709 0.71844 0.06094 0.0
C2675 C 0.66976 0.70647 0.06111 0.0
H2676 H 0.72914 0.75063 0.07238 0.0
C2677 C 0.65705 0.71698 0.07563 0.0
H2678 H 0.70414 0.71145 0.05239 0.0
C2679 C 0.67141 0.7409 0.08933 0.0
C2680 C 0.69904 0.75509 0.08359 0.0
H2681 H 0.64066 0.70912 0.07575 0.0
H2682 H 0.66399 0.74817 0.0966 0.0
C2683 C 0.71283 0.74242 0.07411 0.0
C2684 C 0.2695 0.93677 0.02825 0.0
C2685 C 0.28321 0.95773 0.02695 0.0
H2686 H 0.24016 0.91343 0.03787 0.0
C2687 C 0.27782 0.9714 0.03535 0.0
H2688 H 0.27318 0.92586 0.02192 0.0
C2689 C 0.25901 0.96429 0.0445 0.0
C2690 C 0.24522 0.94337 0.04562 0.0
H2691 H 0.28802 0.98766 0.03463 0.0
H2692 H 0.25512 0.97517 0.05047 0.0
C2693 C 0.25065 0.92966 0.03743 0.0
C2694 C 0.29646 0.02628 0.95625 0.0
C2695 C 0.32115 0.0425 0.96792 0.0
H2696 H 0.27105 0.02677 0.93194 0.0
C2697 C 0.33734 0.06857 0.96068 0.0
H2698 H 0.28773 0.01042 0.96004 0.0
C2699 C 0.32867 0.07979 0.94224 0.0
C2700 C 0.30112 0.06394 0.9353 0.0
H2701 H 0.35256 0.07737 0.96698 0.0
H2702 H 0.33762 0.09571 0.93871 0.0
C2703 C 0.28642 0.03595 0.93778 0.0
C2704 C 0.9353 0.27686 0.96162 0.0
C2705 C 0.95928 0.28597 0.97469 0.0
H2706 H 0.91064 0.24907 0.93693 0.0
C2707 C 0.97514 0.27526 0.96959 0.0
H2708 H 0.92682 0.28445 0.9642 0.0
C2709 C 0.96683 0.25391 0.95218 0.0
C2710 C 0.93986 0.24178 0.94381 0.0
H2711 H 0.98989 0.28183 0.97694 0.0
H2712 H 0.97542 0.24633 0.95039 0.0
C2713 C 0.92559 0.25556 0.94382 0.0
C2714 C 0.73099 0.67074 0.98487 0.0
C2715 C 0.72124 0.68195 0.98768 0.0
H2716 H 0.75836 0.67139 0.97634 0.0
C2717 C 0.73189 0.70279 0.98355 0.0
H2718 H 0.72319 0.65468 0.98798 0.0
C2719 C 0.75192 0.71229 0.97696 0.0
C2720 C 0.76171 0.70115 0.97413 0.0
H2721 H 0.72485 0.71188 0.98565 0.0
H2722 H 0.75983 0.72844 0.97421 0.0
C2723 C 0.75106 0.68027 0.97818 0.0
C2724 C 0.94829 0.6761 0.97162 0.0
C2725 C 0.96176 0.68134 0.98822 0.0
H2726 H 0.93674 0.68654 0.94822 0.0
C2727 C 0.97302 0.70173 0.99505 0.0
H2728 H 0.93934 0.66047 0.96616 0.0
C2729 C 0.97151 0.71675 0.98492 0.0
C2730 C 0.95926 0.71187 0.96725 0.0
H2731 H 0.98322 0.70612 0.00814 0.0
H2732 H 0.98031 0.73224 0.99075 0.0
C2733 C 0.94705 0.69119 0.96122 0.0
C2734 C 0.32358 0.27555 0.97626 0.0
C2735 C 0.31883 0.28946 0.96808 0.0
H2736 H 0.31287 0.24444 0.98296 0.0
C2737 C 0.30023 0.28203 0.95761 0.0
H2738 H 0.33772 0.28079 0.98453 0.0
C2739 C 0.28603 0.26124 0.9567 0.0
C2740 C 0.29018 0.24747 0.96624 0.0
H2741 H 0.29613 0.29238 0.95113 0.0
H2742 H 0.27139 0.25601 0.94951 0.0
C2743 C 0.30932 0.25475 0.97547 0.0
C2744 C 0.72811 0.03102 0.97554 0.0
C2745 C 0.72426 0.04569 0.98422 0.0
H2746 H 0.75048 0.02426 0.96473 0.0
C2747 C 0.74048 0.06566 0.98731 0.0
H2748 H 0.71589 0.01551 0.97285 0.0
C2749 C 0.76032 0.07055 0.98292 0.0
C2750 C 0.76423 0.05564 0.97507 0.0
H2751 H 0.73799 0.07726 0.99405 0.0
H2752 H 0.77268 0.08585 0.98622 0.0
C2753 C 0.74788 0.03597 0.9709 0.0
C2754 C 0.67927 0.94196 0.02563 0.0
C2755 C 0.68605 0.9617 0.03335 0.0
H2756 H 0.68572 0.91789 0.02207 0.0
C2757 C 0.70413 0.97171 0.04504 0.0
H2758 H 0.66548 0.93392 0.01648 0.0
C2759 C 0.71569 0.96262 0.04813 0.0
C2760 C 0.70928 0.94317 0.03987 0.0
H2761 H 0.70982 0.98696 0.05118 0.0
H2762 H 0.72997 0.97109 0.05643 0.0
C2763 C 0.69083 0.93281 0.02882 0.0
C2764 C 0.02977 0.7361 0.05184 0.0
C2765 C 0.04009 0.72813 0.04089 0.0
H2766 H 0.02809 0.76245 0.05992 0.0
C2767 C 0.05843 0.74159 0.03139 0.0
H2768 H 0.01556 0.72615 0.0593 0.0
C2769 C 0.06563 0.76246 0.03183 0.0
C2770 C 0.05473 0.77026 0.0419 0.0
H2771 H 0.06663 0.73592 0.02269 0.0
H2772 H 0.0793 0.77245 0.02359 0.0
C2773 C 0.03692 0.75691 0.05223 0.0
C2774 C 0.28538 0.32793 0.0551 0.0
C2775 C 0.28969 0.32942 0.03417 0.0
H2776 H 0.26513 0.31019 0.0786 0.0
C2777 C 0.27558 0.31461 0.02038 0.0
H2778 H 0.29623 0.33907 0.06599 0.0
C2779 C 0.25748 0.2984 0.02742 0.0
C2780 C 0.2534 0.29628 0.04846 0.0
H2781 H 0.27868 0.31547 0.00413 0.0
H2782 H 0.24687 0.28716 0.01645 0.0
C2783 C 0.26756 0.31132 0.06225 0.0
C2784 C 0.69816 0.63966 0.37367 0.0
C2785 C 0.70705 0.65985 0.36742 0.0
H2786 H 0.70293 0.61568 0.38262 0.0
C2787 C 0.72829 0.67179 0.36631 0.0
H2788 H 0.68183 0.63002 0.37455 0.0
C2789 C 0.74037 0.66354 0.37099 0.0
C2790 C 0.73144 0.64325 0.37699 0.0
H2791 H 0.73556 0.68736 0.36144 0.0
H2792 H 0.75669 0.6729 0.36961 0.0
C2793 C 0.71022 0.63143 0.3783 0.0
C2794 C 0.33027 0.05512 0.39047 0.0
C2795 C 0.33755 0.04184 0.38688 0.0
H2796 H 0.33742 0.08555 0.39602 0.0
C2797 C 0.35853 0.04943 0.38839 0.0
H2798 H 0.31418 0.04974 0.38954 0.0
C2799 C 0.37202 0.0701 0.3923 0.0
C2800 C 0.3649 0.08374 0.39418 0.0
H2801 H 0.36458 0.03948 0.38598 0.0
H2802 H 0.38811 0.07551 0.39317 0.0
C2803 C 0.34374 0.07581 0.394 0.0
C2804 C 0.94189 0.269 0.36747 0.0
C2805 C 0.95406 0.28954 0.36253 0.0
H2806 H 0.91282 0.24524 0.37677 0.0
C2807 C 0.94569 0.30216 0.36366 0.0
H2808 H 0.94776 0.25878 0.36653 0.0
C2809 C 0.92562 0.2944 0.36988 0.0
C2810 C 0.91359 0.2739 0.37505 0.0
H2811 H 0.95464 0.31803 0.35982 0.0
H2812 H 0.91946 0.30437 0.3706 0.0
C2813 C 0.92186 0.26123 0.37342 0.0
C2814 C 0.02639 0.40603 0.32203 0.0
C2815 C 0.02221 0.38941 0.3091 0.0
H2816 H 0.03256 0.43664 0.32418 0.0
C2817 C 0.02057 0.39092 0.28791 0.0
H2818 H 0.02773 0.40525 0.33845 0.0
C2819 C 0.02373 0.40901 0.27972 0.0
C2820 C 0.02797 0.42573 0.29266 0.0
H2821 H 0.01757 0.37839 0.27759 0.0
H2822 H 0.02314 0.40995 0.26325 0.0
C2823 C 0.02909 0.42394 0.3139 0.0
C2824 C 0.6338 0.6141 0.30077 0.0
C2825 C 0.62058 0.6211 0.30597 0.0
H2826 H 0.63661 0.58865 0.29132 0.0
C2827 C 0.59957 0.60758 0.30474 0.0
H2828 H 0.6501 0.62425 0.30153 0.0
C2829 C 0.59189 0.58719 0.29942 0.0
C2830 C 0.60509 0.57996 0.29468 0.0
H2831 H 0.58902 0.61252 0.3088 0.0
H2832 H 0.5756 0.57711 0.29946 0.0
C2833 C 0.62611 0.59376 0.29499 0.0
C2834 C 0.39097 0.00457 0.32438 0.0
C2835 C 0.37328 0.98544 0.32562 0.0
H2836 H 0.42264 0.02109 0.3175 0.0
C2837 C 0.37394 0.96796 0.32007 0.0
H2838 H 0.39086 0.01829 0.32857 0.0
C2839 C 0.39203 0.96958 0.31354 0.0
C2840 C 0.4099 0.98868 0.31288 0.0
H2841 H 0.36046 0.95303 0.32068 0.0
H2842 H 0.39208 0.9559 0.30908 0.0
C2843 C 0.40915 0.00617 0.31815 0.0
C2844 C 0.6369 0.00498 0.29005 0.0
C2845 C 0.63055 0.97878 0.28889 0.0
H2846 H 0.6323 0.03064 0.27054 0.0
C2847 C 0.61853 0.96253 0.26663 0.0
H2848 H 0.64492 0.01449 0.30327 0.0
C2849 C 0.61101 0.97157 0.24513 0.0
C2850 C 0.61264 0.99644 0.24977 0.0
H2851 H 0.61578 0.9472 0.26618 0.0
H2852 H 0.60222 0.96142 0.23255 0.0
C2853 C 0.62998 0.01548 0.26936 0.0
C2854 C 0.98772 0.62389 0.2956 0.0
C2855 C 0.00706 0.63575 0.30471 0.0
H2856 H 0.96423 0.5941 0.28585 0.0
C2857 C 0.01857 0.62664 0.30887 0.0
H2858 H 0.97846 0.63045 0.29222 0.0
C2859 C 0.01037 0.60582 0.30527 0.0
C2860 C 0.9906 0.59376 0.29723 0.0
H2861 H 0.0335 0.63535 0.31594 0.0
H2862 H 0.01917 0.59899 0.30958 0.0
C2863 C 0.97955 0.60308 0.29194 0.0
C2864 C 0.38391 0.35984 0.30386 0.0
C2865 C 0.37945 0.37504 0.30909 0.0
H2866 H 0.40683 0.3529 0.29566 0.0
C2867 C 0.39501 0.39548 0.30879 0.0
H2868 H 0.37214 0.34395 0.30381 0.0
C2869 C 0.41494 0.40055 0.30469 0.0
C2870 C 0.4196 0.38529 0.30048 0.0
H2871 H 0.39201 0.4075 0.31282 0.0
H2872 H 0.42683 0.41639 0.30544 0.0
C2873 C 0.40375 0.36493 0.29931 0.0
C2874 C 0.33833 0.27922 0.36815 0.0
C2875 C 0.34644 0.29988 0.37327 0.0
H2876 H 0.34357 0.25427 0.36636 0.0
C2877 C 0.36576 0.31076 0.38265 0.0
H2878 H 0.32355 0.27047 0.3608 0.0
C2879 C 0.37716 0.30149 0.38585 0.0
C2880 C 0.36945 0.28111 0.37983 0.0
H2881 H 0.37245 0.32671 0.38677 0.0
H2882 H 0.39234 0.31048 0.39229 0.0
C2883 C 0.34978 0.26996 0.3713 0.0
C2884 C 0.71761 0.05944 0.36791 0.0
C2885 C 0.69644 0.04659 0.3685 0.0
H2886 H 0.7427 0.09003 0.36925 0.0
C2887 C 0.68431 0.05511 0.37284 0.0
H2888 H 0.72738 0.05335 0.36469 0.0
C2889 C 0.69313 0.07613 0.37568 0.0
C2890 C 0.71422 0.08906 0.37392 0.0
H2891 H 0.66796 0.0456 0.37355 0.0
H2892 H 0.68341 0.08233 0.37856 0.0
C2893 C 0.72639 0.08045 0.3705 0.0
C2894 C 0.94665 0.65361 0.35429 0.0
C2895 C 0.96016 0.66692 0.36941 0.0
H2896 H 0.91763 0.62736 0.34765 0.0
C2897 C 0.95461 0.66375 0.39002 0.0
H2898 H 0.95066 0.65585 0.33826 0.0
C2899 C 0.93606 0.64695 0.3955 0.0
C2900 C 0.92246 0.63342 0.38035 0.0
H2901 H 0.96495 0.67379 0.40192 0.0
H2902 H 0.93256 0.64456 0.41161 0.0
C2903 C 0.92784 0.63727 0.35967 0.0
C2904 C 0.36959 0.97998 0.7199 0.0
C2905 C 0.37762 0.00595 0.71424 0.0
H2906 H 0.37959 0.95876 0.74047 0.0
C2907 C 0.39861 0.02719 0.72764 0.0
H2908 H 0.35632 0.9677 0.71228 0.0
C2909 C 0.41331 0.02307 0.74638 0.0
C2910 C 0.40781 0.99637 0.7471 0.0
H2911 H 0.40227 0.04251 0.72459 0.0
H2912 H 0.4268 0.03563 0.75343 0.0
C2913 C 0.38326 0.97422 0.73826 0.0
C2914 C 0.01328 0.3837 0.71978 0.0
C2915 C 0.98759 0.36305 0.72302 0.0
H2916 H 0.03743 0.42016 0.73107 0.0
C2917 C 0.97098 0.36417 0.74197 0.0
H2918 H 0.02288 0.38227 0.70855 0.0
C2919 C 0.97909 0.38683 0.75742 0.0
C2920 C 0.00325 0.40929 0.74912 0.0
H2921 H 0.95587 0.35127 0.74381 0.0
H2922 H 0.96871 0.38829 0.76755 0.0
C2923 C 0.02283 0.40705 0.7344 0.0
C2924 C 0.61519 0.63592 0.70785 0.0
C2925 C 0.62407 0.62382 0.70552 0.0
H2926 H 0.58887 0.63719 0.71647 0.0
C2927 C 0.61308 0.60347 0.7114 0.0
H2928 H 0.62322 0.65165 0.70342 0.0
C2929 C 0.59338 0.5952 0.71877 0.0
C2930 C 0.5844 0.60723 0.7208 0.0
H2931 H 0.61942 0.59371 0.70966 0.0
H2932 H 0.58499 0.57927 0.72245 0.0
C2933 C 0.59555 0.62769 0.71537 0.0
C2934 C 0.66514 0.72828 0.64341 0.0
C2935 C 0.65418 0.70694 0.64333 0.0
H2936 H 0.66424 0.75542 0.63851 0.0
C2937 C 0.63358 0.69653 0.63748 0.0
H2938 H 0.68102 0.73671 0.6479 0.0
C2939 C 0.62402 0.70719 0.63219 0.0
C2940 C 0.63489 0.72851 0.63241 0.0
H2941 H 0.62467 0.68009 0.63736 0.0
H2942 H 0.60802 0.69875 0.62817 0.0
C2943 C 0.65557 0.73897 0.63802 0.0
C2944 C 0.27827 0.94824 0.6135 0.0
C2945 C 0.29862 0.95814 0.63219 0.0
H2946 H 0.25502 0.91662 0.59241 0.0
C2947 C 0.31071 0.94422 0.63948 0.0
H2948 H 0.27173 0.95726 0.6092 0.0
C2949 C 0.30218 0.91922 0.62904 0.0
C2950 C 0.27751 0.90783 0.61485 0.0
H2951 H 0.3231 0.95086 0.65051 0.0
H2952 H 0.30799 0.91004 0.63491 0.0
C2953 C 0.26836 0.92336 0.60223 0.0
C2954 C 0.0639 0.33558 0.65082 0.0
C2955 C 0.05374 0.34645 0.65328 0.0
H2956 H 0.09165 0.33673 0.64288 0.0
C2957 C 0.06416 0.36727 0.64909 0.0
H2958 H 0.05631 0.31953 0.65398 0.0
C2959 C 0.0843 0.37705 0.64269 0.0
C2960 C 0.09446 0.36621 0.64012 0.0
H2961 H 0.05682 0.37611 0.65091 0.0
H2962 H 0.09202 0.39318 0.63988 0.0
C2963 C 0.08407 0.34538 0.64437 0.0
C2964 C 0.29462 0.34208 0.62627 0.0
C2965 C 0.29904 0.34207 0.64706 0.0
H2966 H 0.2912 0.35839 0.60204 0.0
C2967 C 0.30173 0.3582 0.65999 0.0
H2968 H 0.29277 0.32993 0.61599 0.0
C2969 C 0.30041 0.3743 0.6522 0.0
C2970 C 0.29681 0.37485 0.63123 0.0
H2971 H 0.30517 0.3585 0.67613 0.0
H2972 H 0.30276 0.38665 0.66246 0.0
C2973 C 0.29381 0.35847 0.61834 0.0
C2974 C 0.63364 0.94906 0.63164 0.0
C2975 C 0.6537 0.9571 0.63873 0.0
H2976 H 0.6048 0.92225 0.62537 0.0
C2977 C 0.66053 0.94372 0.64331 0.0
H2978 H 0.62794 0.95898 0.62792 0.0
C2979 C 0.64723 0.92272 0.642 0.0
C2980 C 0.62691 0.9147 0.63585 0.0
H2981 H 0.67589 0.94944 0.64884 0.0
H2982 H 0.65264 0.91275 0.64649 0.0
C2983 C 0.62039 0.92806 0.63017 0.0
C2984 C 0.04621 0.69207 0.6429 0.0
C2985 C 0.04123 0.70711 0.64691 0.0
H2986 H 0.0699 0.68542 0.63796 0.0
C2987 C 0.05679 0.72756 0.64802 0.0
H2988 H 0.03445 0.67619 0.64181 0.0
C2989 C 0.07707 0.73276 0.64655 0.0
C2990 C 0.08215 0.71766 0.64349 0.0
H2991 H 0.05339 0.73945 0.65118 0.0
H2992 H 0.08882 0.74858 0.64839 0.0
C2993 C 0.06647 0.69733 0.64084 0.0
C2994 C 0.00793 0.62895 0.71603 0.0
C2995 C 0.9892 0.62251 0.70625 0.0
H2996 H 0.02888 0.6205 0.72699 0.0
C2997 C 0.97631 0.60175 0.70151 0.0
H2998 H 0.0182 0.64486 0.71986 0.0
C2999 C 0.98248 0.58785 0.70554 0.0
C3000 C 0.00155 0.59443 0.71456 0.0
H3001 H 0.96181 0.59633 0.69391 0.0
H3002 H 0.97262 0.57205 0.70102 0.0
C3003 C 0.01406 0.61505 0.72012 0.0
C3004 C 0.39031 0.39557 0.70809 0.0
C3005 C 0.37012 0.38271 0.71399 0.0
H3006 H 0.41414 0.42623 0.70351 0.0
C3007 C 0.35928 0.39136 0.72245 0.0
H3008 H 0.39902 0.38938 0.7014 0.0
C3009 C 0.36794 0.41242 0.72363 0.0
C3010 C 0.38765 0.42526 0.71648 0.0
H3011 H 0.34368 0.38186 0.72711 0.0
H3012 H 0.35886 0.41865 0.72917 0.0
C3013 C 0.39895 0.41666 0.70922 0.0
C3014 C 0.62783 0.00056 0.70471 0.0
C3015 C 0.6384 0.02132 0.70027 0.0
H3016 H 0.59927 0.97453 0.71205 0.0
C3017 C 0.62821 0.03221 0.7014 0.0
H3018 H 0.63538 0.99185 0.7041 0.0
C3019 C 0.60743 0.02216 0.70533 0.0
C3020 C 0.59659 0.00115 0.70853 0.0
H3021 H 0.63597 0.04821 0.69798 0.0
H3022 H 0.59971 0.0307 0.70514 0.0
C3023 C 0.60716 0.99062 0.70909 0.0
loop_
_geom_bond_atom_site_label_1
_geom_bond_atom_site_label_2
_geom_bond_distance
_geom_bond_site_symmetry_2
_ccdc_geom_bond_type
C0 O1 1.306 . S
C0 O3 1.160 . S
O1 C0 1.306 . S
O1 Cd2 2.228 1_556 S
Cd2 O1 2.228 1_554 S
Cd2 O6 2.273 . S
Cd2 O10 2.277 1_554 S
O3 C0 1.160 . S
O3 Cd4 2.203 1_656 S
Cd4 O3 2.203 1_454 S
Cd4 O6 2.411 1_455 S
Cd4 O7 2.333 . S
Cd4 O8 2.352 . S
Cd4 O12 2.277 1_554 S
Cd4 O13 2.356 . S
C5 O10 1.209 1_455 S
C5 O12 1.226 . S
O6 Cd2 2.273 . S
O6 Cd4 2.411 1_655 S
O6 C9 1.309 1_655 S
O7 Cd4 2.333 . S
O7 C9 1.246 . S
O8 Cd4 2.352 . S
O8 C11 1.258 . S
C9 O6 1.309 1_455 S
C9 O7 1.246 . S
O10 Cd2 2.277 1_556 S
O10 C5 1.209 1_655 S
C11 O8 1.258 . S
C11 O13 1.282 . S
O12 Cd4 2.277 1_556 S
O12 C5 1.226 . S
O13 Cd4 2.356 . S
O13 C11 1.282 . S
C14 O15 1.306 . S
C14 O17 1.160 . S
O15 C14 1.306 . S
O15 Cd16 2.228 . S
Cd16 O15 2.228 . S
Cd16 O20 2.273 1_554 S
Cd16 O24 2.277 . S
O17 C14 1.160 . S
O17 Cd18 2.203 . S
Cd18 O17 2.203 . S
Cd18 O20 2.411 1_554 S
Cd18 O21 2.333 1_554 S
Cd18 O22 2.352 1_554 S
Cd18 O26 2.277 . S
Cd18 O27 2.356 . S
C19 O24 1.209 . S
C19 O26 1.226 . S
O20 Cd16 2.273 1_556 S
O20 Cd18 2.411 1_556 S
O20 C23 1.320 . S
O21 Cd18 2.333 1_556 S
O21 C23 1.214 . S
O22 Cd18 2.352 1_556 S
O22 C25 1.258 . S
C23 O20 1.320 . S
C23 O21 1.214 . S
O24 Cd16 2.277 . S
O24 C19 1.209 . S
C25 O22 1.258 . S
C25 O27 1.282 1_556 S
O26 Cd18 2.277 . S
O26 C19 1.226 . S
O27 Cd18 2.356 . S
O27 C25 1.282 1_554 S
C28 O29 1.306 . S
C28 O31 1.160 . S
O29 C28 1.306 . S
O29 Cd30 2.228 . S
Cd30 O29 2.228 . S
Cd30 O34 2.273 1_554 S
Cd30 O38 2.277 . S
O31 C28 1.160 . S
O31 Cd32 2.203 1_565 S
Cd32 O31 2.203 1_545 S
Cd32 O34 2.411 1_544 S
Cd32 O35 2.333 1_554 S
Cd32 O36 2.352 1_554 S
Cd32 O40 2.277 . S
Cd32 O41 2.355 1_554 S
C33 O38 1.209 1_545 S
C33 O40 1.226 . S
O34 Cd30 2.273 1_556 S
O34 Cd32 2.411 1_566 S
O34 C37 1.326 . S
O35 Cd32 2.333 1_556 S
O35 C37 1.198 1_545 S
O36 Cd32 2.352 1_556 S
O36 C39 1.258 . S
C37 O34 1.326 . S
C37 O35 1.198 1_565 S
O38 Cd30 2.277 . S
O38 C33 1.209 1_565 S
C39 O36 1.258 . S
C39 O41 1.285 . S
O40 Cd32 2.277 . S
O40 C33 1.226 . S
O41 Cd32 2.355 1_556 S
O41 C39 1.285 . S
C42 O43 1.306 . S
C42 O45 1.160 . S
O43 C42 1.306 . S
O43 Cd44 2.228 1_556 S
Cd44 O43 2.228 1_554 S
Cd44 O48 2.273 . S
Cd44 O52 2.277 1_554 S
O45 C42 1.160 . S
O45 Cd46 2.203 1_656 S
Cd46 O45 2.203 1_454 S
Cd46 O48 2.411 1_455 S
Cd46 O49 2.333 . S
Cd46 O50 2.352 . S
Cd46 O54 2.277 1_554 S
Cd46 O55 2.356 . S
C47 O52 1.209 1_455 S
C47 O54 1.226 . S
O48 Cd44 2.273 . S
O48 Cd46 2.411 1_655 S
O48 C51 1.320 . S
O49 Cd46 2.333 . S
O49 C51 1.214 1_455 S
O50 Cd46 2.352 . S
O50 C53 1.258 . S
C51 O48 1.320 . S
C51 O49 1.214 1_655 S
O52 Cd44 2.277 1_556 S
O52 C47 1.209 1_655 S
C53 O50 1.258 . S
C53 O55 1.282 . S
O54 Cd46 2.277 1_556 S
O54 C47 1.226 . S
O55 Cd46 2.356 . S
O55 C53 1.282 . S
C56 O57 1.306 . S
C56 O59 1.160 . S
O57 C56 1.306 . S
O57 Cd58 2.228 . S
Cd58 O57 2.228 . S
Cd58 O62 2.273 1_554 S
Cd58 O66 2.277 . S
O59 C56 1.160 . S
O59 Cd60 2.228 . S
Cd60 O59 2.228 . S
Cd60 O62 2.394 1_554 S
Cd60 O63 2.305 1_554 S
Cd60 O64 2.325 1_554 S
Cd60 O68 2.305 . S
Cd60 O69 2.343 1_554 S
C61 O66 1.209 . S
C61 O68 1.226 . S
O62 Cd58 2.273 1_556 S
O62 Cd60 2.394 1_556 S
O62 C65 1.320 . S
O63 Cd60 2.305 1_556 S
O63 C65 1.214 . S
O64 Cd60 2.325 1_556 S
O64 C67 1.258 . S
C65 O62 1.320 . S
C65 O63 1.214 . S
O66 Cd58 2.277 . S
O66 C61 1.209 . S
C67 O64 1.258 . S
C67 O69 1.282 . S
O68 Cd60 2.305 . S
O68 C61 1.226 . S
O69 Cd60 2.343 1_556 S
O69 C67 1.282 . S
C70 O71 1.325 . S
C70 O73 1.160 . S
O71 C70 1.325 . S
O71 Cd72 2.217 1_556 S
Cd72 O71 2.217 1_554 S
Cd72 O76 2.273 . S
Cd72 O80 2.277 1_554 S
O73 C70 1.160 . S
O73 Cd74 2.203 1_546 S
Cd74 O73 2.203 1_564 S
Cd74 O76 2.411 1_565 S
Cd74 O77 2.333 . S
Cd74 O78 2.352 . S
Cd74 O82 2.277 1_554 S
Cd74 O83 2.356 . S
C75 O80 1.209 1_565 S
C75 O82 1.226 . S
O76 Cd72 2.273 . S
O76 Cd74 2.411 1_545 S
O76 C79 1.320 . S
O77 Cd74 2.333 . S
O77 C79 1.214 1_565 S
O78 Cd74 2.352 . S
O78 C81 1.258 . S
C79 O76 1.320 . S
C79 O77 1.214 1_545 S
O80 Cd72 2.277 1_556 S
O80 C75 1.209 1_545 S
C81 O78 1.258 . S
C81 O83 1.282 . S
O82 Cd74 2.277 1_556 S
O82 C75 1.226 . S
O83 Cd74 2.356 . S
O83 C81 1.282 . S
C84 O85 1.306 . S
C84 O87 1.160 . S
O85 C84 1.306 . S
O85 Cd86 2.228 . S
Cd86 O85 2.228 . S
Cd86 O90 2.273 . S
Cd86 O94 2.277 . S
O87 C84 1.160 . S
O87 Cd88 2.203 . S
Cd88 O87 2.203 . S
Cd88 O90 2.411 . S
Cd88 O91 2.333 . S
Cd88 O92 2.352 . S
Cd88 O96 2.277 . S
Cd88 O97 2.356 . S
C89 O94 1.209 . S
C89 O96 1.226 . S
O90 Cd86 2.273 . S
O90 Cd88 2.411 . S
O90 C93 1.320 . S
O91 Cd88 2.333 . S
O91 C93 1.214 . S
O92 Cd88 2.352 . S
O92 C95 1.258 . S
C93 O90 1.320 . S
C93 O91 1.214 . S
O94 Cd86 2.277 . S
O94 C89 1.209 . S
C95 O92 1.258 . S
C95 O97 1.282 . S
O96 Cd88 2.277 . S
O96 C89 1.226 . S
O97 Cd88 2.356 . S
O97 C95 1.282 . S
C98 O99 1.306 . S
C98 O101 1.160 . S
O99 C98 1.306 . S
O99 Cd100 2.228 1_545 S
Cd100 O99 2.228 1_565 S
Cd100 O104 2.273 . S
Cd100 O108 2.277 . S
O101 C98 1.160 . S
O101 Cd102 2.203 1_545 S
Cd102 O101 2.203 1_565 S
Cd102 O104 2.411 . S
Cd102 O105 2.333 . S
Cd102 O106 2.347 1_565 S
Cd102 O110 2.277 . S
Cd102 O111 2.356 . S
C103 O108 1.209 . S
C103 O110 1.226 . S
O104 Cd100 2.273 . S
O104 Cd102 2.411 . S
O104 C107 1.320 . S
O105 Cd102 2.333 . S
O105 C107 1.214 . S
O106 Cd102 2.347 1_545 S
O106 C109 1.244 1_545 S
C107 O104 1.320 . S
C107 O105 1.214 . S
O108 Cd100 2.277 . S
O108 C103 1.209 . S
C109 O106 1.244 1_565 S
C109 O111 1.282 . S
O110 Cd102 2.277 . S
O110 C103 1.226 . S
O111 Cd102 2.356 . S
O111 C109 1.282 . S
C112 O113 1.306 . S
C112 O115 1.160 1_655 S
O113 C112 1.306 . S
O113 Cd114 2.228 1_655 S
Cd114 O113 2.228 1_455 S
Cd114 O118 2.273 . S
Cd114 O122 2.277 . S
O115 C112 1.160 1_455 S
O115 Cd116 2.203 . S
Cd116 O115 2.203 . S
Cd116 O118 2.411 . S
Cd116 O119 2.333 . S
Cd116 O120 2.352 . S
Cd116 O124 2.277 . S
Cd116 O125 2.356 . S
C117 O122 1.209 . S
C117 O124 1.226 . S
O118 Cd114 2.273 . S
O118 Cd116 2.411 . S
O118 C121 1.320 . S
O119 Cd116 2.333 . S
O119 C121 1.214 . S
O120 Cd116 2.352 . S
O120 C123 1.258 . S
C121 O118 1.320 . S
C121 O119 1.214 . S
O122 Cd114 2.277 . S
O122 C117 1.209 . S
C123 O120 1.258 . S
C123 O125 1.282 . S
O124 Cd116 2.277 . S
O124 C117 1.226 . S
O125 Cd116 2.356 . S
O125 C123 1.282 . S
C126 O127 1.306 . S
C126 O129 1.160 . S
O127 C126 1.306 . S
O127 Cd128 2.228 . S
Cd128 O127 2.228 . S
Cd128 O132 2.273 . S
Cd128 O136 2.277 . S
O129 C126 1.160 . S
O129 Cd130 2.203 . S
Cd130 O129 2.203 . S
Cd130 O132 2.411 . S
Cd130 O133 2.333 . S
Cd130 O134 2.352 1_565 S
Cd130 O138 2.277 . S
Cd130 O139 2.356 1_565 S
C131 O136 1.209 . S
C131 O138 1.226 . S
O132 Cd128 2.273 . S
O132 Cd130 2.411 . S
O132 C135 1.320 . S
O133 Cd130 2.333 . S
O133 C135 1.214 . S
O134 Cd130 2.352 1_545 S
O134 C137 1.258 . S
C135 O132 1.320 . S
C135 O133 1.214 . S
O136 Cd128 2.277 . S
O136 C131 1.209 . S
C137 O134 1.258 . S
C137 O139 1.282 . S
O138 Cd130 2.277 . S
O138 C131 1.226 . S
O139 Cd130 2.356 1_545 S
O139 C137 1.282 . S
C140 O141 1.306 . S
C140 O143 1.160 . S
O141 C140 1.306 . S
O141 Cd142 2.228 1_655 S
Cd142 O141 2.228 1_455 S
Cd142 O146 2.273 . S
Cd142 O150 2.277 . S
O143 C140 1.160 . S
O143 Cd144 2.203 1_655 S
Cd144 O143 2.203 1_455 S
Cd144 O146 2.411 . S
Cd144 O147 2.333 . S
Cd144 O148 2.352 . S
Cd144 O152 2.277 . S
Cd144 O153 2.356 . S
C145 O150 1.209 . S
C145 O152 1.226 . S
O146 Cd142 2.273 . S
O146 Cd144 2.411 . S
O146 C149 1.320 . S
O147 Cd144 2.333 . S
O147 C149 1.214 . S
O148 Cd144 2.352 . S
O148 C151 1.258 . S
C149 O146 1.320 . S
C149 O147 1.214 . S
O150 Cd142 2.277 . S
O150 C145 1.209 . S
C151 O148 1.258 . S
C151 O153 1.282 . S
O152 Cd144 2.277 . S
O152 C145 1.226 . S
O153 Cd144 2.356 . S
O153 C151 1.282 . S
C154 O155 1.306 . S
C154 O157 1.160 . S
O155 C154 1.306 . S
O155 Cd156 2.228 . S
Cd156 O155 2.228 . S
Cd156 O160 2.273 . S
Cd156 O164 2.277 . S
O157 C154 1.160 . S
O157 Cd158 2.203 . S
Cd158 O157 2.203 . S
Cd158 O160 2.411 . S
Cd158 O161 2.333 . S
Cd158 O162 2.352 . S
Cd158 O166 2.277 . S
Cd158 O167 2.356 . S
C159 O164 1.209 . S
C159 O166 1.226 . S
O160 Cd156 2.273 . S
O160 Cd158 2.411 . S
O160 C163 1.320 . S
O161 Cd158 2.333 . S
O161 C163 1.214 . S
O162 Cd158 2.352 . S
O162 C165 1.258 . S
C163 O160 1.320 . S
C163 O161 1.214 . S
O164 Cd156 2.277 . S
O164 C159 1.209 . S
C165 O162 1.258 . S
C165 O167 1.282 . S
O166 Cd158 2.277 . S
O166 C159 1.226 . S
O167 Cd158 2.356 . S
O167 C165 1.282 . S
C168 O169 1.306 . S
C168 O171 1.160 . S
O169 C168 1.306 . S
O169 Cd170 2.228 1_565 S
Cd170 O169 2.228 1_545 S
Cd170 O174 2.273 . S
Cd170 O178 2.277 . S
O171 C168 1.160 . S
O171 Cd172 2.203 1_565 S
Cd172 O171 2.203 1_545 S
Cd172 O174 2.411 . S
Cd172 O175 2.333 . S
Cd172 O176 2.352 . S
Cd172 O180 2.277 . S
Cd172 O181 2.356 . S
C173 O178 1.209 . S
C173 O180 1.226 . S
O174 Cd170 2.273 . S
O174 Cd172 2.411 . S
O174 C177 1.320 . S
O175 Cd172 2.333 . S
O175 C177 1.214 . S
O176 Cd172 2.352 . S
O176 C179 1.258 . S
C177 O174 1.320 . S
C177 O175 1.214 . S
O178 Cd170 2.277 . S
O178 C173 1.209 . S
C179 O176 1.258 . S
C179 O181 1.282 . S
O180 Cd172 2.277 . S
O180 C173 1.226 . S
O181 Cd172 2.356 . S
O181 C179 1.282 . S
C182 O183 1.306 . S
C182 O185 1.160 1_655 S
O183 C182 1.306 . S
O183 Cd184 2.228 . S
Cd184 O183 2.228 . S
Cd184 O188 2.273 . S
Cd184 O192 2.277 . S
O185 C182 1.160 1_455 S
O185 Cd186 2.203 1_455 S
Cd186 O185 2.203 1_655 S
Cd186 O188 2.411 . S
Cd186 O189 2.333 . S
Cd186 O190 2.352 1_655 S
Cd186 O194 2.277 . S
Cd186 O195 2.356 1_655 S
C187 O192 1.209 . S
C187 O194 1.226 . S
O188 Cd184 2.273 . S
O188 Cd186 2.411 . S
O188 C191 1.320 . S
O189 Cd186 2.333 . S
O189 C191 1.214 . S
O190 Cd186 2.352 1_455 S
O190 C193 1.258 . S
C191 O188 1.320 . S
C191 O189 1.214 . S
O192 Cd184 2.277 . S
O192 C187 1.209 . S
C193 O190 1.258 . S
C193 O195 1.282 . S
O194 Cd186 2.277 . S
O194 C187 1.226 . S
O195 Cd186 2.356 1_455 S
O195 C193 1.282 . S
C196 O197 1.306 . S
C196 O199 1.160 . S
O197 C196 1.306 . S
O197 Cd198 2.228 . S
Cd198 O197 2.228 . S
Cd198 O202 2.273 . S
Cd198 O206 2.277 . S
O199 C196 1.160 . S
O199 Cd200 2.203 . S
Cd200 O199 2.203 . S
Cd200 O202 2.411 . S
Cd200 O203 2.333 . S
Cd200 O204 2.352 . S
Cd200 O208 2.277 . S
Cd200 O209 2.356 . S
C201 O206 1.209 . S
C201 O208 1.226 . S
O202 Cd198 2.273 . S
O202 Cd200 2.411 . S
O202 C205 1.320 . S
O203 Cd200 2.333 . S
O203 C205 1.214 . S
O204 Cd200 2.352 . S
O204 C207 1.258 . S
C205 O202 1.320 . S
C205 O203 1.214 . S
O206 Cd198 2.277 . S
O206 C201 1.209 . S
C207 O204 1.258 . S
C207 O209 1.282 . S
O208 Cd200 2.277 . S
O208 C201 1.226 . S
O209 Cd200 2.356 . S
O209 C207 1.282 . S
C210 O211 1.306 . S
C210 O213 1.160 . S
O211 C210 1.306 . S
O211 Cd212 2.228 . S
Cd212 O211 2.228 . S
Cd212 O216 2.273 . S
Cd212 O220 2.277 . S
O213 C210 1.160 . S
O213 Cd214 2.203 . S
Cd214 O213 2.203 . S
Cd214 O216 2.411 . S
Cd214 O217 2.333 . S
Cd214 O218 2.352 . S
Cd214 O222 2.277 . S
Cd214 O223 2.356 . S
C215 O220 1.209 . S
C215 O222 1.226 . S
O216 Cd212 2.273 . S
O216 Cd214 2.411 . S
O216 C219 1.320 . S
O217 Cd214 2.333 . S
O217 C219 1.214 . S
O218 Cd214 2.352 . S
O218 C221 1.258 . S
C219 O216 1.320 . S
C219 O217 1.214 . S
O220 Cd212 2.277 . S
O220 C215 1.209 . S
C221 O218 1.258 . S
C221 O223 1.282 . S
O222 Cd214 2.277 . S
O222 C215 1.226 . S
O223 Cd214 2.356 . S
O223 C221 1.282 . S
C224 O225 1.306 . S
C224 O227 1.160 . S
O225 C224 1.306 . S
O225 Cd226 2.228 . S
Cd226 O225 2.228 . S
Cd226 O230 2.273 . S
Cd226 O234 2.277 . S
O227 C224 1.160 . S
O227 Cd228 2.203 . S
Cd228 O227 2.203 . S
Cd228 O230 2.411 . S
Cd228 O231 2.333 . S
Cd228 O232 2.352 1_545 S
Cd228 O236 2.277 . S
Cd228 O237 2.356 1_545 S
C229 O234 1.209 . S
C229 O236 1.226 . S
O230 Cd226 2.273 . S
O230 Cd228 2.411 . S
O230 C233 1.320 . S
O231 Cd228 2.333 . S
O231 C233 1.214 . S
O232 Cd228 2.352 1_565 S
O232 C235 1.258 . S
C233 O230 1.320 . S
C233 O231 1.214 . S
O234 Cd226 2.277 . S
O234 C229 1.209 . S
C235 O232 1.258 . S
C235 O237 1.282 . S
O236 Cd228 2.277 . S
O236 C229 1.226 . S
O237 Cd228 2.356 1_565 S
O237 C235 1.282 . S
C238 O239 1.306 . S
C238 O241 1.160 . S
O239 C238 1.306 . S
O239 Cd240 2.228 1_455 S
Cd240 O239 2.228 1_655 S
Cd240 O244 2.273 . S
Cd240 O248 2.277 . S
O241 C238 1.160 . S
O241 Cd242 2.203 1_455 S
Cd242 O241 2.203 1_655 S
Cd242 O244 2.411 . S
Cd242 O245 2.333 . S
Cd242 O246 2.383 . S
Cd242 O250 2.277 . S
Cd242 O251 2.356 . S
C243 O248 1.209 . S
C243 O250 1.226 . S
O244 Cd240 2.273 . S
O244 Cd242 2.411 . S
O244 C247 1.320 . S
O245 Cd242 2.333 . S
O245 C247 1.214 . S
O246 Cd242 2.383 . S
O246 C249 1.261 . S
C247 O244 1.320 . S
C247 O245 1.214 . S
O248 Cd240 2.277 . S
O248 C243 1.209 . S
C249 O246 1.261 . S
C249 O251 1.282 . S
O250 Cd242 2.277 . S
O250 C243 1.226 . S
O251 Cd242 2.356 . S
O251 C249 1.282 . S
C252 C253 1.560 . S
C252 H313 0.959 . S
C252 H314 0.959 . S
C252 H315 0.960 . S
C253 C252 1.560 . S
C253 O308 1.426 . S
C253 H312 0.980 . S
C254 C255 1.407 . S
C254 C259 1.418 . S
C254 O308 1.334 . S
C255 C254 1.407 . S
C255 C256 1.360 . S
C255 H316 0.929 . S
C256 C255 1.360 . S
C256 C257 1.401 . S
C256 C260 1.527 . S
C257 C256 1.401 . S
C257 C258 1.405 . S
C257 C290 1.587 . S
C258 C257 1.405 . S
C258 C259 1.332 . S
C258 C261 1.496 . S
C259 C254 1.418 . S
C259 C258 1.332 . S
C259 H317 0.929 . S
C260 C256 1.527 . S
C260 H318 0.959 . S
C260 H319 0.961 . S
C260 H320 0.961 . S
C261 C258 1.496 . S
C261 H321 0.960 . S
C261 H322 0.960 . S
C261 H323 0.961 . S
C262 C263 1.517 . S
C262 H325 0.961 . S
C262 H326 0.960 . S
C262 H327 0.959 . S
C263 C262 1.517 . S
C263 O311 1.468 . S
C263 H324 0.980 . S
C264 C265 1.349 . S
C264 C269 1.367 . S
C264 O311 1.408 . S
C265 C264 1.349 . S
C265 C266 1.407 . S
C265 H328 0.930 . S
C266 C265 1.407 . S
C266 C267 1.449 . S
C266 C270 1.535 . S
C267 C266 1.449 . S
C267 C268 1.384 . S
C267 C292 1.553 . S
C268 C267 1.384 . S
C268 C269 1.364 . S
C268 C271 1.450 . S
C269 C264 1.367 . S
C269 C268 1.364 . S
C269 H329 0.931 . S
C270 C266 1.535 . S
C270 H330 0.959 . S
C270 H331 0.961 . S
C270 H332 0.959 . S
C271 C268 1.450 . S
C271 H333 0.960 . S
C271 H334 0.960 . S
C271 H335 0.960 . S
C272 C273 1.309 . S
C272 C277 1.304 . S
C272 O310 1.435 . S
C273 C272 1.309 . S
C273 C274 1.476 . S
C273 H337 0.930 . S
C274 C273 1.476 . S
C274 C275 1.400 . S
C274 C278 1.567 . S
C275 C274 1.400 . S
C275 C276 1.373 . S
C275 C297 1.432 . S
C276 C275 1.373 . S
C276 C277 1.339 . S
C276 C279 1.530 . S
C277 C272 1.304 . S
C277 C276 1.339 . S
C277 H338 0.930 . S
C278 C274 1.567 . S
C278 H339 0.961 . S
C278 H340 0.960 . S
C278 H341 0.958 . S
C279 C276 1.530 . S
C279 H342 0.961 . S
C279 H343 0.960 . S
C279 H344 0.960 . S
C280 C281 1.530 . S
C280 H346 0.961 . S
C280 H347 0.961 . S
C280 H348 0.959 . S
C281 C280 1.530 . S
C281 O309 1.412 . S
C281 H345 0.980 . S
C282 C283 1.288 . S
C282 C287 1.377 . S
C282 O309 1.393 . S
C283 C282 1.288 . S
C283 C284 1.369 . S
C283 H349 0.932 . S
C284 C283 1.369 . S
C284 C285 1.398 . S
C284 C288 1.527 . S
C285 C284 1.398 . S
C285 C286 1.380 . S
C285 C299 1.497 . S
C286 C285 1.380 . S
C286 C287 1.383 . S
C286 C289 1.603 . S
C287 C282 1.377 . S
C287 C286 1.383 . S
C287 H350 0.929 . S
C288 C284 1.527 . S
C288 H351 0.961 . S
C288 H352 0.959 . S
C288 H353 0.959 . S
C289 C286 1.603 . S
C289 H354 0.960 . S
C289 H355 0.962 . S
C289 H356 0.961 . S
C290 C257 1.587 . S
C290 C291 1.360 . S
C290 C303 1.412 . S
C291 C290 1.360 . S
C291 C292 1.365 . S
C291 H357 0.929 . S
C292 C267 1.553 . S
C292 C291 1.365 . S
C292 C293 1.404 . S
C293 C292 1.404 . S
C293 C294 1.395 . S
C293 C304 1.451 . S
C294 C293 1.395 . S
C294 C295 1.322 . S
C294 H358 0.930 . S
C295 C294 1.322 . S
C295 C296 1.459 . S
C295 H359 0.929 . S
C296 C295 1.459 . S
C296 C297 1.445 . S
C296 C305 1.395 . S
C297 C275 1.432 . S
C297 C296 1.445 . S
C297 C298 1.370 . S
C298 C297 1.370 . S
C298 C299 1.438 . S
C298 H360 0.930 . S
C299 C285 1.497 . S
C299 C298 1.438 . S
C299 C300 1.360 . S
C300 C299 1.360 . S
C300 C301 1.401 . S
C300 C305 1.446 . S
C301 C300 1.401 . S
C301 C302 1.347 . S
C301 H361 0.929 . S
C302 C301 1.347 . S
C302 C303 1.455 . S
C302 H362 0.930 . S
C303 C290 1.412 . S
C303 C302 1.455 . S
C303 C304 1.331 . S
C304 C293 1.451 . S
C304 C303 1.331 . S
C304 C305 1.497 . S
C305 C296 1.395 . S
C305 C300 1.446 . S
C305 C304 1.497 . S
C306 C307 1.582 . S
C306 H363 0.962 . S
C306 H364 0.959 . S
C306 H365 0.958 . S
C307 C306 1.582 . S
C307 O310 1.458 . S
C307 H336 0.980 . S
O308 C253 1.426 . S
O308 C254 1.334 . S
O309 C281 1.412 . S
O309 C282 1.393 . S
O310 C272 1.435 . S
O310 C307 1.458 . S
O311 C263 1.468 . S
O311 C264 1.408 . S
H312 C253 0.980 . S
H313 C252 0.959 . S
H314 C252 0.959 . S
H315 C252 0.960 . S
H316 C255 0.929 . S
H317 C259 0.929 . S
H318 C260 0.959 . S
H319 C260 0.961 . S
H320 C260 0.961 . S
H321 C261 0.960 . S
H322 C261 0.960 . S
H323 C261 0.961 . S
H324 C263 0.980 . S
H325 C262 0.961 . S
H326 C262 0.960 . S
H327 C262 0.959 . S
H328 C265 0.930 . S
H329 C269 0.931 . S
H330 C270 0.959 . S
H331 C270 0.961 . S
H332 C270 0.959 . S
H333 C271 0.960 . S
H334 C271 0.960 . S
H335 C271 0.960 . S
H336 C307 0.980 . S
H337 C273 0.930 . S
H338 C277 0.930 . S
H339 C278 0.961 . S
H340 C278 0.960 . S
H341 C278 0.958 . S
H342 C279 0.961 . S
H343 C279 0.960 . S
H344 C279 0.960 . S
H345 C281 0.980 . S
H346 C280 0.961 . S
H347 C280 0.961 . S
H348 C280 0.959 . S
H349 C283 0.932 . S
H350 C287 0.929 . S
H351 C288 0.961 . S
H352 C288 0.959 . S
H353 C288 0.959 . S
H354 C289 0.960 . S
H355 C289 0.962 . S
H356 C289 0.961 . S
H357 C291 0.929 . S
H358 C294 0.930 . S
H359 C295 0.929 . S
H360 C298 0.930 . S
H361 C301 0.929 . S
H362 C302 0.930 . S
H363 C306 0.962 . S
H364 C306 0.959 . S
H365 C306 0.958 . S
C366 C367 1.560 . S
C366 H427 0.959 . S
C366 H428 0.959 . S
C366 H429 0.960 . S
C367 C366 1.560 . S
C367 O422 1.426 . S
C367 H426 0.980 . S
C368 C369 1.407 . S
C368 C373 1.418 . S
C368 O422 1.334 . S
C369 C368 1.407 . S
C369 C370 1.360 . S
C369 H430 0.929 . S
C370 C369 1.360 . S
C370 C371 1.401 . S
C370 C374 1.527 . S
C371 C370 1.401 . S
C371 C372 1.405 . S
C371 C404 1.587 . S
C372 C371 1.405 . S
C372 C373 1.332 . S
C372 C375 1.496 . S
C373 C368 1.418 . S
C373 C372 1.332 . S
C373 H431 0.929 . S
C374 C370 1.527 . S
C374 H432 0.959 . S
C374 H433 0.961 . S
C374 H434 0.961 . S
C375 C372 1.496 . S
C375 H435 0.960 . S
C375 H436 0.960 . S
C375 H437 0.961 . S
C376 C377 1.517 . S
C376 H439 0.961 . S
C376 H440 0.960 . S
C376 H441 0.959 . S
C377 C376 1.517 . S
C377 O425 1.468 . S
C377 H438 0.980 . S
C378 C379 1.349 . S
C378 C383 1.367 . S
C378 O425 1.408 . S
C379 C378 1.349 . S
C379 C380 1.407 . S
C379 H442 0.930 . S
C380 C379 1.407 . S
C380 C381 1.449 . S
C380 C384 1.535 . S
C381 C380 1.449 . S
C381 C382 1.384 . S
C381 C406 1.553 . S
C382 C381 1.384 . S
C382 C383 1.364 . S
C382 C385 1.450 . S
C383 C378 1.367 . S
C383 C382 1.364 . S
C383 H443 0.931 . S
C384 C380 1.535 . S
C384 H444 0.959 . S
C384 H445 0.961 . S
C384 H446 0.959 . S
C385 C382 1.450 . S
C385 H447 0.960 . S
C385 H448 0.960 . S
C385 H449 0.960 . S
C386 C387 1.309 . S
C386 C391 1.304 . S
C386 O424 1.435 . S
C387 C386 1.309 . S
C387 C388 1.476 . S
C387 H451 0.930 . S
C388 C387 1.476 . S
C388 C389 1.400 . S
C388 C392 1.567 . S
C389 C388 1.400 . S
C389 C390 1.373 . S
C389 C411 1.432 . S
C390 C389 1.373 . S
C390 C391 1.339 . S
C390 C393 1.530 . S
C391 C386 1.304 . S
C391 C390 1.339 . S
C391 H452 0.930 . S
C392 C388 1.567 . S
C392 H453 0.961 . S
C392 H454 0.960 . S
C392 H455 0.958 . S
C393 C390 1.530 . S
C393 H456 0.961 . S
C393 H457 0.960 . S
C393 H458 0.960 . S
C394 C395 1.530 . S
C394 H460 0.961 . S
C394 H461 0.961 . S
C394 H462 0.959 . S
C395 C394 1.530 . S
C395 O423 1.412 . S
C395 H459 0.980 . S
C396 C397 1.288 . S
C396 C401 1.377 . S
C396 O423 1.393 . S
C397 C396 1.288 . S
C397 C398 1.369 . S
C397 H463 0.932 . S
C398 C397 1.369 . S
C398 C399 1.398 . S
C398 C402 1.527 . S
C399 C398 1.398 . S
C399 C400 1.380 . S
C399 C413 1.497 . S
C400 C399 1.380 . S
C400 C401 1.383 . S
C400 C403 1.603 . S
C401 C396 1.377 . S
C401 C400 1.383 . S
C401 H464 0.929 . S
C402 C398 1.527 . S
C402 H465 0.961 . S
C402 H466 0.959 . S
C402 H467 0.959 . S
C403 C400 1.603 . S
C403 H468 0.960 . S
C403 H469 0.962 . S
C403 H470 0.961 . S
C404 C371 1.587 . S
C404 C405 1.360 . S
C404 C417 1.412 . S
C405 C404 1.360 . S
C405 C406 1.365 . S
C405 H471 0.929 . S
C406 C381 1.553 . S
C406 C405 1.365 . S
C406 C407 1.404 . S
C407 C406 1.404 . S
C407 C408 1.395 . S
C407 C418 1.451 . S
C408 C407 1.395 . S
C408 C409 1.322 . S
C408 H472 0.930 . S
C409 C408 1.322 . S
C409 C410 1.459 . S
C409 H473 0.929 . S
C410 C409 1.459 . S
C410 C411 1.445 . S
C410 C419 1.395 . S
C411 C389 1.432 . S
C411 C410 1.445 . S
C411 C412 1.370 . S
C412 C411 1.370 . S
C412 C413 1.438 . S
C412 H474 0.930 . S
C413 C399 1.497 . S
C413 C412 1.438 . S
C413 C414 1.360 . S
C414 C413 1.360 . S
C414 C415 1.401 . S
C414 C419 1.446 . S
C415 C414 1.401 . S
C415 C416 1.347 . S
C415 H475 0.929 . S
C416 C415 1.347 . S
C416 C417 1.455 . S
C416 H476 0.930 . S
C417 C404 1.412 . S
C417 C416 1.455 . S
C417 C418 1.331 . S
C418 C407 1.451 . S
C418 C417 1.331 . S
C418 C419 1.497 . S
C419 C410 1.395 . S
C419 C414 1.446 . S
C419 C418 1.497 . S
C420 C421 1.582 . S
C420 H477 0.962 . S
C420 H478 0.959 . S
C420 H479 0.958 . S
C421 C420 1.582 . S
C421 O424 1.458 . S
C421 H450 0.980 . S
O422 C367 1.426 . S
O422 C368 1.334 . S
O423 C395 1.412 . S
O423 C396 1.393 . S
O424 C386 1.435 . S
O424 C421 1.458 . S
O425 C377 1.468 . S
O425 C378 1.408 . S
H426 C367 0.980 . S
H427 C366 0.959 . S
H428 C366 0.959 . S
H429 C366 0.960 . S
H430 C369 0.929 . S
H431 C373 0.929 . S
H432 C374 0.959 . S
H433 C374 0.961 . S
H434 C374 0.961 . S
H435 C375 0.960 . S
H436 C375 0.960 . S
H437 C375 0.961 . S
H438 C377 0.980 . S
H439 C376 0.961 . S
H440 C376 0.960 . S
H441 C376 0.959 . S
H442 C379 0.930 . S
H443 C383 0.931 . S
H444 C384 0.959 . S
H445 C384 0.961 . S
H446 C384 0.959 . S
H447 C385 0.960 . S
H448 C385 0.960 . S
H449 C385 0.960 . S
H450 C421 0.980 . S
H451 C387 0.930 . S
H452 C391 0.930 . S
H453 C392 0.961 . S
H454 C392 0.960 . S
H455 C392 0.958 . S
H456 C393 0.961 . S
H457 C393 0.960 . S
H458 C393 0.960 . S
H459 C395 0.980 . S
H460 C394 0.961 . S
H461 C394 0.961 . S
H462 C394 0.959 . S
H463 C397 0.932 . S
H464 C401 0.929 . S
H465 C402 0.961 . S
H466 C402 0.959 . S
H467 C402 0.959 . S
H468 C403 0.960 . S
H469 C403 0.962 . S
H470 C403 0.961 . S
H471 C405 0.929 . S
H472 C408 0.930 . S
H473 C409 0.929 . S
H474 C412 0.930 . S
H475 C415 0.929 . S
H476 C416 0.930 . S
H477 C420 0.962 . S
H478 C420 0.959 . S
H479 C420 0.958 . S
C480 C481 1.560 . S
C480 H541 0.959 . S
C480 H542 0.959 . S
C480 H543 0.960 . S
C481 C480 1.560 . S
C481 O536 1.426 . S
C481 H540 0.980 . S
C482 C483 1.407 . S
C482 C487 1.418 . S
C482 O536 1.334 . S
C483 C482 1.407 . S
C483 C484 1.360 . S
C483 H544 0.929 . S
C484 C483 1.360 . S
C484 C485 1.401 . S
C484 C488 1.527 . S
C485 C484 1.401 . S
C485 C486 1.405 . S
C485 C518 1.587 . S
C486 C485 1.405 . S
C486 C487 1.332 . S
C486 C489 1.496 . S
C487 C482 1.418 . S
C487 C486 1.332 . S
C487 H545 0.929 . S
C488 C484 1.527 . S
C488 H546 0.959 . S
C488 H547 0.961 . S
C488 H548 0.961 . S
C489 C486 1.496 . S
C489 H549 0.960 . S
C489 H550 0.960 . S
C489 H551 0.961 . S
C490 C491 1.517 . S
C490 H553 0.961 . S
C490 H554 0.960 . S
C490 H555 0.959 . S
C491 C490 1.517 . S
C491 O539 1.468 . S
C491 H552 0.980 . S
C492 C493 1.349 . S
C492 C497 1.367 . S
C492 O539 1.408 . S
C493 C492 1.349 . S
C493 C494 1.407 . S
C493 H556 0.930 . S
C494 C493 1.407 . S
C494 C495 1.449 . S
C494 C498 1.535 . S
C495 C494 1.449 . S
C495 C496 1.384 . S
C495 C520 1.553 . S
C496 C495 1.384 . S
C496 C497 1.364 . S
C496 C499 1.450 . S
C497 C492 1.367 . S
C497 C496 1.364 . S
C497 H557 0.931 . S
C498 C494 1.535 . S
C498 H558 0.959 . S
C498 H559 0.961 . S
C498 H560 0.959 . S
C499 C496 1.450 . S
C499 H561 0.960 . S
C499 H562 0.960 . S
C499 H563 0.960 . S
C500 C501 1.309 . S
C500 C505 1.304 . S
C500 O538 1.435 . S
C501 C500 1.309 . S
C501 C502 1.476 . S
C501 H565 0.930 . S
C502 C501 1.476 . S
C502 C503 1.400 . S
C502 C506 1.567 . S
C503 C502 1.400 . S
C503 C504 1.373 . S
C503 C525 1.432 . S
C504 C503 1.373 . S
C504 C505 1.339 . S
C504 C507 1.530 . S
C505 C500 1.304 . S
C505 C504 1.339 . S
C505 H566 0.930 . S
C506 C502 1.567 . S
C506 H567 0.961 . S
C506 H568 0.960 . S
C506 H569 0.958 . S
C507 C504 1.530 . S
C507 H570 0.961 . S
C507 H571 0.960 . S
C507 H572 0.960 . S
C508 C509 1.530 . S
C508 H574 0.961 . S
C508 H575 0.961 . S
C508 H576 0.959 . S
C509 C508 1.530 . S
C509 O537 1.412 . S
C509 H573 0.980 . S
C510 C511 1.288 . S
C510 C515 1.377 . S
C510 O537 1.393 . S
C511 C510 1.288 . S
C511 C512 1.369 . S
C511 H577 0.932 . S
C512 C511 1.369 . S
C512 C513 1.398 . S
C512 C516 1.527 . S
C513 C512 1.398 . S
C513 C514 1.380 . S
C513 C527 1.497 . S
C514 C513 1.380 . S
C514 C515 1.383 . S
C514 C517 1.603 . S
C515 C510 1.377 . S
C515 C514 1.383 . S
C515 H578 0.929 . S
C516 C512 1.527 . S
C516 H579 0.961 . S
C516 H580 0.959 . S
C516 H581 0.959 . S
C517 C514 1.603 . S
C517 H582 0.960 . S
C517 H583 0.962 . S
C517 H584 0.961 . S
C518 C485 1.587 . S
C518 C519 1.360 . S
C518 C531 1.412 . S
C519 C518 1.360 . S
C519 C520 1.365 . S
C519 H585 0.929 . S
C520 C495 1.553 . S
C520 C519 1.365 . S
C520 C521 1.404 . S
C521 C520 1.404 . S
C521 C522 1.395 . S
C521 C532 1.451 . S
C522 C521 1.395 . S
C522 C523 1.322 . S
C522 H586 0.930 . S
C523 C522 1.322 . S
C523 C524 1.459 . S
C523 H587 0.929 . S
C524 C523 1.459 . S
C524 C525 1.445 . S
C524 C533 1.395 . S
C525 C503 1.432 . S
C525 C524 1.445 . S
C525 C526 1.370 . S
C526 C525 1.370 . S
C526 C527 1.438 . S
C526 H588 0.930 . S
C527 C513 1.497 . S
C527 C526 1.438 . S
C527 C528 1.360 . S
C528 C527 1.360 . S
C528 C529 1.401 . S
C528 C533 1.446 . S
C529 C528 1.401 . S
C529 C530 1.347 . S
C529 H589 0.929 . S
C530 C529 1.347 . S
C530 C531 1.455 . S
C530 H590 0.930 . S
C531 C518 1.412 . S
C531 C530 1.455 . S
C531 C532 1.331 . S
C532 C521 1.451 . S
C532 C531 1.331 . S
C532 C533 1.497 . S
C533 C524 1.395 . S
C533 C528 1.446 . S
C533 C532 1.497 . S
C534 C535 1.582 . S
C534 H591 0.962 . S
C534 H592 0.959 . S
C534 H593 0.958 . S
C535 C534 1.582 . S
C535 O538 1.458 . S
C535 H564 0.980 . S
O536 C481 1.426 . S
O536 C482 1.334 . S
O537 C509 1.412 . S
O537 C510 1.393 . S
O538 C500 1.435 . S
O538 C535 1.458 . S
O539 C491 1.468 . S
O539 C492 1.408 . S
H540 C481 0.980 . S
H541 C480 0.959 . S
H542 C480 0.959 . S
H543 C480 0.960 . S
H544 C483 0.929 . S
H545 C487 0.929 . S
H546 C488 0.959 . S
H547 C488 0.961 . S
H548 C488 0.961 . S
H549 C489 0.960 . S
H550 C489 0.960 . S
H551 C489 0.961 . S
H552 C491 0.980 . S
H553 C490 0.961 . S
H554 C490 0.960 . S
H555 C490 0.959 . S
H556 C493 0.930 . S
H557 C497 0.931 . S
H558 C498 0.959 . S
H559 C498 0.961 . S
H560 C498 0.959 . S
H561 C499 0.960 . S
H562 C499 0.960 . S
H563 C499 0.960 . S
H564 C535 0.980 . S
H565 C501 0.930 . S
H566 C505 0.930 . S
H567 C506 0.961 . S
H568 C506 0.960 . S
H569 C506 0.958 . S
H570 C507 0.961 . S
H571 C507 0.960 . S
H572 C507 0.960 . S
H573 C509 0.980 . S
H574 C508 0.961 . S
H575 C508 0.961 . S
H576 C508 0.959 . S
H577 C511 0.932 . S
H578 C515 0.929 . S
H579 C516 0.961 . S
H580 C516 0.959 . S
H581 C516 0.959 . S
H582 C517 0.960 . S
H583 C517 0.962 . S
H584 C517 0.961 . S
H585 C519 0.929 . S
H586 C522 0.930 . S
H587 C523 0.929 . S
H588 C526 0.930 . S
H589 C529 0.929 . S
H590 C530 0.930 . S
H591 C534 0.962 . S
H592 C534 0.959 . S
H593 C534 0.958 . S
C594 C595 1.560 . S
C594 H655 0.959 . S
C594 H656 0.959 . S
C594 H657 0.960 . S
C595 C594 1.560 . S
C595 O650 1.426 . S
C595 H654 0.980 . S
C596 C597 1.407 . S
C596 C601 1.418 . S
C596 O650 1.334 . S
C597 C596 1.407 . S
C597 C598 1.360 . S
C597 H658 0.929 . S
C598 C597 1.360 . S
C598 C599 1.401 . S
C598 C602 1.527 . S
C599 C598 1.401 . S
C599 C600 1.405 . S
C599 C632 1.587 . S
C600 C599 1.405 . S
C600 C601 1.332 . S
C600 C603 1.496 . S
C601 C596 1.418 . S
C601 C600 1.332 . S
C601 H659 0.929 . S
C602 C598 1.527 . S
C602 H660 0.959 . S
C602 H661 0.961 . S
C602 H662 0.961 . S
C603 C600 1.496 . S
C603 H663 0.960 . S
C603 H664 0.960 . S
C603 H665 0.961 . S
C604 C605 1.517 . S
C604 H667 0.961 . S
C604 H668 0.960 . S
C604 H669 0.959 . S
C605 C604 1.517 . S
C605 O653 1.468 . S
C605 H666 0.980 . S
C606 C607 1.349 . S
C606 C611 1.367 . S
C606 O653 1.408 . S
C607 C606 1.349 . S
C607 C608 1.407 . S
C607 H670 0.930 . S
C608 C607 1.407 . S
C608 C609 1.449 . S
C608 C612 1.535 . S
C609 C608 1.449 . S
C609 C610 1.384 . S
C609 C634 1.553 . S
C610 C609 1.384 . S
C610 C611 1.364 . S
C610 C613 1.450 . S
C611 C606 1.367 . S
C611 C610 1.364 . S
C611 H671 0.931 . S
C612 C608 1.535 . S
C612 H672 0.959 . S
C612 H673 0.961 . S
C612 H674 0.959 . S
C613 C610 1.450 . S
C613 H675 0.960 . S
C613 H676 0.960 . S
C613 H677 0.960 . S
C614 C615 1.309 . S
C614 C619 1.304 . S
C614 O652 1.435 . S
C615 C614 1.309 . S
C615 C616 1.476 . S
C615 H679 0.930 . S
C616 C615 1.476 . S
C616 C617 1.400 . S
C616 C620 1.567 . S
C617 C616 1.400 . S
C617 C618 1.373 . S
C617 C639 1.432 . S
C618 C617 1.373 . S
C618 C619 1.339 . S
C618 C621 1.530 . S
C619 C614 1.304 . S
C619 C618 1.339 . S
C619 H680 0.930 . S
C620 C616 1.567 . S
C620 H681 0.961 . S
C620 H682 0.960 . S
C620 H683 0.958 . S
C621 C618 1.530 . S
C621 H684 0.961 . S
C621 H685 0.960 . S
C621 H686 0.960 . S
C622 C623 1.530 . S
C622 H688 0.961 . S
C622 H689 0.961 . S
C622 H690 0.959 . S
C623 C622 1.530 . S
C623 O651 1.412 . S
C623 H687 0.980 . S
C624 C625 1.288 . S
C624 C629 1.377 . S
C624 O651 1.393 . S
C625 C624 1.288 . S
C625 C626 1.369 . S
C625 H691 0.932 . S
C626 C625 1.369 . S
C626 C627 1.398 . S
C626 C630 1.527 . S
C627 C626 1.398 . S
C627 C628 1.380 . S
C627 C641 1.497 . S
C628 C627 1.380 . S
C628 C629 1.383 . S
C628 C631 1.603 . S
C629 C624 1.377 . S
C629 C628 1.383 . S
C629 H692 0.929 . S
C630 C626 1.527 . S
C630 H693 0.961 . S
C630 H694 0.959 . S
C630 H695 0.959 . S
C631 C628 1.603 . S
C631 H696 0.960 . S
C631 H697 0.962 . S
C631 H698 0.961 . S
C632 C599 1.587 . S
C632 C633 1.360 . S
C632 C645 1.412 . S
C633 C632 1.360 . S
C633 C634 1.365 . S
C633 H699 0.929 . S
C634 C609 1.553 . S
C634 C633 1.365 . S
C634 C635 1.404 . S
C635 C634 1.404 . S
C635 C636 1.395 . S
C635 C646 1.451 . S
C636 C635 1.395 . S
C636 C637 1.322 . S
C636 H700 0.930 . S
C637 C636 1.322 . S
C637 C638 1.459 . S
C637 H701 0.929 . S
C638 C637 1.459 . S
C638 C639 1.445 . S
C638 C647 1.395 . S
C639 C617 1.432 . S
C639 C638 1.445 . S
C639 C640 1.370 . S
C640 C639 1.370 . S
C640 C641 1.438 . S
C640 H702 0.930 . S
C641 C627 1.497 . S
C641 C640 1.438 . S
C641 C642 1.360 . S
C642 C641 1.360 . S
C642 C643 1.401 . S
C642 C647 1.446 . S
C643 C642 1.401 . S
C643 C644 1.347 . S
C643 H703 0.929 . S
C644 C643 1.347 . S
C644 C645 1.455 . S
C644 H704 0.930 . S
C645 C632 1.412 . S
C645 C644 1.455 . S
C645 C646 1.331 . S
C646 C635 1.451 . S
C646 C645 1.331 . S
C646 C647 1.497 . S
C647 C638 1.395 . S
C647 C642 1.446 . S
C647 C646 1.497 . S
C648 C649 1.582 . S
C648 H705 0.962 . S
C648 H706 0.959 . S
C648 H707 0.958 . S
C649 C648 1.582 . S
C649 O652 1.458 . S
C649 H678 0.980 . S
O650 C595 1.426 . S
O650 C596 1.334 . S
O651 C623 1.412 . S
O651 C624 1.393 . S
O652 C614 1.435 . S
O652 C649 1.458 . S
O653 C605 1.468 . S
O653 C606 1.408 . S
H654 C595 0.980 . S
H655 C594 0.959 . S
H656 C594 0.959 . S
H657 C594 0.960 . S
H658 C597 0.929 . S
H659 C601 0.929 . S
H660 C602 0.959 . S
H661 C602 0.961 . S
H662 C602 0.961 . S
H663 C603 0.960 . S
H664 C603 0.960 . S
H665 C603 0.961 . S
H666 C605 0.980 . S
H667 C604 0.961 . S
H668 C604 0.960 . S
H669 C604 0.959 . S
H670 C607 0.930 . S
H671 C611 0.931 . S
H672 C612 0.959 . S
H673 C612 0.961 . S
H674 C612 0.959 . S
H675 C613 0.960 . S
H676 C613 0.960 . S
H677 C613 0.960 . S
H678 C649 0.980 . S
H679 C615 0.930 . S
H680 C619 0.930 . S
H681 C620 0.961 . S
H682 C620 0.960 . S
H683 C620 0.958 . S
H684 C621 0.961 . S
H685 C621 0.960 . S
H686 C621 0.960 . S
H687 C623 0.980 . S
H688 C622 0.961 . S
H689 C622 0.961 . S
H690 C622 0.959 . S
H691 C625 0.932 . S
H692 C629 0.929 . S
H693 C630 0.961 . S
H694 C630 0.959 . S
H695 C630 0.959 . S
H696 C631 0.960 . S
H697 C631 0.962 . S
H698 C631 0.961 . S
H699 C633 0.929 . S
H700 C636 0.930 . S
H701 C637 0.929 . S
H702 C640 0.930 . S
H703 C643 0.929 . S
H704 C644 0.930 . S
H705 C648 0.962 . S
H706 C648 0.959 . S
H707 C648 0.958 . S
C708 C709 1.560 . S
C708 H769 0.959 . S
C708 H770 0.959 . S
C708 H771 0.960 . S
C709 C708 1.560 . S
C709 O764 1.426 . S
C709 H768 0.980 . S
C710 C711 1.407 . S
C710 C715 1.418 . S
C710 O764 1.334 . S
C711 C710 1.407 . S
C711 C712 1.360 . S
C711 H772 0.929 . S
C712 C711 1.360 . S
C712 C713 1.401 . S
C712 C716 1.527 . S
C713 C712 1.401 . S
C713 C714 1.405 . S
C713 C746 1.587 . S
C714 C713 1.405 . S
C714 C715 1.332 . S
C714 C717 1.496 . S
C715 C710 1.418 . S
C715 C714 1.332 . S
C715 H773 0.929 . S
C716 C712 1.527 . S
C716 H774 0.959 . S
C716 H775 0.961 . S
C716 H776 0.961 . S
C717 C714 1.496 . S
C717 H777 0.960 . S
C717 H778 0.960 . S
C717 H779 0.961 . S
C718 C719 1.517 . S
C718 H781 0.961 . S
C718 H782 0.960 . S
C718 H783 0.959 . S
C719 C718 1.517 . S
C719 O767 1.468 . S
C719 H780 0.980 . S
C720 C721 1.349 . S
C720 C725 1.367 . S
C720 O767 1.408 . S
C721 C720 1.349 . S
C721 C722 1.407 . S
C721 H784 0.930 . S
C722 C721 1.407 . S
C722 C723 1.449 . S
C722 C726 1.535 . S
C723 C722 1.449 . S
C723 C724 1.384 . S
C723 C748 1.553 . S
C724 C723 1.384 . S
C724 C725 1.364 . S
C724 C727 1.450 . S
C725 C720 1.367 . S
C725 C724 1.364 . S
C725 H785 0.931 . S
C726 C722 1.535 . S
C726 H786 0.959 . S
C726 H787 0.961 . S
C726 H788 0.959 . S
C727 C724 1.450 . S
C727 H789 0.960 . S
C727 H790 0.960 . S
C727 H791 0.960 . S
C728 C729 1.309 . S
C728 C733 1.304 . S
C728 O766 1.435 . S
C729 C728 1.309 . S
C729 C730 1.476 . S
C729 H793 0.930 . S
C730 C729 1.476 . S
C730 C731 1.400 . S
C730 C734 1.567 . S
C731 C730 1.400 . S
C731 C732 1.373 . S
C731 C753 1.432 . S
C732 C731 1.373 . S
C732 C733 1.339 . S
C732 C735 1.530 . S
C733 C728 1.304 . S
C733 C732 1.339 . S
C733 H794 0.930 . S
C734 C730 1.567 . S
C734 H795 0.961 . S
C734 H796 0.960 . S
C734 H797 0.958 . S
C735 C732 1.530 . S
C735 H798 0.961 . S
C735 H799 0.960 . S
C735 H800 0.960 . S
C736 C737 1.530 . S
C736 H802 0.961 . S
C736 H803 0.961 . S
C736 H804 0.959 . S
C737 C736 1.530 . S
C737 O765 1.412 . S
C737 H801 0.980 . S
C738 C739 1.288 . S
C738 C743 1.377 . S
C738 O765 1.393 . S
C739 C738 1.288 . S
C739 C740 1.369 . S
C739 H805 0.932 . S
C740 C739 1.369 . S
C740 C741 1.398 . S
C740 C744 1.527 . S
C741 C740 1.398 . S
C741 C742 1.380 . S
C741 C755 1.497 . S
C742 C741 1.380 . S
C742 C743 1.383 . S
C742 C745 1.603 . S
C743 C738 1.377 . S
C743 C742 1.383 . S
C743 H806 0.929 . S
C744 C740 1.527 . S
C744 H807 0.961 . S
C744 H808 0.959 . S
C744 H809 0.959 . S
C745 C742 1.603 . S
C745 H810 0.960 . S
C745 H811 0.962 . S
C745 H812 0.961 . S
C746 C713 1.587 . S
C746 C747 1.360 . S
C746 C759 1.412 . S
C747 C746 1.360 . S
C747 C748 1.365 . S
C747 H813 0.929 . S
C748 C723 1.553 . S
C748 C747 1.365 . S
C748 C749 1.404 . S
C749 C748 1.404 . S
C749 C750 1.395 . S
C749 C760 1.451 . S
C750 C749 1.395 . S
C750 C751 1.322 . S
C750 H814 0.930 . S
C751 C750 1.322 . S
C751 C752 1.459 . S
C751 H815 0.929 . S
C752 C751 1.459 . S
C752 C753 1.445 . S
C752 C761 1.395 . S
C753 C731 1.432 . S
C753 C752 1.445 . S
C753 C754 1.370 . S
C754 C753 1.370 . S
C754 C755 1.438 . S
C754 H816 0.930 . S
C755 C741 1.497 . S
C755 C754 1.438 . S
C755 C756 1.360 . S
C756 C755 1.360 . S
C756 C757 1.401 . S
C756 C761 1.446 . S
C757 C756 1.401 . S
C757 C758 1.347 . S
C757 H817 0.929 . S
C758 C757 1.347 . S
C758 C759 1.455 . S
C758 H818 0.930 . S
C759 C746 1.412 . S
C759 C758 1.455 . S
C759 C760 1.331 . S
C760 C749 1.451 . S
C760 C759 1.331 . S
C760 C761 1.497 . S
C761 C752 1.395 . S
C761 C756 1.446 . S
C761 C760 1.497 . S
C762 C763 1.582 . S
C762 H819 0.962 . S
C762 H820 0.959 . S
C762 H821 0.958 . S
C763 C762 1.582 . S
C763 O766 1.458 . S
C763 H792 0.980 . S
O764 C709 1.426 . S
O764 C710 1.334 . S
O765 C737 1.412 . S
O765 C738 1.393 . S
O766 C728 1.435 . S
O766 C763 1.458 . S
O767 C719 1.468 . S
O767 C720 1.408 . S
H768 C709 0.980 . S
H769 C708 0.959 . S
H770 C708 0.959 . S
H771 C708 0.960 . S
H772 C711 0.929 . S
H773 C715 0.929 . S
H774 C716 0.959 . S
H775 C716 0.961 . S
H776 C716 0.961 . S
H777 C717 0.960 . S
H778 C717 0.960 . S
H779 C717 0.961 . S
H780 C719 0.980 . S
H781 C718 0.961 . S
H782 C718 0.960 . S
H783 C718 0.959 . S
H784 C721 0.930 . S
H785 C725 0.931 . S
H786 C726 0.959 . S
H787 C726 0.961 . S
H788 C726 0.959 . S
H789 C727 0.960 . S
H790 C727 0.960 . S
H791 C727 0.960 . S
H792 C763 0.980 . S
H793 C729 0.930 . S
H794 C733 0.930 . S
H795 C734 0.961 . S
H796 C734 0.960 . S
H797 C734 0.958 . S
H798 C735 0.961 . S
H799 C735 0.960 . S
H800 C735 0.960 . S
H801 C737 0.980 . S
H802 C736 0.961 . S
H803 C736 0.961 . S
H804 C736 0.959 . S
H805 C739 0.932 . S
H806 C743 0.929 . S
H807 C744 0.961 . S
H808 C744 0.959 . S
H809 C744 0.959 . S
H810 C745 0.960 . S
H811 C745 0.962 . S
H812 C745 0.961 . S
H813 C747 0.929 . S
H814 C750 0.930 . S
H815 C751 0.929 . S
H816 C754 0.930 . S
H817 C757 0.929 . S
H818 C758 0.930 . S
H819 C762 0.962 . S
H820 C762 0.959 . S
H821 C762 0.958 . S
C822 C823 1.560 . S
C822 H883 0.959 . S
C822 H884 0.959 . S
C822 H885 0.960 . S
C823 C822 1.560 . S
C823 O878 1.426 . S
C823 H882 0.980 . S
C824 C825 1.407 . S
C824 C829 1.418 . S
C824 O878 1.334 . S
C825 C824 1.407 . S
C825 C826 1.360 . S
C825 H886 0.929 . S
C826 C825 1.360 . S
C826 C827 1.401 . S
C826 C830 1.527 . S
C827 C826 1.401 . S
C827 C828 1.405 . S
C827 C860 1.587 . S
C828 C827 1.405 . S
C828 C829 1.332 . S
C828 C831 1.496 . S
C829 C824 1.418 . S
C829 C828 1.332 . S
C829 H887 0.929 . S
C830 C826 1.527 . S
C830 H888 0.959 . S
C830 H889 0.961 . S
C830 H890 0.961 . S
C831 C828 1.496 . S
C831 H891 0.960 . S
C831 H892 0.960 . S
C831 H893 0.961 . S
C832 C833 1.517 . S
C832 H895 0.961 . S
C832 H896 0.960 . S
C832 H897 0.959 . S
C833 C832 1.517 . S
C833 O881 1.468 . S
C833 H894 0.980 . S
C834 C835 1.349 . S
C834 C839 1.367 . S
C834 O881 1.408 . S
C835 C834 1.349 . S
C835 C836 1.407 . S
C835 H898 0.930 . S
C836 C835 1.407 . S
C836 C837 1.449 . S
C836 C840 1.535 . S
C837 C836 1.449 . S
C837 C838 1.384 . S
C837 C862 1.553 . S
C838 C837 1.384 . S
C838 C839 1.364 . S
C838 C841 1.450 . S
C839 C834 1.367 . S
C839 C838 1.364 . S
C839 H899 0.931 . S
C840 C836 1.535 . S
C840 H900 0.959 . S
C840 H901 0.961 . S
C840 H902 0.959 . S
C841 C838 1.450 . S
C841 H903 0.960 . S
C841 H904 0.960 . S
C841 H905 0.960 . S
C842 C843 1.309 . S
C842 C847 1.304 . S
C842 O880 1.435 . S
C843 C842 1.309 . S
C843 C844 1.476 . S
C843 H907 0.930 . S
C844 C843 1.476 . S
C844 C845 1.400 . S
C844 C848 1.567 . S
C845 C844 1.400 . S
C845 C846 1.373 . S
C845 C867 1.432 . S
C846 C845 1.373 . S
C846 C847 1.339 . S
C846 C849 1.530 . S
C847 C842 1.304 . S
C847 C846 1.339 . S
C847 H908 0.930 . S
C848 C844 1.567 . S
C848 H909 0.961 . S
C848 H910 0.960 . S
C848 H911 0.958 . S
C849 C846 1.530 . S
C849 H912 0.961 . S
C849 H913 0.960 . S
C849 H914 0.960 . S
C850 C851 1.530 . S
C850 H916 0.961 . S
C850 H917 0.961 . S
C850 H918 0.959 . S
C851 C850 1.530 . S
C851 O879 1.412 . S
C851 H915 0.980 . S
C852 C853 1.288 . S
C852 C857 1.377 . S
C852 O879 1.393 . S
C853 C852 1.288 . S
C853 C854 1.369 . S
C853 H919 0.932 . S
C854 C853 1.369 . S
C854 C855 1.398 . S
C854 C858 1.527 . S
C855 C854 1.398 . S
C855 C856 1.380 . S
C855 C869 1.497 . S
C856 C855 1.380 . S
C856 C857 1.383 . S
C856 C859 1.603 . S
C857 C852 1.377 . S
C857 C856 1.383 . S
C857 H920 0.929 . S
C858 C854 1.527 . S
C858 H921 0.961 . S
C858 H922 0.959 . S
C858 H923 0.959 . S
C859 C856 1.603 . S
C859 H924 0.960 . S
C859 H925 0.962 . S
C859 H926 0.961 . S
C860 C827 1.587 . S
C860 C861 1.360 . S
C860 C873 1.412 . S
C861 C860 1.360 . S
C861 C862 1.365 . S
C861 H927 0.929 . S
C862 C837 1.553 . S
C862 C861 1.365 . S
C862 C863 1.404 . S
C863 C862 1.404 . S
C863 C864 1.395 . S
C863 C874 1.451 . S
C864 C863 1.395 . S
C864 C865 1.322 . S
C864 H928 0.930 . S
C865 C864 1.322 . S
C865 C866 1.459 . S
C865 H929 0.929 . S
C866 C865 1.459 . S
C866 C867 1.445 . S
C866 C875 1.395 . S
C867 C845 1.432 . S
C867 C866 1.445 . S
C867 C868 1.370 . S
C868 C867 1.370 . S
C868 C869 1.438 . S
C868 H930 0.930 . S
C869 C855 1.497 . S
C869 C868 1.438 . S
C869 C870 1.360 . S
C870 C869 1.360 . S
C870 C871 1.401 . S
C870 C875 1.446 . S
C871 C870 1.401 . S
C871 C872 1.347 . S
C871 H931 0.929 . S
C872 C871 1.347 . S
C872 C873 1.455 . S
C872 H932 0.930 . S
C873 C860 1.412 . S
C873 C872 1.455 . S
C873 C874 1.331 . S
C874 C863 1.451 . S
C874 C873 1.331 . S
C874 C875 1.497 . S
C875 C866 1.395 . S
C875 C870 1.446 . S
C875 C874 1.497 . S
C876 C877 1.582 . S
C876 H933 0.962 . S
C876 H934 0.959 . S
C876 H935 0.958 . S
C877 C876 1.582 . S
C877 O880 1.458 . S
C877 H906 0.980 . S
O878 C823 1.426 . S
O878 C824 1.334 . S
O879 C851 1.412 . S
O879 C852 1.393 . S
O880 C842 1.435 . S
O880 C877 1.458 . S
O881 C833 1.468 . S
O881 C834 1.408 . S
H882 C823 0.980 . S
H883 C822 0.959 . S
H884 C822 0.959 . S
H885 C822 0.960 . S
H886 C825 0.929 . S
H887 C829 0.929 . S
H888 C830 0.959 . S
H889 C830 0.961 . S
H890 C830 0.961 . S
H891 C831 0.960 . S
H892 C831 0.960 . S
H893 C831 0.961 . S
H894 C833 0.980 . S
H895 C832 0.961 . S
H896 C832 0.960 . S
H897 C832 0.959 . S
H898 C835 0.930 . S
H899 C839 0.931 . S
H900 C840 0.959 . S
H901 C840 0.961 . S
H902 C840 0.959 . S
H903 C841 0.960 . S
H904 C841 0.960 . S
H905 C841 0.960 . S
H906 C877 0.980 . S
H907 C843 0.930 . S
H908 C847 0.930 . S
H909 C848 0.961 . S
H910 C848 0.960 . S
H911 C848 0.958 . S
H912 C849 0.961 . S
H913 C849 0.960 . S
H914 C849 0.960 . S
H915 C851 0.980 . S
H916 C850 0.961 . S
H917 C850 0.961 . S
H918 C850 0.959 . S
H919 C853 0.932 . S
H920 C857 0.929 . S
H921 C858 0.961 . S
H922 C858 0.959 . S
H923 C858 0.959 . S
H924 C859 0.960 . S
H925 C859 0.962 . S
H926 C859 0.961 . S
H927 C861 0.929 . S
H928 C864 0.930 . S
H929 C865 0.929 . S
H930 C868 0.930 . S
H931 C871 0.929 . S
H932 C872 0.930 . S
H933 C876 0.962 . S
H934 C876 0.959 . S
H935 C876 0.958 . S
C936 C937 1.560 . S
C936 H997 0.959 . S
C936 H998 0.959 . S
C936 H999 0.960 . S
C937 C936 1.560 . S
C937 O992 1.426 . S
C937 H996 0.980 . S
C938 C939 1.407 . S
C938 C943 1.418 . S
C938 O992 1.334 . S
C939 C938 1.407 . S
C939 C940 1.360 . S
C939 H1000 0.929 . S
C940 C939 1.360 . S
C940 C941 1.401 . S
C940 C944 1.527 . S
C941 C940 1.401 . S
C941 C942 1.405 . S
C941 C974 1.587 . S
C942 C941 1.405 . S
C942 C943 1.332 . S
C942 C945 1.496 . S
C943 C938 1.418 . S
C943 C942 1.332 . S
C943 H1001 0.929 . S
C944 C940 1.527 . S
C944 H1002 0.959 . S
C944 H1003 0.961 . S
C944 H1004 0.961 . S
C945 C942 1.496 . S
C945 H1005 0.960 . S
C945 H1006 0.960 . S
C945 H1007 0.961 . S
C946 C947 1.517 . S
C946 H1009 0.961 . S
C946 H1010 0.960 . S
C946 H1011 0.959 . S
C947 C946 1.517 . S
C947 O995 1.468 . S
C947 H1008 0.980 . S
C948 C949 1.349 . S
C948 C953 1.367 . S
C948 O995 1.408 . S
C949 C948 1.349 . S
C949 C950 1.407 . S
C949 H1012 0.930 . S
C950 C949 1.407 . S
C950 C951 1.449 . S
C950 C954 1.535 . S
C951 C950 1.449 . S
C951 C952 1.384 . S
C951 C976 1.553 . S
C952 C951 1.384 . S
C952 C953 1.364 . S
C952 C955 1.450 . S
C953 C948 1.367 . S
C953 C952 1.364 . S
C953 H1013 0.931 . S
C954 C950 1.535 . S
C954 H1014 0.959 . S
C954 H1015 0.961 . S
C954 H1016 0.959 . S
C955 C952 1.450 . S
C955 H1017 0.960 . S
C955 H1018 0.960 . S
C955 H1019 0.960 . S
C956 C957 1.309 . S
C956 C961 1.304 . S
C956 O994 1.435 . S
C957 C956 1.309 . S
C957 C958 1.476 . S
C957 H1021 0.930 . S
C958 C957 1.476 . S
C958 C959 1.400 . S
C958 C962 1.567 . S
C959 C958 1.400 . S
C959 C960 1.373 . S
C959 C981 1.432 . S
C960 C959 1.373 . S
C960 C961 1.339 . S
C960 C963 1.530 . S
C961 C956 1.304 . S
C961 C960 1.339 . S
C961 H1022 0.930 . S
C962 C958 1.567 . S
C962 H1023 0.961 . S
C962 H1024 0.960 . S
C962 H1025 0.958 . S
C963 C960 1.530 . S
C963 H1026 0.961 . S
C963 H1027 0.960 . S
C963 H1028 0.960 . S
C964 C965 1.530 . S
C964 H1030 0.961 . S
C964 H1031 0.961 . S
C964 H1032 0.959 . S
C965 C964 1.530 . S
C965 O993 1.412 . S
C965 H1029 0.980 . S
C966 C967 1.288 . S
C966 C971 1.377 . S
C966 O993 1.393 . S
C967 C966 1.288 . S
C967 C968 1.369 . S
C967 H1033 0.932 . S
C968 C967 1.369 . S
C968 C969 1.398 . S
C968 C972 1.527 . S
C969 C968 1.398 . S
C969 C970 1.380 . S
C969 C983 1.497 . S
C970 C969 1.380 . S
C970 C971 1.383 . S
C970 C973 1.603 . S
C971 C966 1.377 . S
C971 C970 1.383 . S
C971 H1034 0.929 . S
C972 C968 1.527 . S
C972 H1035 0.961 . S
C972 H1036 0.959 . S
C972 H1037 0.959 . S
C973 C970 1.603 . S
C973 H1038 0.960 . S
C973 H1039 0.962 . S
C973 H1040 0.961 . S
C974 C941 1.587 . S
C974 C975 1.360 . S
C974 C987 1.412 . S
C975 C974 1.360 . S
C975 C976 1.365 . S
C975 H1041 0.929 . S
C976 C951 1.553 . S
C976 C975 1.365 . S
C976 C977 1.404 . S
C977 C976 1.404 . S
C977 C978 1.395 . S
C977 C988 1.451 . S
C978 C977 1.395 . S
C978 C979 1.322 . S
C978 H1042 0.930 . S
C979 C978 1.322 . S
C979 C980 1.459 . S
C979 H1043 0.929 . S
C980 C979 1.459 . S
C980 C981 1.445 . S
C980 C989 1.395 . S
C981 C959 1.432 . S
C981 C980 1.445 . S
C981 C982 1.370 . S
C982 C981 1.370 . S
C982 C983 1.438 . S
C982 H1044 0.930 . S
C983 C969 1.497 . S
C983 C982 1.438 . S
C983 C984 1.360 . S
C984 C983 1.360 . S
C984 C985 1.401 . S
C984 C989 1.446 . S
C985 C984 1.401 . S
C985 C986 1.347 . S
C985 H1045 0.929 . S
C986 C985 1.347 . S
C986 C987 1.455 . S
C986 H1046 0.930 . S
C987 C974 1.412 . S
C987 C986 1.455 . S
C987 C988 1.331 . S
C988 C977 1.451 . S
C988 C987 1.331 . S
C988 C989 1.497 . S
C989 C980 1.395 . S
C989 C984 1.446 . S
C989 C988 1.497 . S
C990 C991 1.582 . S
C990 H1047 0.962 . S
C990 H1048 0.959 . S
C990 H1049 0.958 . S
C991 C990 1.582 . S
C991 O994 1.458 . S
C991 H1020 0.980 . S
O992 C937 1.426 . S
O992 C938 1.334 . S
O993 C965 1.412 . S
O993 C966 1.393 . S
O994 C956 1.435 . S
O994 C991 1.458 . S
O995 C947 1.468 . S
O995 C948 1.408 . S
H996 C937 0.980 . S
H997 C936 0.959 . S
H998 C936 0.959 . S
H999 C936 0.960 . S
H1000 C939 0.929 . S
H1001 C943 0.929 . S
H1002 C944 0.959 . S
H1003 C944 0.961 . S
H1004 C944 0.961 . S
H1005 C945 0.960 . S
H1006 C945 0.960 . S
H1007 C945 0.961 . S
H1008 C947 0.980 . S
H1009 C946 0.961 . S
H1010 C946 0.960 . S
H1011 C946 0.959 . S
H1012 C949 0.930 . S
H1013 C953 0.931 . S
H1014 C954 0.959 . S
H1015 C954 0.961 . S
H1016 C954 0.959 . S
H1017 C955 0.960 . S
H1018 C955 0.960 . S
H1019 C955 0.960 . S
H1020 C991 0.980 . S
H1021 C957 0.930 . S
H1022 C961 0.930 . S
H1023 C962 0.961 . S
H1024 C962 0.960 . S
H1025 C962 0.958 . S
H1026 C963 0.961 . S
H1027 C963 0.960 . S
H1028 C963 0.960 . S
H1029 C965 0.980 . S
H1030 C964 0.961 . S
H1031 C964 0.961 . S
H1032 C964 0.959 . S
H1033 C967 0.932 . S
H1034 C971 0.929 . S
H1035 C972 0.961 . S
H1036 C972 0.959 . S
H1037 C972 0.959 . S
H1038 C973 0.960 . S
H1039 C973 0.962 . S
H1040 C973 0.961 . S
H1041 C975 0.929 . S
H1042 C978 0.930 . S
H1043 C979 0.929 . S
H1044 C982 0.930 . S
H1045 C985 0.929 . S
H1046 C986 0.930 . S
H1047 C990 0.962 . S
H1048 C990 0.959 . S
H1049 C990 0.958 . S
C1050 C1051 1.560 . S
C1050 H1111 0.959 . S
C1050 H1112 0.959 . S
C1050 H1113 0.960 . S
C1051 C1050 1.560 . S
C1051 O1106 1.426 . S
C1051 H1110 0.980 . S
C1052 C1053 1.407 . S
C1052 C1057 1.418 . S
C1052 O1106 1.334 . S
C1053 C1052 1.407 . S
C1053 C1054 1.360 . S
C1053 H1114 0.929 . S
C1054 C1053 1.360 . S
C1054 C1055 1.401 . S
C1054 C1058 1.527 . S
C1055 C1054 1.401 . S
C1055 C1056 1.405 . S
C1055 C1088 1.587 . S
C1056 C1055 1.405 . S
C1056 C1057 1.332 . S
C1056 C1059 1.496 . S
C1057 C1052 1.418 . S
C1057 C1056 1.332 . S
C1057 H1115 0.929 . S
C1058 C1054 1.527 . S
C1058 H1116 0.959 . S
C1058 H1117 0.961 . S
C1058 H1118 0.961 . S
C1059 C1056 1.496 . S
C1059 H1119 0.960 . S
C1059 H1120 0.960 . S
C1059 H1121 0.961 . S
C1060 C1061 1.517 . S
C1060 H1123 0.961 . S
C1060 H1124 0.960 . S
C1060 H1125 0.959 . S
C1061 C1060 1.517 . S
C1061 O1109 1.468 . S
C1061 H1122 0.980 . S
C1062 C1063 1.349 . S
C1062 C1067 1.367 . S
C1062 O1109 1.408 . S
C1063 C1062 1.349 . S
C1063 C1064 1.407 . S
C1063 H1126 0.930 . S
C1064 C1063 1.407 . S
C1064 C1065 1.449 . S
C1064 C1068 1.535 . S
C1065 C1064 1.449 . S
C1065 C1066 1.384 . S
C1065 C1090 1.553 . S
C1066 C1065 1.384 . S
C1066 C1067 1.364 . S
C1066 C1069 1.450 . S
C1067 C1062 1.367 . S
C1067 C1066 1.364 . S
C1067 H1127 0.931 . S
C1068 C1064 1.535 . S
C1068 H1128 0.959 . S
C1068 H1129 0.961 . S
C1068 H1130 0.959 . S
C1069 C1066 1.450 . S
C1069 H1131 0.960 . S
C1069 H1132 0.960 . S
C1069 H1133 0.960 . S
C1070 C1071 1.309 . S
C1070 C1075 1.304 . S
C1070 O1108 1.435 . S
C1071 C1070 1.309 . S
C1071 C1072 1.476 . S
C1071 H1135 0.930 . S
C1072 C1071 1.476 . S
C1072 C1073 1.400 . S
C1072 C1076 1.567 . S
C1073 C1072 1.400 . S
C1073 C1074 1.373 . S
C1073 C1095 1.432 . S
C1074 C1073 1.373 . S
C1074 C1075 1.339 . S
C1074 C1077 1.530 . S
C1075 C1070 1.304 . S
C1075 C1074 1.339 . S
C1075 H1136 0.930 . S
C1076 C1072 1.567 . S
C1076 H1137 0.961 . S
C1076 H1138 0.960 . S
C1076 H1139 0.958 . S
C1077 C1074 1.530 . S
C1077 H1140 0.961 . S
C1077 H1141 0.960 . S
C1077 H1142 0.960 . S
C1078 C1079 1.530 . S
C1078 H1144 0.961 . S
C1078 H1145 0.961 . S
C1078 H1146 0.959 . S
C1079 C1078 1.530 . S
C1079 O1107 1.412 . S
C1079 H1143 0.980 . S
C1080 C1081 1.288 . S
C1080 C1085 1.377 . S
C1080 O1107 1.393 . S
C1081 C1080 1.288 . S
C1081 C1082 1.369 . S
C1081 H1147 0.932 . S
C1082 C1081 1.369 . S
C1082 C1083 1.398 . S
C1082 C1086 1.527 . S
C1083 C1082 1.398 . S
C1083 C1084 1.380 . S
C1083 C1097 1.497 . S
C1084 C1083 1.380 . S
C1084 C1085 1.383 . S
C1084 C1087 1.603 . S
C1085 C1080 1.377 . S
C1085 C1084 1.383 . S
C1085 H1148 0.929 . S
C1086 C1082 1.527 . S
C1086 H1149 0.961 . S
C1086 H1150 0.959 . S
C1086 H1151 0.959 . S
C1087 C1084 1.603 . S
C1087 H1152 0.960 . S
C1087 H1153 0.962 . S
C1087 H1154 0.961 . S
C1088 C1055 1.587 . S
C1088 C1089 1.360 . S
C1088 C1101 1.412 . S
C1089 C1088 1.360 . S
C1089 C1090 1.365 . S
C1089 H1155 0.929 . S
C1090 C1065 1.553 . S
C1090 C1089 1.365 . S
C1090 C1091 1.404 . S
C1091 C1090 1.404 . S
C1091 C1092 1.395 . S
C1091 C1102 1.451 . S
C1092 C1091 1.395 . S
C1092 C1093 1.322 . S
C1092 H1156 0.930 . S
C1093 C1092 1.322 . S
C1093 C1094 1.459 . S
C1093 H1157 0.929 . S
C1094 C1093 1.459 . S
C1094 C1095 1.445 . S
C1094 C1103 1.395 . S
C1095 C1073 1.432 . S
C1095 C1094 1.445 . S
C1095 C1096 1.370 . S
C1096 C1095 1.370 . S
C1096 C1097 1.438 . S
C1096 H1158 0.930 . S
C1097 C1083 1.497 . S
C1097 C1096 1.438 . S
C1097 C1098 1.360 . S
C1098 C1097 1.360 . S
C1098 C1099 1.401 . S
C1098 C1103 1.446 . S
C1099 C1098 1.401 . S
C1099 C1100 1.347 . S
C1099 H1159 0.929 . S
C1100 C1099 1.347 . S
C1100 C1101 1.455 . S
C1100 H1160 0.930 . S
C1101 C1088 1.412 . S
C1101 C1100 1.455 . S
C1101 C1102 1.331 . S
C1102 C1091 1.451 . S
C1102 C1101 1.331 . S
C1102 C1103 1.497 . S
C1103 C1094 1.395 . S
C1103 C1098 1.446 . S
C1103 C1102 1.497 . S
C1104 C1105 1.582 . S
C1104 H1161 0.962 . S
C1104 H1162 0.959 . S
C1104 H1163 0.958 . S
C1105 C1104 1.582 . S
C1105 O1108 1.458 . S
C1105 H1134 0.980 . S
O1106 C1051 1.426 . S
O1106 C1052 1.334 . S
O1107 C1079 1.412 . S
O1107 C1080 1.393 . S
O1108 C1070 1.435 . S
O1108 C1105 1.458 . S
O1109 C1061 1.468 . S
O1109 C1062 1.408 . S
H1110 C1051 0.980 . S
H1111 C1050 0.959 . S
H1112 C1050 0.959 . S
H1113 C1050 0.960 . S
H1114 C1053 0.929 . S
H1115 C1057 0.929 . S
H1116 C1058 0.959 . S
H1117 C1058 0.961 . S
H1118 C1058 0.961 . S
H1119 C1059 0.960 . S
H1120 C1059 0.960 . S
H1121 C1059 0.961 . S
H1122 C1061 0.980 . S
H1123 C1060 0.961 . S
H1124 C1060 0.960 . S
H1125 C1060 0.959 . S
H1126 C1063 0.930 . S
H1127 C1067 0.931 . S
H1128 C1068 0.959 . S
H1129 C1068 0.961 . S
H1130 C1068 0.959 . S
H1131 C1069 0.960 . S
H1132 C1069 0.960 . S
H1133 C1069 0.960 . S
H1134 C1105 0.980 . S
H1135 C1071 0.930 . S
H1136 C1075 0.930 . S
H1137 C1076 0.961 . S
H1138 C1076 0.960 . S
H1139 C1076 0.958 . S
H1140 C1077 0.961 . S
H1141 C1077 0.960 . S
H1142 C1077 0.960 . S
H1143 C1079 0.980 . S
H1144 C1078 0.961 . S
H1145 C1078 0.961 . S
H1146 C1078 0.959 . S
H1147 C1081 0.932 . S
H1148 C1085 0.929 . S
H1149 C1086 0.961 . S
H1150 C1086 0.959 . S
H1151 C1086 0.959 . S
H1152 C1087 0.960 . S
H1153 C1087 0.962 . S
H1154 C1087 0.961 . S
H1155 C1089 0.929 . S
H1156 C1092 0.930 . S
H1157 C1093 0.929 . S
H1158 C1096 0.930 . S
H1159 C1099 0.929 . S
H1160 C1100 0.930 . S
H1161 C1104 0.962 . S
H1162 C1104 0.959 . S
H1163 C1104 0.958 . S
C1164 C1165 1.560 . S
C1164 H1225 0.959 . S
C1164 H1226 0.959 . S
C1164 H1227 0.960 . S
C1165 C1164 1.560 . S
C1165 O1220 1.426 . S
C1165 H1224 0.980 . S
C1166 C1167 1.407 . S
C1166 C1171 1.418 . S
C1166 O1220 1.334 . S
C1167 C1166 1.407 . S
C1167 C1168 1.360 . S
C1167 H1228 0.929 . S
C1168 C1167 1.360 . S
C1168 C1169 1.401 . S
C1168 C1172 1.527 . S
C1169 C1168 1.401 . S
C1169 C1170 1.405 . S
C1169 C1202 1.587 . S
C1170 C1169 1.405 . S
C1170 C1171 1.332 . S
C1170 C1173 1.496 . S
C1171 C1166 1.418 . S
C1171 C1170 1.332 . S
C1171 H1229 0.929 . S
C1172 C1168 1.527 . S
C1172 H1230 0.959 . S
C1172 H1231 0.961 . S
C1172 H1232 0.961 . S
C1173 C1170 1.496 . S
C1173 H1233 0.960 . S
C1173 H1234 0.960 . S
C1173 H1235 0.961 . S
C1174 C1175 1.517 . S
C1174 H1237 0.961 . S
C1174 H1238 0.960 . S
C1174 H1239 0.959 . S
C1175 C1174 1.517 . S
C1175 O1223 1.468 . S
C1175 H1236 0.980 . S
C1176 C1177 1.349 . S
C1176 C1181 1.367 . S
C1176 O1223 1.408 . S
C1177 C1176 1.349 . S
C1177 C1178 1.407 . S
C1177 H1240 0.930 . S
C1178 C1177 1.407 . S
C1178 C1179 1.449 . S
C1178 C1182 1.535 . S
C1179 C1178 1.449 . S
C1179 C1180 1.384 . S
C1179 C1204 1.553 . S
C1180 C1179 1.384 . S
C1180 C1181 1.364 . S
C1180 C1183 1.450 . S
C1181 C1176 1.367 . S
C1181 C1180 1.364 . S
C1181 H1241 0.931 . S
C1182 C1178 1.535 . S
C1182 H1242 0.959 . S
C1182 H1243 0.961 . S
C1182 H1244 0.959 . S
C1183 C1180 1.450 . S
C1183 H1245 0.960 . S
C1183 H1246 0.960 . S
C1183 H1247 0.960 . S
C1184 C1185 1.309 . S
C1184 C1189 1.304 . S
C1184 O1222 1.435 . S
C1185 C1184 1.309 . S
C1185 C1186 1.476 . S
C1185 H1249 0.930 . S
C1186 C1185 1.476 . S
C1186 C1187 1.400 . S
C1186 C1190 1.567 . S
C1187 C1186 1.400 . S
C1187 C1188 1.373 . S
C1187 C1209 1.432 . S
C1188 C1187 1.373 . S
C1188 C1189 1.339 . S
C1188 C1191 1.530 . S
C1189 C1184 1.304 . S
C1189 C1188 1.339 . S
C1189 H1250 0.930 . S
C1190 C1186 1.567 . S
C1190 H1251 0.961 . S
C1190 H1252 0.960 . S
C1190 H1253 0.958 . S
C1191 C1188 1.530 . S
C1191 H1254 0.961 . S
C1191 H1255 0.960 . S
C1191 H1256 0.960 . S
C1192 C1193 1.530 . S
C1192 H1258 0.961 . S
C1192 H1259 0.961 . S
C1192 H1260 0.959 . S
C1193 C1192 1.530 . S
C1193 O1221 1.412 . S
C1193 H1257 0.980 . S
C1194 C1195 1.288 . S
C1194 C1199 1.377 . S
C1194 O1221 1.393 . S
C1195 C1194 1.288 . S
C1195 C1196 1.369 . S
C1195 H1261 0.932 . S
C1196 C1195 1.369 . S
C1196 C1197 1.398 . S
C1196 C1200 1.527 . S
C1197 C1196 1.398 . S
C1197 C1198 1.380 . S
C1197 C1211 1.497 . S
C1198 C1197 1.380 . S
C1198 C1199 1.383 . S
C1198 C1201 1.603 . S
C1199 C1194 1.377 . S
C1199 C1198 1.383 . S
C1199 H1262 0.929 . S
C1200 C1196 1.527 . S
C1200 H1263 0.961 . S
C1200 H1264 0.959 . S
C1200 H1265 0.959 . S
C1201 C1198 1.603 . S
C1201 H1266 0.960 . S
C1201 H1267 0.962 . S
C1201 H1268 0.961 . S
C1202 C1169 1.587 . S
C1202 C1203 1.360 . S
C1202 C1215 1.412 . S
C1203 C1202 1.360 . S
C1203 C1204 1.365 . S
C1203 H1269 0.929 . S
C1204 C1179 1.553 . S
C1204 C1203 1.365 . S
C1204 C1205 1.404 . S
C1205 C1204 1.404 . S
C1205 C1206 1.395 . S
C1205 C1216 1.451 . S
C1206 C1205 1.395 . S
C1206 C1207 1.322 . S
C1206 H1270 0.930 . S
C1207 C1206 1.322 . S
C1207 C1208 1.459 . S
C1207 H1271 0.929 . S
C1208 C1207 1.459 . S
C1208 C1209 1.445 . S
C1208 C1217 1.395 . S
C1209 C1187 1.432 . S
C1209 C1208 1.445 . S
C1209 C1210 1.370 . S
C1210 C1209 1.370 . S
C1210 C1211 1.438 . S
C1210 H1272 0.930 . S
C1211 C1197 1.497 . S
C1211 C1210 1.438 . S
C1211 C1212 1.360 . S
C1212 C1211 1.360 . S
C1212 C1213 1.401 . S
C1212 C1217 1.446 . S
C1213 C1212 1.401 . S
C1213 C1214 1.347 . S
C1213 H1273 0.929 . S
C1214 C1213 1.347 . S
C1214 C1215 1.455 . S
C1214 H1274 0.930 . S
C1215 C1202 1.412 . S
C1215 C1214 1.455 . S
C1215 C1216 1.331 . S
C1216 C1205 1.451 . S
C1216 C1215 1.331 . S
C1216 C1217 1.497 . S
C1217 C1208 1.395 . S
C1217 C1212 1.446 . S
C1217 C1216 1.497 . S
C1218 C1219 1.582 . S
C1218 H1275 0.962 . S
C1218 H1276 0.959 . S
C1218 H1277 0.958 . S
C1219 C1218 1.582 . S
C1219 O1222 1.458 . S
C1219 H1248 0.980 . S
O1220 C1165 1.426 . S
O1220 C1166 1.334 . S
O1221 C1193 1.412 . S
O1221 C1194 1.393 . S
O1222 C1184 1.435 . S
O1222 C1219 1.458 . S
O1223 C1175 1.468 . S
O1223 C1176 1.408 . S
H1224 C1165 0.980 . S
H1225 C1164 0.959 . S
H1226 C1164 0.959 . S
H1227 C1164 0.960 . S
H1228 C1167 0.929 . S
H1229 C1171 0.929 . S
H1230 C1172 0.959 . S
H1231 C1172 0.961 . S
H1232 C1172 0.961 . S
H1233 C1173 0.960 . S
H1234 C1173 0.960 . S
H1235 C1173 0.961 . S
H1236 C1175 0.980 . S
H1237 C1174 0.961 . S
H1238 C1174 0.960 . S
H1239 C1174 0.959 . S
H1240 C1177 0.930 . S
H1241 C1181 0.931 . S
H1242 C1182 0.959 . S
H1243 C1182 0.961 . S
H1244 C1182 0.959 . S
H1245 C1183 0.960 . S
H1246 C1183 0.960 . S
H1247 C1183 0.960 . S
H1248 C1219 0.980 . S
H1249 C1185 0.930 . S
H1250 C1189 0.930 . S
H1251 C1190 0.961 . S
H1252 C1190 0.960 . S
H1253 C1190 0.958 . S
H1254 C1191 0.961 . S
H1255 C1191 0.960 . S
H1256 C1191 0.960 . S
H1257 C1193 0.980 . S
H1258 C1192 0.961 . S
H1259 C1192 0.961 . S
H1260 C1192 0.959 . S
H1261 C1195 0.932 . S
H1262 C1199 0.929 . S
H1263 C1200 0.961 . S
H1264 C1200 0.959 . S
H1265 C1200 0.959 . S
H1266 C1201 0.960 . S
H1267 C1201 0.962 . S
H1268 C1201 0.961 . S
H1269 C1203 0.929 . S
H1270 C1206 0.930 . S
H1271 C1207 0.929 . S
H1272 C1210 0.930 . S
H1273 C1213 0.929 . S
H1274 C1214 0.930 . S
H1275 C1218 0.962 . S
H1276 C1218 0.959 . S
H1277 C1218 0.958 . S
C1278 C1279 1.560 . S
C1278 H1339 0.959 . S
C1278 H1340 0.959 . S
C1278 H1341 0.960 . S
C1279 C1278 1.560 . S
C1279 O1334 1.426 . S
C1279 H1338 0.980 . S
C1280 C1281 1.407 1_455 S
C1280 C1285 1.418 . S
C1280 O1334 1.334 . S
C1281 C1280 1.407 1_655 S
C1281 C1282 1.360 . S
C1281 H1342 0.929 . S
C1282 C1281 1.360 . S
C1282 C1283 1.401 1_655 S
C1282 C1286 1.527 . S
C1283 C1282 1.401 1_455 S
C1283 C1284 1.405 . S
C1283 C1316 1.587 1_455 S
C1284 C1283 1.405 . S
C1284 C1285 1.332 . S
C1284 C1287 1.496 . S
C1285 C1280 1.418 . S
C1285 C1284 1.332 . S
C1285 H1343 0.929 . S
C1286 C1282 1.527 . S
C1286 H1344 0.959 . S
C1286 H1345 0.961 . S
C1286 H1346 0.961 . S
C1287 C1284 1.496 . S
C1287 H1347 0.960 . S
C1287 H1348 0.960 . S
C1287 H1349 0.961 . S
C1288 C1289 1.517 . S
C1288 H1351 0.970 . S
C1288 H1352 0.960 . S
C1288 H1353 0.959 . S
C1289 C1288 1.517 . S
C1289 O1337 1.468 . S
C1289 H1350 0.980 1_655 S
C1290 C1291 1.349 . S
C1290 C1295 1.367 . S
C1290 O1337 1.408 . S
C1291 C1290 1.349 . S
C1291 C1292 1.407 1_655 S
C1291 H1354 0.930 1_655 S
C1292 C1291 1.407 1_455 S
C1292 C1293 1.449 1_455 S
C1292 C1296 1.535 . S
C1293 C1292 1.449 1_655 S
C1293 C1294 1.384 . S
C1293 C1318 1.553 . S
C1294 C1293 1.384 . S
C1294 C1295 1.364 . S
C1294 C1297 1.450 . S
C1295 C1290 1.367 . S
C1295 C1294 1.364 . S
C1295 H1355 0.931 . S
C1296 C1292 1.535 . S
C1296 H1356 0.959 . S
C1296 H1357 0.961 . S
C1296 H1358 0.959 . S
C1297 C1294 1.450 . S
C1297 H1359 0.960 . S
C1297 H1360 0.960 . S
C1297 H1361 0.960 . S
C1298 C1299 1.309 . S
C1298 C1303 1.304 . S
C1298 O1336 1.435 . S
C1299 C1298 1.309 . S
C1299 C1300 1.484 . S
C1299 H1363 0.930 1_655 S
C1300 C1299 1.484 . S
C1300 C1301 1.405 . S
C1300 C1304 1.554 1_655 S
C1301 C1300 1.405 . S
C1301 C1302 1.373 . S
C1301 C1323 1.432 . S
C1302 C1301 1.373 . S
C1302 C1303 1.339 . S
C1302 C1305 1.530 . S
C1303 C1298 1.304 . S
C1303 C1302 1.339 . S
C1303 H1364 0.930 . S
C1304 C1300 1.554 1_455 S
C1304 H1365 0.961 . S
C1304 H1366 0.960 . S
C1304 H1367 0.958 . S
C1305 C1302 1.530 . S
C1305 H1368 0.961 . S
C1305 H1369 0.960 . S
C1305 H1370 0.960 . S
C1306 C1307 1.504 1_455 S
C1306 H1372 0.961 . S
C1306 H1373 0.961 . S
C1306 H1374 0.959 . S
C1307 C1306 1.504 1_655 S
C1307 O1335 1.407 1_655 S
C1307 H1371 0.988 . S
C1308 C1309 1.288 . S
C1308 C1313 1.377 1_455 S
C1308 O1335 1.393 . S
C1309 C1308 1.288 . S
C1309 C1310 1.369 . S
C1309 H1375 0.932 . S
C1310 C1309 1.369 . S
C1310 C1311 1.398 1_455 S
C1310 C1314 1.527 . S
C1311 C1310 1.398 1_655 S
C1311 C1312 1.380 . S
C1311 C1325 1.497 . S
C1312 C1311 1.380 . S
C1312 C1313 1.383 . S
C1312 C1315 1.603 . S
C1313 C1308 1.377 1_655 S
C1313 C1312 1.383 . S
C1313 H1376 0.929 . S
C1314 C1310 1.527 . S
C1314 H1377 0.961 . S
C1314 H1378 0.959 . S
C1314 H1379 0.959 . S
C1315 C1312 1.603 . S
C1315 H1380 0.960 . S
C1315 H1381 0.962 . S
C1315 H1382 0.961 . S
C1316 C1283 1.587 1_655 S
C1316 C1317 1.360 . S
C1316 C1329 1.412 . S
C1317 C1316 1.360 . S
C1317 C1318 1.365 . S
C1317 H1383 0.929 . S
C1318 C1293 1.553 . S
C1318 C1317 1.365 . S
C1318 C1319 1.404 . S
C1319 C1318 1.404 . S
C1319 C1320 1.395 . S
C1319 C1330 1.451 . S
C1320 C1319 1.395 . S
C1320 C1321 1.322 . S
C1320 H1384 0.930 . S
C1321 C1320 1.322 . S
C1321 C1322 1.459 . S
C1321 H1385 0.929 . S
C1322 C1321 1.459 . S
C1322 C1323 1.445 . S
C1322 C1331 1.395 . S
C1323 C1301 1.432 . S
C1323 C1322 1.445 . S
C1323 C1324 1.370 . S
C1324 C1323 1.370 . S
C1324 C1325 1.438 . S
C1324 H1386 0.930 . S
C1325 C1311 1.497 . S
C1325 C1324 1.438 . S
C1325 C1326 1.360 . S
C1326 C1325 1.360 . S
C1326 C1327 1.401 . S
C1326 C1331 1.446 . S
C1327 C1326 1.401 . S
C1327 C1328 1.347 . S
C1327 H1387 0.929 . S
C1328 C1327 1.347 . S
C1328 C1329 1.455 . S
C1328 H1388 0.930 . S
C1329 C1316 1.412 . S
C1329 C1328 1.455 . S
C1329 C1330 1.331 . S
C1330 C1319 1.451 . S
C1330 C1329 1.331 . S
C1330 C1331 1.497 . S
C1331 C1322 1.395 . S
C1331 C1326 1.446 . S
C1331 C1330 1.497 . S
C1332 C1333 1.582 . S
C1332 H1389 0.962 . S
C1332 H1390 0.959 . S
C1332 H1391 0.958 . S
C1333 C1332 1.582 . S
C1333 O1336 1.458 . S
C1333 H1362 0.980 . S
O1334 C1279 1.426 . S
O1334 C1280 1.334 . S
O1335 C1307 1.407 1_455 S
O1335 C1308 1.393 . S
O1336 C1298 1.435 . S
O1336 C1333 1.458 . S
O1337 C1289 1.468 . S
O1337 C1290 1.408 . S
H1338 C1279 0.980 . S
H1339 C1278 0.959 . S
H1340 C1278 0.959 . S
H1341 C1278 0.960 . S
H1342 C1281 0.929 . S
H1343 C1285 0.929 . S
H1344 C1286 0.959 . S
H1345 C1286 0.961 . S
H1346 C1286 0.961 . S
H1347 C1287 0.960 . S
H1348 C1287 0.960 . S
H1349 C1287 0.961 . S
H1350 C1289 0.980 1_455 S
H1351 C1288 0.970 . S
H1352 C1288 0.960 . S
H1353 C1288 0.959 . S
H1354 C1291 0.930 1_455 S
H1355 C1295 0.931 . S
H1356 C1296 0.959 . S
H1357 C1296 0.961 . S
H1358 C1296 0.959 . S
H1359 C1297 0.960 . S
H1360 C1297 0.960 . S
H1361 C1297 0.960 . S
H1362 C1333 0.980 . S
H1363 C1299 0.930 1_455 S
H1364 C1303 0.930 . S
H1365 C1304 0.961 . S
H1366 C1304 0.960 . S
H1367 C1304 0.958 . S
H1368 C1305 0.961 . S
H1369 C1305 0.960 . S
H1370 C1305 0.960 . S
H1371 C1307 0.988 . S
H1372 C1306 0.961 . S
H1373 C1306 0.961 . S
H1374 C1306 0.959 . S
H1375 C1309 0.932 . S
H1376 C1313 0.929 . S
H1377 C1314 0.961 . S
H1378 C1314 0.959 . S
H1379 C1314 0.959 . S
H1380 C1315 0.960 . S
H1381 C1315 0.962 . S
H1382 C1315 0.961 . S
H1383 C1317 0.929 . S
H1384 C1320 0.930 . S
H1385 C1321 0.929 . S
H1386 C1324 0.930 . S
H1387 C1327 0.929 . S
H1388 C1328 0.930 . S
H1389 C1332 0.962 . S
H1390 C1332 0.959 . S
H1391 C1332 0.958 . S
C1392 C1393 1.560 . S
C1392 H1453 0.959 . S
C1392 H1454 0.959 . S
C1392 H1455 0.960 . S
C1393 C1392 1.560 . S
C1393 O1448 1.426 . S
C1393 H1452 0.980 . S
C1394 C1395 1.407 . S
C1394 C1399 1.418 . S
C1394 O1448 1.334 . S
C1395 C1394 1.407 . S
C1395 C1396 1.360 . S
C1395 H1456 0.929 . S
C1396 C1395 1.360 . S
C1396 C1397 1.401 . S
C1396 C1400 1.527 . S
C1397 C1396 1.401 . S
C1397 C1398 1.405 . S
C1397 C1430 1.587 . S
C1398 C1397 1.405 . S
C1398 C1399 1.332 . S
C1398 C1401 1.496 . S
C1399 C1394 1.418 . S
C1399 C1398 1.332 . S
C1399 H1457 0.929 . S
C1400 C1396 1.527 . S
C1400 H1458 0.959 . S
C1400 H1459 0.961 . S
C1400 H1460 0.961 . S
C1401 C1398 1.496 . S
C1401 H1461 0.960 . S
C1401 H1462 0.960 . S
C1401 H1463 0.961 . S
C1402 C1403 1.517 . S
C1402 H1465 0.961 . S
C1402 H1466 0.960 . S
C1402 H1467 0.959 . S
C1403 C1402 1.517 . S
C1403 O1451 1.468 . S
C1403 H1464 0.980 . S
C1404 C1405 1.349 . S
C1404 C1409 1.367 . S
C1404 O1451 1.408 . S
C1405 C1404 1.349 . S
C1405 C1406 1.407 . S
C1405 H1468 0.930 . S
C1406 C1405 1.407 . S
C1406 C1407 1.449 . S
C1406 C1410 1.535 . S
C1407 C1406 1.449 . S
C1407 C1408 1.384 . S
C1407 C1432 1.553 . S
C1408 C1407 1.384 . S
C1408 C1409 1.364 . S
C1408 C1411 1.450 . S
C1409 C1404 1.367 . S
C1409 C1408 1.364 . S
C1409 H1469 0.931 . S
C1410 C1406 1.535 . S
C1410 H1470 0.959 . S
C1410 H1471 0.961 . S
C1410 H1472 0.959 . S
C1411 C1408 1.450 . S
C1411 H1473 0.960 . S
C1411 H1474 0.960 . S
C1411 H1475 0.960 . S
C1412 C1413 1.309 . S
C1412 C1417 1.304 . S
C1412 O1450 1.435 . S
C1413 C1412 1.309 . S
C1413 C1414 1.476 . S
C1413 H1477 0.930 . S
C1414 C1413 1.476 . S
C1414 C1415 1.400 . S
C1414 C1418 1.567 . S
C1415 C1414 1.400 . S
C1415 C1416 1.373 . S
C1415 C1437 1.432 . S
C1416 C1415 1.373 . S
C1416 C1417 1.339 . S
C1416 C1419 1.530 . S
C1417 C1412 1.304 . S
C1417 C1416 1.339 . S
C1417 H1478 0.930 . S
C1418 C1414 1.567 . S
C1418 H1479 0.961 . S
C1418 H1480 0.960 . S
C1418 H1481 0.958 . S
C1419 C1416 1.530 . S
C1419 H1482 0.961 . S
C1419 H1483 0.960 . S
C1419 H1484 0.960 . S
C1420 C1421 1.530 . S
C1420 H1486 0.961 . S
C1420 H1487 0.961 . S
C1420 H1488 0.959 . S
C1421 C1420 1.530 . S
C1421 O1449 1.412 . S
C1421 H1485 0.980 . S
C1422 C1423 1.288 . S
C1422 C1427 1.377 . S
C1422 O1449 1.393 . S
C1423 C1422 1.288 . S
C1423 C1424 1.369 . S
C1423 H1489 0.932 . S
C1424 C1423 1.369 . S
C1424 C1425 1.398 . S
C1424 C1428 1.527 . S
C1425 C1424 1.398 . S
C1425 C1426 1.380 . S
C1425 C1439 1.497 . S
C1426 C1425 1.380 . S
C1426 C1427 1.383 . S
C1426 C1429 1.603 . S
C1427 C1422 1.377 . S
C1427 C1426 1.383 . S
C1427 H1490 0.929 . S
C1428 C1424 1.527 . S
C1428 H1491 0.961 . S
C1428 H1492 0.959 . S
C1428 H1493 0.959 . S
C1429 C1426 1.603 . S
C1429 H1494 0.960 . S
C1429 H1495 0.962 . S
C1429 H1496 0.961 . S
C1430 C1397 1.587 . S
C1430 C1431 1.360 . S
C1430 C1443 1.412 . S
C1431 C1430 1.360 . S
C1431 C1432 1.365 . S
C1431 H1497 0.929 . S
C1432 C1407 1.553 . S
C1432 C1431 1.365 . S
C1432 C1433 1.404 . S
C1433 C1432 1.404 . S
C1433 C1434 1.395 . S
C1433 C1444 1.451 . S
C1434 C1433 1.395 . S
C1434 C1435 1.322 . S
C1434 H1498 0.930 . S
C1435 C1434 1.322 . S
C1435 C1436 1.459 . S
C1435 H1499 0.929 . S
C1436 C1435 1.459 . S
C1436 C1437 1.445 . S
C1436 C1445 1.395 . S
C1437 C1415 1.432 . S
C1437 C1436 1.445 . S
C1437 C1438 1.370 . S
C1438 C1437 1.370 . S
C1438 C1439 1.438 . S
C1438 H1500 0.930 . S
C1439 C1425 1.497 . S
C1439 C1438 1.438 . S
C1439 C1440 1.360 . S
C1440 C1439 1.360 . S
C1440 C1441 1.401 . S
C1440 C1445 1.446 . S
C1441 C1440 1.401 . S
C1441 C1442 1.347 . S
C1441 H1501 0.929 . S
C1442 C1441 1.347 . S
C1442 C1443 1.455 . S
C1442 H1502 0.930 . S
C1443 C1430 1.412 . S
C1443 C1442 1.455 . S
C1443 C1444 1.331 . S
C1444 C1433 1.451 . S
C1444 C1443 1.331 . S
C1444 C1445 1.497 . S
C1445 C1436 1.395 . S
C1445 C1440 1.446 . S
C1445 C1444 1.497 . S
C1446 C1447 1.582 . S
C1446 H1503 0.962 . S
C1446 H1504 0.959 . S
C1446 H1505 0.958 . S
C1447 C1446 1.582 . S
C1447 O1450 1.458 . S
C1447 H1476 0.980 . S
O1448 C1393 1.426 . S
O1448 C1394 1.334 . S
O1449 C1421 1.412 . S
O1449 C1422 1.393 . S
O1450 C1412 1.435 . S
O1450 C1447 1.458 . S
O1451 C1403 1.468 . S
O1451 C1404 1.408 . S
H1452 C1393 0.980 . S
H1453 C1392 0.959 . S
H1454 C1392 0.959 . S
H1455 C1392 0.960 . S
H1456 C1395 0.929 . S
H1457 C1399 0.929 . S
H1458 C1400 0.959 . S
H1459 C1400 0.961 . S
H1460 C1400 0.961 . S
H1461 C1401 0.960 . S
H1462 C1401 0.960 . S
H1463 C1401 0.961 . S
H1464 C1403 0.980 . S
H1465 C1402 0.961 . S
H1466 C1402 0.960 . S
H1467 C1402 0.959 . S
H1468 C1405 0.930 . S
H1469 C1409 0.931 . S
H1470 C1410 0.959 . S
H1471 C1410 0.961 . S
H1472 C1410 0.959 . S
H1473 C1411 0.960 . S
H1474 C1411 0.960 . S
H1475 C1411 0.960 . S
H1476 C1447 0.980 . S
H1477 C1413 0.930 . S
H1478 C1417 0.930 . S
H1479 C1418 0.961 . S
H1480 C1418 0.960 . S
H1481 C1418 0.958 . S
H1482 C1419 0.961 . S
H1483 C1419 0.960 . S
H1484 C1419 0.960 . S
H1485 C1421 0.980 . S
H1486 C1420 0.961 . S
H1487 C1420 0.961 . S
H1488 C1420 0.959 . S
H1489 C1423 0.932 . S
H1490 C1427 0.929 . S
H1491 C1428 0.961 . S
H1492 C1428 0.959 . S
H1493 C1428 0.959 . S
H1494 C1429 0.960 . S
H1495 C1429 0.962 . S
H1496 C1429 0.961 . S
H1497 C1431 0.929 . S
H1498 C1434 0.930 . S
H1499 C1435 0.929 . S
H1500 C1438 0.930 . S
H1501 C1441 0.929 . S
H1502 C1442 0.930 . S
H1503 C1446 0.962 . S
H1504 C1446 0.959 . S
H1505 C1446 0.958 . S
C1506 C1507 1.560 . S
C1506 H1567 0.959 . S
C1506 H1568 0.959 . S
C1506 H1569 0.960 . S
C1507 C1506 1.560 . S
C1507 O1562 1.426 . S
C1507 H1566 0.980 . S
C1508 C1509 1.407 1_565 S
C1508 C1513 1.418 . S
C1508 O1562 1.334 . S
C1509 C1508 1.407 1_545 S
C1509 C1510 1.360 . S
C1509 H1570 0.929 . S
C1510 C1509 1.360 . S
C1510 C1511 1.401 1_545 S
C1510 C1514 1.527 . S
C1511 C1510 1.401 1_565 S
C1511 C1512 1.405 . S
C1511 C1544 1.587 1_565 S
C1512 C1511 1.405 . S
C1512 C1513 1.332 . S
C1512 C1515 1.496 . S
C1513 C1508 1.418 . S
C1513 C1512 1.332 . S
C1513 H1571 0.929 . S
C1514 C1510 1.527 . S
C1514 H1572 0.959 . S
C1514 H1573 0.961 . S
C1514 H1574 0.961 . S
C1515 C1512 1.496 . S
C1515 H1575 0.960 . S
C1515 H1576 0.960 . S
C1515 H1577 0.961 . S
C1516 C1517 1.517 . S
C1516 H1579 0.961 1_545 S
C1516 H1580 0.960 . S
C1516 H1581 0.959 . S
C1517 C1516 1.517 . S
C1517 O1565 1.468 . S
C1517 H1578 0.980 1_545 S
C1518 C1519 1.376 . S
C1518 C1523 1.367 . S
C1518 O1565 1.408 . S
C1519 C1518 1.376 . S
C1519 C1520 1.424 1_545 S
C1519 H1582 0.887 1_545 S
C1520 C1519 1.424 1_565 S
C1520 C1521 1.449 1_565 S
C1520 C1524 1.535 . S
C1521 C1520 1.449 1_545 S
C1521 C1522 1.384 . S
C1521 C1546 1.553 . S
C1522 C1521 1.384 . S
C1522 C1523 1.364 . S
C1522 C1525 1.450 . S
C1523 C1518 1.367 . S
C1523 C1522 1.364 . S
C1523 H1583 0.931 . S
C1524 C1520 1.535 . S
C1524 H1584 0.959 . S
C1524 H1585 0.961 . S
C1524 H1586 0.959 . S
C1525 C1522 1.450 . S
C1525 H1587 0.960 . S
C1525 H1588 0.960 . S
C1525 H1589 0.960 . S
C1526 C1527 1.309 . S
C1526 C1531 1.304 . S
C1526 O1564 1.435 . S
C1527 C1526 1.309 . S
C1527 C1528 1.495 1_545 S
C1527 H1591 0.930 1_545 S
C1528 C1527 1.495 1_565 S
C1528 C1529 1.339 1_565 S
C1528 C1532 1.609 . S
C1529 C1528 1.339 1_545 S
C1529 C1530 1.373 . S
C1529 C1551 1.432 . S
C1530 C1529 1.373 . S
C1530 C1531 1.339 . S
C1530 C1533 1.530 . S
C1531 C1526 1.304 . S
C1531 C1530 1.339 . S
C1531 H1592 0.930 . S
C1532 C1528 1.609 . S
C1532 H1593 0.961 . S
C1532 H1594 0.960 . S
C1532 H1595 0.958 . S
C1533 C1530 1.530 . S
C1533 H1596 0.961 . S
C1533 H1597 0.960 . S
C1533 H1598 0.960 . S
C1534 C1535 1.530 1_565 S
C1534 H1600 0.961 . S
C1534 H1601 0.961 . S
C1534 H1602 0.959 . S
C1535 C1534 1.530 1_545 S
C1535 O1563 1.412 1_545 S
C1535 H1599 0.980 . S
C1536 C1537 1.288 . S
C1536 C1541 1.377 1_565 S
C1536 O1563 1.393 . S
C1537 C1536 1.288 . S
C1537 C1538 1.369 . S
C1537 H1603 0.932 . S
C1538 C1537 1.369 . S
C1538 C1539 1.398 1_565 S
C1538 C1542 1.527 . S
C1539 C1538 1.398 1_545 S
C1539 C1540 1.380 . S
C1539 C1553 1.497 . S
C1540 C1539 1.380 . S
C1540 C1541 1.383 . S
C1540 C1543 1.603 . S
C1541 C1536 1.377 1_545 S
C1541 C1540 1.383 . S
C1541 H1604 0.929 . S
C1542 C1538 1.527 . S
C1542 H1605 0.961 . S
C1542 H1606 0.959 . S
C1542 H1607 0.959 . S
C1543 C1540 1.603 . S
C1543 H1608 0.960 . S
C1543 H1609 0.962 . S
C1543 H1610 0.961 . S
C1544 C1511 1.587 1_545 S
C1544 C1545 1.360 . S
C1544 C1557 1.412 . S
C1545 C1544 1.360 . S
C1545 C1546 1.365 . S
C1545 H1611 0.929 . S
C1546 C1521 1.553 . S
C1546 C1545 1.365 . S
C1546 C1547 1.404 . S
C1547 C1546 1.404 . S
C1547 C1548 1.395 . S
C1547 C1558 1.451 . S
C1548 C1547 1.395 . S
C1548 C1549 1.322 . S
C1548 H1612 0.930 . S
C1549 C1548 1.322 . S
C1549 C1550 1.459 . S
C1549 H1613 0.929 . S
C1550 C1549 1.459 . S
C1550 C1551 1.445 . S
C1550 C1559 1.395 . S
C1551 C1529 1.432 . S
C1551 C1550 1.445 . S
C1551 C1552 1.370 . S
C1552 C1551 1.370 . S
C1552 C1553 1.438 . S
C1552 H1614 0.930 . S
C1553 C1539 1.497 . S
C1553 C1552 1.438 . S
C1553 C1554 1.360 . S
C1554 C1553 1.360 . S
C1554 C1555 1.401 . S
C1554 C1559 1.446 . S
C1555 C1554 1.401 . S
C1555 C1556 1.347 . S
C1555 H1615 0.929 . S
C1556 C1555 1.347 . S
C1556 C1557 1.455 . S
C1556 H1616 0.930 . S
C1557 C1544 1.412 . S
C1557 C1556 1.455 . S
C1557 C1558 1.331 . S
C1558 C1547 1.451 . S
C1558 C1557 1.331 . S
C1558 C1559 1.497 . S
C1559 C1550 1.395 . S
C1559 C1554 1.446 . S
C1559 C1558 1.497 . S
C1560 C1561 1.582 . S
C1560 H1617 0.962 . S
C1560 H1618 0.959 . S
C1560 H1619 0.958 . S
C1561 C1560 1.582 . S
C1561 O1564 1.458 . S
C1561 H1590 0.980 . S
O1562 C1507 1.426 . S
O1562 C1508 1.334 . S
O1563 C1535 1.412 1_565 S
O1563 C1536 1.393 . S
O1564 C1526 1.435 . S
O1564 C1561 1.458 . S
O1565 C1517 1.468 . S
O1565 C1518 1.408 . S
H1566 C1507 0.980 . S
H1567 C1506 0.959 . S
H1568 C1506 0.959 . S
H1569 C1506 0.960 . S
H1570 C1509 0.929 . S
H1571 C1513 0.929 . S
H1572 C1514 0.959 . S
H1573 C1514 0.961 . S
H1574 C1514 0.961 . S
H1575 C1515 0.960 . S
H1576 C1515 0.960 . S
H1577 C1515 0.961 . S
H1578 C1517 0.980 1_565 S
H1579 C1516 0.961 1_565 S
H1580 C1516 0.960 . S
H1581 C1516 0.959 . S
H1582 C1519 0.887 1_565 S
H1583 C1523 0.931 . S
H1584 C1524 0.959 . S
H1585 C1524 0.961 . S
H1586 C1524 0.959 . S
H1587 C1525 0.960 . S
H1588 C1525 0.960 . S
H1589 C1525 0.960 . S
H1590 C1561 0.980 . S
H1591 C1527 0.930 1_565 S
H1592 C1531 0.930 . S
H1593 C1532 0.961 . S
H1594 C1532 0.960 . S
H1595 C1532 0.958 . S
H1596 C1533 0.961 . S
H1597 C1533 0.960 . S
H1598 C1533 0.960 . S
H1599 C1535 0.980 . S
H1600 C1534 0.961 . S
H1601 C1534 0.961 . S
H1602 C1534 0.959 . S
H1603 C1537 0.932 . S
H1604 C1541 0.929 . S
H1605 C1542 0.961 . S
H1606 C1542 0.959 . S
H1607 C1542 0.959 . S
H1608 C1543 0.960 . S
H1609 C1543 0.962 . S
H1610 C1543 0.961 . S
H1611 C1545 0.929 . S
H1612 C1548 0.930 . S
H1613 C1549 0.929 . S
H1614 C1552 0.930 . S
H1615 C1555 0.929 . S
H1616 C1556 0.930 . S
H1617 C1560 0.962 . S
H1618 C1560 0.959 . S
H1619 C1560 0.958 . S
C1620 C1621 1.560 . S
C1620 H1681 0.959 . S
C1620 H1682 0.959 . S
C1620 H1683 0.960 . S
C1621 C1620 1.560 . S
C1621 O1676 1.426 . S
C1621 H1680 0.980 1_565 S
C1622 C1623 1.407 1_565 S
C1622 C1627 1.418 . S
C1622 O1676 1.334 . S
C1623 C1622 1.407 1_545 S
C1623 C1624 1.360 . S
C1623 H1684 0.929 . S
C1624 C1623 1.360 . S
C1624 C1625 1.401 . S
C1624 C1628 1.527 . S
C1625 C1624 1.401 . S
C1625 C1626 1.405 1_545 S
C1625 C1658 1.587 . S
C1626 C1625 1.405 1_565 S
C1626 C1627 1.332 . S
C1626 C1629 1.496 . S
C1627 C1622 1.418 . S
C1627 C1626 1.332 . S
C1627 H1685 0.929 . S
C1628 C1624 1.527 . S
C1628 H1686 0.959 . S
C1628 H1687 0.961 . S
C1628 H1688 0.961 . S
C1629 C1626 1.496 . S
C1629 H1689 0.960 . S
C1629 H1690 0.960 . S
C1629 H1691 0.961 . S
C1630 C1631 1.517 . S
C1630 H1693 0.961 . S
C1630 H1694 0.960 . S
C1630 H1695 0.959 . S
C1631 C1630 1.517 . S
C1631 O1679 1.468 . S
C1631 H1692 0.980 . S
C1632 C1633 1.349 . S
C1632 C1637 1.367 . S
C1632 O1679 1.408 . S
C1633 C1632 1.349 . S
C1633 C1634 1.407 . S
C1633 H1696 0.932 1_545 S
C1634 C1633 1.407 . S
C1634 C1635 1.449 . S
C1634 C1638 1.535 1_545 S
C1635 C1634 1.449 . S
C1635 C1636 1.384 . S
C1635 C1660 1.553 . S
C1636 C1635 1.384 . S
C1636 C1637 1.364 . S
C1636 C1639 1.450 . S
C1637 C1632 1.367 . S
C1637 C1636 1.364 . S
C1637 H1697 0.931 . S
C1638 C1634 1.535 1_565 S
C1638 H1698 0.959 . S
C1638 H1699 0.961 . S
C1638 H1700 0.959 . S
C1639 C1636 1.450 . S
C1639 H1701 0.960 . S
C1639 H1702 0.960 . S
C1639 H1703 0.960 . S
C1640 C1641 1.309 1_545 S
C1640 C1645 1.304 . S
C1640 O1678 1.435 . S
C1641 C1640 1.309 1_565 S
C1641 C1642 1.476 . S
C1641 H1705 0.930 . S
C1642 C1641 1.476 . S
C1642 C1643 1.400 1_565 S
C1642 C1646 1.567 . S
C1643 C1642 1.400 1_545 S
C1643 C1644 1.373 . S
C1643 C1665 1.432 . S
C1644 C1643 1.373 . S
C1644 C1645 1.339 . S
C1644 C1647 1.530 . S
C1645 C1640 1.304 . S
C1645 C1644 1.339 . S
C1645 H1706 0.930 . S
C1646 C1642 1.567 . S
C1646 H1707 0.961 . S
C1646 H1708 0.960 . S
C1646 H1709 0.958 . S
C1647 C1644 1.530 . S
C1647 H1710 0.961 . S
C1647 H1711 0.960 . S
C1647 H1712 0.960 . S
C1648 C1649 1.530 . S
C1648 H1714 0.961 . S
C1648 H1715 0.961 . S
C1648 H1716 0.959 . S
C1649 C1648 1.530 . S
C1649 O1677 1.412 . S
C1649 H1713 0.980 . S
C1650 C1651 1.288 . S
C1650 C1655 1.377 1_565 S
C1650 O1677 1.393 . S
C1651 C1650 1.288 . S
C1651 C1652 1.369 . S
C1651 H1717 0.932 . S
C1652 C1651 1.369 . S
C1652 C1653 1.398 . S
C1652 C1656 1.527 . S
C1653 C1652 1.398 . S
C1653 C1654 1.380 1_565 S
C1653 C1667 1.497 1_565 S
C1654 C1653 1.380 1_545 S
C1654 C1655 1.383 . S
C1654 C1657 1.603 . S
C1655 C1650 1.377 1_545 S
C1655 C1654 1.383 . S
C1655 H1718 0.929 . S
C1656 C1652 1.527 . S
C1656 H1719 0.961 . S
C1656 H1720 0.959 . S
C1656 H1721 0.959 . S
C1657 C1654 1.603 . S
C1657 H1722 0.960 . S
C1657 H1723 0.962 . S
C1657 H1724 0.961 . S
C1658 C1625 1.587 . S
C1658 C1659 1.360 . S
C1658 C1671 1.412 . S
C1659 C1658 1.360 . S
C1659 C1660 1.365 . S
C1659 H1725 0.929 . S
C1660 C1635 1.553 . S
C1660 C1659 1.365 . S
C1660 C1661 1.404 . S
C1661 C1660 1.404 . S
C1661 C1662 1.395 . S
C1661 C1672 1.451 . S
C1662 C1661 1.395 . S
C1662 C1663 1.322 . S
C1662 H1726 0.930 . S
C1663 C1662 1.322 . S
C1663 C1664 1.459 . S
C1663 H1727 0.929 . S
C1664 C1663 1.459 . S
C1664 C1665 1.445 . S
C1664 C1673 1.395 . S
C1665 C1643 1.432 . S
C1665 C1664 1.445 . S
C1665 C1666 1.370 . S
C1666 C1665 1.370 . S
C1666 C1667 1.438 . S
C1666 H1728 0.930 . S
C1667 C1653 1.497 1_545 S
C1667 C1666 1.438 . S
C1667 C1668 1.360 . S
C1668 C1667 1.360 . S
C1668 C1669 1.401 . S
C1668 C1673 1.446 . S
C1669 C1668 1.401 . S
C1669 C1670 1.347 . S
C1669 H1729 0.959 . S
C1670 C1669 1.347 . S
C1670 C1671 1.455 . S
C1670 H1730 0.930 . S
C1671 C1658 1.412 . S
C1671 C1670 1.455 . S
C1671 C1672 1.331 . S
C1672 C1661 1.451 . S
C1672 C1671 1.331 . S
C1672 C1673 1.497 . S
C1673 C1664 1.395 . S
C1673 C1668 1.446 . S
C1673 C1672 1.497 . S
C1674 C1675 1.582 . S
C1674 H1731 0.962 . S
C1674 H1732 0.959 . S
C1674 H1733 0.958 . S
C1675 C1674 1.582 . S
C1675 O1678 1.458 . S
C1675 H1704 0.980 1_545 S
O1676 C1621 1.426 . S
O1676 C1622 1.334 . S
O1677 C1649 1.412 . S
O1677 C1650 1.393 . S
O1678 C1640 1.435 . S
O1678 C1675 1.458 . S
O1679 C1631 1.468 . S
O1679 C1632 1.408 . S
H1680 C1621 0.980 1_545 S
H1681 C1620 0.959 . S
H1682 C1620 0.959 . S
H1683 C1620 0.960 . S
H1684 C1623 0.929 . S
H1685 C1627 0.929 . S
H1686 C1628 0.959 . S
H1687 C1628 0.961 . S
H1688 C1628 0.961 . S
H1689 C1629 0.960 . S
H1690 C1629 0.960 . S
H1691 C1629 0.961 . S
H1692 C1631 0.980 . S
H1693 C1630 0.961 . S
H1694 C1630 0.960 . S
H1695 C1630 0.959 . S
H1696 C1633 0.932 1_565 S
H1697 C1637 0.931 . S
H1698 C1638 0.959 . S
H1699 C1638 0.961 . S
H1700 C1638 0.959 . S
H1701 C1639 0.960 . S
H1702 C1639 0.960 . S
H1703 C1639 0.960 . S
H1704 C1675 0.980 1_565 S
H1705 C1641 0.930 . S
H1706 C1645 0.930 . S
H1707 C1646 0.961 . S
H1708 C1646 0.960 . S
H1709 C1646 0.958 . S
H1710 C1647 0.961 . S
H1711 C1647 0.960 . S
H1712 C1647 0.960 . S
H1713 C1649 0.980 . S
H1714 C1648 0.961 . S
H1715 C1648 0.961 . S
H1716 C1648 0.959 . S
H1717 C1651 0.932 . S
H1718 C1655 0.929 . S
H1719 C1656 0.961 . S
H1720 C1656 0.959 . S
H1721 C1656 0.959 . S
H1722 C1657 0.960 . S
H1723 C1657 0.962 . S
H1724 C1657 0.961 . S
H1725 C1659 0.929 . S
H1726 C1662 0.930 . S
H1727 C1663 0.929 . S
H1728 C1666 0.930 . S
H1729 C1669 0.959 . S
H1730 C1670 0.930 . S
H1731 C1674 0.962 . S
H1732 C1674 0.959 . S
H1733 C1674 0.958 . S
C1734 C1735 1.560 . S
C1734 H1795 0.959 . S
C1734 H1796 0.959 . S
C1734 H1797 0.960 . S
C1735 C1734 1.560 . S
C1735 O1790 1.426 . S
C1735 H1794 0.980 1_455 S
C1736 C1737 1.407 1_455 S
C1736 C1741 1.418 . S
C1736 O1790 1.334 . S
C1737 C1736 1.407 1_655 S
C1737 C1738 1.360 . S
C1737 H1798 0.929 . S
C1738 C1737 1.360 . S
C1738 C1739 1.401 . S
C1738 C1742 1.527 . S
C1739 C1738 1.401 . S
C1739 C1740 1.405 1_655 S
C1739 C1772 1.587 . S
C1740 C1739 1.405 1_455 S
C1740 C1741 1.332 . S
C1740 C1743 1.496 . S
C1741 C1736 1.418 . S
C1741 C1740 1.332 . S
C1741 H1799 0.929 . S
C1742 C1738 1.527 . S
C1742 H1800 0.959 . S
C1742 H1801 0.961 . S
C1742 H1802 0.961 . S
C1743 C1740 1.496 . S
C1743 H1803 0.960 . S
C1743 H1804 0.960 . S
C1743 H1805 0.961 . S
C1744 C1745 1.517 . S
C1744 H1807 0.961 . S
C1744 H1808 0.960 . S
C1744 H1809 0.959 . S
C1745 C1744 1.517 . S
C1745 O1793 1.468 . S
C1745 H1806 0.980 . S
C1746 C1747 1.349 . S
C1746 C1751 1.367 . S
C1746 O1793 1.408 . S
C1747 C1746 1.349 . S
C1747 C1748 1.407 . S
C1747 H1810 0.886 1_655 S
C1748 C1747 1.407 . S
C1748 C1749 1.449 . S
C1748 C1752 1.535 1_655 S
C1749 C1748 1.449 . S
C1749 C1750 1.384 . S
C1749 C1774 1.553 . S
C1750 C1749 1.384 . S
C1750 C1751 1.364 . S
C1750 C1753 1.450 . S
C1751 C1746 1.367 . S
C1751 C1750 1.364 . S
C1751 H1811 0.931 . S
C1752 C1748 1.535 1_455 S
C1752 H1812 0.959 . S
C1752 H1813 0.961 . S
C1752 H1814 0.959 . S
C1753 C1750 1.450 . S
C1753 H1815 0.960 . S
C1753 H1816 0.960 . S
C1753 H1817 0.960 . S
C1754 C1755 1.309 1_655 S
C1754 C1759 1.304 . S
C1754 O1792 1.435 . S
C1755 C1754 1.309 1_455 S
C1755 C1756 1.476 . S
C1755 H1819 0.930 . S
C1756 C1755 1.476 . S
C1756 C1757 1.400 1_455 S
C1756 C1760 1.567 . S
C1757 C1756 1.400 1_655 S
C1757 C1758 1.373 . S
C1757 C1779 1.432 . S
C1758 C1757 1.373 . S
C1758 C1759 1.339 . S
C1758 C1761 1.530 . S
C1759 C1754 1.304 . S
C1759 C1758 1.339 . S
C1759 H1820 0.930 . S
C1760 C1756 1.567 . S
C1760 H1821 0.961 . S
C1760 H1822 0.960 . S
C1760 H1823 0.958 . S
C1761 C1758 1.530 . S
C1761 H1824 0.961 . S
C1761 H1825 0.960 . S
C1761 H1826 0.960 . S
C1762 C1763 1.530 . S
C1762 H1828 0.961 . S
C1762 H1829 0.961 . S
C1762 H1830 0.959 . S
C1763 C1762 1.530 . S
C1763 O1791 1.412 . S
C1763 H1827 0.969 1_455 S
C1764 C1765 1.288 . S
C1764 C1769 1.377 1_455 S
C1764 O1791 1.393 . S
C1765 C1764 1.288 . S
C1765 C1766 1.369 . S
C1765 H1831 0.932 . S
C1766 C1765 1.369 . S
C1766 C1767 1.398 . S
C1766 C1770 1.527 . S
C1767 C1766 1.398 . S
C1767 C1768 1.380 1_455 S
C1767 C1781 1.497 1_455 S
C1768 C1767 1.380 1_655 S
C1768 C1769 1.383 . S
C1768 C1771 1.603 . S
C1769 C1764 1.377 1_655 S
C1769 C1768 1.383 . S
C1769 H1832 0.929 . S
C1770 C1766 1.527 . S
C1770 H1833 0.961 . S
C1770 H1834 0.959 . S
C1770 H1835 0.959 . S
C1771 C1768 1.603 . S
C1771 H1836 0.960 . S
C1771 H1837 0.962 . S
C1771 H1838 0.961 . S
C1772 C1739 1.587 . S
C1772 C1773 1.360 . S
C1772 C1785 1.412 . S
C1773 C1772 1.360 . S
C1773 C1774 1.365 . S
C1773 H1839 0.929 . S
C1774 C1749 1.553 . S
C1774 C1773 1.365 . S
C1774 C1775 1.404 . S
C1775 C1774 1.404 . S
C1775 C1776 1.395 . S
C1775 C1786 1.451 . S
C1776 C1775 1.395 . S
C1776 C1777 1.322 . S
C1776 H1840 0.930 . S
C1777 C1776 1.322 . S
C1777 C1778 1.459 . S
C1777 H1841 0.929 . S
C1778 C1777 1.459 . S
C1778 C1779 1.445 . S
C1778 C1787 1.395 . S
C1779 C1757 1.432 . S
C1779 C1778 1.445 . S
C1779 C1780 1.370 . S
C1780 C1779 1.370 . S
C1780 C1781 1.438 . S
C1780 H1842 0.930 . S
C1781 C1767 1.497 1_655 S
C1781 C1780 1.438 . S
C1781 C1782 1.360 . S
C1782 C1781 1.360 . S
C1782 C1783 1.401 . S
C1782 C1787 1.446 . S
C1783 C1782 1.401 . S
C1783 C1784 1.347 . S
C1783 H1843 0.929 . S
C1784 C1783 1.347 . S
C1784 C1785 1.455 . S
C1784 H1844 0.930 . S
C1785 C1772 1.412 . S
C1785 C1784 1.455 . S
C1785 C1786 1.331 . S
C1786 C1775 1.451 . S
C1786 C1785 1.331 . S
C1786 C1787 1.497 . S
C1787 C1778 1.395 . S
C1787 C1782 1.446 . S
C1787 C1786 1.497 . S
C1788 C1789 1.582 1_655 S
C1788 H1845 0.966 1_655 S
C1788 H1846 0.959 . S
C1788 H1847 0.958 . S
C1789 C1788 1.582 1_455 S
C1789 O1792 1.458 1_455 S
C1789 H1818 0.980 . S
O1790 C1735 1.426 . S
O1790 C1736 1.334 . S
O1791 C1763 1.412 . S
O1791 C1764 1.393 . S
O1792 C1754 1.435 . S
O1792 C1789 1.458 1_655 S
O1793 C1745 1.468 . S
O1793 C1746 1.408 . S
H1794 C1735 0.980 1_655 S
H1795 C1734 0.959 . S
H1796 C1734 0.959 . S
H1797 C1734 0.960 . S
H1798 C1737 0.929 . S
H1799 C1741 0.929 . S
H1800 C1742 0.959 . S
H1801 C1742 0.961 . S
H1802 C1742 0.961 . S
H1803 C1743 0.960 . S
H1804 C1743 0.960 . S
H1805 C1743 0.961 . S
H1806 C1745 0.980 . S
H1807 C1744 0.961 . S
H1808 C1744 0.960 . S
H1809 C1744 0.959 . S
H1810 C1747 0.886 1_455 S
H1811 C1751 0.931 . S
H1812 C1752 0.959 . S
H1813 C1752 0.961 . S
H1814 C1752 0.959 . S
H1815 C1753 0.960 . S
H1816 C1753 0.960 . S
H1817 C1753 0.960 . S
H1818 C1789 0.980 . S
H1819 C1755 0.930 . S
H1820 C1759 0.930 . S
H1821 C1760 0.961 . S
H1822 C1760 0.960 . S
H1823 C1760 0.958 . S
H1824 C1761 0.961 . S
H1825 C1761 0.960 . S
H1826 C1761 0.960 . S
H1827 C1763 0.969 1_655 S
H1828 C1762 0.961 . S
H1829 C1762 0.961 . S
H1830 C1762 0.959 . S
H1831 C1765 0.932 . S
H1832 C1769 0.929 . S
H1833 C1770 0.961 . S
H1834 C1770 0.959 . S
H1835 C1770 0.959 . S
H1836 C1771 0.960 . S
H1837 C1771 0.962 . S
H1838 C1771 0.961 . S
H1839 C1773 0.929 . S
H1840 C1776 0.930 . S
H1841 C1777 0.929 . S
H1842 C1780 0.930 . S
H1843 C1783 0.929 . S
H1844 C1784 0.930 . S
H1845 C1788 0.966 1_455 S
H1846 C1788 0.959 . S
H1847 C1788 0.958 . S
C1848 C1849 1.560 . S
C1848 H1909 0.959 . S
C1848 H1910 0.959 . S
C1848 H1911 0.960 . S
C1849 C1848 1.560 . S
C1849 O1904 1.426 . S
C1849 H1908 0.980 . S
C1850 C1851 1.407 . S
C1850 C1855 1.418 . S
C1850 O1904 1.334 . S
C1851 C1850 1.407 . S
C1851 C1852 1.360 . S
C1851 H1912 0.929 . S
C1852 C1851 1.360 . S
C1852 C1853 1.401 . S
C1852 C1856 1.527 . S
C1853 C1852 1.401 . S
C1853 C1854 1.405 . S
C1853 C1886 1.587 . S
C1854 C1853 1.405 . S
C1854 C1855 1.332 . S
C1854 C1857 1.496 . S
C1855 C1850 1.418 . S
C1855 C1854 1.332 . S
C1855 H1913 0.929 . S
C1856 C1852 1.527 . S
C1856 H1914 0.959 . S
C1856 H1915 0.961 . S
C1856 H1916 0.961 . S
C1857 C1854 1.496 . S
C1857 H1917 0.960 . S
C1857 H1918 0.960 . S
C1857 H1919 0.961 . S
C1858 C1859 1.517 . S
C1858 H1921 0.961 . S
C1858 H1922 0.960 . S
C1858 H1923 0.959 . S
C1859 C1858 1.517 . S
C1859 O1907 1.468 . S
C1859 H1920 0.980 . S
C1860 C1861 1.349 . S
C1860 C1865 1.367 . S
C1860 O1907 1.408 . S
C1861 C1860 1.349 . S
C1861 C1862 1.407 . S
C1861 H1924 0.930 . S
C1862 C1861 1.407 . S
C1862 C1863 1.449 . S
C1862 C1866 1.535 . S
C1863 C1862 1.449 . S
C1863 C1864 1.384 . S
C1863 C1888 1.553 . S
C1864 C1863 1.384 . S
C1864 C1865 1.364 . S
C1864 C1867 1.450 . S
C1865 C1860 1.367 . S
C1865 C1864 1.364 . S
C1865 H1925 0.931 . S
C1866 C1862 1.535 . S
C1866 H1926 0.959 . S
C1866 H1927 0.961 . S
C1866 H1928 0.959 . S
C1867 C1864 1.450 . S
C1867 H1929 0.960 . S
C1867 H1930 0.960 . S
C1867 H1931 0.960 . S
C1868 C1869 1.309 . S
C1868 C1873 1.304 . S
C1868 O1906 1.435 . S
C1869 C1868 1.309 . S
C1869 C1870 1.476 . S
C1869 H1933 0.930 . S
C1870 C1869 1.476 . S
C1870 C1871 1.400 . S
C1870 C1874 1.567 . S
C1871 C1870 1.400 . S
C1871 C1872 1.373 . S
C1871 C1893 1.432 . S
C1872 C1871 1.373 . S
C1872 C1873 1.339 . S
C1872 C1875 1.530 . S
C1873 C1868 1.304 . S
C1873 C1872 1.339 . S
C1873 H1934 0.930 . S
C1874 C1870 1.567 . S
C1874 H1935 0.961 . S
C1874 H1936 0.960 . S
C1874 H1937 0.958 . S
C1875 C1872 1.530 . S
C1875 H1938 0.961 . S
C1875 H1939 0.960 . S
C1875 H1940 0.960 . S
C1876 C1877 1.530 . S
C1876 H1942 0.961 . S
C1876 H1943 0.961 . S
C1876 H1944 0.959 . S
C1877 C1876 1.530 . S
C1877 O1905 1.412 . S
C1877 H1941 0.980 . S
C1878 C1879 1.288 . S
C1878 C1883 1.377 . S
C1878 O1905 1.393 . S
C1879 C1878 1.288 . S
C1879 C1880 1.369 . S
C1879 H1945 0.932 . S
C1880 C1879 1.369 . S
C1880 C1881 1.398 . S
C1880 C1884 1.527 . S
C1881 C1880 1.398 . S
C1881 C1882 1.380 . S
C1881 C1895 1.497 . S
C1882 C1881 1.380 . S
C1882 C1883 1.383 . S
C1882 C1885 1.603 . S
C1883 C1878 1.377 . S
C1883 C1882 1.383 . S
C1883 H1946 0.929 . S
C1884 C1880 1.527 . S
C1884 H1947 0.961 . S
C1884 H1948 0.959 . S
C1884 H1949 0.959 . S
C1885 C1882 1.603 . S
C1885 H1950 0.960 . S
C1885 H1951 0.962 . S
C1885 H1952 0.961 . S
C1886 C1853 1.587 . S
C1886 C1887 1.360 . S
C1886 C1899 1.412 . S
C1887 C1886 1.360 . S
C1887 C1888 1.365 . S
C1887 H1953 0.929 . S
C1888 C1863 1.553 . S
C1888 C1887 1.365 . S
C1888 C1889 1.404 . S
C1889 C1888 1.404 . S
C1889 C1890 1.395 . S
C1889 C1900 1.451 . S
C1890 C1889 1.395 . S
C1890 C1891 1.322 . S
C1890 H1954 0.930 . S
C1891 C1890 1.322 . S
C1891 C1892 1.459 . S
C1891 H1955 0.929 . S
C1892 C1891 1.459 . S
C1892 C1893 1.445 . S
C1892 C1901 1.395 . S
C1893 C1871 1.432 . S
C1893 C1892 1.445 . S
C1893 C1894 1.370 . S
C1894 C1893 1.370 . S
C1894 C1895 1.438 . S
C1894 H1956 0.930 . S
C1895 C1881 1.497 . S
C1895 C1894 1.438 . S
C1895 C1896 1.360 . S
C1896 C1895 1.360 . S
C1896 C1897 1.401 . S
C1896 C1901 1.446 . S
C1897 C1896 1.401 . S
C1897 C1898 1.347 . S
C1897 H1957 0.929 . S
C1898 C1897 1.347 . S
C1898 C1899 1.455 . S
C1898 H1958 0.930 . S
C1899 C1886 1.412 . S
C1899 C1898 1.455 . S
C1899 C1900 1.331 . S
C1900 C1889 1.451 . S
C1900 C1899 1.331 . S
C1900 C1901 1.497 . S
C1901 C1892 1.395 . S
C1901 C1896 1.446 . S
C1901 C1900 1.497 . S
C1902 C1903 1.582 . S
C1902 H1959 0.962 . S
C1902 H1960 0.959 . S
C1902 H1961 0.958 . S
C1903 C1902 1.582 . S
C1903 O1906 1.458 . S
C1903 H1932 0.980 . S
O1904 C1849 1.426 . S
O1904 C1850 1.334 . S
O1905 C1877 1.412 . S
O1905 C1878 1.393 . S
O1906 C1868 1.435 . S
O1906 C1903 1.458 . S
O1907 C1859 1.468 . S
O1907 C1860 1.408 . S
H1908 C1849 0.980 . S
H1909 C1848 0.959 . S
H1910 C1848 0.959 . S
H1911 C1848 0.960 . S
H1912 C1851 0.929 . S
H1913 C1855 0.929 . S
H1914 C1856 0.959 . S
H1915 C1856 0.961 . S
H1916 C1856 0.961 . S
H1917 C1857 0.960 . S
H1918 C1857 0.960 . S
H1919 C1857 0.961 . S
H1920 C1859 0.980 . S
H1921 C1858 0.961 . S
H1922 C1858 0.960 . S
H1923 C1858 0.959 . S
H1924 C1861 0.930 . S
H1925 C1865 0.931 . S
H1926 C1866 0.959 . S
H1927 C1866 0.961 . S
H1928 C1866 0.959 . S
H1929 C1867 0.960 . S
H1930 C1867 0.960 . S
H1931 C1867 0.960 . S
H1932 C1903 0.980 . S
H1933 C1869 0.930 . S
H1934 C1873 0.930 . S
H1935 C1874 0.961 . S
H1936 C1874 0.960 . S
H1937 C1874 0.958 . S
H1938 C1875 0.961 . S
H1939 C1875 0.960 . S
H1940 C1875 0.960 . S
H1941 C1877 0.980 . S
H1942 C1876 0.961 . S
H1943 C1876 0.961 . S
H1944 C1876 0.959 . S
H1945 C1879 0.932 . S
H1946 C1883 0.929 . S
H1947 C1884 0.961 . S
H1948 C1884 0.959 . S
H1949 C1884 0.959 . S
H1950 C1885 0.960 . S
H1951 C1885 0.962 . S
H1952 C1885 0.961 . S
H1953 C1887 0.929 . S
H1954 C1890 0.930 . S
H1955 C1891 0.929 . S
H1956 C1894 0.930 . S
H1957 C1897 0.929 . S
H1958 C1898 0.930 . S
H1959 C1902 0.962 . S
H1960 C1902 0.959 . S
H1961 C1902 0.958 . S
C1962 C1963 1.560 . S
C1962 H2023 0.959 . S
C1962 H2024 0.959 . S
C1962 H2025 0.960 . S
C1963 C1962 1.560 . S
C1963 O2018 1.426 . S
C1963 H2022 0.980 . S
C1964 C1965 1.407 . S
C1964 C1969 1.418 . S
C1964 O2018 1.334 . S
C1965 C1964 1.407 . S
C1965 C1966 1.360 . S
C1965 H2026 0.929 . S
C1966 C1965 1.360 . S
C1966 C1967 1.401 . S
C1966 C1970 1.527 . S
C1967 C1966 1.401 . S
C1967 C1968 1.405 . S
C1967 C2000 1.587 . S
C1968 C1967 1.405 . S
C1968 C1969 1.332 . S
C1968 C1971 1.496 . S
C1969 C1964 1.418 . S
C1969 C1968 1.332 . S
C1969 H2027 0.929 . S
C1970 C1966 1.527 . S
C1970 H2028 0.959 . S
C1970 H2029 0.961 . S
C1970 H2030 0.961 . S
C1971 C1968 1.496 . S
C1971 H2031 0.960 . S
C1971 H2032 0.960 . S
C1971 H2033 0.961 . S
C1972 C1973 1.517 . S
C1972 H2035 0.961 . S
C1972 H2036 0.960 . S
C1972 H2037 0.959 . S
C1973 C1972 1.517 . S
C1973 O2021 1.468 . S
C1973 H2034 0.980 . S
C1974 C1975 1.349 . S
C1974 C1979 1.367 . S
C1974 O2021 1.408 . S
C1975 C1974 1.349 . S
C1975 C1976 1.407 . S
C1975 H2038 0.930 . S
C1976 C1975 1.407 . S
C1976 C1977 1.449 . S
C1976 C1980 1.535 . S
C1977 C1976 1.449 . S
C1977 C1978 1.384 . S
C1977 C2002 1.553 . S
C1978 C1977 1.384 . S
C1978 C1979 1.364 . S
C1978 C1981 1.450 . S
C1979 C1974 1.367 . S
C1979 C1978 1.364 . S
C1979 H2039 0.931 . S
C1980 C1976 1.535 . S
C1980 H2040 0.959 . S
C1980 H2041 0.961 . S
C1980 H2042 0.959 . S
C1981 C1978 1.450 . S
C1981 H2043 0.960 . S
C1981 H2044 0.960 . S
C1981 H2045 0.960 . S
C1982 C1983 1.309 . S
C1982 C1987 1.304 . S
C1982 O2020 1.435 . S
C1983 C1982 1.309 . S
C1983 C1984 1.476 . S
C1983 H2047 0.930 . S
C1984 C1983 1.476 . S
C1984 C1985 1.400 . S
C1984 C1988 1.567 . S
C1985 C1984 1.400 . S
C1985 C1986 1.373 . S
C1985 C2007 1.432 . S
C1986 C1985 1.373 . S
C1986 C1987 1.339 . S
C1986 C1989 1.530 . S
C1987 C1982 1.304 . S
C1987 C1986 1.339 . S
C1987 H2048 0.930 . S
C1988 C1984 1.567 . S
C1988 H2049 0.961 . S
C1988 H2050 0.960 . S
C1988 H2051 0.958 . S
C1989 C1986 1.530 . S
C1989 H2052 0.961 . S
C1989 H2053 0.960 . S
C1989 H2054 0.960 . S
C1990 C1991 1.530 . S
C1990 H2056 0.961 . S
C1990 H2057 0.961 . S
C1990 H2058 0.959 . S
C1991 C1990 1.530 . S
C1991 O2019 1.412 . S
C1991 H2055 0.980 . S
C1992 C1993 1.288 . S
C1992 C1997 1.377 . S
C1992 O2019 1.393 . S
C1993 C1992 1.288 . S
C1993 C1994 1.369 . S
C1993 H2059 0.932 . S
C1994 C1993 1.369 . S
C1994 C1995 1.398 . S
C1994 C1998 1.527 . S
C1995 C1994 1.398 . S
C1995 C1996 1.380 . S
C1995 C2009 1.497 . S
C1996 C1995 1.380 . S
C1996 C1997 1.383 . S
C1996 C1999 1.603 . S
C1997 C1992 1.377 . S
C1997 C1996 1.383 . S
C1997 H2060 0.929 . S
C1998 C1994 1.527 . S
C1998 H2061 0.961 . S
C1998 H2062 0.959 . S
C1998 H2063 0.959 . S
C1999 C1996 1.603 . S
C1999 H2064 0.960 . S
C1999 H2065 0.962 . S
C1999 H2066 0.961 . S
C2000 C1967 1.587 . S
C2000 C2001 1.360 . S
C2000 C2013 1.412 . S
C2001 C2000 1.360 . S
C2001 C2002 1.365 . S
C2001 H2067 0.929 . S
C2002 C1977 1.553 . S
C2002 C2001 1.365 . S
C2002 C2003 1.404 . S
C2003 C2002 1.404 . S
C2003 C2004 1.395 . S
C2003 C2014 1.451 . S
C2004 C2003 1.395 . S
C2004 C2005 1.322 . S
C2004 H2068 0.930 . S
C2005 C2004 1.322 . S
C2005 C2006 1.459 . S
C2005 H2069 0.929 . S
C2006 C2005 1.459 . S
C2006 C2007 1.445 . S
C2006 C2015 1.395 . S
C2007 C1985 1.432 . S
C2007 C2006 1.445 . S
C2007 C2008 1.370 . S
C2008 C2007 1.370 . S
C2008 C2009 1.438 . S
C2008 H2070 0.930 . S
C2009 C1995 1.497 . S
C2009 C2008 1.438 . S
C2009 C2010 1.360 . S
C2010 C2009 1.360 . S
C2010 C2011 1.401 . S
C2010 C2015 1.446 . S
C2011 C2010 1.401 . S
C2011 C2012 1.347 . S
C2011 H2071 0.929 . S
C2012 C2011 1.347 . S
C2012 C2013 1.455 . S
C2012 H2072 0.930 . S
C2013 C2000 1.412 . S
C2013 C2012 1.455 . S
C2013 C2014 1.331 . S
C2014 C2003 1.451 . S
C2014 C2013 1.331 . S
C2014 C2015 1.497 . S
C2015 C2006 1.395 . S
C2015 C2010 1.446 . S
C2015 C2014 1.497 . S
C2016 C2017 1.582 . S
C2016 H2073 0.962 . S
C2016 H2074 0.959 . S
C2016 H2075 0.958 . S
C2017 C2016 1.582 . S
C2017 O2020 1.458 . S
C2017 H2046 0.980 . S
O2018 C1963 1.426 . S
O2018 C1964 1.334 . S
O2019 C1991 1.412 . S
O2019 C1992 1.393 . S
O2020 C1982 1.435 . S
O2020 C2017 1.458 . S
O2021 C1973 1.468 . S
O2021 C1974 1.408 . S
H2022 C1963 0.980 . S
H2023 C1962 0.959 . S
H2024 C1962 0.959 . S
H2025 C1962 0.960 . S
H2026 C1965 0.929 . S
H2027 C1969 0.929 . S
H2028 C1970 0.959 . S
H2029 C1970 0.961 . S
H2030 C1970 0.961 . S
H2031 C1971 0.960 . S
H2032 C1971 0.960 . S
H2033 C1971 0.961 . S
H2034 C1973 0.980 . S
H2035 C1972 0.961 . S
H2036 C1972 0.960 . S
H2037 C1972 0.959 . S
H2038 C1975 0.930 . S
H2039 C1979 0.931 . S
H2040 C1980 0.959 . S
H2041 C1980 0.961 . S
H2042 C1980 0.959 . S
H2043 C1981 0.960 . S
H2044 C1981 0.960 . S
H2045 C1981 0.960 . S
H2046 C2017 0.980 . S
H2047 C1983 0.930 . S
H2048 C1987 0.930 . S
H2049 C1988 0.961 . S
H2050 C1988 0.960 . S
H2051 C1988 0.958 . S
H2052 C1989 0.961 . S
H2053 C1989 0.960 . S
H2054 C1989 0.960 . S
H2055 C1991 0.980 . S
H2056 C1990 0.961 . S
H2057 C1990 0.961 . S
H2058 C1990 0.959 . S
H2059 C1993 0.932 . S
H2060 C1997 0.929 . S
H2061 C1998 0.961 . S
H2062 C1998 0.959 . S
H2063 C1998 0.959 . S
H2064 C1999 0.960 . S
H2065 C1999 0.962 . S
H2066 C1999 0.961 . S
H2067 C2001 0.929 . S
H2068 C2004 0.930 . S
H2069 C2005 0.929 . S
H2070 C2008 0.930 . S
H2071 C2011 0.929 . S
H2072 C2012 0.930 . S
H2073 C2016 0.962 . S
H2074 C2016 0.959 . S
H2075 C2016 0.958 . S
C2076 C2077 1.560 . S
C2076 H2137 0.959 . S
C2076 H2138 0.959 . S
C2076 H2139 0.960 . S
C2077 C2076 1.560 . S
C2077 O2132 1.426 . S
C2077 H2136 0.980 . S
C2078 C2079 1.407 . S
C2078 C2083 1.418 . S
C2078 O2132 1.334 . S
C2079 C2078 1.407 . S
C2079 C2080 1.360 . S
C2079 H2140 0.929 . S
C2080 C2079 1.360 . S
C2080 C2081 1.401 . S
C2080 C2084 1.527 . S
C2081 C2080 1.401 . S
C2081 C2082 1.405 . S
C2081 C2114 1.587 . S
C2082 C2081 1.405 . S
C2082 C2083 1.332 . S
C2082 C2085 1.496 . S
C2083 C2078 1.418 . S
C2083 C2082 1.332 . S
C2083 H2141 0.929 . S
C2084 C2080 1.527 . S
C2084 H2142 0.959 . S
C2084 H2143 0.961 . S
C2084 H2144 0.961 . S
C2085 C2082 1.496 . S
C2085 H2145 0.960 . S
C2085 H2146 0.960 . S
C2085 H2147 0.961 . S
C2086 C2087 1.517 . S
C2086 H2149 0.961 . S
C2086 H2150 0.960 . S
C2086 H2151 0.959 . S
C2087 C2086 1.517 . S
C2087 O2135 1.468 . S
C2087 H2148 0.980 . S
C2088 C2089 1.349 . S
C2088 C2093 1.367 . S
C2088 O2135 1.408 . S
C2089 C2088 1.349 . S
C2089 C2090 1.407 . S
C2089 H2152 0.930 . S
C2090 C2089 1.407 . S
C2090 C2091 1.449 . S
C2090 C2094 1.535 . S
C2091 C2090 1.449 . S
C2091 C2092 1.384 . S
C2091 C2116 1.553 . S
C2092 C2091 1.384 . S
C2092 C2093 1.364 . S
C2092 C2095 1.450 . S
C2093 C2088 1.367 . S
C2093 C2092 1.364 . S
C2093 H2153 0.931 . S
C2094 C2090 1.535 . S
C2094 H2154 0.959 . S
C2094 H2155 0.961 . S
C2094 H2156 0.959 . S
C2095 C2092 1.450 . S
C2095 H2157 0.960 . S
C2095 H2158 0.960 . S
C2095 H2159 0.960 . S
C2096 C2097 1.309 . S
C2096 C2101 1.304 . S
C2096 O2134 1.435 . S
C2097 C2096 1.309 . S
C2097 C2098 1.476 . S
C2097 H2161 0.930 . S
C2098 C2097 1.476 . S
C2098 C2099 1.400 . S
C2098 C2102 1.567 . S
C2099 C2098 1.400 . S
C2099 C2100 1.373 . S
C2099 C2121 1.432 . S
C2100 C2099 1.373 . S
C2100 C2101 1.339 . S
C2100 C2103 1.530 . S
C2101 C2096 1.304 . S
C2101 C2100 1.339 . S
C2101 H2162 0.930 . S
C2102 C2098 1.567 . S
C2102 H2163 0.961 . S
C2102 H2164 0.960 . S
C2102 H2165 0.958 . S
C2103 C2100 1.530 . S
C2103 H2166 0.961 . S
C2103 H2167 0.960 . S
C2103 H2168 0.960 . S
C2104 C2105 1.530 . S
C2104 H2170 0.961 . S
C2104 H2171 0.961 . S
C2104 H2172 0.959 . S
C2105 C2104 1.530 . S
C2105 O2133 1.412 . S
C2105 H2169 0.980 . S
C2106 C2107 1.288 . S
C2106 C2111 1.377 . S
C2106 O2133 1.393 . S
C2107 C2106 1.288 . S
C2107 C2108 1.369 . S
C2107 H2173 0.932 . S
C2108 C2107 1.369 . S
C2108 C2109 1.398 . S
C2108 C2112 1.527 . S
C2109 C2108 1.398 . S
C2109 C2110 1.380 . S
C2109 C2123 1.497 . S
C2110 C2109 1.380 . S
C2110 C2111 1.383 . S
C2110 C2113 1.603 . S
C2111 C2106 1.377 . S
C2111 C2110 1.383 . S
C2111 H2174 0.929 . S
C2112 C2108 1.527 . S
C2112 H2175 0.961 . S
C2112 H2176 0.959 . S
C2112 H2177 0.959 . S
C2113 C2110 1.603 . S
C2113 H2178 0.960 . S
C2113 H2179 0.962 . S
C2113 H2180 0.961 . S
C2114 C2081 1.587 . S
C2114 C2115 1.360 . S
C2114 C2127 1.412 . S
C2115 C2114 1.360 . S
C2115 C2116 1.365 . S
C2115 H2181 0.929 . S
C2116 C2091 1.553 . S
C2116 C2115 1.365 . S
C2116 C2117 1.404 . S
C2117 C2116 1.404 . S
C2117 C2118 1.395 . S
C2117 C2128 1.451 . S
C2118 C2117 1.395 . S
C2118 C2119 1.322 . S
C2118 H2182 0.930 . S
C2119 C2118 1.322 . S
C2119 C2120 1.459 . S
C2119 H2183 0.929 . S
C2120 C2119 1.459 . S
C2120 C2121 1.445 . S
C2120 C2129 1.395 . S
C2121 C2099 1.432 . S
C2121 C2120 1.445 . S
C2121 C2122 1.370 . S
C2122 C2121 1.370 . S
C2122 C2123 1.438 . S
C2122 H2184 0.930 . S
C2123 C2109 1.497 . S
C2123 C2122 1.438 . S
C2123 C2124 1.360 . S
C2124 C2123 1.360 . S
C2124 C2125 1.401 . S
C2124 C2129 1.446 . S
C2125 C2124 1.401 . S
C2125 C2126 1.347 . S
C2125 H2185 0.929 . S
C2126 C2125 1.347 . S
C2126 C2127 1.455 . S
C2126 H2186 0.930 . S
C2127 C2114 1.412 . S
C2127 C2126 1.455 . S
C2127 C2128 1.331 . S
C2128 C2117 1.451 . S
C2128 C2127 1.331 . S
C2128 C2129 1.497 . S
C2129 C2120 1.395 . S
C2129 C2124 1.446 . S
C2129 C2128 1.497 . S
C2130 C2131 1.582 . S
C2130 H2187 0.962 . S
C2130 H2188 0.959 . S
C2130 H2189 0.958 . S
C2131 C2130 1.582 . S
C2131 O2134 1.458 . S
C2131 H2160 0.980 . S
O2132 C2077 1.426 . S
O2132 C2078 1.334 . S
O2133 C2105 1.412 . S
O2133 C2106 1.393 . S
O2134 C2096 1.435 . S
O2134 C2131 1.458 . S
O2135 C2087 1.468 . S
O2135 C2088 1.408 . S
H2136 C2077 0.980 . S
H2137 C2076 0.959 . S
H2138 C2076 0.959 . S
H2139 C2076 0.960 . S
H2140 C2079 0.929 . S
H2141 C2083 0.929 . S
H2142 C2084 0.959 . S
H2143 C2084 0.961 . S
H2144 C2084 0.961 . S
H2145 C2085 0.960 . S
H2146 C2085 0.960 . S
H2147 C2085 0.961 . S
H2148 C2087 0.980 . S
H2149 C2086 0.961 . S
H2150 C2086 0.960 . S
H2151 C2086 0.959 . S
H2152 C2089 0.930 . S
H2153 C2093 0.931 . S
H2154 C2094 0.959 . S
H2155 C2094 0.961 . S
H2156 C2094 0.959 . S
H2157 C2095 0.960 . S
H2158 C2095 0.960 . S
H2159 C2095 0.960 . S
H2160 C2131 0.980 . S
H2161 C2097 0.930 . S
H2162 C2101 0.930 . S
H2163 C2102 0.961 . S
H2164 C2102 0.960 . S
H2165 C2102 0.958 . S
H2166 C2103 0.961 . S
H2167 C2103 0.960 . S
H2168 C2103 0.960 . S
H2169 C2105 0.980 . S
H2170 C2104 0.961 . S
H2171 C2104 0.961 . S
H2172 C2104 0.959 . S
H2173 C2107 0.932 . S
H2174 C2111 0.929 . S
H2175 C2112 0.961 . S
H2176 C2112 0.959 . S
H2177 C2112 0.959 . S
H2178 C2113 0.960 . S
H2179 C2113 0.962 . S
H2180 C2113 0.961 . S
H2181 C2115 0.929 . S
H2182 C2118 0.930 . S
H2183 C2119 0.929 . S
H2184 C2122 0.930 . S
H2185 C2125 0.929 . S
H2186 C2126 0.930 . S
H2187 C2130 0.962 . S
H2188 C2130 0.959 . S
H2189 C2130 0.958 . S
C2190 C2191 1.560 . S
C2190 H2251 0.959 . S
C2190 H2252 0.959 . S
C2190 H2253 0.960 . S
C2191 C2190 1.560 . S
C2191 O2246 1.426 . S
C2191 H2250 0.980 . S
C2192 C2193 1.407 . S
C2192 C2197 1.418 . S
C2192 O2246 1.334 . S
C2193 C2192 1.407 . S
C2193 C2194 1.360 . S
C2193 H2254 0.929 . S
C2194 C2193 1.360 . S
C2194 C2195 1.401 . S
C2194 C2198 1.527 . S
C2195 C2194 1.401 . S
C2195 C2196 1.405 . S
C2195 C2228 1.587 . S
C2196 C2195 1.405 . S
C2196 C2197 1.332 . S
C2196 C2199 1.496 . S
C2197 C2192 1.418 . S
C2197 C2196 1.332 . S
C2197 H2255 0.929 . S
C2198 C2194 1.527 . S
C2198 H2256 0.959 . S
C2198 H2257 0.961 . S
C2198 H2258 0.961 . S
C2199 C2196 1.496 . S
C2199 H2259 0.960 . S
C2199 H2260 0.960 . S
C2199 H2261 0.961 . S
C2200 C2201 1.517 . S
C2200 H2263 0.961 . S
C2200 H2264 0.960 . S
C2200 H2265 0.959 . S
C2201 C2200 1.517 . S
C2201 O2249 1.468 . S
C2201 H2262 0.980 . S
C2202 C2203 1.349 . S
C2202 C2207 1.367 . S
C2202 O2249 1.408 . S
C2203 C2202 1.349 . S
C2203 C2204 1.407 . S
C2203 H2266 0.930 . S
C2204 C2203 1.407 . S
C2204 C2205 1.449 . S
C2204 C2208 1.535 . S
C2205 C2204 1.449 . S
C2205 C2206 1.384 . S
C2205 C2230 1.553 . S
C2206 C2205 1.384 . S
C2206 C2207 1.364 . S
C2206 C2209 1.450 . S
C2207 C2202 1.367 . S
C2207 C2206 1.364 . S
C2207 H2267 0.931 . S
C2208 C2204 1.535 . S
C2208 H2268 0.959 . S
C2208 H2269 0.961 . S
C2208 H2270 0.959 . S
C2209 C2206 1.450 . S
C2209 H2271 0.960 . S
C2209 H2272 0.960 . S
C2209 H2273 0.960 . S
C2210 C2211 1.309 . S
C2210 C2215 1.304 . S
C2210 O2248 1.435 . S
C2211 C2210 1.309 . S
C2211 C2212 1.476 . S
C2211 H2275 0.930 . S
C2212 C2211 1.476 . S
C2212 C2213 1.400 . S
C2212 C2216 1.567 . S
C2213 C2212 1.400 . S
C2213 C2214 1.373 . S
C2213 C2235 1.432 . S
C2214 C2213 1.373 . S
C2214 C2215 1.339 . S
C2214 C2217 1.530 . S
C2215 C2210 1.304 . S
C2215 C2214 1.339 . S
C2215 H2276 0.930 . S
C2216 C2212 1.567 . S
C2216 H2277 0.961 . S
C2216 H2278 0.960 . S
C2216 H2279 0.958 . S
C2217 C2214 1.530 . S
C2217 H2280 0.961 . S
C2217 H2281 0.960 . S
C2217 H2282 0.960 . S
C2218 C2219 1.530 . S
C2218 H2284 0.961 . S
C2218 H2285 0.961 . S
C2218 H2286 0.959 . S
C2219 C2218 1.530 . S
C2219 O2247 1.412 . S
C2219 H2283 0.980 . S
C2220 C2221 1.288 . S
C2220 C2225 1.377 . S
C2220 O2247 1.393 . S
C2221 C2220 1.288 . S
C2221 C2222 1.369 . S
C2221 H2287 0.932 . S
C2222 C2221 1.369 . S
C2222 C2223 1.398 . S
C2222 C2226 1.527 . S
C2223 C2222 1.398 . S
C2223 C2224 1.380 . S
C2223 C2237 1.497 . S
C2224 C2223 1.380 . S
C2224 C2225 1.383 . S
C2224 C2227 1.603 . S
C2225 C2220 1.377 . S
C2225 C2224 1.383 . S
C2225 H2288 0.929 . S
C2226 C2222 1.527 . S
C2226 H2289 0.961 . S
C2226 H2290 0.959 . S
C2226 H2291 0.959 . S
C2227 C2224 1.603 . S
C2227 H2292 0.960 . S
C2227 H2293 0.962 . S
C2227 H2294 0.961 . S
C2228 C2195 1.587 . S
C2228 C2229 1.360 . S
C2228 C2241 1.412 . S
C2229 C2228 1.360 . S
C2229 C2230 1.365 . S
C2229 H2295 0.929 . S
C2230 C2205 1.553 . S
C2230 C2229 1.365 . S
C2230 C2231 1.404 . S
C2231 C2230 1.404 . S
C2231 C2232 1.395 . S
C2231 C2242 1.451 . S
C2232 C2231 1.395 . S
C2232 C2233 1.322 . S
C2232 H2296 0.930 . S
C2233 C2232 1.322 . S
C2233 C2234 1.459 . S
C2233 H2297 0.929 . S
C2234 C2233 1.459 . S
C2234 C2235 1.445 . S
C2234 C2243 1.395 . S
C2235 C2213 1.432 . S
C2235 C2234 1.445 . S
C2235 C2236 1.370 . S
C2236 C2235 1.370 . S
C2236 C2237 1.438 . S
C2236 H2298 0.930 . S
C2237 C2223 1.497 . S
C2237 C2236 1.438 . S
C2237 C2238 1.360 . S
C2238 C2237 1.360 . S
C2238 C2239 1.401 . S
C2238 C2243 1.446 . S
C2239 C2238 1.401 . S
C2239 C2240 1.347 . S
C2239 H2299 0.929 . S
C2240 C2239 1.347 . S
C2240 C2241 1.455 . S
C2240 H2300 0.930 . S
C2241 C2228 1.412 . S
C2241 C2240 1.455 . S
C2241 C2242 1.331 . S
C2242 C2231 1.451 . S
C2242 C2241 1.331 . S
C2242 C2243 1.497 . S
C2243 C2234 1.395 . S
C2243 C2238 1.446 . S
C2243 C2242 1.497 . S
C2244 C2245 1.582 . S
C2244 H2301 0.962 . S
C2244 H2302 0.959 . S
C2244 H2303 0.958 . S
C2245 C2244 1.582 . S
C2245 O2248 1.458 . S
C2245 H2274 0.980 . S
O2246 C2191 1.426 . S
O2246 C2192 1.334 . S
O2247 C2219 1.412 . S
O2247 C2220 1.393 . S
O2248 C2210 1.435 . S
O2248 C2245 1.458 . S
O2249 C2201 1.468 . S
O2249 C2202 1.408 . S
H2250 C2191 0.980 . S
H2251 C2190 0.959 . S
H2252 C2190 0.959 . S
H2253 C2190 0.960 . S
H2254 C2193 0.929 . S
H2255 C2197 0.929 . S
H2256 C2198 0.959 . S
H2257 C2198 0.961 . S
H2258 C2198 0.961 . S
H2259 C2199 0.960 . S
H2260 C2199 0.960 . S
H2261 C2199 0.961 . S
H2262 C2201 0.980 . S
H2263 C2200 0.961 . S
H2264 C2200 0.960 . S
H2265 C2200 0.959 . S
H2266 C2203 0.930 . S
H2267 C2207 0.931 . S
H2268 C2208 0.959 . S
H2269 C2208 0.961 . S
H2270 C2208 0.959 . S
H2271 C2209 0.960 . S
H2272 C2209 0.960 . S
H2273 C2209 0.960 . S
H2274 C2245 0.980 . S
H2275 C2211 0.930 . S
H2276 C2215 0.930 . S
H2277 C2216 0.961 . S
H2278 C2216 0.960 . S
H2279 C2216 0.958 . S
H2280 C2217 0.961 . S
H2281 C2217 0.960 . S
H2282 C2217 0.960 . S
H2283 C2219 0.980 . S
H2284 C2218 0.961 . S
H2285 C2218 0.961 . S
H2286 C2218 0.959 . S
H2287 C2221 0.932 . S
H2288 C2225 0.929 . S
H2289 C2226 0.961 . S
H2290 C2226 0.959 . S
H2291 C2226 0.959 . S
H2292 C2227 0.960 . S
H2293 C2227 0.962 . S
H2294 C2227 0.961 . S
H2295 C2229 0.929 . S
H2296 C2232 0.930 . S
H2297 C2233 0.929 . S
H2298 C2236 0.930 . S
H2299 C2239 0.929 . S
H2300 C2240 0.930 . S
H2301 C2244 0.962 . S
H2302 C2244 0.959 . S
H2303 C2244 0.958 . S
C2304 C2305 1.387 . S
C2304 H2308 0.950 . S
C2304 C2313 1.390 . S
C2305 C2304 1.387 . S
C2305 C2307 1.387 1_655 S
H2306 C2313 0.950 . S
C2307 C2305 1.387 1_455 S
C2307 C2309 1.390 . S
C2307 H2311 0.950 . S
H2308 C2304 0.950 . S
C2309 C2307 1.390 . S
C2309 C2310 1.387 1_455 S
C2309 H2312 0.950 . S
C2310 C2309 1.387 1_655 S
C2310 C2313 1.387 . S
H2311 C2307 0.950 . S
H2312 C2309 0.950 . S
C2313 C2304 1.390 . S
C2313 H2306 0.950 . S
C2313 C2310 1.387 . S
C2314 C2315 1.387 . S
C2314 H2318 0.950 . S
C2314 C2323 1.390 . S
C2315 C2314 1.387 . S
C2315 C2317 1.387 . S
H2316 C2323 0.950 . S
C2317 C2315 1.387 . S
C2317 C2319 1.390 . S
C2317 H2321 0.950 . S
H2318 C2314 0.950 . S
C2319 C2317 1.390 . S
C2319 C2320 1.387 . S
C2319 H2322 0.950 . S
C2320 C2319 1.387 . S
C2320 C2323 1.387 . S
H2321 C2317 0.950 . S
H2322 C2319 0.950 . S
C2323 C2314 1.390 . S
C2323 H2316 0.950 . S
C2323 C2320 1.387 . S
C2324 C2325 1.387 1_565 S
C2324 H2328 0.950 . S
C2324 C2333 1.390 . S
C2325 C2324 1.387 1_545 S
C2325 C2327 1.387 . S
H2326 C2333 0.950 . S
C2327 C2325 1.387 . S
C2327 C2329 1.390 . S
C2327 H2331 0.950 . S
H2328 C2324 0.950 . S
C2329 C2327 1.390 . S
C2329 C2330 1.387 . S
C2329 H2332 0.950 . S
C2330 C2329 1.387 . S
C2330 C2333 1.387 1_545 S
H2331 C2327 0.950 . S
H2332 C2329 0.950 . S
C2333 C2324 1.390 . S
C2333 H2326 0.950 . S
C2333 C2330 1.387 1_565 S
C2334 C2335 1.387 . S
C2334 H2338 0.950 . S
C2334 C2343 1.390 . S
C2335 C2334 1.387 . S
C2335 C2337 1.387 1_565 S
H2336 C2343 0.950 . S
C2337 C2335 1.387 1_545 S
C2337 C2339 1.390 . S
C2337 H2341 0.950 . S
H2338 C2334 0.950 . S
C2339 C2337 1.390 . S
C2339 C2340 1.387 1_545 S
C2339 H2342 0.950 . S
C2340 C2339 1.387 1_565 S
C2340 C2343 1.387 . S
H2341 C2337 0.950 . S
H2342 C2339 0.950 . S
C2343 C2334 1.390 . S
C2343 H2336 0.950 . S
C2343 C2340 1.387 . S
C2344 C2345 1.387 . S
C2344 H2348 0.950 . S
C2344 C2353 1.390 . S
C2345 C2344 1.387 . S
C2345 C2347 1.387 . S
H2346 C2353 0.950 . S
C2347 C2345 1.387 . S
C2347 C2349 1.390 . S
C2347 H2351 0.950 . S
H2348 C2344 0.950 . S
C2349 C2347 1.390 . S
C2349 C2350 1.387 . S
C2349 H2352 0.950 . S
C2350 C2349 1.387 . S
C2350 C2353 1.387 . S
H2351 C2347 0.950 . S
H2352 C2349 0.950 . S
C2353 C2344 1.390 . S
C2353 H2346 0.950 . S
C2353 C2350 1.387 . S
C2354 C2355 1.387 . S
C2354 H2358 0.950 . S
C2354 C2363 1.390 . S
C2355 C2354 1.387 . S
C2355 C2357 1.387 . S
H2356 C2363 0.950 . S
C2357 C2355 1.387 . S
C2357 C2359 1.390 . S
C2357 H2361 0.950 . S
H2358 C2354 0.950 . S
C2359 C2357 1.390 . S
C2359 C2360 1.387 . S
C2359 H2362 0.950 . S
C2360 C2359 1.387 . S
C2360 C2363 1.387 . S
H2361 C2357 0.950 . S
H2362 C2359 0.950 . S
C2363 C2354 1.390 . S
C2363 H2356 0.950 . S
C2363 C2360 1.387 . S
C2364 C2365 1.387 . S
C2364 H2368 0.950 . S
C2364 C2373 1.390 . S
C2365 C2364 1.387 . S
C2365 C2367 1.387 . S
H2366 C2373 0.950 . S
C2367 C2365 1.387 . S
C2367 C2369 1.379 . S
C2367 H2371 0.950 . S
H2368 C2364 0.950 . S
C2369 C2367 1.379 . S
C2369 C2370 1.409 . S
C2369 H2372 0.941 1_455 S
C2370 C2369 1.409 . S
C2370 C2373 1.387 . S
H2371 C2367 0.950 . S
H2372 C2369 0.941 1_655 S
C2373 C2364 1.390 . S
C2373 H2366 0.950 . S
C2373 C2370 1.387 . S
C2374 C2375 1.387 . S
C2374 H2378 0.950 . S
C2374 C2383 1.390 . S
C2375 C2374 1.387 . S
C2375 C2377 1.387 . S
H2376 C2383 0.950 . S
C2377 C2375 1.387 . S
C2377 C2379 1.390 . S
C2377 H2381 0.950 . S
H2378 C2374 0.950 . S
C2379 C2377 1.390 . S
C2379 C2380 1.387 . S
C2379 H2382 0.950 . S
C2380 C2379 1.387 . S
C2380 C2383 1.387 . S
H2381 C2377 0.950 . S
H2382 C2379 0.950 . S
C2383 C2374 1.390 . S
C2383 H2376 0.950 . S
C2383 C2380 1.387 . S
C2384 C2385 1.387 1_545 S
C2384 H2388 0.950 . S
C2384 C2393 1.390 . S
C2385 C2384 1.387 1_565 S
C2385 C2387 1.387 . S
H2386 C2393 0.950 . S
C2387 C2385 1.387 . S
C2387 C2389 1.390 . S
C2387 H2391 0.950 . S
H2388 C2384 0.950 . S
C2389 C2387 1.390 . S
C2389 C2390 1.387 . S
C2389 H2392 0.950 . S
C2390 C2389 1.387 . S
C2390 C2393 1.387 1_565 S
H2391 C2387 0.950 . S
H2392 C2389 0.950 . S
C2393 C2384 1.390 . S
C2393 H2386 0.950 . S
C2393 C2390 1.387 1_545 S
C2394 C2395 1.387 . S
C2394 H2398 0.950 . S
C2394 C2403 1.390 . S
C2395 C2394 1.387 . S
C2395 C2397 1.387 1_545 S
H2396 C2403 0.950 . S
C2397 C2395 1.387 1_565 S
C2397 C2399 1.390 . S
C2397 H2401 0.950 . S
H2398 C2394 0.950 . S
C2399 C2397 1.390 . S
C2399 C2400 1.387 1_565 S
C2399 H2402 0.950 . S
C2400 C2399 1.387 1_545 S
C2400 C2403 1.387 . S
H2401 C2397 0.950 . S
H2402 C2399 0.950 . S
C2403 C2394 1.390 . S
C2403 H2396 0.950 . S
C2403 C2400 1.387 . S
C2404 C2405 1.387 . S
C2404 H2408 0.950 . S
C2404 C2413 1.390 . S
C2405 C2404 1.387 . S
C2405 C2407 1.387 . S
H2406 C2413 0.950 1_455 S
C2407 C2405 1.387 . S
C2407 C2409 1.390 . S
C2407 H2411 0.950 . S
H2408 C2404 0.950 . S
C2409 C2407 1.390 . S
C2409 C2410 1.387 . S
C2409 H2412 0.950 . S
C2410 C2409 1.387 . S
C2410 C2413 1.387 . S
H2411 C2407 0.950 . S
H2412 C2409 0.950 . S
C2413 C2404 1.390 . S
C2413 H2406 0.950 1_655 S
C2413 C2410 1.387 . S
C2414 C2415 1.387 . S
C2414 H2418 0.950 . S
C2414 C2423 1.390 . S
C2415 C2414 1.387 . S
C2415 C2417 1.387 . S
H2416 C2423 0.950 . S
C2417 C2415 1.387 . S
C2417 C2419 1.390 . S
C2417 H2421 0.950 . S
H2418 C2414 0.950 . S
C2419 C2417 1.390 . S
C2419 C2420 1.387 . S
C2419 H2422 0.950 . S
C2420 C2419 1.387 . S
C2420 C2423 1.387 . S
H2421 C2417 0.950 . S
H2422 C2419 0.950 . S
C2423 C2414 1.390 . S
C2423 H2416 0.950 . S
C2423 C2420 1.387 . S
C2424 C2425 1.387 . S
C2424 H2428 0.950 . S
C2424 C2433 1.390 . S
C2425 C2424 1.387 . S
C2425 C2427 1.387 . S
H2426 C2433 0.950 . S
C2427 C2425 1.387 . S
C2427 C2429 1.390 . S
C2427 H2431 0.950 . S
H2428 C2424 0.950 . S
C2429 C2427 1.390 . S
C2429 C2430 1.387 . S
C2429 H2432 0.950 . S
C2430 C2429 1.387 . S
C2430 C2433 1.387 . S
H2431 C2427 0.950 . S
H2432 C2429 0.950 . S
C2433 C2424 1.390 . S
C2433 H2426 0.950 . S
C2433 C2430 1.387 . S
C2434 C2435 1.387 . S
C2434 H2438 0.950 . S
C2434 C2443 1.390 . S
C2435 C2434 1.387 . S
C2435 C2437 1.387 . S
H2436 C2443 0.950 . S
C2437 C2435 1.387 . S
C2437 C2439 1.390 . S
C2437 H2441 0.950 . S
H2438 C2434 0.950 . S
C2439 C2437 1.390 . S
C2439 C2440 1.387 . S
C2439 H2442 0.950 . S
C2440 C2439 1.387 . S
C2440 C2443 1.387 . S
H2441 C2437 0.950 . S
H2442 C2439 0.950 . S
C2443 C2434 1.390 . S
C2443 H2436 0.950 . S
C2443 C2440 1.387 . S
C2444 C2445 1.387 . S
C2444 H2448 0.950 . S
C2444 C2453 1.390 . S
C2445 C2444 1.387 . S
C2445 C2447 1.387 . S
H2446 C2453 0.950 . S
C2447 C2445 1.387 . S
C2447 C2449 1.390 . S
C2447 H2451 0.950 . S
H2448 C2444 0.950 . S
C2449 C2447 1.390 . S
C2449 C2450 1.387 . S
C2449 H2452 0.950 . S
C2450 C2449 1.387 . S
C2450 C2453 1.387 . S
H2451 C2447 0.950 . S
H2452 C2449 0.950 . S
C2453 C2444 1.390 . S
C2453 H2446 0.950 . S
C2453 C2450 1.387 . S
C2454 C2455 1.387 . S
C2454 H2458 0.950 . S
C2454 C2463 1.390 . S
C2455 C2454 1.387 . S
C2455 C2457 1.387 . S
H2456 C2463 0.950 . S
C2457 C2455 1.387 . S
C2457 C2459 1.390 . S
C2457 H2461 0.950 . S
H2458 C2454 0.950 . S
C2459 C2457 1.390 . S
C2459 C2460 1.387 . S
C2459 H2462 0.950 . S
C2460 C2459 1.387 . S
C2460 C2463 1.387 . S
H2461 C2457 0.950 . S
H2462 C2459 0.950 . S
C2463 C2454 1.390 . S
C2463 H2456 0.950 . S
C2463 C2460 1.387 . S
C2464 C2465 1.387 . S
C2464 H2468 0.950 . S
C2464 C2473 1.390 . S
C2465 C2464 1.387 . S
C2465 C2467 1.387 . S
H2466 C2473 0.950 . S
C2467 C2465 1.387 . S
C2467 C2469 1.390 . S
C2467 H2471 0.950 . S
H2468 C2464 0.950 . S
C2469 C2467 1.390 . S
C2469 C2470 1.387 . S
C2469 H2472 0.950 . S
C2470 C2469 1.387 . S
C2470 C2473 1.387 . S
H2471 C2467 0.950 . S
H2472 C2469 0.950 . S
C2473 C2464 1.390 . S
C2473 H2466 0.950 . S
C2473 C2470 1.387 . S
C2474 C2475 1.387 . S
C2474 H2478 0.950 . S
C2474 C2483 1.390 . S
C2475 C2474 1.387 . S
C2475 C2477 1.387 . S
H2476 C2483 0.950 . S
C2477 C2475 1.387 . S
C2477 C2479 1.390 . S
C2477 H2481 0.950 . S
H2478 C2474 0.950 . S
C2479 C2477 1.390 . S
C2479 C2480 1.387 . S
C2479 H2482 0.950 . S
C2480 C2479 1.387 . S
C2480 C2483 1.387 . S
H2481 C2477 0.950 . S
H2482 C2479 0.950 . S
C2483 C2474 1.390 . S
C2483 H2476 0.950 . S
C2483 C2480 1.387 . S
C2484 C2485 1.387 . S
C2484 H2488 0.950 . S
C2484 C2493 1.390 . S
C2485 C2484 1.387 . S
C2485 C2487 1.387 . S
H2486 C2493 0.950 . S
C2487 C2485 1.387 . S
C2487 C2489 1.390 . S
C2487 H2491 0.950 . S
H2488 C2484 0.950 . S
C2489 C2487 1.390 . S
C2489 C2490 1.387 . S
C2489 H2492 0.950 . S
C2490 C2489 1.387 . S
C2490 C2493 1.387 . S
H2491 C2487 0.950 . S
H2492 C2489 0.950 . S
C2493 C2484 1.390 . S
C2493 H2486 0.950 . S
C2493 C2490 1.387 . S
C2494 C2495 1.387 . S
C2494 H2498 0.950 . S
C2494 C2503 1.390 . S
C2495 C2494 1.387 . S
C2495 C2497 1.387 . S
H2496 C2503 0.950 . S
C2497 C2495 1.387 . S
C2497 C2499 1.390 . S
C2497 H2501 0.950 . S
H2498 C2494 0.950 . S
C2499 C2497 1.390 . S
C2499 C2500 1.387 . S
C2499 H2502 0.950 . S
C2500 C2499 1.387 . S
C2500 C2503 1.387 . S
H2501 C2497 0.950 . S
H2502 C2499 0.950 . S
C2503 C2494 1.390 . S
C2503 H2496 0.950 . S
C2503 C2500 1.387 . S
C2504 C2505 1.387 . S
C2504 H2508 0.950 . S
C2504 C2513 1.390 . S
C2505 C2504 1.387 . S
C2505 C2507 1.387 . S
H2506 C2513 0.950 . S
C2507 C2505 1.387 . S
C2507 C2509 1.390 . S
C2507 H2511 0.950 . S
H2508 C2504 0.950 . S
C2509 C2507 1.390 . S
C2509 C2510 1.387 . S
C2509 H2512 0.950 . S
C2510 C2509 1.387 . S
C2510 C2513 1.387 . S
H2511 C2507 0.950 . S
H2512 C2509 0.950 . S
C2513 C2504 1.390 . S
C2513 H2506 0.950 . S
C2513 C2510 1.387 . S
C2514 C2515 1.387 . S
C2514 H2518 0.950 . S
C2514 C2523 1.390 . S
C2515 C2514 1.387 . S
C2515 C2517 1.387 . S
H2516 C2523 0.950 . S
C2517 C2515 1.387 . S
C2517 C2519 1.390 . S
C2517 H2521 0.950 . S
H2518 C2514 0.950 . S
C2519 C2517 1.390 . S
C2519 C2520 1.387 . S
C2519 H2522 0.950 . S
C2520 C2519 1.387 . S
C2520 C2523 1.387 . S
H2521 C2517 0.950 . S
H2522 C2519 0.950 . S
C2523 C2514 1.390 . S
C2523 H2516 0.950 . S
C2523 C2520 1.387 . S
C2524 C2525 1.387 . S
C2524 H2528 0.950 . S
C2524 C2533 1.390 . S
C2525 C2524 1.387 . S
C2525 C2527 1.387 . S
H2526 C2533 0.950 . S
C2527 C2525 1.387 . S
C2527 C2529 1.390 . S
C2527 H2531 0.950 . S
H2528 C2524 0.950 . S
C2529 C2527 1.390 . S
C2529 C2530 1.387 . S
C2529 H2532 0.950 . S
C2530 C2529 1.387 . S
C2530 C2533 1.387 . S
H2531 C2527 0.950 . S
H2532 C2529 0.950 . S
C2533 C2524 1.390 . S
C2533 H2526 0.950 . S
C2533 C2530 1.387 . S
C2534 C2535 1.387 . S
C2534 H2538 0.950 . S
C2534 C2543 1.390 . S
C2535 C2534 1.387 . S
C2535 C2537 1.387 . S
H2536 C2543 0.950 . S
C2537 C2535 1.387 . S
C2537 C2539 1.390 . S
C2537 H2541 0.950 . S
H2538 C2534 0.950 . S
C2539 C2537 1.390 . S
C2539 C2540 1.387 . S
C2539 H2542 0.950 . S
C2540 C2539 1.387 . S
C2540 C2543 1.387 . S
H2541 C2537 0.950 . S
H2542 C2539 0.950 . S
C2543 C2534 1.390 . S
C2543 H2536 0.950 . S
C2543 C2540 1.387 . S
C2544 C2545 1.387 . S
C2544 H2548 0.950 . S
C2544 C2553 1.390 . S
C2545 C2544 1.387 . S
C2545 C2547 1.387 . S
H2546 C2553 0.950 . S
C2547 C2545 1.387 . S
C2547 C2549 1.390 . S
C2547 H2551 0.950 . S
H2548 C2544 0.950 . S
C2549 C2547 1.390 . S
C2549 C2550 1.387 . S
C2549 H2552 0.950 . S
C2550 C2549 1.387 . S
C2550 C2553 1.387 . S
H2551 C2547 0.950 . S
H2552 C2549 0.950 . S
C2553 C2544 1.390 . S
C2553 H2546 0.950 . S
C2553 C2550 1.387 . S
C2554 C2555 1.387 . S
C2554 H2558 0.950 . S
C2554 C2563 1.390 . S
C2555 C2554 1.387 . S
C2555 C2557 1.387 . S
H2556 C2563 0.950 . S
C2557 C2555 1.387 . S
C2557 C2559 1.390 . S
C2557 H2561 0.950 . S
H2558 C2554 0.950 . S
C2559 C2557 1.390 . S
C2559 C2560 1.387 . S
C2559 H2562 0.950 . S
C2560 C2559 1.387 . S
C2560 C2563 1.387 . S
H2561 C2557 0.950 . S
H2562 C2559 0.950 . S
C2563 C2554 1.390 . S
C2563 H2556 0.950 . S
C2563 C2560 1.387 . S
C2564 C2565 1.387 . S
C2564 H2568 0.950 . S
C2564 C2573 1.390 . S
C2565 C2564 1.387 . S
C2565 C2567 1.387 . S
H2566 C2573 0.950 . S
C2567 C2565 1.387 . S
C2567 C2569 1.390 . S
C2567 H2571 0.950 . S
H2568 C2564 0.950 . S
C2569 C2567 1.390 . S
C2569 C2570 1.387 . S
C2569 H2572 0.950 . S
C2570 C2569 1.387 . S
C2570 C2573 1.387 . S
H2571 C2567 0.950 . S
H2572 C2569 0.950 . S
C2573 C2564 1.390 . S
C2573 H2566 0.950 . S
C2573 C2570 1.387 . S
C2574 C2575 1.387 . S
C2574 H2578 0.950 . S
C2574 C2583 1.390 . S
C2575 C2574 1.387 . S
C2575 C2577 1.387 . S
H2576 C2583 0.950 . S
C2577 C2575 1.387 . S
C2577 C2579 1.390 . S
C2577 H2581 0.950 . S
H2578 C2574 0.950 . S
C2579 C2577 1.390 . S
C2579 C2580 1.387 . S
C2579 H2582 0.950 . S
C2580 C2579 1.387 . S
C2580 C2583 1.387 . S
H2581 C2577 0.950 . S
H2582 C2579 0.950 . S
C2583 C2574 1.390 . S
C2583 H2576 0.950 . S
C2583 C2580 1.387 . S
C2584 C2585 1.387 . S
C2584 H2588 0.950 . S
C2584 C2593 1.390 . S
C2585 C2584 1.387 . S
C2585 C2587 1.387 . S
H2586 C2593 0.950 . S
C2587 C2585 1.387 . S
C2587 C2589 1.390 . S
C2587 H2591 0.950 . S
H2588 C2584 0.950 . S
C2589 C2587 1.390 . S
C2589 C2590 1.387 . S
C2589 H2592 0.950 . S
C2590 C2589 1.387 . S
C2590 C2593 1.387 . S
H2591 C2587 0.950 . S
H2592 C2589 0.950 . S
C2593 C2584 1.390 . S
C2593 H2586 0.950 . S
C2593 C2590 1.387 . S
C2594 C2595 1.387 . S
C2594 H2598 0.950 . S
C2594 C2603 1.390 . S
C2595 C2594 1.387 . S
C2595 C2597 1.387 . S
H2596 C2603 0.950 . S
C2597 C2595 1.387 . S
C2597 C2599 1.390 . S
C2597 H2601 0.950 . S
H2598 C2594 0.950 . S
C2599 C2597 1.390 . S
C2599 C2600 1.387 . S
C2599 H2602 0.950 . S
C2600 C2599 1.387 . S
C2600 C2603 1.387 . S
H2601 C2597 0.950 . S
H2602 C2599 0.950 . S
C2603 C2594 1.390 . S
C2603 H2596 0.950 . S
C2603 C2600 1.387 . S
C2604 C2605 1.387 . S
C2604 H2608 0.950 . S
C2604 C2613 1.390 . S
C2605 C2604 1.387 . S
C2605 C2607 1.387 . S
H2606 C2613 0.950 . S
C2607 C2605 1.387 . S
C2607 C2609 1.390 . S
C2607 H2611 0.950 . S
H2608 C2604 0.950 . S
C2609 C2607 1.390 . S
C2609 C2610 1.387 . S
C2609 H2612 0.950 . S
C2610 C2609 1.387 . S
C2610 C2613 1.387 . S
H2611 C2607 0.950 . S
H2612 C2609 0.950 . S
C2613 C2604 1.390 . S
C2613 H2606 0.950 . S
C2613 C2610 1.387 . S
C2614 C2615 1.387 . S
C2614 H2618 0.950 . S
C2614 C2623 1.390 . S
C2615 C2614 1.387 . S
C2615 C2617 1.387 . S
H2616 C2623 0.950 . S
C2617 C2615 1.387 . S
C2617 C2619 1.390 . S
C2617 H2621 0.950 . S
H2618 C2614 0.950 . S
C2619 C2617 1.390 . S
C2619 C2620 1.387 . S
C2619 H2622 0.950 . S
C2620 C2619 1.387 . S
C2620 C2623 1.387 . S
H2621 C2617 0.950 . S
H2622 C2619 0.950 . S
C2623 C2614 1.390 . S
C2623 H2616 0.950 . S
C2623 C2620 1.387 . S
C2624 C2625 1.387 . S
C2624 H2628 0.950 . S
C2624 C2633 1.390 . S
C2625 C2624 1.387 . S
C2625 C2627 1.387 . S
H2626 C2633 0.950 . S
C2627 C2625 1.387 . S
C2627 C2629 1.390 . S
C2627 H2631 0.950 . S
H2628 C2624 0.950 . S
C2629 C2627 1.390 . S
C2629 C2630 1.387 . S
C2629 H2632 0.950 . S
C2630 C2629 1.387 . S
C2630 C2633 1.387 . S
H2631 C2627 0.950 . S
H2632 C2629 0.950 . S
C2633 C2624 1.390 . S
C2633 H2626 0.950 . S
C2633 C2630 1.387 . S
C2634 C2635 1.387 . S
C2634 H2638 0.950 . S
C2634 C2643 1.390 . S
C2635 C2634 1.387 . S
C2635 C2637 1.387 . S
H2636 C2643 0.950 . S
C2637 C2635 1.387 . S
C2637 C2639 1.390 . S
C2637 H2641 0.950 . S
H2638 C2634 0.950 . S
C2639 C2637 1.390 . S
C2639 C2640 1.387 . S
C2639 H2642 0.950 . S
C2640 C2639 1.387 . S
C2640 C2643 1.387 . S
H2641 C2637 0.950 . S
H2642 C2639 0.950 . S
C2643 C2634 1.390 . S
C2643 H2636 0.950 . S
C2643 C2640 1.387 . S
C2644 C2645 1.387 . S
C2644 H2648 0.950 . S
C2644 C2653 1.390 . S
C2645 C2644 1.387 . S
C2645 C2647 1.387 . S
H2646 C2653 0.950 . S
C2647 C2645 1.387 . S
C2647 C2649 1.390 . S
C2647 H2651 0.950 . S
H2648 C2644 0.950 . S
C2649 C2647 1.390 . S
C2649 C2650 1.387 . S
C2649 H2652 0.950 . S
C2650 C2649 1.387 . S
C2650 C2653 1.387 . S
H2651 C2647 0.950 . S
H2652 C2649 0.950 . S
C2653 C2644 1.390 . S
C2653 H2646 0.950 . S
C2653 C2650 1.387 . S
C2654 C2655 1.387 . S
C2654 H2658 0.950 . S
C2654 C2663 1.390 . S
C2655 C2654 1.387 . S
C2655 C2657 1.387 . S
H2656 C2663 0.950 . S
C2657 C2655 1.387 . S
C2657 C2659 1.390 . S
C2657 H2661 0.950 . S
H2658 C2654 0.950 . S
C2659 C2657 1.390 . S
C2659 C2660 1.387 . S
C2659 H2662 0.950 . S
C2660 C2659 1.387 . S
C2660 C2663 1.387 . S
H2661 C2657 0.950 . S
H2662 C2659 0.950 . S
C2663 C2654 1.390 . S
C2663 H2656 0.950 . S
C2663 C2660 1.387 . S
C2664 C2665 1.387 . S
C2664 H2668 0.950 . S
C2664 C2673 1.390 . S
C2665 C2664 1.387 . S
C2665 C2667 1.387 . S
H2666 C2673 0.950 . S
C2667 C2665 1.387 . S
C2667 C2669 1.390 . S
C2667 H2671 0.950 . S
H2668 C2664 0.950 . S
C2669 C2667 1.390 . S
C2669 C2670 1.387 . S
C2669 H2672 0.950 . S
C2670 C2669 1.387 . S
C2670 C2673 1.387 . S
H2671 C2667 0.950 . S
H2672 C2669 0.950 . S
C2673 C2664 1.390 . S
C2673 H2666 0.950 . S
C2673 C2670 1.387 . S
C2674 C2675 1.387 . S
C2674 H2678 0.950 . S
C2674 C2683 1.390 . S
C2675 C2674 1.387 . S
C2675 C2677 1.387 . S
H2676 C2683 0.950 . S
C2677 C2675 1.387 . S
C2677 C2679 1.390 . S
C2677 H2681 0.950 . S
H2678 C2674 0.950 . S
C2679 C2677 1.390 . S
C2679 C2680 1.387 . S
C2679 H2682 0.950 . S
C2680 C2679 1.387 . S
C2680 C2683 1.387 . S
H2681 C2677 0.950 . S
H2682 C2679 0.950 . S
C2683 C2674 1.390 . S
C2683 H2676 0.950 . S
C2683 C2680 1.387 . S
C2684 C2685 1.387 . S
C2684 H2688 0.950 . S
C2684 C2693 1.390 . S
C2685 C2684 1.387 . S
C2685 C2687 1.387 . S
H2686 C2693 0.950 . S
C2687 C2685 1.387 . S
C2687 C2689 1.390 . S
C2687 H2691 0.950 . S
H2688 C2684 0.950 . S
C2689 C2687 1.390 . S
C2689 C2690 1.387 . S
C2689 H2692 0.950 . S
C2690 C2689 1.387 . S
C2690 C2693 1.387 . S
H2691 C2687 0.950 . S
H2692 C2689 0.950 . S
C2693 C2684 1.390 . S
C2693 H2686 0.950 . S
C2693 C2690 1.387 . S
C2694 C2695 1.387 . S
C2694 H2698 0.950 . S
C2694 C2703 1.390 . S
C2695 C2694 1.387 . S
C2695 C2697 1.387 . S
H2696 C2703 0.950 . S
C2697 C2695 1.387 . S
C2697 C2699 1.390 . S
C2697 H2701 0.950 . S
H2698 C2694 0.950 . S
C2699 C2697 1.390 . S
C2699 C2700 1.387 . S
C2699 H2702 0.950 . S
C2700 C2699 1.387 . S
C2700 C2703 1.387 . S
H2701 C2697 0.950 . S
H2702 C2699 0.950 . S
C2703 C2694 1.390 . S
C2703 H2696 0.950 . S
C2703 C2700 1.387 . S
C2704 C2705 1.387 . S
C2704 H2708 0.950 . S
C2704 C2713 1.390 . S
C2705 C2704 1.387 . S
C2705 C2707 1.387 . S
H2706 C2713 0.950 . S
C2707 C2705 1.387 . S
C2707 C2709 1.390 . S
C2707 H2711 0.950 . S
H2708 C2704 0.950 . S
C2709 C2707 1.390 . S
C2709 C2710 1.387 . S
C2709 H2712 0.950 . S
C2710 C2709 1.387 . S
C2710 C2713 1.387 . S
H2711 C2707 0.950 . S
H2712 C2709 0.950 . S
C2713 C2704 1.390 . S
C2713 H2706 0.950 . S
C2713 C2710 1.387 . S
C2714 C2715 1.387 . S
C2714 H2718 0.950 . S
C2714 C2723 1.390 . S
C2715 C2714 1.387 . S
C2715 C2717 1.387 . S
H2716 C2723 0.950 . S
C2717 C2715 1.387 . S
C2717 C2719 1.390 . S
C2717 H2721 0.950 1_556 S
H2718 C2714 0.950 . S
C2719 C2717 1.390 . S
C2719 C2720 1.387 . S
C2719 H2722 0.950 . S
C2720 C2719 1.387 . S
C2720 C2723 1.387 . S
H2721 C2717 0.950 1_554 S
H2722 C2719 0.950 . S
C2723 C2714 1.390 . S
C2723 H2716 0.950 . S
C2723 C2720 1.387 . S
C2724 C2725 1.387 . S
C2724 H2728 0.950 . S
C2724 C2733 1.390 . S
C2725 C2724 1.387 . S
C2725 C2727 1.387 . S
H2726 C2733 0.950 . S
C2727 C2725 1.387 . S
C2727 C2729 1.390 . S
C2727 H2731 0.950 . S
H2728 C2724 0.950 . S
C2729 C2727 1.390 . S
C2729 C2730 1.387 . S
C2729 H2732 0.950 . S
C2730 C2729 1.387 . S
C2730 C2733 1.387 . S
H2731 C2727 0.950 . S
H2732 C2729 0.950 . S
C2733 C2724 1.390 . S
C2733 H2726 0.950 . S
C2733 C2730 1.387 . S
C2734 C2735 1.387 . S
C2734 H2738 0.950 . S
C2734 C2743 1.390 . S
C2735 C2734 1.387 . S
C2735 C2737 1.387 . S
H2736 C2743 0.950 . S
C2737 C2735 1.387 . S
C2737 C2739 1.390 . S
C2737 H2741 0.950 . S
H2738 C2734 0.950 . S
C2739 C2737 1.390 . S
C2739 C2740 1.387 . S
C2739 H2742 0.950 . S
C2740 C2739 1.387 . S
C2740 C2743 1.387 . S
H2741 C2737 0.950 . S
H2742 C2739 0.950 . S
C2743 C2734 1.390 . S
C2743 H2736 0.950 . S
C2743 C2740 1.387 . S
C2744 C2745 1.387 . S
C2744 H2748 0.950 . S
C2744 C2753 1.390 . S
C2745 C2744 1.387 . S
C2745 C2747 1.387 . S
H2746 C2753 0.950 . S
C2747 C2745 1.387 . S
C2747 C2749 1.390 . S
C2747 H2751 0.950 . S
H2748 C2744 0.950 . S
C2749 C2747 1.390 . S
C2749 C2750 1.387 . S
C2749 H2752 0.950 . S
C2750 C2749 1.387 . S
C2750 C2753 1.387 . S
H2751 C2747 0.950 . S
H2752 C2749 0.950 . S
C2753 C2744 1.390 . S
C2753 H2746 0.950 . S
C2753 C2750 1.387 . S
C2754 C2755 1.387 . S
C2754 H2758 0.950 . S
C2754 C2763 1.390 . S
C2755 C2754 1.387 . S
C2755 C2757 1.387 . S
H2756 C2763 0.950 . S
C2757 C2755 1.387 . S
C2757 C2759 1.390 . S
C2757 H2761 0.950 . S
H2758 C2754 0.950 . S
C2759 C2757 1.390 . S
C2759 C2760 1.387 . S
C2759 H2762 0.950 . S
C2760 C2759 1.387 . S
C2760 C2763 1.387 . S
H2761 C2757 0.950 . S
H2762 C2759 0.950 . S
C2763 C2754 1.390 . S
C2763 H2756 0.950 . S
C2763 C2760 1.387 . S
C2764 C2765 1.387 . S
C2764 H2768 0.950 . S
C2764 C2773 1.390 . S
C2765 C2764 1.387 . S
C2765 C2767 1.387 . S
H2766 C2773 0.950 . S
C2767 C2765 1.387 . S
C2767 C2769 1.390 . S
C2767 H2771 0.950 . S
H2768 C2764 0.950 . S
C2769 C2767 1.390 . S
C2769 C2770 1.387 . S
C2769 H2772 0.950 . S
C2770 C2769 1.387 . S
C2770 C2773 1.387 . S
H2771 C2767 0.950 . S
H2772 C2769 0.950 . S
C2773 C2764 1.390 . S
C2773 H2766 0.950 . S
C2773 C2770 1.387 . S
C2774 C2775 1.387 . S
C2774 H2778 0.950 . S
C2774 C2783 1.390 . S
C2775 C2774 1.387 . S
C2775 C2777 1.387 . S
H2776 C2783 0.950 . S
C2777 C2775 1.387 . S
C2777 C2779 1.390 . S
C2777 H2781 0.950 . S
H2778 C2774 0.950 . S
C2779 C2777 1.390 . S
C2779 C2780 1.387 . S
C2779 H2782 0.950 . S
C2780 C2779 1.387 . S
C2780 C2783 1.387 . S
H2781 C2777 0.950 . S
H2782 C2779 0.950 . S
C2783 C2774 1.390 . S
C2783 H2776 0.950 . S
C2783 C2780 1.387 . S
C2784 C2785 1.387 . S
C2784 H2788 0.950 . S
C2784 C2793 1.390 . S
C2785 C2784 1.387 . S
C2785 C2787 1.387 . S
H2786 C2793 0.950 . S
C2787 C2785 1.387 . S
C2787 C2789 1.390 . S
C2787 H2791 0.950 . S
H2788 C2784 0.950 . S
C2789 C2787 1.390 . S
C2789 C2790 1.387 . S
C2789 H2792 0.950 . S
C2790 C2789 1.387 . S
C2790 C2793 1.387 . S
H2791 C2787 0.950 . S
H2792 C2789 0.950 . S
C2793 C2784 1.390 . S
C2793 H2786 0.950 . S
C2793 C2790 1.387 . S
C2794 C2795 1.387 . S
C2794 H2798 0.950 . S
C2794 C2803 1.390 . S
C2795 C2794 1.387 . S
C2795 C2797 1.387 . S
H2796 C2803 0.950 . S
C2797 C2795 1.387 . S
C2797 C2799 1.390 . S
C2797 H2801 0.950 . S
H2798 C2794 0.950 . S
C2799 C2797 1.390 . S
C2799 C2800 1.387 . S
C2799 H2802 0.950 . S
C2800 C2799 1.387 . S
C2800 C2803 1.387 . S
H2801 C2797 0.950 . S
H2802 C2799 0.950 . S
C2803 C2794 1.390 . S
C2803 H2796 0.950 . S
C2803 C2800 1.387 . S
C2804 C2805 1.387 . S
C2804 H2808 0.950 . S
C2804 C2813 1.390 . S
C2805 C2804 1.387 . S
C2805 C2807 1.387 . S
H2806 C2813 0.950 . S
C2807 C2805 1.387 . S
C2807 C2809 1.390 . S
C2807 H2811 0.950 . S
H2808 C2804 0.950 . S
C2809 C2807 1.390 . S
C2809 C2810 1.387 . S
C2809 H2812 0.950 . S
C2810 C2809 1.387 . S
C2810 C2813 1.387 . S
H2811 C2807 0.950 . S
H2812 C2809 0.950 . S
C2813 C2804 1.390 . S
C2813 H2806 0.950 . S
C2813 C2810 1.387 . S
C2814 C2815 1.387 . S
C2814 H2818 0.950 . S
C2814 C2823 1.390 . S
C2815 C2814 1.387 . S
C2815 C2817 1.387 . S
H2816 C2823 0.950 . S
C2817 C2815 1.387 . S
C2817 C2819 1.390 . S
C2817 H2821 0.950 1_455 S
H2818 C2814 0.950 . S
C2819 C2817 1.390 . S
C2819 C2820 1.387 . S
C2819 H2822 0.950 1_455 S
C2820 C2819 1.387 . S
C2820 C2823 1.387 . S
H2821 C2817 0.950 1_655 S
H2822 C2819 0.950 1_655 S
C2823 C2814 1.390 . S
C2823 H2816 0.950 . S
C2823 C2820 1.387 . S
C2824 C2825 1.387 . S
C2824 H2828 0.950 . S
C2824 C2833 1.390 . S
C2825 C2824 1.387 . S
C2825 C2827 1.387 . S
H2826 C2833 0.950 . S
C2827 C2825 1.387 . S
C2827 C2829 1.390 . S
C2827 H2831 0.950 . S
H2828 C2824 0.950 . S
C2829 C2827 1.390 . S
C2829 C2830 1.387 . S
C2829 H2832 0.950 . S
C2830 C2829 1.387 . S
C2830 C2833 1.387 . S
H2831 C2827 0.950 . S
H2832 C2829 0.950 . S
C2833 C2824 1.390 . S
C2833 H2826 0.950 . S
C2833 C2830 1.387 . S
C2834 C2835 1.387 1_545 S
C2834 H2838 0.950 . S
C2834 C2843 1.390 . S
C2835 C2834 1.387 1_565 S
C2835 C2837 1.387 . S
H2836 C2843 0.950 . S
C2837 C2835 1.387 . S
C2837 C2839 1.390 . S
C2837 H2841 0.950 . S
H2838 C2834 0.950 . S
C2839 C2837 1.390 . S
C2839 C2840 1.387 . S
C2839 H2842 0.950 . S
C2840 C2839 1.387 . S
C2840 C2843 1.387 1_565 S
H2841 C2837 0.950 . S
H2842 C2839 0.950 . S
C2843 C2834 1.390 . S
C2843 H2836 0.950 . S
C2843 C2840 1.387 1_545 S
C2844 C2845 1.387 1_545 S
C2844 H2848 0.950 . S
C2844 C2853 1.390 . S
C2845 C2844 1.387 1_565 S
C2845 C2847 1.387 . S
H2846 C2853 0.950 . S
C2847 C2845 1.387 . S
C2847 C2849 1.390 . S
C2847 H2851 0.950 . S
H2848 C2844 0.950 . S
C2849 C2847 1.390 . S
C2849 C2850 1.387 . S
C2849 H2852 0.950 . S
C2850 C2849 1.387 . S
C2850 C2853 1.387 1_565 S
H2851 C2847 0.950 . S
H2852 C2849 0.950 . S
C2853 C2844 1.390 . S
C2853 H2846 0.950 . S
C2853 C2850 1.387 1_545 S
C2854 C2855 1.387 1_655 S
C2854 H2858 0.950 . S
C2854 C2863 1.390 . S
C2855 C2854 1.387 1_455 S
C2855 C2857 1.387 . S
H2856 C2863 0.950 . S
C2857 C2855 1.387 . S
C2857 C2859 1.390 . S
C2857 H2861 0.950 . S
H2858 C2854 0.950 . S
C2859 C2857 1.390 . S
C2859 C2860 1.387 . S
C2859 H2862 0.950 . S
C2860 C2859 1.387 . S
C2860 C2863 1.387 1_455 S
H2861 C2857 0.950 . S
H2862 C2859 0.950 . S
C2863 C2854 1.390 . S
C2863 H2856 0.950 . S
C2863 C2860 1.387 1_655 S
C2864 C2865 1.387 . S
C2864 H2868 0.950 . S
C2864 C2873 1.390 . S
C2865 C2864 1.387 . S
C2865 C2867 1.387 . S
H2866 C2873 0.950 . S
C2867 C2865 1.387 . S
C2867 C2869 1.390 . S
C2867 H2871 0.950 . S
H2868 C2864 0.950 . S
C2869 C2867 1.390 . S
C2869 C2870 1.387 . S
C2869 H2872 0.950 . S
C2870 C2869 1.387 . S
C2870 C2873 1.387 . S
H2871 C2867 0.950 . S
H2872 C2869 0.950 . S
C2873 C2864 1.390 . S
C2873 H2866 0.950 . S
C2873 C2870 1.387 . S
C2874 C2875 1.387 . S
C2874 H2878 0.950 . S
C2874 C2883 1.390 . S
C2875 C2874 1.387 . S
C2875 C2877 1.387 . S
H2876 C2883 0.950 . S
C2877 C2875 1.387 . S
C2877 C2879 1.390 . S
C2877 H2881 0.950 . S
H2878 C2874 0.950 . S
C2879 C2877 1.390 . S
C2879 C2880 1.387 . S
C2879 H2882 0.950 . S
C2880 C2879 1.387 . S
C2880 C2883 1.387 . S
H2881 C2877 0.950 . S
H2882 C2879 0.950 . S
C2883 C2874 1.390 . S
C2883 H2876 0.950 . S
C2883 C2880 1.387 . S
C2884 C2885 1.387 . S
C2884 H2888 0.950 . S
C2884 C2893 1.390 . S
C2885 C2884 1.387 . S
C2885 C2887 1.387 . S
H2886 C2893 0.950 . S
C2887 C2885 1.387 . S
C2887 C2889 1.390 . S
C2887 H2891 0.950 . S
H2888 C2884 0.950 . S
C2889 C2887 1.390 . S
C2889 C2890 1.387 . S
C2889 H2892 0.950 . S
C2890 C2889 1.387 . S
C2890 C2893 1.387 . S
H2891 C2887 0.950 . S
H2892 C2889 0.950 . S
C2893 C2884 1.390 . S
C2893 H2886 0.950 . S
C2893 C2890 1.387 . S
C2894 C2895 1.387 . S
C2894 H2898 0.950 . S
C2894 C2903 1.390 . S
C2895 C2894 1.387 . S
C2895 C2897 1.387 . S
H2896 C2903 0.950 . S
C2897 C2895 1.387 . S
C2897 C2899 1.390 . S
C2897 H2901 0.950 . S
H2898 C2894 0.950 . S
C2899 C2897 1.390 . S
C2899 C2900 1.387 . S
C2899 H2902 0.950 . S
C2900 C2899 1.387 . S
C2900 C2903 1.387 . S
H2901 C2897 0.950 . S
H2902 C2899 0.950 . S
C2903 C2894 1.390 . S
C2903 H2896 0.950 . S
C2903 C2900 1.387 . S
C2904 C2905 1.387 1_565 S
C2904 H2908 0.950 . S
C2904 C2913 1.390 . S
C2905 C2904 1.387 1_545 S
C2905 C2907 1.387 . S
H2906 C2913 0.950 . S
C2907 C2905 1.387 . S
C2907 C2909 1.390 . S
C2907 H2911 0.950 . S
H2908 C2904 0.950 . S
C2909 C2907 1.390 . S
C2909 C2910 1.387 . S
C2909 H2912 0.950 . S
C2910 C2909 1.387 . S
C2910 C2913 1.387 1_545 S
H2911 C2907 0.950 . S
H2912 C2909 0.950 . S
C2913 C2904 1.390 . S
C2913 H2906 0.950 . S
C2913 C2910 1.387 1_565 S
C2914 C2915 1.387 . S
C2914 H2918 0.950 . S
C2914 C2923 1.390 . S
C2915 C2914 1.387 . S
C2915 C2917 1.387 1_655 S
H2916 C2923 0.950 . S
C2917 C2915 1.387 1_455 S
C2917 C2919 1.390 . S
C2917 H2921 0.950 . S
H2918 C2914 0.950 . S
C2919 C2917 1.390 . S
C2919 C2920 1.387 1_455 S
C2919 H2922 0.950 . S
C2920 C2919 1.387 1_655 S
C2920 C2923 1.387 . S
H2921 C2917 0.950 . S
H2922 C2919 0.950 . S
C2923 C2914 1.390 . S
C2923 H2916 0.950 . S
C2923 C2920 1.387 . S
C2924 C2925 1.387 . S
C2924 H2928 0.950 . S
C2924 C2933 1.390 . S
C2925 C2924 1.387 . S
C2925 C2927 1.387 . S
H2926 C2933 0.950 . S
C2927 C2925 1.387 . S
C2927 C2929 1.390 . S
C2927 H2931 0.950 . S
H2928 C2924 0.950 . S
C2929 C2927 1.390 . S
C2929 C2930 1.387 . S
C2929 H2932 0.950 . S
C2930 C2929 1.387 . S
C2930 C2933 1.387 . S
H2931 C2927 0.950 . S
H2932 C2929 0.950 . S
C2933 C2924 1.390 . S
C2933 H2926 0.950 . S
C2933 C2930 1.387 . S
C2934 C2935 1.387 . S
C2934 H2938 0.950 . S
C2934 C2943 1.390 . S
C2935 C2934 1.387 . S
C2935 C2937 1.387 . S
H2936 C2943 0.950 . S
C2937 C2935 1.387 . S
C2937 C2939 1.390 . S
C2937 H2941 0.950 . S
H2938 C2934 0.950 . S
C2939 C2937 1.390 . S
C2939 C2940 1.387 . S
C2939 H2942 0.950 . S
C2940 C2939 1.387 . S
C2940 C2943 1.387 . S
H2941 C2937 0.950 . S
H2942 C2939 0.950 . S
C2943 C2934 1.390 . S
C2943 H2936 0.950 . S
C2943 C2940 1.387 . S
C2944 C2945 1.387 . S
C2944 H2948 0.950 . S
C2944 C2953 1.390 . S
C2945 C2944 1.387 . S
C2945 C2947 1.387 . S
H2946 C2953 0.950 . S
C2947 C2945 1.387 . S
C2947 C2949 1.390 . S
C2947 H2951 0.950 . S
H2948 C2944 0.950 . S
C2949 C2947 1.390 . S
C2949 C2950 1.387 . S
C2949 H2952 0.950 . S
C2950 C2949 1.387 . S
C2950 C2953 1.387 . S
H2951 C2947 0.950 . S
H2952 C2949 0.950 . S
C2953 C2944 1.390 . S
C2953 H2946 0.950 . S
C2953 C2950 1.387 . S
C2954 C2955 1.387 . S
C2954 H2958 0.950 . S
C2954 C2963 1.390 . S
C2955 C2954 1.387 . S
C2955 C2957 1.387 . S
H2956 C2963 0.950 . S
C2957 C2955 1.387 . S
C2957 C2959 1.390 . S
C2957 H2961 0.950 . S
H2958 C2954 0.950 . S
C2959 C2957 1.390 . S
C2959 C2960 1.387 . S
C2959 H2962 0.950 . S
C2960 C2959 1.387 . S
C2960 C2963 1.387 . S
H2961 C2957 0.950 . S
H2962 C2959 0.950 . S
C2963 C2954 1.390 . S
C2963 H2956 0.950 . S
C2963 C2960 1.387 . S
C2964 C2965 1.387 . S
C2964 H2968 0.950 . S
C2964 C2973 1.390 . S
C2965 C2964 1.387 . S
C2965 C2967 1.387 . S
H2966 C2973 0.950 . S
C2967 C2965 1.387 . S
C2967 C2969 1.390 . S
C2967 H2971 0.950 . S
H2968 C2964 0.950 . S
C2969 C2967 1.390 . S
C2969 C2970 1.387 . S
C2969 H2972 0.950 . S
C2970 C2969 1.387 . S
C2970 C2973 1.387 . S
H2971 C2967 0.950 . S
H2972 C2969 0.950 . S
C2973 C2964 1.390 . S
C2973 H2966 0.950 . S
C2973 C2970 1.387 . S
C2974 C2975 1.387 . S
C2974 H2978 0.950 . S
C2974 C2983 1.390 . S
C2975 C2974 1.387 . S
C2975 C2977 1.387 . S
H2976 C2983 0.950 . S
C2977 C2975 1.387 . S
C2977 C2979 1.390 . S
C2977 H2981 0.950 . S
H2978 C2974 0.950 . S
C2979 C2977 1.390 . S
C2979 C2980 1.387 . S
C2979 H2982 0.950 . S
C2980 C2979 1.387 . S
C2980 C2983 1.387 . S
H2981 C2977 0.950 . S
H2982 C2979 0.950 . S
C2983 C2974 1.390 . S
C2983 H2976 0.950 . S
C2983 C2980 1.387 . S
C2984 C2985 1.387 . S
C2984 H2988 0.950 . S
C2984 C2993 1.390 . S
C2985 C2984 1.387 . S
C2985 C2987 1.387 . S
H2986 C2993 0.950 . S
C2987 C2985 1.387 . S
C2987 C2989 1.390 . S
C2987 H2991 0.950 . S
H2988 C2984 0.950 . S
C2989 C2987 1.390 . S
C2989 C2990 1.387 . S
C2989 H2992 0.950 . S
C2990 C2989 1.387 . S
C2990 C2993 1.387 . S
H2991 C2987 0.950 . S
H2992 C2989 0.950 . S
C2993 C2984 1.390 . S
C2993 H2986 0.950 . S
C2993 C2990 1.387 . S
C2994 C2995 1.393 . S
C2994 H2998 0.953 1_655 S
C2994 C3003 1.382 1_655 S
C2995 C2994 1.393 . S
C2995 C2997 1.387 . S
H2996 C3003 0.950 . S
C2997 C2995 1.387 . S
C2997 C2999 1.390 . S
C2997 H3001 0.950 . S
H2998 C2994 0.953 1_455 S
C2999 C2997 1.390 . S
C2999 C3000 1.387 . S
C2999 H3002 0.950 . S
C3000 C2999 1.387 . S
C3000 C3003 1.387 1_655 S
H3001 C2997 0.950 . S
H3002 C2999 0.950 . S
C3003 C2994 1.382 1_455 S
C3003 H2996 0.950 . S
C3003 C3000 1.387 1_455 S
C3004 C3005 1.387 . S
C3004 H3008 0.950 . S
C3004 C3013 1.390 . S
C3005 C3004 1.387 . S
C3005 C3007 1.387 . S
H3006 C3013 0.950 . S
C3007 C3005 1.387 . S
C3007 C3009 1.390 . S
C3007 H3011 0.950 . S
H3008 C3004 0.950 . S
C3009 C3007 1.390 . S
C3009 C3010 1.387 . S
C3009 H3012 0.950 . S
C3010 C3009 1.387 . S
C3010 C3013 1.387 . S
H3011 C3007 0.950 . S
H3012 C3009 0.950 . S
C3013 C3004 1.390 . S
C3013 H3006 0.950 . S
C3013 C3010 1.387 . S
C3014 C3015 1.387 1_565 S
C3014 H3018 0.950 . S
C3014 C3023 1.390 . S
C3015 C3014 1.387 1_545 S
C3015 C3017 1.387 . S
H3016 C3023 0.950 . S
C3017 C3015 1.387 . S
C3017 C3019 1.390 . S
C3017 H3021 0.950 . S
H3018 C3014 0.950 . S
C3019 C3017 1.390 . S
C3019 C3020 1.387 . S
C3019 H3022 0.950 . S
C3020 C3019 1.387 . S
C3020 C3023 1.387 1_545 S
H3021 C3017 0.950 . S
H3022 C3019 0.950 . S
C3023 C3014 1.390 . S
C3023 H3016 0.950 . S
C3023 C3020 1.387 1_565 S
C2305 C9 1.359 1_655 S
C2310 C1307 1.080 . S
C2315 C19 1.806 . S
C2320 C1447 1.095 . S
C2330 C1535 1.181 . S
C2325 C33 1.436 . S
C2335 C37 1.477 . S
C2340 C1675 1.086 1_565 S
C2345 C5 1.404 . S
C2350 C1789 1.070 . S
C2355 C23 1.890 . S
C2360 C1877 1.309 . S
C2365 C47 1.374 . S
C2370 C1763 1.088 . S
C2380 C1903 1.537 . S
C2375 C65 1.748 . S
C2390 C1649 1.138 . S
C2385 C75 1.395 . S
C2395 C79 1.387 . S
C2400 C1561 1.044 . S
C2410 C1333 1.072 . S
C2405 C51 1.427 . S
C2415 C61 1.708 . S
C2420 C1421 1.581 . S
C2425 C93 1.990 . S
C2430 C1991 1.355 . S
C2435 C103 1.906 . S
C2440 C2131 1.200 . S
C2450 C2219 1.317 . S
C2445 C117 1.880 . S
C2455 C121 1.949 . S
C2460 C307 1.202 . S
C2465 C89 1.933 . S
C2470 C421 1.184 . S
C2475 C107 1.977 . S
C2480 C509 1.391 . S
C2485 C131 1.672 . S
C2490 C395 1.550 . S
C2495 C149 1.827 . S
C2500 C535 1.653 . S
C2510 C281 1.598 . S
C2505 C159 1.727 . S
C2520 C2245 1.731 . S
C2515 C163 1.903 . S
C2530 C2017 1.680 . S
C2525 C135 1.856 . S
C2540 C2105 1.709 . S
C2535 C145 1.793 . S
C2545 C177 1.876 . S
C2550 C623 1.237 . S
C2555 C187 1.890 . S
C2560 C763 1.171 . S
C2565 C201 1.903 . S
C2570 C851 1.331 . S
C2575 C205 2.063 . S
C2580 C991 1.308 . S
C2590 C1105 1.176 . S
C2585 C173 1.926 . S
C2600 C1193 1.418 . S
C2595 C191 1.996 . S
C2610 C1079 1.667 . S
C2605 C215 1.801 . S
C2620 C1219 1.677 . S
C2615 C233 1.844 . S
C2625 C243 1.698 . S
C2630 C965 1.593 . S
C2640 C877 1.619 . S
C2635 C247 1.776 . S
C2645 C219 1.869 . S
C2650 C649 1.676 . S
C2660 C737 1.690 . S
C2655 C229 1.783 . S
C2670 C263 0.957 . S
C2665 C11 1.854 . S
C2675 C14 1.740 . S
C2680 C377 0.926 . S
C2690 C481 1.334 . S
C2685 C28 1.919 . S
C2700 C595 1.279 . S
C2695 C39 1.834 . S
C2710 C719 1.005 . S
C2705 C0 1.867 . S
C2720 C823 1.213 . S
C2715 C25 1.718 . S
C2725 C42 2.085 . S
C2730 C833 1.663 . S
C2735 C67 1.896 . S
C2740 C605 1.569 . S
C2745 C70 1.941 . S
C2750 C709 1.771 . S
C2755 C81 1.881 . S
C2760 C367 1.738 . S
C2770 C491 1.685 . S
C2765 C53 2.040 . S
C2775 C56 1.961 . S
C2780 C253 1.792 . S
C2790 C947 0.961 . S
C2785 C95 1.766 . S
C2795 C98 1.856 . S
C2800 C1061 1.050 . S
C2805 C112 1.923 . S
C2810 C1165 1.421 . S
C2820 C1279 1.105 . S
C2815 C123 1.325 . S
C2825 C84 1.769 . S
C2830 C1403 0.971 . S
C2835 C109 1.345 . S
C2840 C1507 1.129 . S
C2845 C126 1.516 . S
C2850 C1517 0.981 1_565 S
C2855 C151 1.389 . S
C2860 C1289 0.947 1_455 S
C2870 C1393 1.681 . S
C2865 C154 1.851 . S
C2875 C165 1.822 . S
C2880 C1051 1.705 . S
C2885 C137 1.998 . S
C2890 C1175 1.646 . S
C2900 C937 1.873 . S
C2895 C140 2.059 . S
C2910 C1631 0.941 . S
C2905 C179 1.448 . S
C2915 C182 1.353 . S
C2920 C1745 0.934 . S
C2925 C196 1.823 . S
C2930 C1849 1.291 . S
C2940 C1963 1.285 . S
C2935 C207 1.769 . S
C2950 C2087 1.090 . S
C2945 C168 1.856 . S
C2955 C193 1.827 . S
C2960 C2191 1.340 . S
C2965 C210 2.007 . S
C2970 C2201 1.615 . S
C2975 C235 2.002 . S
C2980 C1973 1.639 . S
C2990 C2077 1.778 . S
C2985 C238 1.933 . S
C3000 C1735 1.100 1_655 S
C2995 C249 1.274 . S
C3010 C1859 1.561 . S
C3005 C221 1.922 . S
C3015 C224 1.440 . S
C3020 C1621 1.209 1_545 S
