# Generated by pormake.
# Topology rtl, (3,6)-cn, num edge types: 1
# Building blocks:
#     Node 0, Type 0, BuildingBlock: MIDCAF_clean_linker_0, # of connection points: 3
#     Node 1, Type 0, BuildingBlock: MIDCAF_clean_linker_0, # of connection points: 3
#     Node 2, Type 0, BuildingBlock: MIDCAF_clean_linker_0, # of connection points: 3
#     Node 3, Type 0, BuildingBlock: MIDCAF_clean_linker_0, # of connection points: 3
#     Node 4, Type 1, BuildingBlock: FUNLAD_clean_sbu_0, # of connection points: 6
#     Node 5, Type 1, BuildingBlock: FUNLAD_clean_sbu_0, # of connection points: 6
#     Edge 6, Type (0, 1), BuildingBlock: FUNLAD_clean_linker_1, # of connection points: 2
#     Edge 7, Type (0, 1), BuildingBlock: FUNLAD_clean_linker_1, # of connection points: 2
#     Edge 8, Type (0, 1), BuildingBlock: FUNLAD_clean_linker_1, # of connection points: 2
#     Edge 9, Type (0, 1), BuildingBlock: FUNLAD_clean_linker_1, # of connection points: 2
#     Edge 10, Type (0, 1), BuildingBlock: FUNLAD_clean_linker_1, # of connection points: 2
#     Edge 11, Type (0, 1), BuildingBlock: FUNLAD_clean_linker_1, # of connection points: 2
#     Edge 12, Type (0, 1), BuildingBlock: FUNLAD_clean_linker_1, # of connection points: 2
#     Edge 13, Type (0, 1), BuildingBlock: FUNLAD_clean_linker_1, # of connection points: 2
#     Edge 14, Type (0, 1), BuildingBlock: FUNLAD_clean_linker_1, # of connection points: 2
#     Edge 15, Type (0, 1), BuildingBlock: FUNLAD_clean_linker_1, # of connection points: 2
#     Edge 16, Type (0, 1), BuildingBlock: FUNLAD_clean_linker_1, # of connection points: 2
#     Edge 17, Type (0, 1), BuildingBlock: FUNLAD_clean_linker_1, # of connection points: 2
# Relax obj value: 0.028
# Max RMSD: 0.093
# Mean RMSD: 0.079
data_MOF--net-rtl--node1-FUNLAD_clean_sbu_0--node2-MIDCAF_clean_linker_0--edge1-FUNLAD_clean_linker_1
_symmetry_space_group_name_H-M    P1
_symmetry_Int_Tables_number       1
_symmetry_cell_setting            triclinic
loop_
_symmetry_equiv_pos_as_xyz
'x, y, z'
_cell_length_a     50.287419
_cell_length_b     41.00054
_cell_length_c     29.206184
_cell_angle_alpha  89.720742
_cell_angle_beta   90.942444
_cell_angle_gamma 90.626875
loop_
_atom_site_label
_atom_site_type_symbol
_atom_site_fract_x
_atom_site_fract_y
_atom_site_fract_z
_atom_type_partial_charge
C0 C 0.05422 0.81403 0.13648 0.0
C1 C 0.0679 0.81242 0.17862 0.0
C2 C 0.09199 0.79529 0.18139 0.0
C3 C 0.10266 0.78133 0.14222 0.0
H4 H 0.15959 0.71702 0.09641 0.0
H5 H 0.2001 0.685 0.10047 0.0
H6 H 0.20564 0.68935 0.9531 0.0
H7 H 0.16553 0.72163 0.94893 0.0
H8 H 0.11621 0.75196 0.88982 0.0
H9 H 0.1 0.7743 0.8167 0.0
H10 H 0.05057 0.84146 0.8893 0.0
H11 H 0.06654 0.81956 0.96179 0.0
H12 H 0.05407 0.80278 0.0652 0.0
H13 H 0.03551 0.82679 0.13348 0.0
H14 H 0.1027 0.79266 0.21361 0.0
H15 H 0.12151 0.76889 0.14526 0.0
N16 N 0.12344 0.75271 0.05903 0.0
N17 N 0.12498 0.75246 0.97869 0.0
N18 N 0.09188 0.78159 0.01576 0.0
C19 C 0.13514 0.74266 0.01993 0.0
C20 C 0.10331 0.77196 0.97639 0.0
C21 C 0.1017 0.77208 0.05716 0.0
C22 C 0.15934 0.72225 0.02235 0.0
C23 C 0.16948 0.7113 0.06483 0.0
C24 C 0.1927 0.69291 0.06722 0.0
C25 C 0.20651 0.6853 0.02739 0.0
C26 C 0.19612 0.69562 0.98475 0.0
C27 C 0.17283 0.71392 0.98231 0.0
C28 C 0.09291 0.78415 0.93177 0.0
C29 C 0.10192 0.77152 0.89015 0.0
C30 C 0.09263 0.78421 0.84833 0.0
C31 C 0.07463 0.81012 0.84737 0.0
C32 C 0.06512 0.82218 0.88888 0.0
C33 C 0.07412 0.80932 0.93054 0.0
C34 C 0.08952 0.78428 0.09955 0.0
C35 C 0.06495 0.80033 0.09734 0.0
C36 C 0.56454 0.69583 0.39258 0.0
C37 C 0.57586 0.69803 0.34912 0.0
C38 C 0.60084 0.71346 0.34468 0.0
C39 C 0.61468 0.72502 0.38338 0.0
H40 H 0.68384 0.77219 0.4263 0.0
H41 H 0.72627 0.80126 0.42091 0.0
H42 H 0.73022 0.80909 0.56832 0.0
H43 H 0.6879 0.78049 0.57384 0.0
H44 H 0.65146 0.73127 0.63252 0.0
H45 H 0.63848 0.70553 0.70451 0.0
H46 H 0.56801 0.66592 0.63766 0.0
H47 H 0.58047 0.69187 0.56684 0.0
H48 H 0.56925 0.70423 0.46432 0.0
H49 H 0.54522 0.68436 0.39692 0.0
H50 H 0.60985 0.71655 0.31153 0.0
H51 H 0.63413 0.7361 0.37897 0.0
N52 N 0.64234 0.74817 0.46579 0.0
N53 N 0.64846 0.7448 0.54556 0.0
N54 N 0.61118 0.72028 0.51053 0.0
C55 C 0.65695 0.75552 0.50407 0.0
C56 C 0.62557 0.72714 0.54904 0.0
C57 C 0.61932 0.73068 0.46884 0.0
C58 C 0.68232 0.77408 0.50052 0.0
C59 C 0.69359 0.78042 0.45757 0.0
C60 C 0.71792 0.79702 0.45442 0.0
C61 C 0.73135 0.80809 0.49395 0.0
C62 C 0.7201 0.80184 0.53695 0.0
C63 C 0.69587 0.78504 0.54016 0.0
C64 C 0.61702 0.71373 0.59377 0.0
C65 C 0.63298 0.7175 0.63343 0.0
C66 C 0.62558 0.70274 0.67468 0.0
C67 C 0.60201 0.6842 0.67732 0.0
C68 C 0.58589 0.68081 0.63776 0.0
C69 C 0.59325 0.6955 0.59664 0.0
C70 C 0.60385 0.72132 0.42721 0.0
C71 C 0.5784 0.70714 0.43121 0.0
C72 C 0.91382 0.16929 0.88113 0.0
C73 C 0.90174 0.17763 0.83897 0.0
C74 C 0.8807 0.19988 0.83857 0.0
C75 C 0.87204 0.21374 0.87936 0.0
H76 H 0.81641 0.27646 0.93357 0.0
H77 H 0.77996 0.31479 0.93536 0.0
H78 H 0.78826 0.32101 0.08255 0.0
H79 H 0.82503 0.28296 0.08087 0.0
H80 H 0.85821 0.22826 0.13361 0.0
H81 H 0.87494 0.20327 0.20434 0.0
H82 H 0.93388 0.15192 0.12739 0.0
H83 H 0.91765 0.17699 0.05738 0.0
H84 H 0.91488 0.17571 0.9535 0.0
H85 H 0.92945 0.1514 0.88333 0.0
H86 H 0.87086 0.20648 0.80662 0.0
H87 H 0.85566 0.23067 0.87783 0.0
N88 N 0.85464 0.24093 0.96591 0.0
N89 N 0.85602 0.2407 0.04633 0.0
N90 N 0.8847 0.20742 0.00559 0.0
C91 C 0.84543 0.25225 0.00636 0.0
C92 C 0.8757 0.21829 0.04621 0.0
C93 C 0.87437 0.21852 0.96531 0.0
C94 C 0.82358 0.27628 0.0071 0.0
C95 C 0.81048 0.28592 0.96638 0.0
C96 C 0.78932 0.30774 0.96747 0.0
C97 C 0.78075 0.32037 0.0094 0.0
C98 C 0.79429 0.31144 0.04983 0.0
C99 C 0.81534 0.28955 0.0488 0.0
C100 C 0.8866 0.20474 0.0897 0.0
C101 C 0.87499 0.21199 0.13188 0.0
C102 C 0.88452 0.19766 0.1724 0.0
C103 C 0.90604 0.17617 0.17178 0.0
C104 C 0.91782 0.16914 0.12965 0.0
C105 C 0.90825 0.18331 0.08918 0.0
C106 C 0.88408 0.20529 0.92152 0.0
C107 C 0.90517 0.18303 0.92177 0.0
C108 C 0.44321 0.3258 0.63111 0.0
C109 C 0.43417 0.3133 0.67301 0.0
C110 C 0.41839 0.28487 0.67309 0.0
C111 C 0.41076 0.26998 0.63183 0.0
H112 H 0.35173 0.21126 0.57532 0.0
H113 H 0.31236 0.17664 0.57249 0.0
H114 H 0.31699 0.17237 0.42507 0.0
H115 H 0.35684 0.20675 0.42776 0.0
H116 H 0.39383 0.25999 0.37708 0.0
H117 H 0.4118 0.28456 0.30791 0.0
H118 H 0.47717 0.32567 0.38708 0.0
H119 H 0.45945 0.3009 0.4562 0.0
H120 H 0.44299 0.32135 0.55838 0.0
H121 H 0.45612 0.34709 0.62998 0.0
H122 H 0.41147 0.27459 0.70505 0.0
H123 H 0.39813 0.24844 0.63293 0.0
N124 N 0.38983 0.24661 0.54411 0.0
N125 N 0.39233 0.24485 0.46396 0.0
N126 N 0.42183 0.27807 0.50615 0.0
C127 C 0.3807 0.23468 0.50335 0.0
C128 C 0.41304 0.26641 0.46517 0.0
C129 C 0.4104 0.26834 0.54575 0.0
C130 C 0.35738 0.21221 0.50173 0.0
C131 C 0.34442 0.20303 0.5422 0.0
C132 C 0.32157 0.18336 0.54054 0.0
C133 C 0.31105 0.17252 0.49827 0.0
C134 C 0.3245 0.18069 0.45803 0.0
C135 C 0.34733 0.20043 0.45965 0.0
C136 C 0.42496 0.27884 0.42236 0.0
C137 C 0.41212 0.2741 0.37973 0.0
C138 C 0.42229 0.28851 0.34008 0.0
C139 C 0.44557 0.30785 0.34235 0.0
C140 C 0.45906 0.31117 0.38448 0.0
C141 C 0.44882 0.29705 0.42409 0.0
C142 C 0.41928 0.28294 0.58979 0.0
C143 C 0.4359 0.31076 0.59001 0.0
C144 C 0.03101 0.96832 0.44742 0.0
N145 N 0.06921 0.04605 0.51526 0.0
C146 C 0.09138 0.02734 0.51715 0.0
C147 C 0.11662 0.04186 0.51835 0.0
C148 C 0.11909 0.07606 0.51729 0.0
C149 C 0.09585 0.09471 0.51588 0.0
C150 C 0.07101 0.07917 0.51471 0.0
Zn151 Zn 0.0327 0.02373 0.5134 0.0
C152 C 0.99674 0.05267 0.44318 0.0
N153 N 0.95679 0.97589 0.50923 0.0
C154 C 0.95513 0.94277 0.51082 0.0
C155 C 0.93453 0.99444 0.50746 0.0
C156 C 0.90937 0.97972 0.50742 0.0
C157 C 0.90698 0.94561 0.50899 0.0
C158 C 0.93036 0.92703 0.51089 0.0
Zn159 Zn 0.99328 0.99831 0.51092 0.0
O160 O 0.04617 0.99062 0.46342 0.0
C161 C 0.02937 0.96926 0.58095 0.0
O162 O 0.00728 0.96566 0.46134 0.0
H163 H 0.93628 0.02074 0.50641 0.0
H164 H 0.0895 0.00104 0.51793 0.0
H165 H 0.97308 0.92849 0.51254 0.0
O166 O 0.04488 0.99151 0.56646 0.0
O167 O 0.00611 0.96633 0.56371 0.0
H168 H 0.05313 0.09359 0.51335 0.0
O169 O 0.97979 0.03133 0.56075 0.0
O170 O 0.01861 0.05642 0.56321 0.0
O171 O 0.98112 0.03057 0.45795 0.0
O172 O 0.01997 0.05563 0.46046 0.0
C173 C 0.99488 0.05365 0.577 0.0
H174 H 0.13379 0.02626 0.52085 0.0
H175 H 0.0969 0.12112 0.51538 0.0
H176 H 0.89188 0.99493 0.50623 0.0
H177 H 0.92984 0.90073 0.51338 0.0
C178 C 0.47673 0.4726 0.94118 0.0
N179 N 0.55148 0.47305 0.00566 0.0
C180 C 0.55054 0.43991 0.00388 0.0
C181 C 0.57392 0.42211 0.00075 0.0
C182 C 0.59857 0.43841 -0.00034 0.0
C183 C 0.59897 0.47272 0.00137 0.0
C184 C 0.57506 0.48958 0.00449 0.0
Zn185 Zn 0.51661 0.4981 0.00851 0.0
C186 C 0.51585 0.55472 0.94437 0.0
N187 N 0.44336 0.54998 0.01294 0.0
C188 C 0.42007 0.5328 0.01174 0.0
C189 C 0.4436 0.58314 0.01452 0.0
C190 C 0.41975 0.60028 0.01465 0.0
C191 C 0.3954 0.58323 0.01346 0.0
C192 C 0.39576 0.54894 0.01183 0.0
Zn193 Zn 0.47844 0.52529 0.01069 0.0
O194 O 0.50023 0.46834 0.95643 0.0
C195 C 0.47914 0.46861 0.07474 0.0
O196 O 0.46267 0.49511 0.95763 0.0
H197 H 0.46234 0.59635 0.01529 0.0
H198 H 0.53158 0.42722 0.00462 0.0
H199 H 0.42031 0.50646 0.01014 0.0
O200 O 0.50228 0.46533 0.05866 0.0
O201 O 0.46459 0.49186 0.06076 0.0
H202 H 0.57534 0.51595 0.00555 0.0
O203 O 0.49496 0.55511 0.06336 0.0
O204 O 0.53252 0.52825 0.06075 0.0
O205 O 0.49284 0.55826 0.96074 0.0
O206 O 0.53032 0.53132 0.95822 0.0
C207 C 0.51867 0.55074 0.07775 0.0
H208 H 0.57272 0.39573 0.99925 0.0
H209 H 0.61728 0.48667 -0.00051 0.0
H210 H 0.42034 0.6267 0.01559 0.0
H211 H 0.37768 0.53452 0.00953 0.0
H212 H 0.28288 0.13821 0.46411 0.0
C213 C 0.28619 0.15277 0.49478 0.0
H214 H 0.26898 0.16853 0.55658 0.0
H215 H 0.16323 0.1178 0.43773 0.0
H216 H 0.17192 0.16422 0.38822 0.0
H217 H 0.2122 0.19832 0.39951 0.0
H218 H 0.24422 0.18586 0.45983 0.0
C219 C 0.26683 0.15381 0.52595 0.0
C220 C 0.24186 0.13443 0.52019 0.0
C221 C 0.22292 0.14282 0.48568 0.0
C222 C 0.19914 0.12402 0.4804 0.0
C223 C 0.18114 0.13196 0.44434 0.0
C224 C 0.18596 0.15843 0.41548 0.0
C225 C 0.20868 0.17756 0.42174 0.0
C226 C 0.22699 0.17 0.45638 0.0
H227 H 0.14559 0.1188 0.52844 0.0
C228 C 0.14527 0.0932 0.51881 0.0
H229 H 0.16914 0.05394 0.49711 0.0
H230 H 0.27417 0.11176 0.58937 0.0
H231 H 0.2649 0.06615 0.64013 0.0
H232 H 0.22302 0.03459 0.63248 0.0
H233 H 0.19019 0.04835 0.57392 0.0
C234 C 0.16834 0.07926 0.5075 0.0
C235 C 0.19388 0.09776 0.51084 0.0
C236 C 0.21283 0.08936 0.54523 0.0
C237 C 0.23685 0.10774 0.54993 0.0
C238 C 0.25549 0.09878 0.58453 0.0
C239 C 0.25044 0.07263 0.61386 0.0
C240 C 0.22687 0.05484 0.60953 0.0
C241 C 0.20821 0.063 0.57572 0.0
H242 H 0.23443 0.65183 0.06277 0.0
C243 C 0.23137 0.66618 0.03173 0.0
H244 H 0.24885 0.68146 0.9695 0.0
H245 H 0.35261 0.62853 0.09131 0.0
H246 H 0.34525 0.67527 0.13987 0.0
H247 H 0.30635 0.71051 0.12707 0.0
H248 H 0.27436 0.6989 0.06616 0.0
C249 C 0.25079 0.66706 0.0006 0.0
C250 C 0.27527 0.64734 0.00674 0.0
C251 C 0.29427 0.65523 0.04152 0.0
C252 C 0.3173 0.63573 0.04767 0.0
C253 C 0.33528 0.64319 0.08405 0.0
C254 C 0.33122 0.66985 0.11237 0.0
C255 C 0.30928 0.68963 0.10526 0.0
C256 C 0.29097 0.68255 0.0703 0.0
H257 H 0.37154 0.62772 0.00245 0.0
C258 C 0.37029 0.60207 0.01205 0.0
H259 H 0.34402 0.56415 0.03285 0.0
H260 H 0.24282 0.6257 0.93682 0.0
H261 H 0.25088 0.57992 0.88679 0.0
H262 H 0.29151 0.54718 0.8959 0.0
H263 H 0.32427 0.55989 0.95521 0.0
C264 C 0.34634 0.58946 0.02263 0.0
C265 C 0.32179 0.60922 0.01785 0.0
C266 C 0.30288 0.60149 0.98293 0.0
C267 C 0.27961 0.62058 0.97735 0.0
C268 C 0.26097 0.61219 0.94234 0.0
C269 C 0.26533 0.58595 0.9134 0.0
C270 C 0.28819 0.5675 0.91855 0.0
C271 C 0.30682 0.57506 0.9528 0.0
H272 H 0.76902 0.81948 0.4589 0.0
C273 C 0.75756 0.82466 0.48924 0.0
H274 H 0.75639 0.85236 0.55017 0.0
H275 H 0.88067 0.86589 0.57511 0.0
H276 H 0.86954 0.83016 0.63858 0.0
H277 H 0.82415 0.80755 0.64611 0.0
H278 H 0.78958 0.82065 0.59041 0.0
C279 C 0.76744 0.84617 0.51988 0.0
C280 C 0.79463 0.86038 0.51521 0.0
C281 C 0.81464 0.85228 0.54797 0.0
C282 C 0.84089 0.86497 0.54334 0.0
C283 C 0.86045 0.8567 0.57675 0.0
C284 C 0.85434 0.83623 0.61339 0.0
C285 C 0.82878 0.82353 0.61765 0.0
C286 C 0.8091 0.83132 0.58542 0.0
H287 H 0.86337 0.94662 0.51774 0.0
C288 C 0.8799 0.93071 0.51018 0.0
H289 H 0.89013 0.88206 0.4938 0.0
H290 H 0.76026 0.88415 0.44953 0.0
H291 H 0.77169 0.91874 0.38507 0.0
H292 H 0.81789 0.93774 0.37426 0.0
H293 H 0.85283 0.92272 0.42833 0.0
C294 C 0.87454 0.89906 0.50179 0.0
C295 C 0.84708 0.88571 0.50597 0.0
C296 C 0.82711 0.89378 0.47311 0.0
C297 C 0.80071 0.88166 0.47826 0.0
C298 C 0.78085 0.89153 0.44631 0.0
C299 C 0.7871 0.91159 0.4093 0.0
C300 C 0.81309 0.92239 0.4033 0.0
C301 C 0.83294 0.91369 0.43473 0.0
H302 H 0.75655 0.35768 0.04329 0.0
C303 C 0.75793 0.34291 0.01258 0.0
H304 H 0.73815 0.3296 0.95061 0.0
H305 H 0.64176 0.39188 0.07506 0.0
H306 H 0.64758 0.34428 0.12361 0.0
H307 H 0.68355 0.30533 0.10952 0.0
H308 H 0.7142 0.31411 0.0474 0.0
C309 C 0.73797 0.34425 0.98143 0.0
C310 C 0.71493 0.36613 0.9879 0.0
C311 C 0.69653 0.35984 0.0233 0.0
C312 C 0.67502 0.38143 0.03007 0.0
C313 C 0.6578 0.37558 0.0672 0.0
C314 C 0.66102 0.34845 0.09555 0.0
C315 C 0.68132 0.32659 0.08772 0.0
C316 C 0.69891 0.33206 0.05207 0.0
H317 H 0.62063 0.39323 0.98588 0.0
C318 C 0.62306 0.41868 0.99569 0.0
H319 H 0.6515 0.45492 0.01522 0.0
H320 H 0.74653 0.38506 0.91693 0.0
H321 H 0.73982 0.43172 0.86679 0.0
H322 H 0.7016 0.46808 0.87684 0.0
H323 H 0.66993 0.45811 0.93725 0.0
C324 C 0.6478 0.42987 0.00504 0.0
C325 C 0.67122 0.40837 8e-05 0.0
C326 C 0.68951 0.41453 0.96458 0.0
C327 C 0.71139 0.39337 0.95848 0.0
C328 C 0.72944 0.40019 0.92287 0.0
C329 C 0.72584 0.42691 0.89386 0.0
C330 C 0.70434 0.44739 0.89954 0.0
C331 C 0.68631 0.4414 0.93439 0.0
H332 H 0.03553 0.83516 0.2172 0.0
C333 C 0.05664 0.82959 0.21835 0.0
H334 H 0.09285 0.83749 0.25512 0.0
H335 H 0.01885 0.95927 0.32585 0.0
H336 H 0.0235 0.98045 0.24869 0.0
H337 H 0.0457 0.94829 0.18953 0.0
H338 H 0.06291 0.89459 0.20695 0.0
C339 C 0.0716 0.84166 0.25299 0.0
C340 C 0.05961 0.86199 0.28909 0.0
C341 C 0.05052 0.89386 0.27855 0.0
C342 C 0.0387 0.91295 0.31307 0.0
C343 C 0.02874 0.94413 0.30128 0.0
C344 C 0.03117 0.95654 0.25706 0.0
C345 C 0.04359 0.93839 0.22372 0.0
C346 C 0.05324 0.90746 0.23415 0.0
H347 H 0.06078 0.95115 0.39882 0.0
C348 C 0.04101 0.94642 0.41202 0.0
H349 H 0.00697 0.9156 0.4088 0.0
H350 H 0.07495 0.80195 0.32042 0.0
H351 H 0.071 0.78129 0.39811 0.0
H352 H 0.0515 0.81502 0.45844 0.0
H353 H 0.03573 0.8696 0.44144 0.0
C354 C 0.02644 0.92146 0.3952 0.0
C355 C 0.03698 0.90064 0.35838 0.0
C356 C 0.04601 0.86883 0.36889 0.0
C357 C 0.0574 0.84949 0.33419 0.0
C358 C 0.06627 0.81776 0.34557 0.0
C359 C 0.0641 0.80559 0.39 0.0
C360 C 0.05311 0.82458 0.42397 0.0
C361 C 0.04415 0.85586 0.41376 0.0
H362 H 0.61202 0.66234 0.74487 0.0
C363 C 0.59575 0.66697 0.72078 0.0
H364 H 0.55428 0.66097 0.70877 0.0
H365 H 0.54381 0.53174 0.82414 0.0
H366 H 0.54205 0.51002 0.74705 0.0
H367 H 0.55176 0.54521 0.68051 0.0
H368 H 0.56313 0.6024 0.69063 0.0
C369 C 0.57117 0.65646 0.73137 0.0
C370 C 0.56651 0.63536 0.77198 0.0
C371 C 0.56016 0.60191 0.76542 0.0
C372 C 0.55485 0.58155 0.80377 0.0
C373 C 0.54823 0.54829 0.79624 0.0
C374 C 0.54713 0.53548 0.75216 0.0
C375 C 0.55257 0.55531 0.7147 0.0
C376 C 0.55903 0.58812 0.72102 0.0
H377 H 0.51194 0.59684 0.89769 0.0
C378 C 0.5251 0.5773 0.90858 0.0
H379 H 0.56152 0.55361 0.89715 0.0
H380 H 0.577 0.69874 0.7963 0.0
H381 H 0.57986 0.72011 0.87357 0.0
H382 H 0.57245 0.68421 0.94031 0.0
H383 H 0.56185 0.62676 0.93011 0.0
C384 C 0.54855 0.57372 0.888 0.0
C385 C 0.55581 0.59473 0.84851 0.0
C386 C 0.56275 0.62801 0.85519 0.0
C387 C 0.56779 0.64848 0.8168 0.0
C388 C 0.57365 0.6819 0.82429 0.0
C389 C 0.57525 0.69452 0.86847 0.0
C390 C 0.57101 0.67432 0.90604 0.0
C391 C 0.56483 0.64143 0.8997 0.0
H392 H 0.90023 0.15759 0.24223 0.0
C393 C 0.91466 0.16 0.21503 0.0
H394 H 0.95435 0.15073 0.19611 0.0
H395 H 0.95539 0.12627 0.42218 0.0
H396 H 0.94715 0.18426 0.42835 0.0
H397 H 0.93931 0.2179 0.35925 0.0
H398 H 0.93926 0.19366 0.28368 0.0
C399 C 0.93928 0.1483 0.22211 0.0
C400 C 0.9461 0.12901 0.26382 0.0
C401 C 0.94691 0.14387 0.30761 0.0
C402 C 0.95246 0.12474 0.3473 0.0
C403 C 0.95207 0.13985 0.39079 0.0
C404 C 0.94725 0.17309 0.39484 0.0
C405 C 0.94276 0.19201 0.35595 0.0
C406 C 0.94261 0.17772 0.31277 0.0
H407 H 0.0025 0.09296 0.39391 0.0
C408 C 0.9885 0.07438 0.40539 0.0
H409 H 0.95101 0.05183 0.39372 0.0
H410 H 0.94652 0.09303 0.18492 0.0
H411 H 0.95683 0.03561 0.17864 0.0
H412 H 0.96809 0.00295 0.24729 0.0
H413 H 0.96884 0.02746 0.3227 0.0
C414 C 0.96483 0.0711 0.38392 0.0
C415 C 0.95815 0.09112 0.34291 0.0
C416 C 0.95785 0.07641 0.2991 0.0
C417 C 0.95178 0.09536 0.2595 0.0
C418 C 0.95134 0.07993 0.21617 0.0
C419 C 0.95717 0.04694 0.21204 0.0
C420 C 0.96347 0.02855 0.25069 0.0
C421 C 0.9638 0.04294 0.29379 0.0
H422 H 0.44409 0.31412 0.7472 0.0
C423 C 0.44135 0.32932 0.7169 0.0
H424 H 0.44026 0.37745 0.69084 0.0
H425 H 0.43813 0.39657 0.9179 0.0
H426 H 0.39606 0.3671 0.91559 0.0
H427 H 0.37866 0.34368 0.84329 0.0
H428 H 0.40352 0.34892 0.77322 0.0
C429 C 0.44355 0.36192 0.72058 0.0
C430 C 0.45263 0.3779 0.76376 0.0
C431 C 0.43714 0.37589 0.80389 0.0
C432 C 0.44643 0.39095 0.84499 0.0
C433 C 0.43144 0.38686 0.88529 0.0
C434 C 0.40733 0.36981 0.88452 0.0
C435 C 0.39759 0.35651 0.84386 0.0
C436 C 0.4122 0.35948 0.80391 0.0
H437 H 0.44705 0.45901 0.88793 0.0
C438 C 0.46607 0.45244 0.90343 0.0
H439 H 0.49892 0.42084 0.90154 0.0
H440 H 0.48739 0.38607 0.69308 0.0
H441 H 0.52829 0.41786 0.69457 0.0
H442 H 0.54306 0.44662 0.76463 0.0
H443 H 0.51712 0.44357 0.83368 0.0
C444 C 0.47959 0.42709 0.88697 0.0
C445 C 0.47039 0.40954 0.84513 0.0
C446 C 0.48568 0.41191 0.80488 0.0
C447 C 0.47689 0.39589 0.76425 0.0
C448 C 0.49283 0.3982 0.72474 0.0
C449 C 0.51642 0.41632 0.72511 0.0
C450 C 0.52475 0.43247 0.76456 0.0
C451 C 0.50966 0.43041 0.80404 0.0
H452 H 0.54006 0.6785 0.31325 0.0
C453 C 0.5613 0.68302 0.30982 0.0
H454 H 0.59469 0.67438 0.26826 0.0
H455 H 0.51231 0.55712 0.20086 0.0
H456 H 0.52126 0.53351 0.27576 0.0
H457 H 0.54807 0.56355 0.33352 0.0
H458 H 0.56567 0.6175 0.31699 0.0
C459 C 0.57344 0.67133 0.27278 0.0
C460 C 0.5583 0.65251 0.23746 0.0
C461 C 0.54891 0.62051 0.24736 0.0
C462 C 0.53441 0.60264 0.21347 0.0
C463 C 0.52424 0.57131 0.2248 0.0
C464 C 0.5291 0.55753 0.26777 0.0
C465 C 0.54411 0.57449 0.30033 0.0
C466 C 0.55398 0.60557 0.29044 0.0
H467 H 0.55016 0.56518 0.12704 0.0
C468 C 0.53034 0.57115 0.11433 0.0
H469 H 0.4981 0.60363 0.11915 0.0
H470 H 0.57323 0.71329 0.20786 0.0
H471 H 0.56505 0.73638 0.13226 0.0
H472 H 0.54095 0.70474 0.07276 0.0
H473 H 0.52476 0.6499 0.08851 0.0
C474 C 0.51751 0.59645 0.13238 0.0
C475 C 0.53029 0.61627 0.16924 0.0
C476 C 0.53946 0.64832 0.15949 0.0
C477 C 0.55353 0.66645 0.19366 0.0
C478 C 0.56256 0.69839 0.18303 0.0
C479 C 0.55799 0.71193 0.13981 0.0
C480 C 0.54441 0.69413 0.10631 0.0
C481 C 0.53522 0.66267 0.11581 0.0
H482 H 0.89495 0.16087 0.76764 0.0
C483 C 0.90959 0.16207 0.79544 0.0
H484 H 0.94905 0.15049 0.81567 0.0
H485 H 0.95861 0.02775 0.68958 0.0
H486 H 0.95319 0.00188 0.7637 0.0
H487 H 0.94126 0.0342 0.83123 0.0
H488 H 0.93483 0.09261 0.82507 0.0
C489 C 0.93376 0.14926 0.78909 0.0
C490 C 0.93976 0.13004 0.7476 0.0
C491 C 0.94317 0.09586 0.75174 0.0
C492 C 0.94971 0.07718 0.71274 0.0
C493 C 0.95337 0.04312 0.71798 0.0
C494 C 0.95034 0.02793 0.76037 0.0
C495 C 0.94366 0.04613 0.79838 0.0
C496 C 0.94008 0.07968 0.79435 0.0
H497 H 0.99925 0.09366 0.62687 0.0
C498 C 0.98541 0.07563 0.61281 0.0
H499 H 0.94703 0.0544 0.61714 0.0
H500 H 0.93607 0.19534 0.72833 0.0
H501 H 0.94019 0.22094 0.65369 0.0
H502 H 0.94934 0.18808 0.58529 0.0
H503 H 0.95479 0.12947 0.59125 0.0
C504 C 0.96078 0.07307 0.62967 0.0
C505 C 0.95284 0.09272 0.6697 0.0
C506 C 0.9489 0.1268 0.6653 0.0
C507 C 0.94272 0.14558 0.70447 0.0
C508 C 0.94001 0.17976 0.69951 0.0
C509 C 0.94245 0.1948 0.65688 0.0
C510 C 0.94767 0.17631 0.61839 0.0
C511 C 0.95088 0.1427 0.62233 0.0
H512 H 0.47684 0.33335 0.30314 0.0
C513 C 0.45603 0.32578 0.30215 0.0
H514 H 0.41948 0.3303 0.26545 0.0
H515 H 0.48903 0.45881 0.19555 0.0
H516 H 0.48273 0.47909 0.27237 0.0
H517 H 0.46104 0.44482 0.33087 0.0
H518 H 0.44601 0.3899 0.31309 0.0
C519 C 0.44051 0.33643 0.26741 0.0
C520 C 0.45149 0.35812 0.23129 0.0
C521 C 0.45914 0.39069 0.24188 0.0
C522 C 0.47051 0.41096 0.20763 0.0
C523 C 0.47932 0.44277 0.21973 0.0
C524 C 0.47598 0.45467 0.26382 0.0
C525 C 0.46386 0.43534 0.29678 0.0
C526 C 0.45548 0.40374 0.28615 0.0
H527 H 0.44974 0.45083 0.12439 0.0
C528 C 0.46917 0.44618 0.11015 0.0
H529 H 0.50252 0.41514 0.111 0.0
H530 H 0.43862 0.29714 0.19981 0.0
H531 H 0.44372 0.27741 0.12222 0.0
H532 H 0.46213 0.31319 0.06212 0.0
H533 H 0.47568 0.36887 0.07925 0.0
C534 C 0.48344 0.42085 0.12579 0.0
C535 C 0.47304 0.39913 0.16237 0.0
C536 C 0.46522 0.3667 0.15172 0.0
C537 C 0.4544 0.34617 0.18625 0.0
C538 C 0.44682 0.31382 0.17478 0.0
C539 C 0.44964 0.30219 0.1304 0.0
C540 C 0.46003 0.32233 0.09657 0.0
C541 C 0.46774 0.35423 0.10688 0.0
H542 H 0.06395 0.80819 0.77344 0.0
C543 C 0.06585 0.82422 0.80289 0.0
H544 H 0.06388 0.87268 0.82664 0.0
H545 H 0.06504 0.89212 0.59994 0.0
H546 H 0.108 0.86576 0.60187 0.0
H547 H 0.12626 0.84299 0.67397 0.0
H548 H 0.10141 0.84561 0.74412 0.0
C549 C 0.06145 0.85633 0.79767 0.0
C550 C 0.05132 0.87069 0.75396 0.0
C551 C 0.06683 0.87024 0.71378 0.0
C552 C 0.05708 0.88515 0.67286 0.0
C553 C 0.07211 0.88259 0.63246 0.0
C554 C 0.09671 0.86732 0.63301 0.0
C555 C 0.10693 0.85436 0.67355 0.0
C556 C 0.0923 0.8558 0.71357 0.0
H557 H 0.05727 0.95351 0.63533 0.0
C558 C 0.03841 0.94772 0.61837 0.0
H559 H 0.00497 0.91609 0.61631 0.0
H560 H 0.01584 0.87423 0.82401 0.0
H561 H 0.97385 0.90271 0.82268 0.0
H562 H 0.95844 0.93175 0.75317 0.0
H563 H 0.98472 0.93208 0.68441 0.0
C564 C 0.02411 0.92177 0.63235 0.0
C565 C 0.03275 0.90234 0.67301 0.0
C566 C 0.01713 0.90249 0.71295 0.0
C567 C 0.02632 0.88641 0.75333 0.0
C568 C 0.01012 0.88659 0.79261 0.0
C569 C 0.98591 0.90276 0.7923 0.0
C570 C 0.9772 0.91905 0.75315 0.0
C571 C 0.99252 0.91901 0.71386 0.0
loop_
_geom_bond_atom_site_label_1
_geom_bond_atom_site_label_2
_geom_bond_distance
_geom_bond_site_symmetry_2
_ccdc_geom_bond_type
C0 C1 1.384 . S
C0 H13 0.947 . S
C0 C35 1.382 . S
C1 C0 1.384 . S
C1 C2 1.378 . S
C2 C1 1.378 . S
C2 C3 1.378 . S
C2 H14 0.952 . S
C3 C2 1.378 . S
C3 H15 0.950 . S
C3 C34 1.383 . S
H4 C23 0.947 . S
H5 C24 0.946 . S
H6 C26 0.953 . S
H7 C27 0.945 . S
H8 C29 0.952 . S
H9 C30 0.949 . S
H10 C32 0.950 . S
H11 C33 0.948 . S
H12 C35 0.951 . S
H13 C0 0.947 . S
H14 C2 0.952 . S
H15 C3 0.950 . S
N16 C19 1.382 . S
N16 C21 1.363 . S
N17 C19 1.371 1_556 S
N17 C20 1.372 . S
N18 C20 1.361 1_554 S
N18 C21 1.377 . S
C19 N16 1.382 . S
C19 N17 1.371 1_554 S
C19 C22 1.480 . S
C20 N17 1.372 . S
C20 N18 1.361 1_556 S
C20 C28 1.457 . S
C21 N16 1.363 . S
C21 N18 1.377 . S
C21 C34 1.479 . S
C22 C19 1.480 . S
C22 C23 1.383 . S
C22 C27 1.385 1_554 S
C23 H4 0.947 . S
C23 C22 1.383 . S
C23 C24 1.388 . S
C24 H5 0.946 . S
C24 C23 1.388 . S
C24 C25 1.384 . S
C25 C24 1.384 . S
C25 C26 1.377 1_554 S
C26 H6 0.953 . S
C26 C25 1.377 1_556 S
C26 C27 1.369 . S
C27 H7 0.945 . S
C27 C22 1.385 1_556 S
C27 C26 1.369 . S
C28 C20 1.457 . S
C28 C29 1.372 . S
C28 C33 1.364 . S
C29 H8 0.952 . S
C29 C28 1.372 . S
C29 C30 1.389 . S
C30 H9 0.949 . S
C30 C29 1.389 . S
C30 C31 1.387 . S
C31 C30 1.387 . S
C31 C32 1.372 . S
C32 H10 0.950 . S
C32 C31 1.372 . S
C32 C33 1.379 . S
C33 H11 0.948 . S
C33 C28 1.364 . S
C33 C32 1.379 . S
C34 C3 1.383 . S
C34 C21 1.479 . S
C34 C35 1.398 . S
C35 C0 1.382 . S
C35 H12 0.951 . S
C35 C34 1.398 . S
C36 C37 1.384 . S
C36 H49 0.947 . S
C36 C71 1.382 . S
C37 C36 1.384 . S
C37 C38 1.378 . S
C38 C37 1.378 . S
C38 C39 1.378 . S
C38 H50 0.952 . S
C39 C38 1.378 . S
C39 H51 0.950 . S
C39 C70 1.383 . S
H40 C59 0.947 . S
H41 C60 0.946 . S
H42 C62 0.953 . S
H43 C63 0.945 . S
H44 C65 0.952 . S
H45 C66 0.949 . S
H46 C68 0.950 . S
H47 C69 0.948 . S
H48 C71 0.951 . S
H49 C36 0.947 . S
H50 C38 0.952 . S
H51 C39 0.950 . S
N52 C55 1.382 . S
N52 C57 1.363 . S
N53 C55 1.371 . S
N53 C56 1.372 . S
N54 C56 1.361 . S
N54 C57 1.377 . S
C55 N52 1.382 . S
C55 N53 1.371 . S
C55 C58 1.480 . S
C56 N53 1.372 . S
C56 N54 1.361 . S
C56 C64 1.457 . S
C57 N52 1.363 . S
C57 N54 1.377 . S
C57 C70 1.479 . S
C58 C55 1.480 . S
C58 C59 1.383 . S
C58 C63 1.385 . S
C59 H40 0.947 . S
C59 C58 1.383 . S
C59 C60 1.388 . S
C60 H41 0.946 . S
C60 C59 1.388 . S
C60 C61 1.384 . S
C61 C60 1.384 . S
C61 C62 1.377 . S
C62 H42 0.953 . S
C62 C61 1.377 . S
C62 C63 1.369 . S
C63 H43 0.945 . S
C63 C58 1.385 . S
C63 C62 1.369 . S
C64 C56 1.457 . S
C64 C65 1.372 . S
C64 C69 1.364 . S
C65 H44 0.952 . S
C65 C64 1.372 . S
C65 C66 1.389 . S
C66 H45 0.949 . S
C66 C65 1.389 . S
C66 C67 1.387 . S
C67 C66 1.387 . S
C67 C68 1.372 . S
C68 H46 0.950 . S
C68 C67 1.372 . S
C68 C69 1.379 . S
C69 H47 0.948 . S
C69 C64 1.364 . S
C69 C68 1.379 . S
C70 C39 1.383 . S
C70 C57 1.479 . S
C70 C71 1.398 . S
C71 C36 1.382 . S
C71 H48 0.951 . S
C71 C70 1.398 . S
C72 C73 1.384 . S
C72 H85 0.947 . S
C72 C107 1.382 . S
C73 C72 1.384 . S
C73 C74 1.378 . S
C74 C73 1.378 . S
C74 C75 1.378 . S
C74 H86 0.952 . S
C75 C74 1.378 . S
C75 H87 0.950 . S
C75 C106 1.383 . S
H76 C95 0.947 . S
H77 C96 0.946 . S
H78 C98 0.953 . S
H79 C99 0.945 . S
H80 C101 0.952 . S
H81 C102 0.949 . S
H82 C104 0.950 . S
H83 C105 0.948 . S
H84 C107 0.951 . S
H85 C72 0.947 . S
H86 C74 0.952 . S
H87 C75 0.950 . S
N88 C91 1.382 1_556 S
N88 C93 1.363 . S
N89 C91 1.371 . S
N89 C92 1.372 . S
N90 C92 1.361 . S
N90 C93 1.377 1_554 S
C91 N88 1.382 1_554 S
C91 N89 1.371 . S
C91 C94 1.480 . S
C92 N89 1.372 . S
C92 N90 1.361 . S
C92 C100 1.457 . S
C93 N88 1.363 . S
C93 N90 1.377 1_556 S
C93 C106 1.479 . S
C94 C91 1.480 . S
C94 C95 1.383 1_554 S
C94 C99 1.385 . S
C95 H76 0.947 . S
C95 C94 1.383 1_556 S
C95 C96 1.388 . S
C96 H77 0.946 . S
C96 C95 1.388 . S
C96 C97 1.384 1_556 S
C97 C96 1.384 1_554 S
C97 C98 1.377 . S
C98 H78 0.953 . S
C98 C97 1.377 . S
C98 C99 1.369 . S
C99 H79 0.945 . S
C99 C94 1.385 . S
C99 C98 1.369 . S
C100 C92 1.457 . S
C100 C101 1.372 . S
C100 C105 1.364 . S
C101 H80 0.952 . S
C101 C100 1.372 . S
C101 C102 1.389 . S
C102 H81 0.949 . S
C102 C101 1.389 . S
C102 C103 1.387 . S
C103 C102 1.387 . S
C103 C104 1.372 . S
C104 H82 0.950 . S
C104 C103 1.372 . S
C104 C105 1.379 . S
C105 H83 0.948 . S
C105 C100 1.364 . S
C105 C104 1.379 . S
C106 C75 1.383 . S
C106 C93 1.479 . S
C106 C107 1.398 . S
C107 C72 1.382 . S
C107 H84 0.951 . S
C107 C106 1.398 . S
C108 C109 1.384 . S
C108 H121 0.947 . S
C108 C143 1.382 . S
C109 C108 1.384 . S
C109 C110 1.378 . S
C110 C109 1.378 . S
C110 C111 1.378 . S
C110 H122 0.952 . S
C111 C110 1.378 . S
C111 H123 0.950 . S
C111 C142 1.383 . S
H112 C131 0.947 . S
H113 C132 0.946 . S
H114 C134 0.953 . S
H115 C135 0.945 . S
H116 C137 0.952 . S
H117 C138 0.949 . S
H118 C140 0.950 . S
H119 C141 0.948 . S
H120 C143 0.951 . S
H121 C108 0.947 . S
H122 C110 0.952 . S
H123 C111 0.950 . S
N124 C127 1.382 . S
N124 C129 1.363 . S
N125 C127 1.371 . S
N125 C128 1.372 . S
N126 C128 1.361 . S
N126 C129 1.377 . S
C127 N124 1.382 . S
C127 N125 1.371 . S
C127 C130 1.480 . S
C128 N125 1.372 . S
C128 N126 1.361 . S
C128 C136 1.457 . S
C129 N124 1.363 . S
C129 N126 1.377 . S
C129 C142 1.479 . S
C130 C127 1.480 . S
C130 C131 1.383 . S
C130 C135 1.385 . S
C131 H112 0.947 . S
C131 C130 1.383 . S
C131 C132 1.388 . S
C132 H113 0.946 . S
C132 C131 1.388 . S
C132 C133 1.384 . S
C133 C132 1.384 . S
C133 C134 1.377 . S
C134 H114 0.953 . S
C134 C133 1.377 . S
C134 C135 1.369 . S
C135 H115 0.945 . S
C135 C130 1.385 . S
C135 C134 1.369 . S
C136 C128 1.457 . S
C136 C137 1.372 . S
C136 C141 1.364 . S
C137 H116 0.952 . S
C137 C136 1.372 . S
C137 C138 1.389 . S
C138 H117 0.949 . S
C138 C137 1.389 . S
C138 C139 1.387 . S
C139 C138 1.387 . S
C139 C140 1.372 . S
C140 H118 0.950 . S
C140 C139 1.372 . S
C140 C141 1.379 . S
C141 H119 0.948 . S
C141 C136 1.364 . S
C141 C140 1.379 . S
C142 C111 1.383 . S
C142 C129 1.479 . S
C142 C143 1.398 . S
C143 C108 1.382 . S
C143 H120 0.951 . S
C143 C142 1.398 . S
C144 O160 1.251 . S
C144 O162 1.254 1_455 S
N145 C146 1.333 . S
N145 C150 1.307 . S
N145 Zn151 2.020 . S
C146 N145 1.333 . S
C146 C147 1.379 . S
C146 H164 0.952 . S
C147 C146 1.379 . S
C147 C148 1.390 . S
C147 H174 0.949 . S
C148 C147 1.390 . S
C148 C149 1.357 . S
C149 C148 1.357 . S
C149 C150 1.370 . S
C149 H175 0.950 . S
C150 N145 1.307 . S
C150 C149 1.370 . S
C150 H168 0.948 . S
Zn151 N145 2.020 . S
Zn151 O160 2.039 1_545 S
Zn151 O166 2.034 1_545 S
Zn151 O170 2.025 . S
Zn151 O172 2.024 . S
C152 O171 1.246 . S
C152 O172 1.249 1_655 S
N153 C154 1.307 . S
N153 C155 1.333 . S
N153 Zn159 2.020 . S
C154 N153 1.307 . S
C154 C158 1.370 . S
C154 H165 0.948 . S
C155 N153 1.333 . S
C155 C156 1.379 . S
C155 H163 0.974 . S
C156 C155 1.379 . S
C156 C157 1.390 . S
C156 H176 0.949 . S
C157 C156 1.390 . S
C157 C158 1.357 . S
C158 C154 1.370 . S
C158 C157 1.357 . S
C158 H177 0.950 . S
Zn159 N153 2.020 . S
Zn159 O162 2.025 . S
Zn159 O167 2.024 . S
Zn159 O169 2.039 1_565 S
Zn159 O171 2.034 1_565 S
O160 C144 1.251 . S
O160 Zn151 2.039 1_565 S
C161 O166 1.246 . S
C161 O167 1.249 1_455 S
O162 C144 1.254 1_655 S
O162 Zn159 2.025 . S
H163 C155 0.974 . S
H164 C146 0.952 . S
H165 C154 0.948 . S
O166 Zn151 2.034 1_565 S
O166 C161 1.246 . S
O167 Zn159 2.024 . S
O167 C161 1.249 1_655 S
H168 C150 0.948 . S
O169 Zn159 2.039 1_545 S
O169 C173 1.251 . S
O170 Zn151 2.025 . S
O170 C173 1.254 1_455 S
O171 C152 1.246 . S
O171 Zn159 2.034 1_545 S
O172 Zn151 2.024 . S
O172 C152 1.249 1_455 S
C173 O169 1.251 . S
C173 O170 1.254 1_655 S
H174 C147 0.949 . S
H175 C149 0.950 . S
H176 C156 0.949 . S
H177 C158 0.950 . S
C178 O194 1.251 . S
C178 O196 1.254 . S
N179 C180 1.333 1_554 S
N179 C184 1.307 . S
N179 Zn185 2.020 . S
C180 N179 1.333 1_556 S
C180 C181 1.379 . S
C180 H198 0.952 . S
C181 C180 1.379 . S
C181 C182 1.390 1_556 S
C181 H208 0.949 . S
C182 C181 1.390 1_554 S
C182 C183 1.357 . S
C183 C182 1.357 . S
C183 C184 1.370 . S
C183 H209 0.950 . S
C184 N179 1.307 . S
C184 C183 1.370 . S
C184 H202 0.948 . S
Zn185 N179 2.020 . S
Zn185 O194 2.039 1_554 S
Zn185 O200 2.034 . S
Zn185 O204 2.025 . S
Zn185 O206 2.024 1_554 S
C186 O205 1.246 . S
C186 O206 1.249 . S
N187 C188 1.307 1_554 S
N187 C189 1.333 . S
N187 Zn193 2.020 . S
C188 N187 1.307 1_556 S
C188 C192 1.370 . S
C188 H199 0.948 . S
C189 N187 1.333 . S
C189 C190 1.379 . S
C189 H197 0.952 . S
C190 C189 1.379 . S
C190 C191 1.390 . S
C190 H210 0.949 . S
C191 C190 1.390 . S
C191 C192 1.357 1_554 S
C192 C188 1.370 . S
C192 C191 1.357 1_556 S
C192 H211 0.950 . S
Zn193 N187 2.020 . S
Zn193 O196 2.025 1_554 S
Zn193 O201 2.024 . S
Zn193 O203 2.039 . S
Zn193 O205 2.034 1_554 S
O194 C178 1.251 . S
O194 Zn185 2.039 1_556 S
C195 O200 1.246 . S
C195 O201 1.249 . S
O196 C178 1.254 . S
O196 Zn193 2.025 1_556 S
H197 C189 0.952 . S
H198 C180 0.952 . S
H199 C188 0.948 . S
O200 Zn185 2.034 . S
O200 C195 1.246 . S
O201 Zn193 2.024 . S
O201 C195 1.249 . S
H202 C184 0.948 . S
O203 Zn193 2.039 . S
O203 C207 1.251 . S
O204 Zn185 2.025 . S
O204 C207 1.254 . S
O205 C186 1.246 . S
O205 Zn193 2.034 1_556 S
O206 Zn185 2.024 1_556 S
O206 C186 1.249 . S
C207 O203 1.251 . S
C207 O204 1.254 . S
H208 C181 0.949 . S
H209 C183 0.950 . S
H210 C190 0.949 . S
H211 C192 0.950 . S
H212 C213 0.951 . S
C213 H212 0.951 . S
C213 C219 1.265 . S
H214 C219 0.950 . S
H215 C223 0.949 . S
H216 C224 0.950 . S
H217 C225 0.951 . S
H218 C226 0.951 . S
C219 C213 1.265 . S
C219 H214 0.950 . S
C219 C220 1.478 . S
C220 C219 1.478 . S
C220 C221 1.397 . S
C220 C237 1.394 . S
C221 C220 1.397 . S
C221 C222 1.438 . S
C221 C226 1.429 . S
C222 C221 1.438 . S
C222 C223 1.428 . S
C222 C235 1.394 . S
C223 H215 0.949 . S
C223 C222 1.428 . S
C223 C224 1.345 . S
C224 H216 0.950 . S
C224 C223 1.345 . S
C224 C225 1.424 . S
C225 H217 0.951 . S
C225 C224 1.424 . S
C225 C226 1.347 . S
C226 H218 0.951 . S
C226 C221 1.429 . S
C226 C225 1.347 . S
H227 C228 0.951 . S
C228 H227 0.951 . S
C228 C234 1.265 . S
H229 C234 0.950 . S
H230 C238 0.949 . S
H231 C239 0.950 . S
H232 C240 0.951 . S
H233 C241 0.951 . S
C234 C228 1.265 . S
C234 H229 0.950 . S
C234 C235 1.478 . S
C235 C222 1.394 . S
C235 C234 1.478 . S
C235 C236 1.397 . S
C236 C235 1.397 . S
C236 C237 1.438 . S
C236 C241 1.429 . S
C237 C220 1.394 . S
C237 C236 1.438 . S
C237 C238 1.428 . S
C238 H230 0.949 . S
C238 C237 1.428 . S
C238 C239 1.345 . S
C239 H231 0.950 . S
C239 C238 1.345 . S
C239 C240 1.424 . S
C240 H232 0.951 . S
C240 C239 1.424 . S
C240 C241 1.347 . S
C241 H233 0.951 . S
C241 C236 1.429 . S
C241 C240 1.347 . S
H242 C243 0.951 . S
C243 H242 0.951 . S
C243 C249 1.265 . S
H244 C249 0.950 . S
H245 C253 0.949 . S
H246 C254 0.950 . S
H247 C255 0.951 . S
H248 C256 0.951 . S
C249 C243 1.265 . S
C249 H244 0.950 . S
C249 C250 1.478 . S
C250 C249 1.478 . S
C250 C251 1.397 . S
C250 C267 1.394 1_554 S
C251 C250 1.397 . S
C251 C252 1.438 . S
C251 C256 1.429 . S
C252 C251 1.438 . S
C252 C253 1.428 . S
C252 C265 1.394 . S
C253 H245 0.949 . S
C253 C252 1.428 . S
C253 C254 1.345 . S
C254 H246 0.950 . S
C254 C253 1.345 . S
C254 C255 1.424 . S
C255 H247 0.951 . S
C255 C254 1.424 . S
C255 C256 1.347 . S
C256 H248 0.951 . S
C256 C251 1.429 . S
C256 C255 1.347 . S
H257 C258 0.951 . S
C258 H257 0.951 . S
C258 C264 1.265 . S
H259 C264 0.950 . S
H260 C268 0.949 . S
H261 C269 0.950 . S
H262 C270 0.951 . S
H263 C271 0.951 . S
C264 C258 1.265 . S
C264 H259 0.950 . S
C264 C265 1.478 . S
C265 C252 1.394 . S
C265 C264 1.478 . S
C265 C266 1.397 1_554 S
C266 C265 1.397 1_556 S
C266 C267 1.438 . S
C266 C271 1.429 . S
C267 C250 1.394 1_556 S
C267 C266 1.438 . S
C267 C268 1.428 . S
C268 H260 0.949 . S
C268 C267 1.428 . S
C268 C269 1.345 . S
C269 H261 0.950 . S
C269 C268 1.345 . S
C269 C270 1.424 . S
C270 H262 0.951 . S
C270 C269 1.424 . S
C270 C271 1.347 . S
C271 H263 0.951 . S
C271 C266 1.429 . S
C271 C270 1.347 . S
H272 C273 0.951 . S
C273 H272 0.951 . S
C273 C279 1.265 . S
H274 C279 0.950 . S
H275 C283 0.949 . S
H276 C284 0.950 . S
H277 C285 0.951 . S
H278 C286 0.951 . S
C279 C273 1.265 . S
C279 H274 0.950 . S
C279 C280 1.478 . S
C280 C279 1.478 . S
C280 C281 1.397 . S
C280 C297 1.394 . S
C281 C280 1.397 . S
C281 C282 1.438 . S
C281 C286 1.429 . S
C282 C281 1.438 . S
C282 C283 1.428 . S
C282 C295 1.394 . S
C283 H275 0.949 . S
C283 C282 1.428 . S
C283 C284 1.345 . S
C284 H276 0.950 . S
C284 C283 1.345 . S
C284 C285 1.424 . S
C285 H277 0.951 . S
C285 C284 1.424 . S
C285 C286 1.347 . S
C286 H278 0.951 . S
C286 C281 1.429 . S
C286 C285 1.347 . S
H287 C288 0.951 . S
C288 H287 0.951 . S
C288 C294 1.265 . S
H289 C294 0.950 . S
H290 C298 0.949 . S
H291 C299 0.950 . S
H292 C300 0.951 . S
H293 C301 0.951 . S
C294 C288 1.265 . S
C294 H289 0.950 . S
C294 C295 1.478 . S
C295 C282 1.394 . S
C295 C294 1.478 . S
C295 C296 1.397 . S
C296 C295 1.397 . S
C296 C297 1.438 . S
C296 C301 1.429 . S
C297 C280 1.394 . S
C297 C296 1.438 . S
C297 C298 1.428 . S
C298 H290 0.949 . S
C298 C297 1.428 . S
C298 C299 1.345 . S
C299 H291 0.950 . S
C299 C298 1.345 . S
C299 C300 1.424 . S
C300 H292 0.951 . S
C300 C299 1.424 . S
C300 C301 1.347 . S
C301 H293 0.951 . S
C301 C296 1.429 . S
C301 C300 1.347 . S
H302 C303 0.951 . S
C303 H302 0.951 . S
C303 C309 1.265 . S
H304 C309 0.950 . S
H305 C313 0.949 . S
H306 C314 0.950 . S
H307 C315 0.951 . S
H308 C316 0.951 . S
C309 C303 1.265 . S
C309 H304 0.950 . S
C309 C310 1.478 . S
C310 C309 1.478 . S
C310 C311 1.397 . S
C310 C327 1.394 1_554 S
C311 C310 1.397 . S
C311 C312 1.438 . S
C311 C316 1.429 . S
C312 C311 1.438 . S
C312 C313 1.428 . S
C312 C325 1.394 . S
C313 H305 0.949 . S
C313 C312 1.428 . S
C313 C314 1.345 . S
C314 H306 0.950 . S
C314 C313 1.345 . S
C314 C315 1.424 . S
C315 H307 0.951 . S
C315 C314 1.424 . S
C315 C316 1.347 . S
C316 H308 0.951 . S
C316 C311 1.429 . S
C316 C315 1.347 . S
H317 C318 0.951 . S
C318 H317 0.951 . S
C318 C324 1.265 . S
H319 C324 0.950 . S
H320 C328 0.949 . S
H321 C329 0.950 . S
H322 C330 0.951 . S
H323 C331 0.951 . S
C324 C318 1.265 . S
C324 H319 0.950 . S
C324 C325 1.478 . S
C325 C312 1.394 . S
C325 C324 1.478 . S
C325 C326 1.397 1_554 S
C326 C325 1.397 1_556 S
C326 C327 1.438 . S
C326 C331 1.429 . S
C327 C310 1.394 1_556 S
C327 C326 1.438 . S
C327 C328 1.428 . S
C328 H320 0.949 . S
C328 C327 1.428 . S
C328 C329 1.345 . S
C329 H321 0.950 . S
C329 C328 1.345 . S
C329 C330 1.424 . S
C330 H322 0.951 . S
C330 C329 1.424 . S
C330 C331 1.347 . S
C331 H323 0.951 . S
C331 C326 1.429 . S
C331 C330 1.347 . S
H332 C333 0.951 . S
C333 H332 0.951 . S
C333 C339 1.265 . S
H334 C339 0.950 . S
H335 C343 0.949 . S
H336 C344 0.950 . S
H337 C345 0.951 . S
H338 C346 0.951 . S
C339 C333 1.265 . S
C339 H334 0.950 . S
C339 C340 1.478 . S
C340 C339 1.478 . S
C340 C341 1.397 . S
C340 C357 1.394 . S
C341 C340 1.397 . S
C341 C342 1.438 . S
C341 C346 1.429 . S
C342 C341 1.438 . S
C342 C343 1.428 . S
C342 C355 1.394 . S
C343 H335 0.949 . S
C343 C342 1.428 . S
C343 C344 1.345 . S
C344 H336 0.950 . S
C344 C343 1.345 . S
C344 C345 1.424 . S
C345 H337 0.951 . S
C345 C344 1.424 . S
C345 C346 1.347 . S
C346 H338 0.951 . S
C346 C341 1.429 . S
C346 C345 1.347 . S
H347 C348 0.951 . S
C348 H347 0.951 . S
C348 C354 1.265 . S
H349 C354 0.950 . S
H350 C358 0.949 . S
H351 C359 0.950 . S
H352 C360 0.951 . S
H353 C361 0.951 . S
C354 C348 1.265 . S
C354 H349 0.950 . S
C354 C355 1.478 . S
C355 C342 1.394 . S
C355 C354 1.478 . S
C355 C356 1.397 . S
C356 C355 1.397 . S
C356 C357 1.438 . S
C356 C361 1.429 . S
C357 C340 1.394 . S
C357 C356 1.438 . S
C357 C358 1.428 . S
C358 H350 0.949 . S
C358 C357 1.428 . S
C358 C359 1.345 . S
C359 H351 0.950 . S
C359 C358 1.345 . S
C359 C360 1.424 . S
C360 H352 0.951 . S
C360 C359 1.424 . S
C360 C361 1.347 . S
C361 H353 0.951 . S
C361 C356 1.429 . S
C361 C360 1.347 . S
H362 C363 0.951 . S
C363 H362 0.951 . S
C363 C369 1.265 . S
H364 C369 0.950 . S
H365 C373 0.949 . S
H366 C374 0.950 . S
H367 C375 0.951 . S
H368 C376 0.951 . S
C369 C363 1.265 . S
C369 H364 0.950 . S
C369 C370 1.478 . S
C370 C369 1.478 . S
C370 C371 1.397 . S
C370 C387 1.394 . S
C371 C370 1.397 . S
C371 C372 1.438 . S
C371 C376 1.429 . S
C372 C371 1.438 . S
C372 C373 1.428 . S
C372 C385 1.394 . S
C373 H365 0.949 . S
C373 C372 1.428 . S
C373 C374 1.345 . S
C374 H366 0.950 . S
C374 C373 1.345 . S
C374 C375 1.424 . S
C375 H367 0.951 . S
C375 C374 1.424 . S
C375 C376 1.347 . S
C376 H368 0.951 . S
C376 C371 1.429 . S
C376 C375 1.347 . S
H377 C378 0.951 . S
C378 H377 0.951 . S
C378 C384 1.265 . S
H379 C384 0.950 . S
H380 C388 0.949 . S
H381 C389 0.950 . S
H382 C390 0.951 . S
H383 C391 0.951 . S
C384 C378 1.265 . S
C384 H379 0.950 . S
C384 C385 1.478 . S
C385 C372 1.394 . S
C385 C384 1.478 . S
C385 C386 1.397 . S
C386 C385 1.397 . S
C386 C387 1.438 . S
C386 C391 1.429 . S
C387 C370 1.394 . S
C387 C386 1.438 . S
C387 C388 1.428 . S
C388 H380 0.949 . S
C388 C387 1.428 . S
C388 C389 1.345 . S
C389 H381 0.950 . S
C389 C388 1.345 . S
C389 C390 1.424 . S
C390 H382 0.951 . S
C390 C389 1.424 . S
C390 C391 1.347 . S
C391 H383 0.951 . S
C391 C386 1.429 . S
C391 C390 1.347 . S
H392 C393 0.951 . S
C393 H392 0.951 . S
C393 C399 1.265 . S
H394 C399 0.950 . S
H395 C403 0.949 . S
H396 C404 0.950 . S
H397 C405 0.951 . S
H398 C406 0.951 . S
C399 C393 1.265 . S
C399 H394 0.950 . S
C399 C400 1.478 . S
C400 C399 1.478 . S
C400 C401 1.397 . S
C400 C417 1.394 . S
C401 C400 1.397 . S
C401 C402 1.438 . S
C401 C406 1.429 . S
C402 C401 1.438 . S
C402 C403 1.428 . S
C402 C415 1.394 . S
C403 H395 0.949 . S
C403 C402 1.428 . S
C403 C404 1.345 . S
C404 H396 0.950 . S
C404 C403 1.345 . S
C404 C405 1.424 . S
C405 H397 0.951 . S
C405 C404 1.424 . S
C405 C406 1.347 . S
C406 H398 0.951 . S
C406 C401 1.429 . S
C406 C405 1.347 . S
H407 C408 0.951 . S
C408 H407 0.951 . S
C408 C414 1.265 . S
H409 C414 0.950 . S
H410 C418 0.949 . S
H411 C419 0.950 . S
H412 C420 0.951 . S
H413 C421 0.951 . S
C414 C408 1.265 . S
C414 H409 0.950 . S
C414 C415 1.478 . S
C415 C402 1.394 . S
C415 C414 1.478 . S
C415 C416 1.397 . S
C416 C415 1.397 . S
C416 C417 1.438 . S
C416 C421 1.429 . S
C417 C400 1.394 . S
C417 C416 1.438 . S
C417 C418 1.428 . S
C418 H410 0.949 . S
C418 C417 1.428 . S
C418 C419 1.345 . S
C419 H411 0.950 . S
C419 C418 1.345 . S
C419 C420 1.424 . S
C420 H412 0.951 . S
C420 C419 1.424 . S
C420 C421 1.347 . S
C421 H413 0.951 . S
C421 C416 1.429 . S
C421 C420 1.347 . S
H422 C423 0.951 . S
C423 H422 0.951 . S
C423 C429 1.265 . S
H424 C429 0.950 . S
H425 C433 0.949 . S
H426 C434 0.950 . S
H427 C435 0.951 . S
H428 C436 0.951 . S
C429 C423 1.265 . S
C429 H424 0.950 . S
C429 C430 1.478 . S
C430 C429 1.478 . S
C430 C431 1.397 . S
C430 C447 1.394 . S
C431 C430 1.397 . S
C431 C432 1.438 . S
C431 C436 1.429 . S
C432 C431 1.438 . S
C432 C433 1.428 . S
C432 C445 1.394 . S
C433 H425 0.949 . S
C433 C432 1.428 . S
C433 C434 1.345 . S
C434 H426 0.950 . S
C434 C433 1.345 . S
C434 C435 1.424 . S
C435 H427 0.951 . S
C435 C434 1.424 . S
C435 C436 1.347 . S
C436 H428 0.951 . S
C436 C431 1.429 . S
C436 C435 1.347 . S
H437 C438 0.951 . S
C438 H437 0.951 . S
C438 C444 1.265 . S
H439 C444 0.950 . S
H440 C448 0.949 . S
H441 C449 0.950 . S
H442 C450 0.951 . S
H443 C451 0.951 . S
C444 C438 1.265 . S
C444 H439 0.950 . S
C444 C445 1.478 . S
C445 C432 1.394 . S
C445 C444 1.478 . S
C445 C446 1.397 . S
C446 C445 1.397 . S
C446 C447 1.438 . S
C446 C451 1.429 . S
C447 C430 1.394 . S
C447 C446 1.438 . S
C447 C448 1.428 . S
C448 H440 0.949 . S
C448 C447 1.428 . S
C448 C449 1.345 . S
C449 H441 0.950 . S
C449 C448 1.345 . S
C449 C450 1.424 . S
C450 H442 0.951 . S
C450 C449 1.424 . S
C450 C451 1.347 . S
C451 H443 0.951 . S
C451 C446 1.429 . S
C451 C450 1.347 . S
H452 C453 0.951 . S
C453 H452 0.951 . S
C453 C459 1.265 . S
H454 C459 0.950 . S
H455 C463 0.949 . S
H456 C464 0.950 . S
H457 C465 0.951 . S
H458 C466 0.951 . S
C459 C453 1.265 . S
C459 H454 0.950 . S
C459 C460 1.478 . S
C460 C459 1.478 . S
C460 C461 1.397 . S
C460 C477 1.394 . S
C461 C460 1.397 . S
C461 C462 1.438 . S
C461 C466 1.429 . S
C462 C461 1.438 . S
C462 C463 1.428 . S
C462 C475 1.394 . S
C463 H455 0.949 . S
C463 C462 1.428 . S
C463 C464 1.345 . S
C464 H456 0.950 . S
C464 C463 1.345 . S
C464 C465 1.424 . S
C465 H457 0.951 . S
C465 C464 1.424 . S
C465 C466 1.347 . S
C466 H458 0.951 . S
C466 C461 1.429 . S
C466 C465 1.347 . S
H467 C468 0.951 . S
C468 H467 0.951 . S
C468 C474 1.265 . S
H469 C474 0.950 . S
H470 C478 0.949 . S
H471 C479 0.950 . S
H472 C480 0.951 . S
H473 C481 0.951 . S
C474 C468 1.265 . S
C474 H469 0.950 . S
C474 C475 1.478 . S
C475 C462 1.394 . S
C475 C474 1.478 . S
C475 C476 1.397 . S
C476 C475 1.397 . S
C476 C477 1.438 . S
C476 C481 1.429 . S
C477 C460 1.394 . S
C477 C476 1.438 . S
C477 C478 1.428 . S
C478 H470 0.949 . S
C478 C477 1.428 . S
C478 C479 1.345 . S
C479 H471 0.950 . S
C479 C478 1.345 . S
C479 C480 1.424 . S
C480 H472 0.951 . S
C480 C479 1.424 . S
C480 C481 1.347 . S
C481 H473 0.951 . S
C481 C476 1.429 . S
C481 C480 1.347 . S
H482 C483 0.951 . S
C483 H482 0.951 . S
C483 C489 1.265 . S
H484 C489 0.950 . S
H485 C493 0.949 . S
H486 C494 0.950 . S
H487 C495 0.951 . S
H488 C496 0.951 . S
C489 C483 1.265 . S
C489 H484 0.950 . S
C489 C490 1.478 . S
C490 C489 1.478 . S
C490 C491 1.397 . S
C490 C507 1.394 . S
C491 C490 1.397 . S
C491 C492 1.438 . S
C491 C496 1.429 . S
C492 C491 1.438 . S
C492 C493 1.428 . S
C492 C505 1.394 . S
C493 H485 0.949 . S
C493 C492 1.428 . S
C493 C494 1.345 . S
C494 H486 0.950 . S
C494 C493 1.345 . S
C494 C495 1.424 . S
C495 H487 0.951 . S
C495 C494 1.424 . S
C495 C496 1.347 . S
C496 H488 0.951 . S
C496 C491 1.429 . S
C496 C495 1.347 . S
H497 C498 0.951 . S
C498 H497 0.951 . S
C498 C504 1.265 . S
H499 C504 0.950 . S
H500 C508 0.949 . S
H501 C509 0.950 . S
H502 C510 0.951 . S
H503 C511 0.951 . S
C504 C498 1.265 . S
C504 H499 0.950 . S
C504 C505 1.478 . S
C505 C492 1.394 . S
C505 C504 1.478 . S
C505 C506 1.397 . S
C506 C505 1.397 . S
C506 C507 1.438 . S
C506 C511 1.429 . S
C507 C490 1.394 . S
C507 C506 1.438 . S
C507 C508 1.428 . S
C508 H500 0.949 . S
C508 C507 1.428 . S
C508 C509 1.345 . S
C509 H501 0.950 . S
C509 C508 1.345 . S
C509 C510 1.424 . S
C510 H502 0.951 . S
C510 C509 1.424 . S
C510 C511 1.347 . S
C511 H503 0.951 . S
C511 C506 1.429 . S
C511 C510 1.347 . S
H512 C513 0.951 . S
C513 H512 0.951 . S
C513 C519 1.265 . S
H514 C519 0.950 . S
H515 C523 0.949 . S
H516 C524 0.950 . S
H517 C525 0.951 . S
H518 C526 0.951 . S
C519 C513 1.265 . S
C519 H514 0.950 . S
C519 C520 1.478 . S
C520 C519 1.478 . S
C520 C521 1.397 . S
C520 C537 1.394 . S
C521 C520 1.397 . S
C521 C522 1.438 . S
C521 C526 1.429 . S
C522 C521 1.438 . S
C522 C523 1.428 . S
C522 C535 1.394 . S
C523 H515 0.949 . S
C523 C522 1.428 . S
C523 C524 1.345 . S
C524 H516 0.950 . S
C524 C523 1.345 . S
C524 C525 1.424 . S
C525 H517 0.951 . S
C525 C524 1.424 . S
C525 C526 1.347 . S
C526 H518 0.951 . S
C526 C521 1.429 . S
C526 C525 1.347 . S
H527 C528 0.951 . S
C528 H527 0.951 . S
C528 C534 1.265 . S
H529 C534 0.950 . S
H530 C538 0.949 . S
H531 C539 0.950 . S
H532 C540 0.951 . S
H533 C541 0.951 . S
C534 C528 1.265 . S
C534 H529 0.950 . S
C534 C535 1.478 . S
C535 C522 1.394 . S
C535 C534 1.478 . S
C535 C536 1.397 . S
C536 C535 1.397 . S
C536 C537 1.438 . S
C536 C541 1.429 . S
C537 C520 1.394 . S
C537 C536 1.438 . S
C537 C538 1.428 . S
C538 H530 0.949 . S
C538 C537 1.428 . S
C538 C539 1.345 . S
C539 H531 0.950 . S
C539 C538 1.345 . S
C539 C540 1.424 . S
C540 H532 0.951 . S
C540 C539 1.424 . S
C540 C541 1.347 . S
C541 H533 0.951 . S
C541 C536 1.429 . S
C541 C540 1.347 . S
H542 C543 0.951 . S
C543 H542 0.951 . S
C543 C549 1.265 . S
H544 C549 0.950 . S
H545 C553 0.949 . S
H546 C554 0.950 . S
H547 C555 0.951 . S
H548 C556 0.951 . S
C549 C543 1.265 . S
C549 H544 0.950 . S
C549 C550 1.478 . S
C550 C549 1.478 . S
C550 C551 1.397 . S
C550 C567 1.394 . S
C551 C550 1.397 . S
C551 C552 1.438 . S
C551 C556 1.429 . S
C552 C551 1.438 . S
C552 C553 1.428 . S
C552 C565 1.394 . S
C553 H545 0.949 . S
C553 C552 1.428 . S
C553 C554 1.345 . S
C554 H546 0.950 . S
C554 C553 1.345 . S
C554 C555 1.424 . S
C555 H547 0.951 . S
C555 C554 1.424 . S
C555 C556 1.347 . S
C556 H548 0.951 . S
C556 C551 1.429 . S
C556 C555 1.347 . S
H557 C558 0.951 . S
C558 H557 0.951 . S
C558 C564 1.265 . S
H559 C564 0.950 . S
H560 C568 0.949 . S
H561 C569 0.950 . S
H562 C570 0.951 . S
H563 C571 0.951 . S
C564 C558 1.265 . S
C564 H559 0.950 . S
C564 C565 1.478 . S
C565 C552 1.394 . S
C565 C564 1.478 . S
C565 C566 1.397 . S
C566 C565 1.397 . S
C566 C567 1.438 . S
C566 C571 1.429 1_455 S
C567 C550 1.394 . S
C567 C566 1.438 . S
C567 C568 1.428 . S
C568 H560 0.949 . S
C568 C567 1.428 . S
C568 C569 1.345 1_455 S
C569 H561 0.950 . S
C569 C568 1.345 1_655 S
C569 C570 1.424 . S
C570 H562 0.951 . S
C570 C569 1.424 . S
C570 C571 1.347 . S
C571 H563 0.951 . S
C571 C566 1.429 1_655 S
C571 C570 1.347 . S
C228 C148 1.644 . S
C213 C133 1.647 . S
C243 C25 1.565 . S
C258 C191 1.575 . S
C273 C61 1.543 . S
C288 C157 1.630 . S
C303 C97 1.574 . S
C318 C182 1.577 . S
C348 C144 1.633 . S
C333 C1 1.613 . S
C378 C186 1.707 . S
C363 C67 1.607 . S
C393 C103 1.593 . S
C408 C152 1.599 . S
C423 C109 1.712 . S
C438 C178 1.718 . S
C468 C207 1.720 . S
C453 C37 1.689 . S
C498 C173 1.612 . S
C483 C73 1.598 . S
C528 C195 1.723 . S
C513 C139 1.712 . S
C543 C31 1.603 . S
C558 C161 1.627 . S
