# Generated by pormake.
# Topology zzz, (3,6)-cn, num edge types: 1
# Building blocks:
#     Node 0, Type 0, BuildingBlock: CUQRIR_clean_linker_1, # of connection points: 3
#     Node 1, Type 0, BuildingBlock: CUQRIR_clean_linker_1, # of connection points: 3
#     Node 2, Type 0, BuildingBlock: CUQRIR_clean_linker_1, # of connection points: 3
#     Node 3, Type 0, BuildingBlock: CUQRIR_clean_linker_1, # of connection points: 3
#     Node 4, Type 0, BuildingBlock: CUQRIR_clean_linker_1, # of connection points: 3
#     Node 5, Type 0, BuildingBlock: CUQRIR_clean_linker_1, # of connection points: 3
#     Node 6, Type 0, BuildingBlock: CUQRIR_clean_linker_1, # of connection points: 3
#     Node 7, Type 0, BuildingBlock: CUQRIR_clean_linker_1, # of connection points: 3
#     Node 8, Type 1, BuildingBlock: LEVNOQ01_clean_sbu_1, # of connection points: 6
#     Node 9, Type 1, BuildingBlock: LEVNOQ01_clean_sbu_1, # of connection points: 6
#     Node 10, Type 1, BuildingBlock: LEVNOQ01_clean_sbu_1, # of connection points: 6
#     Node 11, Type 1, BuildingBlock: LEVNOQ01_clean_sbu_1, # of connection points: 6
#     Edge 12, Type (0, 1), BuildingBlock: TEMPAE_clean_linker_10, # of connection points: 2
#     Edge 13, Type (0, 1), BuildingBlock: TEMPAE_clean_linker_10, # of connection points: 2
#     Edge 14, Type (0, 1), BuildingBlock: TEMPAE_clean_linker_10, # of connection points: 2
#     Edge 15, Type (0, 1), BuildingBlock: TEMPAE_clean_linker_10, # of connection points: 2
#     Edge 16, Type (0, 1), BuildingBlock: TEMPAE_clean_linker_10, # of connection points: 2
#     Edge 17, Type (0, 1), BuildingBlock: TEMPAE_clean_linker_10, # of connection points: 2
#     Edge 18, Type (0, 1), BuildingBlock: TEMPAE_clean_linker_10, # of connection points: 2
#     Edge 19, Type (0, 1), BuildingBlock: TEMPAE_clean_linker_10, # of connection points: 2
#     Edge 20, Type (0, 1), BuildingBlock: TEMPAE_clean_linker_10, # of connection points: 2
#     Edge 21, Type (0, 1), BuildingBlock: TEMPAE_clean_linker_10, # of connection points: 2
#     Edge 22, Type (0, 1), BuildingBlock: TEMPAE_clean_linker_10, # of connection points: 2
#     Edge 23, Type (0, 1), BuildingBlock: TEMPAE_clean_linker_10, # of connection points: 2
#     Edge 24, Type (0, 1), BuildingBlock: TEMPAE_clean_linker_10, # of connection points: 2
#     Edge 25, Type (0, 1), BuildingBlock: TEMPAE_clean_linker_10, # of connection points: 2
#     Edge 26, Type (0, 1), BuildingBlock: TEMPAE_clean_linker_10, # of connection points: 2
#     Edge 27, Type (0, 1), BuildingBlock: TEMPAE_clean_linker_10, # of connection points: 2
#     Edge 28, Type (0, 1), BuildingBlock: TEMPAE_clean_linker_10, # of connection points: 2
#     Edge 29, Type (0, 1), BuildingBlock: TEMPAE_clean_linker_10, # of connection points: 2
#     Edge 30, Type (0, 1), BuildingBlock: TEMPAE_clean_linker_10, # of connection points: 2
#     Edge 31, Type (0, 1), BuildingBlock: TEMPAE_clean_linker_10, # of connection points: 2
#     Edge 32, Type (0, 1), BuildingBlock: TEMPAE_clean_linker_10, # of connection points: 2
#     Edge 33, Type (0, 1), BuildingBlock: TEMPAE_clean_linker_10, # of connection points: 2
#     Edge 34, Type (0, 1), BuildingBlock: TEMPAE_clean_linker_10, # of connection points: 2
#     Edge 35, Type (0, 1), BuildingBlock: TEMPAE_clean_linker_10, # of connection points: 2
# Relax obj value: 0.148
# Max RMSD: 0.185
# Mean RMSD: 0.114
data_MOF--net-zzz--node1-LEVNOQ01_clean_sbu_1--node2-CUQRIR_clean_linker_1--edge1-TEMPAE_clean_linker_10
_symmetry_space_group_name_H-M    P1
_symmetry_Int_Tables_number       1
_symmetry_cell_setting            triclinic
loop_
_symmetry_equiv_pos_as_xyz
'x, y, z'
_cell_length_a     47.34166
_cell_length_b     47.341655
_cell_length_c     14.356985
_cell_angle_alpha  89.981535
_cell_angle_beta   89.793184
_cell_angle_gamma 90.019173
loop_
_atom_site_label
_atom_site_type_symbol
_atom_site_fract_x
_atom_site_fract_y
_atom_site_fract_z
_atom_type_partial_charge
C0 C 0.75176 0.56758 0.21875 0.0
N1 N 0.78002 0.56339 0.20989 0.0
N2 N 0.73925 0.5684 0.13378 0.0
C3 C 0.73618 0.57015 0.30944 0.0
C4 C 0.76075 0.56392 0.07325 0.0
N5 N 0.78537 0.56102 0.11928 0.0
C6 C 0.75734 0.55888 0.97018 0.0
H7 H 0.7296 0.54878 0.33274 0.0
H8 H 0.7169 0.58321 0.30066 0.0
H9 H 0.74993 0.57955 0.36365 0.0
H10 H 0.76668 0.57693 0.93159 0.0
H11 H 0.73491 0.55667 0.94947 0.0
H12 H 0.769 0.53956 0.94911 0.0
C13 C 0.94791 0.74572 0.22887 0.0
N14 N 0.94745 0.77408 0.21619 0.0
N15 N 0.94375 0.73211 0.14682 0.0
C16 C 0.95583 0.73148 0.31828 0.0
C17 C 0.94156 0.75328 0.0839 0.0
N18 N 0.94398 0.7787 0.12578 0.0
C19 C 0.9405 0.74888 0.98013 0.0
H20 H 0.9792 0.73119 0.32409 0.0
H21 H 0.94798 0.70939 0.31966 0.0
H22 H 0.94723 0.7434 0.37859 0.0
H23 H 0.92574 0.73145 0.96305 0.0
H24 H 0.9618 0.74271 0.95478 0.0
H25 H 0.93374 0.76838 0.94355 0.0
C26 C 0.7627 0.94609 0.19369 0.0
N27 N 0.73414 0.9435 0.19436 0.0
N28 N 0.77366 0.93666 0.11166 0.0
C29 C 0.7796 0.96044 0.26831 0.0
C30 C 0.75053 0.92795 0.06422 0.0
N31 N 0.72651 0.93335 0.11196 0.0
C32 C 0.75107 0.91488 0.96858 0.0
H33 H 0.79015 0.97937 0.23869 0.0
H34 H 0.79633 0.94592 0.2932 0.0
H35 H 0.76628 0.96677 0.32842 0.0
H36 H 0.77186 0.90492 0.95429 0.0
H37 H 0.74702 0.9312 0.91487 0.0
H38 H 0.73408 0.89881 0.96297 0.0
C39 C 0.55779 0.76164 0.20305 0.0
N40 N 0.55983 0.73306 0.20605 0.0
N41 N 0.56839 0.77177 0.12142 0.0
C42 C 0.54211 0.7792 0.27328 0.0
C43 C 0.5775 0.74824 0.07703 0.0
N44 N 0.5711 0.72469 0.12574 0.0
C45 C 0.59275 0.74819 0.98472 0.0
H46 H 0.5248 0.79084 0.23822 0.0
H47 H 0.55671 0.79508 0.30326 0.0
H48 H 0.53317 0.76609 0.33027 0.0
H49 H 0.6047 0.76817 0.97528 0.0
H50 H 0.57752 0.74623 0.92667 0.0
H51 H 0.60742 0.72993 0.98087 0.0
C52 C 0.26696 0.44596 0.15546 0.0
N53 N 0.23859 0.44828 0.16792 0.0
N54 N 0.28018 0.4425 0.23837 0.0
C55 C 0.28211 0.44805 0.06377 0.0
C56 C 0.25896 0.44329 0.30159 0.0
N57 N 0.23385 0.44668 0.25915 0.0
C58 C 0.26323 0.44484 0.40527 0.0
H59 H 0.30176 0.43527 0.06522 0.0
H60 H 0.28813 0.47038 0.05127 0.0
H61 H 0.26839 0.4408 0.006 0.0
H62 H 0.26744 0.4671 0.42505 0.0
H63 H 0.28166 0.43191 0.42645 0.0
H64 H 0.2441 0.43752 0.44312 0.0
C65 C 0.05446 0.26688 0.15932 0.0
N66 N 0.05385 0.23831 0.16642 0.0
N67 N 0.05328 0.27887 0.24515 0.0
C68 C 0.0529 0.28298 0.0696 0.0
C69 C 0.05182 0.25666 0.30414 0.0
N70 N 0.05208 0.23217 0.25644 0.0
C71 C 0.04916 0.25898 0.40833 0.0
H72 H 0.06511 0.30292 0.07496 0.0
H73 H 0.03052 0.2885 0.05586 0.0
H74 H 0.061 0.27011 0.0107 0.0
H75 H 0.0265 0.26089 0.42726 0.0
H76 H 0.0603 0.27807 0.43407 0.0
H77 H 0.05785 0.23991 0.44292 0.0
C78 C 0.24738 0.06528 0.16735 0.0
N79 N 0.27562 0.06044 0.17145 0.0
N80 N 0.23596 0.06572 0.25461 0.0
C81 C 0.23078 0.06745 0.07903 0.0
C82 C 0.25816 0.06047 0.31109 0.0
N83 N 0.28199 0.05738 0.26073 0.0
C84 C 0.25602 0.05645 0.41505 0.0
H85 H 0.21026 0.07814 0.09161 0.0
H86 H 0.22667 0.04586 0.0523 0.0
H87 H 0.24303 0.07909 0.02531 0.0
H88 H 0.24 0.04001 0.43099 0.0
H89 H 0.24882 0.07642 0.44777 0.0
H90 H 0.27647 0.05039 0.44665 0.0
C91 C 0.43279 0.25071 0.18061 0.0
N92 N 0.43563 0.27917 0.1894 0.0
N93 N 0.43607 0.23784 0.26445 0.0
C94 C 0.42827 0.2353 0.09071 0.0
C95 C 0.4414 0.25932 0.32379 0.0
N96 N 0.44118 0.28426 0.27852 0.0
C97 C 0.45085 0.25557 0.42307 0.0
H98 H 0.4167 0.24874 0.0403 0.0
H99 H 0.41642 0.21541 0.10321 0.0
H100 H 0.44913 0.22972 0.06039 0.0
H101 H 0.47428 0.25474 0.42465 0.0
H102 H 0.44247 0.23565 0.45316 0.0
H103 H 0.44388 0.27363 0.4666 0.0
O104 O 0.04675 0.95866 0.87273 0.0
Mg105 Mg 0.05567 0.96202 0.72836 0.0
O106 O 0.00649 0.97411 0.81959 0.0
Mg107 Mg 0.00903 0.0042 0.69578 0.0
O108 O 0.05746 0.00104 0.66528 0.0
O109 O 0.0953 0.97365 0.68597 0.0
O110 O 0.01117 0.03386 0.57033 0.0
O111 O 0.01901 0.04383 0.78941 0.0
Mg112 Mg 0.96235 0.04416 0.65678 0.0
O113 O 0.96115 0.00767 0.73292 0.0
O114 O 0.96952 0.04165 0.51141 0.0
O115 O 0.98795 0.07391 0.72909 0.0
O116 O 0.92326 0.03491 0.70989 0.0
C117 C 0.00936 0.94022 0.59768 0.0
C118 C 0.02017 0.96004 0.87956 0.0
C119 C 0.08439 0.99661 0.65346 0.0
C120 C 0.99602 0.04422 0.50605 0.0
C121 C 0.00904 0.06891 0.78123 0.0
C122 C 0.93446 0.01272 0.74665 0.0
O123 O 0.03142 0.93423 0.64397 0.0
O124 O 0.9986 0.96506 0.6002 0.0
O125 O 0.46988 0.01011 0.90884 0.0
Mg126 Mg 0.47656 0.9888 0.78042 0.0
O127 O 0.47114 0.03738 0.7884 0.0
Mg128 Mg 0.51054 0.01609 0.70361 0.0
O129 O 0.51195 0.96623 0.76 0.0
O130 O 0.4707 0.94879 0.81326 0.0
O131 O 0.54985 0.00216 0.61177 0.0
O132 O 0.54028 0.02118 0.82373 0.0
Mg133 Mg 0.55593 0.0667 0.69697 0.0
O134 O 0.51429 0.06221 0.65725 0.0
O135 O 0.57927 0.03913 0.60867 0.0
O136 O 0.56525 0.05973 0.84117 0.0
O137 O 0.53721 0.10289 0.64337 0.0
C138 C 0.45541 0.00431 0.59285 0.0
C139 C 0.4615 0.03229 0.86971 0.0
C140 C 0.49735 0.94575 0.79838 0.0
C141 C 0.57298 0.01398 0.58555 0.0
C142 C 0.55835 0.03527 0.86905 0.0
C143 C 0.51472 0.08818 0.62888 0.0
O144 O 0.44756 0.99652 0.67292 0.0
O145 O 0.48125 0.00973 0.5777 0.0
O146 O 0.5279 0.43938 0.81429 0.0
Mg147 Mg 0.5514 0.46562 0.72361 0.0
O148 O 0.49044 0.46665 0.79736 0.0
Mg149 Mg 0.50405 0.50492 0.70192 0.0
O150 O 0.55167 0.50731 0.75748 0.0
O151 O 0.58897 0.47805 0.77213 0.0
O152 O 0.51432 0.54539 0.60922 0.0
O153 O 0.4992 0.53475 0.82203 0.0
Mg154 Mg 0.45329 0.54313 0.72246 0.0
O155 O 0.45695 0.50463 0.65602 0.0
O156 O 0.47745 0.5726 0.64495 0.0
O157 O 0.45783 0.549 0.86859 0.0
O158 O 0.41624 0.52846 0.66914 0.0
C159 C 0.52886 0.45729 0.54358 0.0
C160 C 0.50214 0.4446 0.83091 0.0
C161 C 0.57786 0.50274 0.78236 0.0
C162 C 0.50128 0.56924 0.60531 0.0
C163 C 0.4843 0.54852 0.87948 0.0
C164 C 0.43024 0.5072 0.63669 0.0
O165 O 0.55255 0.45556 0.58296 0.0
O166 O 0.50966 0.47313 0.57784 0.0
O167 O 0.97477 0.46597 0.86775 0.0
Mg168 Mg 0.96935 0.4575 0.7252 0.0
O169 O 0.97951 0.50974 0.82227 0.0
Mg170 Mg 0.00915 0.5098 0.69368 0.0
O171 O 0.0071 0.46208 0.66008 0.0
O172 O 0.98555 0.42047 0.67198 0.0
O173 O 0.03864 0.5087 0.56818 0.0
O174 O 0.04952 0.50198 0.784 0.0
Mg175 Mg 0.05052 0.56103 0.66047 0.0
O176 O 0.01145 0.55786 0.72072 0.0
O177 O 0.05381 0.54955 0.51764 0.0
O178 O 0.07772 0.53873 0.75322 0.0
O179 O 0.03352 0.59904 0.70206 0.0
C180 C 0.94481 0.50543 0.60124 0.0
C181 C 0.97043 0.49192 0.88156 0.0
C182 C 0.00627 0.43537 0.64045 0.0
C183 C 0.05244 0.52301 0.50884 0.0
C184 C 0.07282 0.51541 0.79443 0.0
C185 C 0.01263 0.58485 0.73615 0.0
O186 O 0.94005 0.48252 0.64528 0.0
O187 O 0.96885 0.51783 0.60412 0.0
C188 C 0.1973 0.08477 0.34988 0.0
C189 C 0.20686 0.06506 0.28411 0.0
C190 C 0.17332 0.07929 0.40507 0.0
C191 C 0.15867 0.05343 0.39408 0.0
C192 C 0.16644 0.03504 0.32032 0.0
C193 C 0.19055 0.04105 0.26634 0.0
C194 C 0.1653 0.09992 0.48071 0.0
C195 C 0.15098 0.00761 0.30445 0.0
C196 C 0.13204 0.01375 0.60626 0.0
C197 C 0.10261 0.0157 0.59702 0.0
C198 C 0.15036 0.02721 0.54346 0.0
C199 C 0.1391 0.04311 0.46873 0.0
C200 C 0.10943 0.04683 0.46255 0.0
C201 C 0.09147 0.03308 0.52693 0.0
C202 C 0.18183 0.02299 0.55422 0.0
C203 C 0.09642 0.06374 0.38484 0.0
H204 H 0.21003 0.10334 0.36338 0.0
H205 H 0.19815 0.02573 0.21607 0.0
H206 H 0.14204 0.10275 0.48349 0.0
H207 H 0.17211 0.0915 0.5492 0.0
H208 H 0.17544 0.12085 0.47015 0.0
H209 H 0.15723 0.99746 0.23775 0.0
H210 H 0.15567 0.9928 0.36229 0.0
H211 H 0.12783 0.01123 0.30401 0.0
H212 H 0.14086 0.00071 0.66099 0.0
H213 H 0.06878 0.03473 0.51903 0.0
H214 H 0.19284 0.04367 0.55497 0.0
H215 H 0.19016 0.01084 0.49398 0.0
H216 H 0.18723 0.01143 0.61912 0.0
H217 H 0.11069 0.08079 0.36028 0.0
H218 H 0.07608 0.07321 0.40711 0.0
H219 H 0.09206 0.04954 0.32516 0.0
C220 C 0.469 0.19927 0.29381 0.0
C221 C 0.44112 0.20857 0.28504 0.0
C222 C 0.47544 0.17472 0.34426 0.0
C223 C 0.45335 0.15889 0.38625 0.0
C224 C 0.42491 0.16703 0.37067 0.0
C225 C 0.41918 0.19191 0.32045 0.0
C226 C 0.50609 0.16745 0.36057 0.0
C227 C 0.40038 0.15137 0.41334 0.0
C228 C 0.48291 0.09148 0.49099 0.0
C229 C 0.491 0.10143 0.57889 0.0
C230 C 0.46783 0.10904 0.42932 0.0
C231 C 0.46079 0.13693 0.45691 0.0
C232 C 0.46573 0.14542 0.55004 0.0
C233 C 0.4812 0.12774 0.60938 0.0
C234 C 0.46183 0.09867 0.33213 0.0
C235 C 0.45703 0.17428 0.58443 0.0
H236 H 0.48588 0.2127 0.26823 0.0
H237 H 0.39765 0.19952 0.31512 0.0
H238 H 0.51132 0.17093 0.43502 0.0
H239 H 0.51001 0.14485 0.34481 0.0
H240 H 0.5206 0.18052 0.31742 0.0
H241 H 0.38365 0.1482 0.36033 0.0
H242 H 0.4065 0.13063 0.44268 0.0
H243 H 0.39105 0.16439 0.46987 0.0
H244 H 0.49049 0.07109 0.46732 0.0
H245 H 0.48726 0.13528 0.67779 0.0
H246 H 0.47903 0.10573 0.28484 0.0
H247 H 0.44169 0.1075 0.3056 0.0
H248 H 0.4608 0.07523 0.32958 0.0
H249 H 0.47033 0.19065 0.55043 0.0
H250 H 0.4593 0.17631 0.66113 0.0
H251 H 0.43473 0.17861 0.56576 0.0
C252 C 0.32677 0.42558 0.28798 0.0
C253 C 0.30927 0.4478 0.26001 0.0
C254 C 0.35197 0.43097 0.33651 0.0
C255 C 0.35912 0.45919 0.3595 0.0
C256 C 0.34261 0.48171 0.32395 0.0
C257 C 0.31795 0.47567 0.27404 0.0
C258 C 0.36964 0.40649 0.36983 0.0
C259 C 0.34913 0.51212 0.34719 0.0
C260 C 0.38846 0.47864 0.59519 0.0
C261 C 0.41568 0.48788 0.57234 0.0
C262 C 0.37069 0.46699 0.5275 0.0
C263 C 0.38017 0.46518 0.43392 0.0
C264 C 0.40835 0.47281 0.41161 0.0
C265 C 0.42599 0.48379 0.4817 0.0
C266 C 0.34089 0.45896 0.55481 0.0
C267 C 0.41898 0.47201 0.3125 0.0
H268 H 0.31971 0.40404 0.27746 0.0
H269 H 0.30398 0.49266 0.25328 0.0
H270 H 0.39233 0.41059 0.35588 0.0
H271 H 0.36706 0.40399 0.44624 0.0
H272 H 0.36354 0.38635 0.33563 0.0
H273 H 0.33686 0.52706 0.30348 0.0
H274 H 0.34379 0.51614 0.42135 0.0
H275 H 0.37194 0.51663 0.33782 0.0
H276 H 0.38052 0.48198 0.66529 0.0
H277 H 0.44692 0.49141 0.46376 0.0
H278 H 0.33571 0.43754 0.52872 0.0
H279 H 0.32574 0.47395 0.52268 0.0
H280 H 0.33766 0.4593 0.6315 0.0
H281 H 0.41181 0.45255 0.27658 0.0
H282 H 0.44238 0.47333 0.30911 0.0
H283 H 0.41026 0.49025 0.27359 0.0
C284 C 0.07132 0.32683 0.27116 0.0
C285 C 0.04872 0.30786 0.27043 0.0
C286 C 0.0691 0.35276 0.31847 0.0
C287 C 0.04382 0.35957 0.36655 0.0
C288 C 0.02026 0.34121 0.35961 0.0
C289 C 0.02303 0.31561 0.31143 0.0
C290 C 0.09432 0.37199 0.32211 0.0
C291 C 0.99279 0.34748 0.40928 0.0
C292 C 0.03921 0.39716 0.59759 0.0
C293 C 0.02541 0.42211 0.57249 0.0
C294 C 0.04837 0.37792 0.52962 0.0
C295 C 0.04276 0.38346 0.43439 0.0
C296 C 0.03143 0.41002 0.4084 0.0
C297 C 0.02302 0.4292 0.47812 0.0
C298 C 0.06114 0.35027 0.56072 0.0
C299 C 0.02512 0.41695 0.30807 0.0
H300 H 0.0912 0.32053 0.23988 0.0
H301 H 0.0057 0.30063 0.3109 0.0
H302 H 0.0881 0.39358 0.30052 0.0
H303 H 0.10216 0.37325 0.39472 0.0
H304 H 0.11179 0.36462 0.27629 0.0
H305 H 0.97576 0.33253 0.38935 0.0
H306 H 0.99598 0.34596 0.48567 0.0
H307 H 0.9857 0.3693 0.39371 0.0
H308 H 0.0408 0.39164 0.67072 0.0
H309 H 0.0119 0.44835 0.45883 0.0
H310 H 0.07951 0.34462 0.51635 0.0
H311 H 0.04522 0.33319 0.55371 0.0
H312 H 0.06811 0.35107 0.6345 0.0
H313 H 0.04175 0.40864 0.26091 0.0
H314 H 0.02312 0.4401 0.29716 0.0
H315 H 0.00484 0.4069 0.28819 0.0
C316 C 0.82623 0.93772 0.10981 0.0
C317 C 0.80025 0.94466 0.06923 0.0
C318 C 0.85192 0.94573 0.06701 0.0
C319 C 0.85147 0.9603 0.98053 0.0
C320 C 0.8252 0.9668 0.93899 0.0
C321 C 0.80012 0.95971 0.98513 0.0
C322 C 0.87926 0.93961 0.1166 0.0
C323 C 0.82343 0.98187 0.84635 0.0
C324 C 0.90516 0.01241 0.88949 0.0
C325 C 0.91796 0.99709 0.8173 0.0
C326 C 0.8856 -0.0003 0.94984 0.0
C327 C 0.87784 0.97118 0.93563 0.0
C328 C 0.89217 0.95504 0.86676 0.0
C329 C 0.91245 0.96816 0.80886 0.0
C330 C 0.87169 0.01744 0.0244 0.0
C331 C 0.88441 0.92462 0.84943 0.0
H332 H 0.82646 0.92618 0.17493 0.0
H333 H 0.78017 0.96616 0.95537 0.0
H334 H 0.89686 0.93589 0.06696 0.0
H335 H 0.88493 0.95815 0.15996 0.0
H336 H 0.87718 0.92105 0.16348 0.0
H337 H 0.80154 0.98239 0.81877 0.0
H338 H 0.83095 0.00394 0.85411 0.0
H339 H 0.83723 0.97136 0.7942 0.0
H340 H 0.9098 0.03474 0.89682 0.0
H341 H 0.92252 0.9563 0.75332 0.0
H342 H 0.87056 0.0056 0.09104 0.0
H343 H 0.84974 0.02253 0.00336 0.0
H344 H 0.88316 0.03758 0.03631 0.0
H345 H 0.88388 0.91272 0.91597 0.0
H346 H 0.89936 0.91415 0.80073 0.0
H347 H 0.86292 0.92359 0.819 0.0
C348 C 0.54624 0.79659 0.99036 0.0
C349 C 0.56091 0.79776 0.07501 0.0
C350 C 0.53963 0.82108 0.94058 0.0
C351 C 0.54654 0.84774 0.97846 0.0
C352 C 0.56093 0.84922 0.06498 0.0
C353 C 0.56817 0.82411 0.11202 0.0
C354 C 0.52425 0.81836 0.84894 0.0
C355 C 0.56749 0.87718 0.11028 0.0
C356 C 0.53873 0.91222 0.81974 0.0
C357 C 0.51091 0.92041 0.84005 0.0
C358 C 0.55088 0.88862 0.86469 0.0
C359 C 0.53517 0.87368 0.93326 0.0
C360 C 0.50742 0.88234 0.95513 0.0
C361 C 0.49563 0.9052 0.90778 0.0
C362 C 0.58028 0.87928 0.83823 0.0
C363 C 0.48993 0.86725 0.02817 0.0
H364 H 0.5396 0.7763 0.96342 0.0
H365 H 0.5793 0.82504 0.17774 0.0
H366 H 0.50214 0.82569 0.85734 0.0
H367 H 0.53435 0.83183 0.79505 0.0
H368 H 0.52387 0.79621 0.82335 0.0
H369 H 0.58543 0.87538 0.15959 0.0
H370 H 0.57244 0.89362 0.05769 0.0
H371 H 0.54868 0.88434 0.1501 0.0
H372 H 0.55078 0.92396 0.7684 0.0
H373 H 0.47429 0.91148 0.92584 0.0
H374 H 0.57975 0.85721 0.81234 0.0
H375 H 0.59406 0.87951 0.90063 0.0
H376 H 0.58978 0.89289 0.78344 0.0
H377 H 0.48577 0.84522 0.00581 0.0
H378 H 0.46931 0.87778 0.04105 0.0
H379 H 0.50164 0.86624 0.09487 0.0
C380 C 0.69622 0.58818 0.06488 0.0
C381 C 0.7098 0.56604 0.11131 0.0
C382 C 0.67065 0.58361 0.01752 0.0
C383 C 0.65897 0.55606 0.01474 0.0
C384 C 0.67179 0.53413 0.06707 0.0
C385 C 0.69694 0.53951 0.11539 0.0
C386 C 0.65725 0.60775 0.96524 0.0
C387 C 0.6606 0.50426 0.06468 0.0
C388 C 0.5875 0.53419 0.91781 0.0
C389 C 0.59528 0.52416 0.8296 0.0
C390 C 0.6076 0.54683 0.97677 0.0
C391 C 0.63612 0.54892 0.94722 0.0
C392 C 0.64356 0.54035 0.85581 0.0
C393 C 0.62302 0.52818 0.79822 0.0
C394 C 0.59886 0.55595 0.07317 0.0
C395 C 0.67379 0.54141 0.8218 0.0
H396 H 0.7066 0.60855 0.06084 0.0
H397 H 0.70797 0.52239 0.14976 0.0
H398 H 0.65945 0.60427 0.88916 0.0
H399 H 0.63436 0.60877 0.98127 0.0
H400 H 0.66706 0.62838 0.98288 0.0
H401 H 0.67126 0.49042 0.11623 0.0
H402 H 0.63757 0.50388 0.07873 0.0
H403 H 0.664 0.49525 0.99415 0.0
H404 H 0.56635 0.5301 0.94361 0.0
H405 H 0.62916 0.5198 0.73081 0.0
H406 H 0.60636 0.57777 0.08659 0.0
H407 H 0.60885 0.54214 0.12598 0.0
H408 H 0.5756 0.55496 0.08297 0.0
H409 H 0.68286 0.56275 0.83252 0.0
H410 H 0.67569 0.53591 0.74682 0.0
H411 H 0.68675 0.5263 0.86251 0.0
C412 C 0.97854 0.69568 0.10983 0.0
C413 C 0.95031 0.70337 0.12299 0.0
C414 C 0.98568 0.67165 0.05758 0.0
C415 C 0.96394 0.65489 0.01816 0.0
C416 C 0.93537 0.66102 0.03981 0.0
C417 C 0.92889 0.68545 0.09129 0.0
C418 C 0.01644 0.66604 0.03656 0.0
C419 C 0.91155 0.64347 0.00112 0.0
C420 C 0.98471 0.62693 0.78055 0.0
C421 C 0.99329 0.59936 0.80121 0.0
C422 C 0.97331 0.64454 0.84959 0.0
C423 C 0.97105 0.63452 0.94233 0.0
C424 C 0.97821 0.60612 0.9626 0.0
C425 C 0.98893 0.58866 0.89124 0.0
C426 C 0.9657 0.67458 0.82451 0.0
C427 C 0.97662 0.595 0.06092 0.0
H428 H 0.99496 0.70993 0.13333 0.0
H429 H 0.90706 0.69175 0.10079 0.0
H430 H 0.02131 0.6432 0.04245 0.0
H431 H 0.02117 0.67257 0.9639 0.0
H432 H 0.03064 0.67794 0.08394 0.0
H433 H 0.89186 0.64618 0.04254 0.0
H434 H 0.90722 0.6502 0.92852 0.0
H435 H 0.91718 0.62074 -0.0004 0.0
H436 H 0.98832 0.63525 0.71111 0.0
H437 H 0.99609 0.56749 0.90771 0.0
H438 H 0.98056 0.68937 0.85891 0.0
H439 H 0.94414 0.6797 0.84988 0.0
H440 H 0.96656 0.67836 0.74818 0.0
H441 H 0.99204 0.60635 0.10522 0.0
H442 H 0.98133 0.57208 0.06482 0.0
H443 H 0.95538 0.59904 0.09086 0.0
C444 C 0.01953 0.19974 0.33471 0.0
C445 C 0.04569 0.2047 0.29253 0.0
C446 C 0.01185 0.17251 0.36284 0.0
C447 C 0.03083 0.14987 0.34736 0.0
C448 C 0.05725 0.15489 0.30383 0.0
C449 C 0.06439 0.18241 0.27716 0.0
C450 C 0.98357 0.16799 0.40945 0.0
C451 C 0.07837 0.13156 0.28719 0.0
C452 C 0.02534 0.08716 0.5075 0.0
C453 C 0.00756 0.06898 0.45742 0.0
C454 C 0.0331 0.11345 0.47197 0.0
C455 C 0.02371 0.12139 0.38249 0.0
C456 C 0.00655 0.10273 0.32982 0.0
C457 C 0.99818 0.07685 0.36897 0.0
C458 C 0.05006 0.1333 0.5325 0.0
C459 C 0.99574 0.11024 0.23424 0.0
H460 H 0.00493 0.21715 0.34381 0.0
H461 H 0.08451 0.1866 0.24361 0.0
H462 H 0.97045 0.15368 0.36635 0.0
H463 H 0.9865 0.15772 0.47825 0.0
H464 H 0.97186 0.18809 0.41978 0.0
H465 H 0.09286 0.13676 0.22859 0.0
H466 H 0.09141 0.12887 0.35055 0.0
H467 H 0.0678 0.11116 0.27203 0.0
H468 H 0.03203 0.08153 0.57723 0.0
H469 H 0.984 0.06303 0.33114 0.0
H470 H 0.0379 0.153 0.54478 0.0
H471 H 0.06999 0.13928 0.49686 0.0
H472 H 0.05541 0.12386 0.60107 0.0
H473 H 0.97328 0.11676 0.23995 0.0
H474 H 0.99653 0.0915 0.18776 0.0
H475 H 0.00775 0.12767 0.20129 0.0
C476 C 0.33155 0.06788 0.29187 0.0
C477 C 0.30903 0.04893 0.29464 0.0
C478 C 0.35811 0.05983 0.32465 0.0
C479 C 0.36208 0.03201 0.35818 0.0
C480 C 0.33956 0.01238 0.35652 0.0
C481 C 0.31309 0.02122 0.32513 0.0
C482 C 0.38102 0.08182 0.33249 0.0
C483 C 0.34284 0.9828 0.39421 0.0
C484 C 0.43461 0.00619 0.43231 0.0
C485 C 0.43345 0.01269 0.52717 0.0
C486 C 0.41149 0.01257 0.37471 0.0
C487 C 0.38728 0.02567 0.41413 0.0
C488 C 0.38682 0.03321 0.50915 0.0
C489 C 0.41008 0.02697 0.56361 0.0
C490 C 0.41291 0.00535 0.27255 0.0
C491 C 0.36137 0.0467 0.55543 0.0
H492 H 0.32801 0.08919 0.26697 0.0
H493 H 0.2954 0.00668 0.32487 0.0
H494 H 0.38194 0.08928 0.40552 0.0
H495 H 0.40196 0.0727 0.31515 0.0
H496 H 0.37693 0.10029 0.28683 0.0
H497 H 0.32453 0.96916 0.3765 0.0
H498 H 0.36238 0.97289 0.36664 0.0
H499 H 0.34474 0.98367 0.4712 0.0
H500 H 0.45305 0.99559 0.40416 0.0
H501 H 0.40986 0.03325 0.6357 0.0
H502 H 0.4144 0.02514 0.23154 0.0
H503 H 0.39345 0.99419 0.25043 0.0
H504 H 0.4315 0.99198 0.25551 0.0
H505 H 0.35165 0.06321 0.51136 0.0
H506 H 0.36686 0.05653 0.62322 0.0
H507 H 0.34512 0.03022 0.56817 0.0
C508 C 0.48187 0.3159 0.2809 0.0
C509 C 0.45462 0.3094 0.31162 0.0
C510 C 0.49564 0.34021 0.3122 0.0
C511 C 0.48151 0.35845 0.37513 0.0
C512 C 0.45415 0.35139 0.40842 0.0
C513 C 0.44087 0.32696 0.3752 0.0
C514 C 0.52561 0.34556 0.28032 0.0
C515 C 0.43943 0.36892 0.48184 0.0
C516 C 0.52876 0.40605 0.51654 0.0
C517 C 0.5202 0.43297 0.48691 0.0
C518 C 0.51622 0.38164 0.48147 0.0
C519 C 0.49585 0.38408 0.41018 0.0
C520 C 0.48864 0.41114 0.37481 0.0
C521 C 0.50015 0.43543 0.41618 0.0
C522 C 0.52446 0.35367 0.52452 0.0
C523 C 0.4681 0.41471 0.29566 0.0
H524 H 0.49241 0.30167 0.23292 0.0
H525 H 0.41988 0.32131 0.39918 0.0
H526 H 0.5301 0.36845 0.2729 0.0
H527 H 0.54038 0.3368 0.33264 0.0
H528 H 0.53018 0.33485 0.21311 0.0
H529 H 0.42013 0.35839 0.5092 0.0
H530 H 0.45393 0.37312 0.54085 0.0
H531 H 0.43321 0.38959 0.45218 0.0
H532 H 0.54388 0.40397 0.57276 0.0
H533 H 0.49327 0.45622 0.39408 0.0
H534 H 0.5454 0.34723 0.49676 0.0
H535 H 0.5091 0.33649 0.511 0.0
H536 H 0.52679 0.3559 0.60116 0.0
H537 H 0.47317 0.43384 0.25402 0.0
H538 H 0.44653 0.41723 0.32449 0.0
H539 H 0.46798 0.39619 0.24864 0.0
C540 C 0.20421 0.48513 0.31777 0.0
C541 C 0.20853 0.45625 0.30407 0.0
C542 C 0.17856 0.4951 0.35389 0.0
C543 C 0.15638 0.47571 0.37164 0.0
C544 C 0.1611 0.44641 0.35951 0.0
C545 C 0.18756 0.43697 0.32876 0.0
C546 C 0.17524 0.5263 0.37233 0.0
C547 C 0.13813 0.42504 0.37658 0.0
C548 C 0.09559 0.49525 0.53038 0.0
C549 C 0.07706 0.50869 0.46865 0.0
C550 C 0.1215 0.48456 0.50014 0.0
C551 C 0.12848 0.48606 0.40437 0.0
C552 C 0.10902 0.49827 0.34074 0.0
C553 C 0.0838 0.51027 0.37423 0.0
C554 C 0.14117 0.47238 0.57254 0.0
C555 C 0.11491 0.49986 0.23774 0.0
H556 H 0.22093 0.49979 0.29959 0.0
H557 H 0.19148 0.41461 0.31898 0.0
H558 H 0.16259 0.53596 0.31586 0.0
H559 H 0.16398 0.52999 0.43921 0.0
H560 H 0.19599 0.53725 0.37483 0.0
H561 H 0.13531 0.42184 0.45251 0.0
H562 H 0.11775 0.43259 0.34778 0.0
H563 H 0.14347 0.40435 0.34477 0.0
H564 H 0.09041 0.49426 0.60399 0.0
H565 H 0.06947 0.52083 0.32685 0.0
H566 H 0.16352 0.47161 0.54937 0.0
H567 H 0.13418 0.45063 0.58992 0.0
H568 H 0.14007 0.48488 0.63796 0.0
H569 H 0.12302 0.52127 0.2219 0.0
H570 H 0.09517 0.49694 0.19725 0.0
H571 H 0.13063 0.48404 0.21405 0.0
C572 C 0.97632 0.80659 0.02944 0.0
C573 C 0.95127 0.80479 0.08103 0.0
C574 C 0.98616 0.83264 0.99678 0.0
C575 C 0.97074 0.85743 0.01795 0.0
C576 C 0.94505 0.85558 0.0685 0.0
C577 C 0.93557 0.82913 0.09926 0.0
C578 C 0.01334 0.83366 0.94149 0.0
C579 C 0.92756 0.88138 0.09023 0.0
C580 C 0.01374 0.92513 0.00909 0.0
C581 C 0.00507 0.93641 0.92394 0.0
C582 C 0.00174 0.89997 0.04284 0.0
C583 C 0.98169 0.88528 0.98774 0.0
C584 C 0.97298 0.89662 0.9016 0.0
C585 C 0.98429 0.92233 0.8718 0.0
C586 C 0.0116 0.88858 0.13525 0.0
C587 C 0.95313 0.88076 0.83805 0.0
H588 H 0.98866 0.78764 0.01771 0.0
H589 H 0.91628 0.82742 0.13976 0.0
H590 H 0.01018 0.84546 0.87555 0.0
H591 H 0.02972 0.845 0.98193 0.0
H592 H 0.02141 0.81223 0.92451 0.0
H593 H 0.91227 0.87738 0.14765 0.0
H594 H 0.94108 0.89961 0.10942 0.0
H595 H 0.91544 0.88737 0.02736 0.0
H596 H 0.03015 0.9357 0.04839 0.0
H597 H 0.97813 0.93048 0.80423 0.0
H598 H 0.02921 0.87355 0.12333 0.0
H599 H 0.99448 0.87709 0.17206 0.0
H600 H 0.01945 0.90576 0.18107 0.0
H601 H 0.96271 0.86023 0.81805 0.0
H602 H 0.94834 0.89269 0.77336 0.0
H603 H 0.93303 0.87605 0.87479 0.0
C604 C 0.70277 0.96525 0.00362 0.0
C605 C 0.70113 0.94278 0.06692 0.0
C606 C 0.67844 0.97865 0.97137 0.0
C607 C 0.65191 0.9709 0.00936 0.0
C608 C 0.65004 0.94724 0.07004 0.0
C609 C 0.67474 0.93298 0.09579 0.0
C610 C 0.68163 0.00126 0.89777 0.0
C611 C 0.62244 0.93645 0.10899 0.0
C612 C 0.59813 0.03028 0.98397 0.0
C613 C 0.57925 0.01823 0.92069 0.0
C614 C 0.62132 0.0147 0.01729 0.0
C615 C 0.62631 0.98697 0.98263 0.0
C616 C 0.60763 0.97514 0.91705 0.0
C617 C 0.58378 0.9903 0.8905 0.0
C618 C 0.64117 0.02894 0.08468 0.0
C619 C 0.6135 0.94718 0.87005 0.0
H620 H 0.72327 0.97293 0.98132 0.0
H621 H 0.67347 0.91486 0.14162 0.0
H622 H 0.66245 0.0034 0.85412 0.0
H623 H 0.68593 0.02181 0.93192 0.0
H624 H 0.69985 0.99659 0.85125 0.0
H625 H 0.60456 0.95126 0.09958 0.0
H626 H 0.61733 0.91617 0.07437 0.0
H627 H 0.62466 0.9317 0.18437 0.0
H628 H 0.59522 0.05204 0.00555 0.0
H629 H 0.56989 0.98083 0.83935 0.0
H630 H 0.65568 0.04296 0.04525 0.0
H631 H 0.65402 0.01369 0.12506 0.0
H632 H 0.62923 0.04257 0.13392 0.0
H633 H 0.6363 0.94471 0.85368 0.0
H634 H 0.60147 0.94486 0.8042 0.0
H635 H 0.60716 0.92983 0.91732 0.0
C636 C 0.57074 0.67276 0.12511 0.0
C637 C 0.56381 0.69832 0.08247 0.0
C638 C 0.55791 0.64758 0.09638 0.0
C639 C 0.53884 0.64795 0.02069 0.0
C640 C 0.53349 0.67341 0.97282 0.0
C641 C 0.54539 0.69842 0.00606 0.0
C642 C 0.56311 0.62123 0.15218 0.0
C643 C 0.51426 0.67449 0.88915 0.0
C644 C 0.52681 0.57787 0.90447 0.0
C645 C 0.49879 0.57147 0.92988 0.0
C646 C 0.53974 0.60283 0.93261 0.0
C647 C 0.52477 0.62162 0.99071 0.0
C648 C 0.49669 0.61521 0.01865 0.0
C649 C 0.48398 0.59013 0.98762 0.0
C650 C 0.56902 0.60971 0.89667 0.0
C651 C 0.47907 0.63502 0.07696 0.0
H652 H 0.58463 0.67281 0.18495 0.0
H653 H 0.53914 0.71829 0.97503 0.0
H654 H 0.56078 0.6018 0.11049 0.0
H655 H 0.58452 0.62144 0.18348 0.0
H656 H 0.54707 0.62026 0.20843 0.0
H657 H 0.51566 0.69506 0.8521 0.0
H658 H 0.51961 0.65734 0.83937 0.0
H659 H 0.49208 0.67129 0.91201 0.0
H660 H 0.53826 0.56427 0.85696 0.0
H661 H 0.46214 0.58577 0.00559 0.0
H662 H 0.58391 0.61126 0.9558 0.0
H663 H 0.56888 0.63052 0.86103 0.0
H664 H 0.57712 0.59359 0.84712 0.0
H665 H 0.47033 0.62346 0.13791 0.0
H666 H 0.46078 0.6424 0.03529 0.0
H667 H 0.49083 0.65377 0.10166 0.0
C668 C 0.82069 0.52345 0.11056 0.0
C669 C 0.81096 0.54978 0.08064 0.0
C670 C 0.84623 0.51256 0.07735 0.0
C671 C 0.86214 0.5285 0.01239 0.0
C672 C 0.8514 0.55429 0.97732 0.0
C673 C 0.82594 0.56487 0.01302 0.0
C674 C 0.85573 0.48381 0.11025 0.0
C675 C 0.86654 0.57036 0.9012 0.0
C676 C 0.9415 0.51969 0.9942 0.0
C677 C 0.94348 0.49913 0.92503 0.0
C678 C 0.91494 0.52893 0.02523 0.0
C679 C 0.89017 0.51831 0.98208 0.0
C680 C 0.8923 0.49772 0.91117 0.0
C681 C 0.91895 0.48793 0.8852 0.0
C682 C 0.91349 0.55042 0.10269 0.0
C683 C 0.8669 0.486 0.86067 0.0
H684 H 0.80825 0.5115 0.16037 0.0
H685 H 0.81779 0.58496 0.989 0.0
H686 H 0.85178 0.46811 0.05453 0.0
H687 H 0.87871 0.48363 0.1252 0.0
H688 H 0.844 0.47686 0.17335 0.0
H689 H 0.85367 0.58813 0.87389 0.0
H690 H 0.88668 0.57901 0.92815 0.0
H691 H 0.87182 0.55594 0.84266 0.0
H692 H 0.96063 0.52845 0.02357 0.0
H693 H 0.92064 0.47238 0.82997 0.0
H694 H 0.89532 0.54627 0.14955 0.0
H695 H 0.91054 0.57174 0.07238 0.0
H696 H 0.93313 0.55059 0.14476 0.0
H697 H 0.86206 0.46465 0.88841 0.0
H698 H 0.87168 0.48348 0.78528 0.0
H699 H 0.84781 0.49939 0.86779 0.0
C700 C 0.02313 0.20479 0.08582 0.0
C701 C 0.04955 0.21776 0.09383 0.0
C702 C 0.01965 0.1801 0.03307 0.0
C703 C 0.04311 0.16842 0.98495 0.0
C704 C 0.06974 0.18202 0.99058 0.0
C705 C 0.07268 0.20647 0.0457 0.0
C706 C 0.99096 0.16617 0.03086 0.0
C707 C 0.0953 0.17017 0.94136 0.0
C708 C 0.03461 0.09078 0.91744 0.0
C709 C 0.02193 0.09337 0.82984 0.0
C710 C 0.04299 0.11497 0.96765 0.0
C711 C 0.0392 0.14225 0.92808 0.0
C712 C 0.02856 0.1446 0.83653 0.0
C713 C 0.01979 0.12027 0.78919 0.0
C714 C 0.0554 0.11111 0.06337 0.0
C715 C 0.02545 0.17297 0.78959 0.0
H716 H 0.00551 0.21328 0.12524 0.0
H717 H 0.09326 0.21611 0.05467 0.0
H718 H 0.98139 0.16926 0.9612 0.0
H719 H 0.99284 0.14309 0.04262 0.0
H720 H 0.97638 0.17506 0.08413 0.0
H721 H 0.11357 0.18489 0.94374 0.0
H722 H 0.10153 0.15003 0.97499 0.0
H723 H 0.0903 0.16547 0.8675 0.0
H724 H 0.03676 0.07003 0.94859 0.0
H725 H 0.0107 0.12239 0.7203 0.0
H726 H 0.05031 0.12906 0.10987 0.0
H727 H 0.07873 0.10978 0.05713 0.0
H728 H 0.04784 0.09127 0.09647 0.0
H729 H 0.00846 0.18522 0.82438 0.0
H730 H 0.02015 0.17093 0.71457 0.0
H731 H 0.0453 0.1853 0.79605 0.0
C732 C 0.30587 0.08019 0.04717 0.0
C733 C 0.29602 0.05676 0.09727 0.0
C734 C 0.3316 0.07898 0.99733 0.0
C735 C 0.34851 0.05429 0.00223 0.0
C736 C 0.3379 0.03023 0.04966 0.0
C737 C 0.3113 0.03146 0.09287 0.0
C738 C 0.34129 0.10457 0.94343 0.0
C739 C 0.35537 0.00371 0.06015 0.0
C740 C 0.40999 0.03522 0.84391 0.0
C741 C 0.43341 0.04318 0.89709 0.0
C742 C 0.38225 0.04054 0.87387 0.0
C743 C 0.37767 0.05349 0.96127 0.0
C744 C 0.40137 0.06216 0.01468 0.0
C745 C 0.429 0.05679 0.98221 0.0
C746 C 0.35788 0.0312 0.81368 0.0
C747 C 0.39748 0.07516 0.10924 0.0
H748 H 0.29426 0.09986 0.05139 0.0
H749 H 0.30354 0.01335 0.13134 0.0
H750 H 0.35848 0.11531 0.98186 0.0
H751 H 0.34983 0.09823 0.87442 0.0
H752 H 0.32385 0.11993 0.93288 0.0
H753 H 0.3454 0.98818 0.10811 0.0
H754 H 0.35835 0.99352 0.9913 0.0
H755 H 0.37664 0.00901 0.08727 0.0
H756 H 0.41336 0.02292 0.78184 0.0
H757 H 0.44706 0.06218 0.02488 0.0
H758 H 0.34515 0.04991 0.79362 0.0
H759 H 0.34371 0.01675 0.8527 0.0
H760 H 0.36508 0.0202 0.74956 0.0
H761 H 0.38513 0.09497 0.10371 0.0
H762 H 0.41789 0.07983 0.144 0.0
H763 H 0.38518 0.06034 0.15307 0.0
C764 C 0.45367 0.29921 0.04106 0.0
C765 C 0.43573 0.30098 0.1186 0.0
C766 C 0.4592 0.32315 0.98556 0.0
C767 C 0.44748 0.34971 0.01048 0.0
C768 C 0.42795 0.35112 0.08535 0.0
C769 C 0.42182 0.32658 0.13667 0.0
C770 C 0.47926 0.32041 0.90419 0.0
C771 C 0.41504 0.3788 0.11585 0.0
C772 C 0.49809 0.41028 0.96087 0.0
C773 C 0.48564 0.42354 0.88437 0.0
C774 C 0.48512 0.38719 0.00463 0.0
C775 C 0.45943 0.37623 0.9692 0.0
C776 C 0.44632 0.39003 0.893 0.0
C777 C 0.45936 0.41392 0.85252 0.0
C778 C 0.50003 0.37387 0.08601 0.0
C779 C 0.41919 0.37904 0.85187 0.0
H780 H 0.46481 0.27968 0.02734 0.0
H781 H 0.4077 0.32781 0.19612 0.0
H782 H 0.47155 0.33282 0.84377 0.0
H783 H 0.50024 0.3289 0.92393 0.0
H784 H 0.48198 0.29804 0.88255 0.0
H785 H 0.40417 0.37705 0.18435 0.0
H786 H 0.4314 0.39552 0.12086 0.0
H787 H 0.39936 0.38574 0.0635 0.0
H788 H 0.51843 0.41765 0.98557 0.0
H789 H 0.44983 0.42401 0.79255 0.0
H790 H 0.485 0.3638 0.13503 0.0
H791 H 0.51269 0.38974 0.12463 0.0
H792 H 0.51467 0.35738 0.05981 0.0
H793 H 0.41483 0.38847 0.78251 0.0
H794 H 0.40135 0.38433 0.89892 0.0
H795 H 0.41988 0.35571 0.84466 0.0
C796 C 0.19102 0.4401 0.10488 0.0
C797 C 0.21688 0.45438 0.09994 0.0
C798 C 0.16724 0.44972 0.05645 0.0
C799 C 0.17015 0.47223 0.99185 0.0
C800 C 0.19722 0.48472 0.97869 0.0
C801 C 0.21987 0.4765 0.03588 0.0
C802 C 0.13915 0.43597 0.07806 0.0
C803 C 0.20271 0.50723 0.9064 0.0
C804 C 0.10683 0.47667 0.82819 0.0
C805 C 0.0958 0.50322 0.85042 0.0
C806 C 0.13162 0.46674 0.87086 0.0
C807 C 0.14481 0.48318 0.9413 0.0
C808 C 0.13316 0.50991 0.9649 0.0
C809 C 0.10921 0.51978 0.91765 0.0
C810 C 0.14363 0.43895 0.8378 0.0
C811 C 0.14613 0.52893 0.03754 0.0
H812 H 0.18902 0.42203 0.15049 0.0
H813 H 0.23967 0.48787 0.0316 0.0
H814 H 0.12093 0.44997 0.06315 0.0
H815 H 0.13707 0.41641 0.0362 0.0
H816 H 0.138 0.42966 0.15256 0.0
H817 H 0.22296 0.50287 0.86985 0.0
H818 H 0.18574 0.50878 0.85359 0.0
H819 H 0.20514 0.52795 0.94152 0.0
H820 H 0.09691 0.46424 0.77389 0.0
H821 H 0.10096 0.54064 0.93317 0.0
H822 H 0.13185 0.42141 0.87136 0.0
H823 H 0.16643 0.43662 0.85367 0.0
H824 H 0.14078 0.4366 0.76145 0.0
H825 H 0.12971 0.54206 0.07201 0.0
H826 H 0.16096 0.54374 0.00287 0.0
H827 H 0.15785 0.517 0.09152 0.0
C828 C 0.93369 0.80928 0.3337 0.0
C829 C 0.95485 0.7958 0.28206 0.0
C830 C 0.93963 0.83368 0.38617 0.0
C831 C 0.96739 0.8449 0.38625 0.0
C832 C 0.98881 0.83124 0.33355 0.0
C833 C 0.98227 0.80678 0.28254 0.0
C834 C 0.91612 0.84784 0.4397 0.0
C835 C 0.01869 0.84238 0.3306 0.0
C836 C 0.98178 0.92122 0.46094 0.0
C837 C 0.99553 0.91689 0.54602 0.0
C838 C 0.97145 0.89815 0.40893 0.0
C839 C 0.97454 0.8702 0.44401 0.0
C840 C 0.98648 0.86617 0.53322 0.0
C841 C 0.99712 0.88941 0.58228 0.0
C842 C 0.95756 0.90426 0.31671 0.0
C843 C 0.98846 0.83717 0.57656 0.0
H844 H 0.91231 0.80115 0.3304 0.0
H845 H 0.99834 0.79662 0.2403 0.0
H846 H 0.92241 0.85095 0.5134 0.0
H847 H 0.91204 0.86902 0.40947 0.0
H848 H 0.8962 0.83544 0.43786 0.0
H849 H 0.03065 0.83393 0.26999 0.0
H850 H 0.01901 0.86579 0.32739 0.0
H851 H 0.02983 0.83594 0.39503 0.0
H852 H 0.98 0.94246 0.43326 0.0
H853 H 0.00691 0.88602 0.64954 0.0
H854 H 0.93716 0.91517 0.32952 0.0
H855 H 0.95336 0.88505 0.27506 0.0
H856 H 0.97092 0.91889 0.27507 0.0
H857 H 0.96784 0.82612 0.57171 0.0
H858 H 0.9948 0.83809 0.65095 0.0
H859 H 0.00424 0.82434 0.5381 0.0
C860 C 0.70949 0.98112 0.28262 0.0
C861 C 0.71413 0.95243 0.26482 0.0
C862 C 0.68656 0.98996 0.33839 0.0
C863 C 0.66723 0.96968 0.37421 0.0
C864 C 0.67201 0.94067 0.3561 0.0
C865 C 0.69587 0.93242 0.30426 0.0
C866 C 0.68233 0.02107 0.35575 0.0
C867 C 0.65116 0.91841 0.38706 0.0
C868 C 0.61859 0.98838 0.57783 0.0
C869 C 0.59443 0.99819 0.53216 0.0
C870 C 0.64226 0.9788 0.52747 0.0
C871 C 0.64171 0.97884 0.42859 0.0
C872 C 0.61685 0.98817 0.38247 0.0
C873 C 0.5936 0.99781 0.43492 0.0
C874 C 0.66807 0.96946 0.58081 0.0
C875 C 0.61436 0.98917 0.27792 0.0
H876 H 0.72327 0.99659 0.25034 0.0
H877 H 0.69938 0.91027 0.28904 0.0
H878 H 0.66369 0.02852 0.31602 0.0
H879 H 0.67809 0.02499 0.43076 0.0
H880 H 0.70099 0.03373 0.33398 0.0
H881 H 0.65586 0.8974 0.35624 0.0
H882 H 0.65158 0.91642 0.46395 0.0
H883 H 0.62939 0.92462 0.36698 0.0
H884 H 0.61935 0.98924 0.65331 0.0
H885 H 0.57517 0.00611 0.39953 0.0
H886 H 0.66783 0.97746 0.65359 0.0
H887 H 0.68778 0.97676 0.54635 0.0
H888 H 0.6686 0.94607 0.58368 0.0
H889 H 0.60996 0.0112 0.25596 0.0
H890 H 0.59597 0.97627 0.25591 0.0
H891 H 0.63343 0.98159 0.24084 0.0
C892 C 0.56839 0.70855 0.35453 0.0
C893 C 0.5506 0.71408 0.27898 0.0
C894 C 0.56282 0.68607 0.41639 0.0
C895 C 0.53921 0.66824 0.40089 0.0
C896 C 0.52051 0.67464 0.32662 0.0
C897 C 0.52638 0.69754 0.26699 0.0
C898 C 0.58266 0.68092 0.49655 0.0
C899 C 0.49501 0.65651 0.30677 0.0
C900 C 0.53639 0.59253 0.49586 0.0
C901 C 0.51375 0.5945 0.55851 0.0
C902 C 0.54648 0.61665 0.44836 0.0
C903 C 0.53332 0.64335 0.46294 0.0
C904 C 0.51247 0.64576 0.53322 0.0
C905 C 0.50268 0.62142 0.57872 0.0
C906 C 0.57171 0.61293 0.38547 0.0
C907 C 0.50011 0.67409 0.55965 0.0
H908 H 0.58729 0.72121 0.36287 0.0
H909 H 0.5129 0.70165 0.20765 0.0
H910 H 0.57063 0.67667 0.56158 0.0
H911 H 0.59579 0.66205 0.48151 0.0
H912 H 0.59698 0.69916 0.50838 0.0
H913 H 0.48033 0.66689 0.25735 0.0
H914 H 0.50212 0.6361 0.27687 0.0
H915 H 0.48301 0.65163 0.3711 0.0
H916 H 0.546 0.57213 0.48265 0.0
H917 H 0.48606 0.62361 0.63036 0.0
H918 H 0.57701 0.6321 0.34487 0.0
H919 H 0.56817 0.59487 0.33759 0.0
H920 H 0.59032 0.60739 0.42863 0.0
H921 H 0.51706 0.69017 0.5659 0.0
H922 H 0.48829 0.67313 0.62658 0.0
H923 H 0.4854 0.68132 0.50463 0.0
C924 C 0.79846 0.53987 0.35151 0.0
C925 C 0.80124 0.56036 0.28166 0.0
C926 C 0.8213 0.53317 0.41028 0.0
C927 C 0.8477 0.5469 0.39773 0.0
C928 C 0.8502 0.56837 0.32937 0.0
C929 C 0.82687 0.57502 0.27319 0.0
C930 C 0.81753 0.51041 0.48286 0.0
C931 C 0.8778 0.58363 0.31296 0.0
C932 C 0.90563 0.54023 0.58168 0.0
C933 C 0.92156 0.51767 0.54639 0.0
C934 C 0.88143 0.54997 0.53457 0.0
C935 C 0.87329 0.53706 0.44967 0.0
C936 C 0.88981 0.51456 0.41351 0.0
C937 C 0.91349 0.50492 0.4629 0.0
C938 C 0.86422 0.57358 0.57668 0.0
C939 C 0.88223 0.50027 0.32328 0.0
H940 H 0.77892 0.52807 0.35694 0.0
H941 H 0.82898 0.59085 0.21907 0.0
H942 H 0.82966 0.49137 0.46207 0.0
H943 H 0.82592 0.51758 0.55097 0.0
H944 H 0.79502 0.50434 0.49186 0.0
H945 H 0.8774 0.59666 0.2486 0.0
H946 H 0.88224 0.59767 0.37293 0.0
H947 H 0.89553 0.56839 0.30763 0.0
H948 H 0.91165 0.54967 0.6475 0.0
H949 H 0.92564 0.4872 0.43657 0.0
H950 H 0.84212 0.56646 0.58761 0.0
H951 H 0.86359 0.59179 0.52813 0.0
H952 H 0.87289 0.58083 0.64441 0.0
H953 H 0.8628 0.48753 0.33345 0.0
H954 H 0.89929 0.4861 0.29782 0.0
H955 H 0.87772 0.51624 0.26894 0.0
loop_
_geom_bond_atom_site_label_1
_geom_bond_atom_site_label_2
_geom_bond_distance
_geom_bond_site_symmetry_2
_ccdc_geom_bond_type
C0 N1 1.317 . S
C0 N2 1.348 . S
C0 C3 1.485 . S
N1 C0 1.317 . S
N1 N5 1.370 . S
N2 C0 1.348 . S
N2 C4 1.346 . S
C3 C0 1.485 . S
C3 H7 0.960 . S
C3 H8 0.961 . S
C3 H9 0.960 . S
C4 N2 1.346 . S
C4 N5 1.307 . S
C4 C6 1.486 1_554 S
N5 N1 1.370 . S
N5 C4 1.307 . S
C6 C4 1.486 1_556 S
C6 H10 0.960 . S
C6 H11 0.960 . S
C6 H12 0.959 . S
H7 C3 0.960 . S
H8 C3 0.961 . S
H9 C3 0.960 . S
H10 C6 0.960 . S
H11 C6 0.960 . S
H12 C6 0.959 . S
C13 N14 1.317 . S
C13 N15 1.348 . S
C13 C16 1.485 . S
N14 C13 1.317 . S
N14 N18 1.370 . S
N15 C13 1.348 . S
N15 C17 1.346 . S
C16 C13 1.485 . S
C16 H20 0.960 . S
C16 H21 0.961 . S
C16 H22 0.960 . S
C17 N15 1.346 . S
C17 N18 1.307 . S
C17 C19 1.486 1_554 S
N18 N14 1.370 . S
N18 C17 1.307 . S
C19 C17 1.486 1_556 S
C19 H23 0.960 . S
C19 H24 0.960 . S
C19 H25 0.959 . S
H20 C16 0.960 . S
H21 C16 0.961 . S
H22 C16 0.960 . S
H23 C19 0.960 . S
H24 C19 0.960 . S
H25 C19 0.959 . S
C26 N27 1.317 . S
C26 N28 1.348 . S
C26 C29 1.485 . S
N27 C26 1.317 . S
N27 N31 1.370 . S
N28 C26 1.348 . S
N28 C30 1.346 . S
C29 C26 1.485 . S
C29 H33 0.960 . S
C29 H34 0.961 . S
C29 H35 0.960 . S
C30 N28 1.346 . S
C30 N31 1.307 . S
C30 C32 1.486 1_554 S
N31 N27 1.370 . S
N31 C30 1.307 . S
C32 C30 1.486 1_556 S
C32 H36 0.960 . S
C32 H37 0.960 . S
C32 H38 0.959 . S
H33 C29 0.960 . S
H34 C29 0.961 . S
H35 C29 0.960 . S
H36 C32 0.960 . S
H37 C32 0.960 . S
H38 C32 0.959 . S
C39 N40 1.317 . S
C39 N41 1.348 . S
C39 C42 1.485 . S
N40 C39 1.317 . S
N40 N44 1.370 . S
N41 C39 1.348 . S
N41 C43 1.346 . S
C42 C39 1.485 . S
C42 H46 0.960 . S
C42 H47 0.961 . S
C42 H48 0.960 . S
C43 N41 1.346 . S
C43 N44 1.307 . S
C43 C45 1.486 1_554 S
N44 N40 1.370 . S
N44 C43 1.307 . S
C45 C43 1.486 1_556 S
C45 H49 0.960 . S
C45 H50 0.960 . S
C45 H51 0.959 . S
H46 C42 0.960 . S
H47 C42 0.961 . S
H48 C42 0.960 . S
H49 C45 0.960 . S
H50 C45 0.960 . S
H51 C45 0.959 . S
C52 N53 1.317 . S
C52 N54 1.348 . S
C52 C55 1.485 . S
N53 C52 1.317 . S
N53 N57 1.370 . S
N54 C52 1.348 . S
N54 C56 1.346 . S
C55 C52 1.485 . S
C55 H59 0.960 . S
C55 H60 0.961 . S
C55 H61 0.960 . S
C56 N54 1.346 . S
C56 N57 1.307 . S
C56 C58 1.486 . S
N57 N53 1.370 . S
N57 C56 1.307 . S
C58 C56 1.486 . S
C58 H62 0.960 . S
C58 H63 0.960 . S
C58 H64 0.959 . S
H59 C55 0.960 . S
H60 C55 0.961 . S
H61 C55 0.960 . S
H62 C58 0.960 . S
H63 C58 0.960 . S
H64 C58 0.959 . S
C65 N66 1.317 . S
C65 N67 1.348 . S
C65 C68 1.485 . S
N66 C65 1.317 . S
N66 N70 1.370 . S
N67 C65 1.348 . S
N67 C69 1.346 . S
C68 C65 1.485 . S
C68 H72 0.960 . S
C68 H73 0.961 . S
C68 H74 0.960 . S
C69 N67 1.346 . S
C69 N70 1.307 . S
C69 C71 1.486 . S
N70 N66 1.370 . S
N70 C69 1.307 . S
C71 C69 1.486 . S
C71 H75 0.960 . S
C71 H76 0.960 . S
C71 H77 0.959 . S
H72 C68 0.960 . S
H73 C68 0.961 . S
H74 C68 0.960 . S
H75 C71 0.960 . S
H76 C71 0.960 . S
H77 C71 0.959 . S
C78 N79 1.317 . S
C78 N80 1.348 . S
C78 C81 1.485 . S
N79 C78 1.317 . S
N79 N83 1.370 . S
N80 C78 1.348 . S
N80 C82 1.346 . S
C81 C78 1.485 . S
C81 H85 0.960 . S
C81 H86 0.961 . S
C81 H87 0.960 . S
C82 N80 1.346 . S
C82 N83 1.307 . S
C82 C84 1.486 . S
N83 N79 1.370 . S
N83 C82 1.307 . S
C84 C82 1.486 . S
C84 H88 0.960 . S
C84 H89 0.960 . S
C84 H90 0.959 . S
H85 C81 0.960 . S
H86 C81 0.961 . S
H87 C81 0.960 . S
H88 C84 0.960 . S
H89 C84 0.960 . S
H90 C84 0.959 . S
C91 N92 1.317 . S
C91 N93 1.348 . S
C91 C94 1.485 . S
N92 C91 1.317 . S
N92 N96 1.370 . S
N93 C91 1.348 . S
N93 C95 1.346 . S
C94 C91 1.485 . S
C94 H98 0.960 . S
C94 H99 0.961 . S
C94 H100 0.960 . S
C95 N93 1.346 . S
C95 N96 1.307 . S
C95 C97 1.486 . S
N96 N92 1.370 . S
N96 C95 1.307 . S
C97 C95 1.486 . S
C97 H101 0.960 . S
C97 H102 0.960 . S
C97 H103 0.959 . S
H98 C94 0.960 . S
H99 C94 0.961 . S
H100 C94 0.960 . S
H101 C97 0.960 . S
H102 C97 0.960 . S
H103 C97 0.959 . S
O104 Mg105 1.990 . S
O104 C118 1.253 . S
Mg105 O104 1.990 . S
Mg105 O108 2.180 . S
Mg105 O109 2.117 . S
Mg105 O123 2.030 . S
O106 Mg107 2.072 1_565 S
O106 C118 1.260 . S
Mg107 O106 2.072 1_545 S
Mg107 O108 2.099 1_545 S
Mg107 O110 2.079 . S
Mg107 O111 2.072 . S
Mg107 O113 2.099 1_455 S
Mg107 O124 2.079 1_445 S
O108 Mg105 2.180 . S
O108 Mg107 2.099 1_565 S
O108 C119 1.282 . S
O109 Mg105 2.117 . S
O109 C119 1.282 . S
O110 Mg107 2.079 . S
O110 C120 1.257 1_455 S
O111 Mg107 2.072 . S
O111 C121 1.260 . S
Mg112 O113 2.180 . S
Mg112 O114 2.030 . S
Mg112 O115 1.990 . S
Mg112 O116 2.117 . S
O113 Mg107 2.099 1_655 S
O113 Mg112 2.180 . S
O113 C122 1.279 . S
O114 Mg112 2.030 . S
O114 C120 1.264 . S
O115 Mg112 1.990 . S
O115 C121 1.253 1_655 S
O116 Mg112 2.117 . S
O116 C122 1.250 . S
C117 O123 1.248 1_655 S
C117 O124 1.264 . S
C118 O104 1.253 . S
C118 O106 1.260 . S
C119 O108 1.282 . S
C119 O109 1.282 . S
C120 O110 1.257 1_655 S
C120 O114 1.264 . S
C121 O111 1.260 . S
C121 O115 1.253 1_455 S
C122 O113 1.279 . S
C122 O116 1.250 . S
O123 Mg105 2.030 . S
O123 C117 1.248 1_455 S
O124 Mg107 2.079 1_665 S
O124 C117 1.264 . S
O125 Mg126 1.990 . S
O125 C139 1.253 1_565 S
Mg126 O125 1.990 . S
Mg126 O129 2.180 . S
Mg126 O130 2.117 . S
Mg126 O144 2.030 . S
O127 Mg128 2.072 . S
O127 C139 1.260 . S
Mg128 O127 2.072 . S
Mg128 O129 2.099 1_545 S
Mg128 O131 2.079 1_545 S
Mg128 O132 2.072 . S
Mg128 O134 2.099 . S
Mg128 O145 2.079 . S
O129 Mg126 2.180 . S
O129 Mg128 2.099 1_565 S
O129 C140 1.279 . S
O130 Mg126 2.117 . S
O130 C140 1.250 . S
O131 Mg128 2.079 1_565 S
O131 C141 1.264 . S
O132 Mg128 2.072 . S
O132 C142 1.260 . S
Mg133 O134 2.180 . S
Mg133 O135 2.030 . S
Mg133 O136 1.990 . S
Mg133 O137 2.117 . S
O134 Mg128 2.099 . S
O134 Mg133 2.180 . S
O134 C143 1.279 . S
O135 Mg133 2.030 . S
O135 C141 1.248 1_545 S
O136 Mg133 1.990 . S
O136 C142 1.253 . S
O137 Mg133 2.117 . S
O137 C143 1.250 . S
C138 O144 1.248 . S
C138 O145 1.264 1_565 S
C139 O125 1.253 1_545 S
C139 O127 1.260 . S
C140 O129 1.279 . S
C140 O130 1.250 . S
C141 O131 1.264 . S
C141 O135 1.248 1_565 S
C142 O132 1.260 . S
C142 O136 1.253 . S
C143 O134 1.279 . S
C143 O137 1.250 . S
O144 Mg126 2.030 . S
O144 C138 1.248 . S
O145 Mg128 2.079 . S
O145 C138 1.264 1_545 S
O146 Mg147 1.990 . S
O146 C160 1.253 . S
Mg147 O146 1.990 . S
Mg147 O150 2.180 . S
Mg147 O151 2.117 . S
Mg147 O165 2.030 . S
O148 Mg149 2.072 . S
O148 C160 1.260 . S
Mg149 O148 2.072 . S
Mg149 O150 2.099 . S
Mg149 O152 2.079 . S
Mg149 O153 2.072 . S
Mg149 O155 2.099 . S
Mg149 O166 2.079 . S
O150 Mg147 2.180 . S
O150 Mg149 2.099 . S
O150 C161 1.279 . S
O151 Mg147 2.117 . S
O151 C161 1.250 . S
O152 Mg149 2.079 . S
O152 C162 1.264 . S
O153 Mg149 2.072 . S
O153 C163 1.260 . S
Mg154 O155 2.180 . S
Mg154 O156 2.030 . S
Mg154 O157 1.990 . S
Mg154 O158 2.117 . S
O155 Mg149 2.099 . S
O155 Mg154 2.180 . S
O155 C164 1.279 . S
O156 Mg154 2.030 . S
O156 C162 1.248 . S
O157 Mg154 1.990 . S
O157 C163 1.253 . S
O158 Mg154 2.117 . S
O158 C164 1.250 . S
C159 O165 1.248 . S
C159 O166 1.264 . S
C160 O146 1.253 . S
C160 O148 1.260 . S
C161 O150 1.279 . S
C161 O151 1.250 . S
C162 O152 1.264 . S
C162 O156 1.248 . S
C163 O153 1.260 . S
C163 O157 1.253 . S
C164 O155 1.279 . S
C164 O158 1.250 . S
O165 Mg147 2.030 . S
O165 C159 1.248 . S
O166 Mg149 2.079 . S
O166 C159 1.264 . S
O167 Mg168 1.990 . S
O167 C181 1.253 . S
Mg168 O167 1.990 . S
Mg168 O171 2.180 . S
Mg168 O172 2.117 . S
Mg168 O186 2.030 . S
O169 Mg170 2.072 1_655 S
O169 C181 1.260 . S
Mg170 O169 2.072 1_455 S
Mg170 O171 2.099 1_455 S
Mg170 O173 2.079 . S
Mg170 O174 2.072 . S
Mg170 O176 2.099 . S
Mg170 O187 2.079 1_455 S
O171 Mg168 2.180 . S
O171 Mg170 2.099 1_655 S
O171 C182 1.281 . S
O172 Mg168 2.117 . S
O172 C182 1.269 . S
O173 Mg170 2.079 . S
O173 C183 1.264 . S
O174 Mg170 2.072 . S
O174 C184 1.260 . S
Mg175 O176 2.180 . S
Mg175 O177 2.030 . S
Mg175 O178 1.990 . S
Mg175 O179 2.117 . S
O176 Mg170 2.099 . S
O176 Mg175 2.180 . S
O176 C185 1.279 . S
O177 Mg175 2.030 . S
O177 C183 1.248 . S
O178 Mg175 1.990 . S
O178 C184 1.253 . S
O179 Mg175 2.117 . S
O179 C185 1.250 . S
C180 O186 1.248 . S
C180 O187 1.264 . S
C181 O167 1.253 . S
C181 O169 1.260 . S
C182 O171 1.281 . S
C182 O172 1.269 . S
C183 O173 1.264 . S
C183 O177 1.248 . S
C184 O174 1.260 . S
C184 O178 1.253 . S
C185 O176 1.279 . S
C185 O179 1.250 . S
O186 Mg168 2.030 . S
O186 C180 1.248 . S
O187 Mg170 2.079 1_655 S
O187 C180 1.264 . S
C188 C189 1.391 . S
C188 C190 1.394 . S
C188 H204 0.931 . S
C189 C188 1.391 . S
C189 C193 1.376 . S
C190 C188 1.394 . S
C190 C191 1.369 . S
C190 C194 1.531 . S
C191 C190 1.369 . S
C191 C192 1.410 . S
C191 C199 1.503 . S
C192 C191 1.410 . S
C192 C193 1.392 . S
C192 C195 1.511 . S
C193 C189 1.376 . S
C193 C192 1.392 . S
C193 H205 0.929 . S
C194 C190 1.531 . S
C194 H206 0.960 . S
C194 H207 0.962 . S
C194 H208 0.960 . S
C195 C192 1.511 . S
C195 H209 0.961 . S
C195 H210 0.961 . S
C195 H211 0.961 . S
C196 C197 1.370 1_565 S
C196 C198 1.363 1_565 S
C196 H212 0.931 . S
C197 C196 1.370 1_545 S
C197 C201 1.408 . S
C198 C196 1.363 1_545 S
C198 C199 1.370 . S
C198 C202 1.524 1_545 S
C199 C191 1.503 . S
C199 C198 1.370 . S
C199 C200 1.403 . S
C200 C199 1.403 . S
C200 C201 1.404 . S
C200 C203 1.539 . S
C201 C197 1.408 . S
C201 C200 1.404 . S
C201 H213 0.930 . S
C202 C198 1.524 1_565 S
C202 H214 0.956 . S
C202 H215 0.961 . S
C202 H216 0.961 . S
C203 C200 1.539 . S
C203 H217 0.958 . S
C203 H218 0.961 . S
C203 H219 0.960 . S
H204 C188 0.931 . S
H205 C193 0.929 . S
H206 C194 0.960 . S
H207 C194 0.962 . S
H208 C194 0.960 . S
H209 C195 0.961 . S
H210 C195 0.961 . S
H211 C195 0.961 . S
H212 C196 0.931 . S
H213 C201 0.930 . S
H214 C202 0.956 . S
H215 C202 0.961 . S
H216 C202 0.961 . S
H217 C203 0.958 . S
H218 C203 0.961 . S
H219 C203 0.960 . S
C220 C221 1.391 . S
C220 C222 1.394 . S
C220 H236 0.931 . S
C221 C220 1.391 . S
C221 C225 1.376 . S
C222 C220 1.394 . S
C222 C223 1.369 . S
C222 C226 1.531 . S
C223 C222 1.369 . S
C223 C224 1.410 . S
C223 C231 1.503 . S
C224 C223 1.410 . S
C224 C225 1.392 . S
C224 C227 1.511 . S
C225 C221 1.376 . S
C225 C224 1.392 . S
C225 H237 0.929 . S
C226 C222 1.531 . S
C226 H238 0.960 . S
C226 H239 0.962 . S
C226 H240 0.960 . S
C227 C224 1.511 . S
C227 H241 0.961 . S
C227 H242 0.961 . S
C227 H243 0.961 . S
C228 C229 1.370 . S
C228 C230 1.363 . S
C228 H244 0.931 . S
C229 C228 1.370 . S
C229 C233 1.408 . S
C230 C228 1.363 . S
C230 C231 1.370 . S
C230 C234 1.524 . S
C231 C223 1.503 . S
C231 C230 1.370 . S
C231 C232 1.403 . S
C232 C231 1.403 . S
C232 C233 1.404 . S
C232 C235 1.539 . S
C233 C229 1.408 . S
C233 C232 1.404 . S
C233 H245 0.930 . S
C234 C230 1.524 . S
C234 H246 0.956 . S
C234 H247 0.961 . S
C234 H248 0.961 . S
C235 C232 1.539 . S
C235 H249 0.958 . S
C235 H250 0.961 . S
C235 H251 0.960 . S
H236 C220 0.931 . S
H237 C225 0.929 . S
H238 C226 0.960 . S
H239 C226 0.962 . S
H240 C226 0.960 . S
H241 C227 0.961 . S
H242 C227 0.961 . S
H243 C227 0.961 . S
H244 C228 0.931 . S
H245 C233 0.930 . S
H246 C234 0.956 . S
H247 C234 0.961 . S
H248 C234 0.961 . S
H249 C235 0.958 . S
H250 C235 0.961 . S
H251 C235 0.960 . S
C252 C253 1.391 . S
C252 C254 1.394 . S
C252 H268 0.931 . S
C253 C252 1.391 . S
C253 C257 1.376 . S
C254 C252 1.394 . S
C254 C255 1.369 . S
C254 C258 1.531 . S
C255 C254 1.369 . S
C255 C256 1.410 . S
C255 C263 1.503 . S
C256 C255 1.410 . S
C256 C257 1.392 . S
C256 C259 1.511 . S
C257 C253 1.376 . S
C257 C256 1.392 . S
C257 H269 0.929 . S
C258 C254 1.531 . S
C258 H270 0.960 . S
C258 H271 0.962 . S
C258 H272 0.960 . S
C259 C256 1.511 . S
C259 H273 0.961 . S
C259 H274 0.961 . S
C259 H275 0.961 . S
C260 C261 1.370 . S
C260 C262 1.363 . S
C260 H276 0.931 . S
C261 C260 1.370 . S
C261 C265 1.408 . S
C262 C260 1.363 . S
C262 C263 1.370 . S
C262 C266 1.524 . S
C263 C255 1.503 . S
C263 C262 1.370 . S
C263 C264 1.403 . S
C264 C263 1.403 . S
C264 C265 1.404 . S
C264 C267 1.539 . S
C265 C261 1.408 . S
C265 C264 1.404 . S
C265 H277 0.930 . S
C266 C262 1.524 . S
C266 H278 0.956 . S
C266 H279 0.961 . S
C266 H280 0.961 . S
C267 C264 1.539 . S
C267 H281 0.958 . S
C267 H282 0.961 . S
C267 H283 0.960 . S
H268 C252 0.931 . S
H269 C257 0.929 . S
H270 C258 0.960 . S
H271 C258 0.962 . S
H272 C258 0.960 . S
H273 C259 0.961 . S
H274 C259 0.961 . S
H275 C259 0.961 . S
H276 C260 0.931 . S
H277 C265 0.930 . S
H278 C266 0.956 . S
H279 C266 0.961 . S
H280 C266 0.961 . S
H281 C267 0.958 . S
H282 C267 0.961 . S
H283 C267 0.960 . S
C284 C285 1.391 . S
C284 C286 1.394 . S
C284 H300 0.931 . S
C285 C284 1.391 . S
C285 C289 1.376 . S
C286 C284 1.394 . S
C286 C287 1.369 . S
C286 C290 1.531 . S
C287 C286 1.369 . S
C287 C288 1.410 . S
C287 C295 1.503 . S
C288 C287 1.410 . S
C288 C289 1.392 . S
C288 C291 1.511 1_455 S
C289 C285 1.376 . S
C289 C288 1.392 . S
C289 H301 0.929 . S
C290 C286 1.531 . S
C290 H302 0.960 . S
C290 H303 0.962 . S
C290 H304 0.960 . S
C291 C288 1.511 1_655 S
C291 H305 0.961 . S
C291 H306 0.961 . S
C291 H307 0.961 . S
C292 C293 1.370 . S
C292 C294 1.363 . S
C292 H308 0.931 . S
C293 C292 1.370 . S
C293 C297 1.408 . S
C294 C292 1.363 . S
C294 C295 1.370 . S
C294 C298 1.524 . S
C295 C287 1.503 . S
C295 C294 1.370 . S
C295 C296 1.403 . S
C296 C295 1.403 . S
C296 C297 1.404 . S
C296 C299 1.539 1_455 S
C297 C293 1.408 . S
C297 C296 1.404 . S
C297 H309 0.930 1_455 S
C298 C294 1.524 . S
C298 H310 0.956 . S
C298 H311 0.961 . S
C298 H312 0.961 . S
C299 C296 1.539 1_655 S
C299 H313 0.969 . S
C299 H314 0.961 . S
C299 H315 0.960 . S
H300 C284 0.931 . S
H301 C289 0.929 . S
H302 C290 0.960 . S
H303 C290 0.962 . S
H304 C290 0.960 . S
H305 C291 0.961 . S
H306 C291 0.961 . S
H307 C291 0.961 . S
H308 C292 0.931 . S
H309 C297 0.930 1_655 S
H310 C298 0.956 . S
H311 C298 0.961 . S
H312 C298 0.961 . S
H313 C299 0.969 . S
H314 C299 0.961 . S
H315 C299 0.960 . S
C316 C317 1.391 . S
C316 C318 1.394 . S
C316 H332 0.931 . S
C317 C316 1.391 . S
C317 C321 1.376 1_554 S
C318 C316 1.394 . S
C318 C319 1.369 1_554 S
C318 C322 1.531 . S
C319 C318 1.369 1_556 S
C319 C320 1.410 . S
C319 C327 1.503 . S
C320 C319 1.410 . S
C320 C321 1.392 . S
C320 C323 1.511 . S
C321 C317 1.376 1_556 S
C321 C320 1.392 . S
C321 H333 0.929 . S
C322 C318 1.531 . S
C322 H334 0.960 . S
C322 H335 0.962 . S
C322 H336 0.960 . S
C323 C320 1.511 . S
C323 H337 0.961 . S
C323 H338 0.961 . S
C323 H339 0.961 . S
C324 C325 1.370 1_545 S
C324 C326 1.363 . S
C324 H340 0.931 . S
C325 C324 1.370 1_565 S
C325 C329 1.408 . S
C326 C324 1.363 . S
C326 C327 1.370 1_545 S
C326 C330 1.524 . S
C327 C319 1.503 . S
C327 C326 1.370 1_565 S
C327 C328 1.403 . S
C328 C327 1.403 . S
C328 C329 1.404 . S
C328 C331 1.539 . S
C329 C325 1.408 . S
C329 C328 1.404 . S
C329 H341 0.930 . S
C330 C326 1.524 . S
C330 H342 0.956 . S
C330 H343 0.961 . S
C330 H344 0.961 . S
C331 C328 1.539 . S
C331 H345 0.958 . S
C331 H346 0.961 . S
C331 H347 0.960 . S
H332 C316 0.931 . S
H333 C321 0.929 . S
H334 C322 0.960 . S
H335 C322 0.962 . S
H336 C322 0.960 . S
H337 C323 0.961 . S
H338 C323 0.961 . S
H339 C323 0.961 . S
H340 C324 0.931 . S
H341 C329 0.930 . S
H342 C330 0.956 . S
H343 C330 0.961 . S
H344 C330 0.961 . S
H345 C331 0.958 . S
H346 C331 0.961 . S
H347 C331 0.960 . S
C348 C349 1.391 1_556 S
C348 C350 1.394 . S
C348 H364 0.931 . S
C349 C348 1.391 1_554 S
C349 C353 1.376 . S
C350 C348 1.394 . S
C350 C351 1.369 . S
C350 C354 1.531 . S
C351 C350 1.369 . S
C351 C352 1.410 1_556 S
C351 C359 1.503 . S
C352 C351 1.410 1_554 S
C352 C353 1.392 . S
C352 C355 1.511 . S
C353 C349 1.376 . S
C353 C352 1.392 . S
C353 H365 0.929 . S
C354 C350 1.531 . S
C354 H366 0.960 . S
C354 H367 0.962 . S
C354 H368 0.960 . S
C355 C352 1.511 . S
C355 H369 0.961 . S
C355 H370 0.961 . S
C355 H371 0.961 . S
C356 C357 1.370 . S
C356 C358 1.363 . S
C356 H372 0.931 . S
C357 C356 1.370 . S
C357 C361 1.408 . S
C358 C356 1.363 . S
C358 C359 1.370 . S
C358 C362 1.524 . S
C359 C351 1.503 . S
C359 C358 1.370 . S
C359 C360 1.403 . S
C360 C359 1.403 . S
C360 C361 1.404 . S
C360 C363 1.539 . S
C361 C357 1.408 . S
C361 C360 1.404 . S
C361 H373 0.930 . S
C362 C358 1.524 . S
C362 H374 0.956 . S
C362 H375 0.961 . S
C362 H376 0.961 . S
C363 C360 1.539 . S
C363 H377 0.958 . S
C363 H378 0.961 . S
C363 H379 0.960 . S
H364 C348 0.931 . S
H365 C353 0.929 . S
H366 C354 0.960 . S
H367 C354 0.962 . S
H368 C354 0.960 . S
H369 C355 0.961 . S
H370 C355 0.961 . S
H371 C355 0.961 . S
H372 C356 0.931 . S
H373 C361 0.930 . S
H374 C362 0.956 . S
H375 C362 0.961 . S
H376 C362 0.961 . S
H377 C363 0.958 . S
H378 C363 0.961 . S
H379 C363 0.960 . S
C380 C381 1.391 1_556 S
C380 C382 1.394 . S
C380 H396 0.931 . S
C381 C380 1.391 1_554 S
C381 C385 1.376 . S
C382 C380 1.394 . S
C382 C383 1.369 . S
C382 C386 1.531 . S
C383 C382 1.369 . S
C383 C384 1.410 . S
C383 C391 1.503 . S
C384 C383 1.410 . S
C384 C385 1.392 1_556 S
C384 C387 1.511 1_556 S
C385 C381 1.376 . S
C385 C384 1.392 1_554 S
C385 H397 0.929 . S
C386 C382 1.531 . S
C386 H398 0.960 . S
C386 H399 0.962 . S
C386 H400 0.960 . S
C387 C384 1.511 1_554 S
C387 H401 0.961 . S
C387 H402 0.961 . S
C387 H403 0.961 1_554 S
C388 C389 1.370 . S
C388 C390 1.363 . S
C388 H404 0.931 . S
C389 C388 1.370 . S
C389 C393 1.408 . S
C390 C388 1.363 . S
C390 C391 1.370 . S
C390 C394 1.524 . S
C391 C383 1.503 . S
C391 C390 1.370 . S
C391 C392 1.403 . S
C392 C391 1.403 . S
C392 C393 1.404 . S
C392 C395 1.539 . S
C393 C389 1.408 . S
C393 C392 1.404 . S
C393 H405 0.930 . S
C394 C390 1.524 . S
C394 H406 0.956 . S
C394 H407 0.961 1_556 S
C394 H408 0.961 1_556 S
C395 C392 1.539 . S
C395 H409 0.958 . S
C395 H410 0.961 . S
C395 H411 0.960 . S
H396 C380 0.931 . S
H397 C385 0.929 . S
H398 C386 0.960 . S
H399 C386 0.962 . S
H400 C386 0.960 . S
H401 C387 0.961 . S
H402 C387 0.961 . S
H403 C387 0.961 1_556 S
H404 C388 0.931 . S
H405 C393 0.930 . S
H406 C394 0.956 . S
H407 C394 0.961 1_554 S
H408 C394 0.961 1_554 S
H409 C395 0.958 . S
H410 C395 0.961 . S
H411 C395 0.960 . S
C412 C413 1.360 1_455 S
C412 C414 1.399 1_554 S
C412 H428 0.957 . S
C413 C412 1.360 1_655 S
C413 C417 1.376 . S
C414 C412 1.399 1_556 S
C414 C415 1.369 1_455 S
C414 C418 1.531 . S
C415 C414 1.369 1_655 S
C415 C416 1.410 . S
C415 C423 1.503 . S
C416 C415 1.410 . S
C416 C417 1.392 1_556 S
C416 C419 1.511 . S
C417 C413 1.376 . S
C417 C416 1.392 1_554 S
C417 H429 0.929 . S
C418 C414 1.531 . S
C418 H430 0.960 . S
C418 H431 0.962 . S
C418 H432 0.960 1_556 S
C419 C416 1.511 . S
C419 H433 0.961 . S
C419 H434 0.961 . S
C419 H435 0.961 . S
C420 C421 1.370 . S
C420 C422 1.363 . S
C420 H436 0.929 1_655 S
C421 C420 1.370 . S
C421 C425 1.408 . S
C422 C420 1.363 . S
C422 C423 1.370 . S
C422 C426 1.524 . S
C423 C415 1.503 . S
C423 C422 1.370 . S
C423 C424 1.403 . S
C424 C423 1.403 . S
C424 C425 1.404 . S
C424 C427 1.539 1_556 S
C425 C421 1.408 . S
C425 C424 1.404 . S
C425 H437 0.930 . S
C426 C422 1.524 . S
C426 H438 0.956 1_655 S
C426 H439 0.961 . S
C426 H440 0.961 . S
C427 C424 1.539 1_554 S
C427 H441 0.958 1_655 S
C427 H442 0.961 . S
C427 H443 0.960 . S
H428 C412 0.957 . S
H429 C417 0.929 . S
H430 C418 0.960 . S
H431 C418 0.962 . S
H432 C418 0.960 1_554 S
H433 C419 0.961 . S
H434 C419 0.961 . S
H435 C419 0.961 . S
H436 C420 0.929 1_455 S
H437 C425 0.930 . S
H438 C426 0.956 1_455 S
H439 C426 0.961 . S
H440 C426 0.961 . S
H441 C427 0.958 1_455 S
H442 C427 0.961 . S
H443 C427 0.960 . S
C444 C445 1.391 . S
C444 C446 1.394 . S
C444 H460 0.931 . S
C445 C444 1.391 . S
C445 C449 1.376 . S
C446 C444 1.394 . S
C446 C447 1.369 . S
C446 C450 1.531 1_455 S
C447 C446 1.369 . S
C447 C448 1.410 . S
C447 C455 1.503 . S
C448 C447 1.410 . S
C448 C449 1.392 . S
C448 C451 1.511 . S
C449 C445 1.376 . S
C449 C448 1.392 . S
C449 H461 0.929 . S
C450 C446 1.531 1_655 S
C450 H462 0.960 . S
C450 H463 0.962 . S
C450 H464 0.960 . S
C451 C448 1.511 . S
C451 H465 0.961 . S
C451 H466 0.961 . S
C451 H467 0.961 . S
C452 C453 1.370 . S
C452 C454 1.363 . S
C452 H468 0.931 . S
C453 C452 1.370 . S
C453 C457 1.408 . S
C454 C452 1.363 . S
C454 C455 1.370 . S
C454 C458 1.524 . S
C455 C447 1.503 . S
C455 C454 1.370 . S
C455 C456 1.403 . S
C456 C455 1.403 . S
C456 C457 1.404 . S
C456 C459 1.539 . S
C457 C453 1.408 . S
C457 C456 1.404 . S
C457 H469 0.930 . S
C458 C454 1.524 . S
C458 H470 0.956 . S
C458 H471 0.961 . S
C458 H472 0.961 . S
C459 C456 1.539 . S
C459 H473 0.958 1_455 S
C459 H474 0.961 . S
C459 H475 0.960 . S
H460 C444 0.931 . S
H461 C449 0.929 . S
H462 C450 0.960 . S
H463 C450 0.962 . S
H464 C450 0.960 . S
H465 C451 0.961 . S
H466 C451 0.961 . S
H467 C451 0.961 . S
H468 C452 0.931 . S
H469 C457 0.930 . S
H470 C458 0.956 . S
H471 C458 0.961 . S
H472 C458 0.961 . S
H473 C459 0.958 1_655 S
H474 C459 0.961 . S
H475 C459 0.960 . S
C476 C477 1.391 . S
C476 C478 1.394 . S
C476 H492 0.931 . S
C477 C476 1.391 . S
C477 C481 1.376 . S
C478 C476 1.394 . S
C478 C479 1.369 . S
C478 C482 1.531 . S
C479 C478 1.369 . S
C479 C480 1.410 . S
C479 C487 1.503 . S
C480 C479 1.410 . S
C480 C481 1.392 . S
C480 C483 1.511 1_545 S
C481 C477 1.376 . S
C481 C480 1.392 . S
C481 H493 0.929 . S
C482 C478 1.531 . S
C482 H494 0.960 . S
C482 H495 0.962 . S
C482 H496 0.960 . S
C483 C480 1.511 1_565 S
C483 H497 0.961 . S
C483 H498 0.961 . S
C483 H499 0.961 . S
C484 C485 1.369 1_565 S
C484 C486 1.359 1_565 S
C484 H500 0.936 . S
C485 C484 1.369 1_545 S
C485 C489 1.408 . S
C486 C484 1.359 1_545 S
C486 C487 1.370 . S
C486 C490 1.524 . S
C487 C479 1.503 . S
C487 C486 1.370 . S
C487 C488 1.403 . S
C488 C487 1.403 . S
C488 C489 1.404 . S
C488 C491 1.539 . S
C489 C485 1.408 . S
C489 C488 1.404 . S
C489 H501 0.930 . S
C490 C486 1.524 . S
C490 H502 0.956 . S
C490 H503 0.961 1_545 S
C490 H504 0.961 1_545 S
C491 C488 1.539 . S
C491 H505 0.958 . S
C491 H506 0.961 . S
C491 H507 0.960 . S
H492 C476 0.931 . S
H493 C481 0.929 . S
H494 C482 0.960 . S
H495 C482 0.962 . S
H496 C482 0.960 . S
H497 C483 0.961 . S
H498 C483 0.961 . S
H499 C483 0.961 . S
H500 C484 0.936 . S
H501 C489 0.930 . S
H502 C490 0.956 . S
H503 C490 0.961 1_565 S
H504 C490 0.961 1_565 S
H505 C491 0.958 . S
H506 C491 0.961 . S
H507 C491 0.960 . S
C508 C509 1.391 . S
C508 C510 1.394 . S
C508 H524 0.931 . S
C509 C508 1.391 . S
C509 C513 1.376 . S
C510 C508 1.394 . S
C510 C511 1.369 . S
C510 C514 1.531 . S
C511 C510 1.369 . S
C511 C512 1.410 . S
C511 C519 1.503 . S
C512 C511 1.410 . S
C512 C513 1.392 . S
C512 C515 1.511 . S
C513 C509 1.376 . S
C513 C512 1.392 . S
C513 H525 0.929 . S
C514 C510 1.531 . S
C514 H526 0.960 . S
C514 H527 0.962 . S
C514 H528 0.960 . S
C515 C512 1.511 . S
C515 H529 0.961 . S
C515 H530 0.961 . S
C515 H531 0.961 . S
C516 C517 1.370 . S
C516 C518 1.363 . S
C516 H532 0.931 . S
C517 C516 1.370 . S
C517 C521 1.408 . S
C518 C516 1.363 . S
C518 C519 1.370 . S
C518 C522 1.524 . S
C519 C511 1.503 . S
C519 C518 1.370 . S
C519 C520 1.403 . S
C520 C519 1.403 . S
C520 C521 1.404 . S
C520 C523 1.539 . S
C521 C517 1.408 . S
C521 C520 1.404 . S
C521 H533 0.930 . S
C522 C518 1.524 . S
C522 H534 0.956 . S
C522 H535 0.961 . S
C522 H536 0.961 . S
C523 C520 1.539 . S
C523 H537 0.958 . S
C523 H538 0.961 . S
C523 H539 0.960 . S
H524 C508 0.931 . S
H525 C513 0.929 . S
H526 C514 0.960 . S
H527 C514 0.962 . S
H528 C514 0.960 . S
H529 C515 0.961 . S
H530 C515 0.961 . S
H531 C515 0.961 . S
H532 C516 0.931 . S
H533 C521 0.930 . S
H534 C522 0.956 . S
H535 C522 0.961 . S
H536 C522 0.961 . S
H537 C523 0.958 . S
H538 C523 0.961 . S
H539 C523 0.960 . S
C540 C541 1.391 . S
C540 C542 1.394 . S
C540 H556 0.931 . S
C541 C540 1.391 . S
C541 C545 1.376 . S
C542 C540 1.394 . S
C542 C543 1.369 . S
C542 C546 1.531 . S
C543 C542 1.369 . S
C543 C544 1.410 . S
C543 C551 1.503 . S
C544 C543 1.410 . S
C544 C545 1.392 . S
C544 C547 1.511 . S
C545 C541 1.376 . S
C545 C544 1.392 . S
C545 H557 0.929 . S
C546 C542 1.531 . S
C546 H558 0.960 . S
C546 H559 0.962 . S
C546 H560 0.960 . S
C547 C544 1.511 . S
C547 H561 0.961 . S
C547 H562 0.961 . S
C547 H563 0.961 . S
C548 C549 1.370 . S
C548 C550 1.363 . S
C548 H564 0.931 . S
C549 C548 1.370 . S
C549 C553 1.408 . S
C550 C548 1.363 . S
C550 C551 1.370 . S
C550 C554 1.524 . S
C551 C543 1.503 . S
C551 C550 1.370 . S
C551 C552 1.403 . S
C552 C551 1.403 . S
C552 C553 1.404 . S
C552 C555 1.539 . S
C553 C549 1.408 . S
C553 C552 1.404 . S
C553 H565 0.930 . S
C554 C550 1.524 . S
C554 H566 0.956 . S
C554 H567 0.961 . S
C554 H568 0.961 . S
C555 C552 1.539 . S
C555 H569 0.958 . S
C555 H570 0.961 . S
C555 H571 0.960 . S
H556 C540 0.931 . S
H557 C545 0.929 . S
H558 C546 0.960 . S
H559 C546 0.962 . S
H560 C546 0.960 . S
H561 C547 0.961 . S
H562 C547 0.961 . S
H563 C547 0.961 . S
H564 C548 0.931 . S
H565 C553 0.930 . S
H566 C554 0.956 . S
H567 C554 0.961 . S
H568 C554 0.961 . S
H569 C555 0.958 . S
H570 C555 0.961 . S
H571 C555 0.960 . S
C572 C573 1.391 1_556 S
C572 C574 1.394 1_655 S
C572 H588 0.931 1_655 S
C573 C572 1.391 1_554 S
C573 C577 1.376 . S
C574 C572 1.394 1_455 S
C574 C575 1.369 1_455 S
C574 C578 1.531 . S
C575 C574 1.369 1_655 S
C575 C576 1.410 . S
C575 C583 1.503 . S
C576 C575 1.410 . S
C576 C577 1.392 1_556 S
C576 C579 1.511 . S
C577 C573 1.376 . S
C577 C576 1.392 1_554 S
C577 H589 0.929 . S
C578 C574 1.531 . S
C578 H590 0.960 . S
C578 H591 0.962 . S
C578 H592 0.960 . S
C579 C576 1.511 . S
C579 H593 0.961 . S
C579 H594 0.961 . S
C579 H595 0.961 . S
C580 C581 1.370 . S
C580 C582 1.363 . S
C580 H596 0.931 . S
C581 C580 1.370 . S
C581 C585 1.399 1_455 S
C582 C580 1.363 . S
C582 C583 1.370 1_455 S
C582 C586 1.524 1_556 S
C583 C575 1.503 . S
C583 C582 1.370 1_655 S
C583 C584 1.403 . S
C584 C583 1.403 . S
C584 C585 1.412 . S
C584 C587 1.539 . S
C585 C581 1.399 1_655 S
C585 C584 1.412 . S
C585 H597 0.932 . S
C586 C582 1.524 1_554 S
C586 H598 0.956 . S
C586 H599 0.961 1_455 S
C586 H600 0.961 . S
C587 C584 1.539 . S
C587 H601 0.958 . S
C587 H602 0.961 . S
C587 H603 0.960 . S
H588 C572 0.931 1_455 S
H589 C577 0.929 . S
H590 C578 0.960 . S
H591 C578 0.962 . S
H592 C578 0.960 . S
H593 C579 0.961 . S
H594 C579 0.961 . S
H595 C579 0.961 . S
H596 C580 0.931 . S
H597 C585 0.932 . S
H598 C586 0.956 . S
H599 C586 0.961 1_655 S
H600 C586 0.961 . S
H601 C587 0.958 . S
H602 C587 0.961 . S
H603 C587 0.960 . S
C604 C605 1.391 1_556 S
C604 C606 1.394 . S
C604 H620 0.931 . S
C605 C604 1.391 1_554 S
C605 C609 1.376 . S
C606 C604 1.394 . S
C606 C607 1.369 . S
C606 C610 1.531 . S
C607 C606 1.369 . S
C607 C608 1.410 1_556 S
C607 C615 1.503 . S
C608 C607 1.410 1_554 S
C608 C609 1.392 . S
C608 C611 1.511 . S
C609 C605 1.376 . S
C609 C608 1.392 . S
C609 H621 0.929 . S
C610 C606 1.531 . S
C610 H622 0.960 . S
C610 H623 0.962 1_565 S
C610 H624 0.960 . S
C611 C608 1.511 . S
C611 H625 0.961 . S
C611 H626 0.961 . S
C611 H627 0.961 . S
C612 C613 1.370 . S
C612 C614 1.363 . S
C612 H628 0.931 . S
C613 C612 1.370 . S
C613 C617 1.408 1_545 S
C614 C612 1.363 . S
C614 C615 1.370 1_545 S
C614 C618 1.524 . S
C615 C607 1.503 . S
C615 C614 1.370 1_565 S
C615 C616 1.403 . S
C616 C615 1.403 . S
C616 C617 1.404 . S
C616 C619 1.539 . S
C617 C613 1.408 1_565 S
C617 C616 1.404 . S
C617 H629 0.930 . S
C618 C614 1.524 . S
C618 H630 0.956 . S
C618 H631 0.961 1_556 S
C618 H632 0.961 . S
C619 C616 1.539 . S
C619 H633 0.958 . S
C619 H634 0.961 . S
C619 H635 0.960 . S
H620 C604 0.931 . S
H621 C609 0.929 . S
H622 C610 0.960 . S
H623 C610 0.962 1_545 S
H624 C610 0.960 . S
H625 C611 0.961 . S
H626 C611 0.961 . S
H627 C611 0.961 . S
H628 C612 0.931 . S
H629 C617 0.930 . S
H630 C618 0.956 . S
H631 C618 0.961 1_554 S
H632 C618 0.961 . S
H633 C619 0.958 . S
H634 C619 0.961 . S
H635 C619 0.960 . S
C636 C637 1.391 . S
C636 C638 1.394 . S
C636 H652 0.931 . S
C637 C636 1.391 . S
C637 C641 1.376 1_554 S
C638 C636 1.394 . S
C638 C639 1.369 1_554 S
C638 C642 1.531 . S
C639 C638 1.369 1_556 S
C639 C640 1.410 . S
C639 C647 1.503 . S
C640 C639 1.410 . S
C640 C641 1.392 . S
C640 C643 1.511 . S
C641 C637 1.376 1_556 S
C641 C640 1.392 . S
C641 H653 0.929 . S
C642 C638 1.531 . S
C642 H654 0.960 . S
C642 H655 0.962 . S
C642 H656 0.960 . S
C643 C640 1.511 . S
C643 H657 0.961 . S
C643 H658 0.961 . S
C643 H659 0.961 . S
C644 C645 1.370 . S
C644 C646 1.363 . S
C644 H660 0.931 . S
C645 C644 1.370 . S
C645 C649 1.408 . S
C646 C644 1.363 . S
C646 C647 1.370 . S
C646 C650 1.524 . S
C647 C639 1.503 . S
C647 C646 1.370 . S
C647 C648 1.403 . S
C648 C647 1.403 . S
C648 C649 1.404 . S
C648 C651 1.539 1_556 S
C649 C645 1.408 . S
C649 C648 1.404 . S
C649 H661 0.930 . S
C650 C646 1.524 . S
C650 H662 0.956 . S
C650 H663 0.961 . S
C650 H664 0.961 . S
C651 C648 1.539 1_554 S
C651 H665 0.958 . S
C651 H666 0.961 1_554 S
C651 H667 0.959 1_554 S
H652 C636 0.931 . S
H653 C641 0.929 . S
H654 C642 0.960 . S
H655 C642 0.962 . S
H656 C642 0.960 . S
H657 C643 0.961 . S
H658 C643 0.961 . S
H659 C643 0.961 . S
H660 C644 0.931 . S
H661 C649 0.930 . S
H662 C650 0.956 . S
H663 C650 0.961 . S
H664 C650 0.961 . S
H665 C651 0.958 . S
H666 C651 0.961 1_556 S
H667 C651 0.959 1_556 S
C668 C669 1.391 . S
C668 C670 1.394 . S
C668 H684 0.931 . S
C669 C668 1.391 . S
C669 C673 1.376 1_554 S
C670 C668 1.394 . S
C670 C671 1.369 1_554 S
C670 C674 1.531 . S
C671 C670 1.369 1_556 S
C671 C672 1.410 . S
C671 C679 1.503 . S
C672 C671 1.410 . S
C672 C673 1.392 . S
C672 C675 1.511 . S
C673 C669 1.376 1_556 S
C673 C672 1.392 . S
C673 H685 0.929 . S
C674 C670 1.531 . S
C674 H686 0.960 . S
C674 H687 0.962 . S
C674 H688 0.960 . S
C675 C672 1.511 . S
C675 H689 0.961 . S
C675 H690 0.961 . S
C675 H691 0.961 . S
C676 C677 1.370 . S
C676 C678 1.363 . S
C676 H692 0.931 . S
C677 C676 1.370 . S
C677 C681 1.408 . S
C678 C676 1.363 . S
C678 C679 1.370 . S
C678 C682 1.524 . S
C679 C671 1.503 . S
C679 C678 1.370 . S
C679 C680 1.403 . S
C680 C679 1.403 . S
C680 C681 1.404 . S
C680 C683 1.539 . S
C681 C677 1.408 . S
C681 C680 1.404 . S
C681 H693 0.930 . S
C682 C678 1.524 . S
C682 H694 0.956 1_556 S
C682 H695 0.961 . S
C682 H696 0.961 . S
C683 C680 1.539 . S
C683 H697 0.958 . S
C683 H698 0.961 . S
C683 H699 0.960 . S
H684 C668 0.931 . S
H685 C673 0.929 . S
H686 C674 0.960 . S
H687 C674 0.962 . S
H688 C674 0.960 . S
H689 C675 0.961 . S
H690 C675 0.961 . S
H691 C675 0.961 . S
H692 C676 0.931 . S
H693 C681 0.930 . S
H694 C682 0.956 1_554 S
H695 C682 0.961 . S
H696 C682 0.961 . S
H697 C683 0.958 . S
H698 C683 0.961 . S
H699 C683 0.960 . S
C700 C701 1.391 . S
C700 C702 1.394 . S
C700 H716 0.931 . S
C701 C700 1.391 . S
C701 C705 1.376 . S
C702 C700 1.394 . S
C702 C703 1.369 . S
C702 C706 1.531 1_455 S
C703 C702 1.369 . S
C703 C704 1.410 . S
C703 C711 1.503 1_554 S
C704 C703 1.410 . S
C704 C705 1.392 . S
C704 C707 1.511 1_554 S
C705 C701 1.376 . S
C705 C704 1.392 . S
C705 H717 0.929 . S
C706 C702 1.531 1_655 S
C706 H718 0.960 . S
C706 H719 0.962 . S
C706 H720 0.960 . S
C707 C704 1.511 1_556 S
C707 H721 0.961 1_556 S
C707 H722 0.961 . S
C707 H723 0.961 . S
C708 C709 1.370 . S
C708 C710 1.363 1_556 S
C708 H724 0.931 1_556 S
C709 C708 1.370 . S
C709 C713 1.408 . S
C710 C708 1.363 1_554 S
C710 C711 1.370 1_554 S
C710 C714 1.524 . S
C711 C703 1.503 1_556 S
C711 C710 1.370 1_556 S
C711 C712 1.403 . S
C712 C711 1.403 . S
C712 C713 1.404 . S
C712 C715 1.539 . S
C713 C709 1.408 . S
C713 C712 1.404 . S
C713 H725 0.930 . S
C714 C710 1.524 . S
C714 H726 0.956 . S
C714 H727 0.961 . S
C714 H728 0.961 . S
C715 C712 1.539 . S
C715 H729 0.958 1_455 S
C715 H730 0.961 . S
C715 H731 0.960 . S
H716 C700 0.931 . S
H717 C705 0.929 . S
H718 C706 0.960 . S
H719 C706 0.962 . S
H720 C706 0.960 . S
H721 C707 0.961 1_554 S
H722 C707 0.961 . S
H723 C707 0.961 . S
H724 C708 0.931 1_554 S
H725 C713 0.930 . S
H726 C714 0.956 . S
H727 C714 0.961 . S
H728 C714 0.961 . S
H729 C715 0.958 1_655 S
H730 C715 0.961 . S
H731 C715 0.960 . S
C732 C733 1.391 . S
C732 C734 1.394 . S
C732 H748 0.931 . S
C733 C732 1.391 . S
C733 C737 1.376 . S
C734 C732 1.394 . S
C734 C735 1.369 . S
C734 C738 1.531 1_554 S
C735 C734 1.369 . S
C735 C736 1.410 . S
C735 C743 1.503 . S
C736 C735 1.410 . S
C736 C737 1.392 . S
C736 C739 1.511 . S
C737 C733 1.376 . S
C737 C736 1.392 . S
C737 H749 0.929 . S
C738 C734 1.531 1_556 S
C738 H750 0.960 . S
C738 H751 0.962 . S
C738 H752 0.960 . S
C739 C736 1.511 . S
C739 H753 0.961 1_545 S
C739 H754 0.961 . S
C739 H755 0.961 . S
C740 C741 1.370 . S
C740 C742 1.363 . S
C740 H756 0.929 1_545 S
C741 C740 1.370 . S
C741 C745 1.408 . S
C742 C740 1.363 . S
C742 C743 1.370 1_556 S
C742 C746 1.524 1_545 S
C743 C735 1.503 . S
C743 C742 1.370 1_554 S
C743 C744 1.403 . S
C744 C743 1.403 . S
C744 C745 1.404 1_554 S
C744 C747 1.539 . S
C745 C741 1.408 . S
C745 C744 1.404 1_556 S
C745 H757 0.930 . S
C746 C742 1.524 1_565 S
C746 H758 0.956 1_565 S
C746 H759 0.961 1_556 S
C746 H760 0.961 . S
C747 C744 1.539 . S
C747 H761 0.958 . S
C747 H762 0.961 . S
C747 H763 0.960 . S
H748 C732 0.931 . S
H749 C737 0.929 . S
H750 C738 0.960 . S
H751 C738 0.962 . S
H752 C738 0.960 . S
H753 C739 0.961 1_565 S
H754 C739 0.961 . S
H755 C739 0.961 . S
H756 C740 0.929 1_565 S
H757 C745 0.930 . S
H758 C746 0.956 1_545 S
H759 C746 0.961 1_554 S
H760 C746 0.961 . S
H761 C747 0.958 . S
H762 C747 0.961 . S
H763 C747 0.960 . S
C764 C765 1.391 . S
C764 C766 1.394 . S
C764 H780 0.931 . S
C765 C764 1.391 . S
C765 C769 1.376 . S
C766 C764 1.394 . S
C766 C767 1.369 . S
C766 C770 1.531 1_554 S
C767 C766 1.369 . S
C767 C768 1.410 . S
C767 C775 1.503 . S
C768 C767 1.410 . S
C768 C769 1.392 . S
C768 C771 1.511 . S
C769 C765 1.376 . S
C769 C768 1.392 . S
C769 H781 0.929 . S
C770 C766 1.531 1_556 S
C770 H782 0.960 . S
C770 H783 0.962 . S
C770 H784 0.960 . S
C771 C768 1.511 . S
C771 H785 0.961 . S
C771 H786 0.961 . S
C771 H787 0.961 . S
C772 C773 1.370 . S
C772 C774 1.363 . S
C772 H788 0.931 . S
C773 C772 1.370 . S
C773 C777 1.408 . S
C774 C772 1.363 . S
C774 C775 1.370 1_556 S
C774 C778 1.524 1_556 S
C775 C767 1.503 . S
C775 C774 1.370 1_554 S
C775 C776 1.403 1_554 S
C776 C775 1.403 1_556 S
C776 C777 1.404 . S
C776 C779 1.539 . S
C777 C773 1.408 . S
C777 C776 1.404 . S
C777 H789 0.930 . S
C778 C774 1.524 1_554 S
C778 H790 0.956 . S
C778 H791 0.961 . S
C778 H792 0.961 . S
C779 C776 1.539 . S
C779 H793 0.958 . S
C779 H794 0.961 . S
C779 H795 0.960 1_556 S
H780 C764 0.931 . S
H781 C769 0.929 . S
H782 C770 0.960 . S
H783 C770 0.962 . S
H784 C770 0.960 . S
H785 C771 0.961 . S
H786 C771 0.961 . S
H787 C771 0.961 . S
H788 C772 0.931 . S
H789 C777 0.930 . S
H790 C778 0.956 . S
H791 C778 0.961 . S
H792 C778 0.961 . S
H793 C779 0.958 . S
H794 C779 0.961 . S
H795 C779 0.960 1_554 S
C796 C797 1.391 . S
C796 C798 1.394 . S
C796 H812 0.931 . S
C797 C796 1.391 . S
C797 C801 1.376 . S
C798 C796 1.394 . S
C798 C799 1.369 . S
C798 C802 1.531 . S
C799 C798 1.369 . S
C799 C800 1.410 . S
C799 C807 1.503 . S
C800 C799 1.410 . S
C800 C801 1.392 . S
C800 C803 1.511 1_554 S
C801 C797 1.376 . S
C801 C800 1.392 . S
C801 H813 0.929 . S
C802 C798 1.531 . S
C802 H814 0.960 . S
C802 H815 0.962 . S
C802 H816 0.960 . S
C803 C800 1.511 1_556 S
C803 H817 0.961 . S
C803 H818 0.961 . S
C803 H819 0.961 . S
C804 C805 1.370 . S
C804 C806 1.363 . S
C804 H820 0.931 . S
C805 C804 1.370 . S
C805 C809 1.408 . S
C806 C804 1.363 . S
C806 C807 1.370 1_556 S
C806 C810 1.524 . S
C807 C799 1.503 . S
C807 C806 1.370 1_554 S
C807 C808 1.403 . S
C808 C807 1.403 . S
C808 C809 1.404 1_554 S
C808 C811 1.539 . S
C809 C805 1.408 . S
C809 C808 1.404 1_556 S
C809 H821 0.930 . S
C810 C806 1.524 . S
C810 H822 0.956 1_556 S
C810 H823 0.961 . S
C810 H824 0.961 . S
C811 C808 1.539 . S
C811 H825 0.958 . S
C811 H826 0.961 . S
C811 H827 0.960 . S
H812 C796 0.931 . S
H813 C801 0.929 . S
H814 C802 0.960 . S
H815 C802 0.962 . S
H816 C802 0.960 . S
H817 C803 0.961 . S
H818 C803 0.961 . S
H819 C803 0.961 . S
H820 C804 0.931 . S
H821 C809 0.930 . S
H822 C810 0.956 1_554 S
H823 C810 0.961 . S
H824 C810 0.961 . S
H825 C811 0.958 . S
H826 C811 0.961 . S
H827 C811 0.960 . S
C828 C829 1.391 . S
C828 C830 1.394 . S
C828 H844 0.931 . S
C829 C828 1.391 . S
C829 C833 1.376 . S
C830 C828 1.394 . S
C830 C831 1.369 . S
C830 C834 1.531 . S
C831 C830 1.369 . S
C831 C832 1.410 1_655 S
C831 C839 1.503 . S
C832 C831 1.410 1_455 S
C832 C833 1.392 1_455 S
C832 C835 1.511 . S
C833 C829 1.376 . S
C833 C832 1.392 1_655 S
C833 H845 0.929 1_655 S
C834 C830 1.531 . S
C834 H846 0.960 . S
C834 H847 0.962 . S
C834 H848 0.960 . S
C835 C832 1.511 . S
C835 H849 0.961 . S
C835 H850 0.961 . S
C835 H851 0.961 . S
C836 C837 1.370 . S
C836 C838 1.363 . S
C836 H852 0.931 . S
C837 C836 1.370 . S
C837 C841 1.408 . S
C838 C836 1.363 . S
C838 C839 1.370 . S
C838 C842 1.524 . S
C839 C831 1.503 . S
C839 C838 1.370 . S
C839 C840 1.403 . S
C840 C839 1.403 . S
C840 C841 1.404 . S
C840 C843 1.539 1_655 S
C841 C837 1.408 . S
C841 C840 1.404 . S
C841 H853 0.930 1_655 S
C842 C838 1.524 . S
C842 H854 0.956 . S
C842 H855 0.961 . S
C842 H856 0.961 . S
C843 C840 1.539 1_455 S
C843 H857 0.958 1_455 S
C843 H858 0.961 . S
C843 H859 0.960 . S
H844 C828 0.931 . S
H845 C833 0.929 1_455 S
H846 C834 0.960 . S
H847 C834 0.962 . S
H848 C834 0.960 . S
H849 C835 0.961 . S
H850 C835 0.961 . S
H851 C835 0.961 . S
H852 C836 0.931 . S
H853 C841 0.930 1_455 S
H854 C842 0.956 . S
H855 C842 0.961 . S
H856 C842 0.961 . S
H857 C843 0.958 1_655 S
H858 C843 0.961 . S
H859 C843 0.960 . S
C860 C861 1.391 . S
C860 C862 1.394 . S
C860 H876 0.931 . S
C861 C860 1.391 . S
C861 C865 1.376 . S
C862 C860 1.394 . S
C862 C863 1.369 . S
C862 C866 1.531 1_565 S
C863 C862 1.369 . S
C863 C864 1.410 . S
C863 C871 1.503 . S
C864 C863 1.410 . S
C864 C865 1.392 . S
C864 C867 1.511 . S
C865 C861 1.376 . S
C865 C864 1.392 . S
C865 H877 0.929 . S
C866 C862 1.531 1_545 S
C866 H878 0.960 . S
C866 H879 0.963 . S
C866 H880 0.960 . S
C867 C864 1.511 . S
C867 H881 0.961 . S
C867 H882 0.961 . S
C867 H883 0.961 . S
C868 C869 1.370 . S
C868 C870 1.363 . S
C868 H884 0.931 . S
C869 C868 1.370 . S
C869 C873 1.408 1_565 S
C870 C868 1.363 . S
C870 C871 1.370 . S
C870 C874 1.524 . S
C871 C863 1.503 . S
C871 C870 1.370 . S
C871 C872 1.403 1_565 S
C872 C871 1.403 1_545 S
C872 C873 1.404 . S
C872 C875 1.539 . S
C873 C869 1.408 1_545 S
C873 C872 1.404 . S
C873 H885 0.930 . S
C874 C870 1.524 . S
C874 H886 0.956 . S
C874 H887 0.961 . S
C874 H888 0.961 . S
C875 C872 1.539 . S
C875 H889 0.958 . S
C875 H890 0.961 . S
C875 H891 0.960 . S
H876 C860 0.931 . S
H877 C865 0.929 . S
H878 C866 0.960 . S
H879 C866 0.963 . S
H880 C866 0.960 . S
H881 C867 0.961 . S
H882 C867 0.961 . S
H883 C867 0.961 . S
H884 C868 0.931 . S
H885 C873 0.930 . S
H886 C874 0.956 . S
H887 C874 0.961 . S
H888 C874 0.961 . S
H889 C875 0.958 . S
H890 C875 0.961 . S
H891 C875 0.960 . S
C892 C893 1.391 . S
C892 C894 1.394 . S
C892 H908 0.931 . S
C893 C892 1.391 . S
C893 C897 1.376 . S
C894 C892 1.394 . S
C894 C895 1.369 . S
C894 C898 1.531 . S
C895 C894 1.369 . S
C895 C896 1.410 . S
C895 C903 1.503 . S
C896 C895 1.410 . S
C896 C897 1.392 . S
C896 C899 1.511 . S
C897 C893 1.376 . S
C897 C896 1.392 . S
C897 H909 0.929 . S
C898 C894 1.531 . S
C898 H910 0.960 . S
C898 H911 0.962 . S
C898 H912 0.960 . S
C899 C896 1.511 . S
C899 H913 0.961 . S
C899 H914 0.961 . S
C899 H915 0.961 . S
C900 C901 1.370 . S
C900 C902 1.363 . S
C900 H916 0.931 . S
C901 C900 1.370 . S
C901 C905 1.408 . S
C902 C900 1.363 . S
C902 C903 1.370 . S
C902 C906 1.524 . S
C903 C895 1.503 . S
C903 C902 1.370 . S
C903 C904 1.403 . S
C904 C903 1.403 . S
C904 C905 1.404 . S
C904 C907 1.539 . S
C905 C901 1.408 . S
C905 C904 1.404 . S
C905 H917 0.930 . S
C906 C902 1.524 . S
C906 H918 0.956 . S
C906 H919 0.961 . S
C906 H920 0.961 . S
C907 C904 1.539 . S
C907 H921 0.958 . S
C907 H922 0.961 . S
C907 H923 0.960 . S
H908 C892 0.931 . S
H909 C897 0.929 . S
H910 C898 0.960 . S
H911 C898 0.962 . S
H912 C898 0.960 . S
H913 C899 0.961 . S
H914 C899 0.961 . S
H915 C899 0.961 . S
H916 C900 0.931 . S
H917 C905 0.930 . S
H918 C906 0.956 . S
H919 C906 0.961 . S
H920 C906 0.961 . S
H921 C907 0.958 . S
H922 C907 0.961 . S
H923 C907 0.960 . S
C924 C925 1.391 . S
C924 C926 1.394 . S
C924 H940 0.931 . S
C925 C924 1.391 . S
C925 C929 1.376 . S
C926 C924 1.394 . S
C926 C927 1.369 . S
C926 C930 1.531 . S
C927 C926 1.369 . S
C927 C928 1.410 . S
C927 C935 1.503 . S
C928 C927 1.410 . S
C928 C929 1.392 . S
C928 C931 1.511 . S
C929 C925 1.376 . S
C929 C928 1.392 . S
C929 H941 0.929 . S
C930 C926 1.531 . S
C930 H942 0.960 . S
C930 H943 0.962 . S
C930 H944 0.960 . S
C931 C928 1.511 . S
C931 H945 0.961 . S
C931 H946 0.961 . S
C931 H947 0.961 . S
C932 C933 1.370 . S
C932 C934 1.363 . S
C932 H948 0.931 . S
C933 C932 1.370 . S
C933 C937 1.408 . S
C934 C932 1.363 . S
C934 C935 1.370 . S
C934 C938 1.524 . S
C935 C927 1.503 . S
C935 C934 1.370 . S
C935 C936 1.403 . S
C936 C935 1.403 . S
C936 C937 1.404 . S
C936 C939 1.539 . S
C937 C933 1.408 . S
C937 C936 1.404 . S
C937 H949 0.930 . S
C938 C934 1.524 . S
C938 H950 0.956 . S
C938 H951 0.961 . S
C938 H952 0.961 . S
C939 C936 1.539 . S
C939 H953 0.958 . S
C939 H954 0.961 . S
C939 H955 0.960 . S
H940 C924 0.931 . S
H941 C929 0.929 . S
H942 C930 0.960 . S
H943 C930 0.962 . S
H944 C930 0.960 . S
H945 C931 0.961 . S
H946 C931 0.961 . S
H947 C931 0.961 . S
H948 C932 0.931 . S
H949 C937 0.930 . S
H950 C938 0.956 . S
H951 C938 0.961 . S
H952 C938 0.961 . S
H953 C939 0.958 . S
H954 C939 0.961 . S
H955 C939 0.960 . S
C189 N80 1.602 . S
C197 C119 1.410 1_545 S
C229 C143 1.437 . S
C221 N93 1.581 . S
C261 C164 1.406 . S
C253 N54 1.602 . S
C293 C182 1.383 1_455 S
C285 N67 1.591 . S
C325 C122 1.369 1_565 S
C317 N28 1.521 . S
C349 N41 1.513 . S
C357 C140 1.323 . S
C381 N2 1.501 . S
C389 C161 1.334 . S
C413 N15 1.531 . S
C421 C185 1.346 1_655 S
C453 C120 0.668 1_455 S
C445 N70 0.630 . S
C485 C138 0.618 1_545 S
C477 N83 0.653 . S
C517 C159 0.652 . S
C509 N96 0.674 . S
C541 N57 0.607 . S
C549 C183 0.672 . S
C573 N18 0.741 . S
C581 C118 0.722 . S
C613 C142 0.741 . S
C605 N31 0.761 . S
C645 C163 0.730 . S
C637 N44 0.707 . S
C669 N5 0.707 . S
C677 C181 0.715 . S
C701 N66 1.629 . S
C709 C121 1.526 . S
C733 N79 1.621 . S
C741 C139 1.546 . S
C773 C160 1.549 . S
C765 N92 1.632 . S
C805 C184 1.518 . S
C797 N53 1.607 . S
C829 N14 1.505 . S
C837 C117 1.387 . S
C869 C141 1.398 . S
C861 N27 1.484 . S
C901 C162 1.385 . S
C893 N40 1.503 . S
C925 N1 1.484 . S
C933 C180 1.397 . S
