# Generated by pormake.
# Topology wbl, (4,4)-cn, num edge types: 1
# Building blocks:
#     Node 0, Type 0, BuildingBlock: MUDLON_clean_linker_0, # of connection points: 4
#     Node 1, Type 0, BuildingBlock: MUDLON_clean_linker_0, # of connection points: 4
#     Node 2, Type 0, BuildingBlock: MUDLON_clean_linker_0, # of connection points: 4
#     Node 3, Type 0, BuildingBlock: MUDLON_clean_linker_0, # of connection points: 4
#     Node 4, Type 0, BuildingBlock: MUDLON_clean_linker_0, # of connection points: 4
#     Node 5, Type 0, BuildingBlock: MUDLON_clean_linker_0, # of connection points: 4
#     Node 6, Type 0, BuildingBlock: MUDLON_clean_linker_0, # of connection points: 4
#     Node 7, Type 0, BuildingBlock: MUDLON_clean_linker_0, # of connection points: 4
#     Node 8, Type 1, BuildingBlock: KUFVIS_clean_sbu_0, # of connection points: 4
#     Node 9, Type 1, BuildingBlock: KUFVIS_clean_sbu_0, # of connection points: 4
#     Node 10, Type 1, BuildingBlock: KUFVIS_clean_sbu_0, # of connection points: 4
#     Node 11, Type 1, BuildingBlock: KUFVIS_clean_sbu_0, # of connection points: 4
#     Node 12, Type 1, BuildingBlock: KUFVIS_clean_sbu_0, # of connection points: 4
#     Node 13, Type 1, BuildingBlock: KUFVIS_clean_sbu_0, # of connection points: 4
#     Node 14, Type 1, BuildingBlock: KUFVIS_clean_sbu_0, # of connection points: 4
#     Node 15, Type 1, BuildingBlock: KUFVIS_clean_sbu_0, # of connection points: 4
#     Edge 16, Type (0, 1), BuildingBlock: EZIPEK_clean_linker_0, # of connection points: 2
#     Edge 17, Type (0, 1), BuildingBlock: EZIPEK_clean_linker_0, # of connection points: 2
#     Edge 18, Type (0, 1), BuildingBlock: EZIPEK_clean_linker_0, # of connection points: 2
#     Edge 19, Type (0, 1), BuildingBlock: EZIPEK_clean_linker_0, # of connection points: 2
#     Edge 20, Type (0, 1), BuildingBlock: EZIPEK_clean_linker_0, # of connection points: 2
#     Edge 21, Type (0, 1), BuildingBlock: EZIPEK_clean_linker_0, # of connection points: 2
#     Edge 22, Type (0, 1), BuildingBlock: EZIPEK_clean_linker_0, # of connection points: 2
#     Edge 23, Type (0, 1), BuildingBlock: EZIPEK_clean_linker_0, # of connection points: 2
#     Edge 24, Type (0, 1), BuildingBlock: EZIPEK_clean_linker_0, # of connection points: 2
#     Edge 25, Type (0, 1), BuildingBlock: EZIPEK_clean_linker_0, # of connection points: 2
#     Edge 26, Type (0, 1), BuildingBlock: EZIPEK_clean_linker_0, # of connection points: 2
#     Edge 27, Type (0, 1), BuildingBlock: EZIPEK_clean_linker_0, # of connection points: 2
#     Edge 28, Type (0, 1), BuildingBlock: EZIPEK_clean_linker_0, # of connection points: 2
#     Edge 29, Type (0, 1), BuildingBlock: EZIPEK_clean_linker_0, # of connection points: 2
#     Edge 30, Type (0, 1), BuildingBlock: EZIPEK_clean_linker_0, # of connection points: 2
#     Edge 31, Type (0, 1), BuildingBlock: EZIPEK_clean_linker_0, # of connection points: 2
#     Edge 32, Type (0, 1), BuildingBlock: EZIPEK_clean_linker_0, # of connection points: 2
#     Edge 33, Type (0, 1), BuildingBlock: EZIPEK_clean_linker_0, # of connection points: 2
#     Edge 34, Type (0, 1), BuildingBlock: EZIPEK_clean_linker_0, # of connection points: 2
#     Edge 35, Type (0, 1), BuildingBlock: EZIPEK_clean_linker_0, # of connection points: 2
#     Edge 36, Type (0, 1), BuildingBlock: EZIPEK_clean_linker_0, # of connection points: 2
#     Edge 37, Type (0, 1), BuildingBlock: EZIPEK_clean_linker_0, # of connection points: 2
#     Edge 38, Type (0, 1), BuildingBlock: EZIPEK_clean_linker_0, # of connection points: 2
#     Edge 39, Type (0, 1), BuildingBlock: EZIPEK_clean_linker_0, # of connection points: 2
#     Edge 40, Type (0, 1), BuildingBlock: EZIPEK_clean_linker_0, # of connection points: 2
#     Edge 41, Type (0, 1), BuildingBlock: EZIPEK_clean_linker_0, # of connection points: 2
#     Edge 42, Type (0, 1), BuildingBlock: EZIPEK_clean_linker_0, # of connection points: 2
#     Edge 43, Type (0, 1), BuildingBlock: EZIPEK_clean_linker_0, # of connection points: 2
#     Edge 44, Type (0, 1), BuildingBlock: EZIPEK_clean_linker_0, # of connection points: 2
#     Edge 45, Type (0, 1), BuildingBlock: EZIPEK_clean_linker_0, # of connection points: 2
#     Edge 46, Type (0, 1), BuildingBlock: EZIPEK_clean_linker_0, # of connection points: 2
#     Edge 47, Type (0, 1), BuildingBlock: EZIPEK_clean_linker_0, # of connection points: 2
# Relax obj value: 0.111
# Max RMSD: 0.130
# Mean RMSD: 0.127
data_MOF--net-wbl--node1-KUFVIS_clean_sbu_0--node2-MUDLON_clean_linker_0--edge1-EZIPEK_clean_linker_0
_symmetry_space_group_name_H-M    P1
_symmetry_Int_Tables_number       1
_symmetry_cell_setting            triclinic
loop_
_symmetry_equiv_pos_as_xyz
'x, y, z'
_cell_length_a     43.318145
_cell_length_b     43.336308
_cell_length_c     60.537536
_cell_angle_alpha  89.973487
_cell_angle_beta   90.683297
_cell_angle_gamma 90.001964
loop_
_atom_site_label
_atom_site_type_symbol
_atom_site_fract_x
_atom_site_fract_y
_atom_site_fract_z
_atom_type_partial_charge
H0 H 0.13625 0.93405 0.33436 0.0
N1 N 0.0846 0.91783 0.3103 0.0
H2 H 0.15008 0.91611 0.37143 0.0
H3 H 0.05056 0.88348 0.33733 0.0
H4 H 0.06408 0.86635 0.37505 0.0
H5 H 0.1048 0.86446 0.29481 0.0
H6 H 0.15534 0.85438 0.27851 0.0
H7 H 0.12317 0.96236 0.29237 0.0
H8 H 0.17309 0.95211 0.27575 0.0
H9 H 0.09757 0.97558 0.32652 0.0
H10 H 0.02965 0.92231 0.29059 0.0
H11 H 0.06291 0.01975 0.32658 0.0
H12 H 0.99405 0.96619 0.29133 0.0
H13 H 0.93878 0.14887 0.34135 0.0
H14 H 0.92158 0.16109 0.37898 0.0
H15 H 0.89649 0.0658 0.38869 0.0
H16 H 0.91325 0.05367 0.35113 0.0
H17 H 0.89558 0.04653 0.31382 0.0
H18 H 0.84434 0.05049 0.29627 0.0
H19 H 0.86134 0.14638 0.28174 0.0
H20 H 0.91292 0.14218 0.29871 0.0
H21 H 0.98092 0.07502 0.34981 0.0
H22 H 0.01747 0.0337 0.34512 0.0
H23 H 0.98271 0.01806 0.27893 0.0
N24 N 0.93605 0.09449 0.32087 0.0
H25 H 0.945 0.05896 0.2838 0.0
C26 C 0.09243 0.90964 0.33286 0.0
C27 C 0.12027 0.91929 0.34299 0.0
C28 C 0.12817 0.90915 0.36419 0.0
C29 C 0.10817 0.8898 0.37586 0.0
C30 C 0.07983 0.88118 0.36621 0.0
C31 C 0.07214 0.89092 0.3448 0.0
C32 C 0.11002 0.914 0.29521 0.0
C33 C 0.11907 0.88379 0.28999 0.0
C34 C 0.14787 0.87802 0.28074 0.0
C35 C 0.16791 0.90251 0.27615 0.0
C36 C 0.15781 0.93296 0.27919 0.0
C37 C 0.12916 0.93873 0.28881 0.0
C38 C 0.06622 0.94553 0.30841 0.0
C39 C 0.07529 0.97345 0.31842 0.0
C40 C 0.05523 0.99867 0.31864 0.0
C41 C 0.02544 0.99648 0.30922 0.0
C42 C 0.01687 0.96887 0.29856 0.0
C43 C 0.03712 0.94372 0.29816 0.0
C44 C 0.92752 0.10045 0.3435 0.0
C45 C 0.92977 0.13064 0.35168 0.0
C46 C 0.91994 0.13758 0.37301 0.0
C47 C 0.90791 0.11428 0.3865 0.0
C48 C 0.90578 0.084 0.37846 0.0
C49 C 0.9153 0.07713 0.35707 0.0
C50 C 0.90828 0.09412 0.30737 0.0
C51 C 0.88864 0.06819 0.30639 0.0
C52 C 0.85939 0.07046 0.29648 0.0
C53 C 0.84902 0.09881 0.28793 0.0
C54 C 0.86894 0.12433 0.28827 0.0
C55 C 0.89834 0.12191 0.29779 0.0
C56 C 0.95777 0.06903 0.31794 0.0
C57 C 0.98011 0.0623 0.33444 0.0
C58 C 1.00176 0.03887 0.33157 0.0
C59 C 0.00283 0.02213 0.31175 0.0
C60 C 0.98191 0.02983 0.29469 0.0
C61 C 0.96005 0.05326 0.2976 0.0
H62 H 0.95841 0.41065 0.60463 0.0
N63 N 0.92032 0.4253 0.56949 0.0
H64 H 0.94196 0.39729 0.64196 0.0
H65 H 0.8639 0.42978 0.586 0.0
H66 H 0.84748 0.41665 0.62367 0.0
H67 H 0.94918 0.36979 0.57716 0.0
H68 H 0.9359 0.32078 0.55957 0.0
H69 H 0.8864 0.41735 0.53301 0.0
H70 H 0.87372 0.368 0.5149 0.0
H71 H 0.98242 0.41225 0.56814 0.0
H72 H 0.91535 0.48507 0.56088 0.0
H73 H 0.02406 0.4493 0.56296 0.0
H74 H 0.95689 0.52233 0.55491 0.0
H75 H 0.13005 0.53709 0.58645 0.0
H76 H 0.14597 0.54945 0.62469 0.0
H77 H 0.09836 0.63663 0.61979 0.0
H78 H 0.08116 0.62377 0.58242 0.0
H79 H 0.15025 0.59771 0.54704 0.0
H80 H 0.15798 0.64937 0.53161 0.0
H81 H 0.05977 0.65881 0.52167 0.0
H82 H 0.0517 0.60803 0.53808 0.0
H83 H 0.09282 0.51884 0.5374 0.0
H84 H 0.04924 0.48275 0.53714 0.0
H85 H 0.99653 0.54728 0.57594 0.0
N86 N 0.09715 0.57242 0.55866 0.0
H87 H 0.03959 0.58335 0.57544 0.0
C88 C 0.91229 0.42138 0.59242 0.0
C89 C 0.93424 0.41258 0.60859 0.0
C90 C 0.92488 0.40484 0.62991 0.0
C91 C 0.89356 0.40591 0.63544 0.0
C92 C 0.87176 0.41574 0.61964 0.0
C93 C 0.88111 0.42332 0.59827 0.0
C94 C 0.91839 0.39737 0.55656 0.0
C95 C 0.93322 0.36994 0.56331 0.0
C96 C 0.92571 0.34189 0.55324 0.0
C97 C 0.9037 0.34085 0.5361 0.0
C98 C 0.89081 0.36845 0.52811 0.0
C99 C 0.89802 0.39649 0.53839 0.0
C100 C 0.94562 0.44596 0.56502 0.0
C101 C 0.97657 0.43615 0.56518 0.0
C102 C 1.00044 0.45743 0.56202 0.0
C103 C 0.99392 0.48892 0.55855 0.0
C104 C 0.96286 0.49841 0.55787 0.0
C105 C 0.93907 0.47716 0.56113 0.0
C106 C 0.10488 0.57957 0.58141 0.0
C107 C 0.12286 0.5587 0.59375 0.0
C108 C 0.132 0.56577 0.61541 0.0
C109 C 0.12369 0.59413 0.62482 0.0
C110 C 0.10522 0.61477 0.61268 0.0
C111 C 0.09547 0.6074 0.59133 0.0
C112 C 0.10052 0.59876 0.54408 0.0
C113 C 0.1304 0.61053 0.54102 0.0
C114 C 0.13482 0.64004 0.53237 0.0
C115 C 0.10941 0.65801 0.52583 0.0
C116 C 0.07963 0.6453 0.52682 0.0
C117 C 0.0751 0.6161 0.53617 0.0
C118 C 0.06962 0.55374 0.55639 0.0
C119 C 0.07159 0.52535 0.54544 0.0
C120 C 0.04678 0.50464 0.54554 0.0
C121 C 0.0194 0.51192 0.5567 0.0
C122 C 0.01707 0.54095 0.56698 0.0
C123 C 0.04183 0.56163 0.56682 0.0
H124 H 0.62875 0.43495 0.83231 0.0
N125 N 0.57703 0.41869 0.80828 0.0
H126 H 0.64195 0.41824 0.86968 0.0
H127 H 0.54221 0.38588 0.83579 0.0
H128 H 0.55496 0.37039 0.87402 0.0
H129 H 0.59552 0.36496 0.79239 0.0
H130 H 0.64634 0.35325 0.77711 0.0
H131 H 0.61755 0.46207 0.79159 0.0
H132 H 0.66798 0.45027 0.77593 0.0
H133 H 0.58818 0.47662 0.8249 0.0
H134 H 0.52337 0.42254 0.78673 0.0
H135 H 0.55194 0.51959 0.82521 0.0
H136 H 0.48704 0.46589 0.78642 0.0
H137 H 0.42608 0.65155 0.83552 0.0
H138 H 0.41297 0.66731 0.87333 0.0
H139 H 0.41571 0.57219 0.89402 0.0
H140 H 0.42814 0.55637 0.85659 0.0
H141 H 0.37111 0.58793 0.83948 0.0
H142 H 0.32154 0.59253 0.82131 0.0
H143 H 0.36564 0.59706 0.75792 0.0
H144 H 0.41651 0.59557 0.77641 0.0
H145 H 0.4882 0.59993 0.81034 0.0
H146 H 0.52586 0.5588 0.804 0.0
H147 H 0.45411 0.49076 0.81291 0.0
N148 N 0.42871 0.59412 0.81995 0.0
H149 H 0.41663 0.53204 0.81869 0.0
C150 C 0.58457 0.41111 0.83099 0.0
C151 C 0.61249 0.42067 0.84105 0.0
C152 C 0.62006 0.41122 0.86245 0.0
C153 C 0.59955 0.39288 0.87447 0.0
C154 C 0.57116 0.38432 0.86487 0.0
C155 C 0.56388 0.3932 0.8432 0.0
C156 C 0.60255 0.41425 0.79337 0.0
C157 C 0.61071 0.38382 0.78805 0.0
C158 C 0.6397 0.37712 0.77943 0.0
C159 C 0.66091 0.40088 0.77563 0.0
C160 C 0.65181 0.43166 0.77876 0.0
C161 C 0.62288 0.43835 0.7877 0.0
C162 C 0.55846 0.4462 0.80575 0.0
C163 C 0.56641 0.47419 0.81614 0.0
C164 C 0.5456 0.49888 0.81624 0.0
C165 C 0.51638 0.4962 0.80598 0.0
C166 C 0.50909 0.46862 0.7948 0.0
C167 C 0.52993 0.44394 0.79473 0.0
C168 C 0.42838 0.6029 0.84304 0.0
C169 C 0.42488 0.63423 0.84838 0.0
C170 C 0.41729 0.64319 0.86985 0.0
C171 C 0.41337 0.62085 0.88634 0.0
C172 C 0.41882 0.58971 0.88147 0.0
C173 C 0.42617 0.58073 0.86003 0.0
C174 C 0.39836 0.59208 0.80942 0.0
C175 C 0.37085 0.5902 0.82171 0.0
C176 C 0.3421 0.59267 0.81129 0.0
C177 C 0.33975 0.59558 0.78827 0.0
C178 C 0.36689 0.59533 0.77576 0.0
C179 C 0.39588 0.59424 0.78629 0.0
C180 C 0.44969 0.56916 0.81494 0.0
C181 C 0.48063 0.57612 0.81066 0.0
C182 C 0.50212 0.55257 0.80719 0.0
C183 C 0.4931 0.5214 0.808 0.0
C184 C 0.46184 0.51447 0.81183 0.0
C185 C 0.44035 0.53806 0.81525 0.0
H186 H 0.45578 0.88794 0.0949 0.0
N187 N 0.42654 0.92968 0.06778 0.0
H188 H 0.44234 0.87568 0.13303 0.0
H189 H 0.38252 0.95523 0.09193 0.0
H190 H 0.36796 0.94174 0.12992 0.0
H191 H 0.37285 0.91086 0.05144 0.0
H192 H 0.36126 0.86051 0.03478 0.0
H193 H 0.46981 0.88806 0.05269 0.0
H194 H 0.45822 0.83824 0.03556 0.0
H195 H 0.48796 0.92312 0.07931 0.0
H196 H 0.42239 0.98371 0.04728 0.0
H197 H 0.52849 0.96109 0.07433 0.0
H198 H 0.46328 0.0222 0.04215 0.0
H199 H 0.65179 0.1094 0.06984 0.0
H200 H 0.67169 0.12173 0.10679 0.0
H201 H 0.59729 0.07015 0.13571 0.0
H202 H 0.5758 0.05996 0.0993 0.0
H203 H 0.58028 0.13741 0.08019 0.0
H204 H 0.5839 0.18923 0.06478 0.0
H205 H 0.60248 0.15076 0.00056 0.0
H206 H 0.60249 0.09863 0.01669 0.0
H207 H 0.60077 0.02528 0.04637 0.0
H208 H 0.55925 0.98683 0.04558 0.0
H209 H 0.49465 0.05646 0.06673 0.0
N210 N 0.59742 0.08373 0.05939 0.0
H211 H 0.53624 0.09465 0.06746 0.0
C212 C 0.42058 0.9232 0.09071 0.0
C213 C 0.43725 0.90057 0.10254 0.0
C214 C 0.42936 0.89329 0.12424 0.0
C215 C 0.40426 0.9079 0.13431 0.0
C216 C 0.38755 0.93039 0.12249 0.0
C217 C 0.39586 0.93812 0.10094 0.0
C218 C 0.42206 0.90343 0.05341 0.0
C219 C 0.3917 0.89553 0.0474 0.0
C220 C 0.3851 0.86687 0.03795 0.0
C221 C 0.40889 0.84573 0.03406 0.0
C222 C 0.4396 0.8544 0.03838 0.0
C223 C 0.44617 0.88294 0.04821 0.0
C224 C 0.45189 0.95041 0.06351 0.0
C225 C 0.48222 0.94434 0.07089 0.0
C226 C 0.50557 0.96617 0.06797 0.0
C227 C 0.49915 0.99468 0.05782 0.0
C228 C 0.46893 1.00055 0.05018 0.0
C229 C 0.44563 0.97855 0.05295 0.0
C230 C 0.61166 0.08467 0.08133 0.0
C231 C 0.63983 0.10048 0.0841 0.0
C232 C 0.65124 0.10747 0.10517 0.0
C233 C 0.63571 0.09721 0.12401 0.0
C234 C 0.60941 0.0786 0.12138 0.0
C235 C 0.59711 0.07285 0.10034 0.0
C236 C 0.59236 0.11399 0.04973 0.0
C237 C 0.58528 0.13993 0.0628 0.0
C238 C 0.58719 0.16962 0.05397 0.0
C239 C 0.59419 0.17404 0.03158 0.0
C240 C 0.59777 0.14799 0.01799 0.0
C241 C 0.59752 0.11828 0.0271 0.0
C242 C 0.57165 0.0628 0.05673 0.0
C243 C 0.57752 0.03227 0.05045 0.0
C244 C 0.55385 0.01035 0.05018 0.0
C245 C 0.52368 0.01858 0.05615 0.0
C246 C 0.51755 0.04948 0.06176 0.0
C247 C 0.54131 0.07137 0.06216 0.0
H248 H 0.08443 0.6487 0.92216 0.0
N249 N 0.07909 0.593 0.94008 0.0
H250 H 0.09841 0.66125 0.88392 0.0
H251 H 0.08487 0.55177 0.90576 0.0
H252 H 0.09769 0.56444 0.86763 0.0
H253 H 0.09147 0.63046 0.97376 0.0
H254 H 0.14223 0.64025 0.99108 0.0
H255 H 0.13187 0.55935 0.93354 0.0
H256 H 0.18215 0.56856 0.95119 0.0
H257 H 0.08988 0.53067 0.94555 0.0
H258 H 0.01891 0.60039 0.94574 0.0
H259 H 0.05114 0.4908 0.95016 0.0
H260 H 0.97973 0.56042 0.95104 0.0
H261 H 0.96146 0.38555 0.92215 0.0
H262 H 0.94973 0.36789 0.88424 0.0
H263 H 0.86429 0.41888 0.88502 0.0
H264 H 0.87653 0.43768 0.92198 0.0
H265 H 0.88397 0.46505 0.95977 0.0
H266 H 0.83357 0.45429 0.97593 0.0
H267 H 0.85899 0.35885 0.98436 0.0
H268 H 0.90945 0.36948 0.96795 0.0
H269 H 0.919 0.47795 0.92861 0.0
H270 H 0.9559 0.52036 0.92967 0.0
H271 H 0.01427 0.46792 0.9743 0.0
N272 N 0.92653 0.42099 0.94784 0.0
H273 H 0.97749 0.42504 0.97249 0.0
C274 C 0.08316 0.59944 0.91688 0.0
C275 C 0.08676 0.63025 0.91023 0.0
C276 C 0.09479 0.63738 0.88854 0.0
C277 C 0.09888 0.61373 0.87305 0.0
C278 C 0.09436 0.58295 0.87939 0.0
C279 C 0.08688 0.57578 0.90117 0.0
C280 C 0.10764 0.59396 0.95263 0.0
C281 C 0.11101 0.61635 0.96919 0.0
C282 C 0.13989 0.62203 0.97893 0.0
C283 C 0.16583 0.60516 0.97232 0.0
C284 C 0.16232 0.5817 0.95653 0.0
C285 C 0.13352 0.57627 0.94662 0.0
C286 C 0.05736 0.56881 0.94528 0.0
C287 C 0.06606 0.53761 0.94703 0.0
C288 C 0.04372 0.51465 0.94978 0.0
C289 C 0.01219 0.52229 0.95093 0.0
C290 C 0.0037 0.5536 0.9499 0.0
C291 C 0.02606 0.57651 0.94706 0.0
C292 C 0.91977 0.41241 0.92519 0.0
C293 C 0.94039 0.39312 0.91402 0.0
C294 C 0.9337 0.38305 0.89251 0.0
C295 C 0.90596 0.3918 0.88203 0.0
C296 C 0.88568 0.41171 0.89293 0.0
C297 C 0.89267 0.42229 0.91416 0.0
C298 C 0.90058 0.41789 0.96248 0.0
C299 C 0.87935 0.44206 0.96581 0.0
C300 C 0.8505 0.43595 0.97504 0.0
C301 C 0.84264 0.40578 0.98125 0.0
C302 C 0.86477 0.3823 0.97979 0.0
C303 C 0.8935 0.38836 0.97047 0.0
C304 C 0.94564 0.44809 0.95039 0.0
C305 C 0.93953 0.47564 0.93883 0.0
C306 C 0.96066 0.50004 0.93956 0.0
C307 C 0.98828 0.49755 0.95195 0.0
C308 C 0.99357 0.47047 0.96427 0.0
C309 C 0.97247 0.44605 0.96344 0.0
H310 H 0.55183 0.4147 0.15994 0.0
N311 N 0.59404 0.43039 0.19222 0.0
H312 H 0.56322 0.40247 0.12145 0.0
H313 H 0.64805 0.43499 0.1721 0.0
H314 H 0.65946 0.42252 0.13336 0.0
H315 H 0.63663 0.42112 0.22338 0.0
H316 H 0.65246 0.3712 0.23923 0.0
H317 H 0.56147 0.37613 0.18888 0.0
H318 H 0.57693 0.32673 0.20496 0.0
H319 H 0.53219 0.41812 0.19831 0.0
H320 H 0.60034 0.49058 0.19808 0.0
H321 H 0.49141 0.45622 0.20224 0.0
H322 H 0.55958 0.52904 0.20274 0.0
H323 H 0.38457 0.54679 0.17195 0.0
H324 H 0.36669 0.5582 0.13397 0.0
H325 H 0.41886 0.64294 0.13505 0.0
H326 H 0.43793 0.63096 0.17203 0.0
H327 H 0.46834 0.62031 0.21108 0.0
H328 H 0.46211 0.67106 0.22786 0.0
H329 H 0.364 0.65604 0.23216 0.0
H330 H 0.37017 0.60479 0.21552 0.0
H331 H 0.47713 0.58699 0.17771 0.0
H332 H 0.51944 0.55014 0.17963 0.0
H333 H 0.46769 0.49458 0.22553 0.0
N334 N 0.42085 0.58163 0.19778 0.0
H335 H 0.42483 0.53145 0.22298 0.0
C336 C 0.59919 0.42604 0.16893 0.0
C337 C 0.5753 0.41702 0.15433 0.0
C338 C 0.58176 0.40995 0.13236 0.0
C339 C 0.61212 0.41167 0.12468 0.0
C340 C 0.63588 0.42123 0.13905 0.0
C341 C 0.62939 0.42838 0.16101 0.0
C342 C 0.59776 0.40263 0.20514 0.0
C343 C 0.62285 0.4008 0.21994 0.0
C344 C 0.63191 0.37241 0.22889 0.0
C345 C 0.61578 0.34543 0.22323 0.0
C346 C 0.58942 0.34741 0.20964 0.0
C347 C 0.58051 0.37576 0.20057 0.0
C348 C 0.56956 0.45149 0.1978 0.0
C349 C 0.53858 0.44213 0.19955 0.0
C350 C 0.51514 0.46407 0.20192 0.0
C351 C 0.52213 0.49579 0.20263 0.0
C352 C 0.55327 0.50489 0.20186 0.0
C353 C 0.57662 0.48296 0.19942 0.0
C354 C 0.41207 0.58814 0.17511 0.0
C355 C 0.39233 0.56764 0.16387 0.0
C356 C 0.38211 0.57416 0.14234 0.0
C357 C 0.39112 0.60164 0.13195 0.0
C358 C 0.41144 0.62178 0.14292 0.0
C359 C 0.4222 0.61493 0.16413 0.0
C360 C 0.41957 0.60842 0.21201 0.0
C361 C 0.44557 0.62722 0.21621 0.0
C362 C 0.44204 0.6564 0.22569 0.0
C363 C 0.41258 0.66734 0.23111 0.0
C364 C 0.38693 0.64797 0.22816 0.0
C365 C 0.39047 0.61873 0.2188 0.0
C366 C 0.44758 0.56188 0.20016 0.0
C367 C 0.47487 0.56705 0.18831 0.0
C368 C 0.49924 0.54599 0.18958 0.0
C369 C 0.49701 0.51929 0.20272 0.0
C370 C 0.47005 0.51466 0.21502 0.0
C371 C 0.44564 0.53577 0.21373 0.0
H372 H 0.38424 0.93671 0.4253 0.0
N373 N 0.43536 0.91811 0.44881 0.0
H374 H 0.36975 0.92041 0.38789 0.0
H375 H 0.46849 0.88404 0.42118 0.0
H376 H 0.45454 0.86878 0.38316 0.0
H377 H 0.41746 0.86333 0.46313 0.0
H378 H 0.36737 0.85042 0.47913 0.0
H379 H 0.39564 0.96023 0.46875 0.0
H380 H 0.34595 0.94715 0.48452 0.0
H381 H 0.42078 0.97837 0.4393 0.0
H382 H 0.49427 0.91832 0.46082 0.0
H383 H 0.45557 0.02185 0.4398 0.0
H384 H 0.53078 0.9605 0.45807 0.0
H385 H 0.58472 0.15346 0.42001 0.0
H386 H 0.59788 0.17031 0.38239 0.0
H387 H 0.60542 0.07528 0.36216 0.0
H388 H 0.59213 0.05845 0.39955 0.0
H389 H 0.64243 0.0807 0.42049 0.0
H390 H 0.69055 0.08669 0.44041 0.0
H391 H 0.64118 0.11061 0.49945 0.0
H392 H 0.59221 0.10867 0.47842 0.0
H393 H 0.52675 0.09 0.41863 0.0
H394 H 0.49092 0.04797 0.4227 0.0
H395 H 0.5552 0.00284 0.46762 0.0
N396 N 0.58394 0.09572 0.43549 0.0
H397 H 0.59251 0.04263 0.46083 0.0
C398 C 0.42732 0.91109 0.42617 0.0
C399 C 0.39975 0.92187 0.41632 0.0
C400 C 0.39149 0.91265 0.39497 0.0
C401 C 0.41101 0.89326 0.3829 0.0
C402 C 0.43915 0.88361 0.39232 0.0
C403 C 0.4471 0.89231 0.41388 0.0
C404 C 0.41051 0.91265 0.46417 0.0
C405 C 0.40254 0.88183 0.46854 0.0
C406 C 0.37395 0.87444 0.4776 0.0
C407 C 0.35295 0.89785 0.48276 0.0
C408 C 0.36193 0.92879 0.48058 0.0
C409 C 0.39048 0.9362 0.47134 0.0
C410 C 0.45456 0.94519 0.45114 0.0
C411 C 0.44438 0.97465 0.44467 0.0
C412 C 0.46492 0.99954 0.44418 0.0
C413 C 0.49675 0.99535 0.44866 0.0
C414 C 0.50669 0.96558 0.45504 0.0
C415 C 0.48578 0.94109 0.45655 0.0
C416 C 0.58732 0.10483 0.41259 0.0
C417 C 0.58851 0.13633 0.40732 0.0
C418 C 0.59605 0.14589 0.38598 0.0
C419 C 0.6027 0.12396 0.36967 0.0
C420 C 0.60028 0.09245 0.37459 0.0
C421 C 0.59254 0.0829 0.39585 0.0
C422 C 0.61312 0.09528 0.44767 0.0
C423 C 0.64136 0.08791 0.43753 0.0
C424 C 0.66922 0.09104 0.44904 0.0
C425 C 0.66973 0.09954 0.47141 0.0
C426 C 0.64151 0.10466 0.48208 0.0
C427 C 0.61359 0.10337 0.47015 0.0
C428 C 0.56299 0.06982 0.43883 0.0
C429 C 0.53345 0.0707 0.429 0.0
C430 C 0.51246 0.0466 0.43181 0.0
C431 C 0.51946 0.02134 0.4457 0.0
C432 C 0.54871 0.02102 0.45626 0.0
C433 C 0.57032 0.04447 0.45258 0.0
H434 H 0.06057 0.88282 0.66036 0.0
N435 N 0.09015 0.92281 0.6886 0.0
H436 H 0.07604 0.86999 0.62271 0.0
H437 H 0.13596 0.94745 0.66569 0.0
H438 H 0.15219 0.93372 0.62812 0.0
H439 H 0.14319 0.90617 0.70724 0.0
H440 H 0.15555 0.85608 0.72415 0.0
H441 H 0.04766 0.87897 0.70132 0.0
H442 H 0.05997 0.82939 0.7185 0.0
H443 H 0.02835 0.91622 0.67817 0.0
H444 H 0.09525 0.97758 0.70791 0.0
H445 H 0.9878 0.95401 0.68432 0.0
H446 H 0.05451 0.01612 0.71363 0.0
H447 H 0.88434 0.04142 0.67128 0.0
H448 H 0.86832 0.05577 0.63346 0.0
H449 H 0.91975 0.14065 0.63938 0.0
H450 H 0.9371 0.12565 0.67641 0.0
H451 H 0.86456 0.10041 0.70981 0.0
H452 H 0.85634 0.15189 0.72533 0.0
H453 H 0.95393 0.16014 0.73863 0.0
H454 H 0.96254 0.10947 0.72226 0.0
H455 H 0.91805 0.01854 0.71677 0.0
H456 H 0.9602 0.98068 0.7165 0.0
H457 H 0.02011 0.04862 0.68731 0.0
N458 N 0.91809 0.07491 0.69959 0.0
H459 H 0.97783 0.08608 0.68728 0.0
C460 C 0.09678 0.91672 0.66572 0.0
C461 C 0.08 0.8948 0.65332 0.0
C462 C 0.08901 0.8872 0.6319 0.0
C463 C 0.11518 0.90098 0.62263 0.0
C464 C 0.13182 0.92299 0.63493 0.0
C465 C 0.12254 0.93089 0.65624 0.0
C466 C 0.09461 0.89657 0.70297 0.0
C467 C 0.12473 0.88993 0.71031 0.0
C468 C 0.13177 0.86143 0.71991 0.0
C469 C 0.10865 0.83916 0.72253 0.0
C470 C 0.07804 0.84646 0.71673 0.0
C471 C 0.07106 0.87488 0.70687 0.0
C472 C 0.06504 0.9438 0.69292 0.0
C473 C 0.0344 0.93753 0.68635 0.0
C474 C 0.01109 0.95927 0.68985 0.0
C475 C 0.01795 0.98797 0.69955 0.0
C476 C 0.04855 0.99422 0.7061 0.0
C477 C 0.07176 0.97223 0.70293 0.0
C478 C 0.91149 0.08254 0.67678 0.0
C479 C 0.89253 0.06284 0.66423 0.0
C480 C 0.88332 0.07107 0.64281 0.0
C481 C 0.89251 0.09945 0.63384 0.0
C482 C 0.91224 0.11877 0.64611 0.0
C483 C 0.92212 0.11017 0.66724 0.0
C484 C 0.91409 0.10089 0.7144 0.0
C485 C 0.88414 0.11291 0.71659 0.0
C486 C 0.87945 0.14233 0.7253 0.0
C487 C 0.90459 0.15996 0.73278 0.0
C488 C 0.93428 0.14691 0.73273 0.0
C489 C 0.93913 0.11779 0.72334 0.0
C490 C 0.94478 0.05522 0.70238 0.0
C491 C 0.94048 0.02541 0.71077 0.0
C492 C 0.96446 0.00378 0.71043 0.0
C493 C 0.99341 0.0117 0.70185 0.0
C494 C 0.99814 0.04197 0.69423 0.0
C495 C 0.97399 0.06344 0.69425 0.0
Mn496 Mn 0.34461 0.67292 0.0139 0.0
Mn497 Mn 0.35007 0.59506 0.01276 0.0
C498 C 0.34815 0.64521 0.04659 0.0
C499 C 0.36754 0.72157 0.01469 0.0
C500 C 0.29022 0.62988 0.00369 0.0
O501 O 0.35749 0.6644 0.98223 0.0
O502 O 0.36275 0.61253 0.98385 0.0
C503 C 0.41801 0.59026 0.00902 0.0
N504 N 0.39161 0.58368 0.0201 0.0
C505 C 0.41994 0.55531 0.04786 0.0
C506 C 0.44738 0.56162 0.03667 0.0
C507 C 0.44641 0.57928 0.01721 0.0
C508 C 0.39234 0.56703 0.03898 0.0
H509 H 0.41743 0.60386 0.99407 0.0
C510 C 0.36454 0.63842 0.9737 0.0
O511 O 0.33922 0.71791 0.00794 0.0
O512 O 0.38302 0.69696 0.01985 0.0
N513 N 0.33928 0.57513 0.03986 0.0
C514 C 0.31072 0.57012 0.04829 0.0
C515 C 0.30775 0.55364 0.06812 0.0
C516 C 0.33411 0.54161 0.07874 0.0
C517 C 0.36313 0.54566 0.06916 0.0
C518 C 0.36464 0.56249 0.04944 0.0
H519 H 0.29039 0.5783 0.0398 0.0
O520 O 0.33636 0.67271 0.04632 0.0
O521 O 0.35683 0.63457 0.02759 0.0
O522 O 0.30108 0.65691 0.00683 0.0
O523 O 0.30627 0.60516 0.00549 0.0
C524 C 0.39057 0.53349 0.07834 0.0
C525 C 0.41895 0.53821 0.06765 0.0
H526 H 0.46933 0.55321 0.04295 0.0
H527 H 0.46751 0.5844 0.00855 0.0
H528 H 0.28516 0.55002 0.07512 0.0
H529 H 0.33175 0.52891 0.09404 0.0
H530 H 0.39013 0.5205 0.09362 0.0
H531 H 0.43993 0.52892 0.07494 0.0
Mn532 Mn 0.34474 0.84726 0.26269 0.0
Mn533 Mn 0.42232 0.85655 0.26451 0.0
C534 C 0.37032 0.85167 0.29638 0.0
C535 C 0.29493 0.86747 0.26156 0.0
C536 C 0.39111 0.7955 0.25407 0.0
O537 O 0.35434 0.86102 0.23145 0.0
O538 O 0.40573 0.86982 0.2349 0.0
C539 C 0.42757 0.92459 0.26157 0.0
N540 N 0.43245 0.89793 0.27296 0.0
C541 C 0.45883 0.92527 0.30222 0.0
C542 C 0.45345 0.95308 0.29098 0.0
C543 C 0.43779 0.95271 0.27054 0.0
C544 C 0.44783 0.89799 0.29253 0.0
H545 H 0.41635 0.9243 0.24567 0.0
C546 C 0.38023 0.86976 0.22378 0.0
O547 O 0.30051 0.83952 0.25502 0.0
O548 O 0.31836 0.88417 0.26764 0.0
N549 N 0.4406 0.84483 0.29225 0.0
C550 C 0.44448 0.81598 0.30082 0.0
C551 C 0.45977 0.81233 0.32125 0.0
C552 C 0.47127 0.83829 0.33251 0.0
C553 C 0.46768 0.86766 0.32311 0.0
C554 C 0.4522 0.86988 0.30272 0.0
H555 H 0.43571 0.79589 0.29228 0.0
O556 O 0.34352 0.83842 0.29506 0.0
O557 O 0.38164 0.8613 0.27782 0.0
O558 O 0.36335 0.80476 0.25622 0.0
O559 O 0.41462 0.81299 0.25647 0.0
C560 C 0.4789 0.8948 0.33317 0.0
C561 C 0.47458 0.92358 0.32269 0.0
H562 H 0.46139 0.9748 0.29783 0.0
H563 H 0.43385 0.97403 0.26162 0.0
H564 H 0.46259 0.78955 0.32832 0.0
H565 H 0.48293 0.83539 0.3483 0.0
H566 H 0.49084 0.89381 0.34898 0.0
H567 H 0.48324 0.9443 0.3306 0.0
Mn568 Mn 0.17651 0.83872 0.49465 0.0
Mn569 Mn 0.09895 0.84799 0.4938 0.0
C570 C 0.15036 0.84449 0.4612 0.0
C571 C 0.22633 0.85916 0.49592 0.0
C572 C 0.13047 0.78671 0.50337 0.0
O573 O 0.16724 0.85131 0.52631 0.0
O574 O 0.11607 0.8615 0.52317 0.0
C575 C 0.09301 0.91596 0.49669 0.0
N576 N 0.08823 0.88924 0.48537 0.0
C577 C 0.06083 0.91623 0.45641 0.0
C578 C 0.06608 0.9441 0.46757 0.0
C579 C 0.08221 0.94395 0.48783 0.0
C580 C 0.07239 0.88909 0.46599 0.0
H581 H 0.10459 0.91583 0.51246 0.0
C582 C 0.14165 0.86067 0.53418 0.0
O583 O 0.22093 0.83091 0.50184 0.0
O584 O 0.20273 0.87599 0.49037 0.0
N585 N 0.08033 0.83603 0.46623 0.0
C586 C 0.07685 0.80716 0.45763 0.0
C587 C 0.06129 0.80332 0.43733 0.0
C588 C 0.04914 0.82912 0.42621 0.0
C589 C 0.05241 0.85851 0.4356 0.0
C590 C 0.06818 0.86092 0.45586 0.0
H591 H 0.08611 0.78719 0.46606 0.0
O592 O 0.17729 0.83142 0.46202 0.0
O593 O 0.13933 0.85315 0.48009 0.0
O594 O 0.15812 0.79578 0.50028 0.0
O595 O 0.10701 0.80448 0.50197 0.0
C596 C 0.04064 0.88551 0.42565 0.0
C597 C 0.04473 0.91433 0.43608 0.0
H598 H 0.05772 0.96572 0.4608 0.0
H599 H 0.08607 0.96531 0.49668 0.0
H600 H 0.05875 0.78053 0.43024 0.0
H601 H 0.03728 0.82609 0.4105 0.0
H602 H 0.02842 0.88438 0.40995 0.0
H603 H 0.03565 0.93495 0.42825 0.0
Mn604 Mn 0.16436 0.66325 0.74445 0.0
Mn605 Mn 0.15282 0.586 0.74468 0.0
C606 C 0.16157 0.636 0.71167 0.0
C607 C 0.14605 0.71382 0.74273 0.0
C608 C 0.21449 0.61511 0.75556 0.0
O609 O 0.14776 0.65617 0.77514 0.0
O610 O 0.1419 0.6043 0.77391 0.0
C611 C 0.0847 0.58609 0.74851 0.0
N612 N 0.11051 0.57812 0.73723 0.0
C613 C 0.08018 0.55188 0.70945 0.0
C614 C 0.05328 0.56007 0.72069 0.0
C615 C 0.05557 0.57728 0.74029 0.0
C616 C 0.10856 0.56159 0.71833 0.0
H617 H 0.08635 0.59887 0.76373 0.0
C618 C 0.14037 0.63044 0.78381 0.0
O619 O 0.17321 0.70764 0.75086 0.0
O620 O 0.12908 0.69071 0.73651 0.0
N621 N 0.16208 0.56552 0.71753 0.0
C622 C 0.19024 0.55898 0.70889 0.0
C623 C 0.19198 0.54211 0.68914 0.0
C624 C 0.16482 0.53162 0.67872 0.0
C625 C 0.13617 0.53777 0.6883 0.0
C626 C 0.13586 0.55479 0.70796 0.0
H627 H 0.21123 0.56684 0.71687 0.0
O628 O 0.17596 0.66221 0.71267 0.0
O629 O 0.14991 0.62612 0.73004 0.0
O630 O 0.20537 0.64308 0.75397 0.0
O631 O 0.197 0.59198 0.75167 0.0
C632 C 0.1079 0.52763 0.67913 0.0
C633 C 0.07993 0.53461 0.68973 0.0
H634 H 0.03077 0.55323 0.71443 0.0
H635 H 0.03492 0.58358 0.74912 0.0
H636 H 0.21421 0.53724 0.68195 0.0
H637 H 0.16624 0.5187 0.66345 0.0
H638 H 0.1074 0.51454 0.66389 0.0
H639 H 0.05833 0.52682 0.68246 0.0
Mn640 Mn 0.84421 0.16714 0.51466 0.0
Mn641 Mn 0.85655 0.09007 0.51625 0.0
C642 C 0.84949 0.14174 0.54812 0.0
C643 C 0.86148 0.21796 0.51433 0.0
C644 C 0.79411 0.1181 0.50603 0.0
O645 O 0.85892 0.15854 0.48369 0.0
O646 O 0.86613 0.10692 0.48635 0.0
C647 C 0.92444 0.09056 0.51094 0.0
N648 N 0.8992 0.08274 0.52291 0.0
C649 C 0.93083 0.0573 0.55034 0.0
C650 C 0.95717 0.06522 0.53835 0.0
C651 C 0.95395 0.082 0.51859 0.0
C652 C 0.90206 0.06678 0.54202 0.0
H653 H 0.92207 0.10307 0.49563 0.0
C654 C 0.86655 0.1325 0.47565 0.0
O655 O 0.834 0.21078 0.50726 0.0
O656 O 0.87945 0.19559 0.52053 0.0
N657 N 0.84863 0.07088 0.54412 0.0
C658 C 0.82093 0.06471 0.55359 0.0
C659 C 0.82014 0.04841 0.57363 0.0
C660 C 0.84777 0.03807 0.58348 0.0
C661 C 0.87593 0.04389 0.5731 0.0
C662 C 0.87528 0.06037 0.55319 0.0
H663 H 0.79957 0.07239 0.54602 0.0
O664 O 0.83482 0.16779 0.54688 0.0
O665 O 0.86 0.13097 0.52966 0.0
O666 O 0.80305 0.14615 0.50691 0.0
O667 O 0.81199 0.09535 0.51013 0.0
C668 C 0.9046 0.03392 0.5817 0.0
C669 C 0.93203 0.04056 0.5703 0.0
H670 H 0.97996 0.05857 0.54416 0.0
H671 H 0.97416 0.08816 0.50921 0.0
H672 H 0.79828 0.0438 0.58145 0.0
H673 H 0.84706 0.02549 0.59894 0.0
H674 H 0.90583 0.02125 0.59711 0.0
H675 H 0.95396 0.03295 0.57714 0.0
Mn676 Mn 0.83704 0.34082 0.76359 0.0
Mn677 Mn 0.91456 0.35044 0.76334 0.0
C678 C 0.86414 0.34648 0.79666 0.0
C679 C 0.7872 0.36127 0.76285 0.0
C680 C 0.8832 0.2889 0.75451 0.0
O681 O 0.84522 0.35369 0.73188 0.0
O682 O 0.89656 0.36324 0.73409 0.0
C683 C 0.91912 0.41845 0.75969 0.0
N684 N 0.92493 0.39199 0.77112 0.0
C685 C 0.95273 0.41995 0.79938 0.0
C686 C 0.9466 0.44753 0.78804 0.0
C687 C 0.92973 0.44676 0.7681 0.0
C688 C 0.94137 0.39246 0.79025 0.0
H689 H 0.90679 0.41789 0.74417 0.0
C690 C 0.8706 0.36278 0.72357 0.0
O691 O 0.79246 0.333 0.75689 0.0
O692 O 0.81086 0.37798 0.7684 0.0
N693 N 0.93416 0.33928 0.79074 0.0
C694 C 0.93834 0.31063 0.79958 0.0
C695 C 0.95455 0.30743 0.81968 0.0
C696 C 0.96662 0.33363 0.83034 0.0
C697 C 0.96266 0.36278 0.82067 0.0
C698 C 0.94628 0.36455 0.80062 0.0
H699 H 0.92912 0.29038 0.7915 0.0
O700 O 0.83727 0.33325 0.79621 0.0
O701 O 0.87456 0.35534 0.77764 0.0
O702 O 0.85553 0.29801 0.75751 0.0
O703 O 0.90666 0.30668 0.75584 0.0
C704 C 0.9743 0.39015 0.83016 0.0
C705 C 0.96947 0.4187 0.81947 0.0
H706 H 0.95479 0.46941 0.79448 0.0
H707 H 0.9251 0.46792 0.75915 0.0
H708 H 0.95763 0.28482 0.82698 0.0
H709 H 0.97897 0.33109 0.8459 0.0
H710 H 0.98695 0.38951 0.8457 0.0
H711 H 0.97844 0.4396 0.82696 0.0
Mn712 Mn 0.66506 0.35127 0.99567 0.0
Mn713 Mn 0.58787 0.36302 0.99346 0.0
C714 C 0.6396 0.35519 0.96198 0.0
C715 C 0.71566 0.36973 0.99615 0.0
C716 C 0.61634 0.3009 0.00385 0.0
O717 O 0.65635 0.36641 0.02658 0.0
O718 O 0.60469 0.37324 0.02352 0.0
C719 C 0.5881 0.431 0.99857 0.0
N720 N 0.58043 0.40549 0.9866 0.0
C721 C 0.55553 0.43648 0.9586 0.0
C722 C 0.56334 0.46309 0.97058 0.0
C723 C 0.57975 0.46033 0.99064 0.0
C724 C 0.56475 0.40791 0.96723 0.0
H725 H 0.60033 0.42898 0.0141 0.0
C726 C 0.63027 0.37398 0.03444 0.0
O727 O 0.70917 0.34221 0.00322 0.0
O728 O 0.69273 0.38701 0.98995 0.0
N729 N 0.56867 0.35443 0.96548 0.0
C730 C 0.56239 0.3265 0.95611 0.0
C731 C 0.54632 0.32524 0.93585 0.0
C732 C 0.5363 0.35264 0.92565 0.0
C733 C 0.54214 0.38104 0.93596 0.0
C734 C 0.55836 0.38087 0.95611 0.0
H735 H 0.56985 0.30533 0.96392 0.0
O736 O 0.66588 0.34101 0.96356 0.0
O737 O 0.6287 0.36622 0.98026 0.0
O738 O 0.64442 0.30993 0.00326 0.0
O739 O 0.59346 0.31867 -0.00027 0.0
C740 C 0.53246 0.40952 0.92704 0.0
C741 C 0.53909 0.43722 0.93837 0.0
H742 H 0.55686 0.48574 0.96455 0.0
H743 H 0.5858 0.48074 3e-05 0.0
H744 H 0.54168 0.3032 0.9281 0.0
H745 H 0.52397 0.35158 0.91 0.0
H746 H 0.52 0.41038 0.91143 0.0
H747 H 0.53169 0.45898 0.93128 0.0
Mn748 Mn 0.67761 0.17138 0.24272 0.0
Mn749 Mn 0.66077 0.09527 0.24487 0.0
C750 C 0.67368 0.14293 0.2103 0.0
C751 C 0.66114 0.22241 0.24106 0.0
C752 C 0.72393 0.12135 0.25656 0.0
O753 O 0.66115 0.1662 0.27377 0.0
O754 O 0.64725 0.11595 0.27266 0.0
C755 C 0.59255 0.10007 0.24373 0.0
N756 N 0.61918 0.08963 0.23465 0.0
C757 C 0.59115 0.06556 0.20472 0.0
C758 C 0.56346 0.07633 0.21366 0.0
C759 C 0.56418 0.09363 0.23327 0.0
C760 C 0.61874 0.07291 0.2158 0.0
H761 H 0.59299 0.11313 0.25884 0.0
C762 C 0.64918 0.14223 0.28235 0.0
O763 O 0.68839 0.21536 0.24868 0.0
O764 O 0.64326 0.19996 0.23491 0.0
N765 N 0.67229 0.07254 0.21915 0.0
C766 C 0.70091 0.06265 0.21326 0.0
C767 C 0.7041 0.04371 0.19461 0.0
C768 C 0.67785 0.03495 0.1823 0.0
C769 C 0.64861 0.04502 0.18886 0.0
C770 C 0.64682 0.06342 0.20781 0.0
H771 H 0.72117 0.06913 0.22272 0.0
O772 O 0.68855 0.16891 0.21069 0.0
O773 O 0.66181 0.13447 0.22896 0.0
O774 O 0.71762 0.14952 0.25218 0.0
O775 O 0.7044 0.09932 0.25472 0.0
C776 C 0.62116 0.03736 0.17742 0.0
C777 C 0.59247 0.04781 0.18525 0.0
H778 H 0.54152 0.07135 0.20565 0.0
H779 H 0.5429 0.10193 0.24033 0.0
H780 H 0.72675 0.03598 0.18969 0.0
H781 H 0.68043 0.02056 0.16781 0.0
H782 H 0.62187 0.02346 0.16257 0.0
H783 H 0.57152 0.04186 0.17627 0.0
C784 C 0.22213 0.89551 0.28981 0.0
C785 C 0.20092 0.89592 0.27175 0.0
C786 C 0.24241 0.88151 0.24644 0.0
C787 C 0.26288 0.87842 0.26479 0.0
N788 N 0.27127 0.87783 0.30434 0.0
N789 N 0.18947 0.88718 0.23325 0.0
C790 C 0.25259 0.88447 0.28657 0.0
C791 C 0.21068 0.88835 0.25013 0.0
N792 N 0.21315 0.90565 0.31016 0.0
N793 N 0.2536 0.87889 0.2255 0.0
H794 H 0.16638 0.89333 0.23526 0.0
H795 H 0.1942 0.8785 0.21763 0.0
H796 H 0.27671 0.87404 0.22229 0.0
H797 H 0.24072 0.88385 0.21131 0.0
H798 H 0.22853 0.90987 0.32316 0.0
H799 H 0.19058 0.91204 0.31379 0.0
H800 H 0.26378 0.87795 0.32061 0.0
H801 H 0.2937 0.86955 0.30292 0.0
C802 C 0.10552 0.71454 0.53484 0.0
C803 C 0.11401 0.69101 0.5197 0.0
C804 C 0.13235 0.73019 0.49357 0.0
C805 C 0.12498 0.75371 0.50902 0.0
N806 N 0.1065 0.7688 0.54486 0.0
N807 N 0.13713 0.67549 0.48546 0.0
C808 C 0.1118 0.74602 0.52971 0.0
C809 C 0.12791 0.69861 0.49929 0.0
N810 N 0.09151 0.7067 0.55421 0.0
N811 N 0.14226 0.73819 0.473 0.0
H812 H 0.1321 0.65228 0.48821 0.0
H813 H 0.15098 0.6789 0.47176 0.0
H814 H 0.14656 0.76089 0.46844 0.0
H815 H 0.14449 0.72281 0.45993 0.0
H816 H 0.08092 0.72239 0.56466 0.0
H817 H 0.08924 0.68401 0.55968 0.0
H818 H 0.10056 0.76488 0.56121 0.0
H819 H 0.10965 0.79215 0.54154 0.0
C820 C 0.30117 0.62546 0.76471 0.0
C821 C 0.3086 0.59911 0.7777 0.0
C822 C 0.25398 0.58474 0.7778 0.0
C823 C 0.24705 0.60899 0.76265 0.0
N824 N 0.26701 0.64617 0.73659 0.0
N825 N 0.29292 0.54883 0.7906 0.0
C826 C 0.27153 0.6275 0.75452 0.0
C827 C 0.28527 0.57714 0.78226 0.0
N828 N 0.32157 0.64934 0.76291 0.0
N829 N 0.2311 0.57013 0.78911 0.0
H830 H 0.31576 0.54198 0.79327 0.0
H831 H 0.27682 0.53116 0.79245 0.0
H832 H 0.20792 0.57637 0.788 0.0
H833 H 0.23566 0.55431 0.80171 0.0
H834 H 0.31579 0.67016 0.75528 0.0
H835 H 0.34293 0.64974 0.771 0.0
H836 H 0.28498 0.65807 0.72907 0.0
H837 H 0.24633 0.64681 0.72761 0.0
C838 C 0.39903 0.79131 0.04584 0.0
C839 C 0.401 0.81325 0.02849 0.0
C840 C 0.38499 0.77377 0.00156 0.0
C841 C 0.38031 0.75273 0.01917 0.0
N842 N 0.37874 0.74243 0.05838 0.0
N843 N 0.39404 0.82678 0.99017 0.0
C844 C 0.38654 0.76163 0.04138 0.0
C845 C 0.39352 0.80485 0.0064 0.0
N846 N 0.40905 0.79886 0.06668 0.0
N847 N 0.38224 0.76368 0.98023 0.0
H848 H 0.40155 0.84933 0.993 0.0
H849 H 0.38551 0.82324 0.97423 0.0
H850 H 0.37615 0.74105 0.97621 0.0
H851 H 0.38824 0.77684 0.96656 0.0
H852 H 0.41213 0.78277 0.07929 0.0
H853 H 0.41642 0.82091 0.07115 0.0
H854 H 0.37892 0.74906 0.07491 0.0
H855 H 0.36956 0.72047 0.05605 0.0
C856 C 0.20586 0.60534 0.00279 0.0
C857 C 0.19706 0.61341 0.9809 0.0
C858 C 0.24854 0.6353 0.97467 0.0
C859 C 0.25742 0.62695 0.99648 0.0
N860 N 0.24154 0.61408 0.03325 0.0
N861 N 0.20973 0.63963 0.94662 0.0
C862 C 0.23523 0.61474 0.01113 0.0
C863 C 0.21808 0.62944 0.96714 0.0
N864 N 0.18664 0.58779 0.01539 0.0
N865 N 0.26903 0.64935 0.96093 0.0
H866 H 0.18768 0.63717 0.9397 0.0
H867 H 0.18768 0.63717 0.9397 0.0
H868 H 0.29144 0.65523 0.96579 0.0
H869 H 0.26338 0.65538 0.94468 0.0
H870 H 0.19324 0.57831 0.03054 0.0
H871 H 0.16488 0.58057 0.00992 0.0
H872 H 0.2254 0.60811 0.04513 0.0
H873 H 0.26196 0.62306 0.0398 0.0
C874 C 0.39667 0.70772 0.25884 0.0
C875 C 0.40812 0.70013 0.23773 0.0
C876 C 0.41081 0.75502 0.22798 0.0
C877 C 0.39661 0.76261 0.24836 0.0
N878 N 0.37278 0.74596 0.28227 0.0
N879 N 0.42141 0.71429 0.20124 0.0
C880 C 0.38846 0.73886 0.26349 0.0
C881 C 0.41409 0.72343 0.22207 0.0
N882 N 0.39485 0.68536 0.2747 0.0
N883 N 0.42137 0.77786 0.21442 0.0
H884 H 0.4238 0.72907 0.18778 0.0
H885 H 0.4238 0.72907 0.18778 0.0
H886 H 0.41797 0.80126 0.21743 0.0
H887 H 0.43548 0.77384 0.20093 0.0
H888 H 0.38981 0.68984 0.29116 0.0
H889 H 0.40115 0.66248 0.27184 0.0
H890 H 0.36312 0.72946 0.2926 0.0
H891 H 0.36743 0.76845 0.28683 0.0
C892 C 0.29919 0.88855 0.46857 0.0
C893 C 0.32011 0.88985 0.4868 0.0
C894 C 0.27868 0.87322 0.51162 0.0
C895 C 0.25835 0.8706 0.49312 0.0
N896 N 0.24942 0.87521 0.45365 0.0
N897 N 0.33119 0.88118 0.52535 0.0
C898 C 0.26861 0.87831 0.47163 0.0
C899 C 0.31021 0.88163 0.50829 0.0
N900 N 0.30796 0.89607 0.44768 0.0
N901 N 0.26744 0.86886 0.53241 0.0
H902 H 0.35402 0.88833 0.52356 0.0
H903 H 0.32664 0.8723 0.54094 0.0
H904 H 0.2445 0.86293 0.53534 0.0
H905 H 0.27998 0.87318 0.54684 0.0
H906 H 0.33001 0.90351 0.4434 0.0
H907 H 0.33001 0.90351 0.4434 0.0
H908 H 0.25622 0.88075 0.43765 0.0
H909 H 0.22705 0.86653 0.45449 0.0
C910 C 0.12284 0.7858 0.71065 0.0
C911 C 0.11735 0.80688 0.72811 0.0
C912 C 0.12883 0.76636 0.75542 0.0
C913 C 0.13628 0.74595 0.73795 0.0
N914 N 0.14536 0.73737 0.69917 0.0
N915 N 0.11788 0.81897 0.76693 0.0
C916 C 0.13448 0.75592 0.71562 0.0
C917 C 0.12115 0.79765 0.75048 0.0
N918 N 0.11667 0.79426 0.68926 0.0
N919 N 0.12808 0.75548 0.77661 0.0
H920 H 0.11114 0.8417 0.76388 0.0
H921 H 0.12355 0.81478 0.78341 0.0
H922 H 0.13381 0.73279 0.78074 0.0
H923 H 0.11979 0.76811 0.7899 0.0
H924 H 0.11626 0.77878 0.67611 0.0
H925 H 0.10983 0.81644 0.68466 0.0
H926 H 0.14824 0.74463 0.68293 0.0
H927 H 0.15412 0.71534 0.702 0.0
C928 C 0.70397 0.38516 0.75026 0.0
C929 C 0.69384 0.39299 0.77175 0.0
C930 C 0.74461 0.37926 0.7873 0.0
C931 C 0.75529 0.37293 0.76568 0.0
N932 N 0.74718 0.37389 0.72627 0.0
N933 N 0.7052 0.40162 0.81042 0.0
C934 C 0.7355 0.37694 0.74704 0.0
C935 C 0.71446 0.39144 0.79015 0.0
N936 N 0.68327 0.38505 0.73304 0.0
N937 N 0.76265 0.37195 0.80527 0.0
H938 H 0.68278 0.40888 0.81369 0.0
H939 H 0.72024 0.40493 0.82375 0.0
H940 H 0.78484 0.3629 0.80405 0.0
H941 H 0.75485 0.37235 0.82146 0.0
H942 H 0.68809 0.37625 0.71747 0.0
H943 H 0.66042 0.39225 0.73468 0.0
H944 H 0.73498 0.37948 0.71191 0.0
H945 H 0.77012 0.3679 0.7234 0.0
C946 C 0.57618 0.22897 0.02636 0.0
C947 C 0.59889 0.20599 0.02285 0.0
C948 C 0.62944 0.244 0.00259 0.0
C949 C 0.60977 0.2681 0.00989 0.0
N950 N 0.56799 0.28276 0.03423 0.0
N951 N 0.65142 0.19458 0.01214 0.0
C952 C 0.584 0.26046 0.02327 0.0
C953 C 0.62679 0.21425 0.0122 0.0
N954 N 0.54696 0.22087 0.03228 0.0
N955 N 0.64983 0.24887 0.98591 0.0
H956 H 0.6515 0.17341 0.02031 0.0
H957 H 0.67296 0.201 0.00615 0.0
H958 H 0.65083 0.26947 0.97705 0.0
H959 H 0.66283 0.2311 0.97906 0.0
H960 H 0.52901 0.23684 0.03324 0.0
H961 H 0.53993 0.19794 0.03371 0.0
H962 H 0.55082 0.27755 0.04557 0.0
H963 H 0.57422 0.30595 0.03433 0.0
C964 C 0.81135 0.10961 0.257 0.0
C965 C 0.81678 0.10243 0.27955 0.0
C966 C 0.76097 0.1024 0.28597 0.0
C967 C 0.75581 0.11378 0.26421 0.0
N968 N 0.77681 0.13187 0.2297 0.0
N969 N 0.79713 0.09777 0.31658 0.0
C970 C 0.78123 0.11853 0.24994 0.0
C971 C 0.79169 0.10021 0.29434 0.0
N972 N 0.83478 0.10696 0.24219 0.0
N973 N 0.73669 0.0937 0.29877 0.0
H974 H 0.81924 0.09693 0.32354 0.0
H975 H 0.77981 0.09963 0.3283 0.0
H976 H 0.71371 0.09579 0.29379 0.0
H977 H 0.73946 0.08206 0.31373 0.0
H978 H 0.8315 0.10873 0.22517 0.0
H979 H 0.85701 0.09996 0.24673 0.0
H980 H 0.79484 0.13912 0.21973 0.0
H981 H 0.75515 0.13797 0.22356 0.0
C982 C 0.86442 0.29874 0.53879 0.0
C983 C 0.89136 0.31053 0.52867 0.0
C984 C 0.89574 0.26333 0.50647 0.0
C985 C 0.87059 0.25048 0.51813 0.0
N986 N 0.83361 0.2539 0.54759 0.0
N987 N 0.93415 0.30407 0.50408 0.0
C988 C 0.85538 0.26774 0.53471 0.0
C989 C 0.90742 0.29285 0.51277 0.0
N990 N 0.84744 0.31718 0.5524 0.0
N991 N 0.90784 0.24758 0.48903 0.0
H992 H 0.94255 0.32611 0.50763 0.0
H993 H 0.94893 0.29111 0.49433 0.0
H994 H 0.89971 0.22597 0.48405 0.0
H995 H 0.92421 0.25673 0.47843 0.0
H996 H 0.82555 0.31135 0.55797 0.0
H997 H 0.8541 0.33942 0.55696 0.0
H998 H 0.82458 0.26392 0.56174 0.0
H999 H 0.82618 0.23124 0.54532 0.0
C1000 C 0.72226 0.07888 0.48157 0.0
C1001 C 0.70012 0.10284 0.4832 0.0
C1002 C 0.73743 0.13224 0.50544 0.0
C1003 C 0.7614 0.11162 0.4993 0.0
N1004 N 0.77605 0.06839 0.47596 0.0
N1005 N 0.68986 0.15599 0.49325 0.0
C1006 C 0.75375 0.08557 0.48595 0.0
C1007 C 0.70845 0.13058 0.49428 0.0
N1008 N 0.71333 0.04969 0.47591 0.0
N1009 N 0.74173 0.15272 0.52233 0.0
H1010 H 0.66944 0.15678 0.48401 0.0
H1011 H 0.69663 0.17735 0.49959 0.0
H1012 H 0.7616 0.15294 0.53223 0.0
H1013 H 0.72397 0.16658 0.52824 0.0
H1014 H 0.72857 0.03105 0.47615 0.0
H1015 H 0.69021 0.04363 0.47353 0.0
H1016 H 0.77077 0.05085 0.46475 0.0
H1017 H 0.79941 0.07397 0.47635 0.0
C1018 C 0.88485 0.20072 0.75871 0.0
C1019 C 0.89993 0.19299 0.73877 0.0
C1020 C 0.90295 0.24796 0.72874 0.0
C1021 C 0.88873 0.25581 0.74905 0.0
N1022 N 0.86957 0.24038 0.78463 0.0
N1023 N 0.92476 0.20855 0.70507 0.0
C1024 C 0.8804 0.23234 0.76431 0.0
C1025 C 0.90947 0.21646 0.72391 0.0
N1026 N 0.87451 0.17769 0.77221 0.0
N1027 N 0.90895 0.27059 0.71361 0.0
H1028 H 0.92733 0.18586 0.6997 0.0
H1029 H 0.9362 0.22422 0.69505 0.0
H1030 H 0.90562 0.29397 0.71668 0.0
H1031 H 0.91554 0.26645 0.69742 0.0
H1032 H 0.8598 0.18126 0.78542 0.0
H1033 H 0.87941 0.15443 0.76959 0.0
H1034 H 0.86667 0.22497 0.79761 0.0
H1035 H 0.86523 0.2631 0.78913 0.0
C1036 C 0.79014 0.39129 0.96713 0.0
C1037 C 0.80989 0.39762 0.98544 0.0
C1038 C 0.76828 0.38437 0.01103 0.0
C1039 C 0.74804 0.37972 0.99269 0.0
N1040 N 0.73838 0.38185 0.95327 0.0
N1041 N 0.81776 0.40375 0.02458 0.0
C1042 C 0.75857 0.38425 0.97075 0.0
C1043 C 0.79897 0.39511 0.00737 0.0
N1044 N 0.80194 0.39072 0.94624 0.0
N1045 N 0.75815 0.37841 0.03191 0.0
H1046 H 0.84041 0.41124 0.02237 0.0
H1047 H 0.81054 0.40549 0.04086 0.0
H1048 H 0.73541 0.37227 0.03528 0.0
H1049 H 0.77246 0.378 0.04583 0.0
H1050 H 0.78994 0.38236 0.9325 0.0
H1051 H 0.82471 0.39649 0.94267 0.0
H1052 H 0.74343 0.38923 0.93735 0.0
H1053 H 0.71577 0.37406 0.9547 0.0
C1054 C 0.61924 0.29906 0.24819 0.0
C1055 C 0.62887 0.31471 0.22888 0.0
C1056 C 0.66317 0.27164 0.21963 0.0
C1057 C 0.65145 0.25485 0.23783 0.0
N1058 N 0.61711 0.25089 0.26872 0.0
N1059 N 0.65741 0.31535 0.19489 0.0
C1060 C 0.62915 0.26812 0.25196 0.0
C1061 C 0.65029 0.30092 0.2143 0.0
N1062 N 0.60107 0.31407 0.26305 0.0
N1063 N 0.6867 0.25958 0.20746 0.0
H1064 H 0.64928 0.33724 0.19063 0.0
H1065 H 0.66968 0.30494 0.18224 0.0
H1066 H 0.69581 0.23761 0.21014 0.0
H1067 H 0.69875 0.27204 0.19565 0.0
H1068 H 0.59568 0.30531 0.27854 0.0
H1069 H 0.59302 0.3365 0.26052 0.0
H1070 H 0.59836 0.25775 0.27811 0.0
H1071 H 0.62492 0.22873 0.27258 0.0
C1072 C 0.12084 0.89864 0.41592 0.0
C1073 C 0.11759 0.8779 0.39796 0.0
C1074 C 0.133 0.83482 0.42196 0.0
C1075 C 0.13805 0.85585 0.43963 0.0
N1076 N 0.145 0.90884 0.45136 0.0
N1077 N 0.12657 0.82743 0.3825 0.0
C1078 C 0.1343 0.8881 0.43606 0.0
C1079 C 0.12524 0.84626 0.40059 0.0
N1080 N 0.11051 0.92834 0.41388 0.0
N1081 N 0.135 0.80381 0.42569 0.0
H1082 H 0.1215 0.83495 0.3665 0.0
H1083 H 0.13539 0.80508 0.38298 0.0
H1084 H 0.14099 0.79465 0.44102 0.0
H1085 H 0.12801 0.78719 0.41427 0.0
H1086 H 0.10965 0.94377 0.42703 0.0
H1087 H 0.09993 0.93674 0.39952 0.0
H1088 H 0.14574 0.93253 0.44857 0.0
H1089 H 0.156 0.90243 0.46604 0.0
C1090 C 0.11153 0.60683 0.66404 0.0
C1091 C 0.13398 0.60258 0.64749 0.0
C1092 C 0.17497 0.61685 0.67386 0.0
C1093 C 0.1522 0.62348 0.68984 0.0
N1094 N 0.09835 0.63288 0.69786 0.0
N1095 N 0.1864 0.60905 0.63518 0.0
C1096 C 0.12032 0.62076 0.68433 0.0
C1097 C 0.16559 0.60898 0.65199 0.0
N1098 N 0.08186 0.59707 0.6605 0.0
N1099 N 0.20555 0.61739 0.67972 0.0
H1100 H 0.18043 0.60388 0.61887 0.0
H1101 H 0.20902 0.61687 0.63698 0.0
H1102 H 0.21329 0.62294 0.69561 0.0
H1103 H 0.22304 0.60947 0.66953 0.0
H1104 H 0.06508 0.59724 0.67268 0.0
H1105 H 0.07475 0.58583 0.64608 0.0
H1106 H 0.07508 0.6343 0.69347 0.0
H1107 H 0.10349 0.64444 0.71251 0.0
C1108 C 0.41886 0.64252 0.92484 0.0
C1109 C 0.40006 0.62925 0.90802 0.0
C1110 C 0.35754 0.6233 0.934 0.0
C1111 C 0.37584 0.6376 0.95071 0.0
N1112 N 0.42218 0.66493 0.96155 0.0
N1113 N 0.34957 0.61397 0.89489 0.0
C1114 C 0.40589 0.64877 0.9459 0.0
C1115 C 0.36876 0.62183 0.9121 0.0
N1116 N 0.44945 0.64775 0.92097 0.0
N1117 N 0.32981 0.61024 0.93918 0.0
H1118 H 0.35695 0.61279 0.87857 0.0
H1119 H 0.32579 0.6115 0.89641 0.0
H1120 H 0.32032 0.6113 0.95489 0.0
H1121 H 0.31719 0.59632 0.92834 0.0
H1122 H 0.46535 0.65399 0.9332 0.0
H1123 H 0.45953 0.64388 0.90565 0.0
H1124 H 0.44264 0.6766 0.95832 0.0
H1125 H 0.4143 0.66845 0.97755 0.0
C1126 C 0.39703 0.92028 0.17461 0.0
C1127 C 0.3949 0.89877 0.15697 0.0
C1128 C 0.37949 0.85828 0.18302 0.0
C1129 C 0.38123 0.88009 0.20046 0.0
N1130 N 0.37994 0.93339 0.21134 0.0
N1131 N 0.37626 0.8497 0.14346 0.0
C1132 C 0.38646 0.91161 0.1958 0.0
C1133 C 0.38375 0.86842 0.1609 0.0
N1134 N 0.41036 0.9485 0.17144 0.0
N1135 N 0.37441 0.82785 0.18761 0.0
H1136 H 0.37836 0.85663 0.12704 0.0
H1137 H 0.36527 0.82849 0.14519 0.0
H1138 H 0.36926 0.81989 0.2034 0.0
H1139 H 0.37688 0.81029 0.17603 0.0
H1140 H 0.41523 0.9637 0.18435 0.0
H1141 H 0.41914 0.95557 0.15629 0.0
H1142 H 0.38084 0.95702 0.20824 0.0
H1143 H 0.37012 0.92764 0.22647 0.0
C1144 C 0.08876 0.63198 0.8342 0.0
C1145 C 0.1099 0.62097 0.85051 0.0
C1146 C 0.15206 0.62258 0.82382 0.0
C1147 C 0.13035 0.63036 0.80705 0.0
N1148 N 0.07895 0.64466 0.79555 0.0
N1149 N 0.16135 0.60547 0.86149 0.0
C1150 C 0.09896 0.63602 0.81209 0.0
C1151 C 0.14153 0.61634 0.84552 0.0
N1152 N 0.05901 0.6385 0.83997 0.0
N1153 N 0.18286 0.6222 0.81904 0.0
H1154 H 0.15506 0.60259 0.87794 0.0
H1155 H 0.18367 0.5979 0.85841 0.0
H1156 H 0.19124 0.62726 0.80337 0.0
H1157 H 0.20037 0.61944 0.83078 0.0
H1158 H 0.04288 0.64903 0.82961 0.0
H1159 H 0.05048 0.6345 0.85575 0.0
H1160 H 0.05515 0.64618 0.79722 0.0
H1161 H 0.08622 0.64979 0.7796 0.0
C1162 C 0.40039 0.61263 0.09199 0.0
C1163 C 0.37929 0.60993 0.10958 0.0
C1164 C 0.33705 0.62665 0.08502 0.0
C1165 C 0.35864 0.63171 0.06793 0.0
N1166 N 0.41209 0.63729 0.05732 0.0
N1167 N 0.32858 0.61963 0.12418 0.0
C1168 C 0.39069 0.62685 0.07198 0.0
C1169 C 0.34781 0.61815 0.10646 0.0
N1170 N 0.42968 0.60121 0.09433 0.0
N1171 N 0.30618 0.62969 0.0807 0.0
H1172 H 0.33559 0.61413 0.14024 0.0
H1173 H 0.30641 0.62886 0.12339 0.0
H1174 H 0.29755 0.63701 0.06546 0.0
H1175 H 0.2891 0.62262 0.09156 0.0
H1176 H 0.44536 0.60018 0.08144 0.0
H1177 H 0.43734 0.58982 0.10855 0.0
H1178 H 0.43574 0.63726 0.06059 0.0
H1179 H 0.40638 0.6488 0.04274 0.0
C1180 C 0.39391 0.85091 0.35718 0.0
C1181 C 0.40145 0.88244 0.36057 0.0
C1182 C 0.38555 0.89424 0.32256 0.0
C1183 C 0.3821 0.86215 0.31825 0.0
N1184 N 0.38538 0.8095 0.33099 0.0
N1185 N 0.40886 0.93355 0.34578 0.0
C1186 C 0.38687 0.84036 0.33548 0.0
C1187 C 0.39855 0.90395 0.34304 0.0
N1188 N 0.39207 0.83133 0.37484 0.0
N1189 N 0.37506 0.91559 0.30762 0.0
H1190 H 0.41921 0.94136 0.36037 0.0
H1191 H 0.40996 0.9495 0.33294 0.0
H1192 H 0.3644 0.90979 0.29269 0.0
H1193 H 0.37412 0.93915 0.31093 0.0
H1194 H 0.38339 0.80897 0.37374 0.0
H1195 H 0.39648 0.83825 0.39107 0.0
H1196 H 0.39206 0.79246 0.34221 0.0
H1197 H 0.38037 0.80093 0.3153 0.0
C1198 C 0.1376 0.86117 0.59712 0.0
C1199 C 0.12576 0.89143 0.60034 0.0
C1200 C 0.1354 0.9033 0.56149 0.0
C1201 C 0.14116 0.87172 0.55739 0.0
N1202 N 0.14986 0.82029 0.57125 0.0
N1203 N 0.11077 0.94077 0.58501 0.0
C1204 C 0.14318 0.85056 0.57524 0.0
C1205 C 0.12418 0.91249 0.5824 0.0
N1206 N 0.14434 0.843 0.61501 0.0
N1207 N 0.14205 0.92466 0.54567 0.0
H1208 H 0.10177 0.9483 0.59998 0.0
H1209 H 0.10617 0.95564 0.57185 0.0
H1210 H 0.15218 0.91851 0.53074 0.0
H1211 H 0.14086 0.94838 0.54834 0.0
H1212 H 0.15572 0.82191 0.61396 0.0
H1213 H 0.141 0.85024 0.63124 0.0
H1214 H 0.14768 0.80289 0.583 0.0
H1215 H 0.15644 0.81227 0.55578 0.0
C1216 C 0.61457 0.35122 0.90157 0.0
C1217 C 0.60814 0.38279 0.89719 0.0
C1218 C 0.62522 0.39645 0.9346 0.0
C1219 C 0.6278 0.36459 0.9399 0.0
N1220 N 0.62239 0.31126 0.92912 0.0
N1221 N 0.60246 0.43494 0.91045 0.0
C1222 C 0.62185 0.34184 0.92354 0.0
C1223 C 0.61201 0.40526 0.914 0.0
N1224 N 0.61517 0.33045 0.88458 0.0
N1225 N 0.63674 0.41836 0.94872 0.0
H1226 H 0.59177 0.4421 0.89579 0.0
H1227 H 0.60224 0.45173 0.92275 0.0
H1228 H 0.64761 0.41316 0.96369 0.0
H1229 H 0.63831 0.44165 0.94462 0.0
H1230 H 0.62302 0.30787 0.88635 0.0
H1231 H 0.61044 0.33644 0.86821 0.0
H1232 H 0.6149 0.29376 0.91858 0.0
H1233 H 0.62748 0.30351 0.94507 0.0
C1234 C 0.62458 0.12548 0.15934 0.0
C1235 C 0.64547 0.10811 0.14638 0.0
C1236 C 0.68594 0.11638 0.17441 0.0
C1237 C 0.66385 0.12966 0.18871 0.0
N1238 N 0.6109 0.14466 0.19536 0.0
N1239 N 0.69472 0.08258 0.14327 0.0
C1240 C 0.63273 0.13323 0.18143 0.0
C1241 C 0.67588 0.10243 0.15434 0.0
N1242 N 0.59789 0.13667 0.15005 0.0
N1243 N 0.71656 0.11707 0.17996 0.0
H1244 H 0.68766 0.07067 0.12913 0.0
H1245 H 0.71614 0.07539 0.14936 0.0
H1246 H 0.72459 0.12572 0.19497 0.0
H1247 H 0.73399 0.11092 0.16911 0.0
H1248 H 0.5834 0.15218 0.15799 0.0
H1249 H 0.59185 0.13342 0.13349 0.0
H1250 H 0.58731 0.14361 0.19185 0.0
H1251 H 0.61586 0.15318 0.21107 0.0
C1252 C 0.86488 0.12104 0.41344 0.0
C1253 C 0.897 0.12158 0.40905 0.0
C1254 C 0.90791 0.13629 0.44742 0.0
C1255 C 0.87643 0.13146 0.45243 0.0
N1256 N 0.82466 0.11823 0.44093 0.0
N1257 N 0.94965 0.12606 0.4222 0.0
C1258 C 0.85477 0.12362 0.43562 0.0
C1259 C 0.91871 0.12844 0.4261 0.0
N1260 N 0.84408 0.11903 0.39633 0.0
N1261 N 0.92735 0.1488 0.46296 0.0
H1262 H 0.95853 0.12014 0.40684 0.0
H1263 H 0.96646 0.12741 0.4346 0.0
H1264 H 0.92009 0.15492 0.47873 0.0
H1265 H 0.94983 0.15574 0.4596 0.0
H1266 H 0.82036 0.12158 0.3982 0.0
H1267 H 0.85067 0.11745 0.37985 0.0
H1268 H 0.80854 0.1087 0.43002 0.0
H1269 H 0.81609 0.12182 0.45676 0.0
C1270 C 0.88171 0.41665 0.67522 0.0
C1271 C 0.88352 0.39528 0.65755 0.0
C1272 C 0.87065 0.35272 0.68265 0.0
C1273 C 0.8703 0.37404 0.70042 0.0
N1274 N 0.86461 0.42645 0.7126 0.0
N1275 N 0.87445 0.34425 0.64304 0.0
C1276 C 0.87257 0.40612 0.69639 0.0
C1277 C 0.87624 0.36364 0.66084 0.0
N1278 N 0.88959 0.44684 0.67191 0.0
N1279 N 0.8661 0.32207 0.6868 0.0
H1280 H 0.87909 0.35137 0.62695 0.0
H1281 H 0.86672 0.32156 0.64378 0.0
H1282 H 0.85924 0.3139 0.70218 0.0
H1283 H 0.86962 0.30458 0.67535 0.0
H1284 H 0.89225 0.46274 0.68467 0.0
H1285 H 0.89542 0.4556 0.65645 0.0
H1286 H 0.86308 0.4502 0.71021 0.0
H1287 H 0.85644 0.41917 0.72789 0.0
C1288 C 0.59357 0.1377 0.3298 0.0
C1289 C 0.61442 0.13374 0.34782 0.0
C1290 C 0.65846 0.14187 0.32333 0.0
C1291 C 0.63754 0.1443 0.3052 0.0
N1292 N 0.58617 0.15487 0.29191 0.0
N1293 N 0.66594 0.13764 0.3631 0.0
C1294 C 0.60531 0.14536 0.30867 0.0
C1295 C 0.64669 0.13775 0.345 0.0
N1296 N 0.56265 0.13323 0.33278 0.0
N1297 N 0.68952 0.14275 0.31963 0.0
H1298 H 0.65819 0.13379 0.37911 0.0
H1299 H 0.68928 0.14315 0.36264 0.0
H1300 H 0.6987 0.14797 0.30422 0.0
H1301 H 0.70632 0.13754 0.33146 0.0
H1302 H 0.54664 0.13221 0.31984 0.0
H1303 H 0.55315 0.12874 0.34821 0.0
H1304 H 0.56262 0.15871 0.29375 0.0
H1305 H 0.59456 0.16199 0.27664 0.0
C1306 C 0.90259 0.11397 0.59449 0.0
C1307 C 0.88118 0.10944 0.61172 0.0
C1308 C 0.83857 0.12388 0.58671 0.0
C1309 C 0.86025 0.13021 0.56993 0.0
N1310 N 0.91341 0.13981 0.56009 0.0
N1311 N 0.82975 0.11658 0.62581 0.0
C1312 C 0.89245 0.12775 0.57444 0.0
C1313 C 0.84937 0.11615 0.60828 0.0
N1314 N 0.93251 0.10442 0.59708 0.0
N1315 N 0.80765 0.12444 0.5819 0.0
H1316 H 0.83685 0.11178 0.64196 0.0
H1317 H 0.80709 0.12451 0.62473 0.0
H1318 H 0.79884 0.12989 0.56627 0.0
H1319 H 0.79087 0.11665 0.59274 0.0
H1320 H 0.94853 0.10476 0.5844 0.0
H1321 H 0.94061 0.09318 0.61124 0.0
H1322 H 0.93693 0.14141 0.56367 0.0
H1323 H 0.90721 0.15117 0.54555 0.0
C1324 C 0.89433 0.40044 0.8418 0.0
C1325 C 0.89744 0.37969 0.8598 0.0
C1326 C 0.8824 0.33666 0.83566 0.0
C1327 C 0.87698 0.35777 0.81808 0.0
N1328 N 0.86981 0.41083 0.80653 0.0
N1329 N 0.88848 0.32909 0.87512 0.0
C1330 C 0.88072 0.39 0.8217 0.0
C1331 C 0.88997 0.34802 0.85708 0.0
N1332 N 0.90485 0.43007 0.84381 0.0
N1333 N 0.88087 0.30565 0.83181 0.0
H1334 H 0.89328 0.33654 0.89116 0.0
H1335 H 0.87976 0.30671 0.87451 0.0
H1336 H 0.87529 0.29655 0.81639 0.0
H1337 H 0.88803 0.28906 0.84322 0.0
H1338 H 0.90565 0.44553 0.83065 0.0
H1339 H 0.91571 0.43833 0.8581 0.0
H1340 H 0.86908 0.4345 0.80941 0.0
H1341 H 0.85864 0.40453 0.7919 0.0
C1342 C 0.62502 0.42442 0.08535 0.0
C1343 C 0.6192 0.40191 0.10181 0.0
C1344 C 0.62258 0.36069 0.0742 0.0
C1345 C 0.62907 0.3832 0.05789 0.0
N1346 N 0.64401 0.43508 0.04858 0.0
N1347 N 0.61855 0.34857 0.11319 0.0
C1348 C 0.63265 0.41468 0.06367 0.0
C1349 C 0.61977 0.36997 0.0966 0.0
N1350 N 0.62211 0.45508 0.09023 0.0
N1351 N 0.61868 0.33053 0.06816 0.0
H1352 H 0.61654 0.35453 0.12981 0.0
H1353 H 0.62202 0.32505 0.1108 0.0
H1354 H 0.62268 0.32261 0.05218 0.0
H1355 H 0.61006 0.31361 0.07863 0.0
H1356 H 0.62264 0.47246 0.07837 0.0
H1357 H 0.61678 0.4631 0.10598 0.0
H1358 H 0.64996 0.45775 0.05239 0.0
H1359 H 0.65022 0.42849 0.03266 0.0
loop_
_geom_bond_atom_site_label_1
_geom_bond_atom_site_label_2
_geom_bond_distance
_geom_bond_site_symmetry_2
_ccdc_geom_bond_type
H0 C27 0.929 . S
N1 C26 1.433 . S
N1 C32 1.435 . S
N1 C38 1.423 . S
H2 C28 0.930 . S
H3 C31 0.931 . S
H4 C30 0.929 . S
H5 C33 0.930 . S
H6 C34 0.932 . S
H7 C37 0.929 . S
H8 C36 0.931 . S
H9 C39 0.929 . S
H10 C43 0.932 . S
H11 C40 0.931 . S
H12 C42 0.929 . S
H13 C45 0.929 . S
H14 C46 0.930 . S
H15 C48 0.929 . S
H16 C49 0.931 . S
H17 C51 0.930 . S
H18 C52 0.932 . S
H19 C54 0.931 . S
H20 C55 0.929 . S
H21 C57 0.929 . S
H22 C58 0.931 . S
H23 C60 0.929 . S
N24 C44 1.433 . S
N24 C50 1.435 . S
N24 C56 1.423 . S
H25 C61 0.932 . S
C26 N1 1.433 . S
C26 C27 1.363 . S
C26 C31 1.370 . S
C27 H0 0.929 . S
C27 C26 1.363 . S
C27 C28 1.385 . S
C28 H2 0.930 . S
C28 C27 1.385 . S
C28 C29 1.357 . S
C29 C28 1.357 . S
C29 C30 1.406 . S
C30 H4 0.929 . S
C30 C29 1.406 . S
C30 C31 1.391 . S
C31 H3 0.931 . S
C31 C26 1.370 . S
C31 C30 1.391 . S
C32 N1 1.435 . S
C32 C33 1.358 . S
C32 C37 1.371 . S
C33 H5 0.930 . S
C33 C32 1.358 . S
C33 C34 1.405 . S
C34 H6 0.932 . S
C34 C33 1.405 . S
C34 C35 1.383 . S
C35 C34 1.383 . S
C35 C36 1.393 . S
C36 H8 0.931 . S
C36 C35 1.393 . S
C36 C37 1.382 . S
C37 H7 0.929 . S
C37 C32 1.371 . S
C37 C36 1.382 . S
C38 N1 1.423 . S
C38 C39 1.362 . S
C38 C43 1.388 . S
C39 H9 0.929 . S
C39 C38 1.362 . S
C39 C40 1.376 1_565 S
C40 H11 0.931 . S
C40 C39 1.376 1_545 S
C40 C41 1.396 . S
C41 C40 1.396 . S
C41 C42 1.348 1_545 S
C41 C59 1.472 . S
C42 H12 0.929 . S
C42 C41 1.348 1_565 S
C42 C43 1.443 . S
C43 H10 0.932 . S
C43 C38 1.388 . S
C43 C42 1.443 . S
C44 N24 1.433 . S
C44 C45 1.363 . S
C44 C49 1.370 . S
C45 H13 0.929 . S
C45 C44 1.363 . S
C45 C46 1.385 . S
C46 H14 0.930 . S
C46 C45 1.385 . S
C46 C47 1.357 . S
C47 C46 1.357 . S
C47 C48 1.406 . S
C48 H15 0.929 . S
C48 C47 1.406 . S
C48 C49 1.391 . S
C49 H16 0.931 . S
C49 C44 1.370 . S
C49 C48 1.391 . S
C50 N24 1.435 . S
C50 C51 1.358 . S
C50 C55 1.371 . S
C51 H17 0.930 . S
C51 C50 1.358 . S
C51 C52 1.405 . S
C52 H18 0.932 . S
C52 C51 1.405 . S
C52 C53 1.383 . S
C53 C52 1.383 . S
C53 C54 1.393 . S
C54 H19 0.931 . S
C54 C53 1.393 . S
C54 C55 1.382 . S
C55 H20 0.929 . S
C55 C50 1.371 . S
C55 C54 1.382 . S
C56 N24 1.423 . S
C56 C57 1.362 . S
C56 C61 1.388 . S
C57 H21 0.929 . S
C57 C56 1.362 . S
C57 C58 1.376 1_655 S
C58 H22 0.931 . S
C58 C57 1.376 1_455 S
C58 C59 1.396 . S
C59 C41 1.472 . S
C59 C58 1.396 . S
C59 C60 1.348 1_455 S
C60 H23 0.929 . S
C60 C59 1.348 1_655 S
C60 C61 1.443 . S
C61 H25 0.932 . S
C61 C56 1.388 . S
C61 C60 1.443 . S
H62 C89 0.929 . S
N63 C88 1.433 . S
N63 C94 1.435 . S
N63 C100 1.423 . S
H64 C90 0.930 . S
H65 C93 0.931 . S
H66 C92 0.929 . S
H67 C95 0.930 . S
H68 C96 0.932 . S
H69 C99 0.929 . S
H70 C98 0.931 . S
H71 C101 0.929 . S
H72 C105 0.932 . S
H73 C102 0.931 . S
H74 C104 0.929 . S
H75 C107 0.929 . S
H76 C108 0.930 . S
H77 C110 0.929 . S
H78 C111 0.931 . S
H79 C113 0.930 . S
H80 C114 0.932 . S
H81 C116 0.931 . S
H82 C117 0.929 . S
H83 C119 0.929 . S
H84 C120 0.931 . S
H85 C122 0.929 . S
N86 C106 1.433 . S
N86 C112 1.435 . S
N86 C118 1.423 . S
H87 C123 0.932 . S
C88 N63 1.433 . S
C88 C89 1.363 . S
C88 C93 1.370 . S
C89 H62 0.929 . S
C89 C88 1.363 . S
C89 C90 1.385 . S
C90 H64 0.930 . S
C90 C89 1.385 . S
C90 C91 1.357 . S
C91 C90 1.357 . S
C91 C92 1.406 . S
C92 H66 0.929 . S
C92 C91 1.406 . S
C92 C93 1.391 . S
C93 H65 0.931 . S
C93 C88 1.370 . S
C93 C92 1.391 . S
C94 N63 1.435 . S
C94 C95 1.358 . S
C94 C99 1.371 . S
C95 H67 0.930 . S
C95 C94 1.358 . S
C95 C96 1.405 . S
C96 H68 0.932 . S
C96 C95 1.405 . S
C96 C97 1.383 . S
C97 C96 1.383 . S
C97 C98 1.393 . S
C98 H70 0.931 . S
C98 C97 1.393 . S
C98 C99 1.382 . S
C99 H69 0.929 . S
C99 C94 1.371 . S
C99 C98 1.382 . S
C100 N63 1.423 . S
C100 C101 1.362 . S
C100 C105 1.388 . S
C101 H71 0.929 . S
C101 C100 1.362 . S
C101 C102 1.376 1_655 S
C102 H73 0.931 . S
C102 C101 1.376 1_455 S
C102 C103 1.396 . S
C103 C102 1.396 . S
C103 C104 1.348 1_455 S
C103 C121 1.472 . S
C104 H74 0.929 . S
C104 C103 1.348 1_655 S
C104 C105 1.443 . S
C105 H72 0.932 . S
C105 C100 1.388 . S
C105 C104 1.443 . S
C106 N86 1.433 . S
C106 C107 1.363 . S
C106 C111 1.370 . S
C107 H75 0.929 . S
C107 C106 1.363 . S
C107 C108 1.385 . S
C108 H76 0.930 . S
C108 C107 1.385 . S
C108 C109 1.357 . S
C109 C108 1.357 . S
C109 C110 1.406 . S
C110 H77 0.929 . S
C110 C109 1.406 . S
C110 C111 1.391 . S
C111 H78 0.931 . S
C111 C106 1.370 . S
C111 C110 1.391 . S
C112 N86 1.435 . S
C112 C113 1.358 . S
C112 C117 1.371 . S
C113 H79 0.930 . S
C113 C112 1.358 . S
C113 C114 1.405 . S
C114 H80 0.932 . S
C114 C113 1.405 . S
C114 C115 1.383 . S
C115 C114 1.383 . S
C115 C116 1.393 . S
C116 H81 0.931 . S
C116 C115 1.393 . S
C116 C117 1.382 . S
C117 H82 0.929 . S
C117 C112 1.371 . S
C117 C116 1.382 . S
C118 N86 1.423 . S
C118 C119 1.362 . S
C118 C123 1.388 . S
C119 H83 0.929 . S
C119 C118 1.362 . S
C119 C120 1.376 . S
C120 H84 0.931 . S
C120 C119 1.376 . S
C120 C121 1.396 . S
C121 C103 1.472 . S
C121 C120 1.396 . S
C121 C122 1.348 . S
C122 H85 0.929 . S
C122 C121 1.348 . S
C122 C123 1.443 . S
C123 H87 0.932 . S
C123 C118 1.388 . S
C123 C122 1.443 . S
H124 C151 0.929 . S
N125 C150 1.433 . S
N125 C156 1.435 . S
N125 C162 1.423 . S
H126 C152 0.930 . S
H127 C155 0.931 . S
H128 C154 0.929 . S
H129 C157 0.930 . S
H130 C158 0.932 . S
H131 C161 0.929 . S
H132 C160 0.931 . S
H133 C163 0.929 . S
H134 C167 0.932 . S
H135 C164 0.931 . S
H136 C166 0.929 . S
H137 C169 0.929 . S
H138 C170 0.930 . S
H139 C172 0.929 . S
H140 C173 0.931 . S
H141 C175 0.930 . S
H142 C176 0.932 . S
H143 C178 0.931 . S
H144 C179 0.929 . S
H145 C181 0.929 . S
H146 C182 0.931 . S
H147 C184 0.929 . S
N148 C168 1.433 . S
N148 C174 1.435 . S
N148 C180 1.423 . S
H149 C185 0.932 . S
C150 N125 1.433 . S
C150 C151 1.363 . S
C150 C155 1.370 . S
C151 H124 0.929 . S
C151 C150 1.363 . S
C151 C152 1.385 . S
C152 H126 0.930 . S
C152 C151 1.385 . S
C152 C153 1.357 . S
C153 C152 1.357 . S
C153 C154 1.406 . S
C154 H128 0.929 . S
C154 C153 1.406 . S
C154 C155 1.391 . S
C155 H127 0.931 . S
C155 C150 1.370 . S
C155 C154 1.391 . S
C156 N125 1.435 . S
C156 C157 1.358 . S
C156 C161 1.371 . S
C157 H129 0.930 . S
C157 C156 1.358 . S
C157 C158 1.405 . S
C158 H130 0.932 . S
C158 C157 1.405 . S
C158 C159 1.383 . S
C159 C158 1.383 . S
C159 C160 1.393 . S
C160 H132 0.931 . S
C160 C159 1.393 . S
C160 C161 1.382 . S
C161 H131 0.929 . S
C161 C156 1.371 . S
C161 C160 1.382 . S
C162 N125 1.423 . S
C162 C163 1.362 . S
C162 C167 1.388 . S
C163 H133 0.929 . S
C163 C162 1.362 . S
C163 C164 1.376 . S
C164 H135 0.931 . S
C164 C163 1.376 . S
C164 C165 1.396 . S
C165 C164 1.396 . S
C165 C166 1.348 . S
C165 C183 1.472 . S
C166 H136 0.929 . S
C166 C165 1.348 . S
C166 C167 1.443 . S
C167 H134 0.932 . S
C167 C162 1.388 . S
C167 C166 1.443 . S
C168 N148 1.433 . S
C168 C169 1.363 . S
C168 C173 1.370 . S
C169 H137 0.929 . S
C169 C168 1.363 . S
C169 C170 1.385 . S
C170 H138 0.930 . S
C170 C169 1.385 . S
C170 C171 1.357 . S
C171 C170 1.357 . S
C171 C172 1.406 . S
C172 H139 0.929 . S
C172 C171 1.406 . S
C172 C173 1.391 . S
C173 H140 0.931 . S
C173 C168 1.370 . S
C173 C172 1.391 . S
C174 N148 1.435 . S
C174 C175 1.358 . S
C174 C179 1.371 . S
C175 H141 0.930 . S
C175 C174 1.358 . S
C175 C176 1.405 . S
C176 H142 0.932 . S
C176 C175 1.405 . S
C176 C177 1.383 . S
C177 C176 1.383 . S
C177 C178 1.393 . S
C178 H143 0.931 . S
C178 C177 1.393 . S
C178 C179 1.382 . S
C179 H144 0.929 . S
C179 C174 1.371 . S
C179 C178 1.382 . S
C180 N148 1.423 . S
C180 C181 1.362 . S
C180 C185 1.388 . S
C181 H145 0.929 . S
C181 C180 1.362 . S
C181 C182 1.376 . S
C182 H146 0.931 . S
C182 C181 1.376 . S
C182 C183 1.396 . S
C183 C165 1.472 . S
C183 C182 1.396 . S
C183 C184 1.348 . S
C184 H147 0.929 . S
C184 C183 1.348 . S
C184 C185 1.443 . S
C185 H149 0.932 . S
C185 C180 1.388 . S
C185 C184 1.443 . S
H186 C213 0.929 . S
N187 C212 1.433 . S
N187 C218 1.435 . S
N187 C224 1.423 . S
H188 C214 0.930 . S
H189 C217 0.931 . S
H190 C216 0.929 . S
H191 C219 0.930 . S
H192 C220 0.932 . S
H193 C223 0.929 . S
H194 C222 0.931 1_556 S
H195 C225 0.929 . S
H196 C229 0.932 . S
H197 C226 0.931 . S
H198 C228 0.929 . S
H199 C231 0.929 . S
H200 C232 0.930 . S
H201 C234 0.929 . S
H202 C235 0.931 . S
H203 C237 0.930 . S
H204 C238 0.932 . S
H205 C240 0.916 1_556 S
H206 C241 0.929 . S
H207 C243 0.929 . S
H208 C244 0.931 1_565 S
H209 C246 0.929 . S
N210 C230 1.433 . S
N210 C236 1.435 . S
N210 C242 1.423 . S
H211 C247 0.932 . S
C212 N187 1.433 . S
C212 C213 1.363 . S
C212 C217 1.370 . S
C213 H186 0.929 . S
C213 C212 1.363 . S
C213 C214 1.385 . S
C214 H188 0.930 . S
C214 C213 1.385 . S
C214 C215 1.357 . S
C215 C214 1.357 . S
C215 C216 1.406 . S
C216 H190 0.929 . S
C216 C215 1.406 . S
C216 C217 1.391 . S
C217 H189 0.931 . S
C217 C212 1.370 . S
C217 C216 1.391 . S
C218 N187 1.435 . S
C218 C219 1.358 . S
C218 C223 1.371 . S
C219 H191 0.930 . S
C219 C218 1.358 . S
C219 C220 1.405 . S
C220 H192 0.932 . S
C220 C219 1.405 . S
C220 C221 1.383 . S
C221 C220 1.383 . S
C221 C222 1.393 . S
C222 H194 0.931 1_554 S
C222 C221 1.393 . S
C222 C223 1.382 . S
C223 H193 0.929 . S
C223 C218 1.371 . S
C223 C222 1.382 . S
C224 N187 1.423 . S
C224 C225 1.362 . S
C224 C229 1.388 . S
C225 H195 0.929 . S
C225 C224 1.362 . S
C225 C226 1.376 . S
C226 H197 0.931 . S
C226 C225 1.376 . S
C226 C227 1.396 . S
C227 C226 1.396 . S
C227 C228 1.348 . S
C227 C245 1.472 1_565 S
C228 H198 0.929 . S
C228 C227 1.348 . S
C228 C229 1.443 . S
C229 H196 0.932 . S
C229 C224 1.388 . S
C229 C228 1.443 . S
C230 N210 1.433 . S
C230 C231 1.363 . S
C230 C235 1.370 . S
C231 H199 0.929 . S
C231 C230 1.363 . S
C231 C232 1.385 . S
C232 H200 0.930 . S
C232 C231 1.385 . S
C232 C233 1.357 . S
C233 C232 1.357 . S
C233 C234 1.406 . S
C234 H201 0.929 . S
C234 C233 1.406 . S
C234 C235 1.391 . S
C235 H202 0.931 . S
C235 C230 1.370 . S
C235 C234 1.391 . S
C236 N210 1.435 . S
C236 C237 1.358 . S
C236 C241 1.371 . S
C237 H203 0.930 . S
C237 C236 1.358 . S
C237 C238 1.405 . S
C238 H204 0.932 . S
C238 C237 1.405 . S
C238 C239 1.383 . S
C239 C238 1.383 . S
C239 C240 1.393 . S
C240 H205 0.916 1_554 S
C240 C239 1.393 . S
C240 C241 1.382 . S
C241 H206 0.929 . S
C241 C236 1.371 . S
C241 C240 1.382 . S
C242 N210 1.423 . S
C242 C243 1.362 . S
C242 C247 1.388 . S
C243 H207 0.929 . S
C243 C242 1.362 . S
C243 C244 1.376 . S
C244 H208 0.931 1_545 S
C244 C243 1.376 . S
C244 C245 1.396 . S
C245 C227 1.472 1_545 S
C245 C244 1.396 . S
C245 C246 1.348 . S
C246 H209 0.929 . S
C246 C245 1.348 . S
C246 C247 1.443 . S
C247 H211 0.932 . S
C247 C242 1.388 . S
C247 C246 1.443 . S
H248 C275 0.929 . S
N249 C274 1.433 . S
N249 C280 1.435 . S
N249 C286 1.423 . S
H250 C276 0.930 . S
H251 C279 0.931 . S
H252 C278 0.929 . S
H253 C281 0.930 . S
H254 C282 0.932 . S
H255 C285 0.929 . S
H256 C284 0.931 1_554 S
H257 C287 0.929 . S
H258 C291 0.932 . S
H259 C288 0.931 . S
H260 C290 0.929 . S
H261 C293 0.929 . S
H262 C294 0.930 . S
H263 C296 0.929 . S
H264 C297 0.931 . S
H265 C299 0.930 . S
H266 C300 0.932 . S
H267 C302 0.931 1_554 S
H268 C303 0.929 . S
H269 C305 0.929 . S
H270 C306 0.948 . S
H271 C308 0.929 . S
N272 C292 1.433 . S
N272 C298 1.435 . S
N272 C304 1.423 . S
H273 C309 0.932 . S
C274 N249 1.433 . S
C274 C275 1.363 . S
C274 C279 1.370 . S
C275 H248 0.929 . S
C275 C274 1.363 . S
C275 C276 1.385 . S
C276 H250 0.930 . S
C276 C275 1.385 . S
C276 C277 1.357 . S
C277 C276 1.357 . S
C277 C278 1.406 . S
C278 H252 0.929 . S
C278 C277 1.406 . S
C278 C279 1.391 . S
C279 H251 0.931 . S
C279 C274 1.370 . S
C279 C278 1.391 . S
C280 N249 1.435 . S
C280 C281 1.358 . S
C280 C285 1.371 . S
C281 H253 0.930 . S
C281 C280 1.358 . S
C281 C282 1.405 . S
C282 H254 0.932 . S
C282 C281 1.405 . S
C282 C283 1.383 . S
C283 C282 1.383 . S
C283 C284 1.393 . S
C284 H256 0.931 1_556 S
C284 C283 1.393 . S
C284 C285 1.382 . S
C285 H255 0.929 . S
C285 C280 1.371 . S
C285 C284 1.382 . S
C286 N249 1.423 . S
C286 C287 1.362 . S
C286 C291 1.388 . S
C287 H257 0.929 . S
C287 C286 1.362 . S
C287 C288 1.376 . S
C288 H259 0.931 . S
C288 C287 1.376 . S
C288 C289 1.396 . S
C289 C288 1.396 . S
C289 C290 1.348 . S
C289 C307 1.472 . S
C290 H260 0.929 . S
C290 C289 1.348 . S
C290 C291 1.443 . S
C291 H258 0.932 . S
C291 C286 1.388 . S
C291 C290 1.443 . S
C292 N272 1.433 . S
C292 C293 1.363 . S
C292 C297 1.370 . S
C293 H261 0.929 . S
C293 C292 1.363 . S
C293 C294 1.385 . S
C294 H262 0.930 . S
C294 C293 1.385 . S
C294 C295 1.357 . S
C295 C294 1.357 . S
C295 C296 1.406 . S
C296 H263 0.929 . S
C296 C295 1.406 . S
C296 C297 1.391 . S
C297 H264 0.931 . S
C297 C292 1.370 . S
C297 C296 1.391 . S
C298 N272 1.435 . S
C298 C299 1.358 . S
C298 C303 1.371 . S
C299 H265 0.930 . S
C299 C298 1.358 . S
C299 C300 1.405 . S
C300 H266 0.932 . S
C300 C299 1.405 . S
C300 C301 1.383 . S
C301 C300 1.383 . S
C301 C302 1.393 . S
C302 H267 0.931 1_556 S
C302 C301 1.393 . S
C302 C303 1.382 . S
C303 H268 0.929 . S
C303 C298 1.371 . S
C303 C302 1.382 . S
C304 N272 1.423 . S
C304 C305 1.362 . S
C304 C309 1.388 . S
C305 H269 0.929 . S
C305 C304 1.362 . S
C305 C306 1.358 1_655 S
C306 H270 0.948 . S
C306 C305 1.358 1_455 S
C306 C307 1.398 . S
C307 C289 1.472 . S
C307 C306 1.398 . S
C307 C308 1.348 1_455 S
C308 H271 0.929 . S
C308 C307 1.348 1_655 S
C308 C309 1.443 . S
C309 H273 0.932 . S
C309 C304 1.388 . S
C309 C308 1.443 . S
H310 C337 0.929 . S
N311 C336 1.433 . S
N311 C342 1.435 . S
N311 C348 1.423 . S
H312 C338 0.930 . S
H313 C341 0.931 . S
H314 C340 0.929 . S
H315 C343 0.930 . S
H316 C344 0.932 . S
H317 C347 0.929 . S
H318 C346 0.931 . S
H319 C349 0.929 . S
H320 C353 0.932 . S
H321 C350 0.931 . S
H322 C352 0.929 . S
H323 C355 0.929 . S
H324 C356 0.930 . S
H325 C358 0.929 . S
H326 C359 0.931 . S
H327 C361 0.930 . S
H328 C362 0.932 . S
H329 C364 0.931 . S
H330 C365 0.929 . S
H331 C367 0.929 . S
H332 C368 0.931 . S
H333 C370 0.929 . S
N334 C354 1.433 . S
N334 C360 1.435 . S
N334 C366 1.423 . S
H335 C371 0.932 . S
C336 N311 1.433 . S
C336 C337 1.363 . S
C336 C341 1.370 . S
C337 H310 0.929 . S
C337 C336 1.363 . S
C337 C338 1.385 . S
C338 H312 0.930 . S
C338 C337 1.385 . S
C338 C339 1.357 . S
C339 C338 1.357 . S
C339 C340 1.406 . S
C340 H314 0.929 . S
C340 C339 1.406 . S
C340 C341 1.391 . S
C341 H313 0.931 . S
C341 C336 1.370 . S
C341 C340 1.391 . S
C342 N311 1.435 . S
C342 C343 1.358 . S
C342 C347 1.371 . S
C343 H315 0.930 . S
C343 C342 1.358 . S
C343 C344 1.405 . S
C344 H316 0.932 . S
C344 C343 1.405 . S
C344 C345 1.383 . S
C345 C344 1.383 . S
C345 C346 1.393 . S
C346 H318 0.931 . S
C346 C345 1.393 . S
C346 C347 1.382 . S
C347 H317 0.929 . S
C347 C342 1.371 . S
C347 C346 1.382 . S
C348 N311 1.423 . S
C348 C349 1.362 . S
C348 C353 1.388 . S
C349 H319 0.929 . S
C349 C348 1.362 . S
C349 C350 1.376 . S
C350 H321 0.931 . S
C350 C349 1.376 . S
C350 C351 1.396 . S
C351 C350 1.396 . S
C351 C352 1.348 . S
C351 C369 1.472 . S
C352 H322 0.929 . S
C352 C351 1.348 . S
C352 C353 1.443 . S
C353 H320 0.932 . S
C353 C348 1.388 . S
C353 C352 1.443 . S
C354 N334 1.433 . S
C354 C355 1.363 . S
C354 C359 1.370 . S
C355 H323 0.929 . S
C355 C354 1.363 . S
C355 C356 1.385 . S
C356 H324 0.930 . S
C356 C355 1.385 . S
C356 C357 1.357 . S
C357 C356 1.357 . S
C357 C358 1.406 . S
C358 H325 0.929 . S
C358 C357 1.406 . S
C358 C359 1.391 . S
C359 H326 0.931 . S
C359 C354 1.370 . S
C359 C358 1.391 . S
C360 N334 1.435 . S
C360 C361 1.358 . S
C360 C365 1.371 . S
C361 H327 0.930 . S
C361 C360 1.358 . S
C361 C362 1.405 . S
C362 H328 0.932 . S
C362 C361 1.405 . S
C362 C363 1.383 . S
C363 C362 1.383 . S
C363 C364 1.393 . S
C364 H329 0.931 . S
C364 C363 1.393 . S
C364 C365 1.382 . S
C365 H330 0.929 . S
C365 C360 1.371 . S
C365 C364 1.382 . S
C366 N334 1.423 . S
C366 C367 1.362 . S
C366 C371 1.388 . S
C367 H331 0.929 . S
C367 C366 1.362 . S
C367 C368 1.376 . S
C368 H332 0.931 . S
C368 C367 1.376 . S
C368 C369 1.396 . S
C369 C351 1.472 . S
C369 C368 1.396 . S
C369 C370 1.348 . S
C370 H333 0.929 . S
C370 C369 1.348 . S
C370 C371 1.443 . S
C371 H335 0.932 . S
C371 C366 1.388 . S
C371 C370 1.443 . S
H372 C399 0.929 . S
N373 C398 1.433 . S
N373 C404 1.435 . S
N373 C410 1.423 . S
H374 C400 0.930 . S
H375 C403 0.931 . S
H376 C402 0.929 . S
H377 C405 0.930 . S
H378 C406 0.932 . S
H379 C409 0.929 . S
H380 C408 0.931 . S
H381 C411 0.929 . S
H382 C415 0.932 . S
H383 C412 0.931 . S
H384 C414 0.929 . S
H385 C417 0.929 . S
H386 C418 0.930 . S
H387 C420 0.929 . S
H388 C421 0.931 . S
H389 C423 0.930 . S
H390 C424 0.932 . S
H391 C426 0.931 . S
H392 C427 0.929 . S
H393 C429 0.929 . S
H394 C430 0.931 . S
H395 C432 0.929 . S
N396 C416 1.433 . S
N396 C422 1.435 . S
N396 C428 1.423 . S
H397 C433 0.932 . S
C398 N373 1.433 . S
C398 C399 1.363 . S
C398 C403 1.370 . S
C399 H372 0.929 . S
C399 C398 1.363 . S
C399 C400 1.385 . S
C400 H374 0.930 . S
C400 C399 1.385 . S
C400 C401 1.357 . S
C401 C400 1.357 . S
C401 C402 1.406 . S
C402 H376 0.929 . S
C402 C401 1.406 . S
C402 C403 1.391 . S
C403 H375 0.931 . S
C403 C398 1.370 . S
C403 C402 1.391 . S
C404 N373 1.435 . S
C404 C405 1.358 . S
C404 C409 1.371 . S
C405 H377 0.930 . S
C405 C404 1.358 . S
C405 C406 1.405 . S
C406 H378 0.932 . S
C406 C405 1.405 . S
C406 C407 1.383 . S
C407 C406 1.383 . S
C407 C408 1.393 . S
C408 H380 0.931 . S
C408 C407 1.393 . S
C408 C409 1.382 . S
C409 H379 0.929 . S
C409 C404 1.371 . S
C409 C408 1.382 . S
C410 N373 1.423 . S
C410 C411 1.362 . S
C410 C415 1.388 . S
C411 H381 0.929 . S
C411 C410 1.362 . S
C411 C412 1.376 1_565 S
C412 H383 0.931 . S
C412 C411 1.376 1_545 S
C412 C413 1.396 . S
C413 C412 1.396 . S
C413 C414 1.348 1_545 S
C413 C431 1.472 . S
C414 H384 0.929 . S
C414 C413 1.348 1_565 S
C414 C415 1.443 . S
C415 H382 0.932 . S
C415 C410 1.388 . S
C415 C414 1.443 . S
C416 N396 1.433 . S
C416 C417 1.363 . S
C416 C421 1.370 . S
C417 H385 0.929 . S
C417 C416 1.363 . S
C417 C418 1.385 . S
C418 H386 0.930 . S
C418 C417 1.385 . S
C418 C419 1.357 . S
C419 C418 1.357 . S
C419 C420 1.406 . S
C420 H387 0.929 . S
C420 C419 1.406 . S
C420 C421 1.391 . S
C421 H388 0.931 . S
C421 C416 1.370 . S
C421 C420 1.391 . S
C422 N396 1.435 . S
C422 C423 1.358 . S
C422 C427 1.371 . S
C423 H389 0.930 . S
C423 C422 1.358 . S
C423 C424 1.405 . S
C424 H390 0.932 . S
C424 C423 1.405 . S
C424 C425 1.383 . S
C425 C424 1.383 . S
C425 C426 1.393 . S
C426 H391 0.931 . S
C426 C425 1.393 . S
C426 C427 1.382 . S
C427 H392 0.929 . S
C427 C422 1.371 . S
C427 C426 1.382 . S
C428 N396 1.423 . S
C428 C429 1.362 . S
C428 C433 1.388 . S
C429 H393 0.929 . S
C429 C428 1.362 . S
C429 C430 1.376 . S
C430 H394 0.931 . S
C430 C429 1.376 . S
C430 C431 1.396 . S
C431 C413 1.472 . S
C431 C430 1.396 . S
C431 C432 1.348 . S
C432 H395 0.929 . S
C432 C431 1.348 . S
C432 C433 1.443 . S
C433 H397 0.932 . S
C433 C428 1.388 . S
C433 C432 1.443 . S
H434 C461 0.929 . S
N435 C460 1.433 . S
N435 C466 1.435 . S
N435 C472 1.423 . S
H436 C462 0.930 . S
H437 C465 0.931 . S
H438 C464 0.929 . S
H439 C467 0.930 . S
H440 C468 0.932 . S
H441 C471 0.929 . S
H442 C470 0.931 . S
H443 C473 0.929 . S
H444 C477 0.932 . S
H445 C474 0.931 . S
H446 C476 0.929 . S
H447 C479 0.929 . S
H448 C480 0.930 . S
H449 C482 0.929 . S
H450 C483 0.931 . S
H451 C485 0.930 . S
H452 C486 0.932 . S
H453 C488 0.931 . S
H454 C489 0.929 . S
H455 C491 0.929 . S
H456 C492 0.931 1_565 S
H457 C494 0.929 . S
N458 C478 1.433 . S
N458 C484 1.435 . S
N458 C490 1.423 . S
H459 C495 0.932 . S
C460 N435 1.433 . S
C460 C461 1.363 . S
C460 C465 1.370 . S
C461 H434 0.929 . S
C461 C460 1.363 . S
C461 C462 1.385 . S
C462 H436 0.930 . S
C462 C461 1.385 . S
C462 C463 1.357 . S
C463 C462 1.357 . S
C463 C464 1.406 . S
C464 H438 0.929 . S
C464 C463 1.406 . S
C464 C465 1.391 . S
C465 H437 0.931 . S
C465 C460 1.370 . S
C465 C464 1.391 . S
C466 N435 1.435 . S
C466 C467 1.358 . S
C466 C471 1.371 . S
C467 H439 0.930 . S
C467 C466 1.358 . S
C467 C468 1.405 . S
C468 H440 0.932 . S
C468 C467 1.405 . S
C468 C469 1.383 . S
C469 C468 1.383 . S
C469 C470 1.393 . S
C470 H442 0.931 . S
C470 C469 1.393 . S
C470 C471 1.382 . S
C471 H441 0.929 . S
C471 C466 1.371 . S
C471 C470 1.382 . S
C472 N435 1.423 . S
C472 C473 1.362 . S
C472 C477 1.388 . S
C473 H443 0.929 . S
C473 C472 1.362 . S
C473 C474 1.376 1_455 S
C474 H445 0.931 . S
C474 C473 1.376 1_655 S
C474 C475 1.396 . S
C475 C474 1.396 . S
C475 C476 1.348 1_655 S
C475 C493 1.472 1_565 S
C476 H446 0.929 . S
C476 C475 1.348 1_455 S
C476 C477 1.443 . S
C477 H444 0.932 . S
C477 C472 1.388 . S
C477 C476 1.443 . S
C478 N458 1.433 . S
C478 C479 1.363 . S
C478 C483 1.370 . S
C479 H447 0.929 . S
C479 C478 1.363 . S
C479 C480 1.385 . S
C480 H448 0.930 . S
C480 C479 1.385 . S
C480 C481 1.357 . S
C481 C480 1.357 . S
C481 C482 1.406 . S
C482 H449 0.929 . S
C482 C481 1.406 . S
C482 C483 1.391 . S
C483 H450 0.931 . S
C483 C478 1.370 . S
C483 C482 1.391 . S
C484 N458 1.435 . S
C484 C485 1.358 . S
C484 C489 1.371 . S
C485 H451 0.930 . S
C485 C484 1.358 . S
C485 C486 1.405 . S
C486 H452 0.932 . S
C486 C485 1.405 . S
C486 C487 1.383 . S
C487 C486 1.383 . S
C487 C488 1.393 . S
C488 H453 0.931 . S
C488 C487 1.393 . S
C488 C489 1.382 . S
C489 H454 0.929 . S
C489 C484 1.371 . S
C489 C488 1.382 . S
C490 N458 1.423 . S
C490 C491 1.362 . S
C490 C495 1.388 . S
C491 H455 0.929 . S
C491 C490 1.362 . S
C491 C492 1.376 . S
C492 H456 0.931 1_545 S
C492 C491 1.376 . S
C492 C493 1.396 . S
C493 C475 1.472 1_545 S
C493 C492 1.396 . S
C493 C494 1.348 . S
C494 H457 0.929 . S
C494 C493 1.348 . S
C494 C495 1.443 . S
C495 H459 0.932 . S
C495 C490 1.388 . S
C495 C494 1.443 . S
Mn496 O501 2.095 1_554 S
Mn496 O511 2.162 . S
Mn496 O512 2.297 . S
Mn496 O520 2.385 . S
Mn496 O521 2.209 . S
Mn496 O522 2.097 . S
Mn497 O502 2.087 1_554 S
Mn497 N504 2.269 . S
Mn497 N513 2.319 . S
Mn497 O521 2.238 . S
Mn497 O523 2.115 1_554 S
C498 O520 1.234 . S
C498 O521 1.283 . S
C499 O511 1.281 . S
C499 O512 1.236 . S
C500 O522 1.237 1_556 S
C500 O523 1.264 . S
O501 Mn496 2.095 1_556 S
O501 C510 1.250 . S
O502 Mn497 2.087 1_556 S
O502 C510 1.258 . S
C503 N504 1.318 1_556 S
C503 C507 1.455 1_556 S
C503 H509 0.942 . S
N504 Mn497 2.269 . S
N504 C503 1.318 1_554 S
N504 C508 1.362 . S
C505 C506 1.258 . S
C505 C508 1.431 . S
C505 C525 1.449 . S
C506 C505 1.258 . S
C506 C507 1.477 . S
C506 H526 0.931 . S
C507 C503 1.455 1_554 S
C507 C506 1.477 . S
C507 H527 0.907 1_554 S
C508 N504 1.362 . S
C508 C505 1.431 . S
C508 C518 1.476 . S
H509 C503 0.942 . S
C510 O501 1.250 . S
C510 O502 1.258 . S
O511 Mn496 2.162 . S
O511 C499 1.281 . S
O512 Mn496 2.297 . S
O512 C499 1.236 . S
N513 Mn497 2.319 . S
N513 C514 1.328 . S
N513 C518 1.318 . S
C514 N513 1.328 . S
C514 C515 1.457 . S
C514 H519 0.929 . S
C515 C514 1.457 . S
C515 C516 1.291 . S
C515 H528 0.931 . S
C516 C515 1.291 . S
C516 C517 1.373 . S
C516 H529 0.929 . S
C517 C516 1.373 . S
C517 C518 1.396 . S
C517 C524 1.403 . S
C518 C508 1.476 . S
C518 N513 1.318 . S
C518 C517 1.396 . S
H519 C514 0.929 . S
O520 Mn496 2.385 . S
O520 C498 1.234 . S
O521 Mn496 2.209 . S
O521 Mn497 2.238 . S
O521 C498 1.283 . S
O522 Mn496 2.097 . S
O522 C500 1.237 1_554 S
O523 Mn497 2.115 1_556 S
O523 C500 1.264 . S
C524 C517 1.403 . S
C524 C525 1.399 . S
C524 H530 0.929 . S
C525 C505 1.449 . S
C525 C524 1.399 . S
C525 H531 0.930 . S
H526 C506 0.931 . S
H527 C507 0.907 1_556 S
H528 C515 0.931 . S
H529 C516 0.929 . S
H530 C524 0.929 . S
H531 C525 0.930 . S
Mn532 O537 2.095 . S
Mn532 O547 2.162 . S
Mn532 O548 2.297 . S
Mn532 O556 2.385 . S
Mn532 O557 2.209 . S
Mn532 O558 2.094 . S
Mn533 O538 2.121 . S
Mn533 N540 2.257 . S
Mn533 N549 2.282 . S
Mn533 O557 2.215 . S
Mn533 O559 2.117 . S
C534 O556 1.234 . S
C534 O557 1.283 . S
C535 O547 1.281 . S
C535 O548 1.236 . S
C536 O558 1.240 . S
C536 O559 1.264 . S
O537 Mn532 2.095 . S
O537 C546 1.250 . S
O538 Mn533 2.121 . S
O538 C546 1.258 . S
C539 N540 1.326 . S
C539 C543 1.460 . S
C539 H545 0.929 . S
N540 Mn533 2.257 . S
N540 C539 1.326 . S
N540 C544 1.362 . S
C541 C542 1.258 . S
C541 C544 1.431 . S
C541 C561 1.449 . S
C542 C541 1.258 . S
C542 C543 1.477 . S
C542 H562 0.931 . S
C543 C539 1.460 . S
C543 C542 1.477 . S
C543 H563 0.930 . S
C544 N540 1.362 . S
C544 C541 1.431 . S
C544 C554 1.476 . S
H545 C539 0.929 . S
C546 O537 1.250 . S
C546 O538 1.258 . S
O547 Mn532 2.162 . S
O547 C535 1.281 . S
O548 Mn532 2.297 . S
O548 C535 1.236 . S
N549 Mn533 2.282 . S
N549 C550 1.328 . S
N549 C554 1.318 . S
C550 N549 1.328 . S
C550 C551 1.457 . S
C550 H555 0.929 . S
C551 C550 1.457 . S
C551 C552 1.291 . S
C551 H564 0.931 . S
C552 C551 1.291 . S
C552 C553 1.373 . S
C552 H565 0.929 . S
C553 C552 1.373 . S
C553 C554 1.396 . S
C553 C560 1.403 . S
C554 C544 1.476 . S
C554 N549 1.318 . S
C554 C553 1.396 . S
H555 C550 0.929 . S
O556 Mn532 2.385 . S
O556 C534 1.234 . S
O557 Mn532 2.209 . S
O557 Mn533 2.215 . S
O557 C534 1.283 . S
O558 Mn532 2.094 . S
O558 C536 1.240 . S
O559 Mn533 2.117 . S
O559 C536 1.264 . S
C560 C553 1.403 . S
C560 C561 1.399 . S
C560 H566 0.929 . S
C561 C541 1.449 . S
C561 C560 1.399 . S
C561 H567 0.930 . S
H562 C542 0.931 . S
H563 C543 0.930 . S
H564 C551 0.931 . S
H565 C552 0.929 . S
H566 C560 0.929 . S
H567 C561 0.930 . S
Mn568 O573 2.095 . S
Mn568 O583 2.162 . S
Mn568 O584 2.297 . S
Mn568 O592 2.385 . S
Mn568 O593 2.209 . S
Mn568 O594 2.094 . S
Mn569 O574 2.121 . S
Mn569 N576 2.257 . S
Mn569 N585 2.282 . S
Mn569 O593 2.215 . S
Mn569 O595 2.117 . S
C570 O592 1.234 . S
C570 O593 1.283 . S
C571 O583 1.281 . S
C571 O584 1.236 . S
C572 O594 1.240 . S
C572 O595 1.264 . S
O573 Mn568 2.095 . S
O573 C582 1.250 . S
O574 Mn569 2.121 . S
O574 C582 1.258 . S
C575 N576 1.326 . S
C575 C579 1.460 . S
C575 H581 0.929 . S
N576 Mn569 2.257 . S
N576 C575 1.326 . S
N576 C580 1.362 . S
C577 C578 1.258 . S
C577 C580 1.431 . S
C577 C597 1.449 . S
C578 C577 1.258 . S
C578 C579 1.477 . S
C578 H598 0.931 . S
C579 C575 1.460 . S
C579 C578 1.477 . S
C579 H599 0.930 . S
C580 N576 1.362 . S
C580 C577 1.431 . S
C580 C590 1.476 . S
H581 C575 0.929 . S
C582 O573 1.250 . S
C582 O574 1.258 . S
O583 Mn568 2.162 . S
O583 C571 1.281 . S
O584 Mn568 2.297 . S
O584 C571 1.236 . S
N585 Mn569 2.282 . S
N585 C586 1.328 . S
N585 C590 1.318 . S
C586 N585 1.328 . S
C586 C587 1.457 . S
C586 H591 0.929 . S
C587 C586 1.457 . S
C587 C588 1.291 . S
C587 H600 0.931 . S
C588 C587 1.291 . S
C588 C589 1.373 . S
C588 H601 0.929 . S
C589 C588 1.373 . S
C589 C590 1.396 . S
C589 C596 1.403 . S
C590 C580 1.476 . S
C590 N585 1.318 . S
C590 C589 1.396 . S
H591 C586 0.929 . S
O592 Mn568 2.385 . S
O592 C570 1.234 . S
O593 Mn568 2.209 . S
O593 Mn569 2.215 . S
O593 C570 1.283 . S
O594 Mn568 2.094 . S
O594 C572 1.240 . S
O595 Mn569 2.117 . S
O595 C572 1.264 . S
C596 C589 1.403 . S
C596 C597 1.399 . S
C596 H602 0.929 . S
C597 C577 1.449 . S
C597 C596 1.399 . S
C597 H603 0.930 . S
H598 C578 0.931 . S
H599 C579 0.930 . S
H600 C587 0.931 . S
H601 C588 0.929 . S
H602 C596 0.929 . S
H603 C597 0.930 . S
Mn604 O609 2.095 . S
Mn604 O619 2.162 . S
Mn604 O620 2.297 . S
Mn604 O628 2.385 . S
Mn604 O629 2.209 . S
Mn604 O630 2.094 . S
Mn605 O610 2.121 . S
Mn605 N612 2.257 . S
Mn605 N621 2.282 . S
Mn605 O629 2.215 . S
Mn605 O631 2.117 . S
C606 O628 1.234 . S
C606 O629 1.283 . S
C607 O619 1.281 . S
C607 O620 1.236 . S
C608 O630 1.240 . S
C608 O631 1.264 . S
O609 Mn604 2.095 . S
O609 C618 1.250 . S
O610 Mn605 2.121 . S
O610 C618 1.258 . S
C611 N612 1.326 . S
C611 C615 1.460 . S
C611 H617 0.929 . S
N612 Mn605 2.257 . S
N612 C611 1.326 . S
N612 C616 1.362 . S
C613 C614 1.258 . S
C613 C616 1.431 . S
C613 C633 1.449 . S
C614 C613 1.258 . S
C614 C615 1.477 . S
C614 H634 0.931 . S
C615 C611 1.460 . S
C615 C614 1.477 . S
C615 H635 0.930 . S
C616 N612 1.362 . S
C616 C613 1.431 . S
C616 C626 1.476 . S
H617 C611 0.929 . S
C618 O609 1.250 . S
C618 O610 1.258 . S
O619 Mn604 2.162 . S
O619 C607 1.281 . S
O620 Mn604 2.297 . S
O620 C607 1.236 . S
N621 Mn605 2.282 . S
N621 C622 1.328 . S
N621 C626 1.318 . S
C622 N621 1.328 . S
C622 C623 1.457 . S
C622 H627 0.929 . S
C623 C622 1.457 . S
C623 C624 1.291 . S
C623 H636 0.931 . S
C624 C623 1.291 . S
C624 C625 1.373 . S
C624 H637 0.929 . S
C625 C624 1.373 . S
C625 C626 1.396 . S
C625 C632 1.403 . S
C626 C616 1.476 . S
C626 N621 1.318 . S
C626 C625 1.396 . S
H627 C622 0.929 . S
O628 Mn604 2.385 . S
O628 C606 1.234 . S
O629 Mn604 2.209 . S
O629 Mn605 2.215 . S
O629 C606 1.283 . S
O630 Mn604 2.094 . S
O630 C608 1.240 . S
O631 Mn605 2.117 . S
O631 C608 1.264 . S
C632 C625 1.403 . S
C632 C633 1.399 . S
C632 H638 0.929 . S
C633 C613 1.449 . S
C633 C632 1.399 . S
C633 H639 0.930 . S
H634 C614 0.931 . S
H635 C615 0.930 . S
H636 C623 0.931 . S
H637 C624 0.929 . S
H638 C632 0.929 . S
H639 C633 0.930 . S
Mn640 O645 2.095 . S
Mn640 O655 2.162 . S
Mn640 O656 2.297 . S
Mn640 O664 2.385 . S
Mn640 O665 2.209 . S
Mn640 O666 2.094 . S
Mn641 O646 2.121 . S
Mn641 N648 2.257 . S
Mn641 N657 2.282 . S
Mn641 O665 2.215 . S
Mn641 O667 2.117 . S
C642 O664 1.234 . S
C642 O665 1.283 . S
C643 O655 1.281 . S
C643 O656 1.236 . S
C644 O666 1.240 . S
C644 O667 1.264 . S
O645 Mn640 2.095 . S
O645 C654 1.250 . S
O646 Mn641 2.121 . S
O646 C654 1.258 . S
C647 N648 1.326 . S
C647 C651 1.460 . S
C647 H653 0.929 . S
N648 Mn641 2.257 . S
N648 C647 1.326 . S
N648 C652 1.362 . S
C649 C650 1.258 . S
C649 C652 1.431 . S
C649 C669 1.449 . S
C650 C649 1.258 . S
C650 C651 1.477 . S
C650 H670 0.931 . S
C651 C647 1.460 . S
C651 C650 1.477 . S
C651 H671 0.930 . S
C652 N648 1.362 . S
C652 C649 1.431 . S
C652 C662 1.476 . S
H653 C647 0.929 . S
C654 O645 1.250 . S
C654 O646 1.258 . S
O655 Mn640 2.162 . S
O655 C643 1.281 . S
O656 Mn640 2.297 . S
O656 C643 1.236 . S
N657 Mn641 2.282 . S
N657 C658 1.328 . S
N657 C662 1.318 . S
C658 N657 1.328 . S
C658 C659 1.457 . S
C658 H663 0.929 . S
C659 C658 1.457 . S
C659 C660 1.291 . S
C659 H672 0.931 . S
C660 C659 1.291 . S
C660 C661 1.373 . S
C660 H673 0.929 . S
C661 C660 1.373 . S
C661 C662 1.396 . S
C661 C668 1.403 . S
C662 C652 1.476 . S
C662 N657 1.318 . S
C662 C661 1.396 . S
H663 C658 0.929 . S
O664 Mn640 2.385 . S
O664 C642 1.234 . S
O665 Mn640 2.209 . S
O665 Mn641 2.215 . S
O665 C642 1.283 . S
O666 Mn640 2.094 . S
O666 C644 1.240 . S
O667 Mn641 2.117 . S
O667 C644 1.264 . S
C668 C661 1.403 . S
C668 C669 1.399 . S
C668 H674 0.929 . S
C669 C649 1.449 . S
C669 C668 1.399 . S
C669 H675 0.930 . S
H670 C650 0.931 . S
H671 C651 0.930 . S
H672 C659 0.931 . S
H673 C660 0.929 . S
H674 C668 0.929 . S
H675 C669 0.930 . S
Mn676 O681 2.095 . S
Mn676 O691 2.162 . S
Mn676 O692 2.297 . S
Mn676 O700 2.385 . S
Mn676 O701 2.209 . S
Mn676 O702 2.094 . S
Mn677 O682 2.121 . S
Mn677 N684 2.257 . S
Mn677 N693 2.282 . S
Mn677 O701 2.215 . S
Mn677 O703 2.117 . S
C678 O700 1.234 . S
C678 O701 1.283 . S
C679 O691 1.281 . S
C679 O692 1.236 . S
C680 O702 1.240 . S
C680 O703 1.264 . S
O681 Mn676 2.095 . S
O681 C690 1.250 . S
O682 Mn677 2.121 . S
O682 C690 1.258 . S
C683 N684 1.326 . S
C683 C687 1.460 . S
C683 H689 0.929 . S
N684 Mn677 2.257 . S
N684 C683 1.326 . S
N684 C688 1.362 . S
C685 C686 1.258 . S
C685 C688 1.431 . S
C685 C705 1.449 . S
C686 C685 1.258 . S
C686 C687 1.477 . S
C686 H706 0.931 . S
C687 C683 1.460 . S
C687 C686 1.477 . S
C687 H707 0.930 . S
C688 N684 1.362 . S
C688 C685 1.431 . S
C688 C698 1.476 . S
H689 C683 0.929 . S
C690 O681 1.250 . S
C690 O682 1.258 . S
O691 Mn676 2.162 . S
O691 C679 1.281 . S
O692 Mn676 2.297 . S
O692 C679 1.236 . S
N693 Mn677 2.282 . S
N693 C694 1.328 . S
N693 C698 1.318 . S
C694 N693 1.328 . S
C694 C695 1.457 . S
C694 H699 0.929 . S
C695 C694 1.457 . S
C695 C696 1.291 . S
C695 H708 0.931 . S
C696 C695 1.291 . S
C696 C697 1.373 . S
C696 H709 0.929 . S
C697 C696 1.373 . S
C697 C698 1.396 . S
C697 C704 1.403 . S
C698 C688 1.476 . S
C698 N693 1.318 . S
C698 C697 1.396 . S
H699 C694 0.929 . S
O700 Mn676 2.385 . S
O700 C678 1.234 . S
O701 Mn676 2.209 . S
O701 Mn677 2.215 . S
O701 C678 1.283 . S
O702 Mn676 2.094 . S
O702 C680 1.240 . S
O703 Mn677 2.117 . S
O703 C680 1.264 . S
C704 C697 1.403 . S
C704 C705 1.399 . S
C704 H710 0.929 . S
C705 C685 1.449 . S
C705 C704 1.399 . S
C705 H711 0.930 . S
H706 C686 0.931 . S
H707 C687 0.930 . S
H708 C695 0.931 . S
H709 C696 0.929 . S
H710 C704 0.929 . S
H711 C705 0.930 . S
Mn712 O717 2.095 . S
Mn712 O727 2.162 . S
Mn712 O728 2.290 1_554 S
Mn712 O736 2.385 1_554 S
Mn712 O737 2.209 1_554 S
Mn712 O738 2.094 . S
Mn713 O718 2.121 . S
Mn713 N720 2.257 1_554 S
Mn713 N729 2.282 1_554 S
Mn713 O737 2.215 1_554 S
Mn713 O739 2.117 . S
C714 O736 1.234 . S
C714 O737 1.283 . S
C715 O727 1.277 1_556 S
C715 O728 1.235 . S
C716 O738 1.240 . S
C716 O739 1.264 . S
O717 Mn712 2.095 . S
O717 C726 1.250 . S
O718 Mn713 2.121 . S
O718 C726 1.258 . S
C719 N720 1.326 1_554 S
C719 C723 1.460 . S
C719 H725 0.929 . S
N720 Mn713 2.257 1_556 S
N720 C719 1.326 1_556 S
N720 C724 1.362 . S
C721 C722 1.258 . S
C721 C724 1.431 . S
C721 C741 1.449 . S
C722 C721 1.258 . S
C722 C723 1.477 1_556 S
C722 H742 0.931 . S
C723 C719 1.460 . S
C723 C722 1.477 1_554 S
C723 H743 0.930 . S
C724 N720 1.362 . S
C724 C721 1.431 . S
C724 C734 1.476 . S
H725 C719 0.929 . S
C726 O717 1.250 . S
C726 O718 1.258 . S
O727 Mn712 2.162 . S
O727 C715 1.277 1_554 S
O728 Mn712 2.290 1_556 S
O728 C715 1.235 . S
N729 Mn713 2.282 1_556 S
N729 C730 1.328 . S
N729 C734 1.318 . S
C730 N729 1.328 . S
C730 C731 1.457 . S
C730 H735 0.929 . S
C731 C730 1.457 . S
C731 C732 1.291 . S
C731 H744 0.931 . S
C732 C731 1.291 . S
C732 C733 1.373 . S
C732 H745 0.929 . S
C733 C732 1.373 . S
C733 C734 1.396 . S
C733 C740 1.403 . S
C734 C724 1.476 . S
C734 N729 1.318 . S
C734 C733 1.396 . S
H735 C730 0.929 . S
O736 Mn712 2.385 1_556 S
O736 C714 1.234 . S
O737 Mn712 2.209 1_556 S
O737 Mn713 2.215 1_556 S
O737 C714 1.283 . S
O738 Mn712 2.094 . S
O738 C716 1.240 . S
O739 Mn713 2.117 . S
O739 C716 1.264 . S
C740 C733 1.403 . S
C740 C741 1.399 . S
C740 H746 0.929 . S
C741 C721 1.449 . S
C741 C740 1.399 . S
C741 H747 0.930 . S
H742 C722 0.931 . S
H743 C723 0.930 . S
H744 C731 0.931 . S
H745 C732 0.929 . S
H746 C740 0.929 . S
H747 C741 0.930 . S
Mn748 O753 2.095 . S
Mn748 O763 2.162 . S
Mn748 O764 2.297 . S
Mn748 O772 2.385 . S
Mn748 O773 2.209 . S
Mn748 O774 2.094 . S
Mn749 O754 2.121 . S
Mn749 N756 2.257 . S
Mn749 N765 2.282 . S
Mn749 O773 2.215 . S
Mn749 O775 2.117 . S
C750 O772 1.234 . S
C750 O773 1.283 . S
C751 O763 1.281 . S
C751 O764 1.236 . S
C752 O774 1.240 . S
C752 O775 1.264 . S
O753 Mn748 2.095 . S
O753 C762 1.250 . S
O754 Mn749 2.121 . S
O754 C762 1.258 . S
C755 N756 1.326 . S
C755 C759 1.460 . S
C755 H761 0.929 . S
N756 Mn749 2.257 . S
N756 C755 1.326 . S
N756 C760 1.362 . S
C757 C758 1.258 . S
C757 C760 1.431 . S
C757 C777 1.449 . S
C758 C757 1.258 . S
C758 C759 1.477 . S
C758 H778 0.931 . S
C759 C755 1.460 . S
C759 C758 1.477 . S
C759 H779 0.930 . S
C760 N756 1.362 . S
C760 C757 1.431 . S
C760 C770 1.476 . S
H761 C755 0.929 . S
C762 O753 1.250 . S
C762 O754 1.258 . S
O763 Mn748 2.162 . S
O763 C751 1.281 . S
O764 Mn748 2.297 . S
O764 C751 1.236 . S
N765 Mn749 2.282 . S
N765 C766 1.328 . S
N765 C770 1.318 . S
C766 N765 1.328 . S
C766 C767 1.457 . S
C766 H771 0.929 . S
C767 C766 1.457 . S
C767 C768 1.291 . S
C767 H780 0.931 . S
C768 C767 1.291 . S
C768 C769 1.373 . S
C768 H781 0.929 . S
C769 C768 1.373 . S
C769 C770 1.396 . S
C769 C776 1.403 . S
C770 C760 1.476 . S
C770 N765 1.318 . S
C770 C769 1.396 . S
H771 C766 0.929 . S
O772 Mn748 2.385 . S
O772 C750 1.234 . S
O773 Mn748 2.209 . S
O773 Mn749 2.215 . S
O773 C750 1.283 . S
O774 Mn748 2.094 . S
O774 C752 1.240 . S
O775 Mn749 2.117 . S
O775 C752 1.264 . S
C776 C769 1.403 . S
C776 C777 1.399 . S
C776 H782 0.929 . S
C777 C757 1.449 . S
C777 C776 1.399 . S
C777 H783 0.930 . S
H778 C758 0.931 . S
H779 C759 0.930 . S
H780 C767 0.931 . S
H781 C768 0.929 . S
H782 C776 0.929 . S
H783 C777 0.930 . S
C784 C785 1.363 . S
C784 C790 1.379 . S
C784 N792 1.356 . S
C785 C784 1.363 . S
C785 C791 1.363 . S
C786 C787 1.363 . S
C786 C791 1.379 . S
C786 N793 1.356 . S
C787 C786 1.363 . S
C787 C790 1.363 . S
N788 C790 1.356 . S
N788 H800 0.984 . S
N788 H801 0.985 . S
N789 C791 1.356 . S
N789 H794 0.984 . S
N789 H795 0.985 . S
C790 C784 1.379 . S
C790 C787 1.363 . S
C790 N788 1.356 . S
C791 C785 1.363 . S
C791 C786 1.379 . S
C791 N789 1.356 . S
N792 C784 1.356 . S
N792 H798 0.984 . S
N792 H799 0.984 . S
N793 C786 1.356 . S
N793 H796 0.984 . S
N793 H797 0.985 . S
H794 N789 0.984 . S
H795 N789 0.985 . S
H796 N793 0.984 . S
H797 N793 0.985 . S
H798 N792 0.984 . S
H799 N792 0.984 . S
H800 N788 0.984 . S
H801 N788 0.985 . S
C802 C803 1.363 . S
C802 C808 1.379 . S
C802 N810 1.356 . S
C803 C802 1.363 . S
C803 C809 1.363 . S
C804 C805 1.363 . S
C804 C809 1.379 . S
C804 N811 1.356 . S
C805 C804 1.363 . S
C805 C808 1.363 . S
N806 C808 1.356 . S
N806 H818 0.984 . S
N806 H819 0.985 . S
N807 C809 1.356 . S
N807 H812 0.984 . S
N807 H813 0.985 . S
C808 C802 1.379 . S
C808 C805 1.363 . S
C808 N806 1.356 . S
C809 C803 1.363 . S
C809 C804 1.379 . S
C809 N807 1.356 . S
N810 C802 1.356 . S
N810 H816 0.984 . S
N810 H817 0.984 . S
N811 C804 1.356 . S
N811 H814 0.984 . S
N811 H815 0.985 . S
H812 N807 0.984 . S
H813 N807 0.985 . S
H814 N811 0.984 . S
H815 N811 0.985 . S
H816 N810 0.984 . S
H817 N810 0.984 . S
H818 N806 0.984 . S
H819 N806 0.985 . S
C820 C821 1.363 . S
C820 C826 1.379 . S
C820 N828 1.356 . S
C821 C820 1.363 . S
C821 C827 1.363 . S
C822 C823 1.363 . S
C822 C827 1.379 . S
C822 N829 1.356 . S
C823 C822 1.363 . S
C823 C826 1.363 . S
N824 C826 1.356 . S
N824 H836 0.984 . S
N824 H837 0.985 . S
N825 C827 1.356 . S
N825 H830 0.984 . S
N825 H831 0.985 . S
C826 C820 1.379 . S
C826 C823 1.363 . S
C826 N824 1.356 . S
C827 C821 1.363 . S
C827 C822 1.379 . S
C827 N825 1.356 . S
N828 C820 1.356 . S
N828 H834 0.984 . S
N828 H835 0.984 . S
N829 C822 1.356 . S
N829 H832 0.984 . S
N829 H833 0.985 . S
H830 N825 0.984 . S
H831 N825 0.985 . S
H832 N829 0.984 . S
H833 N829 0.985 . S
H834 N828 0.984 . S
H835 N828 0.984 . S
H836 N824 0.984 . S
H837 N824 0.985 . S
C838 C839 1.363 . S
C838 C844 1.379 . S
C838 N846 1.356 . S
C839 C838 1.363 . S
C839 C845 1.365 . S
C840 C841 1.363 . S
C840 C845 1.382 . S
C840 N847 1.356 . S
C841 C840 1.363 . S
C841 C844 1.363 . S
N842 C844 1.356 . S
N842 H854 0.984 . S
N842 H855 0.985 . S
N843 C845 1.351 1_556 S
N843 H848 0.984 . S
N843 H849 0.985 . S
C844 C838 1.379 . S
C844 C841 1.363 . S
C844 N842 1.356 . S
C845 C839 1.365 . S
C845 C840 1.382 . S
C845 N843 1.351 1_554 S
N846 C838 1.356 . S
N846 H852 0.984 . S
N846 H853 0.984 . S
N847 C840 1.356 . S
N847 H850 0.984 . S
N847 H851 0.985 1_554 S
H848 N843 0.984 . S
H849 N843 0.985 . S
H850 N847 0.984 . S
H851 N847 0.985 1_556 S
H852 N846 0.984 . S
H853 N846 0.984 . S
H854 N842 0.984 . S
H855 N842 0.985 . S
C856 C857 1.363 . S
C856 C862 1.379 . S
C856 N864 1.356 . S
C857 C856 1.363 . S
C857 C863 1.363 1_554 S
C858 C859 1.363 . S
C858 C863 1.379 . S
C858 N865 1.356 . S
C859 C858 1.363 . S
C859 C862 1.363 1_556 S
N860 C862 1.356 . S
N860 H872 0.984 . S
N860 H873 0.985 . S
N861 C863 1.356 . S
N861 H866 0.984 . S
N861 H867 0.985 . S
C862 C856 1.379 . S
C862 C859 1.363 1_554 S
C862 N860 1.356 . S
C863 C857 1.363 1_556 S
C863 C858 1.379 . S
C863 N861 1.356 . S
N864 C856 1.356 . S
N864 H870 0.984 . S
N864 H871 0.984 . S
N865 C858 1.356 . S
N865 H868 0.984 . S
N865 H869 0.985 . S
H866 N861 0.984 . S
H867 N861 0.985 . S
H868 N865 0.984 . S
H869 N865 0.985 . S
H870 N864 0.984 . S
H871 N864 0.984 . S
H872 N860 0.984 . S
H873 N860 0.985 . S
C874 C875 1.363 . S
C874 C880 1.379 . S
C874 N882 1.356 . S
C875 C874 1.363 . S
C875 C881 1.363 . S
C876 C877 1.363 . S
C876 C881 1.379 . S
C876 N883 1.356 . S
C877 C876 1.363 . S
C877 C880 1.363 . S
N878 C880 1.356 . S
N878 H890 0.984 . S
N878 H891 0.985 . S
N879 C881 1.356 . S
N879 H884 0.984 . S
N879 H885 0.985 . S
C880 C874 1.379 . S
C880 C877 1.363 . S
C880 N878 1.356 . S
C881 C875 1.363 . S
C881 C876 1.379 . S
C881 N879 1.356 . S
N882 C874 1.356 . S
N882 H888 0.984 . S
N882 H889 0.984 . S
N883 C876 1.356 . S
N883 H886 0.984 . S
N883 H887 0.985 . S
H884 N879 0.984 . S
H885 N879 0.985 . S
H886 N883 0.984 . S
H887 N883 0.985 . S
H888 N882 0.984 . S
H889 N882 0.984 . S
H890 N878 0.984 . S
H891 N878 0.985 . S
C892 C893 1.363 . S
C892 C898 1.379 . S
C892 N900 1.356 . S
C893 C892 1.363 . S
C893 C899 1.363 . S
C894 C895 1.363 . S
C894 C899 1.379 . S
C894 N901 1.356 . S
C895 C894 1.363 . S
C895 C898 1.363 . S
N896 C898 1.356 . S
N896 H908 0.984 . S
N896 H909 0.985 . S
N897 C899 1.356 . S
N897 H902 0.984 . S
N897 H903 0.985 . S
C898 C892 1.379 . S
C898 C895 1.363 . S
C898 N896 1.356 . S
C899 C893 1.363 . S
C899 C894 1.379 . S
C899 N897 1.356 . S
N900 C892 1.356 . S
N900 H906 0.984 . S
N900 H907 0.984 . S
N901 C894 1.356 . S
N901 H904 0.984 . S
N901 H905 0.985 . S
H902 N897 0.984 . S
H903 N897 0.985 . S
H904 N901 0.984 . S
H905 N901 0.985 . S
H906 N900 0.984 . S
H907 N900 0.984 . S
H908 N896 0.984 . S
H909 N896 0.985 . S
C910 C911 1.363 . S
C910 C916 1.379 . S
C910 N918 1.356 . S
C911 C910 1.363 . S
C911 C917 1.363 . S
C912 C913 1.363 . S
C912 C917 1.379 . S
C912 N919 1.356 . S
C913 C912 1.363 . S
C913 C916 1.363 . S
N914 C916 1.356 . S
N914 H926 0.984 . S
N914 H927 0.985 . S
N915 C917 1.356 . S
N915 H920 0.984 . S
N915 H921 0.985 . S
C916 C910 1.379 . S
C916 C913 1.363 . S
C916 N914 1.356 . S
C917 C911 1.363 . S
C917 C912 1.379 . S
C917 N915 1.356 . S
N918 C910 1.356 . S
N918 H924 0.984 . S
N918 H925 0.984 . S
N919 C912 1.356 . S
N919 H922 0.984 . S
N919 H923 0.985 . S
H920 N915 0.984 . S
H921 N915 0.985 . S
H922 N919 0.984 . S
H923 N919 0.985 . S
H924 N918 0.984 . S
H925 N918 0.984 . S
H926 N914 0.984 . S
H927 N914 0.985 . S
C928 C929 1.363 . S
C928 C934 1.379 . S
C928 N936 1.356 . S
C929 C928 1.363 . S
C929 C935 1.363 . S
C930 C931 1.363 . S
C930 C935 1.379 . S
C930 N937 1.356 . S
C931 C930 1.363 . S
C931 C934 1.363 . S
N932 C934 1.356 . S
N932 H944 0.984 . S
N932 H945 0.985 . S
N933 C935 1.356 . S
N933 H938 0.984 . S
N933 H939 0.985 . S
C934 C928 1.379 . S
C934 C931 1.363 . S
C934 N932 1.356 . S
C935 C929 1.363 . S
C935 C930 1.379 . S
C935 N933 1.356 . S
N936 C928 1.356 . S
N936 H942 0.984 . S
N936 H943 0.984 . S
N937 C930 1.356 . S
N937 H940 0.984 . S
N937 H941 0.985 . S
H938 N933 0.984 . S
H939 N933 0.985 . S
H940 N937 0.984 . S
H941 N937 0.985 . S
H942 N936 0.984 . S
H943 N936 0.984 . S
H944 N932 0.984 . S
H945 N932 0.985 . S
C946 C947 1.363 . S
C946 C952 1.379 . S
C946 N954 1.356 . S
C947 C946 1.363 . S
C947 C953 1.363 1_554 S
C948 C949 1.363 1_556 S
C948 C953 1.379 . S
C948 N955 1.356 . S
C949 C948 1.363 1_554 S
C949 C952 1.363 . S
N950 C952 1.356 . S
N950 H962 0.984 . S
N950 H963 0.985 . S
N951 C953 1.356 . S
N951 H956 0.984 . S
N951 H957 0.985 . S
C952 C946 1.379 . S
C952 C949 1.363 . S
C952 N950 1.356 . S
C953 C947 1.363 1_556 S
C953 C948 1.379 . S
C953 N951 1.356 . S
N954 C946 1.356 . S
N954 H960 0.984 . S
N954 H961 0.984 . S
N955 C948 1.356 . S
N955 H958 0.984 . S
N955 H959 0.985 . S
H956 N951 0.984 . S
H957 N951 0.985 . S
H958 N955 0.984 . S
H959 N955 0.985 . S
H960 N954 0.984 . S
H961 N954 0.984 . S
H962 N950 0.984 . S
H963 N950 0.985 . S
C964 C965 1.363 . S
C964 C970 1.379 . S
C964 N972 1.356 . S
C965 C964 1.363 . S
C965 C971 1.363 . S
C966 C967 1.363 . S
C966 C971 1.379 . S
C966 N973 1.356 . S
C967 C966 1.363 . S
C967 C970 1.363 . S
N968 C970 1.356 . S
N968 H980 0.984 . S
N968 H981 0.985 . S
N969 C971 1.356 . S
N969 H974 0.984 . S
N969 H975 0.985 . S
C970 C964 1.379 . S
C970 C967 1.363 . S
C970 N968 1.356 . S
C971 C965 1.363 . S
C971 C966 1.379 . S
C971 N969 1.356 . S
N972 C964 1.356 . S
N972 H978 0.984 . S
N972 H979 0.984 . S
N973 C966 1.356 . S
N973 H976 0.984 . S
N973 H977 0.985 . S
H974 N969 0.984 . S
H975 N969 0.985 . S
H976 N973 0.984 . S
H977 N973 0.985 . S
H978 N972 0.984 . S
H979 N972 0.984 . S
H980 N968 0.984 . S
H981 N968 0.985 . S
C982 C983 1.363 . S
C982 C988 1.379 . S
C982 N990 1.356 . S
C983 C982 1.363 . S
C983 C989 1.363 . S
C984 C985 1.363 . S
C984 C989 1.379 . S
C984 N991 1.356 . S
C985 C984 1.363 . S
C985 C988 1.363 . S
N986 C988 1.356 . S
N986 H998 0.984 . S
N986 H999 0.985 . S
N987 C989 1.356 . S
N987 H992 0.984 . S
N987 H993 0.985 . S
C988 C982 1.379 . S
C988 C985 1.363 . S
C988 N986 1.356 . S
C989 C983 1.363 . S
C989 C984 1.379 . S
C989 N987 1.356 . S
N990 C982 1.356 . S
N990 H996 0.984 . S
N990 H997 0.984 . S
N991 C984 1.356 . S
N991 H994 0.984 . S
N991 H995 0.985 . S
H992 N987 0.984 . S
H993 N987 0.985 . S
H994 N991 0.984 . S
H995 N991 0.985 . S
H996 N990 0.984 . S
H997 N990 0.984 . S
H998 N986 0.984 . S
H999 N986 0.985 . S
C1000 C1001 1.363 . S
C1000 C1006 1.379 . S
C1000 N1008 1.356 . S
C1001 C1000 1.363 . S
C1001 C1007 1.363 . S
C1002 C1003 1.363 . S
C1002 C1007 1.379 . S
C1002 N1009 1.356 . S
C1003 C1002 1.363 . S
C1003 C1006 1.363 . S
N1004 C1006 1.356 . S
N1004 H1016 0.984 . S
N1004 H1017 0.985 . S
N1005 C1007 1.356 . S
N1005 H1010 0.984 . S
N1005 H1011 0.985 . S
C1006 C1000 1.379 . S
C1006 C1003 1.363 . S
C1006 N1004 1.356 . S
C1007 C1001 1.363 . S
C1007 C1002 1.379 . S
C1007 N1005 1.356 . S
N1008 C1000 1.356 . S
N1008 H1014 0.984 . S
N1008 H1015 0.984 . S
N1009 C1002 1.356 . S
N1009 H1012 0.984 . S
N1009 H1013 0.985 . S
H1010 N1005 0.984 . S
H1011 N1005 0.985 . S
H1012 N1009 0.984 . S
H1013 N1009 0.985 . S
H1014 N1008 0.984 . S
H1015 N1008 0.984 . S
H1016 N1004 0.984 . S
H1017 N1004 0.985 . S
C1018 C1019 1.363 . S
C1018 C1024 1.379 . S
C1018 N1026 1.356 . S
C1019 C1018 1.363 . S
C1019 C1025 1.363 . S
C1020 C1021 1.363 . S
C1020 C1025 1.379 . S
C1020 N1027 1.356 . S
C1021 C1020 1.363 . S
C1021 C1024 1.363 . S
N1022 C1024 1.356 . S
N1022 H1034 0.984 . S
N1022 H1035 0.985 . S
N1023 C1025 1.356 . S
N1023 H1028 0.984 . S
N1023 H1029 0.985 . S
C1024 C1018 1.379 . S
C1024 C1021 1.363 . S
C1024 N1022 1.356 . S
C1025 C1019 1.363 . S
C1025 C1020 1.379 . S
C1025 N1023 1.356 . S
N1026 C1018 1.356 . S
N1026 H1032 0.984 . S
N1026 H1033 0.984 . S
N1027 C1020 1.356 . S
N1027 H1030 0.984 . S
N1027 H1031 0.985 . S
H1028 N1023 0.984 . S
H1029 N1023 0.985 . S
H1030 N1027 0.984 . S
H1031 N1027 0.985 . S
H1032 N1026 0.984 . S
H1033 N1026 0.984 . S
H1034 N1022 0.984 . S
H1035 N1022 0.985 . S
C1036 C1037 1.367 . S
C1036 C1042 1.376 1_554 S
C1036 N1044 1.356 . S
C1037 C1036 1.367 . S
C1037 C1043 1.363 . S
C1038 C1039 1.363 1_554 S
C1038 C1043 1.379 . S
C1038 N1045 1.356 . S
C1039 C1038 1.363 1_556 S
C1039 C1042 1.363 . S
N1040 C1042 1.356 . S
N1040 H1052 0.984 . S
N1040 H1053 0.985 . S
N1041 C1043 1.356 . S
N1041 H1046 0.984 . S
N1041 H1047 0.985 . S
C1042 C1036 1.376 1_556 S
C1042 C1039 1.363 . S
C1042 N1040 1.356 . S
C1043 C1037 1.363 . S
C1043 C1038 1.379 . S
C1043 N1041 1.356 . S
N1044 C1036 1.356 . S
N1044 H1050 0.982 1_554 S
N1044 H1051 0.986 . S
N1045 C1038 1.356 . S
N1045 H1048 0.991 . S
N1045 H1049 0.985 . S
H1046 N1041 0.984 . S
H1047 N1041 0.985 . S
H1048 N1045 0.991 . S
H1049 N1045 0.985 . S
H1050 N1044 0.982 1_556 S
H1051 N1044 0.986 . S
H1052 N1040 0.984 . S
H1053 N1040 0.985 . S
C1054 C1055 1.363 . S
C1054 C1060 1.379 . S
C1054 N1062 1.356 . S
C1055 C1054 1.363 . S
C1055 C1061 1.363 . S
C1056 C1057 1.363 . S
C1056 C1061 1.379 . S
C1056 N1063 1.356 . S
C1057 C1056 1.363 . S
C1057 C1060 1.363 . S
N1058 C1060 1.356 . S
N1058 H1070 0.984 . S
N1058 H1071 0.985 . S
N1059 C1061 1.356 . S
N1059 H1064 0.984 . S
N1059 H1065 0.985 . S
C1060 C1054 1.379 . S
C1060 C1057 1.363 . S
C1060 N1058 1.356 . S
C1061 C1055 1.363 . S
C1061 C1056 1.379 . S
C1061 N1059 1.356 . S
N1062 C1054 1.356 . S
N1062 H1068 0.984 . S
N1062 H1069 0.984 . S
N1063 C1056 1.356 . S
N1063 H1066 0.984 . S
N1063 H1067 0.985 . S
H1064 N1059 0.984 . S
H1065 N1059 0.985 . S
H1066 N1063 0.984 . S
H1067 N1063 0.985 . S
H1068 N1062 0.984 . S
H1069 N1062 0.984 . S
H1070 N1058 0.984 . S
H1071 N1058 0.985 . S
C1072 C1073 1.363 . S
C1072 C1078 1.379 . S
C1072 N1080 1.356 . S
C1073 C1072 1.363 . S
C1073 C1079 1.363 . S
C1074 C1075 1.363 . S
C1074 C1079 1.379 . S
C1074 N1081 1.356 . S
C1075 C1074 1.363 . S
C1075 C1078 1.363 . S
N1076 C1078 1.356 . S
N1076 H1088 0.984 . S
N1076 H1089 0.985 . S
N1077 C1079 1.356 . S
N1077 H1082 0.984 . S
N1077 H1083 0.985 . S
C1078 C1072 1.379 . S
C1078 C1075 1.363 . S
C1078 N1076 1.356 . S
C1079 C1073 1.363 . S
C1079 C1074 1.379 . S
C1079 N1077 1.356 . S
N1080 C1072 1.356 . S
N1080 H1086 0.984 . S
N1080 H1087 0.984 . S
N1081 C1074 1.356 . S
N1081 H1084 0.984 . S
N1081 H1085 0.985 . S
H1082 N1077 0.984 . S
H1083 N1077 0.985 . S
H1084 N1081 0.984 . S
H1085 N1081 0.985 . S
H1086 N1080 0.984 . S
H1087 N1080 0.984 . S
H1088 N1076 0.984 . S
H1089 N1076 0.985 . S
C1090 C1091 1.363 . S
C1090 C1096 1.379 . S
C1090 N1098 1.356 . S
C1091 C1090 1.363 . S
C1091 C1097 1.363 . S
C1092 C1093 1.363 . S
C1092 C1097 1.379 . S
C1092 N1099 1.356 . S
C1093 C1092 1.363 . S
C1093 C1096 1.363 . S
N1094 C1096 1.356 . S
N1094 H1106 0.984 . S
N1094 H1107 0.985 . S
N1095 C1097 1.356 . S
N1095 H1100 0.984 . S
N1095 H1101 0.985 . S
C1096 C1090 1.379 . S
C1096 C1093 1.363 . S
C1096 N1094 1.356 . S
C1097 C1091 1.363 . S
C1097 C1092 1.379 . S
C1097 N1095 1.356 . S
N1098 C1090 1.356 . S
N1098 H1104 0.984 . S
N1098 H1105 0.984 . S
N1099 C1092 1.356 . S
N1099 H1102 0.984 . S
N1099 H1103 0.985 . S
H1100 N1095 0.984 . S
H1101 N1095 0.985 . S
H1102 N1099 0.984 . S
H1103 N1099 0.985 . S
H1104 N1098 0.984 . S
H1105 N1098 0.984 . S
H1106 N1094 0.984 . S
H1107 N1094 0.985 . S
C1108 C1109 1.363 . S
C1108 C1114 1.379 . S
C1108 N1116 1.356 . S
C1109 C1108 1.363 . S
C1109 C1115 1.363 . S
C1110 C1111 1.363 . S
C1110 C1115 1.379 . S
C1110 N1117 1.356 . S
C1111 C1110 1.363 . S
C1111 C1114 1.363 . S
N1112 C1114 1.356 . S
N1112 H1124 0.984 . S
N1112 H1125 0.985 . S
N1113 C1115 1.356 . S
N1113 H1118 0.984 . S
N1113 H1119 0.985 . S
C1114 C1108 1.379 . S
C1114 C1111 1.363 . S
C1114 N1112 1.356 . S
C1115 C1109 1.363 . S
C1115 C1110 1.379 . S
C1115 N1113 1.356 . S
N1116 C1108 1.356 . S
N1116 H1122 0.984 . S
N1116 H1123 0.984 . S
N1117 C1110 1.356 . S
N1117 H1120 0.984 . S
N1117 H1121 0.985 . S
H1118 N1113 0.984 . S
H1119 N1113 0.985 . S
H1120 N1117 0.984 . S
H1121 N1117 0.985 . S
H1122 N1116 0.984 . S
H1123 N1116 0.984 . S
H1124 N1112 0.984 . S
H1125 N1112 0.985 . S
C1126 C1127 1.363 . S
C1126 C1132 1.379 . S
C1126 N1134 1.356 . S
C1127 C1126 1.363 . S
C1127 C1133 1.363 . S
C1128 C1129 1.363 . S
C1128 C1133 1.379 . S
C1128 N1135 1.356 . S
C1129 C1128 1.363 . S
C1129 C1132 1.363 . S
N1130 C1132 1.356 . S
N1130 H1142 0.984 . S
N1130 H1143 0.985 . S
N1131 C1133 1.356 . S
N1131 H1136 0.984 . S
N1131 H1137 0.985 . S
C1132 C1126 1.379 . S
C1132 C1129 1.363 . S
C1132 N1130 1.356 . S
C1133 C1127 1.363 . S
C1133 C1128 1.379 . S
C1133 N1131 1.356 . S
N1134 C1126 1.356 . S
N1134 H1140 0.984 . S
N1134 H1141 0.984 . S
N1135 C1128 1.356 . S
N1135 H1138 0.984 . S
N1135 H1139 0.985 . S
H1136 N1131 0.984 . S
H1137 N1131 0.985 . S
H1138 N1135 0.984 . S
H1139 N1135 0.985 . S
H1140 N1134 0.984 . S
H1141 N1134 0.984 . S
H1142 N1130 0.984 . S
H1143 N1130 0.985 . S
C1144 C1145 1.363 . S
C1144 C1150 1.379 . S
C1144 N1152 1.356 . S
C1145 C1144 1.363 . S
C1145 C1151 1.363 . S
C1146 C1147 1.363 . S
C1146 C1151 1.379 . S
C1146 N1153 1.356 . S
C1147 C1146 1.363 . S
C1147 C1150 1.363 . S
N1148 C1150 1.356 . S
N1148 H1160 0.984 . S
N1148 H1161 0.985 . S
N1149 C1151 1.356 . S
N1149 H1154 0.984 . S
N1149 H1155 0.985 . S
C1150 C1144 1.379 . S
C1150 C1147 1.363 . S
C1150 N1148 1.356 . S
C1151 C1145 1.363 . S
C1151 C1146 1.379 . S
C1151 N1149 1.356 . S
N1152 C1144 1.356 . S
N1152 H1158 0.984 . S
N1152 H1159 0.984 . S
N1153 C1146 1.356 . S
N1153 H1156 0.984 . S
N1153 H1157 0.985 . S
H1154 N1149 0.984 . S
H1155 N1149 0.985 . S
H1156 N1153 0.984 . S
H1157 N1153 0.985 . S
H1158 N1152 0.984 . S
H1159 N1152 0.984 . S
H1160 N1148 0.984 . S
H1161 N1148 0.985 . S
C1162 C1163 1.363 . S
C1162 C1168 1.379 . S
C1162 N1170 1.356 . S
C1163 C1162 1.363 . S
C1163 C1169 1.363 . S
C1164 C1165 1.363 . S
C1164 C1169 1.379 . S
C1164 N1171 1.356 . S
C1165 C1164 1.363 . S
C1165 C1168 1.363 . S
N1166 C1168 1.356 . S
N1166 H1178 0.984 . S
N1166 H1179 0.985 . S
N1167 C1169 1.356 . S
N1167 H1172 0.984 . S
N1167 H1173 0.985 . S
C1168 C1162 1.379 . S
C1168 C1165 1.363 . S
C1168 N1166 1.356 . S
C1169 C1163 1.363 . S
C1169 C1164 1.379 . S
C1169 N1167 1.356 . S
N1170 C1162 1.356 . S
N1170 H1176 0.984 . S
N1170 H1177 0.984 . S
N1171 C1164 1.356 . S
N1171 H1174 0.984 . S
N1171 H1175 0.985 . S
H1172 N1167 0.984 . S
H1173 N1167 0.985 . S
H1174 N1171 0.984 . S
H1175 N1171 0.985 . S
H1176 N1170 0.984 . S
H1177 N1170 0.984 . S
H1178 N1166 0.984 . S
H1179 N1166 0.985 . S
C1180 C1181 1.363 . S
C1180 C1186 1.379 . S
C1180 N1188 1.356 . S
C1181 C1180 1.363 . S
C1181 C1187 1.363 . S
C1182 C1183 1.363 . S
C1182 C1187 1.379 . S
C1182 N1189 1.356 . S
C1183 C1182 1.363 . S
C1183 C1186 1.363 . S
N1184 C1186 1.356 . S
N1184 H1196 0.984 . S
N1184 H1197 0.985 . S
N1185 C1187 1.356 . S
N1185 H1190 0.984 . S
N1185 H1191 0.985 . S
C1186 C1180 1.379 . S
C1186 C1183 1.363 . S
C1186 N1184 1.356 . S
C1187 C1181 1.363 . S
C1187 C1182 1.379 . S
C1187 N1185 1.356 . S
N1188 C1180 1.356 . S
N1188 H1194 0.984 . S
N1188 H1195 0.984 . S
N1189 C1182 1.356 . S
N1189 H1192 0.984 . S
N1189 H1193 0.985 . S
H1190 N1185 0.984 . S
H1191 N1185 0.985 . S
H1192 N1189 0.984 . S
H1193 N1189 0.985 . S
H1194 N1188 0.984 . S
H1195 N1188 0.984 . S
H1196 N1184 0.984 . S
H1197 N1184 0.985 . S
C1198 C1199 1.363 . S
C1198 C1204 1.379 . S
C1198 N1206 1.356 . S
C1199 C1198 1.363 . S
C1199 C1205 1.363 . S
C1200 C1201 1.363 . S
C1200 C1205 1.379 . S
C1200 N1207 1.356 . S
C1201 C1200 1.363 . S
C1201 C1204 1.363 . S
N1202 C1204 1.356 . S
N1202 H1214 0.984 . S
N1202 H1215 0.985 . S
N1203 C1205 1.356 . S
N1203 H1208 0.984 . S
N1203 H1209 0.985 . S
C1204 C1198 1.379 . S
C1204 C1201 1.363 . S
C1204 N1202 1.356 . S
C1205 C1199 1.363 . S
C1205 C1200 1.379 . S
C1205 N1203 1.356 . S
N1206 C1198 1.356 . S
N1206 H1212 0.984 . S
N1206 H1213 0.984 . S
N1207 C1200 1.356 . S
N1207 H1210 0.984 . S
N1207 H1211 0.985 . S
H1208 N1203 0.984 . S
H1209 N1203 0.985 . S
H1210 N1207 0.984 . S
H1211 N1207 0.985 . S
H1212 N1206 0.984 . S
H1213 N1206 0.984 . S
H1214 N1202 0.984 . S
H1215 N1202 0.985 . S
C1216 C1217 1.363 . S
C1216 C1222 1.379 . S
C1216 N1224 1.356 . S
C1217 C1216 1.363 . S
C1217 C1223 1.363 . S
C1218 C1219 1.363 . S
C1218 C1223 1.379 . S
C1218 N1225 1.356 . S
C1219 C1218 1.363 . S
C1219 C1222 1.363 . S
N1220 C1222 1.356 . S
N1220 H1232 0.984 . S
N1220 H1233 0.985 . S
N1221 C1223 1.356 . S
N1221 H1226 0.984 . S
N1221 H1227 0.985 . S
C1222 C1216 1.379 . S
C1222 C1219 1.363 . S
C1222 N1220 1.356 . S
C1223 C1217 1.363 . S
C1223 C1218 1.379 . S
C1223 N1221 1.356 . S
N1224 C1216 1.356 . S
N1224 H1230 0.984 . S
N1224 H1231 0.984 . S
N1225 C1218 1.356 . S
N1225 H1228 0.984 . S
N1225 H1229 0.985 . S
H1226 N1221 0.984 . S
H1227 N1221 0.985 . S
H1228 N1225 0.984 . S
H1229 N1225 0.985 . S
H1230 N1224 0.984 . S
H1231 N1224 0.984 . S
H1232 N1220 0.984 . S
H1233 N1220 0.985 . S
C1234 C1235 1.363 . S
C1234 C1240 1.379 . S
C1234 N1242 1.356 . S
C1235 C1234 1.363 . S
C1235 C1241 1.363 . S
C1236 C1237 1.363 . S
C1236 C1241 1.379 . S
C1236 N1243 1.356 . S
C1237 C1236 1.363 . S
C1237 C1240 1.363 . S
N1238 C1240 1.356 . S
N1238 H1250 0.984 . S
N1238 H1251 0.985 . S
N1239 C1241 1.356 . S
N1239 H1244 0.984 . S
N1239 H1245 0.985 . S
C1240 C1234 1.379 . S
C1240 C1237 1.363 . S
C1240 N1238 1.356 . S
C1241 C1235 1.363 . S
C1241 C1236 1.379 . S
C1241 N1239 1.356 . S
N1242 C1234 1.356 . S
N1242 H1248 0.984 . S
N1242 H1249 0.984 . S
N1243 C1236 1.356 . S
N1243 H1246 0.984 . S
N1243 H1247 0.985 . S
H1244 N1239 0.984 . S
H1245 N1239 0.985 . S
H1246 N1243 0.984 . S
H1247 N1243 0.985 . S
H1248 N1242 0.984 . S
H1249 N1242 0.984 . S
H1250 N1238 0.984 . S
H1251 N1238 0.985 . S
C1252 C1253 1.363 . S
C1252 C1258 1.379 . S
C1252 N1260 1.356 . S
C1253 C1252 1.363 . S
C1253 C1259 1.363 . S
C1254 C1255 1.363 . S
C1254 C1259 1.379 . S
C1254 N1261 1.356 . S
C1255 C1254 1.363 . S
C1255 C1258 1.363 . S
N1256 C1258 1.356 . S
N1256 H1268 0.984 . S
N1256 H1269 0.985 . S
N1257 C1259 1.356 . S
N1257 H1262 0.984 . S
N1257 H1263 0.985 . S
C1258 C1252 1.379 . S
C1258 C1255 1.363 . S
C1258 N1256 1.356 . S
C1259 C1253 1.363 . S
C1259 C1254 1.379 . S
C1259 N1257 1.356 . S
N1260 C1252 1.356 . S
N1260 H1266 0.984 . S
N1260 H1267 0.984 . S
N1261 C1254 1.356 . S
N1261 H1264 0.984 . S
N1261 H1265 0.985 . S
H1262 N1257 0.984 . S
H1263 N1257 0.985 . S
H1264 N1261 0.984 . S
H1265 N1261 0.985 . S
H1266 N1260 0.984 . S
H1267 N1260 0.984 . S
H1268 N1256 0.984 . S
H1269 N1256 0.985 . S
C1270 C1271 1.363 . S
C1270 C1276 1.379 . S
C1270 N1278 1.356 . S
C1271 C1270 1.363 . S
C1271 C1277 1.363 . S
C1272 C1273 1.363 . S
C1272 C1277 1.379 . S
C1272 N1279 1.356 . S
C1273 C1272 1.363 . S
C1273 C1276 1.363 . S
N1274 C1276 1.356 . S
N1274 H1286 0.984 . S
N1274 H1287 0.985 . S
N1275 C1277 1.356 . S
N1275 H1280 0.984 . S
N1275 H1281 0.985 . S
C1276 C1270 1.379 . S
C1276 C1273 1.363 . S
C1276 N1274 1.356 . S
C1277 C1271 1.363 . S
C1277 C1272 1.379 . S
C1277 N1275 1.356 . S
N1278 C1270 1.356 . S
N1278 H1284 0.984 . S
N1278 H1285 0.984 . S
N1279 C1272 1.356 . S
N1279 H1282 0.984 . S
N1279 H1283 0.985 . S
H1280 N1275 0.984 . S
H1281 N1275 0.985 . S
H1282 N1279 0.984 . S
H1283 N1279 0.985 . S
H1284 N1278 0.984 . S
H1285 N1278 0.984 . S
H1286 N1274 0.984 . S
H1287 N1274 0.985 . S
C1288 C1289 1.363 . S
C1288 C1294 1.379 . S
C1288 N1296 1.356 . S
C1289 C1288 1.363 . S
C1289 C1295 1.363 . S
C1290 C1291 1.363 . S
C1290 C1295 1.379 . S
C1290 N1297 1.356 . S
C1291 C1290 1.363 . S
C1291 C1294 1.363 . S
N1292 C1294 1.356 . S
N1292 H1304 0.984 . S
N1292 H1305 0.985 . S
N1293 C1295 1.356 . S
N1293 H1298 0.984 . S
N1293 H1299 0.985 . S
C1294 C1288 1.379 . S
C1294 C1291 1.363 . S
C1294 N1292 1.356 . S
C1295 C1289 1.363 . S
C1295 C1290 1.379 . S
C1295 N1293 1.356 . S
N1296 C1288 1.356 . S
N1296 H1302 0.984 . S
N1296 H1303 0.984 . S
N1297 C1290 1.356 . S
N1297 H1300 0.984 . S
N1297 H1301 0.985 . S
H1298 N1293 0.984 . S
H1299 N1293 0.985 . S
H1300 N1297 0.984 . S
H1301 N1297 0.985 . S
H1302 N1296 0.984 . S
H1303 N1296 0.984 . S
H1304 N1292 0.984 . S
H1305 N1292 0.985 . S
C1306 C1307 1.363 . S
C1306 C1312 1.379 . S
C1306 N1314 1.356 . S
C1307 C1306 1.363 . S
C1307 C1313 1.363 . S
C1308 C1309 1.363 . S
C1308 C1313 1.379 . S
C1308 N1315 1.356 . S
C1309 C1308 1.363 . S
C1309 C1312 1.363 . S
N1310 C1312 1.356 . S
N1310 H1322 0.984 . S
N1310 H1323 0.985 . S
N1311 C1313 1.356 . S
N1311 H1316 0.984 . S
N1311 H1317 0.985 . S
C1312 C1306 1.379 . S
C1312 C1309 1.363 . S
C1312 N1310 1.356 . S
C1313 C1307 1.363 . S
C1313 C1308 1.379 . S
C1313 N1311 1.356 . S
N1314 C1306 1.356 . S
N1314 H1320 0.984 . S
N1314 H1321 0.984 . S
N1315 C1308 1.356 . S
N1315 H1318 0.984 . S
N1315 H1319 0.985 . S
H1316 N1311 0.984 . S
H1317 N1311 0.985 . S
H1318 N1315 0.984 . S
H1319 N1315 0.985 . S
H1320 N1314 0.984 . S
H1321 N1314 0.984 . S
H1322 N1310 0.984 . S
H1323 N1310 0.985 . S
C1324 C1325 1.363 . S
C1324 C1330 1.379 . S
C1324 N1332 1.356 . S
C1325 C1324 1.363 . S
C1325 C1331 1.363 . S
C1326 C1327 1.363 . S
C1326 C1331 1.379 . S
C1326 N1333 1.356 . S
C1327 C1326 1.363 . S
C1327 C1330 1.363 . S
N1328 C1330 1.356 . S
N1328 H1340 0.984 . S
N1328 H1341 0.985 . S
N1329 C1331 1.356 . S
N1329 H1334 0.984 . S
N1329 H1335 0.985 . S
C1330 C1324 1.379 . S
C1330 C1327 1.363 . S
C1330 N1328 1.356 . S
C1331 C1325 1.363 . S
C1331 C1326 1.379 . S
C1331 N1329 1.356 . S
N1332 C1324 1.356 . S
N1332 H1338 0.984 . S
N1332 H1339 0.984 . S
N1333 C1326 1.356 . S
N1333 H1336 0.984 . S
N1333 H1337 0.985 . S
H1334 N1329 0.984 . S
H1335 N1329 0.985 . S
H1336 N1333 0.984 . S
H1337 N1333 0.985 . S
H1338 N1332 0.984 . S
H1339 N1332 0.984 . S
H1340 N1328 0.984 . S
H1341 N1328 0.985 . S
C1342 C1343 1.363 . S
C1342 C1348 1.379 . S
C1342 N1350 1.356 . S
C1343 C1342 1.363 . S
C1343 C1349 1.363 . S
C1344 C1345 1.363 . S
C1344 C1349 1.379 . S
C1344 N1351 1.356 . S
C1345 C1344 1.363 . S
C1345 C1348 1.363 . S
N1346 C1348 1.356 . S
N1346 H1358 0.984 . S
N1346 H1359 0.985 . S
N1347 C1349 1.356 . S
N1347 H1352 0.984 . S
N1347 H1353 0.985 . S
C1348 C1342 1.379 . S
C1348 C1345 1.363 . S
C1348 N1346 1.356 . S
C1349 C1343 1.363 . S
C1349 C1344 1.379 . S
C1349 N1347 1.356 . S
N1350 C1342 1.356 . S
N1350 H1356 0.984 . S
N1350 H1357 0.984 . S
N1351 C1344 1.356 . S
N1351 H1354 0.984 . S
N1351 H1355 0.985 . S
H1352 N1347 0.984 . S
H1353 N1347 0.985 . S
H1354 N1351 0.984 . S
H1355 N1351 0.985 . S
H1356 N1350 0.984 . S
H1357 N1350 0.984 . S
H1358 N1346 0.984 . S
H1359 N1346 0.985 . S
C787 C535 1.581 . S
C785 C35 1.363 . S
C805 C572 1.565 . S
C803 C115 1.376 . S
C823 C608 1.601 . S
C821 C177 1.398 . S
C839 C221 1.384 . S
C841 C499 1.617 . S
C857 C283 1.381 1_554 S
C859 C500 1.601 . S
C875 C363 1.376 . S
C877 C536 1.565 . S
C895 C571 1.581 . S
C893 C407 1.363 . S
C913 C607 1.617 . S
C911 C469 1.384 . S
C929 C159 1.363 . S
C931 C679 1.581 . S
C949 C716 1.565 . S
C947 C239 1.376 . S
C965 C53 1.399 . S
C967 C752 1.601 . S
C985 C643 1.617 . S
C983 C97 1.384 . S
C1001 C425 1.398 . S
C1003 C644 1.601 . S
C1019 C487 1.376 . S
C1021 C680 1.565 . S
C1039 C715 1.582 . S
C1037 C301 1.381 1_554 S
C1055 C345 1.384 . S
C1057 C751 1.617 . S
C1075 C570 1.884 . S
C1073 C29 1.889 . S
C1093 C606 1.873 . S
C1091 C109 1.818 . S
C1109 C171 1.768 . S
C1111 C510 1.668 . S
C1127 C215 1.837 . S
C1129 C546 1.681 . S
C1145 C277 1.823 . S
C1147 C618 1.668 . S
C1165 C498 1.873 . S
C1163 C357 1.818 . S
C1183 C534 1.883 . S
C1181 C401 1.889 . S
C1201 C582 1.681 . S
C1199 C463 1.837 . S
C1219 C714 1.883 . S
C1217 C153 1.889 . S
C1237 C750 1.873 . S
C1235 C233 1.818 . S
C1253 C47 1.768 . S
C1255 C654 1.668 . S
C1273 C690 1.681 . S
C1271 C91 1.837 . S
C1291 C762 1.668 . S
C1289 C419 1.768 . S
C1307 C481 1.818 . S
C1309 C642 1.873 . S
C1327 C678 1.883 . S
C1325 C295 1.835 . S
C1345 C726 1.682 . S
C1343 C339 1.837 . S
