# Generated by pormake.
# Topology zzz, (3,6)-cn, num edge types: 1
# Building blocks:
#     Node 0, Type 0, BuildingBlock: BETDAH_clean_linker_0, # of connection points: 3
#     Node 1, Type 0, BuildingBlock: BETDAH_clean_linker_0, # of connection points: 3
#     Node 2, Type 0, BuildingBlock: BETDAH_clean_linker_0, # of connection points: 3
#     Node 3, Type 0, BuildingBlock: BETDAH_clean_linker_0, # of connection points: 3
#     Node 4, Type 0, BuildingBlock: BETDAH_clean_linker_0, # of connection points: 3
#     Node 5, Type 0, BuildingBlock: BETDAH_clean_linker_0, # of connection points: 3
#     Node 6, Type 0, BuildingBlock: BETDAH_clean_linker_0, # of connection points: 3
#     Node 7, Type 0, BuildingBlock: BETDAH_clean_linker_0, # of connection points: 3
#     Node 8, Type 1, BuildingBlock: BETDAH_clean_sbu_0, # of connection points: 6
#     Node 9, Type 1, BuildingBlock: BETDAH_clean_sbu_0, # of connection points: 6
#     Node 10, Type 1, BuildingBlock: BETDAH_clean_sbu_0, # of connection points: 6
#     Node 11, Type 1, BuildingBlock: BETDAH_clean_sbu_0, # of connection points: 6
#     Edge 12, Type (0, 1), BuildingBlock: XUDNAN_clean_linker_2, # of connection points: 2
#     Edge 13, Type (0, 1), BuildingBlock: XUDNAN_clean_linker_2, # of connection points: 2
#     Edge 14, Type (0, 1), BuildingBlock: XUDNAN_clean_linker_2, # of connection points: 2
#     Edge 15, Type (0, 1), BuildingBlock: XUDNAN_clean_linker_2, # of connection points: 2
#     Edge 16, Type (0, 1), BuildingBlock: XUDNAN_clean_linker_2, # of connection points: 2
#     Edge 17, Type (0, 1), BuildingBlock: XUDNAN_clean_linker_2, # of connection points: 2
#     Edge 18, Type (0, 1), BuildingBlock: XUDNAN_clean_linker_2, # of connection points: 2
#     Edge 19, Type (0, 1), BuildingBlock: XUDNAN_clean_linker_2, # of connection points: 2
#     Edge 20, Type (0, 1), BuildingBlock: XUDNAN_clean_linker_2, # of connection points: 2
#     Edge 21, Type (0, 1), BuildingBlock: XUDNAN_clean_linker_2, # of connection points: 2
#     Edge 22, Type (0, 1), BuildingBlock: XUDNAN_clean_linker_2, # of connection points: 2
#     Edge 23, Type (0, 1), BuildingBlock: XUDNAN_clean_linker_2, # of connection points: 2
#     Edge 24, Type (0, 1), BuildingBlock: XUDNAN_clean_linker_2, # of connection points: 2
#     Edge 25, Type (0, 1), BuildingBlock: XUDNAN_clean_linker_2, # of connection points: 2
#     Edge 26, Type (0, 1), BuildingBlock: XUDNAN_clean_linker_2, # of connection points: 2
#     Edge 27, Type (0, 1), BuildingBlock: XUDNAN_clean_linker_2, # of connection points: 2
#     Edge 28, Type (0, 1), BuildingBlock: XUDNAN_clean_linker_2, # of connection points: 2
#     Edge 29, Type (0, 1), BuildingBlock: XUDNAN_clean_linker_2, # of connection points: 2
#     Edge 30, Type (0, 1), BuildingBlock: XUDNAN_clean_linker_2, # of connection points: 2
#     Edge 31, Type (0, 1), BuildingBlock: XUDNAN_clean_linker_2, # of connection points: 2
#     Edge 32, Type (0, 1), BuildingBlock: XUDNAN_clean_linker_2, # of connection points: 2
#     Edge 33, Type (0, 1), BuildingBlock: XUDNAN_clean_linker_2, # of connection points: 2
#     Edge 34, Type (0, 1), BuildingBlock: XUDNAN_clean_linker_2, # of connection points: 2
#     Edge 35, Type (0, 1), BuildingBlock: XUDNAN_clean_linker_2, # of connection points: 2
# Relax obj value: 0.274
# Max RMSD: 0.191
# Mean RMSD: 0.165
data_MOF--net-zzz--node1-BETDAH_clean_sbu_0--node2-BETDAH_clean_linker_0--edge1-XUDNAN_clean_linker_2
_symmetry_space_group_name_H-M    P1
_symmetry_Int_Tables_number       1
_symmetry_cell_setting            triclinic
loop_
_symmetry_equiv_pos_as_xyz
'x, y, z'
_cell_length_a     52.0682
_cell_length_b     52.25586
_cell_length_c     13.322854
_cell_angle_alpha  90.061687
_cell_angle_beta   89.769115
_cell_angle_gamma 90.03623
loop_
_atom_site_label
_atom_site_type_symbol
_atom_site_fract_x
_atom_site_fract_y
_atom_site_fract_z
_atom_type_partial_charge
H0 H 0.80993 0.50275 0.30654 0.0
H1 H 0.72946 0.50381 0.24568 0.0
H2 H 0.75682 0.52102 0.54434 0.0
C3 C 0.79053 0.50641 0.33292 0.0
C4 C 0.78636 0.51285 0.43359 0.0
C5 C 0.77015 0.50336 0.26572 0.0
C6 C 0.7449 0.50659 0.29853 0.0
C7 C 0.73981 0.51328 0.39905 0.0
C8 C 0.76066 0.51611 0.46672 0.0
N9 N 0.71409 0.51714 0.43362 0.0
C10 C 0.69228 0.51593 0.37233 0.0
H11 H 0.99321 0.80933 0.32005 0.0
H12 H 0.99822 0.73072 0.23837 0.0
H13 H 0.02223 0.75487 0.53435 0.0
C14 C 0.99721 0.78987 0.3432 0.0
C15 C 1.00708 0.78502 0.43909 0.0
C16 C 0.99341 0.77035 0.27288 0.0
C17 C 1.00057 0.74535 0.29523 0.0
C18 C 1.01116 0.73951 0.38964 0.0
C19 C 1.0143 0.75943 0.46154 0.0
N20 N 0.01898 0.71396 0.41288 0.0
C21 C 1.01496 0.69306 0.34871 0.0
H22 H 0.73185 0.02028 0.34186 0.0
H23 H 0.81124 0.01715 0.25864 0.0
H24 H 0.78762 0.99647 0.55981 0.0
C25 C 0.75152 1.01575 0.36186 0.0
C26 C 0.75698 1.00757 0.45926 0.0
C27 C 0.77095 0.01912 0.29017 0.0
C28 C 0.79649 1.01438 0.31515 0.0
C29 C 0.80275 1.00585 0.41231 0.0
C30 C 0.7829 1.00279 0.4847 0.0
N31 N 0.82869 1.00018 0.43841 0.0
C32 C 0.84958 1.00319 0.37295 0.0
H33 H 0.49662 0.71879 0.35901 0.0
H34 H 0.50944 0.79625 0.26518 0.0
H35 H 0.55579 0.7632 0.50012 0.0
C36 C 0.50689 0.73673 0.36727 0.0
C37 C 0.5269 0.73824 0.43675 0.0
C38 C 0.50036 0.75756 0.30611 0.0
C39 C 0.51417 0.78046 0.31432 0.0
C40 C 0.53414 0.78275 0.3849 0.0
C41 C 0.54026 0.76161 0.44658 0.0
N42 N 0.54868 0.80578 0.39375 0.0
C43 C 0.54434 0.82777 0.3366 0.0
H44 H 0.22481 0.54835 0.13796 0.0
H45 H 0.30233 0.538 0.23779 0.0
H46 H 0.27301 0.4934 0.98969 0.0
C47 C 0.24337 0.53917 0.12934 0.0
C48 C 0.24621 0.52014 0.05644 0.0
C49 C 0.26342 0.54584 0.19434 0.0
C50 C 0.28712 0.53329 0.18575 0.0
C51 C 0.2909 0.51452 0.11093 0.0
C52 C 0.27036 0.50815 0.04594 0.0
N53 N 0.31476 0.50129 0.10105 0.0
C54 C 0.33618 0.50515 0.16242 0.0
H55 H 0.99161 0.21758 0.15383 0.0
H56 H 0.99786 0.29488 0.25922 0.0
H57 H 0.04427 0.26913 0.00855 0.0
C58 C 1.00031 0.2364 0.14716 0.0
C59 C 0.01905 0.24066 0.07368 0.0
C60 C 0.99253 0.25584 0.21288 0.0
C61 C 1.00371 0.28016 0.20664 0.0
C62 C 0.02241 0.28522 0.13236 0.0
C63 C 0.02981 0.2654 0.06537 0.0
N64 N 0.03428 0.30976 0.12372 0.0
C65 C 0.0292 0.3309 0.1854 0.0
H66 H 0.31819 0.04423 0.18562 0.0
H67 H 0.23951 0.03166 0.26343 0.0
H68 H 0.26779 1.00901 0.9708 0.0
C69 C 0.29925 0.03762 0.1637 0.0
C70 C 0.29596 0.02594 0.07019 0.0
C71 C 0.27909 0.03951 0.23303 0.0
C72 C 0.25465 0.03075 0.20775 0.0
C73 C 0.25015 0.02036 0.1118 0.0
C74 C 0.27096 0.01789 0.0432 0.0
N75 N 0.22525 1.01146 0.08407 0.0
C76 C 0.20364 1.01213 0.14698 0.0
H77 H 0.55864 0.30809 0.11854 0.0
H78 H 0.55476 0.23252 0.24534 0.0
H79 H 0.49528 0.2594 0.04688 0.0
C80 C 0.54976 0.28935 0.12238 0.0
C81 C 0.52664 0.28569 0.07163 0.0
C82 C 0.56021 0.27046 0.18519 0.0
C83 C 0.54708 0.24706 0.19604 0.0
C84 C 0.52365 0.24288 0.14558 0.0
C85 C 0.51351 0.26236 0.08402 0.0
N86 N 0.50935 0.21979 0.15737 0.0
C87 C 0.51629 0.19927 0.21861 0.0
Ho88 Ho 0.04266 1.00919 0.83611 0.0
Ho89 Ho 1.00678 0.01736 0.66891 0.0
C90 C 0.01965 0.96016 0.71379 0.0
C91 C 0.05919 0.9896 0.99908 0.0
C92 C 0.04603 0.96721 0.0422 0.0
C93 C 0.01908 0.96626 0.03728 0.0
C94 C 1.00619 0.94298 0.03841 0.0
C95 C 0.01983 0.91996 0.04854 0.0
C96 C 0.04659 0.9212 0.0652 0.0
C97 C 0.05963 0.9446 0.06042 0.0
C98 C 0.06706 0.01755 0.65943 0.0
C99 C 0.03026 0.06713 0.79189 0.0
C100 C 0.98234 0.03492 0.51595 0.0
C101 C 0.96856 0.05924 0.50693 0.0
C102 C 0.96284 0.06936 0.41246 0.0
C103 C 0.95241 0.09393 0.40457 0.0
C104 C 0.94815 0.1088 0.49114 0.0
C105 C 0.95321 0.09828 0.58579 0.0
C106 C 0.96316 0.07361 0.59366 0.0
C107 C 0.98306 1.00909 0.84819 0.0
O108 O 0.02652 0.96951 0.80209 0.0
O109 O 1.01418 0.97578 0.63918 0.0
O110 O 0.07032 0.98516 0.91265 0.0
O111 O 0.04577 1.01075 0.99821 0.0
O112 O 0.07544 0.02545 0.74592 0.0
O113 O 0.04694 1.0043 0.67181 0.0
O114 O 1.01814 0.05821 0.71166 0.0
O115 O 0.04067 0.0515 0.8578 0.0
O116 O 0.97232 0.01861 0.57918 0.0
O117 O 1.00721 0.03713 0.52632 0.0
O118 O 0.97504 1.00007 0.76347 0.0
O119 O 1.00268 0.02266 0.83241 0.0
H120 H 1.00798 0.98332 0.02287 0.0
H121 H 0.98572 0.94319 0.02482 0.0
H122 H 0.05775 0.90406 0.07797 0.0
H123 H 0.08041 0.94481 0.06402 0.0
H124 H 0.96733 0.05866 0.34496 0.0
H125 H 0.94912 0.10186 0.33064 0.0
H126 H 0.95029 0.10949 0.65335 0.0
H127 H 0.96756 0.0661 0.66738 0.0
Ho128 Ho 0.53111 0.02968 0.86972 0.0
Ho129 Ho 0.52374 0.99793 0.68928 0.0
C130 C 0.5818 1.00983 0.74095 0.0
C131 C 0.54725 0.05127 0.03095 0.0
C132 C 0.5715 0.06513 0.04295 0.0
C133 C 0.58584 0.06169 0.13046 0.0
C134 C 0.6121 0.06701 0.12982 0.0
C135 C 0.6241 0.07587 0.04179 0.0
C136 C 0.60926 0.08199 0.95799 0.0
C137 C 0.58304 0.07656 0.95838 0.0
C138 C 0.52315 0.05717 0.69985 0.0
C139 C 0.47442 0.01726 0.8191 0.0
C140 C 0.50511 0.98394 0.52009 0.0
C141 C 0.48236 0.99618 0.47626 0.0
C142 C 0.47847 0.02243 0.49333 0.0
C143 C 0.45421 0.03317 0.48369 0.0
C144 C 0.43316 0.01799 0.45543 0.0
C145 C 0.4377 0.99228 0.42775 0.0
C146 C 0.46206 0.98137 0.43949 0.0
C147 C 0.53254 0.96999 0.85658 0.0
O148 O 0.57246 0.0205 0.82398 0.0
O149 O 0.5664 1.00039 0.67166 0.0
O150 O 0.53046 0.06194 0.97158 0.0
O151 O 0.55014 0.0268 0.01309 0.0
O152 O 0.51364 0.06307 0.78669 0.0
O153 O 0.53688 0.03748 0.7084 0.0
O154 O 0.48414 1.01426 0.72782 0.0
O155 O 0.48997 0.01928 0.89635 0.0
O156 O 0.50049 0.97146 0.60324 0.0
O157 O 0.52545 0.99854 0.52689 0.0
O158 O 0.54075 0.96377 0.76763 0.0
O159 O 0.51865 0.98975 0.85101 0.0
H160 H 0.57733 0.05266 0.1958 0.0
H161 H 0.62346 0.06197 0.19485 0.0
H162 H 0.61833 0.08842 0.88912 0.0
H163 H 0.57237 0.079 0.88936 0.0
H164 H 0.49369 0.03433 0.52283 0.0
H165 H 0.45183 0.0529 0.50649 0.0
H166 H 0.42229 0.98018 0.40107 0.0
H167 H 0.46462 0.96108 0.42596 0.0
Ho168 Ho 0.49589 0.519 0.84124 0.0
Ho169 Ho 0.53407 0.5035 0.67057 0.0
C170 C 0.52478 0.5634 0.70706 0.0
C171 C 0.47027 0.54145 0.98203 0.0
C172 C 0.46501 0.56878 0.99821 0.0
C173 C 0.48454 0.58691 0.98375 0.0
C174 C 0.47875 0.6129 0.9812 0.0
C175 C 0.45333 0.62133 0.99386 0.0
C176 C 0.43389 0.60327 0.01249 0.0
C177 C 0.43968 0.57712 0.01392 0.0
C178 C 0.47459 0.50613 0.66256 0.0
C179 C 0.50943 0.46024 0.82237 0.0
C180 C 0.55237 0.48339 0.50961 0.0
C181 C 0.56578 0.4587 0.49634 0.0
C182 C 0.5552 0.43625 0.53708 0.0
C183 C 0.56826 0.41313 0.53003 0.0
C184 C 0.59248 0.41174 0.48343 0.0
C185 C 0.60314 0.43416 0.44208 0.0
C186 C 0.5899 0.4575 0.44882 0.0
C187 C 0.56017 0.50664 0.8477 0.0
O188 O 0.51192 0.55715 0.78969 0.0
O189 O 0.53334 0.54598 0.64272 0.0
O190 O 0.45965 0.53206 0.90149 0.0
O191 O 0.49409 0.53387 0.99297 0.0
O192 O 0.4655 0.4995 0.7494 0.0
O193 O 0.49474 0.51929 0.67491 0.0
O194 O 0.51984 0.4655 0.73349 0.0
O195 O 0.50142 0.47827 0.88465 0.0
O196 O 0.56485 0.5008 0.56092 0.0
O197 O 0.528 0.48192 0.53478 0.0
O198 O 0.57064 0.50126 0.76197 0.0
O199 O 0.53659 0.51035 0.83243 0.0
H200 H 0.50424 0.58099 0.97207 0.0
H201 H 0.49425 0.62646 0.97001 0.0
H202 H 0.4142 0.60935 0.02388 0.0
H203 H 0.4243 0.56338 0.02437 0.0
H204 H 0.5367 0.4364 0.57449 0.0
H205 H 0.55895 0.39614 0.55889 0.0
H206 H 0.62166 0.43366 0.40485 0.0
H207 H 0.59853 0.4746 0.41758 0.0
Ho208 Ho 1.01157 0.49893 0.85386 0.0
Ho209 Ho 0.01974 0.53376 0.66763 0.0
C210 C 0.96302 0.51359 0.70614 0.0
C211 C 0.99508 0.48333 0.02444 0.0
C212 C 0.97104 0.46941 0.04238 0.0
C213 C 0.95477 0.4778 0.11952 0.0
C214 C 0.9285 0.4728 0.11449 0.0
C215 C 0.91833 0.45924 0.03257 0.0
C216 C 0.93495 0.4482 0.96207 0.0
C217 C 0.96123 0.45337 0.96663 0.0
C218 C 1.01564 0.46902 0.6858 0.0
C219 C 0.06928 0.51361 0.80082 0.0
C220 C 0.03826 0.5582 0.51578 0.0
C221 C 0.06525 0.56401 0.491 0.0
C222 C 0.08395 0.54472 0.49555 0.0
C223 C 0.10996 0.551 0.49364 0.0
C224 C 0.11782 0.57665 0.48741 0.0
C225 C 0.09919 0.59587 0.47672 0.0
C226 C 0.07305 0.58958 0.47915 0.0
C227 C 1.00501 0.55745 0.83921 0.0
O228 O 0.97117 0.50678 0.79676 0.0
O229 O 0.97906 0.52198 0.63593 0.0
O230 O 1.013 0.47113 0.97416 0.0
O231 O 0.99138 0.50671 0.99194 0.0
O232 O 1.01286 0.46018 0.7759 0.0
O233 O 1.01657 0.49304 0.69251 0.0
O234 O 0.06045 0.52331 0.71541 0.0
O235 O 0.05378 0.50505 0.87205 0.0
O236 O 0.02993 0.56953 0.59697 0.0
O237 O 0.03112 0.53416 0.51094 0.0
O238 O 0.99593 0.56259 0.75108 0.0
O239 O 0.02153 0.53976 0.83238 0.0
H240 H 0.9619 0.4904 0.17777 0.0
H241 H 0.91586 0.48131 0.17006 0.0
H242 H 0.9274 0.43778 0.89832 0.0
H243 H 0.97335 0.44693 0.90543 0.0
H244 H 0.07858 0.52483 0.50498 0.0
H245 H 0.12399 0.53575 0.49864 0.0
H246 H 0.10482 0.61576 0.47031 0.0
H247 H 0.05894 0.60479 0.47614 0.0
H248 H 0.19717 0.03029 0.3382 0.0
H249 H 0.15756 0.99323 0.09235 0.0
H250 H 0.11759 0.99188 0.1941 0.0
H251 H 0.16697 0.99485 0.53651 0.0
H252 H 0.16522 0.02164 0.62158 0.0
H253 H 0.1903 0.02028 0.52829 0.0
H254 H 0.17639 0.0646 0.46084 0.0
H255 H 0.15121 0.06607 0.55384 0.0
H256 H 0.14357 0.06948 0.4227 0.0
H257 H 0.08213 0.99362 0.3255 0.0
H258 H 0.05428 0.99793 0.47566 0.0
H259 H 0.11685 0.03427 0.63581 0.0
C260 C 0.18004 0.022 0.30585 0.0
C261 C 0.18031 1.01187 0.20748 0.0
C262 C 0.15761 1.0011 0.16763 0.0
C263 C 0.13486 1.00029 0.22486 0.0
C264 C 0.13512 1.01038 0.32192 0.0
C265 C 0.15713 0.02106 0.36212 0.0
C266 C 0.1524 0.0302 0.46884 0.0
C267 C 0.16975 1.01588 0.54318 0.0
C268 C 0.15611 0.05932 0.47699 0.0
C269 C 0.12439 0.02283 0.48281 0.0
C270 C 0.11475 1.01148 0.39709 0.0
C271 C 0.08949 1.00258 0.3928 0.0
C272 C 0.07379 1.00513 0.47845 0.0
C273 C 0.08332 1.01648 0.56742 0.0
C274 C 0.10892 0.02564 0.5688 0.0
H275 H 0.49587 0.18735 0.40065 0.0
H276 H 0.54752 0.15994 0.16878 0.0
H277 H 0.5543 0.11983 0.26469 0.0
H278 H 0.53071 0.16153 0.61225 0.0
H279 H 0.5021 0.15327 0.68168 0.0
H280 H 0.5016 0.17964 0.59479 0.0
H281 H 0.46325 0.1588 0.50187 0.0
H282 H 0.46377 0.1323 0.58819 0.0
H283 H 0.46624 0.12654 0.4551 0.0
H284 H 0.55479 0.08238 0.38593 0.0
H285 H 0.55063 0.05149 0.52578 0.0
H286 H 0.49867 0.10339 0.67927 0.0
C287 C 0.50876 0.17293 0.37085 0.0
C288 C 0.52139 0.17661 0.27805 0.0
C289 C 0.53789 0.15739 0.24032 0.0
C290 C 0.54175 0.13457 0.29409 0.0
C291 C 0.52889 0.13133 0.38539 0.0
C292 C 0.51281 0.15004 0.42372 0.0
C293 C 0.50131 0.14183 0.52348 0.0
C294 C 0.50942 0.16016 0.60804 0.0
C295 C 0.4719 0.13975 0.5167 0.0
C296 C 0.51353 0.11569 0.53577 0.0
C297 C 0.52925 0.1099 0.45501 0.0
C298 C 0.54258 0.08678 0.44957 0.0
C299 C 0.54007 0.06932 0.52926 0.0
C300 C 0.5244 0.07506 0.6135 0.0
C301 C 0.51081 0.09848 0.61595 0.0
H302 H 0.34466 0.48709 0.35093 0.0
H303 H 0.38001 0.52926 0.10717 0.0
H304 H 0.42029 0.53291 0.20524 0.0
H305 H 0.37352 0.52295 0.55277 0.0
H306 H 0.37752 0.49541 0.63255 0.0
H307 H 0.35185 0.49616 0.54243 0.0
H308 H 0.36824 0.45358 0.46574 0.0
H309 H 0.39408 0.45282 0.55521 0.0
H310 H 0.40104 0.45133 0.42269 0.0
H311 H 0.45695 0.53192 0.3327 0.0
H312 H 0.48582 0.52785 0.47949 0.0
H313 H 0.42642 0.48601 0.63887 0.0
C314 C 0.36091 0.49715 0.31867 0.0
C315 C 0.35937 0.508 0.22191 0.0
C316 C 0.38091 0.52093 0.18152 0.0
C317 C 0.40385 0.52301 0.23658 0.0
C318 C 0.40492 0.51198 0.33195 0.0
C319 C 0.38395 0.49937 0.37273 0.0
C320 C 0.38994 0.48941 0.47698 0.0
C321 C 0.37215 0.50172 0.55583 0.0
C322 C 0.38822 0.46004 0.48029 0.0
C323 C 0.41746 0.49846 0.48893 0.0
C324 C 0.42585 0.51136 0.40442 0.0
C325 C 0.45054 0.5218 0.39906 0.0
C326 C 0.46686 0.51933 0.48265 0.0
C327 C 0.45846 0.50657 0.57058 0.0
C328 C 0.43351 0.49577 0.57264 0.0
H329 H 0.0245 0.33588 0.38873 0.0
H330 H 0.02686 0.37889 0.11128 0.0
H331 H 0.02336 0.41947 0.2073 0.0
H332 H 0.9786 0.37698 0.51853 0.0
H333 H 0.99404 0.37353 0.63858 0.0
H334 H 0.99607 0.34815 0.54732 0.0
H335 H 0.04573 0.3496 0.5573 0.0
H336 H 0.04384 0.37507 0.64819 0.0
H337 H 0.06223 0.37939 0.53455 0.0
H338 H 0.02078 0.45583 0.33688 0.0
H339 H 1.0182 0.484 0.48696 0.0
H340 H 1.01736 0.41701 0.67837 0.0
C341 C 0.02407 0.35388 0.34851 0.0
C342 C 0.02582 0.3544 0.24278 0.0
C343 C 0.0254 0.3782 0.19238 0.0
C344 C 0.02347 0.40132 0.24635 0.0
C345 C 0.02197 0.4003 0.35094 0.0
C346 C 0.02213 0.37714 0.4014 0.0
C347 C 0.0205 0.38125 0.51398 0.0
C348 C 0.99583 0.36927 0.55712 0.0
C349 C 0.04451 0.3707 0.56657 0.0
C350 C 0.01958 0.41026 0.51917 0.0
C351 C 0.02045 0.42099 0.42452 0.0
C352 C 0.02006 0.44756 0.41127 0.0
C353 C 1.01868 0.46346 0.49683 0.0
C354 C 1.01767 0.45277 0.59431 0.0
C355 C 1.01812 0.42581 0.60486 0.0
H356 H 0.86196 0.97683 0.20222 0.0
H357 H 0.88674 0.03864 0.39594 0.0
H358 H 0.92437 0.0461 0.2854 0.0
H359 H 0.92599 0.95244 0.14161 0.0
H360 H 0.91808 0.9451 0.01324 0.0
H361 H 0.89347 0.94414 0.10867 0.0
H362 H 0.8661 0.97625 0.00651 0.0
H363 H 0.8906 0.97722 0.91082 0.0
H364 H 0.87995 1.00646 0.96958 0.0
H365 H 0.96003 0.04627 0.15539 0.0
H366 H 0.9887 0.04155 0.00796 0.0
H367 H 0.94045 0.98033 0.89537 0.0
C368 C 0.8755 0.99178 0.22143 0.0
C369 C 0.87168 1.00712 0.30766 0.0
C370 C 0.88952 0.02664 0.33042 0.0
C371 C 0.911 0.03091 0.2684 0.0
C372 C 0.91448 1.01537 0.18418 0.0
C373 C 0.89715 0.99625 0.16026 0.0
C374 C 0.90496 0.98282 0.06361 0.0
C375 C 0.91098 0.95444 0.08298 0.0
C376 C 0.88417 0.98588 0.98286 0.0
C377 C 0.92916 0.99756 0.03628 0.0
C378 C 0.93449 1.01603 0.10754 0.0
C379 C 0.95597 0.0319 0.09909 0.0
C380 C 0.97218 0.02907 0.01512 0.0
C381 C 0.96674 1.01071 0.93984 0.0
C382 C 0.94503 0.99464 0.95139 0.0
H383 H 0.56116 0.83879 0.14777 0.0
H384 H 0.51797 0.8693 0.39919 0.0
H385 H 0.51094 0.9097 0.30555 0.0
H386 H 0.59255 0.89803 0.07784 0.0
H387 H 0.59078 0.8919 0.94489 0.0
H388 H 0.59244 0.86558 0.03182 0.0
H389 H 0.55059 0.84665 0.95772 0.0
H390 H 0.54886 0.87286 0.87035 0.0
H391 H 0.52212 0.86622 0.95262 0.0
H392 H 0.50859 0.94681 0.18317 0.0
H393 H 0.51021 0.97721 0.04087 0.0
H394 H 0.55506 0.92256 0.86879 0.0
C395 C 0.55023 0.85404 0.18269 0.0
C396 C 0.54004 0.85114 0.28037 0.0
C397 C 0.52585 0.87132 0.32423 0.0
C398 C 0.52183 0.89429 0.27167 0.0
C399 C 0.53217 0.89672 0.1753 0.0
C400 C 0.54605 0.87711 0.13111 0.0
C401 C 0.55493 0.88452 0.02645 0.0
C402 C 0.58443 0.88504 0.01991 0.0
C403 C 0.54343 0.86649 0.94711 0.0
C404 C 0.54379 0.91127 0.01833 0.0
C405 C 0.5308 0.91799 0.10511 0.0
C406 C 0.51874 0.94172 0.11495 0.0
C407 C 0.51977 0.95889 0.03378 0.0
C408 C 0.53273 0.95228 0.94374 0.0
C409 C 0.54503 0.9282 0.93666 0.0
H410 H 0.68882 0.50681 0.17125 0.0
H411 H 0.64332 0.5233 0.43629 0.0
H412 H 0.60367 0.52262 0.33318 0.0
H413 H 0.6529 0.54513 0.99947 0.0
H414 H 0.65621 0.5229 0.8967 0.0
H415 H 0.68052 0.52441 0.99223 0.0
H416 H 0.67501 0.47587 0.02585 0.0
H417 H 0.65069 0.47421 0.93031 0.0
H418 H 0.64361 0.4634 0.05584 0.0
H419 H 0.56857 0.5206 0.19576 0.0
H420 H 0.54239 0.51698 0.04046 0.0
H421 H 0.61162 0.50154 0.86934 0.0
C422 C 0.67052 0.5102 0.20767 0.0
C423 C 0.66906 0.51512 0.31166 0.0
C424 C 0.64477 0.51951 0.35651 0.0
C425 C 0.62218 0.51916 0.29848 0.0
C426 C 0.62421 0.5143 0.1956 0.0
C427 C 0.64785 0.50984 0.1509 0.0
C428 C 0.64505 0.50515 0.03929 0.0
C429 C 0.65953 0.52562 0.97836 0.0
C430 C 0.65412 0.47805 0.01121 0.0
C431 C 0.61624 0.50782 0.0276 0.0
C432 C 0.60439 0.51308 0.11825 0.0
C433 C 0.57775 0.51647 0.12455 0.0
C434 C 0.56298 0.51443 0.03608 0.0
C435 C 0.5749 0.50904 0.94277 0.0
C436 C 0.60186 0.50569 0.93943 0.0
H437 H 0.04623 0.65419 0.28095 0.0
H438 H 0.96949 0.6857 0.25939 0.0
H439 H 0.95783 0.65193 0.13743 0.0
H440 H 0.05312 0.63807 0.02136 0.0
H441 H 0.07045 0.60873 0.04252 0.0
H442 H 0.07242 0.63438 0.13247 0.0
H443 H 0.05748 0.60358 0.27202 0.0
H444 H 0.05496 0.57776 0.18291 0.0
H445 H 0.0276 0.58648 0.2589 0.0
H446 H 0.95517 0.61705 0.01029 0.0
H447 H 0.96163 0.58322 0.8834 0.0
H448 H 0.03968 0.57226 0.98687 0.0
C449 C 0.02693 0.6537 0.25102 0.0
C450 C 1.0086 0.67241 0.27959 0.0
C451 C 0.98366 0.67144 0.2386 0.0
C452 C 0.97689 0.65231 0.16948 0.0
C453 C 0.99527 0.63413 0.14232 0.0
C454 C 0.0198 0.63455 0.1817 0.0
C455 C 0.03607 0.61321 0.13624 0.0
C456 C 0.05939 0.62426 0.07979 0.0
C457 C 0.04451 0.59412 0.21737 0.0
C458 C 1.01699 0.60104 0.06408 0.0
C459 C 0.99356 0.61346 0.06948 0.0
C460 C 0.9733 0.60697 0.00638 0.0
C461 C 0.97713 0.5877 0.93453 0.0
C462 C 1.00095 0.57483 0.92625 0.0
C463 C 0.02104 0.5813 0.99325 0.0
H464 H 1.00272 0.24159 0.40182 0.0
H465 H 0.94124 0.25107 0.18907 0.0
H466 H 0.91526 0.21932 0.28029 0.0
H467 H 1.005 0.18288 0.399 0.0
H468 H 1.01082 0.17485 0.52847 0.0
H469 H 0.01938 0.20585 0.48309 0.0
H470 H 0.99165 0.22724 0.61935 0.0
H471 H 0.98234 0.19631 0.66759 0.0
H472 H 0.95813 0.21908 0.6317 0.0
H473 H 0.90505 0.17673 0.34231 0.0
H474 H 0.9088 0.13101 0.38697 0.0
H475 H 0.97574 0.14798 0.56635 0.0
C476 C 0.98294 0.23842 0.38038 0.0
C477 C 0.97361 0.24896 0.29047 0.0
C478 C 0.94827 0.24363 0.25968 0.0
C479 C 0.93348 0.22544 0.31091 0.0
C480 C 0.94427 0.21306 0.39337 0.0
C481 C 0.96814 0.22001 0.43063 0.0
C482 C 0.97781 0.20043 0.5054 0.0
C483 C 1.0048 0.19042 0.4771 0.0
C484 C 0.97746 0.21144 0.61234 0.0
C485 C 0.95749 0.17993 0.49395 0.0
C486 C 0.93781 0.18789 0.43184 0.0
C487 C 0.91962 0.17066 0.39484 0.0
C488 C 0.92196 0.1447 0.41975 0.0
C489 C 0.94224 0.1363 0.48151 0.0
C490 C 0.95953 0.15426 0.52203 0.0
H491 H 0.2874 1.00656 0.38107 0.0
H492 H 0.28997 0.08677 0.30665 0.0
H493 H 0.32834 0.09217 0.41067 0.0
H494 H 0.32631 1.01087 0.63776 0.0
H495 H 0.34338 0.98197 0.60566 0.0
H496 H 0.30986 0.98535 0.5744 0.0
H497 H 0.31917 0.97578 0.38973 0.0
H498 H 0.35262 0.97205 0.41495 0.0
H499 H 0.34236 0.99491 0.32219 0.0
H500 H 0.37351 0.08482 0.43659 0.0
H501 H 0.41721 0.06796 0.42738 0.0
H502 H 0.38828 0.99194 0.49626 0.0
C503 C 0.29481 0.0256 0.39509 0.0
C504 C 0.28616 0.0462 0.33631 0.0
C505 C 0.29633 0.07087 0.3524 0.0
C506 C 0.31846 0.07395 0.41035 0.0
C507 C 0.3296 0.05221 0.45265 0.0
C508 C 0.31751 0.02853 0.44974 0.0
C509 C 0.33592 1.00725 0.4782 0.0
C510 C 0.32846 0.99568 0.58012 0.0
C511 C 0.3376 0.98633 0.39634 0.0
C512 C 0.36072 0.0222 0.48516 0.0
C513 C 0.35662 0.04811 0.47216 0.0
C514 C 0.37692 0.06484 0.45301 0.0
C515 C 0.40186 0.05496 0.44736 0.0
C516 C 0.40657 0.0285 0.46213 0.0
C517 C 0.38561 1.01221 0.48397 0.0
H518 H 0.602 0.29891 0.13315 0.0
H519 H 0.56704 0.26002 0.38545 0.0
H520 H 0.59036 0.288 0.50114 0.0
H521 H 0.66099 0.33116 0.27548 0.0
H522 H 0.65492 0.36014 0.2063 0.0
H523 H 0.65033 0.32942 0.1471 0.0
H524 H 0.60382 0.34239 0.10196 0.0
H525 H 0.60811 0.37266 0.1614 0.0
H526 H 0.58213 0.3521 0.20078 0.0
H527 H 0.6017 0.32769 0.58443 0.0
H528 H 0.59612 0.37335 0.6224 0.0
H529 H 0.61546 0.3924 0.31521 0.0
C530 C 0.60035 0.29561 0.21312 0.0
C531 C 0.58228 0.27774 0.25013 0.0
C532 C 0.58079 0.27348 0.35471 0.0
C533 C 0.59399 0.28953 0.42134 0.0
C534 C 0.60826 0.30993 0.38229 0.0
C535 C 0.61171 0.3129 0.27969 0.0
C536 C 0.62017 0.33995 0.25412 0.0
C537 C 0.64828 0.34017 0.2187 0.0
C538 C 0.60248 0.35247 0.17519 0.0
C539 C 0.61759 0.35254 0.35606 0.0
C540 C 0.61266 0.33454 0.43002 0.0
C541 C 0.60606 0.34181 0.5275 0.0
C542 C 0.60263 0.36784 0.54818 0.0
C543 C 0.60483 0.3863 0.47091 0.0
C544 C 0.61404 0.37868 0.37576 0.0
H545 H 0.24003 0.59185 0.18302 0.0
H546 H 0.27079 0.53735 0.39408 0.0
H547 H 0.24161 0.55361 0.52449 0.0
H548 H 0.21135 0.64198 0.38133 0.0
H549 H 0.18357 0.64506 0.30193 0.0
H550 H 0.21501 0.64096 0.24679 0.0
H551 H 0.19791 0.60206 0.14687 0.0
H552 H 0.16692 0.6055 0.20284 0.0
H553 H 0.1838 0.57553 0.21396 0.0
H554 H 0.20017 0.56082 0.60264 0.0
H555 H 0.15314 0.55969 0.62218 0.0
H556 H 0.14472 0.6062 0.35608 0.0
C557 C 0.24164 0.58472 0.25901 0.0
C558 C 0.25729 0.5633 0.2787 0.0
C559 C 0.25906 0.55393 0.37772 0.0
C560 C 0.24231 0.56303 0.45223 0.0
C561 C 0.22403 0.58142 0.4261 0.0
C562 C 0.22397 0.59267 0.33183 0.0
C563 C 0.19867 0.6061 0.31157 0.0
C564 C 0.20238 0.63526 0.3104 0.0
C565 C 0.18612 0.59668 0.2132 0.0
C566 C 0.18345 0.5979 0.40293 0.0
C567 C 0.19878 0.58486 0.47061 0.0
C568 C 0.18822 0.57172 0.55201 0.0
C569 C 0.16147 0.5709 0.56196 0.0
C570 C 0.14552 0.58281 0.49017 0.0
C571 C 0.15666 0.5975 0.41292 0.0
H572 H 0.0221 0.77641 0.10761 0.0
H573 H 0.94516 0.78446 0.22343 0.0
H574 H 0.93855 0.82226 0.11832 0.0
H575 H 0.04127 0.82807 0.14182 0.0
H576 H 0.05972 0.8368 0.03227 0.0
H577 H 0.05448 0.80381 0.05983 0.0
H578 H 0.03358 0.79591 0.88674 0.0
H579 H 0.04033 0.82888 0.85656 0.0
H580 H 1.00814 0.81659 0.84432 0.0
H581 H 0.94854 0.86648 0.09104 0.0
H582 H 0.96949 0.90821 0.09757 0.0
H583 H 0.03944 0.87446 0.97793 0.0
C584 C 1.00318 0.78487 0.10256 0.0
C585 C 0.98424 0.77801 0.17315 0.0
C586 C 0.95976 0.78949 0.16872 0.0
C587 C 0.956 0.81123 0.10969 0.0
C588 C 0.9767 0.82056 0.05379 0.0
C589 C 0.99947 0.80689 0.04437 0.0
C590 C 0.0205 0.8235 0.99942 0.0
C591 C 0.04539 0.82302 0.06226 0.0
C592 C 0.02592 0.81573 0.8902 0.0
C593 C 1.00754 0.84935 0.00351 0.0
C594 C 0.98204 0.84718 0.03156 0.0
C595 C 0.96796 0.86846 0.06289 0.0
C596 C 0.9802 0.89228 0.06682 0.0
C597 C 1.00631 0.89494 0.03798 0.0
C598 C 0.01961 0.87323 1.00184 0.0
H599 H 0.74158 0.99442 0.15847 0.0
H600 H 0.78081 0.06593 0.20973 0.0
H601 H 0.75071 0.08786 0.09632 0.0
H602 H 0.71086 1.00949 0.89802 0.0
H603 H 0.68132 0.99471 0.93885 0.0
H604 H 0.71179 0.98207 0.97925 0.0
H605 H 0.69784 0.98606 0.1639 0.0
H606 H 0.66746 0.99875 0.12746 0.0
H607 H 0.68759 1.0167 0.21187 0.0
H608 H 0.70901 0.10422 0.03822 0.0
H609 H 0.66208 0.1124 0.0313 0.0
H610 H 0.64785 0.03092 0.02957 0.0
C611 C 0.74483 1.01427 0.13886 0.0
C612 C 0.76338 0.02856 0.19081 0.0
C613 C 0.76693 0.05469 0.16834 0.0
C614 C 0.74972 0.06728 0.10453 0.0
C615 C 0.72925 0.05334 0.06458 0.0
C616 C 0.72706 0.02712 0.07939 0.0
C617 C 0.70043 0.01757 0.05425 0.0
C618 C 0.70112 0.99994 0.96202 0.0
C619 C 0.68762 1.00403 0.14473 0.0
C620 C 0.68742 0.04264 0.031 0.0
C621 C 0.70439 0.06302 0.03393 0.0
C622 C 0.69573 0.08837 0.03188 0.0
C623 C 0.66915 0.09292 0.0289 0.0
C624 C 0.65185 0.07217 0.02993 0.0
C625 C 0.66107 0.04693 0.02762 0.0
H626 H 0.45321 0.73662 0.32712 0.0
H627 H 0.50574 0.76713 0.10595 0.0
H628 H 0.48407 0.74248 0.97417 0.0
H629 H 0.46228 0.68036 0.27573 0.0
H630 H 0.43076 0.66655 0.29162 0.0
H631 H 0.43851 0.69566 0.35439 0.0
H632 H 0.39991 0.71844 0.27172 0.0
H633 H 0.39158 0.68894 0.20927 0.0
H634 H 0.39628 0.71776 0.13726 0.0
H635 H 0.47189 0.70367 0.88864 0.0
H636 H 0.46967 0.65725 0.85907 0.0
H637 H 0.42663 0.64768 0.13478 0.0
C638 C 0.45888 0.73919 0.24952 0.0
C639 C 0.48112 0.75341 0.22629 0.0
C640 C 0.48855 0.75648 0.12506 0.0
C641 C 0.47631 0.74238 0.04964 0.0
C642 C 0.45671 0.72542 0.07699 0.0
C643 C 0.44752 0.72426 0.17478 0.0
C644 C 0.43183 0.70018 0.19205 0.0
C645 C 0.44148 0.68481 0.28361 0.0
C646 C 0.4032 0.70673 0.20317 0.0
C647 C 0.43684 0.68629 0.09426 0.0
C648 C 0.44992 0.70175 0.02666 0.0
C649 C 0.46085 0.69173 0.93923 0.0
C650 C 0.45971 0.66528 0.92334 0.0
C651 C 0.44794 0.6491 0.99501 0.0
C652 C 0.4351 0.65989 0.078 0.0
H653 H 0.79501 0.53114 0.1285 0.0
H654 H 0.76225 0.45664 0.18231 0.0
H655 H 0.79329 0.43738 0.06498 0.0
H656 H 0.82655 0.51648 0.86205 0.0
H657 H 0.85495 0.53389 0.89824 0.0
H658 H 0.82361 0.5449 0.93729 0.0
H659 H 0.83694 0.54465 0.12197 0.0
H660 H 0.86843 0.53426 0.08846 0.0
H661 H 0.84971 0.51577 0.17654 0.0
H662 H 0.83619 0.42438 0.01178 0.0
H663 H 0.88355 0.41994 0.01595 0.0
H664 H 0.89137 0.50223 0.0058 0.0
C665 C 0.79327 0.51114 0.10822 0.0
C666 C 0.7765 0.49529 0.16288 0.0
C667 C 0.7748 0.46905 0.13926 0.0
C668 C 0.79259 0.45797 0.0731 0.0
C669 C 0.81175 0.47351 0.0317 0.0
C670 C 0.81173 0.49987 0.0461 0.0
C671 C 0.83753 0.51148 0.01941 0.0
C672 C 0.83557 0.52763 0.9235 0.0
C673 C 0.84878 0.5274 0.10682 0.0
C674 C 0.85286 0.48742 1.00082 0.0
C675 C 0.83753 0.46576 0.00324 0.0
C676 C 0.84823 0.4412 0.0058 0.0
C677 C 0.87507 0.43878 0.00917 0.0
C678 C 0.89066 0.46083 0.01216 0.0
C679 C 0.8795 0.48521 0.00354 0.0
H680 H 0.03427 0.19301 0.1329 0.0
H681 H 0.01914 0.23806 0.86693 0.0
H682 H 0.02296 0.19884 0.76231 0.0
H683 H 0.08018 0.14768 0.01432 0.0
H684 H 0.06848 0.12123 0.08826 0.0
H685 H 0.06748 0.15324 0.13851 0.0
H686 H 1.01863 0.14834 0.17078 0.0
H687 H 0.01938 0.11648 0.11952 0.0
H688 H 0.99782 0.13997 0.06802 0.0
H689 H 0.02156 0.15291 0.69143 0.0
H690 H 0.02161 0.10628 0.65771 0.0
H691 H 0.03941 0.09193 0.9704 0.0
C692 C 0.03236 0.19472 0.05225 0.0
C693 C 0.02653 0.21866 0.00794 0.0
C694 C 0.02395 0.22005 0.90233 0.0
C695 C 0.02579 0.19779 0.84257 0.0
C696 C 0.03044 0.17429 0.88942 0.0
C697 C 0.03426 0.1728 0.99184 0.0
C698 C 0.0382 0.14531 0.02504 0.0
C699 C 0.06519 0.14166 0.06912 0.0
C700 C 1.01726 0.13705 0.10026 0.0
C701 C 0.03545 0.13137 0.92581 0.0
C702 C 0.03084 0.14833 0.84833 0.0
C703 C 0.02579 0.13959 0.75123 0.0
C704 C 0.02577 0.11301 0.73283 0.0
C705 C 0.03099 0.09532 0.81084 0.0
C706 C 0.03595 0.10484 0.90841 0.0
H707 H 0.34306 1.00871 0.13149 0.0
H708 H 0.30261 0.0346 0.86647 0.0
H709 H 0.34377 0.03404 0.77131 0.0
H710 H 0.39734 0.04775 0.09624 0.0
H711 H 0.41991 0.02475 0.14459 0.0
H712 H 0.38713 0.02446 0.18785 0.0
H713 H 0.38271 0.97701 0.13558 0.0
H714 H 0.41558 0.977 0.09284 0.0
H715 H 0.39026 0.96759 0.0086 0.0
H716 H 0.39023 0.03095 0.70581 0.0
H717 H 0.4373 0.02876 0.68058 0.0
H718 H 0.44707 1.00808 0.99291 0.0
C719 C 0.34265 1.0139 0.05283 0.0
C720 C 0.31942 0.02167 0.00649 0.0
C721 C 0.31994 0.02816 0.90333 0.0
C722 C 0.34326 0.02791 0.84876 0.0
C723 C 0.36587 0.02082 0.89789 0.0
C724 C 0.36565 1.01397 0.99792 0.0
C725 C 0.39261 1.00892 0.03611 0.0
C726 C 0.39965 0.02759 0.12118 0.0
C727 C 0.39545 0.98096 0.07025 0.0
C728 C 0.40824 1.01413 0.942 0.0
C729 C 0.39248 0.02063 0.86259 0.0
C730 C 0.40264 0.02591 0.76771 0.0
C731 C 0.42945 0.02458 0.75389 0.0
C732 C 0.446 0.01838 0.83452 0.0
C733 C 0.43506 1.01312 0.92978 0.0
H734 H 0.55102 0.31607 0.93355 0.0
H735 H 0.47857 0.30656 0.09036 0.0
H736 H 0.46471 0.34925 0.03096 0.0
H737 H 0.56042 0.37919 0.99575 0.0
H738 H 0.57449 0.38896 0.878 0.0
H739 H 0.57712 0.35624 0.91843 0.0
H740 H 0.55628 0.34067 0.75319 0.0
H741 H 0.55393 0.37336 0.71182 0.0
H742 H 0.52565 0.35352 0.71563 0.0
H743 H 0.46215 0.39571 0.97987 0.0
H744 H 0.46858 0.4403 0.92322 0.0
H745 H 0.54195 0.41928 0.79225 0.0
C746 C 0.53186 0.32262 0.95239 0.0
C747 C 0.51573 0.30786 0.01579 0.0
C748 C 0.49101 0.31726 0.04034 0.0
C749 C 0.4831 0.34161 0.00764 0.0
C750 C 0.5 0.35616 0.94925 0.0
C751 C 0.52367 0.34678 0.92003 0.0
C752 C 0.53895 0.3668 0.86275 0.0
C753 C 0.56423 0.37317 0.917 0.0
C754 C 0.54398 0.35804 0.75437 0.0
C755 C 0.52046 0.38921 0.86617 0.0
C756 C 0.49815 0.38269 0.91692 0.0
C757 C 0.47924 0.40082 0.93797 0.0
C758 C 0.48313 0.42614 0.90605 0.0
C759 C 0.50559 0.43316 0.85235 0.0
C760 C 0.52434 0.41432 0.83127 0.0
H761 H 0.1979 0.50991 0.1263 0.0
H762 H 0.24177 0.51611 0.8503 0.0
H763 H 0.2013 0.51305 0.75263 0.0
H764 H 0.14771 0.46624 0.03485 0.0
H765 H 0.12301 0.48214 0.10672 0.0
H766 H 0.15558 0.48167 0.15187 0.0
H767 H 0.15515 0.53114 0.16305 0.0
H768 H 0.12277 0.53188 0.11649 0.0
H769 H 0.14765 0.54964 0.0529 0.0
H770 H 0.15479 0.5133 0.68694 0.0
H771 H 0.10783 0.51479 0.65947 0.0
H772 H 0.09503 0.50955 0.98036 0.0
C773 C 0.1991 0.51007 0.04511 0.0
C774 C 0.22309 0.51314 0.99585 0.0
C775 C 0.22373 0.51338 0.8896 0.0
C776 C 0.20078 0.51186 0.83371 0.0
C777 C 0.17737 0.50992 0.8852 0.0
C778 C 0.1765 0.50873 0.98873 0.0
C779 C 0.14904 0.50815 0.02724 0.0
C780 C 0.14352 0.48305 0.08347 0.0
C781 C 0.14333 0.53159 0.09381 0.0
C782 C 0.13439 0.5094 0.92935 0.0
C783 C 0.15099 0.5104 0.84809 0.0
C784 C 0.14174 0.51246 0.75025 0.0
C785 C 0.11498 0.5135 0.73531 0.0
C786 C 0.09762 0.51244 0.81746 0.0
C787 C 0.10766 0.51022 0.91565 0.0
H788 H 0.97743 0.82897 0.45359 0.0
H789 H 0.04456 0.79303 0.58493 0.0
H790 H 0.05289 0.83273 0.68107 0.0
H791 H 1.00898 0.88741 0.40727 0.0
H792 H 0.98072 0.9067 0.42702 0.0
H793 H 0.97758 0.87427 0.38332 0.0
H794 H 0.94742 0.86394 0.53316 0.0
H795 H 0.95045 0.89639 0.57741 0.0
H796 H 0.95814 0.8701 0.65942 0.0
H797 H 0.05335 0.87792 0.76456 0.0
H798 H 0.05078 0.92436 0.80152 0.0
H799 H 0.98818 0.9318 0.59022 0.0
C800 C 0.99401 0.8291 0.50225 0.0
C801 C 1.01041 0.80741 0.51012 0.0
C802 C 0.03133 0.80889 0.57785 0.0
C803 C 0.03627 0.83153 0.63284 0.0
C804 C 0.0202 0.85273 0.6197 0.0
C805 C 0.9997 0.85168 0.55455 0.0
C806 C 0.98708 0.8777 0.54313 0.0
C807 C 0.9887 0.88706 0.43373 0.0
C808 C 0.95911 0.87698 0.58052 0.0
C809 C 1.0037 0.89382 0.61168 0.0
C810 C 0.02223 0.87897 0.6578 0.0
C811 C 0.03915 0.88964 0.72742 0.0
C812 C 0.03749 0.91607 0.74821 0.0
C813 C 0.01956 0.93185 0.69756 0.0
C814 C 1.00235 0.92037 0.62905 0.0
H815 H 0.7111 0.98308 0.42971 0.0
H816 H 0.75218 0.02901 0.64729 0.0
H817 H 0.7122 0.03333 0.74764 0.0
H818 H 0.65496 0.01928 0.43285 0.0
H819 H 0.63329 0.99264 0.41775 0.0
H820 H 0.66558 0.99062 0.36975 0.0
H821 H 0.67352 0.94949 0.47296 0.0
H822 H 0.6411 0.95105 0.52036 0.0
H823 H 0.66768 0.9497 0.60644 0.0
H824 H 0.66629 0.0345 0.81882 0.0
H825 H 0.61963 0.0327 0.85411 0.0
H826 H 0.60867 0.98696 0.58566 0.0
C827 C 0.71191 0.99332 0.50038 0.0
C828 C 0.73498 1.00536 0.53152 0.0
C829 C 0.73502 0.01905 0.62326 0.0
C830 C 0.71231 0.02166 0.68054 0.0
C831 C 0.68975 1.01005 0.64624 0.0
C832 C 0.68952 0.99598 0.55839 0.0
C833 C 0.66256 0.98693 0.53342 0.0
C834 C 0.65358 0.99804 0.4325 0.0
C835 C 0.66114 0.95755 0.53333 0.0
C836 C 0.64748 0.99819 0.62055 0.0
C837 C 0.66348 1.01136 0.68517 0.0
C838 C 0.65371 0.02392 0.76955 0.0
C839 C 0.62708 0.02285 0.78874 0.0
C840 C 0.61024 1.00965 0.72302 0.0
C841 C 0.62084 0.99713 0.63798 0.0
H842 H 0.53348 0.6893 0.36738 0.0
H843 H 0.53293 0.73412 0.64131 0.0
H844 H 0.53517 0.6941 0.74098 0.0
H845 H 0.49271 0.64093 0.45173 0.0
H846 H 0.50889 0.61521 0.38718 0.0
H847 H 0.51044 0.64722 0.33791 0.0
H848 H 0.56015 0.64559 0.34057 0.0
H849 H 0.55879 0.61342 0.38894 0.0
H850 H 0.57644 0.63772 0.45563 0.0
H851 H 0.53233 0.64875 0.81 0.0
H852 H 0.52807 0.60247 0.84296 0.0
H853 H 0.53056 0.58718 0.52321 0.0
C854 C 0.53438 0.69073 0.4484 0.0
C855 C 0.53312 0.7149 0.49669 0.0
C856 C 0.53425 0.71592 0.60273 0.0
C857 C 0.53534 0.69324 0.65982 0.0
C858 C 0.53559 0.66971 0.60968 0.0
C859 C 0.53552 0.66836 0.50616 0.0
C860 C 0.53459 0.64079 0.47014 0.0
C861 C 0.51021 0.63575 0.40811 0.0
C862 C 0.55895 0.63398 0.41029 0.0
C863 C 0.5337 0.62671 0.56955 0.0
C864 C 0.53427 0.64373 0.64916 0.0
C865 C 0.53222 0.63532 0.74812 0.0
C866 C 0.52957 0.60894 0.76612 0.0
C867 C 0.52897 0.5911 0.68589 0.0
C868 C 0.53135 0.60023 0.58632 0.0
H869 H 0.83317 0.53534 0.39311 0.0
H870 H 0.79242 0.49306 0.62412 0.0
H871 H 0.83288 0.48929 0.72033 0.0
H872 H 0.88916 0.49763 0.39778 0.0
H873 H 0.91112 0.52369 0.37513 0.0
H874 H 0.87871 0.52544 0.32925 0.0
H875 H 0.87157 0.56813 0.42348 0.0
H876 H 0.90412 0.56689 0.4686 0.0
H877 H 0.87784 0.56988 0.55631 0.0
H878 H 0.87869 0.48908 0.78864 0.0
H879 H 0.92523 0.49167 0.82235 0.0
H880 H 0.93643 0.53233 0.54162 0.0
C881 C 0.83255 0.52572 0.46504 0.0
C882 C 0.80935 0.51465 0.50121 0.0
C883 C 0.80964 0.50218 0.59556 0.0
C884 C 0.83263 0.49986 0.65058 0.0
C885 C 0.85521 0.51044 0.61125 0.0
C886 C 0.85527 0.52321 0.52061 0.0
C887 C 0.88229 0.53153 0.49149 0.0
C888 C 0.89081 0.51881 0.39258 0.0
C889 C 0.88405 0.56085 0.4846 0.0
C890 C 0.89756 0.52143 0.57981 0.0
C891 C 0.88158 0.50945 0.64838 0.0
C892 C 0.89131 0.49855 0.73579 0.0
C893 C 0.91789 0.50007 0.75402 0.0
C894 C 0.93479 0.51213 0.68469 0.0
C895 C 0.92425 0.52289 0.59625 0.0
loop_
_geom_bond_atom_site_label_1
_geom_bond_atom_site_label_2
_geom_bond_distance
_geom_bond_site_symmetry_2
_ccdc_geom_bond_type
H0 C3 0.929 . S
H1 C6 0.929 . S
H2 C8 0.930 . S
C3 H0 0.929 . S
C3 C4 1.398 . S
C3 C5 1.396 . S
C4 C3 1.398 . S
C4 C8 1.407 . S
C5 C3 1.396 . S
C5 C6 1.394 . S
C6 H1 0.929 . S
C6 C5 1.394 . S
C6 C7 1.382 . S
C7 C6 1.382 . S
C7 C8 1.392 . S
C7 N9 1.420 . S
C8 H2 0.930 . S
C8 C4 1.407 . S
C8 C7 1.392 . S
N9 C7 1.420 . S
N9 C10 1.244 . S
C10 N9 1.244 . S
H11 C14 0.929 . S
H12 C17 0.929 . S
H13 C19 0.930 . S
C14 H11 0.929 . S
C14 C15 1.395 1_655 S
C14 C16 1.395 1_655 S
C15 C14 1.395 1_455 S
C15 C19 1.413 . S
C16 C14 1.395 1_455 S
C16 C17 1.397 . S
C17 H12 0.929 . S
C17 C16 1.397 . S
C17 C18 1.382 . S
C18 C17 1.382 . S
C18 C19 1.392 . S
C18 N20 1.420 . S
C19 H13 0.930 . S
C19 C15 1.413 . S
C19 C18 1.392 . S
N20 C18 1.420 . S
N20 C21 1.232 1_455 S
C21 N20 1.232 1_655 S
H22 C25 0.929 . S
H23 C28 0.929 . S
H24 C30 0.930 . S
C25 H22 0.929 . S
C25 C26 1.395 1_565 S
C25 C27 1.395 1_565 S
C26 C25 1.395 1_545 S
C26 C30 1.413 . S
C27 C25 1.395 1_545 S
C27 C28 1.397 . S
C28 H23 0.929 . S
C28 C27 1.397 . S
C28 C29 1.382 . S
C29 C28 1.382 . S
C29 C30 1.392 . S
C29 N31 1.420 . S
C30 H24 0.930 . S
C30 C26 1.413 . S
C30 C29 1.392 . S
N31 C29 1.420 . S
N31 C32 1.232 1_545 S
C32 N31 1.232 1_565 S
H33 C36 0.929 . S
H34 C39 0.929 . S
H35 C41 0.930 . S
C36 H33 0.929 . S
C36 C37 1.398 . S
C36 C38 1.396 . S
C37 C36 1.398 . S
C37 C41 1.407 . S
C38 C36 1.396 . S
C38 C39 1.394 . S
C39 H34 0.929 . S
C39 C38 1.394 . S
C39 C40 1.382 . S
C40 C39 1.382 . S
C40 C41 1.392 . S
C40 N42 1.420 . S
C41 H35 0.930 . S
C41 C37 1.407 . S
C41 C40 1.392 . S
N42 C40 1.420 . S
N42 C43 1.244 . S
C43 N42 1.244 . S
H44 C47 0.929 1_556 S
H45 C50 0.929 . S
H46 C52 0.930 . S
C47 H44 0.929 1_554 S
C47 C48 1.398 1_554 S
C47 C49 1.396 . S
C48 C47 1.398 1_556 S
C48 C52 1.407 . S
C49 C47 1.396 . S
C49 C50 1.394 . S
C50 H45 0.929 . S
C50 C49 1.394 . S
C50 C51 1.382 . S
C51 C50 1.382 . S
C51 C52 1.392 1_554 S
C51 N53 1.420 . S
C52 H46 0.930 . S
C52 C48 1.407 . S
C52 C51 1.392 1_556 S
N53 C51 1.420 . S
N53 C54 1.244 . S
C54 N53 1.244 . S
H55 C58 0.930 . S
H56 C61 0.929 . S
H57 C63 0.930 . S
C58 H55 0.930 . S
C58 C59 1.394 1_654 S
C58 C60 1.394 1_655 S
C59 C58 1.394 1_456 S
C59 C63 1.416 . S
C60 C58 1.394 1_455 S
C60 C61 1.398 . S
C61 H56 0.929 . S
C61 C60 1.398 . S
C61 C62 1.382 . S
C62 C61 1.382 . S
C62 C63 1.392 1_554 S
C62 N64 1.420 . S
C63 H57 0.930 . S
C63 C59 1.416 . S
C63 C62 1.392 1_556 S
N64 C62 1.420 . S
N64 C65 1.236 1_455 S
C65 N64 1.236 1_655 S
H66 C69 0.929 . S
H67 C72 0.929 . S
H68 C74 0.930 . S
C69 H66 0.929 . S
C69 C70 1.395 1_564 S
C69 C71 1.394 1_565 S
C70 C69 1.395 1_546 S
C70 C74 1.416 . S
C71 C69 1.394 1_545 S
C71 C72 1.398 . S
C72 H67 0.929 . S
C72 C71 1.398 . S
C72 C73 1.382 . S
C73 C72 1.382 . S
C73 C74 1.392 1_554 S
C73 N75 1.420 . S
C74 H68 0.930 . S
C74 C70 1.416 . S
C74 C73 1.392 1_556 S
N75 C73 1.420 . S
N75 C76 1.236 1_545 S
C76 N75 1.236 1_565 S
H77 C80 0.929 1_556 S
H78 C83 0.929 . S
H79 C85 0.930 . S
C80 H77 0.929 1_554 S
C80 C81 1.398 1_554 S
C80 C82 1.396 . S
C81 C80 1.398 1_556 S
C81 C85 1.407 . S
C82 C80 1.396 . S
C82 C83 1.394 . S
C83 H78 0.929 . S
C83 C82 1.394 . S
C83 C84 1.382 . S
C84 C83 1.382 . S
C84 C85 1.392 1_554 S
C84 N86 1.420 . S
C85 H79 0.930 . S
C85 C81 1.407 . S
C85 C84 1.392 1_556 S
N86 C84 1.420 . S
N86 C87 1.244 . S
C87 N86 1.244 . S
Ho88 C91 2.811 . S
Ho88 O108 2.322 . S
Ho88 O110 2.378 . S
Ho88 O111 2.533 . S
Ho88 O112 2.381 . S
Ho88 O113 2.669 1_565 S
Ho88 O115 2.346 1_565 S
Ho88 O119 2.305 1_455 S
Ho89 C100 2.811 . S
Ho89 O109 2.346 1_545 S
Ho89 O113 2.305 1_655 S
Ho89 O114 2.322 . S
Ho89 O116 2.378 . S
Ho89 O117 2.529 . S
Ho89 O118 2.381 . S
Ho89 O119 2.669 1_545 S
C90 O108 1.259 1_655 S
C90 O109 1.268 . S
C91 Ho88 2.811 . S
C91 C92 1.488 1_556 S
C91 O110 1.215 . S
C91 O111 1.311 . S
C92 C91 1.488 1_554 S
C92 C93 1.348 . S
C92 C97 1.413 . S
C93 C92 1.348 . S
C93 C94 1.442 . S
C93 H120 0.930 1_455 S
C94 C93 1.442 . S
C94 C95 1.381 . S
C94 H121 0.931 1_455 S
C95 C94 1.381 . S
C95 C96 1.321 . S
C96 C95 1.321 . S
C96 C97 1.403 . S
C96 H122 0.934 . S
C97 C92 1.413 . S
C97 C96 1.403 . S
C97 H123 0.930 1_554 S
C98 O112 1.275 . S
C98 O113 1.256 1_565 S
C99 O114 1.259 1_455 S
C99 O115 1.268 . S
C100 Ho89 2.811 . S
C100 C101 1.488 . S
C100 O116 1.215 . S
C100 O117 1.301 . S
C101 C100 1.488 . S
C101 C102 1.348 . S
C101 C106 1.413 . S
C102 C101 1.348 . S
C102 C103 1.442 . S
C102 H124 0.930 1_655 S
C103 C102 1.442 . S
C103 C104 1.381 . S
C103 H125 0.931 1_655 S
C104 C103 1.381 . S
C104 C105 1.321 . S
C105 C104 1.321 . S
C105 C106 1.403 . S
C105 H126 0.934 . S
C106 C101 1.413 . S
C106 C105 1.403 . S
C106 H127 0.930 . S
C107 O118 1.275 . S
C107 O119 1.256 1_545 S
O108 Ho88 2.322 . S
O108 C90 1.259 1_455 S
O109 Ho89 2.346 1_565 S
O109 C90 1.268 . S
O110 Ho88 2.378 . S
O110 C91 1.215 . S
O111 Ho88 2.533 . S
O111 C91 1.311 . S
O112 Ho88 2.381 . S
O112 C98 1.275 . S
O113 Ho88 2.669 1_545 S
O113 Ho89 2.305 1_455 S
O113 C98 1.256 1_545 S
O114 Ho89 2.322 . S
O114 C99 1.259 1_655 S
O115 Ho88 2.346 1_545 S
O115 C99 1.268 . S
O116 Ho89 2.378 . S
O116 C100 1.215 . S
O117 Ho89 2.529 . S
O117 C100 1.301 . S
O118 Ho89 2.381 . S
O118 C107 1.275 . S
O119 Ho88 2.305 1_655 S
O119 Ho89 2.669 1_565 S
O119 C107 1.256 1_565 S
H120 C93 0.930 1_655 S
H121 C94 0.931 1_655 S
H122 C96 0.934 . S
H123 C97 0.930 1_556 S
H124 C102 0.930 1_455 S
H125 C103 0.931 1_455 S
H126 C105 0.934 . S
H127 C106 0.930 . S
Ho128 C131 2.811 . S
Ho128 O148 2.322 . S
Ho128 O150 2.378 . S
Ho128 O151 2.531 . S
Ho128 O152 2.381 . S
Ho128 O153 2.669 . S
Ho128 O155 2.346 . S
Ho128 O159 2.305 1_545 S
Ho129 C140 2.811 . S
Ho129 O149 2.346 . S
Ho129 O153 2.305 1_565 S
Ho129 O154 2.322 . S
Ho129 O156 2.378 . S
Ho129 O157 2.526 . S
Ho129 O158 2.381 . S
Ho129 O159 2.669 . S
C130 O148 1.259 1_565 S
C130 O149 1.268 . S
C131 Ho128 2.811 . S
C131 C132 1.488 1_556 S
C131 O150 1.215 . S
C131 O151 1.306 . S
C132 C131 1.488 1_554 S
C132 C133 1.348 . S
C132 C137 1.413 . S
C133 C132 1.348 . S
C133 C134 1.442 . S
C133 H160 0.930 1_545 S
C134 C133 1.442 . S
C134 C135 1.381 . S
C134 H161 0.931 1_545 S
C135 C134 1.381 . S
C135 C136 1.321 . S
C136 C135 1.321 . S
C136 C137 1.403 . S
C136 H162 0.934 . S
C137 C132 1.413 . S
C137 C136 1.403 . S
C137 H163 0.930 1_554 S
C138 O152 1.275 . S
C138 O153 1.256 . S
C139 O154 1.259 1_545 S
C139 O155 1.268 . S
C140 Ho129 2.811 . S
C140 C141 1.488 . S
C140 O156 1.215 . S
C140 O157 1.296 . S
C141 C140 1.488 . S
C141 C142 1.348 . S
C141 C146 1.413 . S
C142 C141 1.348 . S
C142 C143 1.442 . S
C142 H164 0.930 1_565 S
C143 C142 1.442 . S
C143 C144 1.381 . S
C143 H165 0.931 1_565 S
C144 C143 1.381 . S
C144 C145 1.321 . S
C145 C144 1.321 . S
C145 C146 1.403 . S
C145 H166 0.934 . S
C146 C141 1.413 . S
C146 C145 1.403 . S
C146 H167 0.930 . S
C147 O158 1.275 . S
C147 O159 1.256 . S
O148 Ho128 2.322 . S
O148 C130 1.259 1_545 S
O149 Ho129 2.346 . S
O149 C130 1.268 . S
O150 Ho128 2.378 . S
O150 C131 1.215 . S
O151 Ho128 2.531 . S
O151 C131 1.306 . S
O152 Ho128 2.381 . S
O152 C138 1.275 . S
O153 Ho128 2.669 . S
O153 Ho129 2.305 1_545 S
O153 C138 1.256 . S
O154 Ho129 2.322 . S
O154 C139 1.259 1_565 S
O155 Ho128 2.346 . S
O155 C139 1.268 . S
O156 Ho129 2.378 . S
O156 C140 1.215 . S
O157 Ho129 2.526 . S
O157 C140 1.296 . S
O158 Ho129 2.381 . S
O158 C147 1.275 . S
O159 Ho128 2.305 1_565 S
O159 Ho129 2.669 . S
O159 C147 1.256 . S
H160 C133 0.930 1_565 S
H161 C134 0.931 1_565 S
H162 C136 0.934 . S
H163 C137 0.930 1_556 S
H164 C142 0.930 1_545 S
H165 C143 0.931 1_545 S
H166 C145 0.934 . S
H167 C146 0.930 . S
Ho168 C171 2.811 . S
Ho168 O188 2.322 . S
Ho168 O190 2.378 . S
Ho168 O191 2.524 . S
Ho168 O192 2.381 . S
Ho168 O193 2.669 . S
Ho168 O195 2.346 . S
Ho168 O199 2.305 . S
Ho169 C180 2.811 . S
Ho169 O189 2.346 . S
Ho169 O193 2.305 . S
Ho169 O194 2.322 . S
Ho169 O196 2.378 . S
Ho169 O197 2.524 . S
Ho169 O198 2.381 . S
Ho169 O199 2.669 . S
C170 O188 1.259 . S
C170 O189 1.268 . S
C171 Ho168 2.811 . S
C171 C172 1.488 1_556 S
C171 O190 1.215 . S
C171 O191 1.289 . S
C172 C171 1.488 1_554 S
C172 C173 1.348 . S
C172 C177 1.413 . S
C173 C172 1.348 . S
C173 C174 1.442 . S
C173 H200 0.930 . S
C174 C173 1.442 . S
C174 C175 1.381 . S
C174 H201 0.931 . S
C175 C174 1.381 . S
C175 C176 1.321 . S
C176 C175 1.321 . S
C176 C177 1.403 . S
C176 H202 0.934 . S
C177 C172 1.413 . S
C177 C176 1.403 . S
C177 H203 0.930 1_554 S
C178 O192 1.275 . S
C178 O193 1.256 . S
C179 O194 1.259 . S
C179 O195 1.268 . S
C180 Ho169 2.811 . S
C180 C181 1.488 . S
C180 O196 1.215 . S
C180 O197 1.289 . S
C181 C180 1.488 . S
C181 C182 1.348 . S
C181 C186 1.413 . S
C182 C181 1.348 . S
C182 C183 1.442 . S
C182 H204 0.930 . S
C183 C182 1.442 . S
C183 C184 1.381 . S
C183 H205 0.931 . S
C184 C183 1.381 . S
C184 C185 1.321 . S
C185 C184 1.321 . S
C185 C186 1.403 . S
C185 H206 0.934 . S
C186 C181 1.413 . S
C186 C185 1.403 . S
C186 H207 0.930 . S
C187 O198 1.275 . S
C187 O199 1.256 . S
O188 Ho168 2.322 . S
O188 C170 1.259 . S
O189 Ho169 2.346 . S
O189 C170 1.268 . S
O190 Ho168 2.378 . S
O190 C171 1.215 . S
O191 Ho168 2.524 . S
O191 C171 1.289 . S
O192 Ho168 2.381 . S
O192 C178 1.275 . S
O193 Ho168 2.669 . S
O193 Ho169 2.305 . S
O193 C178 1.256 . S
O194 Ho169 2.322 . S
O194 C179 1.259 . S
O195 Ho168 2.346 . S
O195 C179 1.268 . S
O196 Ho169 2.378 . S
O196 C180 1.215 . S
O197 Ho169 2.524 . S
O197 C180 1.289 . S
O198 Ho169 2.381 . S
O198 C187 1.275 . S
O199 Ho168 2.305 . S
O199 Ho169 2.669 . S
O199 C187 1.256 . S
H200 C173 0.930 . S
H201 C174 0.931 . S
H202 C176 0.934 . S
H203 C177 0.930 1_556 S
H204 C182 0.930 . S
H205 C183 0.931 . S
H206 C185 0.934 . S
H207 C186 0.930 . S
Ho208 C211 2.811 . S
Ho208 O228 2.322 . S
Ho208 O230 2.378 . S
Ho208 O231 2.524 . S
Ho208 O232 2.381 . S
Ho208 O233 2.669 1_655 S
Ho208 O235 2.346 1_655 S
Ho208 O239 2.305 . S
Ho209 C220 2.811 . S
Ho209 O229 2.346 1_455 S
Ho209 O233 2.305 . S
Ho209 O234 2.322 . S
Ho209 O236 2.378 . S
Ho209 O237 2.524 . S
Ho209 O238 2.381 . S
Ho209 O239 2.669 1_455 S
C210 O228 1.259 . S
C210 O229 1.268 . S
C211 Ho208 2.811 . S
C211 C212 1.488 1_556 S
C211 O230 1.215 . S
C211 O231 1.289 . S
C212 C211 1.488 1_554 S
C212 C213 1.348 . S
C212 C217 1.413 . S
C213 C212 1.348 . S
C213 C214 1.442 . S
C213 H240 0.930 . S
C214 C213 1.442 . S
C214 C215 1.381 . S
C214 H241 0.931 . S
C215 C214 1.381 . S
C215 C216 1.321 . S
C216 C215 1.321 . S
C216 C217 1.403 . S
C216 H242 0.934 . S
C217 C212 1.413 . S
C217 C216 1.403 . S
C217 H243 0.930 1_554 S
C218 O232 1.291 . S
C218 O233 1.247 1_655 S
C219 O234 1.259 . S
C219 O235 1.268 . S
C220 Ho209 2.811 . S
C220 C221 1.488 . S
C220 O236 1.215 . S
C220 O237 1.289 . S
C221 C220 1.488 . S
C221 C222 1.348 . S
C221 C226 1.413 . S
C222 C221 1.348 . S
C222 C223 1.442 . S
C222 H244 0.930 . S
C223 C222 1.442 . S
C223 C224 1.381 . S
C223 H245 0.931 . S
C224 C223 1.381 . S
C224 C225 1.321 . S
C225 C224 1.321 . S
C225 C226 1.403 . S
C225 H246 0.934 . S
C226 C221 1.413 . S
C226 C225 1.403 . S
C226 H247 0.930 . S
C227 O238 1.296 . S
C227 O239 1.244 1_455 S
O228 Ho208 2.322 . S
O228 C210 1.259 . S
O229 Ho209 2.346 1_655 S
O229 C210 1.268 . S
O230 Ho208 2.378 . S
O230 C211 1.215 . S
O231 Ho208 2.524 . S
O231 C211 1.289 . S
O232 Ho208 2.381 . S
O232 C218 1.291 . S
O233 Ho208 2.669 1_455 S
O233 Ho209 2.305 . S
O233 C218 1.247 1_455 S
O234 Ho209 2.322 . S
O234 C219 1.259 . S
O235 Ho208 2.346 1_455 S
O235 C219 1.268 . S
O236 Ho209 2.378 . S
O236 C220 1.215 . S
O237 Ho209 2.524 . S
O237 C220 1.289 . S
O238 Ho209 2.381 . S
O238 C227 1.296 . S
O239 Ho208 2.305 . S
O239 Ho209 2.669 1_655 S
O239 C227 1.244 1_655 S
H240 C213 0.930 . S
H241 C214 0.931 . S
H242 C216 0.934 . S
H243 C217 0.930 1_556 S
H244 C222 0.930 . S
H245 C223 0.931 . S
H246 C225 0.934 . S
H247 C226 0.930 . S
H248 C260 0.930 . S
H249 C262 0.930 . S
H250 C263 0.930 . S
H251 C267 0.959 . S
H252 C267 0.959 . S
H253 C267 0.961 . S
H254 C268 0.960 . S
H255 C268 0.961 . S
H256 C268 0.959 . S
H257 C271 0.929 . S
H258 C272 0.931 . S
H259 C274 0.930 . S
C260 H248 0.930 . S
C260 C261 1.399 1_545 S
C260 C265 1.399 . S
C261 C260 1.399 1_565 S
C261 C262 1.376 . S
C262 H249 0.930 . S
C262 C261 1.376 . S
C262 C263 1.388 . S
C263 H250 0.930 . S
C263 C262 1.388 . S
C263 C264 1.390 . S
C264 C263 1.390 . S
C264 C265 1.394 1_565 S
C264 C270 1.465 . S
C265 C260 1.399 . S
C265 C264 1.394 1_545 S
C265 C266 1.516 . S
C266 C265 1.516 . S
C266 C267 1.502 . S
C266 C268 1.561 . S
C266 C269 1.526 . S
C267 H251 0.959 . S
C267 H252 0.959 . S
C267 H253 0.961 . S
C267 C266 1.502 . S
C268 H254 0.960 . S
C268 H255 0.961 . S
C268 H256 0.959 . S
C268 C266 1.561 . S
C269 C266 1.526 . S
C269 C270 1.396 1_545 S
C269 C274 1.390 . S
C270 C264 1.465 . S
C270 C269 1.396 1_565 S
C270 C271 1.399 . S
C271 H257 0.929 . S
C271 C270 1.399 . S
C271 C272 1.385 . S
C272 H258 0.931 . S
C272 C271 1.385 . S
C272 C273 1.389 . S
C273 C272 1.389 . S
C273 C274 1.387 1_565 S
C274 H259 0.930 . S
C274 C269 1.390 . S
C274 C273 1.387 1_545 S
H275 C287 0.930 . S
H276 C289 0.930 . S
H277 C290 0.930 . S
H278 C294 0.959 . S
H279 C294 0.959 . S
H280 C294 0.961 . S
H281 C295 0.960 . S
H282 C295 0.961 . S
H283 C295 0.959 . S
H284 C298 0.929 . S
H285 C299 0.931 . S
H286 C301 0.930 . S
C287 H275 0.930 . S
C287 C288 1.399 . S
C287 C292 1.399 . S
C288 C287 1.399 . S
C288 C289 1.376 . S
C289 H276 0.930 . S
C289 C288 1.376 . S
C289 C290 1.388 . S
C290 H277 0.930 . S
C290 C289 1.388 . S
C290 C291 1.390 . S
C291 C290 1.390 . S
C291 C292 1.394 . S
C291 C297 1.465 . S
C292 C287 1.399 . S
C292 C291 1.394 . S
C292 C293 1.516 . S
C293 C292 1.516 . S
C293 C294 1.502 . S
C293 C295 1.561 . S
C293 C296 1.526 . S
C294 H278 0.959 . S
C294 H279 0.959 . S
C294 H280 0.961 . S
C294 C293 1.502 . S
C295 H281 0.960 . S
C295 H282 0.961 . S
C295 H283 0.959 . S
C295 C293 1.561 . S
C296 C293 1.526 . S
C296 C297 1.396 . S
C296 C301 1.390 . S
C297 C291 1.465 . S
C297 C296 1.396 . S
C297 C298 1.399 . S
C298 H284 0.929 . S
C298 C297 1.399 . S
C298 C299 1.385 . S
C299 H285 0.931 . S
C299 C298 1.385 . S
C299 C300 1.389 . S
C300 C299 1.389 . S
C300 C301 1.387 . S
C301 H286 0.930 . S
C301 C296 1.390 . S
C301 C300 1.387 . S
H302 C314 0.930 . S
H303 C316 0.930 . S
H304 C317 0.930 . S
H305 C321 0.959 . S
H306 C321 0.959 . S
H307 C321 0.961 . S
H308 C322 0.960 . S
H309 C322 0.961 . S
H310 C322 0.959 . S
H311 C325 0.929 . S
H312 C326 0.931 . S
H313 C328 0.930 . S
C314 H302 0.930 . S
C314 C315 1.399 . S
C314 C319 1.399 . S
C315 C314 1.399 . S
C315 C316 1.376 . S
C316 H303 0.930 . S
C316 C315 1.376 . S
C316 C317 1.388 . S
C317 H304 0.930 . S
C317 C316 1.388 . S
C317 C318 1.390 . S
C318 C317 1.390 . S
C318 C319 1.394 . S
C318 C324 1.465 . S
C319 C314 1.399 . S
C319 C318 1.394 . S
C319 C320 1.516 . S
C320 C319 1.516 . S
C320 C321 1.502 . S
C320 C322 1.561 . S
C320 C323 1.526 . S
C321 H305 0.959 . S
C321 H306 0.959 . S
C321 H307 0.961 . S
C321 C320 1.502 . S
C322 H308 0.960 . S
C322 H309 0.961 . S
C322 H310 0.959 . S
C322 C320 1.561 . S
C323 C320 1.526 . S
C323 C324 1.396 . S
C323 C328 1.390 . S
C324 C318 1.465 . S
C324 C323 1.396 . S
C324 C325 1.399 . S
C325 H311 0.929 . S
C325 C324 1.399 . S
C325 C326 1.385 . S
C326 H312 0.931 . S
C326 C325 1.385 . S
C326 C327 1.389 . S
C327 C326 1.389 . S
C327 C328 1.387 . S
C328 H313 0.930 . S
C328 C323 1.390 . S
C328 C327 1.387 . S
H329 C341 0.928 1_655 S
H330 C343 0.930 . S
H331 C344 0.930 . S
H332 C348 0.959 . S
H333 C348 0.959 . S
H334 C348 0.961 . S
H335 C349 0.960 . S
H336 C349 0.961 . S
H337 C349 0.959 . S
H338 C352 0.929 . S
H339 C353 0.931 . S
H340 C355 0.931 . S
C341 H329 0.928 1_455 S
C341 C342 1.400 . S
C341 C346 1.400 . S
C342 C341 1.400 . S
C342 C343 1.376 . S
C343 H330 0.930 . S
C343 C342 1.376 . S
C343 C344 1.388 . S
C344 H331 0.930 . S
C344 C343 1.388 . S
C344 C345 1.390 . S
C345 C344 1.390 . S
C345 C346 1.394 . S
C345 C351 1.465 . S
C346 C341 1.400 . S
C346 C345 1.394 . S
C346 C347 1.516 . S
C347 C346 1.516 . S
C347 C348 1.502 1_455 S
C347 C349 1.561 . S
C347 C350 1.526 . S
C348 H332 0.959 . S
C348 H333 0.959 . S
C348 H334 0.961 . S
C348 C347 1.502 1_655 S
C349 H335 0.960 . S
C349 H336 0.961 . S
C349 H337 0.959 . S
C349 C347 1.561 . S
C350 C347 1.526 . S
C350 C351 1.396 . S
C350 C355 1.390 . S
C351 C345 1.465 . S
C351 C350 1.396 . S
C351 C352 1.399 . S
C352 H338 0.929 . S
C352 C351 1.399 . S
C352 C353 1.385 . S
C353 H339 0.931 . S
C353 C352 1.385 . S
C353 C354 1.389 . S
C354 C353 1.389 . S
C354 C355 1.387 . S
C355 H340 0.931 . S
C355 C350 1.390 . S
C355 C354 1.387 . S
H356 C368 0.930 . S
H357 C370 0.930 . S
H358 C371 0.930 . S
H359 C375 0.959 . S
H360 C375 0.959 . S
H361 C375 0.961 . S
H362 C376 0.960 . S
H363 C376 0.961 . S
H364 C376 0.959 . S
H365 C379 0.929 . S
H366 C380 0.931 . S
H367 C382 0.930 . S
C368 H356 0.930 . S
C368 C369 1.399 1_565 S
C368 C373 1.399 . S
C369 C368 1.399 1_545 S
C369 C370 1.376 . S
C370 H357 0.930 . S
C370 C369 1.376 . S
C370 C371 1.388 . S
C371 H358 0.930 . S
C371 C370 1.388 . S
C371 C372 1.390 . S
C372 C371 1.390 . S
C372 C373 1.394 1_545 S
C372 C378 1.465 . S
C373 C368 1.399 . S
C373 C372 1.394 1_565 S
C373 C374 1.516 . S
C374 C373 1.516 . S
C374 C375 1.502 . S
C374 C376 1.561 . S
C374 C377 1.526 . S
C375 H359 0.959 . S
C375 H360 0.959 . S
C375 H361 0.961 . S
C375 C374 1.502 . S
C376 H362 0.960 . S
C376 H363 0.961 . S
C376 H364 0.959 . S
C376 C374 1.561 . S
C377 C374 1.526 . S
C377 C378 1.396 1_565 S
C377 C382 1.390 1_554 S
C378 C372 1.465 . S
C378 C377 1.396 1_545 S
C378 C379 1.399 . S
C379 H365 0.929 . S
C379 C378 1.399 . S
C379 C380 1.385 1_554 S
C380 H366 0.931 . S
C380 C379 1.385 1_556 S
C380 C381 1.389 . S
C381 C380 1.389 . S
C381 C382 1.387 1_545 S
C382 H367 0.930 . S
C382 C377 1.390 1_556 S
C382 C381 1.387 1_565 S
H383 C395 0.930 . S
H384 C397 0.930 . S
H385 C398 0.930 . S
H386 C402 0.959 . S
H387 C402 0.959 . S
H388 C402 0.961 . S
H389 C403 0.960 . S
H390 C403 0.961 . S
H391 C403 0.959 . S
H392 C406 0.929 . S
H393 C407 0.931 . S
H394 C409 0.930 . S
C395 H383 0.930 . S
C395 C396 1.399 . S
C395 C400 1.399 . S
C396 C395 1.399 . S
C396 C397 1.376 . S
C397 H384 0.930 . S
C397 C396 1.376 . S
C397 C398 1.388 . S
C398 H385 0.930 . S
C398 C397 1.388 . S
C398 C399 1.390 . S
C399 C398 1.390 . S
C399 C400 1.394 . S
C399 C405 1.465 . S
C400 C395 1.399 . S
C400 C399 1.394 . S
C400 C401 1.516 . S
C401 C400 1.516 . S
C401 C402 1.502 . S
C401 C403 1.561 . S
C401 C404 1.526 . S
C402 H386 0.959 . S
C402 H387 0.959 . S
C402 H388 0.961 . S
C402 C401 1.502 . S
C403 H389 0.960 . S
C403 H390 0.961 . S
C403 H391 0.959 . S
C403 C401 1.561 . S
C404 C401 1.526 . S
C404 C405 1.396 . S
C404 C409 1.390 . S
C405 C399 1.465 . S
C405 C404 1.396 . S
C405 C406 1.399 1_554 S
C406 H392 0.929 . S
C406 C405 1.399 1_556 S
C406 C407 1.385 . S
C407 H393 0.931 . S
C407 C406 1.385 . S
C407 C408 1.389 . S
C408 C407 1.389 . S
C408 C409 1.387 1_556 S
C409 H394 0.930 . S
C409 C404 1.390 . S
C409 C408 1.387 1_554 S
H410 C422 0.930 . S
H411 C424 0.930 . S
H412 C425 0.930 . S
H413 C429 0.959 . S
H414 C429 0.959 . S
H415 C429 0.961 1_554 S
H416 C430 0.960 . S
H417 C430 0.961 . S
H418 C430 0.959 . S
H419 C433 0.929 . S
H420 C434 0.931 . S
H421 C436 0.930 . S
C422 H410 0.930 . S
C422 C423 1.399 . S
C422 C427 1.399 . S
C423 C422 1.399 . S
C423 C424 1.376 . S
C424 H411 0.930 . S
C424 C423 1.376 . S
C424 C425 1.388 . S
C425 H412 0.930 . S
C425 C424 1.388 . S
C425 C426 1.390 . S
C426 C425 1.390 . S
C426 C427 1.394 . S
C426 C432 1.465 . S
C427 C422 1.399 . S
C427 C426 1.394 . S
C427 C428 1.516 . S
C428 C427 1.516 . S
C428 C429 1.502 1_554 S
C428 C430 1.561 . S
C428 C431 1.526 . S
C429 H413 0.959 . S
C429 H414 0.959 . S
C429 H415 0.961 1_556 S
C429 C428 1.502 1_556 S
C430 H416 0.960 . S
C430 H417 0.961 . S
C430 H418 0.959 . S
C430 C428 1.561 . S
C431 C428 1.526 . S
C431 C432 1.396 . S
C431 C436 1.390 1_554 S
C432 C426 1.465 . S
C432 C431 1.396 . S
C432 C433 1.399 . S
C433 H419 0.929 . S
C433 C432 1.399 . S
C433 C434 1.385 . S
C434 H420 0.931 . S
C434 C433 1.385 . S
C434 C435 1.389 1_554 S
C435 C434 1.389 1_556 S
C435 C436 1.387 . S
C436 H421 0.930 . S
C436 C431 1.390 1_556 S
C436 C435 1.387 . S
H437 C449 0.930 . S
H438 C451 0.930 . S
H439 C452 0.930 . S
H440 C456 0.959 . S
H441 C456 0.959 . S
H442 C456 0.961 . S
H443 C457 0.960 . S
H444 C457 0.961 . S
H445 C457 0.959 . S
H446 C460 0.929 . S
H447 C461 0.931 . S
H448 C463 0.930 . S
C449 H437 0.930 . S
C449 C450 1.399 1_455 S
C449 C454 1.399 . S
C450 C449 1.399 1_655 S
C450 C451 1.376 . S
C451 H438 0.930 . S
C451 C450 1.376 . S
C451 C452 1.388 . S
C452 H439 0.930 . S
C452 C451 1.388 . S
C452 C453 1.390 . S
C453 C452 1.390 . S
C453 C454 1.394 1_655 S
C453 C459 1.465 . S
C454 C449 1.399 . S
C454 C453 1.394 1_455 S
C454 C455 1.516 . S
C455 C454 1.516 . S
C455 C456 1.502 . S
C455 C457 1.561 1_455 S
C455 C458 1.531 . S
C456 H440 0.959 . S
C456 H441 0.959 . S
C456 H442 0.961 . S
C456 C455 1.502 . S
C457 H443 0.960 . S
C457 H444 0.961 . S
C457 H445 0.959 . S
C457 C455 1.561 1_655 S
C458 C455 1.531 . S
C458 C459 1.387 1_455 S
C458 C463 1.393 . S
C459 C453 1.465 . S
C459 C458 1.387 1_655 S
C459 C460 1.399 1_554 S
C460 H446 0.929 . S
C460 C459 1.399 1_556 S
C460 C461 1.385 . S
C461 H447 0.931 . S
C461 C460 1.385 . S
C461 C462 1.389 . S
C462 C461 1.389 . S
C462 C463 1.387 1_656 S
C463 H448 0.930 . S
C463 C458 1.393 . S
C463 C462 1.387 1_454 S
H464 C476 0.930 . S
H465 C478 0.930 . S
H466 C479 0.930 . S
H467 C483 0.959 . S
H468 C483 0.959 . S
H469 C483 0.961 . S
H470 C484 0.960 . S
H471 C484 0.961 . S
H472 C484 0.959 1_655 S
H473 C487 0.929 . S
H474 C488 0.931 . S
H475 C490 0.930 . S
C476 H464 0.930 . S
C476 C477 1.382 1_455 S
C476 C481 1.399 1_455 S
C477 C476 1.382 1_655 S
C477 C478 1.413 . S
C478 H465 0.930 . S
C478 C477 1.413 . S
C478 C479 1.388 . S
C479 H466 0.930 . S
C479 C478 1.388 . S
C479 C480 1.390 . S
C480 C479 1.390 . S
C480 C481 1.394 . S
C480 C486 1.465 . S
C481 C476 1.399 1_655 S
C481 C480 1.394 . S
C481 C482 1.516 1_655 S
C482 C481 1.516 1_455 S
C482 C483 1.502 . S
C482 C484 1.561 . S
C482 C485 1.526 1_455 S
C483 H467 0.959 . S
C483 H468 0.959 . S
C483 H469 0.961 . S
C483 C482 1.502 . S
C484 H470 0.960 . S
C484 H471 0.961 . S
C484 H472 0.959 1_455 S
C484 C482 1.561 . S
C485 C482 1.526 1_655 S
C485 C486 1.396 . S
C485 C490 1.390 . S
C486 C480 1.465 . S
C486 C485 1.396 . S
C486 C487 1.399 . S
C487 H473 0.929 . S
C487 C486 1.399 . S
C487 C488 1.385 . S
C488 H474 0.931 . S
C488 C487 1.385 . S
C488 C489 1.389 . S
C489 C488 1.389 . S
C489 C490 1.387 . S
C490 H475 0.930 . S
C490 C485 1.390 . S
C490 C489 1.387 . S
H491 C503 0.930 . S
H492 C505 0.930 . S
H493 C506 0.930 . S
H494 C510 0.959 . S
H495 C510 0.959 . S
H496 C510 0.961 . S
H497 C511 0.960 . S
H498 C511 0.961 . S
H499 C511 0.959 . S
H500 C514 0.929 1_545 S
H501 C515 0.931 . S
H502 C517 0.930 . S
C503 H491 0.930 . S
C503 C504 1.399 1_565 S
C503 C508 1.399 . S
C504 C503 1.399 1_545 S
C504 C505 1.376 . S
C505 H492 0.930 . S
C505 C504 1.376 . S
C505 C506 1.388 . S
C506 H493 0.930 . S
C506 C505 1.388 . S
C506 C507 1.390 1_545 S
C507 C506 1.390 1_565 S
C507 C508 1.394 . S
C507 C513 1.465 . S
C508 C503 1.399 . S
C508 C507 1.394 . S
C508 C509 1.516 . S
C509 C508 1.516 . S
C509 C510 1.502 . S
C509 C511 1.561 . S
C509 C512 1.526 . S
C510 H494 0.959 . S
C510 H495 0.959 . S
C510 H496 0.961 . S
C510 C509 1.502 . S
C511 H497 0.960 . S
C511 H498 0.961 . S
C511 H499 0.959 . S
C511 C509 1.561 . S
C512 C509 1.526 . S
C512 C513 1.396 . S
C512 C517 1.390 . S
C513 C507 1.465 . S
C513 C512 1.396 . S
C513 C514 1.399 . S
C514 H500 0.929 1_565 S
C514 C513 1.399 . S
C514 C515 1.385 . S
C515 H501 0.931 . S
C515 C514 1.385 . S
C515 C516 1.389 . S
C516 C515 1.389 . S
C516 C517 1.387 . S
C517 H502 0.930 . S
C517 C512 1.390 . S
C517 C516 1.387 . S
H518 C530 0.930 . S
H519 C532 0.930 . S
H520 C533 0.930 . S
H521 C537 0.959 . S
H522 C537 0.959 . S
H523 C537 0.961 . S
H524 C538 0.960 . S
H525 C538 0.961 . S
H526 C538 0.959 . S
H527 C541 0.929 . S
H528 C542 0.931 . S
H529 C544 0.930 . S
C530 H518 0.930 . S
C530 C531 1.399 . S
C530 C535 1.399 . S
C531 C530 1.399 . S
C531 C532 1.376 . S
C532 H519 0.930 . S
C532 C531 1.376 . S
C532 C533 1.388 . S
C533 H520 0.930 . S
C533 C532 1.388 . S
C533 C534 1.390 . S
C534 C533 1.390 . S
C534 C535 1.394 . S
C534 C540 1.465 . S
C535 C530 1.399 . S
C535 C534 1.394 . S
C535 C536 1.516 . S
C536 C535 1.516 . S
C536 C537 1.502 . S
C536 C538 1.561 . S
C536 C539 1.526 . S
C537 H521 0.959 . S
C537 H522 0.959 . S
C537 H523 0.961 . S
C537 C536 1.502 . S
C538 H524 0.960 . S
C538 H525 0.961 . S
C538 H526 0.959 . S
C538 C536 1.561 . S
C539 C536 1.526 . S
C539 C540 1.396 . S
C539 C544 1.390 . S
C540 C534 1.465 . S
C540 C539 1.396 . S
C540 C541 1.399 . S
C541 H527 0.929 . S
C541 C540 1.399 . S
C541 C542 1.385 . S
C542 H528 0.931 . S
C542 C541 1.385 . S
C542 C543 1.389 . S
C543 C542 1.389 . S
C543 C544 1.387 . S
C544 H529 0.930 . S
C544 C539 1.390 . S
C544 C543 1.387 . S
H545 C557 0.930 . S
H546 C559 0.930 . S
H547 C560 0.930 . S
H548 C564 0.959 . S
H549 C564 0.959 . S
H550 C564 0.961 . S
H551 C565 0.960 . S
H552 C565 0.961 . S
H553 C565 0.959 . S
H554 C568 0.929 . S
H555 C569 0.931 . S
H556 C571 0.930 . S
C557 H545 0.930 . S
C557 C558 1.399 . S
C557 C562 1.399 . S
C558 C557 1.399 . S
C558 C559 1.376 . S
C559 H546 0.930 . S
C559 C558 1.376 . S
C559 C560 1.388 . S
C560 H547 0.930 . S
C560 C559 1.388 . S
C560 C561 1.390 . S
C561 C560 1.390 . S
C561 C562 1.394 . S
C561 C567 1.465 . S
C562 C557 1.399 . S
C562 C561 1.394 . S
C562 C563 1.516 . S
C563 C562 1.516 . S
C563 C564 1.502 . S
C563 C565 1.561 . S
C563 C566 1.526 . S
C564 H548 0.959 . S
C564 H549 0.959 . S
C564 H550 0.961 . S
C564 C563 1.502 . S
C565 H551 0.960 . S
C565 H552 0.961 . S
C565 H553 0.959 . S
C565 C563 1.561 . S
C566 C563 1.526 . S
C566 C567 1.396 . S
C566 C571 1.390 . S
C567 C561 1.465 . S
C567 C566 1.396 . S
C567 C568 1.399 . S
C568 H554 0.929 . S
C568 C567 1.399 . S
C568 C569 1.385 . S
C569 H555 0.931 . S
C569 C568 1.385 . S
C569 C570 1.389 . S
C570 C569 1.389 . S
C570 C571 1.387 . S
C571 H556 0.930 . S
C571 C566 1.390 . S
C571 C570 1.387 . S
H572 C584 0.930 . S
H573 C586 0.930 . S
H574 C587 0.930 . S
H575 C591 0.959 . S
H576 C591 0.959 . S
H577 C591 0.961 . S
H578 C592 0.960 . S
H579 C592 0.961 1_556 S
H580 C592 0.959 1_655 S
H581 C595 0.929 . S
H582 C596 0.931 . S
H583 C598 0.930 . S
C584 H572 0.930 . S
C584 C585 1.399 1_455 S
C584 C589 1.399 . S
C585 C584 1.399 1_655 S
C585 C586 1.376 . S
C586 H573 0.930 . S
C586 C585 1.376 . S
C586 C587 1.388 . S
C587 H574 0.930 . S
C587 C586 1.388 . S
C587 C588 1.390 1_655 S
C588 C587 1.390 1_455 S
C588 C589 1.394 . S
C588 C594 1.465 . S
C589 C584 1.399 . S
C589 C588 1.394 . S
C589 C590 1.516 . S
C590 C589 1.516 . S
C590 C591 1.502 . S
C590 C592 1.561 . S
C590 C593 1.526 . S
C591 H575 0.959 . S
C591 H576 0.959 . S
C591 H577 0.961 . S
C591 C590 1.502 . S
C592 H578 0.960 . S
C592 H579 0.961 1_554 S
C592 H580 0.959 1_455 S
C592 C590 1.561 . S
C593 C590 1.526 . S
C593 C594 1.396 . S
C593 C598 1.390 . S
C594 C588 1.465 . S
C594 C593 1.396 . S
C594 C595 1.399 . S
C595 H581 0.929 . S
C595 C594 1.399 . S
C595 C596 1.385 . S
C596 H582 0.931 . S
C596 C595 1.385 . S
C596 C597 1.389 . S
C597 C596 1.389 . S
C597 C598 1.387 . S
C598 H583 0.930 . S
C598 C593 1.390 . S
C598 C597 1.387 . S
H599 C611 0.930 . S
H600 C613 0.930 . S
H601 C614 0.930 . S
H602 C618 0.959 1_545 S
H603 C618 0.959 . S
H604 C618 0.961 . S
H605 C619 0.960 . S
H606 C619 0.961 . S
H607 C619 0.959 . S
H608 C622 0.929 . S
H609 C623 0.931 . S
H610 C625 0.930 . S
C611 H599 0.930 . S
C611 C612 1.403 . S
C611 C616 1.384 1_565 S
C612 C611 1.403 . S
C612 C613 1.369 1_565 S
C613 H600 0.930 . S
C613 C612 1.369 1_545 S
C613 C614 1.388 . S
C614 H601 0.930 . S
C614 C613 1.388 . S
C614 C615 1.390 . S
C615 C614 1.390 . S
C615 C616 1.424 . S
C615 C621 1.465 . S
C616 C611 1.384 1_545 S
C616 C615 1.424 . S
C616 C617 1.506 1_545 S
C617 C616 1.506 1_565 S
C617 C618 1.502 . S
C617 C619 1.561 . S
C617 C620 1.526 1_565 S
C618 H602 0.959 1_565 S
C618 H603 0.959 . S
C618 H604 0.961 . S
C618 C617 1.502 . S
C619 H605 0.960 . S
C619 H606 0.961 . S
C619 H607 0.959 . S
C619 C617 1.561 . S
C620 C617 1.526 1_545 S
C620 C621 1.396 . S
C620 C625 1.390 . S
C621 C615 1.465 . S
C621 C620 1.396 . S
C621 C622 1.399 . S
C622 H608 0.929 . S
C622 C621 1.399 . S
C622 C623 1.385 . S
C623 H609 0.931 . S
C623 C622 1.385 . S
C623 C624 1.389 . S
C624 C623 1.389 . S
C624 C625 1.387 . S
C625 H610 0.930 . S
C625 C620 1.390 . S
C625 C624 1.387 . S
H626 C638 0.930 . S
H627 C640 0.930 . S
H628 C641 0.930 . S
H629 C645 0.959 . S
H630 C645 0.959 . S
H631 C645 0.961 . S
H632 C646 0.960 . S
H633 C646 0.961 . S
H634 C646 0.959 . S
H635 C649 0.929 . S
H636 C650 0.931 1_556 S
H637 C652 0.930 . S
C638 H626 0.930 . S
C638 C639 1.399 . S
C638 C643 1.399 . S
C639 C638 1.399 . S
C639 C640 1.376 . S
C640 H627 0.930 . S
C640 C639 1.376 . S
C640 C641 1.388 . S
C641 H628 0.930 . S
C641 C640 1.388 . S
C641 C642 1.390 . S
C642 C641 1.390 . S
C642 C643 1.394 . S
C642 C648 1.465 . S
C643 C638 1.399 . S
C643 C642 1.394 . S
C643 C644 1.516 . S
C644 C643 1.516 . S
C644 C645 1.502 . S
C644 C646 1.561 . S
C644 C647 1.526 . S
C645 H629 0.959 . S
C645 H630 0.959 . S
C645 H631 0.961 . S
C645 C644 1.502 . S
C646 H632 0.960 . S
C646 H633 0.961 . S
C646 H634 0.959 . S
C646 C644 1.561 . S
C647 C644 1.526 . S
C647 C648 1.396 . S
C647 C652 1.390 . S
C648 C642 1.465 . S
C648 C647 1.396 . S
C648 C649 1.399 . S
C649 H635 0.929 . S
C649 C648 1.399 . S
C649 C650 1.385 . S
C650 H636 0.931 1_554 S
C650 C649 1.385 . S
C650 C651 1.389 . S
C651 C650 1.389 . S
C651 C652 1.387 . S
C652 H637 0.930 . S
C652 C647 1.390 . S
C652 C651 1.387 . S
H653 C665 0.930 . S
H654 C667 0.930 . S
H655 C668 0.930 . S
H656 C672 0.959 . S
H657 C672 0.959 . S
H658 C672 0.961 . S
H659 C673 0.960 . S
H660 C673 0.961 . S
H661 C673 0.959 . S
H662 C676 0.929 . S
H663 C677 0.931 . S
H664 C679 0.930 . S
C665 H653 0.930 . S
C665 C666 1.399 . S
C665 C670 1.399 . S
C666 C665 1.399 . S
C666 C667 1.376 . S
C667 H654 0.930 . S
C667 C666 1.376 . S
C667 C668 1.388 . S
C668 H655 0.930 . S
C668 C667 1.388 . S
C668 C669 1.390 . S
C669 C668 1.390 . S
C669 C670 1.394 . S
C669 C675 1.465 . S
C670 C665 1.399 . S
C670 C669 1.394 . S
C670 C671 1.516 . S
C671 C670 1.516 . S
C671 C672 1.502 . S
C671 C673 1.561 . S
C671 C674 1.526 . S
C672 H656 0.959 . S
C672 H657 0.959 . S
C672 H658 0.961 . S
C672 C671 1.502 . S
C673 H659 0.960 . S
C673 H660 0.961 . S
C673 H661 0.959 . S
C673 C671 1.561 . S
C674 C671 1.526 . S
C674 C675 1.396 . S
C674 C679 1.390 . S
C675 C669 1.465 . S
C675 C674 1.396 . S
C675 C676 1.399 . S
C676 H662 0.929 . S
C676 C675 1.399 . S
C676 C677 1.385 . S
C677 H663 0.931 . S
C677 C676 1.385 . S
C677 C678 1.389 . S
C678 C677 1.389 . S
C678 C679 1.387 . S
C679 H664 0.930 . S
C679 C674 1.390 . S
C679 C678 1.387 . S
H680 C692 0.930 . S
H681 C694 0.930 . S
H682 C695 0.930 . S
H683 C699 0.959 . S
H684 C699 0.959 1_554 S
H685 C699 0.961 1_554 S
H686 C700 0.960 . S
H687 C700 0.961 1_455 S
H688 C700 0.959 . S
H689 C703 0.929 . S
H690 C704 0.931 . S
H691 C706 0.930 . S
C692 H680 0.930 . S
C692 C693 1.401 1_455 S
C692 C697 1.399 . S
C693 C692 1.401 1_655 S
C693 C694 1.374 . S
C694 H681 0.930 . S
C694 C693 1.374 . S
C694 C695 1.388 . S
C695 H682 0.930 . S
C695 C694 1.388 . S
C695 C696 1.390 . S
C696 C695 1.390 . S
C696 C697 1.394 1_655 S
C696 C702 1.465 . S
C697 C692 1.399 . S
C697 C696 1.394 1_455 S
C697 C698 1.516 . S
C698 C697 1.516 . S
C698 C699 1.502 . S
C698 C700 1.561 1_456 S
C698 C701 1.526 . S
C699 H683 0.959 . S
C699 H684 0.959 1_556 S
C699 H685 0.961 1_556 S
C699 C698 1.502 . S
C700 H686 0.960 . S
C700 H687 0.961 1_655 S
C700 H688 0.959 . S
C700 C698 1.561 1_654 S
C701 C698 1.526 . S
C701 C702 1.397 1_455 S
C701 C706 1.390 . S
C702 C696 1.465 . S
C702 C701 1.397 1_655 S
C702 C703 1.398 . S
C703 H689 0.929 . S
C703 C702 1.398 . S
C703 C704 1.385 . S
C704 H690 0.931 . S
C704 C703 1.385 . S
C704 C705 1.389 1_655 S
C705 C704 1.389 1_455 S
C705 C706 1.387 . S
C706 H691 0.930 . S
C706 C701 1.390 . S
C706 C705 1.387 . S
H707 C719 0.930 . S
H708 C721 0.930 . S
H709 C722 0.930 . S
H710 C726 0.959 1_554 S
H711 C726 0.959 1_554 S
H712 C726 0.961 1_554 S
H713 C727 0.960 . S
H714 C727 0.961 . S
H715 C727 0.959 . S
H716 C730 0.929 . S
H717 C731 0.931 . S
H718 C733 0.930 . S
C719 H707 0.930 . S
C719 C720 1.399 1_565 S
C719 C724 1.399 . S
C720 C719 1.399 1_545 S
C720 C721 1.376 . S
C721 H708 0.930 . S
C721 C720 1.376 . S
C721 C722 1.388 . S
C722 H709 0.930 . S
C722 C721 1.388 . S
C722 C723 1.390 . S
C723 C722 1.390 . S
C723 C724 1.394 1_545 S
C723 C729 1.465 . S
C724 C719 1.399 . S
C724 C723 1.394 1_565 S
C724 C725 1.516 . S
C725 C724 1.516 . S
C725 C726 1.502 . S
C725 C727 1.561 . S
C725 C728 1.526 . S
C726 H710 0.959 1_556 S
C726 H711 0.959 1_556 S
C726 H712 0.961 1_556 S
C726 C725 1.502 . S
C727 H713 0.960 . S
C727 H714 0.961 . S
C727 H715 0.959 . S
C727 C725 1.561 . S
C728 C725 1.526 . S
C728 C729 1.396 1_565 S
C728 C733 1.390 . S
C729 C723 1.465 . S
C729 C728 1.396 1_545 S
C729 C730 1.399 . S
C730 H716 0.929 . S
C730 C729 1.399 . S
C730 C731 1.385 . S
C731 H717 0.931 . S
C731 C730 1.385 . S
C731 C732 1.389 . S
C732 C731 1.389 . S
C732 C733 1.387 1_545 S
C733 H718 0.930 . S
C733 C728 1.390 . S
C733 C732 1.387 1_565 S
H734 C746 0.930 . S
H735 C748 0.927 1_554 S
H736 C749 0.930 1_554 S
H737 C753 0.959 . S
H738 C753 0.959 . S
H739 C753 0.961 . S
H740 C754 0.960 . S
H741 C754 0.961 . S
H742 C754 0.959 . S
H743 C757 0.929 1_554 S
H744 C758 0.931 . S
H745 C760 0.930 . S
C746 H734 0.930 . S
C746 C747 1.399 . S
C746 C751 1.399 . S
C747 C746 1.399 . S
C747 C748 1.376 . S
C748 H735 0.927 1_556 S
C748 C747 1.376 . S
C748 C749 1.388 . S
C749 H736 0.930 1_556 S
C749 C748 1.388 . S
C749 C750 1.390 . S
C750 C749 1.390 . S
C750 C751 1.394 . S
C750 C756 1.465 . S
C751 C746 1.399 . S
C751 C750 1.394 . S
C751 C752 1.516 . S
C752 C751 1.516 . S
C752 C753 1.502 . S
C752 C754 1.561 . S
C752 C755 1.526 . S
C753 H737 0.959 . S
C753 H738 0.959 . S
C753 H739 0.961 . S
C753 C752 1.502 . S
C754 H740 0.960 . S
C754 H741 0.961 . S
C754 H742 0.959 . S
C754 C752 1.561 . S
C755 C752 1.526 . S
C755 C756 1.396 . S
C755 C760 1.390 . S
C756 C750 1.465 . S
C756 C755 1.396 . S
C756 C757 1.399 . S
C757 H743 0.929 1_556 S
C757 C756 1.399 . S
C757 C758 1.385 . S
C758 H744 0.931 . S
C758 C757 1.385 . S
C758 C759 1.389 . S
C759 C758 1.389 . S
C759 C760 1.387 . S
C760 H745 0.930 . S
C760 C755 1.390 . S
C760 C759 1.387 . S
H761 C773 0.930 . S
H762 C775 0.930 . S
H763 C776 0.930 . S
H764 C780 0.959 1_556 S
H765 C780 0.959 . S
H766 C780 0.961 . S
H767 C781 0.960 . S
H768 C781 0.961 . S
H769 C781 0.959 1_556 S
H770 C784 0.929 . S
H771 C785 0.931 . S
H772 C787 0.930 . S
C773 H761 0.930 . S
C773 C774 1.399 . S
C773 C778 1.399 . S
C774 C773 1.399 . S
C774 C775 1.376 . S
C775 H762 0.930 . S
C775 C774 1.376 . S
C775 C776 1.388 . S
C776 H763 0.930 . S
C776 C775 1.388 . S
C776 C777 1.390 . S
C777 C776 1.390 . S
C777 C778 1.394 . S
C777 C783 1.465 . S
C778 C773 1.399 . S
C778 C777 1.394 . S
C778 C779 1.516 . S
C779 C778 1.516 . S
C779 C780 1.502 1_556 S
C779 C781 1.561 1_556 S
C779 C782 1.526 . S
C780 H764 0.959 1_554 S
C780 H765 0.959 . S
C780 H766 0.961 . S
C780 C779 1.502 1_554 S
C781 H767 0.960 . S
C781 H768 0.961 . S
C781 H769 0.959 1_554 S
C781 C779 1.561 1_554 S
C782 C779 1.526 . S
C782 C783 1.396 . S
C782 C787 1.390 . S
C783 C777 1.465 . S
C783 C782 1.396 . S
C783 C784 1.399 . S
C784 H770 0.929 . S
C784 C783 1.399 . S
C784 C785 1.385 . S
C785 H771 0.931 . S
C785 C784 1.385 . S
C785 C786 1.389 . S
C786 C785 1.389 . S
C786 C787 1.387 . S
C787 H772 0.930 . S
C787 C782 1.390 . S
C787 C786 1.387 . S
H788 C800 0.930 . S
H789 C802 0.930 . S
H790 C803 0.930 . S
H791 C807 0.959 . S
H792 C807 0.959 . S
H793 C807 0.961 . S
H794 C808 0.960 . S
H795 C808 0.961 . S
H796 C808 0.959 . S
H797 C811 0.929 . S
H798 C812 0.927 1_455 S
H799 C814 0.930 . S
C800 H788 0.930 . S
C800 C801 1.400 . S
C800 C805 1.399 . S
C801 C800 1.400 . S
C801 C802 1.375 1_655 S
C802 H789 0.930 . S
C802 C801 1.375 1_455 S
C802 C803 1.388 . S
C803 H790 0.930 . S
C803 C802 1.388 . S
C803 C804 1.390 . S
C804 C803 1.390 . S
C804 C805 1.394 1_455 S
C804 C810 1.462 1_455 S
C805 C800 1.399 . S
C805 C804 1.394 1_655 S
C805 C806 1.516 . S
C806 C805 1.516 . S
C806 C807 1.502 . S
C806 C808 1.561 1_655 S
C806 C809 1.526 . S
C807 H791 0.959 . S
C807 H792 0.959 . S
C807 H793 0.961 . S
C807 C806 1.502 . S
C808 H794 0.960 . S
C808 H795 0.961 . S
C808 H796 0.959 . S
C808 C806 1.561 1_455 S
C809 C806 1.526 . S
C809 C810 1.412 . S
C809 C814 1.390 . S
C810 C804 1.462 1_655 S
C810 C809 1.412 . S
C810 C811 1.391 1_655 S
C811 H797 0.929 . S
C811 C810 1.391 1_455 S
C811 C812 1.381 1_455 S
C812 H798 0.927 1_655 S
C812 C811 1.381 1_655 S
C812 C813 1.397 . S
C813 C812 1.397 . S
C813 C814 1.387 . S
C814 H799 0.930 . S
C814 C809 1.390 . S
C814 C813 1.387 . S
H815 C827 0.930 . S
H816 C829 0.930 . S
H817 C830 0.930 . S
H818 C834 0.959 . S
H819 C834 0.959 . S
H820 C834 0.961 . S
H821 C835 0.960 . S
H822 C835 0.961 . S
H823 C835 0.959 . S
H824 C838 0.929 . S
H825 C839 0.931 . S
H826 C841 0.930 . S
C827 H815 0.930 . S
C827 C828 1.396 . S
C827 C832 1.399 . S
C828 C827 1.396 . S
C828 C829 1.380 1_565 S
C829 H816 0.930 . S
C829 C828 1.380 1_545 S
C829 C830 1.388 . S
C830 H817 0.930 . S
C830 C829 1.388 . S
C830 C831 1.390 . S
C831 C830 1.390 . S
C831 C832 1.394 1_545 S
C831 C837 1.465 . S
C832 C827 1.399 . S
C832 C831 1.394 1_565 S
C832 C833 1.516 . S
C833 C832 1.516 . S
C833 C834 1.502 . S
C833 C835 1.561 . S
C833 C836 1.526 . S
C834 H818 0.959 . S
C834 H819 0.959 . S
C834 H820 0.961 . S
C834 C833 1.502 . S
C835 H821 0.960 . S
C835 H822 0.961 . S
C835 H823 0.959 . S
C835 C833 1.561 . S
C836 C833 1.526 . S
C836 C837 1.396 1_565 S
C836 C841 1.390 . S
C837 C831 1.465 . S
C837 C836 1.396 1_545 S
C837 C838 1.399 . S
C838 H824 0.929 . S
C838 C837 1.399 . S
C838 C839 1.385 . S
C839 H825 0.931 . S
C839 C838 1.385 . S
C839 C840 1.389 1_545 S
C840 C839 1.389 1_565 S
C840 C841 1.387 . S
C841 H826 0.930 . S
C841 C836 1.390 . S
C841 C840 1.387 . S
H842 C854 0.930 . S
H843 C856 0.930 . S
H844 C857 0.930 . S
H845 C861 0.959 . S
H846 C861 0.959 . S
H847 C861 0.961 . S
H848 C862 0.960 . S
H849 C862 0.961 . S
H850 C862 0.959 . S
H851 C865 0.929 . S
H852 C866 0.931 . S
H853 C868 0.930 . S
C854 H842 0.930 . S
C854 C855 1.399 . S
C854 C859 1.399 . S
C855 C854 1.399 . S
C855 C856 1.376 . S
C856 H843 0.930 . S
C856 C855 1.376 . S
C856 C857 1.388 . S
C857 H844 0.930 . S
C857 C856 1.388 . S
C857 C858 1.390 . S
C858 C857 1.390 . S
C858 C859 1.394 . S
C858 C864 1.465 . S
C859 C854 1.399 . S
C859 C858 1.394 . S
C859 C860 1.516 . S
C860 C859 1.516 . S
C860 C861 1.502 . S
C860 C862 1.561 . S
C860 C863 1.526 . S
C861 H845 0.959 . S
C861 H846 0.959 . S
C861 H847 0.961 . S
C861 C860 1.502 . S
C862 H848 0.960 . S
C862 H849 0.961 . S
C862 H850 0.959 . S
C862 C860 1.561 . S
C863 C860 1.526 . S
C863 C864 1.396 . S
C863 C868 1.390 . S
C864 C858 1.465 . S
C864 C863 1.396 . S
C864 C865 1.399 . S
C865 H851 0.929 . S
C865 C864 1.399 . S
C865 C866 1.385 . S
C866 H852 0.931 . S
C866 C865 1.385 . S
C866 C867 1.389 . S
C867 C866 1.389 . S
C867 C868 1.387 . S
C868 H853 0.930 . S
C868 C863 1.390 . S
C868 C867 1.387 . S
H869 C881 0.930 . S
H870 C883 0.930 . S
H871 C884 0.930 . S
H872 C888 0.959 . S
H873 C888 0.959 . S
H874 C888 0.961 . S
H875 C889 0.960 . S
H876 C889 0.961 . S
H877 C889 0.959 . S
H878 C892 0.929 . S
H879 C893 0.931 . S
H880 C895 0.930 . S
C881 H869 0.930 . S
C881 C882 1.399 . S
C881 C886 1.399 . S
C882 C881 1.399 . S
C882 C883 1.376 . S
C883 H870 0.930 . S
C883 C882 1.376 . S
C883 C884 1.388 . S
C884 H871 0.930 . S
C884 C883 1.388 . S
C884 C885 1.390 . S
C885 C884 1.390 . S
C885 C886 1.394 . S
C885 C891 1.465 . S
C886 C881 1.399 . S
C886 C885 1.394 . S
C886 C887 1.516 . S
C887 C886 1.516 . S
C887 C888 1.502 . S
C887 C889 1.561 . S
C887 C890 1.526 . S
C888 H872 0.959 . S
C888 H873 0.959 . S
C888 H874 0.961 . S
C888 C887 1.502 . S
C889 H875 0.960 . S
C889 H876 0.961 . S
C889 H877 0.959 . S
C889 C887 1.561 . S
C890 C887 1.526 . S
C890 C891 1.396 . S
C890 C895 1.390 . S
C891 C885 1.465 . S
C891 C890 1.396 . S
C891 C892 1.399 . S
C892 H878 0.929 . S
C892 C891 1.399 . S
C892 C893 1.385 . S
C893 H879 0.931 . S
C893 C892 1.385 . S
C893 C894 1.389 . S
C894 C893 1.389 . S
C894 C895 1.387 . S
C895 H880 0.930 . S
C895 C890 1.390 . S
C895 C894 1.387 . S
C261 C76 1.845 . S
C273 C98 1.940 . S
C300 C138 1.958 . S
C288 C87 1.861 . S
C327 C178 1.950 . S
C315 C54 1.855 . S
C354 C218 1.957 1_455 S
C342 C65 1.858 1_455 S
C381 C107 1.941 . S
C369 C32 1.792 1_545 S
C396 C43 1.784 . S
C408 C147 1.950 . S
C423 C10 1.867 . S
C435 C187 1.966 . S
C450 C21 1.790 . S
C462 C227 1.954 1_655 S
C489 C104 0.606 . S
C477 C60 0.468 1_655 S
C516 C144 0.475 . S
C504 C71 0.479 . S
C543 C184 0.441 . S
C531 C82 0.597 . S
C558 C49 0.557 . S
C570 C224 0.425 . S
C585 C16 0.529 1_655 S
C597 C95 0.483 . S
C624 C135 0.594 . S
C612 C27 0.429 1_565 S
C651 C175 0.559 . S
C639 C38 0.576 . S
C666 C5 0.430 . S
C678 C215 0.594 . S
C693 C59 2.057 1_655 S
C705 C99 2.257 . S
C720 C70 2.050 . S
C732 C139 2.276 . S
C759 C179 2.265 . S
C747 C81 1.970 . S
C786 C219 2.262 . S
C774 C48 2.055 . S
C801 C15 1.992 1_655 S
C813 C90 2.271 . S
C840 C130 2.244 . S
C828 C26 2.050 1_565 S
C867 C170 2.249 . S
C855 C37 1.971 . S
C882 C4 1.976 . S
C894 C210 2.272 . S
