# Generated by pormake.
# Topology rtl, (3,6)-cn, num edge types: 1
# Building blocks:
#     Node 0, Type 0, BuildingBlock: BETDAH_clean_linker_0, # of connection points: 3
#     Node 1, Type 0, BuildingBlock: BETDAH_clean_linker_0, # of connection points: 3
#     Node 2, Type 0, BuildingBlock: BETDAH_clean_linker_0, # of connection points: 3
#     Node 3, Type 0, BuildingBlock: BETDAH_clean_linker_0, # of connection points: 3
#     Node 4, Type 1, BuildingBlock: FUNLAD_clean_sbu_0, # of connection points: 6
#     Node 5, Type 1, BuildingBlock: FUNLAD_clean_sbu_0, # of connection points: 6
#     Edge 6, Type (0, 1), BuildingBlock: MIFKUJ_clean_linker_0, # of connection points: 2
#     Edge 7, Type (0, 1), BuildingBlock: MIFKUJ_clean_linker_0, # of connection points: 2
#     Edge 8, Type (0, 1), BuildingBlock: MIFKUJ_clean_linker_0, # of connection points: 2
#     Edge 9, Type (0, 1), BuildingBlock: MIFKUJ_clean_linker_0, # of connection points: 2
#     Edge 10, Type (0, 1), BuildingBlock: MIFKUJ_clean_linker_0, # of connection points: 2
#     Edge 11, Type (0, 1), BuildingBlock: MIFKUJ_clean_linker_0, # of connection points: 2
#     Edge 12, Type (0, 1), BuildingBlock: MIFKUJ_clean_linker_0, # of connection points: 2
#     Edge 13, Type (0, 1), BuildingBlock: MIFKUJ_clean_linker_0, # of connection points: 2
#     Edge 14, Type (0, 1), BuildingBlock: MIFKUJ_clean_linker_0, # of connection points: 2
#     Edge 15, Type (0, 1), BuildingBlock: MIFKUJ_clean_linker_0, # of connection points: 2
#     Edge 16, Type (0, 1), BuildingBlock: MIFKUJ_clean_linker_0, # of connection points: 2
#     Edge 17, Type (0, 1), BuildingBlock: MIFKUJ_clean_linker_0, # of connection points: 2
# Relax obj value: 0.002
# Max RMSD: 0.051
# Mean RMSD: 0.035
data_MOF--net-rtl--node1-FUNLAD_clean_sbu_0--node2-BETDAH_clean_linker_0--edge1-MIFKUJ_clean_linker_0
_symmetry_space_group_name_H-M    P1
_symmetry_Int_Tables_number       1
_symmetry_cell_setting            triclinic
loop_
_symmetry_equiv_pos_as_xyz
'x, y, z'
_cell_length_a     51.013573
_cell_length_b     50.953647
_cell_length_c     27.477862
_cell_angle_alpha  91.003822
_cell_angle_beta   92.050609
_cell_angle_gamma 89.994988
loop_
_atom_site_label
_atom_site_type_symbol
_atom_site_fract_x
_atom_site_fract_y
_atom_site_fract_z
_atom_type_partial_charge
H0 H 0.14206 0.87057 0.99747 0.0
H1 H 0.18787 0.80671 0.0562 0.0
H2 H 0.17587 0.81373 0.90108 0.0
C3 C 0.154 0.85323 0.99196 0.0
C4 C 0.15795 0.84394 0.94455 0.0
C5 C 0.16484 0.84005 0.03239 0.0
C6 C 0.17989 0.81723 0.02511 0.0
C7 C 0.18406 0.80789 0.97741 0.0
C8 C 0.17301 0.8213 0.93764 0.0
N9 N 0.19811 0.78449 0.96749 0.0
C10 C 0.21646 0.77271 0.99864 0.0
H11 H 0.63037 0.64957 0.56604 0.0
H12 H 0.69139 0.69664 0.5069 0.0
H13 H 0.68889 0.68538 0.66155 0.0
C14 C 0.64737 0.66222 0.57134 0.0
C15 C 0.65794 0.66647 0.61854 0.0
C16 C 0.65927 0.67292 0.53075 0.0
C17 C 0.68205 0.68839 0.53793 0.0
C18 C 0.6926 0.69301 0.58545 0.0
C19 C 0.68059 0.68183 0.62516 0.0
N20 N 0.7154 0.70842 0.59545 0.0
C21 C 0.72907 0.72277 0.56208 0.0
H22 H 0.8601 0.13608 0.9854 0.0
H23 H 0.82056 0.20308 0.04637 0.0
H24 H 0.83349 0.1983 0.8926 0.0
C25 C 0.84974 0.1545 0.98059 0.0
C26 C 0.84757 0.16532 0.93411 0.0
C27 C 0.84033 0.16806 0.02139 0.0
C28 C 0.8277 0.19243 0.01506 0.0
C29 C 0.82497 0.20315 0.96823 0.0
C30 C 0.83529 0.18972 0.92839 0.0
N31 N 0.81295 0.22782 0.95947 0.0
C32 C 0.7963 0.24102 0.99046 0.0
H33 H 0.37164 0.35952 0.53433 0.0
H34 H 0.30792 0.33763 0.62344 0.0
H35 H 0.30273 0.32262 0.46893 0.0
C36 C 0.35274 0.35016 0.5381 0.0
C37 C 0.33874 0.34084 0.49634 0.0
C38 C 0.34179 0.34927 0.58411 0.0
C39 C 0.31671 0.33842 0.58816 0.0
C40 C 0.30287 0.32811 0.54724 0.0
C41 C 0.3138 0.32952 0.50104 0.0
N42 N 0.27736 0.31803 0.55379 0.0
C43 C 0.26613 0.29723 0.52713 0.0
C44 C 0.02814 0.97547 0.40224 0.0
N45 N 0.04531 0.04716 0.4745 0.0
C46 C 0.07111 0.04036 0.47389 0.0
C47 C 0.09053 0.05969 0.47307 0.0
C48 C 0.0834 0.08633 0.47271 0.0
C49 C 0.05662 0.09276 0.47361 0.0
C50 C 0.03785 0.07281 0.47454 0.0
Zn51 Zn 0.01709 0.01837 0.47388 0.0
C52 C 0.97293 0.02997 0.40293 0.0
N53 N 0.95786 0.95847 0.47136 0.0
C54 C 0.96531 0.93289 0.46789 0.0
C55 C 0.93215 0.96511 0.47496 0.0
C56 C 0.91285 0.94565 0.47593 0.0
C57 C 0.91994 0.91901 0.47261 0.0
C58 C 0.94664 0.91283 0.46808 0.0
Zn59 Zn 0.98606 0.98733 0.47222 0.0
O60 O 0.03673 0.99751 0.41836 0.0
C61 C 0.02963 0.97618 0.5443 0.0
O62 O 0.00695 0.96644 0.4183 0.0
H63 H 0.92659 0.98555 0.47762 0.0
H64 H 0.07665 0.01987 0.47368 0.0
H65 H 0.98583 0.92796 0.46517 0.0
O66 O 0.03893 0.99722 0.5276 0.0
O67 O 0.00762 0.9676 0.5277 0.0
H68 H 0.01727 0.07784 0.47516 0.0
O69 O 0.96615 0.00855 0.52662 0.0
O70 O 0.997 0.03864 0.5296 0.0
O71 O 0.96465 0.00792 0.41704 0.0
O72 O 0.99455 0.03896 0.42064 0.0
C73 C 0.97552 0.02981 0.54483 0.0
H74 H 0.1109 0.0538 0.4719 0.0
H75 H 0.05021 0.11302 0.4741 0.0
H76 H 0.89266 0.95151 0.48025 0.0
H77 H 0.95315 0.89269 0.46452 0.0
C78 C 0.47824 0.47526 0.99215 0.0
N79 N 0.54954 0.45981 0.0689 0.0
C80 C 0.5433 0.43391 0.0639 0.0
C81 C 0.56301 0.41483 0.0641 0.0
C82 C 0.58948 0.42239 0.06986 0.0
C83 C 0.59526 0.44929 0.07535 0.0
C84 C 0.57497 0.46771 0.07453 0.0
Zn85 Zn 0.52031 0.48756 0.06793 0.0
C86 C 0.53092 0.53063 0.9995 0.0
N87 N 0.45925 0.54545 0.06563 0.0
C88 C 0.43356 0.53825 0.06162 0.0
C89 C 0.46627 0.57119 0.06937 0.0
C90 C 0.44717 0.59083 0.06934 0.0
C91 C 0.42046 0.58406 0.06492 0.0
C92 C 0.4138 0.55729 0.06102 0.0
Zn93 Zn 0.48821 0.51742 0.06642 0.0
O94 O 0.50025 0.46718 0.00922 0.0
C95 C 0.4773 0.47397 0.13406 0.0
O96 O 0.46826 0.49601 0.00995 0.0
H97 H 0.48678 0.57656 0.07251 0.0
H98 H 0.52298 0.42802 0.05948 0.0
H99 H 0.42837 0.51769 0.05867 0.0
O100 O 0.49917 0.46582 0.11886 0.0
O101 O 0.46804 0.49561 0.1187 0.0
H102 H 0.57956 0.48837 0.07846 0.0
O103 O 0.50896 0.53858 0.12286 0.0
O104 O 0.5398 0.5086 0.12609 0.0
O105 O 0.5087 0.53839 0.0136 0.0
O106 O 0.54086 0.50977 0.01696 0.0
C107 C 0.53052 0.53026 0.14137 0.0
H108 H 0.55753 0.39442 0.05902 0.0
H109 H 0.61527 0.45612 0.08068 0.0
H110 H 0.45334 0.61111 0.07324 0.0
H111 H 0.39355 0.55106 0.0568 0.0
H112 H 0.27243 0.24744 0.55525 0.0
H113 H 0.24312 0.21045 0.53503 0.0
H114 H 0.19736 0.25967 0.43795 0.0
H115 H 0.22654 0.29685 0.45917 0.0
H116 H 0.16665 0.2356 0.4978 0.0
H117 H 0.23524 0.20772 0.39502 0.0
H118 H 0.28052 0.19675 0.37366 0.0
H119 H 0.28279 0.13568 0.47942 0.0
H120 H 0.23763 0.1465 0.50191 0.0
H121 H 0.08194 0.13144 0.4198 0.0
H122 H 0.11467 0.16647 0.41971 0.0
H123 H 0.16357 0.1238 0.52227 0.0
H124 H 0.1309 0.08867 0.5226 0.0
H125 H 0.19253 0.14482 0.45241 0.0
H126 H 0.12579 0.17509 0.55954 0.0
H127 H 0.08068 0.18607 0.58209 0.0
H128 H 0.07541 0.2429 0.4686 0.0
H129 H 0.12039 0.23199 0.44494 0.0
C130 C 0.25649 0.25006 0.52864 0.0
C131 C 0.25175 0.27469 0.50822 0.0
C132 C 0.23977 0.22895 0.51702 0.0
C133 C 0.2181 0.23214 0.48458 0.0
C134 C 0.21396 0.25669 0.46293 0.0
C135 C 0.23068 0.27784 0.47473 0.0
C136 C 0.19857 0.21062 0.47685 0.0
C137 C 0.17226 0.21588 0.48684 0.0
C138 C 0.20593 0.18468 0.46392 0.0
C139 C 0.23309 0.17807 0.45041 0.0
C140 C 0.24545 0.19208 0.41399 0.0
C141 C 0.27109 0.18586 0.40163 0.0
C142 C 0.28454 0.16557 0.42524 0.0
C143 C 0.27235 0.1514 0.46119 0.0
C144 C 0.24672 0.15755 0.47371 0.0
C145 C 0.09959 0.12956 0.44257 0.0
C146 C 0.10369 0.10731 0.4715 0.0
C147 C 0.11833 0.14958 0.44235 0.0
C148 C 0.14147 0.14793 0.47141 0.0
C149 C 0.1459 0.12549 0.49948 0.0
C150 C 0.1272 0.10541 0.49959 0.0
C151 C 0.16074 0.16987 0.47356 0.0
C152 C 0.18695 0.16464 0.46275 0.0
C153 C 0.15334 0.19586 0.48583 0.0
C154 C 0.12634 0.20252 0.50014 0.0
C155 C 0.11494 0.18978 0.53916 0.0
C156 C 0.08941 0.19602 0.55218 0.0
C157 C 0.07516 0.21512 0.5267 0.0
C158 C 0.08645 0.22808 0.48824 0.0
C159 C 0.11197 0.22189 0.47503 0.0
H160 H 0.0554 0.21992 0.53684 0.0
H161 H 0.30439 0.16079 0.41562 0.0
H162 H 0.26792 0.78246 0.99357 0.0
H163 H 0.30373 0.75212 0.01464 0.0
H164 H 0.24799 0.69792 0.07139 0.0
H165 H 0.21211 0.7284 0.05031 0.0
H166 H 0.29659 0.70002 0.1261 0.0
H167 H 0.26454 0.6891 0.95954 0.0
H168 H 0.25241 0.7044 0.87711 0.0
H169 H 0.33131 0.73101 0.85929 0.0
H170 H 0.3438 0.71619 0.94195 0.0
H171 H 0.37173 0.58285 0.10473 0.0
H172 H 0.33766 0.61647 0.10093 0.0
H173 H 0.38858 0.66643 0.02134 0.0
H174 H 0.42212 0.63237 0.02245 0.0
H175 H 0.3422 0.66711 0.98064 0.0
H176 H 0.37536 0.67713 0.14521 0.0
H177 H 0.38804 0.66279 0.228 0.0
H178 H 0.3087 0.63906 0.25069 0.0
H179 H 0.29561 0.65294 0.16774 0.0
C180 C 0.2635 0.76442 0.01192 0.0
C181 C 0.2375 0.75768 0.02078 0.0
C182 C 0.28388 0.74706 0.02366 0.0
C183 C 0.27847 0.72264 0.04404 0.0
C184 C 0.25258 0.71667 0.05577 0.0
C185 C 0.23215 0.73405 0.04385 0.0
C186 C 0.29931 0.70239 0.04835 0.0
C187 C 0.30644 0.6926 0.09434 0.0
C188 C 0.31244 0.69309 0.00695 0.0
C189 C 0.30503 0.70178 0.95709 0.0
C190 C 0.27924 0.69839 0.93818 0.0
C191 C 0.27232 0.70695 0.8914 0.0
C192 C 0.29106 0.71873 0.86303 0.0
C193 C 0.3168 0.72191 0.88133 0.0
C194 C 0.32382 0.71343 0.92813 0.0
C195 C 0.37564 0.60087 0.08598 0.0
C196 C 0.39979 0.60481 0.06394 0.0
C197 C 0.35622 0.62028 0.08446 0.0
C198 C 0.36064 0.64422 0.06151 0.0
C199 C 0.38471 0.6482 0.03951 0.0
C200 C 0.40402 0.62874 0.04061 0.0
C201 C 0.33988 0.66476 0.05861 0.0
C202 C 0.33259 0.67455 0.01265 0.0
C203 C 0.32678 0.67413 0.10014 0.0
C204 C 0.33457 0.66584 0.15008 0.0
C205 C 0.36066 0.66867 0.16771 0.0
C206 C 0.36791 0.66066 0.21469 0.0
C207 C 0.3492 0.64996 0.24454 0.0
C208 C 0.32318 0.64732 0.2275 0.0
C209 C 0.31583 0.65528 0.18053 0.0
H210 H 0.35486 0.64377 0.2809 0.0
H211 H 0.28566 0.72535 0.82682 0.0
H212 H 0.78088 0.71603 0.55661 0.0
H213 H 0.81269 0.74869 0.53125 0.0
H214 H 0.74933 0.80069 0.48973 0.0
H215 H 0.7174 0.7679 0.51539 0.0
H216 H 0.79387 0.80082 0.42533 0.0
H217 H 0.77445 0.81024 0.59548 0.0
H218 H 0.76936 0.79414 0.67873 0.0
H219 H 0.85015 0.77039 0.68537 0.0
H220 H 0.85561 0.78599 0.60181 0.0
H221 H 0.86887 0.9191 0.43617 0.0
H222 H 0.83561 0.88517 0.44377 0.0
H223 H 0.89225 0.83628 0.51931 0.0
H224 H 0.92503 0.87076 0.51501 0.0
H225 H 0.8494 0.83493 0.56434 0.0
H226 H 0.87004 0.82525 0.39596 0.0
H227 H 0.87597 0.83977 0.31191 0.0
H228 H 0.79491 0.86229 0.30017 0.0
H229 H 0.78857 0.84821 0.38441 0.0
C230 C 0.77379 0.73413 0.5407 0.0
C231 C 0.74688 0.73956 0.53748 0.0
C232 C 0.79192 0.75278 0.52646 0.0
C233 C 0.78336 0.77719 0.50904 0.0
C234 C 0.75632 0.78195 0.50294 0.0
C235 C 0.73814 0.76327 0.51748 0.0
C236 C 0.80262 0.79851 0.50229 0.0
C237 C 0.80585 0.80855 0.45569 0.0
C238 C 0.81854 0.80819 0.54182 0.0
C239 C 0.81537 0.79905 0.59224 0.0
C240 C 0.79107 0.80139 0.61455 0.0
C241 C 0.78813 0.79239 0.66181 0.0
C242 C 0.8094 0.78119 0.68728 0.0
C243 C 0.83368 0.77904 0.66558 0.0
C244 C 0.83672 0.78798 0.61829 0.0
C245 C 0.87425 0.90126 0.45486 0.0
C246 C 0.8998 0.89782 0.47496 0.0
C247 C 0.85524 0.88165 0.45851 0.0
C248 C 0.86144 0.85791 0.48148 0.0
C249 C 0.88694 0.85434 0.50122 0.0
C250 C 0.90583 0.87405 0.4982 0.0
C251 C 0.84119 0.83718 0.487 0.0
C252 C 0.8376 0.82728 0.53367 0.0
C253 C 0.82517 0.82752 0.44736 0.0
C254 C 0.8289 0.83592 0.39666 0.0
C255 C 0.85353 0.83348 0.37558 0.0
C256 C 0.85695 0.8416 0.32788 0.0
C257 C 0.83585 0.85201 0.30076 0.0
C258 C 0.81125 0.85425 0.32124 0.0
C259 C 0.80772 0.84619 0.36894 0.0
H260 H 0.83854 0.85829 0.26385 0.0
H261 H 0.80708 0.77423 0.72386 0.0
H262 H 0.75474 0.22674 0.04294 0.0
H263 H 0.71946 0.25589 0.07012 0.0
H264 H 0.76 0.32234 0.01273 0.0
H265 H 0.79534 0.29334 0.98698 0.0
H266 H 0.73829 0.33647 0.09418 0.0
H267 H 0.70972 0.28923 0.9476 0.0
H268 H 0.69976 0.24972 0.89715 0.0
H269 H 0.64345 0.22519 0.99959 0.0
H270 H 0.65334 0.26442 0.05097 0.0
H271 H 0.63794 0.42651 0.03035 0.0
H272 H 0.67306 0.39403 0.03012 0.0
H273 H 0.62479 0.34014 0.10651 0.0
H274 H 0.58969 0.37285 0.10832 0.0
H275 H 0.64868 0.31709 0.02689 0.0
H276 H 0.67394 0.36899 0.16736 0.0
H277 H 0.68365 0.40991 0.21375 0.0
H278 H 0.74618 0.42711 0.11876 0.0
H279 H 0.7366 0.38647 0.07131 0.0
C280 C 0.75625 0.24767 0.03733 0.0
C281 C 0.77759 0.25801 0.0133 0.0
C282 C 0.73606 0.26427 0.05241 0.0
C283 C 0.73684 0.29131 0.04279 0.0
C284 C 0.75891 0.30162 0.02065 0.0
C285 C 0.77908 0.28509 0.00595 0.0
C286 C 0.71419 0.30878 0.05276 0.0
C287 C 0.71873 0.33226 0.07928 0.0
C288 C 0.68847 0.30312 0.03424 0.0
C289 C 0.6825 0.27956 0.0034 0.0
C290 C 0.69537 0.2753 0.95954 0.0
C291 C 0.68971 0.25298 0.93075 0.0
C292 C 0.67105 0.23491 0.94524 0.0
C293 C 0.65794 0.23917 0.98848 0.0
C294 C 0.66356 0.26144 0.01743 0.0
C295 C 0.63484 0.40795 0.04788 0.0
C296 C 0.61092 0.40245 0.0696 0.0
C297 C 0.65496 0.38934 0.04752 0.0
C298 C 0.65163 0.36476 0.06872 0.0
C299 C 0.62775 0.35901 0.08997 0.0
C300 C 0.60766 0.37771 0.0907 0.0
C301 C 0.67296 0.34494 0.0674 0.0
C302 C 0.66815 0.32108 0.04246 0.0
C303 C 0.69847 0.35038 0.08692 0.0
C304 C 0.70442 0.37476 0.11556 0.0
C305 C 0.68964 0.38159 0.15613 0.0
C306 C 0.69514 0.40472 0.18266 0.0
C307 C 0.71549 0.42112 0.16916 0.0
C308 C 0.73042 0.41439 0.12916 0.0
C309 C 0.72498 0.39129 0.10247 0.0
H310 H 0.71971 0.43902 0.18974 0.0
H311 H 0.66669 0.21765 0.9229 0.0
H312 H 0.13984 0.81383 0.10282 0.0
H313 H 0.12014 0.83338 0.17526 0.0
H314 H 0.15501 0.90802 0.14379 0.0
H315 H 0.17444 0.88861 0.07127 0.0
H316 H 0.15363 0.89711 0.24591 0.0
H317 H 0.09714 0.89724 0.10006 0.0
H318 H 0.07405 0.87582 0.0297 0.0
H319 H 0.03151 0.82748 0.12617 0.0
H320 H 0.05477 0.84829 0.19711 0.0
H321 H 0.07072 0.99116 0.35238 0.0
H322 H 0.09677 0.96491 0.29673 0.0
H323 H 0.04677 0.89809 0.31809 0.0
H324 H 0.02014 0.92447 0.37266 0.0
H325 H 0.05662 0.90121 0.22622 0.0
H326 H 0.10951 0.90357 0.37299 0.0
H327 H 0.13294 0.92402 0.44397 0.0
H328 H 0.18223 0.96617 0.34883 0.0
H329 H 0.15884 0.94626 0.27723 0.0
C330 C 0.14398 0.83416 0.11241 0.0
C331 C 0.15856 0.84978 0.08164 0.0
C332 C 0.13264 0.84533 0.15354 0.0
C333 C 0.13592 0.8722 0.16452 0.0
C334 C 0.15227 0.88726 0.13598 0.0
C335 C 0.16331 0.8762 0.09462 0.0
C336 C 0.11988 0.88542 0.20162 0.0
C337 C 0.13243 0.89813 0.24167 0.0
C338 C 0.0922 0.8863 0.19639 0.0
C339 C 0.0779 0.87409 0.15383 0.0
C340 C 0.08302 0.88189 0.10624 0.0
C341 C 0.06988 0.86988 0.06626 0.0
C342 C 0.05136 0.85025 0.07346 0.0
C343 C 0.04589 0.84265 0.12066 0.0
C344 C 0.05905 0.85454 0.16076 0.0
C345 C 0.0652 0.9709 0.34512 0.0
C346 C 0.04336 0.95991 0.36701 0.0
C347 C 0.08025 0.95583 0.31357 0.0
C348 C 0.07408 0.92933 0.30389 0.0
C349 C 0.05202 0.91844 0.32511 0.0
C350 C 0.03679 0.93357 0.35629 0.0
C351 C 0.0903 0.91315 0.27084 0.0
C352 C 0.07777 0.89995 0.2312 0.0
C353 C 0.118 0.91171 0.27675 0.0
C354 C 0.13227 0.92357 0.31972 0.0
C355 C 0.12523 0.91733 0.36719 0.0
C356 C 0.13852 0.92881 0.40754 0.0
C357 C 0.15902 0.94642 0.40091 0.0
C358 C 0.16633 0.95254 0.35391 0.0
C359 C 0.15308 0.94113 0.31342 0.0
H360 H 0.16928 0.9553 0.43219 0.0
H361 H 0.04121 0.84098 0.04247 0.0
H362 H 0.68205 0.63892 0.69181 0.0
H363 H 0.66139 0.61693 0.75925 0.0
H364 H 0.58554 0.64419 0.70748 0.0
H365 H 0.60608 0.66618 0.63989 0.0
H366 H 0.59539 0.65002 0.81092 0.0
H367 H 0.60102 0.58462 0.68166 0.0
H368 H 0.62454 0.55825 0.62103 0.0
H369 H 0.67368 0.52578 0.73485 0.0
H370 H 0.65079 0.5523 0.79614 0.0
H371 H 0.51115 0.56896 0.94047 0.0
H372 H 0.53385 0.59279 0.87821 0.0
H373 H 0.60508 0.55041 0.91359 0.0
H374 H 0.58217 0.52578 0.97475 0.0
H375 H 0.59937 0.55292 0.82006 0.0
H376 H 0.59533 0.616 0.94969 0.0
H377 H 0.57454 0.64284 0.01309 0.0
H378 H 0.5262 0.68044 0.90383 0.0
H379 H 0.5464 0.65352 0.83978 0.0
C380 C 0.66101 0.64044 0.69515 0.0
C381 C 0.64564 0.6542 0.66063 0.0
C382 C 0.64924 0.62779 0.73348 0.0
C383 C 0.62195 0.62886 0.73811 0.0
C384 C 0.60664 0.64315 0.70446 0.0
C385 C 0.61835 0.65554 0.6658 0.0
C386 C 0.60927 0.61446 0.77727 0.0
C387 C 0.59597 0.62878 0.81275 0.0
C388 C 0.61081 0.58682 0.7803 0.0
C389 C 0.62436 0.57065 0.74346 0.0
C390 C 0.61698 0.57203 0.69374 0.0
C391 C 0.63018 0.55703 0.65925 0.0
C392 C 0.65061 0.54041 0.67406 0.0
C393 C 0.65787 0.53869 0.72342 0.0
C394 C 0.64479 0.55369 0.75805 0.0
C395 C 0.53168 0.56477 0.93513 0.0
C396 C 0.54489 0.54554 0.96264 0.0
C397 C 0.54469 0.57852 0.89965 0.0
C398 C 0.57134 0.57374 0.89166 0.0
C399 C 0.58455 0.55449 0.91907 0.0
C400 C 0.57144 0.54046 0.95411 0.0
C401 C 0.58524 0.58843 0.85399 0.0
C402 C 0.5988 0.57418 0.81862 0.0
C403 C 0.5843 0.61618 0.85156 0.0
C404 C 0.57223 0.63256 0.88995 0.0
C405 C 0.58014 0.62986 0.93919 0.0
C406 C 0.56848 0.64511 0.97525 0.0
C407 C 0.54904 0.6633 0.96251 0.0
C408 C 0.54125 0.66633 0.91365 0.0
C409 C 0.55281 0.65109 0.87744 0.0
H410 H 0.54003 0.67509 0.99048 0.0
H411 H 0.66079 0.52881 0.6473 0.0
H412 H 0.83091 0.11861 0.05279 0.0
H413 H 0.84919 0.09836 0.12664 0.0
H414 H 0.88263 0.17277 0.17338 0.0
H415 H 0.86431 0.19312 0.09936 0.0
H416 H 0.91912 0.13284 0.16889 0.0
H417 H 0.83525 0.14658 0.23752 0.0
H418 H 0.78704 0.14459 0.24025 0.0
H419 H 0.78981 0.06041 0.23193 0.0
H420 H 0.83803 0.0619 0.22843 0.0
H421 H 0.97785 0.08206 0.38388 0.0
H422 H 0.9515 0.10813 0.32681 0.0
H423 H 0.90638 0.03932 0.28414 0.0
H424 H 0.93205 0.01332 0.34284 0.0
H425 H 0.87483 0.07929 0.29063 0.0
H426 H 0.95664 0.06457 0.21352 0.0
H427 H 0.00474 0.06487 0.20714 0.0
H428 H 0.00566 0.14868 0.22639 0.0
H429 H 0.95758 0.14884 0.2335 0.0
C430 C 0.84157 0.13077 0.0795 0.0
C431 C 0.84623 0.15741 0.07044 0.0
C432 C 0.85196 0.11922 0.1217 0.0
C433 C 0.86729 0.13406 0.15551 0.0
C434 C 0.87081 0.16099 0.14777 0.0
C435 C 0.86018 0.17263 0.10574 0.0
C436 C 0.88193 0.12079 0.19573 0.0
C437 C 0.90943 0.12158 0.19618 0.0
C438 C 0.86928 0.10535 0.23016 0.0
C439 C 0.84027 0.10437 0.23231 0.0
C440 C 0.82558 0.12765 0.23585 0.0
C441 C 0.79824 0.12661 0.23762 0.0
C442 C 0.78537 0.10239 0.23616 0.0
C443 C 0.79981 0.07916 0.23303 0.0
C444 C 0.82715 0.08009 0.23121 0.0
C445 C 0.96236 0.07244 0.36225 0.0
C446 C 0.9572 0.04555 0.36751 0.0
C447 C 0.94732 0.08738 0.32952 0.0
C448 C 0.92721 0.07564 0.30042 0.0
C449 C 0.9218 0.04885 0.30609 0.0
C450 C 0.93657 0.03396 0.33946 0.0
C451 C 0.91207 0.09122 0.26368 0.0
C452 C 0.88452 0.09078 0.2637 0.0
C453 C 0.92465 0.10672 0.2291 0.0
C454 C 0.95355 0.10668 0.22454 0.0
C455 C 0.96713 0.08304 0.21672 0.0
C456 C 0.99438 0.08313 0.21293 0.0
C457 C 0.00826 0.10677 0.2165 0.0
C458 C 0.99489 0.13038 0.22371 0.0
C459 C 0.96764 0.1304 0.22759 0.0
H460 H 0.02936 0.1068 0.21356 0.0
H461 H 0.7642 0.10163 0.23755 0.0
H462 H 0.39358 0.34333 0.61113 0.0
H463 H 0.41732 0.36369 0.68114 0.0
H464 H 0.34611 0.40178 0.7244 0.0
H465 H 0.32233 0.3817 0.65429 0.0
H466 H 0.38905 0.4355 0.72435 0.0
H467 H 0.36769 0.35019 0.78532 0.0
H468 H 0.36676 0.30179 0.78355 0.0
H469 H 0.45095 0.29978 0.7867 0.0
H470 H 0.45237 0.3482 0.78778 0.0
H471 H 0.4277 0.48183 0.95862 0.0
H472 H 0.40527 0.45918 0.89013 0.0
H473 H 0.47526 0.41428 0.86401 0.0
H474 H 0.4976 0.4363 0.93368 0.0
H475 H 0.43424 0.38366 0.85346 0.0
H476 H 0.45688 0.46766 0.79299 0.0
H477 H 0.45938 0.51598 0.79226 0.0
H478 H 0.3753 0.52069 0.78431 0.0
H479 H 0.37229 0.47239 0.78569 0.0
C480 C 0.38301 0.35605 0.63559 0.0
C481 C 0.35607 0.36083 0.62738 0.0
C482 C 0.39654 0.36754 0.67566 0.0
C483 C 0.38341 0.3841 0.70808 0.0
C484 C 0.35657 0.389 0.69986 0.0
C485 C 0.34298 0.37736 0.66005 0.0
C486 C 0.39772 0.39672 0.75017 0.0
C487 C 0.39866 0.42421 0.75295 0.0
C488 C 0.41096 0.38191 0.78652 0.0
C489 C 0.41013 0.35281 0.78613 0.0
C490 C 0.386 0.33943 0.78522 0.0
C491 C 0.38538 0.31199 0.78443 0.0
C492 C 0.40878 0.29772 0.78488 0.0
C493 C 0.43284 0.31086 0.78628 0.0
C494 C 0.43356 0.3383 0.78703 0.0
C495 C 0.43833 0.4671 0.93837 0.0
C496 C 0.46449 0.46099 0.95138 0.0
C497 C 0.42551 0.45425 0.89903 0.0
C498 C 0.43872 0.43537 0.87124 0.0
C499 C 0.46468 0.42883 0.88477 0.0
C500 C 0.47744 0.44147 0.92454 0.0
C501 C 0.42541 0.42256 0.82803 0.0
C502 C 0.42469 0.39503 0.82491 0.0
C503 C 0.41263 0.43734 0.79096 0.0
C504 C 0.41436 0.4664 0.7899 0.0
C505 C 0.43892 0.479 0.79145 0.0
C506 C 0.44043 0.50639 0.79086 0.0
C507 C 0.41751 0.5214 0.78836 0.0
C508 C 0.39304 0.50904 0.78631 0.0
C509 C 0.39142 0.48166 0.78694 0.0
H510 H 0.41872 0.5426 0.78792 0.0
H511 H 0.40826 0.27648 0.78426 0.0
H512 H 0.60803 0.67443 0.49939 0.0
H513 H 0.58872 0.65348 0.4259 0.0
H514 H 0.66598 0.63468 0.37706 0.0
H515 H 0.68553 0.65539 0.45116 0.0
H516 H 0.62619 0.64884 0.29966 0.0
H517 H 0.64014 0.59075 0.43663 0.0
H518 H 0.63618 0.5795 0.52302 0.0
H519 H 0.55223 0.58284 0.50668 0.0
H520 H 0.55571 0.59462 0.42043 0.0
H521 H 0.57174 0.51495 0.20073 0.0
H522 H 0.59646 0.54179 0.26134 0.0
H523 H 0.54759 0.60841 0.2266 0.0
H524 H 0.52255 0.58169 0.16641 0.0
H525 H 0.57712 0.56898 0.34362 0.0
H526 H 0.58965 0.66289 0.23245 0.0
H527 H 0.59265 0.67569 0.14664 0.0
H528 H 0.62388 0.59985 0.11051 0.0
H529 H 0.62145 0.58674 0.19618 0.0
C530 C 0.62095 0.66634 0.4725 0.0
C531 C 0.64827 0.66616 0.48134 0.0
C532 C 0.60989 0.65447 0.4305 0.0
C533 C 0.62593 0.64223 0.39651 0.0
C534 C 0.6533 0.64404 0.40296 0.0
C535 C 0.66443 0.65591 0.44522 0.0
C536 C 0.614 0.6247 0.35825 0.0
C537 C 0.6155 0.63136 0.30912 0.0
C538 C 0.60029 0.60177 0.37077 0.0
C539 C 0.5982 0.59377 0.42218 0.0
C540 C 0.62084 0.58922 0.45153 0.0
C541 C 0.61868 0.58276 0.50048 0.0
C542 C 0.59396 0.58052 0.52034 0.0
C543 C 0.57136 0.58461 0.49125 0.0
C544 C 0.57341 0.59117 0.44234 0.0
C545 C 0.56621 0.53529 0.20608 0.0
C546 C 0.54514 0.54617 0.17889 0.0
C547 C 0.58034 0.55058 0.2407 0.0
C548 C 0.57397 0.57711 0.2481 0.0
C549 C 0.55295 0.58803 0.22108 0.0
C550 C 0.53859 0.57268 0.18693 0.0
C551 C 0.58892 0.59326 0.28489 0.0
C552 C 0.58794 0.58635 0.33394 0.0
C553 C 0.60306 0.61591 0.27217 0.0
C554 C 0.60514 0.62377 0.2207 0.0
C555 C 0.59728 0.64899 0.20624 0.0
C556 C 0.59886 0.6563 0.15761 0.0
C557 C 0.60838 0.63857 0.12312 0.0
C558 C 0.61643 0.61353 0.13722 0.0
C559 C 0.61492 0.60614 0.18581 0.0
H560 H 0.6096 0.64426 0.08551 0.0
H561 H 0.5923 0.57559 0.55824 0.0
H562 H 0.84176 0.11391 0.90617 0.0
H563 H 0.8624 0.09101 0.8385 0.0
H564 H 0.90108 0.16282 0.80079 0.0
H565 H 0.8798 0.18591 0.86749 0.0
H566 H 0.8848 0.13887 0.72151 0.0
H567 H 0.93316 0.11243 0.86482 0.0
H568 H 0.93939 0.09458 0.94726 0.0
H569 H 0.9068 0.02081 0.89724 0.0
H570 H 0.90002 0.03836 0.81461 0.0
H571 H 0.98461 0.07966 0.58005 0.0
H572 H 0.96173 0.10273 0.64493 0.0
H573 H 0.91264 0.03496 0.663 0.0
H574 H 0.93521 0.0118 0.59792 0.0
H575 H 0.9343 0.05653 0.75142 0.0
H576 H 0.88721 0.08458 0.6062 0.0
H577 H 0.88329 0.10345 0.52424 0.0
H578 H 0.91692 0.17576 0.57942 0.0
H579 H 0.9214 0.15717 0.66162 0.0
C580 C 0.85464 0.12476 0.88331 0.0
C581 C 0.85926 0.15164 0.89206 0.0
C582 C 0.86651 0.11167 0.84479 0.0
C583 C 0.8837 0.12507 0.81501 0.0
C584 C 0.88792 0.15205 0.82322 0.0
C585 C 0.87575 0.16523 0.86129 0.0
C586 C 0.89745 0.11096 0.77555 0.0
C587 C 0.89589 0.12106 0.72828 0.0
C588 C 0.91165 0.08747 0.78405 0.0
C589 C 0.91585 0.0768 0.83364 0.0
C590 C 0.92715 0.09247 0.87148 0.0
C591 C 0.9308 0.08239 0.91823 0.0
C592 C 0.92343 0.0566 0.92751 0.0
C593 C 0.91246 0.0408 0.89001 0.0
C594 C 0.90873 0.05079 0.8432 0.0
C595 C 0.96892 0.06967 0.59779 0.0
C596 C 0.96168 0.04392 0.5838 0.0
C597 C 0.95584 0.0829 0.63473 0.0
C598 C 0.93544 0.07056 0.65853 0.0
C599 C 0.92834 0.04479 0.64501 0.0
C600 C 0.94119 0.03165 0.60771 0.0
C601 C 0.92157 0.08449 0.69775 0.0
C602 C 0.92316 0.07435 0.74487 0.0
C603 C 0.90774 0.10812 0.68928 0.0
C604 C 0.90488 0.11939 0.63996 0.0
C605 C 0.89397 0.10443 0.60078 0.0
C606 C 0.89161 0.11509 0.5543 0.0
C607 C 0.89992 0.14076 0.5466 0.0
C608 C 0.91053 0.15586 0.58542 0.0
C609 C 0.91296 0.14528 0.63197 0.0
H610 H 0.89808 0.14898 0.51058 0.0
H611 H 0.92627 0.04884 0.96373 0.0
H612 H 0.38616 0.32563 0.46343 0.0
H613 H 0.40832 0.34315 0.3934 0.0
H614 H 0.33865 0.38681 0.35294 0.0
H615 H 0.31618 0.36854 0.42214 0.0
H616 H 0.36429 0.37225 0.27298 0.0
H617 H 0.38633 0.41413 0.42651 0.0
H618 H 0.40125 0.41546 0.51287 0.0
H619 H 0.47605 0.38427 0.47429 0.0
H620 H 0.46137 0.38226 0.38773 0.0
H621 H 0.42629 0.48016 0.1597 0.0
H622 H 0.4016 0.4531 0.21486 0.0
H623 H 0.46987 0.40476 0.24099 0.0
H624 H 0.49467 0.43156 0.18561 0.0
H625 H 0.44512 0.42059 0.32613 0.0
H626 H 0.42222 0.38144 0.16982 0.0
H627 H 0.40594 0.38165 0.08425 0.0
H628 H 0.33145 0.41085 0.12903 0.0
H629 H 0.34742 0.41119 0.21487 0.0
C630 C 0.37536 0.33828 0.43858 0.0
C631 C 0.34956 0.34586 0.44813 0.0
C632 C 0.38805 0.34842 0.39882 0.0
C633 C 0.37538 0.36687 0.3687 0.0
C634 C 0.34886 0.37274 0.37582 0.0
C635 C 0.33601 0.36225 0.41524 0.0
C636 C 0.39056 0.38213 0.33365 0.0
C637 C 0.38184 0.38298 0.28466 0.0
C638 C 0.41357 0.39607 0.3488 0.0
C639 C 0.42266 0.3978 0.40069 0.0
C640 C 0.40591 0.40741 0.43647 0.0
C641 C 0.41432 0.40828 0.48545 0.0
C642 C 0.43956 0.3999 0.49907 0.0
C643 C 0.45648 0.39071 0.46369 0.0
C644 C 0.44813 0.3897 0.41466 0.0
C645 C 0.43608 0.4638 0.17723 0.0
C646 C 0.46246 0.45803 0.1683 0.0
C647 C 0.42189 0.44828 0.20852 0.0
C648 C 0.43386 0.42681 0.23168 0.0
C649 C 0.46026 0.4212 0.22335 0.0
C650 C 0.47438 0.43652 0.19166 0.0
C651 C 0.41899 0.41053 0.26544 0.0
C652 C 0.4277 0.40968 0.31436 0.0
C653 C 0.39582 0.39695 0.2503 0.0
C654 C 0.38611 0.39658 0.19874 0.0
C655 C 0.40244 0.38811 0.1614 0.0
C656 C 0.39325 0.38809 0.11285 0.0
C657 C 0.3677 0.39632 0.1012 0.0
C658 C 0.35125 0.40451 0.1381 0.0
C659 C 0.36035 0.4046 0.18672 0.0
H660 H 0.36063 0.39629 0.06359 0.0
H661 H 0.44603 0.40058 0.53701 0.0
H662 H 0.18158 0.86109 0.86346 0.0
H663 H 0.16091 0.88358 0.79361 0.0
H664 H 0.08586 0.87895 0.86039 0.0
H665 H 0.1065 0.85697 0.93067 0.0
H666 H 0.08833 0.86177 0.75615 0.0
H667 H 0.11156 0.9337 0.86768 0.0
H668 H 0.14255 0.95954 0.92013 0.0
H669 H 0.1897 0.97437 0.79719 0.0
H670 H 0.15917 0.94825 0.74413 0.0
H671 H 0.00899 0.94421 0.61127 0.0
H672 H 0.03208 0.92174 0.67766 0.0
H673 H 0.10568 0.95286 0.63129 0.0
H674 H 0.0823 0.9767 0.5664 0.0
H675 H 0.10636 0.95538 0.72329 0.0
H676 H 0.08493 0.88611 0.6101 0.0
H677 H 0.05672 0.8589 0.55469 0.0
H678 H 0.01026 0.83667 0.67454 0.0
H679 H 0.03798 0.86404 0.7306 0.0
C680 C 0.16068 0.8649 0.86308 0.0
C681 C 0.1456 0.85741 0.90232 0.0
C682 C 0.14895 0.87774 0.82338 0.0
C683 C 0.12191 0.88288 0.82205 0.0
C684 C 0.10676 0.87511 0.86088 0.0
C685 C 0.11855 0.86272 0.90097 0.0
C686 C 0.10938 0.89646 0.78018 0.0
C687 C 0.09199 0.8823 0.74907 0.0
C688 C 0.11502 0.92293 0.77025 0.0
C689 C 0.13325 0.93878 0.80206 0.0
C690 C 0.12867 0.94226 0.85193 0.0
C691 C 0.14612 0.957 0.88175 0.0
C692 C 0.16812 0.96853 0.86204 0.0
C693 C 0.17267 0.96539 0.81242 0.0
C694 C 0.1553 0.95064 0.78246 0.0
C695 C 0.03011 0.94618 0.61515 0.0
C696 C 0.04389 0.96207 0.58354 0.0
C697 C 0.04335 0.93318 0.65296 0.0
C698 C 0.07077 0.93504 0.65899 0.0
C699 C 0.08455 0.95101 0.62742 0.0
C700 C 0.07121 0.96457 0.59027 0.0
C701 C 0.08489 0.92081 0.69889 0.0
C702 C 0.10268 0.93479 0.7298 0.0
C703 C 0.08003 0.89395 0.70803 0.0
C704 C 0.06341 0.87731 0.67448 0.0
C705 C 0.0686 0.87555 0.62459 0.0
C706 C 0.05271 0.86008 0.59307 0.0
C707 C 0.03168 0.84611 0.61106 0.0
C708 C 0.02654 0.84752 0.66065 0.0
C709 C 0.04236 0.86298 0.69233 0.0
H710 H 0.01939 0.83416 0.5866 0.0
H711 H 0.1816 0.97994 0.88518 0.0
loop_
_geom_bond_atom_site_label_1
_geom_bond_atom_site_label_2
_geom_bond_distance
_geom_bond_site_symmetry_2
_ccdc_geom_bond_type
H0 C3 0.929 . S
H1 C6 0.929 . S
H2 C8 0.930 . S
C3 H0 0.929 . S
C3 C4 1.398 1_554 S
C3 C5 1.396 . S
C4 C3 1.398 1_556 S
C4 C8 1.407 . S
C5 C3 1.396 . S
C5 C6 1.394 . S
C6 H1 0.929 . S
C6 C5 1.394 . S
C6 C7 1.382 . S
C7 C6 1.382 . S
C7 C8 1.392 1_554 S
C7 N9 1.420 . S
C8 H2 0.930 . S
C8 C4 1.407 . S
C8 C7 1.392 1_556 S
N9 C7 1.420 . S
N9 C10 1.244 . S
C10 N9 1.244 . S
H11 C14 0.929 . S
H12 C17 0.929 . S
H13 C19 0.930 . S
C14 H11 0.929 . S
C14 C15 1.398 . S
C14 C16 1.396 . S
C15 C14 1.398 . S
C15 C19 1.407 . S
C16 C14 1.396 . S
C16 C17 1.394 . S
C17 H12 0.929 . S
C17 C16 1.394 . S
C17 C18 1.382 . S
C18 C17 1.382 . S
C18 C19 1.392 . S
C18 N20 1.420 . S
C19 H13 0.930 . S
C19 C15 1.407 . S
C19 C18 1.392 . S
N20 C18 1.420 . S
N20 C21 1.244 . S
C21 N20 1.244 . S
H22 C25 0.929 . S
H23 C28 0.929 . S
H24 C30 0.930 . S
C25 H22 0.929 . S
C25 C26 1.398 1_554 S
C25 C27 1.396 . S
C26 C25 1.398 1_556 S
C26 C30 1.407 . S
C27 C25 1.396 . S
C27 C28 1.394 . S
C28 H23 0.929 . S
C28 C27 1.394 . S
C28 C29 1.363 1_554 S
C29 C28 1.363 1_556 S
C29 C30 1.409 . S
C29 N31 1.423 . S
C30 H24 0.930 . S
C30 C26 1.407 . S
C30 C29 1.409 . S
N31 C29 1.423 . S
N31 C32 1.244 1_556 S
C32 N31 1.244 1_554 S
H33 C36 0.929 . S
H34 C39 0.929 . S
H35 C41 0.930 . S
C36 H33 0.929 . S
C36 C37 1.398 . S
C36 C38 1.396 . S
C37 C36 1.398 . S
C37 C41 1.407 . S
C38 C36 1.396 . S
C38 C39 1.394 . S
C39 H34 0.929 . S
C39 C38 1.394 . S
C39 C40 1.382 . S
C40 C39 1.382 . S
C40 C41 1.392 . S
C40 N42 1.420 . S
C41 H35 0.930 . S
C41 C37 1.407 . S
C41 C40 1.392 . S
N42 C40 1.420 . S
N42 C43 1.244 . S
C43 N42 1.244 . S
C44 O60 1.269 . S
C44 O62 1.254 . S
N45 C46 1.333 . S
N45 C50 1.307 . S
N45 Zn51 2.020 . S
C46 N45 1.333 . S
C46 C47 1.379 . S
C46 H64 0.952 . S
C47 C46 1.379 . S
C47 C48 1.390 . S
C47 H74 0.949 . S
C48 C47 1.390 . S
C48 C49 1.357 . S
C49 C48 1.357 . S
C49 C50 1.370 . S
C49 H75 0.950 . S
C50 N45 1.307 . S
C50 C49 1.370 . S
C50 H68 0.948 . S
Zn51 N45 2.020 . S
Zn51 O60 2.027 1_545 S
Zn51 O66 2.034 1_545 S
Zn51 O70 2.025 1_455 S
Zn51 O72 2.024 1_455 S
C52 O71 1.246 . S
C52 O72 1.249 . S
N53 C54 1.307 . S
N53 C55 1.333 . S
N53 Zn59 2.020 . S
C54 N53 1.307 . S
C54 C58 1.370 . S
C54 H65 0.948 . S
C55 N53 1.333 . S
C55 C56 1.379 . S
C55 H63 0.952 . S
C56 C55 1.379 . S
C56 C57 1.390 . S
C56 H76 0.949 . S
C57 C56 1.390 . S
C57 C58 1.357 . S
C58 C54 1.370 . S
C58 C57 1.357 . S
C58 H77 0.950 . S
Zn59 N53 2.020 . S
Zn59 O62 2.025 1_655 S
Zn59 O67 2.024 1_655 S
Zn59 O69 2.039 1_565 S
Zn59 O71 2.034 1_565 S
O60 C44 1.269 . S
O60 Zn51 2.027 1_565 S
C61 O66 1.246 . S
C61 O67 1.249 . S
O62 C44 1.254 . S
O62 Zn59 2.025 1_455 S
H63 C55 0.952 . S
H64 C46 0.952 . S
H65 C54 0.948 . S
O66 Zn51 2.034 1_565 S
O66 C61 1.246 . S
O67 Zn59 2.024 1_455 S
O67 C61 1.249 . S
H68 C50 0.948 . S
O69 Zn59 2.039 1_545 S
O69 C73 1.251 . S
O70 Zn51 2.025 1_655 S
O70 C73 1.254 . S
O71 C52 1.246 . S
O71 Zn59 2.034 1_545 S
O72 Zn51 2.024 1_655 S
O72 C52 1.249 . S
C73 O69 1.251 . S
C73 O70 1.254 . S
H74 C47 0.949 . S
H75 C49 0.950 . S
H76 C56 0.949 . S
H77 C58 0.950 . S
C78 O94 1.251 . S
C78 O96 1.254 . S
N79 C80 1.333 . S
N79 C84 1.307 . S
N79 Zn85 2.020 . S
C80 N79 1.333 . S
C80 C81 1.379 . S
C80 H98 0.952 . S
C81 C80 1.379 . S
C81 C82 1.390 . S
C81 H108 0.951 . S
C82 C81 1.390 . S
C82 C83 1.357 . S
C83 C82 1.357 . S
C83 C84 1.370 . S
C83 H109 0.950 . S
C84 N79 1.307 . S
C84 C83 1.370 . S
C84 H102 0.948 . S
Zn85 N79 2.020 . S
Zn85 O94 2.039 1_554 S
Zn85 O100 2.034 . S
Zn85 O104 2.025 . S
Zn85 O106 2.024 1_554 S
C86 O105 1.246 . S
C86 O106 1.249 . S
N87 C88 1.307 . S
N87 C89 1.333 . S
N87 Zn93 2.020 . S
C88 N87 1.307 . S
C88 C92 1.370 . S
C88 H99 0.948 . S
C89 N87 1.333 . S
C89 C90 1.379 . S
C89 H97 0.952 . S
C90 C89 1.379 . S
C90 C91 1.390 . S
C90 H110 0.949 . S
C91 C90 1.390 . S
C91 C92 1.357 . S
C92 C88 1.370 . S
C92 C91 1.357 . S
C92 H111 0.950 . S
Zn93 N87 2.020 . S
Zn93 O96 2.025 1_554 S
Zn93 O101 2.024 . S
Zn93 O103 2.039 . S
Zn93 O105 2.034 1_554 S
O94 C78 1.251 . S
O94 Zn85 2.039 1_556 S
C95 O100 1.246 . S
C95 O101 1.249 . S
O96 C78 1.254 . S
O96 Zn93 2.025 1_556 S
H97 C89 0.952 . S
H98 C80 0.952 . S
H99 C88 0.948 . S
O100 Zn85 2.034 . S
O100 C95 1.246 . S
O101 Zn93 2.024 . S
O101 C95 1.249 . S
H102 C84 0.948 . S
O103 Zn93 2.039 . S
O103 C107 1.251 . S
O104 Zn85 2.025 . S
O104 C107 1.254 . S
O105 C86 1.246 . S
O105 Zn93 2.034 1_556 S
O106 Zn85 2.024 1_556 S
O106 C86 1.249 . S
C107 O103 1.251 . S
C107 O104 1.254 . S
H108 C81 0.951 . S
H109 C83 0.950 . S
H110 C90 0.949 . S
H111 C92 0.950 . S
H112 C130 0.951 . S
H113 C132 0.951 . S
H114 C134 0.950 . S
H115 C135 0.950 . S
H116 C137 0.950 . S
H117 C140 0.950 . S
H118 C141 0.950 . S
H119 C143 0.950 . S
H120 C144 0.950 . S
H121 C145 0.951 . S
H122 C147 0.951 . S
H123 C149 0.950 . S
H124 C150 0.950 . S
H125 C152 0.950 . S
H126 C155 0.950 . S
H127 C156 0.950 . S
H128 C158 0.950 . S
H129 C159 0.950 . S
C130 H112 0.951 . S
C130 C131 1.366 . S
C130 C132 1.388 . S
C131 C130 1.366 . S
C131 C135 1.385 . S
C132 H113 0.951 . S
C132 C130 1.388 . S
C132 C133 1.366 . S
C133 C132 1.366 . S
C133 C134 1.414 . S
C133 C136 1.499 . S
C134 H114 0.950 . S
C134 C133 1.414 . S
C134 C135 1.374 . S
C135 H115 0.950 . S
C135 C131 1.385 . S
C135 C134 1.374 . S
C136 C133 1.499 . S
C136 C137 1.373 . S
C136 C138 1.389 . S
C137 H116 0.950 . S
C137 C136 1.373 . S
C137 C153 1.377 . S
C138 C136 1.389 . S
C138 C139 1.524 . S
C138 C152 1.377 . S
C139 C138 1.524 . S
C139 C140 1.397 . S
C139 C144 1.363 . S
C140 H117 0.950 . S
C140 C139 1.397 . S
C140 C141 1.334 . S
C141 H118 0.950 . S
C141 C140 1.334 . S
C141 C142 1.287 . S
C142 C141 1.287 . S
C142 C143 1.524 . S
C142 H161 0.913 . S
C143 H119 0.950 . S
C143 C142 1.524 . S
C143 C144 1.415 . S
C144 H120 0.950 . S
C144 C139 1.363 . S
C144 C143 1.415 . S
C145 H121 0.951 . S
C145 C146 1.366 . S
C145 C147 1.388 . S
C146 C145 1.366 . S
C146 C150 1.385 . S
C147 H122 0.951 . S
C147 C145 1.388 . S
C147 C148 1.366 . S
C148 C147 1.366 . S
C148 C149 1.414 . S
C148 C151 1.499 . S
C149 H123 0.950 . S
C149 C148 1.414 . S
C149 C150 1.374 . S
C150 H124 0.950 . S
C150 C146 1.385 . S
C150 C149 1.374 . S
C151 C148 1.499 . S
C151 C152 1.373 . S
C151 C153 1.389 . S
C152 H125 0.950 . S
C152 C138 1.377 . S
C152 C151 1.373 . S
C153 C137 1.377 . S
C153 C151 1.389 . S
C153 C154 1.524 . S
C154 C153 1.524 . S
C154 C155 1.397 . S
C154 C159 1.363 . S
C155 H126 0.950 . S
C155 C154 1.397 . S
C155 C156 1.334 . S
C156 H127 0.950 . S
C156 C155 1.334 . S
C156 C157 1.287 . S
C157 C156 1.287 . S
C157 C158 1.524 . S
C157 H160 0.999 . S
C158 H128 0.950 . S
C158 C157 1.524 . S
C158 C159 1.415 . S
C159 H129 0.950 . S
C159 C154 1.363 . S
C159 C158 1.415 . S
H160 C157 0.999 . S
H161 C142 0.913 . S
H162 C180 0.951 . S
H163 C182 0.951 . S
H164 C184 0.950 . S
H165 C185 0.950 . S
H166 C187 0.950 . S
H167 C190 0.950 . S
H168 C191 0.950 . S
H169 C193 0.950 . S
H170 C194 0.950 . S
H171 C195 0.951 . S
H172 C197 0.951 . S
H173 C199 0.950 . S
H174 C200 0.950 . S
H175 C202 0.950 . S
H176 C205 0.950 . S
H177 C206 0.950 . S
H178 C208 0.950 . S
H179 C209 0.950 . S
C180 H162 0.951 . S
C180 C181 1.366 . S
C180 C182 1.388 . S
C181 C180 1.366 . S
C181 C185 1.385 . S
C182 H163 0.951 . S
C182 C180 1.388 . S
C182 C183 1.366 . S
C183 C182 1.366 . S
C183 C184 1.414 . S
C183 C186 1.499 . S
C184 H164 0.950 . S
C184 C183 1.414 . S
C184 C185 1.374 . S
C185 H165 0.950 . S
C185 C181 1.385 . S
C185 C184 1.374 . S
C186 C183 1.499 . S
C186 C187 1.373 . S
C186 C188 1.389 1_554 S
C187 H166 0.950 . S
C187 C186 1.373 . S
C187 C203 1.377 . S
C188 C186 1.389 1_556 S
C188 C189 1.524 . S
C188 C202 1.377 . S
C189 C188 1.524 . S
C189 C190 1.397 . S
C189 C194 1.363 . S
C190 H167 0.950 . S
C190 C189 1.397 . S
C190 C191 1.334 . S
C191 H168 0.950 . S
C191 C190 1.334 . S
C191 C192 1.287 . S
C192 C191 1.287 . S
C192 C193 1.524 . S
C192 H211 0.913 . S
C193 H169 0.950 . S
C193 C192 1.524 . S
C193 C194 1.415 . S
C194 H170 0.950 . S
C194 C189 1.363 . S
C194 C193 1.415 . S
C195 H171 0.951 . S
C195 C196 1.366 . S
C195 C197 1.388 . S
C196 C195 1.366 . S
C196 C200 1.385 . S
C197 H172 0.951 . S
C197 C195 1.388 . S
C197 C198 1.366 . S
C198 C197 1.366 . S
C198 C199 1.414 . S
C198 C201 1.499 . S
C199 H173 0.950 . S
C199 C198 1.414 . S
C199 C200 1.374 . S
C200 H174 0.950 . S
C200 C196 1.385 . S
C200 C199 1.374 . S
C201 C198 1.499 . S
C201 C202 1.373 1_554 S
C201 C203 1.389 . S
C202 H175 0.950 . S
C202 C188 1.377 . S
C202 C201 1.373 1_556 S
C203 C187 1.377 . S
C203 C201 1.389 . S
C203 C204 1.524 . S
C204 C203 1.524 . S
C204 C205 1.397 . S
C204 C209 1.363 . S
C205 H176 0.950 . S
C205 C204 1.397 . S
C205 C206 1.334 . S
C206 H177 0.950 . S
C206 C205 1.334 . S
C206 C207 1.287 . S
C207 C206 1.287 . S
C207 C208 1.524 . S
C207 H210 0.999 . S
C208 H178 0.950 . S
C208 C207 1.524 . S
C208 C209 1.415 . S
C209 H179 0.950 . S
C209 C204 1.363 . S
C209 C208 1.415 . S
H210 C207 0.999 . S
H211 C192 0.913 . S
H212 C230 0.951 . S
H213 C232 0.951 . S
H214 C234 0.950 . S
H215 C235 0.950 . S
H216 C237 0.950 . S
H217 C240 0.950 . S
H218 C241 0.950 . S
H219 C243 0.950 . S
H220 C244 0.950 . S
H221 C245 0.951 . S
H222 C247 0.951 . S
H223 C249 0.950 . S
H224 C250 0.950 . S
H225 C252 0.950 . S
H226 C255 0.950 . S
H227 C256 0.950 . S
H228 C258 0.950 . S
H229 C259 0.950 . S
C230 H212 0.951 . S
C230 C231 1.366 . S
C230 C232 1.388 . S
C231 C230 1.366 . S
C231 C235 1.385 . S
C232 H213 0.951 . S
C232 C230 1.388 . S
C232 C233 1.366 . S
C233 C232 1.366 . S
C233 C234 1.414 . S
C233 C236 1.499 . S
C234 H214 0.950 . S
C234 C233 1.414 . S
C234 C235 1.374 . S
C235 H215 0.950 . S
C235 C231 1.385 . S
C235 C234 1.374 . S
C236 C233 1.499 . S
C236 C237 1.373 . S
C236 C238 1.389 . S
C237 H216 0.950 . S
C237 C236 1.373 . S
C237 C253 1.377 . S
C238 C236 1.389 . S
C238 C239 1.524 . S
C238 C252 1.377 . S
C239 C238 1.524 . S
C239 C240 1.397 . S
C239 C244 1.363 . S
C240 H217 0.950 . S
C240 C239 1.397 . S
C240 C241 1.334 . S
C241 H218 0.950 . S
C241 C240 1.334 . S
C241 C242 1.287 . S
C242 C241 1.287 . S
C242 C243 1.524 . S
C242 H261 0.913 . S
C243 H219 0.950 . S
C243 C242 1.524 . S
C243 C244 1.415 . S
C244 H220 0.950 . S
C244 C239 1.363 . S
C244 C243 1.415 . S
C245 H221 0.951 . S
C245 C246 1.366 . S
C245 C247 1.388 . S
C246 C245 1.366 . S
C246 C250 1.385 . S
C247 H222 0.951 . S
C247 C245 1.388 . S
C247 C248 1.366 . S
C248 C247 1.366 . S
C248 C249 1.414 . S
C248 C251 1.499 . S
C249 H223 0.950 . S
C249 C248 1.414 . S
C249 C250 1.374 . S
C250 H224 0.950 . S
C250 C246 1.385 . S
C250 C249 1.374 . S
C251 C248 1.499 . S
C251 C252 1.373 . S
C251 C253 1.389 . S
C252 H225 0.950 . S
C252 C238 1.377 . S
C252 C251 1.373 . S
C253 C237 1.377 . S
C253 C251 1.389 . S
C253 C254 1.524 . S
C254 C253 1.524 . S
C254 C255 1.397 . S
C254 C259 1.363 . S
C255 H226 0.950 . S
C255 C254 1.397 . S
C255 C256 1.334 . S
C256 H227 0.950 . S
C256 C255 1.334 . S
C256 C257 1.287 . S
C257 C256 1.287 . S
C257 C258 1.524 . S
C257 H260 0.999 . S
C258 H228 0.950 . S
C258 C257 1.524 . S
C258 C259 1.415 . S
C259 H229 0.950 . S
C259 C254 1.363 . S
C259 C258 1.415 . S
H260 C257 0.999 . S
H261 C242 0.913 . S
H262 C280 0.951 . S
H263 C282 0.951 . S
H264 C284 0.950 1_556 S
H265 C285 0.950 1_556 S
H266 C287 0.950 . S
H267 C290 0.950 . S
H268 C291 0.950 . S
H269 C293 0.950 . S
H270 C294 0.950 . S
H271 C295 0.951 . S
H272 C297 0.951 . S
H273 C299 0.950 . S
H274 C300 0.950 . S
H275 C302 0.943 1_556 S
H276 C305 0.950 . S
H277 C306 0.950 . S
H278 C308 0.950 . S
H279 C309 0.950 . S
C280 H262 0.951 . S
C280 C281 1.366 . S
C280 C282 1.388 . S
C281 C280 1.366 . S
C281 C285 1.385 . S
C282 H263 0.951 . S
C282 C280 1.388 . S
C282 C283 1.366 . S
C283 C282 1.366 . S
C283 C284 1.414 . S
C283 C286 1.499 . S
C284 H264 0.950 1_554 S
C284 C283 1.414 . S
C284 C285 1.374 . S
C285 H265 0.950 1_554 S
C285 C281 1.385 . S
C285 C284 1.374 . S
C286 C283 1.499 . S
C286 C287 1.373 . S
C286 C288 1.389 1_554 S
C287 H266 0.950 . S
C287 C286 1.373 . S
C287 C303 1.377 . S
C288 C286 1.389 1_556 S
C288 C289 1.524 . S
C288 C302 1.375 1_556 S
C289 C288 1.524 . S
C289 C290 1.397 . S
C289 C294 1.363 . S
C290 H267 0.950 . S
C290 C289 1.397 . S
C290 C291 1.334 . S
C291 H268 0.950 . S
C291 C290 1.334 . S
C291 C292 1.287 . S
C292 C291 1.287 . S
C292 C293 1.524 . S
C292 H311 0.913 . S
C293 H269 0.950 . S
C293 C292 1.524 . S
C293 C294 1.415 . S
C294 H270 0.950 . S
C294 C289 1.363 . S
C294 C293 1.415 . S
C295 H271 0.951 . S
C295 C296 1.366 . S
C295 C297 1.388 . S
C296 C295 1.366 . S
C296 C300 1.385 . S
C297 H272 0.951 . S
C297 C295 1.388 . S
C297 C298 1.366 . S
C298 C297 1.366 . S
C298 C299 1.414 . S
C298 C301 1.499 . S
C299 H273 0.950 . S
C299 C298 1.414 . S
C299 C300 1.374 . S
C300 H274 0.950 . S
C300 C296 1.385 . S
C300 C299 1.374 . S
C301 C298 1.499 . S
C301 C302 1.382 . S
C301 C303 1.389 . S
C302 H275 0.943 1_554 S
C302 C288 1.375 1_554 S
C302 C301 1.382 . S
C303 C287 1.377 . S
C303 C301 1.389 . S
C303 C304 1.524 . S
C304 C303 1.524 . S
C304 C305 1.397 . S
C304 C309 1.363 . S
C305 H276 0.950 . S
C305 C304 1.397 . S
C305 C306 1.334 . S
C306 H277 0.950 . S
C306 C305 1.334 . S
C306 C307 1.287 . S
C307 C306 1.287 . S
C307 C308 1.524 . S
C307 H310 0.999 . S
C308 H278 0.950 . S
C308 C307 1.524 . S
C308 C309 1.415 . S
C309 H279 0.950 . S
C309 C304 1.363 . S
C309 C308 1.415 . S
H310 C307 0.999 . S
H311 C292 0.913 . S
H312 C330 0.951 . S
H313 C332 0.951 . S
H314 C334 0.950 . S
H315 C335 0.950 . S
H316 C337 0.950 . S
H317 C340 0.950 . S
H318 C341 0.950 . S
H319 C343 0.950 . S
H320 C344 0.950 . S
H321 C345 0.951 . S
H322 C347 0.951 . S
H323 C349 0.950 . S
H324 C350 0.950 . S
H325 C352 0.950 . S
H326 C355 0.950 . S
H327 C356 0.950 . S
H328 C358 0.950 . S
H329 C359 0.950 . S
C330 H312 0.951 . S
C330 C331 1.366 . S
C330 C332 1.388 . S
C331 C330 1.366 . S
C331 C335 1.385 . S
C332 H313 0.951 . S
C332 C330 1.388 . S
C332 C333 1.366 . S
C333 C332 1.366 . S
C333 C334 1.414 . S
C333 C336 1.499 . S
C334 H314 0.950 . S
C334 C333 1.414 . S
C334 C335 1.374 . S
C335 H315 0.950 . S
C335 C331 1.385 . S
C335 C334 1.374 . S
C336 C333 1.499 . S
C336 C337 1.373 . S
C336 C338 1.389 . S
C337 H316 0.950 . S
C337 C336 1.373 . S
C337 C353 1.377 . S
C338 C336 1.389 . S
C338 C339 1.524 . S
C338 C352 1.377 . S
C339 C338 1.524 . S
C339 C340 1.397 . S
C339 C344 1.363 . S
C340 H317 0.950 . S
C340 C339 1.397 . S
C340 C341 1.334 . S
C341 H318 0.950 . S
C341 C340 1.334 . S
C341 C342 1.287 . S
C342 C341 1.287 . S
C342 C343 1.524 . S
C342 H361 0.913 . S
C343 H319 0.950 . S
C343 C342 1.524 . S
C343 C344 1.415 . S
C344 H320 0.950 . S
C344 C339 1.363 . S
C344 C343 1.415 . S
C345 H321 0.951 . S
C345 C346 1.366 . S
C345 C347 1.388 . S
C346 C345 1.366 . S
C346 C350 1.385 . S
C347 H322 0.951 . S
C347 C345 1.388 . S
C347 C348 1.366 . S
C348 C347 1.366 . S
C348 C349 1.414 . S
C348 C351 1.499 . S
C349 H323 0.950 . S
C349 C348 1.414 . S
C349 C350 1.374 . S
C350 H324 0.950 . S
C350 C346 1.385 . S
C350 C349 1.374 . S
C351 C348 1.499 . S
C351 C352 1.373 . S
C351 C353 1.389 . S
C352 H325 0.950 . S
C352 C338 1.377 . S
C352 C351 1.373 . S
C353 C337 1.377 . S
C353 C351 1.389 . S
C353 C354 1.524 . S
C354 C353 1.524 . S
C354 C355 1.397 . S
C354 C359 1.363 . S
C355 H326 0.950 . S
C355 C354 1.397 . S
C355 C356 1.334 . S
C356 H327 0.950 . S
C356 C355 1.334 . S
C356 C357 1.287 1_565 S
C357 C356 1.287 1_545 S
C357 C358 1.524 . S
C357 H360 0.999 . S
C358 H328 0.950 . S
C358 C357 1.524 . S
C358 C359 1.415 1_545 S
C359 H329 0.950 . S
C359 C354 1.363 . S
C359 C358 1.415 1_565 S
H360 C357 0.999 . S
H361 C342 0.913 . S
H362 C380 0.951 . S
H363 C382 0.951 . S
H364 C384 0.950 . S
H365 C385 0.950 . S
H366 C387 0.950 . S
H367 C390 0.950 . S
H368 C391 0.950 . S
H369 C393 0.950 . S
H370 C394 0.950 . S
H371 C395 0.951 . S
H372 C397 0.951 . S
H373 C399 0.950 . S
H374 C400 0.950 . S
H375 C402 0.950 . S
H376 C405 0.950 . S
H377 C406 0.950 . S
H378 C408 0.950 . S
H379 C409 0.950 . S
C380 H362 0.951 . S
C380 C381 1.366 . S
C380 C382 1.388 . S
C381 C380 1.366 . S
C381 C385 1.385 . S
C382 H363 0.951 . S
C382 C380 1.388 . S
C382 C383 1.366 . S
C383 C382 1.366 . S
C383 C384 1.414 . S
C383 C386 1.499 . S
C384 H364 0.950 . S
C384 C383 1.414 . S
C384 C385 1.374 . S
C385 H365 0.950 . S
C385 C381 1.385 . S
C385 C384 1.374 . S
C386 C383 1.499 . S
C386 C387 1.373 . S
C386 C388 1.389 . S
C387 H366 0.950 . S
C387 C386 1.373 . S
C387 C403 1.377 . S
C388 C386 1.389 . S
C388 C389 1.524 . S
C388 C402 1.377 . S
C389 C388 1.524 . S
C389 C390 1.397 . S
C389 C394 1.363 . S
C390 H367 0.950 . S
C390 C389 1.397 . S
C390 C391 1.334 . S
C391 H368 0.950 . S
C391 C390 1.334 . S
C391 C392 1.287 . S
C392 C391 1.287 . S
C392 C393 1.524 . S
C392 H411 0.913 . S
C393 H369 0.950 . S
C393 C392 1.524 . S
C393 C394 1.415 . S
C394 H370 0.950 . S
C394 C389 1.363 . S
C394 C393 1.415 . S
C395 H371 0.951 . S
C395 C396 1.366 . S
C395 C397 1.388 . S
C396 C395 1.366 . S
C396 C400 1.385 . S
C397 H372 0.951 . S
C397 C395 1.388 . S
C397 C398 1.366 . S
C398 C397 1.366 . S
C398 C399 1.414 . S
C398 C401 1.499 . S
C399 H373 0.950 . S
C399 C398 1.414 . S
C399 C400 1.374 . S
C400 H374 0.950 . S
C400 C396 1.385 . S
C400 C399 1.374 . S
C401 C398 1.499 . S
C401 C402 1.373 . S
C401 C403 1.389 . S
C402 H375 0.950 . S
C402 C388 1.377 . S
C402 C401 1.373 . S
C403 C387 1.377 . S
C403 C401 1.389 . S
C403 C404 1.524 . S
C404 C403 1.524 . S
C404 C405 1.397 . S
C404 C409 1.363 . S
C405 H376 0.950 . S
C405 C404 1.397 . S
C405 C406 1.334 . S
C406 H377 0.950 . S
C406 C405 1.334 . S
C406 C407 1.287 . S
C407 C406 1.287 . S
C407 C408 1.524 . S
C407 H410 0.999 . S
C408 H378 0.950 . S
C408 C407 1.524 . S
C408 C409 1.415 . S
C409 H379 0.950 . S
C409 C404 1.363 . S
C409 C408 1.415 . S
H410 C407 0.999 . S
H411 C392 0.913 . S
H412 C430 0.951 . S
H413 C432 0.951 . S
H414 C434 0.950 . S
H415 C435 0.950 . S
H416 C437 0.950 . S
H417 C440 0.950 . S
H418 C441 0.950 . S
H419 C443 0.950 . S
H420 C444 0.950 . S
H421 C445 0.951 . S
H422 C447 0.951 . S
H423 C449 0.950 . S
H424 C450 0.950 . S
H425 C452 0.950 . S
H426 C455 0.950 . S
H427 C456 0.950 1_455 S
H428 C458 0.950 . S
H429 C459 0.950 . S
C430 H412 0.951 . S
C430 C431 1.366 . S
C430 C432 1.388 . S
C431 C430 1.366 . S
C431 C435 1.385 . S
C432 H413 0.951 . S
C432 C430 1.388 . S
C432 C433 1.366 . S
C433 C432 1.366 . S
C433 C434 1.414 . S
C433 C436 1.499 . S
C434 H414 0.950 . S
C434 C433 1.414 . S
C434 C435 1.374 . S
C435 H415 0.950 . S
C435 C431 1.385 . S
C435 C434 1.374 . S
C436 C433 1.499 . S
C436 C437 1.373 . S
C436 C438 1.389 . S
C437 H416 0.950 . S
C437 C436 1.373 . S
C437 C453 1.377 . S
C438 C436 1.389 . S
C438 C439 1.524 . S
C438 C452 1.377 . S
C439 C438 1.524 . S
C439 C440 1.397 . S
C439 C444 1.363 . S
C440 H417 0.950 . S
C440 C439 1.397 . S
C440 C441 1.334 . S
C441 H418 0.950 . S
C441 C440 1.334 . S
C441 C442 1.287 . S
C442 C441 1.287 . S
C442 C443 1.524 . S
C442 H461 0.913 . S
C443 H419 0.950 . S
C443 C442 1.524 . S
C443 C444 1.415 . S
C444 H420 0.950 . S
C444 C439 1.363 . S
C444 C443 1.415 . S
C445 H421 0.951 . S
C445 C446 1.366 . S
C445 C447 1.388 . S
C446 C445 1.366 . S
C446 C450 1.385 . S
C447 H422 0.951 . S
C447 C445 1.388 . S
C447 C448 1.366 . S
C448 C447 1.366 . S
C448 C449 1.414 . S
C448 C451 1.499 . S
C449 H423 0.950 . S
C449 C448 1.414 . S
C449 C450 1.374 . S
C450 H424 0.950 . S
C450 C446 1.385 . S
C450 C449 1.374 . S
C451 C448 1.499 . S
C451 C452 1.373 . S
C451 C453 1.389 . S
C452 H425 0.950 . S
C452 C438 1.377 . S
C452 C451 1.373 . S
C453 C437 1.377 . S
C453 C451 1.389 . S
C453 C454 1.524 . S
C454 C453 1.524 . S
C454 C455 1.397 . S
C454 C459 1.363 . S
C455 H426 0.950 . S
C455 C454 1.397 . S
C455 C456 1.334 . S
C456 H427 0.950 1_655 S
C456 C455 1.334 . S
C456 C457 1.287 . S
C457 C456 1.287 . S
C457 C458 1.524 . S
C457 H460 0.999 1_655 S
C458 H428 0.950 . S
C458 C457 1.524 . S
C458 C459 1.415 . S
C459 H429 0.950 . S
C459 C454 1.363 . S
C459 C458 1.415 . S
H460 C457 0.999 1_455 S
H461 C442 0.913 . S
H462 C480 0.951 . S
H463 C482 0.951 . S
H464 C484 0.950 . S
H465 C485 0.950 . S
H466 C487 0.950 . S
H467 C490 0.950 . S
H468 C491 0.950 . S
H469 C493 0.950 . S
H470 C494 0.950 . S
H471 C495 0.951 . S
H472 C497 0.951 . S
H473 C499 0.950 . S
H474 C500 0.950 . S
H475 C502 0.950 . S
H476 C505 0.950 . S
H477 C506 0.950 . S
H478 C508 0.950 . S
H479 C509 0.950 . S
C480 H462 0.951 . S
C480 C481 1.366 . S
C480 C482 1.388 . S
C481 C480 1.366 . S
C481 C485 1.385 . S
C482 H463 0.951 . S
C482 C480 1.388 . S
C482 C483 1.366 . S
C483 C482 1.366 . S
C483 C484 1.414 . S
C483 C486 1.499 . S
C484 H464 0.950 . S
C484 C483 1.414 . S
C484 C485 1.374 . S
C485 H465 0.950 . S
C485 C481 1.385 . S
C485 C484 1.374 . S
C486 C483 1.499 . S
C486 C487 1.373 . S
C486 C488 1.389 . S
C487 H466 0.950 . S
C487 C486 1.373 . S
C487 C503 1.377 . S
C488 C486 1.389 . S
C488 C489 1.524 . S
C488 C502 1.377 . S
C489 C488 1.524 . S
C489 C490 1.397 . S
C489 C494 1.363 . S
C490 H467 0.950 . S
C490 C489 1.397 . S
C490 C491 1.334 . S
C491 H468 0.950 . S
C491 C490 1.334 . S
C491 C492 1.287 . S
C492 C491 1.287 . S
C492 C493 1.524 . S
C492 H511 0.913 . S
C493 H469 0.950 . S
C493 C492 1.524 . S
C493 C494 1.415 . S
C494 H470 0.950 . S
C494 C489 1.363 . S
C494 C493 1.415 . S
C495 H471 0.951 . S
C495 C496 1.366 . S
C495 C497 1.388 . S
C496 C495 1.366 . S
C496 C500 1.385 . S
C497 H472 0.951 . S
C497 C495 1.388 . S
C497 C498 1.366 . S
C498 C497 1.366 . S
C498 C499 1.414 . S
C498 C501 1.499 . S
C499 H473 0.950 . S
C499 C498 1.414 . S
C499 C500 1.374 . S
C500 H474 0.950 . S
C500 C496 1.385 . S
C500 C499 1.374 . S
C501 C498 1.499 . S
C501 C502 1.373 . S
C501 C503 1.389 . S
C502 H475 0.950 . S
C502 C488 1.377 . S
C502 C501 1.373 . S
C503 C487 1.377 . S
C503 C501 1.389 . S
C503 C504 1.524 . S
C504 C503 1.524 . S
C504 C505 1.397 . S
C504 C509 1.363 . S
C505 H476 0.950 . S
C505 C504 1.397 . S
C505 C506 1.334 . S
C506 H477 0.950 . S
C506 C505 1.334 . S
C506 C507 1.287 . S
C507 C506 1.287 . S
C507 C508 1.524 . S
C507 H510 0.999 . S
C508 H478 0.950 . S
C508 C507 1.524 . S
C508 C509 1.415 . S
C509 H479 0.950 . S
C509 C504 1.363 . S
C509 C508 1.415 . S
H510 C507 0.999 . S
H511 C492 0.913 . S
H512 C530 0.951 . S
H513 C532 0.951 . S
H514 C534 0.950 . S
H515 C535 0.950 . S
H516 C537 0.950 . S
H517 C540 0.950 . S
H518 C541 0.950 . S
H519 C543 0.950 . S
H520 C544 0.950 . S
H521 C545 0.951 . S
H522 C547 0.951 . S
H523 C549 0.950 . S
H524 C550 0.950 . S
H525 C552 0.950 . S
H526 C555 0.950 . S
H527 C556 0.950 . S
H528 C558 0.950 . S
H529 C559 0.950 . S
C530 H512 0.951 . S
C530 C531 1.366 . S
C530 C532 1.388 . S
C531 C530 1.366 . S
C531 C535 1.385 . S
C532 H513 0.951 . S
C532 C530 1.388 . S
C532 C533 1.366 . S
C533 C532 1.366 . S
C533 C534 1.414 . S
C533 C536 1.499 . S
C534 H514 0.950 . S
C534 C533 1.414 . S
C534 C535 1.374 . S
C535 H515 0.950 . S
C535 C531 1.385 . S
C535 C534 1.374 . S
C536 C533 1.499 . S
C536 C537 1.373 . S
C536 C538 1.389 . S
C537 H516 0.950 . S
C537 C536 1.373 . S
C537 C553 1.377 . S
C538 C536 1.389 . S
C538 C539 1.524 . S
C538 C552 1.377 . S
C539 C538 1.524 . S
C539 C540 1.397 . S
C539 C544 1.363 . S
C540 H517 0.950 . S
C540 C539 1.397 . S
C540 C541 1.334 . S
C541 H518 0.950 . S
C541 C540 1.334 . S
C541 C542 1.287 . S
C542 C541 1.287 . S
C542 C543 1.524 . S
C542 H561 0.913 . S
C543 H519 0.950 . S
C543 C542 1.524 . S
C543 C544 1.415 . S
C544 H520 0.950 . S
C544 C539 1.363 . S
C544 C543 1.415 . S
C545 H521 0.951 . S
C545 C546 1.366 . S
C545 C547 1.388 . S
C546 C545 1.366 . S
C546 C550 1.385 . S
C547 H522 0.951 . S
C547 C545 1.388 . S
C547 C548 1.366 . S
C548 C547 1.366 . S
C548 C549 1.414 . S
C548 C551 1.499 . S
C549 H523 0.950 . S
C549 C548 1.414 . S
C549 C550 1.374 . S
C550 H524 0.950 . S
C550 C546 1.385 . S
C550 C549 1.374 . S
C551 C548 1.499 . S
C551 C552 1.373 . S
C551 C553 1.389 . S
C552 H525 0.950 . S
C552 C538 1.377 . S
C552 C551 1.373 . S
C553 C537 1.377 . S
C553 C551 1.389 . S
C553 C554 1.524 . S
C554 C553 1.524 . S
C554 C555 1.397 . S
C554 C559 1.363 . S
C555 H526 0.950 . S
C555 C554 1.397 . S
C555 C556 1.334 . S
C556 H527 0.950 . S
C556 C555 1.334 . S
C556 C557 1.287 . S
C557 C556 1.287 . S
C557 C558 1.524 . S
C557 H560 0.999 . S
C558 H528 0.950 . S
C558 C557 1.524 . S
C558 C559 1.415 . S
C559 H529 0.950 . S
C559 C554 1.363 . S
C559 C558 1.415 . S
H560 C557 0.999 . S
H561 C542 0.913 . S
H562 C580 0.951 . S
H563 C582 0.951 . S
H564 C584 0.950 . S
H565 C585 0.950 . S
H566 C587 0.950 . S
H567 C590 0.950 . S
H568 C591 0.950 . S
H569 C593 0.950 . S
H570 C594 0.950 . S
H571 C595 0.951 . S
H572 C597 0.951 . S
H573 C599 0.950 . S
H574 C600 0.950 . S
H575 C602 0.950 . S
H576 C605 0.950 . S
H577 C606 0.950 . S
H578 C608 0.950 . S
H579 C609 0.950 . S
C580 H562 0.951 . S
C580 C581 1.366 . S
C580 C582 1.388 . S
C581 C580 1.366 . S
C581 C585 1.385 . S
C582 H563 0.951 . S
C582 C580 1.388 . S
C582 C583 1.366 . S
C583 C582 1.366 . S
C583 C584 1.414 . S
C583 C586 1.499 . S
C584 H564 0.950 . S
C584 C583 1.414 . S
C584 C585 1.374 . S
C585 H565 0.950 . S
C585 C581 1.385 . S
C585 C584 1.374 . S
C586 C583 1.499 . S
C586 C587 1.373 . S
C586 C588 1.389 . S
C587 H566 0.950 . S
C587 C586 1.373 . S
C587 C603 1.377 . S
C588 C586 1.389 . S
C588 C589 1.524 . S
C588 C602 1.377 . S
C589 C588 1.524 . S
C589 C590 1.397 . S
C589 C594 1.363 . S
C590 H567 0.950 . S
C590 C589 1.397 . S
C590 C591 1.334 . S
C591 H568 0.950 . S
C591 C590 1.334 . S
C591 C592 1.287 . S
C592 C591 1.287 . S
C592 C593 1.524 . S
C592 H611 0.913 . S
C593 H569 0.950 . S
C593 C592 1.524 . S
C593 C594 1.415 . S
C594 H570 0.950 . S
C594 C589 1.363 . S
C594 C593 1.415 . S
C595 H571 0.951 . S
C595 C596 1.366 . S
C595 C597 1.388 . S
C596 C595 1.366 . S
C596 C600 1.385 . S
C597 H572 0.951 . S
C597 C595 1.388 . S
C597 C598 1.366 . S
C598 C597 1.366 . S
C598 C599 1.414 . S
C598 C601 1.499 . S
C599 H573 0.950 . S
C599 C598 1.414 . S
C599 C600 1.374 . S
C600 H574 0.950 . S
C600 C596 1.385 . S
C600 C599 1.374 . S
C601 C598 1.499 . S
C601 C602 1.373 . S
C601 C603 1.389 . S
C602 H575 0.950 . S
C602 C588 1.377 . S
C602 C601 1.373 . S
C603 C587 1.377 . S
C603 C601 1.389 . S
C603 C604 1.524 . S
C604 C603 1.524 . S
C604 C605 1.397 . S
C604 C609 1.363 . S
C605 H576 0.950 . S
C605 C604 1.397 . S
C605 C606 1.334 . S
C606 H577 0.950 . S
C606 C605 1.334 . S
C606 C607 1.287 . S
C607 C606 1.287 . S
C607 C608 1.524 . S
C607 H610 0.999 . S
C608 H578 0.950 . S
C608 C607 1.524 . S
C608 C609 1.415 . S
C609 H579 0.950 . S
C609 C604 1.363 . S
C609 C608 1.415 . S
H610 C607 0.999 . S
H611 C592 0.913 . S
H612 C630 0.951 . S
H613 C632 0.951 . S
H614 C634 0.950 . S
H615 C635 0.950 . S
H616 C637 0.950 . S
H617 C640 0.950 . S
H618 C641 0.950 . S
H619 C643 0.950 . S
H620 C644 0.950 . S
H621 C645 0.951 . S
H622 C647 0.951 . S
H623 C649 0.950 . S
H624 C650 0.950 . S
H625 C652 0.950 . S
H626 C655 0.950 . S
H627 C656 0.950 . S
H628 C658 0.950 . S
H629 C659 0.950 . S
C630 H612 0.951 . S
C630 C631 1.366 . S
C630 C632 1.388 . S
C631 C630 1.366 . S
C631 C635 1.385 . S
C632 H613 0.951 . S
C632 C630 1.388 . S
C632 C633 1.366 . S
C633 C632 1.366 . S
C633 C634 1.414 . S
C633 C636 1.499 . S
C634 H614 0.950 . S
C634 C633 1.414 . S
C634 C635 1.374 . S
C635 H615 0.950 . S
C635 C631 1.385 . S
C635 C634 1.374 . S
C636 C633 1.499 . S
C636 C637 1.373 . S
C636 C638 1.389 . S
C637 H616 0.950 . S
C637 C636 1.373 . S
C637 C653 1.377 . S
C638 C636 1.389 . S
C638 C639 1.524 . S
C638 C652 1.377 . S
C639 C638 1.524 . S
C639 C640 1.397 . S
C639 C644 1.363 . S
C640 H617 0.950 . S
C640 C639 1.397 . S
C640 C641 1.334 . S
C641 H618 0.950 . S
C641 C640 1.334 . S
C641 C642 1.287 . S
C642 C641 1.287 . S
C642 C643 1.524 . S
C642 H661 0.913 . S
C643 H619 0.950 . S
C643 C642 1.524 . S
C643 C644 1.415 . S
C644 H620 0.950 . S
C644 C639 1.363 . S
C644 C643 1.415 . S
C645 H621 0.951 . S
C645 C646 1.366 . S
C645 C647 1.388 . S
C646 C645 1.366 . S
C646 C650 1.385 . S
C647 H622 0.951 . S
C647 C645 1.388 . S
C647 C648 1.366 . S
C648 C647 1.366 . S
C648 C649 1.414 . S
C648 C651 1.499 . S
C649 H623 0.950 . S
C649 C648 1.414 . S
C649 C650 1.374 . S
C650 H624 0.950 . S
C650 C646 1.385 . S
C650 C649 1.374 . S
C651 C648 1.499 . S
C651 C652 1.373 . S
C651 C653 1.389 . S
C652 H625 0.950 . S
C652 C638 1.377 . S
C652 C651 1.373 . S
C653 C637 1.377 . S
C653 C651 1.389 . S
C653 C654 1.524 . S
C654 C653 1.524 . S
C654 C655 1.397 . S
C654 C659 1.363 . S
C655 H626 0.950 . S
C655 C654 1.397 . S
C655 C656 1.334 . S
C656 H627 0.950 . S
C656 C655 1.334 . S
C656 C657 1.287 . S
C657 C656 1.287 . S
C657 C658 1.524 . S
C657 H660 0.999 . S
C658 H628 0.950 . S
C658 C657 1.524 . S
C658 C659 1.415 . S
C659 H629 0.950 . S
C659 C654 1.363 . S
C659 C658 1.415 . S
H660 C657 0.999 . S
H661 C642 0.913 . S
H662 C680 0.951 . S
H663 C682 0.951 . S
H664 C684 0.950 . S
H665 C685 0.950 . S
H666 C687 0.950 . S
H667 C690 0.950 . S
H668 C691 0.950 . S
H669 C693 0.950 . S
H670 C694 0.950 . S
H671 C695 0.951 . S
H672 C697 0.951 . S
H673 C699 0.950 . S
H674 C700 0.950 . S
H675 C702 0.950 . S
H676 C705 0.950 . S
H677 C706 0.952 . S
H678 C708 0.950 . S
H679 C709 0.950 . S
C680 H662 0.951 . S
C680 C681 1.366 . S
C680 C682 1.388 . S
C681 C680 1.366 . S
C681 C685 1.385 . S
C682 H663 0.951 . S
C682 C680 1.388 . S
C682 C683 1.366 . S
C683 C682 1.366 . S
C683 C684 1.414 . S
C683 C686 1.499 . S
C684 H664 0.950 . S
C684 C683 1.414 . S
C684 C685 1.374 . S
C685 H665 0.950 . S
C685 C681 1.385 . S
C685 C684 1.374 . S
C686 C683 1.499 . S
C686 C687 1.373 . S
C686 C688 1.389 . S
C687 H666 0.950 . S
C687 C686 1.373 . S
C687 C703 1.377 . S
C688 C686 1.389 . S
C688 C689 1.524 . S
C688 C702 1.377 . S
C689 C688 1.524 . S
C689 C690 1.397 . S
C689 C694 1.363 . S
C690 H667 0.950 . S
C690 C689 1.397 . S
C690 C691 1.334 . S
C691 H668 0.950 . S
C691 C690 1.334 . S
C691 C692 1.287 . S
C692 C691 1.287 . S
C692 C693 1.524 . S
C692 H711 0.913 . S
C693 H669 0.950 . S
C693 C692 1.524 . S
C693 C694 1.415 . S
C694 H670 0.950 . S
C694 C689 1.363 . S
C694 C693 1.415 . S
C695 H671 0.951 . S
C695 C696 1.366 . S
C695 C697 1.388 . S
C696 C695 1.366 . S
C696 C700 1.385 . S
C697 H672 0.951 . S
C697 C695 1.388 . S
C697 C698 1.366 . S
C698 C697 1.366 . S
C698 C699 1.414 . S
C698 C701 1.499 . S
C699 H673 0.950 . S
C699 C698 1.414 . S
C699 C700 1.374 . S
C700 H674 0.950 . S
C700 C696 1.385 . S
C700 C699 1.374 . S
C701 C698 1.499 . S
C701 C702 1.373 . S
C701 C703 1.389 . S
C702 H675 0.950 . S
C702 C688 1.377 . S
C702 C701 1.373 . S
C703 C687 1.377 . S
C703 C701 1.389 . S
C703 C704 1.524 . S
C704 C703 1.524 . S
C704 C705 1.397 . S
C704 C709 1.363 . S
C705 H676 0.950 . S
C705 C704 1.397 . S
C705 C706 1.334 . S
C706 H677 0.952 . S
C706 C705 1.334 . S
C706 C707 1.287 1_455 S
C707 C706 1.287 1_655 S
C707 C708 1.524 . S
C707 H710 0.999 . S
C708 H678 0.950 . S
C708 C707 1.524 . S
C708 C709 1.415 1_655 S
C709 H679 0.950 . S
C709 C704 1.363 . S
C709 C708 1.415 1_455 S
H710 C707 0.999 . S
H711 C692 0.913 . S
C146 C48 1.509 . S
C131 C43 1.509 . S
C181 C10 1.512 . S
C196 C91 1.512 . S
C231 C21 1.507 . S
C246 C57 1.511 . S
C281 C32 1.509 . S
C296 C82 1.510 . S
C346 C44 1.566 . S
C331 C5 1.542 . S
C396 C86 1.547 . S
C381 C15 1.544 . S
C431 C27 1.544 . S
C446 C52 1.562 . S
C481 C38 1.527 . S
C496 C78 1.548 . S
C546 C107 1.472 . S
C531 C16 1.454 . S
C596 C73 1.457 . S
C581 C26 1.452 . S
C646 C95 1.471 . S
C631 C37 1.468 . S
C681 C4 1.452 . S
C696 C61 1.454 . S
