# Generated by pormake.
# Topology sqc, (4,8)-cn, num edge types: 1
# Building blocks:
#     Node 0, Type 0, BuildingBlock: MUDLON_clean_linker_0, # of connection points: 4
#     Node 1, Type 0, BuildingBlock: MUDLON_clean_linker_0, # of connection points: 4
#     Node 2, Type 0, BuildingBlock: MUDLON_clean_linker_0, # of connection points: 4
#     Node 3, Type 0, BuildingBlock: MUDLON_clean_linker_0, # of connection points: 4
#     Node 4, Type 0, BuildingBlock: MUDLON_clean_linker_0, # of connection points: 4
#     Node 5, Type 0, BuildingBlock: MUDLON_clean_linker_0, # of connection points: 4
#     Node 6, Type 0, BuildingBlock: MUDLON_clean_linker_0, # of connection points: 4
#     Node 7, Type 0, BuildingBlock: MUDLON_clean_linker_0, # of connection points: 4
#     Node 8, Type 1, BuildingBlock: VETTIZ_charged_sbu_0, # of connection points: 8
#     Node 9, Type 1, BuildingBlock: VETTIZ_charged_sbu_0, # of connection points: 8
#     Node 10, Type 1, BuildingBlock: VETTIZ_charged_sbu_0, # of connection points: 8
#     Node 11, Type 1, BuildingBlock: VETTIZ_charged_sbu_0, # of connection points: 8
#     Edge 12, Type (0, 1), BuildingBlock: XUDNAN_clean_linker_2, # of connection points: 2
#     Edge 13, Type (0, 1), BuildingBlock: XUDNAN_clean_linker_2, # of connection points: 2
#     Edge 14, Type (0, 1), BuildingBlock: XUDNAN_clean_linker_2, # of connection points: 2
#     Edge 15, Type (0, 1), BuildingBlock: XUDNAN_clean_linker_2, # of connection points: 2
#     Edge 16, Type (0, 1), BuildingBlock: XUDNAN_clean_linker_2, # of connection points: 2
#     Edge 17, Type (0, 1), BuildingBlock: XUDNAN_clean_linker_2, # of connection points: 2
#     Edge 18, Type (0, 1), BuildingBlock: XUDNAN_clean_linker_2, # of connection points: 2
#     Edge 19, Type (0, 1), BuildingBlock: XUDNAN_clean_linker_2, # of connection points: 2
#     Edge 20, Type (0, 1), BuildingBlock: XUDNAN_clean_linker_2, # of connection points: 2
#     Edge 21, Type (0, 1), BuildingBlock: XUDNAN_clean_linker_2, # of connection points: 2
#     Edge 22, Type (0, 1), BuildingBlock: XUDNAN_clean_linker_2, # of connection points: 2
#     Edge 23, Type (0, 1), BuildingBlock: XUDNAN_clean_linker_2, # of connection points: 2
#     Edge 24, Type (0, 1), BuildingBlock: XUDNAN_clean_linker_2, # of connection points: 2
#     Edge 25, Type (0, 1), BuildingBlock: XUDNAN_clean_linker_2, # of connection points: 2
#     Edge 26, Type (0, 1), BuildingBlock: XUDNAN_clean_linker_2, # of connection points: 2
#     Edge 27, Type (0, 1), BuildingBlock: XUDNAN_clean_linker_2, # of connection points: 2
#     Edge 28, Type (0, 1), BuildingBlock: XUDNAN_clean_linker_2, # of connection points: 2
#     Edge 29, Type (0, 1), BuildingBlock: XUDNAN_clean_linker_2, # of connection points: 2
#     Edge 30, Type (0, 1), BuildingBlock: XUDNAN_clean_linker_2, # of connection points: 2
#     Edge 31, Type (0, 1), BuildingBlock: XUDNAN_clean_linker_2, # of connection points: 2
#     Edge 32, Type (0, 1), BuildingBlock: XUDNAN_clean_linker_2, # of connection points: 2
#     Edge 33, Type (0, 1), BuildingBlock: XUDNAN_clean_linker_2, # of connection points: 2
#     Edge 34, Type (0, 1), BuildingBlock: XUDNAN_clean_linker_2, # of connection points: 2
#     Edge 35, Type (0, 1), BuildingBlock: XUDNAN_clean_linker_2, # of connection points: 2
#     Edge 36, Type (0, 1), BuildingBlock: XUDNAN_clean_linker_2, # of connection points: 2
#     Edge 37, Type (0, 1), BuildingBlock: XUDNAN_clean_linker_2, # of connection points: 2
#     Edge 38, Type (0, 1), BuildingBlock: XUDNAN_clean_linker_2, # of connection points: 2
#     Edge 39, Type (0, 1), BuildingBlock: XUDNAN_clean_linker_2, # of connection points: 2
#     Edge 40, Type (0, 1), BuildingBlock: XUDNAN_clean_linker_2, # of connection points: 2
#     Edge 41, Type (0, 1), BuildingBlock: XUDNAN_clean_linker_2, # of connection points: 2
#     Edge 42, Type (0, 1), BuildingBlock: XUDNAN_clean_linker_2, # of connection points: 2
#     Edge 43, Type (0, 1), BuildingBlock: XUDNAN_clean_linker_2, # of connection points: 2
# Relax obj value: 0.165
# Max RMSD: 0.286
# Mean RMSD: 0.211
data_MOF--net-sqc--node1-VETTIZ_charged_sbu_0--node2-MUDLON_clean_linker_0--edge1-XUDNAN_clean_linker_2
_symmetry_space_group_name_H-M    P1
_symmetry_Int_Tables_number       1
_symmetry_cell_setting            triclinic
loop_
_symmetry_equiv_pos_as_xyz
'x, y, z'
_cell_length_a     31.994011
_cell_length_b     32.072527
_cell_length_c     87.325385
_cell_angle_alpha  89.913414
_cell_angle_beta   90.020662
_cell_angle_gamma 89.924923
loop_
_atom_site_label
_atom_site_type_symbol
_atom_site_fract_x
_atom_site_fract_y
_atom_site_fract_z
_atom_type_partial_charge
H0 H 0.82642 0.08844 0.53261 0.0
N1 N 0.86433 0.01187 0.53451 0.0
H2 H 0.79381 0.12678 0.5535 0.0
H3 H 0.86251 0.99102 0.56402 0.0
H4 H 0.82962 0.02946 0.58515 0.0
H5 H 0.85367 0.05973 0.50875 0.0
H6 H 0.80411 0.04651 0.48788 0.0
H7 H 0.81434 0.94682 0.53123 0.0
H8 H 0.76612 0.93231 0.51025 0.0
H9 H 0.92044 0.95385 0.5277 0.0
H10 H 0.90606 0.08672 0.53289 0.0
H11 H 0.9948 0.96314 0.52252 0.0
H12 H 0.98051 0.09617 0.52903 0.0
H13 H 0.21483 0.12617 0.52294 0.0
H14 H 0.25105 0.15323 0.54558 0.0
H15 H 0.21119 0.04559 0.57147 0.0
H16 H 0.17551 0.01867 0.54887 0.0
H17 H 0.19035 0.07109 0.49147 0.0
H18 H 0.23161 0.02789 0.47404 0.0
H19 H 0.24759 0.93626 0.50993 0.0
H20 H 0.20694 0.9802 0.52733 0.0
H21 H 0.13224 0.98655 0.5316 0.0
H22 H 0.05735 0.97699 0.53439 0.0
H23 H 0.03629 0.09636 0.51246 0.0
N24 N 0.17178 0.05597 0.52048 0.0
H25 H 0.11178 0.10694 0.51101 0.0
C26 C 0.84642 0.03637 0.54672 0.0
C27 C 0.82731 0.07519 0.54399 0.0
C28 C 0.80869 0.09717 0.55597 0.0
C29 C 0.80888 0.08098 0.57095 0.0
C30 C 0.82922 0.04286 0.57376 0.0
C31 C 0.84773 0.02077 0.56172 0.0
C32 C 0.83725 0.00429 0.52161 0.0
C33 C 0.83448 0.03198 0.50914 0.0
C34 C 0.80632 0.02423 0.49717 0.0
C35 C 0.78064 0.98862 0.49745 0.0
C36 C 0.78449 0.96062 0.50981 0.0
C37 C 0.81229 0.96856 0.52176 0.0
C38 C 0.90773 0.01926 0.53096 0.0
C39 C 0.93349 0.985 0.52784 0.0
C40 C 0.97612 0.99042 0.52505 0.0
C41 C 0.99421 0.0304 0.52559 0.0
C42 C 0.96796 0.06491 0.52834 0.0
C43 C 0.92513 0.0595 0.53078 0.0
C44 C 0.19226 0.07066 0.53415 0.0
C45 C 0.21392 0.10852 0.53352 0.0
C46 C 0.23461 0.12381 0.54642 0.0
C47 C 0.23382 0.10152 0.56029 0.0
C48 C 0.21186 0.06366 0.56098 0.0
C49 C 0.19151 0.04817 0.548 0.0
C50 C 0.19563 0.029 0.51063 0.0
C51 C 0.20272 0.04161 0.49551 0.0
C52 C 0.22604 0.01673 0.48557 0.0
C53 C 0.24277 0.97847 0.49056 0.0
C54 C 0.23546 0.96571 0.50576 0.0
C55 C 0.212 0.9907 0.51571 0.0
C56 C 0.12759 0.04805 0.52143 0.0
C57 C 0.11159 0.01096 0.52763 0.0
C58 C 0.06844 0.00524 0.52896 0.0
C59 C 0.04028 0.03596 0.52372 0.0
C60 C 0.05668 0.0724 0.51701 0.0
C61 C 0.09984 0.07843 0.51602 0.0
H62 H 0.25381 0.61803 0.79986 0.0
N63 N 0.20801 0.62409 0.77327 0.0
H64 H 0.23365 0.58002 0.82308 0.0
H65 H 0.13742 0.58347 0.7785 0.0
H66 H 0.11752 0.54466 0.80157 0.0
H67 H 0.17623 0.60432 0.74616 0.0
H68 H 0.20411 0.55506 0.72743 0.0
H69 H 0.28229 0.58208 0.77542 0.0
H70 H 0.31236 0.53578 0.75636 0.0
H71 H 0.28801 0.6529 0.7781 0.0
H72 H 0.16045 0.6915 0.77081 0.0
H73 H 0.30948 0.72546 0.78012 0.0
H74 H 0.18158 0.76457 0.77315 0.0
H75 H 0.31577 0.96554 0.81076 0.0
H76 H 0.27191 1.00057 0.82989 0.0
H77 H 0.16142 0.96125 0.80549 0.0
H78 H 0.20528 0.92714 0.7863 0.0
H79 H 0.24447 0.96332 0.76444 0.0
H80 H 0.2715 0.00798 0.74387 0.0
H81 H 0.39699 0.98906 0.76053 0.0
H82 H 0.37006 0.94261 0.78068 0.0
H83 H 0.32061 0.8572 0.80127 0.0
H84 H 0.30213 0.7838 0.79763 0.0
H85 H 0.22104 0.81862 0.76014 0.0
N86 N 0.29101 0.923 0.78634 0.0
H87 H 0.2389 0.89152 0.76406 0.0
C88 C 0.19678 0.60389 0.78745 0.0
C89 C 0.22376 0.60272 0.80019 0.0
C90 C 0.21223 0.58103 0.81347 0.0
C91 C 0.17408 0.55944 0.81408 0.0
C92 C 0.14719 0.56089 0.80137 0.0
C93 C 0.15841 0.58306 0.78824 0.0
C94 C 0.22739 0.59749 0.76203 0.0
C95 C 0.20608 0.5895 0.74834 0.0
C96 C 0.22229 0.56147 0.73761 0.0
C97 C 0.26068 0.54113 0.74026 0.0
C98 C 0.28237 0.54998 0.75394 0.0
C99 C 0.26563 0.57731 0.76479 0.0
C100 C 0.22239 0.66663 0.77421 0.0
C101 C 0.26452 0.67685 0.77688 0.0
C102 C 0.2768 0.71856 0.77815 0.0
C103 C 0.24729 0.75092 0.77679 0.0
C104 C 0.20526 0.74052 0.77402 0.0
C105 C 0.19305 0.69883 0.77277 0.0
C106 C 0.26398 0.94337 0.79722 0.0
C107 C 0.28209 0.9646 0.80956 0.0
C108 C 0.25706 0.98459 0.82042 0.0
C109 C 0.2133 0.98331 0.81921 0.0
C110 C 0.19508 0.96218 0.80681 0.0
C111 C 0.22017 0.94273 0.79581 0.0
C112 C 0.3055 0.94879 0.7739 0.0
C113 C 0.27784 0.96786 0.76347 0.0
C114 C 0.29321 0.99362 0.75181 0.0
C115 C 0.33621 1.00165 0.75069 0.0
C116 C 0.36371 0.98314 0.76121 0.0
C117 C 0.34844 0.95665 0.77263 0.0
C118 C 0.28148 0.87998 0.78297 0.0
C119 C 0.29917 0.84882 0.79218 0.0
C120 C 0.28867 0.80693 0.79004 0.0
C121 C 0.26003 0.79529 0.7786 0.0
C122 C 0.24279 0.82653 0.76919 0.0
C123 C 0.25334 0.86842 0.77134 0.0
H124 H 0.6832 0.04498 0.05417 0.0
N125 N 0.65023 1.0019 0.03116 0.0
H126 H 0.73153 0.01949 0.07389 0.0
H127 H 0.67212 0.92077 0.03602 0.0
H128 H 0.72024 0.89483 0.05573 0.0
H129 H 0.67878 0.94928 0.00904 0.0
H130 H 0.72565 0.96788 0.98776 0.0
H131 H 0.67398 0.0779 0.02292 0.0
H132 H 0.72008 0.09698 1.00169 0.0
H133 H 0.59137 0.05785 0.03748 0.0
H134 H 0.6092 0.93183 0.02198 0.0
H135 H 0.51573 0.0505 0.0345 0.0
H136 H 0.5335 0.92312 0.01961 0.0
H137 H 0.29894 0.02677 0.03555 0.0
H138 H 0.24548 0.01202 0.05437 0.0
H139 H 0.27011 0.87986 0.04965 0.0
H140 H 0.32113 0.89529 0.02961 0.0
H141 H 0.27962 0.95036 0.99787 0.0
H142 H 0.23798 0.99828 0.98213 0.0
H143 H 0.31422 0.10107 0.99736 0.0
H144 H 0.355 0.05337 0.0134 0.0
H145 H 0.37925 0.01469 0.04015 0.0
H146 H 0.45451 0.02021 0.04421 0.0
H147 H 0.4759 0.94268 1.0045 0.0
N148 N 0.33962 0.96963 0.01764 0.0
H149 H 0.40041 0.93582 1.00103 0.0
C150 C 0.67373 0.9848 0.04377 0.0
C151 C 0.69061 0.01205 0.05466 0.0
C152 C 0.71848 0.99749 0.0658 0.0
C153 C 0.72993 0.95515 0.06634 0.0
C154 C 0.71177 0.92754 0.05572 0.0
C155 C 0.68416 0.94228 0.04446 0.0
C156 C 0.67317 0.01236 0.01754 0.0
C157 C 0.68727 0.98159 0.00732 0.0
C158 C 0.71394 0.99228 0.99517 0.0
C159 C 0.72704 0.03382 0.99316 0.0
C160 C 0.71123 0.0646 1.00307 0.0
C161 C 0.68466 0.0539 0.01512 0.0
C162 C 0.6058 0.99538 0.0301 0.0
C163 C 0.57874 0.02833 0.03366 0.0
C164 C 0.53544 0.02389 0.03202 0.0
C165 C 0.51806 0.98611 0.02684 0.0
C166 C 0.5455 0.95289 0.02343 0.0
C167 C 0.58892 0.95757 0.02495 0.0
C168 C 0.31373 0.96199 0.03093 0.0
C169 C 0.29299 0.9946 0.03857 0.0
C170 C 0.26241 0.98596 0.04953 0.0
C171 C 0.25264 0.94453 0.0536 0.0
C172 C 0.27548 0.91211 0.04659 0.0
C173 C 0.30533 0.92081 0.0353 0.0
C174 C 0.32076 0.99789 0.00669 0.0
C175 C 0.28783 0.9831 0.99758 0.0
C176 C 0.26386 0.01051 0.98875 0.0
C177 C 0.27278 0.05335 0.98862 0.0
C178 C 0.30685 0.06812 0.99721 0.0
C179 C 0.33037 0.04076 0.0063 0.0
C180 C 0.38403 0.9743 0.02034 0.0
C181 C 0.40006 0.99854 0.03241 0.0
C182 C 0.44336 1.00199 0.03462 0.0
C183 C 0.47173 0.98179 0.02472 0.0
C184 C 0.45536 0.95799 0.01258 0.0
C185 C 0.41214 0.95428 0.01048 0.0
H186 H 0.28824 0.46398 0.28462 0.0
N187 N 0.21212 0.4278 0.28978 0.0
H188 H 0.33311 0.49721 0.30377 0.0
H189 H 0.19882 0.43348 0.31975 0.0
H190 H 0.2434 0.46679 0.33902 0.0
H191 H 0.2428 0.41779 0.26044 0.0
H192 H 0.22464 0.4599 0.23802 0.0
H193 H 0.16324 0.49483 0.28856 0.0
H194 H 0.14642 0.5381 0.26617 0.0
H195 H 0.15174 0.37095 0.29118 0.0
H196 H 0.2841 0.38444 0.28368 0.0
H197 H 0.15842 0.29514 0.2888 0.0
H198 H 0.29149 0.30893 0.28187 0.0
H199 H 0.2188 0.09935 0.3119 0.0
H200 H 0.2564 0.0632 0.33243 0.0
H201 H 0.36575 0.05541 0.30361 0.0
H202 H 0.32808 0.09241 0.2832 0.0
H203 H 0.26672 0.07704 0.25781 0.0
H204 H 0.2232 0.02647 0.24435 0.0
H205 H 0.12385 0.04767 0.277 0.0
H206 H 0.16844 0.09736 0.29063 0.0
H207 H 0.19406 0.1607 0.30147 0.0
H208 H 0.18506 0.23615 0.30238 0.0
H209 H 0.27656 0.24997 0.26631 0.0
N210 N 0.24909 0.11763 0.28338 0.0
H211 H 0.28637 0.17427 0.26595 0.0
C212 C 0.23994 0.44661 0.30079 0.0
C213 C 0.2783 0.46443 0.29647 0.0
C214 C 0.30384 0.48349 0.30742 0.0
C215 C 0.29175 0.48475 0.32292 0.0
C216 C 0.25382 0.466 0.32722 0.0
C217 C 0.22821 0.44721 0.31625 0.0
C218 C 0.20363 0.4526 0.27625 0.0
C219 C 0.2215 0.44368 0.26187 0.0
C220 C 0.21129 0.4679 0.24903 0.0
C221 C 0.18417 0.50219 0.2504 0.0
C222 C 0.16759 0.51197 0.26484 0.0
C223 C 0.17698 0.4872 0.27758 0.0
C224 C 0.21726 0.38337 0.28772 0.0
C225 C 0.18223 0.35747 0.28904 0.0
C226 C 0.18623 0.31415 0.2878 0.0
C227 C 0.22556 0.2957 0.28524 0.0
C228 C 0.26062 0.3219 0.28368 0.0
C229 C 0.25653 0.36523 0.28485 0.0
C230 C 0.27095 0.09903 0.29607 0.0
C231 C 0.25108 0.09074 0.31009 0.0
C232 C 0.27258 0.06998 0.32182 0.0
C233 C 0.31397 0.05649 0.3196 0.0
C234 C 0.3338 0.06523 0.3056 0.0
C235 C 0.31249 0.08647 0.29399 0.0
C236 C 0.2208 0.09112 0.27509 0.0
C237 C 0.23535 0.07106 0.26191 0.0
C238 C 0.21027 0.0423 0.25422 0.0
C239 C 0.16979 0.03301 0.25952 0.0
C240 C 0.15497 0.05372 0.27267 0.0
C241 C 0.18029 0.08247 0.28041 0.0
C242 C 0.24124 0.16184 0.28369 0.0
C243 C 0.21222 0.17984 0.29378 0.0
C244 C 0.20685 0.22318 0.29419 0.0
C245 C 0.23019 0.2494 0.28446 0.0
C246 C 0.25858 0.23099 0.27417 0.0
C247 C 0.26404 0.18773 0.27384 0.0
H248 H 0.85428 0.04465 0.31456 0.0
N249 N 0.82002 0.09417 0.2936 0.0
H250 H 0.81875 0.99837 0.33263 0.0
H251 H 0.73536 0.08769 0.29762 0.0
H252 H 0.6993 0.04193 0.31582 0.0
H253 H 0.76093 0.07743 0.27177 0.0
H254 H 0.76925 0.03231 0.24956 0.0
H255 H 0.88987 0.05778 0.2839 0.0
H256 H 0.89813 0.0102 0.2623 0.0
H257 H 0.81488 0.14608 0.3176 0.0
H258 H 0.80408 0.14488 0.26823 0.0
H259 H 0.79976 0.2206 0.31764 0.0
H260 H 0.78951 0.21876 0.26837 0.0
H261 H 0.80698 0.43519 0.31467 0.0
H262 H 0.78197 0.48227 0.33468 0.0
H263 H 0.65559 0.46706 0.31816 0.0
H264 H 0.68114 0.42057 0.29801 0.0
H265 H 0.7318 0.4488 0.26834 0.0
H266 H 0.77141 0.49713 0.25227 0.0
H267 H 0.88523 0.45987 0.27525 0.0
H268 H 0.84502 0.41238 0.29147 0.0
H269 H 0.81603 0.36203 0.30996 0.0
H270 H 0.83007 0.28702 0.31041 0.0
H271 H 0.73616 0.26856 0.2755 0.0
N272 N 0.76001 0.40263 0.29134 0.0
H273 H 0.72307 0.34376 0.27495 0.0
C274 C 0.79762 0.06963 0.30481 0.0
C275 C 0.82044 0.0444 0.3149 0.0
C276 C 0.80002 0.0181 0.32524 0.0
C277 C 0.75609 0.0164 0.32572 0.0
C278 C 0.73315 0.04206 0.31565 0.0
C279 C 0.75368 0.06841 0.30528 0.0
C280 C 0.82507 0.07152 0.27939 0.0
C281 C 0.79117 0.06352 0.26958 0.0
C282 C 0.79596 0.03718 0.25694 0.0
C283 C 0.83433 0.0169 0.25408 0.0
C284 C 0.8683 0.02558 0.26384 0.0
C285 C 0.86367 0.0527 0.27627 0.0
C286 C 0.80893 0.13831 0.29306 0.0
C287 C 0.8086 0.1614 0.30678 0.0
C288 C 0.80044 0.2043 0.3068 0.0
C289 C 0.79294 0.22576 0.29302 0.0
C290 C 0.79406 0.20311 0.27924 0.0
C291 C 0.80229 0.16019 0.27921 0.0
C292 C 0.74577 0.42428 0.30483 0.0
C293 C 0.77381 0.4412 0.31556 0.0
C294 C 0.75943 0.46822 0.32701 0.0
C295 C 0.71681 0.47892 0.32792 0.0
C296 C 0.6887 0.46015 0.31763 0.0
C297 C 0.7031 0.4332 0.30622 0.0
C298 C 0.78533 0.42693 0.28102 0.0
C299 C 0.76538 0.45071 0.26971 0.0
C300 C 0.78816 0.47819 0.26052 0.0
C301 C 0.8316 0.48251 0.26246 0.0
C302 C 0.85177 0.45776 0.27358 0.0
C303 C 0.82885 0.43027 0.28279 0.0
C304 C 0.76837 0.35851 0.29238 0.0
C305 C 0.79844 0.34189 0.30243 0.0
C306 C 0.80626 0.29884 0.30273 0.0
C307 C 0.78431 0.27158 0.29297 0.0
C308 C 0.75411 0.28852 0.28302 0.0
C309 C 0.74634 0.33144 0.28275 0.0
H310 H 0.70423 0.94653 0.82308 0.0
N311 N 0.71293 0.92946 0.79332 0.0
H312 H 0.74154 1.00007 0.83786 0.0
H313 H 0.7821 0.97262 0.78397 0.0
H314 H 0.81915 0.02587 0.79856 0.0
H315 H 0.7395 0.92159 0.76346 0.0
H316 H 0.71657 0.96321 0.74172 0.0
H317 H 0.65225 0.98607 0.79264 0.0
H318 H 0.63135 0.03028 0.77129 0.0
H319 H 0.66208 0.86398 0.79312 0.0
H320 H 0.79207 0.89716 0.78882 0.0
H321 H 0.68001 0.79058 0.78942 0.0
H322 H 0.81056 0.82418 0.78606 0.0
H323 H 0.74137 0.58839 0.80018 0.0
H324 H 0.76079 0.54155 0.82099 0.0
H325 H 0.89124 0.56589 0.81202 0.0
H326 H 0.87142 0.61302 0.79109 0.0
H327 H 0.83822 0.59942 0.75683 0.0
H328 H 0.81388 0.55244 0.73671 0.0
H329 H 0.69008 0.55447 0.75665 0.0
H330 H 0.71433 0.60372 0.77595 0.0
H331 H 0.72913 0.65877 0.79733 0.0
H332 H 0.7101 0.73172 0.80062 0.0
H333 H 0.80928 0.76738 0.76961 0.0
N334 N 0.79509 0.62835 0.78051 0.0
H335 H 0.82953 0.69424 0.76721 0.0
C336 C 0.74007 0.95566 0.80242 0.0
C337 C 0.72997 0.9631 0.81781 0.0
C338 C 0.75126 0.99364 0.82622 0.0
C339 C 0.78283 0.01754 0.81929 0.0
C340 C 0.79451 0.00839 0.80413 0.0
C341 C 0.77349 0.97775 0.7958 0.0
C342 C 0.69714 0.95027 0.77976 0.0
C343 C 0.71503 0.9444 0.76519 0.0
C344 C 0.70226 0.9689 0.75275 0.0
C345 C 0.67222 1.00074 0.75461 0.0
C346 C 0.65387 0.00578 0.76916 0.0
C347 C 0.66595 0.98063 0.78148 0.0
C348 C 0.72546 0.88631 0.79147 0.0
C349 C 0.69455 0.85536 0.79158 0.0
C350 C 0.70498 0.81331 0.78956 0.0
C351 C 0.74688 0.80098 0.7875 0.0
C352 C 0.77789 0.83219 0.78737 0.0
C353 C 0.76733 0.8743 0.78917 0.0
C354 C 0.80507 0.60466 0.79409 0.0
C355 C 0.77411 0.58457 0.80284 0.0
C356 C 0.78526 0.55762 0.81479 0.0
C357 C 0.82755 0.54981 0.81812 0.0
C358 C 0.85838 0.57088 0.80963 0.0
C359 C 0.84717 0.59806 0.79778 0.0
C360 C 0.7783 0.60466 0.76794 0.0
C361 C 0.80566 0.59023 0.75661 0.0
C362 C 0.79173 0.56292 0.74524 0.0
C363 C 0.75006 0.54883 0.74509 0.0
C364 C 0.72228 0.56469 0.75621 0.0
C365 C 0.73617 0.59262 0.76743 0.0
C366 C 0.78139 0.67098 0.7822 0.0
C367 C 0.74704 0.68217 0.79135 0.0
C368 C 0.73586 0.72419 0.79308 0.0
C369 C 0.75824 0.75596 0.78548 0.0
C370 C 0.79184 0.74425 0.77599 0.0
C371 C 0.8033 0.70235 0.77446 0.0
H372 H 0.27639 0.55904 1.00467 0.0
N373 N 0.3376 0.54223 0.02441 0.0
H374 H 0.23624 0.50952 0.98925 0.0
H375 H 0.35267 0.45858 0.02183 0.0
H376 H 0.31397 0.40906 0.00608 0.0
H377 H 0.29553 0.4876 0.04321 0.0
H378 H 0.25196 0.50605 0.06492 0.0
H379 H 0.3343 0.61563 0.03864 0.0
H380 H 0.29395 0.63393 0.06131 0.0
H381 H 0.38058 0.59425 0.00686 0.0
H382 H 0.39564 0.49693 0.04036 0.0
H383 H 0.45628 0.60077 1.00459 0.0
H384 H 0.47197 0.50157 0.03772 0.0
H385 H 0.68894 0.62146 0.99182 0.0
H386 H 0.73712 0.59186 0.97309 0.0
H387 H 0.70937 0.46836 0.99041 0.0
H388 H 0.65836 0.49831 0.00788 0.0
H389 H 0.68337 0.51985 0.0315 0.0
H390 H 0.7374 0.52876 0.05051 0.0
H391 H 0.72301 0.66279 0.04721 0.0
H392 H 0.67184 0.65302 0.02674 0.0
H393 H 0.58962 0.58125 0.99206 0.0
H394 H 0.51523 0.56775 0.9946 0.0
H395 H 0.53204 0.54318 0.04286 0.0
N396 N 0.64808 0.58142 0.01391 0.0
H397 H 0.60665 0.55451 0.04017 0.0
C398 C 0.31755 0.51268 0.01434 0.0
C399 C 0.28497 0.52637 1.00485 0.0
C400 C 0.26226 0.49801 0.99597 0.0
C401 C 0.27172 0.45515 0.99642 0.0
C402 C 0.30539 0.4417 0.0056 0.0
C403 C 0.32793 0.47009 0.01452 0.0
C404 C 0.31767 0.55051 0.03898 0.0
C405 C 0.29543 0.51964 0.04705 0.0
C406 C 0.27061 0.5303 0.05969 0.0
C407 C 0.26829 0.57186 0.06489 0.0
C408 C 0.29325 0.60191 0.05743 0.0
C409 C 0.31708 0.59143 0.04456 0.0
C410 C 0.38257 0.54503 0.02365 0.0
C411 C 0.40046 0.57402 0.01363 0.0
C412 C 0.44384 0.57733 0.01226 0.0
C413 C 0.47067 0.55126 0.02079 0.0
C414 C 0.45253 0.52234 0.03101 0.0
C415 C 0.40888 0.51936 0.03246 0.0
C416 C 0.6707 0.56229 1.00142 0.0
C417 C 0.69258 0.58793 0.99121 0.0
C418 C 0.72069 0.57084 0.98069 0.0
C419 C 0.72846 0.52758 0.98039 0.0
C420 C 0.70451 0.50173 0.9901 0.0
C421 C 0.6755 0.51885 1.00031 0.0
C422 C 0.67397 0.58588 0.02741 0.0
C423 C 0.69197 0.55117 0.03474 0.0
C424 C 0.72274 0.55648 0.04591 0.0
C425 C 0.7354 0.59666 0.05053 0.0
C426 C 0.71538 0.63133 0.04376 0.0
C427 C 0.68542 0.6259 0.03223 0.0
C428 C 0.60475 0.56849 0.01574 0.0
C429 C 0.5776 0.57199 1.00315 0.0
C430 C 0.53471 0.56484 1.00468 0.0
C431 C 0.51715 0.55489 0.019 0.0
C432 C 0.54427 0.55035 0.03161 0.0
C433 C 0.58744 0.55705 0.03003 0.0
H434 H 0.20939 0.54877 0.54633 0.0
N435 N 0.17472 0.49531 0.52539 0.0
H436 H 0.25493 0.52971 0.56776 0.0
H437 H 0.19506 0.41906 0.53475 0.0
H438 H 0.23999 0.39955 0.55631 0.0
H439 H 0.2342 0.47819 0.50509 0.0
H440 H 0.27318 0.52701 0.48907 0.0
H441 H 0.16049 0.57962 0.52293 0.0
H442 H 0.19709 0.62822 0.50627 0.0
H443 H 0.1324 0.5391 0.54758 0.0
H444 H 0.11601 0.46134 0.50784 0.0
H445 H 0.05693 0.54423 0.55056 0.0
H446 H 0.04006 0.46775 0.5103 0.0
H447 H 0.83252 0.56808 0.55982 0.0
H448 H 0.78697 0.54179 0.58017 0.0
H449 H 0.79928 0.41722 0.56187 0.0
H450 H 0.84384 0.44414 0.54141 0.0
H451 H 0.83652 0.46891 0.51524 0.0
H452 H 0.78676 0.48235 0.49438 0.0
H453 H 0.7866 0.61324 0.50604 0.0
H454 H 0.83544 0.59923 0.52698 0.0
H455 H 0.92158 0.58253 0.54207 0.0
H456 H 0.99735 0.57546 0.53948 0.0
H457 H 0.98118 0.44749 0.52512 0.0
N458 N 0.86354 0.52575 0.5363 0.0
H459 H 0.90536 0.45575 0.52715 0.0
C460 C 0.19893 0.48518 0.53887 0.0
C461 C 0.21563 0.51613 0.54851 0.0
C462 C 0.24157 0.50516 0.56081 0.0
C463 C 0.25145 0.4631 0.5637 0.0
C464 C 0.23367 0.43227 0.55427 0.0
C465 C 0.20774 0.44327 0.54202 0.0
C466 C 0.19428 0.52493 0.51515 0.0
C467 C 0.22586 0.51092 0.50529 0.0
C468 C 0.24788 0.53895 0.49603 0.0
C469 C 0.23851 0.58186 0.49629 0.0
C470 C 0.20589 0.59564 0.50591 0.0
C471 C 0.18442 0.56766 0.51537 0.0
C472 C 0.13005 0.49934 0.52752 0.0
C473 C 0.11262 0.52305 0.53947 0.0
C474 C 0.0692 0.52632 0.54107 0.0
C475 C 0.04208 0.50642 0.53068 0.0
C476 C 0.05974 0.48292 0.5187 0.0
C477 C 0.10317 0.47944 0.51719 0.0
C478 C 0.8417 0.50816 0.54918 0.0
C479 C 0.82587 0.53501 0.56041 0.0
C480 C 0.79992 0.51987 0.57203 0.0
C481 C 0.7892 0.47737 0.57264 0.0
C482 C 0.80633 0.45023 0.56162 0.0
C483 C 0.83224 0.46549 0.54998 0.0
C484 C 0.83936 0.53321 0.52269 0.0
C485 C 0.82615 0.50051 0.51315 0.0
C486 C 0.79781 0.50826 0.50121 0.0
C487 C 0.78221 0.54875 0.49871 0.0
C488 C 0.79729 0.58155 0.50786 0.0
C489 C 0.82545 0.57376 0.51972 0.0
C490 C 0.90795 0.51971 0.53493 0.0
C491 C 0.93457 0.553 0.53838 0.0
C492 C 0.97789 0.54872 0.537 0.0
C493 C 0.9957 0.51077 0.53218 0.0
C494 C 0.96873 0.47733 0.5287 0.0
C495 C 0.92526 0.48181 0.53 0.0
Fe496 Fe 0.99728 0.75663 0.17558 0.0
O497 O 0.02831 0.78528 0.15881 0.0
Fe498 Fe 0.90509 0.7258 0.15816 0.0
Fe499 Fe 0.08965 0.78808 0.15862 0.0
O500 O 0.96602 0.72983 0.1585 0.0
O501 O 0.9664 0.72926 0.15699 0.0
O502 O 0.02826 0.78533 0.15723 0.0
Fe503 Fe 0.99761 0.75754 0.14002 0.0
C504 C 0.05944 0.82073 0.18943 0.0
O505 O 0.03809 0.70748 0.1752 0.0
O506 O 0.09838 0.7418 0.17515 0.0
O507 O 0.96019 0.72306 0.1244 0.0
O508 O 0.91524 0.68576 0.14013 0.0
O509 O 0.91562 0.68459 0.17606 0.0
O510 O 0.96143 0.72176 0.19112 0.0
O511 O 0.09956 0.7446 0.14161 0.0
O512 O 0.04017 0.70874 0.13944 0.0
C513 C 0.93524 0.69129 0.18887 0.0
O514 O 0.95482 0.806 0.13928 0.0
O515 O 0.89521 0.77055 0.14154 0.0
O516 O 0.0338 0.78969 0.19157 0.0
O517 O 0.079 0.82808 0.17668 0.0
C518 C 0.07699 0.7091 0.17783 0.0
C519 C 0.07936 0.71256 0.13729 0.0
C520 C 0.0621 0.82295 0.12772 0.0
O521 O 0.08007 0.82927 0.14088 0.0
O522 O 0.03544 0.79301 0.12472 0.0
C523 C 0.93311 0.69326 0.12703 0.0
O524 O 0.89606 0.7707 0.17493 0.0
O525 O 0.95597 0.80553 0.17664 0.0
C526 C 0.91564 0.80226 0.13694 0.0
C527 C 0.91697 0.80256 0.17912 0.0
Fe528 Fe 0.53496 0.7702 0.44423 0.0
O529 O 0.54064 0.76431 0.42189 0.0
Fe530 Fe 0.51953 0.8142 0.40833 0.0
Fe531 Fe 0.51485 0.71751 0.41003 0.0
O532 O 0.54092 0.76859 0.42182 0.0
O533 O 0.49437 0.76759 0.39631 0.0
O534 O 0.49378 0.76341 0.39644 0.0
Fe535 Fe 0.49973 0.76332 0.37399 0.0
C536 C 0.56842 0.68331 0.4373 0.0
O537 O 0.48746 0.72766 0.44609 0.0
O538 O 0.46018 0.72063 0.42275 0.0
O539 O 0.46028 0.81437 0.3746 0.0
O540 O 0.49225 0.85617 0.39268 0.0
O541 O 0.4652 0.81855 0.42069 0.0
O542 O 0.49087 0.81746 0.44433 0.0
O543 O 0.48379 0.67492 0.3955 0.0
O544 O 0.45637 0.71602 0.3761 0.0
C545 C 0.46177 0.82614 0.4349 0.0
O546 O 0.54714 0.80702 0.37236 0.0
O547 O 0.57379 0.81224 0.39578 0.0
O548 O 0.57401 0.7194 0.44375 0.0
O549 O 0.54258 0.67583 0.426 0.0
C550 C 0.45689 0.7198 0.43729 0.0
C551 C 0.45935 0.68115 0.38369 0.0
C552 C 0.57056 0.70251 0.38314 0.0
O553 O 0.56893 0.71107 0.39736 0.0
O554 O 0.54321 0.71587 0.37374 0.0
C555 C 0.46641 0.84999 0.38134 0.0
O556 O 0.55017 0.85746 0.42272 0.0
O557 O 0.57846 0.81675 0.44199 0.0
C558 C 0.57601 0.81867 0.38144 0.0
C559 C 0.57536 0.85122 0.43426 0.0
Fe560 Fe 0.51086 0.30106 0.69497 0.0
O561 O 0.51509 0.3043 0.6725 0.0
Fe562 Fe 0.46602 0.27864 0.65951 0.0
Fe563 Fe 0.56346 0.28077 0.66076 0.0
O564 O 0.51072 0.30438 0.67242 0.0
O565 O 0.5143 0.25456 0.64798 0.0
O566 O 0.51866 0.2546 0.64804 0.0
Fe567 Fe 0.51874 0.25614 0.62561 0.0
C568 C 0.59472 0.34036 0.68651 0.0
O569 O 0.55665 0.25587 0.69736 0.0
O570 O 0.56517 0.22832 0.67416 0.0
O571 O 0.47004 0.21436 0.62729 0.0
O572 O 0.42562 0.24721 0.64433 0.0
O573 O 0.46491 0.22597 0.67306 0.0
O574 O 0.4666 0.25445 0.69624 0.0
O575 O 0.60821 0.25112 0.64666 0.0
O576 O 0.56832 0.21619 0.62873 0.0
C577 C 0.4588 0.22389 0.68743 0.0
O578 O 0.47274 0.30026 0.62297 0.0
O579 O 0.46375 0.3309 0.64558 0.0
O580 O 0.55877 0.3437 0.69333 0.0
O581 O 0.60371 0.31294 0.67593 0.0
C582 C 0.56825 0.22633 0.68862 0.0
C583 C 0.60343 0.22394 0.63566 0.0
C584 C 0.57436 0.33226 0.63281 0.0
O585 O 0.56528 0.33303 0.647 0.0
O586 O 0.56351 0.30208 0.62423 0.0
C587 C 0.43344 0.22079 0.63333 0.0
O588 O 0.42149 0.30895 0.67352 0.0
O589 O 0.46112 0.34107 0.6923 0.0
C590 C 0.45829 0.32978 0.63112 0.0
C591 C 0.42667 0.33556 0.68468 0.0
Fe592 Fe 0.97316 0.26327 0.94273 0.0
O593 O 0.97278 0.26315 0.92014 0.0
Fe594 Fe 1.00316 0.31343 0.90911 0.0
Fe595 Fe 0.99703 0.21648 0.90785 0.0
O596 O 0.97365 0.26752 0.92029 0.0
O597 O 0.02693 0.26665 0.89676 0.0
O598 O 0.02585 0.26249 0.89657 0.0
Fe599 Fe 0.02831 0.26678 0.8743 0.0
C600 C 0.04863 0.20776 0.93643 0.0
O601 O 0.93014 0.21683 0.9394 0.0
O602 O 0.96258 0.17422 0.92169 0.0
O603 O 0.98668 0.3155 0.87215 0.0
O604 O 0.95303 0.31977 0.8944 0.0
O605 O 0.97221 0.35611 0.92365 0.0
O606 O 0.93424 0.31423 0.94017 0.0
O607 O 0.94651 0.21715 0.8932 0.0
O608 O 0.97971 0.22585 0.87086 0.0
C609 C 0.94193 0.34961 0.93342 0.0
O610 O 0.07224 0.31258 0.87816 0.0
O611 O 0.03818 0.35519 0.89548 0.0
O612 O 0.0172 0.21578 0.94488 0.0
O613 O 0.04797 0.21346 0.92205 0.0
C614 C 0.93502 0.18146 0.93242 0.0
C615 C 0.94793 0.21476 0.87864 0.0
C616 C 0.05639 0.17898 0.88307 0.0
O617 O 0.02747 0.17364 0.89342 0.0
O618 O 0.06573 0.2145 0.87673 0.0
C619 C 0.95623 0.32858 0.88022 0.0
O620 O 0.05401 0.31036 0.92365 0.0
O621 O 0.02048 0.30575 0.94592 0.0
C622 C 0.0659 0.34836 0.88478 0.0
C623 C 0.05338 0.31269 0.93818 0.0
H624 H 0.31552 0.93605 0.49695 0.0
H625 H 0.22828 0.96289 0.46014 0.0
H626 H 0.27343 0.92454 0.44207 0.0
H627 H 0.40757 0.94845 0.47575 0.0
H628 H 0.43554 0.90621 0.48477 0.0
H629 H 0.39502 0.93315 0.49508 0.0
H630 H 0.35671 0.86309 0.49984 0.0
H631 H 0.3973 0.83587 0.4896 0.0
H632 H 0.34356 0.83035 0.48378 0.0
H633 H 0.32999 0.88661 0.42772 0.0
H634 H 0.39331 0.85104 0.41823 0.0
H635 H 0.44315 0.84833 0.46451 0.0
C636 C 0.30545 0.93315 0.48516 0.0
C637 C 0.26837 0.95263 0.47997 0.0
C638 C 0.2568 0.94873 0.46436 0.0
C639 C 0.28209 0.92676 0.45403 0.0
C640 C 0.31876 0.90858 0.45947 0.0
C641 C 0.33028 0.91126 0.4747 0.0
C642 C 0.37201 0.89019 0.47749 0.0
C643 C 0.40444 0.92137 0.48363 0.0
C644 C 0.36708 0.85265 0.48832 0.0
C645 C 0.38261 0.8762 0.46141 0.0
C646 C 0.35133 0.88674 0.4512 0.0
C647 C 0.35455 0.8779 0.43563 0.0
C648 C 0.39072 0.85774 0.43035 0.0
C649 C 0.42332 0.8468 0.4406 0.0
C650 C 0.41889 0.85615 0.45635 0.0
H651 H 0.37126 0.07829 0.7546 0.0
H652 H 0.33736 0.98806 0.71992 0.0
H653 H 0.36676 0.03426 0.6998 0.0
H654 H 0.34447 0.16931 0.73129 0.0
H655 H 0.38603 0.2005 0.73919 0.0
H656 H 0.36239 0.16001 0.75057 0.0
H657 H 0.43501 0.12879 0.75513 0.0
H658 H 0.46002 0.16672 0.74299 0.0
H659 H 0.46614 0.11178 0.73921 0.0
H660 H 0.40058 0.09032 0.68363 0.0
H661 H 0.4329 0.15321 0.67238 0.0
H662 H 0.44316 0.20739 0.71779 0.0
C663 C 0.37014 0.06843 0.74275 0.0
C664 C 0.35248 0.02973 0.73869 0.0
C665 C 0.35091 0.01773 0.72313 0.0
C666 C 0.36757 0.04367 0.71169 0.0
C667 C 0.38506 0.08167 0.71605 0.0
C668 C 0.38589 0.09428 0.73119 0.0
C669 C 0.40498 0.13723 0.73279 0.0
C670 C 0.37253 0.16861 0.73881 0.0
C671 C 0.44388 0.13607 0.74312 0.0
C672 C 0.41608 0.14627 0.71624 0.0
C673 C 0.40406 0.11401 0.70675 0.0
C674 C 0.41012 0.11579 0.69095 0.0
C675 C 0.42853 0.15167 0.68466 0.0
C676 C 0.4406 0.1854 0.69415 0.0
C677 C 0.4344 0.18227 0.71017 0.0
H678 H 0.18755 0.05994 0.98984 0.0
H679 H 0.29701 0.11263 0.96792 0.0
H680 H 0.25154 0.15986 0.9528 0.0
H681 H 0.12027 0.06126 0.95748 0.0
H682 H 0.0742 0.07583 0.96809 0.0
H683 H 0.11541 0.04708 0.97739 0.0
H684 H 0.12094 0.10443 0.99816 0.0
H685 H 0.0797 0.13336 0.98892 0.0
H686 H 0.12946 0.1578 0.99246 0.0
H687 H 0.19381 0.19739 0.9388 0.0
H688 H 0.12827 0.22601 0.92804 0.0
H689 H 0.05641 0.15225 0.96027 0.0
C690 C 0.20186 0.08149 0.98185 0.0
C691 C 0.24572 0.08257 0.97992 0.0
C692 C 0.26347 0.11148 0.96955 0.0
C693 C 0.2379 0.13829 0.96092 0.0
C694 C 0.19473 0.13625 0.96301 0.0
C695 C 0.17685 0.10894 0.97336 0.0
C696 C 0.12963 0.11309 0.97348 0.0
C697 C 0.10866 0.07187 0.96883 0.0
C698 C 0.11402 0.12807 0.98919 0.0
C699 C 0.12361 0.14637 0.96135 0.0
C700 C 0.16157 0.15918 0.95541 0.0
C701 C 0.16397 0.18795 0.94348 0.0
C702 C 0.12663 0.20386 0.9374 0.0
C703 C 0.08744 0.19142 0.94338 0.0
C704 C 0.08601 0.1627 0.95564 0.0
H705 H 0.16352 0.01885 0.22858 0.0
H706 H 0.11844 0.97359 0.27243 0.0
H707 H 0.08064 0.91687 0.25923 0.0
H708 H 0.07062 0.99275 0.20603 0.0
H709 H 0.10125 0.97745 0.18965 0.0
H710 H 0.12057 0.0169 0.20249 0.0
H711 H 0.18853 0.97401 0.2065 0.0
H712 H 0.1693 0.93442 0.19375 0.0
H713 H 0.18493 0.9207 0.21294 0.0
H714 H 0.05182 0.86146 0.24103 0.0
H715 H 0.03535 0.8133 0.21973 0.0
H716 H 0.10198 0.89468 0.18835 0.0
C717 C 0.14558 0.99719 0.23546 0.0
C718 C 0.14405 1.00085 0.25158 0.0
C719 C 0.11969 0.97196 0.26005 0.0
C720 C 0.09825 0.93945 0.25266 0.0
C721 C 0.10131 0.93627 0.23677 0.0
C722 C 0.12427 0.96456 0.2283 0.0
C723 C 0.12466 0.95323 0.21149 0.0
C724 C 0.10297 0.9871 0.20185 0.0
C725 C 0.16951 0.9451 0.20585 0.0
C726 C 0.09923 0.91354 0.21185 0.0
C727 C 0.08552 0.90437 0.22646 0.0
C728 C 0.06229 0.8685 0.22953 0.0
C729 C 0.05313 0.84128 0.21736 0.0
C730 C 0.06756 0.84987 0.20233 0.0
C731 C 0.09056 0.88681 0.19966 0.0
H732 H 0.31349 0.13149 0.56099 0.0
H733 H 0.20664 0.10658 0.5901 0.0
H734 H 0.24589 0.13352 0.61249 0.0
H735 H 0.39208 0.10146 0.58793 0.0
H736 H 0.42805 0.14165 0.5821 0.0
H737 H 0.39111 0.12091 0.56855 0.0
H738 H 0.363 0.19548 0.56324 0.0
H739 H 0.3999 0.21648 0.57674 0.0
H740 H 0.3449 0.22695 0.57899 0.0
H741 H 0.29725 0.16662 0.63157 0.0
H742 H 0.35685 0.19869 0.6455 0.0
H743 H 0.42923 0.19807 0.6035 0.0
C744 C 0.29822 0.13196 0.57205 0.0
C745 C 0.25699 0.11722 0.57382 0.0
C746 C 0.23834 0.11761 0.58854 0.0
C747 C 0.2603 0.13299 0.60129 0.0
C748 C 0.30097 0.14746 0.59911 0.0
C749 C 0.31972 0.14677 0.58484 0.0
C750 C 0.36379 0.16346 0.58544 0.0
C751 C 0.39562 0.12986 0.58073 0.0
C752 C 0.36813 0.20293 0.57552 0.0
C753 C 0.3671 0.17358 0.60228 0.0
C754 C 0.33056 0.16466 0.61003 0.0
C755 C 0.32615 0.17329 0.62563 0.0
C756 C 0.36005 0.19148 0.63344 0.0
C757 C 0.39787 0.20013 0.62565 0.0
C758 C 0.40114 0.19088 0.6099 0.0
H759 H 0.22108 0.06297 0.82989 0.0
H760 H 0.14533 0.95163 0.83429 0.0
H761 H 0.10025 0.98768 0.85316 0.0
H762 H 0.21429 0.09715 0.8698 0.0
H763 H 0.2109 0.1515 0.86465 0.0
H764 H 0.23908 0.11571 0.85255 0.0
H765 H 0.19332 0.13767 0.82938 0.0
H766 H 0.1652 0.17359 0.84138 0.0
H767 H 0.13722 0.13423 0.83083 0.0
H768 H 0.06207 0.03715 0.87091 0.0
H769 H 0.03053 0.09737 0.88427 0.0
H770 H 0.1307 0.17647 0.86756 0.0
C771 C 0.1954 0.046 0.83503 0.0
C772 C 0.18679 0.00446 0.83076 0.0
C773 C 0.15233 0.98353 0.83742 0.0
C774 C 0.12679 1.00364 0.84821 0.0
C775 C 0.13607 0.04472 0.85214 0.0
C776 C 0.1694 0.06573 0.84566 0.0
C777 C 0.17095 0.11061 0.85095 0.0
C778 C 0.2112 0.11923 0.86003 0.0
C779 C 0.16638 0.14079 0.83733 0.0
C780 C 0.13292 0.11181 0.86123 0.0
C781 C 0.11356 0.07338 0.86199 0.0
C782 C 0.07713 0.06733 0.87047 0.0
C783 C 0.05954 0.10169 0.87809 0.0
C784 C 0.0781 0.14168 0.87698 0.0
C785 C 0.1157 0.14636 0.86865 0.0
H786 H 0.20051 0.87525 0.05512 0.0
H787 H 0.22739 0.9923 0.07821 0.0
H788 H 0.17072 0.97841 0.09636 0.0
H789 H 0.08668 0.87206 0.06206 0.0
H790 H 0.08699 0.81685 0.06597 0.0
H791 H 0.12463 0.83884 0.05289 0.0
H792 H 0.18492 0.80713 0.06887 0.0
H793 H 0.14745 0.78531 0.08192 0.0
H794 H 0.18828 0.81869 0.08905 0.0
H795 H 0.11547 0.9506 0.11322 0.0
H796 H 0.0735 0.90589 0.13018 0.0
H797 H 0.08581 0.80344 0.09815 0.0
C798 C 0.19467 0.89818 0.06394 0.0
C799 C 0.21843 0.93546 0.06485 0.0
C800 C 0.20913 0.96424 0.07672 0.0
C801 C 0.17687 0.95659 0.08719 0.0
C802 C 0.15418 0.91977 0.08588 0.0
C803 C 0.16304 0.89069 0.07472 0.0
C804 C 0.13756 0.85128 0.07708 0.0
C805 C 0.10716 0.84437 0.0637 0.0
C806 C 0.16634 0.81339 0.07937 0.0
C807 C 0.11416 0.86216 0.09168 0.0
C808 C 0.12335 0.90244 0.09621 0.0
C809 C 0.10774 0.91918 0.10973 0.0
C810 C 0.08383 0.89356 0.11927 0.0
C811 C 0.0761 0.85138 0.11541 0.0
C812 C 0.09023 0.83588 0.10116 0.0
H813 H 0.35622 0.98328 0.31575 0.0
H814 H 0.32038 0.07335 0.35032 0.0
H815 H 0.35681 0.03126 0.3701 0.0
H816 H 0.34131 0.89292 0.33895 0.0
H817 H 0.38503 0.86503 0.33091 0.0
H818 H 0.35771 0.90324 0.31956 0.0
H819 H 0.42732 0.94249 0.31476 0.0
H820 H 0.45485 0.90433 0.32608 0.0
H821 H 0.4585 0.95885 0.33086 0.0
H822 H 0.399 0.97912 0.38599 0.0
H823 H 0.43861 0.91931 0.39676 0.0
H824 H 0.44303 0.86273 0.35171 0.0
C825 C 0.35642 0.99436 0.32747 0.0
C826 C 0.33586 0.03171 0.33152 0.0
C827 C 0.33597 0.04476 0.34701 0.0
C828 C 0.3567 0.02117 0.35829 0.0
C829 C 0.37674 0.98443 0.35388 0.0
C830 C 0.37642 0.97099 0.33884 0.0
C831 C 0.39885 0.92973 0.3371 0.0
C832 C 0.36893 0.89573 0.33129 0.0
C833 C 0.43715 0.93414 0.32658 0.0
C834 C 0.41178 0.92188 0.35351 0.0
C835 C 0.39928 0.95394 0.36303 0.0
C836 C 0.40873 0.95377 0.37864 0.0
C837 C 0.43131 0.91981 0.38465 0.0
C838 C 0.44351 0.88631 0.37509 0.0
C839 C 0.43358 0.8876 0.35934 0.0
H840 H 0.73078 0.11422 0.56919 0.0
H841 H 0.83401 0.09582 0.60067 0.0
H842 H 0.79359 0.13131 0.62112 0.0
H843 H 0.70019 0.2162 0.5825 0.0
H844 H 0.6453 0.20601 0.5798 0.0
H845 H 0.6833 0.18036 0.56787 0.0
H846 H 0.65299 0.10844 0.57578 0.0
H847 H 0.61508 0.1339 0.58779 0.0
H848 H 0.64956 0.0951 0.59581 0.0
H849 H 0.74031 0.17068 0.63809 0.0
H850 H 0.67896 0.2061 0.64981 0.0
H851 H 0.61245 0.1954 0.60669 0.0
C852 C 0.7452 0.11812 0.58032 0.0
C853 C 0.78565 0.10267 0.58331 0.0
C854 C 0.80296 0.10743 0.59816 0.0
C855 C 0.78032 0.12768 0.6098 0.0
C856 C 0.74039 0.14265 0.60641 0.0
C857 C 0.72308 0.13785 0.59201 0.0
C858 C 0.67939 0.15543 0.59121 0.0
C859 C 0.67693 0.19165 0.57966 0.0
C860 C 0.64738 0.12117 0.58743 0.0
C861 C 0.67451 0.17073 0.60744 0.0
C862 C 0.70995 0.16363 0.6161 0.0
C863 C 0.71234 0.17616 0.6314 0.0
C864 C 0.67747 0.19626 0.63797 0.0
C865 C 0.64073 0.20296 0.62925 0.0
C866 C 0.63968 0.19005 0.6138 0.0
H867 H 0.6863 0.96818 0.32042 0.0
H868 H 0.77711 0.99903 0.35556 0.0
H869 H 0.74316 0.94937 0.37322 0.0
H870 H 0.59781 0.95939 0.34582 0.0
H871 H 0.5748 0.9167 0.33542 0.0
H872 H 0.60678 0.95424 0.32553 0.0
H873 H 0.65414 0.89448 0.3156 0.0
H874 H 0.62251 0.8568 0.32559 0.0
H875 H 0.67797 0.85914 0.32911 0.0
H876 H 0.69854 0.89678 0.38725 0.0
H877 H 0.64551 0.84712 0.39672 0.0
H878 H 0.58373 0.85115 0.35244 0.0
C879 C 0.69887 0.96484 0.33187 0.0
C880 C 0.73458 0.98749 0.33654 0.0
C881 C 0.75022 0.98164 0.3516 0.0
C882 C 0.73104 0.9536 0.36175 0.0
C883 C 0.69617 0.93154 0.35672 0.0
C884 C 0.68011 0.93698 0.34215 0.0
C885 C 0.642 0.90982 0.33964 0.0
C886 C 0.60305 0.93664 0.33642 0.0
C887 C 0.64963 0.87819 0.32672 0.0
C888 C 0.63907 0.88837 0.35507 0.0
C889 C 0.67063 0.90124 0.36476 0.0
C890 C 0.67377 0.88638 0.37974 0.0
C891 C 0.6435 0.85811 0.38501 0.0
C892 C 0.61042 0.84498 0.37534 0.0
C893 C 0.60875 0.86009 0.36011 0.0
H894 H 0.72854 0.88438 0.08424 0.0
H895 H 0.80459 0.99227 0.07335 0.0
H896 H 0.85937 0.967 0.09107 0.0
H897 H 0.75677 0.87896 0.1247 0.0
H898 H 0.75682 0.82277 0.12501 0.0
H899 H 0.7231 0.85036 0.11193 0.0
H900 H 0.75532 0.80964 0.08928 0.0
H901 H 0.78963 0.78225 0.10218 0.0
H902 H 0.81101 0.81118 0.08627 0.0
H903 H 0.90784 0.92747 0.1091 0.0
H904 H 0.94461 0.87799 0.12625 0.0
H905 H 0.83584 0.79714 0.12561 0.0
C906 C 0.75668 0.90273 0.08561 0.0
C907 C 0.76218 0.94038 0.07743 0.0
C908 C 0.7994 0.9636 0.07963 0.0
C909 C 0.83079 0.94942 0.08963 0.0
C910 C 0.82443 0.9121 0.09749 0.0
C911 C 0.78812 0.88926 0.09567 0.0
C912 C 0.78914 0.84996 0.10529 0.0
C913 C 0.75439 0.85057 0.11746 0.0
C914 C 0.78611 0.81094 0.09515 0.0
C915 C 0.83197 0.85379 0.11258 0.0
C916 C 0.85188 0.88987 0.10799 0.0
C917 C 0.89234 0.8993 0.11288 0.0
C918 C 0.91302 0.871 0.12263 0.0
C919 C 0.89317 0.83373 0.12744 0.0
C920 C 0.85192 0.82549 0.12236 0.0
H921 H 0.81437 0.02239 0.84875 0.0
H922 H 0.79269 0.09554 0.80766 0.0
H923 H 0.82481 0.15666 0.81999 0.0
H924 H 0.79711 0.10807 0.87664 0.0
H925 H 0.83853 0.09072 0.88912 0.0
H926 H 0.80999 0.05342 0.87778 0.0
H927 H 0.87935 0.02688 0.86594 0.0
H928 H 0.90796 0.06384 0.87733 0.0
H929 H 0.91403 0.06355 0.85681 0.0
H930 H 0.86444 0.20752 0.8354 0.0
H931 H 0.91231 0.24468 0.85284 0.0
H932 H 0.90812 0.14069 0.88456 0.0
C933 C 0.81582 0.05152 0.84249 0.0
C934 C 0.80115 0.05421 0.82722 0.0
C935 C 0.80416 0.09264 0.81929 0.0
C936 C 0.82197 0.12765 0.82625 0.0
C937 C 0.83656 0.12394 0.84121 0.0
C938 C 0.83382 0.08692 0.84928 0.0
C939 C 0.85499 0.09076 0.8648 0.0
C940 C 0.82325 0.08543 0.87786 0.0
C941 C 0.89123 0.05941 0.8663 0.0
C942 C 0.87089 0.13531 0.86398 0.0
C943 C 0.85938 0.15391 0.85031 0.0
C944 C 0.87303 0.19365 0.84626 0.0
C945 C 0.90012 0.21453 0.85622 0.0
C946 C 0.91308 0.19583 0.87011 0.0
C947 C 0.89748 0.15614 0.87422 0.0
H948 H 0.70186 0.95658 0.5005 0.0
H949 H 0.78955 1.00096 0.4663 0.0
H950 H 0.74006 0.98072 0.44584 0.0
H951 H 0.67547 0.86646 0.48148 0.0
H952 H 0.62156 0.8664 0.48748 0.0
H953 H 0.66039 0.89131 0.49915 0.0
H954 H 0.61797 0.96026 0.49816 0.0
H955 H 0.57905 0.93549 0.48635 0.0
H956 H 0.60423 0.98257 0.47988 0.0
H957 H 0.68356 0.9476 0.42898 0.0
H958 H 0.62907 0.90133 0.41792 0.0
H959 H 0.58189 0.87652 0.46348 0.0
C960 C 0.71066 0.96246 0.48873 0.0
C961 C 0.74972 0.98032 0.48505 0.0
C962 C 0.7596 0.98784 0.46946 0.0
C963 C 0.73167 0.97639 0.45774 0.0
C964 C 0.69386 0.95774 0.46181 0.0
C965 C 0.68347 0.95094 0.47698 0.0
C966 C 0.64336 0.92648 0.47847 0.0
C967 C 0.65066 0.88523 0.48715 0.0
C968 C 0.60913 0.95279 0.48617 0.0
C969 C 0.63352 0.91904 0.46178 0.0
C970 C 0.66228 0.93808 0.45225 0.0
C971 C 0.66057 0.9331 0.43635 0.0
C972 C 0.62952 0.90699 0.43014 0.0
C973 C 0.60142 0.88574 0.4399 0.0
C974 C 0.60287 0.89285 0.45581 0.0
H975 H 0.90375 0.99718 0.23629 0.0
H976 H 0.77391 0.96276 0.2438 0.0
H977 H 0.7799 0.90898 0.22397 0.0
H978 H 0.90702 0.9775 0.19522 0.0
H979 H 0.95885 0.95543 0.19577 0.0
H980 H 0.94379 0.99433 0.20958 0.0
H981 H 0.96386 0.94407 0.23167 0.0
H982 H 0.97912 0.9054 0.21785 0.0
H983 H 0.94102 0.89272 0.23232 0.0
H984 H 0.80002 0.8566 0.20427 0.0
H985 H 0.83414 0.80677 0.18686 0.0
H986 H 0.95215 0.87169 0.19292 0.0
C987 C 0.87647 0.97844 0.23382 0.0
C988 C 0.83808 0.9851 0.2416 0.0
C989 C 0.80334 0.95961 0.23781 0.0
C990 C 0.80647 0.92856 0.2266 0.0
C991 C 0.84466 0.92281 0.21928 0.0
C992 C 0.87918 0.94679 0.22277 0.0
C993 C 0.9172 0.93246 0.21377 0.0
C994 C 0.9326 0.96699 0.20294 0.0
C995 C 0.95235 0.91778 0.22455 0.0
C996 C 0.89867 0.89627 0.20489 0.0
C997 C 0.85667 0.89166 0.20812 0.0
C998 C 0.83288 0.85996 0.2016 0.0
C999 C 0.85261 0.83177 0.19171 0.0
C1000 C 0.89589 0.83513 0.18845 0.0
C1001 C 0.91898 0.86829 0.19504 0.0
H1002 H 0.79461 0.0841 0.99712 0.0
H1003 H 0.73174 0.00943 0.96282 0.0
H1004 H 0.78333 0.03285 0.94337 0.0
H1005 H 0.8137 0.17047 0.97399 0.0
H1006 H 0.86379 0.18205 0.98241 0.0
H1007 H 0.82459 0.15565 0.99351 0.0
H1008 H 0.87667 0.09528 0.99887 0.0
H1009 H 0.91602 0.12147 0.98768 0.0
H1010 H 0.90117 0.06879 0.98304 0.0
H1011 H 0.84013 0.07077 0.92714 0.0
H1012 H 0.89314 0.11956 0.91638 0.0
H1013 H 0.9163 0.16744 0.96197 0.0
C1014 C 0.79168 0.07246 0.98554 0.0
C1015 C 0.75896 0.0452 0.98146 0.0
C1016 C 0.75671 0.03023 0.96621 0.0
C1017 C 0.78586 0.04339 0.9551 0.0
C1018 C 0.81737 0.07105 0.95949 0.0
C1019 C 0.82037 0.08509 0.97443 0.0
C1020 C 0.85525 0.11628 0.9763 0.0
C1021 C 0.8383 0.1586 0.98187 0.0
C1022 C 0.88929 0.09943 0.98711 0.0
C1023 C 0.87082 0.11877 0.96001 0.0
C1024 C 0.84924 0.09222 0.9504 0.0
C1025 C 0.85745 0.09126 0.93465 0.0
C1026 C 0.8877 0.11885 0.92862 0.0
C1027 C 0.90869 0.14718 0.93836 0.0
C1028 C 0.90069 0.14611 0.95424 0.0
H1029 H 0.59715 0.04124 0.74862 0.0
H1030 H 0.72427 0.02867 0.73161 0.0
H1031 H 0.70898 0.08003 0.71147 0.0
H1032 H 0.54743 0.05942 0.71173 0.0
H1033 H 0.51191 0.09888 0.71837 0.0
H1034 H 0.52843 0.05769 0.73115 0.0
H1035 H 0.55606 0.10952 0.751 0.0
H1036 H 0.53882 0.15243 0.73927 0.0
H1037 H 0.59259 0.14939 0.74528 0.0
H1038 H 0.68091 0.13513 0.69359 0.0
H1039 H 0.64387 0.19384 0.68099 0.0
H1040 H 0.53858 0.17649 0.71153 0.0
C1041 C 0.62195 0.04906 0.74071 0.0
C1042 C 0.66193 0.0301 0.74178 0.0
C1043 C 0.69301 0.04143 0.73093 0.0
C1044 C 0.68475 0.07097 0.71945 0.0
C1045 C 0.64535 0.08939 0.71894 0.0
C1046 C 0.61451 0.07906 0.72934 0.0
C1047 C 0.57582 0.1057 0.72699 0.0
C1048 C 0.53869 0.07881 0.72178 0.0
C1049 C 0.56521 0.13072 0.7415 0.0
C1050 C 0.59045 0.13386 0.71415 0.0
C1051 C 0.63014 0.12303 0.70932 0.0
C1052 C 0.64989 0.14395 0.69732 0.0
C1053 C 0.6287 0.17714 0.69023 0.0
C1054 C 0.58879 0.18969 0.69546 0.0
C1055 C 0.56936 0.16765 0.7075 0.0
H1056 H 0.73414 0.44909 0.96719 0.0
H1057 H 0.80298 0.56507 0.97228 0.0
H1058 H 0.86184 0.5347 0.9581 0.0
H1059 H 0.82012 0.38496 0.97545 0.0
H1060 H 0.8053 0.34412 0.96238 0.0
H1061 H 0.76586 0.37701 0.97072 0.0
H1062 H 0.73927 0.39672 0.9436 0.0
H1063 H 0.77877 0.36387 0.93517 0.0
H1064 H 0.77532 0.41806 0.92981 0.0
H1065 H 0.91588 0.48994 0.94465 0.0
H1066 H 0.96139 0.43297 0.9351 0.0
H1067 H 0.85964 0.34528 0.9412 0.0
C1068 C 0.76137 0.46841 0.96535 0.0
C1069 C 0.7631 0.50993 0.97081 0.0
C1070 C 0.79974 0.53371 0.9679 0.0
C1071 C 0.83374 0.5166 0.95991 0.0
C1072 C 0.83112 0.47544 0.95498 0.0
C1073 C 0.79594 0.45158 0.95769 0.0
C1074 C 0.8024 0.40699 0.95254 0.0
C1075 C 0.79819 0.37649 0.96608 0.0
C1076 C 0.77214 0.39577 0.9395 0.0
C1077 C 0.84703 0.40928 0.94684 0.0
C1078 C 0.86284 0.44919 0.94801 0.0
C1079 C 0.90375 0.45858 0.94364 0.0
C1080 C 0.92935 0.42612 0.9382 0.0
C1081 C 0.91412 0.38476 0.93752 0.0
C1082 C 0.87224 0.37658 0.9417 0.0
H1083 H 0.82164 0.50307 0.23203 0.0
H1084 H 0.89442 0.53417 0.27239 0.0
H1085 H 0.93072 0.58922 0.25778 0.0
H1086 H 0.90338 0.52179 0.20399 0.0
H1087 H 0.86786 0.54389 0.19015 0.0
H1088 H 0.84955 0.50528 0.20356 0.0
H1089 H 0.79159 0.55606 0.21265 0.0
H1090 H 0.80979 0.59484 0.19932 0.0
H1091 H 0.80586 0.60721 0.21939 0.0
H1092 H 0.95678 0.64334 0.239 0.0
H1093 H 0.97125 0.69125 0.21751 0.0
H1094 H 0.88016 0.62541 0.18967 0.0
C1095 C 0.84523 0.52138 0.23782 0.0
C1096 C 0.85522 0.51405 0.25338 0.0
C1097 C 0.88665 0.53859 0.26043 0.0
C1098 C 0.90727 0.57016 0.25225 0.0
C1099 C 0.89622 0.57686 0.237 0.0
C1100 C 0.86604 0.55304 0.22985 0.0
C1101 C 0.85915 0.56722 0.21349 0.0
C1102 C 0.87068 0.53248 0.20213 0.0
C1103 C 0.81392 0.58223 0.21108 0.0
C1104 C 0.88977 0.6031 0.21261 0.0
C1105 C 0.911 0.60808 0.22626 0.0
C1106 C 0.94044 0.63962 0.22824 0.0
C1107 C 0.94836 0.66677 0.21595 0.0
C1108 C 0.92687 0.66233 0.20183 0.0
C1109 C 0.89728 0.62984 0.20024 0.0
H1110 H 0.71289 0.59683 0.50265 0.0
H1111 H 0.77541 0.51939 0.46906 0.0
H1112 H 0.72094 0.53772 0.44993 0.0
H1113 H 0.60519 0.5765 0.49017 0.0
H1114 H 0.58933 0.62947 0.4939 0.0
H1115 H 0.63023 0.60587 0.50517 0.0
H1116 H 0.68028 0.66647 0.49805 0.0
H1117 H 0.63952 0.69031 0.48691 0.0
H1118 H 0.68918 0.6786 0.47815 0.0
H1119 H 0.66204 0.57139 0.43372 0.0
H1120 H 0.60829 0.61836 0.42241 0.0
H1121 H 0.58684 0.67256 0.46714 0.0
C1122 C 0.7151 0.58346 0.4913 0.0
C1123 C 0.74856 0.55692 0.48731 0.0
C1124 C 0.74989 0.53964 0.47239 0.0
C1125 C 0.71908 0.54988 0.46146 0.0
C1126 C 0.6869 0.57696 0.46573 0.0
C1127 C 0.68481 0.59325 0.48037 0.0
C1128 C 0.64928 0.62391 0.482 0.0
C1129 C 0.61657 0.60796 0.49349 0.0
C1130 C 0.66555 0.66737 0.48653 0.0
C1131 C 0.63236 0.6236 0.46586 0.0
C1132 C 0.65377 0.59594 0.4566 0.0
C1133 C 0.64479 0.59268 0.44096 0.0
C1134 C 0.61412 0.61928 0.43462 0.0
C1135 C 0.59355 0.64901 0.44392 0.0
C1136 C 0.60203 0.65002 0.45976 0.0
H1137 H 0.67254 0.54016 0.73149 0.0
H1138 H 0.79555 0.48287 0.73351 0.0
H1139 H 0.77162 0.4275 0.7161 0.0
H1140 H 0.61706 0.44623 0.73403 0.0
H1141 H 0.57535 0.46258 0.7215 0.0
H1142 H 0.6039 0.50072 0.73234 0.0
H1143 H 0.62186 0.54025 0.70727 0.0
H1144 H 0.59345 0.50201 0.69633 0.0
H1145 H 0.64735 0.51285 0.69186 0.0
H1146 H 0.73237 0.37493 0.69965 0.0
H1147 H 0.68008 0.32846 0.68746 0.0
H1148 H 0.58279 0.41847 0.69774 0.0
C1149 C 0.69467 0.51616 0.72828 0.0
C1150 C 0.73618 0.51648 0.73386 0.0
C1151 C 0.76389 0.48429 0.72917 0.0
C1152 C 0.75053 0.45241 0.7193 0.0
C1153 C 0.70927 0.45285 0.71422 0.0
C1154 C 0.68174 0.48386 0.71862 0.0
C1155 C 0.63816 0.47551 0.71265 0.0
C1156 C 0.60679 0.47098 0.72592 0.0
C1157 C 0.62442 0.50969 0.70135 0.0
C1158 C 0.6452 0.43444 0.70454 0.0
C1159 C 0.68653 0.42212 0.70528 0.0
C1160 C 0.69996 0.38443 0.69893 0.0
C1161 C 0.67015 0.35829 0.69199 0.0
C1162 C 0.62742 0.36975 0.69172 0.0
C1163 C 0.61522 0.40872 0.69782 0.0
H1164 H 0.79186 0.66229 0.05361 0.0
H1165 H 0.75635 0.54418 0.07445 0.0
H1166 H 0.81353 0.55129 0.09286 0.0
H1167 H 0.90497 0.65645 0.06052 0.0
H1168 H 0.90895 0.71075 0.06561 0.0
H1169 H 0.86958 0.69395 0.0522 0.0
H1170 H 0.81188 0.72722 0.06902 0.0
H1171 H 0.85108 0.74435 0.08236 0.0
H1172 H 0.80812 0.71269 0.08893 0.0
H1173 H 0.87064 0.57215 0.11016 0.0
H1174 H 0.91586 0.6109 0.12793 0.0
H1175 H 0.91138 0.71869 0.09794 0.0
C1176 C 0.79582 0.63776 0.062 0.0
C1177 C 0.76961 0.60203 0.06212 0.0
C1178 C 0.77654 0.57107 0.07349 0.0
C1179 C 0.80905 0.57486 0.08413 0.0
C1180 C 0.8343 0.61011 0.08354 0.0
C1181 C 0.82762 0.64146 0.07299 0.0
C1182 C 0.856 0.67845 0.07611 0.0
C1183 C 0.8867 0.68529 0.06281 0.0
C1184 C 0.83021 0.718 0.0793 0.0
C1185 C 0.87864 0.66344 0.09038 0.0
C1186 C 0.8664 0.62336 0.09414 0.0
C1187 C 0.88075 0.60338 0.10728 0.0
C1188 C 0.90655 0.6256 0.11728 0.0
C1189 C 0.91741 0.6676 0.11423 0.0
C1190 C 0.90455 0.68626 0.10032 0.0
H1191 H 0.66058 0.5416 0.32237 0.0
H1192 H 0.73971 0.49028 0.3581 0.0
H1193 H 0.71474 0.5449 0.37594 0.0
H1194 H 0.67365 0.64986 0.3323 0.0
H1195 H 0.62026 0.6632 0.32786 0.0
H1196 H 0.64557 0.62099 0.31791 0.0
H1197 H 0.58623 0.5707 0.32615 0.0
H1198 H 0.56061 0.61283 0.336 0.0
H1199 H 0.57351 0.56562 0.34618 0.0
H1200 H 0.67794 0.60443 0.39021 0.0
H1201 H 0.63241 0.66163 0.39944 0.0
H1202 H 0.57862 0.67274 0.35395 0.0
C1203 C 0.67251 0.54154 0.33398 0.0
C1204 C 0.70197 0.51142 0.33884 0.0
C1205 C 0.71733 0.51315 0.35406 0.0
C1206 C 0.70326 0.54402 0.36429 0.0
C1207 C 0.67406 0.57315 0.35908 0.0
C1208 C 0.65896 0.57207 0.34426 0.0
C1209 C 0.62719 0.60621 0.34147 0.0
C1210 C 0.64261 0.63688 0.32916 0.0
C1211 C 0.58436 0.58773 0.3372 0.0
C1212 C 0.62622 0.62642 0.3571 0.0
C1213 C 0.65353 0.60719 0.36714 0.0
C1214 C 0.65668 0.61984 0.38239 0.0
C1215 C 0.63072 0.65243 0.38753 0.0
C1216 C 0.60188 0.67191 0.37746 0.0
C1217 C 0.60043 0.65894 0.36199 0.0
H1218 H 0.72643 0.42014 0.56853 0.0
H1219 H 0.78258 0.49967 0.60303 0.0
H1220 H 0.73045 0.4753 0.62192 0.0
H1221 H 0.61968 0.43308 0.58029 0.0
H1222 H 0.60584 0.37963 0.57648 0.0
H1223 H 0.64682 0.40427 0.56562 0.0
H1224 H 0.69839 0.34548 0.57344 0.0
H1225 H 0.65744 0.32045 0.58415 0.0
H1226 H 0.70593 0.33373 0.59344 0.0
H1227 H 0.6726 0.43996 0.63734 0.0
H1228 H 0.61681 0.39491 0.64793 0.0
H1229 H 0.5996 0.33944 0.60303 0.0
C1230 C 0.72814 0.43222 0.58008 0.0
C1231 C 0.75874 0.46187 0.58425 0.0
C1232 C 0.7592 0.4773 0.59947 0.0
C1233 C 0.72976 0.46357 0.61031 0.0
C1234 C 0.69993 0.43445 0.60576 0.0
C1235 C 0.69909 0.41888 0.59101 0.0
C1236 C 0.66461 0.38712 0.58903 0.0
C1237 C 0.63233 0.40193 0.57715 0.0
C1238 C 0.68268 0.34416 0.58477 0.0
C1239 C 0.64632 0.38694 0.60501 0.0
C1240 C 0.66687 0.41452 0.61452 0.0
C1241 C 0.65614 0.41847 0.62995 0.0
C1242 C 0.62425 0.39288 0.63585 0.0
C1243 C 0.60355 0.36367 0.62634 0.0
C1244 C 0.61445 0.36153 0.61065 0.0
H1245 H 0.88744 0.48928 0.81558 0.0
H1246 H 0.7943 0.53814 0.84687 0.0
H1247 H 0.81398 0.48432 0.86596 0.0
H1248 H 0.87249 0.38088 0.82488 0.0
H1249 H 0.92718 0.3682 0.82313 0.0
H1250 H 0.90527 0.41019 0.81199 0.0
H1251 H 0.96047 0.4611 0.82308 0.0
H1252 H 0.98259 0.41906 0.8341 0.0
H1253 H 0.96572 0.46607 0.84356 0.0
H1254 H 0.84668 0.42597 0.88207 0.0
H1255 H 0.88919 0.3693 0.89351 0.0
H1256 H 0.95871 0.35879 0.85098 0.0
C1257 C 0.87138 0.48893 0.82649 0.0
C1258 C 0.8395 0.51808 0.82978 0.0
C1259 C 0.81869 0.51598 0.84409 0.0
C1260 C 0.82971 0.48558 0.855 0.0
C1261 C 0.86131 0.45727 0.85136 0.0
C1262 C 0.88173 0.45872 0.83742 0.0
C1263 C 0.91464 0.42501 0.83624 0.0
C1264 C 0.90425 0.39425 0.82329 0.0
C1265 C 0.95843 0.44397 0.83413 0.0
C1266 C 0.9101 0.40469 0.85178 0.0
C1267 C 0.87919 0.42352 0.86038 0.0
C1268 C 0.87071 0.4108 0.87537 0.0
C1269 C 0.89494 0.37849 0.88176 0.0
C1270 C 0.92721 0.35926 0.87315 0.0
C1271 C 0.93413 0.37237 0.85789 0.0
H1272 H 0.22765 0.64729 0.06873 0.0
H1273 H 0.24083 0.52505 0.08979 0.0
H1274 H 0.1898 0.54539 0.10959 0.0
H1275 H 0.22691 0.70195 0.1037 0.0
H1276 H 0.1897 0.74105 0.09811 0.0
H1277 H 0.22316 0.71767 0.08391 0.0
H1278 H 0.16133 0.69486 0.0677 0.0
H1279 H 0.12399 0.71661 0.08094 0.0
H1280 H 0.12097 0.66249 0.07583 0.0
H1281 H 0.13532 0.58028 0.12734 0.0
H1282 H 0.09024 0.62855 0.14237 0.0
H1283 H 0.11984 0.72851 0.11084 0.0
C1284 C 0.22066 0.62466 0.07756 0.0
C1285 C 0.23864 0.58427 0.07744 0.0
C1286 C 0.22716 0.55589 0.08924 0.0
C1287 C 0.19823 0.56723 0.10066 0.0
C1288 C 0.18123 0.60728 0.10033 0.0
C1289 C 0.19264 0.63565 0.08917 0.0
C1290 C 0.17193 0.67748 0.0917 0.0
C1291 C 0.20487 0.71155 0.09449 0.0
C1292 C 0.14291 0.68855 0.07824 0.0
C1293 C 0.14714 0.66848 0.10605 0.0
C1294 C 0.15214 0.62764 0.11078 0.0
C1295 C 0.13144 0.61235 0.12373 0.0
C1296 C 0.10577 0.63978 0.13215 0.0
C1297 C 0.10181 0.68203 0.12771 0.0
C1298 C 0.12251 0.69628 0.11445 0.0
H1299 H 0.14978 0.47836 0.81403 0.0
H1300 H 0.17319 0.58239 0.84442 0.0
H1301 H 0.15071 0.53925 0.8666 0.0
H1302 H 0.05877 0.44158 0.83221 0.0
H1303 H 0.07037 0.38716 0.82927 0.0
H1304 H 0.08993 0.42559 0.81607 0.0
H1305 H 0.16575 0.39995 0.82051 0.0
H1306 H 0.14675 0.36084 0.83358 0.0
H1307 H 0.18616 0.39728 0.83973 0.0
H1308 H 0.11955 0.4847 0.88516 0.0
H1309 H 0.088 0.42334 0.8982 0.0
H1310 H 0.08998 0.35587 0.85519 0.0
C1311 C 0.15029 0.49202 0.82537 0.0
C1312 C 0.16288 0.53366 0.82757 0.0
C1313 C 0.16367 0.5504 0.84256 0.0
C1314 C 0.15088 0.52619 0.85518 0.0
C1315 C 0.13811 0.48519 0.85257 0.0
C1316 C 0.1383 0.46823 0.83802 0.0
C1317 C 0.12304 0.42373 0.83806 0.0
C1318 C 0.08316 0.41926 0.82833 0.0
C1319 C 0.15749 0.39368 0.83266 0.0
C1320 C 0.11387 0.41816 0.8549 0.0
C1321 C 0.12232 0.45387 0.86316 0.0
C1322 C 0.11352 0.45638 0.87882 0.0
C1323 C 0.0956 0.42149 0.88613 0.0
C1324 C 0.08738 0.38456 0.8778 0.0
C1325 C 0.097 0.38314 0.86202 0.0
H1326 H 0.31363 0.40441 0.56247 0.0
H1327 H 0.2572 0.49512 0.59294 0.0
H1328 H 0.30687 0.47454 0.61338 0.0
H1329 H 0.32933 0.32488 0.59047 0.0
H1330 H 0.37824 0.30779 0.58239 0.0
H1331 H 0.33915 0.33108 0.57027 0.0
H1332 H 0.39317 0.38609 0.56117 0.0
H1333 H 0.43231 0.36308 0.57339 0.0
H1334 H 0.41987 0.41769 0.57514 0.0
H1335 H 0.36186 0.44058 0.63103 0.0
H1336 H 0.41564 0.39676 0.64377 0.0
H1337 H 0.43487 0.33016 0.60109 0.0
C1338 C 0.31144 0.41986 0.57346 0.0
C1339 C 0.28133 0.4513 0.57609 0.0
C1340 C 0.28019 0.47118 0.59059 0.0
C1341 C 0.30821 0.4596 0.60229 0.0
C1342 C 0.33739 0.42829 0.59929 0.0
C1343 C 0.33911 0.40881 0.58518 0.0
C1344 C 0.37269 0.37564 0.58481 0.0
C1345 C 0.35371 0.33231 0.58181 0.0
C1346 C 0.40651 0.38629 0.57292 0.0
C1347 C 0.38942 0.37909 0.60095 0.0
C1348 C 0.3689 0.40956 0.6092 0.0
C1349 C 0.3783 0.41686 0.6246 0.0
C1350 C 0.40894 0.39187 0.63175 0.0
C1351 C 0.42973 0.35999 0.62349 0.0
C1352 C 0.42005 0.35437 0.60781 0.0
H1353 H 0.32991 0.56057 0.31981 0.0
H1354 H 0.31171 0.45946 0.35216 0.0
H1355 H 0.35302 0.49798 0.3715 0.0
H1356 H 0.43617 0.58534 0.33071 0.0
H1357 H 0.42871 0.64059 0.32808 0.0
H1358 H 0.3988 0.6042 0.31687 0.0
H1359 H 0.33018 0.63883 0.3263 0.0
H1360 H 0.35989 0.67514 0.33761 0.0
H1361 H 0.32052 0.64323 0.34657 0.0
H1362 H 0.39716 0.5488 0.38738 0.0
H1363 H 0.43806 0.60745 0.39823 0.0
H1364 H 0.42518 0.67421 0.35518 0.0
C1365 C 0.33508 0.54621 0.33088 0.0
C1366 C 0.31776 0.50691 0.33444 0.0
C1367 C 0.3245 0.48967 0.34921 0.0
C1368 C 0.34807 0.51123 0.36024 0.0
C1369 C 0.36453 0.55007 0.35636 0.0
C1370 C 0.35822 0.56732 0.34201 0.0
C1371 C 0.37824 0.60983 0.34072 0.0
C1372 C 0.41251 0.60997 0.32837 0.0
C1373 C 0.34523 0.64375 0.33762 0.0
C1374 C 0.39668 0.61399 0.35659 0.0
C1375 C 0.38881 0.57922 0.36547 0.0
C1376 C 0.40342 0.5762 0.38051 0.0
C1377 C 0.42664 0.60961 0.38658 0.0
C1378 C 0.43463 0.64565 0.37764 0.0
C1379 C 0.4193 0.64748 0.36246 0.0
H1380 H 0.23479 0.46241 0.96781 0.0
H1381 H 0.24613 0.37872 0.00675 0.0
H1382 H 0.19767 0.32971 0.9944 0.0
H1383 H 0.12698 0.44927 0.96258 0.0
H1384 H 0.12822 0.4512 0.94195 0.0
H1385 H 0.1678 0.47762 0.95288 0.0
H1386 H 0.22536 0.4368 0.93836 0.0
H1387 H 0.18583 0.41019 0.92739 0.0
H1388 H 0.22387 0.38061 0.9381 0.0
H1389 H 0.1422 0.29376 0.97964 0.0
H1390 H 0.08352 0.27265 0.96304 0.0
H1391 H 0.10778 0.37776 0.93308 0.0
C1392 C 0.22745 0.43358 0.97368 0.0
C1393 C 0.2448 0.42438 0.98824 0.0
C1394 C 0.2342 0.38622 0.99548 0.0
C1395 C 0.20646 0.35818 0.98857 0.0
C1396 C 0.1896 0.36845 0.97435 0.0
C1397 C 0.19978 0.40508 0.96691 0.0
C1398 C 0.17508 0.40965 0.95214 0.0
C1399 C 0.14791 0.44928 0.95241 0.0
C1400 C 0.20429 0.40928 0.93817 0.0
C1401 C 0.14847 0.37053 0.95272 0.0
C1402 C 0.1577 0.34711 0.9656 0.0
C1403 C 0.1352 0.31141 0.96938 0.0
C1404 C 0.10191 0.29971 0.95992 0.0
C1405 C 0.09166 0.3233 0.94673 0.0
C1406 C 0.11575 0.35869 0.94291 0.0
H1407 H 0.30715 0.47045 0.74621 0.0
H1408 H 0.25341 0.54161 0.70865 0.0
H1409 H 0.28233 0.49083 0.6903 0.0
H1410 H 0.40315 0.45188 0.72779 0.0
H1411 H 0.41003 0.40074 0.736 0.0
H1412 H 0.38026 0.43953 0.7461 0.0
H1413 H 0.31723 0.38884 0.74731 0.0
H1414 H 0.34676 0.35002 0.73704 0.0
H1415 H 0.29674 0.36703 0.72984 0.0
H1416 H 0.32081 0.43311 0.67578 0.0
H1417 H 0.37119 0.37945 0.66677 0.0
H1418 H 0.40352 0.35135 0.71384 0.0
C1419 C 0.30142 0.47577 0.73415 0.0
C1420 C 0.27761 0.51026 0.72902 0.0
C1421 C 0.27067 0.51512 0.71304 0.0
C1422 C 0.28713 0.48644 0.70247 0.0
C1423 C 0.31073 0.45309 0.70798 0.0
C1424 C 0.31817 0.44799 0.72347 0.0
C1425 C 0.34757 0.41197 0.72648 0.0
C1426 C 0.38762 0.42694 0.73456 0.0
C1427 C 0.32576 0.37742 0.73571 0.0
C1428 C 0.35631 0.39809 0.71026 0.0
C1429 C 0.33412 0.42142 0.69971 0.0
C1430 C 0.33819 0.41458 0.68397 0.0
C1431 C 0.36664 0.38399 0.67894 0.0
C1432 C 0.39111 0.36154 0.68963 0.0
C1433 C 0.38507 0.36814 0.70544 0.0
H1434 H 0.27636 0.57131 0.46789 0.0
H1435 H 0.26107 0.66118 0.5047 0.0
H1436 H 0.30703 0.70993 0.49113 0.0
H1437 H 0.38361 0.58758 0.46329 0.0
H1438 H 0.38402 0.58146 0.44278 0.0
H1439 H 0.34459 0.55585 0.45405 0.0
H1440 H 0.28685 0.59148 0.43783 0.0
H1441 H 0.32626 0.61738 0.42654 0.0
H1442 H 0.2863 0.64748 0.436 0.0
H1443 H 0.36084 0.74547 0.47574 0.0
H1444 H 0.42112 0.76464 0.45972 0.0
H1445 H 0.404 0.65302 0.43253 0.0
C1446 C 0.28227 0.60137 0.47307 0.0
C1447 C 0.26427 0.61231 0.48737 0.0
C1448 C 0.27315 0.65214 0.49362 0.0
C1449 C 0.29953 0.68015 0.48601 0.0
C1450 C 0.31706 0.66812 0.47211 0.0
C1451 C 0.30891 0.62971 0.46566 0.0
C1452 C 0.33496 0.62318 0.4513 0.0
C1453 C 0.36349 0.58475 0.45296 0.0
C1454 C 0.30691 0.61968 0.43707 0.0
C1455 C 0.36009 0.66331 0.45103 0.0
C1456 C 0.34864 0.68897 0.46305 0.0
C1457 C 0.3695 0.72608 0.46612 0.0
C1458 C 0.40365 0.73677 0.45694 0.0
C1459 C 0.41653 0.71076 0.44474 0.0
C1460 C 0.39389 0.67401 0.4415 0.0
H1461 H 0.1891 0.58687 0.24597 0.0
H1462 H 0.14946 0.47219 0.22419 0.0
H1463 H 0.12227 0.51259 0.20216 0.0
H1464 H 0.10386 0.64923 0.23514 0.0
H1465 H 0.13387 0.69575 0.23155 0.0
H1466 H 0.15248 0.65771 0.2451 0.0
H1467 H 0.22228 0.65194 0.2302 0.0
H1468 H 0.20384 0.69004 0.21658 0.0
H1469 H 0.22139 0.63968 0.21006 0.0
H1470 H 0.09189 0.56574 0.18421 0.0
H1471 H 0.06549 0.62784 0.17042 0.0
H1472 H 0.1301 0.70816 0.20248 0.0
C1473 C 0.17516 0.57037 0.23644 0.0
C1474 C 0.17133 0.52647 0.23671 0.0
C1475 C 0.15297 0.50578 0.22409 0.0
C1476 C 0.13739 0.52847 0.21157 0.0
C1477 C 0.14122 0.57177 0.21171 0.0
C1478 C 0.16027 0.59251 0.22369 0.0
C1479 C 0.1598 0.6393 0.22108 0.0
C1480 C 0.13608 0.66181 0.23398 0.0
C1481 C 0.20449 0.65623 0.21938 0.0
C1482 C 0.13623 0.64173 0.20603 0.0
C1483 C 0.12574 0.60237 0.20085 0.0
C1484 C 0.10079 0.59664 0.18794 0.0
C1485 C 0.08594 0.63202 0.18019 0.0
C1486 C 0.09665 0.67256 0.1852 0.0
C1487 C 0.1226 0.67743 0.19816 0.0
loop_
_geom_bond_atom_site_label_1
_geom_bond_atom_site_label_2
_geom_bond_distance
_geom_bond_site_symmetry_2
_ccdc_geom_bond_type
H0 C27 0.953 . S
N1 C26 1.433 . S
N1 C32 1.435 1_545 S
N1 C38 1.423 1_545 S
H2 C28 0.930 . S
H3 C31 0.931 . S
H4 C30 0.929 . S
H5 C33 0.930 . S
H6 C34 0.932 1_545 S
H7 C37 0.929 . S
H8 C36 0.931 . S
H9 C39 0.929 . S
H10 C43 0.932 . S
H11 C40 0.931 . S
H12 C42 0.929 . S
H13 C45 0.953 . S
H14 C46 0.930 . S
H15 C48 0.929 . S
H16 C49 0.931 . S
H17 C51 0.930 . S
H18 C52 0.932 1_545 S
H19 C54 0.931 . S
H20 C55 0.929 . S
H21 C57 0.929 . S
H22 C58 0.931 . S
H23 C60 0.929 . S
N24 C44 1.433 . S
N24 C50 1.435 1_545 S
N24 C56 1.423 1_545 S
H25 C61 0.932 . S
C26 N1 1.433 . S
C26 C27 1.363 . S
C26 C31 1.370 . S
C27 H0 0.953 . S
C27 C26 1.363 . S
C27 C28 1.385 . S
C28 H2 0.930 . S
C28 C27 1.385 . S
C28 C29 1.357 . S
C29 C28 1.357 . S
C29 C30 1.406 . S
C30 H4 0.929 . S
C30 C29 1.406 . S
C30 C31 1.391 . S
C31 H3 0.931 . S
C31 C26 1.370 . S
C31 C30 1.391 . S
C32 N1 1.435 1_565 S
C32 C33 1.358 1_565 S
C32 C37 1.371 . S
C33 H5 0.930 . S
C33 C32 1.358 1_545 S
C33 C34 1.405 1_545 S
C34 H6 0.932 1_565 S
C34 C33 1.405 1_565 S
C34 C35 1.383 . S
C35 C34 1.383 . S
C35 C36 1.393 . S
C36 H8 0.931 . S
C36 C35 1.393 . S
C36 C37 1.382 . S
C37 H7 0.929 . S
C37 C32 1.371 . S
C37 C36 1.382 . S
C38 N1 1.423 1_565 S
C38 C39 1.362 . S
C38 C43 1.388 . S
C39 H9 0.929 . S
C39 C38 1.362 . S
C39 C40 1.376 . S
C40 H11 0.931 . S
C40 C39 1.376 . S
C40 C41 1.396 . S
C41 C40 1.396 . S
C41 C42 1.348 . S
C41 C59 1.472 1_655 S
C42 H12 0.929 . S
C42 C41 1.348 . S
C42 C43 1.443 . S
C43 H10 0.932 . S
C43 C38 1.388 . S
C43 C42 1.443 . S
C44 N24 1.433 . S
C44 C45 1.363 . S
C44 C49 1.370 . S
C45 H13 0.953 . S
C45 C44 1.363 . S
C45 C46 1.385 . S
C46 H14 0.930 . S
C46 C45 1.385 . S
C46 C47 1.357 . S
C47 C46 1.357 . S
C47 C48 1.406 . S
C48 H15 0.929 . S
C48 C47 1.406 . S
C48 C49 1.391 . S
C49 H16 0.931 . S
C49 C44 1.370 . S
C49 C48 1.391 . S
C50 N24 1.435 1_565 S
C50 C51 1.358 1_565 S
C50 C55 1.371 . S
C51 H17 0.930 . S
C51 C50 1.358 1_545 S
C51 C52 1.405 1_545 S
C52 H18 0.932 1_565 S
C52 C51 1.405 1_565 S
C52 C53 1.383 . S
C53 C52 1.383 . S
C53 C54 1.393 . S
C54 H19 0.931 . S
C54 C53 1.393 . S
C54 C55 1.382 . S
C55 H20 0.929 . S
C55 C50 1.371 . S
C55 C54 1.382 . S
C56 N24 1.423 1_565 S
C56 C57 1.362 . S
C56 C61 1.388 . S
C57 H21 0.929 . S
C57 C56 1.362 . S
C57 C58 1.376 . S
C58 H22 0.931 . S
C58 C57 1.376 . S
C58 C59 1.396 . S
C59 C41 1.472 1_455 S
C59 C58 1.396 . S
C59 C60 1.348 . S
C60 H23 0.929 . S
C60 C59 1.348 . S
C60 C61 1.443 . S
C61 H25 0.932 . S
C61 C56 1.388 . S
C61 C60 1.443 . S
H62 C89 0.929 . S
N63 C88 1.433 . S
N63 C94 1.435 . S
N63 C100 1.423 . S
H64 C90 0.930 . S
H65 C93 0.931 . S
H66 C92 0.929 . S
H67 C95 0.930 . S
H68 C96 0.932 . S
H69 C99 0.929 . S
H70 C98 0.931 . S
H71 C101 0.929 . S
H72 C105 0.932 . S
H73 C102 0.931 . S
H74 C104 0.929 . S
H75 C107 0.929 . S
H76 C108 0.930 1_545 S
H77 C110 0.929 . S
H78 C111 0.931 . S
H79 C113 0.930 . S
H80 C114 0.932 . S
H81 C116 0.931 . S
H82 C117 0.929 . S
H83 C119 0.929 . S
H84 C120 0.931 . S
H85 C122 0.929 . S
N86 C106 1.433 . S
N86 C112 1.435 . S
N86 C118 1.423 . S
H87 C123 0.932 . S
C88 N63 1.433 . S
C88 C89 1.363 . S
C88 C93 1.370 . S
C89 H62 0.929 . S
C89 C88 1.363 . S
C89 C90 1.385 . S
C90 H64 0.930 . S
C90 C89 1.385 . S
C90 C91 1.357 . S
C91 C90 1.357 . S
C91 C92 1.406 . S
C92 H66 0.929 . S
C92 C91 1.406 . S
C92 C93 1.391 . S
C93 H65 0.931 . S
C93 C88 1.370 . S
C93 C92 1.391 . S
C94 N63 1.435 . S
C94 C95 1.358 . S
C94 C99 1.371 . S
C95 H67 0.930 . S
C95 C94 1.358 . S
C95 C96 1.405 . S
C96 H68 0.932 . S
C96 C95 1.405 . S
C96 C97 1.383 . S
C97 C96 1.383 . S
C97 C98 1.393 . S
C98 H70 0.931 . S
C98 C97 1.393 . S
C98 C99 1.382 . S
C99 H69 0.929 . S
C99 C94 1.371 . S
C99 C98 1.382 . S
C100 N63 1.423 . S
C100 C101 1.362 . S
C100 C105 1.388 . S
C101 H71 0.929 . S
C101 C100 1.362 . S
C101 C102 1.376 . S
C102 H73 0.931 . S
C102 C101 1.376 . S
C102 C103 1.396 . S
C103 C102 1.396 . S
C103 C104 1.348 . S
C103 C121 1.472 . S
C104 H74 0.929 . S
C104 C103 1.348 . S
C104 C105 1.443 . S
C105 H72 0.932 . S
C105 C100 1.388 . S
C105 C104 1.443 . S
C106 N86 1.433 . S
C106 C107 1.363 . S
C106 C111 1.370 . S
C107 H75 0.929 . S
C107 C106 1.363 . S
C107 C108 1.385 . S
C108 H76 0.930 1_565 S
C108 C107 1.385 . S
C108 C109 1.357 . S
C109 C108 1.357 . S
C109 C110 1.406 . S
C110 H77 0.929 . S
C110 C109 1.406 . S
C110 C111 1.391 . S
C111 H78 0.931 . S
C111 C106 1.370 . S
C111 C110 1.391 . S
C112 N86 1.435 . S
C112 C113 1.358 . S
C112 C117 1.371 . S
C113 H79 0.930 . S
C113 C112 1.358 . S
C113 C114 1.405 1_565 S
C114 H80 0.932 . S
C114 C113 1.405 1_545 S
C114 C115 1.383 1_545 S
C115 C114 1.383 1_565 S
C115 C116 1.393 . S
C116 H81 0.931 . S
C116 C115 1.393 . S
C116 C117 1.382 . S
C117 H82 0.929 . S
C117 C112 1.371 . S
C117 C116 1.382 . S
C118 N86 1.423 . S
C118 C119 1.362 . S
C118 C123 1.388 . S
C119 H83 0.929 . S
C119 C118 1.362 . S
C119 C120 1.376 . S
C120 H84 0.931 . S
C120 C119 1.376 . S
C120 C121 1.396 . S
C121 C103 1.472 . S
C121 C120 1.396 . S
C121 C122 1.348 . S
C122 H85 0.929 . S
C122 C121 1.348 . S
C122 C123 1.443 . S
C123 H87 0.932 . S
C123 C118 1.388 . S
C123 C122 1.443 . S
H124 C151 0.929 . S
N125 C150 1.434 1_545 S
N125 C156 1.435 . S
N125 C162 1.423 . S
H126 C152 0.930 . S
H127 C155 0.931 . S
H128 C154 0.929 . S
H129 C157 0.930 1_565 S
H130 C158 0.924 1_556 S
H131 C161 0.929 . S
H132 C160 0.931 1_556 S
H133 C163 0.929 . S
H134 C167 0.932 . S
H135 C164 0.931 . S
H136 C166 0.929 . S
H137 C169 0.929 . S
H138 C170 0.930 . S
H139 C172 0.929 . S
H140 C173 0.931 . S
H141 C175 0.930 1_565 S
H142 C176 0.924 1_556 S
H143 C178 0.931 1_556 S
H144 C179 0.929 . S
H145 C181 0.929 . S
H146 C182 0.931 . S
H147 C184 0.929 . S
N148 C168 1.434 1_545 S
N148 C174 1.435 . S
N148 C180 1.423 . S
H149 C185 0.932 . S
C150 N125 1.434 1_565 S
C150 C151 1.364 1_565 S
C150 C155 1.368 . S
C151 H124 0.929 . S
C151 C150 1.364 1_545 S
C151 C152 1.385 1_545 S
C152 H126 0.930 . S
C152 C151 1.385 1_565 S
C152 C153 1.357 . S
C153 C152 1.357 . S
C153 C154 1.406 . S
C154 H128 0.929 . S
C154 C153 1.406 . S
C154 C155 1.391 . S
C155 H127 0.931 . S
C155 C150 1.368 . S
C155 C154 1.391 . S
C156 N125 1.435 . S
C156 C157 1.358 . S
C156 C161 1.371 . S
C157 H129 0.930 1_545 S
C157 C156 1.358 . S
C157 C158 1.405 . S
C158 H130 0.924 1_554 S
C158 C157 1.405 . S
C158 C159 1.383 1_554 S
C159 C158 1.383 1_556 S
C159 C160 1.393 1_556 S
C160 H132 0.931 1_554 S
C160 C159 1.393 1_554 S
C160 C161 1.382 . S
C161 H131 0.929 . S
C161 C156 1.371 . S
C161 C160 1.382 . S
C162 N125 1.423 . S
C162 C163 1.362 . S
C162 C167 1.388 . S
C163 H133 0.929 . S
C163 C162 1.362 . S
C163 C164 1.376 . S
C164 H135 0.931 . S
C164 C163 1.376 . S
C164 C165 1.396 . S
C165 C164 1.396 . S
C165 C166 1.348 . S
C165 C183 1.472 . S
C166 H136 0.929 . S
C166 C165 1.348 . S
C166 C167 1.443 . S
C167 H134 0.932 . S
C167 C162 1.388 . S
C167 C166 1.443 . S
C168 N148 1.434 1_565 S
C168 C169 1.364 1_565 S
C168 C173 1.368 . S
C169 H137 0.929 . S
C169 C168 1.364 1_545 S
C169 C170 1.385 1_545 S
C170 H138 0.930 . S
C170 C169 1.385 1_565 S
C170 C171 1.357 . S
C171 C170 1.357 . S
C171 C172 1.406 . S
C172 H139 0.929 . S
C172 C171 1.406 . S
C172 C173 1.391 . S
C173 H140 0.931 . S
C173 C168 1.368 . S
C173 C172 1.391 . S
C174 N148 1.435 . S
C174 C175 1.358 . S
C174 C179 1.371 . S
C175 H141 0.930 1_545 S
C175 C174 1.358 . S
C175 C176 1.405 . S
C176 H142 0.924 1_554 S
C176 C175 1.405 . S
C176 C177 1.383 1_554 S
C177 C176 1.383 1_556 S
C177 C178 1.393 1_556 S
C178 H143 0.931 1_554 S
C178 C177 1.393 1_554 S
C178 C179 1.382 . S
C179 H144 0.929 . S
C179 C174 1.371 . S
C179 C178 1.382 . S
C180 N148 1.423 . S
C180 C181 1.362 . S
C180 C185 1.388 . S
C181 H145 0.929 . S
C181 C180 1.362 . S
C181 C182 1.376 . S
C182 H146 0.931 . S
C182 C181 1.376 . S
C182 C183 1.396 . S
C183 C165 1.472 . S
C183 C182 1.396 . S
C183 C184 1.348 . S
C184 H147 0.929 . S
C184 C183 1.348 . S
C184 C185 1.443 . S
C185 H149 0.932 . S
C185 C180 1.388 . S
C185 C184 1.443 . S
H186 C213 0.929 . S
N187 C212 1.433 . S
N187 C218 1.435 . S
N187 C224 1.423 . S
H188 C214 0.930 . S
H189 C217 0.931 . S
H190 C216 0.929 . S
H191 C219 0.930 . S
H192 C220 0.932 . S
H193 C223 0.929 . S
H194 C222 0.931 . S
H195 C225 0.929 . S
H196 C229 0.932 . S
H197 C226 0.931 . S
H198 C228 0.929 . S
H199 C231 0.929 . S
H200 C232 0.930 . S
H201 C234 0.929 . S
H202 C235 0.931 . S
H203 C237 0.930 . S
H204 C238 0.932 . S
H205 C240 0.931 . S
H206 C241 0.929 . S
H207 C243 0.929 . S
H208 C244 0.931 . S
H209 C246 0.929 . S
N210 C230 1.433 . S
N210 C236 1.435 . S
N210 C242 1.423 . S
H211 C247 0.932 . S
C212 N187 1.433 . S
C212 C213 1.363 . S
C212 C217 1.370 . S
C213 H186 0.929 . S
C213 C212 1.363 . S
C213 C214 1.385 . S
C214 H188 0.930 . S
C214 C213 1.385 . S
C214 C215 1.357 . S
C215 C214 1.357 . S
C215 C216 1.406 . S
C216 H190 0.929 . S
C216 C215 1.406 . S
C216 C217 1.391 . S
C217 H189 0.931 . S
C217 C212 1.370 . S
C217 C216 1.391 . S
C218 N187 1.435 . S
C218 C219 1.358 . S
C218 C223 1.371 . S
C219 H191 0.930 . S
C219 C218 1.358 . S
C219 C220 1.405 . S
C220 H192 0.932 . S
C220 C219 1.405 . S
C220 C221 1.383 . S
C221 C220 1.383 . S
C221 C222 1.393 . S
C222 H194 0.931 . S
C222 C221 1.393 . S
C222 C223 1.382 . S
C223 H193 0.929 . S
C223 C218 1.371 . S
C223 C222 1.382 . S
C224 N187 1.423 . S
C224 C225 1.362 . S
C224 C229 1.388 . S
C225 H195 0.929 . S
C225 C224 1.362 . S
C225 C226 1.376 . S
C226 H197 0.931 . S
C226 C225 1.376 . S
C226 C227 1.396 . S
C227 C226 1.396 . S
C227 C228 1.348 . S
C227 C245 1.472 . S
C228 H198 0.929 . S
C228 C227 1.348 . S
C228 C229 1.443 . S
C229 H196 0.932 . S
C229 C224 1.388 . S
C229 C228 1.443 . S
C230 N210 1.433 . S
C230 C231 1.363 . S
C230 C235 1.370 . S
C231 H199 0.929 . S
C231 C230 1.363 . S
C231 C232 1.385 . S
C232 H200 0.930 . S
C232 C231 1.385 . S
C232 C233 1.357 . S
C233 C232 1.357 . S
C233 C234 1.406 . S
C234 H201 0.929 . S
C234 C233 1.406 . S
C234 C235 1.391 . S
C235 H202 0.931 . S
C235 C230 1.370 . S
C235 C234 1.391 . S
C236 N210 1.435 . S
C236 C237 1.358 . S
C236 C241 1.371 . S
C237 H203 0.930 . S
C237 C236 1.358 . S
C237 C238 1.405 . S
C238 H204 0.932 . S
C238 C237 1.405 . S
C238 C239 1.383 . S
C239 C238 1.383 . S
C239 C240 1.393 . S
C240 H205 0.931 . S
C240 C239 1.393 . S
C240 C241 1.382 . S
C241 H206 0.929 . S
C241 C236 1.371 . S
C241 C240 1.382 . S
C242 N210 1.423 . S
C242 C243 1.362 . S
C242 C247 1.388 . S
C243 H207 0.929 . S
C243 C242 1.362 . S
C243 C244 1.376 . S
C244 H208 0.931 . S
C244 C243 1.376 . S
C244 C245 1.396 . S
C245 C227 1.472 . S
C245 C244 1.396 . S
C245 C246 1.348 . S
C246 H209 0.929 . S
C246 C245 1.348 . S
C246 C247 1.443 . S
C247 H211 0.932 . S
C247 C242 1.388 . S
C247 C246 1.443 . S
H248 C275 0.929 . S
N249 C274 1.433 . S
N249 C280 1.435 . S
N249 C286 1.423 . S
H250 C276 0.930 . S
H251 C279 0.931 . S
H252 C278 0.929 . S
H253 C281 0.930 . S
H254 C282 0.932 . S
H255 C285 0.929 . S
H256 C284 0.931 . S
H257 C287 0.929 . S
H258 C291 0.932 . S
H259 C288 0.931 . S
H260 C290 0.929 . S
H261 C293 0.929 . S
H262 C294 0.930 . S
H263 C296 0.929 . S
H264 C297 0.931 . S
H265 C299 0.930 . S
H266 C300 0.932 . S
H267 C302 0.931 . S
H268 C303 0.929 . S
H269 C305 0.929 . S
H270 C306 0.931 . S
H271 C308 0.929 . S
N272 C292 1.433 . S
N272 C298 1.435 . S
N272 C304 1.423 . S
H273 C309 0.932 . S
C274 N249 1.433 . S
C274 C275 1.363 . S
C274 C279 1.370 . S
C275 H248 0.929 . S
C275 C274 1.363 . S
C275 C276 1.385 . S
C276 H250 0.930 . S
C276 C275 1.385 . S
C276 C277 1.357 . S
C277 C276 1.357 . S
C277 C278 1.406 . S
C278 H252 0.929 . S
C278 C277 1.406 . S
C278 C279 1.391 . S
C279 H251 0.931 . S
C279 C274 1.370 . S
C279 C278 1.391 . S
C280 N249 1.435 . S
C280 C281 1.358 . S
C280 C285 1.371 . S
C281 H253 0.930 . S
C281 C280 1.358 . S
C281 C282 1.405 . S
C282 H254 0.932 . S
C282 C281 1.405 . S
C282 C283 1.383 . S
C283 C282 1.383 . S
C283 C284 1.393 . S
C284 H256 0.931 . S
C284 C283 1.393 . S
C284 C285 1.382 . S
C285 H255 0.929 . S
C285 C280 1.371 . S
C285 C284 1.382 . S
C286 N249 1.423 . S
C286 C287 1.362 . S
C286 C291 1.388 . S
C287 H257 0.929 . S
C287 C286 1.362 . S
C287 C288 1.376 . S
C288 H259 0.931 . S
C288 C287 1.376 . S
C288 C289 1.396 . S
C289 C288 1.396 . S
C289 C290 1.348 . S
C289 C307 1.472 . S
C290 H260 0.929 . S
C290 C289 1.348 . S
C290 C291 1.443 . S
C291 H258 0.932 . S
C291 C286 1.388 . S
C291 C290 1.443 . S
C292 N272 1.433 . S
C292 C293 1.363 . S
C292 C297 1.370 . S
C293 H261 0.929 . S
C293 C292 1.363 . S
C293 C294 1.385 . S
C294 H262 0.930 . S
C294 C293 1.385 . S
C294 C295 1.357 . S
C295 C294 1.357 . S
C295 C296 1.406 . S
C296 H263 0.929 . S
C296 C295 1.406 . S
C296 C297 1.391 . S
C297 H264 0.931 . S
C297 C292 1.370 . S
C297 C296 1.391 . S
C298 N272 1.435 . S
C298 C299 1.358 . S
C298 C303 1.371 . S
C299 H265 0.930 . S
C299 C298 1.358 . S
C299 C300 1.405 . S
C300 H266 0.932 . S
C300 C299 1.405 . S
C300 C301 1.383 . S
C301 C300 1.383 . S
C301 C302 1.393 . S
C302 H267 0.931 . S
C302 C301 1.393 . S
C302 C303 1.382 . S
C303 H268 0.929 . S
C303 C298 1.371 . S
C303 C302 1.382 . S
C304 N272 1.423 . S
C304 C305 1.362 . S
C304 C309 1.388 . S
C305 H269 0.929 . S
C305 C304 1.362 . S
C305 C306 1.376 . S
C306 H270 0.931 . S
C306 C305 1.376 . S
C306 C307 1.396 . S
C307 C289 1.472 . S
C307 C306 1.396 . S
C307 C308 1.348 . S
C308 H271 0.929 . S
C308 C307 1.348 . S
C308 C309 1.443 . S
C309 H273 0.932 . S
C309 C304 1.388 . S
C309 C308 1.443 . S
H310 C337 0.929 . S
N311 C336 1.433 . S
N311 C342 1.435 . S
N311 C348 1.423 . S
H312 C338 0.930 1_545 S
H313 C341 0.931 . S
H314 C340 0.929 . S
H315 C343 0.930 . S
H316 C344 0.932 . S
H317 C347 0.929 . S
H318 C346 0.931 . S
H319 C349 0.929 . S
H320 C353 0.932 . S
H321 C350 0.931 . S
H322 C352 0.929 . S
H323 C355 0.929 . S
H324 C356 0.930 . S
H325 C358 0.929 . S
H326 C359 0.931 . S
H327 C361 0.930 . S
H328 C362 0.932 . S
H329 C364 0.931 . S
H330 C365 0.929 . S
H331 C367 0.929 . S
H332 C368 0.931 . S
H333 C370 0.929 . S
N334 C354 1.433 . S
N334 C360 1.435 . S
N334 C366 1.423 . S
H335 C371 0.932 . S
C336 N311 1.433 . S
C336 C337 1.363 . S
C336 C341 1.370 . S
C337 H310 0.929 . S
C337 C336 1.363 . S
C337 C338 1.385 . S
C338 H312 0.930 1_565 S
C338 C337 1.385 . S
C338 C339 1.357 . S
C339 C338 1.357 . S
C339 C340 1.406 . S
C340 H314 0.929 . S
C340 C339 1.406 . S
C340 C341 1.391 . S
C341 H313 0.931 . S
C341 C336 1.370 . S
C341 C340 1.391 . S
C342 N311 1.435 . S
C342 C343 1.358 . S
C342 C347 1.371 . S
C343 H315 0.930 . S
C343 C342 1.358 . S
C343 C344 1.405 1_565 S
C344 H316 0.932 . S
C344 C343 1.405 1_545 S
C344 C345 1.383 1_545 S
C345 C344 1.383 1_565 S
C345 C346 1.393 . S
C346 H318 0.931 . S
C346 C345 1.393 . S
C346 C347 1.382 . S
C347 H317 0.929 . S
C347 C342 1.371 . S
C347 C346 1.382 . S
C348 N311 1.423 . S
C348 C349 1.362 . S
C348 C353 1.388 . S
C349 H319 0.929 . S
C349 C348 1.362 . S
C349 C350 1.376 . S
C350 H321 0.931 . S
C350 C349 1.376 . S
C350 C351 1.396 . S
C351 C350 1.396 . S
C351 C352 1.348 . S
C351 C369 1.472 . S
C352 H322 0.929 . S
C352 C351 1.348 . S
C352 C353 1.443 . S
C353 H320 0.932 . S
C353 C348 1.388 . S
C353 C352 1.443 . S
C354 N334 1.433 . S
C354 C355 1.363 . S
C354 C359 1.370 . S
C355 H323 0.929 . S
C355 C354 1.363 . S
C355 C356 1.385 . S
C356 H324 0.930 . S
C356 C355 1.385 . S
C356 C357 1.357 . S
C357 C356 1.357 . S
C357 C358 1.406 . S
C358 H325 0.929 . S
C358 C357 1.406 . S
C358 C359 1.391 . S
C359 H326 0.931 . S
C359 C354 1.370 . S
C359 C358 1.391 . S
C360 N334 1.435 . S
C360 C361 1.358 . S
C360 C365 1.371 . S
C361 H327 0.930 . S
C361 C360 1.358 . S
C361 C362 1.405 . S
C362 H328 0.932 . S
C362 C361 1.405 . S
C362 C363 1.383 . S
C363 C362 1.383 . S
C363 C364 1.393 . S
C364 H329 0.931 . S
C364 C363 1.393 . S
C364 C365 1.382 . S
C365 H330 0.929 . S
C365 C360 1.371 . S
C365 C364 1.382 . S
C366 N334 1.423 . S
C366 C367 1.362 . S
C366 C371 1.388 . S
C367 H331 0.929 . S
C367 C366 1.362 . S
C367 C368 1.376 . S
C368 H332 0.931 . S
C368 C367 1.376 . S
C368 C369 1.396 . S
C369 C351 1.472 . S
C369 C368 1.396 . S
C369 C370 1.348 . S
C370 H333 0.929 . S
C370 C369 1.348 . S
C370 C371 1.443 . S
C371 H335 0.932 . S
C371 C366 1.388 . S
C371 C370 1.443 . S
H372 C399 0.929 . S
N373 C398 1.433 . S
N373 C404 1.435 . S
N373 C410 1.423 . S
H374 C400 0.930 . S
H375 C403 0.931 . S
H376 C402 0.929 . S
H377 C405 0.930 . S
H378 C406 0.932 . S
H379 C409 0.929 . S
H380 C408 0.931 . S
H381 C411 0.929 1_556 S
H382 C415 0.932 . S
H383 C412 0.931 1_556 S
H384 C414 0.929 . S
H385 C417 0.929 . S
H386 C418 0.930 . S
H387 C420 0.929 . S
H388 C421 0.931 . S
H389 C423 0.930 . S
H390 C424 0.932 . S
H391 C426 0.931 . S
H392 C427 0.929 . S
H393 C429 0.929 1_556 S
H394 C430 0.931 1_556 S
H395 C432 0.929 . S
N396 C416 1.433 . S
N396 C422 1.435 . S
N396 C428 1.423 . S
H397 C433 0.932 . S
C398 N373 1.433 . S
C398 C399 1.363 . S
C398 C403 1.370 . S
C399 H372 0.929 . S
C399 C398 1.363 . S
C399 C400 1.385 1_554 S
C400 H374 0.930 . S
C400 C399 1.385 1_556 S
C400 C401 1.357 . S
C401 C400 1.357 . S
C401 C402 1.406 . S
C402 H376 0.929 . S
C402 C401 1.406 . S
C402 C403 1.391 1_556 S
C403 H375 0.931 . S
C403 C398 1.370 . S
C403 C402 1.391 1_554 S
C404 N373 1.435 . S
C404 C405 1.358 . S
C404 C409 1.371 . S
C405 H377 0.930 . S
C405 C404 1.358 . S
C405 C406 1.405 . S
C406 H378 0.932 . S
C406 C405 1.405 . S
C406 C407 1.383 . S
C407 C406 1.383 . S
C407 C408 1.393 . S
C408 H380 0.931 . S
C408 C407 1.393 . S
C408 C409 1.382 . S
C409 H379 0.929 . S
C409 C404 1.371 . S
C409 C408 1.382 . S
C410 N373 1.423 . S
C410 C411 1.362 . S
C410 C415 1.388 . S
C411 H381 0.929 1_554 S
C411 C410 1.362 . S
C411 C412 1.376 . S
C412 H383 0.931 1_554 S
C412 C411 1.376 . S
C412 C413 1.396 . S
C413 C412 1.396 . S
C413 C414 1.348 . S
C413 C431 1.472 . S
C414 H384 0.929 . S
C414 C413 1.348 . S
C414 C415 1.443 . S
C415 H382 0.932 . S
C415 C410 1.388 . S
C415 C414 1.443 . S
C416 N396 1.433 . S
C416 C417 1.363 . S
C416 C421 1.370 . S
C417 H385 0.929 . S
C417 C416 1.363 . S
C417 C418 1.385 1_554 S
C418 H386 0.930 . S
C418 C417 1.385 1_556 S
C418 C419 1.357 . S
C419 C418 1.357 . S
C419 C420 1.406 . S
C420 H387 0.929 . S
C420 C419 1.406 . S
C420 C421 1.391 1_556 S
C421 H388 0.931 . S
C421 C416 1.370 . S
C421 C420 1.391 1_554 S
C422 N396 1.435 . S
C422 C423 1.358 . S
C422 C427 1.371 . S
C423 H389 0.930 . S
C423 C422 1.358 . S
C423 C424 1.405 . S
C424 H390 0.932 . S
C424 C423 1.405 . S
C424 C425 1.383 . S
C425 C424 1.383 . S
C425 C426 1.393 . S
C426 H391 0.931 . S
C426 C425 1.393 . S
C426 C427 1.382 . S
C427 H392 0.929 . S
C427 C422 1.371 . S
C427 C426 1.382 . S
C428 N396 1.423 . S
C428 C429 1.362 . S
C428 C433 1.388 . S
C429 H393 0.929 1_554 S
C429 C428 1.362 . S
C429 C430 1.376 . S
C430 H394 0.931 1_554 S
C430 C429 1.376 . S
C430 C431 1.396 . S
C431 C413 1.472 . S
C431 C430 1.396 . S
C431 C432 1.348 . S
C432 H395 0.929 . S
C432 C431 1.348 . S
C432 C433 1.443 . S
C433 H397 0.932 . S
C433 C428 1.388 . S
C433 C432 1.443 . S
H434 C461 0.929 . S
N435 C460 1.433 . S
N435 C466 1.435 . S
N435 C472 1.423 . S
H436 C462 0.930 . S
H437 C465 0.931 . S
H438 C464 0.929 . S
H439 C467 0.930 . S
H440 C468 0.932 . S
H441 C471 0.929 . S
H442 C470 0.931 . S
H443 C473 0.929 . S
H444 C477 0.932 . S
H445 C474 0.931 . S
H446 C476 0.929 . S
H447 C479 0.929 . S
H448 C480 0.930 . S
H449 C482 0.929 . S
H450 C483 0.931 . S
H451 C485 0.930 . S
H452 C486 0.932 . S
H453 C488 0.931 . S
H454 C489 0.929 . S
H455 C491 0.929 . S
H456 C492 0.931 . S
H457 C494 0.929 . S
N458 C478 1.433 . S
N458 C484 1.435 . S
N458 C490 1.423 . S
H459 C495 0.932 . S
C460 N435 1.433 . S
C460 C461 1.363 . S
C460 C465 1.370 . S
C461 H434 0.929 . S
C461 C460 1.363 . S
C461 C462 1.385 . S
C462 H436 0.930 . S
C462 C461 1.385 . S
C462 C463 1.357 . S
C463 C462 1.357 . S
C463 C464 1.406 . S
C464 H438 0.929 . S
C464 C463 1.406 . S
C464 C465 1.391 . S
C465 H437 0.931 . S
C465 C460 1.370 . S
C465 C464 1.391 . S
C466 N435 1.435 . S
C466 C467 1.358 . S
C466 C471 1.371 . S
C467 H439 0.930 . S
C467 C466 1.358 . S
C467 C468 1.405 . S
C468 H440 0.932 . S
C468 C467 1.405 . S
C468 C469 1.383 . S
C469 C468 1.383 . S
C469 C470 1.393 . S
C470 H442 0.931 . S
C470 C469 1.393 . S
C470 C471 1.382 . S
C471 H441 0.929 . S
C471 C466 1.371 . S
C471 C470 1.382 . S
C472 N435 1.423 . S
C472 C473 1.362 . S
C472 C477 1.388 . S
C473 H443 0.929 . S
C473 C472 1.362 . S
C473 C474 1.376 . S
C474 H445 0.931 . S
C474 C473 1.376 . S
C474 C475 1.396 . S
C475 C474 1.396 . S
C475 C476 1.348 . S
C475 C493 1.472 1_455 S
C476 H446 0.929 . S
C476 C475 1.348 . S
C476 C477 1.443 . S
C477 H444 0.932 . S
C477 C472 1.388 . S
C477 C476 1.443 . S
C478 N458 1.433 . S
C478 C479 1.363 . S
C478 C483 1.370 . S
C479 H447 0.929 . S
C479 C478 1.363 . S
C479 C480 1.385 . S
C480 H448 0.930 . S
C480 C479 1.385 . S
C480 C481 1.357 . S
C481 C480 1.357 . S
C481 C482 1.406 . S
C482 H449 0.929 . S
C482 C481 1.406 . S
C482 C483 1.391 . S
C483 H450 0.931 . S
C483 C478 1.370 . S
C483 C482 1.391 . S
C484 N458 1.435 . S
C484 C485 1.358 . S
C484 C489 1.371 . S
C485 H451 0.930 . S
C485 C484 1.358 . S
C485 C486 1.405 . S
C486 H452 0.932 . S
C486 C485 1.405 . S
C486 C487 1.383 . S
C487 C486 1.383 . S
C487 C488 1.393 . S
C488 H453 0.931 . S
C488 C487 1.393 . S
C488 C489 1.382 . S
C489 H454 0.929 . S
C489 C484 1.371 . S
C489 C488 1.382 . S
C490 N458 1.423 . S
C490 C491 1.362 . S
C490 C495 1.388 . S
C491 H455 0.929 . S
C491 C490 1.362 . S
C491 C492 1.376 . S
C492 H456 0.931 . S
C492 C491 1.376 . S
C492 C493 1.396 . S
C493 C475 1.472 1_655 S
C493 C492 1.396 . S
C493 C494 1.348 . S
C494 H457 0.929 . S
C494 C493 1.348 . S
C494 C495 1.443 . S
C495 H459 0.932 . S
C495 C490 1.388 . S
C495 C494 1.443 . S
Fe496 O497 1.886 . S
Fe496 O500 1.715 1_455 S
Fe496 O505 2.077 . S
Fe496 O510 1.935 1_455 S
Fe496 O516 2.077 . S
Fe496 O525 1.935 1_455 S
O497 Fe496 1.886 . S
O497 Fe499 1.715 . S
Fe498 O500 1.886 . S
Fe498 O501 1.715 . S
Fe498 O508 1.935 . S
Fe498 O509 2.077 . S
Fe498 O515 1.935 . S
Fe498 O524 2.077 . S
Fe499 O497 1.715 . S
Fe499 O502 1.886 . S
Fe499 O506 1.935 . S
Fe499 O511 2.077 . S
Fe499 O517 1.935 . S
Fe499 O521 2.077 . S
O500 Fe496 1.715 1_655 S
O500 Fe498 1.886 . S
O501 Fe498 1.715 . S
O501 Fe503 1.904 . S
O502 Fe499 1.886 . S
O502 Fe503 1.696 1_455 S
Fe503 O501 1.904 . S
Fe503 O502 1.696 1_655 S
Fe503 O507 2.094 . S
Fe503 O512 1.921 1_655 S
Fe503 O514 2.094 . S
Fe503 O522 1.921 1_655 S
C504 O516 1.381 . S
C504 O517 1.421 . S
O505 Fe496 2.077 . S
O505 C518 1.381 . S
O506 Fe499 1.935 . S
O506 C518 1.421 . S
O507 Fe503 2.094 . S
O507 C523 1.381 . S
O508 Fe498 1.935 . S
O508 C523 1.421 . S
O509 Fe498 2.077 . S
O509 C513 1.381 . S
O510 Fe496 1.935 1_655 S
O510 C513 1.421 . S
O511 Fe499 2.077 . S
O511 C519 1.381 . S
O512 Fe503 1.921 1_455 S
O512 C519 1.421 . S
C513 O509 1.381 . S
C513 O510 1.421 . S
O514 Fe503 2.094 . S
O514 C526 1.381 . S
O515 Fe498 1.935 . S
O515 C526 1.421 . S
O516 Fe496 2.077 . S
O516 C504 1.381 . S
O517 Fe499 1.935 . S
O517 C504 1.421 . S
C518 O505 1.381 . S
C518 O506 1.421 . S
C519 O511 1.381 . S
C519 O512 1.421 . S
C520 O521 1.381 . S
C520 O522 1.421 . S
O521 Fe499 2.077 . S
O521 C520 1.381 . S
O522 Fe503 1.921 1_455 S
O522 C520 1.421 . S
C523 O507 1.381 . S
C523 O508 1.421 . S
O524 Fe498 2.077 . S
O524 C527 1.381 . S
O525 Fe496 1.935 1_655 S
O525 C527 1.421 . S
C526 O514 1.381 . S
C526 O515 1.421 . S
C527 O524 1.381 . S
C527 O525 1.421 . S
Fe528 O529 1.886 . S
Fe528 O532 1.715 . S
Fe528 O537 2.077 . S
Fe528 O542 1.935 . S
Fe528 O548 2.077 . S
Fe528 O557 1.935 . S
O529 Fe528 1.886 . S
O529 Fe531 1.715 . S
Fe530 O532 1.886 . S
Fe530 O533 1.715 . S
Fe530 O540 1.935 . S
Fe530 O541 2.077 . S
Fe530 O547 1.935 . S
Fe530 O556 2.077 . S
Fe531 O529 1.715 . S
Fe531 O534 1.886 . S
Fe531 O538 1.935 . S
Fe531 O543 2.077 . S
Fe531 O549 1.935 . S
Fe531 O553 2.077 . S
O532 Fe528 1.715 . S
O532 Fe530 1.886 . S
O533 Fe530 1.715 . S
O533 Fe535 1.886 . S
O534 Fe531 1.886 . S
O534 Fe535 1.715 . S
Fe535 O533 1.886 . S
Fe535 O534 1.715 . S
Fe535 O539 2.077 . S
Fe535 O544 1.935 . S
Fe535 O546 2.077 . S
Fe535 O554 1.935 . S
C536 O548 1.381 . S
C536 O549 1.421 . S
O537 Fe528 2.077 . S
O537 C550 1.381 . S
O538 Fe531 1.935 . S
O538 C550 1.421 . S
O539 Fe535 2.077 . S
O539 C555 1.381 . S
O540 Fe530 1.935 . S
O540 C555 1.421 . S
O541 Fe530 2.077 . S
O541 C545 1.381 . S
O542 Fe528 1.935 . S
O542 C545 1.421 . S
O543 Fe531 2.077 . S
O543 C551 1.381 . S
O544 Fe535 1.935 . S
O544 C551 1.421 . S
C545 O541 1.381 . S
C545 O542 1.421 . S
O546 Fe535 2.077 . S
O546 C558 1.381 . S
O547 Fe530 1.935 . S
O547 C558 1.421 . S
O548 Fe528 2.077 . S
O548 C536 1.381 . S
O549 Fe531 1.935 . S
O549 C536 1.421 . S
C550 O537 1.381 . S
C550 O538 1.421 . S
C551 O543 1.381 . S
C551 O544 1.421 . S
C552 O553 1.381 . S
C552 O554 1.421 . S
O553 Fe531 2.077 . S
O553 C552 1.381 . S
O554 Fe535 1.935 . S
O554 C552 1.421 . S
C555 O539 1.381 . S
C555 O540 1.421 . S
O556 Fe530 2.077 . S
O556 C559 1.381 . S
O557 Fe528 1.935 . S
O557 C559 1.421 . S
C558 O546 1.381 . S
C558 O547 1.421 . S
C559 O556 1.381 . S
C559 O557 1.421 . S
Fe560 O561 1.886 . S
Fe560 O564 1.715 . S
Fe560 O569 2.077 . S
Fe560 O574 1.935 . S
Fe560 O580 2.077 . S
Fe560 O589 1.935 . S
O561 Fe560 1.886 . S
O561 Fe563 1.715 . S
Fe562 O564 1.886 . S
Fe562 O565 1.715 . S
Fe562 O572 1.935 . S
Fe562 O573 2.077 . S
Fe562 O579 1.935 . S
Fe562 O588 2.077 . S
Fe563 O561 1.715 . S
Fe563 O566 1.886 . S
Fe563 O570 1.935 . S
Fe563 O575 2.077 . S
Fe563 O581 1.935 . S
Fe563 O585 2.077 . S
O564 Fe560 1.715 . S
O564 Fe562 1.886 . S
O565 Fe562 1.715 . S
O565 Fe567 1.886 . S
O566 Fe563 1.886 . S
O566 Fe567 1.715 . S
Fe567 O565 1.886 . S
Fe567 O566 1.715 . S
Fe567 O571 2.077 . S
Fe567 O576 1.935 . S
Fe567 O578 2.077 . S
Fe567 O586 1.935 . S
C568 O580 1.381 . S
C568 O581 1.421 . S
O569 Fe560 2.077 . S
O569 C582 1.381 . S
O570 Fe563 1.935 . S
O570 C582 1.421 . S
O571 Fe567 2.077 . S
O571 C587 1.381 . S
O572 Fe562 1.935 . S
O572 C587 1.421 . S
O573 Fe562 2.077 . S
O573 C577 1.381 . S
O574 Fe560 1.935 . S
O574 C577 1.421 . S
O575 Fe563 2.077 . S
O575 C583 1.381 . S
O576 Fe567 1.935 . S
O576 C583 1.421 . S
C577 O573 1.381 . S
C577 O574 1.421 . S
O578 Fe567 2.077 . S
O578 C590 1.381 . S
O579 Fe562 1.935 . S
O579 C590 1.421 . S
O580 Fe560 2.077 . S
O580 C568 1.381 . S
O581 Fe563 1.935 . S
O581 C568 1.421 . S
C582 O569 1.381 . S
C582 O570 1.421 . S
C583 O575 1.381 . S
C583 O576 1.421 . S
C584 O585 1.381 . S
C584 O586 1.421 . S
O585 Fe563 2.077 . S
O585 C584 1.381 . S
O586 Fe567 1.935 . S
O586 C584 1.421 . S
C587 O571 1.381 . S
C587 O572 1.421 . S
O588 Fe562 2.077 . S
O588 C591 1.381 . S
O589 Fe560 1.935 . S
O589 C591 1.421 . S
C590 O578 1.381 . S
C590 O579 1.421 . S
C591 O588 1.381 . S
C591 O589 1.421 . S
Fe592 O593 1.886 . S
Fe592 O596 1.715 . S
Fe592 O601 2.077 1_455 S
Fe592 O606 1.935 1_455 S
Fe592 O612 2.077 . S
Fe592 O621 1.935 . S
O593 Fe592 1.886 . S
O593 Fe595 1.715 . S
Fe594 O596 1.886 . S
Fe594 O597 1.715 . S
Fe594 O604 1.935 1_455 S
Fe594 O605 2.077 1_455 S
Fe594 O611 1.935 . S
Fe594 O620 2.077 . S
Fe595 O593 1.715 . S
Fe595 O598 1.886 . S
Fe595 O602 1.935 1_455 S
Fe595 O607 2.077 1_455 S
Fe595 O613 1.935 . S
Fe595 O617 2.077 . S
O596 Fe592 1.715 . S
O596 Fe594 1.886 . S
O597 Fe594 1.715 . S
O597 Fe599 1.886 . S
O598 Fe595 1.886 . S
O598 Fe599 1.715 . S
Fe599 O597 1.886 . S
Fe599 O598 1.715 . S
Fe599 O603 2.077 1_455 S
Fe599 O608 1.935 1_455 S
Fe599 O610 2.077 . S
Fe599 O618 1.935 . S
C600 O612 1.381 . S
C600 O613 1.421 . S
O601 Fe592 2.077 1_655 S
O601 C614 1.381 . S
O602 Fe595 1.935 1_655 S
O602 C614 1.421 . S
O603 Fe599 2.077 1_655 S
O603 C619 1.381 . S
O604 Fe594 1.935 1_655 S
O604 C619 1.421 . S
O605 Fe594 2.077 1_655 S
O605 C609 1.381 . S
O606 Fe592 1.935 1_655 S
O606 C609 1.421 . S
O607 Fe595 2.077 1_655 S
O607 C615 1.381 . S
O608 Fe599 1.935 1_655 S
O608 C615 1.421 . S
C609 O605 1.381 . S
C609 O606 1.421 . S
O610 Fe599 2.077 . S
O610 C622 1.381 . S
O611 Fe594 1.935 . S
O611 C622 1.421 . S
O612 Fe592 2.077 . S
O612 C600 1.381 . S
O613 Fe595 1.935 . S
O613 C600 1.421 . S
C614 O601 1.381 . S
C614 O602 1.421 . S
C615 O607 1.381 . S
C615 O608 1.421 . S
C616 O617 1.381 . S
C616 O618 1.421 . S
O617 Fe595 2.077 . S
O617 C616 1.381 . S
O618 Fe599 1.935 . S
O618 C616 1.421 . S
C619 O603 1.381 . S
C619 O604 1.421 . S
O620 Fe594 2.077 . S
O620 C623 1.381 . S
O621 Fe592 1.935 . S
O621 C623 1.421 . S
C622 O610 1.381 . S
C622 O611 1.421 . S
C623 O620 1.381 . S
C623 O621 1.421 . S
H624 C636 0.930 . S
H625 C638 0.930 . S
H626 C639 0.930 . S
H627 C643 0.959 . S
H628 C643 0.959 . S
H629 C643 0.979 . S
H630 C644 0.960 . S
H631 C644 0.961 . S
H632 C644 0.959 . S
H633 C647 0.929 . S
H634 C648 0.931 . S
H635 C650 0.930 . S
C636 H624 0.930 . S
C636 C637 1.399 . S
C636 C641 1.399 . S
C637 C636 1.399 . S
C637 C638 1.376 . S
C638 H625 0.930 . S
C638 C637 1.376 . S
C638 C639 1.388 . S
C639 H626 0.930 . S
C639 C638 1.388 . S
C639 C640 1.390 . S
C640 C639 1.390 . S
C640 C641 1.394 . S
C640 C646 1.465 . S
C641 C636 1.399 . S
C641 C640 1.394 . S
C641 C642 1.516 . S
C642 C641 1.516 . S
C642 C643 1.502 . S
C642 C644 1.561 . S
C642 C645 1.526 . S
C643 H627 0.959 . S
C643 H628 0.959 . S
C643 H629 0.979 . S
C643 C642 1.502 . S
C644 H630 0.960 . S
C644 H631 0.961 . S
C644 H632 0.959 . S
C644 C642 1.561 . S
C645 C642 1.526 . S
C645 C646 1.396 . S
C645 C650 1.390 . S
C646 C640 1.465 . S
C646 C645 1.396 . S
C646 C647 1.399 . S
C647 H633 0.929 . S
C647 C646 1.399 . S
C647 C648 1.385 . S
C648 H634 0.931 . S
C648 C647 1.385 . S
C648 C649 1.389 . S
C649 C648 1.389 . S
C649 C650 1.387 . S
C650 H635 0.930 . S
C650 C645 1.390 . S
C650 C649 1.387 . S
H651 C663 0.930 . S
H652 C665 0.930 1_565 S
H653 C666 0.930 . S
H654 C670 0.959 . S
H655 C670 0.959 . S
H656 C670 0.961 . S
H657 C671 0.960 . S
H658 C671 0.961 . S
H659 C671 0.959 . S
H660 C674 0.929 . S
H661 C675 0.931 . S
H662 C677 0.930 . S
C663 H651 0.930 . S
C663 C664 1.399 . S
C663 C668 1.399 . S
C664 C663 1.399 . S
C664 C665 1.376 . S
C665 H652 0.930 1_545 S
C665 C664 1.376 . S
C665 C666 1.388 . S
C666 H653 0.930 . S
C666 C665 1.388 . S
C666 C667 1.390 . S
C667 C666 1.390 . S
C667 C668 1.394 . S
C667 C673 1.465 . S
C668 C663 1.399 . S
C668 C667 1.394 . S
C668 C669 1.516 . S
C669 C668 1.516 . S
C669 C670 1.502 . S
C669 C671 1.561 . S
C669 C672 1.526 . S
C670 H654 0.959 . S
C670 H655 0.959 . S
C670 H656 0.961 . S
C670 C669 1.502 . S
C671 H657 0.960 . S
C671 H658 0.961 . S
C671 H659 0.959 . S
C671 C669 1.561 . S
C672 C669 1.526 . S
C672 C673 1.396 . S
C672 C677 1.390 . S
C673 C667 1.465 . S
C673 C672 1.396 . S
C673 C674 1.399 . S
C674 H660 0.929 . S
C674 C673 1.399 . S
C674 C675 1.385 . S
C675 H661 0.931 . S
C675 C674 1.385 . S
C675 C676 1.389 . S
C676 C675 1.389 . S
C676 C677 1.387 . S
C677 H662 0.930 . S
C677 C672 1.390 . S
C677 C676 1.387 . S
H678 C690 0.930 . S
H679 C692 0.924 . S
H680 C693 0.930 . S
H681 C697 0.959 . S
H682 C697 0.959 . S
H683 C697 0.961 . S
H684 C698 0.960 . S
H685 C698 0.961 . S
H686 C698 0.959 . S
H687 C701 0.929 . S
H688 C702 0.931 . S
H689 C704 0.930 . S
C690 H678 0.930 . S
C690 C691 1.399 . S
C690 C695 1.399 . S
C691 C690 1.399 . S
C691 C692 1.376 . S
C692 H679 0.924 . S
C692 C691 1.376 . S
C692 C693 1.388 . S
C693 H680 0.930 . S
C693 C692 1.388 . S
C693 C694 1.390 . S
C694 C693 1.390 . S
C694 C695 1.394 . S
C694 C700 1.465 . S
C695 C690 1.399 . S
C695 C694 1.394 . S
C695 C696 1.516 . S
C696 C695 1.516 . S
C696 C697 1.502 . S
C696 C698 1.561 . S
C696 C699 1.526 . S
C697 H681 0.959 . S
C697 H682 0.959 . S
C697 H683 0.961 . S
C697 C696 1.502 . S
C698 H684 0.960 . S
C698 H685 0.961 . S
C698 H686 0.959 . S
C698 C696 1.561 . S
C699 C696 1.526 . S
C699 C700 1.396 . S
C699 C704 1.390 . S
C700 C694 1.465 . S
C700 C699 1.396 . S
C700 C701 1.399 . S
C701 H687 0.929 . S
C701 C700 1.399 . S
C701 C702 1.385 . S
C702 H688 0.931 . S
C702 C701 1.385 . S
C702 C703 1.389 . S
C703 C702 1.389 . S
C703 C704 1.387 . S
C704 H689 0.930 . S
C704 C699 1.390 . S
C704 C703 1.387 . S
H705 C717 0.930 . S
H706 C719 0.930 . S
H707 C720 0.930 . S
H708 C724 0.959 . S
H709 C724 0.959 . S
H710 C724 0.961 . S
H711 C725 0.960 . S
H712 C725 0.961 . S
H713 C725 0.959 . S
H714 C728 0.929 . S
H715 C729 0.931 . S
H716 C731 0.930 . S
C717 H705 0.930 . S
C717 C718 1.400 . S
C717 C722 1.399 . S
C718 C717 1.400 . S
C718 C719 1.378 . S
C719 H706 0.930 . S
C719 C718 1.378 . S
C719 C720 1.388 . S
C720 H707 0.930 . S
C720 C719 1.388 . S
C720 C721 1.390 . S
C721 C720 1.390 . S
C721 C722 1.394 . S
C721 C727 1.465 . S
C722 C717 1.399 . S
C722 C721 1.394 . S
C722 C723 1.516 . S
C723 C722 1.516 . S
C723 C724 1.502 . S
C723 C725 1.561 . S
C723 C726 1.526 . S
C724 H708 0.959 . S
C724 H709 0.959 . S
C724 H710 0.961 . S
C724 C723 1.502 . S
C725 H711 0.960 . S
C725 H712 0.961 . S
C725 H713 0.959 . S
C725 C723 1.561 . S
C726 C723 1.526 . S
C726 C727 1.396 . S
C726 C731 1.390 . S
C727 C721 1.465 . S
C727 C726 1.396 . S
C727 C728 1.399 . S
C728 H714 0.929 . S
C728 C727 1.399 . S
C728 C729 1.385 . S
C729 H715 0.931 . S
C729 C728 1.385 . S
C729 C730 1.389 . S
C730 C729 1.389 . S
C730 C731 1.387 . S
C731 H716 0.930 . S
C731 C726 1.390 . S
C731 C730 1.387 . S
H732 C744 0.930 . S
H733 C746 0.930 . S
H734 C747 0.930 . S
H735 C751 0.959 . S
H736 C751 0.959 . S
H737 C751 0.961 . S
H738 C752 0.960 . S
H739 C752 0.961 . S
H740 C752 0.959 . S
H741 C755 0.929 . S
H742 C756 0.931 . S
H743 C758 0.930 . S
C744 H732 0.930 . S
C744 C745 1.399 . S
C744 C749 1.399 . S
C745 C744 1.399 . S
C745 C746 1.376 . S
C746 H733 0.930 . S
C746 C745 1.376 . S
C746 C747 1.388 . S
C747 H734 0.930 . S
C747 C746 1.388 . S
C747 C748 1.390 . S
C748 C747 1.390 . S
C748 C749 1.394 . S
C748 C754 1.465 . S
C749 C744 1.399 . S
C749 C748 1.394 . S
C749 C750 1.516 . S
C750 C749 1.516 . S
C750 C751 1.502 . S
C750 C752 1.561 . S
C750 C753 1.526 . S
C751 H735 0.959 . S
C751 H736 0.959 . S
C751 H737 0.961 . S
C751 C750 1.502 . S
C752 H738 0.960 . S
C752 H739 0.961 . S
C752 H740 0.959 . S
C752 C750 1.561 . S
C753 C750 1.526 . S
C753 C754 1.396 . S
C753 C758 1.390 . S
C754 C748 1.465 . S
C754 C753 1.396 . S
C754 C755 1.399 . S
C755 H741 0.929 . S
C755 C754 1.399 . S
C755 C756 1.385 . S
C756 H742 0.931 . S
C756 C755 1.385 . S
C756 C757 1.389 . S
C757 C756 1.389 . S
C757 C758 1.387 . S
C758 H743 0.930 . S
C758 C753 1.390 . S
C758 C757 1.387 . S
H759 C771 0.930 . S
H760 C773 0.930 . S
H761 C774 0.930 1_565 S
H762 C778 0.959 . S
H763 C778 0.959 . S
H764 C778 0.961 . S
H765 C779 0.960 . S
H766 C779 0.961 . S
H767 C779 0.959 . S
H768 C782 0.929 . S
H769 C783 0.931 . S
H770 C785 0.930 . S
C771 H759 0.930 . S
C771 C772 1.399 1_545 S
C771 C776 1.399 . S
C772 C771 1.399 1_565 S
C772 C773 1.376 . S
C773 H760 0.930 . S
C773 C772 1.376 . S
C773 C774 1.388 1_565 S
C774 H761 0.930 1_545 S
C774 C773 1.388 1_545 S
C774 C775 1.390 . S
C775 C774 1.390 . S
C775 C776 1.394 . S
C775 C781 1.465 . S
C776 C771 1.399 . S
C776 C775 1.394 . S
C776 C777 1.516 . S
C777 C776 1.516 . S
C777 C778 1.502 . S
C777 C779 1.561 . S
C777 C780 1.526 . S
C778 H762 0.959 . S
C778 H763 0.959 . S
C778 H764 0.961 . S
C778 C777 1.502 . S
C779 H765 0.960 . S
C779 H766 0.961 . S
C779 H767 0.959 . S
C779 C777 1.561 . S
C780 C777 1.526 . S
C780 C781 1.396 . S
C780 C785 1.390 . S
C781 C775 1.465 . S
C781 C780 1.396 . S
C781 C782 1.399 . S
C782 H768 0.929 . S
C782 C781 1.399 . S
C782 C783 1.385 . S
C783 H769 0.931 . S
C783 C782 1.385 . S
C783 C784 1.389 . S
C784 C783 1.389 . S
C784 C785 1.387 . S
C785 H770 0.930 . S
C785 C780 1.390 . S
C785 C784 1.387 . S
H786 C798 0.930 . S
H787 C800 0.930 . S
H788 C801 0.930 . S
H789 C805 0.959 . S
H790 C805 0.959 . S
H791 C805 0.961 . S
H792 C806 0.960 . S
H793 C806 0.961 . S
H794 C806 0.959 . S
H795 C809 0.929 . S
H796 C810 0.931 . S
H797 C812 0.930 . S
C798 H786 0.930 . S
C798 C799 1.399 . S
C798 C803 1.399 . S
C799 C798 1.399 . S
C799 C800 1.376 . S
C800 H787 0.930 . S
C800 C799 1.376 . S
C800 C801 1.388 . S
C801 H788 0.930 . S
C801 C800 1.388 . S
C801 C802 1.390 . S
C802 C801 1.390 . S
C802 C803 1.394 . S
C802 C808 1.465 . S
C803 C798 1.399 . S
C803 C802 1.394 . S
C803 C804 1.516 . S
C804 C803 1.516 . S
C804 C805 1.502 . S
C804 C806 1.561 . S
C804 C807 1.526 . S
C805 H789 0.959 . S
C805 H790 0.959 . S
C805 H791 0.961 . S
C805 C804 1.502 . S
C806 H792 0.960 . S
C806 H793 0.961 . S
C806 H794 0.959 . S
C806 C804 1.561 . S
C807 C804 1.526 . S
C807 C808 1.396 . S
C807 C812 1.390 . S
C808 C802 1.465 . S
C808 C807 1.396 . S
C808 C809 1.399 . S
C809 H795 0.929 . S
C809 C808 1.399 . S
C809 C810 1.385 . S
C810 H796 0.931 . S
C810 C809 1.385 . S
C810 C811 1.389 . S
C811 C810 1.389 . S
C811 C812 1.387 . S
C812 H797 0.930 . S
C812 C807 1.390 . S
C812 C811 1.387 . S
H813 C825 0.930 . S
H814 C827 0.930 . S
H815 C828 0.930 . S
H816 C832 0.959 . S
H817 C832 0.959 . S
H818 C832 0.961 . S
H819 C833 0.960 . S
H820 C833 0.961 . S
H821 C833 0.959 . S
H822 C836 0.929 . S
H823 C837 0.931 . S
H824 C839 0.930 . S
C825 H813 0.930 . S
C825 C826 1.399 . S
C825 C830 1.399 1_545 S
C826 C825 1.399 . S
C826 C827 1.376 . S
C827 H814 0.930 . S
C827 C826 1.376 . S
C827 C828 1.388 . S
C828 H815 0.930 . S
C828 C827 1.388 . S
C828 C829 1.390 1_545 S
C829 C828 1.390 1_565 S
C829 C830 1.394 . S
C829 C835 1.465 . S
C830 C825 1.399 1_565 S
C830 C829 1.394 . S
C830 C831 1.516 . S
C831 C830 1.516 . S
C831 C832 1.502 . S
C831 C833 1.561 . S
C831 C834 1.526 . S
C832 H816 0.959 . S
C832 H817 0.959 . S
C832 H818 0.961 . S
C832 C831 1.502 . S
C833 H819 0.960 . S
C833 H820 0.961 . S
C833 H821 0.959 . S
C833 C831 1.561 . S
C834 C831 1.526 . S
C834 C835 1.396 . S
C834 C839 1.390 . S
C835 C829 1.465 . S
C835 C834 1.396 . S
C835 C836 1.399 . S
C836 H822 0.929 . S
C836 C835 1.399 . S
C836 C837 1.385 . S
C837 H823 0.931 . S
C837 C836 1.385 . S
C837 C838 1.389 . S
C838 C837 1.389 . S
C838 C839 1.387 . S
C839 H824 0.930 . S
C839 C834 1.390 . S
C839 C838 1.387 . S
H840 C852 0.930 . S
H841 C854 0.930 . S
H842 C855 0.930 . S
H843 C859 0.959 . S
H844 C859 0.959 . S
H845 C859 0.961 . S
H846 C860 0.960 . S
H847 C860 0.961 . S
H848 C860 0.959 . S
H849 C863 0.929 . S
H850 C864 0.931 . S
H851 C866 0.930 . S
C852 H840 0.930 . S
C852 C853 1.399 . S
C852 C857 1.399 . S
C853 C852 1.399 . S
C853 C854 1.376 . S
C854 H841 0.930 . S
C854 C853 1.376 . S
C854 C855 1.388 . S
C855 H842 0.930 . S
C855 C854 1.388 . S
C855 C856 1.390 . S
C856 C855 1.390 . S
C856 C857 1.394 . S
C856 C862 1.465 . S
C857 C852 1.399 . S
C857 C856 1.394 . S
C857 C858 1.516 . S
C858 C857 1.516 . S
C858 C859 1.502 . S
C858 C860 1.561 . S
C858 C861 1.526 . S
C859 H843 0.959 . S
C859 H844 0.959 . S
C859 H845 0.961 . S
C859 C858 1.502 . S
C860 H846 0.960 . S
C860 H847 0.961 . S
C860 H848 0.959 . S
C860 C858 1.561 . S
C861 C858 1.526 . S
C861 C862 1.396 . S
C861 C866 1.390 . S
C862 C856 1.465 . S
C862 C861 1.396 . S
C862 C863 1.399 . S
C863 H849 0.929 . S
C863 C862 1.399 . S
C863 C864 1.385 . S
C864 H850 0.931 . S
C864 C863 1.385 . S
C864 C865 1.389 . S
C865 C864 1.389 . S
C865 C866 1.387 . S
C866 H851 0.930 . S
C866 C861 1.390 . S
C866 C865 1.387 . S
H867 C879 0.930 . S
H868 C881 0.930 . S
H869 C882 0.930 . S
H870 C886 0.959 . S
H871 C886 0.959 . S
H872 C886 0.961 . S
H873 C887 0.960 . S
H874 C887 0.961 . S
H875 C887 0.959 . S
H876 C890 0.929 . S
H877 C891 0.931 . S
H878 C893 0.930 . S
C879 H867 0.930 . S
C879 C880 1.399 . S
C879 C884 1.399 1_545 S
C880 C879 1.399 . S
C880 C881 1.376 . S
C881 H868 0.930 . S
C881 C880 1.376 . S
C881 C882 1.388 1_545 S
C882 H869 0.930 . S
C882 C881 1.388 1_565 S
C882 C883 1.390 . S
C883 C882 1.390 . S
C883 C884 1.394 . S
C883 C889 1.465 . S
C884 C879 1.399 1_565 S
C884 C883 1.394 . S
C884 C885 1.516 . S
C885 C884 1.516 . S
C885 C886 1.502 . S
C885 C887 1.561 . S
C885 C888 1.526 . S
C886 H870 0.959 . S
C886 H871 0.959 . S
C886 H872 0.961 . S
C886 C885 1.502 . S
C887 H873 0.960 . S
C887 H874 0.961 . S
C887 H875 0.959 . S
C887 C885 1.561 . S
C888 C885 1.526 . S
C888 C889 1.396 . S
C888 C893 1.390 . S
C889 C883 1.465 . S
C889 C888 1.396 . S
C889 C890 1.399 . S
C890 H876 0.929 . S
C890 C889 1.399 . S
C890 C891 1.385 . S
C891 H877 0.931 . S
C891 C890 1.385 . S
C891 C892 1.389 . S
C892 C891 1.389 . S
C892 C893 1.387 . S
C893 H878 0.930 . S
C893 C888 1.390 . S
C893 C892 1.387 . S
H894 C906 0.930 . S
H895 C908 0.930 . S
H896 C909 0.930 . S
H897 C913 0.959 . S
H898 C913 0.959 . S
H899 C913 0.961 . S
H900 C914 0.960 . S
H901 C914 0.961 . S
H902 C914 0.959 . S
H903 C917 0.929 . S
H904 C918 0.931 . S
H905 C920 0.930 . S
C906 H894 0.930 . S
C906 C907 1.399 . S
C906 C911 1.399 . S
C907 C906 1.399 . S
C907 C908 1.376 . S
C908 H895 0.930 . S
C908 C907 1.376 . S
C908 C909 1.388 . S
C909 H896 0.930 . S
C909 C908 1.388 . S
C909 C910 1.390 . S
C910 C909 1.390 . S
C910 C911 1.394 . S
C910 C916 1.465 . S
C911 C906 1.399 . S
C911 C910 1.394 . S
C911 C912 1.516 . S
C912 C911 1.516 . S
C912 C913 1.502 . S
C912 C914 1.561 . S
C912 C915 1.526 . S
C913 H897 0.959 . S
C913 H898 0.959 . S
C913 H899 0.961 . S
C913 C912 1.502 . S
C914 H900 0.960 . S
C914 H901 0.961 . S
C914 H902 0.959 . S
C914 C912 1.561 . S
C915 C912 1.526 . S
C915 C916 1.396 . S
C915 C920 1.390 . S
C916 C910 1.465 . S
C916 C915 1.396 . S
C916 C917 1.399 . S
C917 H903 0.929 . S
C917 C916 1.399 . S
C917 C918 1.385 . S
C918 H904 0.931 . S
C918 C917 1.385 . S
C918 C919 1.389 . S
C919 C918 1.389 . S
C919 C920 1.387 . S
C920 H905 0.930 . S
C920 C915 1.390 . S
C920 C919 1.387 . S
H921 C933 0.930 1_565 S
H922 C935 0.930 . S
H923 C936 0.930 . S
H924 C940 0.959 . S
H925 C940 0.959 . S
H926 C940 0.961 . S
H927 C941 0.978 . S
H928 C941 0.961 . S
H929 C941 0.959 . S
H930 C944 0.929 . S
H931 C945 0.931 . S
H932 C947 0.930 . S
C933 H921 0.930 1_545 S
C933 C934 1.399 1_545 S
C933 C938 1.399 . S
C934 C933 1.399 1_565 S
C934 C935 1.376 1_565 S
C935 H922 0.930 . S
C935 C934 1.376 1_545 S
C935 C936 1.388 . S
C936 H923 0.930 . S
C936 C935 1.388 . S
C936 C937 1.390 . S
C937 C936 1.390 . S
C937 C938 1.394 . S
C937 C943 1.465 . S
C938 C933 1.399 . S
C938 C937 1.394 . S
C938 C939 1.516 . S
C939 C938 1.516 . S
C939 C940 1.502 . S
C939 C941 1.561 . S
C939 C942 1.526 . S
C940 H924 0.959 . S
C940 H925 0.959 . S
C940 H926 0.961 . S
C940 C939 1.502 . S
C941 H927 0.978 . S
C941 H928 0.961 . S
C941 H929 0.959 . S
C941 C939 1.561 . S
C942 C939 1.526 . S
C942 C943 1.396 . S
C942 C947 1.390 . S
C943 C937 1.465 . S
C943 C942 1.396 . S
C943 C944 1.399 . S
C944 H930 0.929 . S
C944 C943 1.399 . S
C944 C945 1.385 . S
C945 H931 0.931 . S
C945 C944 1.385 . S
C945 C946 1.389 . S
C946 C945 1.389 . S
C946 C947 1.387 . S
C947 H932 0.930 . S
C947 C942 1.390 . S
C947 C946 1.387 . S
H948 C960 0.930 . S
H949 C962 0.930 . S
H950 C963 0.930 . S
H951 C967 0.959 . S
H952 C967 0.959 . S
H953 C967 0.961 . S
H954 C968 0.960 . S
H955 C968 0.961 . S
H956 C968 0.959 . S
H957 C971 0.929 . S
H958 C972 0.931 . S
H959 C974 0.930 . S
C960 H948 0.930 . S
C960 C961 1.399 . S
C960 C965 1.399 . S
C961 C960 1.399 . S
C961 C962 1.376 . S
C962 H949 0.930 . S
C962 C961 1.376 . S
C962 C963 1.388 . S
C963 H950 0.930 . S
C963 C962 1.388 . S
C963 C964 1.390 . S
C964 C963 1.390 . S
C964 C965 1.394 . S
C964 C970 1.465 . S
C965 C960 1.399 . S
C965 C964 1.394 . S
C965 C966 1.516 . S
C966 C965 1.516 . S
C966 C967 1.502 . S
C966 C968 1.561 . S
C966 C969 1.526 . S
C967 H951 0.959 . S
C967 H952 0.959 . S
C967 H953 0.961 . S
C967 C966 1.502 . S
C968 H954 0.960 . S
C968 H955 0.961 . S
C968 H956 0.959 . S
C968 C966 1.561 . S
C969 C966 1.526 . S
C969 C970 1.396 . S
C969 C974 1.390 . S
C970 C964 1.465 . S
C970 C969 1.396 . S
C970 C971 1.399 . S
C971 H957 0.929 . S
C971 C970 1.399 . S
C971 C972 1.385 . S
C972 H958 0.931 . S
C972 C971 1.385 . S
C972 C973 1.389 . S
C973 C972 1.389 . S
C973 C974 1.387 . S
C974 H959 0.930 . S
C974 C969 1.390 . S
C974 C973 1.387 . S
H975 C987 0.930 . S
H976 C989 0.930 . S
H977 C990 0.930 . S
H978 C994 0.959 . S
H979 C994 0.959 . S
H980 C994 0.961 1_545 S
H981 C995 0.960 1_545 S
H982 C995 0.961 . S
H983 C995 0.959 . S
H984 C998 0.929 . S
H985 C999 0.931 . S
H986 C1001 0.930 . S
C987 H975 0.930 . S
C987 C988 1.396 1_545 S
C987 C992 1.399 1_545 S
C988 C987 1.396 1_565 S
C988 C989 1.401 . S
C989 H976 0.930 . S
C989 C988 1.401 . S
C989 C990 1.388 . S
C990 H977 0.930 . S
C990 C989 1.388 . S
C990 C991 1.390 . S
C991 C990 1.390 . S
C991 C992 1.394 . S
C991 C997 1.465 . S
C992 C987 1.399 1_565 S
C992 C991 1.394 . S
C992 C993 1.516 . S
C993 C992 1.516 . S
C993 C994 1.502 . S
C993 C995 1.561 . S
C993 C996 1.526 . S
C994 H978 0.959 . S
C994 H979 0.959 . S
C994 H980 0.961 1_565 S
C994 C993 1.502 . S
C995 H981 0.960 1_565 S
C995 H982 0.961 . S
C995 H983 0.959 . S
C995 C993 1.561 . S
C996 C993 1.526 . S
C996 C997 1.396 . S
C996 C1001 1.390 . S
C997 C991 1.465 . S
C997 C996 1.396 . S
C997 C998 1.399 . S
C998 H984 0.929 . S
C998 C997 1.399 . S
C998 C999 1.385 . S
C999 H985 0.931 . S
C999 C998 1.385 . S
C999 C1000 1.389 . S
C1000 C999 1.389 . S
C1000 C1001 1.387 . S
C1001 H986 0.930 . S
C1001 C996 1.390 . S
C1001 C1000 1.387 . S
H1002 C1014 0.930 . S
H1003 C1016 0.930 . S
H1004 C1017 0.930 . S
H1005 C1021 0.959 . S
H1006 C1021 0.959 . S
H1007 C1021 0.961 . S
H1008 C1022 0.960 . S
H1009 C1022 0.961 . S
H1010 C1022 0.959 . S
H1011 C1025 0.929 . S
H1012 C1026 0.931 . S
H1013 C1028 0.930 . S
C1014 H1002 0.930 . S
C1014 C1015 1.399 . S
C1014 C1019 1.399 . S
C1015 C1014 1.399 . S
C1015 C1016 1.376 . S
C1016 H1003 0.930 . S
C1016 C1015 1.376 . S
C1016 C1017 1.388 . S
C1017 H1004 0.930 . S
C1017 C1016 1.388 . S
C1017 C1018 1.390 . S
C1018 C1017 1.390 . S
C1018 C1019 1.394 . S
C1018 C1024 1.465 . S
C1019 C1014 1.399 . S
C1019 C1018 1.394 . S
C1019 C1020 1.516 . S
C1020 C1019 1.516 . S
C1020 C1021 1.502 . S
C1020 C1022 1.561 . S
C1020 C1023 1.526 . S
C1021 H1005 0.959 . S
C1021 H1006 0.959 . S
C1021 H1007 0.961 . S
C1021 C1020 1.502 . S
C1022 H1008 0.960 . S
C1022 H1009 0.961 . S
C1022 H1010 0.959 . S
C1022 C1020 1.561 . S
C1023 C1020 1.526 . S
C1023 C1024 1.396 . S
C1023 C1028 1.390 . S
C1024 C1018 1.465 . S
C1024 C1023 1.396 . S
C1024 C1025 1.399 . S
C1025 H1011 0.929 . S
C1025 C1024 1.399 . S
C1025 C1026 1.385 . S
C1026 H1012 0.931 . S
C1026 C1025 1.385 . S
C1026 C1027 1.389 . S
C1027 C1026 1.389 . S
C1027 C1028 1.387 . S
C1028 H1013 0.930 . S
C1028 C1023 1.390 . S
C1028 C1027 1.387 . S
H1029 C1041 0.930 1_565 S
H1030 C1043 0.930 . S
H1031 C1044 0.930 . S
H1032 C1048 0.959 . S
H1033 C1048 0.959 . S
H1034 C1048 0.961 . S
H1035 C1049 0.960 . S
H1036 C1049 0.961 . S
H1037 C1049 0.959 . S
H1038 C1052 0.929 . S
H1039 C1053 0.931 . S
H1040 C1055 0.930 . S
C1041 H1029 0.930 1_545 S
C1041 C1042 1.399 . S
C1041 C1046 1.399 . S
C1042 C1041 1.399 . S
C1042 C1043 1.376 . S
C1043 H1030 0.930 . S
C1043 C1042 1.376 . S
C1043 C1044 1.388 . S
C1044 H1031 0.930 . S
C1044 C1043 1.388 . S
C1044 C1045 1.390 . S
C1045 C1044 1.390 . S
C1045 C1046 1.394 . S
C1045 C1051 1.465 . S
C1046 C1041 1.399 . S
C1046 C1045 1.394 . S
C1046 C1047 1.516 . S
C1047 C1046 1.516 . S
C1047 C1048 1.502 . S
C1047 C1049 1.561 . S
C1047 C1050 1.526 . S
C1048 H1032 0.959 . S
C1048 H1033 0.959 . S
C1048 H1034 0.961 . S
C1048 C1047 1.502 . S
C1049 H1035 0.960 . S
C1049 H1036 0.961 . S
C1049 H1037 0.959 . S
C1049 C1047 1.561 . S
C1050 C1047 1.526 . S
C1050 C1051 1.396 . S
C1050 C1055 1.390 . S
C1051 C1045 1.465 . S
C1051 C1050 1.396 . S
C1051 C1052 1.399 . S
C1052 H1038 0.929 . S
C1052 C1051 1.399 . S
C1052 C1053 1.385 . S
C1053 H1039 0.931 . S
C1053 C1052 1.385 . S
C1053 C1054 1.389 . S
C1054 C1053 1.389 . S
C1054 C1055 1.387 . S
C1055 H1040 0.930 . S
C1055 C1050 1.390 . S
C1055 C1054 1.387 . S
H1056 C1068 0.930 . S
H1057 C1070 0.930 . S
H1058 C1071 0.930 . S
H1059 C1075 0.959 . S
H1060 C1075 0.959 . S
H1061 C1075 0.961 . S
H1062 C1076 0.960 . S
H1063 C1076 0.961 . S
H1064 C1076 0.959 . S
H1065 C1079 0.929 . S
H1066 C1080 0.931 . S
H1067 C1082 0.930 . S
C1068 H1056 0.930 . S
C1068 C1069 1.399 . S
C1068 C1073 1.399 . S
C1069 C1068 1.399 . S
C1069 C1070 1.376 . S
C1070 H1057 0.930 . S
C1070 C1069 1.376 . S
C1070 C1071 1.388 . S
C1071 H1058 0.930 . S
C1071 C1070 1.388 . S
C1071 C1072 1.390 . S
C1072 C1071 1.390 . S
C1072 C1073 1.394 . S
C1072 C1078 1.465 . S
C1073 C1068 1.399 . S
C1073 C1072 1.394 . S
C1073 C1074 1.516 . S
C1074 C1073 1.516 . S
C1074 C1075 1.502 . S
C1074 C1076 1.561 . S
C1074 C1077 1.526 . S
C1075 H1059 0.959 . S
C1075 H1060 0.959 . S
C1075 H1061 0.961 . S
C1075 C1074 1.502 . S
C1076 H1062 0.960 . S
C1076 H1063 0.961 . S
C1076 H1064 0.959 . S
C1076 C1074 1.561 . S
C1077 C1074 1.526 . S
C1077 C1078 1.396 . S
C1077 C1082 1.390 . S
C1078 C1072 1.465 . S
C1078 C1077 1.396 . S
C1078 C1079 1.399 . S
C1079 H1065 0.929 . S
C1079 C1078 1.399 . S
C1079 C1080 1.385 . S
C1080 H1066 0.931 . S
C1080 C1079 1.385 . S
C1080 C1081 1.389 . S
C1081 C1080 1.389 . S
C1081 C1082 1.387 . S
C1082 H1067 0.930 . S
C1082 C1077 1.390 . S
C1082 C1081 1.387 . S
H1083 C1095 0.930 . S
H1084 C1097 0.930 . S
H1085 C1098 0.930 . S
H1086 C1102 0.959 . S
H1087 C1102 0.959 . S
H1088 C1102 0.961 . S
H1089 C1103 0.960 . S
H1090 C1103 0.961 . S
H1091 C1103 0.959 . S
H1092 C1106 0.929 . S
H1093 C1107 0.931 . S
H1094 C1109 0.930 . S
C1095 H1083 0.930 . S
C1095 C1096 1.399 . S
C1095 C1100 1.399 . S
C1096 C1095 1.399 . S
C1096 C1097 1.376 . S
C1097 H1084 0.930 . S
C1097 C1096 1.376 . S
C1097 C1098 1.388 . S
C1098 H1085 0.930 . S
C1098 C1097 1.388 . S
C1098 C1099 1.390 . S
C1099 C1098 1.390 . S
C1099 C1100 1.394 . S
C1099 C1105 1.465 . S
C1100 C1095 1.399 . S
C1100 C1099 1.394 . S
C1100 C1101 1.516 . S
C1101 C1100 1.516 . S
C1101 C1102 1.502 . S
C1101 C1103 1.561 . S
C1101 C1104 1.526 . S
C1102 H1086 0.959 . S
C1102 H1087 0.959 . S
C1102 H1088 0.961 . S
C1102 C1101 1.502 . S
C1103 H1089 0.960 . S
C1103 H1090 0.961 . S
C1103 H1091 0.959 . S
C1103 C1101 1.561 . S
C1104 C1101 1.526 . S
C1104 C1105 1.396 . S
C1104 C1109 1.390 . S
C1105 C1099 1.465 . S
C1105 C1104 1.396 . S
C1105 C1106 1.399 . S
C1106 H1092 0.929 . S
C1106 C1105 1.399 . S
C1106 C1107 1.385 . S
C1107 H1093 0.931 . S
C1107 C1106 1.385 . S
C1107 C1108 1.389 . S
C1108 C1107 1.389 . S
C1108 C1109 1.387 . S
C1109 H1094 0.930 . S
C1109 C1104 1.390 . S
C1109 C1108 1.387 . S
H1110 C1122 0.930 . S
H1111 C1124 0.930 . S
H1112 C1125 0.930 . S
H1113 C1129 0.959 . S
H1114 C1129 0.959 . S
H1115 C1129 0.961 . S
H1116 C1130 0.960 . S
H1117 C1130 0.961 . S
H1118 C1130 0.959 . S
H1119 C1133 0.929 . S
H1120 C1134 0.931 . S
H1121 C1136 0.930 . S
C1122 H1110 0.930 . S
C1122 C1123 1.399 . S
C1122 C1127 1.399 . S
C1123 C1122 1.399 . S
C1123 C1124 1.376 . S
C1124 H1111 0.930 . S
C1124 C1123 1.376 . S
C1124 C1125 1.388 . S
C1125 H1112 0.930 . S
C1125 C1124 1.388 . S
C1125 C1126 1.390 . S
C1126 C1125 1.390 . S
C1126 C1127 1.394 . S
C1126 C1132 1.465 . S
C1127 C1122 1.399 . S
C1127 C1126 1.394 . S
C1127 C1128 1.516 . S
C1128 C1127 1.516 . S
C1128 C1129 1.502 . S
C1128 C1130 1.561 . S
C1128 C1131 1.526 . S
C1129 H1113 0.959 . S
C1129 H1114 0.959 . S
C1129 H1115 0.961 . S
C1129 C1128 1.502 . S
C1130 H1116 0.960 . S
C1130 H1117 0.961 . S
C1130 H1118 0.959 . S
C1130 C1128 1.561 . S
C1131 C1128 1.526 . S
C1131 C1132 1.396 . S
C1131 C1136 1.390 . S
C1132 C1126 1.465 . S
C1132 C1131 1.396 . S
C1132 C1133 1.399 . S
C1133 H1119 0.929 . S
C1133 C1132 1.399 . S
C1133 C1134 1.385 . S
C1134 H1120 0.931 . S
C1134 C1133 1.385 . S
C1134 C1135 1.389 . S
C1135 C1134 1.389 . S
C1135 C1136 1.387 . S
C1136 H1121 0.930 . S
C1136 C1131 1.390 . S
C1136 C1135 1.387 . S
H1137 C1149 0.930 . S
H1138 C1151 0.930 . S
H1139 C1152 0.930 . S
H1140 C1156 0.959 . S
H1141 C1156 0.959 . S
H1142 C1156 0.961 . S
H1143 C1157 0.960 . S
H1144 C1157 0.961 . S
H1145 C1157 0.959 . S
H1146 C1160 0.929 . S
H1147 C1161 0.931 . S
H1148 C1163 0.930 . S
C1149 H1137 0.930 . S
C1149 C1150 1.399 . S
C1149 C1154 1.399 . S
C1150 C1149 1.399 . S
C1150 C1151 1.376 . S
C1151 H1138 0.930 . S
C1151 C1150 1.376 . S
C1151 C1152 1.388 . S
C1152 H1139 0.930 . S
C1152 C1151 1.388 . S
C1152 C1153 1.390 . S
C1153 C1152 1.390 . S
C1153 C1154 1.394 . S
C1153 C1159 1.465 . S
C1154 C1149 1.399 . S
C1154 C1153 1.394 . S
C1154 C1155 1.516 . S
C1155 C1154 1.516 . S
C1155 C1156 1.502 . S
C1155 C1157 1.561 . S
C1155 C1158 1.526 . S
C1156 H1140 0.959 . S
C1156 H1141 0.959 . S
C1156 H1142 0.961 . S
C1156 C1155 1.502 . S
C1157 H1143 0.960 . S
C1157 H1144 0.961 . S
C1157 H1145 0.959 . S
C1157 C1155 1.561 . S
C1158 C1155 1.526 . S
C1158 C1159 1.396 . S
C1158 C1163 1.390 . S
C1159 C1153 1.465 . S
C1159 C1158 1.396 . S
C1159 C1160 1.399 . S
C1160 H1146 0.929 . S
C1160 C1159 1.399 . S
C1160 C1161 1.385 . S
C1161 H1147 0.931 . S
C1161 C1160 1.385 . S
C1161 C1162 1.389 . S
C1162 C1161 1.389 . S
C1162 C1163 1.387 . S
C1163 H1148 0.930 . S
C1163 C1158 1.390 . S
C1163 C1162 1.387 . S
H1164 C1176 0.930 . S
H1165 C1178 0.930 . S
H1166 C1179 0.930 . S
H1167 C1183 0.959 . S
H1168 C1183 0.959 . S
H1169 C1183 0.961 . S
H1170 C1184 0.960 . S
H1171 C1184 0.961 . S
H1172 C1184 0.959 . S
H1173 C1187 0.929 . S
H1174 C1188 0.931 . S
H1175 C1190 0.930 . S
C1176 H1164 0.930 . S
C1176 C1177 1.399 . S
C1176 C1181 1.399 . S
C1177 C1176 1.399 . S
C1177 C1178 1.376 . S
C1178 H1165 0.930 . S
C1178 C1177 1.376 . S
C1178 C1179 1.388 . S
C1179 H1166 0.930 . S
C1179 C1178 1.388 . S
C1179 C1180 1.390 . S
C1180 C1179 1.390 . S
C1180 C1181 1.394 . S
C1180 C1186 1.465 . S
C1181 C1176 1.399 . S
C1181 C1180 1.394 . S
C1181 C1182 1.516 . S
C1182 C1181 1.516 . S
C1182 C1183 1.502 . S
C1182 C1184 1.561 . S
C1182 C1185 1.526 . S
C1183 H1167 0.959 . S
C1183 H1168 0.959 . S
C1183 H1169 0.961 . S
C1183 C1182 1.502 . S
C1184 H1170 0.960 . S
C1184 H1171 0.961 . S
C1184 H1172 0.959 . S
C1184 C1182 1.561 . S
C1185 C1182 1.526 . S
C1185 C1186 1.396 . S
C1185 C1190 1.390 . S
C1186 C1180 1.465 . S
C1186 C1185 1.396 . S
C1186 C1187 1.399 . S
C1187 H1173 0.929 . S
C1187 C1186 1.399 . S
C1187 C1188 1.385 . S
C1188 H1174 0.931 . S
C1188 C1187 1.385 . S
C1188 C1189 1.389 . S
C1189 C1188 1.389 . S
C1189 C1190 1.387 . S
C1190 H1175 0.930 . S
C1190 C1185 1.390 . S
C1190 C1189 1.387 . S
H1191 C1203 0.930 . S
H1192 C1205 0.930 . S
H1193 C1206 0.930 . S
H1194 C1210 0.959 . S
H1195 C1210 0.959 . S
H1196 C1210 0.961 . S
H1197 C1211 0.960 . S
H1198 C1211 0.961 . S
H1199 C1211 0.959 . S
H1200 C1214 0.929 . S
H1201 C1215 0.931 . S
H1202 C1217 0.930 . S
C1203 H1191 0.930 . S
C1203 C1204 1.399 . S
C1203 C1208 1.399 . S
C1204 C1203 1.399 . S
C1204 C1205 1.376 . S
C1205 H1192 0.930 . S
C1205 C1204 1.376 . S
C1205 C1206 1.388 . S
C1206 H1193 0.930 . S
C1206 C1205 1.388 . S
C1206 C1207 1.390 . S
C1207 C1206 1.390 . S
C1207 C1208 1.394 . S
C1207 C1213 1.465 . S
C1208 C1203 1.399 . S
C1208 C1207 1.394 . S
C1208 C1209 1.516 . S
C1209 C1208 1.516 . S
C1209 C1210 1.502 . S
C1209 C1211 1.561 . S
C1209 C1212 1.526 . S
C1210 H1194 0.959 . S
C1210 H1195 0.959 . S
C1210 H1196 0.961 . S
C1210 C1209 1.502 . S
C1211 H1197 0.960 . S
C1211 H1198 0.961 . S
C1211 H1199 0.959 . S
C1211 C1209 1.561 . S
C1212 C1209 1.526 . S
C1212 C1213 1.396 . S
C1212 C1217 1.390 . S
C1213 C1207 1.465 . S
C1213 C1212 1.396 . S
C1213 C1214 1.399 . S
C1214 H1200 0.929 . S
C1214 C1213 1.399 . S
C1214 C1215 1.385 . S
C1215 H1201 0.931 . S
C1215 C1214 1.385 . S
C1215 C1216 1.389 . S
C1216 C1215 1.389 . S
C1216 C1217 1.387 . S
C1217 H1202 0.930 . S
C1217 C1212 1.390 . S
C1217 C1216 1.387 . S
H1218 C1230 0.930 . S
H1219 C1232 0.930 . S
H1220 C1233 0.930 . S
H1221 C1237 0.959 . S
H1222 C1237 0.959 . S
H1223 C1237 0.961 . S
H1224 C1238 0.960 . S
H1225 C1238 0.961 . S
H1226 C1238 0.959 . S
H1227 C1241 0.929 . S
H1228 C1242 0.931 . S
H1229 C1244 0.930 . S
C1230 H1218 0.930 . S
C1230 C1231 1.399 . S
C1230 C1235 1.399 . S
C1231 C1230 1.399 . S
C1231 C1232 1.376 . S
C1232 H1219 0.930 . S
C1232 C1231 1.376 . S
C1232 C1233 1.388 . S
C1233 H1220 0.930 . S
C1233 C1232 1.388 . S
C1233 C1234 1.390 . S
C1234 C1233 1.390 . S
C1234 C1235 1.394 . S
C1234 C1240 1.465 . S
C1235 C1230 1.399 . S
C1235 C1234 1.394 . S
C1235 C1236 1.516 . S
C1236 C1235 1.516 . S
C1236 C1237 1.502 . S
C1236 C1238 1.561 . S
C1236 C1239 1.526 . S
C1237 H1221 0.959 . S
C1237 H1222 0.959 . S
C1237 H1223 0.961 . S
C1237 C1236 1.502 . S
C1238 H1224 0.960 . S
C1238 H1225 0.961 . S
C1238 H1226 0.959 . S
C1238 C1236 1.561 . S
C1239 C1236 1.526 . S
C1239 C1240 1.396 . S
C1239 C1244 1.390 . S
C1240 C1234 1.465 . S
C1240 C1239 1.396 . S
C1240 C1241 1.399 . S
C1241 H1227 0.929 . S
C1241 C1240 1.399 . S
C1241 C1242 1.385 . S
C1242 H1228 0.931 . S
C1242 C1241 1.385 . S
C1242 C1243 1.389 . S
C1243 C1242 1.389 . S
C1243 C1244 1.387 . S
C1244 H1229 0.930 . S
C1244 C1239 1.390 . S
C1244 C1243 1.387 . S
H1245 C1257 0.930 . S
H1246 C1259 0.930 . S
H1247 C1260 0.930 . S
H1248 C1264 0.959 . S
H1249 C1264 0.959 . S
H1250 C1264 0.961 . S
H1251 C1265 0.960 . S
H1252 C1265 0.961 . S
H1253 C1265 0.959 . S
H1254 C1268 0.929 . S
H1255 C1269 0.931 . S
H1256 C1271 0.930 . S
C1257 H1245 0.930 . S
C1257 C1258 1.399 . S
C1257 C1262 1.399 . S
C1258 C1257 1.399 . S
C1258 C1259 1.376 . S
C1259 H1246 0.930 . S
C1259 C1258 1.376 . S
C1259 C1260 1.388 . S
C1260 H1247 0.930 . S
C1260 C1259 1.388 . S
C1260 C1261 1.390 . S
C1261 C1260 1.390 . S
C1261 C1262 1.394 . S
C1261 C1267 1.465 . S
C1262 C1257 1.399 . S
C1262 C1261 1.394 . S
C1262 C1263 1.516 . S
C1263 C1262 1.516 . S
C1263 C1264 1.502 . S
C1263 C1265 1.561 . S
C1263 C1266 1.526 . S
C1264 H1248 0.959 . S
C1264 H1249 0.959 . S
C1264 H1250 0.961 . S
C1264 C1263 1.502 . S
C1265 H1251 0.960 . S
C1265 H1252 0.961 . S
C1265 H1253 0.959 . S
C1265 C1263 1.561 . S
C1266 C1263 1.526 . S
C1266 C1267 1.396 . S
C1266 C1271 1.390 . S
C1267 C1261 1.465 . S
C1267 C1266 1.396 . S
C1267 C1268 1.399 . S
C1268 H1254 0.929 . S
C1268 C1267 1.399 . S
C1268 C1269 1.385 . S
C1269 H1255 0.931 . S
C1269 C1268 1.385 . S
C1269 C1270 1.389 . S
C1270 C1269 1.389 . S
C1270 C1271 1.387 . S
C1271 H1256 0.930 . S
C1271 C1266 1.390 . S
C1271 C1270 1.387 . S
H1272 C1284 0.930 . S
H1273 C1286 0.930 . S
H1274 C1287 0.930 . S
H1275 C1291 0.959 . S
H1276 C1291 0.959 . S
H1277 C1291 0.961 . S
H1278 C1292 0.960 . S
H1279 C1292 0.961 . S
H1280 C1292 0.959 . S
H1281 C1295 0.929 . S
H1282 C1296 0.931 . S
H1283 C1298 0.930 . S
C1284 H1272 0.930 . S
C1284 C1285 1.399 . S
C1284 C1289 1.399 . S
C1285 C1284 1.399 . S
C1285 C1286 1.376 . S
C1286 H1273 0.930 . S
C1286 C1285 1.376 . S
C1286 C1287 1.388 . S
C1287 H1274 0.930 . S
C1287 C1286 1.388 . S
C1287 C1288 1.390 . S
C1288 C1287 1.390 . S
C1288 C1289 1.394 . S
C1288 C1294 1.465 . S
C1289 C1284 1.399 . S
C1289 C1288 1.394 . S
C1289 C1290 1.516 . S
C1290 C1289 1.516 . S
C1290 C1291 1.502 . S
C1290 C1292 1.561 . S
C1290 C1293 1.526 . S
C1291 H1275 0.959 . S
C1291 H1276 0.959 . S
C1291 H1277 0.961 . S
C1291 C1290 1.502 . S
C1292 H1278 0.960 . S
C1292 H1279 0.961 . S
C1292 H1280 0.959 . S
C1292 C1290 1.561 . S
C1293 C1290 1.526 . S
C1293 C1294 1.396 . S
C1293 C1298 1.390 . S
C1294 C1288 1.465 . S
C1294 C1293 1.396 . S
C1294 C1295 1.399 . S
C1295 H1281 0.929 . S
C1295 C1294 1.399 . S
C1295 C1296 1.385 . S
C1296 H1282 0.931 . S
C1296 C1295 1.385 . S
C1296 C1297 1.389 . S
C1297 C1296 1.389 . S
C1297 C1298 1.387 . S
C1298 H1283 0.930 . S
C1298 C1293 1.390 . S
C1298 C1297 1.387 . S
H1299 C1311 0.930 . S
H1300 C1313 0.930 . S
H1301 C1314 0.930 . S
H1302 C1318 0.959 . S
H1303 C1318 0.959 . S
H1304 C1318 0.961 . S
H1305 C1319 0.960 . S
H1306 C1319 0.961 . S
H1307 C1319 0.959 . S
H1308 C1322 0.929 . S
H1309 C1323 0.931 . S
H1310 C1325 0.930 . S
C1311 H1299 0.930 . S
C1311 C1312 1.399 . S
C1311 C1316 1.399 . S
C1312 C1311 1.399 . S
C1312 C1313 1.376 . S
C1313 H1300 0.930 . S
C1313 C1312 1.376 . S
C1313 C1314 1.388 . S
C1314 H1301 0.930 . S
C1314 C1313 1.388 . S
C1314 C1315 1.390 . S
C1315 C1314 1.390 . S
C1315 C1316 1.394 . S
C1315 C1321 1.465 . S
C1316 C1311 1.399 . S
C1316 C1315 1.394 . S
C1316 C1317 1.516 . S
C1317 C1316 1.516 . S
C1317 C1318 1.502 . S
C1317 C1319 1.561 . S
C1317 C1320 1.526 . S
C1318 H1302 0.959 . S
C1318 H1303 0.959 . S
C1318 H1304 0.961 . S
C1318 C1317 1.502 . S
C1319 H1305 0.960 . S
C1319 H1306 0.961 . S
C1319 H1307 0.959 . S
C1319 C1317 1.561 . S
C1320 C1317 1.526 . S
C1320 C1321 1.396 . S
C1320 C1325 1.390 . S
C1321 C1315 1.465 . S
C1321 C1320 1.396 . S
C1321 C1322 1.399 . S
C1322 H1308 0.929 . S
C1322 C1321 1.399 . S
C1322 C1323 1.385 . S
C1323 H1309 0.931 . S
C1323 C1322 1.385 . S
C1323 C1324 1.389 . S
C1324 C1323 1.389 . S
C1324 C1325 1.387 . S
C1325 H1310 0.930 . S
C1325 C1320 1.390 . S
C1325 C1324 1.387 . S
H1326 C1338 0.930 . S
H1327 C1340 0.930 . S
H1328 C1341 0.930 . S
H1329 C1345 0.959 . S
H1330 C1345 0.959 . S
H1331 C1345 0.961 . S
H1332 C1346 0.960 . S
H1333 C1346 0.961 . S
H1334 C1346 0.959 . S
H1335 C1349 0.929 . S
H1336 C1350 0.931 . S
H1337 C1352 0.930 . S
C1338 H1326 0.930 . S
C1338 C1339 1.399 . S
C1338 C1343 1.399 . S
C1339 C1338 1.399 . S
C1339 C1340 1.376 . S
C1340 H1327 0.930 . S
C1340 C1339 1.376 . S
C1340 C1341 1.388 . S
C1341 H1328 0.930 . S
C1341 C1340 1.388 . S
C1341 C1342 1.390 . S
C1342 C1341 1.390 . S
C1342 C1343 1.394 . S
C1342 C1348 1.465 . S
C1343 C1338 1.399 . S
C1343 C1342 1.394 . S
C1343 C1344 1.516 . S
C1344 C1343 1.516 . S
C1344 C1345 1.502 . S
C1344 C1346 1.561 . S
C1344 C1347 1.526 . S
C1345 H1329 0.959 . S
C1345 H1330 0.959 . S
C1345 H1331 0.961 . S
C1345 C1344 1.502 . S
C1346 H1332 0.960 . S
C1346 H1333 0.961 . S
C1346 H1334 0.959 . S
C1346 C1344 1.561 . S
C1347 C1344 1.526 . S
C1347 C1348 1.396 . S
C1347 C1352 1.390 . S
C1348 C1342 1.465 . S
C1348 C1347 1.396 . S
C1348 C1349 1.399 . S
C1349 H1335 0.929 . S
C1349 C1348 1.399 . S
C1349 C1350 1.385 . S
C1350 H1336 0.931 . S
C1350 C1349 1.385 . S
C1350 C1351 1.389 . S
C1351 C1350 1.389 . S
C1351 C1352 1.387 . S
C1352 H1337 0.930 . S
C1352 C1347 1.390 . S
C1352 C1351 1.387 . S
H1353 C1365 0.930 . S
H1354 C1367 0.930 . S
H1355 C1368 0.930 . S
H1356 C1372 0.959 . S
H1357 C1372 0.959 . S
H1358 C1372 0.961 . S
H1359 C1373 0.960 . S
H1360 C1373 0.961 . S
H1361 C1373 0.959 . S
H1362 C1376 0.929 . S
H1363 C1377 0.931 . S
H1364 C1379 0.930 . S
C1365 H1353 0.930 . S
C1365 C1366 1.399 . S
C1365 C1370 1.399 . S
C1366 C1365 1.399 . S
C1366 C1367 1.376 . S
C1367 H1354 0.930 . S
C1367 C1366 1.376 . S
C1367 C1368 1.388 . S
C1368 H1355 0.930 . S
C1368 C1367 1.388 . S
C1368 C1369 1.390 . S
C1369 C1368 1.390 . S
C1369 C1370 1.394 . S
C1369 C1375 1.465 . S
C1370 C1365 1.399 . S
C1370 C1369 1.394 . S
C1370 C1371 1.516 . S
C1371 C1370 1.516 . S
C1371 C1372 1.502 . S
C1371 C1373 1.561 . S
C1371 C1374 1.526 . S
C1372 H1356 0.959 . S
C1372 H1357 0.959 . S
C1372 H1358 0.961 . S
C1372 C1371 1.502 . S
C1373 H1359 0.960 . S
C1373 H1360 0.961 . S
C1373 H1361 0.959 . S
C1373 C1371 1.561 . S
C1374 C1371 1.526 . S
C1374 C1375 1.396 . S
C1374 C1379 1.390 . S
C1375 C1369 1.465 . S
C1375 C1374 1.396 . S
C1375 C1376 1.399 . S
C1376 H1362 0.929 . S
C1376 C1375 1.399 . S
C1376 C1377 1.385 . S
C1377 H1363 0.931 . S
C1377 C1376 1.385 . S
C1377 C1378 1.389 . S
C1378 C1377 1.389 . S
C1378 C1379 1.387 . S
C1379 H1364 0.930 . S
C1379 C1374 1.390 . S
C1379 C1378 1.387 . S
H1380 C1392 0.930 . S
H1381 C1394 0.930 . S
H1382 C1395 0.930 . S
H1383 C1399 0.959 . S
H1384 C1399 0.959 . S
H1385 C1399 0.961 . S
H1386 C1400 0.960 . S
H1387 C1400 0.961 . S
H1388 C1400 0.959 . S
H1389 C1403 0.929 . S
H1390 C1404 0.931 . S
H1391 C1406 0.930 . S
C1392 H1380 0.930 . S
C1392 C1393 1.399 . S
C1392 C1397 1.399 . S
C1393 C1392 1.399 . S
C1393 C1394 1.376 . S
C1394 H1381 0.930 . S
C1394 C1393 1.376 . S
C1394 C1395 1.388 . S
C1395 H1382 0.930 . S
C1395 C1394 1.388 . S
C1395 C1396 1.390 . S
C1396 C1395 1.390 . S
C1396 C1397 1.394 . S
C1396 C1402 1.465 . S
C1397 C1392 1.399 . S
C1397 C1396 1.394 . S
C1397 C1398 1.516 . S
C1398 C1397 1.516 . S
C1398 C1399 1.502 . S
C1398 C1400 1.561 . S
C1398 C1401 1.526 . S
C1399 H1383 0.959 . S
C1399 H1384 0.959 . S
C1399 H1385 0.961 . S
C1399 C1398 1.502 . S
C1400 H1386 0.960 . S
C1400 H1387 0.961 . S
C1400 H1388 0.959 . S
C1400 C1398 1.561 . S
C1401 C1398 1.526 . S
C1401 C1402 1.396 . S
C1401 C1406 1.390 . S
C1402 C1396 1.465 . S
C1402 C1401 1.396 . S
C1402 C1403 1.399 . S
C1403 H1389 0.929 . S
C1403 C1402 1.399 . S
C1403 C1404 1.385 . S
C1404 H1390 0.931 . S
C1404 C1403 1.385 . S
C1404 C1405 1.389 . S
C1405 C1404 1.389 . S
C1405 C1406 1.387 . S
C1406 H1391 0.930 . S
C1406 C1401 1.390 . S
C1406 C1405 1.387 . S
H1407 C1419 0.930 . S
H1408 C1421 0.930 . S
H1409 C1422 0.930 . S
H1410 C1426 0.959 . S
H1411 C1426 0.959 . S
H1412 C1426 0.961 . S
H1413 C1427 0.960 . S
H1414 C1427 0.961 . S
H1415 C1427 0.959 . S
H1416 C1430 0.929 . S
H1417 C1431 0.931 . S
H1418 C1433 0.930 . S
C1419 H1407 0.930 . S
C1419 C1420 1.399 . S
C1419 C1424 1.399 . S
C1420 C1419 1.399 . S
C1420 C1421 1.376 . S
C1421 H1408 0.930 . S
C1421 C1420 1.376 . S
C1421 C1422 1.388 . S
C1422 H1409 0.930 . S
C1422 C1421 1.388 . S
C1422 C1423 1.390 . S
C1423 C1422 1.390 . S
C1423 C1424 1.394 . S
C1423 C1429 1.465 . S
C1424 C1419 1.399 . S
C1424 C1423 1.394 . S
C1424 C1425 1.516 . S
C1425 C1424 1.516 . S
C1425 C1426 1.502 . S
C1425 C1427 1.561 . S
C1425 C1428 1.526 . S
C1426 H1410 0.959 . S
C1426 H1411 0.959 . S
C1426 H1412 0.961 . S
C1426 C1425 1.502 . S
C1427 H1413 0.960 . S
C1427 H1414 0.961 . S
C1427 H1415 0.959 . S
C1427 C1425 1.561 . S
C1428 C1425 1.526 . S
C1428 C1429 1.396 . S
C1428 C1433 1.390 . S
C1429 C1423 1.465 . S
C1429 C1428 1.396 . S
C1429 C1430 1.399 . S
C1430 H1416 0.929 . S
C1430 C1429 1.399 . S
C1430 C1431 1.385 . S
C1431 H1417 0.931 . S
C1431 C1430 1.385 . S
C1431 C1432 1.389 . S
C1432 C1431 1.389 . S
C1432 C1433 1.387 . S
C1433 H1418 0.930 . S
C1433 C1428 1.390 . S
C1433 C1432 1.387 . S
H1434 C1446 0.930 . S
H1435 C1448 0.930 . S
H1436 C1449 0.930 . S
H1437 C1453 0.959 . S
H1438 C1453 0.959 . S
H1439 C1453 0.961 . S
H1440 C1454 0.960 . S
H1441 C1454 0.961 . S
H1442 C1454 0.959 . S
H1443 C1457 0.929 . S
H1444 C1458 0.931 . S
H1445 C1460 0.930 . S
C1446 H1434 0.930 . S
C1446 C1447 1.399 . S
C1446 C1451 1.399 . S
C1447 C1446 1.399 . S
C1447 C1448 1.376 . S
C1448 H1435 0.930 . S
C1448 C1447 1.376 . S
C1448 C1449 1.388 . S
C1449 H1436 0.930 . S
C1449 C1448 1.388 . S
C1449 C1450 1.390 . S
C1450 C1449 1.390 . S
C1450 C1451 1.394 . S
C1450 C1456 1.465 . S
C1451 C1446 1.399 . S
C1451 C1450 1.394 . S
C1451 C1452 1.516 . S
C1452 C1451 1.516 . S
C1452 C1453 1.502 . S
C1452 C1454 1.561 . S
C1452 C1455 1.526 . S
C1453 H1437 0.959 . S
C1453 H1438 0.959 . S
C1453 H1439 0.961 . S
C1453 C1452 1.502 . S
C1454 H1440 0.960 . S
C1454 H1441 0.961 . S
C1454 H1442 0.959 . S
C1454 C1452 1.561 . S
C1455 C1452 1.526 . S
C1455 C1456 1.396 . S
C1455 C1460 1.390 . S
C1456 C1450 1.465 . S
C1456 C1455 1.396 . S
C1456 C1457 1.399 . S
C1457 H1443 0.929 . S
C1457 C1456 1.399 . S
C1457 C1458 1.385 . S
C1458 H1444 0.931 . S
C1458 C1457 1.385 . S
C1458 C1459 1.389 . S
C1459 C1458 1.389 . S
C1459 C1460 1.387 . S
C1460 H1445 0.930 . S
C1460 C1455 1.390 . S
C1460 C1459 1.387 . S
H1461 C1473 0.930 . S
H1462 C1475 0.930 . S
H1463 C1476 0.930 . S
H1464 C1480 0.959 . S
H1465 C1480 0.959 . S
H1466 C1480 0.961 . S
H1467 C1481 0.960 . S
H1468 C1481 0.961 . S
H1469 C1481 0.959 . S
H1470 C1484 0.929 . S
H1471 C1485 0.931 . S
H1472 C1487 0.930 . S
C1473 H1461 0.930 . S
C1473 C1474 1.399 . S
C1473 C1478 1.399 . S
C1474 C1473 1.399 . S
C1474 C1475 1.376 . S
C1475 H1462 0.930 . S
C1475 C1474 1.376 . S
C1475 C1476 1.388 . S
C1476 H1463 0.930 . S
C1476 C1475 1.388 . S
C1476 C1477 1.390 . S
C1477 C1476 1.390 . S
C1477 C1478 1.394 . S
C1477 C1483 1.465 . S
C1478 C1473 1.399 . S
C1478 C1477 1.394 . S
C1478 C1479 1.516 . S
C1479 C1478 1.516 . S
C1479 C1480 1.502 . S
C1479 C1481 1.561 . S
C1479 C1482 1.526 . S
C1480 H1464 0.959 . S
C1480 H1465 0.959 . S
C1480 H1466 0.961 . S
C1480 C1479 1.502 . S
C1481 H1467 0.960 . S
C1481 H1468 0.961 . S
C1481 H1469 0.959 . S
C1481 C1479 1.561 . S
C1482 C1479 1.526 . S
C1482 C1483 1.396 . S
C1482 C1487 1.390 . S
C1483 C1477 1.465 . S
C1483 C1482 1.396 . S
C1483 C1484 1.399 . S
C1484 H1470 0.929 . S
C1484 C1483 1.399 . S
C1484 C1485 1.385 . S
C1485 H1471 0.931 . S
C1485 C1484 1.385 . S
C1485 C1486 1.389 . S
C1486 C1485 1.389 . S
C1486 C1487 1.387 . S
C1487 H1472 0.930 . S
C1487 C1482 1.390 . S
C1487 C1486 1.387 . S
C649 C545 1.429 . S
C637 C53 1.456 . S
C664 C115 1.477 1_545 S
C676 C577 1.468 . S
C691 C177 1.472 . S
C703 C600 1.449 . S
C730 C504 1.449 . S
C718 C239 1.466 1_565 S
C757 C587 1.474 . S
C745 C47 1.608 . S
C784 C616 1.497 . S
C772 C109 1.609 . S
C811 C520 1.572 . S
C799 C171 1.570 . S
C838 C555 1.538 . S
C826 C233 1.590 . S
C853 C29 1.619 . S
C865 C583 1.494 . S
C880 C277 1.551 . S
C892 C558 1.554 . S
C907 C153 1.606 . S
C919 C526 1.468 . S
C946 C615 1.488 . S
C934 C339 1.587 . S
C973 C559 1.438 . S
C961 C35 1.467 . S
C988 C283 1.451 1_565 S
C1000 C527 1.417 . S
C1015 C159 1.483 . S
C1027 C614 1.472 . S
C1054 C582 1.422 . S
C1042 C345 1.460 1_545 S
C1069 C419 1.526 . S
C1081 C609 1.625 . S
C1096 C301 1.470 . S
C1108 C513 1.416 . S
C1123 C487 1.460 . S
C1135 C536 1.428 . S
C1150 C363 1.467 . S
C1162 C568 1.427 . S
C1189 C523 1.409 . S
C1177 C425 1.494 . S
C1204 C295 1.616 . S
C1216 C552 1.489 . S
C1231 C481 1.582 . S
C1243 C584 1.587 . S
C1270 C619 1.493 . S
C1258 C357 1.611 . S
C1285 C407 1.480 . S
C1297 C519 1.435 . S
C1312 C91 1.532 . S
C1324 C622 1.561 . S
C1339 C463 1.626 . S
C1351 C590 1.474 . S
C1378 C551 1.492 . S
C1366 C215 1.597 . S
C1405 C623 1.627 . S
C1393 C401 1.601 . S
C1432 C591 1.465 . S
C1420 C97 1.475 . S
C1459 C550 1.444 . S
C1447 C469 1.459 . S
C1486 C518 1.480 . S
C1474 C221 1.484 . S
