# Generated by pormake.
# Topology anh, (6,3)-cn, num edge types: 1
# Building blocks:
#     Node 0, Type 0, BuildingBlock: BETDAH_clean_sbu_0, # of connection points: 6
#     Node 1, Type 0, BuildingBlock: BETDAH_clean_sbu_0, # of connection points: 6
#     Node 2, Type 0, BuildingBlock: BETDAH_clean_sbu_0, # of connection points: 6
#     Node 3, Type 1, BuildingBlock: VETTIZ_charged_linker_0, # of connection points: 3
#     Node 4, Type 1, BuildingBlock: VETTIZ_charged_linker_0, # of connection points: 3
#     Node 5, Type 1, BuildingBlock: VETTIZ_charged_linker_0, # of connection points: 3
#     Node 6, Type 1, BuildingBlock: VETTIZ_charged_linker_0, # of connection points: 3
#     Node 7, Type 1, BuildingBlock: VETTIZ_charged_linker_0, # of connection points: 3
#     Node 8, Type 1, BuildingBlock: VETTIZ_charged_linker_0, # of connection points: 3
#     Edge 9, Type (0, 1), BuildingBlock: CIFDUS_clean_linker_0, # of connection points: 2
#     Edge 10, Type (0, 1), BuildingBlock: CIFDUS_clean_linker_0, # of connection points: 2
#     Edge 11, Type (0, 1), BuildingBlock: CIFDUS_clean_linker_0, # of connection points: 2
#     Edge 12, Type (0, 1), BuildingBlock: CIFDUS_clean_linker_0, # of connection points: 2
#     Edge 13, Type (0, 1), BuildingBlock: CIFDUS_clean_linker_0, # of connection points: 2
#     Edge 14, Type (0, 1), BuildingBlock: CIFDUS_clean_linker_0, # of connection points: 2
#     Edge 15, Type (0, 1), BuildingBlock: CIFDUS_clean_linker_0, # of connection points: 2
#     Edge 16, Type (0, 1), BuildingBlock: CIFDUS_clean_linker_0, # of connection points: 2
#     Edge 17, Type (0, 1), BuildingBlock: CIFDUS_clean_linker_0, # of connection points: 2
#     Edge 18, Type (0, 1), BuildingBlock: CIFDUS_clean_linker_0, # of connection points: 2
#     Edge 19, Type (0, 1), BuildingBlock: CIFDUS_clean_linker_0, # of connection points: 2
#     Edge 20, Type (0, 1), BuildingBlock: CIFDUS_clean_linker_0, # of connection points: 2
#     Edge 21, Type (0, 1), BuildingBlock: CIFDUS_clean_linker_0, # of connection points: 2
#     Edge 22, Type (0, 1), BuildingBlock: CIFDUS_clean_linker_0, # of connection points: 2
#     Edge 23, Type (0, 1), BuildingBlock: CIFDUS_clean_linker_0, # of connection points: 2
#     Edge 24, Type (0, 1), BuildingBlock: CIFDUS_clean_linker_0, # of connection points: 2
#     Edge 25, Type (0, 1), BuildingBlock: CIFDUS_clean_linker_0, # of connection points: 2
#     Edge 26, Type (0, 1), BuildingBlock: CIFDUS_clean_linker_0, # of connection points: 2
# Relax obj value: 0.197
# Max RMSD: 0.219
# Mean RMSD: 0.163
data_MOF--net-anh--node1-BETDAH_clean_sbu_0--node2-VETTIZ_charged_linker_0--edge1-CIFDUS_clean_linker_0
_symmetry_space_group_name_H-M    P1
_symmetry_Int_Tables_number       1
_symmetry_cell_setting            triclinic
loop_
_symmetry_equiv_pos_as_xyz
'x, y, z'
_cell_length_a     34.376115
_cell_length_b     39.831854
_cell_length_c     59.895944
_cell_angle_alpha  92.192691
_cell_angle_beta   89.89298
_cell_angle_gamma 129.98879
loop_
_atom_site_label
_atom_site_type_symbol
_atom_site_fract_x
_atom_site_fract_y
_atom_site_fract_z
_atom_type_partial_charge
Ho0 Ho 0.09939 0.50142 0.1423 0.0
Ho1 Ho 1.03082 0.51956 0.15596 0.0
C2 C 0.14778 0.60408 0.15355 0.0
C3 C 0.16927 0.505 0.1237 0.0
C4 C 0.22314 0.53243 0.13014 0.0
C5 C 0.25824 0.53988 0.11472 0.0
C6 C 0.30817 0.56112 0.12179 0.0
C7 C 0.32315 0.5746 0.1444 0.0
C8 C 0.28884 0.56992 0.15945 0.0
C9 C 0.23923 0.54937 0.15229 0.0
C10 C 0.08639 0.50031 0.1867 0.0
C11 C 0.9822 0.41719 0.146 0.0
C12 C 0.96197 0.51518 0.17639 0.0
C13 C 0.90699 0.47899 0.17702 0.0
C14 C 0.88178 0.46914 0.19721 0.0
C15 C 0.8295 0.43432 0.19788 0.0
C16 C 0.80155 0.40905 0.17828 0.0
C17 C 0.82775 0.41794 0.15834 0.0
C18 C 0.8799 0.45228 0.15776 0.0
C19 C 1.04529 0.52076 0.11147 0.0
O20 O 0.15349 0.57694 0.14384 0.0
O21 O 0.10375 0.58859 0.16207 0.0
O22 O 0.13821 0.47567 0.13803 0.0
O23 O 0.15459 0.5259 0.11637 0.0
O24 O 0.09316 0.4756 0.17607 0.0
O25 O 0.09161 0.5269 0.17366 0.0
O26 O 0.97727 0.44482 0.1555 0.0
O27 O 1.02537 0.43195 0.13669 0.0
O28 O 0.97961 0.5335 0.15717 0.0
O29 O 0.98965 0.50769 0.18603 0.0
O30 O 1.04055 0.54695 0.1221 0.0
O31 O 1.03863 0.49366 0.1246 0.0
H32 H 0.24646 0.5274 0.09754 0.0
H33 H 0.33387 0.56381 0.10998 0.0
H34 H 0.29956 0.57977 0.17696 0.0
H35 H 0.21263 0.54452 0.16434 0.0
H36 H 0.90244 0.48866 0.21239 0.0
H37 H 0.8108 0.42797 0.21362 0.0
H38 H 0.8078 0.39988 0.14279 0.0
H39 H 0.89885 0.45845 0.1421 0.0
Ho40 Ho 0.62332 0.04696 0.47849 0.0
Ho41 Ho 0.55916 0.07124 0.46843 0.0
C42 C 0.5008 0.96941 0.46711 0.0
C43 C 0.65976 0.01249 0.49481 0.0
C44 C 0.64202 0.96834 0.49973 0.0
C45 C 0.6314 0.95451 0.52176 0.0
C46 C 0.61748 0.91413 0.52685 0.0
C47 C 0.6141 0.88655 0.51007 0.0
C48 C 0.62459 0.90031 0.488 0.0
C49 C 0.63841 0.94072 0.48288 0.0
C50 C 0.61996 0.06073 0.43508 0.0
C51 C 0.68321 0.14966 0.47558 0.0
C52 C 0.52173 0.10645 0.45456 0.0
C53 C 0.53216 0.14819 0.45958 0.0
C54 C 0.51644 0.16349 0.44434 0.0
C55 C 0.52437 0.20218 0.44929 0.0
C56 C 0.54803 0.22634 0.46968 0.0
C57 C 0.56454 0.21112 0.48473 0.0
C58 C 0.55688 0.17259 0.47969 0.0
C59 C 0.56384 0.05781 0.51181 0.0
O60 O 0.54151 0.98066 0.47817 0.0
O61 O 0.50215 0.99988 0.45799 0.0
O62 O 0.66254 0.02139 0.47381 0.0
O63 O 0.64252 0.028 0.50717 0.0
O64 O 0.66006 0.07179 0.44545 0.0
O65 O 0.5827 0.04071 0.44786 0.0
O66 O 0.63879 0.13693 0.46856 0.0
O67 O 0.68712 0.12077 0.48273 0.0
O68 O 0.50282 0.07931 0.47076 0.0
O69 O 0.55707 0.10918 0.44415 0.0
O70 O 0.52312 0.04554 0.50162 0.0
O71 O 0.60067 0.07841 0.49889 0.0
H72 H 0.6346 0.97525 0.53519 0.0
H73 H 0.61058 0.90503 0.5441 0.0
H74 H 0.622 0.87979 0.47464 0.0
H75 H 0.64676 0.95044 0.46574 0.0
H76 H 0.49763 0.14529 0.42865 0.0
H77 H 0.51194 0.21315 0.4371 0.0
H78 H 0.58227 0.22833 0.50071 0.0
H79 H 0.56954 0.16145 0.49166 0.0
Ho80 Ho 0.58793 0.56644 0.83377 0.0
Ho81 Ho 0.51815 0.46531 0.84063 0.0
C82 C 0.46034 0.50985 0.83938 0.0
C83 C 0.6312 0.64478 0.82105 0.0
C84 C 0.61952 0.67298 0.81391 0.0
C85 C 0.6198 0.68046 0.79114 0.0
C86 C 0.61569 0.71136 0.78438 0.0
C87 C 0.61161 0.73603 0.80018 0.0
C88 C 0.60939 0.7274 0.82291 0.0
C89 C 0.61354 0.69643 0.8297 0.0
C90 C 0.57866 0.54061 0.87562 0.0
C91 C 0.64615 0.52308 0.83582 0.0
C92 C 0.47789 0.39112 0.85769 0.0
C93 C 0.48326 0.35783 0.85196 0.0
C94 C 0.46434 0.32309 0.86592 0.0
C95 C 0.47085 0.29231 0.86069 0.0
C96 C 0.49653 0.2957 0.84138 0.0
C97 C 0.51538 0.33075 0.82748 0.0
C98 C 0.50898 0.36147 0.83275 0.0
C99 C 0.53401 0.48011 0.79632 0.0
O100 O 0.50623 0.5472 0.83375 0.0
O101 O 0.45714 0.47505 0.84403 0.0
O102 O 0.62442 0.6344 0.84198 0.0
O103 O 0.61836 0.61243 0.80735 0.0
O104 O 0.62108 0.57537 0.86825 0.0
O105 O 0.54406 0.52302 0.86085 0.0
O106 O 0.60049 0.48631 0.8419 0.0
O107 O 0.64915 0.55722 0.83002 0.0
O108 O 0.45442 0.396 0.84258 0.0
O109 O 0.51908 0.42873 0.86609 0.0
O110 O 0.50535 0.44156 0.80439 0.0
O111 O 0.55098 0.50778 0.81241 0.0
H112 H 0.62474 0.66333 0.77853 0.0
H113 H 0.6167 0.71654 0.76669 0.0
H114 H 0.60669 0.74594 0.83555 0.0
H115 H 0.61373 0.69196 0.84741 0.0
H116 H 0.44482 0.31991 0.88095 0.0
H117 H 0.45636 0.26623 0.87198 0.0
H118 H 0.5346 0.33423 0.81229 0.0
H119 H 0.52423 0.38819 0.8218 0.0
C120 C 0.68748 0.13451 0.16049 0.0
C121 C 0.72893 0.17519 0.17129 0.0
C122 C 0.73273 0.17806 0.19472 0.0
C123 C 0.65452 0.10278 0.19673 0.0
C124 C 0.65085 0.09829 0.17365 0.0
C125 C 0.60465 0.05143 0.16598 0.0
H126 H 0.3902 0.84829 0.19919 0.0
C127 C 0.61026 0.06117 0.206 0.0
C128 C 0.58024 0.03002 0.18821 0.0
H129 H 0.44002 0.87951 0.13138 0.0
H130 H 0.5129 0.95474 0.14418 0.0
H131 H 0.49485 0.89121 0.22011 0.0
H132 H 0.41077 0.9358 0.21257 0.0
H133 H 0.44052 0.95627 0.2391 0.0
H134 H 0.39605 0.89774 0.23306 0.0
H135 H 0.44244 0.87337 0.23731 0.0
H136 H 0.5067 0.9214 0.24498 0.0
C137 C 0.62369 0.02987 0.15378 0.0
C138 C 0.56914 0.0527 0.15115 0.0
C139 C 0.58897 0.05693 0.29039 0.0
C140 C 0.5516 0.02415 0.30441 0.0
C141 C 0.5097 0.98324 0.29461 0.0
C142 C 0.50525 0.97498 0.27143 0.0
C143 C 0.54314 1.00787 0.25765 0.0
C144 C 0.58392 0.04804 0.26719 0.0
C145 C 0.62039 0.07902 0.24997 0.0
C146 C 0.59481 0.05069 0.22847 0.0
C147 C 0.54978 1.00918 0.23313 0.0
C148 C 0.67236 0.09076 0.25486 0.0
C149 C 0.62166 0.1187 0.25086 0.0
C150 C 0.4161 0.87111 0.18686 0.0
C151 C 0.40833 0.85752 0.1642 0.0
C152 C 0.44467 0.88873 0.14902 0.0
C153 C 0.48705 0.9324 0.15645 0.0
C154 C 0.494 0.9451 0.1794 0.0
C155 C 0.45837 0.91399 0.19396 0.0
C156 C 0.4707 0.93087 0.21776 0.0
C157 C 0.51974 0.9772 0.21555 0.0
C158 C 0.53422 0.98667 0.19306 0.0
C159 C 0.47881 0.9028 0.2309 0.0
C160 C 0.42734 0.92997 0.22628 0.0
H161 H 0.70162 0.14788 0.22512 0.0
H162 H 0.68368 0.13119 0.14243 0.0
H163 H 0.55999 0.07194 0.15987 0.0
H164 H 0.53281 0.01953 0.14713 0.0
H165 H 0.58739 0.06831 0.1352 0.0
H166 H 0.65387 0.03439 0.164 0.0
H167 H 0.63988 0.04483 0.13747 0.0
H168 H 0.59328 0.99422 0.15073 0.0
H169 H 0.62148 0.08889 0.29728 0.0
H170 H 0.48074 0.95708 0.30494 0.0
H171 H 0.47257 0.943 0.26523 0.0
H172 H 0.6677 0.06442 0.26378 0.0
H173 H 0.69779 0.12151 0.26545 0.0
H174 H 0.69205 0.09392 0.23942 0.0
H175 H 0.58325 0.1079 0.254 0.0
H176 H 0.63259 0.13551 0.23498 0.0
H177 H 0.64774 0.14296 0.2645 0.0
H178 H 0.76382 0.20863 0.20339 0.0
C179 C 0.69615 0.14254 0.20736 0.0
C180 C 0.60246 0.65642 0.53112 0.0
C181 C 0.60226 0.68779 0.5428 0.0
C182 C 0.60254 0.68875 0.56635 0.0
C183 C 0.60364 0.62861 0.56634 0.0
C184 C 0.6029 0.62702 0.54324 0.0
C185 C 0.60246 0.59098 0.53383 0.0
H186 H 0.6171 0.43191 0.55414 0.0
C187 C 0.60551 0.59491 0.57406 0.0
C188 C 0.60505 0.57263 0.55513 0.0
H189 H 0.5959 0.46462 0.48995 0.0
H190 H 0.59678 0.52095 0.50796 0.0
H191 H 0.69808 0.5303 0.57567 0.0
H192 H 0.53579 0.43099 0.57756 0.0
H193 H 0.55564 0.4571 0.60425 0.0
H194 H 0.57772 0.42891 0.59398 0.0
H195 H 0.66714 0.4819 0.59127 0.0
H196 H 0.68116 0.531 0.60327 0.0
C197 C 0.65017 0.61198 0.51974 0.0
C198 C 0.55181 0.55688 0.52054 0.0
C199 C 0.60778 0.57612 0.65756 0.0
C200 C 0.60903 0.54734 0.66977 0.0
C201 C 0.61517 0.51954 0.65823 0.0
C202 C 0.61781 0.51897 0.63492 0.0
C203 C 0.61417 0.54642 0.62284 0.0
C204 C 0.61026 0.57498 0.63417 0.0
C205 C 0.60732 0.60194 0.61848 0.0
C206 C 0.60858 0.58386 0.5959 0.0
C207 C 0.61241 0.5513 0.59859 0.0
C208 C 0.65499 0.65079 0.62299 0.0
C209 C 0.55599 0.59177 0.62186 0.0
C210 C 0.61323 0.45154 0.54393 0.0
C211 C 0.60714 0.44434 0.52063 0.0
C212 C 0.60077 0.46974 0.50796 0.0
C213 C 0.60133 0.50236 0.51845 0.0
C214 C 0.60748 0.50913 0.54188 0.0
C215 C 0.61274 0.48344 0.55413 0.0
C216 C 0.61566 0.49273 0.57885 0.0
C217 C 0.61202 0.52868 0.57958 0.0
C218 C 0.60777 0.53875 0.55792 0.0
C219 C 0.66797 0.5096 0.58794 0.0
C220 C 0.56918 0.45038 0.5894 0.0
H221 H 0.60372 0.66239 0.59598 0.0
H222 H 0.60196 0.65466 0.51302 0.0
H223 H 0.52013 0.55304 0.52871 0.0
H224 H 0.54001 0.52372 0.51983 0.0
H225 H 0.55419 0.56711 0.50325 0.0
H226 H 0.68436 0.64148 0.52885 0.0
H227 H 0.64606 0.6224 0.5036 0.0
H228 H 0.65852 0.58984 0.51623 0.0
H229 H 0.60299 0.59781 0.66591 0.0
H230 H 0.61723 0.49766 0.66728 0.0
H231 H 0.62172 0.49656 0.62721 0.0
H232 H 0.68785 0.65407 0.62919 0.0
H233 H 0.64777 0.667 0.63579 0.0
H234 H 0.66864 0.66971 0.60771 0.0
H235 H 0.52529 0.55645 0.62496 0.0
H236 H 0.54252 0.59765 0.60699 0.0
H237 H 0.55839 0.6112 0.63643 0.0
H238 H 0.60333 0.71293 0.57581 0.0
C239 C 0.60325 0.65953 0.57811 0.0
C240 C 0.17966 0.51891 0.83897 0.0
C241 C 0.21284 0.51421 0.85188 0.0
C242 C 0.20192 0.50855 0.87475 0.0
C243 C 0.13336 0.51353 0.87228 0.0
C244 C 0.13906 0.51743 0.84955 0.0
C245 C 0.0969 0.51958 0.84046 0.0
H246 H 0.88938 0.51598 0.88016 0.0
C247 C 0.09204 0.51513 0.87987 0.0
C248 C 0.06709 0.51745 0.86148 0.0
H249 H 0.91432 0.51882 0.80993 0.0
H250 H 0.98697 0.51978 0.81762 0.0
H251 H 0.89924 0.44913 0.89151 0.0
H252 H 1.00313 0.5893 0.89203 0.0
H253 H 1.02187 0.57845 0.91581 0.0
H254 H 0.95813 0.55975 0.91353 0.0
H255 H 0.89935 0.48241 0.91257 0.0
H256 H 0.93563 0.46455 0.91604 0.0
C257 C 0.05998 0.48033 0.82409 0.0
C258 C 0.12276 0.56279 0.82891 0.0
C259 C 0.0801 0.52539 0.96483 0.0
C260 C 0.05068 0.53058 0.97846 0.0
C261 C 1.01306 0.52945 0.96829 0.0
C262 C 1.00566 0.52459 0.9451 0.0
C263 C 1.03656 0.5213 0.93136 0.0
C264 C 0.07253 0.52119 0.94138 0.0
C265 C 0.10125 0.51677 0.9243 0.0
C266 C 0.07844 0.51641 0.90223 0.0
C267 C 1.04003 0.51848 0.90651 0.0
C268 C 0.08828 0.47201 0.92761 0.0
C269 C 0.15833 0.55789 0.92759 0.0
C270 C 0.90957 0.51696 0.86595 0.0
C271 C 0.89331 0.5176 0.84444 0.0
C272 C 0.92391 0.51894 0.82714 0.0
C273 C 0.96655 0.51918 0.83158 0.0
C274 C 0.98163 0.51844 0.8538 0.0
C275 C 0.95168 0.51785 0.86999 0.0
C276 C 0.96924 0.51927 0.89276 0.0
C277 C 1.01251 0.51862 0.8888 0.0
C278 C 1.02357 0.51823 0.86575 0.0
C279 C 0.92374 0.47702 0.904 0.0
C280 C 0.98878 0.56362 0.90432 0.0
H281 H 0.16204 0.50497 0.90217 0.0
H282 H 0.18473 0.5231 0.82117 0.0
H283 H 0.14963 0.59116 0.84078 0.0
H284 H 0.09405 0.56515 0.82291 0.0
H285 H 0.14437 0.56503 0.81438 0.0
H286 H 1.0414 0.44908 0.83249 0.0
H287 H 0.08047 0.48102 0.8095 0.0
H288 H 1.02993 0.4809 0.81795 0.0
H289 H 0.10918 0.52581 0.97218 0.0
H290 H 0.98906 0.53236 0.97838 0.0
H291 H 0.9759 0.52383 0.93906 0.0
H292 H 0.05087 0.44827 0.93549 0.0
H293 H 0.11723 0.47599 0.93852 0.0
H294 H 0.08421 0.4551 0.91155 0.0
H295 H 0.163 0.58725 0.93329 0.0
H296 H 0.17962 0.56769 0.91199 0.0
H297 H 0.17735 0.55284 0.94033 0.0
H298 H 0.2242 0.50544 0.88584 0.0
C299 C 0.1644 0.50841 0.88457 0.0
C300 C 0.98606 0.42943 0.4614 0.0
C301 C 0.94305 0.38924 0.45088 0.0
C302 C 0.93689 0.38697 0.42755 0.0
C303 C 1.01387 0.46267 0.42517 0.0
C304 C 1.02094 0.46612 0.44813 0.0
C305 C 0.06833 0.51256 0.45563 0.0
H306 H 0.26648 0.72187 0.42195 0.0
C307 C 0.05506 0.50544 0.41576 0.0
C308 C 0.0876 0.53577 0.43342 0.0
H309 H 0.2408 0.68157 0.48994 0.0
H310 H 0.1662 0.60692 0.47724 0.0
H311 H 0.24917 0.64119 0.4013 0.0
H312 H 0.1538 0.67491 0.40879 0.0
H313 H 0.13748 0.64812 0.38232 0.0
H314 H 0.20173 0.69805 0.38818 0.0
H315 H 0.25368 0.67905 0.38381 0.0
H316 H 0.2121 0.62099 0.37656 0.0
C317 C 0.10676 0.51009 0.4667 0.0
C318 C 0.05251 0.53312 0.47141 0.0
C319 C 0.05888 0.51704 0.33108 0.0
C320 C 0.09098 0.55222 0.3171 0.0
C321 C 0.13043 0.59406 0.32688 0.0
C322 C 0.13837 0.60071 0.35009 0.0
C323 C 0.10649 0.56521 0.3639 0.0
C324 C 0.06717 0.5244 0.35436 0.0
C325 C 1.03626 0.49099 0.37172 0.0
C326 C 0.06456 0.51825 0.39323 0.0
C327 C 0.10562 0.56148 0.38847 0.0
C328 C 1.03968 0.45429 0.36757 0.0
C329 C 0.98158 0.47525 0.37022 0.0
C330 C 0.24473 0.69756 0.43438 0.0
C331 C 0.2596 0.70851 0.45704 0.0
C332 C 0.23045 0.67453 0.4723 0.0
C333 C 0.187 0.6312 0.46493 0.0
C334 C 0.17254 0.62134 0.44202 0.0
C335 C 0.20211 0.6548 0.42738 0.0
C336 C 0.18405 0.64017 0.40363 0.0
C337 C 0.13836 0.59246 0.40596 0.0
C338 C 0.13046 0.58043 0.42846 0.0
C339 C 0.22678 0.64578 0.39046 0.0
C340 C 0.16872 0.6667 0.39507 0.0
H341 H 0.96413 0.41813 0.39714 0.0
H342 H 0.9918 0.43232 0.47936 0.0
H343 H 1.0211 0.53023 0.46359 0.0
H344 H 0.08404 0.56834 0.47521 0.0
H345 H 1.03911 0.5162 0.48742 0.0
H346 H 0.11289 0.49082 0.45569 0.0
H347 H 0.09264 0.49388 0.48288 0.0
H348 H 0.14419 0.54284 0.46981 0.0
H349 H 1.02782 0.48458 0.32408 0.0
H350 H 0.15601 0.62161 0.3165 0.0
H351 H 0.16947 0.63333 0.35629 0.0
H352 H 0.07862 0.46841 0.36264 0.0
H353 H 1.01284 0.43067 0.35391 0.0
H354 H 1.03257 0.43607 0.38261 0.0
H355 H 0.98087 0.49992 0.36263 0.0
H356 H 0.96514 0.4707 0.38686 0.0
H357 H 0.9558 0.44422 0.35986 0.0
H358 H 0.90471 0.35677 0.41904 0.0
C359 C 0.97171 0.42294 0.41479 0.0
C360 C 0.57491 0.9391 0.77875 0.0
C361 C 0.58008 0.91104 0.76658 0.0
C362 C 0.58229 0.91272 0.7431 0.0
C363 C 0.57821 0.9712 0.74426 0.0
C364 C 0.57421 0.96903 0.76722 0.0
C365 C 0.56964 1.00196 0.77709 0.0
H366 H 0.58015 0.17653 0.75987 0.0
C367 C 0.57915 1.00687 0.73725 0.0
C368 C 0.57446 0.02553 0.75639 0.0
H369 H 0.5477 0.11195 0.82174 0.0
H370 H 0.55443 0.06026 0.80333 0.0
H371 H 0.6665 0.17578 0.74434 0.0
H372 H 0.50577 0.08723 0.7296 0.0
H373 H 0.53617 0.09525 0.70435 0.0
H374 H 0.54872 0.14148 0.71938 0.0
H375 H 0.63839 0.18806 0.72467 0.0
H376 H 0.65893 0.15768 0.71629 0.0
C377 C 0.61405 0.03309 0.79411 0.0
C378 C 0.51663 0.97633 0.7873 0.0
C379 C 0.59947 0.04135 0.65493 0.0
C380 C 0.60736 0.07539 0.64356 0.0
C381 C 0.61111 0.10828 0.6558 0.0
C382 C 0.60572 0.10672 0.67903 0.0
C383 C 0.59697 0.07209 0.69023 0.0
C384 C 0.59514 0.04073 0.67824 0.0
C385 C 0.5893 1.00827 0.69315 0.0
C386 C 0.58593 0.02432 0.71596 0.0
C387 C 0.58968 0.06124 0.71408 0.0
C388 C 0.63766 0.01292 0.69133 0.0
C389 C 0.53905 0.96207 0.68623 0.0
C390 C 0.57475 0.15142 0.76952 0.0
C391 C 0.56393 0.14858 0.7923 0.0
C392 C 0.55608 0.11478 0.80414 0.0
C393 C 0.56005 0.08489 0.79343 0.0
C394 C 0.57116 0.0884 0.77054 0.0
C395 C 0.57763 0.12109 0.75904 0.0
C396 C 0.58668 0.11926 0.73469 0.0
C397 C 0.58467 0.08013 0.73326 0.0
C398 C 0.57625 0.06217 0.75431 0.0
C399 C 0.64016 0.16242 0.72952 0.0
C400 C 0.54242 0.11065 0.72112 0.0
H401 H 0.5836 0.94188 0.71414 0.0
H402 H 0.57257 0.93842 0.79677 0.0
H403 H 0.48736 0.94645 0.77669 0.0
H404 H 0.50357 0.99539 0.78832 0.0
H405 H 0.51632 0.96568 0.80423 0.0
H406 H 0.65055 0.04502 0.78684 0.0
H407 H 0.60853 0.01596 0.80952 0.0
H408 H 0.61883 0.06258 0.79891 0.0
H409 H 0.59721 0.01604 0.64588 0.0
H410 H 0.61716 0.13473 0.64727 0.0
H411 H 0.60826 0.13243 0.68734 0.0
H412 H 0.67086 0.04599 0.68599 0.0
H413 H 0.63177 0.98843 0.67896 0.0
H414 H 0.6502 1.00987 0.70757 0.0
H415 H 0.50862 0.96362 0.6823 0.0
H416 H 0.52391 0.93864 0.69965 0.0
H417 H 0.54392 0.94819 0.67111 0.0
H418 H 0.58455 0.89075 0.73316 0.0
C419 C 0.58147 0.94244 0.73198 0.0
C420 C 0.52468 0.32365 0.12897 0.0
C421 C 0.55225 0.31197 0.11952 0.0
C422 C 0.56344 0.31887 0.09659 0.0
C423 C 0.53444 0.36037 0.09543 0.0
C424 C 0.51946 0.35028 0.11728 0.0
C425 C 0.50914 0.37861 0.12783 0.0
H426 H 0.49733 0.53967 0.11851 0.0
C427 C 0.53333 0.3954 0.0895 0.0
C428 C 0.51937 0.40666 0.1086 0.0
H429 H 0.4742 0.47017 0.17771 0.0
H430 H 0.49158 0.42846 0.15676 0.0
H431 H 0.59935 0.5552 0.10389 0.0
H432 H 0.44069 0.46277 0.08551 0.0
H433 H 0.47256 0.47043 0.06085 0.0
H434 H 0.48218 0.51648 0.07465 0.0
H435 H 0.56791 0.56875 0.08749 0.0
H436 H 0.59549 0.54686 0.07472 0.0
C437 C 0.54763 0.40638 0.14776 0.0
C438 C 0.45279 0.34858 0.13434 0.0
C439 C 0.57691 0.45405 0.01115 0.0
C440 C 0.5774 0.48581 0.00137 0.0
C441 C 0.56584 0.50848 0.01421 0.0
C442 C 0.55379 0.49977 0.03664 0.0
C443 C 0.55313 0.46788 0.04636 0.0
C444 C 0.56434 0.44542 0.03371 0.0
C445 C 0.56121 0.41247 0.0471 0.0
C446 C 0.54492 0.41821 0.06958 0.0
C447 C 0.54113 0.45118 0.06901 0.0
C448 C 0.61483 0.42624 0.04857 0.0
C449 C 0.51999 0.36627 0.03605 0.0
C450 C 0.49787 0.51688 0.12746 0.0
C451 C 0.48438 0.50864 0.15001 0.0
C452 C 0.48388 0.47709 0.16034 0.0
C453 C 0.49417 0.45292 0.14814 0.0
C454 C 0.5062 0.46097 0.12547 0.0
C455 C 0.5089 0.49316 0.1157 0.0
C456 C 0.52245 0.49769 0.09155 0.0
C457 C 0.52771 0.46289 0.08837 0.0
C458 C 0.51752 0.44113 0.10815 0.0
C459 C 0.57375 0.54455 0.08905 0.0
C460 C 0.47755 0.48664 0.07727 0.0
H461 H 0.56586 0.34876 0.06745 0.0
H462 H 0.51402 0.31789 0.14629 0.0
H463 H 0.42802 0.324 0.12052 0.0
H464 H 0.43892 0.36672 0.13754 0.0
H465 H 0.4467 0.33045 0.1494 0.0
H466 H 0.58282 0.41074 0.14575 0.0
H467 H 0.53101 0.39058 0.16385 0.0
H468 H 0.56149 0.44029 0.14909 0.0
H469 H 0.58541 0.4361 0.00141 0.0
H470 H 0.56578 0.53281 0.00673 0.0
H471 H 0.54518 0.51809 0.04548 0.0
H472 H 0.64515 0.4623 0.04735 0.0
H473 H 0.6201 0.41002 0.03486 0.0
H474 H 0.62283 0.41913 0.0648 0.0
H475 H 0.48532 0.36166 0.0317 0.0
H476 H 0.50748 0.33964 0.04712 0.0
H477 H 0.53378 0.36165 0.0204 0.0
H478 H 0.58424 0.31016 0.08851 0.0
C479 C 0.55393 0.34245 0.08442 0.0
H480 H 0.32684 0.52906 0.17454 0.0
H481 H 0.42115 0.63753 0.13177 0.0
H482 H 0.48968 0.63454 0.13635 0.0
H483 H 0.51289 0.58976 0.14487 0.0
H484 H 0.40811 0.47109 0.18034 0.0
H485 H 0.35574 0.49098 0.18774 0.0
C486 C 0.36324 0.55317 0.167 0.0
C487 C 0.36925 0.5833 0.15277 0.0
C488 C 0.40055 0.54898 0.16832 0.0
C489 C 0.41603 0.61405 0.14276 0.0
C490 C 0.45489 0.61206 0.14526 0.0
C491 C 0.47879 0.56834 0.15438 0.0
C492 C 0.46353 0.52798 0.16111 0.0
C493 C 0.4461 0.57776 0.15675 0.0
C494 C 0.4209 0.5021 0.17461 0.0
C495 C 0.39027 0.51312 0.17861 0.0
H496 H 0.78705 0.19397 0.48276 0.0
H497 H 0.6826 0.21523 0.4654 0.0
H498 H 0.75298 0.29146 0.4591 0.0
H499 H 0.84413 0.35145 0.45486 0.0
H500 H 0.95096 0.3335 0.47192 0.0
H501 H 0.88078 0.25804 0.48231 0.0
C502 C 0.77967 0.21537 0.47789 0.0
C503 C 0.72875 0.19781 0.47434 0.0
C504 C 0.82114 0.26036 0.47423 0.0
C505 C 0.7207 0.22677 0.46807 0.0
C506 C 0.76121 0.27085 0.46445 0.0
C507 C 0.85218 0.33147 0.46152 0.0
C508 C 0.90299 0.34859 0.46295 0.0
C509 C 0.81153 0.28789 0.46703 0.0
C510 C 0.91248 0.32173 0.47114 0.0
C511 C 0.87212 0.27822 0.47678 0.0
H512 H 0.55541 0.75931 0.81513 0.0
H513 H 0.67246 0.79569 0.76914 0.0
H514 H 0.67501 0.8541 0.75601 0.0
H515 H 0.64301 0.89382 0.75658 0.0
H516 H 0.52484 0.85801 0.80154 0.0
H517 H 0.52512 0.80173 0.8166 0.0
C518 C 0.58171 0.78022 0.80235 0.0
C519 C 0.61312 0.7724 0.79292 0.0
C520 C 0.58311 0.81418 0.79478 0.0
C521 C 0.64691 0.79999 0.77635 0.0
C522 C 0.64875 0.83376 0.76893 0.0
C523 C 0.61705 0.87362 0.76962 0.0
C524 C 0.58345 0.87989 0.77766 0.0
C525 C 0.61669 0.84084 0.77782 0.0
C526 C 0.55123 0.85413 0.79504 0.0
C527 C 0.55109 0.82164 0.80353 0.0
H528 H 0.73526 0.33154 0.15353 0.0
H529 H 0.74006 0.4186 0.20111 0.0
H530 H 0.65332 0.38452 0.1909 0.0
H531 H 0.58888 0.34734 0.16174 0.0
H532 H 0.58463 0.2644 0.11124 0.0
H533 H 0.65882 0.28011 0.12928 0.0
C534 C 0.71702 0.3425 0.16197 0.0
C535 C 0.74508 0.37874 0.1775 0.0
C536 C 0.66779 0.32448 0.15506 0.0
C537 C 0.72002 0.39115 0.18897 0.0
C538 C 0.67033 0.37198 0.18293 0.0
C539 C 0.60206 0.33071 0.15497 0.0
C540 C 0.58193 0.30598 0.13447 0.0
C541 C 0.64548 0.341 0.16493 0.0
C542 C 0.60042 0.28501 0.12646 0.0
C543 C 0.64293 0.294 0.13678 0.0
H544 H 0.47348 0.89459 0.48692 0.0
H545 H 0.41861 0.93704 0.44037 0.0
H546 H 0.33993 0.86225 0.43456 0.0
H547 H 0.28603 0.78434 0.44171 0.0
H548 H 0.33784 0.73873 0.48755 0.0
H549 H 0.41678 0.81451 0.49494 0.0
C550 C 0.44435 0.88748 0.47549 0.0
C551 C 0.45285 0.92219 0.46408 0.0
C552 C 0.39797 0.84353 0.47217 0.0
C553 C 0.41398 0.91175 0.44947 0.0
C554 C 0.36853 0.86866 0.44609 0.0
C555 C 0.31451 0.7907 0.45332 0.0
C556 C 0.30562 0.75523 0.46386 0.0
C557 C 0.36007 0.83427 0.45723 0.0
C558 C 0.34299 0.76495 0.47923 0.0
C559 C 0.38854 0.80845 0.48331 0.0
H560 H 0.57901 0.31015 0.82315 0.0
H561 H 0.42897 0.20655 0.84639 0.0
H562 H 0.43826 0.15241 0.83534 0.0
H563 H 0.48697 0.13359 0.81668 0.0
H564 H 0.63482 0.23728 0.79178 0.0
H565 H 0.62825 0.2919 0.80565 0.0
C566 C 0.54809 0.27573 0.8257 0.0
C567 C 0.5032 0.26273 0.83553 0.0
C568 C 0.55327 0.24455 0.81891 0.0
C569 C 0.46421 0.21787 0.8391 0.0
C570 C 0.46934 0.18671 0.83263 0.0
C571 C 0.51798 0.16821 0.81464 0.0
C572 C 0.56134 0.18135 0.80321 0.0
C573 C 0.51347 0.19955 0.82228 0.0
C574 C 0.60099 0.22632 0.80043 0.0
C575 C 0.59721 0.25757 0.80833 0.0
H576 H 0.65618 0.85084 0.49457 0.0
H577 H 0.54182 0.82672 0.53862 0.0
H578 H 0.52505 0.76101 0.55106 0.0
H579 H 0.54671 0.71323 0.55143 0.0
H580 H 0.66164 0.73718 0.508 0.0
H581 H 0.67298 0.79907 0.49273 0.0
C582 C 0.62698 0.83082 0.50661 0.0
C583 C 0.60082 0.8442 0.51586 0.0
C584 C 0.61751 0.79292 0.51377 0.0
C585 C 0.56334 0.81786 0.53156 0.0
C586 C 0.55349 0.78008 0.53861 0.0
C587 C 0.57408 0.73185 0.53852 0.0
C588 C 0.6037 0.72088 0.53106 0.0
C589 C 0.58106 0.76783 0.53018 0.0
C590 C 0.6382 0.74476 0.51399 0.0
C591 C 0.64501 0.78042 0.5054 0.0
H592 H 0.66676 0.46608 0.85094 0.0
H593 H 0.74319 0.58888 0.81952 0.0
H594 H 0.82062 0.59785 0.81786 0.0
H595 H 0.87191 0.57263 0.82569 0.0
H596 H 0.79597 0.4514 0.85863 0.0
H597 H 0.71783 0.44128 0.859 0.0
C598 C 0.69996 0.49508 0.84361 0.0
C599 C 0.69585 0.52662 0.8353 0.0
C600 C 0.74686 0.5007 0.84282 0.0
C601 C 0.74202 0.56337 0.82619 0.0
C602 C 0.7876 0.56867 0.82518 0.0
C603 C 0.8384 0.54339 0.83272 0.0
C604 C 0.84268 0.51237 0.84174 0.0
C605 C 0.79139 0.53777 0.83341 0.0
C606 C 0.79664 0.47609 0.85115 0.0
C607 C 0.75075 0.4702 0.85148 0.0
H608 H 0.24344 0.65335 0.13483 0.0
H609 H 0.15238 0.66532 0.17848 0.0
H610 H 0.22257 0.74351 0.18437 0.0
H611 H 0.31062 0.80893 0.17834 0.0
H612 H 0.40346 0.79954 0.13476 0.0
H613 H 0.33209 0.72102 0.12735 0.0
C614 C 0.23886 0.67305 0.14559 0.0
C615 C 0.19202 0.65267 0.15623 0.0
C616 C 0.27991 0.71894 0.14887 0.0
C617 C 0.18737 0.67935 0.16999 0.0
C618 C 0.22775 0.72442 0.17342 0.0
C619 C 0.31545 0.78987 0.16716 0.0
C620 C 0.363 0.81062 0.15729 0.0
C621 C 0.27429 0.74459 0.16311 0.0
C622 C 0.36759 0.78501 0.14253 0.0
C623 C 0.32672 0.73981 0.13843 0.0
H624 H 0.62765 0.30225 0.49211 0.0
H625 H 0.48157 0.24067 0.46062 0.0
H626 H 0.48926 0.30436 0.47155 0.0
H627 H 0.53485 0.37584 0.49234 0.0
H628 H 0.67796 0.43475 0.52583 0.0
H629 H 0.67385 0.37391 0.51206 0.0
C630 C 0.59727 0.30251 0.48772 0.0
C631 C 0.55404 0.26635 0.47555 0.0
C632 C 0.60135 0.33892 0.49451 0.0
C633 C 0.51567 0.26805 0.46969 0.0
C634 C 0.51982 0.30443 0.47609 0.0
C635 C 0.56543 0.37557 0.49628 0.0
C636 C 0.6067 0.40973 0.51003 0.0
C637 C 0.5622 0.33987 0.48873 0.0
C638 C 0.64577 0.40874 0.51531 0.0
C639 C 0.64338 0.37393 0.50748 0.0
H640 H 0.4298 0.55927 0.82145 0.0
H641 H 0.37383 0.45211 0.86374 0.0
H642 H 0.29776 0.44342 0.87028 0.0
H643 H 0.2437 0.46521 0.86539 0.0
H644 H 0.29396 0.56888 0.8217 0.0
H645 H 0.37118 0.57837 0.81457 0.0
C646 C 0.4013 0.53373 0.83214 0.0
C647 C 0.41099 0.50659 0.84207 0.0
C648 C 0.3544 0.52771 0.83569 0.0
C649 C 0.37062 0.47403 0.85555 0.0
C650 C 0.32585 0.46889 0.85942 0.0
C651 C 0.27083 0.49002 0.85406 0.0
C652 C 0.25955 0.516 0.84424 0.0
C653 C 0.31664 0.49533 0.84974 0.0
C654 C 0.29803 0.54728 0.82963 0.0
C655 C 0.34363 0.5531 0.82563 0.0
H656 H 0.87974 0.37389 0.14672 0.0
H657 H 0.98628 0.35084 0.14695 0.0
H658 H 0.91688 0.27278 0.15225 0.0
H659 H 0.82623 0.21176 0.16047 0.0
H660 H 0.71943 0.23421 0.15831 0.0
H661 H 0.78785 0.31093 0.14975 0.0
C662 C 0.88776 0.35172 0.14765 0.0
C663 C 0.93863 0.36868 0.1466 0.0
C664 C 0.84724 0.30637 0.15026 0.0
C665 C 0.94782 0.33906 0.14764 0.0
C666 C 0.90799 0.29424 0.15075 0.0
C667 C 0.81767 0.23305 0.15728 0.0
C668 C 0.76727 0.21672 0.15952 0.0
C669 C 0.85756 0.27753 0.15246 0.0
C670 C 0.75734 0.24535 0.15607 0.0
C671 C 0.79671 0.28952 0.1515 0.0
H672 H 0.05792 0.57587 0.08124 0.0
H673 H 1.04582 0.46192 0.08689 0.0
H674 H 0.051 0.4568 0.04628 0.0
H675 H 0.05358 0.48223 0.0087 0.0
H676 H 0.06456 0.59573 0.00358 0.0
H677 H 0.06583 0.60382 0.04422 0.0
C678 C 0.05665 0.55005 0.07357 0.0
C679 C 0.05097 0.51908 0.08701 0.0
C680 C 0.05951 0.54725 0.05022 0.0
C681 C 0.04981 0.486 0.07687 0.0
C682 C 0.05282 0.48308 0.05364 0.0
C683 C 0.05715 0.50912 0.01656 0.0
C684 C 0.05868 0.53819 0.00315 0.0
C685 C 0.05702 0.51319 0.04007 0.0
C686 C 0.06289 0.57271 0.01354 0.0
C687 C 0.06352 0.57733 0.03679 0.0
H688 H 0.53559 0.02756 0.40964 0.0
H689 H 0.6959 0.09577 0.40567 0.0
H690 H 0.6895 0.09255 0.36493 0.0
H691 H 0.63753 0.06628 0.33042 0.0
H692 H 0.47722 0.99849 0.33411 0.0
H693 H 0.48438 1.00529 0.37489 0.0
C694 C 0.56912 0.04198 0.39982 0.0
C695 C 0.61604 0.06152 0.4106 0.0
C696 C 0.56512 0.03976 0.37635 0.0
C697 C 0.65927 0.08028 0.39773 0.0
C698 C 0.65565 0.07843 0.37443 0.0
C699 C 0.60429 0.05367 0.3401 0.0
C700 C 0.55686 0.03163 0.32916 0.0
C701 C 0.60865 0.0577 0.36355 0.0
C702 C 0.51408 0.01496 0.34207 0.0
C703 C 0.51815 0.019 0.36541 0.0
H704 H 0.59579 0.55841 0.7752 0.0
H705 H 0.49167 0.41787 0.76324 0.0
H706 H 0.50535 0.42641 0.72337 0.0
H707 H 0.54685 0.47293 0.69185 0.0
H708 H 0.65108 0.61364 0.70238 0.0
H709 H 0.63679 0.60608 0.74273 0.0
C710 C 0.57596 0.52987 0.76382 0.0
C711 C 0.54274 0.48765 0.77221 0.0
C712 C 0.58396 0.53498 0.74065 0.0
C713 C 0.51746 0.45079 0.75726 0.0
C714 C 0.52523 0.45556 0.73441 0.0
C715 C 0.56689 0.50201 0.70298 0.0
C716 C 0.60047 0.54372 0.6942 0.0
C717 C 0.55854 0.49739 0.72595 0.0
C718 C 0.62503 0.5811 0.70877 0.0
C719 C 0.617 0.57678 0.73183 0.0
H720 H 0.64492 0.11161 0.54072 0.0
H721 H 0.48876 0.99243 0.53654 0.0
H722 H 0.48989 0.98505 0.57682 0.0
H723 H 0.53353 0.01504 0.61366 0.0
H724 H 0.68659 0.13802 0.61862 0.0
H725 H 0.68884 0.14162 0.57777 0.0
C726 C 0.61145 0.08386 0.54868 0.0
C727 C 0.56684 0.05254 0.53581 0.0
C728 C 0.61182 0.08075 0.57201 0.0
C729 C 0.52343 0.01698 0.54622 0.0
C730 C 0.52405 0.01276 0.56922 0.0
C731 C 0.56747 0.04228 0.60568 0.0
C732 C 0.60995 0.07607 0.61892 0.0
C733 C 0.56774 0.04479 0.58234 0.0
C734 C 0.65355 0.11166 0.60861 0.0
C735 C 0.65478 0.1137 0.58531 0.0
H736 H 0.65107 0.56444 0.90675 0.0
H737 H 0.48902 0.47698 0.89404 0.0
H738 H 0.47451 0.44902 0.93131 0.0
H739 H 0.50755 0.45301 0.96845 0.0
H740 H 0.66892 0.53985 0.98176 0.0
H741 H 0.68443 0.56418 0.94327 0.0
C742 C 0.6127 0.53917 0.91219 0.0
C743 C 0.57116 0.52309 0.89786 0.0
C744 C 0.60461 0.52302 0.93366 0.0
C745 C 0.52157 0.49001 0.90489 0.0
C746 C 0.51321 0.47396 0.92617 0.0
C747 C 0.54602 0.47654 0.96265 0.0
C748 C 0.58712 0.49448 0.97753 0.0
C749 C 0.55436 0.49062 0.94078 0.0
C750 C 0.63692 0.52538 0.97026 0.0
C751 C 0.64567 0.53948 0.9484 0.0
H752 H 0.08832 0.55956 0.21196 0.0
H753 H 0.07528 0.44486 0.21627 0.0
H754 H 0.07195 0.44889 0.25697 0.0
H755 H 0.07719 0.48728 0.2915 0.0
H756 H 0.09211 0.60292 0.28725 0.0
H757 H 0.09009 0.59624 0.24645 0.0
C758 C 0.08446 0.53534 0.22183 0.0
C759 C 0.08232 0.50211 0.21119 0.0
C760 C 0.08302 0.5381 0.24525 0.0
C761 C 0.0773 0.47091 0.22413 0.0
C762 C 0.07534 0.47316 0.2474 0.0
C763 C 0.0792 0.51059 0.28161 0.0
C764 C 0.08494 0.54561 0.29237 0.0
C765 C 0.07871 0.50688 0.25816 0.0
C766 C 0.08818 0.57593 0.27935 0.0
C767 C 0.08697 0.5721 0.25603 0.0
loop_
_geom_bond_atom_site_label_1
_geom_bond_atom_site_label_2
_geom_bond_distance
_geom_bond_site_symmetry_2
_ccdc_geom_bond_type
Ho0 C3 2.811 . S
Ho0 O20 2.322 . S
Ho0 O22 2.378 . S
Ho0 O23 2.524 . S
Ho0 O24 2.381 . S
Ho0 O25 2.669 . S
Ho0 O27 2.346 1_455 S
Ho0 O31 2.305 . S
Ho1 C12 2.811 . S
Ho1 O21 2.346 1_655 S
Ho1 O25 2.305 1_655 S
Ho1 O26 2.322 . S
Ho1 O28 2.378 . S
Ho1 O29 2.524 . S
Ho1 O30 2.380 . S
Ho1 O31 2.669 1_655 S
C2 O20 1.259 . S
C2 O21 1.268 . S
C3 Ho0 2.811 . S
C3 C4 1.488 . S
C3 O22 1.215 . S
C3 O23 1.289 . S
C4 C3 1.488 . S
C4 C5 1.348 . S
C4 C9 1.413 . S
C5 C4 1.348 . S
C5 C6 1.442 . S
C5 H32 0.930 . S
C6 C5 1.442 . S
C6 C7 1.381 . S
C6 H33 0.931 . S
C7 C6 1.381 . S
C7 C8 1.321 . S
C8 C7 1.321 . S
C8 C9 1.403 . S
C8 H34 0.934 . S
C9 C4 1.413 . S
C9 C8 1.403 . S
C9 H35 0.930 . S
C10 O24 1.275 . S
C10 O25 1.256 . S
C11 O26 1.259 . S
C11 O27 1.268 . S
C12 Ho1 2.811 . S
C12 C13 1.488 . S
C12 O28 1.215 . S
C12 O29 1.289 . S
C13 C12 1.488 . S
C13 C14 1.348 . S
C13 C18 1.413 . S
C14 C13 1.348 . S
C14 C15 1.442 . S
C14 H36 0.930 . S
C15 C14 1.442 . S
C15 C16 1.381 . S
C15 H37 0.931 . S
C16 C15 1.381 . S
C16 C17 1.321 . S
C17 C16 1.321 . S
C17 C18 1.403 . S
C17 H38 0.934 . S
C18 C13 1.413 . S
C18 C17 1.403 . S
C18 H39 0.930 . S
C19 O30 1.277 1_455 S
C19 O31 1.256 . S
O20 Ho0 2.322 . S
O20 C2 1.259 . S
O21 Ho1 2.346 1_455 S
O21 C2 1.268 . S
O22 Ho0 2.378 . S
O22 C3 1.215 . S
O23 Ho0 2.524 . S
O23 C3 1.289 . S
O24 Ho0 2.381 . S
O24 C10 1.275 . S
O25 Ho0 2.669 . S
O25 Ho1 2.305 1_455 S
O25 C10 1.256 . S
O26 Ho1 2.322 . S
O26 C11 1.259 . S
O27 Ho0 2.346 1_655 S
O27 C11 1.268 . S
O28 Ho1 2.378 . S
O28 C12 1.215 . S
O29 Ho1 2.524 . S
O29 C12 1.289 . S
O30 Ho1 2.380 . S
O30 C19 1.277 1_655 S
O31 Ho0 2.305 . S
O31 Ho1 2.669 1_455 S
O31 C19 1.256 . S
H32 C5 0.930 . S
H33 C6 0.931 . S
H34 C8 0.934 . S
H35 C9 0.930 . S
H36 C14 0.930 . S
H37 C15 0.931 . S
H38 C17 0.934 . S
H39 C18 0.930 . S
Ho40 C43 2.811 . S
Ho40 O60 2.322 . S
Ho40 O62 2.378 . S
Ho40 O63 2.524 . S
Ho40 O64 2.381 . S
Ho40 O65 2.669 1_565 S
Ho40 O67 2.346 1_565 S
Ho40 O71 2.313 . S
Ho41 C52 2.811 . S
Ho41 O61 2.346 1_545 S
Ho41 O65 2.305 . S
Ho41 O66 2.322 . S
Ho41 O68 2.378 . S
Ho41 O69 2.524 . S
Ho41 O70 2.381 . S
Ho41 O71 2.656 1_545 S
C42 O60 1.259 . S
C42 O61 1.268 . S
C43 Ho40 2.811 . S
C43 C44 1.488 . S
C43 O62 1.215 . S
C43 O63 1.289 . S
C44 C43 1.488 . S
C44 C45 1.348 . S
C44 C49 1.413 . S
C45 C44 1.348 . S
C45 C46 1.442 . S
C45 H72 0.930 . S
C46 C45 1.442 . S
C46 C47 1.381 . S
C46 H73 0.931 . S
C47 C46 1.381 . S
C47 C48 1.321 . S
C48 C47 1.321 . S
C48 C49 1.403 . S
C48 H74 0.934 . S
C49 C44 1.413 . S
C49 C48 1.403 . S
C49 H75 0.930 . S
C50 O64 1.275 1_545 S
C50 O65 1.256 . S
C51 O66 1.259 . S
C51 O67 1.268 . S
C52 Ho41 2.811 . S
C52 C53 1.488 . S
C52 O68 1.215 . S
C52 O69 1.289 . S
C53 C52 1.488 . S
C53 C54 1.348 . S
C53 C58 1.413 . S
C54 C53 1.348 . S
C54 C55 1.442 . S
C54 H76 0.930 . S
C55 C54 1.442 . S
C55 C56 1.381 . S
C55 H77 0.931 . S
C56 C55 1.381 . S
C56 C57 1.321 . S
C57 C56 1.321 . S
C57 C58 1.403 . S
C57 H78 0.934 . S
C58 C53 1.413 . S
C58 C57 1.403 . S
C58 H79 0.930 . S
C59 O70 1.275 . S
C59 O71 1.249 1_545 S
O60 Ho40 2.322 . S
O60 C42 1.259 . S
O61 Ho41 2.346 1_565 S
O61 C42 1.268 . S
O62 Ho40 2.378 . S
O62 C43 1.215 . S
O63 Ho40 2.524 . S
O63 C43 1.289 . S
O64 Ho40 2.381 . S
O64 C50 1.275 1_565 S
O65 Ho40 2.669 1_545 S
O65 Ho41 2.305 . S
O65 C50 1.256 . S
O66 Ho41 2.322 . S
O66 C51 1.259 . S
O67 Ho40 2.346 1_545 S
O67 C51 1.268 . S
O68 Ho41 2.378 . S
O68 C52 1.215 . S
O69 Ho41 2.524 . S
O69 C52 1.289 . S
O70 Ho41 2.381 . S
O70 C59 1.275 . S
O71 Ho40 2.313 . S
O71 Ho41 2.656 1_565 S
O71 C59 1.249 1_565 S
H72 C45 0.930 . S
H73 C46 0.931 . S
H74 C48 0.934 . S
H75 C49 0.930 . S
H76 C54 0.930 . S
H77 C55 0.931 . S
H78 C57 0.934 . S
H79 C58 0.930 . S
Ho80 C83 2.811 . S
Ho80 O100 2.322 . S
Ho80 O102 2.378 . S
Ho80 O103 2.524 . S
Ho80 O104 2.381 . S
Ho80 O105 2.669 . S
Ho80 O107 2.346 . S
Ho80 O111 2.305 . S
Ho81 C92 2.811 . S
Ho81 O101 2.346 . S
Ho81 O105 2.305 . S
Ho81 O106 2.322 . S
Ho81 O108 2.378 . S
Ho81 O109 2.524 . S
Ho81 O110 2.381 . S
Ho81 O111 2.669 . S
C82 O100 1.259 . S
C82 O101 1.268 . S
C83 Ho80 2.811 . S
C83 C84 1.488 . S
C83 O102 1.215 . S
C83 O103 1.289 . S
C84 C83 1.488 . S
C84 C85 1.348 . S
C84 C89 1.413 . S
C85 C84 1.348 . S
C85 C86 1.442 . S
C85 H112 0.930 . S
C86 C85 1.442 . S
C86 C87 1.381 . S
C86 H113 0.931 . S
C87 C86 1.381 . S
C87 C88 1.321 . S
C88 C87 1.321 . S
C88 C89 1.403 . S
C88 H114 0.934 . S
C89 C84 1.413 . S
C89 C88 1.403 . S
C89 H115 0.930 . S
C90 O104 1.275 . S
C90 O105 1.256 . S
C91 O106 1.259 . S
C91 O107 1.268 . S
C92 Ho81 2.811 . S
C92 C93 1.488 . S
C92 O108 1.215 . S
C92 O109 1.289 . S
C93 C92 1.488 . S
C93 C94 1.348 . S
C93 C98 1.413 . S
C94 C93 1.348 . S
C94 C95 1.442 . S
C94 H116 0.930 . S
C95 C94 1.442 . S
C95 C96 1.381 . S
C95 H117 0.931 . S
C96 C95 1.381 . S
C96 C97 1.321 . S
C97 C96 1.321 . S
C97 C98 1.403 . S
C97 H118 0.934 . S
C98 C93 1.413 . S
C98 C97 1.403 . S
C98 H119 0.930 . S
C99 O110 1.275 . S
C99 O111 1.256 . S
O100 Ho80 2.322 . S
O100 C82 1.259 . S
O101 Ho81 2.346 . S
O101 C82 1.268 . S
O102 Ho80 2.378 . S
O102 C83 1.215 . S
O103 Ho80 2.524 . S
O103 C83 1.289 . S
O104 Ho80 2.381 . S
O104 C90 1.275 . S
O105 Ho80 2.669 . S
O105 Ho81 2.305 . S
O105 C90 1.256 . S
O106 Ho81 2.322 . S
O106 C91 1.259 . S
O107 Ho80 2.346 . S
O107 C91 1.268 . S
O108 Ho81 2.378 . S
O108 C92 1.215 . S
O109 Ho81 2.524 . S
O109 C92 1.289 . S
O110 Ho81 2.381 . S
O110 C99 1.275 . S
O111 Ho80 2.305 . S
O111 Ho81 2.669 . S
O111 C99 1.256 . S
H112 C85 0.930 . S
H113 C86 0.931 . S
H114 C88 0.934 . S
H115 C89 0.930 . S
H116 C94 0.930 . S
H117 C95 0.931 . S
H118 C97 0.934 . S
H119 C98 0.930 . S
C120 C121 1.391 . S
C120 C124 1.391 . S
C120 H162 0.948 . S
C121 C120 1.391 . S
C121 C122 1.391 . S
C122 C121 1.391 . S
C122 H178 0.947 . S
C122 C179 1.392 . S
C123 C124 1.391 . S
C123 C127 1.397 . S
C123 C179 1.419 . S
C124 C120 1.391 . S
C124 C123 1.391 . S
C124 C125 1.399 . S
C125 C124 1.399 . S
C125 C128 1.396 . S
C125 C137 1.453 . S
C125 C138 1.684 . S
H126 C150 0.948 . S
C127 C123 1.397 . S
C127 C128 1.394 . S
C127 C146 1.723 . S
C128 C125 1.396 . S
C128 C127 1.394 . S
C128 C158 1.723 1_545 S
H129 C152 0.947 . S
H130 C153 0.948 . S
H131 C159 0.982 . S
H132 C160 0.979 . S
H133 C160 0.980 . S
H134 C160 0.983 . S
H135 C159 0.979 . S
H136 C159 0.977 . S
C137 C125 1.453 . S
C137 H166 0.982 . S
C137 H167 0.979 . S
C137 H168 0.977 1_545 S
C138 C125 1.684 . S
C138 H163 0.979 . S
C138 H164 0.980 . S
C138 H165 0.983 . S
C139 C140 1.391 . S
C139 C144 1.391 . S
C139 H169 0.948 . S
C140 C139 1.391 . S
C140 C141 1.391 1_545 S
C141 C140 1.391 1_565 S
C141 C142 1.392 . S
C141 H170 0.947 . S
C142 C141 1.392 . S
C142 C143 1.419 1_565 S
C142 H171 0.948 . S
C143 C142 1.419 1_545 S
C143 C144 1.391 . S
C143 C147 1.397 . S
C144 C139 1.391 . S
C144 C143 1.391 . S
C144 C145 1.399 . S
C145 C144 1.399 . S
C145 C146 1.396 . S
C145 C148 1.453 . S
C145 C149 1.684 . S
C146 C127 1.723 . S
C146 C145 1.396 . S
C146 C147 1.394 . S
C147 C143 1.397 . S
C147 C146 1.394 . S
C147 C157 1.723 1_545 S
C148 C145 1.453 . S
C148 H172 0.982 . S
C148 H173 0.979 . S
C148 H174 0.977 . S
C149 C145 1.684 . S
C149 H175 0.979 . S
C149 H176 0.980 . S
C149 H177 0.983 . S
C150 H126 0.948 . S
C150 C151 1.391 . S
C150 C155 1.391 . S
C151 C150 1.391 . S
C151 C152 1.391 . S
C152 H129 0.947 . S
C152 C151 1.391 . S
C152 C153 1.392 . S
C153 H130 0.948 . S
C153 C152 1.392 . S
C153 C154 1.419 . S
C154 C153 1.419 . S
C154 C155 1.391 . S
C154 C158 1.397 . S
C155 C150 1.391 . S
C155 C154 1.391 . S
C155 C156 1.399 . S
C156 C155 1.399 . S
C156 C157 1.396 . S
C156 C159 1.453 . S
C156 C160 1.684 . S
C157 C147 1.723 1_565 S
C157 C156 1.396 . S
C157 C158 1.394 . S
C158 C128 1.723 1_565 S
C158 C154 1.397 . S
C158 C157 1.394 . S
C159 H131 0.982 . S
C159 H135 0.979 . S
C159 H136 0.977 . S
C159 C156 1.453 . S
C160 H132 0.979 . S
C160 H133 0.980 . S
C160 H134 0.983 . S
C160 C156 1.684 . S
H161 C179 0.948 . S
H162 C120 0.948 . S
H163 C138 0.979 . S
H164 C138 0.980 . S
H165 C138 0.983 . S
H166 C137 0.982 . S
H167 C137 0.979 . S
H168 C137 0.977 1_565 S
H169 C139 0.948 . S
H170 C141 0.947 . S
H171 C142 0.948 . S
H172 C148 0.982 . S
H173 C148 0.979 . S
H174 C148 0.977 . S
H175 C149 0.979 . S
H176 C149 0.980 . S
H177 C149 0.983 . S
H178 C122 0.947 . S
C179 C122 1.392 . S
C179 C123 1.419 . S
C179 H161 0.948 . S
C180 C181 1.391 . S
C180 C184 1.391 . S
C180 H222 0.948 . S
C181 C180 1.391 . S
C181 C182 1.391 . S
C182 C181 1.391 . S
C182 H238 0.947 . S
C182 C239 1.392 . S
C183 C184 1.391 . S
C183 C187 1.397 . S
C183 C239 1.419 . S
C184 C180 1.391 . S
C184 C183 1.391 . S
C184 C185 1.399 . S
C185 C184 1.399 . S
C185 C188 1.396 . S
C185 C197 1.453 . S
C185 C198 1.684 . S
H186 C210 0.948 . S
C187 C183 1.397 . S
C187 C188 1.394 . S
C187 C206 1.723 . S
C188 C185 1.396 . S
C188 C187 1.394 . S
C188 C218 1.723 . S
H189 C212 0.947 . S
H190 C213 0.948 . S
H191 C219 0.982 . S
H192 C220 0.979 . S
H193 C220 0.980 . S
H194 C220 0.983 . S
H195 C219 0.979 . S
H196 C219 0.977 . S
C197 C185 1.453 . S
C197 H226 0.982 . S
C197 H227 0.979 . S
C197 H228 0.977 . S
C198 C185 1.684 . S
C198 H223 0.979 . S
C198 H224 0.980 . S
C198 H225 0.983 . S
C199 C200 1.391 . S
C199 C204 1.391 . S
C199 H229 0.948 . S
C200 C199 1.391 . S
C200 C201 1.391 . S
C201 C200 1.391 . S
C201 C202 1.392 . S
C201 H230 0.947 . S
C202 C201 1.392 . S
C202 C203 1.419 . S
C202 H231 0.948 . S
C203 C202 1.419 . S
C203 C204 1.391 . S
C203 C207 1.397 . S
C204 C199 1.391 . S
C204 C203 1.391 . S
C204 C205 1.399 . S
C205 C204 1.399 . S
C205 C206 1.396 . S
C205 C208 1.453 . S
C205 C209 1.684 . S
C206 C187 1.723 . S
C206 C205 1.396 . S
C206 C207 1.394 . S
C207 C203 1.397 . S
C207 C206 1.394 . S
C207 C217 1.723 . S
C208 C205 1.453 . S
C208 H232 0.982 . S
C208 H233 0.979 . S
C208 H234 0.977 . S
C209 C205 1.684 . S
C209 H235 0.979 . S
C209 H236 0.980 . S
C209 H237 0.983 . S
C210 H186 0.948 . S
C210 C211 1.391 . S
C210 C215 1.391 . S
C211 C210 1.391 . S
C211 C212 1.391 . S
C212 H189 0.947 . S
C212 C211 1.391 . S
C212 C213 1.392 . S
C213 H190 0.948 . S
C213 C212 1.392 . S
C213 C214 1.419 . S
C214 C213 1.419 . S
C214 C215 1.391 . S
C214 C218 1.397 . S
C215 C210 1.391 . S
C215 C214 1.391 . S
C215 C216 1.399 . S
C216 C215 1.399 . S
C216 C217 1.396 . S
C216 C219 1.453 . S
C216 C220 1.684 . S
C217 C207 1.723 . S
C217 C216 1.396 . S
C217 C218 1.394 . S
C218 C188 1.723 . S
C218 C214 1.397 . S
C218 C217 1.394 . S
C219 H191 0.982 . S
C219 H195 0.979 . S
C219 H196 0.977 . S
C219 C216 1.453 . S
C220 H192 0.979 . S
C220 H193 0.980 . S
C220 H194 0.983 . S
C220 C216 1.684 . S
H221 C239 0.948 . S
H222 C180 0.948 . S
H223 C198 0.979 . S
H224 C198 0.980 . S
H225 C198 0.983 . S
H226 C197 0.982 . S
H227 C197 0.979 . S
H228 C197 0.977 . S
H229 C199 0.948 . S
H230 C201 0.947 . S
H231 C202 0.948 . S
H232 C208 0.982 . S
H233 C208 0.979 . S
H234 C208 0.977 . S
H235 C209 0.979 . S
H236 C209 0.980 . S
H237 C209 0.983 . S
H238 C182 0.947 . S
C239 C182 1.392 . S
C239 C183 1.419 . S
C239 H221 0.948 . S
C240 C241 1.391 . S
C240 C244 1.391 . S
C240 H282 0.948 . S
C241 C240 1.391 . S
C241 C242 1.391 . S
C242 C241 1.391 . S
C242 H298 0.947 . S
C242 C299 1.392 . S
C243 C244 1.391 . S
C243 C247 1.397 . S
C243 C299 1.419 . S
C244 C240 1.391 . S
C244 C243 1.391 . S
C244 C245 1.399 . S
C245 C244 1.399 . S
C245 C248 1.396 . S
C245 C257 1.453 . S
C245 C258 1.684 . S
H246 C270 0.948 . S
C247 C243 1.397 . S
C247 C248 1.394 . S
C247 C266 1.723 . S
C248 C245 1.396 . S
C248 C247 1.394 . S
C248 C278 1.723 . S
H249 C272 0.947 . S
H250 C273 0.948 1_455 S
H251 C279 0.982 . S
H252 C280 0.979 1_455 S
H253 C280 0.980 . S
H254 C280 0.983 . S
H255 C279 0.979 . S
H256 C279 0.977 . S
C257 C245 1.453 . S
C257 H286 0.982 . S
C257 H287 0.979 . S
C257 H288 0.977 . S
C258 C245 1.684 . S
C258 H283 0.979 . S
C258 H284 0.980 . S
C258 H285 0.983 . S
C259 C260 1.391 . S
C259 C264 1.391 . S
C259 H289 0.948 . S
C260 C259 1.391 . S
C260 C261 1.391 . S
C261 C260 1.391 . S
C261 C262 1.392 . S
C261 H290 0.947 1_455 S
C262 C261 1.392 . S
C262 C263 1.419 . S
C262 H291 0.948 1_455 S
C263 C262 1.419 . S
C263 C264 1.391 . S
C263 C267 1.397 . S
C264 C259 1.391 . S
C264 C263 1.391 . S
C264 C265 1.399 . S
C265 C264 1.399 . S
C265 C266 1.396 . S
C265 C268 1.453 . S
C265 C269 1.684 . S
C266 C247 1.723 . S
C266 C265 1.396 . S
C266 C267 1.394 . S
C267 C263 1.397 . S
C267 C266 1.394 . S
C267 C277 1.723 . S
C268 C265 1.453 . S
C268 H292 0.982 . S
C268 H293 0.979 . S
C268 H294 0.977 . S
C269 C265 1.684 . S
C269 H295 0.979 . S
C269 H296 0.980 . S
C269 H297 0.983 . S
C270 H246 0.948 . S
C270 C271 1.391 . S
C270 C275 1.391 . S
C271 C270 1.391 . S
C271 C272 1.391 . S
C272 H249 0.947 . S
C272 C271 1.391 . S
C272 C273 1.392 . S
C273 H250 0.948 1_655 S
C273 C272 1.392 . S
C273 C274 1.419 . S
C274 C273 1.419 . S
C274 C275 1.391 . S
C274 C278 1.397 1_655 S
C275 C270 1.391 . S
C275 C274 1.391 . S
C275 C276 1.399 . S
C276 C275 1.399 . S
C276 C277 1.396 1_655 S
C276 C279 1.453 . S
C276 C280 1.684 . S
C277 C267 1.723 . S
C277 C276 1.396 1_455 S
C277 C278 1.394 . S
C278 C248 1.723 . S
C278 C274 1.397 1_455 S
C278 C277 1.394 . S
C279 H251 0.982 . S
C279 H255 0.979 . S
C279 H256 0.977 . S
C279 C276 1.453 . S
C280 H252 0.979 1_655 S
C280 H253 0.980 . S
C280 H254 0.983 . S
C280 C276 1.684 . S
H281 C299 0.948 . S
H282 C240 0.948 . S
H283 C258 0.979 . S
H284 C258 0.980 . S
H285 C258 0.983 . S
H286 C257 0.982 . S
H287 C257 0.979 . S
H288 C257 0.977 . S
H289 C259 0.948 . S
H290 C261 0.947 1_655 S
H291 C262 0.948 1_655 S
H292 C268 0.982 . S
H293 C268 0.979 . S
H294 C268 0.977 . S
H295 C269 0.979 . S
H296 C269 0.980 . S
H297 C269 0.983 . S
H298 C242 0.947 . S
C299 C242 1.392 . S
C299 C243 1.419 . S
C299 H281 0.948 . S
C300 C301 1.391 . S
C300 C304 1.391 . S
C300 H342 0.948 . S
C301 C300 1.391 . S
C301 C302 1.391 . S
C302 C301 1.391 . S
C302 H358 0.947 . S
C302 C359 1.392 . S
C303 C304 1.391 . S
C303 C307 1.397 . S
C303 C359 1.419 . S
C304 C300 1.391 . S
C304 C303 1.391 . S
C304 C305 1.399 . S
C305 C304 1.399 . S
C305 C308 1.396 . S
C305 C317 1.453 . S
C305 C318 1.684 . S
H306 C330 0.948 . S
C307 C303 1.397 . S
C307 C308 1.394 . S
C307 C326 1.723 . S
C308 C305 1.396 . S
C308 C307 1.394 . S
C308 C338 1.723 1_655 S
H309 C332 0.947 . S
H310 C333 0.948 . S
H311 C339 0.982 . S
H312 C340 0.979 . S
H313 C340 0.980 . S
H314 C340 0.983 . S
H315 C339 0.979 . S
H316 C339 0.977 . S
C317 C305 1.453 . S
C317 H346 0.982 1_655 S
C317 H347 0.979 . S
C317 H348 0.977 1_655 S
C318 C305 1.684 . S
C318 H343 0.979 . S
C318 H344 0.980 . S
C318 H345 0.983 . S
C319 C320 1.391 1_655 S
C319 C324 1.391 . S
C319 H349 0.948 . S
C320 C319 1.391 1_455 S
C320 C321 1.391 . S
C321 C320 1.391 . S
C321 C322 1.392 . S
C321 H350 0.947 . S
C322 C321 1.392 . S
C322 C323 1.419 . S
C322 H351 0.948 . S
C323 C322 1.419 . S
C323 C324 1.391 1_455 S
C323 C327 1.397 . S
C324 C319 1.391 . S
C324 C323 1.391 1_655 S
C324 C325 1.399 . S
C325 C324 1.399 . S
C325 C326 1.396 . S
C325 C328 1.453 . S
C325 C329 1.684 . S
C326 C307 1.723 . S
C326 C325 1.396 . S
C326 C327 1.394 1_655 S
C327 C323 1.397 . S
C327 C326 1.394 1_455 S
C327 C337 1.723 . S
C328 C325 1.453 . S
C328 H352 0.982 . S
C328 H353 0.979 . S
C328 H354 0.977 . S
C329 C325 1.684 . S
C329 H355 0.979 . S
C329 H356 0.980 . S
C329 H357 0.983 . S
C330 H306 0.948 . S
C330 C331 1.391 . S
C330 C335 1.391 . S
C331 C330 1.391 . S
C331 C332 1.391 . S
C332 H309 0.947 . S
C332 C331 1.391 . S
C332 C333 1.392 . S
C333 H310 0.948 . S
C333 C332 1.392 . S
C333 C334 1.419 . S
C334 C333 1.419 . S
C334 C335 1.391 . S
C334 C338 1.397 . S
C335 C330 1.391 . S
C335 C334 1.391 . S
C335 C336 1.399 . S
C336 C335 1.399 . S
C336 C337 1.396 . S
C336 C339 1.453 . S
C336 C340 1.684 . S
C337 C327 1.723 . S
C337 C336 1.396 . S
C337 C338 1.394 . S
C338 C308 1.723 1_455 S
C338 C334 1.397 . S
C338 C337 1.394 . S
C339 H311 0.982 . S
C339 H315 0.979 . S
C339 H316 0.977 . S
C339 C336 1.453 . S
C340 H312 0.979 . S
C340 H313 0.980 . S
C340 H314 0.983 . S
C340 C336 1.684 . S
H341 C359 0.948 . S
H342 C300 0.948 . S
H343 C318 0.979 . S
H344 C318 0.980 . S
H345 C318 0.983 . S
H346 C317 0.982 1_455 S
H347 C317 0.979 . S
H348 C317 0.977 1_455 S
H349 C319 0.948 . S
H350 C321 0.947 . S
H351 C322 0.948 . S
H352 C328 0.982 . S
H353 C328 0.979 . S
H354 C328 0.977 . S
H355 C329 0.979 . S
H356 C329 0.980 . S
H357 C329 0.983 . S
H358 C302 0.947 . S
C359 C302 1.392 . S
C359 C303 1.419 . S
C359 H341 0.948 . S
C360 C361 1.391 . S
C360 C364 1.391 . S
C360 H402 0.948 . S
C361 C360 1.391 . S
C361 C362 1.391 . S
C362 C361 1.391 . S
C362 H418 0.947 . S
C362 C419 1.392 . S
C363 C364 1.391 . S
C363 C367 1.397 . S
C363 C419 1.419 . S
C364 C360 1.391 . S
C364 C363 1.391 . S
C364 C365 1.399 . S
C365 C364 1.399 . S
C365 C368 1.396 . S
C365 C377 1.453 1_565 S
C365 C378 1.684 . S
H366 C390 0.948 . S
C367 C363 1.397 . S
C367 C368 1.394 . S
C367 C386 1.723 . S
C368 C365 1.396 . S
C368 C367 1.394 . S
C368 C398 1.723 1_565 S
H369 C392 0.947 . S
H370 C393 0.948 . S
H371 C399 0.982 . S
H372 C400 0.979 . S
H373 C400 0.980 . S
H374 C400 0.983 . S
H375 C399 0.979 . S
H376 C399 0.977 . S
C377 C365 1.453 1_545 S
C377 H406 0.982 . S
C377 H407 0.979 1_545 S
C377 H408 0.977 . S
C378 C365 1.684 . S
C378 H403 0.979 . S
C378 H404 0.980 . S
C378 H405 0.983 . S
C379 C380 1.391 . S
C379 C384 1.391 . S
C379 H409 0.948 . S
C380 C379 1.391 . S
C380 C381 1.391 1_565 S
C381 C380 1.391 1_545 S
C381 C382 1.392 . S
C381 H410 0.947 . S
C382 C381 1.392 . S
C382 C383 1.419 . S
C382 H411 0.948 . S
C383 C382 1.419 . S
C383 C384 1.391 1_545 S
C383 C387 1.397 . S
C384 C379 1.391 . S
C384 C383 1.391 1_565 S
C384 C385 1.399 . S
C385 C384 1.399 . S
C385 C386 1.396 . S
C385 C388 1.453 . S
C385 C389 1.684 . S
C386 C367 1.723 . S
C386 C385 1.396 . S
C386 C387 1.394 1_565 S
C387 C383 1.397 . S
C387 C386 1.394 1_545 S
C387 C397 1.723 . S
C388 C385 1.453 . S
C388 H412 0.982 . S
C388 H413 0.979 . S
C388 H414 0.977 . S
C389 C385 1.684 . S
C389 H415 0.979 . S
C389 H416 0.980 . S
C389 H417 0.983 . S
C390 H366 0.948 . S
C390 C391 1.391 . S
C390 C395 1.391 . S
C391 C390 1.391 . S
C391 C392 1.391 . S
C392 H369 0.947 . S
C392 C391 1.391 . S
C392 C393 1.392 . S
C393 H370 0.948 . S
C393 C392 1.392 . S
C393 C394 1.419 . S
C394 C393 1.419 . S
C394 C395 1.391 . S
C394 C398 1.397 . S
C395 C390 1.391 . S
C395 C394 1.391 . S
C395 C396 1.399 . S
C396 C395 1.399 . S
C396 C397 1.396 . S
C396 C399 1.453 . S
C396 C400 1.684 . S
C397 C387 1.723 . S
C397 C396 1.396 . S
C397 C398 1.394 . S
C398 C368 1.723 1_545 S
C398 C394 1.397 . S
C398 C397 1.394 . S
C399 H371 0.982 . S
C399 H375 0.979 . S
C399 H376 0.977 . S
C399 C396 1.453 . S
C400 H372 0.979 . S
C400 H373 0.980 . S
C400 H374 0.983 . S
C400 C396 1.684 . S
H401 C419 0.948 . S
H402 C360 0.948 . S
H403 C378 0.979 . S
H404 C378 0.980 . S
H405 C378 0.983 . S
H406 C377 0.982 . S
H407 C377 0.979 1_565 S
H408 C377 0.977 . S
H409 C379 0.948 . S
H410 C381 0.947 . S
H411 C382 0.948 . S
H412 C388 0.982 . S
H413 C388 0.979 . S
H414 C388 0.977 . S
H415 C389 0.979 . S
H416 C389 0.980 . S
H417 C389 0.983 . S
H418 C362 0.947 . S
C419 C362 1.392 . S
C419 C363 1.419 . S
C419 H401 0.948 . S
C420 C421 1.391 . S
C420 C424 1.391 . S
C420 H462 0.948 . S
C421 C420 1.391 . S
C421 C422 1.391 . S
C422 C421 1.391 . S
C422 H478 0.947 . S
C422 C479 1.392 . S
C423 C424 1.391 . S
C423 C427 1.397 . S
C423 C479 1.419 . S
C424 C420 1.391 . S
C424 C423 1.391 . S
C424 C425 1.399 . S
C425 C424 1.399 . S
C425 C428 1.396 . S
C425 C437 1.453 . S
C425 C438 1.684 . S
H426 C450 0.948 . S
C427 C423 1.397 . S
C427 C428 1.394 . S
C427 C446 1.723 . S
C428 C425 1.396 . S
C428 C427 1.394 . S
C428 C458 1.723 . S
H429 C452 0.947 . S
H430 C453 0.948 . S
H431 C459 0.982 . S
H432 C460 0.979 . S
H433 C460 0.980 . S
H434 C460 0.983 . S
H435 C459 0.979 . S
H436 C459 0.977 . S
C437 C425 1.453 . S
C437 H466 0.982 . S
C437 H467 0.979 . S
C437 H468 0.977 . S
C438 C425 1.684 . S
C438 H463 0.979 . S
C438 H464 0.980 . S
C438 H465 0.983 . S
C439 C440 1.391 1_554 S
C439 C444 1.391 . S
C439 H469 0.948 1_554 S
C440 C439 1.391 1_556 S
C440 C441 1.391 . S
C441 C440 1.391 . S
C441 C442 1.393 1_556 S
C441 H470 0.946 . S
C442 C441 1.393 1_554 S
C442 C443 1.419 . S
C442 H471 0.948 . S
C443 C442 1.419 . S
C443 C444 1.391 . S
C443 C447 1.397 . S
C444 C439 1.391 . S
C444 C443 1.391 . S
C444 C445 1.399 . S
C445 C444 1.399 . S
C445 C446 1.396 . S
C445 C448 1.453 . S
C445 C449 1.684 . S
C446 C427 1.723 . S
C446 C445 1.396 . S
C446 C447 1.394 . S
C447 C443 1.397 . S
C447 C446 1.394 . S
C447 C457 1.723 . S
C448 C445 1.453 . S
C448 H472 0.982 . S
C448 H473 0.979 . S
C448 H474 0.977 . S
C449 C445 1.684 . S
C449 H475 0.979 . S
C449 H476 0.980 . S
C449 H477 0.983 . S
C450 H426 0.948 . S
C450 C451 1.391 . S
C450 C455 1.391 . S
C451 C450 1.391 . S
C451 C452 1.391 . S
C452 H429 0.947 . S
C452 C451 1.391 . S
C452 C453 1.392 . S
C453 H430 0.948 . S
C453 C452 1.392 . S
C453 C454 1.419 . S
C454 C453 1.419 . S
C454 C455 1.391 . S
C454 C458 1.397 . S
C455 C450 1.391 . S
C455 C454 1.391 . S
C455 C456 1.399 . S
C456 C455 1.399 . S
C456 C457 1.396 . S
C456 C459 1.453 . S
C456 C460 1.684 . S
C457 C447 1.723 . S
C457 C456 1.396 . S
C457 C458 1.394 . S
C458 C428 1.723 . S
C458 C454 1.397 . S
C458 C457 1.394 . S
C459 H431 0.982 . S
C459 H435 0.979 . S
C459 H436 0.977 . S
C459 C456 1.453 . S
C460 H432 0.979 . S
C460 H433 0.980 . S
C460 H434 0.983 . S
C460 C456 1.684 . S
H461 C479 0.948 . S
H462 C420 0.948 . S
H463 C438 0.979 . S
H464 C438 0.980 . S
H465 C438 0.983 . S
H466 C437 0.982 . S
H467 C437 0.979 . S
H468 C437 0.977 . S
H469 C439 0.948 1_556 S
H470 C441 0.946 . S
H471 C442 0.948 . S
H472 C448 0.982 . S
H473 C448 0.979 . S
H474 C448 0.977 . S
H475 C449 0.979 . S
H476 C449 0.980 . S
H477 C449 0.983 . S
H478 C422 0.947 . S
C479 C422 1.392 . S
C479 C423 1.419 . S
C479 H461 0.948 . S
H480 C486 0.930 . S
H481 C489 0.930 . S
H482 C490 0.930 . S
H483 C491 0.930 . S
H484 C494 0.930 . S
H485 C495 0.930 . S
C486 H480 0.930 . S
C486 C487 1.355 . S
C486 C488 1.415 . S
C487 C486 1.355 . S
C487 C489 1.419 . S
C488 C486 1.415 . S
C488 C493 1.425 . S
C488 C495 1.409 . S
C489 H481 0.930 . S
C489 C487 1.419 . S
C489 C490 1.362 . S
C490 H482 0.930 . S
C490 C489 1.362 . S
C490 C493 1.409 . S
C491 H483 0.930 . S
C491 C492 1.355 . S
C491 C493 1.415 . S
C492 C491 1.355 . S
C492 C494 1.419 . S
C493 C488 1.425 . S
C493 C490 1.409 . S
C493 C491 1.415 . S
C494 H484 0.930 . S
C494 C492 1.419 . S
C494 C495 1.362 . S
C495 H485 0.930 . S
C495 C488 1.409 . S
C495 C494 1.362 . S
H496 C502 0.930 . S
H497 C505 0.930 . S
H498 C506 0.930 . S
H499 C507 0.930 . S
H500 C510 0.930 . S
H501 C511 0.930 . S
C502 H496 0.930 . S
C502 C503 1.355 . S
C502 C504 1.415 . S
C503 C502 1.355 . S
C503 C505 1.419 . S
C504 C502 1.415 . S
C504 C509 1.425 . S
C504 C511 1.409 . S
C505 H497 0.930 . S
C505 C503 1.419 . S
C505 C506 1.362 . S
C506 H498 0.930 . S
C506 C505 1.362 . S
C506 C509 1.409 . S
C507 H499 0.930 . S
C507 C508 1.355 . S
C507 C509 1.415 . S
C508 C507 1.355 . S
C508 C510 1.419 . S
C509 C504 1.425 . S
C509 C506 1.409 . S
C509 C507 1.415 . S
C510 H500 0.930 . S
C510 C508 1.419 . S
C510 C511 1.362 . S
C511 H501 0.930 . S
C511 C504 1.409 . S
C511 C510 1.362 . S
H512 C518 0.930 . S
H513 C521 0.930 . S
H514 C522 0.930 . S
H515 C523 0.930 . S
H516 C526 0.930 . S
H517 C527 0.930 . S
C518 H512 0.930 . S
C518 C519 1.355 . S
C518 C520 1.415 . S
C519 C518 1.355 . S
C519 C521 1.419 . S
C520 C518 1.415 . S
C520 C525 1.425 . S
C520 C527 1.409 . S
C521 H513 0.930 . S
C521 C519 1.419 . S
C521 C522 1.362 . S
C522 H514 0.930 . S
C522 C521 1.362 . S
C522 C525 1.409 . S
C523 H515 0.930 . S
C523 C524 1.355 . S
C523 C525 1.415 . S
C524 C523 1.355 . S
C524 C526 1.419 . S
C525 C520 1.425 . S
C525 C522 1.409 . S
C525 C523 1.415 . S
C526 H516 0.930 . S
C526 C524 1.419 . S
C526 C527 1.362 . S
C527 H517 0.930 . S
C527 C520 1.409 . S
C527 C526 1.362 . S
H528 C534 0.930 . S
H529 C537 0.930 . S
H530 C538 0.930 . S
H531 C539 0.930 . S
H532 C542 0.930 . S
H533 C543 0.930 . S
C534 H528 0.930 . S
C534 C535 1.355 . S
C534 C536 1.415 . S
C535 C534 1.355 . S
C535 C537 1.419 . S
C536 C534 1.415 . S
C536 C541 1.425 . S
C536 C543 1.409 . S
C537 H529 0.930 . S
C537 C535 1.419 . S
C537 C538 1.362 . S
C538 H530 0.930 . S
C538 C537 1.362 . S
C538 C541 1.409 . S
C539 H531 0.930 . S
C539 C540 1.355 . S
C539 C541 1.415 . S
C540 C539 1.355 . S
C540 C542 1.419 . S
C541 C536 1.425 . S
C541 C538 1.409 . S
C541 C539 1.415 . S
C542 H532 0.930 . S
C542 C540 1.419 . S
C542 C543 1.362 . S
C543 H533 0.930 . S
C543 C536 1.409 . S
C543 C542 1.362 . S
H544 C550 0.930 . S
H545 C553 0.930 . S
H546 C554 0.930 . S
H547 C555 0.930 . S
H548 C558 0.930 . S
H549 C559 0.930 . S
C550 H544 0.930 . S
C550 C551 1.355 . S
C550 C552 1.415 . S
C551 C550 1.355 . S
C551 C553 1.419 . S
C552 C550 1.415 . S
C552 C557 1.425 . S
C552 C559 1.409 . S
C553 H545 0.930 . S
C553 C551 1.419 . S
C553 C554 1.362 . S
C554 H546 0.930 . S
C554 C553 1.362 . S
C554 C557 1.409 . S
C555 H547 0.930 . S
C555 C556 1.355 . S
C555 C557 1.415 . S
C556 C555 1.355 . S
C556 C558 1.419 . S
C557 C552 1.425 . S
C557 C554 1.409 . S
C557 C555 1.415 . S
C558 H548 0.930 . S
C558 C556 1.419 . S
C558 C559 1.362 . S
C559 H549 0.930 . S
C559 C552 1.409 . S
C559 C558 1.362 . S
H560 C566 0.930 . S
H561 C569 0.930 . S
H562 C570 0.930 . S
H563 C571 0.930 . S
H564 C574 0.930 . S
H565 C575 0.930 . S
C566 H560 0.930 . S
C566 C567 1.355 . S
C566 C568 1.415 . S
C567 C566 1.355 . S
C567 C569 1.419 . S
C568 C566 1.415 . S
C568 C573 1.425 . S
C568 C575 1.409 . S
C569 H561 0.930 . S
C569 C567 1.419 . S
C569 C570 1.362 . S
C570 H562 0.930 . S
C570 C569 1.362 . S
C570 C573 1.409 . S
C571 H563 0.930 . S
C571 C572 1.355 . S
C571 C573 1.415 . S
C572 C571 1.355 . S
C572 C574 1.419 . S
C573 C568 1.425 . S
C573 C570 1.409 . S
C573 C571 1.415 . S
C574 H564 0.930 . S
C574 C572 1.419 . S
C574 C575 1.362 . S
C575 H565 0.930 . S
C575 C568 1.409 . S
C575 C574 1.362 . S
H576 C582 0.930 . S
H577 C585 0.930 . S
H578 C586 0.930 . S
H579 C587 0.930 . S
H580 C590 0.930 . S
H581 C591 0.930 . S
C582 H576 0.930 . S
C582 C583 1.355 . S
C582 C584 1.415 . S
C583 C582 1.355 . S
C583 C585 1.419 . S
C584 C582 1.415 . S
C584 C589 1.425 . S
C584 C591 1.409 . S
C585 H577 0.930 . S
C585 C583 1.419 . S
C585 C586 1.362 . S
C586 H578 0.930 . S
C586 C585 1.362 . S
C586 C589 1.409 . S
C587 H579 0.930 . S
C587 C588 1.355 . S
C587 C589 1.415 . S
C588 C587 1.355 . S
C588 C590 1.419 . S
C589 C584 1.425 . S
C589 C586 1.409 . S
C589 C587 1.415 . S
C590 H580 0.930 . S
C590 C588 1.419 . S
C590 C591 1.362 . S
C591 H581 0.930 . S
C591 C584 1.409 . S
C591 C590 1.362 . S
H592 C598 0.930 . S
H593 C601 0.930 . S
H594 C602 0.930 . S
H595 C603 0.930 . S
H596 C606 0.930 . S
H597 C607 0.930 . S
C598 H592 0.930 . S
C598 C599 1.355 . S
C598 C600 1.415 . S
C599 C598 1.355 . S
C599 C601 1.419 . S
C600 C598 1.415 . S
C600 C605 1.425 . S
C600 C607 1.409 . S
C601 H593 0.930 . S
C601 C599 1.419 . S
C601 C602 1.362 . S
C602 H594 0.930 . S
C602 C601 1.362 . S
C602 C605 1.409 . S
C603 H595 0.930 . S
C603 C604 1.355 . S
C603 C605 1.415 . S
C604 C603 1.355 . S
C604 C606 1.419 . S
C605 C600 1.425 . S
C605 C602 1.409 . S
C605 C603 1.415 . S
C606 H596 0.930 . S
C606 C604 1.419 . S
C606 C607 1.362 . S
C607 H597 0.930 . S
C607 C600 1.409 . S
C607 C606 1.362 . S
H608 C614 0.930 . S
H609 C617 0.930 . S
H610 C618 0.930 . S
H611 C619 0.930 . S
H612 C622 0.930 . S
H613 C623 0.930 . S
C614 H608 0.930 . S
C614 C615 1.355 . S
C614 C616 1.415 . S
C615 C614 1.355 . S
C615 C617 1.419 . S
C616 C614 1.415 . S
C616 C621 1.425 . S
C616 C623 1.409 . S
C617 H609 0.930 . S
C617 C615 1.419 . S
C617 C618 1.362 . S
C618 H610 0.930 . S
C618 C617 1.362 . S
C618 C621 1.409 . S
C619 H611 0.930 . S
C619 C620 1.355 . S
C619 C621 1.415 . S
C620 C619 1.355 . S
C620 C622 1.419 . S
C621 C616 1.425 . S
C621 C618 1.409 . S
C621 C619 1.415 . S
C622 H612 0.930 . S
C622 C620 1.419 . S
C622 C623 1.362 . S
C623 H613 0.930 . S
C623 C616 1.409 . S
C623 C622 1.362 . S
H624 C630 0.930 . S
H625 C633 0.930 . S
H626 C634 0.930 . S
H627 C635 0.930 . S
H628 C638 0.930 . S
H629 C639 0.930 . S
C630 H624 0.930 . S
C630 C631 1.355 . S
C630 C632 1.415 . S
C631 C630 1.355 . S
C631 C633 1.419 . S
C632 C630 1.415 . S
C632 C637 1.425 . S
C632 C639 1.409 . S
C633 H625 0.930 . S
C633 C631 1.419 . S
C633 C634 1.362 . S
C634 H626 0.930 . S
C634 C633 1.362 . S
C634 C637 1.409 . S
C635 H627 0.930 . S
C635 C636 1.355 . S
C635 C637 1.415 . S
C636 C635 1.355 . S
C636 C638 1.419 . S
C637 C632 1.425 . S
C637 C634 1.409 . S
C637 C635 1.415 . S
C638 H628 0.930 . S
C638 C636 1.419 . S
C638 C639 1.362 . S
C639 H629 0.930 . S
C639 C632 1.409 . S
C639 C638 1.362 . S
H640 C646 0.930 . S
H641 C649 0.930 . S
H642 C650 0.930 . S
H643 C651 0.930 . S
H644 C654 0.930 . S
H645 C655 0.930 . S
C646 H640 0.930 . S
C646 C647 1.355 . S
C646 C648 1.415 . S
C647 C646 1.355 . S
C647 C649 1.419 . S
C648 C646 1.415 . S
C648 C653 1.425 . S
C648 C655 1.409 . S
C649 H641 0.930 . S
C649 C647 1.419 . S
C649 C650 1.362 . S
C650 H642 0.930 . S
C650 C649 1.362 . S
C650 C653 1.409 . S
C651 H643 0.930 . S
C651 C652 1.355 . S
C651 C653 1.415 . S
C652 C651 1.355 . S
C652 C654 1.419 . S
C653 C648 1.425 . S
C653 C650 1.409 . S
C653 C651 1.415 . S
C654 H644 0.930 . S
C654 C652 1.419 . S
C654 C655 1.362 . S
C655 H645 0.930 . S
C655 C648 1.409 . S
C655 C654 1.362 . S
H656 C662 0.930 . S
H657 C665 0.930 . S
H658 C666 0.930 . S
H659 C667 0.930 . S
H660 C670 0.930 . S
H661 C671 0.930 . S
C662 H656 0.930 . S
C662 C663 1.355 . S
C662 C664 1.415 . S
C663 C662 1.355 . S
C663 C665 1.419 . S
C664 C662 1.415 . S
C664 C669 1.425 . S
C664 C671 1.409 . S
C665 H657 0.930 . S
C665 C663 1.419 . S
C665 C666 1.362 . S
C666 H658 0.930 . S
C666 C665 1.362 . S
C666 C669 1.409 . S
C667 H659 0.930 . S
C667 C668 1.355 . S
C667 C669 1.415 . S
C668 C667 1.355 . S
C668 C670 1.419 . S
C669 C664 1.425 . S
C669 C666 1.409 . S
C669 C667 1.415 . S
C670 H660 0.930 . S
C670 C668 1.419 . S
C670 C671 1.362 . S
C671 H661 0.930 . S
C671 C664 1.409 . S
C671 C670 1.362 . S
H672 C678 0.930 . S
H673 C681 0.930 . S
H674 C682 0.930 . S
H675 C683 0.930 . S
H676 C686 0.930 . S
H677 C687 0.930 . S
C678 H672 0.930 . S
C678 C679 1.355 . S
C678 C680 1.415 . S
C679 C678 1.355 . S
C679 C681 1.419 . S
C680 C678 1.415 . S
C680 C685 1.425 . S
C680 C687 1.409 . S
C681 H673 0.930 . S
C681 C679 1.419 . S
C681 C682 1.362 . S
C682 H674 0.930 . S
C682 C681 1.362 . S
C682 C685 1.409 . S
C683 H675 0.930 . S
C683 C684 1.355 . S
C683 C685 1.415 . S
C684 C683 1.355 . S
C684 C686 1.419 . S
C685 C680 1.425 . S
C685 C682 1.409 . S
C685 C683 1.415 . S
C686 H676 0.930 . S
C686 C684 1.419 . S
C686 C687 1.362 . S
C687 H677 0.930 . S
C687 C680 1.409 . S
C687 C686 1.362 . S
H688 C694 0.930 . S
H689 C697 0.930 . S
H690 C698 0.930 . S
H691 C699 0.930 . S
H692 C702 0.930 . S
H693 C703 0.930 . S
C694 H688 0.930 . S
C694 C695 1.355 . S
C694 C696 1.415 . S
C695 C694 1.355 . S
C695 C697 1.419 1_545 S
C696 C694 1.415 . S
C696 C701 1.425 . S
C696 C703 1.409 . S
C697 H689 0.930 . S
C697 C695 1.419 1_565 S
C697 C698 1.362 . S
C698 H690 0.930 . S
C698 C697 1.362 . S
C698 C701 1.409 1_565 S
C699 H691 0.930 . S
C699 C700 1.355 . S
C699 C701 1.415 . S
C700 C699 1.355 . S
C700 C702 1.419 . S
C701 C696 1.425 . S
C701 C698 1.409 1_545 S
C701 C699 1.415 . S
C702 H692 0.930 . S
C702 C700 1.419 . S
C702 C703 1.362 . S
C703 H693 0.930 . S
C703 C696 1.409 . S
C703 C702 1.362 . S
H704 C710 0.930 . S
H705 C713 0.930 . S
H706 C714 0.930 . S
H707 C715 0.930 . S
H708 C718 0.930 . S
H709 C719 0.930 . S
C710 H704 0.930 . S
C710 C711 1.355 . S
C710 C712 1.415 . S
C711 C710 1.355 . S
C711 C713 1.419 . S
C712 C710 1.415 . S
C712 C717 1.425 . S
C712 C719 1.409 . S
C713 H705 0.930 . S
C713 C711 1.419 . S
C713 C714 1.362 . S
C714 H706 0.930 . S
C714 C713 1.362 . S
C714 C717 1.409 . S
C715 H707 0.930 . S
C715 C716 1.355 . S
C715 C717 1.415 . S
C716 C715 1.355 . S
C716 C718 1.419 . S
C717 C712 1.425 . S
C717 C714 1.409 . S
C717 C715 1.415 . S
C718 H708 0.930 . S
C718 C716 1.419 . S
C718 C719 1.362 . S
C719 H709 0.930 . S
C719 C712 1.409 . S
C719 C718 1.362 . S
H720 C726 0.930 . S
H721 C729 0.930 . S
H722 C730 0.930 . S
H723 C731 0.930 . S
H724 C734 0.930 . S
H725 C735 0.930 . S
C726 H720 0.930 . S
C726 C727 1.364 . S
C726 C728 1.415 . S
C727 C726 1.364 . S
C727 C729 1.406 1_545 S
C728 C726 1.415 . S
C728 C733 1.425 1_545 S
C728 C735 1.409 . S
C729 H721 0.930 . S
C729 C727 1.406 1_565 S
C729 C730 1.362 . S
C730 H722 0.930 . S
C730 C729 1.362 . S
C730 C733 1.409 . S
C731 H723 0.930 . S
C731 C732 1.355 . S
C731 C733 1.415 . S
C732 C731 1.355 . S
C732 C734 1.419 1_565 S
C733 C728 1.425 1_565 S
C733 C730 1.409 . S
C733 C731 1.415 . S
C734 H724 0.930 . S
C734 C732 1.419 1_545 S
C734 C735 1.362 . S
C735 H725 0.930 . S
C735 C728 1.409 . S
C735 C734 1.362 . S
H736 C742 0.930 . S
H737 C745 0.930 . S
H738 C746 0.930 . S
H739 C747 0.930 . S
H740 C750 0.930 . S
H741 C751 0.930 . S
C742 H736 0.930 . S
C742 C743 1.355 . S
C742 C744 1.415 . S
C743 C742 1.355 . S
C743 C745 1.419 . S
C744 C742 1.415 . S
C744 C749 1.425 . S
C744 C751 1.409 . S
C745 H737 0.930 . S
C745 C743 1.419 . S
C745 C746 1.362 . S
C746 H738 0.930 . S
C746 C745 1.362 . S
C746 C749 1.409 . S
C747 H739 0.930 . S
C747 C748 1.355 . S
C747 C749 1.415 . S
C748 C747 1.355 . S
C748 C750 1.419 . S
C749 C744 1.425 . S
C749 C746 1.409 . S
C749 C747 1.415 . S
C750 H740 0.930 . S
C750 C748 1.419 . S
C750 C751 1.362 . S
C751 H741 0.930 . S
C751 C744 1.409 . S
C751 C750 1.362 . S
H752 C758 0.930 . S
H753 C761 0.930 . S
H754 C762 0.930 . S
H755 C763 0.930 . S
H756 C766 0.930 . S
H757 C767 0.930 . S
C758 H752 0.930 . S
C758 C759 1.355 . S
C758 C760 1.415 . S
C759 C758 1.355 . S
C759 C761 1.419 . S
C760 C758 1.415 . S
C760 C765 1.425 . S
C760 C767 1.409 . S
C761 H753 0.930 . S
C761 C759 1.419 . S
C761 C762 1.362 . S
C762 H754 0.930 . S
C762 C761 1.362 . S
C762 C765 1.409 . S
C763 H755 0.930 . S
C763 C764 1.355 . S
C763 C765 1.415 1_655 S
C764 C763 1.355 . S
C764 C766 1.419 1_655 S
C765 C760 1.425 . S
C765 C762 1.409 . S
C765 C763 1.415 1_455 S
C766 H756 0.930 . S
C766 C764 1.419 1_455 S
C766 C767 1.362 . S
C767 H757 0.930 . S
C767 C760 1.409 . S
C767 C766 1.362 . S
C487 C7 0.770 . S
C492 C451 0.742 . S
C503 C51 1.973 . S
C508 C301 1.844 . S
C519 C87 1.259 . S
C524 C361 1.304 . S
C535 C16 0.397 . S
C540 C421 0.497 . S
C556 C331 2.094 . S
C551 C42 2.076 . S
C572 C391 1.363 . S
C567 C96 1.331 . S
C583 C47 1.270 . S
C588 C181 1.205 . S
C599 C91 3.134 . S
C604 C271 3.133 . S
C615 C2 2.098 . S
C620 C151 2.137 . S
C636 C211 1.352 . S
C631 C56 1.301 . S
C652 C241 2.912 . S
C647 C82 3.043 . S
C663 C11 1.939 . S
C668 C121 1.784 . S
C684 C260 1.733 1_554 S
C679 C19 1.745 . S
C695 C50 1.300 . S
C700 C140 1.341 . S
C711 C99 1.425 . S
C716 C200 1.497 . S
C732 C380 1.433 . S
C727 C59 1.476 . S
C748 C440 1.106 . S
C743 C90 1.077 . S
C759 C10 1.293 . S
C764 C320 1.314 1_655 S
