# Generated by pormake.
# Topology pyr, (3,6)-cn, num edge types: 1
# Building blocks:
#     Node 0, Type 0, BuildingBlock: KAKCAD_clean_linker_0, # of connection points: 3
#     Node 1, Type 0, BuildingBlock: KAKCAD_clean_linker_0, # of connection points: 3
#     Node 2, Type 0, BuildingBlock: KAKCAD_clean_linker_0, # of connection points: 3
#     Node 3, Type 0, BuildingBlock: KAKCAD_clean_linker_0, # of connection points: 3
#     Node 4, Type 0, BuildingBlock: KAKCAD_clean_linker_0, # of connection points: 3
#     Node 5, Type 0, BuildingBlock: KAKCAD_clean_linker_0, # of connection points: 3
#     Node 6, Type 0, BuildingBlock: KAKCAD_clean_linker_0, # of connection points: 3
#     Node 7, Type 0, BuildingBlock: KAKCAD_clean_linker_0, # of connection points: 3
#     Node 8, Type 1, BuildingBlock: BETDEL_clean_sbu_0, # of connection points: 6
#     Node 9, Type 1, BuildingBlock: BETDEL_clean_sbu_0, # of connection points: 6
#     Node 10, Type 1, BuildingBlock: BETDEL_clean_sbu_0, # of connection points: 6
#     Node 11, Type 1, BuildingBlock: BETDEL_clean_sbu_0, # of connection points: 6
#     Edge 12, Type (0, 1), BuildingBlock: UVAHIK_clean_linker_0, # of connection points: 2
#     Edge 13, Type (0, 1), BuildingBlock: UVAHIK_clean_linker_0, # of connection points: 2
#     Edge 14, Type (0, 1), BuildingBlock: UVAHIK_clean_linker_0, # of connection points: 2
#     Edge 15, Type (0, 1), BuildingBlock: UVAHIK_clean_linker_0, # of connection points: 2
#     Edge 16, Type (0, 1), BuildingBlock: UVAHIK_clean_linker_0, # of connection points: 2
#     Edge 17, Type (0, 1), BuildingBlock: UVAHIK_clean_linker_0, # of connection points: 2
#     Edge 18, Type (0, 1), BuildingBlock: UVAHIK_clean_linker_0, # of connection points: 2
#     Edge 19, Type (0, 1), BuildingBlock: UVAHIK_clean_linker_0, # of connection points: 2
#     Edge 20, Type (0, 1), BuildingBlock: UVAHIK_clean_linker_0, # of connection points: 2
#     Edge 21, Type (0, 1), BuildingBlock: UVAHIK_clean_linker_0, # of connection points: 2
#     Edge 22, Type (0, 1), BuildingBlock: UVAHIK_clean_linker_0, # of connection points: 2
#     Edge 23, Type (0, 1), BuildingBlock: UVAHIK_clean_linker_0, # of connection points: 2
#     Edge 24, Type (0, 1), BuildingBlock: UVAHIK_clean_linker_0, # of connection points: 2
#     Edge 25, Type (0, 1), BuildingBlock: UVAHIK_clean_linker_0, # of connection points: 2
#     Edge 26, Type (0, 1), BuildingBlock: UVAHIK_clean_linker_0, # of connection points: 2
#     Edge 27, Type (0, 1), BuildingBlock: UVAHIK_clean_linker_0, # of connection points: 2
#     Edge 28, Type (0, 1), BuildingBlock: UVAHIK_clean_linker_0, # of connection points: 2
#     Edge 29, Type (0, 1), BuildingBlock: UVAHIK_clean_linker_0, # of connection points: 2
#     Edge 30, Type (0, 1), BuildingBlock: UVAHIK_clean_linker_0, # of connection points: 2
#     Edge 31, Type (0, 1), BuildingBlock: UVAHIK_clean_linker_0, # of connection points: 2
#     Edge 32, Type (0, 1), BuildingBlock: UVAHIK_clean_linker_0, # of connection points: 2
#     Edge 33, Type (0, 1), BuildingBlock: UVAHIK_clean_linker_0, # of connection points: 2
#     Edge 34, Type (0, 1), BuildingBlock: UVAHIK_clean_linker_0, # of connection points: 2
#     Edge 35, Type (0, 1), BuildingBlock: UVAHIK_clean_linker_0, # of connection points: 2
# Relax obj value: 0.024
# Max RMSD: 0.088
# Mean RMSD: 0.036
data_MOF--net-pyr--node1-BETDEL_clean_sbu_0--node2-KAKCAD_clean_linker_0--edge1-UVAHIK_clean_linker_0
_symmetry_space_group_name_H-M    P1
_symmetry_Int_Tables_number       1
_symmetry_cell_setting            triclinic
loop_
_symmetry_equiv_pos_as_xyz
'x, y, z'
_cell_length_a     56.473127
_cell_length_b     58.349155
_cell_length_c     53.693118
_cell_angle_alpha  91.97575
_cell_angle_beta   89.264716
_cell_angle_gamma 94.609299
loop_
_atom_site_label
_atom_site_type_symbol
_atom_site_fract_x
_atom_site_fract_y
_atom_site_fract_z
_atom_type_partial_charge
C0 C 0.13352 0.15701 0.2124 0.0
C1 C 0.14381 0.15127 0.23477 0.0
C2 C 0.14741 0.16782 0.19387 0.0
C3 C 0.17188 0.17335 0.19741 0.0
C4 C 0.18211 0.16778 0.21993 0.0
C5 C 0.16823 0.15678 0.23838 0.0
C6 C 0.18663 0.1846 0.17747 0.0
C7 C 0.17746 0.20145 0.16317 0.0
C8 C 0.19063 0.21127 0.14335 0.0
C9 C 0.21354 0.20458 0.13824 0.0
C10 C 0.22307 0.18775 0.15234 0.0
C11 C 0.20952 0.17789 0.17196 0.0
C12 C 0.24649 0.17933 0.1456 0.0
C13 C 0.25243 0.1749 0.1205 0.0
C14 C 0.26261 0.17472 0.16416 0.0
C15 C 0.28399 0.16541 0.15777 0.0
C16 C 0.28968 0.16054 0.13268 0.0
C17 C 0.17989 0.22777 0.12743 0.0
C18 C 0.15657 0.22294 0.11889 0.0
C19 C 0.1926 0.2484 0.12088 0.0
C20 C 0.18189 0.26424 0.10665 0.0
C21 C 0.15832 0.25964 0.09861 0.0
C22 C 0.14593 0.23866 0.10458 0.0
C23 C 0.27377 0.16563 0.11411 0.0
H24 H 0.11481 0.15264 0.20897 0.0
H25 H 0.13903 0.17143 0.17657 0.0
H26 H 0.20082 0.17209 0.22339 0.0
H27 H 0.17655 0.15274 0.25558 0.0
H28 H 0.15999 0.20705 0.16749 0.0
H29 H 0.21639 0.16425 0.18223 0.0
H30 H 0.22372 0.21211 0.12289 0.0
H31 H 0.24021 0.17788 0.10578 0.0
H32 H 0.25864 0.17822 0.18365 0.0
H33 H 0.29603 0.16193 0.17246 0.0
H34 H 0.14655 0.20693 0.12324 0.0
H35 H 0.21058 0.25255 0.12733 0.0
H36 H 0.27742 0.1617 0.09465 0.0
H37 H 0.12795 0.23437 0.09822 0.0
H38 H 0.19182 0.28035 0.10255 0.0
C39 C 0.28987 0.84455 0.75721 0.0
C40 C 0.31403 0.85236 0.75928 0.0
C41 C 0.28082 0.83539 0.73452 0.0
C42 C 0.29583 0.83364 0.71361 0.0
C43 C 0.31978 0.84189 0.71549 0.0
C44 C 0.32874 0.85129 0.73799 0.0
C45 C 0.28691 0.82266 0.68995 0.0
C46 C 0.26645 0.82962 0.67887 0.0
C47 C 0.25871 0.81988 0.65578 0.0
C48 C 0.27148 0.8027 0.64408 0.0
C49 C 0.29186 0.79537 0.65515 0.0
C50 C 0.29939 0.80549 0.6781 0.0
C51 C 0.30536 0.77713 0.64302 0.0
C52 C 0.29348 0.75742 0.63177 0.0
C53 C 0.33033 0.77892 0.6435 0.0
C54 C 0.34309 0.76113 0.63372 0.0
C55 C 0.33124 0.74115 0.62301 0.0
C56 C 0.23787 0.82834 0.64348 0.0
C57 C 0.21729 0.83259 0.65731 0.0
C58 C 0.23873 0.83297 0.61797 0.0
C59 C 0.21961 0.84205 0.60662 0.0
C60 C 0.19915 0.84665 0.62052 0.0
C61 C 0.19813 0.84162 0.64595 0.0
C62 C 0.30628 0.73964 0.62185 0.0
H63 H 0.27807 0.84495 0.77325 0.0
H64 H 0.26229 0.82904 0.73349 0.0
H65 H 0.33161 0.84108 0.69949 0.0
H66 H 0.34725 0.85772 0.73866 0.0
H67 H 0.25712 0.84326 0.68778 0.0
H68 H 0.31484 0.79973 0.68708 0.0
H69 H 0.26563 0.79516 0.62625 0.0
H70 H 0.27426 0.75545 0.63122 0.0
H71 H 0.34005 0.79403 0.65167 0.0
H72 H 0.36227 0.76282 0.63518 0.0
H73 H 0.216 0.8289 0.67694 0.0
H74 H 0.25449 0.83021 0.6069 0.0
H75 H 0.2966 0.72464 0.61341 0.0
H76 H 0.18248 0.84463 0.65709 0.0
H77 H 0.22115 0.84608 0.5871 0.0
C78 C 0.72414 0.38638 0.87252 0.0
C79 C 0.74198 0.37329 0.88132 0.0
C80 C 0.7031 0.37565 0.86268 0.0
C81 C 0.69936 0.3515 0.86111 0.0
C82 C 0.71716 0.33842 0.86996 0.0
C83 C 0.7381 0.34915 0.88003 0.0
C84 C 0.67718 0.33999 0.84998 0.0
C85 C 0.66673 0.34927 0.82936 0.0
C86 C 0.64601 0.33849 0.81852 0.0
C87 C 0.63608 0.31767 0.82814 0.0
C88 C 0.64618 0.30798 0.84882 0.0
C89 C 0.66652 0.31956 0.85976 0.0
C90 C 0.63561 0.28587 0.85913 0.0
C91 C 0.61089 0.28025 0.85913 0.0
C92 C 0.65022 0.27018 0.8693 0.0
C93 C 0.64043 0.24978 0.87955 0.0
C94 C 0.61572 0.24412 0.87953 0.0
C95 C 0.63481 0.34922 0.79727 0.0
C96 C 0.63306 0.37314 0.79743 0.0
C97 C 0.62599 0.33582 0.77663 0.0
C98 C 0.6159 0.34615 0.75656 0.0
C99 C 0.6143 0.37011 0.75669 0.0
C100 C 0.62296 0.38344 0.77743 0.0
C101 C 0.60113 0.25962 0.86899 0.0
H102 H 0.72653 0.40498 0.87289 0.0
H103 H 0.6897 0.38634 0.8564 0.0
H104 H 0.71512 0.3198 0.86881 0.0
H105 H 0.7512 0.33844 0.88693 0.0
H106 H 0.67505 0.3647 0.82128 0.0
H107 H 0.67387 0.31291 0.87631 0.0
H108 H 0.62041 0.3091 0.8195 0.0
H109 H 0.59894 0.2919 0.85182 0.0
H110 H 0.66935 0.27354 0.86929 0.0
H111 H 0.65236 0.23862 0.88777 0.0
H112 H 0.63941 0.38396 0.81314 0.0
H113 H 0.62721 0.31739 0.77579 0.0
H114 H 0.58207 0.25584 0.86815 0.0
H115 H 0.62228 0.40194 0.77809 0.0
H116 H 0.60921 0.33532 0.74101 0.0
C117 C 0.85201 0.61534 0.25208 0.0
C118 C 0.87666 0.61762 0.2478 0.0
C119 C 0.84208 0.62617 0.27286 0.0
C120 C 0.85659 0.63943 0.28993 0.0
C121 C 0.88128 0.64164 0.28566 0.0
C122 C 0.8912 0.63091 0.26479 0.0
C123 C 0.84589 0.65107 0.31192 0.0
C124 C 0.82691 0.63991 0.32515 0.0
C125 C 0.81599 0.65104 0.34537 0.0
C126 C 0.82447 0.67365 0.35233 0.0
C127 C 0.84386 0.68477 0.33983 0.0
C128 C 0.85443 0.67345 0.31962 0.0
C129 C 0.85345 0.70804 0.34836 0.0
C130 C 0.83828 0.72577 0.35244 0.0
C131 C 0.87778 0.7124 0.3533 0.0
C132 C 0.88671 0.73394 0.36274 0.0
C133 C 0.87152 0.75162 0.36703 0.0
C134 C 0.79592 0.63903 0.35932 0.0
C135 C 0.77896 0.62392 0.34683 0.0
C136 C 0.79351 0.64259 0.38527 0.0
C137 C 0.77446 0.63169 0.39828 0.0
C138 C 0.75763 0.61666 0.38573 0.0
C139 C 0.76014 0.61272 0.35994 0.0
C140 C 0.84728 0.74745 0.36149 0.0
H141 H 0.84033 0.60547 0.23913 0.0
H142 H 0.82296 0.62444 0.27532 0.0
H143 H 0.89301 0.65143 0.29862 0.0
H144 H 0.91029 0.63272 0.26214 0.0
H145 H 0.82101 0.62228 0.32001 0.0
H146 H 0.86896 0.68236 0.30956 0.0
H147 H 0.81617 0.68263 0.36769 0.0
H148 H 0.81947 0.72283 0.34866 0.0
H149 H 0.8898 0.69896 0.35044 0.0
H150 H 0.90549 0.73679 0.36673 0.0
H151 H 0.77994 0.62103 0.32683 0.0
H152 H 0.80646 0.65365 0.39566 0.0
H153 H 0.83521 0.76078 0.36477 0.0
H154 H 0.74721 0.60138 0.34982 0.0
H155 H 0.77301 0.63482 0.41822 0.0
C156 C 0.84249 0.82121 0.75289 0.0
C157 C 0.84058 0.84485 0.74992 0.0
C158 C 0.82838 0.80917 0.77041 0.0
C159 C 0.81224 0.82051 0.78565 0.0
C160 C 0.80984 0.84398 0.78216 0.0
C161 C 0.82371 0.85594 0.7644 0.0
C162 C 0.79918 0.80841 0.80624 0.0
C163 C 0.81055 0.79286 0.82041 0.0
C164 C 0.79923 0.7826 0.8411 0.0
C165 C 0.77645 0.78859 0.84812 0.0
C166 C 0.76469 0.80422 0.83428 0.0
C167 C 0.77601 0.8135 0.81295 0.0
C168 C 0.74142 0.81205 0.84304 0.0
C169 C 0.72478 0.79718 0.85564 0.0
C170 C 0.73627 0.83503 0.84015 0.0
C171 C 0.71536 0.843 0.84997 0.0
C172 C 0.69938 0.82837 0.86336 0.0
C173 C 0.81175 0.76623 0.85572 0.0
C174 C 0.82506 0.74988 0.84336 0.0
C175 C 0.81123 0.76726 0.88193 0.0
C176 C 0.82422 0.75259 0.89546 0.0
C177 C 0.83808 0.73677 0.883 0.0
C178 C 0.83812 0.73537 0.85684 0.0
C179 C 0.7041 0.80537 0.86599 0.0
H180 H 0.85537 0.81209 0.74221 0.0
H181 H 0.83042 0.79102 0.77229 0.0
H182 H 0.79781 0.85339 0.79369 0.0
H183 H 0.82136 0.87401 0.76228 0.0
H184 H 0.82871 0.78939 0.81597 0.0
H185 H 0.76687 0.82493 0.80163 0.0
H186 H 0.76812 0.78134 0.86466 0.0
H187 H 0.72781 0.77928 0.85781 0.0
H188 H 0.74876 0.84721 0.83114 0.0
H189 H 0.71217 0.86092 0.84805 0.0
H190 H 0.82545 0.74834 0.8232 0.0
H191 H 0.80135 0.77984 0.892 0.0
H192 H 0.69189 0.79381 0.87623 0.0
H193 H 0.84829 0.72301 0.84677 0.0
H194 H 0.82399 0.75407 0.91563 0.0
C195 C 0.69762 0.1365 0.25556 0.0
C196 C 0.68899 0.15055 0.23751 0.0
C197 C 0.70405 0.14555 0.27914 0.0
C198 C 0.70263 0.16906 0.28517 0.0
C199 C 0.69457 0.18323 0.26691 0.0
C200 C 0.6876 0.17407 0.24352 0.0
C201 C 0.7094 0.17869 0.3104 0.0
C202 C 0.72786 0.16995 0.32351 0.0
C203 C 0.73403 0.17851 0.34753 0.0
C204 C 0.72227 0.1969 0.35804 0.0
C205 C 0.70407 0.20625 0.34503 0.0
C206 C 0.69741 0.19662 0.32154 0.0
C207 C 0.69213 0.22629 0.35555 0.0
C208 C 0.68641 0.22815 0.38107 0.0
C209 C 0.68626 0.24376 0.33989 0.0
C210 C 0.6747 0.26245 0.34939 0.0
C211 C 0.66894 0.26437 0.37488 0.0
C212 C 0.75279 0.168 0.36138 0.0
C213 C 0.75379 0.14399 0.36051 0.0
C214 C 0.77008 0.18171 0.37497 0.0
C215 C 0.78834 0.1716 0.38686 0.0
C216 C 0.78968 0.14765 0.38528 0.0
C217 C 0.77205 0.13395 0.37224 0.0
C218 C 0.67499 0.24701 0.39064 0.0
H219 H 0.69945 0.11842 0.25159 0.0
H220 H 0.70981 0.13394 0.29271 0.0
H221 H 0.69364 0.2015 0.2706 0.0
H222 H 0.68074 0.18545 0.23036 0.0
H223 H 0.73782 0.15665 0.31487 0.0
H224 H 0.68254 0.20296 0.31209 0.0
H225 H 0.72733 0.20394 0.37631 0.0
H226 H 0.69048 0.21491 0.39362 0.0
H227 H 0.6907 0.24308 0.32021 0.0
H228 H 0.67001 0.27526 0.3366 0.0
H229 H 0.74044 0.13291 0.35069 0.0
H230 H 0.7699 0.20026 0.37583 0.0
H231 H 0.67105 0.24805 0.41041 0.0
H232 H 0.77235 0.1154 0.37115 0.0
H233 H 0.80177 0.18258 0.39669 0.0
C234 C 0.26547 0.63335 0.15518 0.0
C235 C 0.26121 0.63484 0.12959 0.0
C236 C 0.28635 0.6438 0.16571 0.0
C237 C 0.30362 0.65573 0.15084 0.0
C238 C 0.29933 0.65701 0.12516 0.0
C239 C 0.27832 0.64683 0.11471 0.0
C240 C 0.32607 0.6667 0.16192 0.0
C241 C 0.33738 0.65621 0.1812 0.0
C242 C 0.35863 0.6663 0.19155 0.0
C243 C 0.36904 0.68688 0.18181 0.0
C244 C 0.35804 0.69781 0.16255 0.0
C245 C 0.33635 0.68768 0.15312 0.0
C246 C 0.36893 0.71981 0.15228 0.0
C247 C 0.38169 0.7364 0.16767 0.0
C248 C 0.36643 0.72455 0.12691 0.0
C249 C 0.37591 0.74537 0.11738 0.0
C250 C 0.38862 0.76178 0.1328 0.0
C251 C 0.36967 0.65542 0.21279 0.0
C252 C 0.35543 0.64658 0.23247 0.0
C253 C 0.39436 0.65379 0.21369 0.0
C254 C 0.40452 0.64349 0.23372 0.0
C255 C 0.39024 0.6347 0.25342 0.0
C256 C 0.36557 0.63639 0.25252 0.0
C257 C 0.3916 0.75703 0.15797 0.0
H258 H 0.25246 0.62441 0.16713 0.0
H259 H 0.28876 0.64275 0.1856 0.0
H260 H 0.31236 0.6656 0.11296 0.0
H261 H 0.27565 0.648 0.09487 0.0
H262 H 0.32991 0.63985 0.18789 0.0
H263 H 0.32711 0.69642 0.13917 0.0
H264 H 0.38566 0.69441 0.18941 0.0
H265 H 0.38369 0.73371 0.18735 0.0
H266 H 0.35731 0.71209 0.11423 0.0
H267 H 0.37362 0.74852 0.09782 0.0
H268 H 0.33638 0.64776 0.23253 0.0
H269 H 0.40583 0.66026 0.19875 0.0
H270 H 0.4012 0.76952 0.17028 0.0
H271 H 0.354 0.62958 0.2672 0.0
H272 H 0.4236 0.64265 0.23392 0.0
C273 C 0.15421 0.26193 0.62579 0.0
C274 C 0.12961 0.25616 0.6259 0.0
C275 C 0.16345 0.28343 0.63505 0.0
C276 C 0.14825 0.29981 0.64428 0.0
C277 C 0.12357 0.29397 0.64422 0.0
C278 C 0.11438 0.27232 0.6353 0.0
C279 C 0.15812 0.32282 0.65395 0.0
C280 C 0.17835 0.33399 0.64274 0.0
C281 C 0.18787 0.35554 0.65191 0.0
C282 C 0.17717 0.36604 0.67254 0.0
C283 C 0.15704 0.35517 0.68395 0.0
C284 C 0.14752 0.33369 0.67458 0.0
C285 C 0.14626 0.36611 0.70604 0.0
C286 C 0.1596 0.37081 0.72775 0.0
C287 C 0.1227 0.37209 0.70544 0.0
C288 C 0.11275 0.38304 0.72616 0.0
C289 C 0.12605 0.38761 0.74794 0.0
C290 C 0.20919 0.36701 0.64008 0.0
C291 C 0.23019 0.35573 0.63781 0.0
C292 C 0.20875 0.38935 0.63125 0.0
C293 C 0.22898 0.40018 0.62012 0.0
C294 C 0.25008 0.38903 0.61822 0.0
C295 C 0.25056 0.36676 0.6272 0.0
C296 C 0.14947 0.38125 0.74867 0.0
H297 H 0.16635 0.24965 0.61891 0.0
H298 H 0.18255 0.28707 0.63526 0.0
H299 H 0.11127 0.30622 0.65073 0.0
H300 H 0.0953 0.26836 0.63533 0.0
H301 H 0.18651 0.32621 0.6265 0.0
H302 H 0.13227 0.32522 0.68392 0.0
H303 H 0.18458 0.38261 0.67982 0.0
H304 H 0.17779 0.36625 0.72856 0.0
H305 H 0.11217 0.36863 0.6888 0.0
H306 H 0.09463 0.38778 0.72529 0.0
H307 H 0.23091 0.33853 0.6446 0.0
H308 H 0.19269 0.3983 0.63277 0.0
H309 H 0.16003 0.38473 0.76528 0.0
H310 H 0.26664 0.35783 0.6258 0.0
H311 H 0.22829 0.4174 0.61337 0.0
Dy312 Dy 0.00997 0.00868 0.47505 0.0
C313 C 0.97889 0.97302 0.56899 0.0
C314 C 0.0234 0.02919 0.4317 0.0
Dy315 Dy 0.99093 0.99563 0.5265 0.0
O316 O 0.03361 0.01253 0.44138 0.0
O317 O 0.00564 0.03471 0.44566 0.0
O318 O 0.03146 0.978 0.47429 0.0
O319 O 0.02539 0.99554 0.50836 0.0
C320 C 0.03407 0.97826 0.49828 0.0
C321 C 0.9657 0.02516 0.50313 0.0
O322 O 0.01876 0.02316 0.53794 0.0
O323 O 0.02297 0.03939 0.49912 0.0
O324 O 0.97508 0.99423 0.5651 0.0
O325 O 0.98949 0.96422 0.54978 0.0
O326 O 0.96712 0.02469 0.5272 0.0
O327 O 0.97541 0.00841 0.49325 0.0
O328 O 0.98286 0.98071 0.46304 0.0
O329 O 0.9775 0.96515 0.50215 0.0
C330 C 0.02637 0.04031 0.52356 0.0
C331 C 0.97468 0.96391 0.4776 0.0
Dy332 Dy 0.52312 0.01088 0.02014 0.0
C333 C 0.44963 0.96582 0.95401 0.0
C334 C 0.56049 0.03642 0.04104 0.0
Dy335 Dy 0.48191 0.99132 0.98264 0.0
O336 O 0.55692 0.01417 0.04169 0.0
O337 O 0.54362 0.04485 0.0288 0.0
O338 O 0.51293 0.98663 0.05166 0.0
O339 O 0.49494 0.98425 0.01847 0.0
C340 C 0.49596 0.97522 0.03919 0.0
C341 C 0.50483 0.03196 0.97211 0.0
O342 O 0.46148 0.0097 0.01192 0.0
O343 O 0.49309 0.03249 0.03004 0.0
O344 O 0.47052 0.97387 0.94647 0.0
O345 O 0.44621 0.97179 0.97727 0.0
O346 O 0.4829 0.02621 0.966 0.0
O347 O 0.51386 0.01508 0.98121 0.0
O348 O 0.54262 0.98741 0.99503 0.0
O349 O 0.51002 0.96674 0.97617 0.0
C350 C 0.47 0.02706 0.02674 0.0
C351 C 0.53306 0.96995 0.98104 0.0
Dy352 Dy 0.51231 0.48494 0.48765 0.0
C353 C 0.47321 0.55679 0.54645 0.0
C354 C 0.53869 0.45388 0.46337 0.0
Dy355 Dy 0.49744 0.52413 0.52192 0.0
O356 O 0.51579 0.45422 0.46171 0.0
O357 O 0.54715 0.47067 0.47798 0.0
O358 O 0.47415 0.47134 0.48326 0.0
O359 O 0.48548 0.48803 0.51673 0.0
C360 C 0.46763 0.47954 0.50486 0.0
C361 C 0.5423 0.52856 0.5052 0.0
O362 O 0.50913 0.50184 0.55168 0.0
O363 O 0.52726 0.47632 0.52479 0.0
O364 O 0.49431 0.56022 0.53678 0.0
O365 O 0.46542 0.53536 0.54309 0.0
O366 O 0.53597 0.5358 0.52728 0.0
O367 O 0.52436 0.52095 0.49289 0.0
O368 O 0.50265 0.50897 0.45864 0.0
O369 O 0.47992 0.53045 0.48539 0.0
C370 C 0.52258 0.48442 0.54764 0.0
C371 C 0.48677 0.52428 0.46252 0.0
Dy372 Dy 0.01154 0.48172 0.00553 0.0
C373 C 0.97592 0.5682 0.98434 0.0
C374 C 0.03401 0.44254 0.01009 0.0
Dy375 Dy 0.99748 0.52867 0.99051 0.0
O376 O 0.01435 0.44696 0.0214 0.0
O377 O 0.04142 0.45953 0.99627 0.0
O378 O 0.98469 0.481 0.03671 0.0
O379 O 0.00146 0.51255 0.02587 0.0
C380 C 0.98533 0.50324 0.0394 0.0
C381 C 0.02327 0.5067 0.95637 0.0
O382 O 0.02946 0.54033 0.01317 0.0
O383 O 0.04464 0.5046 0.0148 0.0
O384 O 0.99511 0.56268 0.97289 0.0
O385 O 0.96845 0.55213 0.99935 0.0
O386 O 0.02393 0.52894 0.95881 0.0
O387 O 0.00728 0.49773 0.97026 0.0
O388 O 0.97975 0.47041 0.98242 0.0
O389 O 0.9639 0.50589 0.98289 0.0
C390 C 0.04691 0.52733 0.01817 0.0
C391 C 0.96184 0.48324 0.97871 0.0
C392 C 0.13737 0.11982 0.2652 0.0
C393 C 0.12917 0.13904 0.25398 0.0
C394 C 0.12334 0.10782 0.28277 0.0
C395 C 0.07531 0.11385 0.32815 0.0
H396 H 0.06983 0.04714 0.3243 0.0
C397 C 0.02072 0.05961 0.40033 0.0
C398 C 0.03192 0.04086 0.40905 0.0
C399 C 0.02991 0.07131 0.37957 0.0
C400 C 0.07129 0.06576 0.32573 0.0
H401 H 0.10008 0.16103 0.25262 0.0
H402 H 0.07552 0.14005 0.28357 0.0
H403 H 0.09154 0.06849 0.29185 0.0
H404 H 0.06113 0.01935 0.40289 0.0
H405 H 0.07734 0.03983 0.36707 0.0
H406 H 0.05571 0.11114 0.36244 0.0
C407 C 0.09278 0.13428 0.27866 0.0
C408 C 0.0837 0.07796 0.30714 0.0
C409 C 0.10674 0.14617 0.26087 0.0
C410 C 0.05211 0.03371 0.39648 0.0
C411 C 0.06129 0.04537 0.37584 0.0
C412 C 0.06301 0.10163 0.34688 0.0
C413 C 0.10089 0.1149 0.28964 0.0
C414 C 0.08619 0.10211 0.30839 0.0
C415 C 0.05043 0.06441 0.36722 0.0
C416 C 0.06125 0.07743 0.3461 0.0
H417 H 0.1545 0.11384 0.26008 0.0
H418 H 0.13014 0.0931 0.29117 0.0
H419 H 0.07708 0.13247 0.32963 0.0
H420 H 0.00508 0.06539 0.40973 0.0
H421 H 0.02101 0.08577 0.37323 0.0
C422 C 0.34718 0.85634 0.79009 0.0
C423 C 0.32415 0.8612 0.78353 0.0
C424 C 0.35739 0.86548 0.81213 0.0
C425 C 0.35261 0.91305 0.85877 0.0
H426 H 0.4001 0.88092 0.89198 0.0
C427 C 0.40825 0.94967 0.9444 0.0
C428 C 0.43256 0.95178 0.93827 0.0
C429 C 0.39213 0.93698 0.92865 0.0
C430 C 0.3867 0.88995 0.883 0.0
H431 H 0.29349 0.87901 0.79555 0.0
H432 H 0.31097 0.89423 0.83462 0.0
H433 H 0.3761 0.86095 0.85925 0.0
H434 H 0.4593 0.94197 0.91153 0.0
H435 H 0.43123 0.91919 0.88449 0.0
H436 H 0.36341 0.94203 0.88285 0.0
C437 C 0.32138 0.88378 0.82234 0.0
C438 C 0.3731 0.87865 0.86411 0.0
C439 C 0.31124 0.87482 0.80006 0.0
C440 C 0.44061 0.94063 0.91659 0.0
C441 C 0.42463 0.92754 0.90123 0.0
C442 C 0.36595 0.92421 0.87803 0.0
C443 C 0.34472 0.87944 0.82851 0.0
C444 C 0.35646 0.8903 0.85113 0.0
C445 C 0.40027 0.92579 0.90701 0.0
C446 C 0.38357 0.91294 0.88972 0.0
H447 H 0.3575 0.84553 0.77811 0.0
H448 H 0.37552 0.86202 0.81593 0.0
H449 H 0.34017 0.92268 0.84909 0.0
H450 H 0.40168 0.95819 0.96104 0.0
H451 H 0.37337 0.93584 0.93337 0.0
C452 C 0.58931 0.39951 0.73922 0.0
C453 C 0.60391 0.38127 0.73522 0.0
C454 C 0.58014 0.41047 0.7191 0.0
C455 C 0.56764 0.40297 0.65153 0.0
H456 H 0.56674 0.46938 0.65466 0.0
C457 C 0.5463 0.45442 0.56559 0.0
C458 C 0.53199 0.47292 0.56929 0.0
C459 C 0.55486 0.44328 0.5859 0.0
C460 C 0.56659 0.45081 0.65358 0.0
H461 H 0.62034 0.36036 0.70675 0.0
H462 H 0.60434 0.37942 0.67169 0.0
H463 H 0.58179 0.44975 0.6898 0.0
H464 H 0.51557 0.49422 0.59744 0.0
H465 H 0.53035 0.47468 0.63281 0.0
H466 H 0.55247 0.40402 0.61528 0.0
C467 C 0.59971 0.38507 0.69042 0.0
C468 C 0.57523 0.43953 0.67376 0.0
C469 C 0.60889 0.37411 0.71055 0.0
C470 C 0.52658 0.48008 0.59385 0.0
C471 C 0.53517 0.46894 0.61417 0.0
C472 C 0.55899 0.41424 0.63135 0.0
C473 C 0.58531 0.40347 0.69443 0.0
C474 C 0.5759 0.41546 0.67299 0.0
C475 C 0.54937 0.45034 0.61046 0.0
C476 C 0.55839 0.43832 0.63208 0.0
H477 H 0.58476 0.40523 0.75795 0.0
H478 H 0.56878 0.42429 0.72291 0.0
H479 H 0.56753 0.38439 0.65043 0.0
H480 H 0.55094 0.44845 0.54697 0.0
H481 H 0.56603 0.42927 0.58231 0.0
C482 C 0.87953 0.58327 0.21886 0.0
C483 C 0.88716 0.60611 0.22569 0.0
C484 C 0.88945 0.57237 0.19812 0.0
C485 C 0.92162 0.58378 0.13925 0.0
H486 H 0.93994 0.52156 0.14497 0.0
C487 C 0.97764 0.53919 0.06379 0.0
C488 C 0.97248 0.51551 0.05912 0.0
C489 C 0.96636 0.5505 0.08341 0.0
C490 C 0.93461 0.53881 0.1429 0.0
H491 H 0.91092 0.63555 0.21594 0.0
H492 H 0.92837 0.61645 0.17972 0.0
H493 H 0.92198 0.54076 0.18061 0.0
H494 H 0.95094 0.48521 0.07055 0.0
H495 H 0.93086 0.50498 0.10448 0.0
H496 H 0.9341 0.5818 0.10149 0.0
C497 C 0.91465 0.60702 0.19039 0.0
C498 C 0.92437 0.54982 0.16337 0.0
C499 C 0.90484 0.61787 0.21125 0.0
C500 C 0.9554 0.50345 0.07392 0.0
C501 C 0.94402 0.51476 0.09345 0.0
C502 C 0.93175 0.57272 0.1187 0.0
C503 C 0.90712 0.58413 0.18366 0.0
C504 C 0.91781 0.57243 0.16179 0.0
C505 C 0.94959 0.53837 0.09866 0.0
C506 C 0.93841 0.5501 0.1203 0.0
H507 H 0.86607 0.5737 0.22975 0.0
H508 H 0.88315 0.55478 0.19327 0.0
H509 H 0.91647 0.60112 0.13739 0.0
H510 H 0.99075 0.54889 0.05261 0.0
H511 H 0.97126 0.56862 0.08702 0.0
C512 C 0.31817 0.13059 0.13948 0.0
C513 C 0.31148 0.1491 0.12581 0.0
C514 C 0.33733 0.11836 0.13162 0.0
C515 C 0.39012 0.1203 0.08978 0.0
H516 H 0.37897 0.05382 0.0892 0.0
C517 C 0.46104 0.05993 0.05575 0.0
C518 C 0.45294 0.0411 0.0402 0.0
C519 C 0.44491 0.07332 0.06823 0.0
C520 C 0.38232 0.07236 0.08917 0.0
H521 H 0.32038 0.17002 0.09389 0.0
H522 H 0.35353 0.14841 0.07989 0.0
H523 H 0.3493 0.07752 0.10758 0.0
H524 H 0.42145 0.02158 0.02569 0.0
H525 H 0.39342 0.04505 0.04723 0.0
H526 H 0.42279 0.1151 0.07056 0.0
C527 C 0.34408 0.14343 0.09679 0.0
C528 C 0.36546 0.08594 0.09999 0.0
C529 C 0.32492 0.15566 0.10464 0.0
C530 C 0.42835 0.0359 0.03754 0.0
C531 C 0.41224 0.04927 0.05003 0.0
C532 C 0.407 0.1067 0.07897 0.0
C533 C 0.35022 0.12438 0.10993 0.0
C534 C 0.36904 0.11007 0.10015 0.0
C535 C 0.42034 0.06815 0.06547 0.0
C536 C 0.40313 0.08258 0.07826 0.0
H537 H 0.30807 0.12501 0.15577 0.0
H538 H 0.34182 0.10394 0.14232 0.0
H539 H 0.39347 0.13884 0.08983 0.0
H540 H 0.47986 0.06441 0.0583 0.0
H541 H 0.45169 0.08761 0.08019 0.0
C542 C 0.17229 0.85078 0.58427 0.0
C543 C 0.17935 0.85739 0.60867 0.0
C544 C 0.1546 0.86183 0.57264 0.0
C545 C 0.10511 0.89861 0.58473 0.0
H546 H 0.118 0.91744 0.51701 0.0
C547 C 0.05249 0.96558 0.53701 0.0
C548 C 0.04798 0.96225 0.51144 0.0
C549 C 0.06681 0.95107 0.5491 0.0
C550 C 0.1139 0.912 0.53577 0.0
H551 H 0.17315 0.88069 0.64002 0.0
H552 H 0.14219 0.89986 0.61976 0.0
H553 H 0.14593 0.89495 0.53768 0.0
H554 H 0.054 0.94075 0.47863 0.0
H555 H 0.0787 0.91519 0.49977 0.0
H556 H 0.07313 0.91583 0.58285 0.0
C557 C 0.15017 0.88595 0.60974 0.0
C558 C 0.12994 0.89912 0.54762 0.0
C559 C 0.1679 0.87494 0.62136 0.0
C560 C 0.05741 0.94381 0.49832 0.0
C561 C 0.07165 0.92926 0.51041 0.0
C562 C 0.089 0.91145 0.57283 0.0
C563 C 0.14353 0.8797 0.58516 0.0
C564 C 0.12582 0.89242 0.57228 0.0
C565 C 0.0768 0.93291 0.53586 0.0
C566 C 0.0933 0.91843 0.54827 0.0
H567 H 0.18047 0.83707 0.57413 0.0
H568 H 0.14961 0.85641 0.5538 0.0
H569 H 0.10132 0.89345 0.60364 0.0
H570 H 0.04536 0.97966 0.54755 0.0
H571 H 0.07061 0.95451 0.56866 0.0
C572 C 0.76464 0.40559 0.9056 0.0
C573 C 0.76456 0.38473 0.8916 0.0
C574 C 0.78585 0.41638 0.91502 0.0
C575 C 0.84616 0.40502 0.93315 0.0
H576 H 0.86086 0.47039 0.92491 0.0
C577 C 0.93815 0.44957 0.9585 0.0
C578 C 0.93923 0.47213 0.96871 0.0
C579 C 0.91683 0.43907 0.94906 0.0
C580 C 0.85693 0.45219 0.92775 0.0
H581 H 0.78713 0.35916 0.87632 0.0
H582 H 0.82391 0.37769 0.89332 0.0
H583 H 0.8236 0.45183 0.909 0.0
H584 H 0.91863 0.50125 0.97726 0.0
H585 H 0.88135 0.48276 0.96152 0.0
H586 H 0.87912 0.40532 0.95234 0.0
C587 C 0.80747 0.38559 0.89707 0.0
C588 C 0.83557 0.44155 0.91852 0.0
C589 C 0.78632 0.37493 0.88741 0.0
C590 C 0.91847 0.48391 0.96935 0.0
C591 C 0.89708 0.47332 0.96016 0.0
C592 C 0.86738 0.41569 0.94263 0.0
C593 C 0.80748 0.40646 0.91092 0.0
C594 C 0.83001 0.41784 0.92102 0.0
C595 C 0.89595 0.45074 0.94984 0.0
C596 C 0.87314 0.43942 0.93997 0.0
H597 H 0.74825 0.41349 0.90964 0.0
H598 H 0.78526 0.43232 0.92588 0.0
H599 H 0.84221 0.38676 0.93564 0.0
H600 H 0.95384 0.44005 0.95753 0.0
H601 H 0.91685 0.42186 0.94085 0.0
C602 C 0.72292 0.61879 0.41478 0.0
C603 C 0.73719 0.60552 0.39945 0.0
C604 C 0.70323 0.60846 0.42727 0.0
C605 C 0.66256 0.55497 0.42689 0.0
H606 H 0.64266 0.58112 0.49033 0.0
C607 C 0.56933 0.53249 0.46826 0.0
C608 C 0.56612 0.53343 0.49422 0.0
C609 C 0.59146 0.53903 0.45767 0.0
C610 C 0.6481 0.57325 0.47285 0.0
H611 H 0.74258 0.57105 0.38553 0.0
H612 H 0.70876 0.55275 0.40811 0.0
H613 H 0.67927 0.59641 0.47095 0.0
H614 H 0.58362 0.54066 0.52957 0.0
H615 H 0.62259 0.5511 0.51123 0.0
H616 H 0.63191 0.53117 0.42932 0.0
C617 C 0.71221 0.57124 0.40994 0.0
C618 C 0.66897 0.58236 0.46145 0.0
C619 C 0.73167 0.58167 0.3971 0.0
C620 C 0.58562 0.54005 0.50947 0.0
C621 C 0.60789 0.5462 0.49891 0.0
C622 C 0.64189 0.54559 0.43851 0.0
C623 C 0.69759 0.58453 0.42508 0.0
C624 C 0.67627 0.57366 0.43807 0.0
C625 C 0.61101 0.54625 0.47283 0.0
C626 C 0.63412 0.55487 0.46144 0.0
H627 H 0.72667 0.63727 0.41666 0.0
H628 H 0.69217 0.6194 0.43823 0.0
H629 H 0.6674 0.54788 0.40881 0.0
H630 H 0.55454 0.52747 0.45607 0.0
H631 H 0.59293 0.53915 0.43756 0.0
C632 C 0.15829 0.28989 0.06633 0.0
C633 C 0.14626 0.27694 0.08489 0.0
C634 C 0.14679 0.3064 0.05382 0.0
C635 C 0.08703 0.32405 0.04008 0.0
H636 H 0.11911 0.38492 0.03406 0.0
C637 C 0.03694 0.40462 0.02908 0.0
C638 C 0.04665 0.42184 0.01354 0.0
C639 C 0.04947 0.38557 0.0336 0.0
C640 C 0.11005 0.3679 0.03516 0.0
H641 H 0.11291 0.27148 0.10518 0.0
H642 H 0.09293 0.30006 0.08337 0.0
H643 H 0.14075 0.35393 0.04968 0.0
H644 H 0.07666 0.43257 0.98996 0.0
H645 H 0.09867 0.39913 0.99787 0.0
H646 H 0.05616 0.33814 0.02622 0.0
C647 C 0.11106 0.29718 0.0781 0.0
C648 C 0.12244 0.35016 0.04412 0.0
C649 C 0.12253 0.2808 0.09061 0.0
C650 C 0.06886 0.4195 0.0021 0.0
C651 C 0.08146 0.40045 0.0067 0.0
C652 C 0.07466 0.34176 0.03114 0.0
C653 C 0.12304 0.31018 0.0596 0.0
C654 C 0.11087 0.32821 0.04724 0.0
C655 C 0.07197 0.3834 0.02269 0.0
C656 C 0.08587 0.364 0.02916 0.0
H657 H 0.1765 0.28714 0.06132 0.0
H658 H 0.15641 0.31609 0.03953 0.0
H659 H 0.07779 0.30717 0.04185 0.0
H660 H 0.01985 0.40606 0.03814 0.0
H661 H 0.04183 0.37289 0.04629 0.0
C662 C 0.61774 0.20226 0.88952 0.0
C663 C 0.6053 0.22226 0.89055 0.0
C664 C 0.60817 0.18195 0.90017 0.0
C665 C 0.56004 0.1594 0.94385 0.0
H666 H 0.57323 0.10065 0.91299 0.0
C667 C 0.50501 0.07309 0.96097 0.0
C668 C 0.51776 0.05419 0.96631 0.0
C669 C 0.51691 0.09386 0.954 0.0
C670 C 0.56961 0.11694 0.92194 0.0
H671 H 0.57278 0.23618 0.904 0.0
H672 H 0.55554 0.20061 0.92096 0.0
H673 H 0.59096 0.13611 0.89555 0.0
H674 H 0.55294 0.0422 0.96895 0.0
H675 H 0.57381 0.07848 0.95592 0.0
H676 H 0.53766 0.13993 0.96944 0.0
C677 C 0.5731 0.20074 0.91262 0.0
C678 C 0.57985 0.13735 0.91204 0.0
C679 C 0.58285 0.22117 0.90237 0.0
C680 C 0.5427 0.05653 0.96492 0.0
C681 C 0.5546 0.0772 0.9574 0.0
C682 C 0.54945 0.13899 0.95342 0.0
C683 C 0.58564 0.18081 0.9118 0.0
C684 C 0.57516 0.15894 0.92276 0.0
C685 C 0.54178 0.09601 0.95174 0.0
C686 C 0.55408 0.11758 0.94252 0.0
H687 H 0.63487 0.20212 0.88027 0.0
H688 H 0.61865 0.1672 0.89939 0.0
H689 H 0.55637 0.17552 0.95311 0.0
H690 H 0.48578 0.07176 0.96199 0.0
H691 H 0.5066 0.10805 0.94963 0.0
C692 C 0.87588 0.79472 0.36703 0.0
C693 C 0.88086 0.77413 0.37795 0.0
C694 C 0.88481 0.81593 0.37743 0.0
C695 C 0.90483 0.84408 0.43594 0.0
H696 H 0.94086 0.88812 0.39491 0.0
C697 C 0.95961 0.92254 0.47927 0.0
C698 C 0.96199 0.94306 0.46624 0.0
C699 C 0.94848 0.90253 0.46829 0.0
C700 C 0.93047 0.87626 0.40659 0.0
H701 H 0.89863 0.75946 0.40842 0.0
H702 H 0.9139 0.79657 0.42686 0.0
H703 H 0.92329 0.85221 0.37599 0.0
H704 H 0.95404 0.9589 0.43171 0.0
H705 H 0.93382 0.92422 0.41285 0.0
H706 H 0.91142 0.8681 0.46646 0.0
C707 C 0.90326 0.79629 0.41018 0.0
C708 C 0.92052 0.85564 0.39573 0.0
C709 C 0.89469 0.7751 0.39956 0.0
C710 C 0.95264 0.94328 0.44215 0.0
C711 C 0.94117 0.92333 0.43128 0.0
C712 C 0.91444 0.86483 0.44675 0.0
C713 C 0.89847 0.81688 0.39918 0.0
C714 C 0.90789 0.83926 0.41037 0.0
C715 C 0.93911 0.90262 0.44413 0.0
C716 C 0.9277 0.88108 0.4323 0.0
H717 H 0.86531 0.79439 0.3503 0.0
H718 H 0.88081 0.8316 0.36866 0.0
H719 H 0.89489 0.83182 0.44756 0.0
H720 H 0.96685 0.92175 0.49778 0.0
H721 H 0.94772 0.88687 0.47861 0.0
C722 C 0.33642 0.69885 0.6182 0.0
C723 C 0.34489 0.72172 0.61394 0.0
C724 C 0.34985 0.68064 0.61088 0.0
C725 C 0.40031 0.66591 0.57002 0.0
H726 H 0.40276 0.61486 0.61408 0.0
C727 C 0.46823 0.59817 0.55604 0.0
C728 C 0.4592 0.5751 0.55694 0.0
C729 C 0.45422 0.6158 0.56375 0.0
C730 C 0.40209 0.62892 0.60153 0.0
H731 H 0.3739 0.74326 0.59795 0.0
H732 H 0.39764 0.71164 0.58596 0.0
H733 H 0.3781 0.64618 0.62537 0.0
H734 H 0.42883 0.55218 0.56726 0.0
H735 H 0.40432 0.58309 0.58105 0.0
H736 H 0.42464 0.64879 0.54641 0.0
C737 C 0.38046 0.70771 0.59466 0.0
C738 C 0.3879 0.64683 0.60791 0.0
C739 C 0.36696 0.72589 0.60183 0.0
C740 C 0.4362 0.56987 0.56644 0.0
C741 C 0.42223 0.58752 0.57436 0.0
C742 C 0.41463 0.64811 0.56375 0.0
C743 C 0.37215 0.68485 0.59924 0.0
C744 C 0.38687 0.66557 0.59225 0.0
C745 C 0.43097 0.61067 0.57268 0.0
C746 C 0.41571 0.62947 0.57946 0.0
H747 H 0.31963 0.695 0.62773 0.0
H748 H 0.34274 0.66324 0.61438 0.0
H749 H 0.39962 0.67982 0.55728 0.0
H750 H 0.48593 0.60266 0.54881 0.0
H751 H 0.46153 0.63348 0.56258 0.0
C752 C 0.86372 0.84804 0.70959 0.0
C753 C 0.85665 0.85806 0.73244 0.0
C754 C 0.87911 0.86044 0.69345 0.0
C755 C 0.89757 0.91867 0.67581 0.0
H756 H 0.95341 0.89273 0.64745 0.0
C757 C 0.96079 0.97165 0.61149 0.0
C758 C 0.96962 0.96006 0.59049 0.0
C759 C 0.94953 0.95931 0.63071 0.0
C760 C 0.93776 0.90014 0.65497 0.0
H761 H 0.86082 0.8889 0.75635 0.0
H762 H 0.8869 0.91071 0.72771 0.0
H763 H 0.92802 0.87058 0.67664 0.0
H764 H 0.97439 0.92662 0.57325 0.0
H765 H 0.95395 0.90501 0.60626 0.0
H766 H 0.90647 0.94777 0.65357 0.0
C767 C 0.88047 0.89325 0.7224 0.0
C768 C 0.92329 0.88747 0.67173 0.0
C769 C 0.86537 0.88078 0.73869 0.0
C770 C 0.96779 0.93594 0.58936 0.0
C771 C 0.95617 0.92357 0.60837 0.0
C772 C 0.91179 0.93119 0.65879 0.0
C773 C 0.88748 0.88319 0.69967 0.0
C774 C 0.90307 0.89663 0.68224 0.0
C775 C 0.94648 0.93512 0.62908 0.0
C776 C 0.93206 0.9221 0.6481 0.0
H777 H 0.85711 0.83073 0.70397 0.0
H778 H 0.88408 0.85241 0.67586 0.0
H779 H 0.8819 0.92598 0.68347 0.0
H780 H 0.96219 0.99028 0.61284 0.0
H781 H 0.94286 0.96878 0.64664 0.0
C782 C 0.67005 0.11797 0.21086 0.0
C783 C 0.68083 0.14057 0.21285 0.0
C784 C 0.66186 0.10872 0.18798 0.0
C785 C 0.63408 0.12232 0.13283 0.0
H786 H 0.65507 0.06524 0.10459 0.0
C787 C 0.58308 0.07395 0.05219 0.0
C788 C 0.57953 0.05006 0.05462 0.0
C789 C 0.59976 0.08693 0.06703 0.0
C790 C 0.64887 0.08111 0.11228 0.0
H791 H 0.69172 0.1709 0.19179 0.0
H792 H 0.67599 0.15496 0.15209 0.0
H793 H 0.676 0.08428 0.14005 0.0
H794 H 0.59096 0.02082 0.07371 0.0
H795 H 0.61915 0.04328 0.10017 0.0
H796 H 0.60582 0.11844 0.10662 0.0
C797 C 0.67439 0.1445 0.1684 0.0
C798 C 0.66101 0.09206 0.13241 0.0
C799 C 0.68314 0.15363 0.19121 0.0
C800 C 0.59341 0.03924 0.07142 0.0
C801 C 0.60978 0.05217 0.08646 0.0
C802 C 0.62159 0.11114 0.11302 0.0
C803 C 0.66375 0.12198 0.16668 0.0
C804 C 0.65336 0.11244 0.14315 0.0
C805 C 0.61294 0.07624 0.08478 0.0
C806 C 0.62842 0.09002 0.10295 0.0
H807 H 0.66734 0.10752 0.22707 0.0
H808 H 0.65335 0.09139 0.18707 0.0
H809 H 0.62782 0.13798 0.14104 0.0
H810 H 0.57266 0.08264 0.03918 0.0
H811 H 0.60199 0.10536 0.0649 0.0
C812 C 0.39279 0.62794 0.29932 0.0
C813 C 0.40092 0.62375 0.27484 0.0
C814 C 0.40234 0.61727 0.31941 0.0
C815 C 0.45448 0.58718 0.33822 0.0
H816 H 0.41213 0.56518 0.39117 0.0
C817 C 0.48493 0.53049 0.41648 0.0
C818 C 0.47692 0.53539 0.44085 0.0
C819 C 0.47582 0.54117 0.39612 0.0
C820 C 0.42426 0.57143 0.37669 0.0
H821 H 0.42551 0.60493 0.25237 0.0
H822 H 0.44211 0.58623 0.28738 0.0
H823 H 0.39616 0.584 0.35599 0.0
H824 H 0.45293 0.55542 0.46282 0.0
H825 H 0.43717 0.57405 0.4274 0.0
H826 H 0.48256 0.57449 0.35894 0.0
C827 C 0.42857 0.59805 0.29111 0.0
C828 C 0.4151 0.58226 0.35649 0.0
C829 C 0.41904 0.60878 0.271 0.0
C830 C 0.45951 0.55117 0.44434 0.0
C831 C 0.45035 0.56178 0.42398 0.0
C832 C 0.46363 0.5763 0.35841 0.0
C833 C 0.42027 0.60207 0.31558 0.0
C834 C 0.43008 0.59036 0.337 0.0
C835 C 0.4584 0.55695 0.3996 0.0
C836 C 0.44865 0.56833 0.37794 0.0
H837 H 0.37916 0.63968 0.30303 0.0
H838 H 0.39583 0.62114 0.33801 0.0
H839 H 0.46662 0.59348 0.32377 0.0
H840 H 0.4983 0.51842 0.41305 0.0
H841 H 0.48222 0.53684 0.37759 0.0
C842 C 0.10754 0.42126 0.76769 0.0
C843 C 0.11565 0.3993 0.76979 0.0
C844 C 0.09833 0.43264 0.78852 0.0
C845 C 0.06661 0.4242 0.84599 0.0
H846 H 0.09668 0.48309 0.86892 0.0
C847 C 0.034 0.47004 0.93539 0.0
C848 C 0.03518 0.49416 0.93615 0.0
C849 C 0.04483 0.45814 0.9159 0.0
C850 C 0.08775 0.46686 0.86259 0.0
H851 H 0.12024 0.37176 0.79486 0.0
H852 H 0.1032 0.39141 0.83128 0.0
H853 H 0.11286 0.46312 0.83268 0.0
H854 H 0.04828 0.52481 0.9171 0.0
H855 H 0.06601 0.50421 0.8824 0.0
H856 H 0.04078 0.42818 0.87485 0.0
C857 C 0.10436 0.39988 0.81361 0.0
C858 C 0.09718 0.45539 0.84194 0.0
C859 C 0.1141 0.38872 0.79291 0.0
C860 C 0.04727 0.50619 0.91706 0.0
C861 C 0.05763 0.49431 0.89725 0.0
C862 C 0.05682 0.43588 0.86629 0.0
C863 C 0.09659 0.42199 0.81159 0.0
C864 C 0.0867 0.43398 0.83353 0.0
C865 C 0.05658 0.47009 0.89635 0.0
C866 C 0.06725 0.45741 0.87493 0.0
H867 H 0.1087 0.42973 0.75002 0.0
H868 H 0.09233 0.44966 0.7866 0.0
H869 H 0.05816 0.40774 0.83964 0.0
H870 H 0.02467 0.46033 0.94984 0.0
H871 H 0.04398 0.43956 0.91626 0.0
C872 C 0.67699 0.83756 0.90217 0.0
C873 C 0.67885 0.8378 0.87609 0.0
C874 C 0.65957 0.84935 0.91464 0.0
C875 C 0.60229 0.87157 0.91093 0.0
H876 H 0.62784 0.92377 0.95158 0.0
C877 C 0.54309 0.94162 0.94747 0.0
C878 C 0.54882 0.95325 0.97017 0.0
C879 C 0.55821 0.92608 0.9369 0.0
C880 C 0.62025 0.90901 0.94082 0.0
H881 H 0.66363 0.84945 0.84243 0.0
H882 H 0.63243 0.86947 0.86433 0.0
H883 H 0.65467 0.89773 0.93207 0.0
H884 H 0.5743 0.95728 0.00011 0.0
H885 H 0.60009 0.92931 0.98245 0.0
H886 H 0.56784 0.8822 0.92014 0.0
C887 C 0.64461 0.86037 0.87502 0.0
C888 C 0.6357 0.89421 0.92952 0.0
C889 C 0.66238 0.84903 0.86256 0.0
C890 C 0.56966 0.94875 0.9824 0.0
C891 C 0.58449 0.93279 0.97215 0.0
C892 C 0.58674 0.88606 0.9227 0.0
C893 C 0.64348 0.86106 0.90115 0.0
C894 C 0.62684 0.87557 0.91431 0.0
C895 C 0.57913 0.9214 0.9491 0.0
C896 C 0.59553 0.90519 0.93756 0.0
H897 H 0.68969 0.82918 0.91292 0.0
H898 H 0.65895 0.84976 0.93483 0.0
H899 H 0.59516 0.85718 0.89928 0.0
H900 H 0.52719 0.94492 0.93757 0.0
H901 H 0.55365 0.91812 0.91891 0.0
C902 C 0.81708 0.14319 0.42096 0.0
C903 C 0.8096 0.13683 0.39667 0.0
C904 C 0.83531 0.13225 0.43186 0.0
C905 C 0.86601 0.07864 0.42633 0.0
H906 H 0.91283 0.11219 0.46881 0.0
C907 C 0.94585 0.03585 0.46439 0.0
C908 C 0.95028 0.03977 0.48991 0.0
C909 C 0.93002 0.04881 0.45227 0.0
C910 C 0.89978 0.10259 0.45709 0.0
H911 H 0.81597 0.11478 0.36436 0.0
H912 H 0.84791 0.09594 0.38317 0.0
H913 H 0.88249 0.13281 0.4491 0.0
H914 H 0.94236 0.06068 0.52263 0.0
H915 H 0.91465 0.08332 0.50148 0.0
H916 H 0.88327 0.04846 0.43432 0.0
C917 C 0.83934 0.10891 0.3941 0.0
C918 C 0.88238 0.11437 0.44586 0.0
C919 C 0.82106 0.11973 0.38329 0.0
C920 C 0.93918 0.05729 0.50294 0.0
C921 C 0.92344 0.07032 0.49081 0.0
C922 C 0.88345 0.06691 0.43745 0.0
C923 C 0.84652 0.11485 0.4186 0.0
C924 C 0.86525 0.10252 0.43039 0.0
C925 C 0.91844 0.066 0.46543 0.0
C926 C 0.90048 0.07874 0.453 0.0
H927 H 0.80842 0.15619 0.43177 0.0
H928 H 0.84021 0.13704 0.45088 0.0
H929 H 0.85283 0.06889 0.41493 0.0
H930 H 0.95426 0.02248 0.4539 0.0
H931 H 0.92674 0.0453 0.43263 0.0
C932 C 0.23111 0.60107 0.12363 0.0
C933 C 0.23902 0.62386 0.11837 0.0
C934 C 0.21045 0.59061 0.11267 0.0
C935 C 0.1542 0.6032 0.08495 0.0
H936 H 0.1552 0.54252 0.0534 0.0
C937 C 0.07446 0.56223 0.0282 0.0
C938 C 0.06912 0.53834 0.02919 0.0
C939 C 0.09532 0.57265 0.03878 0.0
C940 C 0.15442 0.55931 0.06245 0.0
H941 H 0.23131 0.6537 0.09789 0.0
H942 H 0.195 0.6355 0.079 0.0
H943 H 0.191 0.56056 0.07302 0.0
H944 H 0.08143 0.50667 0.04231 0.0
H945 H 0.1173 0.52484 0.06145 0.0
H946 H 0.11756 0.60187 0.07507 0.0
C947 C 0.20486 0.62571 0.09149 0.0
C948 C 0.17502 0.56967 0.07361 0.0
C949 C 0.22571 0.63606 0.10215 0.0
C950 C 0.08509 0.52511 0.04104 0.0
C951 C 0.10578 0.53555 0.05191 0.0
C952 C 0.1335 0.59273 0.07409 0.0
C953 C 0.19708 0.60284 0.09653 0.0
C954 C 0.17514 0.59175 0.08491 0.0
C955 C 0.11123 0.55949 0.05093 0.0
C956 C 0.13332 0.57065 0.0626 0.0
H957 H 0.2411 0.59122 0.13594 0.0
H958 H 0.20478 0.573 0.11702 0.0
H959 H 0.15371 0.62013 0.09378 0.0
H960 H 0.06264 0.57292 0.01903 0.0
H961 H 0.09905 0.59103 0.03717 0.0
C962 C 0.27132 0.40878 0.5828 0.0
C963 C 0.27168 0.40062 0.60705 0.0
C964 C 0.29203 0.41893 0.57193 0.0
C965 C 0.35788 0.42387 0.57947 0.0
H966 H 0.35536 0.47168 0.53136 0.0
C967 C 0.44143 0.47556 0.54243 0.0
C968 C 0.44418 0.47396 0.51641 0.0
C969 C 0.41979 0.46832 0.55364 0.0
C970 C 0.35623 0.45831 0.54476 0.0
H971 H 0.29345 0.39732 0.63937 0.0
H972 H 0.32935 0.41603 0.62106 0.0
H973 H 0.31871 0.45607 0.55134 0.0
H974 H 0.42635 0.46464 0.48161 0.0
H975 H 0.38814 0.45251 0.50129 0.0
H976 H 0.39554 0.42677 0.57334 0.0
C977 C 0.31346 0.41384 0.60988 0.0
C978 C 0.33526 0.44922 0.55611 0.0
C979 C 0.29288 0.40326 0.62051 0.0
C980 C 0.42466 0.46593 0.50172 0.0
C981 C 0.40285 0.45911 0.51293 0.0
C982 C 0.37882 0.4333 0.56852 0.0
C983 C 0.31345 0.42154 0.58529 0.0
C984 C 0.33577 0.43175 0.57354 0.0
C985 C 0.40041 0.45981 0.539 0.0
C986 C 0.37816 0.45049 0.55099 0.0
H987 H 0.25514 0.40677 0.57205 0.0
H988 H 0.29131 0.42424 0.55286 0.0
H989 H 0.35907 0.41008 0.59227 0.0
H990 H 0.4562 0.48174 0.55419 0.0
H991 H 0.41824 0.46913 0.57378 0.0
C992 C 0.84373 0.70986 0.91755 0.0
C993 C 0.85297 0.72203 0.897 0.0
C994 C 0.85754 0.69482 0.92958 0.0
C995 C 0.90871 0.6607 0.91711 0.0
H996 H 0.9086 0.65369 0.98868 0.0
C997 C 0.97313 0.60425 0.96171 0.0
C998 C 0.9633 0.58849 0.97887 0.0
C999 C 0.96022 0.62212 0.95416 0.0
C1000 C 0.90866 0.65541 0.96866 0.0
H1001 H 0.88425 0.72916 0.87387 0.0
H1002 H 0.90841 0.70323 0.89495 0.0
H1003 H 0.88478 0.6822 0.9708 0.0
H1004 H 0.93285 0.57952 0.00257 0.0
H1005 H 0.91005 0.61082 0.98916 0.0
H1006 H 0.93242 0.63399 0.91482 0.0
C1007 C 0.89032 0.70473 0.90138 0.0
C1008 C 0.89502 0.67167 0.95843 0.0
C1009 C 0.87652 0.7196 0.88932 0.0
C1010 C 0.94077 0.59148 0.98926 0.0
C1011 C 0.9278 0.60941 0.98168 0.0
C1012 C 0.92233 0.64458 0.92729 0.0
C1013 C 0.88086 0.69181 0.92131 0.0
C1014 C 0.89504 0.67457 0.93253 0.0
C1015 C 0.93719 0.62455 0.96357 0.0
C1016 C 0.92259 0.64184 0.95317 0.0
H1017 H 0.82559 0.71139 0.92378 0.0
H1018 H 0.8497 0.68499 0.94477 0.0
H1019 H 0.90866 0.66208 0.89704 0.0
H1020 H 0.99056 0.60243 0.95358 0.0
H1021 H 0.96809 0.63379 0.94053 0.0
C1022 C 0.38424 0.79787 0.10981 0.0
C1023 C 0.3987 0.78383 0.12261 0.0
C1024 C 0.39367 0.81882 0.10049 0.0
C1025 C 0.44685 0.86133 0.10595 0.0
H1026 H 0.4209 0.88514 0.04651 0.0
C1027 C 0.47951 0.9513 0.0737 0.0
C1028 C 0.48134 0.955 0.04808 0.0
C1029 C 0.46774 0.93115 0.08247 0.0
C1030 C 0.42861 0.87869 0.06296 0.0
H1031 H 0.43442 0.78025 0.13511 0.0
H1032 H 0.45127 0.81613 0.11788 0.0
H1033 H 0.40499 0.84815 0.06145 0.0
H1034 H 0.47203 0.94087 0.0114 0.0
H1035 H 0.45241 0.90504 0.02649 0.0
H1036 H 0.47144 0.89101 0.10666 0.0
C1037 C 0.43241 0.81162 0.1158 0.0
C1038 C 0.41917 0.85753 0.07184 0.0
C1039 C 0.42284 0.79093 0.12557 0.0
C1040 C 0.47069 0.93844 0.0313 0.0
C1041 C 0.45936 0.91794 0.04003 0.0
C1042 C 0.45657 0.88221 0.09682 0.0
C1043 C 0.41795 0.82604 0.1033 0.0
C1044 C 0.42808 0.84854 0.09355 0.0
C1045 C 0.45806 0.91382 0.06579 0.0
C1046 C 0.44752 0.89136 0.07529 0.0
H1047 H 0.36549 0.79283 0.10745 0.0
H1048 H 0.38177 0.82949 0.09146 0.0
H1049 H 0.45403 0.85539 0.12294 0.0
H1050 H 0.4874 0.96394 0.08704 0.0
H1051 H 0.46649 0.92914 0.10242 0.0
C1052 C 0.10307 0.21997 0.63011 0.0
C1053 C 0.11985 0.23333 0.61616 0.0
C1054 C 0.09391 0.1984 0.62094 0.0
C1055 C 0.10488 0.15279 0.57268 0.0
H1056 H 0.03886 0.13309 0.58613 0.0
C1057 C 0.05251 0.07684 0.52026 0.0
C1058 C 0.03893 0.06117 0.53504 0.0
C1059 C 0.06348 0.09709 0.53093 0.0
C1060 C 0.05738 0.1383 0.58243 0.0
H1061 H 0.13998 0.23488 0.58158 0.0
H1062 H 0.12343 0.19764 0.56509 0.0
H1063 H 0.05552 0.17017 0.60287 0.0
H1064 H 0.02631 0.05436 0.57261 0.0
H1065 H 0.04517 0.09001 0.59113 0.0
H1066 H 0.10629 0.12112 0.55144 0.0
C1067 C 0.11782 0.20337 0.58346 0.0
C1068 C 0.067 0.15951 0.5921 0.0
C1069 C 0.12724 0.22478 0.59282 0.0
C1070 C 0.03673 0.06606 0.56074 0.0
C1071 C 0.04739 0.08649 0.57133 0.0
C1072 C 0.09513 0.13173 0.56271 0.0
C1073 C 0.10106 0.18985 0.59741 0.0
C1074 C 0.09089 0.16707 0.58736 0.0
C1075 C 0.06077 0.10224 0.5565 0.0
C1076 C 0.0713 0.12429 0.5675 0.0
H1077 H 0.0973 0.22608 0.6483 0.0
H1078 H 0.08141 0.18835 0.63246 0.0
H1079 H 0.12344 0.15776 0.56901 0.0
H1080 H 0.05459 0.07354 0.50041 0.0
H1081 H 0.07358 0.10903 0.51907 0.0
C1082 C 0.66199 0.30636 0.37538 0.0
C1083 C 0.6565 0.28434 0.38476 0.0
C1084 C 0.6496 0.32495 0.38373 0.0
C1085 C 0.62952 0.3641 0.41311 0.0
H1086 H 0.5621 0.35416 0.4274 0.0
C1087 C 0.57641 0.43463 0.45954 0.0
C1088 C 0.55274 0.43581 0.45242 0.0
C1089 C 0.58928 0.41652 0.45074 0.0
C1090 C 0.58085 0.35732 0.4232 0.0
H1091 H 0.63377 0.26475 0.41062 0.0
H1092 H 0.61285 0.29738 0.42596 0.0
H1093 H 0.58406 0.32192 0.41323 0.0
H1094 H 0.52408 0.41955 0.43005 0.0
H1095 H 0.54677 0.38827 0.41393 0.0
H1096 H 0.62615 0.39964 0.42213 0.0
C1097 C 0.62638 0.30016 0.41167 0.0
C1098 C 0.59355 0.33872 0.41546 0.0
C1099 C 0.63864 0.2815 0.40314 0.0
C1100 C 0.54231 0.41894 0.43586 0.0
C1101 C 0.55526 0.40093 0.42683 0.0
C1102 C 0.61678 0.38273 0.42061 0.0
C1103 C 0.63156 0.32209 0.4019 0.0
C1104 C 0.61807 0.34186 0.41037 0.0
C1105 C 0.57883 0.39933 0.43442 0.0
C1106 C 0.59229 0.37958 0.42583 0.0
H1107 H 0.67589 0.3093 0.36151 0.0
H1108 H 0.65392 0.34149 0.37555 0.0
H1109 H 0.64843 0.36714 0.40966 0.0
H1110 H 0.5848 0.44737 0.47244 0.0
H1111 H 0.60724 0.41569 0.4573 0.0
loop_
_geom_bond_atom_site_label_1
_geom_bond_atom_site_label_2
_geom_bond_distance
_geom_bond_site_symmetry_2
_ccdc_geom_bond_type
C0 C1 1.386 . S
C0 C2 1.397 . S
C0 H24 0.931 . S
C1 C0 1.386 . S
C1 C5 1.397 . S
C2 C0 1.397 . S
C2 C3 1.384 . S
C2 H25 0.930 . S
C3 C2 1.384 . S
C3 C4 1.377 . S
C3 C6 1.481 . S
C4 C3 1.377 . S
C4 C5 1.389 . S
C4 H26 0.929 . S
C5 C1 1.397 . S
C5 C4 1.389 . S
C5 H27 0.931 . S
C6 C3 1.481 . S
C6 C7 1.387 . S
C6 C11 1.390 . S
C7 C6 1.387 . S
C7 C8 1.401 . S
C7 H28 0.930 . S
C8 C7 1.401 . S
C8 C9 1.376 . S
C8 C17 1.511 . S
C9 C8 1.376 . S
C9 C10 1.392 . S
C9 H30 0.931 . S
C10 C9 1.392 . S
C10 C11 1.361 . S
C10 C12 1.500 . S
C11 C6 1.390 . S
C11 C10 1.361 . S
C11 H29 0.931 . S
C12 C10 1.500 . S
C12 C13 1.371 . S
C12 C14 1.365 . S
C13 C12 1.371 . S
C13 C23 1.386 . S
C13 H31 0.931 . S
C14 C12 1.365 . S
C14 C15 1.409 . S
C14 H32 0.929 . S
C15 C14 1.409 . S
C15 C16 1.380 . S
C15 H33 0.930 . S
C16 C15 1.380 . S
C16 C23 1.357 . S
C17 C8 1.511 . S
C17 C18 1.341 . S
C17 C19 1.371 . S
C18 C17 1.341 . S
C18 C22 1.394 . S
C18 H34 0.930 . S
C19 C17 1.371 . S
C19 C20 1.392 . S
C19 H35 0.931 . S
C20 C19 1.392 . S
C20 C21 1.331 . S
C20 H38 0.932 . S
C21 C20 1.331 . S
C21 C22 1.336 . S
C22 C18 1.394 . S
C22 C21 1.336 . S
C22 H37 0.929 . S
C23 C13 1.386 . S
C23 C16 1.357 . S
C23 H36 0.928 . S
H24 C0 0.931 . S
H25 C2 0.930 . S
H26 C4 0.929 . S
H27 C5 0.931 . S
H28 C7 0.930 . S
H29 C11 0.931 . S
H30 C9 0.931 . S
H31 C13 0.931 . S
H32 C14 0.929 . S
H33 C15 0.930 . S
H34 C18 0.930 . S
H35 C19 0.931 . S
H36 C23 0.928 . S
H37 C22 0.929 . S
H38 C20 0.932 . S
C39 C40 1.386 . S
C39 C41 1.397 . S
C39 H63 0.931 . S
C40 C39 1.386 . S
C40 C44 1.397 . S
C41 C39 1.397 . S
C41 C42 1.384 . S
C41 H64 0.930 . S
C42 C41 1.384 . S
C42 C43 1.377 . S
C42 C45 1.481 . S
C43 C42 1.377 . S
C43 C44 1.389 . S
C43 H65 0.929 . S
C44 C40 1.397 . S
C44 C43 1.389 . S
C44 H66 0.931 . S
C45 C42 1.481 . S
C45 C46 1.387 . S
C45 C50 1.390 . S
C46 C45 1.387 . S
C46 C47 1.401 . S
C46 H67 0.930 . S
C47 C46 1.401 . S
C47 C48 1.376 . S
C47 C56 1.511 . S
C48 C47 1.376 . S
C48 C49 1.392 . S
C48 H69 0.931 . S
C49 C48 1.392 . S
C49 C50 1.361 . S
C49 C51 1.500 . S
C50 C45 1.390 . S
C50 C49 1.361 . S
C50 H68 0.931 . S
C51 C49 1.500 . S
C51 C52 1.371 . S
C51 C53 1.365 . S
C52 C51 1.371 . S
C52 C62 1.386 . S
C52 H70 0.931 . S
C53 C51 1.365 . S
C53 C54 1.409 . S
C53 H71 0.929 . S
C54 C53 1.409 . S
C54 C55 1.380 . S
C54 H72 0.930 . S
C55 C54 1.380 . S
C55 C62 1.357 . S
C56 C47 1.511 . S
C56 C57 1.341 . S
C56 C58 1.371 . S
C57 C56 1.341 . S
C57 C61 1.394 . S
C57 H73 0.930 . S
C58 C56 1.371 . S
C58 C59 1.392 . S
C58 H74 0.931 . S
C59 C58 1.392 . S
C59 C60 1.331 . S
C59 H77 0.932 . S
C60 C59 1.331 . S
C60 C61 1.336 . S
C61 C57 1.394 . S
C61 C60 1.336 . S
C61 H76 0.929 . S
C62 C52 1.386 . S
C62 C55 1.357 . S
C62 H75 0.928 . S
H63 C39 0.931 . S
H64 C41 0.930 . S
H65 C43 0.929 . S
H66 C44 0.931 . S
H67 C46 0.930 . S
H68 C50 0.931 . S
H69 C48 0.931 . S
H70 C52 0.931 . S
H71 C53 0.929 . S
H72 C54 0.930 . S
H73 C57 0.930 . S
H74 C58 0.931 . S
H75 C62 0.928 . S
H76 C61 0.929 . S
H77 C59 0.932 . S
C78 C79 1.386 . S
C78 C80 1.397 . S
C78 H102 0.931 . S
C79 C78 1.386 . S
C79 C83 1.397 . S
C80 C78 1.397 . S
C80 C81 1.384 . S
C80 H103 0.930 . S
C81 C80 1.384 . S
C81 C82 1.377 . S
C81 C84 1.481 . S
C82 C81 1.377 . S
C82 C83 1.389 . S
C82 H104 0.929 . S
C83 C79 1.397 . S
C83 C82 1.389 . S
C83 H105 0.931 . S
C84 C81 1.481 . S
C84 C85 1.387 . S
C84 C89 1.390 . S
C85 C84 1.387 . S
C85 C86 1.401 . S
C85 H106 0.930 . S
C86 C85 1.401 . S
C86 C87 1.376 . S
C86 C95 1.511 . S
C87 C86 1.376 . S
C87 C88 1.392 . S
C87 H108 0.931 . S
C88 C87 1.392 . S
C88 C89 1.361 . S
C88 C90 1.500 . S
C89 C84 1.390 . S
C89 C88 1.361 . S
C89 H107 0.931 . S
C90 C88 1.500 . S
C90 C91 1.371 . S
C90 C92 1.365 . S
C91 C90 1.371 . S
C91 C101 1.386 . S
C91 H109 0.931 . S
C92 C90 1.365 . S
C92 C93 1.409 . S
C92 H110 0.929 . S
C93 C92 1.409 . S
C93 C94 1.380 . S
C93 H111 0.930 . S
C94 C93 1.380 . S
C94 C101 1.357 . S
C95 C86 1.511 . S
C95 C96 1.341 . S
C95 C97 1.371 . S
C96 C95 1.341 . S
C96 C100 1.394 . S
C96 H112 0.930 . S
C97 C95 1.371 . S
C97 C98 1.392 . S
C97 H113 0.931 . S
C98 C97 1.392 . S
C98 C99 1.331 . S
C98 H116 0.932 . S
C99 C98 1.331 . S
C99 C100 1.336 . S
C100 C96 1.394 . S
C100 C99 1.336 . S
C100 H115 0.929 . S
C101 C91 1.386 . S
C101 C94 1.357 . S
C101 H114 0.928 . S
H102 C78 0.931 . S
H103 C80 0.930 . S
H104 C82 0.929 . S
H105 C83 0.931 . S
H106 C85 0.930 . S
H107 C89 0.931 . S
H108 C87 0.931 . S
H109 C91 0.931 . S
H110 C92 0.929 . S
H111 C93 0.930 . S
H112 C96 0.930 . S
H113 C97 0.931 . S
H114 C101 0.928 . S
H115 C100 0.929 . S
H116 C98 0.932 . S
C117 C118 1.386 . S
C117 C119 1.397 . S
C117 H141 0.931 . S
C118 C117 1.386 . S
C118 C122 1.397 . S
C119 C117 1.397 . S
C119 C120 1.384 . S
C119 H142 0.930 . S
C120 C119 1.384 . S
C120 C121 1.377 . S
C120 C123 1.481 . S
C121 C120 1.377 . S
C121 C122 1.389 . S
C121 H143 0.929 . S
C122 C118 1.397 . S
C122 C121 1.389 . S
C122 H144 0.931 . S
C123 C120 1.481 . S
C123 C124 1.387 . S
C123 C128 1.390 . S
C124 C123 1.387 . S
C124 C125 1.401 . S
C124 H145 0.930 . S
C125 C124 1.401 . S
C125 C126 1.376 . S
C125 C134 1.511 . S
C126 C125 1.376 . S
C126 C127 1.392 . S
C126 H147 0.931 . S
C127 C126 1.392 . S
C127 C128 1.361 . S
C127 C129 1.500 . S
C128 C123 1.390 . S
C128 C127 1.361 . S
C128 H146 0.931 . S
C129 C127 1.500 . S
C129 C130 1.371 . S
C129 C131 1.365 . S
C130 C129 1.371 . S
C130 C140 1.386 . S
C130 H148 0.931 . S
C131 C129 1.365 . S
C131 C132 1.409 . S
C131 H149 0.929 . S
C132 C131 1.409 . S
C132 C133 1.380 . S
C132 H150 0.930 . S
C133 C132 1.380 . S
C133 C140 1.357 . S
C134 C125 1.511 . S
C134 C135 1.341 . S
C134 C136 1.371 . S
C135 C134 1.341 . S
C135 C139 1.394 . S
C135 H151 0.930 . S
C136 C134 1.371 . S
C136 C137 1.392 . S
C136 H152 0.931 . S
C137 C136 1.392 . S
C137 C138 1.331 . S
C137 H155 0.932 . S
C138 C137 1.331 . S
C138 C139 1.336 . S
C139 C135 1.394 . S
C139 C138 1.336 . S
C139 H154 0.929 . S
C140 C130 1.386 . S
C140 C133 1.357 . S
C140 H153 0.928 . S
H141 C117 0.931 . S
H142 C119 0.930 . S
H143 C121 0.929 . S
H144 C122 0.931 . S
H145 C124 0.930 . S
H146 C128 0.931 . S
H147 C126 0.931 . S
H148 C130 0.931 . S
H149 C131 0.929 . S
H150 C132 0.930 . S
H151 C135 0.930 . S
H152 C136 0.931 . S
H153 C140 0.928 . S
H154 C139 0.929 . S
H155 C137 0.932 . S
C156 C157 1.386 . S
C156 C158 1.397 . S
C156 H180 0.931 . S
C157 C156 1.386 . S
C157 C161 1.397 . S
C158 C156 1.397 . S
C158 C159 1.384 . S
C158 H181 0.930 . S
C159 C158 1.384 . S
C159 C160 1.377 . S
C159 C162 1.481 . S
C160 C159 1.377 . S
C160 C161 1.389 . S
C160 H182 0.929 . S
C161 C157 1.397 . S
C161 C160 1.389 . S
C161 H183 0.931 . S
C162 C159 1.481 . S
C162 C163 1.387 . S
C162 C167 1.390 . S
C163 C162 1.387 . S
C163 C164 1.401 . S
C163 H184 0.930 . S
C164 C163 1.401 . S
C164 C165 1.376 . S
C164 C173 1.511 . S
C165 C164 1.376 . S
C165 C166 1.392 . S
C165 H186 0.931 . S
C166 C165 1.392 . S
C166 C167 1.361 . S
C166 C168 1.500 . S
C167 C162 1.390 . S
C167 C166 1.361 . S
C167 H185 0.931 . S
C168 C166 1.500 . S
C168 C169 1.371 . S
C168 C170 1.365 . S
C169 C168 1.371 . S
C169 C179 1.386 . S
C169 H187 0.931 . S
C170 C168 1.365 . S
C170 C171 1.409 . S
C170 H188 0.929 . S
C171 C170 1.409 . S
C171 C172 1.380 . S
C171 H189 0.930 . S
C172 C171 1.380 . S
C172 C179 1.357 . S
C173 C164 1.511 . S
C173 C174 1.341 . S
C173 C175 1.371 . S
C174 C173 1.341 . S
C174 C178 1.394 . S
C174 H190 0.930 . S
C175 C173 1.371 . S
C175 C176 1.392 . S
C175 H191 0.931 . S
C176 C175 1.392 . S
C176 C177 1.331 . S
C176 H194 0.932 . S
C177 C176 1.331 . S
C177 C178 1.336 . S
C178 C174 1.394 . S
C178 C177 1.336 . S
C178 H193 0.929 . S
C179 C169 1.386 . S
C179 C172 1.357 . S
C179 H192 0.928 . S
H180 C156 0.931 . S
H181 C158 0.930 . S
H182 C160 0.929 . S
H183 C161 0.931 . S
H184 C163 0.930 . S
H185 C167 0.931 . S
H186 C165 0.931 . S
H187 C169 0.931 . S
H188 C170 0.929 . S
H189 C171 0.930 . S
H190 C174 0.930 . S
H191 C175 0.931 . S
H192 C179 0.928 . S
H193 C178 0.929 . S
H194 C176 0.932 . S
C195 C196 1.386 . S
C195 C197 1.397 . S
C195 H219 0.931 . S
C196 C195 1.386 . S
C196 C200 1.397 . S
C197 C195 1.397 . S
C197 C198 1.384 . S
C197 H220 0.930 . S
C198 C197 1.384 . S
C198 C199 1.377 . S
C198 C201 1.481 . S
C199 C198 1.377 . S
C199 C200 1.389 . S
C199 H221 0.929 . S
C200 C196 1.397 . S
C200 C199 1.389 . S
C200 H222 0.931 . S
C201 C198 1.481 . S
C201 C202 1.387 . S
C201 C206 1.390 . S
C202 C201 1.387 . S
C202 C203 1.401 . S
C202 H223 0.930 . S
C203 C202 1.401 . S
C203 C204 1.376 . S
C203 C212 1.511 . S
C204 C203 1.376 . S
C204 C205 1.392 . S
C204 H225 0.931 . S
C205 C204 1.392 . S
C205 C206 1.361 . S
C205 C207 1.500 . S
C206 C201 1.390 . S
C206 C205 1.361 . S
C206 H224 0.931 . S
C207 C205 1.500 . S
C207 C208 1.371 . S
C207 C209 1.365 . S
C208 C207 1.371 . S
C208 C218 1.386 . S
C208 H226 0.931 . S
C209 C207 1.365 . S
C209 C210 1.409 . S
C209 H227 0.929 . S
C210 C209 1.409 . S
C210 C211 1.380 . S
C210 H228 0.930 . S
C211 C210 1.380 . S
C211 C218 1.357 . S
C212 C203 1.511 . S
C212 C213 1.341 . S
C212 C214 1.371 . S
C213 C212 1.341 . S
C213 C217 1.394 . S
C213 H229 0.930 . S
C214 C212 1.371 . S
C214 C215 1.392 . S
C214 H230 0.931 . S
C215 C214 1.392 . S
C215 C216 1.331 . S
C215 H233 0.932 . S
C216 C215 1.331 . S
C216 C217 1.336 . S
C217 C213 1.394 . S
C217 C216 1.336 . S
C217 H232 0.929 . S
C218 C208 1.386 . S
C218 C211 1.357 . S
C218 H231 0.928 . S
H219 C195 0.931 . S
H220 C197 0.930 . S
H221 C199 0.929 . S
H222 C200 0.931 . S
H223 C202 0.930 . S
H224 C206 0.931 . S
H225 C204 0.931 . S
H226 C208 0.931 . S
H227 C209 0.929 . S
H228 C210 0.930 . S
H229 C213 0.930 . S
H230 C214 0.931 . S
H231 C218 0.928 . S
H232 C217 0.929 . S
H233 C215 0.932 . S
C234 C235 1.386 . S
C234 C236 1.397 . S
C234 H258 0.931 . S
C235 C234 1.386 . S
C235 C239 1.397 . S
C236 C234 1.397 . S
C236 C237 1.384 . S
C236 H259 0.930 . S
C237 C236 1.384 . S
C237 C238 1.377 . S
C237 C240 1.481 . S
C238 C237 1.377 . S
C238 C239 1.389 . S
C238 H260 0.929 . S
C239 C235 1.397 . S
C239 C238 1.389 . S
C239 H261 0.931 . S
C240 C237 1.481 . S
C240 C241 1.387 . S
C240 C245 1.390 . S
C241 C240 1.387 . S
C241 C242 1.401 . S
C241 H262 0.930 . S
C242 C241 1.401 . S
C242 C243 1.376 . S
C242 C251 1.511 . S
C243 C242 1.376 . S
C243 C244 1.392 . S
C243 H264 0.931 . S
C244 C243 1.392 . S
C244 C245 1.361 . S
C244 C246 1.500 . S
C245 C240 1.390 . S
C245 C244 1.361 . S
C245 H263 0.931 . S
C246 C244 1.500 . S
C246 C247 1.371 . S
C246 C248 1.365 . S
C247 C246 1.371 . S
C247 C257 1.386 . S
C247 H265 0.931 . S
C248 C246 1.365 . S
C248 C249 1.409 . S
C248 H266 0.929 . S
C249 C248 1.409 . S
C249 C250 1.380 . S
C249 H267 0.930 . S
C250 C249 1.380 . S
C250 C257 1.357 . S
C251 C242 1.511 . S
C251 C252 1.341 . S
C251 C253 1.371 . S
C252 C251 1.341 . S
C252 C256 1.394 . S
C252 H268 0.930 . S
C253 C251 1.371 . S
C253 C254 1.392 . S
C253 H269 0.931 . S
C254 C253 1.392 . S
C254 C255 1.331 . S
C254 H272 0.932 . S
C255 C254 1.331 . S
C255 C256 1.336 . S
C256 C252 1.394 . S
C256 C255 1.336 . S
C256 H271 0.929 . S
C257 C247 1.386 . S
C257 C250 1.357 . S
C257 H270 0.928 . S
H258 C234 0.931 . S
H259 C236 0.930 . S
H260 C238 0.929 . S
H261 C239 0.931 . S
H262 C241 0.930 . S
H263 C245 0.931 . S
H264 C243 0.931 . S
H265 C247 0.931 . S
H266 C248 0.929 . S
H267 C249 0.930 . S
H268 C252 0.930 . S
H269 C253 0.931 . S
H270 C257 0.928 . S
H271 C256 0.929 . S
H272 C254 0.932 . S
C273 C274 1.386 . S
C273 C275 1.397 . S
C273 H297 0.931 . S
C274 C273 1.386 . S
C274 C278 1.397 . S
C275 C273 1.397 . S
C275 C276 1.384 . S
C275 H298 0.930 . S
C276 C275 1.384 . S
C276 C277 1.377 . S
C276 C279 1.481 . S
C277 C276 1.377 . S
C277 C278 1.389 . S
C277 H299 0.929 . S
C278 C274 1.397 . S
C278 C277 1.389 . S
C278 H300 0.931 . S
C279 C276 1.481 . S
C279 C280 1.387 . S
C279 C284 1.390 . S
C280 C279 1.387 . S
C280 C281 1.401 . S
C280 H301 0.930 . S
C281 C280 1.401 . S
C281 C282 1.376 . S
C281 C290 1.511 . S
C282 C281 1.376 . S
C282 C283 1.392 . S
C282 H303 0.931 . S
C283 C282 1.392 . S
C283 C284 1.361 . S
C283 C285 1.500 . S
C284 C279 1.390 . S
C284 C283 1.361 . S
C284 H302 0.931 . S
C285 C283 1.500 . S
C285 C286 1.371 . S
C285 C287 1.365 . S
C286 C285 1.371 . S
C286 C296 1.386 . S
C286 H304 0.931 . S
C287 C285 1.365 . S
C287 C288 1.409 . S
C287 H305 0.929 . S
C288 C287 1.409 . S
C288 C289 1.380 . S
C288 H306 0.930 . S
C289 C288 1.380 . S
C289 C296 1.357 . S
C290 C281 1.511 . S
C290 C291 1.341 . S
C290 C292 1.371 . S
C291 C290 1.341 . S
C291 C295 1.394 . S
C291 H307 0.930 . S
C292 C290 1.371 . S
C292 C293 1.392 . S
C292 H308 0.931 . S
C293 C292 1.392 . S
C293 C294 1.331 . S
C293 H311 0.932 . S
C294 C293 1.331 . S
C294 C295 1.336 . S
C295 C291 1.394 . S
C295 C294 1.336 . S
C295 H310 0.929 . S
C296 C286 1.386 . S
C296 C289 1.357 . S
C296 H309 0.928 . S
H297 C273 0.931 . S
H298 C275 0.930 . S
H299 C277 0.929 . S
H300 C278 0.931 . S
H301 C280 0.930 . S
H302 C284 0.931 . S
H303 C282 0.931 . S
H304 C286 0.931 . S
H305 C287 0.929 . S
H306 C288 0.930 . S
H307 C291 0.930 . S
H308 C292 0.931 . S
H309 C296 0.928 . S
H310 C295 0.929 . S
H311 C293 0.932 . S
Dy312 O316 2.398 . S
Dy312 O317 2.491 . S
Dy312 O318 2.403 1_545 S
Dy312 O319 2.664 1_545 S
Dy312 O323 2.326 . S
Dy312 O327 2.310 1_455 S
Dy312 O328 2.351 1_445 S
C313 O324 1.185 . S
C313 O325 1.355 . S
C314 O316 1.185 . S
C314 O317 1.355 . S
Dy315 O319 2.310 1_655 S
Dy315 O322 2.351 1_665 S
Dy315 O324 2.398 . S
Dy315 O325 2.491 . S
Dy315 O326 2.403 1_565 S
Dy315 O327 2.664 1_565 S
Dy315 O329 2.326 . S
O316 Dy312 2.398 . S
O316 C314 1.185 . S
O317 Dy312 2.491 . S
O317 C314 1.355 . S
O318 Dy312 2.403 1_565 S
O318 C320 1.254 . S
O319 Dy312 2.664 1_565 S
O319 Dy315 2.310 1_455 S
O319 C320 1.268 . S
C320 O318 1.254 . S
C320 O319 1.268 . S
C321 O326 1.254 . S
C321 O327 1.268 . S
O322 Dy315 2.351 1_445 S
O322 C330 1.249 . S
O323 Dy312 2.326 . S
O323 C330 1.267 . S
O324 C313 1.185 . S
O324 Dy315 2.398 . S
O325 C313 1.355 . S
O325 Dy315 2.491 . S
O326 Dy315 2.403 1_545 S
O326 C321 1.254 . S
O327 Dy312 2.310 1_655 S
O327 Dy315 2.664 1_545 S
O327 C321 1.268 . S
O328 Dy312 2.351 1_665 S
O328 C331 1.249 . S
O329 Dy315 2.326 . S
O329 C331 1.267 . S
C330 O322 1.249 . S
C330 O323 1.267 . S
C331 O328 1.249 . S
C331 O329 1.267 . S
Dy332 O336 2.398 . S
Dy332 O337 2.491 . S
Dy332 O338 2.403 1_545 S
Dy332 O339 2.664 1_545 S
Dy332 O343 2.326 . S
Dy332 O347 2.310 1_554 S
Dy332 O348 2.351 1_544 S
C333 O344 1.185 . S
C333 O345 1.355 . S
C334 O336 1.185 . S
C334 O337 1.355 . S
Dy335 O339 2.288 1_546 S
Dy335 O342 2.370 1_556 S
Dy335 O344 2.394 1_545 S
Dy335 O345 2.461 1_545 S
Dy335 O346 2.431 . S
Dy335 O347 2.681 . S
Dy335 O349 2.313 1_545 S
O336 Dy332 2.398 . S
O336 C334 1.185 . S
O337 Dy332 2.491 . S
O337 C334 1.355 . S
O338 Dy332 2.403 1_565 S
O338 C340 1.254 . S
O339 Dy332 2.664 1_565 S
O339 Dy335 2.288 1_564 S
O339 C340 1.268 . S
C340 O338 1.254 . S
C340 O339 1.268 . S
C341 O346 1.254 . S
C341 O347 1.268 . S
O342 Dy335 2.370 1_554 S
O342 C350 1.249 . S
O343 Dy332 2.326 . S
O343 C350 1.267 . S
O344 C333 1.185 . S
O344 Dy335 2.394 1_565 S
O345 C333 1.355 . S
O345 Dy335 2.461 1_565 S
O346 Dy335 2.431 . S
O346 C341 1.254 . S
O347 Dy332 2.310 1_556 S
O347 Dy335 2.681 . S
O347 C341 1.268 . S
O348 Dy332 2.351 1_566 S
O348 C351 1.249 . S
O349 Dy335 2.313 1_565 S
O349 C351 1.267 . S
C350 O342 1.249 . S
C350 O343 1.267 . S
C351 O348 1.249 . S
C351 O349 1.267 . S
Dy352 O356 2.398 . S
Dy352 O357 2.491 . S
Dy352 O358 2.403 . S
Dy352 O359 2.664 . S
Dy352 O363 2.326 . S
Dy352 O367 2.310 . S
Dy352 O368 2.351 . S
C353 O364 1.185 . S
C353 O365 1.355 . S
C354 O356 1.185 . S
C354 O357 1.355 . S
Dy355 O359 2.310 . S
Dy355 O362 2.351 . S
Dy355 O364 2.398 . S
Dy355 O365 2.491 . S
Dy355 O366 2.403 . S
Dy355 O367 2.664 . S
Dy355 O369 2.326 . S
O356 Dy352 2.398 . S
O356 C354 1.185 . S
O357 Dy352 2.491 . S
O357 C354 1.355 . S
O358 Dy352 2.403 . S
O358 C360 1.254 . S
O359 Dy352 2.664 . S
O359 Dy355 2.310 . S
O359 C360 1.268 . S
C360 O358 1.254 . S
C360 O359 1.268 . S
C361 O366 1.254 . S
C361 O367 1.268 . S
O362 Dy355 2.351 . S
O362 C370 1.249 . S
O363 Dy352 2.326 . S
O363 C370 1.267 . S
O364 C353 1.185 . S
O364 Dy355 2.398 . S
O365 C353 1.355 . S
O365 Dy355 2.491 . S
O366 Dy355 2.403 . S
O366 C361 1.254 . S
O367 Dy352 2.310 . S
O367 Dy355 2.664 . S
O367 C361 1.268 . S
O368 Dy352 2.351 . S
O368 C371 1.249 . S
O369 Dy355 2.326 . S
O369 C371 1.267 . S
C370 O362 1.249 . S
C370 O363 1.267 . S
C371 O368 1.249 . S
C371 O369 1.267 . S
Dy372 O376 2.398 . S
Dy372 O377 2.491 . S
Dy372 O378 2.403 1_455 S
Dy372 O379 2.664 1_455 S
Dy372 O383 2.326 . S
Dy372 O387 2.310 1_554 S
Dy372 O388 2.351 1_454 S
C373 O384 1.185 . S
C373 O385 1.355 . S
C374 O376 1.185 . S
C374 O377 1.355 . S
Dy375 O379 2.310 1_556 S
Dy375 O382 2.351 1_656 S
Dy375 O384 2.398 . S
Dy375 O385 2.491 . S
Dy375 O386 2.403 1_655 S
Dy375 O387 2.664 1_655 S
Dy375 O389 2.326 . S
O376 Dy372 2.398 . S
O376 C374 1.185 . S
O377 Dy372 2.491 . S
O377 C374 1.355 . S
O378 Dy372 2.403 1_655 S
O378 C380 1.254 . S
O379 Dy372 2.664 1_655 S
O379 Dy375 2.310 1_554 S
O379 C380 1.268 . S
C380 O378 1.254 . S
C380 O379 1.268 . S
C381 O386 1.254 . S
C381 O387 1.268 . S
O382 Dy375 2.351 1_454 S
O382 C390 1.249 . S
O383 Dy372 2.326 . S
O383 C390 1.267 . S
O384 C373 1.185 . S
O384 Dy375 2.398 . S
O385 C373 1.355 . S
O385 Dy375 2.491 . S
O386 Dy375 2.403 1_455 S
O386 C381 1.254 . S
O387 Dy372 2.310 1_556 S
O387 Dy375 2.664 1_455 S
O387 C381 1.268 . S
O388 Dy372 2.351 1_656 S
O388 C391 1.249 . S
O389 Dy375 2.326 . S
O389 C391 1.267 . S
C390 O382 1.249 . S
C390 O383 1.267 . S
C391 O388 1.249 . S
C391 O389 1.267 . S
C392 C393 1.349 . S
C392 C394 1.327 . S
C392 H417 0.950 . S
C393 C392 1.349 . S
C393 C409 1.349 . S
C394 C392 1.327 . S
C394 C413 1.429 . S
C394 H418 0.950 . S
C395 C412 1.574 . S
C395 C414 1.368 . S
C395 H419 0.949 . S
H396 C400 0.949 . S
C397 C398 1.349 . S
C397 C399 1.327 . S
C397 H420 0.950 . S
C398 C397 1.349 . S
C398 C410 1.349 . S
C399 C397 1.327 . S
C399 C415 1.429 . S
C399 H421 0.950 . S
C400 H396 0.949 . S
C400 C408 1.574 . S
C400 C416 1.368 . S
H401 C409 0.950 . S
H402 C407 0.950 . S
H403 C408 0.949 . S
H404 C410 0.950 . S
H405 C411 0.950 . S
H406 C412 0.949 . S
C407 H402 0.950 . S
C407 C409 1.327 . S
C407 C413 1.429 . S
C408 C400 1.574 . S
C408 H403 0.949 . S
C408 C414 1.368 . S
C409 C393 1.349 . S
C409 H401 0.950 . S
C409 C407 1.327 . S
C410 C398 1.349 . S
C410 H404 0.950 . S
C410 C411 1.327 . S
C411 H405 0.950 . S
C411 C410 1.327 . S
C411 C415 1.429 . S
C412 C395 1.574 . S
C412 H406 0.949 . S
C412 C416 1.368 . S
C413 C394 1.429 . S
C413 C407 1.429 . S
C413 C414 1.523 . S
C414 C395 1.368 . S
C414 C408 1.368 . S
C414 C413 1.523 . S
C415 C399 1.429 . S
C415 C411 1.429 . S
C415 C416 1.523 . S
C416 C400 1.368 . S
C416 C412 1.368 . S
C416 C415 1.523 . S
H417 C392 0.950 . S
H418 C394 0.950 . S
H419 C395 0.949 . S
H420 C397 0.950 . S
H421 C399 0.950 . S
C422 C423 1.349 . S
C422 C424 1.327 . S
C422 H447 0.950 . S
C423 C422 1.349 . S
C423 C439 1.349 . S
C424 C422 1.327 . S
C424 C443 1.429 . S
C424 H448 0.950 . S
C425 C442 1.574 . S
C425 C444 1.368 . S
C425 H449 0.949 . S
H426 C430 0.949 . S
C427 C428 1.349 . S
C427 C429 1.327 . S
C427 H450 0.950 . S
C428 C427 1.349 . S
C428 C440 1.349 . S
C429 C427 1.327 . S
C429 C445 1.429 . S
C429 H451 0.950 . S
C430 H426 0.949 . S
C430 C438 1.574 . S
C430 C446 1.368 . S
H431 C439 0.950 . S
H432 C437 0.950 . S
H433 C438 0.949 . S
H434 C440 0.950 . S
H435 C441 0.950 . S
H436 C442 0.949 . S
C437 H432 0.950 . S
C437 C439 1.327 . S
C437 C443 1.429 . S
C438 C430 1.574 . S
C438 H433 0.949 . S
C438 C444 1.368 . S
C439 C423 1.349 . S
C439 H431 0.950 . S
C439 C437 1.327 . S
C440 C428 1.349 . S
C440 H434 0.950 . S
C440 C441 1.327 . S
C441 H435 0.950 . S
C441 C440 1.327 . S
C441 C445 1.429 . S
C442 C425 1.574 . S
C442 H436 0.949 . S
C442 C446 1.368 . S
C443 C424 1.429 . S
C443 C437 1.429 . S
C443 C444 1.523 . S
C444 C425 1.368 . S
C444 C438 1.368 . S
C444 C443 1.523 . S
C445 C429 1.429 . S
C445 C441 1.429 . S
C445 C446 1.523 . S
C446 C430 1.368 . S
C446 C442 1.368 . S
C446 C445 1.523 . S
H447 C422 0.950 . S
H448 C424 0.950 . S
H449 C425 0.949 . S
H450 C427 0.950 . S
H451 C429 0.950 . S
C452 C453 1.349 . S
C452 C454 1.327 . S
C452 H477 0.950 . S
C453 C452 1.349 . S
C453 C469 1.349 . S
C454 C452 1.327 . S
C454 C473 1.429 . S
C454 H478 0.950 . S
C455 C472 1.574 . S
C455 C474 1.368 . S
C455 H479 0.949 . S
H456 C460 0.949 . S
C457 C458 1.349 . S
C457 C459 1.327 . S
C457 H480 0.950 . S
C458 C457 1.349 . S
C458 C470 1.349 . S
C459 C457 1.327 . S
C459 C475 1.429 . S
C459 H481 0.950 . S
C460 H456 0.949 . S
C460 C468 1.574 . S
C460 C476 1.368 . S
H461 C469 0.950 . S
H462 C467 0.950 . S
H463 C468 0.949 . S
H464 C470 0.950 . S
H465 C471 0.950 . S
H466 C472 0.949 . S
C467 H462 0.950 . S
C467 C469 1.327 . S
C467 C473 1.429 . S
C468 C460 1.574 . S
C468 H463 0.949 . S
C468 C474 1.368 . S
C469 C453 1.349 . S
C469 H461 0.950 . S
C469 C467 1.327 . S
C470 C458 1.349 . S
C470 H464 0.950 . S
C470 C471 1.327 . S
C471 H465 0.950 . S
C471 C470 1.327 . S
C471 C475 1.429 . S
C472 C455 1.574 . S
C472 H466 0.949 . S
C472 C476 1.368 . S
C473 C454 1.429 . S
C473 C467 1.429 . S
C473 C474 1.523 . S
C474 C455 1.368 . S
C474 C468 1.368 . S
C474 C473 1.523 . S
C475 C459 1.429 . S
C475 C471 1.429 . S
C475 C476 1.523 . S
C476 C460 1.368 . S
C476 C472 1.368 . S
C476 C475 1.523 . S
H477 C452 0.950 . S
H478 C454 0.950 . S
H479 C455 0.949 . S
H480 C457 0.950 . S
H481 C459 0.950 . S
C482 C483 1.349 . S
C482 C484 1.327 . S
C482 H507 0.950 . S
C483 C482 1.349 . S
C483 C499 1.349 . S
C484 C482 1.327 . S
C484 C503 1.429 . S
C484 H508 0.950 . S
C485 C502 1.574 . S
C485 C504 1.368 . S
C485 H509 0.949 . S
H486 C490 0.949 . S
C487 C488 1.349 . S
C487 C489 1.327 . S
C487 H510 0.950 . S
C488 C487 1.349 . S
C488 C500 1.349 . S
C489 C487 1.327 . S
C489 C505 1.429 . S
C489 H511 0.950 . S
C490 H486 0.949 . S
C490 C498 1.574 . S
C490 C506 1.368 . S
H491 C499 0.950 . S
H492 C497 0.950 . S
H493 C498 0.949 . S
H494 C500 0.950 . S
H495 C501 0.950 . S
H496 C502 0.949 . S
C497 H492 0.950 . S
C497 C499 1.327 . S
C497 C503 1.429 . S
C498 C490 1.574 . S
C498 H493 0.949 . S
C498 C504 1.368 . S
C499 C483 1.349 . S
C499 H491 0.950 . S
C499 C497 1.327 . S
C500 C488 1.349 . S
C500 H494 0.950 . S
C500 C501 1.327 . S
C501 H495 0.950 . S
C501 C500 1.327 . S
C501 C505 1.429 . S
C502 C485 1.574 . S
C502 H496 0.949 . S
C502 C506 1.368 . S
C503 C484 1.429 . S
C503 C497 1.429 . S
C503 C504 1.523 . S
C504 C485 1.368 . S
C504 C498 1.368 . S
C504 C503 1.523 . S
C505 C489 1.429 . S
C505 C501 1.429 . S
C505 C506 1.523 . S
C506 C490 1.368 . S
C506 C502 1.368 . S
C506 C505 1.523 . S
H507 C482 0.950 . S
H508 C484 0.950 . S
H509 C485 0.949 . S
H510 C487 0.950 . S
H511 C489 0.950 . S
C512 C513 1.349 . S
C512 C514 1.327 . S
C512 H537 0.950 . S
C513 C512 1.349 . S
C513 C529 1.349 . S
C514 C512 1.327 . S
C514 C533 1.429 . S
C514 H538 0.950 . S
C515 C532 1.574 . S
C515 C534 1.368 . S
C515 H539 0.949 . S
H516 C520 0.949 . S
C517 C518 1.349 . S
C517 C519 1.327 . S
C517 H540 0.950 . S
C518 C517 1.349 . S
C518 C530 1.349 . S
C519 C517 1.327 . S
C519 C535 1.429 . S
C519 H541 0.950 . S
C520 H516 0.949 . S
C520 C528 1.574 . S
C520 C536 1.368 . S
H521 C529 0.950 . S
H522 C527 0.950 . S
H523 C528 0.949 . S
H524 C530 0.950 . S
H525 C531 0.950 . S
H526 C532 0.949 . S
C527 H522 0.950 . S
C527 C529 1.327 . S
C527 C533 1.429 . S
C528 C520 1.574 . S
C528 H523 0.949 . S
C528 C534 1.368 . S
C529 C513 1.349 . S
C529 H521 0.950 . S
C529 C527 1.327 . S
C530 C518 1.349 . S
C530 H524 0.950 . S
C530 C531 1.327 . S
C531 H525 0.950 . S
C531 C530 1.327 . S
C531 C535 1.429 . S
C532 C515 1.574 . S
C532 H526 0.949 . S
C532 C536 1.368 . S
C533 C514 1.429 . S
C533 C527 1.429 . S
C533 C534 1.523 . S
C534 C515 1.368 . S
C534 C528 1.368 . S
C534 C533 1.523 . S
C535 C519 1.429 . S
C535 C531 1.429 . S
C535 C536 1.523 . S
C536 C520 1.368 . S
C536 C532 1.368 . S
C536 C535 1.523 . S
H537 C512 0.950 . S
H538 C514 0.950 . S
H539 C515 0.949 . S
H540 C517 0.950 . S
H541 C519 0.950 . S
C542 C543 1.349 . S
C542 C544 1.327 . S
C542 H567 0.950 . S
C543 C542 1.349 . S
C543 C559 1.349 . S
C544 C542 1.327 . S
C544 C563 1.429 . S
C544 H568 0.950 . S
C545 C562 1.574 . S
C545 C564 1.368 . S
C545 H569 0.949 . S
H546 C550 0.949 . S
C547 C548 1.349 . S
C547 C549 1.327 . S
C547 H570 0.950 1_565 S
C548 C547 1.349 . S
C548 C560 1.349 . S
C549 C547 1.327 . S
C549 C565 1.429 . S
C549 H571 0.950 . S
C550 H546 0.949 . S
C550 C558 1.574 . S
C550 C566 1.368 . S
H551 C559 0.950 . S
H552 C557 0.950 . S
H553 C558 0.949 . S
H554 C560 0.950 . S
H555 C561 0.950 . S
H556 C562 0.949 . S
C557 H552 0.950 . S
C557 C559 1.327 . S
C557 C563 1.429 . S
C558 C550 1.574 . S
C558 H553 0.949 . S
C558 C564 1.368 . S
C559 C543 1.349 . S
C559 H551 0.950 . S
C559 C557 1.327 . S
C560 C548 1.349 . S
C560 H554 0.950 . S
C560 C561 1.327 . S
C561 H555 0.950 . S
C561 C560 1.327 . S
C561 C565 1.429 . S
C562 C545 1.574 . S
C562 H556 0.949 . S
C562 C566 1.368 . S
C563 C544 1.429 . S
C563 C557 1.429 . S
C563 C564 1.523 . S
C564 C545 1.368 . S
C564 C558 1.368 . S
C564 C563 1.523 . S
C565 C549 1.429 . S
C565 C561 1.429 . S
C565 C566 1.523 . S
C566 C550 1.368 . S
C566 C562 1.368 . S
C566 C565 1.523 . S
H567 C542 0.950 . S
H568 C544 0.950 . S
H569 C545 0.949 . S
H570 C547 0.950 1_545 S
H571 C549 0.950 . S
C572 C573 1.349 . S
C572 C574 1.327 . S
C572 H597 0.950 . S
C573 C572 1.349 . S
C573 C589 1.349 . S
C574 C572 1.327 . S
C574 C593 1.429 . S
C574 H598 0.950 . S
C575 C592 1.574 . S
C575 C594 1.368 . S
C575 H599 0.949 . S
H576 C580 0.949 . S
C577 C578 1.349 . S
C577 C579 1.327 . S
C577 H600 0.950 . S
C578 C577 1.349 . S
C578 C590 1.349 . S
C579 C577 1.327 . S
C579 C595 1.429 . S
C579 H601 0.950 . S
C580 H576 0.949 . S
C580 C588 1.574 . S
C580 C596 1.368 . S
H581 C589 0.950 . S
H582 C587 0.950 . S
H583 C588 0.949 . S
H584 C590 0.950 . S
H585 C591 0.950 . S
H586 C592 0.949 . S
C587 H582 0.950 . S
C587 C589 1.327 . S
C587 C593 1.429 . S
C588 C580 1.574 . S
C588 H583 0.949 . S
C588 C594 1.368 . S
C589 C573 1.349 . S
C589 H581 0.950 . S
C589 C587 1.327 . S
C590 C578 1.349 . S
C590 H584 0.950 . S
C590 C591 1.327 . S
C591 H585 0.950 . S
C591 C590 1.327 . S
C591 C595 1.429 . S
C592 C575 1.574 . S
C592 H586 0.949 . S
C592 C596 1.368 . S
C593 C574 1.429 . S
C593 C587 1.429 . S
C593 C594 1.523 . S
C594 C575 1.368 . S
C594 C588 1.368 . S
C594 C593 1.523 . S
C595 C579 1.429 . S
C595 C591 1.429 . S
C595 C596 1.523 . S
C596 C580 1.368 . S
C596 C592 1.368 . S
C596 C595 1.523 . S
H597 C572 0.950 . S
H598 C574 0.950 . S
H599 C575 0.949 . S
H600 C577 0.950 . S
H601 C579 0.950 . S
C602 C603 1.349 . S
C602 C604 1.327 . S
C602 H627 0.950 . S
C603 C602 1.349 . S
C603 C619 1.349 . S
C604 C602 1.327 . S
C604 C623 1.429 . S
C604 H628 0.950 . S
C605 C622 1.574 . S
C605 C624 1.368 . S
C605 H629 0.949 . S
H606 C610 0.949 . S
C607 C608 1.349 . S
C607 C609 1.327 . S
C607 H630 0.950 . S
C608 C607 1.349 . S
C608 C620 1.349 . S
C609 C607 1.327 . S
C609 C625 1.429 . S
C609 H631 0.950 . S
C610 H606 0.949 . S
C610 C618 1.574 . S
C610 C626 1.368 . S
H611 C619 0.950 . S
H612 C617 0.950 . S
H613 C618 0.949 . S
H614 C620 0.950 . S
H615 C621 0.950 . S
H616 C622 0.949 . S
C617 H612 0.950 . S
C617 C619 1.327 . S
C617 C623 1.429 . S
C618 C610 1.574 . S
C618 H613 0.949 . S
C618 C624 1.368 . S
C619 C603 1.349 . S
C619 H611 0.950 . S
C619 C617 1.327 . S
C620 C608 1.349 . S
C620 H614 0.950 . S
C620 C621 1.327 . S
C621 H615 0.950 . S
C621 C620 1.327 . S
C621 C625 1.429 . S
C622 C605 1.574 . S
C622 H616 0.949 . S
C622 C626 1.368 . S
C623 C604 1.429 . S
C623 C617 1.429 . S
C623 C624 1.523 . S
C624 C605 1.368 . S
C624 C618 1.368 . S
C624 C623 1.523 . S
C625 C609 1.429 . S
C625 C621 1.429 . S
C625 C626 1.523 . S
C626 C610 1.368 . S
C626 C622 1.368 . S
C626 C625 1.523 . S
H627 C602 0.950 . S
H628 C604 0.950 . S
H629 C605 0.949 . S
H630 C607 0.950 . S
H631 C609 0.950 . S
C632 C633 1.349 . S
C632 C634 1.327 . S
C632 H657 0.950 . S
C633 C632 1.349 . S
C633 C649 1.349 . S
C634 C632 1.327 . S
C634 C653 1.429 . S
C634 H658 0.950 . S
C635 C652 1.574 . S
C635 C654 1.368 . S
C635 H659 0.949 . S
H636 C640 0.949 . S
C637 C638 1.349 . S
C637 C639 1.327 . S
C637 H660 0.950 . S
C638 C637 1.349 . S
C638 C650 1.349 . S
C639 C637 1.327 . S
C639 C655 1.429 . S
C639 H661 0.950 . S
C640 H636 0.949 . S
C640 C648 1.574 . S
C640 C656 1.368 . S
H641 C649 0.950 . S
H642 C647 0.950 . S
H643 C648 0.949 . S
H644 C650 0.950 . S
H645 C651 0.950 . S
H646 C652 0.949 . S
C647 H642 0.950 . S
C647 C649 1.327 . S
C647 C653 1.429 . S
C648 C640 1.574 . S
C648 H643 0.949 . S
C648 C654 1.368 . S
C649 C633 1.349 . S
C649 H641 0.950 . S
C649 C647 1.327 . S
C650 C638 1.349 . S
C650 H644 0.950 . S
C650 C651 1.327 . S
C651 H645 0.950 . S
C651 C650 1.327 . S
C651 C655 1.429 . S
C652 C635 1.574 . S
C652 H646 0.949 . S
C652 C656 1.368 . S
C653 C634 1.429 . S
C653 C647 1.429 . S
C653 C654 1.523 . S
C654 C635 1.368 . S
C654 C648 1.368 . S
C654 C653 1.523 . S
C655 C639 1.429 . S
C655 C651 1.429 . S
C655 C656 1.523 . S
C656 C640 1.368 . S
C656 C652 1.368 . S
C656 C655 1.523 . S
H657 C632 0.950 . S
H658 C634 0.950 . S
H659 C635 0.949 . S
H660 C637 0.950 . S
H661 C639 0.950 . S
C662 C663 1.349 . S
C662 C664 1.327 . S
C662 H687 0.950 . S
C663 C662 1.349 . S
C663 C679 1.349 . S
C664 C662 1.327 . S
C664 C683 1.429 . S
C664 H688 0.950 . S
C665 C682 1.574 . S
C665 C684 1.368 . S
C665 H689 0.949 . S
H666 C670 0.949 . S
C667 C668 1.349 . S
C667 C669 1.327 . S
C667 H690 0.958 . S
C668 C667 1.349 . S
C668 C680 1.349 . S
C669 C667 1.327 . S
C669 C685 1.429 . S
C669 H691 0.950 . S
C670 H666 0.949 . S
C670 C678 1.574 . S
C670 C686 1.368 . S
H671 C679 0.950 . S
H672 C677 0.950 . S
H673 C678 0.949 . S
H674 C680 0.950 . S
H675 C681 0.950 . S
H676 C682 0.949 . S
C677 H672 0.950 . S
C677 C679 1.327 . S
C677 C683 1.429 . S
C678 C670 1.574 . S
C678 H673 0.949 . S
C678 C684 1.368 . S
C679 C663 1.349 . S
C679 H671 0.950 . S
C679 C677 1.327 . S
C680 C668 1.349 . S
C680 H674 0.950 . S
C680 C681 1.327 . S
C681 H675 0.950 . S
C681 C680 1.327 . S
C681 C685 1.429 . S
C682 C665 1.574 . S
C682 H676 0.949 . S
C682 C686 1.368 . S
C683 C664 1.429 . S
C683 C677 1.429 . S
C683 C684 1.523 . S
C684 C665 1.368 . S
C684 C678 1.368 . S
C684 C683 1.523 . S
C685 C669 1.429 . S
C685 C681 1.429 . S
C685 C686 1.523 . S
C686 C670 1.368 . S
C686 C682 1.368 . S
C686 C685 1.523 . S
H687 C662 0.950 . S
H688 C664 0.950 . S
H689 C665 0.949 . S
H690 C667 0.958 . S
H691 C669 0.950 . S
C692 C693 1.349 . S
C692 C694 1.327 . S
C692 H717 0.950 . S
C693 C692 1.349 . S
C693 C709 1.349 . S
C694 C692 1.327 . S
C694 C713 1.429 . S
C694 H718 0.950 . S
C695 C712 1.574 . S
C695 C714 1.368 . S
C695 H719 0.949 . S
H696 C700 0.949 . S
C697 C698 1.349 . S
C697 C699 1.327 . S
C697 H720 0.950 . S
C698 C697 1.349 . S
C698 C710 1.349 . S
C699 C697 1.327 . S
C699 C715 1.429 . S
C699 H721 0.950 . S
C700 H696 0.949 . S
C700 C708 1.574 . S
C700 C716 1.368 . S
H701 C709 0.950 . S
H702 C707 0.950 . S
H703 C708 0.949 . S
H704 C710 0.950 . S
H705 C711 0.950 . S
H706 C712 0.949 . S
C707 H702 0.950 . S
C707 C709 1.327 . S
C707 C713 1.429 . S
C708 C700 1.574 . S
C708 H703 0.949 . S
C708 C714 1.368 . S
C709 C693 1.349 . S
C709 H701 0.950 . S
C709 C707 1.327 . S
C710 C698 1.349 . S
C710 H704 0.950 . S
C710 C711 1.327 . S
C711 H705 0.950 . S
C711 C710 1.327 . S
C711 C715 1.429 . S
C712 C695 1.574 . S
C712 H706 0.949 . S
C712 C716 1.368 . S
C713 C694 1.429 . S
C713 C707 1.429 . S
C713 C714 1.523 . S
C714 C695 1.368 . S
C714 C708 1.368 . S
C714 C713 1.523 . S
C715 C699 1.429 . S
C715 C711 1.429 . S
C715 C716 1.523 . S
C716 C700 1.368 . S
C716 C712 1.368 . S
C716 C715 1.523 . S
H717 C692 0.950 . S
H718 C694 0.950 . S
H719 C695 0.949 . S
H720 C697 0.950 . S
H721 C699 0.950 . S
C722 C723 1.349 . S
C722 C724 1.327 . S
C722 H747 0.950 . S
C723 C722 1.349 . S
C723 C739 1.349 . S
C724 C722 1.327 . S
C724 C743 1.429 . S
C724 H748 0.950 . S
C725 C742 1.574 . S
C725 C744 1.368 . S
C725 H749 0.949 . S
H726 C730 0.949 . S
C727 C728 1.349 . S
C727 C729 1.327 . S
C727 H750 0.950 . S
C728 C727 1.349 . S
C728 C740 1.349 . S
C729 C727 1.327 . S
C729 C745 1.429 . S
C729 H751 0.950 . S
C730 H726 0.949 . S
C730 C738 1.574 . S
C730 C746 1.368 . S
H731 C739 0.950 . S
H732 C737 0.950 . S
H733 C738 0.949 . S
H734 C740 0.950 . S
H735 C741 0.950 . S
H736 C742 0.949 . S
C737 H732 0.950 . S
C737 C739 1.327 . S
C737 C743 1.429 . S
C738 C730 1.574 . S
C738 H733 0.949 . S
C738 C744 1.368 . S
C739 C723 1.349 . S
C739 H731 0.950 . S
C739 C737 1.327 . S
C740 C728 1.349 . S
C740 H734 0.950 . S
C740 C741 1.327 . S
C741 H735 0.950 . S
C741 C740 1.327 . S
C741 C745 1.429 . S
C742 C725 1.574 . S
C742 H736 0.949 . S
C742 C746 1.368 . S
C743 C724 1.429 . S
C743 C737 1.429 . S
C743 C744 1.523 . S
C744 C725 1.368 . S
C744 C738 1.368 . S
C744 C743 1.523 . S
C745 C729 1.429 . S
C745 C741 1.429 . S
C745 C746 1.523 . S
C746 C730 1.368 . S
C746 C742 1.368 . S
C746 C745 1.523 . S
H747 C722 0.950 . S
H748 C724 0.950 . S
H749 C725 0.949 . S
H750 C727 0.950 . S
H751 C729 0.950 . S
C752 C753 1.349 . S
C752 C754 1.327 . S
C752 H777 0.950 . S
C753 C752 1.349 . S
C753 C769 1.349 . S
C754 C752 1.327 . S
C754 C773 1.429 . S
C754 H778 0.950 . S
C755 C772 1.574 . S
C755 C774 1.368 . S
C755 H779 0.949 . S
H756 C760 0.949 . S
C757 C758 1.349 . S
C757 C759 1.327 . S
C757 H780 0.950 . S
C758 C757 1.349 . S
C758 C770 1.349 . S
C759 C757 1.327 . S
C759 C775 1.429 . S
C759 H781 0.950 . S
C760 H756 0.949 . S
C760 C768 1.574 . S
C760 C776 1.368 . S
H761 C769 0.950 . S
H762 C767 0.950 . S
H763 C768 0.949 . S
H764 C770 0.950 . S
H765 C771 0.950 . S
H766 C772 0.949 . S
C767 H762 0.950 . S
C767 C769 1.327 . S
C767 C773 1.429 . S
C768 C760 1.574 . S
C768 H763 0.949 . S
C768 C774 1.368 . S
C769 C753 1.349 . S
C769 H761 0.950 . S
C769 C767 1.327 . S
C770 C758 1.349 . S
C770 H764 0.950 . S
C770 C771 1.327 . S
C771 H765 0.950 . S
C771 C770 1.327 . S
C771 C775 1.429 . S
C772 C755 1.574 . S
C772 H766 0.949 . S
C772 C776 1.368 . S
C773 C754 1.429 . S
C773 C767 1.429 . S
C773 C774 1.523 . S
C774 C755 1.368 . S
C774 C768 1.368 . S
C774 C773 1.523 . S
C775 C759 1.429 . S
C775 C771 1.429 . S
C775 C776 1.523 . S
C776 C760 1.368 . S
C776 C772 1.368 . S
C776 C775 1.523 . S
H777 C752 0.950 . S
H778 C754 0.950 . S
H779 C755 0.949 . S
H780 C757 0.950 . S
H781 C759 0.950 . S
C782 C783 1.349 . S
C782 C784 1.327 . S
C782 H807 0.950 . S
C783 C782 1.349 . S
C783 C799 1.349 . S
C784 C782 1.327 . S
C784 C803 1.429 . S
C784 H808 0.950 . S
C785 C802 1.574 . S
C785 C804 1.368 . S
C785 H809 0.949 . S
H786 C790 0.949 . S
C787 C788 1.349 . S
C787 C789 1.327 . S
C787 H810 0.950 . S
C788 C787 1.349 . S
C788 C800 1.349 . S
C789 C787 1.327 . S
C789 C805 1.429 . S
C789 H811 0.950 . S
C790 H786 0.949 . S
C790 C798 1.574 . S
C790 C806 1.368 . S
H791 C799 0.950 . S
H792 C797 0.950 . S
H793 C798 0.949 . S
H794 C800 0.950 . S
H795 C801 0.950 . S
H796 C802 0.949 . S
C797 H792 0.950 . S
C797 C799 1.327 . S
C797 C803 1.429 . S
C798 C790 1.574 . S
C798 H793 0.949 . S
C798 C804 1.368 . S
C799 C783 1.349 . S
C799 H791 0.950 . S
C799 C797 1.327 . S
C800 C788 1.349 . S
C800 H794 0.950 . S
C800 C801 1.327 . S
C801 H795 0.950 . S
C801 C800 1.327 . S
C801 C805 1.429 . S
C802 C785 1.574 . S
C802 H796 0.949 . S
C802 C806 1.368 . S
C803 C784 1.429 . S
C803 C797 1.429 . S
C803 C804 1.523 . S
C804 C785 1.368 . S
C804 C798 1.368 . S
C804 C803 1.523 . S
C805 C789 1.429 . S
C805 C801 1.429 . S
C805 C806 1.523 . S
C806 C790 1.368 . S
C806 C802 1.368 . S
C806 C805 1.523 . S
H807 C782 0.950 . S
H808 C784 0.950 . S
H809 C785 0.949 . S
H810 C787 0.950 . S
H811 C789 0.950 . S
C812 C813 1.349 . S
C812 C814 1.327 . S
C812 H837 0.950 . S
C813 C812 1.349 . S
C813 C829 1.349 . S
C814 C812 1.327 . S
C814 C833 1.429 . S
C814 H838 0.950 . S
C815 C832 1.574 . S
C815 C834 1.368 . S
C815 H839 0.949 . S
H816 C820 0.949 . S
C817 C818 1.349 . S
C817 C819 1.327 . S
C817 H840 0.950 . S
C818 C817 1.349 . S
C818 C830 1.349 . S
C819 C817 1.327 . S
C819 C835 1.429 . S
C819 H841 0.950 . S
C820 H816 0.949 . S
C820 C828 1.574 . S
C820 C836 1.368 . S
H821 C829 0.950 . S
H822 C827 0.950 . S
H823 C828 0.949 . S
H824 C830 0.950 . S
H825 C831 0.950 . S
H826 C832 0.949 . S
C827 H822 0.950 . S
C827 C829 1.327 . S
C827 C833 1.429 . S
C828 C820 1.574 . S
C828 H823 0.949 . S
C828 C834 1.368 . S
C829 C813 1.349 . S
C829 H821 0.950 . S
C829 C827 1.327 . S
C830 C818 1.349 . S
C830 H824 0.950 . S
C830 C831 1.327 . S
C831 H825 0.950 . S
C831 C830 1.327 . S
C831 C835 1.429 . S
C832 C815 1.574 . S
C832 H826 0.949 . S
C832 C836 1.368 . S
C833 C814 1.429 . S
C833 C827 1.429 . S
C833 C834 1.523 . S
C834 C815 1.368 . S
C834 C828 1.368 . S
C834 C833 1.523 . S
C835 C819 1.429 . S
C835 C831 1.429 . S
C835 C836 1.523 . S
C836 C820 1.368 . S
C836 C832 1.368 . S
C836 C835 1.523 . S
H837 C812 0.950 . S
H838 C814 0.950 . S
H839 C815 0.949 . S
H840 C817 0.950 . S
H841 C819 0.950 . S
C842 C843 1.349 . S
C842 C844 1.327 . S
C842 H867 0.950 . S
C843 C842 1.349 . S
C843 C859 1.349 . S
C844 C842 1.327 . S
C844 C863 1.429 . S
C844 H868 0.950 . S
C845 C862 1.574 . S
C845 C864 1.368 . S
C845 H869 0.949 . S
H846 C850 0.949 . S
C847 C848 1.349 . S
C847 C849 1.327 . S
C847 H870 0.950 . S
C848 C847 1.349 . S
C848 C860 1.349 . S
C849 C847 1.327 . S
C849 C865 1.429 . S
C849 H871 0.950 . S
C850 H846 0.949 . S
C850 C858 1.574 . S
C850 C866 1.368 . S
H851 C859 0.950 . S
H852 C857 0.950 . S
H853 C858 0.949 . S
H854 C860 0.950 . S
H855 C861 0.950 . S
H856 C862 0.949 . S
C857 H852 0.950 . S
C857 C859 1.327 . S
C857 C863 1.429 . S
C858 C850 1.574 . S
C858 H853 0.949 . S
C858 C864 1.368 . S
C859 C843 1.349 . S
C859 H851 0.950 . S
C859 C857 1.327 . S
C860 C848 1.349 . S
C860 H854 0.950 . S
C860 C861 1.327 . S
C861 H855 0.950 . S
C861 C860 1.327 . S
C861 C865 1.429 . S
C862 C845 1.574 . S
C862 H856 0.949 . S
C862 C866 1.368 . S
C863 C844 1.429 . S
C863 C857 1.429 . S
C863 C864 1.523 . S
C864 C845 1.368 . S
C864 C858 1.368 . S
C864 C863 1.523 . S
C865 C849 1.429 . S
C865 C861 1.429 . S
C865 C866 1.523 . S
C866 C850 1.368 . S
C866 C862 1.368 . S
C866 C865 1.523 . S
H867 C842 0.950 . S
H868 C844 0.950 . S
H869 C845 0.949 . S
H870 C847 0.950 . S
H871 C849 0.950 . S
C872 C873 1.349 . S
C872 C874 1.327 . S
C872 H897 0.950 . S
C873 C872 1.349 . S
C873 C889 1.349 . S
C874 C872 1.327 . S
C874 C893 1.429 . S
C874 H898 0.950 . S
C875 C892 1.574 . S
C875 C894 1.368 . S
C875 H899 0.949 . S
H876 C880 0.949 . S
C877 C878 1.349 . S
C877 C879 1.327 . S
C877 H900 0.950 . S
C878 C877 1.349 . S
C878 C890 1.349 . S
C879 C877 1.327 . S
C879 C895 1.429 . S
C879 H901 0.950 . S
C880 H876 0.949 . S
C880 C888 1.574 . S
C880 C896 1.368 . S
H881 C889 0.950 . S
H882 C887 0.950 . S
H883 C888 0.949 . S
H884 C890 0.950 . S
H885 C891 0.950 . S
H886 C892 0.949 . S
C887 H882 0.950 . S
C887 C889 1.327 . S
C887 C893 1.429 . S
C888 C880 1.574 . S
C888 H883 0.949 . S
C888 C894 1.368 . S
C889 C873 1.349 . S
C889 H881 0.950 . S
C889 C887 1.327 . S
C890 C878 1.349 . S
C890 H884 0.950 . S
C890 C891 1.327 . S
C891 H885 0.950 . S
C891 C890 1.327 . S
C891 C895 1.429 . S
C892 C875 1.574 . S
C892 H886 0.949 . S
C892 C896 1.368 . S
C893 C874 1.429 . S
C893 C887 1.429 . S
C893 C894 1.523 . S
C894 C875 1.368 . S
C894 C888 1.368 . S
C894 C893 1.523 . S
C895 C879 1.429 . S
C895 C891 1.429 . S
C895 C896 1.523 . S
C896 C880 1.368 . S
C896 C892 1.368 . S
C896 C895 1.523 . S
H897 C872 0.950 . S
H898 C874 0.950 . S
H899 C875 0.949 . S
H900 C877 0.950 . S
H901 C879 0.950 . S
C902 C903 1.349 . S
C902 C904 1.327 . S
C902 H927 0.950 . S
C903 C902 1.349 . S
C903 C919 1.349 . S
C904 C902 1.327 . S
C904 C923 1.429 . S
C904 H928 0.950 . S
C905 C922 1.574 . S
C905 C924 1.368 . S
C905 H929 0.949 . S
H906 C910 0.949 . S
C907 C908 1.349 . S
C907 C909 1.327 . S
C907 H930 0.950 . S
C908 C907 1.349 . S
C908 C920 1.349 . S
C909 C907 1.327 . S
C909 C925 1.429 . S
C909 H931 0.950 . S
C910 H906 0.949 . S
C910 C918 1.574 . S
C910 C926 1.368 . S
H911 C919 0.950 . S
H912 C917 0.950 . S
H913 C918 0.949 . S
H914 C920 0.950 . S
H915 C921 0.950 . S
H916 C922 0.949 . S
C917 H912 0.950 . S
C917 C919 1.327 . S
C917 C923 1.429 . S
C918 C910 1.574 . S
C918 H913 0.949 . S
C918 C924 1.368 . S
C919 C903 1.349 . S
C919 H911 0.950 . S
C919 C917 1.327 . S
C920 C908 1.349 . S
C920 H914 0.950 . S
C920 C921 1.327 . S
C921 H915 0.950 . S
C921 C920 1.327 . S
C921 C925 1.429 . S
C922 C905 1.574 . S
C922 H916 0.949 . S
C922 C926 1.368 . S
C923 C904 1.429 . S
C923 C917 1.429 . S
C923 C924 1.523 . S
C924 C905 1.368 . S
C924 C918 1.368 . S
C924 C923 1.523 . S
C925 C909 1.429 . S
C925 C921 1.429 . S
C925 C926 1.523 . S
C926 C910 1.368 . S
C926 C922 1.368 . S
C926 C925 1.523 . S
H927 C902 0.950 . S
H928 C904 0.950 . S
H929 C905 0.949 . S
H930 C907 0.950 . S
H931 C909 0.950 . S
C932 C933 1.349 . S
C932 C934 1.327 . S
C932 H957 0.950 . S
C933 C932 1.349 . S
C933 C949 1.349 . S
C934 C932 1.327 . S
C934 C953 1.429 . S
C934 H958 0.950 . S
C935 C952 1.574 . S
C935 C954 1.368 . S
C935 H959 0.949 . S
H936 C940 0.949 . S
C937 C938 1.349 . S
C937 C939 1.327 . S
C937 H960 0.950 . S
C938 C937 1.349 . S
C938 C950 1.349 . S
C939 C937 1.327 . S
C939 C955 1.429 . S
C939 H961 0.950 . S
C940 H936 0.949 . S
C940 C948 1.574 . S
C940 C956 1.368 . S
H941 C949 0.950 . S
H942 C947 0.950 . S
H943 C948 0.949 . S
H944 C950 0.950 . S
H945 C951 0.950 . S
H946 C952 0.949 . S
C947 H942 0.950 . S
C947 C949 1.327 . S
C947 C953 1.429 . S
C948 C940 1.574 . S
C948 H943 0.949 . S
C948 C954 1.368 . S
C949 C933 1.349 . S
C949 H941 0.950 . S
C949 C947 1.327 . S
C950 C938 1.349 . S
C950 H944 0.950 . S
C950 C951 1.327 . S
C951 H945 0.950 . S
C951 C950 1.327 . S
C951 C955 1.429 . S
C952 C935 1.574 . S
C952 H946 0.949 . S
C952 C956 1.368 . S
C953 C934 1.429 . S
C953 C947 1.429 . S
C953 C954 1.523 . S
C954 C935 1.368 . S
C954 C948 1.368 . S
C954 C953 1.523 . S
C955 C939 1.429 . S
C955 C951 1.429 . S
C955 C956 1.523 . S
C956 C940 1.368 . S
C956 C952 1.368 . S
C956 C955 1.523 . S
H957 C932 0.950 . S
H958 C934 0.950 . S
H959 C935 0.949 . S
H960 C937 0.950 . S
H961 C939 0.950 . S
C962 C963 1.349 . S
C962 C964 1.327 . S
C962 H987 0.950 . S
C963 C962 1.349 . S
C963 C979 1.349 . S
C964 C962 1.327 . S
C964 C983 1.429 . S
C964 H988 0.950 . S
C965 C982 1.574 . S
C965 C984 1.368 . S
C965 H989 0.949 . S
H966 C970 0.949 . S
C967 C968 1.349 . S
C967 C969 1.327 . S
C967 H990 0.950 . S
C968 C967 1.349 . S
C968 C980 1.349 . S
C969 C967 1.327 . S
C969 C985 1.429 . S
C969 H991 0.950 . S
C970 H966 0.949 . S
C970 C978 1.574 . S
C970 C986 1.368 . S
H971 C979 0.950 . S
H972 C977 0.950 . S
H973 C978 0.949 . S
H974 C980 0.950 . S
H975 C981 0.950 . S
H976 C982 0.949 . S
C977 H972 0.950 . S
C977 C979 1.327 . S
C977 C983 1.429 . S
C978 C970 1.574 . S
C978 H973 0.949 . S
C978 C984 1.368 . S
C979 C963 1.349 . S
C979 H971 0.950 . S
C979 C977 1.327 . S
C980 C968 1.349 . S
C980 H974 0.950 . S
C980 C981 1.327 . S
C981 H975 0.950 . S
C981 C980 1.327 . S
C981 C985 1.429 . S
C982 C965 1.574 . S
C982 H976 0.949 . S
C982 C986 1.368 . S
C983 C964 1.429 . S
C983 C977 1.429 . S
C983 C984 1.523 . S
C984 C965 1.368 . S
C984 C978 1.368 . S
C984 C983 1.523 . S
C985 C969 1.429 . S
C985 C981 1.429 . S
C985 C986 1.523 . S
C986 C970 1.368 . S
C986 C982 1.368 . S
C986 C985 1.523 . S
H987 C962 0.950 . S
H988 C964 0.950 . S
H989 C965 0.949 . S
H990 C967 0.950 . S
H991 C969 0.950 . S
C992 C993 1.349 . S
C992 C994 1.327 . S
C992 H1017 0.950 . S
C993 C992 1.349 . S
C993 C1009 1.349 . S
C994 C992 1.327 . S
C994 C1013 1.429 . S
C994 H1018 0.950 . S
C995 C1012 1.574 . S
C995 C1014 1.368 . S
C995 H1019 0.949 . S
H996 C1000 0.949 . S
C997 C998 1.349 . S
C997 C999 1.327 . S
C997 H1020 0.950 . S
C998 C997 1.349 . S
C998 C1010 1.349 . S
C999 C997 1.327 . S
C999 C1015 1.429 . S
C999 H1021 0.950 . S
C1000 H996 0.949 . S
C1000 C1008 1.574 . S
C1000 C1016 1.368 . S
H1001 C1009 0.950 . S
H1002 C1007 0.950 . S
H1003 C1008 0.949 . S
H1004 C1010 0.950 . S
H1005 C1011 0.950 . S
H1006 C1012 0.949 . S
C1007 H1002 0.950 . S
C1007 C1009 1.327 . S
C1007 C1013 1.429 . S
C1008 C1000 1.574 . S
C1008 H1003 0.949 . S
C1008 C1014 1.368 . S
C1009 C993 1.349 . S
C1009 H1001 0.950 . S
C1009 C1007 1.327 . S
C1010 C998 1.349 . S
C1010 H1004 0.950 . S
C1010 C1011 1.327 . S
C1011 H1005 0.950 . S
C1011 C1010 1.327 . S
C1011 C1015 1.429 . S
C1012 C995 1.574 . S
C1012 H1006 0.949 . S
C1012 C1016 1.368 . S
C1013 C994 1.429 . S
C1013 C1007 1.429 . S
C1013 C1014 1.523 . S
C1014 C995 1.368 . S
C1014 C1008 1.368 . S
C1014 C1013 1.523 . S
C1015 C999 1.429 . S
C1015 C1011 1.429 . S
C1015 C1016 1.523 . S
C1016 C1000 1.368 . S
C1016 C1012 1.368 . S
C1016 C1015 1.523 . S
H1017 C992 0.950 . S
H1018 C994 0.950 . S
H1019 C995 0.949 . S
H1020 C997 0.950 . S
H1021 C999 0.950 . S
C1022 C1023 1.349 . S
C1022 C1024 1.327 . S
C1022 H1047 0.950 . S
C1023 C1022 1.349 . S
C1023 C1039 1.349 . S
C1024 C1022 1.327 . S
C1024 C1043 1.429 . S
C1024 H1048 0.950 . S
C1025 C1042 1.574 . S
C1025 C1044 1.368 . S
C1025 H1049 0.949 . S
H1026 C1030 0.949 . S
C1027 C1028 1.349 . S
C1027 C1029 1.327 . S
C1027 H1050 0.950 . S
C1028 C1027 1.349 . S
C1028 C1040 1.349 . S
C1029 C1027 1.327 . S
C1029 C1045 1.429 . S
C1029 H1051 0.950 . S
C1030 H1026 0.949 . S
C1030 C1038 1.574 . S
C1030 C1046 1.368 . S
H1031 C1039 0.950 . S
H1032 C1037 0.950 . S
H1033 C1038 0.949 . S
H1034 C1040 0.917 1_556 S
H1035 C1041 0.950 . S
H1036 C1042 0.949 . S
C1037 H1032 0.950 . S
C1037 C1039 1.327 . S
C1037 C1043 1.429 . S
C1038 C1030 1.574 . S
C1038 H1033 0.949 . S
C1038 C1044 1.368 . S
C1039 C1023 1.349 . S
C1039 H1031 0.950 . S
C1039 C1037 1.327 . S
C1040 C1028 1.349 . S
C1040 H1034 0.917 1_554 S
C1040 C1041 1.327 . S
C1041 H1035 0.950 . S
C1041 C1040 1.327 . S
C1041 C1045 1.429 . S
C1042 C1025 1.574 . S
C1042 H1036 0.949 . S
C1042 C1046 1.368 . S
C1043 C1024 1.429 . S
C1043 C1037 1.429 . S
C1043 C1044 1.523 . S
C1044 C1025 1.368 . S
C1044 C1038 1.368 . S
C1044 C1043 1.523 . S
C1045 C1029 1.429 . S
C1045 C1041 1.429 . S
C1045 C1046 1.523 . S
C1046 C1030 1.368 . S
C1046 C1042 1.368 . S
C1046 C1045 1.523 . S
H1047 C1022 0.950 . S
H1048 C1024 0.950 . S
H1049 C1025 0.949 . S
H1050 C1027 0.950 . S
H1051 C1029 0.950 . S
C1052 C1053 1.349 . S
C1052 C1054 1.327 . S
C1052 H1077 0.950 . S
C1053 C1052 1.349 . S
C1053 C1069 1.349 . S
C1054 C1052 1.327 . S
C1054 C1073 1.429 . S
C1054 H1078 0.950 . S
C1055 C1072 1.574 . S
C1055 C1074 1.368 . S
C1055 H1079 0.949 . S
H1056 C1060 0.949 . S
C1057 C1058 1.349 . S
C1057 C1059 1.327 . S
C1057 H1080 0.950 . S
C1058 C1057 1.349 . S
C1058 C1070 1.349 . S
C1059 C1057 1.327 . S
C1059 C1075 1.429 . S
C1059 H1081 0.950 . S
C1060 H1056 0.949 . S
C1060 C1068 1.574 . S
C1060 C1076 1.368 . S
H1061 C1069 0.950 . S
H1062 C1067 0.950 . S
H1063 C1068 0.949 . S
H1064 C1070 0.950 1_655 S
H1065 C1071 0.950 . S
H1066 C1072 0.949 . S
C1067 H1062 0.950 . S
C1067 C1069 1.327 . S
C1067 C1073 1.429 . S
C1068 C1060 1.574 . S
C1068 H1063 0.949 . S
C1068 C1074 1.368 . S
C1069 C1053 1.349 . S
C1069 H1061 0.950 . S
C1069 C1067 1.327 . S
C1070 C1058 1.349 . S
C1070 H1064 0.950 1_455 S
C1070 C1071 1.327 . S
C1071 H1065 0.950 . S
C1071 C1070 1.327 . S
C1071 C1075 1.429 . S
C1072 C1055 1.574 . S
C1072 H1066 0.949 . S
C1072 C1076 1.368 . S
C1073 C1054 1.429 . S
C1073 C1067 1.429 . S
C1073 C1074 1.523 . S
C1074 C1055 1.368 . S
C1074 C1068 1.368 . S
C1074 C1073 1.523 . S
C1075 C1059 1.429 . S
C1075 C1071 1.429 . S
C1075 C1076 1.523 . S
C1076 C1060 1.368 . S
C1076 C1072 1.368 . S
C1076 C1075 1.523 . S
H1077 C1052 0.950 . S
H1078 C1054 0.950 . S
H1079 C1055 0.949 . S
H1080 C1057 0.950 . S
H1081 C1059 0.950 . S
C1082 C1083 1.349 . S
C1082 C1084 1.327 . S
C1082 H1107 0.950 . S
C1083 C1082 1.349 . S
C1083 C1099 1.349 . S
C1084 C1082 1.327 . S
C1084 C1103 1.429 . S
C1084 H1108 0.950 . S
C1085 C1102 1.574 . S
C1085 C1104 1.368 . S
C1085 H1109 0.949 . S
H1086 C1090 0.949 . S
C1087 C1088 1.349 . S
C1087 C1089 1.327 . S
C1087 H1110 0.950 . S
C1088 C1087 1.349 . S
C1088 C1100 1.349 . S
C1089 C1087 1.327 . S
C1089 C1105 1.429 . S
C1089 H1111 0.950 . S
C1090 H1086 0.949 . S
C1090 C1098 1.574 . S
C1090 C1106 1.368 . S
H1091 C1099 0.950 . S
H1092 C1097 0.950 . S
H1093 C1098 0.949 . S
H1094 C1100 0.950 . S
H1095 C1101 0.950 . S
H1096 C1102 0.949 . S
C1097 H1092 0.950 . S
C1097 C1099 1.327 . S
C1097 C1103 1.429 . S
C1098 C1090 1.574 . S
C1098 H1093 0.949 . S
C1098 C1104 1.368 . S
C1099 C1083 1.349 . S
C1099 H1091 0.950 . S
C1099 C1097 1.327 . S
C1100 C1088 1.349 . S
C1100 H1094 0.950 . S
C1100 C1101 1.327 . S
C1101 H1095 0.950 . S
C1101 C1100 1.327 . S
C1101 C1105 1.429 . S
C1102 C1085 1.574 . S
C1102 H1096 0.949 . S
C1102 C1106 1.368 . S
C1103 C1084 1.429 . S
C1103 C1097 1.429 . S
C1103 C1104 1.523 . S
C1104 C1085 1.368 . S
C1104 C1098 1.368 . S
C1104 C1103 1.523 . S
C1105 C1089 1.429 . S
C1105 C1101 1.429 . S
C1105 C1106 1.523 . S
C1106 C1090 1.368 . S
C1106 C1102 1.368 . S
C1106 C1105 1.523 . S
H1107 C1082 0.950 . S
H1108 C1084 0.950 . S
H1109 C1085 0.949 . S
H1110 C1087 0.950 . S
H1111 C1089 0.950 . S
C393 C1 1.551 . S
C398 C314 1.565 . S
C423 C40 1.392 . S
C428 C333 1.366 . S
C458 C370 1.726 . S
C453 C99 1.752 . S
C483 C118 1.666 . S
C488 C380 1.617 . S
C518 C350 2.060 . S
C513 C16 2.031 . S
C548 C320 1.450 . S
C543 C60 1.510 . S
C578 C391 1.491 . S
C573 C79 1.513 . S
C608 C361 1.321 . S
C603 C138 1.343 . S
C633 C21 1.801 . S
C638 C374 1.820 . S
C668 C341 1.710 . S
C663 C94 1.762 . S
C693 C133 1.714 . S
C698 C331 1.710 . S
C723 C55 1.218 . S
C728 C353 1.210 . S
C758 C313 1.569 . S
C753 C157 1.561 . S
C783 C196 1.394 . S
C788 C334 1.366 . S
C813 C255 1.748 . S
C818 C371 1.724 . S
C843 C289 1.664 . S
C848 C381 1.613 . S
C873 C172 2.025 . S
C878 C351 2.058 . S
C908 C321 1.451 . S
C903 C216 1.516 . S
C938 C390 1.492 . S
C933 C235 1.514 . S
C968 C360 1.320 . S
C963 C294 1.343 . S
C993 C177 1.812 . S
C998 C373 1.819 . S
C1028 C340 1.712 . S
C1023 C250 1.764 . S
C1058 C330 1.715 . S
C1053 C274 1.717 . S
C1083 C211 1.212 . S
C1088 C354 1.206 . S
