# Generated by pormake.
# Topology anh, (6,3)-cn, num edge types: 1
# Building blocks:
#     Node 0, Type 0, BuildingBlock: BETDAH_clean_sbu_0, # of connection points: 6
#     Node 1, Type 0, BuildingBlock: BETDAH_clean_sbu_0, # of connection points: 6
#     Node 2, Type 0, BuildingBlock: BETDAH_clean_sbu_0, # of connection points: 6
#     Node 3, Type 1, BuildingBlock: BELTOD_clean_linker_0, # of connection points: 3
#     Node 4, Type 1, BuildingBlock: BELTOD_clean_linker_0, # of connection points: 3
#     Node 5, Type 1, BuildingBlock: BELTOD_clean_linker_0, # of connection points: 3
#     Node 6, Type 1, BuildingBlock: BELTOD_clean_linker_0, # of connection points: 3
#     Node 7, Type 1, BuildingBlock: BELTOD_clean_linker_0, # of connection points: 3
#     Node 8, Type 1, BuildingBlock: BELTOD_clean_linker_0, # of connection points: 3
#     Edge 9, Type (0, 1), BuildingBlock: EZIPEK_clean_linker_0, # of connection points: 2
#     Edge 10, Type (0, 1), BuildingBlock: EZIPEK_clean_linker_0, # of connection points: 2
#     Edge 11, Type (0, 1), BuildingBlock: EZIPEK_clean_linker_0, # of connection points: 2
#     Edge 12, Type (0, 1), BuildingBlock: EZIPEK_clean_linker_0, # of connection points: 2
#     Edge 13, Type (0, 1), BuildingBlock: EZIPEK_clean_linker_0, # of connection points: 2
#     Edge 14, Type (0, 1), BuildingBlock: EZIPEK_clean_linker_0, # of connection points: 2
#     Edge 15, Type (0, 1), BuildingBlock: EZIPEK_clean_linker_0, # of connection points: 2
#     Edge 16, Type (0, 1), BuildingBlock: EZIPEK_clean_linker_0, # of connection points: 2
#     Edge 17, Type (0, 1), BuildingBlock: EZIPEK_clean_linker_0, # of connection points: 2
#     Edge 18, Type (0, 1), BuildingBlock: EZIPEK_clean_linker_0, # of connection points: 2
#     Edge 19, Type (0, 1), BuildingBlock: EZIPEK_clean_linker_0, # of connection points: 2
#     Edge 20, Type (0, 1), BuildingBlock: EZIPEK_clean_linker_0, # of connection points: 2
#     Edge 21, Type (0, 1), BuildingBlock: EZIPEK_clean_linker_0, # of connection points: 2
#     Edge 22, Type (0, 1), BuildingBlock: EZIPEK_clean_linker_0, # of connection points: 2
#     Edge 23, Type (0, 1), BuildingBlock: EZIPEK_clean_linker_0, # of connection points: 2
#     Edge 24, Type (0, 1), BuildingBlock: EZIPEK_clean_linker_0, # of connection points: 2
#     Edge 25, Type (0, 1), BuildingBlock: EZIPEK_clean_linker_0, # of connection points: 2
#     Edge 26, Type (0, 1), BuildingBlock: EZIPEK_clean_linker_0, # of connection points: 2
# Relax obj value: 0.219
# Max RMSD: 0.229
# Mean RMSD: 0.160
data_MOF--net-anh--node1-BETDAH_clean_sbu_0--node2-BELTOD_clean_linker_0--edge1-EZIPEK_clean_linker_0
_symmetry_space_group_name_H-M    P1
_symmetry_Int_Tables_number       1
_symmetry_cell_setting            triclinic
loop_
_symmetry_equiv_pos_as_xyz
'x, y, z'
_cell_length_a     26.544616
_cell_length_b     32.792541
_cell_length_c     46.837728
_cell_angle_alpha  92.362153
_cell_angle_beta   88.83021
_cell_angle_gamma 130.34845
loop_
_atom_site_label
_atom_site_type_symbol
_atom_site_fract_x
_atom_site_fract_y
_atom_site_fract_z
_atom_type_partial_charge
Ho0 Ho 0.17172 0.54051 0.13718 0.0
Ho1 Ho 1.08361 0.56218 0.15668 0.0
C2 C 0.23801 0.66332 0.15158 0.0
C3 C 0.25874 0.53919 0.1127 0.0
C4 C 0.32068 0.55427 0.12291 0.0
C5 C 0.35788 0.59342 0.14499 0.0
C6 C 0.41203 0.60205 0.15704 0.0
C7 C 0.42824 0.5708 0.14743 0.0
C8 C 0.39221 0.53308 0.12474 0.0
C9 C 0.33895 0.52499 0.11253 0.0
C10 C 0.14934 0.53082 0.19407 0.0
C11 C 1.01981 0.44123 0.14547 0.0
C12 C 1.01403 0.57818 0.18537 0.0
C13 C 0.94212 0.54003 0.19031 0.0
C14 C 0.9178 0.51594 0.21695 0.0
C15 C 0.85099 0.47126 0.22008 0.0
C16 C 0.8079 0.45073 0.19664 0.0
C17 C 0.83119 0.47648 0.17058 0.0
C18 C 0.89769 0.52073 0.16739 0.0
C19 C 1.07593 0.53959 0.09932 0.0
O20 O 0.24816 0.629 0.1475 0.0
O21 O 0.17801 0.64752 0.15401 0.0
O22 O 0.20573 0.49775 0.12473 0.0
O23 O 0.25758 0.57802 0.11019 0.0
O24 O 0.15922 0.50288 0.17887 0.0
O25 O 0.15832 0.56571 0.17887 0.0
O26 O 1.01951 0.47369 0.16287 0.0
O27 O 1.06981 0.46065 0.12794 0.0
O28 O 1.03361 0.59437 0.15922 0.0
O29 O 1.04617 0.5654 0.19718 0.0
O30 O 1.02583 0.5238 0.11511 0.0
O31 O 0.12733 0.56783 0.11461 0.0
H32 H 0.34385 0.61602 0.15348 0.0
H33 H 0.43958 0.63145 0.17441 0.0
H34 H 0.40412 0.50856 0.11708 0.0
H35 H 0.31044 0.49439 0.09573 0.0
H36 H 0.9511 0.52994 0.23493 0.0
H37 H 0.83334 0.45188 0.24037 0.0
H38 H 0.79808 0.46112 0.15238 0.0
H39 H 0.91459 0.53806 0.14656 0.0
Ho40 Ho 0.66617 0.03585 0.46913 0.0
Ho41 Ho 0.57515 0.06063 0.46117 0.0
C42 C 0.50755 0.93716 0.46005 0.0
C43 C 0.72329 1.0028 0.48949 0.0
C44 C 0.70723 0.9516 0.49449 0.0
C45 C 0.64491 0.90757 0.50464 0.0
C46 C 0.63316 0.8611 0.51181 0.0
C47 C 0.68341 0.85817 0.50866 0.0
C48 C 0.74461 0.90124 0.49746 0.0
C49 C 0.75647 0.94773 0.49046 0.0
C50 C 0.65117 0.04884 0.41438 0.0
C51 C 0.73583 0.15849 0.4646 0.0
C52 C 0.52109 0.09958 0.44644 0.0
C53 C 0.53395 0.14815 0.4574 0.0
C54 C 0.51568 0.17221 0.44156 0.0
C55 C 0.53072 0.21972 0.45191 0.0
C56 C 0.56419 0.24337 0.47812 0.0
C57 C 0.58213 0.21912 0.49395 0.0
C58 C 0.56722 0.17189 0.48364 0.0
C59 C 0.59716 0.05328 0.51631 0.0
O60 O 0.56508 0.95318 0.46907 0.0
O61 O 0.50057 0.97176 0.45253 0.0
O62 O 0.72873 0.01548 0.46282 0.0
O63 O 0.69212 0.01406 0.50527 0.0
O64 O 0.70455 0.06121 0.42481 0.0
O65 O 0.60566 0.02509 0.43276 0.0
O66 O 0.67736 0.14176 0.45655 0.0
O67 O 0.74262 0.1252 0.47467 0.0
O68 O 0.4948 0.06173 0.46479 0.0
O69 O 0.56985 0.1078 0.43238 0.0
O70 O 0.54328 0.04156 0.5073 0.0
O71 O 0.63809 0.07365 0.49628 0.0
H72 H 0.60606 0.90963 0.50777 0.0
H73 H 0.58575 0.82813 0.52054 0.0
H74 H 0.78388 0.89949 0.49507 0.0
H75 H 0.80473 0.98124 0.48263 0.0
H76 H 0.49038 0.15453 0.42119 0.0
H77 H 0.51674 0.23821 0.43948 0.0
H78 H 0.60818 0.23707 0.51415 0.0
H79 H 0.58204 0.15399 0.49607 0.0
Ho80 Ho 0.61741 0.55512 0.84988 0.0
Ho81 Ho 0.52874 0.43622 0.83539 0.0
C82 C 0.46061 0.48943 0.84328 0.0
C83 C 0.70066 0.65843 0.84652 0.0
C84 C 0.69465 0.69853 0.83959 0.0
C85 C 0.6342 0.68239 0.82981 0.0
C86 C 0.6307 0.72001 0.81959 0.0
C87 C 0.6875 0.77429 0.81923 0.0
C88 C 0.7474 0.79071 0.82995 0.0
C89 C 0.75098 0.753 0.83998 0.0
C90 C 0.55559 0.49115 0.89529 0.0
C91 C 0.6876 0.5027 0.84545 0.0
C92 C 0.47169 0.33557 0.83115 0.0
C93 C 0.49638 0.30633 0.82762 0.0
C94 C 0.45694 0.25284 0.8355 0.0
C95 C 0.47768 0.22346 0.8297 0.0
C96 C 0.53816 0.24742 0.81601 0.0
C97 C 0.57847 0.30134 0.80894 0.0
C98 C 0.55775 0.33056 0.81466 0.0
C99 C 0.56457 0.49919 0.79037 0.0
O100 O 0.52046 0.53586 0.83891 0.0
O101 O 0.45245 0.44544 0.84672 0.0
O102 O 0.67516 0.63421 0.87063 0.0
O103 O 0.68661 0.62528 0.82536 0.0
O104 O 0.56848 0.53646 0.89306 0.0
O105 O 0.58021 0.48456 0.87431 0.0
O106 O 0.62981 0.45797 0.8358 0.0
O107 O 0.69444 0.54528 0.854 0.0
O108 O 0.48211 0.36394 0.80953 0.0
O109 O 0.48374 0.36108 0.85567 0.0
O110 O 0.50609 0.45342 0.79369 0.0
O111 O 0.60032 0.50799 0.81103 0.0
H112 H 0.59022 0.64053 0.82922 0.0
H113 H 0.58415 0.70667 0.81133 0.0
H114 H 0.79173 0.83246 0.82971 0.0
H115 H 0.79812 0.76614 0.84722 0.0
H116 H 0.40939 0.23342 0.84541 0.0
H117 H 0.44588 0.18175 0.83514 0.0
H118 H 0.62511 0.32032 0.79824 0.0
H119 H 0.5888 0.37155 0.80809 0.0
P120 P 0.6803 0.04344 0.19406 0.0
H121 H 0.6363 0.93689 0.18351 0.0
H122 H 0.52906 0.85068 0.17082 0.0
H123 H 0.44898 0.92869 0.15907 0.0
H124 H 0.55778 0.01615 0.17145 0.0
H125 H 0.74473 0.08972 0.13964 0.0
H126 H 0.82014 0.18288 0.12461 0.0
H127 H 0.7724 0.23085 0.20023 0.0
H128 H 0.69716 0.13792 0.21534 0.0
H129 H 0.56125 0.99905 0.22887 0.0
H130 H 0.77044 0.09147 0.24281 0.0
O131 O 0.73833 0.03784 0.19051 0.0
H132 H 0.54459 0.99715 0.28063 0.0
H133 H 0.75348 0.08964 0.2946 0.0
C134 C 0.6056 0.98328 0.17788 0.0
C135 C 0.59658 0.93608 0.17732 0.0
C136 C 0.53519 0.88667 0.17026 0.0
C137 C 0.48121 0.88332 0.16403 0.0
C138 C 0.4903 0.9306 0.16367 0.0
C139 C 0.55232 0.98041 0.17052 0.0
C140 C 0.71539 0.10666 0.17868 0.0
C141 C 0.74857 0.11986 0.15251 0.0
C142 C 0.79186 0.17306 0.14397 0.0
C143 C 0.80234 0.21384 0.16144 0.0
C144 C 0.76509 0.2 0.18647 0.0
C145 C 0.72196 0.1468 0.19504 0.0
C146 C 0.66707 0.04452 0.23194 0.0
C147 C 0.6036 0.01888 0.24291 0.0
C148 C 0.59393 0.01778 0.27245 0.0
C149 C 0.64771 0.04268 0.2913 0.0
C150 C 0.71137 0.06979 0.28031 0.0
C151 C 0.72097 0.07079 0.25083 0.0
P152 P 0.73729 0.59725 0.58274 0.0
H153 H 0.76762 0.52677 0.58254 0.0
H154 H 0.7223 0.44335 0.55569 0.0
H155 H 0.58601 0.44977 0.51228 0.0
H156 H 0.63138 0.53331 0.53895 0.0
H157 H 0.81387 0.69282 0.54868 0.0
H158 H 0.78967 0.74782 0.53085 0.0
H159 H 0.59208 0.63805 0.56423 0.0
H160 H 0.6165 0.58322 0.58256 0.0
H161 H 0.79462 0.65842 0.63661 0.0
H162 H 0.61316 0.50526 0.60788 0.0
O163 O 0.81933 0.63492 0.58372 0.0
H164 H 0.75483 0.63886 0.68607 0.0
H165 H 0.57335 0.48594 0.6573 0.0
C166 C 0.70356 0.53659 0.56246 0.0
C167 C 0.72827 0.51044 0.56714 0.0
C168 C 0.70245 0.46296 0.55192 0.0
C169 C 0.65117 0.44084 0.53203 0.0
C170 C 0.6258 0.46658 0.52752 0.0
C171 C 0.65179 0.51422 0.54273 0.0
C172 C 0.7173 0.63452 0.56733 0.0
C173 C 0.76526 0.68036 0.55209 0.0
C174 C 0.75147 0.7116 0.54184 0.0
C175 C 0.68934 0.69692 0.54643 0.0
C176 C 0.64031 0.64982 0.5606 0.0
C177 C 0.65437 0.61884 0.57111 0.0
C178 C 0.70749 0.58268 0.61878 0.0
C179 C 0.74637 0.62063 0.64095 0.0
C180 C 0.7236 0.60974 0.66906 0.0
C181 C 0.66128 0.56104 0.67518 0.0
C182 C 0.62157 0.52373 0.65287 0.0
C183 C 0.64447 0.53459 0.62479 0.0
P184 P 0.10977 0.54226 0.87672 0.0
H185 H 0.14546 0.51728 0.82184 0.0
H186 H 0.22117 0.50263 0.81015 0.0
H187 H 0.25373 0.50195 0.89995 0.0
H188 H 0.18079 0.5193 0.91098 0.0
H189 H 1.07945 0.59094 0.83612 0.0
H190 H 0.97997 0.57952 0.82809 0.0
H191 H 0.86671 0.43852 0.87812 0.0
H192 H 0.96617 0.44938 0.88596 0.0
H193 H 0.14583 0.62413 0.92061 0.0
H194 H 1.04494 0.4552 0.91713 0.0
O195 O 0.16755 0.60682 0.86937 0.0
H196 H 0.13253 0.6218 0.97262 0.0
H197 H 1.03092 0.45289 0.96926 0.0
C198 C 0.15071 0.51439 0.86744 0.0
C199 C 0.16522 0.51007 0.83903 0.0
C200 C 0.20908 0.50023 0.83234 0.0
C201 C 0.2386 0.49165 0.8538 0.0
C202 C 0.2273 0.50069 0.88221 0.0
C203 C 0.18444 0.51112 0.8888 0.0
C204 C 1.03173 0.52112 0.86174 0.0
C205 C 1.03314 0.55639 0.84472 0.0
C206 C 0.97599 0.55021 0.84029 0.0
C207 C 0.91526 0.50857 0.85278 0.0
C208 C 0.91264 0.47129 0.86832 0.0
C209 C 0.96985 0.47734 0.87263 0.0
C210 C 0.0976 0.54002 0.915 0.0
C211 C 0.12068 0.58651 0.93094 0.0
C212 C 0.11267 0.58519 0.9606 0.0
C213 C 1.08078 0.53721 0.97473 0.0
C214 C 1.05554 0.49026 0.9587 0.0
C215 C 1.06371 0.49165 0.92903 0.0
P216 P 0.16744 0.52838 0.41544 0.0
H217 H 0.30689 0.60756 0.43008 0.0
H218 H 0.37928 0.70319 0.44245 0.0
H219 H 0.21156 0.69637 0.44322 0.0
H220 H 0.13795 0.59936 0.43117 0.0
H221 H 0.12635 0.47448 0.46942 0.0
H222 H 1.02083 0.39018 0.48425 0.0
H223 H 0.92511 0.38768 0.41019 0.0
H224 H 1.0302 0.4711 0.39505 0.0
H225 H 0.20705 0.49529 0.36713 0.0
H226 H 0.11822 0.56779 0.37954 0.0
O227 O 0.20885 0.50716 0.4214 0.0
H228 H 0.20201 0.49951 0.31535 0.0
H229 H 0.11141 0.57039 0.32744 0.0
C230 C 0.21669 0.59597 0.43017 0.0
C231 C 0.28498 0.62596 0.43363 0.0
C232 C 0.32655 0.6807 0.44052 0.0
C233 C 0.3008 0.70675 0.44369 0.0
C234 C 0.23223 0.67678 0.44092 0.0
C235 C 0.19034 0.62158 0.43417 0.0
C236 C 1.08678 0.4791 0.43094 0.0
C237 C 1.0823 0.45692 0.45686 0.0
C238 C 1.02213 0.40879 0.46535 0.0
C239 C 0.96536 0.38262 0.44822 0.0
C240 C 0.96837 0.40742 0.42375 0.0
C241 C 1.02872 0.45525 0.4151 0.0
C242 C 0.16283 0.5311 0.37727 0.0
C243 C 0.18641 0.51207 0.35883 0.0
C244 C 0.1837 0.51452 0.32927 0.0
C245 C 0.15656 0.53539 0.3177 0.0
C246 C 0.13274 0.55435 0.33607 0.0
C247 C 0.13658 0.55277 0.36571 0.0
P248 P 0.72789 0.07827 0.72821 0.0
H249 H 0.78571 0.17895 0.75997 0.0
H250 H 0.73595 0.21349 0.78331 0.0
H251 H 0.54172 0.06103 0.76774 0.0
H252 H 0.59144 0.02639 0.74404 0.0
H253 H 0.81528 0.07072 0.75954 0.0
H254 H 0.79927 0.99606 0.78069 0.0
H255 H 0.59515 0.88868 0.75354 0.0
H256 H 0.61142 0.96357 0.7317 0.0
H257 H 0.68692 0.12603 0.69534 0.0
H258 H 0.7024 1.00355 0.68148 0.0
O259 O 0.8092 0.12869 0.72606 0.0
H260 H 0.6543 0.11553 0.64538 0.0
H261 H 0.66942 0.9931 0.63113 0.0
C262 C 0.69224 0.09998 0.75033 0.0
C263 C 0.73251 0.15245 0.76205 0.0
C264 C 0.70422 0.17224 0.77538 0.0
C265 C 0.6353 0.1398 0.77715 0.0
C266 C 0.59504 0.0865 0.76664 0.0
C267 C 0.6234 0.06676 0.75323 0.0
C268 C 0.71473 0.02258 0.74369 0.0
C269 C 0.76708 0.03118 0.75791 0.0
C270 C 0.75801 0.98869 0.77009 0.0
C271 C 0.69618 0.93701 0.76857 0.0
C272 C 0.64325 0.92838 0.75485 0.0
C273 C 0.65253 0.971 0.74243 0.0
C274 C 0.69527 0.06446 0.69242 0.0
C275 C 0.68188 0.096 0.68178 0.0
C276 C 0.66364 0.09032 0.65322 0.0
C277 C 0.65912 0.05337 0.63471 0.0
C278 C 0.67212 0.02148 0.64525 0.0
C279 C 0.69057 0.02728 0.67394 0.0
P280 P 0.44653 0.31935 0.09289 0.0
H281 H 0.40812 0.24166 0.13515 0.0
H282 H 0.47919 0.24688 0.17036 0.0
H283 H 0.64916 0.35956 0.1187 0.0
H284 H 0.57898 0.35448 0.08372 0.0
H285 H 0.3676 0.34725 0.11378 0.0
H286 H 0.39807 0.42674 0.13969 0.0
H287 H 0.59404 0.48259 0.15449 0.0
H288 H 0.56553 0.40558 0.12681 0.0
H289 H 0.50693 0.30838 0.04237 0.0
H290 H 0.43878 0.39397 0.06641 0.0
O291 O 0.3654 0.26775 0.09152 0.0
H292 H 0.54083 0.35069 -0.00432 0.0
H293 H 0.47058 0.43433 0.01998 0.0
C294 C 0.4882 0.29786 0.10681 0.0
C295 C 0.46006 0.26473 0.13041 0.0
C296 C 0.50054 0.2678 0.15063 0.0
C297 C 0.56927 0.30476 0.14736 0.0
C298 C 0.59606 0.33114 0.12158 0.0
C299 C 0.55565 0.32768 0.10132 0.0
C300 C 0.46392 0.37004 0.11824 0.0
C301 C 0.41672 0.37594 0.123 0.0
C302 C 0.43419 0.42131 0.13777 0.0
C303 C 0.49879 0.46097 0.14846 0.0
C304 C 0.54437 0.45288 0.14595 0.0
C305 C 0.52757 0.40838 0.13028 0.0
C306 C 0.47271 0.34955 0.05846 0.0
C307 C 0.50036 0.33682 0.03796 0.0
C308 C 0.51947 0.36074 0.01134 0.0
C309 C 0.5089 0.39611 0.00469 0.0
C310 C 0.47992 0.40774 0.02492 0.0
C311 C 0.46188 0.38461 0.05151 0.0
C312 C 0.53334 0.58938 0.14389 0.0
C313 C 0.47984 0.57344 0.16127 0.0
C314 C 0.4826 0.50936 0.18383 0.0
C315 C 0.5177 0.51208 0.15986 0.0
N316 N 0.59 0.56212 0.12033 0.0
N317 N 0.41582 0.53033 0.20336 0.0
C318 C 0.54974 0.55593 0.14154 0.0
C319 C 0.46034 0.53873 0.18388 0.0
N320 N 0.56356 0.63366 0.12806 0.0
N321 N 0.4673 0.4759 0.20511 0.0
H322 H 0.40067 0.55281 0.20377 0.0
H323 H 0.39392 0.50146 0.21878 0.0
H324 H 0.48335 0.45399 0.20448 0.0
H325 H 0.44377 0.47296 0.22392 0.0
H326 H 0.60527 0.64966 0.11569 0.0
H327 H 0.54904 0.65665 0.12952 0.0
H328 H 0.60853 0.58943 0.10423 0.0
H329 H 0.60424 0.53909 0.11858 0.0
C330 C 0.79763 0.25745 0.47439 0.0
C331 C 0.79563 0.21622 0.46146 0.0
C332 C 0.90338 0.28472 0.43903 0.0
C333 C 0.90666 0.32557 0.45306 0.0
N334 N 0.86193 0.35244 0.48627 0.0
N335 N 0.85052 0.19113 0.43374 0.0
C336 C 0.85506 0.31235 0.47131 0.0
C337 C 0.84975 0.23008 0.44457 0.0
N338 N 0.74466 0.24419 0.48964 0.0
N339 N 0.95069 0.29819 0.41952 0.0
H340 H 0.81052 0.15051 0.43446 0.0
H341 H 0.89239 0.19882 0.4253 0.0
H342 H 0.9927 0.33755 0.41579 0.0
H343 H 0.94652 0.27072 0.40542 0.0
H344 H 0.73874 0.27155 0.49627 0.0
H345 H 0.70458 0.20511 0.49482 0.0
H346 H 0.83011 0.34603 0.50233 0.0
H347 H 0.9024 0.3929 0.48382 0.0
C348 C 0.67005 0.84116 0.8229 0.0
C349 C 0.68534 0.8136 0.80596 0.0
C350 C 0.69729 0.86106 0.76365 0.0
C351 C 0.68794 0.89206 0.78113 0.0
N352 N 0.66944 0.91493 0.82742 0.0
N353 N 0.71793 0.79887 0.76093 0.0
C354 C 0.6751 0.88283 0.81077 0.0
C355 C 0.69984 0.82379 0.77646 0.0
N356 N 0.6497 0.82677 0.85044 0.0
N357 N 0.70297 0.86695 0.73471 0.0
H358 H 0.71793 0.76983 0.76924 0.0
H359 H 0.73677 0.80896 0.74034 0.0
H360 H 0.70349 0.89502 0.72469 0.0
H361 H 0.70257 0.84172 0.7203 0.0
H362 H 0.63104 0.84104 0.86313 0.0
H363 H 0.64721 0.79746 0.86018 0.0
H364 H 0.66787 0.91483 0.84963 0.0
H365 H 0.66984 0.94415 0.81907 0.0
C366 C 0.6901 0.40706 0.20254 0.0
C367 C 0.73805 0.4015 0.19811 0.0
C368 C 0.65684 0.31429 0.17389 0.0
C369 C 0.6145 0.32627 0.17224 0.0
N370 N 0.58422 0.37886 0.18822 0.0
N371 N 0.76462 0.34503 0.18836 0.0
C372 C 0.62803 0.37008 0.1885 0.0
C373 C 0.72003 0.3528 0.18704 0.0
N374 N 0.70543 0.44881 0.2194 0.0
N375 N 0.6376 0.26783 0.16122 0.0
H376 H 0.81096 0.37338 0.19804 0.0
H377 H 0.75517 0.31013 0.18145 0.0
H378 H 0.59064 0.23927 0.15209 0.0
H379 H 0.66652 0.25678 0.16018 0.0
H380 H 0.67174 0.45388 0.22529 0.0
H381 H 0.75132 0.47617 0.22958 0.0
H382 H 0.59448 0.41354 0.1964 0.0
H383 H 0.53727 0.35167 0.17905 0.0
C384 C 0.41967 0.85612 0.42888 0.0
C385 C 0.45088 0.87833 0.45619 0.0
C386 C 0.37365 0.78843 0.47605 0.0
C387 C 0.34726 0.76605 0.44838 0.0
N388 N 0.34851 0.77669 0.39777 0.0
N389 N 0.46245 0.86406 0.50513 0.0
C390 C 0.37068 0.79945 0.42466 0.0
C391 C 0.42921 0.84402 0.47959 0.0
N392 N 0.43752 0.88887 0.40669 0.0
N393 N 0.34453 0.75649 0.4991 0.0
H394 H 0.5014 0.9045 0.5094 0.0
H395 H 0.45463 0.84017 0.52158 0.0
H396 H 0.30409 0.7156 0.49718 0.0
H397 H 0.35631 0.77108 0.52021 0.0
H398 H 0.41042 0.87602 0.38777 0.0
H399 H 0.47791 0.92968 0.40732 0.0
H400 H 0.36964 0.79778 0.37912 0.0
H401 H 0.31134 0.73561 0.39385 0.0
C402 C 0.5872 0.20471 0.8267 0.0
C403 C 0.55756 0.21537 0.8069 0.0
C404 C 0.57921 0.17681 0.7677 0.0
C405 C 0.60559 0.16344 0.78768 0.0
N406 N 0.6247 0.15594 0.8365 0.0
N407 N 0.5128 0.20208 0.75986 0.0
C408 C 0.60654 0.17477 0.81733 0.0
C409 C 0.54965 0.1984 0.77778 0.0
N410 N 0.59891 0.22482 0.85418 0.0
N411 N 0.58512 0.17122 0.73902 0.0
H412 H 0.49061 0.21793 0.76644 0.0
H413 H 0.49923 0.1851 0.73922 0.0
H414 H 0.6065 0.15563 0.73063 0.0
H415 H 0.57389 0.18612 0.72348 0.0
H416 H 0.62699 0.22374 0.8688 0.0
H417 H 0.58426 0.24604 0.86187 0.0
H418 H 0.62016 0.15809 0.85852 0.0
H419 H 0.63935 0.13408 0.83028 0.0
C420 C 0.69384 0.81479 0.54801 0.0
C421 C 0.6748 0.81223 0.51946 0.0
C422 C 0.65815 0.73032 0.50931 0.0
C423 C 0.67769 0.73316 0.5378 0.0
N424 N 0.70178 0.77087 0.58588 0.0
N425 N 0.62708 0.76373 0.47451 0.0
C426 C 0.69137 0.77307 0.5577 0.0
C427 C 0.65303 0.76858 0.5006 0.0
N428 N 0.71692 0.85834 0.56545 0.0
N429 N 0.64656 0.69202 0.49047 0.0
H430 H 0.6236 0.79162 0.46747 0.0
H431 H 0.60455 0.73042 0.46068 0.0
H432 H 0.64713 0.66206 0.49653 0.0
H433 H 0.63951 0.69119 0.46862 0.0
H434 H 0.73949 0.86621 0.58519 0.0
H435 H 0.71697 0.88869 0.55955 0.0
H436 H 0.70479 0.79512 0.60205 0.0
H437 H 0.7026 0.74194 0.59363 0.0
C438 C 0.77896 0.51583 0.87387 0.0
C439 C 0.74616 0.50436 0.84728 0.0
C440 C 0.81923 0.48956 0.82503 0.0
C441 C 0.85601 0.50611 0.85094 0.0
N442 N 0.87676 0.54364 0.89889 0.0
N443 N 0.74321 0.48888 0.79637 0.0
C444 C 0.8374 0.52165 0.87502 0.0
C445 C 0.76842 0.49332 0.82257 0.0
N446 N 0.75245 0.51858 0.89843 0.0
N447 N 0.8317 0.46887 0.80287 0.0
H448 H 0.70788 0.49302 0.79359 0.0
H449 H 0.76168 0.4863 0.7772 0.0
H450 H 0.86847 0.46592 0.80381 0.0
H451 H 0.80211 0.45049 0.7846 0.0
H452 H 0.76957 0.52105 0.91877 0.0
H453 H 0.70907 0.513 0.89866 0.0
H454 H 0.87044 0.56145 0.91586 0.0
H455 H 0.91935 0.54831 0.90073 0.0
C456 C 0.3374 0.74793 0.12998 0.0
C457 C 0.29651 0.72142 0.15413 0.0
C458 C 0.37411 0.80278 0.18429 0.0
C459 C 0.41452 0.82945 0.16007 0.0
N460 N 0.4309 0.83152 0.1093 0.0
N461 N 0.27022 0.72466 0.20334 0.0
C462 C 0.3949 0.80316 0.1327 0.0
C463 C 0.31294 0.74936 0.18097 0.0
N464 N 0.32161 0.71993 0.10452 0.0
N465 N 0.39579 0.82792 0.21072 0.0
H466 H 0.22703 0.68469 0.20237 0.0
H467 H 0.27521 0.74434 0.22247 0.0
H468 H 0.43892 0.86763 0.21387 0.0
H469 H 0.37344 0.80896 0.22976 0.0
H470 H 0.35296 0.73443 0.08704 0.0
H471 H 0.27772 0.68067 0.10114 0.0
H472 H 0.41642 0.81676 0.08832 0.0
H473 H 0.47351 0.87176 0.1107 0.0
C474 C 0.64091 0.3437 0.48012 0.0
C475 C 0.5818 0.29417 0.48924 0.0
C476 C 0.56623 0.34085 0.52569 0.0
C477 C 0.6243 0.39045 0.51601 0.0
N478 N 0.70967 0.44038 0.48077 0.0
N479 N 0.48142 0.24504 0.51653 0.0
C480 C 0.65936 0.39224 0.49214 0.0
C481 C 0.54223 0.29263 0.51072 0.0
N482 N 0.68077 0.34424 0.46086 0.0
N483 N 0.53564 0.33977 0.54986 0.0
H484 H 0.46272 0.20893 0.50609 0.0
H485 H 0.44724 0.24184 0.52988 0.0
H486 H 0.55101 0.37435 0.56106 0.0
H487 H 0.49783 0.30475 0.55996 0.0
H488 H 0.72825 0.3787 0.45595 0.0
H489 H 0.66819 0.30953 0.45108 0.0
H490 H 0.73275 0.44409 0.46163 0.0
H491 H 0.72481 0.47676 0.48924 0.0
C492 C 0.3618 0.46896 0.87001 0.0
C493 C 0.40079 0.48639 0.84485 0.0
C494 C 0.31786 0.48677 0.82154 0.0
C495 C 0.28614 0.4794 0.84819 0.0
N496 N 0.25356 0.42631 0.88961 0.0
N497 N 0.4155 0.51377 0.79625 0.0
C498 C 0.30124 0.45998 0.87033 0.0
C499 C 0.3791 0.49654 0.82066 0.0
N500 N 0.38378 0.46314 0.89433 0.0
N501 N 0.28311 0.47242 0.79678 0.0
H502 H 0.45707 0.51706 0.79371 0.0
H503 H 0.40624 0.52772 0.77925 0.0
H504 H 0.23166 0.44729 0.79698 0.0
H505 H 0.30184 0.47425 0.77667 0.0
H506 H 0.36091 0.45597 0.91404 0.0
H507 H 0.42847 0.47091 0.89543 0.0
H508 H 0.25881 0.40654 0.90453 0.0
H509 H 0.20543 0.41225 0.88781 0.0
C510 C 0.97735 0.34872 0.15628 0.0
C511 C 0.96445 0.382 0.14695 0.0
C512 C 0.84563 0.30292 0.14325 0.0
C513 C 0.85807 0.27139 0.15554 0.0
N514 N 0.93435 0.26575 0.17783 0.0
N515 N 0.88491 0.39151 0.134 0.0
C516 C 0.92361 0.29465 0.16301 0.0
C517 C 0.89809 0.35927 0.14119 0.0
N518 N 1.04094 0.36852 0.15889 0.0
N519 N 0.78393 0.27864 0.13279 0.0
H520 H 0.92172 0.43209 0.13036 0.0
H521 H 0.83741 0.37875 0.13316 0.0
H522 H 0.74447 0.23768 0.13426 0.0
H523 H 0.77289 0.29809 0.12085 0.0
H524 H 1.0531 0.34456 0.16204 0.0
H525 H 1.08215 0.40827 0.15577 0.0
H526 H 0.97959 0.28237 0.18716 0.0
H527 H 0.89673 0.22597 0.18302 0.0
C528 C 1.04108 0.54979 0.05181 0.0
C529 C 1.07645 0.53867 0.06726 0.0
C530 C 0.1204 0.53309 0.02183 0.0
C531 C 1.0784 0.53711 0.00653 0.0
N532 N 0.99044 0.54051 0.00675 0.0
N533 N 0.14117 0.51052 0.06576 0.0
C534 C 1.03608 0.54268 0.02147 0.0
C535 C 0.11386 0.52792 0.05191 0.0
N536 N 1.01615 0.57076 0.06568 0.0
N537 N 0.16824 0.53596 0.00777 0.0
H538 H 0.13786 0.50611 0.08763 0.0
H539 H 0.1618 0.49582 0.05527 0.0
H540 H 0.17493 0.53982 0.98572 0.0
H541 H 0.20531 0.53962 0.01827 0.0
H542 H 0.99547 0.58419 0.05504 0.0
H543 H 1.02322 0.58105 0.08743 0.0
H544 H 0.95355 0.53857 0.01673 0.0
H545 H 0.98578 0.53577 0.98453 0.0
C546 C 0.61504 0.99587 0.36785 0.0
C547 C 0.6401 0.04414 0.38308 0.0
C548 C 0.65538 0.08634 0.33797 0.0
C549 C 0.63819 0.04065 0.32272 0.0
N550 N 0.6052 0.95273 0.32236 0.0
N551 N 0.69198 0.13756 0.38275 0.0
C552 C 0.6181 0.99526 0.33744 0.0
C553 C 0.66197 0.08989 0.36818 0.0
N554 N 0.58936 0.9509 0.38247 0.0
N555 N 0.66477 0.12614 0.3235 0.0
H556 H 0.69727 0.14172 0.40485 0.0
H557 H 0.71615 0.17379 0.37286 0.0
H558 H 0.6607 0.12486 0.30131 0.0
H559 H 0.6706 0.15791 0.33354 0.0
H560 H 0.56349 0.91302 0.37277 0.0
H561 H 0.58965 0.95047 0.4047 0.0
H562 H 0.59797 0.9211 0.33175 0.0
H563 H 0.60558 0.95042 0.30009 0.0
C564 C 0.59886 0.55946 0.7496 0.0
C565 C 0.59219 0.51712 0.76144 0.0
C566 C 0.6404 0.50984 0.71838 0.0
C567 C 0.63925 0.54739 0.70521 0.0
N568 N 0.61139 0.60434 0.70674 0.0
N569 N 0.60067 0.44805 0.7564 0.0
C570 C 0.61708 0.57145 0.72043 0.0
C571 C 0.61136 0.49121 0.74564 0.0
N572 N 0.58931 0.58896 0.76641 0.0
N573 N 0.67145 0.49345 0.70525 0.0
H574 H 0.58288 0.43462 0.77687 0.0
H575 H 0.60564 0.42339 0.74441 0.0
H576 H 0.69359 0.50633 0.68527 0.0
H577 H 0.68066 0.471 0.71519 0.0
H578 H 0.6 0.62382 0.75995 0.0
H579 H 0.57609 0.58111 0.78784 0.0
H580 H 0.58896 0.61858 0.71576 0.0
H581 H 0.62464 0.61422 0.68545 0.0
C582 C 0.67593 0.09553 0.55857 0.0
C583 C 0.61234 0.05277 0.54682 0.0
C584 C 0.57803 0.01079 0.59364 0.0
C585 C 0.64359 0.05041 0.60398 0.0
N586 N 0.75812 0.1244 0.59468 0.0
N587 N 0.50481 0.96533 0.55269 0.0
C588 C 0.69356 0.09066 0.58584 0.0
C589 C 0.5638 0.00919 0.56424 0.0
N590 N 0.71777 0.14274 0.54489 0.0
N591 N 0.52885 0.97557 0.6121 0.0
H592 H 0.49097 0.96214 0.53158 0.0
H593 H 0.47143 0.92991 0.56343 0.0
H594 H 0.53769 0.97452 0.63355 0.0
H595 H 0.47881 0.95012 0.60675 0.0
H596 H 0.76219 0.17669 0.55379 0.0
H597 H 0.70441 0.15064 0.52655 0.0
H598 H 0.79735 0.15077 0.58115 0.0
H599 H 0.77288 0.12243 0.61469 0.0
C600 C 0.59466 0.49519 0.94467 0.0
C601 C 0.54471 0.46634 0.92314 0.0
C602 C 0.47756 0.38827 0.95354 0.0
C603 C 0.52419 0.41904 0.976 0.0
N604 N 0.62452 0.50274 0.99443 0.0
N605 N 0.43581 0.38714 0.90796 0.0
C606 C 0.58209 0.4728 0.97197 0.0
C607 C 0.48565 0.41319 0.92774 0.0
N608 N 0.65511 0.54299 0.93869 0.0
N609 N 0.42553 0.33498 0.95681 0.0
H610 H 0.44061 0.4031 0.88848 0.0
H611 H 0.38826 0.35155 0.91152 0.0
H612 H 0.41575 0.31571 0.97584 0.0
H613 H 0.39462 0.30872 0.94009 0.0
H614 H 0.69588 0.563 0.95232 0.0
H615 H 0.6667 0.56066 0.91896 0.0
H616 H 0.66298 0.54394 0.99404 0.0
H617 H 0.61894 0.48684 0.01424 0.0
C618 C 0.09839 0.48644 0.24066 0.0
C619 C 0.15001 0.53272 0.22579 0.0
C620 C 0.20022 0.5828 0.2714 0.0
C621 C 0.15151 0.53552 0.28619 0.0
N622 N 1.05639 0.4414 0.28566 0.0
N623 N 0.25745 0.62123 0.22684 0.0
C624 C 0.10104 0.48708 0.271 0.0
C625 C 0.20268 0.58016 0.24108 0.0
N626 N 1.04598 0.44219 0.22577 0.0
N627 N 0.24442 0.63026 0.28638 0.0
H628 H 0.26318 0.61989 0.20485 0.0
H629 H 0.30031 0.65452 0.23701 0.0
H630 H 0.24628 0.63341 0.30864 0.0
H631 H 0.27585 0.66716 0.27679 0.0
H632 H 1.00273 0.40973 0.2352 0.0
H633 H 1.04396 0.43892 0.20358 0.0
H634 H 1.02377 0.40333 0.27599 0.0
H635 H 1.05391 0.44098 0.30791 0.0
loop_
_geom_bond_atom_site_label_1
_geom_bond_atom_site_label_2
_geom_bond_distance
_geom_bond_site_symmetry_2
_ccdc_geom_bond_type
Ho0 C3 2.811 . S
Ho0 O20 2.322 . S
Ho0 O22 2.378 . S
Ho0 O23 2.524 . S
Ho0 O24 2.381 . S
Ho0 O25 2.669 . S
Ho0 O27 2.346 1_455 S
Ho0 O31 2.305 . S
Ho1 C12 2.811 . S
Ho1 O21 2.346 1_655 S
Ho1 O25 2.305 1_655 S
Ho1 O26 2.322 . S
Ho1 O28 2.378 . S
Ho1 O29 2.524 . S
Ho1 O30 2.381 . S
Ho1 O31 2.669 1_655 S
C2 O20 1.259 . S
C2 O21 1.268 . S
C3 Ho0 2.811 . S
C3 C4 1.488 . S
C3 O22 1.215 . S
C3 O23 1.289 . S
C4 C3 1.488 . S
C4 C5 1.348 . S
C4 C9 1.413 . S
C5 C4 1.348 . S
C5 C6 1.442 . S
C5 H32 0.930 . S
C6 C5 1.442 . S
C6 C7 1.381 . S
C6 H33 0.931 . S
C7 C6 1.381 . S
C7 C8 1.321 . S
C8 C7 1.321 . S
C8 C9 1.403 . S
C8 H34 0.934 . S
C9 C4 1.413 . S
C9 C8 1.403 . S
C9 H35 0.930 . S
C10 O24 1.275 . S
C10 O25 1.256 . S
C11 O26 1.259 . S
C11 O27 1.268 . S
C12 Ho1 2.811 . S
C12 C13 1.488 . S
C12 O28 1.215 . S
C12 O29 1.289 . S
C13 C12 1.488 . S
C13 C14 1.348 . S
C13 C18 1.413 . S
C14 C13 1.348 . S
C14 C15 1.442 . S
C14 H36 0.930 . S
C15 C14 1.442 . S
C15 C16 1.381 . S
C15 H37 0.931 . S
C16 C15 1.381 . S
C16 C17 1.321 . S
C17 C16 1.321 . S
C17 C18 1.403 . S
C17 H38 0.934 . S
C18 C13 1.413 . S
C18 C17 1.403 . S
C18 H39 0.930 . S
C19 O30 1.275 1_455 S
C19 O31 1.256 . S
O20 Ho0 2.322 . S
O20 C2 1.259 . S
O21 Ho1 2.346 1_455 S
O21 C2 1.268 . S
O22 Ho0 2.378 . S
O22 C3 1.215 . S
O23 Ho0 2.524 . S
O23 C3 1.289 . S
O24 Ho0 2.381 . S
O24 C10 1.275 . S
O25 Ho0 2.669 . S
O25 Ho1 2.305 1_455 S
O25 C10 1.256 . S
O26 Ho1 2.322 . S
O26 C11 1.259 . S
O27 Ho0 2.346 1_655 S
O27 C11 1.268 . S
O28 Ho1 2.378 . S
O28 C12 1.215 . S
O29 Ho1 2.524 . S
O29 C12 1.289 . S
O30 Ho1 2.381 . S
O30 C19 1.275 1_655 S
O31 Ho0 2.305 . S
O31 Ho1 2.669 1_455 S
O31 C19 1.256 . S
H32 C5 0.930 . S
H33 C6 0.931 . S
H34 C8 0.934 . S
H35 C9 0.930 . S
H36 C14 0.930 . S
H37 C15 0.931 . S
H38 C17 0.934 . S
H39 C18 0.930 . S
Ho40 C43 2.811 . S
Ho40 O60 2.322 . S
Ho40 O62 2.378 . S
Ho40 O63 2.524 . S
Ho40 O64 2.381 . S
Ho40 O65 2.669 1_565 S
Ho40 O67 2.346 1_565 S
Ho40 O71 2.305 . S
Ho41 C52 2.811 . S
Ho41 O61 2.346 1_545 S
Ho41 O65 2.305 . S
Ho41 O66 2.322 . S
Ho41 O68 2.378 . S
Ho41 O69 2.524 . S
Ho41 O70 2.381 . S
Ho41 O71 2.669 1_545 S
C42 O60 1.259 . S
C42 O61 1.268 . S
C43 Ho40 2.811 . S
C43 C44 1.488 . S
C43 O62 1.215 . S
C43 O63 1.289 . S
C44 C43 1.488 . S
C44 C45 1.348 . S
C44 C49 1.413 . S
C45 C44 1.348 . S
C45 C46 1.442 . S
C45 H72 0.930 . S
C46 C45 1.442 . S
C46 C47 1.381 . S
C46 H73 0.931 . S
C47 C46 1.381 . S
C47 C48 1.321 . S
C48 C47 1.321 . S
C48 C49 1.403 . S
C48 H74 0.934 . S
C49 C44 1.413 . S
C49 C48 1.403 . S
C49 H75 0.930 . S
C50 O64 1.275 1_545 S
C50 O65 1.256 . S
C51 O66 1.259 . S
C51 O67 1.268 . S
C52 Ho41 2.811 . S
C52 C53 1.488 . S
C52 O68 1.215 . S
C52 O69 1.289 . S
C53 C52 1.488 . S
C53 C54 1.348 . S
C53 C58 1.413 . S
C54 C53 1.348 . S
C54 C55 1.442 . S
C54 H76 0.930 . S
C55 C54 1.442 . S
C55 C56 1.381 . S
C55 H77 0.931 . S
C56 C55 1.381 . S
C56 C57 1.321 . S
C57 C56 1.321 . S
C57 C58 1.403 . S
C57 H78 0.934 . S
C58 C53 1.413 . S
C58 C57 1.403 . S
C58 H79 0.930 . S
C59 O70 1.275 . S
C59 O71 1.256 1_545 S
O60 Ho40 2.322 . S
O60 C42 1.259 . S
O61 Ho41 2.346 1_565 S
O61 C42 1.268 . S
O62 Ho40 2.378 . S
O62 C43 1.215 . S
O63 Ho40 2.524 . S
O63 C43 1.289 . S
O64 Ho40 2.381 . S
O64 C50 1.275 1_565 S
O65 Ho40 2.669 1_545 S
O65 Ho41 2.305 . S
O65 C50 1.256 . S
O66 Ho41 2.322 . S
O66 C51 1.259 . S
O67 Ho40 2.346 1_545 S
O67 C51 1.268 . S
O68 Ho41 2.378 . S
O68 C52 1.215 . S
O69 Ho41 2.524 . S
O69 C52 1.289 . S
O70 Ho41 2.381 . S
O70 C59 1.275 . S
O71 Ho40 2.305 . S
O71 Ho41 2.669 1_565 S
O71 C59 1.256 1_565 S
H72 C45 0.930 . S
H73 C46 0.931 . S
H74 C48 0.934 . S
H75 C49 0.930 . S
H76 C54 0.930 . S
H77 C55 0.931 . S
H78 C57 0.934 . S
H79 C58 0.930 . S
Ho80 C83 2.811 . S
Ho80 O100 2.322 . S
Ho80 O102 2.378 . S
Ho80 O103 2.524 . S
Ho80 O104 2.381 . S
Ho80 O105 2.669 . S
Ho80 O107 2.346 . S
Ho80 O111 2.305 . S
Ho81 C92 2.811 . S
Ho81 O101 2.346 . S
Ho81 O105 2.305 . S
Ho81 O106 2.322 . S
Ho81 O108 2.378 . S
Ho81 O109 2.524 . S
Ho81 O110 2.381 . S
Ho81 O111 2.669 . S
C82 O100 1.259 . S
C82 O101 1.268 . S
C83 Ho80 2.811 . S
C83 C84 1.488 . S
C83 O102 1.215 . S
C83 O103 1.289 . S
C84 C83 1.488 . S
C84 C85 1.348 . S
C84 C89 1.413 . S
C85 C84 1.348 . S
C85 C86 1.442 . S
C85 H112 0.930 . S
C86 C85 1.442 . S
C86 C87 1.381 . S
C86 H113 0.931 . S
C87 C86 1.381 . S
C87 C88 1.321 . S
C88 C87 1.321 . S
C88 C89 1.403 . S
C88 H114 0.934 . S
C89 C84 1.413 . S
C89 C88 1.403 . S
C89 H115 0.930 . S
C90 O104 1.275 . S
C90 O105 1.256 . S
C91 O106 1.259 . S
C91 O107 1.268 . S
C92 Ho81 2.811 . S
C92 C93 1.488 . S
C92 O108 1.215 . S
C92 O109 1.289 . S
C93 C92 1.488 . S
C93 C94 1.348 . S
C93 C98 1.413 . S
C94 C93 1.348 . S
C94 C95 1.442 . S
C94 H116 0.930 . S
C95 C94 1.442 . S
C95 C96 1.381 . S
C95 H117 0.931 . S
C96 C95 1.381 . S
C96 C97 1.321 . S
C97 C96 1.321 . S
C97 C98 1.403 . S
C97 H118 0.934 . S
C98 C93 1.413 . S
C98 C97 1.403 . S
C98 H119 0.930 . S
C99 O110 1.275 . S
C99 O111 1.256 . S
O100 Ho80 2.322 . S
O100 C82 1.259 . S
O101 Ho81 2.346 . S
O101 C82 1.268 . S
O102 Ho80 2.378 . S
O102 C83 1.215 . S
O103 Ho80 2.524 . S
O103 C83 1.289 . S
O104 Ho80 2.381 . S
O104 C90 1.275 . S
O105 Ho80 2.669 . S
O105 Ho81 2.305 . S
O105 C90 1.256 . S
O106 Ho81 2.322 . S
O106 C91 1.259 . S
O107 Ho80 2.346 . S
O107 C91 1.268 . S
O108 Ho81 2.378 . S
O108 C92 1.215 . S
O109 Ho81 2.524 . S
O109 C92 1.289 . S
O110 Ho81 2.381 . S
O110 C99 1.275 . S
O111 Ho80 2.305 . S
O111 Ho81 2.669 . S
O111 C99 1.256 . S
H112 C85 0.930 . S
H113 C86 0.931 . S
H114 C88 0.934 . S
H115 C89 0.930 . S
H116 C94 0.930 . S
H117 C95 0.931 . S
H118 C97 0.934 . S
H119 C98 0.930 . S
P120 O131 1.487 . S
P120 C134 1.811 . S
P120 C140 1.806 1_565 S
P120 C146 1.820 1_565 S
H121 C135 0.941 . S
H122 C136 0.939 . S
H123 C138 0.940 . S
H124 C139 0.940 . S
H125 C141 0.939 . S
H126 C142 0.942 . S
H127 C144 0.940 . S
H128 C145 0.939 . S
H129 C147 0.941 . S
H130 C151 0.939 . S
O131 P120 1.487 . S
H132 C148 0.939 . S
H133 C150 0.940 . S
C134 P120 1.811 . S
C134 C135 1.389 . S
C134 C139 1.391 . S
C135 H121 0.941 . S
C135 C134 1.389 . S
C135 C136 1.397 . S
C136 H122 0.939 . S
C136 C135 1.397 . S
C136 C137 1.378 . S
C137 C136 1.378 . S
C137 C138 1.378 . S
C138 H123 0.940 . S
C138 C137 1.378 . S
C138 C139 1.396 . S
C139 H124 0.940 . S
C139 C134 1.391 . S
C139 C138 1.396 . S
C140 P120 1.806 1_545 S
C140 C141 1.378 . S
C140 C145 1.400 . S
C141 H125 0.939 . S
C141 C140 1.378 . S
C141 C142 1.361 . S
C142 H126 0.942 . S
C142 C141 1.361 . S
C142 C143 1.369 . S
C143 C142 1.369 . S
C143 C144 1.404 . S
C144 H127 0.940 . S
C144 C143 1.404 . S
C144 C145 1.389 . S
C145 H128 0.939 . S
C145 C140 1.400 . S
C145 C144 1.389 . S
C146 P120 1.820 1_545 S
C146 C147 1.391 1_545 S
C146 C151 1.391 . S
C147 H129 0.941 . S
C147 C146 1.391 1_565 S
C147 C148 1.396 . S
C148 H132 0.939 . S
C148 C147 1.396 . S
C148 C149 1.397 1_565 S
C149 C148 1.397 1_545 S
C149 C150 1.385 . S
C150 H133 0.940 . S
C150 C149 1.385 . S
C150 C151 1.388 . S
C151 H130 0.939 . S
C151 C146 1.391 . S
C151 C150 1.388 . S
P152 O163 1.490 . S
P152 C166 1.812 . S
P152 C172 1.803 . S
P152 C178 1.819 . S
H153 C167 0.941 . S
H154 C168 0.939 . S
H155 C170 0.940 . S
H156 C171 0.940 . S
H157 C173 0.939 . S
H158 C174 0.942 . S
H159 C176 0.940 . S
H160 C177 0.939 . S
H161 C179 0.941 . S
H162 C183 0.939 . S
O163 P152 1.490 . S
H164 C180 0.939 . S
H165 C182 0.940 . S
C166 P152 1.812 . S
C166 C167 1.389 . S
C166 C171 1.391 . S
C167 H153 0.941 . S
C167 C166 1.389 . S
C167 C168 1.397 . S
C168 H154 0.939 . S
C168 C167 1.397 . S
C168 C169 1.378 . S
C169 C168 1.378 . S
C169 C170 1.378 . S
C170 H155 0.940 . S
C170 C169 1.378 . S
C170 C171 1.396 . S
C171 H156 0.940 . S
C171 C166 1.391 . S
C171 C170 1.396 . S
C172 P152 1.803 . S
C172 C173 1.378 . S
C172 C177 1.400 . S
C173 H157 0.939 . S
C173 C172 1.378 . S
C173 C174 1.361 . S
C174 H158 0.942 . S
C174 C173 1.361 . S
C174 C175 1.369 . S
C175 C174 1.369 . S
C175 C176 1.404 . S
C176 H159 0.940 . S
C176 C175 1.404 . S
C176 C177 1.389 . S
C177 H160 0.939 . S
C177 C172 1.400 . S
C177 C176 1.389 . S
C178 P152 1.819 . S
C178 C179 1.391 . S
C178 C183 1.391 . S
C179 H161 0.941 . S
C179 C178 1.391 . S
C179 C180 1.396 . S
C180 H164 0.939 . S
C180 C179 1.396 . S
C180 C181 1.397 . S
C181 C180 1.397 . S
C181 C182 1.385 . S
C182 H165 0.940 . S
C182 C181 1.385 . S
C182 C183 1.388 . S
C183 H162 0.939 . S
C183 C178 1.391 . S
C183 C182 1.388 . S
P184 O195 1.490 . S
P184 C198 1.812 . S
P184 C204 1.803 . S
P184 C210 1.819 . S
H185 C199 0.941 . S
H186 C200 0.939 . S
H187 C202 0.940 . S
H188 C203 0.940 . S
H189 C205 0.939 . S
H190 C206 0.942 . S
H191 C208 0.940 . S
H192 C209 0.939 . S
H193 C211 0.941 . S
H194 C215 0.939 1_655 S
O195 P184 1.490 . S
H196 C212 0.939 . S
H197 C214 0.940 1_655 S
C198 P184 1.812 . S
C198 C199 1.389 . S
C198 C203 1.391 . S
C199 H185 0.941 . S
C199 C198 1.389 . S
C199 C200 1.397 . S
C200 H186 0.939 . S
C200 C199 1.397 . S
C200 C201 1.378 . S
C201 C200 1.378 . S
C201 C202 1.378 . S
C202 H187 0.940 . S
C202 C201 1.378 . S
C202 C203 1.396 . S
C203 H188 0.940 . S
C203 C198 1.391 . S
C203 C202 1.396 . S
C204 P184 1.803 . S
C204 C205 1.378 . S
C204 C209 1.400 . S
C205 H189 0.939 . S
C205 C204 1.378 . S
C205 C206 1.361 1_455 S
C206 H190 0.942 . S
C206 C205 1.361 1_655 S
C206 C207 1.369 . S
C207 C206 1.369 . S
C207 C208 1.404 . S
C208 H191 0.940 . S
C208 C207 1.404 . S
C208 C209 1.389 1_655 S
C209 H192 0.939 . S
C209 C204 1.400 . S
C209 C208 1.389 1_455 S
C210 P184 1.819 . S
C210 C211 1.391 . S
C210 C215 1.391 . S
C211 H193 0.941 . S
C211 C210 1.391 . S
C211 C212 1.396 . S
C212 H196 0.939 . S
C212 C211 1.396 . S
C212 C213 1.397 . S
C213 C212 1.397 . S
C213 C214 1.385 . S
C214 H197 0.940 1_455 S
C214 C213 1.385 . S
C214 C215 1.388 . S
C215 H194 0.939 1_455 S
C215 C210 1.391 . S
C215 C214 1.388 . S
P216 O227 1.490 . S
P216 C230 1.812 . S
P216 C236 1.803 1_455 S
P216 C242 1.819 . S
H217 C231 0.941 . S
H218 C232 0.939 . S
H219 C234 0.940 . S
H220 C235 0.940 . S
H221 C237 0.939 . S
H222 C238 0.942 . S
H223 C240 0.940 . S
H224 C241 0.939 . S
H225 C243 0.941 . S
H226 C247 0.939 . S
O227 P216 1.490 . S
H228 C244 0.939 . S
H229 C246 0.940 . S
C230 P216 1.812 . S
C230 C231 1.389 . S
C230 C235 1.391 . S
C231 H217 0.941 . S
C231 C230 1.389 . S
C231 C232 1.397 . S
C232 H218 0.939 . S
C232 C231 1.397 . S
C232 C233 1.378 . S
C233 C232 1.378 . S
C233 C234 1.378 . S
C234 H219 0.940 . S
C234 C233 1.378 . S
C234 C235 1.396 . S
C235 H220 0.940 . S
C235 C230 1.391 . S
C235 C234 1.396 . S
C236 P216 1.803 1_655 S
C236 C237 1.378 . S
C236 C241 1.400 . S
C237 H221 0.939 . S
C237 C236 1.378 . S
C237 C238 1.361 . S
C238 H222 0.942 . S
C238 C237 1.361 . S
C238 C239 1.369 . S
C239 C238 1.369 . S
C239 C240 1.404 . S
C240 H223 0.940 . S
C240 C239 1.404 . S
C240 C241 1.389 . S
C241 H224 0.939 . S
C241 C236 1.400 . S
C241 C240 1.389 . S
C242 P216 1.819 . S
C242 C243 1.391 . S
C242 C247 1.391 1_455 S
C243 H225 0.941 . S
C243 C242 1.391 . S
C243 C244 1.396 . S
C244 H228 0.939 . S
C244 C243 1.396 . S
C244 C245 1.397 . S
C245 C244 1.397 . S
C245 C246 1.385 1_455 S
C246 H229 0.940 . S
C246 C245 1.385 1_655 S
C246 C247 1.388 . S
C247 H226 0.939 . S
C247 C242 1.391 1_655 S
C247 C246 1.388 . S
P248 O259 1.490 . S
P248 C262 1.812 . S
P248 C268 1.803 1_545 S
P248 C274 1.819 . S
H249 C263 0.941 . S
H250 C264 0.939 . S
H251 C266 0.940 . S
H252 C267 0.940 . S
H253 C269 0.939 . S
H254 C270 0.942 . S
H255 C272 0.940 . S
H256 C273 0.939 . S
H257 C275 0.941 . S
H258 C279 0.939 . S
O259 P248 1.490 . S
H260 C276 0.939 . S
H261 C278 0.940 . S
C262 P248 1.812 . S
C262 C263 1.389 . S
C262 C267 1.391 . S
C263 H249 0.941 . S
C263 C262 1.389 . S
C263 C264 1.397 . S
C264 H250 0.939 . S
C264 C263 1.397 . S
C264 C265 1.378 . S
C265 C264 1.378 . S
C265 C266 1.378 . S
C266 H251 0.940 . S
C266 C265 1.378 . S
C266 C267 1.396 . S
C267 H252 0.940 . S
C267 C262 1.391 . S
C267 C266 1.396 . S
C268 P248 1.803 1_565 S
C268 C269 1.378 . S
C268 C273 1.400 . S
C269 H253 0.939 . S
C269 C268 1.378 . S
C269 C270 1.361 . S
C270 H254 0.942 . S
C270 C269 1.361 . S
C270 C271 1.369 . S
C271 C270 1.369 . S
C271 C272 1.404 . S
C272 H255 0.940 . S
C272 C271 1.404 . S
C272 C273 1.389 . S
C273 H256 0.939 . S
C273 C268 1.400 . S
C273 C272 1.389 . S
C274 P248 1.819 . S
C274 C275 1.391 . S
C274 C279 1.391 1_545 S
C275 H257 0.941 . S
C275 C274 1.391 . S
C275 C276 1.396 . S
C276 H260 0.939 . S
C276 C275 1.396 . S
C276 C277 1.388 1_545 S
C277 C276 1.388 1_565 S
C277 C278 1.395 . S
C278 H261 0.940 . S
C278 C277 1.395 . S
C278 C279 1.388 . S
C279 H258 0.939 . S
C279 C274 1.391 1_565 S
C279 C278 1.388 . S
P280 O291 1.490 . S
P280 C294 1.812 . S
P280 C300 1.803 . S
P280 C306 1.819 . S
H281 C295 0.941 . S
H282 C296 0.939 . S
H283 C298 0.940 . S
H284 C299 0.940 . S
H285 C301 0.939 . S
H286 C302 0.942 . S
H287 C304 0.940 . S
H288 C305 0.939 . S
H289 C307 0.941 . S
H290 C311 0.939 . S
O291 P280 1.490 . S
H292 C308 0.939 . S
H293 C310 0.940 . S
C294 P280 1.812 . S
C294 C295 1.389 . S
C294 C299 1.391 . S
C295 H281 0.941 . S
C295 C294 1.389 . S
C295 C296 1.397 . S
C296 H282 0.939 . S
C296 C295 1.397 . S
C296 C297 1.378 . S
C297 C296 1.378 . S
C297 C298 1.378 . S
C298 H283 0.940 . S
C298 C297 1.378 . S
C298 C299 1.396 . S
C299 H284 0.940 . S
C299 C294 1.391 . S
C299 C298 1.396 . S
C300 P280 1.803 . S
C300 C301 1.378 . S
C300 C305 1.400 . S
C301 H285 0.939 . S
C301 C300 1.378 . S
C301 C302 1.361 . S
C302 H286 0.942 . S
C302 C301 1.361 . S
C302 C303 1.369 . S
C303 C302 1.369 . S
C303 C304 1.404 . S
C304 H287 0.940 . S
C304 C303 1.404 . S
C304 C305 1.389 . S
C305 H288 0.939 . S
C305 C300 1.400 . S
C305 C304 1.389 . S
C306 P280 1.819 . S
C306 C307 1.391 . S
C306 C311 1.391 . S
C307 H289 0.941 . S
C307 C306 1.391 . S
C307 C308 1.396 1_554 S
C308 H292 0.939 . S
C308 C307 1.396 1_556 S
C308 C309 1.397 . S
C309 C308 1.397 . S
C309 C310 1.385 1_556 S
C310 H293 0.940 . S
C310 C309 1.385 1_554 S
C310 C311 1.388 . S
C311 H290 0.939 . S
C311 C306 1.391 . S
C311 C310 1.388 . S
C312 C313 1.363 . S
C312 C318 1.379 . S
C312 N320 1.356 . S
C313 C312 1.363 . S
C313 C319 1.363 . S
C314 C315 1.363 . S
C314 C319 1.379 . S
C314 N321 1.356 . S
C315 C314 1.363 . S
C315 C318 1.363 . S
N316 C318 1.356 . S
N316 H328 0.984 . S
N316 H329 0.985 . S
N317 C319 1.356 . S
N317 H322 0.984 . S
N317 H323 0.985 . S
C318 C312 1.379 . S
C318 C315 1.363 . S
C318 N316 1.356 . S
C319 C313 1.363 . S
C319 C314 1.379 . S
C319 N317 1.356 . S
N320 C312 1.356 . S
N320 H326 0.984 . S
N320 H327 0.984 . S
N321 C314 1.356 . S
N321 H324 0.984 . S
N321 H325 0.985 . S
H322 N317 0.984 . S
H323 N317 0.985 . S
H324 N321 0.984 . S
H325 N321 0.985 . S
H326 N320 0.984 . S
H327 N320 0.984 . S
H328 N316 0.984 . S
H329 N316 0.985 . S
C330 C331 1.363 . S
C330 C336 1.379 . S
C330 N338 1.356 . S
C331 C330 1.363 . S
C331 C337 1.363 . S
C332 C333 1.363 . S
C332 C337 1.379 . S
C332 N339 1.356 . S
C333 C332 1.363 . S
C333 C336 1.363 . S
N334 C336 1.356 . S
N334 H346 0.984 . S
N334 H347 0.985 . S
N335 C337 1.356 . S
N335 H340 0.984 . S
N335 H341 0.985 . S
C336 C330 1.379 . S
C336 C333 1.363 . S
C336 N334 1.356 . S
C337 C331 1.363 . S
C337 C332 1.379 . S
C337 N335 1.356 . S
N338 C330 1.356 . S
N338 H344 0.984 . S
N338 H345 0.984 . S
N339 C332 1.356 . S
N339 H342 0.984 . S
N339 H343 0.985 . S
H340 N335 0.984 . S
H341 N335 0.985 . S
H342 N339 0.984 . S
H343 N339 0.985 . S
H344 N338 0.984 . S
H345 N338 0.984 . S
H346 N334 0.984 . S
H347 N334 0.985 . S
C348 C349 1.363 . S
C348 C354 1.379 . S
C348 N356 1.356 . S
C349 C348 1.363 . S
C349 C355 1.363 . S
C350 C351 1.363 . S
C350 C355 1.379 . S
C350 N357 1.356 . S
C351 C350 1.363 . S
C351 C354 1.363 . S
N352 C354 1.356 . S
N352 H364 0.984 . S
N352 H365 0.985 . S
N353 C355 1.356 . S
N353 H358 0.984 . S
N353 H359 0.985 . S
C354 C348 1.379 . S
C354 C351 1.363 . S
C354 N352 1.356 . S
C355 C349 1.363 . S
C355 C350 1.379 . S
C355 N353 1.356 . S
N356 C348 1.356 . S
N356 H362 0.984 . S
N356 H363 0.984 . S
N357 C350 1.356 . S
N357 H360 0.984 . S
N357 H361 0.985 . S
H358 N353 0.984 . S
H359 N353 0.985 . S
H360 N357 0.984 . S
H361 N357 0.985 . S
H362 N356 0.984 . S
H363 N356 0.984 . S
H364 N352 0.984 . S
H365 N352 0.985 . S
C366 C367 1.363 . S
C366 C372 1.379 . S
C366 N374 1.356 . S
C367 C366 1.363 . S
C367 C373 1.363 . S
C368 C369 1.363 . S
C368 C373 1.379 . S
C368 N375 1.356 . S
C369 C368 1.363 . S
C369 C372 1.363 . S
N370 C372 1.356 . S
N370 H382 0.984 . S
N370 H383 0.985 . S
N371 C373 1.356 . S
N371 H376 0.984 . S
N371 H377 0.985 . S
C372 C366 1.379 . S
C372 C369 1.363 . S
C372 N370 1.356 . S
C373 C367 1.363 . S
C373 C368 1.379 . S
C373 N371 1.356 . S
N374 C366 1.356 . S
N374 H380 0.984 . S
N374 H381 0.984 . S
N375 C368 1.356 . S
N375 H378 0.984 . S
N375 H379 0.985 . S
H376 N371 0.984 . S
H377 N371 0.985 . S
H378 N375 0.984 . S
H379 N375 0.985 . S
H380 N374 0.984 . S
H381 N374 0.984 . S
H382 N370 0.984 . S
H383 N370 0.985 . S
C384 C385 1.363 . S
C384 C390 1.379 . S
C384 N392 1.356 . S
C385 C384 1.363 . S
C385 C391 1.363 . S
C386 C387 1.363 . S
C386 C391 1.379 . S
C386 N393 1.356 . S
C387 C386 1.363 . S
C387 C390 1.363 . S
N388 C390 1.356 . S
N388 H400 0.984 . S
N388 H401 0.985 . S
N389 C391 1.356 . S
N389 H394 0.984 . S
N389 H395 0.985 . S
C390 C384 1.379 . S
C390 C387 1.363 . S
C390 N388 1.356 . S
C391 C385 1.363 . S
C391 C386 1.379 . S
C391 N389 1.356 . S
N392 C384 1.356 . S
N392 H398 0.984 . S
N392 H399 0.984 . S
N393 C386 1.356 . S
N393 H396 0.984 . S
N393 H397 0.985 . S
H394 N389 0.984 . S
H395 N389 0.985 . S
H396 N393 0.984 . S
H397 N393 0.985 . S
H398 N392 0.984 . S
H399 N392 0.984 . S
H400 N388 0.984 . S
H401 N388 0.985 . S
C402 C403 1.363 . S
C402 C408 1.379 . S
C402 N410 1.356 . S
C403 C402 1.363 . S
C403 C409 1.363 . S
C404 C405 1.363 . S
C404 C409 1.379 . S
C404 N411 1.356 . S
C405 C404 1.363 . S
C405 C408 1.363 . S
N406 C408 1.356 . S
N406 H418 0.984 . S
N406 H419 0.985 . S
N407 C409 1.356 . S
N407 H412 0.984 . S
N407 H413 0.985 . S
C408 C402 1.379 . S
C408 C405 1.363 . S
C408 N406 1.356 . S
C409 C403 1.363 . S
C409 C404 1.379 . S
C409 N407 1.356 . S
N410 C402 1.356 . S
N410 H416 0.984 . S
N410 H417 0.984 . S
N411 C404 1.356 . S
N411 H414 0.984 . S
N411 H415 0.985 . S
H412 N407 0.984 . S
H413 N407 0.985 . S
H414 N411 0.984 . S
H415 N411 0.985 . S
H416 N410 0.984 . S
H417 N410 0.984 . S
H418 N406 0.984 . S
H419 N406 0.985 . S
C420 C421 1.363 . S
C420 C426 1.379 . S
C420 N428 1.356 . S
C421 C420 1.363 . S
C421 C427 1.363 . S
C422 C423 1.363 . S
C422 C427 1.379 . S
C422 N429 1.356 . S
C423 C422 1.363 . S
C423 C426 1.363 . S
N424 C426 1.356 . S
N424 H436 0.984 . S
N424 H437 0.985 . S
N425 C427 1.356 . S
N425 H430 0.984 . S
N425 H431 0.985 . S
C426 C420 1.379 . S
C426 C423 1.363 . S
C426 N424 1.356 . S
C427 C421 1.363 . S
C427 C422 1.379 . S
C427 N425 1.356 . S
N428 C420 1.356 . S
N428 H434 0.984 . S
N428 H435 0.984 . S
N429 C422 1.356 . S
N429 H432 0.984 . S
N429 H433 0.985 . S
H430 N425 0.984 . S
H431 N425 0.985 . S
H432 N429 0.984 . S
H433 N429 0.985 . S
H434 N428 0.984 . S
H435 N428 0.984 . S
H436 N424 0.984 . S
H437 N424 0.985 . S
C438 C439 1.363 . S
C438 C444 1.379 . S
C438 N446 1.356 . S
C439 C438 1.363 . S
C439 C445 1.363 . S
C440 C441 1.363 . S
C440 C445 1.379 . S
C440 N447 1.356 . S
C441 C440 1.363 . S
C441 C444 1.363 . S
N442 C444 1.356 . S
N442 H454 0.984 . S
N442 H455 0.985 . S
N443 C445 1.356 . S
N443 H448 0.984 . S
N443 H449 0.985 . S
C444 C438 1.379 . S
C444 C441 1.363 . S
C444 N442 1.356 . S
C445 C439 1.363 . S
C445 C440 1.379 . S
C445 N443 1.356 . S
N446 C438 1.356 . S
N446 H452 0.984 . S
N446 H453 0.984 . S
N447 C440 1.356 . S
N447 H450 0.984 . S
N447 H451 0.985 . S
H448 N443 0.984 . S
H449 N443 0.985 . S
H450 N447 0.984 . S
H451 N447 0.985 . S
H452 N446 0.984 . S
H453 N446 0.984 . S
H454 N442 0.984 . S
H455 N442 0.985 . S
C456 C457 1.363 . S
C456 C462 1.379 . S
C456 N464 1.356 . S
C457 C456 1.363 . S
C457 C463 1.363 . S
C458 C459 1.363 . S
C458 C463 1.379 . S
C458 N465 1.356 . S
C459 C458 1.363 . S
C459 C462 1.363 . S
N460 C462 1.356 . S
N460 H472 0.984 . S
N460 H473 0.985 . S
N461 C463 1.356 . S
N461 H466 0.984 . S
N461 H467 0.985 . S
C462 C456 1.379 . S
C462 C459 1.363 . S
C462 N460 1.356 . S
C463 C457 1.363 . S
C463 C458 1.379 . S
C463 N461 1.356 . S
N464 C456 1.356 . S
N464 H470 0.984 . S
N464 H471 0.984 . S
N465 C458 1.356 . S
N465 H468 0.984 . S
N465 H469 0.985 . S
H466 N461 0.984 . S
H467 N461 0.985 . S
H468 N465 0.984 . S
H469 N465 0.985 . S
H470 N464 0.984 . S
H471 N464 0.984 . S
H472 N460 0.984 . S
H473 N460 0.985 . S
C474 C475 1.363 . S
C474 C480 1.379 . S
C474 N482 1.356 . S
C475 C474 1.363 . S
C475 C481 1.363 . S
C476 C477 1.363 . S
C476 C481 1.379 . S
C476 N483 1.356 . S
C477 C476 1.363 . S
C477 C480 1.363 . S
N478 C480 1.356 . S
N478 H490 0.984 . S
N478 H491 0.985 . S
N479 C481 1.356 . S
N479 H484 0.984 . S
N479 H485 0.985 . S
C480 C474 1.379 . S
C480 C477 1.363 . S
C480 N478 1.356 . S
C481 C475 1.363 . S
C481 C476 1.379 . S
C481 N479 1.356 . S
N482 C474 1.356 . S
N482 H488 0.984 . S
N482 H489 0.984 . S
N483 C476 1.356 . S
N483 H486 0.984 . S
N483 H487 0.985 . S
H484 N479 0.984 . S
H485 N479 0.985 . S
H486 N483 0.984 . S
H487 N483 0.985 . S
H488 N482 0.984 . S
H489 N482 0.984 . S
H490 N478 0.984 . S
H491 N478 0.985 . S
C492 C493 1.363 . S
C492 C498 1.379 . S
C492 N500 1.356 . S
C493 C492 1.363 . S
C493 C499 1.363 . S
C494 C495 1.363 . S
C494 C499 1.379 . S
C494 N501 1.356 . S
C495 C494 1.363 . S
C495 C498 1.363 . S
N496 C498 1.356 . S
N496 H508 0.984 . S
N496 H509 0.985 . S
N497 C499 1.356 . S
N497 H502 0.984 . S
N497 H503 0.985 . S
C498 C492 1.379 . S
C498 C495 1.363 . S
C498 N496 1.356 . S
C499 C493 1.363 . S
C499 C494 1.379 . S
C499 N497 1.356 . S
N500 C492 1.356 . S
N500 H506 0.984 . S
N500 H507 0.984 . S
N501 C494 1.356 . S
N501 H504 0.984 . S
N501 H505 0.985 . S
H502 N497 0.984 . S
H503 N497 0.985 . S
H504 N501 0.984 . S
H505 N501 0.985 . S
H506 N500 0.984 . S
H507 N500 0.984 . S
H508 N496 0.984 . S
H509 N496 0.985 . S
C510 C511 1.363 . S
C510 C516 1.379 . S
C510 N518 1.356 . S
C511 C510 1.363 . S
C511 C517 1.363 . S
C512 C513 1.363 . S
C512 C517 1.379 . S
C512 N519 1.356 . S
C513 C512 1.363 . S
C513 C516 1.363 . S
N514 C516 1.356 . S
N514 H526 0.984 . S
N514 H527 0.985 . S
N515 C517 1.356 . S
N515 H520 0.984 . S
N515 H521 0.985 . S
C516 C510 1.379 . S
C516 C513 1.363 . S
C516 N514 1.356 . S
C517 C511 1.363 . S
C517 C512 1.379 . S
C517 N515 1.356 . S
N518 C510 1.356 . S
N518 H524 0.984 . S
N518 H525 0.984 . S
N519 C512 1.356 . S
N519 H522 0.984 . S
N519 H523 0.985 . S
H520 N515 0.984 . S
H521 N515 0.985 . S
H522 N519 0.984 . S
H523 N519 0.985 . S
H524 N518 0.984 . S
H525 N518 0.984 . S
H526 N514 0.984 . S
H527 N514 0.985 . S
C528 C529 1.363 . S
C528 C534 1.379 . S
C528 N536 1.356 . S
C529 C528 1.363 . S
C529 C535 1.363 . S
C530 C531 1.363 . S
C530 C535 1.379 . S
C530 N537 1.356 . S
C531 C530 1.363 . S
C531 C534 1.363 . S
N532 C534 1.356 . S
N532 H544 0.984 . S
N532 H545 0.985 1_554 S
N533 C535 1.356 . S
N533 H538 0.984 . S
N533 H539 0.985 . S
C534 C528 1.379 . S
C534 C531 1.363 . S
C534 N532 1.356 . S
C535 C529 1.363 . S
C535 C530 1.379 . S
C535 N533 1.356 . S
N536 C528 1.356 . S
N536 H542 0.984 . S
N536 H543 0.984 . S
N537 C530 1.356 . S
N537 H540 0.984 1_554 S
N537 H541 0.985 . S
H538 N533 0.984 . S
H539 N533 0.985 . S
H540 N537 0.984 1_556 S
H541 N537 0.985 . S
H542 N536 0.984 . S
H543 N536 0.984 . S
H544 N532 0.984 . S
H545 N532 0.985 1_556 S
C546 C547 1.363 1_565 S
C546 C552 1.379 . S
C546 N554 1.356 . S
C547 C546 1.363 1_545 S
C547 C553 1.363 . S
C548 C549 1.363 . S
C548 C553 1.379 . S
C548 N555 1.356 . S
C549 C548 1.363 . S
C549 C552 1.363 1_545 S
N550 C552 1.356 . S
N550 H562 0.984 . S
N550 H563 0.985 . S
N551 C553 1.356 . S
N551 H556 0.984 . S
N551 H557 0.985 . S
C552 C546 1.379 . S
C552 C549 1.363 1_565 S
C552 N550 1.356 . S
C553 C547 1.363 . S
C553 C548 1.379 . S
C553 N551 1.356 . S
N554 C546 1.356 . S
N554 H560 0.984 . S
N554 H561 0.984 . S
N555 C548 1.356 . S
N555 H558 0.984 . S
N555 H559 0.985 . S
H556 N551 0.984 . S
H557 N551 0.985 . S
H558 N555 0.984 . S
H559 N555 0.985 . S
H560 N554 0.984 . S
H561 N554 0.984 . S
H562 N550 0.984 . S
H563 N550 0.985 . S
C564 C565 1.363 . S
C564 C570 1.379 . S
C564 N572 1.356 . S
C565 C564 1.363 . S
C565 C571 1.363 . S
C566 C567 1.363 . S
C566 C571 1.379 . S
C566 N573 1.356 . S
C567 C566 1.363 . S
C567 C570 1.363 . S
N568 C570 1.356 . S
N568 H580 0.984 . S
N568 H581 0.985 . S
N569 C571 1.356 . S
N569 H574 0.984 . S
N569 H575 0.985 . S
C570 C564 1.379 . S
C570 C567 1.363 . S
C570 N568 1.356 . S
C571 C565 1.363 . S
C571 C566 1.379 . S
C571 N569 1.356 . S
N572 C564 1.356 . S
N572 H578 0.984 . S
N572 H579 0.984 . S
N573 C566 1.356 . S
N573 H576 0.984 . S
N573 H577 0.985 . S
H574 N569 0.984 . S
H575 N569 0.985 . S
H576 N573 0.984 . S
H577 N573 0.985 . S
H578 N572 0.984 . S
H579 N572 0.984 . S
H580 N568 0.984 . S
H581 N568 0.985 . S
C582 C583 1.363 . S
C582 C588 1.379 . S
C582 N590 1.356 . S
C583 C582 1.363 . S
C583 C589 1.363 1_545 S
C584 C585 1.363 . S
C584 C589 1.379 . S
C584 N591 1.356 . S
C585 C584 1.363 . S
C585 C588 1.363 1_565 S
N586 C588 1.356 . S
N586 H598 0.984 . S
N586 H599 0.985 . S
N587 C589 1.356 . S
N587 H592 0.984 . S
N587 H593 0.985 . S
C588 C582 1.379 . S
C588 C585 1.363 1_545 S
C588 N586 1.356 . S
C589 C583 1.363 1_565 S
C589 C584 1.379 . S
C589 N587 1.356 . S
N590 C582 1.356 . S
N590 H596 0.984 . S
N590 H597 0.984 . S
N591 C584 1.356 . S
N591 H594 0.984 . S
N591 H595 0.985 . S
H592 N587 0.984 . S
H593 N587 0.985 . S
H594 N591 0.984 . S
H595 N591 0.985 . S
H596 N590 0.984 . S
H597 N590 0.984 . S
H598 N586 0.984 . S
H599 N586 0.985 . S
C600 C601 1.363 . S
C600 C606 1.379 . S
C600 N608 1.356 . S
C601 C600 1.363 . S
C601 C607 1.363 . S
C602 C603 1.363 . S
C602 C607 1.379 . S
C602 N609 1.356 . S
C603 C602 1.363 . S
C603 C606 1.363 . S
N604 C606 1.356 . S
N604 H616 0.984 . S
N604 H617 0.985 1_556 S
N605 C607 1.356 . S
N605 H610 0.984 . S
N605 H611 0.985 . S
C606 C600 1.379 . S
C606 C603 1.363 . S
C606 N604 1.356 . S
C607 C601 1.363 . S
C607 C602 1.379 . S
C607 N605 1.356 . S
N608 C600 1.356 . S
N608 H614 0.984 . S
N608 H615 0.984 . S
N609 C602 1.356 . S
N609 H612 0.984 . S
N609 H613 0.985 . S
H610 N605 0.984 . S
H611 N605 0.985 . S
H612 N609 0.984 . S
H613 N609 0.985 . S
H614 N608 0.984 . S
H615 N608 0.984 . S
H616 N604 0.984 . S
H617 N604 0.985 1_554 S
C618 C619 1.363 1_655 S
C618 C624 1.379 . S
C618 N626 1.356 . S
C619 C618 1.363 1_455 S
C619 C625 1.363 . S
C620 C621 1.363 . S
C620 C625 1.379 . S
C620 N627 1.356 . S
C621 C620 1.363 . S
C621 C624 1.363 1_455 S
N622 C624 1.356 . S
N622 H634 0.984 . S
N622 H635 0.985 . S
N623 C625 1.356 . S
N623 H628 0.984 . S
N623 H629 0.985 . S
C624 C618 1.379 . S
C624 C621 1.363 1_655 S
C624 N622 1.356 . S
C625 C619 1.363 . S
C625 C620 1.379 . S
C625 N623 1.356 . S
N626 C618 1.356 . S
N626 H632 0.984 . S
N626 H633 0.984 . S
N627 C620 1.356 . S
N627 H630 0.984 . S
N627 H631 0.985 . S
H628 N623 0.984 . S
H629 N623 0.985 . S
H630 N627 0.984 . S
H631 N627 0.985 . S
H632 N626 0.984 . S
H633 N626 0.984 . S
H634 N622 0.984 . S
H635 N622 0.985 . S
C313 C7 0.949 . S
C315 C303 1.087 . S
C331 C51 1.972 . S
C333 C239 1.902 . S
C349 C87 1.401 . S
C351 C271 1.390 . S
C367 C16 0.742 . S
C369 C297 0.737 . S
C387 C233 1.967 . S
C385 C42 2.058 . S
C405 C265 1.381 . S
C403 C96 1.359 . S
C421 C47 1.319 . S
C423 C175 1.357 . S
C439 C91 3.125 . S
C441 C207 3.043 . S
C457 C2 2.091 . S
C459 C137 2.009 . S
C477 C169 1.396 . S
C475 C56 1.362 . S
C495 C201 3.043 . S
C493 C82 3.081 . S
C511 C11 1.973 . S
C513 C143 1.936 . S
C531 C213 1.763 1_554 S
C529 C19 1.739 . S
C547 C50 1.332 . S
C549 C149 1.340 . S
C565 C99 1.459 . S
C567 C181 1.479 . S
C585 C277 1.438 . S
C583 C59 1.448 . S
C603 C309 1.076 . S
C601 C90 1.072 . S
C619 C10 1.322 . S
C621 C245 1.319 . S
