# Generated by pormake.
# Topology zzz, (3,6)-cn, num edge types: 1
# Building blocks:
#     Node 0, Type 0, BuildingBlock: PAMTOO_clean_linker_0, # of connection points: 3
#     Node 1, Type 0, BuildingBlock: PAMTOO_clean_linker_0, # of connection points: 3
#     Node 2, Type 0, BuildingBlock: PAMTOO_clean_linker_0, # of connection points: 3
#     Node 3, Type 0, BuildingBlock: PAMTOO_clean_linker_0, # of connection points: 3
#     Node 4, Type 0, BuildingBlock: PAMTOO_clean_linker_0, # of connection points: 3
#     Node 5, Type 0, BuildingBlock: PAMTOO_clean_linker_0, # of connection points: 3
#     Node 6, Type 0, BuildingBlock: PAMTOO_clean_linker_0, # of connection points: 3
#     Node 7, Type 0, BuildingBlock: PAMTOO_clean_linker_0, # of connection points: 3
#     Node 8, Type 1, BuildingBlock: PAMTOO_clean_sbu_0, # of connection points: 6
#     Node 9, Type 1, BuildingBlock: PAMTOO_clean_sbu_0, # of connection points: 6
#     Node 10, Type 1, BuildingBlock: PAMTOO_clean_sbu_0, # of connection points: 6
#     Node 11, Type 1, BuildingBlock: PAMTOO_clean_sbu_0, # of connection points: 6
#     Edge 12, Type (0, 1), BuildingBlock: EZIPEK_clean_linker_0, # of connection points: 2
#     Edge 13, Type (0, 1), BuildingBlock: EZIPEK_clean_linker_0, # of connection points: 2
#     Edge 14, Type (0, 1), BuildingBlock: EZIPEK_clean_linker_0, # of connection points: 2
#     Edge 15, Type (0, 1), BuildingBlock: EZIPEK_clean_linker_0, # of connection points: 2
#     Edge 16, Type (0, 1), BuildingBlock: EZIPEK_clean_linker_0, # of connection points: 2
#     Edge 17, Type (0, 1), BuildingBlock: EZIPEK_clean_linker_0, # of connection points: 2
#     Edge 18, Type (0, 1), BuildingBlock: EZIPEK_clean_linker_0, # of connection points: 2
#     Edge 19, Type (0, 1), BuildingBlock: EZIPEK_clean_linker_0, # of connection points: 2
#     Edge 20, Type (0, 1), BuildingBlock: EZIPEK_clean_linker_0, # of connection points: 2
#     Edge 21, Type (0, 1), BuildingBlock: EZIPEK_clean_linker_0, # of connection points: 2
#     Edge 22, Type (0, 1), BuildingBlock: EZIPEK_clean_linker_0, # of connection points: 2
#     Edge 23, Type (0, 1), BuildingBlock: EZIPEK_clean_linker_0, # of connection points: 2
#     Edge 24, Type (0, 1), BuildingBlock: EZIPEK_clean_linker_0, # of connection points: 2
#     Edge 25, Type (0, 1), BuildingBlock: EZIPEK_clean_linker_0, # of connection points: 2
#     Edge 26, Type (0, 1), BuildingBlock: EZIPEK_clean_linker_0, # of connection points: 2
#     Edge 27, Type (0, 1), BuildingBlock: EZIPEK_clean_linker_0, # of connection points: 2
#     Edge 28, Type (0, 1), BuildingBlock: EZIPEK_clean_linker_0, # of connection points: 2
#     Edge 29, Type (0, 1), BuildingBlock: EZIPEK_clean_linker_0, # of connection points: 2
#     Edge 30, Type (0, 1), BuildingBlock: EZIPEK_clean_linker_0, # of connection points: 2
#     Edge 31, Type (0, 1), BuildingBlock: EZIPEK_clean_linker_0, # of connection points: 2
#     Edge 32, Type (0, 1), BuildingBlock: EZIPEK_clean_linker_0, # of connection points: 2
#     Edge 33, Type (0, 1), BuildingBlock: EZIPEK_clean_linker_0, # of connection points: 2
#     Edge 34, Type (0, 1), BuildingBlock: EZIPEK_clean_linker_0, # of connection points: 2
#     Edge 35, Type (0, 1), BuildingBlock: EZIPEK_clean_linker_0, # of connection points: 2
# Relax obj value: 0.283
# Max RMSD: 0.250
# Mean RMSD: 0.131
data_MOF--net-zzz--node1-PAMTOO_clean_sbu_0--node2-PAMTOO_clean_linker_0--edge1-EZIPEK_clean_linker_0
_symmetry_space_group_name_H-M    P1
_symmetry_Int_Tables_number       1
_symmetry_cell_setting            triclinic
loop_
_symmetry_equiv_pos_as_xyz
'x, y, z'
_cell_length_a     43.90481
_cell_length_b     36.037459
_cell_length_c     11.65917
_cell_angle_alpha  92.612872
_cell_angle_beta   77.025141
_cell_angle_gamma 85.299248
loop_
_atom_site_label
_atom_site_type_symbol
_atom_site_fract_x
_atom_site_fract_y
_atom_site_fract_z
_atom_type_partial_charge
H0 H 0.88513 0.45251 0.5946 0.0
H1 H 0.79902 0.46371 0.48165 0.0
H2 H 0.81953 0.55009 0.71363 0.0
H3 H 0.79162 0.52528 0.39934 0.0
C4 C 0.77576 0.54286 0.47339 0.0
O5 O 0.77896 0.52978 0.58164 0.0
H6 H 0.78491 0.57061 0.46482 0.0
C7 C 0.86289 0.46846 0.59718 0.0
C8 C 0.85466 0.50212 0.66748 0.0
C9 C 0.84287 0.45499 0.53021 0.0
C10 C 0.81397 0.47462 0.53458 0.0
C11 C 0.80587 0.50984 0.59416 0.0
C12 C 0.82611 0.52355 0.66313 0.0
H13 H 0.9712 0.84627 0.61985 0.0
H14 H 0.96511 0.75256 0.38509 0.0
H15 H 0.04043 0.7528 0.56524 0.0
H16 H 0.02256 0.66991 0.50496 0.0
C17 C 1.00691 0.68097 0.44916 0.0
O18 O 1.01563 0.71534 0.41197 0.0
H19 H 0.98257 0.68554 0.50419 0.0
C20 C 0.97923 0.81849 0.57986 0.0
C21 C 1.00691 0.80183 0.60261 0.0
C22 C 0.96387 0.80191 0.49975 0.0
C23 C 0.97597 0.7662 0.44792 0.0
C24 C 1.00325 0.74829 0.47193 0.0
C25 C 1.01882 0.76608 0.54967 0.0
H26 H 0.69881 0.00978 0.37265 0.0
H27 H 0.79706 1.00021 0.20872 0.0
H28 H 0.76636 0.01151 0.58976 0.0
H29 H 0.83997 0.05013 0.44524 0.0
C30 C 0.83696 0.03547 0.36322 0.0
O31 O 0.81815 0.00589 0.39585 0.0
H32 H 0.82287 0.0553 0.32102 0.0
C33 C 0.72291 0.00858 0.38228 0.0
C34 C 0.7283 0.00998 0.49546 0.0
C35 C 0.74735 0.00504 0.28057 0.0
C36 C 0.77854 1.0034 0.28854 0.0
C37 C 0.78631 0.00698 0.39789 0.0
C38 C 0.76089 0.00986 0.50383 0.0
H39 H 0.49081 0.66382 0.48533 0.0
H40 H 0.50842 0.72519 0.17552 0.0
H41 H 0.54311 0.75995 0.47752 0.0
H42 H 0.48755 0.80731 0.26786 0.0
C43 C 0.51187 0.80386 0.21257 0.0
O44 O 0.53143 0.7823 0.26984 0.0
H45 H 0.50939 0.78737 0.13288 0.0
C46 C 0.49956 0.68821 0.44215 0.0
C47 C 0.51898 0.70914 0.49247 0.0
C48 C 0.49806 0.69175 0.32524 0.0
C49 C 0.50941 0.72287 0.26687 0.0
C50 C 0.52244 0.75055 0.32595 0.0
C51 C 0.52908 0.7422 0.43762 0.0
H52 H 0.19112 0.43678 0.09077 0.0
H53 H 0.27087 0.45777 0.23418 0.0
H54 H 0.23159 0.54089 0.04444 0.0
H55 H 0.31155 0.54968 0.08607 0.0
C56 C 0.30632 0.52384 0.13208 0.0
O57 O 0.27394 0.52464 0.17285 0.0
H58 H 0.31536 0.50193 0.05993 0.0
C59 C 0.20955 0.45388 0.10162 0.0
C60 C 0.20836 0.48975 0.06015 0.0
C61 C 0.23094 0.44203 0.16957 0.0
C62 C 0.25456 0.46527 0.18033 0.0
C63 C 0.2552 0.50057 0.13566 0.0
C64 C 0.23222 0.51282 0.07376 0.0
H65 H 0.95986 0.19535 0.26494 0.0
H66 H 0.95045 0.30521 0.43412 0.0
H67 H 0.03797 0.26146 0.20444 0.0
H68 H 0.04475 0.29493 0.44463 0.0
C69 C 0.02214 0.31269 0.46745 0.0
O70 O 1.00994 0.3154 0.36746 0.0
H71 H 1.00721 0.29673 0.53413 0.0
C72 C 0.96891 0.22198 0.27748 0.0
C73 C 0.9995 0.22669 0.21635 0.0
C74 C 0.95139 0.24915 0.36234 0.0
C75 C 0.96432 0.28286 0.37735 0.0
C76 C 0.99596 0.28676 0.32674 0.0
C77 C 1.01348 0.25886 0.24355 0.0
H78 H 0.36604 0.97143 0.35262 0.0
H79 H 0.26982 0.9655 0.52798 0.0
H80 H 0.29247 0.03082 0.22292 0.0
H81 H 0.22371 0.06193 0.44655 0.0
C82 C 0.22601 0.03478 0.48666 0.0
O83 O 0.24427 0.00869 0.39873 0.0
H84 H 0.24015 0.0384 0.55358 0.0
C85 C 0.34137 0.97963 0.35801 0.0
C86 C 0.33315 1.00213 0.27308 0.0
C87 C 0.31887 0.96672 0.44883 0.0
C88 C 0.28689 0.97621 0.45818 0.0
C89 C 0.27653 1.00033 0.38123 0.0
C90 C 0.29995 0.01325 0.28619 0.0
H91 H 0.54049 0.37786 0.36437 0.0
H92 H 0.56217 0.27762 0.52641 0.0
H93 H 0.50692 0.2751 0.26334 0.0
H94 H 0.48545 0.21942 0.48359 0.0
C95 C 0.50717 0.22233 0.51572 0.0
O96 O 0.5298 0.23465 0.42383 0.0
H97 H 0.49945 0.24445 0.58844 0.0
C98 C 0.53897 0.34811 0.37213 0.0
C99 C 0.52325 0.32906 0.29998 0.0
C100 C 0.55232 0.33022 0.4553 0.0
C101 C 0.5507 0.29172 0.46547 0.0
C102 C 0.53285 0.27167 0.40266 0.0
C103 C 0.51948 0.29041 0.31687 0.0
Dy104 Dy 1.01717 0.02077 0.78649 0.0
Dy105 Dy 0.04506 0.99677 0.00757 0.0
C106 C 0.09438 0.01107 0.76019 0.0
O107 O 0.03466 0.96055 0.74629 0.0
O108 O 0.02902 0.94473 0.93581 0.0
O109 O 1.01712 0.05468 0.63931 0.0
O110 O 0.98553 0.01115 0.67262 0.0
O111 O 0.99248 0.01 0.08937 0.0
O112 O 0.97249 0.0124 0.92451 0.0
O113 O 0.0519 0.05737 0.98923 0.0
O114 O 1.01012 0.07227 0.90934 0.0
O115 O 0.05328 0.01086 0.17981 0.0
O116 O 0.06685 0.95509 0.09966 0.0
C117 C 0.03184 0.93518 0.82377 0.0
O118 O 0.06999 0.02576 0.72232 0.0
O119 O 0.08986 0.99463 0.86145 0.0
C120 C 0.96834 0.06608 0.59321 0.0
C121 C 0.93143 0.13097 0.56827 0.0
C122 C 0.95304 0.11301 0.47018 0.0
C123 C 0.97113 0.08052 0.48257 0.0
C124 C 0.94445 0.0816 0.68867 0.0
C125 C 0.92549 0.11356 0.67538 0.0
C126 C 0.99366 0.03948 0.61079 0.0
C127 C 0.96801 0.01211 0.04059 0.0
C128 C 0.03037 0.08219 0.96974 0.0
C129 C 0.03673 0.96085 0.29382 0.0
C130 C 0.98703 0.91917 0.3898 0.0
C131 C 0.98091 0.95697 0.37298 0.0
C132 C 1.00566 0.97784 0.32673 0.0
C133 C 0.04308 0.92458 0.32628 0.0
C134 C 1.01832 0.90392 0.3748 0.0
C135 C 0.05941 0.97598 0.19818 0.0
H136 H 0.9576 0.12562 0.38607 0.0
H137 H 0.98894 0.06821 0.40796 0.0
H138 H 0.94185 0.07054 0.77479 0.0
H139 H 0.90844 0.12667 0.7513 0.0
H140 H 0.95703 0.9695 0.38581 0.0
H141 H 0.99996 0.00604 0.30505 0.0
H142 H 0.06675 0.91088 0.30239 0.0
H143 H 0.02343 0.87476 0.38866 0.0
Dy144 Dy 0.52367 0.99143 0.75467 0.0
Dy145 Dy 0.53171 0.03775 0.97774 0.0
C146 C 0.52165 0.08147 0.75661 0.0
O147 O 0.57746 0.98673 0.7172 0.0
O148 O 0.58049 0.03376 0.84983 0.0
O149 O 0.50578 0.99574 0.59846 0.0
O150 O 0.52661 0.94245 0.63655 0.0
O151 O 0.53661 0.97736 0.02859 0.0
O152 O 0.52311 0.94495 0.87762 0.0
O153 O 0.47902 0.03535 0.03461 0.0
O154 O 0.47312 1.00188 0.87055 0.0
O155 O 0.5309 0.04288 0.16444 0.0
O156 O 0.55045 0.08476 0.05133 0.0
C157 C 0.59455 0.00999 0.76024 0.0
O158 O 0.53298 0.04959 0.69682 0.0
O159 O 0.51277 0.08192 0.8725 0.0
C160 C 0.47893 0.94426 0.57229 0.0
C161 C 0.41726 0.92554 0.59378 0.0
C162 C 0.42872 0.95324 0.5195 0.0
C163 C 0.45925 0.96261 0.50907 0.0
C164 C 0.4677 0.91564 0.64443 0.0
C165 C 0.43693 0.90629 0.65498 0.0
C166 C 0.50863 0.9597 0.57664 0.0
C167 C 0.52996 0.94593 0.98151 0.0
C168 C 0.46085 0.01821 0.9775 0.0
C169 C 0.58249 0.05449 0.1572 0.0
C170 C 0.64598 0.03092 0.13561 0.0
C171 C 0.6289 0.0133 0.06571 0.0
C172 C 0.59718 0.02356 0.0817 0.0
C173 C 0.59958 0.07331 0.22528 0.0
C174 C 0.63121 0.06093 0.21645 0.0
C175 C 0.55088 0.068 0.14767 0.0
H176 H 0.41368 0.96833 0.47176 0.0
H177 H 0.46721 0.98497 0.45408 0.0
H178 H 0.48217 0.90157 0.69623 0.0
H179 H 0.42819 0.88505 0.71326 0.0
H180 H 0.6399 0.99068 1.00149 0.0
H181 H 0.58434 0.00774 0.03156 0.0
H182 H 0.58874 0.09742 0.28332 0.0
H183 H 0.64437 0.07516 0.27036 0.0
Dy184 Dy 0.55687 0.52193 0.92164 0.0
Dy185 Dy 0.48588 0.51517 0.84127 0.0
C186 C 0.51172 0.45461 0.0143 0.0
O187 O 0.56427 0.47267 0.79138 0.0
O188 O 0.52523 0.4891 0.69501 0.0
O189 O 0.57268 0.52978 0.08115 0.0
O190 O 0.60745 0.52562 0.91175 0.0
O191 O 0.50392 0.57021 0.77997 0.0
O192 O 0.55658 0.56582 0.78809 0.0
O193 O 0.4742 0.53852 0.02729 0.0
O194 O 0.51981 0.5666 0.00462 0.0
O195 O 0.44105 0.5425 0.82387 0.0
O196 O 0.45428 0.48492 0.76122 0.0
C197 C 0.54896 0.46626 0.70858 0.0
O198 O 0.53741 0.47166 0.00965 0.0
O199 O 0.48902 0.4674 0.96361 0.0
C200 C 0.62656 0.53395 0.09811 0.0
C201 C 0.67199 0.53948 0.23772 0.0
C202 C 0.64001 0.53923 0.29112 0.0
C203 C 0.61764 0.5366 0.22256 0.0
C204 C 0.65864 0.53447 0.04448 0.0
C205 C 0.6811 0.53722 0.11354 0.0
C206 C 0.6022 0.52958 0.02742 0.0
C207 C 0.53195 0.58326 0.75793 0.0
C208 C 0.49096 0.56334 0.0611 0.0
C209 C 0.41627 0.51815 0.67507 0.0
C210 C 0.38092 0.52133 0.49761 0.0
C211 C 0.41385 0.51345 0.46704 0.0
C212 C 0.43135 0.5117 0.55485 0.0
C213 C 0.38352 0.52684 0.7049 0.0
C214 C 0.36608 0.52837 0.61756 0.0
C215 C 0.43316 0.51314 0.77202 0.0
H216 H 0.63236 0.54067 0.38638 0.0
H217 H 0.59326 0.53623 0.26771 0.0
H218 H 0.66643 0.53239 0.94927 0.0
H219 H 0.70564 0.5372 0.07006 0.0
H220 H 0.42593 0.50819 0.37528 0.0
H221 H 0.45652 0.50476 0.52895 0.0
H222 H 0.37121 0.53165 0.79665 0.0
H223 H 0.34082 0.53451 0.64382 0.0
Dy224 Dy 0.03624 0.53014 0.80475 0.0
Dy225 Dy 1.01299 0.4803 0.02235 0.0
C226 C 0.03076 0.44441 0.76593 0.0
O227 O 0.98548 0.52729 0.80106 0.0
O228 O 0.96702 0.50125 0.97733 0.0
O229 O 0.04109 0.53454 0.61667 0.0
O230 O 0.06621 0.56935 0.71134 0.0
O231 O 1.01694 0.53683 0.10216 0.0
O232 O 1.0126 0.57358 0.94876 0.0
O233 O 0.06609 0.47644 0.99013 0.0
O234 O 0.07316 0.53212 0.90999 0.0
O235 O 0.98647 0.46956 0.19533 0.0
O236 O 0.02161 0.42741 0.09374 0.0
C237 C 0.96222 0.51559 0.87942 0.0
O238 O 0.05116 0.46927 0.75226 0.0
O239 O 1.00837 0.4476 0.86145 0.0
C240 C 0.09547 0.52913 0.5538 0.0
C241 C 0.14455 0.47335 0.45809 0.0
C242 C 0.13267 0.47802 0.57915 0.0
C243 C 0.10924 0.50616 0.62623 0.0
C244 C 0.10631 0.52359 0.4311 0.0
C245 C 0.13105 0.49598 0.38353 0.0
C246 C 0.06613 0.55213 0.61032 0.0
C247 C 1.01257 0.56978 0.06097 0.0
C248 C 0.08365 0.50397 0.96156 0.0
C249 C 0.97674 0.40686 0.21558 0.0
C250 C 0.92329 0.36755 0.27458 0.0
C251 C 0.93721 0.38209 0.3632 0.0
C252 C 0.96359 0.40172 0.33364 0.0
C253 C 0.96587 0.38816 0.12663 0.0
C254 C 0.93966 0.36802 0.1561 0.0
C255 C 0.99898 0.43508 0.18763 0.0
H256 H 0.14199 0.46002 0.63716 0.0
H257 H 0.10097 0.50862 0.72007 0.0
H258 H 0.09524 0.53968 0.37279 0.0
H259 H 0.13919 0.49148 0.28894 0.0
H260 H 0.92602 0.38203 0.45584 0.0
H261 H 0.97211 0.41546 0.40327 0.0
H262 H 0.97623 0.39123 0.03443 0.0
H263 H 0.93066 0.35591 0.08545 0.0
C264 C 0.17886 0.04395 0.67094 0.0
C265 C 0.19175 0.02624 0.55488 0.0
C266 C 0.13959 1.00023 0.57029 0.0
C267 C 0.12817 0.01543 0.6894 0.0
N268 N 0.13988 0.04809 0.8568 0.0
N269 N 0.17823 0.99869 0.38279 0.0
C270 C 0.14886 0.0358 0.74043 0.0
C271 C 0.17042 0.00719 0.5017 0.0
N272 N 0.19358 0.07218 0.71145 0.0
N273 N 0.12131 0.97766 0.52345 0.0
H274 H 0.19874 0.00593 0.3282 0.0
H275 H 0.16291 0.98846 0.33542 0.0
H276 H 0.09888 0.97259 0.56873 0.0
H277 H 0.12915 0.96157 0.44427 0.0
H278 H 0.18377 0.08906 0.78784 0.0
H279 H 0.21343 0.08278 0.66237 0.0
H280 H 0.15549 0.05746 0.90455 0.0
H281 H 0.1174 0.0467 0.90844 0.0
C282 C 0.53003 0.18388 0.66807 0.0
C283 C 0.51722 0.18468 0.56557 0.0
C284 C 0.507 0.11843 0.58999 0.0
C285 C 0.52026 0.11723 0.69106 0.0
N286 N 0.55207 0.14693 0.80495 0.0
N287 N 0.50406 0.14802 0.40897 0.0
C288 C 0.5339 0.14949 0.72409 0.0
C289 C 0.50921 0.15037 0.52016 0.0
N290 N 0.53827 0.2161 0.71366 0.0
N291 N 0.49043 0.08997 0.56402 0.0
H292 H 0.50658 0.17024 0.35432 0.0
H293 H 0.50104 0.12299 0.36642 0.0
H294 H 0.48636 0.06747 0.61658 0.0
H295 H 0.47773 0.09081 0.49854 0.0
H296 H 0.54314 0.21885 0.79689 0.0
H297 H 0.53916 0.24062 0.66995 0.0
H298 H 0.56555 0.16789 0.82358 0.0
H299 H 0.5563 0.12238 0.84503 0.0
C300 C 0.32554 0.55501 0.30233 0.0
C301 C 0.32359 0.52169 0.23439 0.0
C302 C 0.35623 0.48723 0.35065 0.0
C303 C 0.36164 0.52138 0.4053 0.0
N304 N 0.35481 0.5885 0.42033 0.0
N305 N 0.33841 0.45519 0.1942 0.0
C306 C 0.34714 0.55543 0.37767 0.0
C307 C 0.33921 0.48753 0.25897 0.0
N308 N 0.30609 0.58626 0.29774 0.0
N309 N 0.36626 0.45425 0.3899 0.0
H310 H 0.32399 0.45225 0.1355 0.0
H311 H 0.35321 0.43116 0.1951 0.0
H312 H 0.37895 0.45278 0.45549 0.0
H313 H 0.35982 0.42845 0.36508 0.0
H314 H 0.30409 0.61001 0.35424 0.0
H315 H 0.28944 0.58728 0.24654 0.0
H316 H 0.34793 0.6143 0.39267 0.0
H317 H 0.37051 0.59002 0.47521 0.0
C318 C 0.99785 0.37345 0.59037 0.0
C319 C 0.02499 0.35113 0.52519 0.0
C320 C 0.05783 0.39231 0.60923 0.0
C321 C 0.03045 0.41504 0.67049 0.0
N322 N 0.97683 0.43544 0.67004 0.0
N323 N 0.08079 0.34869 0.44129 0.0
C324 C 1.00122 0.40817 0.64557 0.0
C325 C 0.05504 0.36361 0.52418 0.0
N326 N 0.96875 0.36128 0.60489 0.0
N327 N 0.0862 0.3968 0.6348 0.0
H328 H 0.07925 0.33062 0.37083 0.0
H329 H 0.10302 0.35772 0.43389 0.0
H330 H 0.08923 0.41685 0.69716 0.0
H331 H 0.1062 0.3785 0.60133 0.0
H332 H 0.94889 0.37525 0.66148 0.0
H333 H 0.9649 0.33566 0.57014 0.0
H334 H 0.95571 0.43279 0.64491 0.0
H335 H 0.97953 0.46234 0.69981 0.0
C336 C 0.89154 0.99405 0.27601 0.0
C337 C 0.87091 0.02707 0.27656 0.0
C338 C 0.91438 0.05026 0.12429 0.0
C339 C 0.93428 0.01675 0.1203 0.0
N340 N 0.93906 0.95425 0.18124 0.0
N341 N 0.87015 0.09218 0.23079 0.0
C342 C 0.922 0.98814 0.19357 0.0
C343 C 0.88437 0.05652 0.20787 0.0
N344 N 0.88365 0.96971 0.36181 0.0
N345 N 0.92406 0.07679 0.04759 0.0
H346 H 0.85024 0.10007 0.29737 0.0
H347 H 0.88032 0.11538 0.1948 0.0
H348 H 0.94653 0.07547 0.99342 0.0
H349 H 0.90908 0.09884 0.03125 0.0
H350 H 0.8988 0.94738 0.37508 0.0
H351 H 0.86352 0.97421 0.4294 0.0
H352 H 0.92998 0.93032 0.21613 0.0
H353 H 0.96182 0.94965 0.12946 0.0
C354 C 0.50503 0.87573 0.22114 0.0
C355 C 0.52314 0.84207 0.16988 0.0
C356 C 0.55044 0.87859 0.00759 0.0
C357 C 0.52888 0.91068 0.0499 0.0
N358 N 0.48302 0.93795 0.19233 0.0
N359 N 0.56401 0.81174 0.01297 0.0
C360 C 0.50561 0.90877 0.15609 0.0
C361 C 0.54642 0.8438 0.06338 0.0
N362 N 0.48739 0.87612 0.33361 0.0
N363 N 0.57526 0.88159 0.915 0.0
H364 H 0.56328 0.78675 0.0548 0.0
H365 H 0.57839 0.80943 0.92835 0.0
H366 H 0.57853 0.90614 0.87176 0.0
H367 H 0.59379 0.86094 0.88665 0.0
H368 H 0.47333 0.89923 0.37715 0.0
H369 H 0.48925 0.85418 0.38778 0.0
H370 H 0.46298 0.9366 0.25887 0.0
H371 H 0.48274 0.96256 0.14879 0.0
C372 C 0.73018 0.50871 0.42557 0.0
C373 C 0.7423 0.5429 0.44962 0.0
C374 C 0.70426 0.57576 0.35211 0.0
C375 C 0.69578 0.5409 0.31297 0.0
N376 N 0.70155 0.47377 0.30844 0.0
N377 N 0.7316 0.60948 0.47824 0.0
C378 C 0.70885 0.50729 0.34941 0.0
C379 C 0.72656 0.57669 0.42514 0.0
N380 N 0.73701 0.47822 0.48346 0.0
N381 N 0.69175 0.60795 0.31592 0.0
H382 H 0.74518 0.61026 0.54103 0.0
H383 H 0.71965 0.63516 0.47187 0.0
H384 H 0.67486 0.60829 0.26563 0.0
H385 H 0.69925 0.6341 0.3294 0.0
H386 H 0.72746 0.45294 0.47662 0.0
H387 H 0.74813 0.48012 0.55305 0.0
H388 H 0.71317 0.44826 0.31918 0.0
H389 H 0.68538 0.4715 0.25578 0.0
C390 C 0.98575 0.6262 0.35256 0.0
C391 C 1.00855 0.65253 0.34473 0.0
C392 C 0.03257 0.62719 0.14075 0.0
C393 C 1.00856 0.60271 0.14741 0.0
N394 N 0.95864 0.58468 0.24924 0.0
N395 N 0.06045 0.66677 0.24724 0.0
C396 C 0.98407 0.6041 0.25029 0.0
C397 C 0.03378 0.65022 0.24258 0.0
N398 N 0.96776 0.61932 0.46001 0.0
N399 N 0.05434 0.62841 0.03716 0.0
H400 H 0.06385 0.68015 0.32389 0.0
H401 H 0.08088 0.66324 0.18064 0.0
H402 H 0.05501 0.6111 0.96249 0.0
H403 H 0.07017 0.6486 0.02186 0.0
H404 H 0.95336 0.5976 0.47198 0.0
H405 H 0.97044 0.63132 0.53971 0.0
H406 H 0.93836 0.58764 0.31676 0.0
H407 H 0.95649 0.56867 0.17506 0.0
C408 C 0.92899 0.23548 0.56788 0.0
C409 C 0.92437 0.23749 0.45259 0.0
C410 C 0.9018 0.1778 0.47291 0.0
C411 C 0.9193 0.1701 0.55914 0.0
N412 N 0.94802 0.19431 0.69787 0.0
N413 N 0.89595 0.21831 0.31405 0.0
C414 C 0.93168 0.19993 0.61244 0.0
C415 C 0.90568 0.21167 0.41467 0.0
N416 N 0.93073 0.26708 0.63359 0.0
N417 N 0.88312 0.15211 0.44453 0.0
H418 H 0.88444 0.19974 0.27155 0.0
H419 H 0.88444 0.19974 0.27155 0.0
H420 H 0.88096 0.1271 0.48627 0.0
H421 H 0.86784 0.15705 0.38927 0.0
H422 H 0.9329 0.26681 0.72081 0.0
H423 H 0.9251 0.29336 0.60627 0.0
H424 H 0.96015 0.215 0.72792 0.0
H425 H 0.95113 0.16879 0.73383 0.0
C426 C 0.34685 0.9082 0.48754 0.0
C427 C 0.33043 0.94303 0.53339 0.0
C428 C 0.36197 0.94695 0.67996 0.0
C429 C 0.38382 0.91947 0.60948 0.0
N430 N 0.39527 0.86775 0.46512 0.0
N431 N 0.31686 0.9917 0.68924 0.0
C432 C 0.37507 0.89711 0.52185 0.0
C433 C 0.33549 0.96044 0.63797 0.0
N434 N 0.33637 0.88775 0.40543 0.0
N435 N 0.36816 0.9616 0.78139 0.0
H436 H 0.29693 1.00134 0.66084 0.0
H437 H 0.32117 0.00822 0.75832 0.0
H438 H 0.38816 0.95201 0.80971 0.0
H439 H 0.35275 0.98072 0.84089 0.0
H440 H 0.34645 0.86136 0.37017 0.0
H441 H 0.31581 0.89663 0.37962 0.0
H442 H 0.39207 0.85224 0.39199 0.0
H443 H 0.41577 0.85937 0.49206 0.0
C444 C 0.58493 0.38025 0.50157 0.0
C445 C 0.56249 0.35478 0.54276 0.0
C446 C 0.53219 0.40193 0.68568 0.0
C447 C 0.55412 0.42829 0.64697 0.0
N448 N 0.60512 0.43994 0.53347 0.0
N449 N 0.52481 0.33708 0.71019 0.0
C450 C 0.58207 0.41645 0.56085 0.0
C451 C 0.53995 0.36406 0.64832 0.0
N452 N 0.60765 0.3703 0.40177 0.0
N453 N 0.50321 0.41289 0.75421 0.0
H454 H 0.53052 0.30879 0.68654 0.0
H455 H 0.5097 0.34272 0.7931 0.0
H456 H 0.49551 0.44061 0.77492 0.0
H457 H 0.48563 0.39496 0.77631 0.0
H458 H 0.62274 0.38865 0.35832 0.0
H459 H 0.61039 0.34342 0.36096 0.0
H460 H 0.62705 0.43182 0.47832 0.0
H461 H 0.6028 0.46712 0.57143 0.0
C462 C 0.19504 0.39616 0.25489 0.0
C463 C 0.22339 0.41177 0.25446 0.0
C464 C 0.20071 0.44571 0.43891 0.0
C465 C 0.1708 0.44435 0.40975 0.0
N466 N 0.13813 0.40862 0.31323 0.0
N467 N 0.2536 0.41413 0.40134 0.0
C468 C 0.16721 0.41556 0.32687 0.0
C469 C 0.2262 0.42251 0.36839 0.0
N470 N 0.19491 0.36694 0.1772 0.0
N471 N 0.20575 0.47087 0.52207 0.0
H472 H 0.27242 0.39845 0.34371 0.0
H473 H 0.25634 0.42072 0.48629 0.0
H474 H 0.18851 0.49074 0.56981 0.0
H475 H 0.22807 0.47367 0.53649 0.0
H476 H 0.17492 0.35364 0.17367 0.0
H477 H 0.21586 0.35532 0.12088 0.0
H478 H 0.13448 0.39022 0.24721 0.0
H479 H 0.11766 0.42172 0.36868 0.0
C480 C 0.95058 0.83201 0.33332 0.0
C481 C 0.94023 0.82559 0.45288 0.0
C482 C 0.93897 0.89163 0.50525 0.0
C483 C 0.96208 0.89336 0.39885 0.0
N484 N 0.98274 0.86946 0.19634 0.0
N485 N 0.90267 0.85232 0.62296 0.0
C486 C 0.96493 0.86526 0.30609 0.0
C487 C 0.92542 0.8572 0.52598 0.0
N488 N 0.94741 0.80614 0.24925 0.0
N489 N 0.93284 0.92042 0.58964 0.0
H490 H 0.89526 0.82584 0.63942 0.0
H491 H 0.89026 0.87423 0.68029 0.0
H492 H 0.94312 0.94541 0.577 0.0
H493 H 0.91831 0.91905 0.67291 0.0
H494 H 0.95335 0.81008 0.1593 0.0
H495 H 0.93594 0.78238 0.27262 0.0
H496 H 0.98833 0.84805 0.1299 0.0
H497 H 0.9926 0.89427 0.17382 0.0
C498 C 0.72095 0.97322 0.15131 0.0
C499 C 0.73853 1.00312 0.16615 0.0
C500 C 0.70204 0.04471 0.09227 0.0
C501 C 0.67954 0.01852 0.12228 0.0
N502 N 0.66971 0.95449 0.17295 0.0
N503 N 0.75172 0.06457 0.11919 0.0
C504 C 0.6896 0.98145 0.14484 0.0
C505 C 0.73156 0.03766 0.12127 0.0
N506 N 0.73218 0.93796 0.16747 0.0
N507 N 0.69491 0.07602 0.03818 0.0
H508 H 0.77364 0.05888 0.13867 0.0
H509 H 0.74654 0.0921 0.1012 0.0
H510 H 0.6735 0.08108 0.01412 0.0
H511 H 0.71105 0.09499 0.00784 0.0
H512 H 0.71922 0.91506 0.1639 0.0
H513 H 0.75493 0.93232 0.17971 0.0
H514 H 0.64547 0.95827 0.18215 0.0
H515 H 0.64547 0.95827 0.18215 0.0
C516 C 0.50986 0.62389 0.26956 0.0
C517 C 0.49151 0.65768 0.26175 0.0
C518 C 0.46056 0.62278 0.15152 0.0
C519 C 0.47895 0.58967 0.16389 0.0
N520 N 0.51049 0.55697 0.27643 0.0
N521 N 0.44477 0.68798 0.21762 0.0
C522 C 0.49906 0.58985 0.24156 0.0
C523 C 0.46515 0.65682 0.2102 0.0
N524 N 0.53871 0.6244 0.29506 0.0
N525 N 0.44024 0.62188 0.07878 0.0
H526 H 0.44787 0.71318 0.25919 0.0
H527 H 0.42382 0.68803 0.18981 0.0
H528 H 0.43596 0.59685 0.03931 0.0
H529 H 0.42873 0.64572 0.05493 0.0
H530 H 0.55365 0.60029 0.2941 0.0
H531 H 0.54919 0.64909 0.30168 0.0
H532 H 0.52451 0.55571 0.33776 0.0
H533 H 0.5032 0.53154 0.25134 0.0
C534 C 0.85885 0.38634 0.49855 0.0
C535 C 0.85299 0.42091 0.45028 0.0
C536 C 0.87156 0.3901 0.25432 0.0
C537 C 0.88882 0.36327 0.30373 0.0
N538 N 0.88171 0.32134 0.45662 0.0
N539 N 0.8524 0.45511 0.27499 0.0
C540 C 0.8756 0.35596 0.42104 0.0
C541 C 0.85793 0.42257 0.32562 0.0
N542 N 0.84989 0.38448 0.61751 0.0
N543 N 0.86958 0.38509 0.14004 0.0
H544 H 0.84441 0.48042 0.32324 0.0
H545 H 0.85845 0.45733 0.18397 0.0
H546 H 0.87905 0.36034 0.09009 0.0
H547 H 0.85574 0.40335 0.1016 0.0
H548 H 0.85444 0.36105 0.66238 0.0
H549 H 0.85444 0.36105 0.66238 0.0
H550 H 0.87271 0.31282 0.54057 0.0
H551 H 0.89444 0.30054 0.39525 0.0
C552 C 0.02856 0.16373 0.19526 0.0
C553 C 1.01711 0.19405 0.13928 0.0
C554 C 0.02217 0.15272 0.96061 0.0
C555 C 0.02738 0.12117 0.02539 0.0
N556 N 0.02856 0.09756 0.21526 0.0
N557 N 1.00197 0.21792 0.969 0.0
C558 C 0.02935 0.1269 0.14512 0.0
C559 C 1.01393 0.18876 0.02134 0.0
N560 N 0.03696 0.17008 0.29983 0.0
N561 N 0.02587 0.14849 0.8411 0.0
H562 H 0.99726 0.24488 0.00937 0.0
H563 H 0.99541 0.21496 0.88884 0.0
H564 H 0.03313 0.1229 0.79333 0.0
H565 H 0.02485 0.17085 0.78815 0.0
H566 H 0.04805 0.14945 0.34013 0.0
H567 H 0.03586 0.19686 0.33948 0.0
H568 H 0.02897 0.10029 0.3041 0.0
H569 H 0.02292 0.0715 0.18927 0.0
C570 C 0.37571 0.04449 0.17543 0.0
C571 C 0.36121 0.01052 0.17325 0.0
C572 C 0.41144 0.98161 0.04069 0.0
C573 C 0.42564 0.01607 0.03828 0.0
N574 N 0.41676 0.08257 0.08314 0.0
N575 N 0.3637 0.94941 0.07909 0.0
C576 C 0.40634 0.04812 0.09985 0.0
C577 C 0.37864 0.98021 0.09685 0.0
N578 N 0.36077 0.07313 0.25362 0.0
N579 N 0.42969 0.94927 0.99742 0.0
H580 H 0.34005 0.94766 0.11814 0.0
H581 H 0.37362 0.92753 0.01705 0.0
H582 H 0.45375 0.94813 0.96203 0.0
H583 H 0.42174 0.92293 0.00795 0.0
H584 H 0.37138 0.09686 0.27149 0.0
H585 H 0.33824 0.072 0.30578 0.0
H586 H 0.40293 0.10731 0.1157 0.0
H587 H 0.43803 0.0866 0.02612 0.0
C588 C 0.5366 0.35585 0.10096 0.0
C589 C 0.51358 0.35192 0.20537 0.0
C590 C 0.48604 0.41276 0.17614 0.0
C591 C 0.51005 0.41765 0.07439 0.0
N592 N 0.55496 0.38961 0.92792 0.0
N593 N 0.46311 0.37217 0.32892 0.0
C594 C 0.53419 0.38775 0.03323 0.0
C595 C 0.48708 0.37893 0.23753 0.0
N596 N 0.56213 0.32999 0.07088 0.0
N597 N 0.46337 0.44142 0.21872 0.0
H598 H 0.46374 0.3478 0.37383 0.0
H599 H 0.44182 0.38863 0.3538 0.0
H600 H 0.46208 0.46638 0.17749 0.0
H601 H 0.44687 0.44159 0.2982 0.0
H602 H 0.58236 0.33338 0.00743 0.0
H603 H 0.56354 0.30532 0.11376 0.0
H604 H 0.57032 0.36726 0.88417 0.0
H605 H 0.55532 0.41295 0.87933 0.0
C606 C 0.15543 0.52869 0.08092 0.0
C607 C 0.17942 0.50181 0.01519 0.0
C608 C 0.14039 0.47579 0.91922 0.0
C609 C 0.11651 0.50302 0.98188 0.0
N610 N 0.10244 0.55916 0.11011 0.0
N611 N 0.19622 0.45843 0.8458 0.0
C612 C 0.12459 0.53099 0.05741 0.0
C613 C 0.17224 0.47839 0.92549 0.0
N614 N 0.16124 0.55024 0.17174 0.0
N615 N 0.13274 0.44655 0.85618 0.0
H616 H 0.21972 0.46036 0.84763 0.0
H617 H 0.19301 0.44336 0.77169 0.0
H618 H 0.1101 0.44405 0.84536 0.0
H619 H 0.14854 0.42352 0.8209 0.0
H620 H 0.14398 0.56721 0.23156 0.0
H621 H 0.18296 0.54944 0.19351 0.0
H622 H 0.10756 0.58303 0.15308 0.0
H623 H 0.07896 0.55958 0.10603 0.0
C624 C 0.04756 0.84608 0.62189 0.0
C625 C 0.02279 0.8253 0.67671 0.0
C626 C 1.00628 0.87415 0.8371 0.0
C627 C 0.03088 0.89532 0.7826 0.0
N628 N 0.08084 0.89521 0.64456 0.0
N629 N 0.98631 0.81328 0.8542 0.0
C630 C 0.05352 0.87917 0.68192 0.0
C631 C 1.00537 0.83702 0.79194 0.0
N632 N 0.06413 0.83564 0.50979 0.0
N633 N 0.98194 0.89048 0.92352 0.0
H634 H 0.98514 0.78619 0.82059 0.0
H635 H 0.97441 0.81918 0.94188 0.0
H636 H 0.97995 0.91859 0.95096 0.0
H637 H 0.96197 0.87726 0.95816 0.0
H638 H 0.07956 0.85237 0.45962 0.0
H639 H 0.06116 0.81106 0.46468 0.0
H640 H 0.09927 0.88317 0.57727 0.0
H641 H 0.08638 0.91847 0.68968 0.0
C642 C 0.67683 0.04476 0.61688 0.0
C643 C 0.69779 0.01145 0.59488 0.0
C644 C 0.65203 0.97794 0.69577 0.0
C645 C 0.6304 0.01057 0.70532 0.0
N646 N 0.62501 0.07639 0.66828 0.0
N647 N 0.70354 0.94505 0.60672 0.0
C648 C 0.64364 0.04412 0.66574 0.0
C649 C 0.68479 0.97782 0.63394 0.0
N650 N 0.6884 0.07776 0.58542 0.0
N651 N 0.64163 0.94715 0.75043 0.0
H652 H 0.72747 0.94415 0.56785 0.0
H653 H 0.69517 0.9189 0.61688 0.0
H654 H 0.61854 0.94642 0.79754 0.0
H655 H 0.65636 0.92377 0.75869 0.0
H656 H 0.67429 0.10303 0.59724 0.0
H657 H 0.7123 0.07977 0.55163 0.0
H658 H 0.60059 0.07891 0.69573 0.0
H659 H 0.60059 0.07891 0.69573 0.0
C660 C 0.55727 0.66178 0.54828 0.0
C661 C 0.53142 0.68931 0.587 0.0
C662 C 0.51358 0.65256 0.75962 0.0
C663 C 0.53467 0.62115 0.70509 0.0
N664 N 0.57678 0.59644 0.54204 0.0
N665 N 0.48582 0.71204 0.73554 0.0
C666 C 0.55709 0.62619 0.59916 0.0
C667 C 0.51027 0.68529 0.69617 0.0
N668 N 0.58156 0.66945 0.45974 0.0
N669 N 0.49723 0.65149 0.87347 0.0
H670 H 0.48401 0.73679 0.69319 0.0
H671 H 0.46703 0.70905 0.80595 0.0
H672 H 0.50009 0.62875 0.92317 0.0
H673 H 0.4836 0.67439 0.92208 0.0
H674 H 0.60236 0.65208 0.43249 0.0
H675 H 0.5818 0.69513 0.42179 0.0
H676 H 0.59107 0.59732 0.45804 0.0
H677 H 0.57701 0.56994 0.57424 0.0
C678 C 0.89533 0.54247 0.72537 0.0
C679 C 0.87654 0.5121 0.74608 0.0
C680 C 0.91157 0.48533 0.86653 0.0
C681 C 0.93015 0.51629 0.84891 0.0
N682 N 0.93229 0.57986 0.79301 0.0
N683 N 0.86105 0.46206 0.8693 0.0
C684 C 0.91961 0.54662 0.78824 0.0
C685 C 0.88274 0.48627 0.82843 0.0
N686 N 0.8911 0.56649 0.64191 0.0
N687 N 0.92225 0.45346 0.91015 0.0
H688 H 0.83969 0.4623 0.84392 0.0
H689 H 0.86275 0.44489 0.9375 0.0
H690 H 0.94386 0.4495 0.93218 0.0
H691 H 0.91109 0.429 0.91199 0.0
H692 H 0.90611 0.58689 0.61439 0.0
H693 H 0.87378 0.56444 0.59435 0.0
H694 H 0.92394 0.60386 0.7589 0.0
H695 H 0.94864 0.58458 0.84335 0.0
loop_
_geom_bond_atom_site_label_1
_geom_bond_atom_site_label_2
_geom_bond_distance
_geom_bond_site_symmetry_2
_ccdc_geom_bond_type
H0 C7 0.929 . S
H1 C10 0.930 . S
H2 C12 0.929 . S
H3 C4 0.969 . S
C4 H3 0.969 . S
C4 O5 1.550 . S
C4 H6 0.973 . S
O5 C4 1.550 . S
O5 C11 1.412 . S
H6 C4 0.973 . S
C7 H0 0.929 . S
C7 C8 1.400 . S
C7 C9 1.364 . S
C8 C7 1.400 . S
C8 C12 1.377 . S
C9 C7 1.364 . S
C9 C10 1.374 . S
C10 H1 0.930 . S
C10 C9 1.374 . S
C10 C11 1.383 . S
C11 O5 1.412 . S
C11 C10 1.383 . S
C11 C12 1.394 . S
C12 H2 0.929 . S
C12 C8 1.377 . S
C12 C11 1.394 . S
H13 C20 0.929 1_655 S
H14 C23 0.933 . S
H15 C25 0.931 1_655 S
H16 C17 0.969 . S
C17 H16 0.969 . S
C17 O18 1.550 1_455 S
C17 H19 0.973 1_455 S
O18 C17 1.550 1_655 S
O18 C24 1.401 1_655 S
H19 C17 0.973 1_655 S
C20 H13 0.929 1_455 S
C20 C21 1.398 . S
C20 C22 1.365 . S
C21 C20 1.398 . S
C21 C25 1.375 . S
C22 C20 1.365 . S
C22 C23 1.373 1_455 S
C23 H14 0.933 . S
C23 C22 1.373 1_655 S
C23 C24 1.378 1_655 S
C24 O18 1.401 1_455 S
C24 C23 1.378 1_455 S
C24 C25 1.401 . S
C25 H15 0.931 1_455 S
C25 C21 1.375 . S
C25 C24 1.401 . S
H26 C33 0.928 1_565 S
H27 C36 0.930 . S
H28 C38 0.928 1_565 S
H29 C30 0.969 . S
C30 H29 0.969 . S
C30 O31 1.550 1_545 S
C30 H32 0.973 1_545 S
O31 C30 1.550 1_565 S
O31 C37 1.407 1_565 S
H32 C30 0.973 1_565 S
C33 H26 0.928 1_545 S
C33 C34 1.400 . S
C33 C35 1.363 . S
C34 C33 1.400 . S
C34 C38 1.378 . S
C35 C33 1.363 . S
C35 C36 1.375 1_545 S
C36 H27 0.930 . S
C36 C35 1.375 1_565 S
C36 C37 1.383 1_565 S
C37 O31 1.407 1_545 S
C37 C36 1.383 1_545 S
C37 C38 1.391 . S
C38 H28 0.928 1_545 S
C38 C34 1.378 . S
C38 C37 1.391 . S
H39 C46 0.929 . S
H40 C49 0.930 . S
H41 C51 0.929 . S
H42 C43 0.969 . S
C43 H42 0.969 . S
C43 O44 1.550 . S
C43 H45 0.973 . S
O44 C43 1.550 . S
O44 C50 1.412 . S
H45 C43 0.973 . S
C46 H39 0.929 . S
C46 C47 1.400 . S
C46 C48 1.364 . S
C47 C46 1.400 . S
C47 C51 1.377 . S
C48 C46 1.364 . S
C48 C49 1.374 . S
C49 H40 0.930 . S
C49 C48 1.374 . S
C49 C50 1.383 . S
C50 O44 1.412 . S
C50 C49 1.383 . S
C50 C51 1.394 . S
C51 H41 0.929 . S
C51 C47 1.377 . S
C51 C50 1.394 . S
H52 C59 0.929 . S
H53 C62 0.930 . S
H54 C64 0.929 . S
H55 C56 0.969 . S
C56 H55 0.969 . S
C56 O57 1.550 1_554 S
C56 H58 0.973 . S
O57 C56 1.550 1_556 S
O57 C63 1.412 . S
H58 C56 0.973 . S
C59 H52 0.929 . S
C59 C60 1.400 . S
C59 C61 1.364 1_556 S
C60 C59 1.400 . S
C60 C64 1.377 . S
C61 C59 1.364 1_554 S
C61 C62 1.374 . S
C62 H53 0.930 . S
C62 C61 1.374 . S
C62 C63 1.383 1_554 S
C63 O57 1.412 . S
C63 C62 1.383 1_556 S
C63 C64 1.394 . S
C64 H54 0.929 . S
C64 C60 1.377 . S
C64 C63 1.394 . S
H65 C72 0.928 1_655 S
H66 C75 0.939 . S
H67 C77 0.926 1_656 S
H68 C69 0.969 . S
C69 H68 0.969 . S
C69 O70 1.550 1_455 S
C69 H71 0.973 1_455 S
O70 C69 1.550 1_655 S
O70 C76 1.406 1_655 S
H71 C69 0.973 1_655 S
C72 H65 0.928 1_455 S
C72 C73 1.401 . S
C72 C74 1.363 . S
C73 C72 1.401 . S
C73 C77 1.378 . S
C74 C72 1.363 . S
C74 C75 1.375 1_455 S
C75 H66 0.939 . S
C75 C74 1.375 1_655 S
C75 C76 1.387 1_655 S
C76 O70 1.406 1_455 S
C76 C75 1.387 1_455 S
C76 C77 1.387 . S
C77 H67 0.926 1_454 S
C77 C73 1.378 . S
C77 C76 1.387 . S
H78 C85 0.929 1_565 S
H79 C88 0.931 . S
H80 C90 0.929 1_565 S
H81 C82 0.969 . S
C82 H81 0.969 . S
C82 O83 1.550 1_545 S
C82 H84 0.973 1_545 S
O83 C82 1.550 1_565 S
O83 C89 1.412 1_565 S
H84 C82 0.973 1_565 S
C85 H78 0.929 1_545 S
C85 C86 1.399 . S
C85 C87 1.364 . S
C86 C85 1.399 . S
C86 C90 1.376 . S
C87 C85 1.364 . S
C87 C88 1.373 1_545 S
C88 H79 0.931 . S
C88 C87 1.373 1_565 S
C88 C89 1.383 1_565 S
C89 O83 1.412 1_545 S
C89 C88 1.383 1_545 S
C89 C90 1.394 . S
C90 H80 0.929 1_545 S
C90 C86 1.376 . S
C90 C89 1.394 . S
H91 C98 0.929 . S
H92 C101 0.930 . S
H93 C103 0.929 . S
H94 C95 0.969 . S
C95 H94 0.969 . S
C95 O96 1.550 . S
C95 H97 0.973 . S
O96 C95 1.550 . S
O96 C102 1.412 . S
H97 C95 0.973 . S
C98 H91 0.929 . S
C98 C99 1.400 . S
C98 C100 1.364 . S
C99 C98 1.400 . S
C99 C103 1.377 . S
C100 C98 1.364 . S
C100 C101 1.374 . S
C101 H92 0.930 . S
C101 C100 1.374 . S
C101 C102 1.383 . S
C102 O96 1.412 . S
C102 C101 1.383 . S
C102 C103 1.394 . S
C103 H93 0.929 . S
C103 C99 1.377 . S
C103 C102 1.394 . S
Dy104 O107 2.307 1_545 S
Dy104 O109 2.395 1_655 S
Dy104 O110 2.379 . S
Dy104 O112 2.339 . S
Dy104 O114 2.298 . S
Dy104 O118 2.275 1_655 S
Dy104 C126 2.738 . S
Dy105 O108 2.298 1_554 S
Dy105 O111 2.275 1_454 S
Dy105 O113 2.307 1_565 S
Dy105 O115 2.395 1_455 S
Dy105 O116 2.379 . S
Dy105 O119 2.339 1_554 S
Dy105 C135 2.738 . S
C106 O118 1.254 1_565 S
C106 O119 1.257 . S
O107 Dy104 2.307 1_565 S
O107 C117 1.266 . S
O108 Dy105 2.298 1_556 S
O108 C117 1.236 1_455 S
O109 Dy104 2.395 1_455 S
O109 C126 1.255 1_455 S
O110 Dy104 2.379 . S
O110 C126 1.249 . S
O111 Dy105 2.275 1_656 S
O111 C127 1.254 1_565 S
O112 Dy104 2.339 . S
O112 C127 1.257 . S
O113 Dy105 2.307 1_545 S
O113 C128 1.266 1_554 S
O114 Dy104 2.298 . S
O114 C128 1.236 1_655 S
O115 Dy105 2.395 1_655 S
O115 C135 1.255 1_655 S
O116 Dy105 2.379 . S
O116 C135 1.249 . S
C117 O107 1.266 . S
C117 O108 1.236 1_655 S
O118 Dy104 2.275 1_455 S
O118 C106 1.254 1_545 S
O119 Dy105 2.339 1_556 S
O119 C106 1.257 . S
C120 C123 1.344 1_655 S
C120 C124 1.328 . S
C120 C126 1.516 . S
C121 C122 1.304 1_655 S
C121 C125 1.323 . S
C122 C121 1.304 1_455 S
C122 C123 1.371 . S
C122 H136 0.930 . S
C123 C120 1.344 1_455 S
C123 C122 1.371 . S
C123 H137 0.931 . S
C124 C120 1.328 . S
C124 C125 1.433 . S
C124 H138 0.931 . S
C125 C121 1.323 . S
C125 C124 1.433 . S
C125 H139 0.933 . S
C126 Dy104 2.738 . S
C126 O109 1.255 1_655 S
C126 O110 1.249 . S
C126 C120 1.516 . S
C127 O111 1.254 1_545 S
C127 O112 1.257 . S
C128 O113 1.266 1_556 S
C128 O114 1.236 1_455 S
C129 C132 1.344 1_455 S
C129 C133 1.328 . S
C129 C135 1.516 . S
C130 C131 1.304 1_455 S
C130 C134 1.323 . S
C131 C130 1.304 1_655 S
C131 C132 1.371 . S
C131 H140 0.930 . S
C132 C129 1.344 1_655 S
C132 C131 1.371 . S
C132 H141 0.931 . S
C133 C129 1.328 . S
C133 C134 1.433 . S
C133 H142 0.931 . S
C134 C130 1.323 . S
C134 C133 1.433 . S
C134 H143 0.933 . S
C135 Dy105 2.738 . S
C135 O115 1.255 1_455 S
C135 O116 1.249 . S
C135 C129 1.516 . S
H136 C122 0.930 . S
H137 C123 0.931 . S
H138 C124 0.931 . S
H139 C125 0.933 . S
H140 C131 0.930 . S
H141 C132 0.931 . S
H142 C133 0.931 . S
H143 C134 0.933 . S
Dy144 O147 2.307 . S
Dy144 O149 2.395 1_565 S
Dy144 O150 2.379 . S
Dy144 O152 2.339 . S
Dy144 O154 2.298 . S
Dy144 O158 2.275 1_565 S
Dy144 C166 2.738 . S
Dy145 O148 2.298 1_554 S
Dy145 O151 2.275 1_544 S
Dy145 O153 2.307 . S
Dy145 O155 2.395 1_545 S
Dy145 O156 2.379 . S
Dy145 O159 2.339 1_554 S
Dy145 C175 2.738 . S
C146 O158 1.254 . S
C146 O159 1.257 . S
O147 Dy144 2.307 . S
O147 C157 1.266 . S
O148 Dy145 2.298 1_556 S
O148 C157 1.236 1_545 S
O149 Dy144 2.395 1_545 S
O149 C166 1.255 1_545 S
O150 Dy144 2.379 . S
O150 C166 1.249 . S
O151 Dy145 2.275 1_566 S
O151 C167 1.254 . S
O152 Dy144 2.339 . S
O152 C167 1.257 . S
O153 Dy145 2.307 . S
O153 C168 1.266 1_554 S
O154 Dy144 2.298 . S
O154 C168 1.236 1_565 S
O155 Dy145 2.395 1_565 S
O155 C175 1.255 1_565 S
O156 Dy145 2.379 . S
O156 C175 1.249 . S
C157 O147 1.266 . S
C157 O148 1.236 1_565 S
O158 Dy144 2.275 1_545 S
O158 C146 1.254 . S
O159 Dy145 2.339 1_556 S
O159 C146 1.257 . S
C160 C163 1.337 1_565 S
C160 C164 1.328 . S
C160 C166 1.516 . S
C161 C162 1.304 . S
C161 C165 1.323 . S
C162 C161 1.304 . S
C162 C163 1.370 1_565 S
C162 H176 0.930 1_565 S
C163 C160 1.337 1_545 S
C163 C162 1.370 1_545 S
C163 H177 0.939 . S
C164 C160 1.328 . S
C164 C165 1.433 . S
C164 H178 0.931 . S
C165 C161 1.323 . S
C165 C164 1.433 . S
C165 H179 0.933 . S
C166 Dy144 2.738 . S
C166 O149 1.255 1_565 S
C166 O150 1.249 . S
C166 C160 1.516 . S
C167 O151 1.254 . S
C167 O152 1.257 . S
C168 O153 1.266 1_556 S
C168 O154 1.236 1_545 S
C169 C172 1.342 1_545 S
C169 C173 1.328 . S
C169 C175 1.516 . S
C170 C171 1.304 . S
C170 C174 1.323 . S
C171 C170 1.304 . S
C171 C172 1.371 1_545 S
C171 H180 0.930 1_545 S
C172 C169 1.342 1_565 S
C172 C171 1.371 1_565 S
C172 H181 0.933 . S
C173 C169 1.328 . S
C173 C174 1.433 . S
C173 H182 0.931 . S
C174 C170 1.323 . S
C174 C173 1.433 . S
C174 H183 0.933 . S
C175 Dy145 2.738 . S
C175 O155 1.255 1_545 S
C175 O156 1.249 . S
C175 C169 1.516 . S
H176 C162 0.930 1_545 S
H177 C163 0.939 . S
H178 C164 0.931 . S
H179 C165 0.933 . S
H180 C171 0.930 1_565 S
H181 C172 0.933 . S
H182 C173 0.931 . S
H183 C174 0.933 . S
Dy184 O187 2.307 . S
Dy184 O189 2.395 1_556 S
Dy184 O190 2.379 . S
Dy184 O192 2.339 . S
Dy184 O194 2.298 . S
Dy184 O198 2.275 . S
Dy184 C206 2.738 1_556 S
Dy185 O188 2.298 . S
Dy185 O191 2.275 . S
Dy185 O193 2.307 1_556 S
Dy185 O195 2.395 . S
Dy185 O196 2.379 . S
Dy185 O199 2.339 1_556 S
Dy185 C215 2.738 . S
C186 O198 1.254 1_554 S
C186 O199 1.257 . S
O187 Dy184 2.307 . S
O187 C197 1.266 . S
O188 Dy185 2.298 . S
O188 C197 1.236 . S
O189 Dy184 2.395 1_554 S
O189 C206 1.255 . S
O190 Dy184 2.379 . S
O190 C206 1.249 1_556 S
O191 Dy185 2.275 . S
O191 C207 1.254 . S
O192 Dy184 2.339 . S
O192 C207 1.257 . S
O193 Dy185 2.307 1_554 S
O193 C208 1.266 . S
O194 Dy184 2.298 . S
O194 C208 1.236 1_556 S
O195 Dy185 2.395 . S
O195 C215 1.255 . S
O196 Dy185 2.379 . S
O196 C215 1.249 . S
C197 O187 1.266 . S
C197 O188 1.236 . S
O198 Dy184 2.275 . S
O198 C186 1.254 1_556 S
O199 Dy185 2.339 1_554 S
O199 C186 1.257 . S
C200 C203 1.344 . S
C200 C204 1.328 . S
C200 C206 1.516 . S
C201 C202 1.304 . S
C201 C205 1.323 . S
C202 C201 1.304 . S
C202 C203 1.371 . S
C202 H216 0.930 . S
C203 C200 1.344 . S
C203 C202 1.371 . S
C203 H217 0.931 . S
C204 C200 1.328 . S
C204 C205 1.433 . S
C204 H218 0.931 1_554 S
C205 C201 1.323 . S
C205 C204 1.433 . S
C205 H219 0.933 . S
C206 Dy184 2.738 1_554 S
C206 O189 1.255 . S
C206 O190 1.249 1_554 S
C206 C200 1.516 . S
C207 O191 1.254 . S
C207 O192 1.257 . S
C208 O193 1.266 . S
C208 O194 1.236 1_554 S
C209 C212 1.344 . S
C209 C213 1.328 . S
C209 C215 1.516 . S
C210 C211 1.304 . S
C210 C214 1.323 . S
C211 C210 1.304 . S
C211 C212 1.371 . S
C211 H220 0.930 . S
C212 C209 1.344 . S
C212 C211 1.371 . S
C212 H221 0.931 . S
C213 C209 1.328 . S
C213 C214 1.433 . S
C213 H222 0.931 . S
C214 C210 1.323 . S
C214 C213 1.433 . S
C214 H223 0.933 . S
C215 Dy185 2.738 . S
C215 O195 1.255 . S
C215 O196 1.249 . S
C215 C209 1.516 . S
H216 C202 0.930 . S
H217 C203 0.931 . S
H218 C204 0.931 1_556 S
H219 C205 0.933 . S
H220 C211 0.930 . S
H221 C212 0.931 . S
H222 C213 0.931 . S
H223 C214 0.933 . S
Dy224 O227 2.307 1_455 S
Dy224 O229 2.395 . S
Dy224 O230 2.379 . S
Dy224 O232 2.339 . S
Dy224 O234 2.298 . S
Dy224 O238 2.275 . S
Dy224 C246 2.738 . S
Dy225 O228 2.298 1_554 S
Dy225 O231 2.275 . S
Dy225 O233 2.307 1_654 S
Dy225 O235 2.395 . S
Dy225 O236 2.379 . S
Dy225 O239 2.339 1_554 S
Dy225 C255 2.738 . S
C226 O238 1.254 1_655 S
C226 O239 1.257 . S
O227 Dy224 2.307 1_655 S
O227 C237 1.266 . S
O228 Dy225 2.298 1_556 S
O228 C237 1.236 . S
O229 Dy224 2.395 . S
O229 C246 1.255 . S
O230 Dy224 2.379 . S
O230 C246 1.249 . S
O231 Dy225 2.275 . S
O231 C247 1.254 1_655 S
O232 Dy224 2.339 . S
O232 C247 1.257 1_556 S
O233 Dy225 2.307 1_456 S
O233 C248 1.266 . S
O234 Dy224 2.298 . S
O234 C248 1.236 . S
O235 Dy225 2.395 . S
O235 C255 1.255 . S
O236 Dy225 2.379 . S
O236 C255 1.249 . S
C237 O227 1.266 . S
C237 O228 1.236 . S
O238 Dy224 2.275 . S
O238 C226 1.254 1_455 S
O239 Dy225 2.339 1_556 S
O239 C226 1.257 . S
C240 C243 1.344 . S
C240 C244 1.328 . S
C240 C246 1.516 . S
C241 C242 1.304 . S
C241 C245 1.323 . S
C242 C241 1.304 . S
C242 C243 1.371 . S
C242 H256 0.930 . S
C243 C240 1.344 . S
C243 C242 1.371 . S
C243 H257 0.931 . S
C244 C240 1.328 . S
C244 C245 1.433 . S
C244 H258 0.931 . S
C245 C241 1.323 . S
C245 C244 1.433 . S
C245 H259 0.933 . S
C246 Dy224 2.738 . S
C246 O229 1.255 . S
C246 O230 1.249 . S
C246 C240 1.516 . S
C247 O231 1.254 1_455 S
C247 O232 1.257 1_554 S
C248 O233 1.266 . S
C248 O234 1.236 . S
C249 C252 1.344 . S
C249 C253 1.328 . S
C249 C255 1.516 . S
C250 C251 1.304 . S
C250 C254 1.323 . S
C251 C250 1.304 . S
C251 C252 1.371 . S
C251 H260 0.930 . S
C252 C249 1.344 . S
C252 C251 1.371 . S
C252 H261 0.931 . S
C253 C249 1.328 . S
C253 C254 1.433 . S
C253 H262 0.931 . S
C254 C250 1.323 . S
C254 C253 1.433 . S
C254 H263 0.933 . S
C255 Dy225 2.738 . S
C255 O235 1.255 . S
C255 O236 1.249 . S
C255 C249 1.516 . S
H256 C242 0.930 . S
H257 C243 0.931 . S
H258 C244 0.931 . S
H259 C245 0.933 . S
H260 C251 0.930 . S
H261 C252 0.931 . S
H262 C253 0.931 . S
H263 C254 0.933 . S
C264 C265 1.370 . S
C264 C270 1.379 . S
C264 N272 1.356 . S
C265 C264 1.370 . S
C265 C271 1.355 1_545 S
C266 C267 1.343 1_565 S
C266 C271 1.379 . S
C266 N273 1.356 . S
C267 C266 1.343 1_545 S
C267 C270 1.388 . S
N268 C270 1.356 . S
N268 H280 0.984 . S
N268 H281 0.985 . S
N269 C271 1.356 . S
N269 H274 0.984 . S
N269 H275 0.985 . S
C270 C264 1.379 . S
C270 C267 1.388 . S
C270 N268 1.356 . S
C271 C265 1.355 1_565 S
C271 C266 1.379 . S
C271 N269 1.356 . S
N272 C264 1.356 . S
N272 H278 0.984 . S
N272 H279 0.984 . S
N273 C266 1.356 . S
N273 H276 0.984 . S
N273 H277 0.985 . S
H274 N269 0.984 . S
H275 N269 0.985 . S
H276 N273 0.984 . S
H277 N273 0.985 . S
H278 N272 0.984 . S
H279 N272 0.984 . S
H280 N268 0.984 . S
H281 N268 0.985 . S
C282 C283 1.363 . S
C282 C288 1.379 . S
C282 N290 1.356 . S
C283 C282 1.363 . S
C283 C289 1.363 . S
C284 C285 1.363 . S
C284 C289 1.379 . S
C284 N291 1.356 . S
C285 C284 1.363 . S
C285 C288 1.363 . S
N286 C288 1.356 . S
N286 H298 0.984 . S
N286 H299 0.985 . S
N287 C289 1.356 . S
N287 H292 0.984 . S
N287 H293 0.985 . S
C288 C282 1.379 . S
C288 C285 1.363 . S
C288 N286 1.356 . S
C289 C283 1.363 . S
C289 C284 1.379 . S
C289 N287 1.356 . S
N290 C282 1.356 . S
N290 H296 0.984 . S
N290 H297 0.984 . S
N291 C284 1.356 . S
N291 H294 0.984 . S
N291 H295 0.985 . S
H292 N287 0.984 . S
H293 N287 0.985 . S
H294 N291 0.984 . S
H295 N291 0.985 . S
H296 N290 0.984 . S
H297 N290 0.984 . S
H298 N286 0.984 . S
H299 N286 0.985 . S
C300 C301 1.363 . S
C300 C306 1.379 . S
C300 N308 1.356 . S
C301 C300 1.363 . S
C301 C307 1.363 . S
C302 C303 1.363 . S
C302 C307 1.379 . S
C302 N309 1.356 . S
C303 C302 1.363 . S
C303 C306 1.363 . S
N304 C306 1.356 . S
N304 H316 0.984 . S
N304 H317 0.985 . S
N305 C307 1.356 . S
N305 H310 0.984 . S
N305 H311 0.985 . S
C306 C300 1.379 . S
C306 C303 1.363 . S
C306 N304 1.356 . S
C307 C301 1.363 . S
C307 C302 1.379 . S
C307 N305 1.356 . S
N308 C300 1.356 . S
N308 H314 0.984 . S
N308 H315 0.984 . S
N309 C302 1.356 . S
N309 H312 0.984 . S
N309 H313 0.985 . S
H310 N305 0.984 . S
H311 N305 0.985 . S
H312 N309 0.984 . S
H313 N309 0.985 . S
H314 N308 0.984 . S
H315 N308 0.984 . S
H316 N304 0.984 . S
H317 N304 0.985 . S
C318 C319 1.350 1_655 S
C318 C324 1.379 . S
C318 N326 1.356 . S
C319 C318 1.350 1_455 S
C319 C325 1.386 . S
C320 C321 1.363 . S
C320 C325 1.379 . S
C320 N327 1.356 . S
C321 C320 1.363 . S
C321 C324 1.363 1_455 S
N322 C324 1.356 . S
N322 H334 0.984 . S
N322 H335 0.985 . S
N323 C325 1.356 . S
N323 H328 0.984 . S
N323 H329 0.985 . S
C324 C318 1.379 . S
C324 C321 1.363 1_655 S
C324 N322 1.356 . S
C325 C319 1.386 . S
C325 C320 1.379 . S
C325 N323 1.356 . S
N326 C318 1.356 . S
N326 H332 0.984 . S
N326 H333 0.984 . S
N327 C320 1.356 . S
N327 H330 0.984 . S
N327 H331 0.985 . S
H328 N323 0.984 . S
H329 N323 0.985 . S
H330 N327 0.984 . S
H331 N327 0.985 . S
H332 N326 0.984 . S
H333 N326 0.984 . S
H334 N322 0.984 . S
H335 N322 0.985 . S
C336 C337 1.366 . S
C336 C342 1.379 . S
C336 N344 1.356 . S
C337 C336 1.366 . S
C337 C343 1.360 1_565 S
C338 C339 1.347 1_545 S
C338 C343 1.379 . S
C338 N345 1.356 . S
C339 C338 1.347 1_565 S
C339 C342 1.382 . S
N340 C342 1.356 . S
N340 H352 0.984 . S
N340 H353 0.985 . S
N341 C343 1.356 . S
N341 H346 0.984 . S
N341 H347 0.985 . S
C342 C336 1.379 . S
C342 C339 1.382 . S
C342 N340 1.356 . S
C343 C337 1.360 1_545 S
C343 C338 1.379 . S
C343 N341 1.356 . S
N344 C336 1.356 . S
N344 H350 0.984 . S
N344 H351 0.984 . S
N345 C338 1.356 . S
N345 H348 0.984 1_554 S
N345 H349 0.985 . S
H346 N341 0.984 . S
H347 N341 0.985 . S
H348 N345 0.984 1_556 S
H349 N345 0.985 . S
H350 N344 0.984 . S
H351 N344 0.984 . S
H352 N340 0.984 . S
H353 N340 0.985 . S
C354 C355 1.363 . S
C354 C360 1.379 . S
C354 N362 1.356 . S
C355 C354 1.363 . S
C355 C361 1.363 . S
C356 C357 1.363 . S
C356 C361 1.379 . S
C356 N363 1.356 1_554 S
C357 C356 1.363 . S
C357 C360 1.363 . S
N358 C360 1.356 . S
N358 H370 0.984 . S
N358 H371 0.985 . S
N359 C361 1.356 . S
N359 H364 0.984 . S
N359 H365 0.985 . S
C360 C354 1.379 . S
C360 C357 1.363 . S
C360 N358 1.356 . S
C361 C355 1.363 . S
C361 C356 1.379 . S
C361 N359 1.356 . S
N362 C354 1.356 . S
N362 H368 0.984 . S
N362 H369 0.984 . S
N363 C356 1.356 1_556 S
N363 H366 0.984 . S
N363 H367 0.985 . S
H364 N359 0.984 . S
H365 N359 0.985 . S
H366 N363 0.984 . S
H367 N363 0.985 . S
H368 N362 0.984 . S
H369 N362 0.984 . S
H370 N358 0.984 . S
H371 N358 0.985 . S
C372 C373 1.363 . S
C372 C378 1.379 . S
C372 N380 1.356 . S
C373 C372 1.363 . S
C373 C379 1.363 . S
C374 C375 1.363 . S
C374 C379 1.379 . S
C374 N381 1.356 . S
C375 C374 1.363 . S
C375 C378 1.363 . S
N376 C378 1.356 . S
N376 H388 0.984 . S
N376 H389 0.985 . S
N377 C379 1.356 . S
N377 H382 0.984 . S
N377 H383 0.985 . S
C378 C372 1.379 . S
C378 C375 1.363 . S
C378 N376 1.356 . S
C379 C373 1.363 . S
C379 C374 1.379 . S
C379 N377 1.356 . S
N380 C372 1.356 . S
N380 H386 0.984 . S
N380 H387 0.984 . S
N381 C374 1.356 . S
N381 H384 0.984 . S
N381 H385 0.985 . S
H382 N377 0.984 . S
H383 N377 0.985 . S
H384 N381 0.984 . S
H385 N381 0.985 . S
H386 N380 0.984 . S
H387 N380 0.984 . S
H388 N376 0.984 . S
H389 N376 0.985 . S
C390 C391 1.386 . S
C390 C396 1.379 . S
C390 N398 1.356 . S
C391 C390 1.386 . S
C391 C397 1.350 1_655 S
C392 C393 1.363 1_455 S
C392 C397 1.379 . S
C392 N399 1.356 . S
C393 C392 1.363 1_655 S
C393 C396 1.363 . S
N394 C396 1.356 . S
N394 H406 0.984 . S
N394 H407 0.985 . S
N395 C397 1.356 . S
N395 H400 0.984 . S
N395 H401 0.985 . S
C396 C390 1.379 . S
C396 C393 1.363 . S
C396 N394 1.356 . S
C397 C391 1.350 1_455 S
C397 C392 1.379 . S
C397 N395 1.356 . S
N398 C390 1.356 . S
N398 H404 0.984 . S
N398 H405 0.984 . S
N399 C392 1.356 . S
N399 H402 0.984 . S
N399 H403 0.985 . S
H400 N395 0.984 . S
H401 N395 0.985 . S
H402 N399 0.984 . S
H403 N399 0.985 . S
H404 N398 0.984 . S
H405 N398 0.984 . S
H406 N394 0.984 . S
H407 N394 0.985 . S
C408 C409 1.363 1_655 S
C408 C414 1.379 . S
C408 N416 1.356 1_655 S
C409 C408 1.363 1_455 S
C409 C415 1.363 1_455 S
C410 C411 1.363 . S
C410 C415 1.379 . S
C410 N417 1.356 . S
C411 C410 1.363 . S
C411 C414 1.363 . S
N412 C414 1.356 . S
N412 H424 0.984 . S
N412 H425 0.985 . S
N413 C415 1.356 . S
N413 H418 0.984 1_655 S
N413 H419 0.985 . S
C414 C408 1.379 . S
C414 C411 1.363 . S
C414 N412 1.356 . S
C415 C409 1.363 1_655 S
C415 C410 1.379 . S
C415 N413 1.356 . S
N416 C408 1.356 1_455 S
N416 H422 0.984 . S
N416 H423 0.984 . S
N417 C410 1.356 . S
N417 H420 0.984 . S
N417 H421 0.985 . S
H418 N413 0.984 1_455 S
H419 N413 0.985 . S
H420 N417 0.984 . S
H421 N417 0.985 . S
H422 N416 0.984 . S
H423 N416 0.984 . S
H424 N412 0.984 . S
H425 N412 0.985 . S
C426 C427 1.363 . S
C426 C432 1.379 . S
C426 N434 1.356 . S
C427 C426 1.363 . S
C427 C433 1.363 1_565 S
C428 C429 1.363 . S
C428 C433 1.379 1_565 S
C428 N435 1.356 . S
C429 C428 1.363 . S
C429 C432 1.363 . S
N430 C432 1.356 . S
N430 H442 0.984 . S
N430 H443 0.985 . S
N431 C433 1.356 . S
N431 H436 0.984 . S
N431 H437 0.985 . S
C432 C426 1.379 . S
C432 C429 1.363 . S
C432 N430 1.356 . S
C433 C427 1.363 1_545 S
C433 C428 1.379 1_545 S
C433 N431 1.356 . S
N434 C426 1.356 . S
N434 H440 0.984 . S
N434 H441 0.984 . S
N435 C428 1.356 . S
N435 H438 0.984 . S
N435 H439 0.985 . S
H436 N431 0.984 . S
H437 N431 0.985 . S
H438 N435 0.984 . S
H439 N435 0.985 . S
H440 N434 0.984 . S
H441 N434 0.984 . S
H442 N430 0.984 . S
H443 N430 0.985 . S
C444 C445 1.363 . S
C444 C450 1.379 . S
C444 N452 1.356 . S
C445 C444 1.363 . S
C445 C451 1.363 . S
C446 C447 1.363 . S
C446 C451 1.379 . S
C446 N453 1.356 . S
C447 C446 1.363 . S
C447 C450 1.363 . S
N448 C450 1.356 . S
N448 H460 0.984 . S
N448 H461 0.985 . S
N449 C451 1.356 . S
N449 H454 0.984 . S
N449 H455 0.985 . S
C450 C444 1.379 . S
C450 C447 1.363 . S
C450 N448 1.356 . S
C451 C445 1.363 . S
C451 C446 1.379 . S
C451 N449 1.356 . S
N452 C444 1.356 . S
N452 H458 0.984 . S
N452 H459 0.984 . S
N453 C446 1.356 . S
N453 H456 0.984 . S
N453 H457 0.985 . S
H454 N449 0.984 . S
H455 N449 0.985 . S
H456 N453 0.984 . S
H457 N453 0.985 . S
H458 N452 0.984 . S
H459 N452 0.984 . S
H460 N448 0.984 . S
H461 N448 0.985 . S
C462 C463 1.363 . S
C462 C468 1.379 . S
C462 N470 1.356 . S
C463 C462 1.363 . S
C463 C469 1.363 . S
C464 C465 1.363 . S
C464 C469 1.379 . S
C464 N471 1.356 . S
C465 C464 1.363 . S
C465 C468 1.363 . S
N466 C468 1.356 . S
N466 H478 0.984 . S
N466 H479 0.985 . S
N467 C469 1.356 . S
N467 H472 0.984 . S
N467 H473 0.985 . S
C468 C462 1.379 . S
C468 C465 1.363 . S
C468 N466 1.356 . S
C469 C463 1.363 . S
C469 C464 1.379 . S
C469 N467 1.356 . S
N470 C462 1.356 . S
N470 H476 0.984 . S
N470 H477 0.984 . S
N471 C464 1.356 . S
N471 H474 0.984 . S
N471 H475 0.985 . S
H472 N467 0.984 . S
H473 N467 0.985 . S
H474 N471 0.984 . S
H475 N471 0.985 . S
H476 N470 0.984 . S
H477 N470 0.984 . S
H478 N466 0.984 . S
H479 N466 0.985 . S
C480 C481 1.363 1_455 S
C480 C486 1.379 . S
C480 N488 1.356 . S
C481 C480 1.363 1_655 S
C481 C487 1.363 . S
C482 C483 1.363 . S
C482 C487 1.379 1_455 S
C482 N489 1.356 . S
C483 C482 1.363 . S
C483 C486 1.363 . S
N484 C486 1.356 . S
N484 H496 0.984 . S
N484 H497 0.985 . S
N485 C487 1.356 . S
N485 H490 0.984 . S
N485 H491 0.985 . S
C486 C480 1.379 . S
C486 C483 1.363 . S
C486 N484 1.356 . S
C487 C481 1.363 . S
C487 C482 1.379 1_655 S
C487 N485 1.356 . S
N488 C480 1.356 . S
N488 H494 0.984 . S
N488 H495 0.984 . S
N489 C482 1.356 . S
N489 H492 0.984 . S
N489 H493 0.985 1_455 S
H490 N485 0.984 . S
H491 N485 0.985 . S
H492 N489 0.984 . S
H493 N489 0.985 1_655 S
H494 N488 0.984 . S
H495 N488 0.984 . S
H496 N484 0.984 . S
H497 N484 0.985 . S
C498 C499 1.363 . S
C498 C504 1.379 . S
C498 N506 1.356 1_545 S
C499 C498 1.363 . S
C499 C505 1.363 . S
C500 C501 1.363 . S
C500 C505 1.379 . S
C500 N507 1.356 . S
C501 C500 1.363 . S
C501 C504 1.363 . S
N502 C504 1.356 . S
N502 H514 0.984 . S
N502 H515 0.985 . S
N503 C505 1.356 . S
N503 H508 0.996 . S
N503 H509 0.985 . S
C504 C498 1.379 . S
C504 C501 1.363 . S
C504 N502 1.356 . S
C505 C499 1.363 . S
C505 C500 1.379 . S
C505 N503 1.356 . S
N506 C498 1.356 1_565 S
N506 H512 0.984 . S
N506 H513 0.984 . S
N507 C500 1.356 . S
N507 H510 0.984 . S
N507 H511 0.985 . S
H508 N503 0.996 . S
H509 N503 0.985 . S
H510 N507 0.984 . S
H511 N507 0.985 . S
H512 N506 0.984 . S
H513 N506 0.984 . S
H514 N502 0.984 . S
H515 N502 0.985 . S
C516 C517 1.363 . S
C516 C522 1.379 . S
C516 N524 1.356 . S
C517 C516 1.363 . S
C517 C523 1.363 . S
C518 C519 1.363 . S
C518 C523 1.379 . S
C518 N525 1.356 1_554 S
C519 C518 1.363 . S
C519 C522 1.363 . S
N520 C522 1.356 . S
N520 H532 0.984 . S
N520 H533 0.985 . S
N521 C523 1.356 . S
N521 H526 0.984 . S
N521 H527 0.985 1_554 S
C522 C516 1.379 . S
C522 C519 1.363 . S
C522 N520 1.356 . S
C523 C517 1.363 . S
C523 C518 1.379 . S
C523 N521 1.356 . S
N524 C516 1.356 . S
N524 H530 0.984 . S
N524 H531 0.984 . S
N525 C518 1.356 1_556 S
N525 H528 0.984 . S
N525 H529 0.985 . S
H526 N521 0.984 . S
H527 N521 0.985 1_556 S
H528 N525 0.984 . S
H529 N525 0.985 . S
H530 N524 0.984 . S
H531 N524 0.984 . S
H532 N520 0.984 . S
H533 N520 0.985 . S
C534 C535 1.363 . S
C534 C540 1.379 . S
C534 N542 1.356 . S
C535 C534 1.363 . S
C535 C541 1.363 . S
C536 C537 1.363 . S
C536 C541 1.379 . S
C536 N543 1.356 . S
C537 C536 1.363 . S
C537 C540 1.363 . S
N538 C540 1.356 . S
N538 H550 0.984 . S
N538 H551 0.985 . S
N539 C541 1.356 . S
N539 H544 0.984 . S
N539 H545 0.985 . S
C540 C534 1.379 . S
C540 C537 1.363 . S
C540 N538 1.356 . S
C541 C535 1.363 . S
C541 C536 1.379 . S
C541 N539 1.356 . S
N542 C534 1.356 . S
N542 H548 0.984 . S
N542 H549 0.984 . S
N543 C536 1.356 . S
N543 H546 0.984 . S
N543 H547 0.985 . S
H544 N539 0.984 . S
H545 N539 0.985 . S
H546 N543 0.984 . S
H547 N543 0.985 . S
H548 N542 0.984 . S
H549 N542 0.984 . S
H550 N538 0.984 . S
H551 N538 0.985 . S
C552 C553 1.363 1_554 S
C552 C558 1.379 . S
C552 N560 1.356 . S
C553 C552 1.363 1_556 S
C553 C559 1.363 1_455 S
C554 C555 1.363 1_655 S
C554 C559 1.379 . S
C554 N561 1.356 . S
C555 C554 1.363 1_455 S
C555 C558 1.363 1_556 S
N556 C558 1.356 . S
N556 H568 0.984 . S
N556 H569 0.985 . S
N557 C559 1.356 . S
N557 H562 0.984 . S
N557 H563 0.985 . S
C558 C552 1.379 . S
C558 C555 1.363 1_554 S
C558 N556 1.356 . S
C559 C553 1.363 1_655 S
C559 C554 1.379 . S
C559 N557 1.356 . S
N560 C552 1.356 . S
N560 H566 0.984 . S
N560 H567 0.984 . S
N561 C554 1.356 . S
N561 H564 0.984 . S
N561 H565 0.985 . S
H562 N557 0.984 . S
H563 N557 0.985 . S
H564 N561 0.984 . S
H565 N561 0.985 . S
H566 N560 0.984 . S
H567 N560 0.984 . S
H568 N556 0.984 . S
H569 N556 0.985 . S
C570 C571 1.363 . S
C570 C576 1.379 . S
C570 N578 1.356 . S
C571 C570 1.363 . S
C571 C577 1.363 1_544 S
C572 C573 1.363 1_566 S
C572 C577 1.379 . S
C572 N579 1.356 . S
C573 C572 1.363 1_544 S
C573 C576 1.363 . S
N574 C576 1.356 . S
N574 H586 0.984 . S
N574 H587 0.985 . S
N575 C577 1.356 . S
N575 H580 0.984 . S
N575 H581 0.985 . S
C576 C570 1.379 . S
C576 C573 1.363 . S
C576 N574 1.356 . S
C577 C571 1.363 1_566 S
C577 C572 1.379 . S
C577 N575 1.356 . S
N578 C570 1.356 . S
N578 H584 0.984 . S
N578 H585 0.984 . S
N579 C572 1.356 . S
N579 H582 0.984 . S
N579 H583 0.985 . S
H580 N575 0.984 . S
H581 N575 0.985 . S
H582 N579 0.984 . S
H583 N579 0.985 . S
H584 N578 0.984 . S
H585 N578 0.984 . S
H586 N574 0.984 . S
H587 N574 0.985 . S
C588 C589 1.363 . S
C588 C594 1.379 . S
C588 N596 1.356 . S
C589 C588 1.363 . S
C589 C595 1.363 . S
C590 C591 1.363 . S
C590 C595 1.379 . S
C590 N597 1.356 . S
C591 C590 1.363 . S
C591 C594 1.363 . S
N592 C594 1.356 . S
N592 H604 0.984 . S
N592 H605 0.985 . S
N593 C595 1.356 . S
N593 H598 0.984 . S
N593 H599 0.985 . S
C594 C588 1.379 . S
C594 C591 1.363 . S
C594 N592 1.356 . S
C595 C589 1.363 . S
C595 C590 1.379 . S
C595 N593 1.356 . S
N596 C588 1.356 . S
N596 H602 0.984 . S
N596 H603 0.984 . S
N597 C590 1.356 . S
N597 H600 0.984 . S
N597 H601 0.985 . S
H598 N593 0.984 . S
H599 N593 0.985 . S
H600 N597 0.984 . S
H601 N597 0.985 . S
H602 N596 0.984 . S
H603 N596 0.984 . S
H604 N592 0.984 . S
H605 N592 0.985 . S
C606 C607 1.363 . S
C606 C612 1.379 . S
C606 N614 1.356 . S
C607 C606 1.363 . S
C607 C613 1.363 . S
C608 C609 1.363 . S
C608 C613 1.379 . S
C608 N615 1.356 . S
C609 C608 1.363 . S
C609 C612 1.363 . S
N610 C612 1.356 . S
N610 H622 0.984 1_556 S
N610 H623 0.985 . S
N611 C613 1.356 . S
N611 H616 0.984 . S
N611 H617 0.985 . S
C612 C606 1.379 . S
C612 C609 1.363 . S
C612 N610 1.356 . S
C613 C607 1.363 . S
C613 C608 1.379 . S
C613 N611 1.356 . S
N614 C606 1.356 . S
N614 H620 0.984 . S
N614 H621 0.984 . S
N615 C608 1.356 . S
N615 H618 0.984 . S
N615 H619 0.985 . S
H616 N611 0.984 . S
H617 N611 0.985 . S
H618 N615 0.984 . S
H619 N615 0.985 . S
H620 N614 0.984 . S
H621 N614 0.984 . S
H622 N610 0.984 1_554 S
H623 N610 0.985 . S
C624 C625 1.363 1_455 S
C624 C630 1.379 . S
C624 N632 1.356 . S
C625 C624 1.363 1_655 S
C625 C631 1.363 . S
C626 C627 1.363 . S
C626 C631 1.379 . S
C626 N633 1.356 . S
C627 C626 1.363 . S
C627 C630 1.363 1_655 S
N628 C630 1.356 . S
N628 H640 0.984 . S
N628 H641 0.985 . S
N629 C631 1.356 . S
N629 H634 0.984 . S
N629 H635 0.985 1_556 S
C630 C624 1.379 . S
C630 C627 1.363 1_455 S
C630 N628 1.356 . S
C631 C625 1.363 . S
C631 C626 1.379 . S
C631 N629 1.356 . S
N632 C624 1.356 . S
N632 H638 0.984 . S
N632 H639 0.984 . S
N633 C626 1.356 . S
N633 H636 0.984 . S
N633 H637 0.985 1_556 S
H634 N629 0.984 . S
H635 N629 0.985 1_554 S
H636 N633 0.984 . S
H637 N633 0.985 1_554 S
H638 N632 0.984 . S
H639 N632 0.984 . S
H640 N628 0.984 . S
H641 N628 0.985 . S
C642 C643 1.363 1_545 S
C642 C648 1.379 . S
C642 N650 1.356 . S
C643 C642 1.363 1_565 S
C643 C649 1.363 . S
C644 C645 1.363 . S
C644 C649 1.379 . S
C644 N651 1.356 . S
C645 C644 1.363 . S
C645 C648 1.363 1_565 S
N646 C648 1.356 . S
N646 H658 0.984 . S
N646 H659 0.985 . S
N647 C649 1.356 . S
N647 H652 0.984 . S
N647 H653 0.985 . S
C648 C642 1.379 . S
C648 C645 1.363 1_545 S
C648 N646 1.356 . S
C649 C643 1.363 . S
C649 C644 1.379 . S
C649 N647 1.356 . S
N650 C642 1.356 . S
N650 H656 0.984 . S
N650 H657 0.984 . S
N651 C644 1.356 . S
N651 H654 0.984 . S
N651 H655 0.985 . S
H652 N647 0.984 . S
H653 N647 0.985 . S
H654 N651 0.984 . S
H655 N651 0.985 . S
H656 N650 0.984 . S
H657 N650 0.984 . S
H658 N646 0.984 . S
H659 N646 0.985 . S
C660 C661 1.363 . S
C660 C666 1.379 . S
C660 N668 1.356 . S
C661 C660 1.363 . S
C661 C667 1.363 . S
C662 C663 1.363 . S
C662 C667 1.379 . S
C662 N669 1.356 . S
C663 C662 1.363 . S
C663 C666 1.363 . S
N664 C666 1.356 . S
N664 H676 0.984 . S
N664 H677 0.985 . S
N665 C667 1.356 . S
N665 H670 0.984 . S
N665 H671 0.985 . S
C666 C660 1.379 . S
C666 C663 1.363 . S
C666 N664 1.356 . S
C667 C661 1.363 . S
C667 C662 1.379 . S
C667 N665 1.356 . S
N668 C660 1.356 . S
N668 H674 0.984 . S
N668 H675 0.984 . S
N669 C662 1.356 . S
N669 H672 0.984 . S
N669 H673 0.985 . S
H670 N665 0.984 . S
H671 N665 0.985 . S
H672 N669 0.984 . S
H673 N669 0.985 . S
H674 N668 0.984 . S
H675 N668 0.984 . S
H676 N664 0.984 . S
H677 N664 0.985 . S
C678 C679 1.363 . S
C678 C684 1.379 . S
C678 N686 1.356 . S
C679 C678 1.363 . S
C679 C685 1.363 . S
C680 C681 1.363 . S
C680 C685 1.379 . S
C680 N687 1.356 1_556 S
C681 C680 1.363 . S
C681 C684 1.363 . S
N682 C684 1.356 . S
N682 H694 0.984 . S
N682 H695 0.985 . S
N683 C685 1.356 1_554 S
N683 H688 0.984 . S
N683 H689 0.985 . S
C684 C678 1.379 . S
C684 C681 1.363 . S
C684 N682 1.356 . S
C685 C679 1.363 . S
C685 C680 1.379 . S
C685 N683 1.356 1_556 S
N686 C678 1.356 . S
N686 H692 0.984 . S
N686 H693 0.984 . S
N687 C680 1.356 1_554 S
N687 H690 0.984 1_554 S
N687 H691 0.985 . S
H688 N683 0.984 . S
H689 N683 0.985 . S
H690 N687 0.984 1_556 S
H691 N687 0.985 . S
H692 N686 0.984 . S
H693 N686 0.984 . S
H694 N682 0.984 . S
H695 N682 0.985 . S
C265 C82 1.947 . S
C267 C106 2.186 1_545 S
C285 C146 2.057 . S
C283 C95 1.898 . S
C303 C210 2.057 . S
C301 C56 1.736 . S
C321 C226 1.962 1_455 S
C319 C69 1.463 . S
C339 C127 2.190 1_564 S
C337 C30 1.950 1_565 S
C355 C43 1.855 . S
C357 C167 2.059 1_554 S
C373 C4 1.678 . S
C375 C201 2.057 . S
C391 C17 1.463 1_655 S
C393 C247 1.961 1_655 S
C411 C121 0.653 . S
C409 C74 0.644 . S
C429 C161 0.932 . S
C427 C87 0.929 1_565 S
C447 C197 1.064 . S
C445 C100 1.068 . S
C463 C61 0.958 . S
C465 C241 0.895 . S
C481 C22 0.645 1_655 S
C483 C130 0.652 . S
C501 C170 0.932 . S
C499 C35 0.929 . S
C519 C208 1.063 . S
C517 C48 1.065 . S
C535 C9 0.952 . S
C537 C250 0.901 . S
C553 C73 1.887 1_556 S
C555 C128 2.192 . S
C571 C86 2.031 . S
C573 C168 2.261 1_554 S
C591 C186 1.775 . S
C589 C99 1.745 . S
C609 C248 2.628 . S
C607 C60 2.284 . S
C625 C21 1.893 1_655 S
C627 C117 2.200 . S
C645 C157 2.261 . S
C643 C34 2.026 1_565 S
C663 C207 1.774 . S
C661 C47 1.741 . S
C679 C8 2.287 . S
C681 C237 2.633 . S
