# Generated by pormake.
# Topology ftw, (4,12)-cn, num edge types: 1
# Building blocks:
#     Node 0, Type 0, BuildingBlock: NAHDIM_clean_linker_0, # of connection points: 4
#     Node 1, Type 0, BuildingBlock: NAHDIM_clean_linker_0, # of connection points: 4
#     Node 2, Type 0, BuildingBlock: NAHDIM_clean_linker_0, # of connection points: 4
#     Node 3, Type 1, BuildingBlock: QEWDON_clean_sbu_0, # of connection points: 12
#     Edge 4, Type (0, 1), BuildingBlock: XIVTED_clean_linker_0, # of connection points: 2
#     Edge 5, Type (0, 1), BuildingBlock: XIVTED_clean_linker_0, # of connection points: 2
#     Edge 6, Type (0, 1), BuildingBlock: XIVTED_clean_linker_0, # of connection points: 2
#     Edge 7, Type (0, 1), BuildingBlock: XIVTED_clean_linker_0, # of connection points: 2
#     Edge 8, Type (0, 1), BuildingBlock: XIVTED_clean_linker_0, # of connection points: 2
#     Edge 9, Type (0, 1), BuildingBlock: XIVTED_clean_linker_0, # of connection points: 2
#     Edge 10, Type (0, 1), BuildingBlock: XIVTED_clean_linker_0, # of connection points: 2
#     Edge 11, Type (0, 1), BuildingBlock: XIVTED_clean_linker_0, # of connection points: 2
#     Edge 12, Type (0, 1), BuildingBlock: XIVTED_clean_linker_0, # of connection points: 2
#     Edge 13, Type (0, 1), BuildingBlock: XIVTED_clean_linker_0, # of connection points: 2
#     Edge 14, Type (0, 1), BuildingBlock: XIVTED_clean_linker_0, # of connection points: 2
#     Edge 15, Type (0, 1), BuildingBlock: XIVTED_clean_linker_0, # of connection points: 2
# Relax obj value: 0.036
# Max RMSD: 0.107
# Mean RMSD: 0.083
data_MOF--net-ftw--node1-QEWDON_clean_sbu_0--node2-NAHDIM_clean_linker_0--edge1-XIVTED_clean_linker_0
_symmetry_space_group_name_H-M    P1
_symmetry_Int_Tables_number       1
_symmetry_cell_setting            triclinic
loop_
_symmetry_equiv_pos_as_xyz
'x, y, z'
_cell_length_a     32.223344
_cell_length_b     31.899868
_cell_length_c     33.21312
_cell_angle_alpha  90.453174
_cell_angle_beta   89.524004
_cell_angle_gamma 89.505428
loop_
_atom_site_label
_atom_site_type_symbol
_atom_site_fract_x
_atom_site_fract_y
_atom_site_fract_z
_atom_type_partial_charge
C0 C 0.94674 0.65998 0.25945 0.0
C1 C 0.93727 0.69925 0.28536 0.0
C2 C 0.9643 0.66692 0.347 0.0
C3 C 0.93224 0.63864 0.35492 0.0
C4 C 0.93938 0.60321 0.37881 0.0
C5 C 0.97931 0.59622 0.39506 0.0
C6 C 0.01081 0.62624 0.38923 0.0
C7 C 0.00265 0.66155 0.36559 0.0
C8 C 0.90478 0.57241 0.38539 0.0
C9 C 0.05361 0.62 0.4064 0.0
C10 C 0.12139 0.38561 0.2436 0.0
C11 C 0.09381 0.35375 0.26527 0.0
C12 C 0.04701 0.39566 0.30973 0.0
C13 C 0.07726 0.41194 0.33561 0.0
C14 C 0.06604 0.43971 0.36703 0.0
C15 C 0.0236 0.44996 0.37361 0.0
C16 C 0.99303 0.43163 0.3489 0.0
C17 C 0.00527 0.40526 0.31696 0.0
C18 C 0.09965 0.45923 0.39222 0.0
C19 C 0.94744 0.44094 0.35526 0.0
C20 C 0.03384 0.33728 0.62567 0.0
C21 C 0.06619 0.36472 0.61554 0.0
C22 C 0.05764 0.40378 0.59806 0.0
C23 C 0.01606 0.41539 0.59008 0.0
C24 C 0.98354 0.38766 0.59977 0.0
C25 C 0.99292 0.34897 0.61745 0.0
C26 C 0.09302 0.4327 0.58806 0.0
C27 C 0.93888 0.39896 0.59145 0.0
C28 C 0.89458 0.69533 0.70097 0.0
C29 C 0.929 0.67006 0.72145 0.0
C30 C 0.96625 0.63023 0.66809 0.0
C31 C 0.00479 0.62544 0.64899 0.0
C32 C 0.01234 0.59276 0.62134 0.0
C33 C 0.98006 0.56465 0.61188 0.0
C34 C 0.94076 0.56947 0.63077 0.0
C35 C 0.93427 0.60208 0.65888 0.0
C36 C 0.05489 0.58821 0.60237 0.0
C37 C 0.9056 0.54021 0.62113 0.0
C38 C 0.98945 0.55547 0.41401 0.0
C39 C 1.00151 0.52256 0.38842 0.0
C40 C 0.01136 0.48293 0.40337 0.0
C41 C 0.00913 0.4757 0.44528 0.0
C42 C 0.01749 0.43594 0.46139 0.0
C43 C 0.01631 0.42949 0.50279 0.0
C44 C 0.00673 0.46258 0.52964 0.0
C45 C 0.00648 0.45663 0.57179 0.0
C46 C 0.99728 0.49032 0.59761 0.0
C47 C 0.98767 0.52999 0.58253 0.0
C48 C 0.98693 0.53639 0.54044 0.0
C49 C 0.97633 0.5756 0.52417 0.0
C50 C 0.9767 0.58185 0.48274 0.0
C51 C 0.98796 0.54922 0.45605 0.0
C52 C 0.99804 0.5092 0.47174 0.0
C53 C 0.99714 0.50269 0.51397 0.0
C54 C 0.10051 0.25963 0.62333 0.0
C55 C 0.07726 0.28275 0.65731 0.0
O56 O 0.95987 0.69909 0.32085 0.0
O57 O 0.96151 0.66259 0.69468 0.0
O58 O 0.04032 0.29935 0.64309 0.0
O59 O 0.05627 0.37193 0.27667 0.0
H60 H 0.90357 0.70057 0.29284 0.0
H61 H 0.93505 0.63125 0.27409 0.0
H62 H 0.98073 0.65644 0.25435 0.0
H63 H 0.93118 0.66227 0.2298 0.0
H64 H 0.90203 0.64365 0.34166 0.0
H65 H 0.02692 0.6841 0.35981 0.0
H66 H 0.91185 0.54305 0.36846 0.0
H67 H 0.87436 0.58484 0.37517 0.0
H68 H 0.90233 0.56435 0.41779 0.0
H69 H 0.07426 0.64695 0.40024 0.0
H70 H 0.068 0.5912 0.39324 0.0
H71 H 0.05141 0.61555 0.43946 0.0
H72 H 0.11026 0.34187 0.29229 0.0
H73 H 0.15074 0.37026 0.23337 0.0
H74 H 0.12949 0.41189 0.26403 0.0
H75 H 0.10536 0.39894 0.21706 0.0
H76 H 0.10967 0.40422 0.33081 0.0
H77 H 0.98213 0.39228 0.29701 0.0
H78 H 0.097 0.44805 0.42367 0.0
H79 H 0.09593 0.49388 0.39286 0.0
H80 H 0.13124 0.45131 0.3807 0.0
H81 H 0.9276 0.41776 0.33958 0.0
H82 H 0.94017 0.47248 0.3432 0.0
H83 H 0.93939 0.44111 0.38785 0.0
H84 H 0.09716 0.30824 0.66927 0.0
H85 H 0.09814 0.35599 0.62094 0.0
H86 H 0.96819 0.32757 0.62513 0.0
H87 H 0.09393 0.43831 0.55512 0.0
H88 H 0.12355 0.41975 0.59737 0.0
H89 H 0.08802 0.46351 0.60321 0.0
H90 H 0.91728 0.37332 0.59945 0.0
H91 H 0.93517 0.40637 0.55905 0.0
H92 H 0.92998 0.42747 0.60898 0.0
H93 H 0.91611 0.63982 0.73215 0.0
H94 H 0.86877 0.70179 0.7226 0.0
H95 H 0.88193 0.6775 0.67508 0.0
H96 H 0.90669 0.72558 0.68964 0.0
H97 H 0.02923 0.64732 0.65622 0.0
H98 H 0.90412 0.60549 0.67311 0.0
H99 H 0.05292 0.59444 0.56961 0.0
H100 H 0.06665 0.55564 0.60596 0.0
H101 H 0.07762 0.6102 0.61573 0.0
H102 H 0.87595 0.55021 0.63573 0.0
H103 H 0.91356 0.50817 0.63153 0.0
H104 H 0.90103 0.53851 0.58805 0.0
H105 H 0.00316 0.52787 0.3562 0.0
H106 H 0.02523 0.40941 0.44215 0.0
H107 H 0.02331 0.39828 0.51351 0.0
H108 H 0.99781 0.48564 0.62993 0.0
H109 H 0.96769 0.60194 0.54332 0.0
H110 H 0.96841 0.6127 0.47187 0.0
H111 H 0.13005 0.24614 0.63468 0.0
H112 H 0.10805 0.28163 0.59865 0.0
H113 H 0.08126 0.23396 0.61084 0.0
C114 C 0.71425 0.1499 0.66358 0.0
C115 C 0.69948 0.11092 0.68618 0.0
C116 C 0.6586 0.06952 0.63771 0.0
C117 C 0.65661 0.03066 0.61821 0.0
C118 C 0.62198 0.0194 0.59531 0.0
C119 C 0.58902 0.04856 0.59052 0.0
C120 C 0.59091 0.0882 0.60991 0.0
C121 C 0.62539 0.09807 0.63375 0.0
C122 C 0.62065 0.97616 0.57656 0.0
C123 C 0.55653 0.12022 0.60546 0.0
C124 C 0.26331 0.96461 0.63295 0.0
C125 C 0.29411 0.99675 0.64899 0.0
C126 C 0.36826 0.98766 0.63209 0.0
C127 C 0.37666 0.02848 0.61888 0.0
C128 C 0.41326 0.03713 0.59733 0.0
C129 C 0.44231 0.00448 0.58944 0.0
C130 C 0.43466 0.96375 0.60408 0.0
C131 C 0.39775 0.95594 0.62536 0.0
C132 C 0.42095 0.08115 0.58292 0.0
C133 C 0.46531 0.92842 0.59684 0.0
C134 C 0.38715 0.93741 0.33297 0.0
C135 C 0.38548 0.98032 0.3426 0.0
C136 C 0.41883 -9e-05 0.36194 0.0
C137 C 0.45427 0.97588 0.37234 0.0
C138 C 0.45656 0.93295 0.36127 0.0
C139 C 0.42312 0.91444 0.34116 0.0
C140 C 0.41598 0.0461 0.37177 0.0
C141 C 0.49396 0.9064 0.37142 0.0
C142 C 0.76074 0.10843 0.34285 0.0
C143 C 0.74243 0.0692 0.32329 0.0
C144 C 0.66716 0.0633 0.33086 0.0
C145 C 0.63302 0.09033 0.33485 0.0
C146 C 0.59701 0.07797 0.3555 0.0
C147 C 0.59495 0.03721 0.37186 0.0
C148 C 0.62867 0.00898 0.36623 0.0
C149 C 0.66443 0.02229 0.34568 0.0
C150 C 0.56145 0.10868 0.36053 0.0
C151 C 0.62703 0.96491 0.38231 0.0
C152 C 0.5522 0.03706 0.56613 0.0
C153 C 0.51569 0.02649 0.5866 0.0
C154 C 0.48061 0.0131 0.56581 0.0
C155 C 0.48221 0.00862 0.52341 0.0
C156 C 0.44835 0.99285 0.50175 0.0
C157 C 0.45046 0.98793 0.4601 0.0
C158 C 0.48607 -0.00028 0.4383 0.0
C159 C 0.48838 0.99515 0.39588 0.0
C160 C 0.52409 0.00779 0.3752 0.0
C161 C 0.55796 0.0245 0.39573 0.0
C162 C 0.55646 0.02864 0.43819 0.0
C163 C 0.59013 0.04487 0.45987 0.0
C164 C 0.58873 0.04793 0.50171 0.0
C165 C 0.55352 0.03514 0.52351 0.0
C166 C 0.51868 0.02005 0.50217 0.0
C167 C 0.52036 0.01624 0.45951 0.0
C168 C 0.29611 0.88173 0.34268 0.0
C169 C 0.31335 0.92309 0.3268 0.0
O170 O 0.6932 0.07798 0.65948 0.0
O171 O 0.70184 0.07755 0.31203 0.0
O172 O 0.35463 0.91737 0.31582 0.0
O173 O 0.33281 0.97766 0.65219 0.0
H174 H 0.66998 0.11872 0.70235 0.0
H175 H 0.69019 0.16096 0.64238 0.0
H176 H 0.74296 0.14296 0.64594 0.0
H177 H 0.72052 0.17575 0.68525 0.0
H178 H 0.68224 0.00875 0.62152 0.0
H179 H 0.62619 0.12824 0.64874 0.0
H180 H 0.58983 0.96172 0.58165 0.0
H181 H 0.64495 0.95503 0.58885 0.0
H182 H 0.62566 0.97852 0.54358 0.0
H183 H 0.5655 0.1516 0.61705 0.0
H184 H 0.52876 0.10976 0.62251 0.0
H185 H 0.54764 0.12313 0.57336 0.0
H186 H 0.29462 0.02272 0.6269 0.0
H187 H 0.232 0.97909 0.62998 0.0
H188 H 0.26123 0.93729 0.65342 0.0
H189 H 0.27363 0.95324 0.60277 0.0
H190 H 0.35518 0.05384 0.62573 0.0
H191 H 0.39138 0.92473 0.63635 0.0
H192 H 0.45017 0.09307 0.59609 0.0
H193 H 0.39521 0.10304 0.59119 0.0
H194 H 0.42487 0.08102 0.54967 0.0
H195 H 0.45522 0.8987 0.61097 0.0
H196 H 0.49605 0.93711 0.60909 0.0
H197 H 0.46935 0.92303 0.56397 0.0
H198 H 0.31038 0.9457 0.35245 0.0
H199 H 0.3582 -0.00147 0.33489 0.0
H200 H 0.42432 0.88149 0.33298 0.0
H201 H 0.41318 0.05048 0.40487 0.0
H202 H 0.38881 0.06136 0.3574 0.0
H203 H 0.44468 0.06216 0.36176 0.0
H204 H 0.48984 0.87295 0.36294 0.0
H205 H 0.50022 0.90846 0.4042 0.0
H206 H 0.52166 0.91849 0.35532 0.0
H207 H 0.74373 0.04436 0.34659 0.0
H208 H 0.79361 0.10267 0.35121 0.0
H209 H 0.74293 0.11654 0.37066 0.0
H210 H 0.75916 0.13561 0.32219 0.0
H211 H 0.63514 0.12165 0.32263 0.0
H212 H 0.68998 0.00049 0.34092 0.0
H213 H 0.55495 0.11401 0.39307 0.0
H214 H 0.53299 0.09541 0.34698 0.0
H215 H 0.56798 0.13932 0.34624 0.0
H216 H 0.65485 0.94604 0.37358 0.0
H217 H 0.59892 0.94892 0.37097 0.0
H218 H 0.6247 0.96598 0.41567 0.0
H219 H 0.51459 0.02858 0.61922 0.0
H220 H 0.41999 0.98359 0.51683 0.0
H221 H 0.42364 0.97502 0.4452 0.0
H222 H 0.52566 0.0043 0.3427 0.0
H223 H 0.61811 0.05512 0.44477 0.0
H224 H 0.61563 0.06049 0.51677 0.0
H225 H 0.30068 0.85591 0.32043 0.0
H226 H 0.26248 0.88511 0.34982 0.0
H227 H 0.31255 0.87297 0.37069 0.0
C228 C 0.77926 0.55751 0.94897 0.0
C229 C 0.76009 0.59687 0.96825 0.0
C230 C 0.7077 0.57909 0.02039 0.0
C231 C 0.70197 0.57429 0.06181 0.0
C232 C 0.66263 0.56651 0.07838 0.0
C233 C 0.62779 0.56438 0.05283 0.0
C234 C 0.63331 0.56847 0.01071 0.0
C235 C 0.67331 0.57488 0.99481 0.0
C236 C 0.65833 0.56132 0.12333 0.0
C237 C 0.59686 0.5666 0.98249 0.0
C238 C 0.41025 0.75015 0.23661 0.0
C239 C 0.41187 0.73251 0.19362 0.0
C240 C 0.47143 0.70304 0.15961 0.0
C241 C 0.45869 0.68974 0.12148 0.0
C242 C 0.4776 0.65489 0.1026 0.0
C243 C 0.50899 0.63231 0.12305 0.0
C244 C 0.52227 0.64634 0.16139 0.0
C245 C 0.50366 0.68205 0.17893 0.0
C246 C 0.46356 0.64187 0.06115 0.0
C247 C 0.55568 0.62336 0.18415 0.0
C248 C 0.31978 0.43439 0.16052 0.0
C249 C 0.32469 0.4393 0.11869 0.0
C250 C 0.36441 0.43968 0.10091 0.0
C251 C 0.39987 0.43447 0.12529 0.0
C252 C 0.39491 0.42763 0.16707 0.0
C253 C 0.3549 0.42778 0.18411 0.0
C254 C 0.36859 0.44644 0.05614 0.0
C255 C 0.43198 0.42113 0.19384 0.0
C256 C 0.59164 0.26885 0.92355 0.0
C257 C 0.6073 0.2709 0.96709 0.0
C258 C 0.55504 0.29735 0.01315 0.0
C259 C 0.52855 0.32412 0.99202 0.0
C260 C 0.50975 0.35881 0.01119 0.0
C261 C 0.51751 0.36655 0.05245 0.0
C262 C 0.54309 0.33859 0.07421 0.0
C263 C 0.5615 0.30411 0.05421 0.0
C264 C 0.48213 0.38759 0.98723 0.0
C265 C 0.5517 0.34578 0.11828 0.0
C266 C 0.5855 0.55966 0.07041 0.0
C267 C 0.5663 0.59535 0.08707 0.0
C268 C 0.527 0.59333 0.10504 0.0
C269 C 0.50586 0.55465 0.10628 0.0
C270 C 0.46651 0.55132 0.12456 0.0
C271 C 0.44555 0.51339 0.12488 0.0
C272 C 0.46337 0.47707 0.1075 0.0
C273 C 0.44213 0.43841 0.10748 0.0
C274 C 0.46075 0.40292 0.08987 0.0
C275 C 0.50026 0.40489 0.07223 0.0
C276 C 0.52208 0.44322 0.07224 0.0
C277 C 0.56206 0.44621 0.05517 0.0
C278 C 0.58309 0.48414 0.05495 0.0
C279 C 0.56475 0.52073 0.07122 0.0
C280 C 0.52467 0.51833 0.089 0.0
C281 C 0.5034 0.47949 0.08966 0.0
C282 C 0.21698 0.46731 0.19608 0.0
C283 C 0.24441 0.44776 0.16299 0.0
O284 O 0.74674 0.58788 0.00705 0.0
O285 O 0.57487 0.26516 0.99409 0.0
O286 O 0.28213 0.43598 0.17941 0.0
O287 O 0.45193 0.73538 0.17863 0.0
H288 H 0.73387 0.60762 0.94941 0.0
H289 H 0.75577 0.53226 0.94774 0.0
H290 H 0.80614 0.54631 0.96679 0.0
H291 H 0.7898 0.56411 0.91773 0.0
H292 H 0.72864 0.57699 0.08132 0.0
H293 H 0.67697 0.57671 0.96253 0.0
H294 H 0.64361 0.58992 0.13643 0.0
H295 H 0.68885 0.55652 0.138 0.0
H296 H 0.63808 0.53432 0.13043 0.0
H297 H 0.60564 0.57472 0.9511 0.0
H298 H 0.57193 0.58845 0.99294 0.0
H299 H 0.58387 0.5345 0.98243 0.0
H300 H 0.40279 0.69891 0.19604 0.0
H301 H 0.37801 0.74925 0.24868 0.0
H302 H 0.42153 0.78294 0.23771 0.0
H303 H 0.43034 0.73084 0.25634 0.0
H304 H 0.43395 0.70665 0.10661 0.0
H305 H 0.51321 0.69292 0.2084 0.0
H306 H 0.44504 0.6128 0.06336 0.0
H307 H 0.49077 0.63499 0.04136 0.0
H308 H 0.44409 0.66641 0.04684 0.0
H309 H 0.55824 0.63471 0.21573 0.0
H310 H 0.58595 0.6281 0.1688 0.0
H311 H 0.54949 0.58916 0.18437 0.0
H312 H 0.24907 0.47276 0.14024 0.0
H313 H 0.29783 0.44312 0.09973 0.0
H314 H 0.35086 0.42344 0.21623 0.0
H315 H 0.38761 0.47466 0.05038 0.0
H316 H 0.33804 0.45051 0.04135 0.0
H317 H 0.38496 0.41922 0.04207 0.0
H318 H 0.42282 0.41282 0.22508 0.0
H319 H 0.45053 0.45027 0.19486 0.0
H320 H 0.45226 0.39584 0.18128 0.0
H321 H 0.62078 0.30277 0.97121 0.0
H322 H 0.61816 0.26643 0.90203 0.0
H323 H 0.57419 0.29787 0.91623 0.0
H324 H 0.57076 0.24171 0.91914 0.0
H325 H 0.52259 0.31793 0.96055 0.0
H326 H 0.58181 0.28289 0.07026 0.0
H327 H 0.49516 0.41971 0.98733 0.0
H328 H 0.45089 0.38947 0.00151 0.0
H329 H 0.47875 0.3769 0.95553 0.0
H330 H 0.57081 0.3202 0.13133 0.0
H331 H 0.52199 0.34832 0.13534 0.0
H332 H 0.56829 0.37588 0.12222 0.0
H333 H 0.58233 0.62512 0.08629 0.0
H334 H 0.45127 0.57807 0.13866 0.0
H335 H 0.41516 0.51297 0.139 0.0
H336 H 0.44414 0.37347 0.08959 0.0
H337 H 0.57762 0.41921 0.04183 0.0
H338 H 0.61384 0.48448 0.04157 0.0
H339 H 0.18636 0.47663 0.18367 0.0
H340 H 0.23209 0.49577 0.20841 0.0
H341 H 0.21201 0.44498 0.22115 0.0
Zn342 Zn 0.11544 0.12596 0.97385 0.0
Zn343 Zn 0.08916 0.09797 0.06295 0.0
O344 O 0.10305 0.07504 0.00849 0.0
H345 H 0.09701 0.04714 0.99878 0.0
C346 C 0.99814 0.10605 0.89424 0.0
O347 O 0.02139 0.10674 0.92654 0.0
Zn348 Zn 0.96795 0.9249 0.03631 0.0
Zn349 Zn 0.9376 0.94639 0.94644 0.0
O350 O 0.96926 0.96928 0.99392 0.0
H351 H 0.99113 0.98967 0.99179 0.0
Zn352 Zn 0.93938 0.06835 0.95104 0.0
O353 O 0.97763 0.07316 0.9992 0.0
Zn354 Zn 0.94007 0.06955 0.04708 0.0
H355 H 0.00706 0.06712 0.99865 0.0
Zn356 Zn 0.10518 0.88091 1.00045 0.0
O357 O 0.0966 0.94424 1.00036 0.0
H358 H 0.07258 0.95874 0.98991 0.0
Zn359 Zn 0.11902 0.94679 0.05601 0.0
C360 C 0.04806 0.82196 0.96043 0.0
O361 O 0.03414 0.81659 0.99731 0.0
O362 O 0.12587 0.18069 0.00633 0.0
O363 O 0.1054 0.15928 0.06691 0.0
O364 O 0.92353 0.88394 0.95127 0.0
O365 O 0.94583 0.86954 0.01296 0.0
O366 O 0.879 0.0854 0.96533 0.0
O367 O 0.8824 0.09122 0.0321 0.0
C368 C 0.13213 0.02914 0.10306 0.0
O369 O 0.16041 0.86081 0.02604 0.0
O370 O 0.17602 0.91974 0.05816 0.0
O371 O 0.89836 0.98472 0.91314 0.0
C372 C 0.11971 0.18761 0.04381 0.0
O373 O 0.14522 0.11531 0.91874 0.0
C374 C 0.92342 0.98322 0.08719 0.0
O375 O 0.96205 0.09039 0.89645 0.0
C376 C 0.92905 0.85818 0.97991 0.0
O377 O 0.07806 0.84681 0.95436 0.0
C378 C 0.00286 0.11122 0.09417 0.0
O379 O 0.12325 0.06799 0.10448 0.0
O380 O 0.11754 0.00741 0.07421 0.0
C381 C 0.86237 0.09475 0.99923 0.0
O382 O 0.93135 0.94435 0.0827 0.0
O383 O 0.9388 0.00825 0.06157 0.0
C384 C 0.04402 0.90694 0.08787 0.0
O385 O 0.96391 0.10615 0.09092 0.0
O386 O 0.0274 0.08991 0.07173 0.0
C387 C 0.18551 0.88249 0.047 0.0
O388 O 0.08242 0.91363 0.09291 0.0
O389 O 0.02692 0.92073 0.05614 0.0
C390 C 0.91087 -0.00097 0.87961 0.0
O391 O 0.94898 0.99052 0.86756 0.0
C392 C 0.17026 0.08436 0.91625 0.0
O393 O 0.17665 0.0615 0.94839 0.0
H394 H 0.0451 0.35423 0.19809 0.0
H395 H 0.06755 0.10941 0.1472 0.0
H396 H 0.1211 0.2712 0.26874 0.0
H397 H 0.97274 0.19036 0.09916 0.0
H398 H 0.09294 0.16838 0.18811 0.0
H399 H 0.02516 0.29504 0.15586 0.0
C400 C 0.05776 0.32346 0.20452 0.0
C401 C 0.08437 0.31749 0.23725 0.0
C402 C 0.06663 0.17317 0.16855 0.0
C403 C 0.06135 0.24934 0.18922 0.0
C404 C 0.05242 0.13971 0.14509 0.0
C405 C 0.0184 0.1454 0.11966 0.0
C406 C 0.04712 0.2126 0.16567 0.0
C407 C 0.99911 0.18484 0.11848 0.0
C408 C 0.04621 0.28963 0.18057 0.0
C409 C 0.10016 0.27701 0.24405 0.0
N410 N 0.01395 0.21702 0.14088 0.0
N411 N 0.08822 0.24433 0.22034 0.0
H412 H 0.7875 0.99642 0.3124 0.0
H413 H 0.89161 0.06244 0.10338 0.0
H414 H 0.75528 0.11103 0.25167 0.0
H415 H 0.89445 0.93635 0.14938 0.0
H416 H 0.8463 0.0834 0.15968 0.0
H417 H 0.83117 0.976 0.25487 0.0
C418 C 0.78956 0.01723 0.28686 0.0
C419 C 0.76791 0.05556 0.28689 0.0
C420 C 0.85679 0.05113 0.15728 0.0
C421 C 0.81817 0.03262 0.22102 0.0
C422 C 0.88273 0.03916 0.12511 0.0
C423 C 0.89669 0.99753 0.12128 0.0
C424 C 0.84521 0.02132 0.18612 0.0
C425 C 0.88433 0.96878 0.15082 0.0
C426 C 0.81449 0.00559 0.25403 0.0
C427 C 0.77168 0.08133 0.25293 0.0
N428 N 0.85947 0.98124 0.18195 0.0
N429 N 0.79655 0.06952 0.22145 0.0
H430 H 0.01127 0.74254 0.28459 0.0
H431 H 0.96879 0.86579 0.08357 0.0
H432 H 0.89079 0.74081 0.22881 0.0
H433 H 0.06803 0.89526 0.16501 0.0
H434 H 0.93796 0.821 0.13521 0.0
H435 H 0.03178 0.79881 0.24007 0.0
C436 C 0.98872 0.75464 0.26355 0.0
C437 C 0.94878 0.73757 0.26113 0.0
C438 C 0.96615 0.83785 0.14187 0.0
C439 C 0.97286 0.80127 0.20865 0.0
C440 C 0.98365 0.86356 0.11239 0.0
C441 C 0.02119 0.88411 0.11965 0.0
C442 C 0.98673 0.83242 0.17863 0.0
C443 C 0.03936 0.8796 0.15768 0.0
C444 C 1.00056 0.78674 0.23792 0.0
C445 C 0.92156 0.75369 0.23212 0.0
N446 N 0.02224 0.85397 0.18546 0.0
N447 N 0.93421 0.78441 0.20668 0.0
H448 H 0.27738 0.00057 0.31779 0.0
H449 H 0.1467 0.9461 0.12336 0.0
H450 H 0.29409 0.88271 0.25485 0.0
H451 H 0.17939 0.07253 0.15612 0.0
H452 H 0.19403 0.9198 0.17486 0.0
H453 H 0.23467 0.02573 0.26237 0.0
C454 C 0.27199 0.97995 0.29233 0.0
C455 C 0.28859 0.93917 0.29141 0.0
C456 C 0.19101 0.95328 0.17039 0.0
C457 C 0.23948 0.96766 0.22795 0.0
C458 C 0.16428 0.96827 0.14065 0.0
C459 C 0.15969 0.0115 0.13443 0.0
C460 C 0.21236 0.98185 0.19484 0.0
C461 C 0.18191 0.03888 0.15951 0.0
C462 C 0.24768 0.99434 0.2607 0.0
C463 C 0.28109 0.91401 0.25728 0.0
N464 N 0.20702 0.02363 0.18864 0.0
N465 N 0.25662 0.92847 0.2271 0.0
H466 H 0.9805 0.73838 0.72191 0.0
H467 H 0.99065 0.75887 0.9623 0.0
H468 H 0.91345 0.65728 0.80228 0.0
H469 H 0.06158 0.83484 0.88017 0.0
H470 H 0.95954 0.72307 0.90463 0.0
H471 H 0.00777 0.77621 0.78003 0.0
C472 C 0.97165 0.72851 0.75188 0.0
C473 C 0.94531 0.69417 0.75734 0.0
C474 C 0.98189 0.7476 0.89927 0.0
C475 C 0.97611 0.73754 0.82413 0.0
C476 C 0.99962 0.76809 0.93217 0.0
C477 C 0.0288 0.79988 0.92607 0.0
C478 C 0.9934 0.75904 0.85999 0.0
C479 C 0.03935 0.81042 0.88636 0.0
C480 C 0.98716 0.75012 0.78507 0.0
C481 C 0.93418 0.68318 0.79681 0.0
N482 N 0.02168 0.79007 0.8549 0.0
N483 N 0.94979 0.70467 0.82874 0.0
H484 H 0.25051 0.0692 0.66626 0.0
H485 H 0.22471 0.01982 0.90131 0.0
H486 H 0.30274 0.9603 0.72362 0.0
H487 H 0.16315 0.12339 0.84307 0.0
H488 H 0.25734 0.00049 0.83724 0.0
H489 H 0.22216 0.09255 0.73146 0.0
C490 C 0.25647 0.05055 0.69273 0.0
C491 C 0.27961 0.01317 0.68968 0.0
C492 C 0.23679 0.02752 0.83843 0.0
C493 C 0.24674 0.03921 0.76421 0.0
C494 C 0.21812 0.03862 0.87507 0.0
C495 C 0.19106 0.07327 0.87762 0.0
C496 C 0.22844 0.0512 0.80392 0.0
C497 C 0.18379 0.09643 0.84254 0.0
C498 C 0.24014 0.06375 0.72987 0.0
C499 C 0.2857 0.98968 0.72475 0.0
N500 N 0.20231 0.08493 0.80712 0.0
N501 N 0.26939 0.00309 0.7605 0.0
H502 H 0.12034 0.27165 0.72758 0.0
H503 H 0.95835 0.11016 0.8217 0.0
H504 H 0.01421 0.22495 0.66355 0.0
H505 H 0.07017 0.14906 0.88166 0.0
H506 H 0.9798 0.14945 0.76232 0.0
H507 H 0.10403 0.22463 0.78329 0.0
C508 C 0.09352 0.25155 0.72537 0.0
C509 C 0.06796 0.25297 0.69141 0.0
C510 C 0.99979 0.14917 0.78836 0.0
C511 C 0.04928 0.19876 0.75476 0.0
C512 C 0.98755 0.12672 0.8223 0.0
C513 C 0.01233 0.12661 0.85687 0.0
C514 C 0.03696 0.17186 0.78902 0.0
C515 C 0.04997 0.14844 0.85579 0.0
C516 C 0.08428 0.22462 0.75707 0.0
C517 C 0.03416 0.22552 0.68961 0.0
N518 N 0.06097 0.17042 0.82256 0.0
N519 N 0.02558 0.19983 0.72099 0.0
H520 H 0.69377 0.1118 0.76924 0.0
H521 H 0.92479 0.02486 0.80235 0.0
H522 H 0.77833 0.07978 0.67224 0.0
H523 H 0.83063 0.02414 0.89557 0.0
H524 H 0.87446 0.05552 0.75629 0.0
H525 H 0.74624 0.08909 0.81772 0.0
C526 C 0.72341 0.10009 0.75818 0.0
C527 C 0.73168 0.09757 0.71665 0.0
C528 C 0.86484 0.04878 0.78687 0.0
C529 C 0.79191 0.07198 0.77184 0.0
C530 C 0.89361 0.0314 0.81326 0.0
C531 C 0.88178 0.02138 0.85276 0.0
C532 C 0.82396 0.05651 0.80008 0.0
C533 C 0.841 0.03094 0.86526 0.0
C534 C 0.75331 0.08717 0.78582 0.0
C535 C 0.7707 0.08229 0.70397 0.0
N536 N 0.81349 0.04781 0.83894 0.0
N537 N 0.79933 0.07013 0.73143 0.0
H538 H 0.21218 0.43894 0.08686 0.0
H539 H 0.13171 0.20564 0.12328 0.0
H540 H 0.22845 0.3714 0.19762 0.0
H541 H 0.13882 0.2612 0.00543 0.0
H542 H 0.15783 0.27028 0.15265 0.0
H543 H 0.17768 0.37759 0.05787 0.0
C544 C 0.20846 0.41116 0.10502 0.0
C545 C 0.22337 0.41005 0.14456 0.0
C546 C 0.15349 0.26848 0.12038 0.0
C547 C 0.18358 0.34016 0.11194 0.0
C548 C 0.13803 0.2317 0.1036 0.0
C549 C 0.13266 0.22801 0.06183 0.0
C550 C 0.16404 0.30194 0.09523 0.0
C551 C 0.14254 0.26259 0.03777 0.0
C552 C 0.18876 0.37624 0.08853 0.0
C553 C 0.21753 0.37343 0.16696 0.0
N554 N 0.1579 0.29809 0.05481 0.0
N555 N 0.19807 0.33998 0.15036 0.0
H556 H 0.34825 0.69942 0.14955 0.0
H557 H 0.2467 0.91832 0.0926 0.0
H558 H 0.40812 0.81699 0.17497 0.0
H559 H 0.21203 0.80137 0.03627 0.0
H560 H 0.30554 0.88256 0.12376 0.0
H561 H 0.29739 0.73656 0.10859 0.0
C562 C 0.35064 0.7331 0.14649 0.0
C563 C 0.38184 0.75528 0.16643 0.0
C564 C 0.28536 0.86491 0.10412 0.0
C565 C 0.32373 0.79806 0.11966 0.0
C566 C 0.25173 0.88529 0.0863 0.0
C567 C 0.22417 0.86279 0.0619 0.0
C568 C 0.2912 0.82166 0.09787 0.0
C569 C 0.2323 0.82 0.05494 0.0
C570 C 0.32173 0.75427 0.12299 0.0
C571 C 0.38398 0.79883 0.16084 0.0
N572 N 0.26477 0.80077 0.07319 0.0
N573 N 0.35495 0.81891 0.1384 0.0
H574 H 0.61924 0.18964 0.93579 0.0
H575 H 0.82615 0.14288 0.05872 0.0
H576 H 0.67129 0.27816 0.01998 0.0
H577 H 0.80299 0.09036 0.9409 0.0
H578 H 0.76026 0.18155 0.05503 0.0
H579 H 0.6777 0.14233 0.94774 0.0
C580 C 0.64298 0.19939 0.95661 0.0
C581 C 0.64137 0.23904 0.97547 0.0
C582 C 0.7695 0.16118 0.03024 0.0
C583 C 0.70737 0.18389 0.99054 0.0
C584 C 0.80693 0.13892 0.03238 0.0
C585 C 0.82027 0.11365 0.99988 0.0
C586 C 0.74497 0.15756 0.99569 0.0
C587 C 0.7941 0.10979 0.96647 0.0
C588 C 0.67624 0.17214 0.96355 0.0
C589 C 0.67213 0.2486 0.00374 0.0
N590 N 0.75774 0.13161 0.96519 0.0
N591 N 0.70405 0.22139 0.01022 0.0
H592 H 0.81741 0.61714 0.0274 0.0
H593 H 0.89583 0.82188 0.91277 0.0
H594 H 0.77534 0.65521 0.91018 0.0
H595 H 0.92409 0.79638 0.03713 0.0
H596 H 0.86083 0.75473 0.90808 0.0
H597 H 0.86493 0.67674 0.02837 0.0
C598 C 0.8181 0.63811 0.00193 0.0
C599 C 0.79137 0.63207 0.96919 0.0
C600 C 0.87482 0.76368 0.93638 0.0
C601 C 0.84632 0.69961 0.9697 0.0
C602 C 0.8949 0.80209 0.9391 0.0
C603 C 0.91237 0.81523 0.97563 0.0
C604 C 0.87192 0.73808 0.97045 0.0
C605 C 0.91072 0.78776 0.00847 0.0
C606 C 0.84533 0.67199 0.00243 0.0
C607 C 0.79463 0.65938 0.93643 0.0
N608 N 0.89045 0.75065 0.00521 0.0
N609 N 0.82128 0.69209 0.93765 0.0
loop_
_geom_bond_atom_site_label_1
_geom_bond_atom_site_label_2
_geom_bond_distance
_geom_bond_site_symmetry_2
_ccdc_geom_bond_type
C0 C1 1.560 . S
C0 H61 0.959 . S
C0 H62 0.959 . S
C0 H63 0.960 . S
C1 C0 1.560 . S
C1 O56 1.426 . S
C1 H60 0.980 . S
C2 C3 1.388 1_455 S
C2 C7 1.418 . S
C2 O56 1.334 . S
C3 C2 1.388 1_655 S
C3 C4 1.366 . S
C3 H64 0.941 . S
C4 C3 1.366 . S
C4 C5 1.401 1_655 S
C4 C8 1.527 . S
C5 C4 1.401 1_455 S
C5 C6 1.405 . S
C5 C38 1.587 1_455 S
C6 C5 1.405 . S
C6 C7 1.332 . S
C6 C9 1.496 . S
C7 C2 1.418 . S
C7 C6 1.332 . S
C7 H65 0.929 . S
C8 C4 1.527 . S
C8 H66 0.959 . S
C8 H67 0.961 . S
C8 H68 0.961 . S
C9 C6 1.496 . S
C9 H69 0.960 . S
C9 H70 0.960 . S
C9 H71 0.961 . S
C10 C11 1.517 . S
C10 H73 0.961 1_655 S
C10 H74 0.960 . S
C10 H75 0.959 . S
C11 C10 1.517 . S
C11 O59 1.468 . S
C11 H72 0.980 1_655 S
C12 C13 1.349 1_655 S
C12 C17 1.367 . S
C12 O59 1.408 . S
C13 C12 1.349 1_455 S
C13 C14 1.407 . S
C13 H76 0.930 . S
C14 C13 1.407 . S
C14 C15 1.449 1_455 S
C14 C18 1.535 . S
C15 C14 1.449 1_655 S
C15 C16 1.384 . S
C15 C40 1.553 . S
C16 C15 1.384 . S
C16 C17 1.364 . S
C16 C19 1.450 . S
C17 C12 1.367 . S
C17 C16 1.364 . S
C17 H77 0.931 . S
C18 C14 1.535 . S
C18 H78 0.959 . S
C18 H79 0.961 . S
C18 H80 0.959 . S
C19 C16 1.450 . S
C19 H81 0.960 . S
C19 H82 0.960 . S
C19 H83 0.960 . S
C20 C21 1.309 1_655 S
C20 C25 1.304 . S
C20 O58 1.435 . S
C21 C20 1.309 1_455 S
C21 C22 1.476 . S
C21 H85 0.930 . S
C22 C21 1.476 . S
C22 C23 1.400 1_455 S
C22 C26 1.567 . S
C23 C22 1.400 1_655 S
C23 C24 1.373 . S
C23 C45 1.432 . S
C24 C23 1.373 . S
C24 C25 1.339 . S
C24 C27 1.530 . S
C25 C20 1.304 . S
C25 C24 1.339 . S
C25 H86 0.930 . S
C26 C22 1.567 . S
C26 H87 0.961 . S
C26 H88 0.960 . S
C26 H89 0.958 . S
C27 C24 1.530 . S
C27 H90 0.961 . S
C27 H91 0.960 . S
C27 H92 0.960 . S
C28 C29 1.530 . S
C28 H94 0.961 . S
C28 H95 0.961 . S
C28 H96 0.959 . S
C29 C28 1.530 . S
C29 O57 1.412 . S
C29 H93 0.980 . S
C30 C31 1.288 . S
C30 C35 1.369 1_455 S
C30 O57 1.393 . S
C31 C30 1.288 . S
C31 C32 1.369 . S
C31 H97 0.932 . S
C32 C31 1.369 . S
C32 C33 1.398 . S
C32 C36 1.527 . S
C33 C32 1.398 . S
C33 C34 1.380 1_455 S
C33 C47 1.497 . S
C34 C33 1.380 1_655 S
C34 C35 1.385 . S
C34 C37 1.603 . S
C35 C30 1.369 1_655 S
C35 C34 1.385 . S
C35 H98 0.934 . S
C36 C32 1.527 . S
C36 H99 0.961 . S
C36 H100 0.959 . S
C36 H101 0.959 . S
C37 C34 1.603 . S
C37 H102 0.960 . S
C37 H103 0.962 . S
C37 H104 0.961 . S
C38 C5 1.587 1_655 S
C38 C39 1.360 . S
C38 C51 1.413 . S
C39 C38 1.360 . S
C39 C40 1.365 . S
C39 H105 0.929 . S
C40 C15 1.553 . S
C40 C39 1.365 . S
C40 C41 1.404 . S
C41 C40 1.404 . S
C41 C42 1.395 . S
C41 C52 1.451 . S
C42 C41 1.395 . S
C42 C43 1.322 . S
C42 H106 0.930 . S
C43 C42 1.322 . S
C43 C44 1.459 . S
C43 H107 0.929 . S
C44 C43 1.459 . S
C44 C45 1.445 . S
C44 C53 1.395 . S
C45 C23 1.432 . S
C45 C44 1.445 . S
C45 C46 1.370 1_655 S
C46 C45 1.370 1_455 S
C46 C47 1.438 . S
C46 H108 0.930 . S
C47 C33 1.497 . S
C47 C46 1.438 . S
C47 C48 1.360 . S
C48 C47 1.360 . S
C48 C49 1.401 . S
C48 C53 1.446 1_455 S
C49 C48 1.401 . S
C49 C50 1.347 . S
C49 H109 0.929 . S
C50 C49 1.347 . S
C50 C51 1.451 1_455 S
C50 H110 0.930 . S
C51 C38 1.413 . S
C51 C50 1.451 1_655 S
C51 C52 1.335 . S
C52 C41 1.451 . S
C52 C51 1.335 . S
C52 C53 1.497 . S
C53 C44 1.395 . S
C53 C48 1.446 1_655 S
C53 C52 1.497 . S
C54 C55 1.582 1_655 S
C54 H111 0.953 1_655 S
C54 H112 0.959 . S
C54 H113 0.958 . S
C55 C54 1.582 1_455 S
C55 O58 1.458 1_455 S
C55 H84 0.980 . S
O56 C1 1.426 . S
O56 C2 1.334 . S
O57 C29 1.412 . S
O57 C30 1.393 . S
O58 C20 1.435 . S
O58 C55 1.458 1_655 S
O59 C11 1.468 . S
O59 C12 1.408 . S
H60 C1 0.980 . S
H61 C0 0.959 . S
H62 C0 0.959 . S
H63 C0 0.960 . S
H64 C3 0.941 . S
H65 C7 0.929 . S
H66 C8 0.959 . S
H67 C8 0.961 . S
H68 C8 0.961 . S
H69 C9 0.960 . S
H70 C9 0.960 . S
H71 C9 0.961 . S
H72 C11 0.980 1_455 S
H73 C10 0.961 1_455 S
H74 C10 0.960 . S
H75 C10 0.959 . S
H76 C13 0.930 . S
H77 C17 0.931 . S
H78 C18 0.959 . S
H79 C18 0.961 . S
H80 C18 0.959 . S
H81 C19 0.960 . S
H82 C19 0.960 . S
H83 C19 0.960 . S
H84 C55 0.980 . S
H85 C21 0.930 . S
H86 C25 0.930 . S
H87 C26 0.961 . S
H88 C26 0.960 . S
H89 C26 0.958 . S
H90 C27 0.961 . S
H91 C27 0.960 . S
H92 C27 0.960 . S
H93 C29 0.980 . S
H94 C28 0.961 . S
H95 C28 0.961 . S
H96 C28 0.959 . S
H97 C31 0.932 . S
H98 C35 0.934 . S
H99 C36 0.961 . S
H100 C36 0.959 . S
H101 C36 0.959 . S
H102 C37 0.960 . S
H103 C37 0.962 . S
H104 C37 0.961 . S
H105 C39 0.929 . S
H106 C42 0.930 . S
H107 C43 0.929 . S
H108 C46 0.930 . S
H109 C49 0.929 . S
H110 C50 0.930 . S
H111 C54 0.953 1_455 S
H112 C54 0.959 . S
H113 C54 0.958 . S
C114 C115 1.560 . S
C114 H175 0.959 . S
C114 H176 0.959 . S
C114 H177 0.960 . S
C115 C114 1.560 . S
C115 O170 1.426 . S
C115 H174 0.980 . S
C116 C117 1.407 1_545 S
C116 C121 1.418 . S
C116 O170 1.334 . S
C117 C116 1.407 1_565 S
C117 C118 1.360 . S
C117 H178 0.929 . S
C118 C117 1.360 . S
C118 C119 1.401 1_565 S
C118 C122 1.527 . S
C119 C118 1.401 1_545 S
C119 C120 1.405 . S
C119 C152 1.587 1_545 S
C120 C119 1.405 . S
C120 C121 1.332 . S
C120 C123 1.496 . S
C121 C116 1.418 . S
C121 C120 1.332 . S
C121 H179 0.929 . S
C122 C118 1.527 . S
C122 H180 0.959 . S
C122 H181 0.961 . S
C122 H182 0.961 . S
C123 C120 1.496 . S
C123 H183 0.960 . S
C123 H184 0.960 . S
C123 H185 0.961 . S
C124 C125 1.517 . S
C124 H187 0.960 1_565 S
C124 H188 0.960 . S
C124 H189 0.959 . S
C125 C124 1.517 . S
C125 O173 1.468 . S
C125 H186 0.980 1_565 S
C126 C127 1.346 1_565 S
C126 C131 1.367 . S
C126 O173 1.408 . S
C127 C126 1.346 1_545 S
C127 C128 1.408 . S
C127 H190 0.933 . S
C128 C127 1.408 . S
C128 C129 1.449 1_545 S
C128 C132 1.535 . S
C129 C128 1.449 1_565 S
C129 C130 1.384 . S
C129 C154 1.553 . S
C130 C129 1.384 . S
C130 C131 1.364 . S
C130 C133 1.450 . S
C131 C126 1.367 . S
C131 C130 1.364 . S
C131 H191 0.931 . S
C132 C128 1.535 . S
C132 H192 0.959 . S
C132 H193 0.961 . S
C132 H194 0.959 . S
C133 C130 1.450 . S
C133 H195 0.960 . S
C133 H196 0.960 . S
C133 H197 0.960 . S
C134 C135 1.309 1_565 S
C134 C139 1.304 . S
C134 O172 1.435 . S
C135 C134 1.309 1_545 S
C135 C136 1.476 . S
C135 H199 0.930 . S
C136 C135 1.476 . S
C136 C137 1.400 1_545 S
C136 C140 1.567 . S
C137 C136 1.400 1_565 S
C137 C138 1.373 . S
C137 C159 1.432 . S
C138 C137 1.373 . S
C138 C139 1.339 . S
C138 C141 1.530 . S
C139 C134 1.304 . S
C139 C138 1.339 . S
C139 H200 0.930 . S
C140 C136 1.567 . S
C140 H201 0.961 . S
C140 H202 0.960 . S
C140 H203 0.958 . S
C141 C138 1.530 . S
C141 H204 0.961 . S
C141 H205 0.960 . S
C141 H206 0.960 . S
C142 C143 1.530 . S
C142 H208 0.961 . S
C142 H209 0.961 . S
C142 H210 0.959 . S
C143 C142 1.530 . S
C143 O171 1.412 . S
C143 H207 0.980 . S
C144 C145 1.288 . S
C144 C149 1.377 1_545 S
C144 O171 1.393 . S
C145 C144 1.288 . S
C145 C146 1.369 . S
C145 H211 0.932 . S
C146 C145 1.369 . S
C146 C147 1.398 . S
C146 C150 1.527 . S
C147 C146 1.398 . S
C147 C148 1.380 1_545 S
C147 C161 1.497 . S
C148 C147 1.380 1_565 S
C148 C149 1.383 . S
C148 C151 1.603 . S
C149 C144 1.377 1_565 S
C149 C148 1.383 . S
C149 H212 0.929 . S
C150 C146 1.527 . S
C150 H213 0.961 . S
C150 H214 0.959 . S
C150 H215 0.959 . S
C151 C148 1.603 . S
C151 H216 0.960 . S
C151 H217 0.962 . S
C151 H218 0.961 . S
C152 C119 1.587 1_565 S
C152 C153 1.360 . S
C152 C165 1.412 . S
C153 C152 1.360 . S
C153 C154 1.365 . S
C153 H219 0.929 . S
C154 C129 1.553 . S
C154 C153 1.365 . S
C154 C155 1.404 . S
C155 C154 1.404 . S
C155 C156 1.395 . S
C155 C166 1.451 . S
C156 C155 1.395 . S
C156 C157 1.322 . S
C156 H220 0.930 . S
C157 C156 1.322 . S
C157 C158 1.459 . S
C157 H221 0.929 . S
C158 C157 1.459 . S
C158 C159 1.445 . S
C158 C167 1.395 . S
C159 C137 1.432 . S
C159 C158 1.445 . S
C159 C160 1.370 . S
C160 C159 1.370 . S
C160 C161 1.438 1_565 S
C160 H222 0.932 . S
C161 C147 1.497 . S
C161 C160 1.438 1_545 S
C161 C162 1.360 1_545 S
C162 C161 1.360 1_565 S
C162 C163 1.401 1_565 S
C162 C167 1.446 . S
C163 C162 1.401 1_545 S
C163 C164 1.347 . S
C163 H223 0.929 . S
C164 C163 1.347 . S
C164 C165 1.455 1_545 S
C164 H224 0.930 . S
C165 C152 1.412 . S
C165 C164 1.455 1_565 S
C165 C166 1.331 . S
C166 C155 1.451 . S
C166 C165 1.331 . S
C166 C167 1.497 . S
C167 C158 1.395 . S
C167 C162 1.446 . S
C167 C166 1.497 . S
C168 C169 1.582 1_565 S
C168 H225 0.962 . S
C168 H226 0.959 . S
C168 H227 0.958 . S
C169 C168 1.582 1_545 S
C169 O172 1.458 1_545 S
C169 H198 0.980 . S
O170 C115 1.426 . S
O170 C116 1.334 . S
O171 C143 1.412 . S
O171 C144 1.393 . S
O172 C134 1.435 . S
O172 C169 1.458 1_565 S
O173 C125 1.468 . S
O173 C126 1.408 . S
H174 C115 0.980 . S
H175 C114 0.959 . S
H176 C114 0.959 . S
H177 C114 0.960 . S
H178 C117 0.929 . S
H179 C121 0.929 . S
H180 C122 0.959 . S
H181 C122 0.961 . S
H182 C122 0.961 . S
H183 C123 0.960 . S
H184 C123 0.960 . S
H185 C123 0.961 . S
H186 C125 0.980 1_545 S
H187 C124 0.960 1_545 S
H188 C124 0.960 . S
H189 C124 0.959 . S
H190 C127 0.933 . S
H191 C131 0.931 . S
H192 C132 0.959 . S
H193 C132 0.961 . S
H194 C132 0.959 . S
H195 C133 0.960 . S
H196 C133 0.960 . S
H197 C133 0.960 . S
H198 C169 0.980 . S
H199 C135 0.930 . S
H200 C139 0.930 . S
H201 C140 0.961 . S
H202 C140 0.960 . S
H203 C140 0.958 . S
H204 C141 0.961 . S
H205 C141 0.960 . S
H206 C141 0.960 . S
H207 C143 0.980 . S
H208 C142 0.961 . S
H209 C142 0.961 . S
H210 C142 0.959 . S
H211 C145 0.932 . S
H212 C149 0.929 . S
H213 C150 0.961 . S
H214 C150 0.959 . S
H215 C150 0.959 . S
H216 C151 0.960 . S
H217 C151 0.962 . S
H218 C151 0.961 . S
H219 C153 0.929 . S
H220 C156 0.930 . S
H221 C157 0.929 . S
H222 C160 0.932 . S
H223 C163 0.929 . S
H224 C164 0.930 . S
H225 C168 0.962 . S
H226 C168 0.959 . S
H227 C168 0.958 . S
C228 C229 1.560 . S
C228 H289 0.959 . S
C228 H290 0.959 . S
C228 H291 0.960 . S
C229 C228 1.560 . S
C229 O284 1.426 . S
C229 H288 0.980 1_556 S
C230 C231 1.407 1_556 S
C230 C235 1.418 . S
C230 O284 1.334 . S
C231 C230 1.407 1_554 S
C231 C232 1.360 . S
C231 H292 0.929 . S
C232 C231 1.360 . S
C232 C233 1.401 . S
C232 C236 1.527 . S
C233 C232 1.401 . S
C233 C234 1.405 1_554 S
C233 C266 1.587 . S
C234 C233 1.405 1_556 S
C234 C235 1.332 . S
C234 C237 1.496 . S
C235 C230 1.418 . S
C235 C234 1.332 . S
C235 H293 0.929 . S
C236 C232 1.527 . S
C236 H294 0.959 . S
C236 H295 0.961 . S
C236 H296 0.961 . S
C237 C234 1.496 . S
C237 H297 0.960 . S
C237 H298 0.960 . S
C237 H299 0.961 . S
C238 C239 1.517 . S
C238 H301 0.961 . S
C238 H302 0.960 . S
C238 H303 0.959 . S
C239 C238 1.517 . S
C239 O287 1.468 . S
C239 H300 0.980 . S
C240 C241 1.349 . S
C240 C245 1.367 . S
C240 O287 1.408 . S
C241 C240 1.349 . S
C241 C242 1.407 . S
C241 H304 0.930 . S
C242 C241 1.407 . S
C242 C243 1.449 . S
C242 C246 1.535 1_554 S
C243 C242 1.449 . S
C243 C244 1.384 . S
C243 C268 1.553 . S
C244 C243 1.384 . S
C244 C245 1.364 . S
C244 C247 1.450 . S
C245 C240 1.367 . S
C245 C244 1.364 . S
C245 H305 0.931 . S
C246 C242 1.535 1_556 S
C246 H306 0.959 . S
C246 H307 0.961 . S
C246 H308 0.959 . S
C247 C244 1.450 . S
C247 H309 0.960 . S
C247 H310 0.960 . S
C247 H311 0.960 . S
C248 C249 1.309 . S
C248 C253 1.304 . S
C248 O286 1.435 . S
C249 C248 1.309 . S
C249 C250 1.476 . S
C249 H313 0.930 1_554 S
C250 C249 1.476 . S
C250 C251 1.400 . S
C250 C254 1.567 1_554 S
C251 C250 1.400 . S
C251 C252 1.373 . S
C251 C273 1.432 . S
C252 C251 1.373 . S
C252 C253 1.339 . S
C252 C255 1.530 . S
C253 C248 1.304 . S
C253 C252 1.339 . S
C253 H314 0.930 . S
C254 C250 1.567 1_556 S
C254 H315 0.961 . S
C254 H316 0.960 . S
C254 H317 0.958 . S
C255 C252 1.530 . S
C255 H318 0.961 . S
C255 H319 0.960 . S
C255 H320 0.960 . S
C256 C257 1.530 1_556 S
C256 H322 0.961 . S
C256 H323 0.961 . S
C256 H324 0.959 . S
C257 C256 1.530 1_554 S
C257 O285 1.412 1_554 S
C257 H321 0.980 . S
C258 C259 1.288 . S
C258 C263 1.377 1_556 S
C258 O285 1.393 . S
C259 C258 1.288 . S
C259 C260 1.369 . S
C259 H325 0.932 . S
C260 C259 1.369 . S
C260 C261 1.398 1_556 S
C260 C264 1.527 . S
C261 C260 1.398 1_554 S
C261 C262 1.380 . S
C261 C275 1.497 . S
C262 C261 1.380 . S
C262 C263 1.383 . S
C262 C265 1.603 . S
C263 C258 1.377 1_554 S
C263 C262 1.383 . S
C263 H326 0.929 . S
C264 C260 1.527 . S
C264 H327 0.961 . S
C264 H328 0.959 . S
C264 H329 0.959 . S
C265 C262 1.603 . S
C265 H330 0.960 . S
C265 H331 0.962 . S
C265 H332 0.961 . S
C266 C233 1.587 . S
C266 C267 1.360 . S
C266 C279 1.412 . S
C267 C266 1.360 . S
C267 C268 1.365 . S
C267 H333 0.929 . S
C268 C243 1.553 . S
C268 C267 1.365 . S
C268 C269 1.404 . S
C269 C268 1.404 . S
C269 C270 1.395 . S
C269 C280 1.451 . S
C270 C269 1.395 . S
C270 C271 1.322 . S
C270 H334 0.930 . S
C271 C270 1.322 . S
C271 C272 1.459 . S
C271 H335 0.929 . S
C272 C271 1.459 . S
C272 C273 1.445 . S
C272 C281 1.395 . S
C273 C251 1.432 . S
C273 C272 1.445 . S
C273 C274 1.370 . S
C274 C273 1.370 . S
C274 C275 1.438 . S
C274 H336 0.930 . S
C275 C261 1.497 . S
C275 C274 1.438 . S
C275 C276 1.360 . S
C276 C275 1.360 . S
C276 C277 1.401 . S
C276 C281 1.446 . S
C277 C276 1.401 . S
C277 C278 1.347 . S
C277 H337 0.929 . S
C278 C277 1.347 . S
C278 C279 1.455 . S
C278 H338 0.930 . S
C279 C266 1.412 . S
C279 C278 1.455 . S
C279 C280 1.331 . S
C280 C269 1.451 . S
C280 C279 1.331 . S
C280 C281 1.497 . S
C281 C272 1.395 . S
C281 C276 1.446 . S
C281 C280 1.497 . S
C282 C283 1.582 . S
C282 H339 0.962 . S
C282 H340 0.959 . S
C282 H341 0.958 . S
C283 C282 1.582 . S
C283 O286 1.458 . S
C283 H312 0.980 . S
O284 C229 1.426 . S
O284 C230 1.334 . S
O285 C257 1.412 1_556 S
O285 C258 1.393 . S
O286 C248 1.435 . S
O286 C283 1.458 . S
O287 C239 1.468 . S
O287 C240 1.408 . S
H288 C229 0.980 1_554 S
H289 C228 0.959 . S
H290 C228 0.959 . S
H291 C228 0.960 . S
H292 C231 0.929 . S
H293 C235 0.929 . S
H294 C236 0.959 . S
H295 C236 0.961 . S
H296 C236 0.961 . S
H297 C237 0.960 . S
H298 C237 0.960 . S
H299 C237 0.961 . S
H300 C239 0.980 . S
H301 C238 0.961 . S
H302 C238 0.960 . S
H303 C238 0.959 . S
H304 C241 0.930 . S
H305 C245 0.931 . S
H306 C246 0.959 . S
H307 C246 0.961 . S
H308 C246 0.959 . S
H309 C247 0.960 . S
H310 C247 0.960 . S
H311 C247 0.960 . S
H312 C283 0.980 . S
H313 C249 0.930 1_556 S
H314 C253 0.930 . S
H315 C254 0.961 . S
H316 C254 0.960 . S
H317 C254 0.958 . S
H318 C255 0.961 . S
H319 C255 0.960 . S
H320 C255 0.960 . S
H321 C257 0.980 . S
H322 C256 0.961 . S
H323 C256 0.961 . S
H324 C256 0.959 . S
H325 C259 0.932 . S
H326 C263 0.929 . S
H327 C264 0.961 . S
H328 C264 0.959 . S
H329 C264 0.959 . S
H330 C265 0.960 . S
H331 C265 0.962 . S
H332 C265 0.961 . S
H333 C267 0.929 . S
H334 C270 0.930 . S
H335 C271 0.929 . S
H336 C274 0.930 . S
H337 C277 0.929 . S
H338 C278 0.930 . S
H339 C282 0.962 . S
H340 C282 0.959 . S
H341 C282 0.958 . S
Zn342 O344 1.933 1_556 S
Zn342 O362 1.985 . S
Zn342 O373 1.955 . S
Zn343 O344 1.911 . S
Zn343 O363 1.970 . S
Zn343 O379 1.945 . S
Zn343 O386 1.981 . S
O344 Zn342 1.933 1_554 S
O344 Zn343 1.911 . S
O344 H345 0.841 . S
H345 O344 0.841 . S
C346 O347 1.246 . S
C346 O375 1.276 1_455 S
O347 C346 1.246 . S
Zn348 O350 1.911 . S
Zn348 O365 1.970 . S
Zn348 O382 1.945 . S
Zn348 O389 1.981 . S
Zn349 O350 1.933 1_556 S
Zn349 O364 1.985 . S
Zn349 O371 1.955 . S
O350 Zn348 1.911 . S
O350 Zn349 1.933 1_554 S
O350 H351 0.841 1_565 S
H351 O350 0.841 1_545 S
Zn352 O353 1.933 1_556 S
Zn352 O366 1.985 . S
Zn352 O375 1.955 . S
O353 Zn352 1.933 1_554 S
O353 Zn354 1.911 . S
O353 H355 0.841 1_655 S
Zn354 O353 1.911 . S
Zn354 O367 1.970 . S
Zn354 O383 1.981 . S
Zn354 O385 1.945 . S
H355 O353 0.841 1_455 S
Zn356 O357 1.933 1_556 S
Zn356 O369 1.985 . S
Zn356 O377 1.955 . S
O357 Zn356 1.933 1_554 S
O357 H358 0.841 . S
O357 Zn359 1.911 . S
H358 O357 0.841 . S
Zn359 O357 1.911 . S
Zn359 O370 1.970 . S
Zn359 O380 1.981 . S
Zn359 O388 1.945 . S
C360 O361 1.246 1_455 S
C360 O377 1.276 . S
O361 C360 1.246 1_655 S
O362 Zn342 1.985 . S
O362 C372 1.245 1_556 S
O363 Zn343 1.970 . S
O363 C372 1.263 . S
O364 Zn349 1.985 . S
O364 C376 1.245 1_556 S
O365 Zn348 1.970 . S
O365 C376 1.263 . S
O366 Zn352 1.985 . S
O366 C381 1.245 1_556 S
O367 Zn354 1.970 . S
O367 C381 1.263 . S
C368 O379 1.262 . S
C368 O380 1.245 1_545 S
O369 Zn356 1.985 . S
O369 C387 1.245 1_556 S
O370 Zn359 1.970 . S
O370 C387 1.263 . S
O371 Zn349 1.955 . S
O371 C390 1.276 1_565 S
C372 O362 1.245 1_554 S
C372 O363 1.263 . S
O373 Zn342 1.955 . S
O373 C392 1.276 . S
C374 O382 1.262 1_545 S
C374 O383 1.245 . S
O375 C346 1.276 1_655 S
O375 Zn352 1.955 . S
C376 O364 1.245 1_554 S
C376 O365 1.263 . S
O377 Zn356 1.955 . S
O377 C360 1.276 . S
C378 O385 1.262 1_455 S
C378 O386 1.245 . S
O379 Zn343 1.945 . S
O379 C368 1.262 . S
O380 Zn359 1.981 . S
O380 C368 1.245 1_565 S
C381 O366 1.245 1_554 S
C381 O367 1.263 . S
O382 Zn348 1.945 . S
O382 C374 1.262 1_565 S
O383 Zn354 1.981 . S
O383 C374 1.245 . S
C384 O388 1.262 . S
C384 O389 1.245 1_455 S
O385 Zn354 1.945 . S
O385 C378 1.262 1_655 S
O386 Zn343 1.981 . S
O386 C378 1.245 . S
C387 O369 1.245 1_554 S
C387 O370 1.263 . S
O388 Zn359 1.945 . S
O388 C384 1.262 . S
O389 Zn348 1.981 . S
O389 C384 1.245 1_655 S
C390 O371 1.276 1_545 S
C390 O391 1.246 . S
O391 C390 1.246 . S
C392 O373 1.276 . S
C392 O393 1.246 1_545 S
O393 C392 1.246 1_565 S
H394 C400 0.930 . S
H395 C404 0.930 . S
H396 C409 0.929 . S
H397 C407 0.929 . S
H398 C402 0.929 . S
H399 C408 0.929 . S
C400 H394 0.930 . S
C400 C401 1.367 1_655 S
C400 C408 1.378 . S
C401 C400 1.367 1_455 S
C401 C409 1.433 . S
C402 H398 0.929 . S
C402 C404 1.378 . S
C402 C406 1.350 . S
C403 C406 1.463 . S
C403 C408 1.350 1_455 S
C403 N411 1.427 . S
C404 H395 0.930 . S
C404 C402 1.378 . S
C404 C405 1.367 . S
C405 C404 1.367 . S
C405 C407 1.433 1_455 S
C406 C402 1.350 . S
C406 C403 1.463 . S
C406 N410 1.427 1_455 S
C407 H397 0.929 . S
C407 C405 1.433 1_655 S
C407 N410 1.384 . S
C408 H399 0.929 . S
C408 C400 1.378 . S
C408 C403 1.350 1_655 S
C409 H396 0.929 . S
C409 C401 1.433 . S
C409 N411 1.384 . S
N410 C406 1.427 1_655 S
N410 C407 1.384 . S
N411 C403 1.427 . S
N411 C409 1.384 . S
H412 C418 0.930 . S
H413 C422 0.930 . S
H414 C427 0.929 . S
H415 C425 0.929 1_565 S
H416 C420 0.929 . S
H417 C426 0.929 . S
C418 H412 0.930 . S
C418 C419 1.367 1_565 S
C418 C426 1.378 . S
C419 C418 1.367 1_545 S
C419 C427 1.433 . S
C420 H416 0.929 . S
C420 C422 1.378 . S
C420 C424 1.350 . S
C421 C424 1.463 . S
C421 C426 1.350 1_545 S
C421 N429 1.427 . S
C422 H413 0.930 . S
C422 C420 1.378 . S
C422 C423 1.367 . S
C423 C422 1.367 . S
C423 C425 1.433 . S
C424 C420 1.350 . S
C424 C421 1.463 . S
C424 N428 1.427 . S
C425 H415 0.929 1_545 S
C425 C423 1.433 . S
C425 N428 1.384 . S
C426 H417 0.929 . S
C426 C418 1.378 . S
C426 C421 1.350 1_565 S
C427 H414 0.929 . S
C427 C419 1.433 . S
C427 N429 1.384 . S
N428 C424 1.427 . S
N428 C425 1.384 . S
N429 C421 1.427 . S
N429 C427 1.384 . S
H430 C436 0.930 . S
H431 C440 0.930 . S
H432 C445 0.929 . S
H433 C443 0.929 . S
H434 C438 0.929 . S
H435 C444 0.929 . S
C436 H430 0.930 . S
C436 C437 1.367 . S
C436 C444 1.378 . S
C437 C436 1.367 . S
C437 C445 1.433 1_455 S
C438 H434 0.929 . S
C438 C440 1.378 . S
C438 C442 1.350 1_655 S
C439 C442 1.463 . S
C439 C444 1.350 . S
C439 N447 1.427 1_455 S
C440 H431 0.930 . S
C440 C438 1.378 . S
C440 C441 1.367 1_655 S
C441 C440 1.367 1_455 S
C441 C443 1.433 . S
C442 C438 1.350 1_455 S
C442 C439 1.463 . S
C442 N446 1.427 . S
C443 H433 0.929 . S
C443 C441 1.433 . S
C443 N446 1.384 . S
C444 H435 0.929 . S
C444 C436 1.378 . S
C444 C439 1.350 . S
C445 H432 0.929 . S
C445 C437 1.433 1_655 S
C445 N447 1.384 . S
N446 C442 1.427 . S
N446 C443 1.384 . S
N447 C439 1.427 1_655 S
N447 C445 1.384 . S
H448 C454 0.930 . S
H449 C458 0.930 . S
H450 C463 0.929 . S
H451 C461 0.929 . S
H452 C456 0.929 . S
H453 C462 0.929 . S
C454 H448 0.930 . S
C454 C455 1.367 . S
C454 C462 1.378 . S
C455 C454 1.367 . S
C455 C463 1.433 1_545 S
C456 H452 0.929 . S
C456 C458 1.378 . S
C456 C460 1.350 1_565 S
C457 C460 1.463 . S
C457 C462 1.350 . S
C457 N465 1.427 1_545 S
C458 H449 0.930 . S
C458 C456 1.378 . S
C458 C459 1.367 1_565 S
C459 C458 1.367 1_545 S
C459 C461 1.433 . S
C460 C456 1.350 1_545 S
C460 C457 1.463 . S
C460 N464 1.427 . S
C461 H451 0.929 . S
C461 C459 1.433 . S
C461 N464 1.384 . S
C462 H453 0.929 . S
C462 C454 1.378 . S
C462 C457 1.350 . S
C463 H450 0.929 . S
C463 C455 1.433 1_565 S
C463 N465 1.384 . S
N464 C460 1.427 . S
N464 C461 1.384 . S
N465 C457 1.427 1_565 S
N465 C463 1.384 . S
H466 C472 0.930 . S
H467 C476 0.930 . S
H468 C481 0.929 . S
H469 C479 0.929 . S
H470 C474 0.929 . S
H471 C480 0.929 . S
C472 H466 0.930 . S
C472 C473 1.367 1_655 S
C472 C480 1.378 . S
C473 C472 1.367 1_455 S
C473 C481 1.433 . S
C474 H470 0.929 . S
C474 C476 1.378 . S
C474 C478 1.350 . S
C475 C478 1.463 . S
C475 C480 1.350 1_455 S
C475 N483 1.427 . S
C476 H467 0.930 . S
C476 C474 1.378 . S
C476 C477 1.367 . S
C477 C476 1.367 . S
C477 C479 1.433 1_455 S
C478 C474 1.350 . S
C478 C475 1.463 . S
C478 N482 1.427 1_455 S
C479 H469 0.929 . S
C479 C477 1.433 1_655 S
C479 N482 1.384 . S
C480 H471 0.929 . S
C480 C472 1.378 . S
C480 C475 1.350 1_655 S
C481 H468 0.929 . S
C481 C473 1.433 . S
C481 N483 1.384 . S
N482 C478 1.427 1_655 S
N482 C479 1.384 . S
N483 C475 1.427 . S
N483 C481 1.384 . S
H484 C490 0.930 . S
H485 C494 0.930 . S
H486 C499 0.929 . S
H487 C497 0.929 . S
H488 C492 0.929 . S
H489 C498 0.929 . S
C490 H484 0.930 . S
C490 C491 1.367 . S
C490 C498 1.378 . S
C491 C490 1.367 . S
C491 C499 1.433 1_545 S
C492 H488 0.929 . S
C492 C494 1.378 . S
C492 C496 1.368 . S
C493 C496 1.461 1_545 S
C493 C498 1.350 . S
C493 N501 1.427 1_545 S
C494 H485 0.930 . S
C494 C492 1.378 . S
C494 C495 1.367 . S
C495 C494 1.367 . S
C495 C497 1.433 1_565 S
C496 C492 1.368 . S
C496 C493 1.461 1_565 S
C496 N500 1.410 1_565 S
C497 H487 0.929 . S
C497 C495 1.433 1_545 S
C497 N500 1.384 . S
C498 H489 0.929 . S
C498 C490 1.378 . S
C498 C493 1.350 . S
C499 H486 0.929 . S
C499 C491 1.433 1_565 S
C499 N501 1.384 . S
N500 C496 1.410 1_545 S
N500 C497 1.384 . S
N501 C493 1.427 1_565 S
N501 C499 1.384 . S
H502 C508 0.930 1_655 S
H503 C512 0.930 . S
H504 C517 0.929 . S
H505 C515 0.929 1_655 S
H506 C510 0.929 . S
H507 C516 0.929 1_655 S
C508 H502 0.930 1_455 S
C508 C509 1.367 . S
C508 C516 1.378 . S
C509 C508 1.367 . S
C509 C517 1.433 . S
C510 H506 0.929 . S
C510 C512 1.378 . S
C510 C514 1.350 . S
C511 C514 1.463 . S
C511 C516 1.350 . S
C511 N519 1.427 . S
C512 H503 0.930 . S
C512 C510 1.378 . S
C512 C513 1.367 . S
C513 C512 1.367 . S
C513 C515 1.433 . S
C514 C510 1.350 . S
C514 C511 1.463 . S
C514 N518 1.427 . S
C515 H505 0.929 1_455 S
C515 C513 1.433 . S
C515 N518 1.384 . S
C516 H507 0.929 1_455 S
C516 C508 1.378 . S
C516 C511 1.350 . S
C517 H504 0.929 . S
C517 C509 1.433 . S
C517 N519 1.384 . S
N518 C514 1.427 . S
N518 C515 1.384 . S
N519 C511 1.427 . S
N519 C517 1.384 . S
H520 C526 0.930 . S
H521 C530 0.930 . S
H522 C535 0.929 . S
H523 C533 0.929 . S
H524 C528 0.929 . S
H525 C534 0.929 . S
C526 H520 0.930 . S
C526 C527 1.367 1_565 S
C526 C534 1.378 . S
C527 C526 1.367 1_545 S
C527 C535 1.433 . S
C528 H524 0.929 . S
C528 C530 1.378 . S
C528 C532 1.350 . S
C529 C532 1.463 . S
C529 C534 1.350 1_545 S
C529 N537 1.427 . S
C530 H521 0.930 . S
C530 C528 1.378 . S
C530 C531 1.367 . S
C531 C530 1.367 . S
C531 C533 1.433 1_545 S
C532 C528 1.350 . S
C532 C529 1.463 . S
C532 N536 1.427 1_545 S
C533 H523 0.929 . S
C533 C531 1.433 1_565 S
C533 N536 1.384 . S
C534 H525 0.929 . S
C534 C526 1.378 . S
C534 C529 1.350 1_565 S
C535 H522 0.929 . S
C535 C527 1.433 . S
C535 N537 1.384 . S
N536 C532 1.427 1_565 S
N536 C533 1.384 . S
N537 C529 1.427 . S
N537 C535 1.384 . S
H538 C544 0.930 . S
H539 C548 0.930 . S
H540 C553 0.929 . S
H541 C551 0.929 . S
H542 C546 0.929 . S
H543 C552 0.929 . S
C544 H538 0.930 . S
C544 C545 1.367 1_556 S
C544 C552 1.378 . S
C545 C544 1.367 1_554 S
C545 C553 1.433 . S
C546 H542 0.929 . S
C546 C548 1.378 . S
C546 C550 1.350 . S
C547 C550 1.463 . S
C547 C552 1.350 1_554 S
C547 N555 1.427 . S
C548 H539 0.930 . S
C548 C546 1.378 . S
C548 C549 1.367 . S
C549 C548 1.367 . S
C549 C551 1.433 1_554 S
C550 C546 1.350 . S
C550 C547 1.463 . S
C550 N554 1.427 1_554 S
C551 H541 0.929 . S
C551 C549 1.433 1_556 S
C551 N554 1.384 . S
C552 H543 0.929 . S
C552 C544 1.378 . S
C552 C547 1.350 1_556 S
C553 H540 0.929 . S
C553 C545 1.433 . S
C553 N555 1.384 . S
N554 C550 1.427 1_556 S
N554 C551 1.384 . S
N555 C547 1.427 . S
N555 C553 1.384 . S
H556 C562 0.930 1_556 S
H557 C566 0.930 . S
H558 C571 0.929 . S
H559 C569 0.929 . S
H560 C564 0.929 . S
H561 C570 0.936 . S
C562 H556 0.930 1_554 S
C562 C563 1.367 . S
C562 C570 1.377 1_554 S
C563 C562 1.367 . S
C563 C571 1.433 . S
C564 H560 0.929 . S
C564 C566 1.378 . S
C564 C568 1.350 . S
C565 C568 1.463 . S
C565 C570 1.343 1_554 S
C565 N573 1.427 . S
C566 H557 0.930 . S
C566 C564 1.378 . S
C566 C567 1.367 . S
C567 C566 1.367 . S
C567 C569 1.433 1_554 S
C568 C564 1.350 . S
C568 C565 1.463 . S
C568 N572 1.427 1_554 S
C569 H559 0.929 . S
C569 C567 1.433 1_556 S
C569 N572 1.384 . S
C570 H561 0.936 . S
C570 C562 1.377 1_556 S
C570 C565 1.343 1_556 S
C571 H558 0.929 . S
C571 C563 1.433 . S
C571 N573 1.384 . S
N572 C568 1.427 1_556 S
N572 C569 1.384 . S
N573 C565 1.427 . S
N573 C571 1.384 . S
H574 C580 0.930 . S
H575 C584 0.930 . S
H576 C589 0.929 . S
H577 C587 0.929 . S
H578 C582 0.929 . S
H579 C588 0.929 . S
C580 H574 0.930 . S
C580 C581 1.367 1_556 S
C580 C588 1.378 . S
C581 C580 1.367 1_554 S
C581 C589 1.433 . S
C582 H578 0.929 . S
C582 C584 1.378 . S
C582 C586 1.350 . S
C583 C586 1.463 . S
C583 C588 1.350 1_554 S
C583 N591 1.427 . S
C584 H575 0.930 . S
C584 C582 1.378 . S
C584 C585 1.367 . S
C585 C584 1.367 . S
C585 C587 1.433 1_554 S
C586 C582 1.350 . S
C586 C583 1.463 . S
C586 N590 1.427 1_554 S
C587 H577 0.929 . S
C587 C585 1.433 1_556 S
C587 N590 1.384 . S
C588 H579 0.929 . S
C588 C580 1.378 . S
C588 C583 1.350 1_556 S
C589 H576 0.929 . S
C589 C581 1.433 . S
C589 N591 1.384 . S
N590 C586 1.427 1_556 S
N590 C587 1.384 . S
N591 C583 1.427 . S
N591 C589 1.384 . S
H592 C598 0.930 . S
H593 C602 0.930 . S
H594 C607 0.929 . S
H595 C605 0.929 . S
H596 C600 0.929 . S
H597 C606 0.929 . S
C598 H592 0.930 . S
C598 C599 1.367 . S
C598 C606 1.378 . S
C599 C598 1.367 . S
C599 C607 1.433 1_554 S
C600 H596 0.929 . S
C600 C602 1.378 . S
C600 C604 1.350 1_556 S
C601 C604 1.463 . S
C601 C606 1.350 . S
C601 N609 1.427 1_554 S
C602 H593 0.930 . S
C602 C600 1.378 . S
C602 C603 1.367 1_556 S
C603 C602 1.367 1_554 S
C603 C605 1.433 . S
C604 C600 1.350 1_554 S
C604 C601 1.463 . S
C604 N608 1.427 . S
C605 H595 0.929 . S
C605 C603 1.433 . S
C605 N608 1.384 . S
C606 H597 0.929 . S
C606 C598 1.378 . S
C606 C601 1.350 . S
C607 H594 0.929 . S
C607 C599 1.433 1_556 S
C607 N609 1.384 . S
N608 C604 1.427 . S
N608 C605 1.384 . S
N609 C601 1.427 1_556 S
N609 C607 1.384 . S
C405 C378 1.650 . S
C401 C11 1.007 1_455 S
C423 C374 1.583 . S
C419 C143 1.368 . S
C441 C384 1.404 . S
C437 C1 1.122 . S
C459 C368 1.742 . S
C455 C169 1.394 . S
C473 C29 1.424 . S
C477 C360 1.599 . S
C495 C392 1.848 1_565 S
C491 C125 1.162 1_545 S
C509 C55 1.451 . S
C513 C346 1.770 . S
C527 C115 1.283 . S
C531 C390 1.604 . S
C545 C283 0.899 . S
C549 C372 1.119 . S
C563 C239 0.729 . S
C567 C387 1.146 . S
C585 C381 0.983 . S
C581 C257 0.883 . S
C603 C376 0.881 . S
C599 C229 0.817 1_554 S
