# Generated by pormake.
# Topology eea, (3,6)-cn, num edge types: 1
# Building blocks:
#     Node 0, Type 0, BuildingBlock: BELTOD_clean_linker_0, # of connection points: 3
#     Node 1, Type 0, BuildingBlock: BELTOD_clean_linker_0, # of connection points: 3
#     Node 2, Type 0, BuildingBlock: BELTOD_clean_linker_0, # of connection points: 3
#     Node 3, Type 0, BuildingBlock: BELTOD_clean_linker_0, # of connection points: 3
#     Node 4, Type 0, BuildingBlock: BELTOD_clean_linker_0, # of connection points: 3
#     Node 5, Type 0, BuildingBlock: BELTOD_clean_linker_0, # of connection points: 3
#     Node 6, Type 0, BuildingBlock: BELTOD_clean_linker_0, # of connection points: 3
#     Node 7, Type 0, BuildingBlock: BELTOD_clean_linker_0, # of connection points: 3
#     Node 8, Type 0, BuildingBlock: BELTOD_clean_linker_0, # of connection points: 3
#     Node 9, Type 0, BuildingBlock: BELTOD_clean_linker_0, # of connection points: 3
#     Node 10, Type 0, BuildingBlock: BELTOD_clean_linker_0, # of connection points: 3
#     Node 11, Type 0, BuildingBlock: BELTOD_clean_linker_0, # of connection points: 3
#     Node 12, Type 0, BuildingBlock: BELTOD_clean_linker_0, # of connection points: 3
#     Node 13, Type 0, BuildingBlock: BELTOD_clean_linker_0, # of connection points: 3
#     Node 14, Type 0, BuildingBlock: BELTOD_clean_linker_0, # of connection points: 3
#     Node 15, Type 0, BuildingBlock: BELTOD_clean_linker_0, # of connection points: 3
#     Node 16, Type 0, BuildingBlock: BELTOD_clean_linker_0, # of connection points: 3
#     Node 17, Type 0, BuildingBlock: BELTOD_clean_linker_0, # of connection points: 3
#     Node 18, Type 1, BuildingBlock: KUMBOL_clean_sbu_0, # of connection points: 6
#     Node 19, Type 1, BuildingBlock: KUMBOL_clean_sbu_0, # of connection points: 6
#     Node 20, Type 1, BuildingBlock: KUMBOL_clean_sbu_0, # of connection points: 6
#     Node 21, Type 1, BuildingBlock: KUMBOL_clean_sbu_0, # of connection points: 6
#     Node 22, Type 1, BuildingBlock: KUMBOL_clean_sbu_0, # of connection points: 6
#     Node 23, Type 1, BuildingBlock: KUMBOL_clean_sbu_0, # of connection points: 6
#     Node 24, Type 1, BuildingBlock: KUMBOL_clean_sbu_0, # of connection points: 6
#     Node 25, Type 1, BuildingBlock: KUMBOL_clean_sbu_0, # of connection points: 6
#     Node 26, Type 1, BuildingBlock: KUMBOL_clean_sbu_0, # of connection points: 6
#     Edge 27, Type (0, 1), BuildingBlock: EZIPEK_clean_linker_0, # of connection points: 2
#     Edge 28, Type (0, 1), BuildingBlock: EZIPEK_clean_linker_0, # of connection points: 2
#     Edge 29, Type (0, 1), BuildingBlock: EZIPEK_clean_linker_0, # of connection points: 2
#     Edge 30, Type (0, 1), BuildingBlock: EZIPEK_clean_linker_0, # of connection points: 2
#     Edge 31, Type (0, 1), BuildingBlock: EZIPEK_clean_linker_0, # of connection points: 2
#     Edge 32, Type (0, 1), BuildingBlock: EZIPEK_clean_linker_0, # of connection points: 2
#     Edge 33, Type (0, 1), BuildingBlock: EZIPEK_clean_linker_0, # of connection points: 2
#     Edge 34, Type (0, 1), BuildingBlock: EZIPEK_clean_linker_0, # of connection points: 2
#     Edge 35, Type (0, 1), BuildingBlock: EZIPEK_clean_linker_0, # of connection points: 2
#     Edge 36, Type (0, 1), BuildingBlock: EZIPEK_clean_linker_0, # of connection points: 2
#     Edge 37, Type (0, 1), BuildingBlock: EZIPEK_clean_linker_0, # of connection points: 2
#     Edge 38, Type (0, 1), BuildingBlock: EZIPEK_clean_linker_0, # of connection points: 2
#     Edge 39, Type (0, 1), BuildingBlock: EZIPEK_clean_linker_0, # of connection points: 2
#     Edge 40, Type (0, 1), BuildingBlock: EZIPEK_clean_linker_0, # of connection points: 2
#     Edge 41, Type (0, 1), BuildingBlock: EZIPEK_clean_linker_0, # of connection points: 2
#     Edge 42, Type (0, 1), BuildingBlock: EZIPEK_clean_linker_0, # of connection points: 2
#     Edge 43, Type (0, 1), BuildingBlock: EZIPEK_clean_linker_0, # of connection points: 2
#     Edge 44, Type (0, 1), BuildingBlock: EZIPEK_clean_linker_0, # of connection points: 2
#     Edge 45, Type (0, 1), BuildingBlock: EZIPEK_clean_linker_0, # of connection points: 2
#     Edge 46, Type (0, 1), BuildingBlock: EZIPEK_clean_linker_0, # of connection points: 2
#     Edge 47, Type (0, 1), BuildingBlock: EZIPEK_clean_linker_0, # of connection points: 2
#     Edge 48, Type (0, 1), BuildingBlock: EZIPEK_clean_linker_0, # of connection points: 2
#     Edge 49, Type (0, 1), BuildingBlock: EZIPEK_clean_linker_0, # of connection points: 2
#     Edge 50, Type (0, 1), BuildingBlock: EZIPEK_clean_linker_0, # of connection points: 2
#     Edge 51, Type (0, 1), BuildingBlock: EZIPEK_clean_linker_0, # of connection points: 2
#     Edge 52, Type (0, 1), BuildingBlock: EZIPEK_clean_linker_0, # of connection points: 2
#     Edge 53, Type (0, 1), BuildingBlock: EZIPEK_clean_linker_0, # of connection points: 2
#     Edge 54, Type (0, 1), BuildingBlock: EZIPEK_clean_linker_0, # of connection points: 2
#     Edge 55, Type (0, 1), BuildingBlock: EZIPEK_clean_linker_0, # of connection points: 2
#     Edge 56, Type (0, 1), BuildingBlock: EZIPEK_clean_linker_0, # of connection points: 2
#     Edge 57, Type (0, 1), BuildingBlock: EZIPEK_clean_linker_0, # of connection points: 2
#     Edge 58, Type (0, 1), BuildingBlock: EZIPEK_clean_linker_0, # of connection points: 2
#     Edge 59, Type (0, 1), BuildingBlock: EZIPEK_clean_linker_0, # of connection points: 2
#     Edge 60, Type (0, 1), BuildingBlock: EZIPEK_clean_linker_0, # of connection points: 2
#     Edge 61, Type (0, 1), BuildingBlock: EZIPEK_clean_linker_0, # of connection points: 2
#     Edge 62, Type (0, 1), BuildingBlock: EZIPEK_clean_linker_0, # of connection points: 2
#     Edge 63, Type (0, 1), BuildingBlock: EZIPEK_clean_linker_0, # of connection points: 2
#     Edge 64, Type (0, 1), BuildingBlock: EZIPEK_clean_linker_0, # of connection points: 2
#     Edge 65, Type (0, 1), BuildingBlock: EZIPEK_clean_linker_0, # of connection points: 2
#     Edge 66, Type (0, 1), BuildingBlock: EZIPEK_clean_linker_0, # of connection points: 2
#     Edge 67, Type (0, 1), BuildingBlock: EZIPEK_clean_linker_0, # of connection points: 2
#     Edge 68, Type (0, 1), BuildingBlock: EZIPEK_clean_linker_0, # of connection points: 2
#     Edge 69, Type (0, 1), BuildingBlock: EZIPEK_clean_linker_0, # of connection points: 2
#     Edge 70, Type (0, 1), BuildingBlock: EZIPEK_clean_linker_0, # of connection points: 2
#     Edge 71, Type (0, 1), BuildingBlock: EZIPEK_clean_linker_0, # of connection points: 2
#     Edge 72, Type (0, 1), BuildingBlock: EZIPEK_clean_linker_0, # of connection points: 2
#     Edge 73, Type (0, 1), BuildingBlock: EZIPEK_clean_linker_0, # of connection points: 2
#     Edge 74, Type (0, 1), BuildingBlock: EZIPEK_clean_linker_0, # of connection points: 2
#     Edge 75, Type (0, 1), BuildingBlock: EZIPEK_clean_linker_0, # of connection points: 2
#     Edge 76, Type (0, 1), BuildingBlock: EZIPEK_clean_linker_0, # of connection points: 2
#     Edge 77, Type (0, 1), BuildingBlock: EZIPEK_clean_linker_0, # of connection points: 2
#     Edge 78, Type (0, 1), BuildingBlock: EZIPEK_clean_linker_0, # of connection points: 2
#     Edge 79, Type (0, 1), BuildingBlock: EZIPEK_clean_linker_0, # of connection points: 2
#     Edge 80, Type (0, 1), BuildingBlock: EZIPEK_clean_linker_0, # of connection points: 2
# Relax obj value: 0.007
# Max RMSD: 0.089
# Mean RMSD: 0.079
data_MOF--net-eea--node1-KUMBOL_clean_sbu_0--node2-BELTOD_clean_linker_0--edge1-EZIPEK_clean_linker_0
_symmetry_space_group_name_H-M    P1
_symmetry_Int_Tables_number       1
_symmetry_cell_setting            triclinic
loop_
_symmetry_equiv_pos_as_xyz
'x, y, z'
_cell_length_a     44.458126
_cell_length_b     45.327354
_cell_length_c     65.994219
_cell_angle_alpha  90.706202
_cell_angle_beta   90.129578
_cell_angle_gamma 120.07206
loop_
_atom_site_label
_atom_site_type_symbol
_atom_site_fract_x
_atom_site_fract_y
_atom_site_fract_z
_atom_type_partial_charge
P0 P 0.30375 0.15011 0.4087 0.0
H1 H 0.32181 0.11799 0.37579 0.0
H2 H 0.2932 0.05928 0.36218 0.0
H3 H 0.21301 0.02906 0.40704 0.0
H4 H 0.24214 0.08736 0.42104 0.0
H5 H 0.32481 0.22142 0.4031 0.0
H6 H 0.29532 0.24988 0.38855 0.0
H7 H 0.20446 0.15211 0.37607 0.0
H8 H 0.23349 0.12361 0.39087 0.0
H9 H 0.32189 0.11516 0.43887 0.0
H10 H 0.28808 0.18936 0.43868 0.0
O11 O 0.34506 0.17131 0.40126 0.0
H12 H 0.33049 0.12248 0.47578 0.0
H13 H 0.29713 0.19687 0.47539 0.0
C14 C 0.28425 0.10679 0.39956 0.0
C15 C 0.29831 0.09863 0.38284 0.0
C16 C 0.28194 0.06531 0.37499 0.0
C17 C 0.25086 0.04006 0.38349 0.0
C18 C 0.23687 0.04832 0.40022 0.0
C19 C 0.25356 0.08142 0.40827 0.0
C20 C 0.28157 0.17041 0.39793 0.0
C21 C 0.29859 0.20608 0.3972 0.0
C22 C 0.28184 0.22228 0.38892 0.0
C23 C 0.24784 0.20299 0.38121 0.0
C24 C 0.23073 0.16732 0.38193 0.0
C25 C 0.2474 0.15112 0.3904 0.0
C26 C 0.30415 0.15152 0.436 0.0
C27 C 0.31569 0.13249 0.44677 0.0
C28 C 0.32065 0.13666 0.46777 0.0
C29 C 0.31455 0.16029 0.47819 0.0
C30 C 0.30191 0.1785 0.46754 0.0
C31 C 0.2968 0.1742 0.44657 0.0
P32 P 0.9118 0.10723 0.42763 0.0
H33 H 0.90805 0.05322 0.40172 0.0
H34 H 0.8602 0.00593 0.38289 0.0
H35 H 0.79152 0.04289 0.4006 0.0
H36 H 0.83945 0.09021 0.41971 0.0
H37 H 0.98285 0.16077 0.43482 0.0
H38 H 0.02625 0.20517 0.4132 0.0
H39 H 0.94909 0.17753 0.36599 0.0
H40 H 0.90543 0.13265 0.38764 0.0
H41 H 0.88416 0.07398 0.46583 0.0
H42 H 0.9028 0.16635 0.43682 0.0
O43 O 0.93477 0.09026 0.43668 0.0
H44 H 0.86308 0.08978 0.49604 0.0
H45 H 0.88133 0.18205 0.46713 0.0
C46 C 0.87704 0.07469 0.41245 0.0
C47 C 0.88276 0.05128 0.40151 0.0
C48 C 0.85559 0.02443 0.39071 0.0
C49 C 0.82243 0.02095 0.39046 0.0
C50 C 0.81701 0.04527 0.40066 0.0
C51 C 0.84424 0.07208 0.41159 0.0
C52 C 0.94117 0.14312 0.4127 0.0
C53 C 0.97509 0.16447 0.41993 0.0
C54 C 0.9998 0.18975 0.40762 0.0
C55 C 0.99085 0.19428 0.38798 0.0
C56 C 0.95639 0.1742 0.38109 0.0
C57 C 0.93161 0.14866 0.39343 0.0
C58 C 0.89548 0.11923 0.44925 0.0
C59 C 0.88377 0.09768 0.46599 0.0
C60 C 0.87177 0.10665 0.4832 0.0
C61 C 0.87096 0.13717 0.48382 0.0
C62 C 0.88206 0.15852 0.46692 0.0
C63 C 0.89423 0.14956 0.44968 0.0
P64 P 0.86326 0.72979 0.40772 0.0
H65 H 0.82712 0.71964 0.36918 0.0
H66 H 0.78791 0.73855 0.35626 0.0
H67 H 0.80926 0.80277 0.40927 0.0
H68 H 0.84964 0.78473 0.42192 0.0
H69 H 0.90574 0.70048 0.39531 0.0
H70 H 0.96482 0.72423 0.38453 0.0
H71 H 0.97748 0.825 0.38825 0.0
H72 H 0.9182 0.80068 0.39938 0.0
H73 H 0.81428 0.72943 0.43827 0.0
H74 H 0.90386 0.71622 0.43725 0.0
O75 O 0.84259 0.6897 0.39887 0.0
H76 H 0.80601 0.71468 0.47407 0.0
H77 H 0.89369 0.69861 0.47264 0.0
C78 C 0.84027 0.74967 0.39694 0.0
C79 C 0.82378 0.7381 0.37797 0.0
C80 C 0.80133 0.74883 0.37058 0.0
C81 C 0.79488 0.77131 0.38205 0.0
C82 C 0.81338 0.78491 0.40034 0.0
C83 C 0.83632 0.77453 0.40759 0.0
C84 C 0.9078 0.74884 0.39917 0.0
C85 C 0.92175 0.72794 0.39462 0.0
C86 C 0.95656 0.742 0.38907 0.0
C87 C 0.97967 0.77771 0.38922 0.0
C88 C 0.96382 0.79814 0.39132 0.0
C89 C 0.92885 0.78404 0.39698 0.0
C90 C 0.86075 0.7256 0.43507 0.0
C91 C 0.833 0.72464 0.44579 0.0
C92 C 0.82787 0.71563 0.46625 0.0
C93 C 0.84915 0.70541 0.47612 0.0
C94 C 0.87706 0.70661 0.46546 0.0
C95 C 0.88292 0.71681 0.44522 0.0
P96 P 0.13773 0.26812 0.60885 0.0
H97 H 0.10438 0.2978 0.63338 0.0
H98 H 0.04497 0.27506 0.6457 0.0
H99 H 0.0154 0.17779 0.61761 0.0
H100 H 0.07512 0.20062 0.60512 0.0
H101 H 0.1746 0.27543 0.64666 0.0
H102 H 0.20813 0.24979 0.65919 0.0
H103 H 0.17856 0.18461 0.60604 0.0
H104 H 0.14413 0.20972 0.59369 0.0
H105 H 0.09251 0.27477 0.57921 0.0
H106 H 0.18712 0.27015 0.57863 0.0
O107 O 0.16129 0.30841 0.61711 0.0
H108 H 0.1 0.28929 0.54324 0.0
H109 H 0.19372 0.28323 0.54244 0.0
C110 C 0.09419 0.25081 0.61839 0.0
C111 C 0.08528 0.27154 0.62989 0.0
C112 C 0.0514 0.25864 0.63694 0.0
C113 C 0.02593 0.22481 0.63258 0.0
C114 C 0.03483 0.20396 0.62116 0.0
C115 C 0.06877 0.21693 0.61406 0.0
C116 C 0.15784 0.24526 0.61894 0.0
C117 C 0.17494 0.25535 0.63778 0.0
C118 C 0.19398 0.2407 0.64497 0.0
C119 C 0.19619 0.21568 0.6334 0.0
C120 C 0.17734 0.20407 0.6151 0.0
C121 C 0.1579 0.21851 0.60802 0.0
C122 C 0.13866 0.27029 0.58155 0.0
C123 C 0.11418 0.27562 0.57124 0.0
C124 C 0.1185 0.28405 0.55072 0.0
C125 C 0.14742 0.28734 0.5402 0.0
C126 C 0.17115 0.28062 0.55028 0.0
C127 C 0.16715 0.27283 0.57089 0.0
P128 P 0.80345 0.89934 0.58429 0.0
H129 H 0.85409 0.97089 0.59226 0.0
H130 H 0.85216 0.01529 0.61246 0.0
H131 H 0.74751 0.94349 0.6306 0.0
H132 H 0.74876 0.89915 0.60937 0.0
H133 H 0.85433 0.87955 0.59448 0.0
H134 H 0.85253 0.83503 0.61551 0.0
H135 H 0.74593 0.80123 0.63066 0.0
H136 H 0.74775 0.84668 0.60967 0.0
H137 H 0.79639 0.93516 0.55068 0.0
H138 H 0.74061 0.83276 0.57364 0.0
O139 O 0.84174 0.91725 0.5726 0.0
H140 H 0.75626 0.91741 0.52172 0.0
H141 H 0.69949 0.81555 0.54519 0.0
C142 C 0.80167 0.9316 0.59946 0.0
C143 C 0.83058 0.96456 0.60043 0.0
C144 C 0.82952 0.98995 0.61197 0.0
C145 C 0.79969 0.9827 0.62301 0.0
C146 C 0.77072 0.9496 0.62215 0.0
C147 C 0.77157 0.92429 0.6102 0.0
C148 C 0.80098 0.86615 0.60014 0.0
C149 C 0.83046 0.86278 0.60224 0.0
C150 C 0.82954 0.83745 0.61433 0.0
C151 C 0.79912 0.81497 0.62454 0.0
C152 C 0.76962 0.81849 0.62286 0.0
C153 C 0.7707 0.84429 0.61085 0.0
C154 C 0.77139 0.88543 0.56441 0.0
C155 C 0.77526 0.90901 0.54965 0.0
C156 C 0.75247 0.89894 0.53315 0.0
C157 C 0.72504 0.86522 0.53138 0.0
C158 C 0.72059 0.84169 0.54638 0.0
C159 C 0.74392 0.85165 0.56271 0.0
P160 P 0.14073 0.84883 0.60612 0.0
H161 H 0.21062 0.88998 0.62331 0.0
H162 H 0.24249 0.94836 0.63703 0.0
H163 H 0.15434 0.96084 0.62435 0.0
H164 H 0.12259 0.9026 0.61028 0.0
H165 H 0.11188 0.80316 0.6405 0.0
H166 H 0.05298 0.77138 0.65439 0.0
H167 H 0.0172 0.8164 0.61017 0.0
H168 H 0.07588 0.84769 0.59599 0.0
H169 H 0.18803 0.89511 0.57556 0.0
H170 H 0.09183 0.79893 0.57666 0.0
O171 O 0.16152 0.82838 0.61299 0.0
H172 H 0.19101 0.88889 0.53869 0.0
H173 H 0.09473 0.79304 0.53986 0.0
C174 C 0.16404 0.89177 0.61605 0.0
C175 C 0.19803 0.90514 0.62353 0.0
C176 C 0.21621 0.93839 0.63139 0.0
C177 C 0.20061 0.9587 0.63184 0.0
C178 C 0.16665 0.94539 0.62425 0.0
C179 C 0.14858 0.9122 0.61625 0.0
C180 C 0.09801 0.82723 0.61698 0.0
C181 C 0.09143 0.80636 0.63384 0.0
C182 C 0.05802 0.78852 0.64191 0.0
C183 C 0.03102 0.79183 0.63336 0.0
C184 C 0.03793 0.81386 0.61704 0.0
C185 C 0.07126 0.83147 0.60889 0.0
C186 C 0.13927 0.84789 0.57882 0.0
C187 C 0.16705 0.87321 0.56785 0.0
C188 C 0.16885 0.86968 0.54686 0.0
C189 C 0.14298 0.84062 0.53665 0.0
C190 C 0.11472 0.81578 0.54751 0.0
C191 C 0.11302 0.81924 0.56848 0.0
P192 P 0.96973 0.48561 0.74391 0.0
H193 H 0.9907 0.45232 0.71309 0.0
H194 H 0.96274 0.39334 0.69997 0.0
H195 H 0.87688 0.36544 0.74045 0.0
H196 H 0.9051 0.42413 0.75387 0.0
H197 H 0.98531 0.55623 0.74614 0.0
H198 H 0.95689 0.58581 0.73176 0.0
H199 H 0.88055 0.49219 0.70246 0.0
H200 H 0.90744 0.46218 0.71776 0.0
H201 H 0.98588 0.44716 0.77254 0.0
H202 H 0.95514 0.52363 0.77571 0.0
O203 O 0.01105 0.50689 0.73652 0.0
H204 H 0.99552 0.45227 0.80937 0.0
H205 H 0.96651 0.52983 0.81209 0.0
C206 C 0.95002 0.44238 0.73455 0.0
C207 C 0.96599 0.43347 0.71924 0.0
C208 C 0.95007 0.39996 0.71171 0.0
C209 C 0.91775 0.37526 0.7192 0.0
C210 C 0.9018 0.38427 0.73448 0.0
C211 C 0.91789 0.4176 0.74215 0.0
C212 C 0.94808 0.50679 0.73353 0.0
C213 C 0.96198 0.54187 0.73701 0.0
C214 C 0.94593 0.55878 0.72874 0.0
C215 C 0.91647 0.54111 0.71619 0.0
C216 C 0.903 0.50617 0.71231 0.0
C217 C 0.91846 0.48907 0.72109 0.0
C218 C 0.97011 0.48522 0.77122 0.0
C219 C 0.98072 0.46466 0.78111 0.0
C220 C 0.98629 0.46757 0.80207 0.0
C221 C 0.98223 0.4918 0.81329 0.0
C222 C 0.97005 0.5112 0.80359 0.0
C223 C 0.96384 0.5078 0.78272 0.0
P224 P 0.58087 0.44286 0.76151 0.0
H225 H 0.57765 0.3856 0.73922 0.0
H226 H 0.53072 0.33716 0.72066 0.0
H227 H 0.46222 0.37687 0.73256 0.0
H228 H 0.50952 0.42584 0.75096 0.0
H229 H 0.63089 0.44729 0.73222 0.0
H230 H 0.67411 0.49383 0.71187 0.0
H231 H 0.63445 0.55839 0.73257 0.0
H232 H 0.58827 0.51025 0.75089 0.0
H233 H 0.52509 0.40177 0.78905 0.0
H234 H 0.60213 0.50816 0.78366 0.0
O235 O 0.60544 0.42824 0.77133 0.0
H236 H 0.50387 0.41489 0.82011 0.0
H237 H 0.57821 0.52173 0.81324 0.0
C238 C 0.5467 0.40873 0.7469 0.0
C239 C 0.55262 0.38403 0.73779 0.0
C240 C 0.52597 0.35651 0.72715 0.0
C241 C 0.49307 0.35344 0.72541 0.0
C242 C 0.48748 0.37887 0.73383 0.0
C243 C 0.51432 0.4066 0.74438 0.0
C244 C 0.60792 0.47606 0.7442 0.0
C245 C 0.63088 0.47117 0.73202 0.0
C246 C 0.65542 0.49765 0.72031 0.0
C247 C 0.6581 0.52985 0.72111 0.0
C248 C 0.63316 0.53389 0.73194 0.0
C249 C 0.60741 0.50668 0.74287 0.0
C250 C 0.56359 0.45424 0.78305 0.0
C251 C 0.53656 0.42812 0.79402 0.0
C252 C 0.52454 0.43554 0.8118 0.0
C253 C 0.53887 0.46938 0.81873 0.0
C254 C 0.56629 0.49551 0.80793 0.0
C255 C 0.57937 0.48782 0.79067 0.0
P256 P 0.5302 0.05925 0.7377 0.0
H257 H 0.48231 0.0405 0.70313 0.0
H258 H 0.44641 0.06342 0.69032 0.0
H259 H 0.4895 0.14261 0.73632 0.0
H260 H 0.52558 0.1197 0.74918 0.0
H261 H 0.59374 0.06564 0.75549 0.0
H262 H 0.65344 0.09104 0.74302 0.0
H263 H 0.62461 0.1263 0.69005 0.0
H264 H 0.56504 0.10153 0.70268 0.0
H265 H 0.47998 0.00312 0.76204 0.0
H266 H 0.56689 0.10417 0.77308 0.0
O267 O 0.51429 0.02035 0.72744 0.0
H268 H 0.47347 0.99334 0.79857 0.0
H269 H 0.56025 0.09423 0.80991 0.0
C270 C 0.50602 0.07796 0.72742 0.0
C271 C 0.48436 0.06298 0.71038 0.0
C272 C 0.46415 0.07623 0.7029 0.0
C273 C 0.46549 0.10477 0.7123 0.0
C274 C 0.48836 0.1207 0.72877 0.0
C275 C 0.50863 0.10746 0.73623 0.0
C276 C 0.57517 0.08272 0.73039 0.0
C277 C 0.60041 0.07968 0.7415 0.0
C278 C 0.63436 0.09385 0.7343 0.0
C279 C 0.64336 0.11064 0.71568 0.0
C280 C 0.61817 0.11368 0.70454 0.0
C281 C 0.58429 0.09976 0.71184 0.0
C282 C 0.52443 0.05407 0.7648 0.0
C283 C 0.49765 0.02324 0.7723 0.0
C284 C 0.49386 0.01765 0.79314 0.0
C285 C 0.51662 0.04289 0.80688 0.0
C286 C 0.54264 0.07435 0.79949 0.0
C287 C 0.54641 0.07997 0.77853 0.0
P288 P 0.80122 0.60185 0.94198 0.0
H289 H 0.78092 0.61581 0.98132 0.0
H290 H 0.72418 0.59713 0.99701 0.0
H291 H 0.67327 0.52982 0.94594 0.0
H292 H 0.73003 0.54773 0.93052 0.0
H293 H 0.84547 0.617 0.97776 0.0
H294 H 0.88195 0.5944 0.99015 0.0
H295 H 0.84613 0.52162 0.9405 0.0
H296 H 0.80835 0.54315 0.92867 0.0
H297 H 0.75444 0.60791 0.91307 0.0
H298 H 0.84708 0.60086 0.91041 0.0
O299 O 0.8235 0.6432 0.94825 0.0
H300 H 0.75501 0.61347 0.87712 0.0
H301 H 0.84767 0.60513 0.87419 0.0
C302 C 0.75961 0.58407 0.95441 0.0
C303 C 0.75759 0.59667 0.97361 0.0
C304 C 0.7253 0.58589 0.98265 0.0
C305 C 0.69455 0.56248 0.9725 0.0
C306 C 0.69673 0.54814 0.95393 0.0
C307 C 0.72907 0.55858 0.94504 0.0
C308 C 0.82512 0.58254 0.95189 0.0
C309 C 0.84524 0.59601 0.96961 0.0
C310 C 0.86605 0.58316 0.97668 0.0
C311 C 0.86733 0.55683 0.96601 0.0
C312 C 0.84589 0.54226 0.94881 0.0
C313 C 0.82448 0.55464 0.94201 0.0
C314 C 0.79868 0.60047 0.91451 0.0
C315 C 0.77359 0.60505 0.90449 0.0
C316 C 0.77367 0.60754 0.88332 0.0
C317 C 0.79829 0.60436 0.87124 0.0
C318 C 0.82535 0.60316 0.88193 0.0
C319 C 0.82539 0.60103 0.90306 0.0
P320 P 0.47185 0.23487 0.91908 0.0
H321 H 0.5202 0.28662 0.94703 0.0
H322 H 0.51814 0.33184 0.96669 0.0
H323 H 0.4133 0.29537 0.94556 0.0
H324 H 0.41529 0.24998 0.9258 0.0
H325 H 0.5247 0.2191 0.93202 0.0
H326 H 0.52333 0.17519 0.95355 0.0
H327 H 0.41405 0.13539 0.96414 0.0
H328 H 0.41595 0.18124 0.94348 0.0
H329 H 0.4682 0.26918 0.88347 0.0
H330 H 0.40806 0.16866 0.90852 0.0
O331 O 0.51115 0.25501 0.90859 0.0
H332 H 0.42841 0.25133 0.85431 0.0
H333 H 0.36739 0.15146 0.87986 0.0
C334 C 0.46822 0.26558 0.93466 0.0
C335 C 0.49669 0.2882 0.94672 0.0
C336 C 0.49549 0.31382 0.95797 0.0
C337 C 0.46564 0.31683 0.95744 0.0
C338 C 0.43649 0.29325 0.9461 0.0
C339 C 0.43774 0.26759 0.93477 0.0
C340 C 0.46999 0.2024 0.93532 0.0
C341 C 0.50038 0.20116 0.93898 0.0
C342 C 0.49974 0.17631 0.95145 0.0
C343 C 0.46854 0.1519 0.96028 0.0
C344 C 0.43835 0.15398 0.95742 0.0
C345 C 0.4393 0.17965 0.94534 0.0
C346 C 0.44117 0.22038 0.89826 0.0
C347 C 0.44637 0.24336 0.88279 0.0
C348 C 0.42371 0.23325 0.86619 0.0
C349 C 0.39501 0.20011 0.86498 0.0
C350 C 0.38944 0.17716 0.88057 0.0
C351 C 0.41258 0.18712 0.89703 0.0
P352 P 0.8025 0.18376 0.9421 0.0
H353 H 0.86059 0.21955 0.97078 0.0
H354 H 0.89263 0.27875 0.98332 0.0
H355 H 0.82701 0.30259 0.9471 0.0
H356 H 0.7948 0.2432 0.9345 0.0
H357 H 0.78043 0.1569 0.98243 0.0
H358 H 0.72307 0.12317 0.99793 0.0
H359 H 0.67427 0.12941 0.94286 0.0
H360 H 0.73169 0.16451 0.92769 0.0
H361 H 0.84515 0.23123 0.91026 0.0
H362 H 0.75854 0.1285 0.91378 0.0
O363 O 0.82383 0.16412 0.94949 0.0
H364 H 0.84738 0.22398 0.87344 0.0
H365 H 0.7604 0.12168 0.877 0.0
C366 C 0.82566 0.22716 0.95146 0.0
C367 C 0.85304 0.23744 0.96549 0.0
C368 C 0.87125 0.27113 0.97273 0.0
C369 C 0.86214 0.29491 0.96612 0.0
C370 C 0.83433 0.2845 0.95237 0.0
C371 C 0.81609 0.25076 0.94515 0.0
C372 C 0.76024 0.16212 0.95367 0.0
C373 C 0.75741 0.15129 0.97375 0.0
C374 C 0.72478 0.13215 0.98261 0.0
C375 C 0.69446 0.12321 0.97138 0.0
C376 C 0.69737 0.13566 0.95166 0.0
C377 C 0.73011 0.15542 0.94296 0.0
C378 C 0.80076 0.18087 0.91474 0.0
C379 C 0.82594 0.20754 0.90312 0.0
C380 C 0.82739 0.20341 0.88213 0.0
C381 C 0.80377 0.17246 0.87256 0.0
C382 C 0.7785 0.1459 0.88413 0.0
C383 C 0.77729 0.14993 0.90509 0.0
P384 P 0.63837 0.82001 0.07257 0.0
H385 H 0.64922 0.78477 0.03846 0.0
H386 H 0.61814 0.72498 0.02675 0.0
H387 H 0.54738 0.69923 0.07674 0.0
H388 H 0.57904 0.75874 0.08879 0.0
H389 H 0.66267 0.88966 0.05977 0.0
H390 H 0.63277 0.91746 0.0448 0.0
H391 H 0.5351 0.82321 0.04804 0.0
H392 H 0.56475 0.79541 0.06306 0.0
H393 H 0.68195 0.81003 0.10096 0.0
H394 H 0.60179 0.83709 0.10401 0.0
O395 O 0.67868 0.83929 0.06346 0.0
H396 H 0.68982 0.81723 0.1378 0.0
H397 H 0.6096 0.84409 0.14108 0.0
C398 C 0.61672 0.77596 0.06467 0.0
C399 C 0.62727 0.76619 0.04703 0.0
C400 C 0.60947 0.73224 0.04027 0.0
C401 C 0.58042 0.70788 0.05083 0.0
C402 C 0.56971 0.71777 0.06838 0.0
C403 C 0.58785 0.75158 0.0753 0.0
C404 C 0.61606 0.84033 0.06215 0.0
C405 C 0.63487 0.87491 0.05716 0.0
C406 C 0.61792 0.89072 0.04858 0.0
C407 C 0.58193 0.87215 0.0451 0.0
C408 C 0.56299 0.83771 0.05041 0.0
C409 C 0.57994 0.82193 0.059 0.0
C410 C 0.64181 0.82364 0.09975 0.0
C411 C 0.66603 0.81747 0.10956 0.0
C412 C 0.67049 0.82152 0.13053 0.0
C413 C 0.6506 0.83159 0.14202 0.0
C414 C 0.62539 0.83662 0.13235 0.0
C415 C 0.62101 0.83267 0.11126 0.0
P416 P 0.24608 0.77359 0.09626 0.0
H417 H 0.24214 0.72049 0.06938 0.0
H418 H 0.19392 0.67354 0.05053 0.0
H419 H 0.12554 0.71003 0.06972 0.0
H420 H 0.17378 0.75697 0.08879 0.0
H421 H 0.31724 0.82658 0.10388 0.0
H422 H 0.36085 0.87162 0.08268 0.0
H423 H 0.28369 0.84645 0.03578 0.0
H424 H 0.23983 0.80097 0.05701 0.0
H425 H 0.22047 0.74089 0.13486 0.0
H426 H 0.23366 0.83061 0.10486 0.0
O427 O 0.26883 0.75623 0.10507 0.0
H428 H 0.19672 0.75502 0.16452 0.0
H429 H 0.20957 0.84463 0.13462 0.0
C430 C 0.21129 0.74168 0.08081 0.0
C431 C 0.21685 0.71854 0.06946 0.0
C432 C 0.18946 0.69188 0.05866 0.0
C433 C 0.15627 0.68833 0.05887 0.0
C434 C 0.15104 0.71245 0.06943 0.0
C435 C 0.17847 0.73906 0.08035 0.0
C436 C 0.27558 0.81008 0.08184 0.0
C437 C 0.30951 0.83102 0.08917 0.0
C438 C 0.33432 0.85672 0.07714 0.0
C439 C 0.32541 0.86208 0.05769 0.0
C440 C 0.2909 0.84257 0.05078 0.0
C441 C 0.26603 0.81662 0.06284 0.0
C442 C 0.22934 0.78503 0.11786 0.0
C443 C 0.21849 0.76375 0.13472 0.0
C444 C 0.20493 0.77173 0.1516 0.0
C445 C 0.20168 0.80093 0.15173 0.0
C446 C 0.21217 0.82212 0.13477 0.0
C447 C 0.22588 0.81414 0.11786 0.0
P448 P 0.19618 0.39763 0.07319 0.0
H449 H 0.16064 0.38519 0.03405 0.0
H450 H 0.12256 0.40455 0.01959 0.0
H451 H 0.14321 0.4709 0.07149 0.0
H452 H 0.18236 0.45263 0.08554 0.0
H453 H 0.24771 0.37623 0.07714 0.0
H454 H 0.30791 0.4008 0.06635 0.0
H455 H 0.29974 0.47913 0.03452 0.0
H456 H 0.24083 0.45716 0.04776 0.0
H457 H 0.14202 0.39202 0.10099 0.0
H458 H 0.24292 0.4006 0.10652 0.0
O459 O 0.17566 0.35665 0.06605 0.0
H460 H 0.13287 0.38052 0.13724 0.0
H461 H 0.23169 0.38471 0.14176 0.0
C462 C 0.17323 0.41648 0.06126 0.0
C463 C 0.15741 0.4043 0.04218 0.0
C464 C 0.13582 0.41539 0.03387 0.0
C465 C 0.12942 0.43849 0.04472 0.0
C466 C 0.14739 0.45262 0.06305 0.0
C467 C 0.16953 0.44204 0.07113 0.0
C468 C 0.24019 0.41568 0.0641 0.0
C469 C 0.2592 0.39947 0.0685 0.0
C470 C 0.29341 0.41313 0.06201 0.0
C471 C 0.30858 0.44196 0.04966 0.0
C472 C 0.2888 0.45711 0.04423 0.0
C473 C 0.25514 0.44454 0.05178 0.0
C474 C 0.19332 0.39749 0.10066 0.0
C475 C 0.16257 0.39218 0.10989 0.0
C476 C 0.15709 0.38514 0.1306 0.0
C477 C 0.18123 0.38097 0.14219 0.0
C478 C 0.21249 0.38748 0.13316 0.0
C479 C 0.21871 0.39625 0.11276 0.0
P480 P 0.47041 0.93778 0.27374 0.0
H481 H 0.4469 0.95335 0.31168 0.0
H482 H 0.38911 0.93267 0.32634 0.0
H483 H 0.34302 0.86043 0.27684 0.0
H484 H 0.40091 0.88116 0.26211 0.0
H485 H 0.53701 0.94562 0.26105 0.0
H486 H 0.57283 0.92259 0.27368 0.0
H487 H 0.49716 0.86846 0.31988 0.0
H488 H 0.46022 0.88977 0.30644 0.0
H489 H 0.44511 0.97294 0.24854 0.0
H490 H 0.48805 0.90724 0.23844 0.0
O491 O 0.49301 0.97826 0.28178 0.0
H492 H 0.4479 0.98383 0.21208 0.0
H493 H 0.49233 0.91951 0.20206 0.0
C494 C 0.42813 0.91933 0.28554 0.0
C495 C 0.42445 0.93276 0.30408 0.0
C496 C 0.39155 0.92076 0.31259 0.0
C497 C 0.3618 0.89494 0.30274 0.0
C498 C 0.36569 0.88024 0.28475 0.0
C499 C 0.39865 0.89223 0.27626 0.0
C500 C 0.49508 0.9182 0.28212 0.0
C501 C 0.5275 0.92792 0.27347 0.0
C502 C 0.54823 0.91522 0.28089 0.0
C503 C 0.53763 0.89362 0.29767 0.0
C504 C 0.50573 0.88482 0.30681 0.0
C505 C 0.48453 0.89683 0.29901 0.0
C506 C 0.46699 0.93983 0.2464 0.0
C507 C 0.45483 0.96058 0.2385 0.0
C508 C 0.4565 0.96689 0.2177 0.0
C509 C 0.47058 0.95272 0.20436 0.0
C510 C 0.48151 0.93082 0.21209 0.0
C511 C 0.47926 0.92403 0.23293 0.0
P512 P 0.13507 0.56163 0.25211 0.0
H513 H 0.18526 0.61182 0.28026 0.0
H514 H 0.18666 0.65905 0.29968 0.0
H515 H 0.08512 0.63141 0.27625 0.0
H516 H 0.08361 0.58406 0.25679 0.0
H517 H 0.13789 0.50038 0.2436 0.0
H518 H 0.13463 0.45558 0.26546 0.0
H519 H 0.1086 0.49898 0.31629 0.0
H520 H 0.11162 0.54381 0.29441 0.0
H521 H 0.14309 0.59064 0.21218 0.0
H522 H 0.06292 0.50669 0.24536 0.0
O523 O 0.17521 0.5767 0.24327 0.0
H524 H 0.10402 0.57471 0.18268 0.0
H525 H 0.02379 0.49081 0.21576 0.0
C526 C 0.13471 0.59505 0.26678 0.0
C527 C 0.16329 0.61589 0.27931 0.0
C528 C 0.16403 0.64261 0.29045 0.0
C529 C 0.13603 0.64855 0.28929 0.0
C530 C 0.10688 0.62702 0.27728 0.0
C531 C 0.10616 0.60023 0.26612 0.0
C532 C 0.12555 0.52561 0.26745 0.0
C533 C 0.13071 0.49985 0.25933 0.0
C534 C 0.12873 0.4743 0.27174 0.0
C535 C 0.1214 0.47417 0.2924 0.0
C536 C 0.11407 0.4987 0.30032 0.0
C537 C 0.11605 0.52434 0.28785 0.0
C538 C 0.10604 0.54943 0.23073 0.0
C539 C 0.11719 0.56869 0.21306 0.0
C540 C 0.09499 0.55969 0.19629 0.0
C541 C 0.06129 0.5315 0.19711 0.0
C542 C 0.04988 0.51249 0.21491 0.0
C543 C 0.07215 0.52151 0.2317 0.0
P544 P 0.4741 0.51701 0.27522 0.0
H545 H 0.52773 0.55145 0.30652 0.0
H546 H 0.55801 0.6102 0.31993 0.0
H547 H 0.49792 0.63555 0.27981 0.0
H548 H 0.46766 0.57673 0.26627 0.0
H549 H 0.44739 0.47003 0.30904 0.0
H550 H 0.38956 0.43761 0.32409 0.0
H551 H 0.3502 0.4827 0.28219 0.0
H552 H 0.40823 0.51524 0.26703 0.0
H553 H 0.52174 0.56236 0.24457 0.0
H554 H 0.4246 0.46714 0.24575 0.0
O555 O 0.49667 0.49828 0.28193 0.0
H556 H 0.52502 0.55556 0.20781 0.0
H557 H 0.42792 0.46053 0.209 0.0
C558 C 0.49595 0.56001 0.28513 0.0
C559 C 0.52108 0.56962 0.30056 0.0
C560 C 0.53822 0.603 0.3083 0.0
C561 C 0.53012 0.62705 0.30085 0.0
C562 C 0.5044 0.61723 0.28574 0.0
C563 C 0.48731 0.58383 0.27798 0.0
C564 C 0.43181 0.49435 0.28659 0.0
C565 C 0.42641 0.47308 0.30309 0.0
C566 C 0.39358 0.45484 0.31182 0.0
C567 C 0.3658 0.45789 0.30426 0.0
C568 C 0.37148 0.48021 0.28826 0.0
C569 C 0.40439 0.49849 0.27953 0.0
C570 C 0.47245 0.51572 0.24787 0.0
C571 C 0.50059 0.54057 0.23688 0.0
C572 C 0.50259 0.53668 0.21593 0.0
C573 C 0.47663 0.50764 0.20575 0.0
C574 C 0.448 0.48325 0.21661 0.0
C575 C 0.44606 0.48713 0.23756 0.0
Gd576 Gd 0.51663 0.01859 0.03282 0.0
Gd577 Gd 0.48596 0.97709 0.98162 0.0
C578 C 0.38074 0.87814 0.97758 0.0
C579 C 0.39735 0.83711 0.96631 0.0
C580 C 0.44124 0.89669 0.97155 0.0
C581 C 0.41601 0.90402 0.97746 0.0
C582 C 0.43214 0.8634 0.96519 0.0
C583 C 0.37167 0.84447 0.97252 0.0
C584 C 0.35562 0.88704 0.98224 0.0
C585 C 0.36585 0.92118 0.98589 0.0
N586 N 0.4258 0.93686 0.98206 0.0
C587 C 0.40113 0.94593 0.98544 0.0
H588 H 0.40833 0.97206 0.9884 0.0
C589 C 0.49877 0.91831 0.96045 0.0
N590 N 0.47439 0.92282 0.97037 0.0
C591 C 0.4913 0.88572 0.95418 0.0
C592 C 0.45798 0.85796 0.95697 0.0
H593 H 0.52406 0.93997 0.95751 0.0
H594 H 0.34478 0.82417 0.97278 0.0
H595 H 0.5701 0.99141 0.05376 0.0
H596 H 0.32828 0.86792 0.9826 0.0
H597 H 0.34661 0.92849 0.98915 0.0
H598 H 0.38987 0.81127 0.96173 0.0
H599 H 0.51034 0.08973 0.04113 0.0
H600 H 0.67491 0.0711 0.04648 0.0
H601 H 0.63246 0.01192 0.05582 0.0
H602 H 0.66279 0.16811 0.0338 0.0
H603 H 0.51107 0.88213 0.94694 0.0
H604 H 0.45207 0.83279 0.95187 0.0
H605 H 0.68598 0.12936 0.03784 0.0
H606 H 0.54812 0.15189 0.03958 0.0
N607 N 0.57611 0.03682 0.04023 0.0
C608 C 0.64733 0.06192 0.04497 0.0
C609 C 0.62348 0.02853 0.0502 0.0
C610 C 0.63523 0.08384 0.03948 0.0
C611 C 0.599 0.07052 0.03764 0.0
C612 C 0.58786 0.01674 0.04847 0.0
N613 N 0.55115 0.07894 0.03535 0.0
C614 C 0.58605 0.09229 0.03517 0.0
C615 C 0.55916 0.13547 0.03792 0.0
C616 C 0.59483 0.14946 0.03531 0.0
C617 C 0.53779 0.10008 0.0386 0.0
C618 C 0.60887 0.12792 0.03469 0.0
H619 H 0.61144 0.17691 0.03496 0.0
O620 O 0.48225 0.02671 0.05262 0.0
O621 O 0.47099 0.982 0.01325 0.0
O622 O 0.46745 0.01452 0.98652 0.0
O623 O 0.49965 0.0493 0.01376 0.0
O624 O 0.4747 0.96702 0.04211 0.0
O625 O 0.52041 0.0147 0.06555 0.0
O626 O 0.51358 0.99616 0.95321 0.0
O627 O 0.52753 0.0205 1.00004 0.0
O628 O 0.52951 0.97642 0.02813 0.0
O629 O 0.50285 0.94443 0.99846 0.0
O630 O 0.54381 -4e-05 0.97743 0.0
O631 O 0.46123 0.98635 0.95591 0.0
C632 C 0.45628 0.95791 0.0258 0.0
C633 C 0.64491 0.14093 0.03467 0.0
C634 C 0.6581 0.11886 0.03696 0.0
C635 C 0.49493 0.02055 0.06886 0.0
C636 C 0.48247 0.02171 0.08948 0.0
C637 C 0.46378 0.03876 0.09262 0.0
C638 C 0.48776 0.00499 0.10593 0.0
C639 C 0.47427 0.00551 0.12522 0.0
C640 C 0.45073 0.03942 0.1117 0.0
C641 C 0.45589 0.02293 0.12788 0.0
C642 C 0.4798 0.04279 0.99746 0.0
C643 C 0.55418 0.02314 0.99145 0.0
C644 C 0.48738 0.99518 0.94389 0.0
C645 C 0.47952 0.98005 0.92336 0.0
C646 C 0.45947 0.9446 0.92051 0.0
C647 C 0.49221 0.00125 0.90639 0.0
C648 C 0.48491 0.98692 0.8867 0.0
C649 C 0.45245 0.93039 0.901 0.0
C650 C 0.4651 0.95139 0.88417 0.0
C651 C 0.52103 0.95032 0.01552 0.0
H652 H 0.45923 0.05164 0.08028 0.0
H653 H 0.50179 0.99138 0.10376 0.0
H654 H 0.4364 0.05269 0.11394 0.0
H655 H 0.4454 0.02364 0.14257 0.0
H656 H 0.44912 0.92793 0.93333 0.0
H657 H 0.5076 0.02869 0.90844 0.0
H658 H 0.43704 0.90302 0.89891 0.0
H659 H 0.45931 0.93996 0.86912 0.0
Gd660 Gd 0.97378 0.49401 0.03131 0.0
Gd661 Gd 0.02291 0.50537 0.98552 0.0
C662 C 0.08984 0.45439 0.97858 0.0
C663 C 0.1463 0.50286 0.97117 0.0
C664 C 0.09712 0.51103 0.97826 0.0
C665 C 0.07562 0.47616 0.98035 0.0
C666 C 0.13268 0.52464 0.97358 0.0
C667 C 0.12499 0.46786 0.97376 0.0
C668 C 0.06872 0.41973 0.98228 0.0
C669 C 0.03463 0.40748 0.98819 0.0
N670 N 0.04154 0.46371 0.98513 0.0
C671 C 0.02157 0.4297 0.98979 0.0
H672 H 0.99592 0.41888 0.99591 0.0
C673 C 0.10408 0.56622 0.97812 0.0
N674 N 0.08364 0.5318 0.981 0.0
C675 C 0.13929 0.58071 0.97367 0.0
C676 C 0.15372 0.55986 0.97146 0.0
H677 H 0.09339 0.58293 0.97893 0.0
H678 H 0.13608 0.45143 0.97229 0.0
H679 H 0.97098 0.56577 0.02411 0.0
H680 H 0.07881 0.4024 0.98126 0.0
H681 H 0.01844 0.38088 0.99195 0.0
H682 H 0.17346 0.51292 0.96757 0.0
H683 H 0.93296 0.41638 0.05072 0.0
H684 H 0.86543 0.54251 0.02752 0.0
H685 H 0.92766 0.58422 0.0225 0.0
H686 H 0.80507 0.42564 0.04752 0.0
H687 H 0.15514 0.60796 0.97167 0.0
H688 H 0.18105 0.57115 0.9679 0.0
H689 H 0.81969 0.48299 0.03654 0.0
H690 H 0.87392 0.37355 0.06144 0.0
N691 N 0.93377 0.51354 0.02889 0.0
C692 C 0.88438 0.53416 0.0281 0.0
C693 C 0.91946 0.55778 0.02531 0.0
C694 C 0.87436 0.50032 0.03234 0.0
C695 C 0.90006 0.49074 0.03275 0.0
C696 C 0.94399 0.5471 0.02615 0.0
N697 N 0.91769 0.4511 0.04008 0.0
C698 C 0.89178 0.45853 0.03873 0.0
C699 C 0.87851 0.39723 0.05492 0.0
C700 C 0.85116 0.40379 0.05268 0.0
C701 C 0.91188 0.42146 0.04872 0.0
C702 C 0.85767 0.4349 0.0447 0.0
H703 H 0.82535 0.38502 0.05753 0.0
O704 O 0.98943 0.48469 0.06073 0.0
O705 O 0.02244 0.49741 0.01865 0.0
O706 O 0.97637 0.45239 0.98386 0.0
O707 O 0.94011 0.4472 0.01091 0.0
O708 O 0.99025 0.45512 0.03497 0.0
O709 O 0.97889 0.52584 0.05744 0.0
O710 O 0.03291 0.54786 0.96673 0.0
O711 O 0.98481 0.51669 1.00091 0.0
O712 O 0.0143 0.55003 0.02938 0.0
O713 O 0.05396 0.5517 0.00596 0.0
O714 O 0.97216 0.49615 0.97193 0.0
O715 O 0.02748 0.50083 0.95281 0.0
C716 C 0.02045 0.47138 0.02694 0.0
C717 C 0.83154 0.44359 0.04326 0.0
C718 C 0.83986 0.47624 0.03701 0.0
C719 C 0.98679 0.50874 0.06986 0.0
C720 C 0.96933 0.5003 0.08943 0.0
C721 C 0.93322 0.48613 0.09091 0.0
C722 C 0.98946 0.50665 0.107 0.0
C723 C 0.97368 0.49893 0.12603 0.0
C724 C 0.91741 0.47818 0.10988 0.0
C725 C 0.93754 0.48456 0.12743 0.0
C726 C 0.94664 0.43544 0.99379 0.0
C727 C 0.96239 0.50798 0.98672 0.0
C728 C 0.03216 0.53145 0.95019 0.0
C729 C 0.038 0.54749 0.93032 0.0
C730 C 0.05405 0.58315 0.9292 0.0
C731 C 0.0253 0.52749 0.91254 0.0
C732 C 0.02814 0.54317 0.89388 0.0
C733 C 0.05732 0.59868 0.9106 0.0
C734 C 0.04436 0.57882 0.89301 0.0
C735 C 0.04515 0.5656 0.02081 0.0
H736 H 0.91735 0.48141 0.07752 0.0
H737 H 0.01743 0.51778 0.10592 0.0
H738 H 0.88955 0.46723 0.11098 0.0
H739 H 0.92506 0.47853 0.14207 0.0
H740 H 0.06382 0.59904 0.94274 0.0
H741 H 0.01252 0.49993 0.91322 0.0
H742 H 0.06968 0.62615 0.90985 0.0
H743 H 0.0469 0.59122 0.87867 0.0
Gd744 Gd 0.48435 0.51004 0.98568 0.0
Gd745 Gd 0.51657 0.49632 0.03301 0.0
C746 C 0.63447 0.54349 0.04367 0.0
C747 C 0.63851 0.4938 0.0524 0.0
C748 C 0.58251 0.48777 0.0432 0.0
C749 C 0.59804 0.52276 0.04089 0.0
C750 C 0.60269 0.47303 0.04903 0.0
C751 C 0.65437 0.5289 0.04964 0.0
C752 C 0.65024 0.57829 0.03992 0.0
C753 C 0.63015 0.59168 0.03301 0.0
N754 N 0.57811 0.53634 0.03506 0.0
C755 C 0.59436 0.57047 0.03046 0.0
H756 H 0.581 0.58219 0.02376 0.0
C757 C 0.53173 0.4335 0.04261 0.0
N758 N 0.54789 0.46797 0.03954 0.0
C759 C 0.55066 0.41792 0.04824 0.0
C760 C 0.58634 0.43775 0.0514 0.0
H761 H 0.50393 0.41762 0.04099 0.0
H762 H 0.68221 0.54455 0.05192 0.0
H763 H 0.40571 0.44007 0.98722 0.0
H764 H 0.67807 0.59485 0.04173 0.0
H765 H 0.64232 0.61841 0.02928 0.0
H766 H 0.65427 0.48289 0.05691 0.0
H767 H 0.52839 0.58886 0.96735 0.0
H768 H 0.32826 0.46885 0.98114 0.0
H769 H 0.34424 0.42429 0.98503 0.0
H770 H 0.39479 0.58736 0.96563 0.0
H771 H 0.53758 0.39064 0.0504 0.0
H772 H 0.60097 0.42562 0.05587 0.0
H773 H 0.34747 0.53012 0.97428 0.0
H774 H 0.51743 0.63444 0.95644 0.0
N775 N 0.42491 0.49341 0.98515 0.0
C776 C 0.35542 0.47603 0.98216 0.0
C777 C 0.36433 0.45081 0.98438 0.0
C778 C 0.38171 0.50991 0.97991 0.0
C779 C 0.41666 0.51778 0.98119 0.0
C780 C 0.39935 0.45996 0.98568 0.0
N781 N 0.47608 0.55541 0.97612 0.0
C782 C 0.44312 0.54979 0.97628 0.0
C783 C 0.49632 0.61085 0.96214 0.0
C784 C 0.46279 0.60604 0.96313 0.0
C785 C 0.50246 0.58499 0.96848 0.0
C786 C 0.43558 0.57506 0.97003 0.0
H787 H 0.45806 0.62605 0.95813 0.0
O788 O 0.51202 0.51839 0.95723 0.0
O789 O 0.52782 0.5051 0.99998 0.0
O790 O 0.52593 0.54972 0.03399 0.0
O791 O 0.49696 0.55613 0.00625 0.0
O792 O 0.54094 0.54877 0.98457 0.0
O793 O 0.45871 0.47879 0.95893 0.0
O794 O 0.48078 0.45477 0.05163 0.0
O795 O 0.46868 0.48601 0.01564 0.0
O796 O 0.46527 0.45357 0.98837 0.0
O797 O 0.50101 0.45016 0.01278 0.0
O798 O 0.47491 0.50666 0.04447 0.0
O799 O 0.5232 0.50136 0.06604 0.0
C800 C 0.55339 0.53143 0.99255 0.0
C801 C 0.40105 0.56814 0.97012 0.0
C802 C 0.37413 0.53559 0.9751 0.0
C803 C 0.48545 0.49493 0.94735 0.0
C804 C 0.47916 0.50381 0.92715 0.0
C805 C 0.46176 0.52214 0.92452 0.0
C806 C 0.49138 0.49417 0.91021 0.0
C807 C 0.48705 0.50351 0.89069 0.0
C808 C 0.45718 0.53128 0.90511 0.0
C809 C 0.46995 0.52224 0.88826 0.0
C810 C 0.51464 0.56727 0.0237 0.0
C811 C 0.45413 0.49466 0.02914 0.0
C812 C 0.49569 0.47126 0.06841 0.0
C813 C 0.48295 0.45552 0.08829 0.0
C814 C 0.46132 0.41997 0.08924 0.0
C815 C 0.48987 0.47551 0.1061 0.0
C816 C 0.47475 0.45982 0.12455 0.0
C817 C 0.44671 0.40452 0.10755 0.0
C818 C 0.45329 0.42428 0.1251 0.0
C819 C 0.47908 0.43721 0.99735 0.0
H820 H 0.45177 0.52937 0.93739 0.0
H821 H 0.50463 0.47976 0.91221 0.0
H822 H 0.4438 0.54549 0.90314 0.0
H823 H 0.46636 0.52966 0.87331 0.0
H824 H 0.45544 0.40406 0.07576 0.0
H825 H 0.5062 0.503 0.1056 0.0
H826 H 0.43003 0.37713 0.10811 0.0
H827 H 0.44161 0.41185 0.1392 0.0
Gd828 Gd 0.18349 0.35161 0.3668 0.0
Gd829 Gd 0.15741 0.31283 0.31619 0.0
C830 C 0.05676 0.21079 0.30741 0.0
C831 C 0.07809 0.17236 0.29889 0.0
C832 C 0.1189 0.23257 0.30568 0.0
C833 C 0.09136 0.23811 0.30917 0.0
C834 C 0.11238 0.19971 0.29993 0.0
C835 C 0.05035 0.17788 0.30265 0.0
C836 C 0.0295 0.21735 0.31027 0.0
C837 C 0.03695 0.25061 0.31419 0.0
N838 N 0.09822 0.27017 0.3139 0.0
C839 C 0.07153 0.27686 0.31565 0.0
H840 H 0.07636 0.30221 0.31851 0.0
C841 C 0.1789 0.25582 0.29974 0.0
N842 N 0.15189 0.25951 0.30678 0.0
C843 C 0.17375 0.22377 0.2942 0.0
C844 C 0.14042 0.19546 0.29465 0.0
H845 H 0.20467 0.27741 0.29885 0.0
H846 H 0.02399 0.15663 0.30144 0.0
H847 H 0.25829 0.34806 0.36086 0.0
H848 H 0.00266 0.19705 0.30915 0.0
H849 H 0.01607 0.2561 0.31609 0.0
H850 H 0.0727 0.14697 0.2947 0.0
H851 H 0.14863 0.40209 0.37585 0.0
H852 H 0.34246 0.44152 0.38332 0.0
H853 H 0.31994 0.38376 0.36873 0.0
H854 H 0.29046 0.50877 0.39959 0.0
H855 H 0.19548 0.22101 0.28939 0.0
H856 H 0.13644 0.17067 0.29015 0.0
H857 H 0.3312 0.48765 0.39491 0.0
H858 H 0.16835 0.46065 0.38805 0.0
N859 N 0.2443 0.38434 0.37139 0.0
C860 C 0.3149 0.42569 0.38015 0.0
C861 C 0.3023 0.39312 0.37192 0.0
C862 C 0.29198 0.43779 0.38375 0.0
C863 C 0.2563 0.41632 0.37916 0.0
C864 C 0.26685 0.37269 0.36765 0.0
N865 N 0.19945 0.4082 0.37593 0.0
C866 C 0.23331 0.42854 0.38149 0.0
C867 C 0.18697 0.45213 0.38604 0.0
C868 C 0.22186 0.47375 0.391 0.0
C869 C 0.17602 0.41912 0.37888 0.0
C870 C 0.24547 0.46207 0.38889 0.0
H871 H 0.23025 0.49929 0.39665 0.0
O872 O 0.14814 0.34674 0.39067 0.0
O873 O 0.13771 0.31728 0.34631 0.0
O874 O 0.13371 0.34604 0.32183 0.0
O875 O 0.17081 0.38434 0.34613 0.0
O876 O 0.14029 0.30005 0.37461 0.0
O877 O 0.1953 0.34507 0.39797 0.0
O878 O 0.1856 0.32522 0.28795 0.0
O879 O 0.2035 0.3469 0.33668 0.0
O880 O 0.19951 0.31187 0.36563 0.0
O881 O 0.17803 0.28341 0.33438 0.0
O882 O 0.20317 0.36352 0.30821 0.0
O883 O 0.13385 0.31865 0.28861 0.0
C884 C 0.12249 0.29237 0.35825 0.0
C885 C 0.28075 0.48302 0.39388 0.0
C886 C 0.30393 0.47095 0.39128 0.0
C887 C 0.16666 0.343 0.40478 0.0
C888 C 0.16672 0.35642 0.42527 0.0
C889 C 0.16251 0.38487 0.42815 0.0
C890 C 0.16715 0.33816 0.44229 0.0
C891 C 0.16263 0.34794 0.46188 0.0
C892 C 0.15903 0.39515 0.44757 0.0
C893 C 0.15888 0.37673 0.46434 0.0
C894 C 0.14828 0.37613 0.33098 0.0
C895 C 0.22069 0.37151 0.32477 0.0
C896 C 0.16072 0.32527 0.27752 0.0
C897 C 0.15426 0.30968 0.25714 0.0
C898 C 0.14634 0.27582 0.25439 0.0
C899 C 0.1588 0.32982 0.24009 0.0
C900 C 0.15717 0.31663 0.22042 0.0
C901 C 0.14446 0.26257 0.23497 0.0
C902 C 0.1503 0.28292 0.2181 0.0
C903 C 0.19287 0.28699 0.35254 0.0
H904 H 0.16091 0.39869 0.41549 0.0
H905 H 0.16978 0.31578 0.4403 0.0
H906 H 0.15573 0.41709 0.44959 0.0
H907 H 0.15554 0.38475 0.47929 0.0
H908 H 0.1421 0.25973 0.26718 0.0
H909 H 0.16442 0.35588 0.2421 0.0
H910 H 0.13874 0.23652 0.23298 0.0
H911 H 0.14902 0.2722 0.20314 0.0
Gd912 Gd 0.64021 0.82671 0.36563 0.0
Gd913 Gd 0.68738 0.83539 0.31804 0.0
C914 C 0.77224 0.80614 0.31685 0.0
C915 C 0.82416 0.86084 0.31177 0.0
C916 C 0.76763 0.85712 0.31425 0.0
C917 C 0.75174 0.82202 0.31679 0.0
C918 C 0.8039 0.87656 0.31106 0.0
C919 C 0.8084 0.82578 0.31474 0.0
C920 C 0.75589 0.7708 0.31863 0.0
C921 C 0.71987 0.7518 0.31926 0.0
N922 N 0.71644 0.80324 0.3183 0.0
C923 C 0.70046 0.76826 0.31863 0.0
H924 H 0.67278 0.75197 0.31867 0.0
C925 C 0.7616 0.90468 0.30651 0.0
N926 N 0.74758 0.87189 0.31325 0.0
C927 C 0.7973 0.92495 0.30358 0.0
C928 C 0.81867 0.911 0.30624 0.0
H929 H 0.74515 0.91541 0.30365 0.0
H930 H 0.82436 0.81392 0.3149 0.0
H931 H 0.6367 0.89822 0.35993 0.0
H932 H 0.7708 0.75785 0.319 0.0
H933 H 0.70689 0.72429 0.32016 0.0
H934 H 0.85199 0.87547 0.30951 0.0
H935 H 0.60038 0.74888 0.38489 0.0
H936 H 0.53065 0.87363 0.36314 0.0
H937 H 0.59288 0.91622 0.35922 0.0
H938 H 0.47137 0.75628 0.382 0.0
H939 H 0.80821 0.95115 0.29895 0.0
H940 H 0.84633 0.92663 0.30365 0.0
H941 H 0.48527 0.81355 0.3713 0.0
H942 H 0.54157 0.70559 0.39584 0.0
N943 N 0.59976 0.84566 0.36373 0.0
C944 C 0.54979 0.86552 0.36343 0.0
C945 C 0.58488 0.88964 0.36126 0.0
C946 C 0.54008 0.83157 0.36707 0.0
C947 C 0.56608 0.82239 0.36732 0.0
C948 C 0.60968 0.87927 0.36164 0.0
N949 N 0.58442 0.78313 0.37439 0.0
C950 C 0.5582 0.79018 0.37312 0.0
C951 C 0.54583 0.72917 0.38934 0.0
C952 C 0.51817 0.7353 0.38713 0.0
C953 C 0.57906 0.75366 0.38305 0.0
C954 C 0.52421 0.76624 0.37914 0.0
H955 H 0.49247 0.7163 0.39202 0.0
O956 O 0.65703 0.81968 0.3952 0.0
O957 O 0.68488 0.82575 0.35084 0.0
O958 O 0.64482 0.78091 0.32253 0.0
O959 O 0.60505 0.78053 0.34555 0.0
O960 O 0.66079 0.79153 0.37355 0.0
O961 O 0.64583 0.86032 0.39094 0.0
O962 O 0.689 0.86404 0.29152 0.0
O963 O 0.65089 0.84832 0.3346 0.0
O964 O 0.68111 0.88225 0.36218 0.0
O965 O 0.71827 0.88474 0.33646 0.0
O966 O 0.63767 0.82991 0.30542 0.0
O967 O 0.68297 0.8132 0.28833 0.0
C968 C 0.68603 0.80267 0.36089 0.0
C969 C 0.49776 0.7745 0.37773 0.0
C970 C 0.50566 0.80709 0.37162 0.0
C971 C 0.65385 0.84385 0.40381 0.0
C972 C 0.63569 0.83534 0.42319 0.0
C973 C 0.5994 0.81999 0.42414 0.0
C974 C 0.65512 0.84146 0.44102 0.0
C975 C 0.63842 0.83194 0.45976 0.0
C976 C 0.58267 0.8103 0.44279 0.0
C977 C 0.60207 0.81609 0.46058 0.0
C978 C 0.61313 0.7666 0.33017 0.0
C979 C 0.62821 0.84072 0.3207 0.0
C980 C 0.685 0.83954 0.27911 0.0
C981 C 0.70413 0.84919 0.26009 0.0
C982 C 0.73971 0.86014 0.25937 0.0
C983 C 0.68563 0.84544 0.2421 0.0
C984 C 0.70254 0.85226 0.2234 0.0
C985 C 0.7568 0.86791 0.2408 0.0
C986 C 0.73833 0.86397 0.22286 0.0
C987 C 0.71093 0.898 0.35243 0.0
H988 H 0.58403 0.81547 0.41058 0.0
H989 H 0.68322 0.85346 0.44035 0.0
H990 H 0.55465 0.79829 0.44346 0.0
H991 H 0.58886 0.80856 0.47497 0.0
H992 H 0.75416 0.86222 0.27298 0.0
H993 H 0.65795 0.83637 0.24255 0.0
H994 H 0.7843 0.87651 0.24029 0.0
H995 H 0.75179 0.86954 0.20853 0.0
Gd996 Gd 0.15 0.84004 0.31753 0.0
Gd997 Gd 0.1833 0.82829 0.36466 0.0
C998 C 0.30006 0.8765 0.37915 0.0
C999 C 0.3031 0.82782 0.39137 0.0
C1000 C 0.2483 0.82068 0.37863 0.0
C1001 C 0.26402 0.85537 0.37525 0.0
C1002 C 0.26781 0.80656 0.38661 0.0
C1003 C 0.31922 0.86268 0.38758 0.0
C1004 C 0.31622 0.91077 0.37392 0.0
C1005 C 0.29696 0.92306 0.36436 0.0
N1006 N 0.24476 0.86806 0.36704 0.0
C1007 C 0.26147 0.90141 0.36082 0.0
H1008 H 0.24853 0.91199 0.35235 0.0
C1009 C 0.19808 0.76607 0.37674 0.0
N1010 N 0.21429 0.80051 0.37355 0.0
C1011 C 0.21636 0.75107 0.3845 0.0
C1012 C 0.25139 0.77139 0.38951 0.0
H1013 H 0.17063 0.74979 0.37376 0.0
H1014 H 0.34673 0.87866 0.39085 0.0
H1015 H 0.07548 0.7671 0.3251 0.0
H1016 H 0.3438 0.92765 0.37656 0.0
H1017 H 0.30951 0.94925 0.35946 0.0
H1018 H 0.31833 0.81743 0.39763 0.0
H1019 H 0.185 0.9157 0.29605 0.0
H1020 H 0.99152 0.78751 0.32375 0.0
H1021 H 0.01307 0.74714 0.32822 0.0
H1022 H 0.04639 0.90342 0.3019 0.0
H1023 H 0.20324 0.72384 0.3869 0.0
H1024 H 0.26549 0.7597 0.39563 0.0
H1025 H 0.00432 0.84624 0.31412 0.0
H1026 H 0.16743 0.95689 0.28487 0.0
N1027 N 0.08977 0.81881 0.32016 0.0
C1028 C 0.01908 0.79651 0.32258 0.0
C1029 C 0.03111 0.77363 0.32504 0.0
C1030 C 0.04259 0.83036 0.31766 0.0
C1031 C 0.0782 0.84075 0.31644 0.0
C1032 C 0.06664 0.78514 0.32334 0.0
N1033 N 0.13535 0.88093 0.30786 0.0
C1034 C 0.10178 0.87287 0.30988 0.0
C1035 C 0.14874 0.93344 0.29201 0.0
C1036 C 0.1147 0.92642 0.29514 0.0
C1037 C 0.15863 0.91016 0.29838 0.0
C1038 C 0.09058 0.89559 0.30392 0.0
H1039 H 0.10712 0.94451 0.29025 0.0
O1040 O 0.17316 0.85132 0.28783 0.0
O1041 O 0.19417 0.83581 0.33143 0.0
O1042 O 0.1939 0.88218 0.36511 0.0
O1043 O 0.16618 0.88868 0.33676 0.0
O1044 O 0.20686 0.87833 0.3147 0.0
O1045 O 0.12459 0.80537 0.29189 0.0
O1046 O 0.14622 0.78665 0.38268 0.0
O1047 O 0.13475 0.8177 0.34795 0.0
O1048 O 0.13572 0.78485 0.31851 0.0
O1049 O 0.16776 0.78127 0.34523 0.0
O1050 O 0.14408 0.84199 0.37581 0.0
O1051 O 0.18762 0.83303 0.39778 0.0
C1052 C 0.21954 0.86141 0.32315 0.0
C1053 C 0.05547 0.88617 0.30613 0.0
C1054 C 0.03151 0.85361 0.31308 0.0
C1055 C 0.14846 0.82431 0.27913 0.0
C1056 C 0.13715 0.82904 0.2592 0.0
C1057 C 0.1132 0.84039 0.25713 0.0
C1058 C 0.15148 0.82281 0.24191 0.0
C1059 C 0.14218 0.8281 0.22255 0.0
C1060 C 0.10382 0.84559 0.23784 0.0
C1061 C 0.11827 0.83956 0.22058 0.0
C1062 C 0.18351 0.90003 0.35434 0.0
C1063 C 0.12184 0.82863 0.36125 0.0
C1064 C 0.15972 0.80307 0.39967 0.0
C1065 C 0.14533 0.78729 0.41931 0.0
C1066 C 0.12073 0.7523 0.4199 0.0
C1067 C 0.15352 0.80716 0.43722 0.0
C1068 C 0.13693 0.79196 0.45544 0.0
C1069 C 0.10457 0.7373 0.43801 0.0
C1070 C 0.11257 0.75699 0.45571 0.0
C1071 C 0.148 0.7685 0.32891 0.0
H1072 H 0.10187 0.84524 0.27033 0.0
H1073 H 0.17004 0.81407 0.24348 0.0
H1074 H 0.08535 0.85437 0.23625 0.0
H1075 H 0.11082 0.84373 0.20572 0.0
H1076 H 0.11366 0.73652 0.4063 0.0
H1077 H 0.17204 0.83427 0.43699 0.0
H1078 H 0.0856 0.71036 0.4383 0.0
H1079 H 0.09969 0.74498 0.46966 0.0
Gd1080 Gd 0.8536 0.68795 0.6999 0.0
Gd1081 Gd 0.8234 0.64386 0.65086 0.0
C1082 C 0.71666 0.5479 0.64672 0.0
C1083 C 0.73142 0.50325 0.64313 0.0
C1084 C 0.77706 0.56271 0.64565 0.0
C1085 C 0.75234 0.57251 0.64788 0.0
C1086 C 0.76685 0.52807 0.64263 0.0
C1087 C 0.70635 0.51317 0.64512 0.0
C1088 C 0.69249 0.55905 0.6459 0.0
C1089 C 0.70424 0.59392 0.64533 0.0
N1090 N 0.76312 0.60631 0.64912 0.0
C1091 C 0.73985 0.61733 0.64694 0.0
H1092 H 0.74862 0.64422 0.64646 0.0
C1093 C 0.83563 0.57945 0.63867 0.0
N1094 N 0.81099 0.58738 0.64474 0.0
C1095 C 0.82685 0.54542 0.6359 0.0
C1096 C 0.79239 0.51956 0.63825 0.0
H1097 H 0.86234 0.59946 0.63695 0.0
H1098 H 0.67905 0.49388 0.64452 0.0
H1099 H 0.93189 0.69342 0.69288 0.0
H1100 H 0.66487 0.54099 0.6448 0.0
H1101 H 0.68587 0.60284 0.64386 0.0
H1102 H 0.72308 0.47647 0.6411 0.0
H1103 H 0.81124 0.72614 0.71741 0.0
H1104 H 0.01071 0.7872 0.71865 0.0
H1105 H 0.99289 0.73212 0.70136 0.0
H1106 H 0.9481 0.84128 0.74215 0.0
H1107 H 0.84661 0.53917 0.63189 0.0
H1108 H 0.78559 0.49322 0.63588 0.0
H1109 H 0.99384 0.82793 0.73357 0.0
H1110 H 0.82393 0.77954 0.73484 0.0
N1111 N 0.91392 0.72565 0.7049 0.0
C1112 C 0.98356 0.77014 0.71494 0.0
C1113 C 0.9736 0.73912 0.70519 0.0
C1114 C 0.95836 0.77887 0.7197 0.0
C1115 C 0.92334 0.75575 0.7145 0.0
C1116 C 0.93859 0.71704 0.7004 0.0
N1117 N 0.86441 0.74003 0.71452 0.0
C1118 C 0.89778 0.76336 0.71921 0.0
C1119 C 0.845 0.7754 0.73048 0.0
C1120 C 0.87935 0.80016 0.7348 0.0
C1121 C 0.83793 0.74515 0.72052 0.0
C1122 C 0.90624 0.79415 0.72941 0.0
H1123 H 0.88477 0.8235 0.74262 0.0
O1124 O 0.82446 0.67278 0.72802 0.0
O1125 O 0.8105 0.64414 0.6831 0.0
O1126 O 0.80989 0.68636 0.6543 0.0
O1127 O 0.84292 0.72286 0.68088 0.0
O1128 O 0.79675 0.67109 0.70227 0.0
O1129 O 0.86884 0.66601 0.72429 0.0
O1130 O 0.84761 0.6475 0.62211 0.0
O1131 O 0.86594 0.69126 0.66647 0.0
O1132 O 0.87363 0.6513 0.69335 0.0
O1133 O 0.83279 0.61045 0.67159 0.0
O1134 O 0.88079 0.66543 0.64711 0.0
O1135 O 0.80212 0.65308 0.62321 0.0
C1136 C 0.78455 0.64481 0.69044 0.0
C1137 C 0.94107 0.81749 0.73435 0.0
C1138 C 0.96709 0.80984 0.72952 0.0
C1139 C 0.84467 0.66343 0.73653 0.0
C1140 C 0.8547 0.67446 0.75778 0.0
C1141 C 0.88275 0.70691 0.76253 0.0
C1142 C 0.83561 0.65243 0.77358 0.0
C1143 C 0.8447 0.66291 0.79395 0.0
C1144 C 0.89154 0.71743 0.78271 0.0
C1145 C 0.87266 0.69557 0.79836 0.0
C1146 C 0.82447 0.71655 0.66392 0.0
C1147 C 0.89229 0.69323 0.65766 0.0
C1148 C 0.82581 0.65272 0.61178 0.0
C1149 C 0.81562 0.63567 0.5918 0.0
C1150 C 0.80333 0.60061 0.58985 0.0
C1151 C 0.82252 0.65545 0.57428 0.0
C1152 C 0.81864 0.64049 0.55488 0.0
C1153 C 0.79902 0.58561 0.57069 0.0
C1154 C 0.80705 0.60541 0.55334 0.0
C1155 C 0.85838 0.62059 0.68479 0.0
H1156 H 0.89795 0.72405 0.7507 0.0
H1157 H 0.81393 0.62723 0.77008 0.0
H1158 H 0.9132 0.74256 0.78622 0.0
H1159 H 0.87999 0.70401 0.81394 0.0
H1160 H 0.79797 0.58503 0.60311 0.0
H1161 H 0.83202 0.68258 0.57572 0.0
H1162 H 0.78996 0.55861 0.56928 0.0
H1163 H 0.80396 0.59329 0.53863 0.0
Gd1164 Gd 0.30937 0.15765 0.69869 0.0
Gd1165 Gd 0.35534 0.17177 0.65113 0.0
C1166 C 0.42492 0.12581 0.63704 0.0
C1167 C 0.47711 0.17512 0.6249 0.0
C1168 C 0.42886 0.18106 0.63743 0.0
C1169 C 0.40977 0.14634 0.64081 0.0
C1170 C 0.46291 0.19582 0.62964 0.0
C1171 C 0.4582 0.14021 0.62864 0.0
C1172 C 0.40685 0.09162 0.6425 0.0
C1173 C 0.37515 0.07888 0.6522 0.0
N1174 N 0.37761 0.13315 0.64911 0.0
C1175 C 0.36111 0.09998 0.65559 0.0
H1176 H 0.33757 0.08922 0.66413 0.0
C1177 C 0.43348 0.23523 0.63974 0.0
N1178 N 0.4149 0.20068 0.64263 0.0
C1179 C 0.46719 0.25086 0.63216 0.0
C1180 C 0.48197 0.23107 0.62703 0.0
H1181 H 0.42228 0.25114 0.64275 0.0
H1182 H 0.46993 0.1247 0.62548 0.0
H1183 H 0.3211 0.23691 0.69481 0.0
H1184 H 0.41775 0.0752 0.64 0.0
H1185 H 0.36158 0.0528 0.65732 0.0
H1186 H 0.50306 0.18601 0.61876 0.0
H1187 H 0.25407 0.0775 0.71225 0.0
H1188 H 0.22214 0.23057 0.69564 0.0
H1189 H 0.28617 0.26482 0.69359 0.0
H1190 H 0.14269 0.11179 0.70563 0.0
H1191 H 0.48155 0.27815 0.63 0.0
H1192 H 0.50812 0.24326 0.62108 0.0
H1193 H 0.16873 0.17333 0.6999 0.0
H1194 H 0.19097 0.03938 0.71662 0.0
N1195 N 0.27761 0.18663 0.69728 0.0
C1196 C 0.23742 0.21804 0.69628 0.0
C1197 C 0.27353 0.23743 0.69516 0.0
C1198 C 0.22153 0.18275 0.69857 0.0
C1199 C 0.24263 0.16765 0.69915 0.0
C1200 C 0.29332 0.22131 0.69588 0.0
N1201 N 0.24935 0.11998 0.70339 0.0
C1202 C 0.22799 0.13315 0.70213 0.0
C1203 C 0.20093 0.0656 0.71231 0.0
C1204 C 0.17834 0.07823 0.70962 0.0
C1205 C 0.2366 0.08718 0.70967 0.0
C1206 C 0.19184 0.1126 0.70495 0.0
H1207 H 0.15072 0.06159 0.71187 0.0
O1208 O 0.30697 0.13533 0.72776 0.0
O1209 O 0.35831 0.16391 0.68444 0.0
O1210 O 0.31189 0.11717 0.649 0.0
O1211 O 0.27988 0.10952 0.67871 0.0
O1212 O 0.32961 0.12167 0.70186 0.0
O1213 O 0.32514 0.18913 0.7262 0.0
O1214 O 0.3606 0.21342 0.63321 0.0
O1215 O 0.3167 0.17997 0.66853 0.0
O1216 O 0.35517 0.21122 0.70039 0.0
O1217 O 0.38621 0.21956 0.67054 0.0
O1218 O 0.30239 0.1592 0.63983 0.0
O1219 O 0.35545 0.16752 0.61799 0.0
C1220 C 0.35894 0.13921 0.69294 0.0
C1221 C 0.17054 0.12721 0.70371 0.0
C1222 C 0.18537 0.16225 0.70052 0.0
C1223 C 0.31849 0.16373 0.73785 0.0
C1224 C 0.30166 0.16173 0.75716 0.0
C1225 C 0.26587 0.14962 0.75834 0.0
C1226 C 0.32173 0.16991 0.7749 0.0
C1227 C 0.30613 0.16527 0.79391 0.0
C1228 C 0.25026 0.1453 0.77727 0.0
C1229 C 0.27021 0.15282 0.79502 0.0
C1230 C 0.28545 0.09848 0.6611 0.0
C1231 C 0.29272 0.16975 0.65525 0.0
C1232 C 0.35815 0.19749 0.61617 0.0
C1233 C 0.36018 0.21362 0.5966 0.0
C1234 C 0.36943 0.24817 0.59627 0.0
C1235 C 0.35077 0.19451 0.57837 0.0
C1236 C 0.35034 0.20993 0.5601 0.0
C1237 C 0.36928 0.26344 0.5781 0.0
C1238 C 0.35974 0.24445 0.56009 0.0
C1239 C 0.38168 0.22998 0.68849 0.0
H1240 H 0.25005 0.14308 0.74473 0.0
H1241 H 0.34941 0.17914 0.77397 0.0
H1242 H 0.2226 0.13576 0.77819 0.0
H1243 H 0.25773 0.14899 0.80959 0.0
H1244 H 0.37653 0.2634 0.6101 0.0
H1245 H 0.34328 0.16777 0.57836 0.0
H1246 H 0.37639 0.29003 0.578 0.0
H1247 H 0.35967 0.25665 0.54609 0.0
Gd1248 Gd 0.8242 0.17842 0.65159 0.0
Gd1249 Gd 0.84672 0.16183 0.70115 0.0
C1250 C 0.9568 0.20994 0.72801 0.0
C1251 C 0.95527 0.16125 0.74396 0.0
C1252 C 0.90547 0.15408 0.72443 0.0
C1253 C 0.92235 0.18886 0.72088 0.0
C1254 C 0.92215 0.13987 0.73558 0.0
C1255 C 0.97258 0.19621 0.74016 0.0
C1256 C 0.97531 0.2437 0.72168 0.0
C1257 C 0.96033 0.25516 0.70758 0.0
N1258 N 0.907 0.20098 0.70815 0.0
C1259 C 0.92645 0.23332 0.70065 0.0
H1260 H 0.9165 0.24294 0.68917 0.0
C1261 C 0.85833 0.09907 0.71669 0.0
N1262 N 0.87435 0.1338 0.71513 0.0
C1263 C 0.87376 0.08395 0.72769 0.0
C1264 C 0.90569 0.10443 0.73732 0.0
H1265 H 0.83302 0.08268 0.70998 0.0
H1266 H 0.99881 0.21216 0.74594 0.0
H1267 H 0.74413 0.11217 0.65333 0.0
H1268 H 0.00181 0.26058 0.72675 0.0
H1269 H 0.97503 0.28079 0.70183 0.0
H1270 H 0.9683 0.15081 0.75273 0.0
H1271 H 0.87341 0.25746 0.63474 0.0
H1272 H 0.67099 0.14605 0.64492 0.0
H1273 H 0.68332 0.09939 0.65115 0.0
H1274 H 0.74384 0.2631 0.62715 0.0
H1275 H 0.86082 0.05649 0.72891 0.0
H1276 H 0.91769 0.0926 0.74575 0.0
H1277 H 0.69394 0.20746 0.63606 0.0
H1278 H 0.86632 0.30458 0.62182 0.0
N1279 N 0.76582 0.16518 0.64989 0.0
C1280 C 0.69767 0.15169 0.64614 0.0
C1281 C 0.7045 0.12529 0.64957 0.0
C1282 C 0.7254 0.18472 0.64323 0.0
C1283 C 0.75963 0.19065 0.64515 0.0
C1284 C 0.73895 0.13251 0.65091 0.0
N1285 N 0.81987 0.22594 0.64162 0.0
C1286 C 0.78755 0.22192 0.64043 0.0
C1287 C 0.84397 0.28155 0.62713 0.0
C1288 C 0.81103 0.27832 0.62667 0.0
C1289 C 0.84791 0.25488 0.63453 0.0
C1290 C 0.78226 0.24817 0.63326 0.0
H1291 H 0.80804 0.29902 0.62095 0.0
O1292 O 0.84924 0.19174 0.62234 0.0
O1293 O 0.86303 0.16901 0.66846 0.0
O1294 O 0.86011 0.21647 0.70152 0.0
O1295 O 0.83727 0.22522 0.67186 0.0
O1296 O 0.88245 0.21077 0.65038 0.0
O1297 O 0.80028 0.14516 0.62522 0.0
O1298 O 0.80663 0.11922 0.71769 0.0
O1299 O 0.80247 0.15368 0.68094 0.0
O1300 O 0.80618 0.12167 0.65284 0.0
O1301 O 0.83402 0.11576 0.68116 0.0
O1302 O 0.80618 0.17554 0.70918 0.0
O1303 O 0.84437 0.16617 0.73397 0.0
C1304 C 0.89111 0.19254 0.66105 0.0
C1305 C 0.74841 0.24308 0.63233 0.0
C1306 C 0.72001 0.21143 0.63744 0.0
C1307 C 0.82474 0.16512 0.613 0.0
C1308 C 0.81439 0.1709 0.59299 0.0
C1309 C 0.79236 0.1845 0.5909 0.0
C1310 C 0.82777 0.16351 0.57565 0.0
C1311 C 0.81939 0.16989 0.55629 0.0
C1312 C 0.7841 0.19103 0.57165 0.0
C1313 C 0.79759 0.18384 0.55439 0.0
C1314 C 0.85201 0.23535 0.69016 0.0
C1315 C 0.78708 0.16338 0.69322 0.0
C1316 C 0.81725 0.1356 0.735 0.0
C1317 C 0.80019 0.12031 0.75428 0.0
C1318 C 0.77372 0.08597 0.75456 0.0
C1319 C 0.80963 0.13975 0.77243 0.0
C1320 C 0.79264 0.12476 0.79059 0.0
C1321 C 0.75701 0.07116 0.7726 0.0
C1322 C 0.76639 0.0904 0.79054 0.0
C1323 C 0.81609 0.10377 0.66399 0.0
H1324 H 0.78158 0.19007 0.60404 0.0
H1325 H 0.84477 0.15291 0.57719 0.0
H1326 H 0.76719 0.20165 0.5701 0.0
H1327 H 0.7909 0.18893 0.53955 0.0
H1328 H 0.7659 0.07049 0.74082 0.0
H1329 H 0.82989 0.16633 0.77251 0.0
H1330 H 0.73667 0.04467 0.77267 0.0
H1331 H 0.75315 0.07851 0.80443 0.0
C1332 C 0.3646 0.92113 0.0447 0.0
C1333 C 0.3535 0.88591 0.04417 0.0
C1334 C 0.40666 0.89729 0.02691 0.0
C1335 C 0.41844 0.93284 0.0275 0.0
N1336 N 0.40502 0.97778 0.03271 0.0
N1337 N 0.35838 0.83959 0.02961 0.0
C1338 C 0.39604 0.94445 0.03489 0.0
C1339 C 0.37264 0.87375 0.03341 0.0
N1340 N 0.34589 0.93235 0.05539 0.0
N1341 N 0.42847 0.88591 0.021 0.0
H1342 H 0.33366 0.82157 0.03451 0.0
H1343 H 0.36954 0.82945 0.01996 0.0
H1344 H 0.45267 0.90193 0.01496 0.0
H1345 H 0.4232 0.86099 0.02288 0.0
H1346 H 0.35464 0.95794 0.05862 0.0
H1347 H 0.32206 0.91571 0.06197 0.0
H1348 H 0.3886 0.98728 0.03615 0.0
H1349 H 0.42771 0.99541 0.02557 0.0
C1350 C 0.11104 0.4782 0.03019 0.0
C1351 C 0.10179 0.44594 0.03813 0.0
C1352 C 0.04192 0.43361 0.04251 0.0
C1353 C 0.04984 0.46472 0.03273 0.0
N1354 N 0.09604 0.5221 0.02652 0.0
N1355 N 0.05709 0.39004 0.04813 0.0
C1356 C 0.08558 0.48854 0.02885 0.0
C1357 C 0.06676 0.42266 0.04282 0.0
N1358 N 0.14426 0.49879 0.02366 0.0
N1359 N 0.013 0.41679 0.05427 0.0
H1360 H 0.0746 0.38135 0.05002 0.0
H1361 H 0.03119 0.3707 0.04887 0.0
H1362 H 0.99907 0.42789 0.05977 0.0
H1363 H 0.00705 0.39502 0.0624 0.0
H1364 H 0.15228 0.52131 0.01587 0.0
H1365 H 0.16324 0.4917 0.02437 0.0
H1366 H 0.12172 0.5413 0.02476 0.0
H1367 H 0.07979 0.53157 0.02983 0.0
C1368 C 0.56418 0.64715 0.05594 0.0
C1369 C 0.56154 0.67157 0.0441 0.0
C1370 C 0.51762 0.6255 0.02247 0.0
C1371 C 0.52389 0.60172 0.03273 0.0
N1372 N 0.53442 0.58883 0.06656 0.0
N1373 N 0.53631 0.68465 0.01563 0.0
C1374 C 0.54187 0.61209 0.05165 0.0
C1375 C 0.53839 0.66095 0.02722 0.0
N1376 N 0.58868 0.65734 0.07101 0.0
N1377 N 0.48858 0.61405 0.01072 0.0
H1378 H 0.5494 0.71061 0.01928 0.0
H1379 H 0.52341 0.67878 1.00168 0.0
H1380 H 0.46948 0.58849 0.01015 0.0
H1381 H 0.48046 0.62998 0.00456 0.0
H1382 H 0.59398 0.64038 0.07858 0.0
H1383 H 0.60595 0.68292 0.07456 0.0
H1384 H 0.54501 0.59552 0.08113 0.0
H1385 H 0.51336 0.56406 0.06546 0.0
C1386 C 0.87228 0.34257 0.99022 0.0
C1387 C 0.88251 0.33121 0.97286 0.0
C1388 C 0.92634 0.39023 0.96561 0.0
C1389 C 0.91995 0.40109 0.98468 0.0
N1390 N 0.87236 0.39035 0.00652 0.0
N1391 N 0.92152 0.34365 0.94483 0.0
C1392 C 0.88899 0.37807 0.9949 0.0
C1393 C 0.91019 0.35489 0.96079 0.0
N1394 N 0.84685 0.31944 1.00245 0.0
N1395 N 0.94396 0.41359 0.95096 0.0
H1396 H 0.90985 0.31802 0.94047 0.0
H1397 H 0.9443 0.35942 0.93706 0.0
H1398 H 0.94985 0.43886 0.95228 0.0
H1399 H 0.94724 0.40701 0.93628 0.0
H1400 H 0.84125 0.326 0.01657 0.0
H1401 H 0.83336 0.2933 0.99925 0.0
H1402 H 0.84785 0.37489 0.01264 0.0
H1403 H 0.87988 0.41604 0.0068 0.0
C1404 C 0.6374 0.52488 0.98966 0.0
C1405 C 0.65994 0.55567 0.97981 0.0
C1406 C 0.6119 0.56662 0.97494 0.0
C1407 C 0.58911 0.53709 0.98642 0.0
N1408 N 0.5783 0.48128 0.99588 0.0
N1409 N 0.67081 0.60974 0.96724 0.0
C1410 C 0.60139 0.51437 0.99165 0.0
C1411 C 0.64791 0.57788 0.97408 0.0
N1412 N 0.65069 0.50593 0.99742 0.0
N1413 N 0.59894 0.58109 0.96208 0.0
H1414 H 0.69719 0.61854 0.96521 0.0
H1415 H 0.66416 0.62859 0.96547 0.0
H1416 H 0.57331 0.56878 0.95706 0.0
H1417 H 0.61439 0.6015 0.95277 0.0
H1418 H 0.63683 0.48514 0.00678 0.0
H1419 H 0.67684 0.51304 0.99607 0.0
H1420 H 0.58509 0.46275 0.99845 0.0
H1421 H 0.55198 0.47095 0.99348 0.0
C1422 C 0.46242 0.11701 0.99142 0.0
C1423 C 0.4674 0.12212 0.97022 0.0
C1424 C 0.48458 0.079 0.96803 0.0
C1425 C 0.47576 0.07067 0.98867 0.0
N1426 N 0.45038 0.07812 0.01921 0.0
N1427 N 0.47307 0.10068 0.93764 0.0
C1428 C 0.46298 0.08866 1.00021 0.0
C1429 C 0.47507 0.10065 0.95831 0.0
N1430 N 0.45837 0.13972 1.00321 0.0
N1431 N 0.50424 0.06827 0.95794 0.0
H1432 H 0.46519 0.11561 0.92987 0.0
H1433 H 0.47549 0.08312 0.92844 0.0
H1434 H 0.51442 0.05464 0.96487 0.0
H1435 H 0.51398 0.0765 0.94348 0.0
H1436 H 0.45831 0.13925 0.01899 0.0
H1437 H 0.45777 0.16063 0.99725 0.0
H1438 H 0.43773 0.08827 0.02754 0.0
H1439 H 0.44991 0.05719 0.02592 0.0
C1440 C 0.63559 0.11046 0.9837 0.0
C1441 C 0.65964 0.09927 0.97982 0.0
C1442 C 0.61739 0.04272 0.99204 0.0
C1443 C 0.59113 0.05175 0.99223 0.0
N1444 N 0.57554 0.09519 0.98716 0.0
N1445 N 0.67145 0.05278 0.97754 0.0
C1446 C 0.60035 0.08601 0.98792 0.0
C1447 C 0.65015 0.06493 0.98342 0.0
N1448 N 0.64661 0.14454 0.98378 0.0
N1449 N 0.61114 0.01296 1.00053 0.0
H1450 H 0.69526 0.06773 0.9705 0.0
H1451 H 0.66391 0.027 0.97783 0.0
H1452 H 0.58803 0.99731 0.00794 0.0
H1453 H 0.63019 0.00624 1.00252 0.0
H1454 H 0.6312 0.15457 0.98855 0.0
H1455 H 0.67232 0.16308 0.981 0.0
H1456 H 0.57977 0.1182 0.98133 0.0
H1457 H 0.55038 0.07929 0.99188 0.0
C1458 C 0.92826 0.56744 0.97171 0.0
C1459 C 0.89175 0.54504 0.97246 0.0
C1460 C 0.90167 0.49808 0.98058 0.0
C1461 C 0.93794 0.52117 0.98292 0.0
N1462 N 0.98526 0.57949 0.98269 0.0
N1463 N 0.84394 0.49062 0.98226 0.0
C1464 C 0.95108 0.55639 0.97911 0.0
C1465 C 0.87853 0.51086 0.97837 0.0
N1466 N 0.9413 0.59865 0.96298 0.0
N1467 N 0.88917 0.46388 0.97934 0.0
H1468 H 0.82626 0.49931 0.98126 0.0
H1469 H 0.83366 0.46652 0.98857 0.0
H1470 H 0.90545 0.45371 0.97894 0.0
H1471 H 0.86327 0.44617 0.97603 0.0
H1472 H 0.9676 0.61448 0.95998 0.0
H1473 H 0.92561 0.60738 0.95684 0.0
H1474 H 0.99543 0.60578 0.98236 0.0
H1475 H 0.00273 0.57249 0.98799 0.0
C1476 C 0.45644 0.3448 0.98805 0.0
C1477 C 0.46637 0.34656 0.9675 0.0
C1478 C 0.4871 0.40771 0.96737 0.0
C1479 C 0.47446 0.40566 0.98737 0.0
N1480 N 0.44461 0.37192 0.01639 0.0
N1481 N 0.48584 0.37789 0.93644 0.0
C1482 C 0.45848 0.37409 0.99766 0.0
C1483 C 0.47993 0.37746 0.9568 0.0
N1484 N 0.44592 0.31537 0.99847 0.0
N1485 N 0.50803 0.43879 0.95891 0.0
H1486 H 0.48189 0.35644 0.92819 0.0
H1487 H 0.4918 0.39876 0.92739 0.0
H1488 H 0.51525 0.46176 0.96638 0.0
H1489 H 0.52126 0.44202 0.94538 0.0
H1490 H 0.44216 0.31342 0.01406 0.0
H1491 H 0.4429 0.29314 0.99165 0.0
H1492 H 0.42899 0.34903 0.0237 0.0
H1493 H 0.44716 0.39307 0.02427 0.0
C1494 C 0.10705 0.62824 0.06086 0.0
C1495 C 0.12658 0.65783 0.04919 0.0
C1496 C 0.09067 0.62824 0.01921 0.0
C1497 C 0.07287 0.59775 0.03049 0.0
N1498 N 0.06938 0.56714 0.06099 0.0
N1499 N 0.14012 0.68569 0.01695 0.0
C1500 C 0.08231 0.59737 0.05108 0.0
C1501 C 0.11925 0.65775 0.02826 0.0
N1502 N 0.11208 0.62964 0.08139 0.0
N1503 N 0.07958 0.62934 1.00007 0.0
H1504 H 0.16033 0.70817 0.02325 0.0
H1505 H 0.13894 0.68597 1.00121 0.0
H1506 H 0.05954 0.6081 0.99276 0.0
H1507 H 0.0886 0.65167 0.9919 0.0
H1508 H 0.09571 0.61022 0.09105 0.0
H1509 H 0.13099 0.65132 0.08908 0.0
H1510 H 0.0784 0.56473 0.07509 0.0
H1511 H 0.05205 0.54371 0.05436 0.0
C1512 C 0.35548 0.4345 0.03302 0.0
C1513 C 0.34526 0.45615 0.04274 0.0
C1514 C 0.40484 0.50393 0.03951 0.0
C1515 C 0.416 0.48146 0.03195 0.0
N1516 N 0.40208 0.42284 0.02757 0.0
N1517 N 0.36312 0.50982 0.05999 0.0
C1518 C 0.3914 0.44596 0.03055 0.0
C1519 C 0.37065 0.49053 0.04717 0.0
N1520 N 0.33095 0.4033 0.02555 0.0
N1521 N 0.42694 0.53827 0.03964 0.0
H1522 H 0.33924 0.50052 0.06713 0.0
H1523 H 0.38181 0.53383 0.06542 0.0
H1524 H 0.45264 0.54906 0.03536 0.0
H1525 H 0.41894 0.55595 0.04249 0.0
H1526 H 0.33717 0.38776 0.01688 0.0
H1527 H 0.30438 0.39478 0.02593 0.0
H1528 H 0.38542 0.39659 0.0285 0.0
H1529 H 0.42802 0.42991 0.02607 0.0
C1530 C 0.5664 0.8972 0.01593 0.0
C1531 C 0.56383 0.88933 0.03679 0.0
C1532 C 0.52548 0.91275 0.04164 0.0
C1533 C 0.53267 0.92596 0.02168 0.0
N1534 N 0.56458 0.93425 0.99062 0.0
N1535 N 0.54512 0.89411 0.07033 0.0
C1536 C 0.55404 0.91878 0.00889 0.0
C1537 C 0.54454 0.89836 0.04989 0.0
N1538 N 0.58053 0.88395 1.00286 0.0
N1539 N 0.49924 0.91241 0.05246 0.0
H1540 H 0.55862 0.88342 0.07707 0.0
H1541 H 0.53476 0.904 0.08075 0.0
H1542 H 0.48286 0.92004 0.0463 0.0
H1543 H 0.49082 0.90032 0.06632 0.0
H1544 H 0.57973 0.88583 0.98717 0.0
H1545 H 0.59022 0.86841 0.00759 0.0
H1546 H 0.58304 0.93274 0.98168 0.0
H1547 H 0.55773 0.95158 0.98536 0.0
C1548 C 0.03871 0.20784 0.36377 0.0
C1549 C 0.01877 0.21895 0.37463 0.0
C1550 C 0.06233 0.27853 0.36798 0.0
C1551 C 0.08464 0.26745 0.35967 0.0
N1552 N 0.09567 0.22134 0.35259 0.0
N1553 N 0.00939 0.26388 0.38655 0.0
C1554 C 0.07306 0.23201 0.35813 0.0
C1555 C 0.02964 0.25408 0.3762 0.0
N1556 N 0.0249 0.17399 0.35915 0.0
N1557 N 0.07329 0.31256 0.36903 0.0
H1558 H 0.98481 0.24635 0.39191 0.0
H1559 H 0.01685 0.28895 0.39038 0.0
H1560 H 0.09801 0.33124 0.36468 0.0
H1561 H 0.05766 0.32258 0.37324 0.0
H1562 H 0.03681 0.16469 0.34946 0.0
H1563 H 0.99992 0.15556 0.3634 0.0
H1564 H 0.09027 0.19626 0.35378 0.0
H1565 H 0.1207 0.23805 0.34771 0.0
C1566 C 0.73187 0.75386 0.37613 0.0
C1567 C 0.76753 0.77927 0.37534 0.0
C1568 C 0.75103 0.82099 0.36465 0.0
C1569 C 0.71522 0.79495 0.36358 0.0
N1570 N 0.67287 0.73482 0.36494 0.0
N1571 N 0.81137 0.83503 0.36483 0.0
C1572 C 0.70611 0.76087 0.36839 0.0
C1573 C 0.77715 0.8122 0.36838 0.0
N1574 N 0.72243 0.7233 0.38494 0.0
N1575 N 0.76043 0.85442 0.36307 0.0
H1576 H 0.8312 0.8295 0.36728 0.0
H1577 H 0.81974 0.85815 0.35762 0.0
H1578 H 0.74285 0.86227 0.36001 0.0
H1579 H 0.78535 0.87452 0.36629 0.0
H1580 H 0.69681 0.70514 0.38808 0.0
H1581 H 0.74036 0.71717 0.39083 0.0
H1582 H 0.66522 0.70918 0.36648 0.0
H1583 H 0.65362 0.73839 0.35834 0.0
C1584 C 0.23264 0.97877 0.38769 0.0
C1585 C 0.23303 0.00442 0.37557 0.0
C1586 C 0.19129 0.96043 0.35199 0.0
C1587 C 0.1938 0.93503 0.36307 0.0
N1588 N 0.19891 0.92033 0.39754 0.0
N1589 N 0.21435 0.02054 0.34544 0.0
C1590 C 0.20946 0.94417 0.38271 0.0
C1591 C 0.21288 0.99552 0.35746 0.0
N1592 N 0.25496 0.98736 0.40383 0.0
N1593 N 0.1647 0.95104 0.33852 0.0
H1594 H 0.22807 0.04633 0.34949 0.0
H1595 H 0.20398 0.01593 0.33081 0.0
H1596 H 0.1444 0.9261 0.33735 0.0
H1597 H 0.15931 0.96823 0.33136 0.0
H1598 H 0.25815 0.9694 0.41182 0.0
H1599 H 0.27275 0.01257 0.4079 0.0
H1600 H 0.20767 0.92619 0.4125 0.0
H1601 H 0.17716 0.89616 0.39575 0.0
C1602 C 0.53858 0.67377 0.32526 0.0
C1603 C 0.54977 0.66311 0.308 0.0
C1604 C 0.5938 0.72236 0.30179 0.0
C1605 C 0.58661 0.73243 0.32083 0.0
N1606 N 0.53769 0.72095 0.34171 0.0
N1607 N 0.58994 0.67683 0.28044 0.0
C1608 C 0.55506 0.70911 0.33041 0.0
C1609 C 0.57789 0.6873 0.29641 0.0
N1610 N 0.51232 0.65018 0.33686 0.0
N1611 N 0.61206 0.74648 0.28768 0.0
H1612 H 0.57862 0.65138 0.27574 0.0
H1613 H 0.61292 0.69305 0.27297 0.0
H1614 H 0.61788 0.77161 0.28972 0.0
H1615 H 0.616 0.7408 0.27292 0.0
H1616 H 0.50591 0.65617 0.35091 0.0
H1617 H 0.4988 0.62421 0.3332 0.0
H1618 H 0.51286 0.70525 0.34734 0.0
H1619 H 0.54503 0.74657 0.34207 0.0
C1620 C 0.30641 0.85943 0.32236 0.0
C1621 C 0.32633 0.88683 0.30926 0.0
C1622 C 0.27508 0.89176 0.30203 0.0
C1623 C 0.25511 0.86647 0.31678 0.0
N1624 N 0.24923 0.81589 0.33225 0.0
N1625 N 0.33158 0.93366 0.28977 0.0
C1626 C 0.27012 0.84753 0.32482 0.0
C1627 C 0.3113 0.90454 0.3003 0.0
N1628 N 0.32235 0.84511 0.33277 0.0
N1629 N 0.25901 0.89983 0.28726 0.0
H1630 H 0.35804 0.94332 0.28732 0.0
H1631 H 0.32282 0.94998 0.28514 0.0
H1632 H 0.23278 0.88506 0.28405 0.0
H1633 H 0.27207 0.91612 0.27537 0.0
H1634 H 0.31046 0.8278 0.34439 0.0
H1635 H 0.34863 0.85297 0.33102 0.0
H1636 H 0.25799 0.79947 0.33663 0.0
H1637 H 0.22257 0.80397 0.33095 0.0
C1638 C 0.16105 0.46003 0.31074 0.0
C1639 C 0.12661 0.45126 0.30589 0.0
C1640 C 0.10546 0.39541 0.32124 0.0
C1641 C 0.14034 0.4023 0.32305 0.0
N1642 N 0.19985 0.43804 0.31277 0.0
N1643 N 0.06553 0.41 0.3051 0.0
C1644 C 0.16789 0.43402 0.31634 0.0
C1645 C 0.09855 0.41882 0.31087 0.0
N1646 N 0.18746 0.49299 0.30923 0.0
N1647 N 0.07901 0.3669 0.32963 0.0
H1648 H 0.05963 0.42708 0.29817 0.0
H1649 H 0.04444 0.38534 0.3061 0.0
H1650 H 0.08311 0.34915 0.33702 0.0
H1651 H 0.05364 0.36226 0.33066 0.0
H1652 H 0.21266 0.50104 0.31434 0.0
H1653 H 0.1834 0.51276 0.30481 0.0
H1654 H 0.22016 0.45978 0.30634 0.0
H1655 H 0.20411 0.41761 0.31319 0.0
C1656 C 0.31431 0.44732 0.32525 0.0
C1657 C 0.32996 0.43496 0.31154 0.0
C1658 C 0.27656 0.37931 0.31044 0.0
C1659 C 0.25957 0.39226 0.32299 0.0
N1660 N 0.26087 0.44191 0.33761 0.0
N1661 N 0.32503 0.39098 0.28861 0.0
C1662 C 0.27813 0.42718 0.32917 0.0
C1663 C 0.3109 0.40133 0.30357 0.0
N1664 N 0.33405 0.47831 0.33463 0.0
N1665 N 0.25931 0.34589 0.30457 0.0
H1666 H 0.35029 0.4061 0.28336 0.0
H1667 H 0.31111 0.3685 0.2802 0.0
H1668 H 0.2339 0.32953 0.3088 0.0
H1669 H 0.2708 0.33355 0.29733 0.0
H1670 H 0.32484 0.48716 0.34635 0.0
H1671 H 0.36054 0.49387 0.33188 0.0
H1672 H 0.27191 0.46811 0.33997 0.0
H1673 H 0.23479 0.42783 0.34132 0.0
C1674 C 0.54767 0.84437 0.30419 0.0
C1675 C 0.55984 0.87989 0.30534 0.0
C1676 C 0.61729 0.89008 0.31601 0.0
C1677 C 0.60406 0.85439 0.31743 0.0
N1678 N 0.55535 0.79728 0.31365 0.0
N1679 N 0.60427 0.93596 0.31643 0.0
C1680 C 0.56876 0.83153 0.3119 0.0
C1681 C 0.59409 0.90257 0.31246 0.0
N1682 N 0.51703 0.82306 0.29435 0.0
N1683 N 0.65221 0.91213 0.31713 0.0
H1684 H 0.58773 0.94586 0.31459 0.0
H1685 H 0.62776 0.95282 0.32358 0.0
H1686 H 0.66993 0.90377 0.31893 0.0
H1687 H 0.66359 0.93808 0.31422 0.0
H1688 H 0.5087 0.79761 0.29092 0.0
H1689 H 0.50133 0.8314 0.28778 0.0
H1690 H 0.52886 0.77961 0.31285 0.0
H1691 H 0.57066 0.7867 0.31702 0.0
C1692 C 0.12485 0.67612 0.31936 0.0
C1693 C 0.13846 0.67887 0.29961 0.0
C1694 C 0.16152 0.7405 0.30038 0.0
C1695 C 0.14518 0.73747 0.31934 0.0
N1696 N 0.10965 0.70261 0.34659 0.0
N1697 N 0.16574 0.71226 0.27004 0.0
C1698 C 0.12651 0.70533 0.32883 0.0
C1699 C 0.15565 0.71067 0.28976 0.0
N1700 N 0.11109 0.64573 0.32918 0.0
N1701 N 0.18408 0.77203 0.29292 0.0
H1702 H 0.16274 0.69112 0.26184 0.0
H1703 H 0.17453 0.73392 0.26124 0.0
H1704 H 0.18941 0.79473 0.30012 0.0
H1705 H 0.20004 0.77593 0.28053 0.0
H1706 H 0.10408 0.6427 0.34437 0.0
H1707 H 0.10863 0.62367 0.32245 0.0
H1708 H 0.09215 0.67951 0.35309 0.0
H1709 H 0.11178 0.72367 0.35439 0.0
C1710 C 0.77339 0.96075 0.39233 0.0
C1711 C 0.79297 0.99034 0.3807 0.0
C1712 C 0.7569 0.96088 0.35077 0.0
C1713 C 0.73925 0.9302 0.36191 0.0
N1714 N 0.73635 0.89963 0.3924 0.0
N1715 N 0.80689 0.01791 0.34837 0.0
C1716 C 0.74891 0.92983 0.38249 0.0
C1717 C 0.78577 0.99019 0.35976 0.0
N1718 N 0.77804 0.96219 0.41289 0.0
N1719 N 0.74518 0.96259 0.33196 0.0
H1720 H 0.82736 0.04029 0.3546 0.0
H1721 H 0.8057 0.01793 0.33261 0.0
H1722 H 0.7242 0.94183 0.32498 0.0
H1723 H 0.75431 0.98513 0.32399 0.0
H1724 H 0.76151 0.94271 0.42248 0.0
H1725 H 0.79668 0.98395 0.42065 0.0
H1726 H 0.7457 0.89742 0.40645 0.0
H1727 H 0.7191 0.87608 0.38588 0.0
C1728 C 0.03371 0.77112 0.38463 0.0
C1729 C 0.01869 0.7924 0.38528 0.0
C1730 C 0.0725 0.83808 0.37063 0.0
C1731 C 0.08417 0.81471 0.36621 0.0
N1732 N 0.07273 0.75671 0.36784 0.0
N1733 N 0.03964 0.85122 0.39418 0.0
C1734 C 0.06377 0.78054 0.3728 0.0
C1735 C 0.04205 0.82766 0.38232 0.0
N1736 N 0.02338 0.74538 0.39818 0.0
N1737 N 0.09066 0.87061 0.36382 0.0
H1738 H 0.02359 0.84399 0.40683 0.0
H1739 H 0.05767 0.87723 0.39387 0.0
H1740 H 0.11303 0.87904 0.35536 0.0
H1741 H 0.08142 0.88766 0.36487 0.0
H1742 H 0.03585 0.73124 0.39986 0.0
H1743 H 0.006 0.74194 0.40976 0.0
H1744 H 0.05686 0.73088 0.3709 0.0
H1745 H 0.09379 0.76207 0.35872 0.0
C1746 C 0.24217 0.23803 0.35412 0.0
C1747 C 0.2303 0.2206 0.3726 0.0
C1748 C 0.18899 0.24121 0.37571 0.0
C1749 C 0.20428 0.26245 0.35868 0.0
N1750 N 0.25202 0.28725 0.33544 0.0
N1751 N 0.19545 0.20881 0.4026 0.0
C1752 C 0.23238 0.26221 0.34869 0.0
C1753 C 0.2043 0.2228 0.38379 0.0
N1754 N 0.26316 0.2318 0.34186 0.0
N1755 N 0.15968 0.2383 0.38416 0.0
H1756 H 0.20591 0.19501 0.40906 0.0
H1757 H 0.17983 0.21317 0.41251 0.0
H1758 H 0.1484 0.25214 0.37922 0.0
H1759 H 0.14497 0.22011 0.39489 0.0
H1760 H 0.26992 0.24155 0.32731 0.0
H1761 H 0.27094 0.21425 0.34547 0.0
H1762 H 0.27463 0.29016 0.32887 0.0
H1763 H 0.24833 0.30785 0.33357 0.0
C1764 C 0.72274 0.56734 0.72117 0.0
C1765 C 0.68999 0.55993 0.71328 0.0
C1766 C 0.7193 0.61176 0.69323 0.0
C1767 C 0.75192 0.61413 0.69711 0.0
N1768 N 0.78427 0.59345 0.71619 0.0
N1769 N 0.65716 0.57379 0.68999 0.0
C1770 C 0.75348 0.59143 0.7113 0.0
C1771 C 0.68821 0.5818 0.69879 0.0
N1772 N 0.72462 0.55321 0.73901 0.0
N1773 N 0.71786 0.63852 0.68498 0.0
H1774 H 0.63405 0.55148 0.69318 0.0
H1775 H 0.65503 0.5878 0.67823 0.0
H1776 H 0.73999 0.66107 0.68081 0.0
H1777 H 0.6948 0.63914 0.68372 0.0
H1778 H 0.74781 0.56075 0.74682 0.0
H1779 H 0.7028 0.53709 0.74744 0.0
H1780 H 0.78608 0.57552 0.72503 0.0
H1781 H 0.80794 0.61146 0.71041 0.0
C1782 C 0.4475 0.14181 0.69342 0.0
C1783 C 0.43943 0.11496 0.70706 0.0
C1784 C 0.38579 0.11405 0.71591 0.0
C1785 C 0.39025 0.13635 0.69972 0.0
N1786 N 0.43506 0.18543 0.68292 0.0
N1787 N 0.39875 0.07279 0.72995 0.0
C1788 C 0.42383 0.15423 0.69095 0.0
C1789 C 0.4078 0.10008 0.71773 0.0
N1790 N 0.47744 0.15499 0.68252 0.0
N1791 N 0.36464 0.11091 0.73166 0.0
H1792 H 0.41466 0.06236 0.73247 0.0
H1793 H 0.37409 0.05882 0.73623 0.0
H1794 H 0.35597 0.12814 0.73377 0.0
H1795 H 0.36203 0.09681 0.74456 0.0
H1796 H 0.48314 0.17215 0.67081 0.0
H1797 H 0.49536 0.14668 0.68416 0.0
H1798 H 0.46052 0.20156 0.67834 0.0
H1799 H 0.42022 0.19711 0.68361 0.0
C1800 C 0.88126 0.33059 0.69304 0.0
C1801 C 0.90034 0.33953 0.71151 0.0
C1802 C 0.87639 0.2792 0.71886 0.0
C1803 C 0.86194 0.27021 0.69892 0.0
N1804 N 0.8331 0.28624 0.67427 0.0
N1805 N 0.91988 0.3226 0.74092 0.0
C1806 C 0.85971 0.29557 0.68767 0.0
C1807 C 0.899 0.31389 0.7241 0.0
N1808 N 0.88366 0.35549 0.68054 0.0
N1809 N 0.86498 0.25517 0.73361 0.0
H1810 H 0.93698 0.34785 0.74527 0.0
H1811 H 0.92262 0.30476 0.74935 0.0
H1812 H 0.84333 0.23098 0.7315 0.0
H1813 H 0.87282 0.26083 0.74873 0.0
H1814 H 0.87381 0.3505 0.66577 0.0
H1815 H 0.89768 0.38137 0.68435 0.0
H1816 H 0.82755 0.30356 0.6674 0.0
H1817 H 0.813 0.26125 0.67301 0.0
C1818 C 0.23131 0.02184 0.62624 0.0
C1819 C 0.22041 0.99436 0.63971 0.0
C1820 C 0.25324 0.03464 0.66722 0.0
C1821 C 0.26096 0.0625 0.65432 0.0
N1822 N 0.24857 0.08099 0.62271 0.0
N1823 N 0.2145 0.97488 0.67407 0.0
C1824 C 0.24747 0.05563 0.63415 0.0
C1825 C 0.22924 0.00087 0.66056 0.0
N1826 N 0.22734 0.0159 0.60578 0.0
N1827 N 0.27054 0.03986 0.6852 0.0
H1828 H 0.19672 0.94981 0.66974 0.0
H1829 H 0.21737 0.97889 0.68972 0.0
H1830 H 0.28995 0.06372 0.69014 0.0
H1831 H 0.26834 0.02005 0.69409 0.0
H1832 H 0.23838 0.03537 0.59523 0.0
H1833 H 0.21601 0.99153 0.59928 0.0
H1834 H 0.2362 0.07662 0.60865 0.0
H1835 H 0.25787 0.10551 0.6283 0.0
C1836 C 0.9635 0.20734 0.62573 0.0
C1837 C 0.98968 0.21137 0.63963 0.0
C1838 C 0.9456 0.18681 0.6661 0.0
C1839 C 0.9214 0.18898 0.65335 0.0
N1840 N 0.90189 0.17587 0.61904 0.0
N1841 N 0.00548 0.20355 0.67337 0.0
C1842 C 0.92869 0.19232 0.63241 0.0
C1843 C 0.98068 0.20052 0.65991 0.0
N1844 N 0.97172 0.2184 0.6063 0.0
N1845 N 0.93356 0.166 0.68213 0.0
H1846 H 0.03115 0.21204 0.66924 0.0
H1847 H 0.00079 0.19943 0.68884 0.0
H1848 H 0.90702 0.15241 0.68449 0.0
H1849 H 0.94857 0.15883 0.69064 0.0
H1850 H 0.95376 0.21886 0.5963 0.0
H1851 H 0.99697 0.22954 0.60073 0.0
H1852 H 0.90514 0.17515 0.60344 0.0
H1853 H 0.87744 0.15794 0.62434 0.0
C1854 C 0.81002 0.79271 0.65647 0.0
C1855 C 0.799 0.78703 0.63597 0.0
C1856 C 0.81278 0.74151 0.63311 0.0
C1857 C 0.82071 0.74449 0.65415 0.0
N1858 N 0.84572 0.78633 0.68143 0.0
N1859 N 0.783 0.75181 0.60588 0.0
C1860 C 0.82413 0.77349 0.66499 0.0
C1861 C 0.79789 0.75982 0.62474 0.0
N1862 N 0.80757 0.81696 0.66766 0.0
N1863 N 0.82477 0.72562 0.62056 0.0
H1864 H 0.77183 0.76495 0.59933 0.0
H1865 H 0.77867 0.73009 0.59779 0.0
H1866 H 0.84246 0.71856 0.62568 0.0
H1867 H 0.82213 0.72475 0.60483 0.0
H1868 H 0.81166 0.81989 0.68328 0.0
H1869 H 0.79804 0.83188 0.66161 0.0
H1870 H 0.85054 0.80835 0.68929 0.0
H1871 H 0.86435 0.77962 0.68461 0.0
C1872 C 0.97993 0.77788 0.65595 0.0
C1873 C 0.9946 0.76902 0.63952 0.0
C1874 C 0.93733 0.72209 0.63081 0.0
C1875 C 0.92445 0.7249 0.64989 0.0
N1876 N 0.9268 0.76916 0.67117 0.0
N1877 N 0.98674 0.73098 0.61141 0.0
C1878 C 0.94379 0.75669 0.66021 0.0
C1879 C 0.97321 0.74045 0.62707 0.0
N1880 N 0.00046 0.80623 0.66752 0.0
N1881 N 0.9148 0.7076 0.61497 0.0
H1882 H 0.01311 0.74393 0.60787 0.0
H1883 H 0.97185 0.7085 0.60305 0.0
H1884 H 0.88999 0.70432 0.61608 0.0
H1885 H 0.92257 0.70647 0.60022 0.0
H1886 H 0.99193 0.8125 0.6807 0.0
H1887 H 0.02673 0.8225 0.66451 0.0
H1888 H 0.93849 0.79396 0.67702 0.0
H1889 H 0.90005 0.75573 0.67204 0.0
C1890 C 0.25684 0.22656 0.63885 0.0
C1891 C 0.22051 0.20379 0.63974 0.0
C1892 C 0.23118 0.15844 0.65104 0.0
C1893 C 0.26751 0.18218 0.6523 0.0
N1894 N 0.31415 0.24066 0.65029 0.0
N1895 N 0.17268 0.14968 0.64976 0.0
C1896 C 0.28007 0.21679 0.64708 0.0
C1897 C 0.20754 0.17014 0.64668 0.0
N1898 N 0.26932 0.25705 0.62927 0.0
N1899 N 0.21911 0.1246 0.65394 0.0
H1900 H 0.15466 0.15747 0.64683 0.0
H1901 H 0.16194 0.12621 0.65687 0.0
H1902 H 0.23504 0.11534 0.6587 0.0
H1903 H 0.19367 0.10559 0.65073 0.0
H1904 H 0.29549 0.27295 0.62599 0.0
H1905 H 0.25326 0.26504 0.62275 0.0
H1906 H 0.32399 0.26676 0.64886 0.0
H1907 H 0.33181 0.23486 0.65673 0.0
C1908 C 0.82583 0.02619 0.65097 0.0
C1909 C 0.79989 0.01002 0.6358 0.0
C1910 C 0.77845 0.04868 0.64441 0.0
C1911 C 0.80923 0.06984 0.65582 0.0
N1912 N 0.86695 0.08087 0.66497 0.0
N1913 N 0.75432 0.01008 0.61571 0.0
C1914 C 0.83412 0.05901 0.65809 0.0
C1915 C 0.77684 0.02235 0.63181 0.0
N1916 N 0.84308 0.01065 0.65827 0.0
N1917 N 0.75002 0.05231 0.64645 0.0
H1918 H 0.75296 0.99149 0.60568 0.0
H1919 H 0.73943 0.02086 0.61132 0.0
H1920 H 0.74882 0.06765 0.65788 0.0
H1921 H 0.72634 0.03624 0.63922 0.0
H1922 H 0.86037 0.02056 0.67052 0.0
H1923 H 0.83714 0.98624 0.65355 0.0
H1924 H 0.88628 0.07429 0.66575 0.0
H1925 H 0.87637 0.10681 0.66652 0.0
C1926 C 0.45241 0.32345 0.69599 0.0
C1927 C 0.46404 0.32233 0.71584 0.0
C1928 C 0.42534 0.26049 0.71627 0.0
C1929 C 0.41068 0.26195 0.69739 0.0
N1930 N 0.40773 0.29552 0.67015 0.0
N1931 N 0.45736 0.29108 0.74642 0.0
C1932 C 0.42361 0.29362 0.68742 0.0
C1933 C 0.44923 0.29122 0.72643 0.0
N1934 N 0.46954 0.35272 0.68512 0.0
N1935 N 0.41794 0.22976 0.72406 0.0
H1936 H 0.47478 0.31309 0.75447 0.0
H1937 H 0.4444 0.26972 0.75549 0.0
H1938 H 0.40161 0.20645 0.71688 0.0
H1939 H 0.43089 0.22745 0.73657 0.0
H1940 H 0.46489 0.35413 0.66979 0.0
H1941 H 0.49041 0.37514 0.69102 0.0
H1942 H 0.41319 0.3184 0.66356 0.0
H1943 H 0.38728 0.27424 0.66314 0.0
C1944 C 0.6897 0.10106 0.70075 0.0
C1945 C 0.67904 0.1241 0.70761 0.0
C1946 C 0.73657 0.17213 0.69979 0.0
C1947 C 0.74875 0.14915 0.69533 0.0
N1948 N 0.73715 0.09083 0.69464 0.0
N1949 N 0.69312 0.18153 0.71596 0.0
C1950 C 0.72538 0.11333 0.69661 0.0
C1951 C 0.70259 0.15967 0.70757 0.0
N1952 N 0.66549 0.06744 0.69765 0.0
N1953 N 0.75758 0.20609 0.69646 0.0
H1954 H 0.6685 0.17345 0.72186 0.0
H1955 H 0.71043 0.20735 0.7186 0.0
H1956 H 0.78291 0.21607 0.69152 0.0
H1957 H 0.7491 0.22373 0.69691 0.0
H1958 H 0.67103 0.05014 0.69047 0.0
H1959 H 0.63909 0.05752 0.70045 0.0
H1960 H 0.72236 0.06519 0.69834 0.0
H1961 H 0.76224 0.09782 0.69034 0.0
C1962 C 0.8656 0.55019 0.71056 0.0
C1963 C 0.90055 0.55956 0.70647 0.0
C1964 C 0.90691 0.60708 0.68599 0.0
C1965 C 0.87164 0.59715 0.68978 0.0
N1966 N 0.81469 0.55093 0.69865 0.0
N1967 N 0.95103 0.59057 0.68555 0.0
C1968 C 0.85002 0.56605 0.69979 0.0
C1969 C 0.92028 0.58621 0.69279 0.0
N1970 N 0.84764 0.52733 0.72538 0.0
N1971 N 0.92755 0.63612 0.67558 0.0
H1972 H 0.961 0.57495 0.68959 0.0
H1973 H 0.96494 0.60735 0.67403 0.0
H1974 H 0.9178 0.64978 0.66827 0.0
H1975 H 0.95447 0.64728 0.67484 0.0
H1976 H 0.82332 0.52243 0.73031 0.0
H1977 H 0.85839 0.51592 0.73418 0.0
H1978 H 0.79808 0.5267 0.70425 0.0
H1979 H 0.8019 0.56048 0.6901 0.0
C1980 C 0.50371 0.99554 0.17731 0.0
C1981 C 0.47576 0.96294 0.1826 0.0
C1982 C 0.4518 0.95466 0.148 0.0
C1983 C 0.47859 0.98803 0.14313 0.0
N1984 N 0.53422 0.03693 0.15093 0.0
N1985 N 0.42753 0.90853 0.17226 0.0
C1986 C 0.50601 0.00732 0.15711 0.0
C1987 C 0.45132 0.94144 0.16762 0.0
N1988 N 0.52738 0.01563 0.19185 0.0
N1989 N 0.42599 0.93634 0.1341 0.0
H1990 H 0.42571 0.89854 0.18664 0.0
H1991 H 0.41108 0.89036 0.16166 0.0
H1992 H 0.42664 0.94467 0.11935 0.0
H1993 H 0.4034 0.9136 0.13721 0.0
H1994 H 0.54589 0.04114 0.18989 0.0
H1995 H 0.52771 0.00709 0.20641 0.0
H1996 H 0.55662 0.05111 0.15964 0.0
H1997 H 0.53638 0.04601 0.13625 0.0
C1998 C 0.03224 0.49455 0.1665 0.0
C1999 C 0.03784 0.52228 0.17928 0.0
C2000 C 0.00327 0.53598 0.15642 0.0
C2001 C 0.99534 0.50664 0.14454 0.0
N2002 N 0.99782 0.45512 0.13948 0.0
N2003 N 0.02448 0.56605 0.18854 0.0
C2004 C 0.00857 0.48506 0.14993 0.0
C2005 C 0.02213 0.54206 0.17485 0.0
N2006 N 0.05043 0.47805 0.16983 0.0
N2007 N 0.99384 0.55866 0.14972 0.0
H2008 H 0.03821 0.57132 0.2022 0.0
H2009 H 0.01047 0.57871 0.18719 0.0
H2010 H 0.97983 0.55501 0.13632 0.0
H2011 H 0.00228 0.58241 0.15653 0.0
H2012 H 0.05048 0.46021 0.15976 0.0
H2013 H 0.06772 0.48404 0.18196 0.0
H2014 H 0.00354 0.43653 0.14399 0.0
H2015 H 0.98077 0.44753 0.12711 0.0
C2016 C 0.46232 0.50739 0.16881 0.0
C2017 C 0.48077 0.50102 0.18408 0.0
C2018 C 0.50393 0.47836 0.15838 0.0
C2019 C 0.48124 0.47965 0.14378 0.0
N2020 N 0.43825 0.49478 0.13464 0.0
N2021 N 0.51766 0.47862 0.19395 0.0
C2022 C 0.46061 0.4945 0.14878 0.0
C2023 C 0.50157 0.48641 0.17898 0.0
N2024 N 0.44665 0.52593 0.17352 0.0
N2025 N 0.52777 0.46944 0.15242 0.0
H2026 H 0.51704 0.48451 0.20921 0.0
H2027 H 0.52964 0.4642 0.19148 0.0
H2028 H 0.53003 0.46347 0.13738 0.0
H2029 H 0.54732 0.47103 0.16188 0.0
H2030 H 0.4356 0.53435 0.16277 0.0
H2031 H 0.44719 0.53533 0.18811 0.0
H2032 H 0.4195 0.50143 0.13791 0.0
H2033 H 0.43725 0.48662 0.11968 0.0
C2034 C 0.96797 0.49202 0.85003 0.0
C2035 C 0.9932 0.49905 0.83489 0.0
C2036 C 0.03936 0.52425 0.86064 0.0
C2037 C 0.01494 0.52291 0.87484 0.0
N2038 N 0.95594 0.50674 0.8833 0.0
N2039 N 0.05364 0.5255 0.82527 0.0
C2040 C 0.97908 0.50667 0.86973 0.0
C2041 C 0.02912 0.51571 0.84007 0.0
N2042 N 0.93351 0.47116 0.84554 0.0
N2043 N 0.07239 0.53387 0.86688 0.0
H2044 H 0.04756 0.52067 0.80989 0.0
H2045 H 0.08016 0.54112 0.82808 0.0
H2046 H 0.08056 0.54023 0.88194 0.0
H2047 H 0.09045 0.53222 0.85762 0.0
H2048 H 0.91402 0.46252 0.85637 0.0
H2049 H 0.92471 0.45995 0.83124 0.0
H2050 H 0.93021 0.49894 0.87962 0.0
H2051 H 0.96302 0.5166 0.89801 0.0
C2052 C 0.54836 0.49461 0.85406 0.0
C2053 C 0.52551 0.47737 0.83748 0.0
C2054 C 0.47674 0.47199 0.85751 0.0
C2055 C 0.50034 0.49369 0.8727 0.0
N2056 N 0.5598 0.53111 0.88352 0.0
N2057 N 0.46881 0.45613 0.82201 0.0
C2058 C 0.53655 0.50655 0.87047 0.0
C2059 C 0.48986 0.46777 0.8388 0.0
N2060 N 0.58088 0.49848 0.85457 0.0
N2061 N 0.44183 0.45464 0.86111 0.0
H2062 H 0.47769 0.45426 0.80771 0.0
H2063 H 0.44349 0.45186 0.82186 0.0
H2064 H 0.43124 0.45631 0.87487 0.0
H2065 H 0.42385 0.43593 0.85124 0.0
H2066 H 0.59729 0.50809 0.86719 0.0
H2067 H 0.59003 0.48872 0.8433 0.0
H2068 H 0.58657 0.54376 0.88125 0.0
H2069 H 0.55234 0.54125 0.89545 0.0
C2070 C 0.53437 0.02412 0.83826 0.0
C2071 C 0.51317 0.03541 0.82894 0.0
C2072 C 0.47677 0.02043 0.85926 0.0
C2073 C 0.49756 0.00851 0.86838 0.0
N2074 N 0.55054 0.0064 0.86907 0.0
N2075 N 0.46956 0.0518 0.83186 0.0
C2076 C 0.52793 0.01293 0.85867 0.0
C2077 C 0.48611 0.03605 0.83994 0.0
N2078 N 0.55948 0.02241 0.82723 0.0
N2079 N 0.44729 0.01545 0.86872 0.0
H2080 H 0.47581 0.06329 0.81771 0.0
H2081 H 0.45182 0.05606 0.83976 0.0
H2082 H 0.44048 0.00539 0.88321 0.0
H2083 H 0.42866 0.01964 0.8619 0.0
H2084 H 0.573 0.01061 0.83227 0.0
H2085 H 0.56548 0.03104 0.81241 0.0
H2086 H 0.57482 0.01213 0.86365 0.0
H2087 H 0.54629 0.99796 0.88399 0.0
C2088 C 0.13067 0.28079 0.50324 0.0
C2089 C 0.15405 0.30042 0.51911 0.0
C2090 C 0.18842 0.34558 0.49503 0.0
C2091 C 0.16185 0.32876 0.48022 0.0
N2092 N 0.10576 0.28123 0.47062 0.0
N2093 N 0.20274 0.35402 0.53074 0.0
C2094 C 0.13259 0.29634 0.4843 0.0
C2095 C 0.18255 0.33338 0.51516 0.0
N2096 N 0.10692 0.24722 0.50622 0.0
N2097 N 0.21932 0.37328 0.4898 0.0
H2098 H 0.19881 0.34675 0.54586 0.0
H2099 H 0.22135 0.37958 0.5289 0.0
H2100 H 0.22449 0.38257 0.47507 0.0
H2101 H 0.24087 0.38472 0.49947 0.0
H2102 H 0.09142 0.23071 0.49464 0.0
H2103 H 0.10506 0.23507 0.51987 0.0
H2104 H 0.08208 0.2596 0.47379 0.0
H2105 H 0.1061 0.29166 0.45658 0.0
C2106 C 0.70106 0.83166 0.4989 0.0
C2107 C 0.70119 0.85483 0.51363 0.0
C2108 C 0.66206 0.86467 0.49233 0.0
C2109 C 0.65931 0.83915 0.47857 0.0
N2110 N 0.67081 0.79367 0.47054 0.0
N2111 N 0.67616 0.88777 0.52649 0.0
C2112 C 0.6772 0.82118 0.4824 0.0
C2113 C 0.67996 0.86966 0.51098 0.0
N2114 N 0.72473 0.82087 0.50014 0.0
N2115 N 0.64884 0.88512 0.48725 0.0
H2116 H 0.68831 0.89138 0.54058 0.0
H2117 H 0.65832 0.89628 0.52607 0.0
H2118 H 0.63592 0.88263 0.47357 0.0
H2119 H 0.65348 0.90653 0.49575 0.0
H2120 H 0.72822 0.80692 0.48867 0.0
H2121 H 0.74313 0.82842 0.51179 0.0
H2122 H 0.68037 0.77747 0.4739 0.0
H2123 H 0.65334 0.78513 0.45835 0.0
C2124 C 0.1286 0.84156 0.49993 0.0
C2125 C 0.14678 0.83432 0.51492 0.0
C2126 C 0.16735 0.80965 0.48894 0.0
C2127 C 0.14478 0.8119 0.47467 0.0
N2128 N 0.10372 0.82974 0.46595 0.0
N2129 N 0.18253 0.81039 0.5243 0.0
C2130 C 0.12571 0.82829 0.4799 0.0
C2131 C 0.16635 0.8185 0.50955 0.0
N2132 N 0.11427 0.8612 0.50492 0.0
N2133 N 0.18972 0.79903 0.48267 0.0
H2134 H 0.18313 0.81713 0.53953 0.0
H2135 H 0.19353 0.79512 0.52174 0.0
H2136 H 0.19087 0.79229 0.46763 0.0
H2137 H 0.2092 0.79981 0.49183 0.0
H2138 H 0.10343 0.87016 0.49438 0.0
H2139 H 0.11572 0.87089 0.51954 0.0
H2140 H 0.08598 0.83763 0.46938 0.0
H2141 H 0.10202 0.82141 0.45097 0.0
C2142 C 0.67761 0.87063 0.17224 0.0
C2143 C 0.65708 0.83708 0.16419 0.0
C2144 C 0.66194 0.81301 0.19621 0.0
C2145 C 0.68294 0.84659 0.20415 0.0
N2146 N 0.70256 0.90653 0.20221 0.0
N2147 N 0.62184 0.77684 0.16978 0.0
C2148 C 0.688 0.87516 0.19295 0.0
C2149 C 0.64657 0.8084 0.17668 0.0
N2150 N 0.68877 0.89807 0.15987 0.0
N2151 N 0.65826 0.78569 0.20682 0.0
H2152 H 0.61018 0.77285 0.1555 0.0
H2153 H 0.61057 0.7553 0.17881 0.0
H2154 H 0.66884 0.78791 0.22126 0.0
H2155 H 0.6467 0.76102 0.20082 0.0
H2156 H 0.70717 0.92283 0.16427 0.0
H2157 H 0.68132 0.89588 0.14468 0.0
H2158 H 0.70396 0.92782 0.19547 0.0
H2159 H 0.7103 0.9105 0.21742 0.0
C2160 C 0.15027 0.78847 0.17315 0.0
C2161 C 0.18644 0.8087 0.16958 0.0
C2162 C 0.19302 0.84369 0.19971 0.0
C2163 C 0.15749 0.82147 0.20428 0.0
N2164 N 0.10378 0.76912 0.19754 0.0
N2165 N 0.24349 0.85203 0.18098 0.0
C2166 C 0.13648 0.79284 0.1916 0.0
C2167 C 0.20822 0.83539 0.18328 0.0
N2168 N 0.12893 0.76572 0.15866 0.0
N2169 N 0.21195 0.87324 0.21068 0.0
H2170 H 0.25557 0.8468 0.16905 0.0
H2171 H 0.26093 0.86902 0.19174 0.0
H2172 H 0.20172 0.88025 0.2228 0.0
H2173 H 0.23684 0.89219 0.20672 0.0
H2174 H 0.10192 0.75291 0.15946 0.0
H2175 H 0.13805 0.76186 0.1449 0.0
H2176 H 0.08869 0.74586 0.19002 0.0
H2177 H 0.09282 0.77125 0.21105 0.0
C2178 C 0.19659 0.38481 0.17944 0.0
C2179 C 0.17299 0.36721 0.1632 0.0
C2180 C 0.13484 0.32337 0.18696 0.0
C2181 C 0.16154 0.33703 0.20191 0.0
N2182 N 0.22066 0.3792 0.2111 0.0
N2183 N 0.12275 0.3149 0.15113 0.0
C2184 C 0.19316 0.36758 0.19794 0.0
C2185 C 0.14272 0.33527 0.16685 0.0
N2186 N 0.22195 0.41806 0.17732 0.0
N2187 N 0.1019 0.29895 0.19195 0.0
H2188 H 0.12884 0.32095 0.13596 0.0
H2189 H 0.10236 0.29009 0.15318 0.0
H2190 H 0.09498 0.29038 0.20675 0.0
H2191 H 0.08092 0.29022 0.18191 0.0
H2192 H 0.23793 0.43292 0.18928 0.0
H2193 H 0.22448 0.43174 0.16422 0.0
H2194 H 0.24531 0.39936 0.20779 0.0
H2195 H 0.21988 0.36683 0.22446 0.0
C2196 C 0.78104 0.61957 0.83703 0.0
C2197 C 0.79943 0.60685 0.84809 0.0
C2198 C 0.83755 0.61821 0.81884 0.0
C2199 C 0.8258 0.63969 0.81092 0.0
N2200 N 0.78407 0.65897 0.81165 0.0
N2201 N 0.82548 0.57228 0.8418 0.0
C2202 C 0.79668 0.63967 0.81968 0.0
C2203 C 0.822 0.5995 0.83669 0.0
N2204 N 0.74664 0.60722 0.84056 0.0
N2205 N 0.86439 0.6167 0.80984 0.0
H2206 H 0.81104 0.5561 0.8535 0.0
H2207 H 0.83907 0.56357 0.83311 0.0
H2208 H 0.87554 0.62906 0.79634 0.0
H2209 H 0.8767 0.60469 0.81637 0.0
H2210 H 0.73129 0.61379 0.8319 0.0
H2211 H 0.73256 0.58599 0.84965 0.0
H2212 H 0.76511 0.66233 0.81885 0.0
H2213 H 0.79396 0.67301 0.79848 0.0
C2214 C 0.35115 0.20613 0.8441 0.0
C2215 C 0.37083 0.18976 0.84731 0.0
C2216 C 0.34382 0.15376 0.81718 0.0
C2217 C 0.32763 0.17311 0.81263 0.0
N2218 N 0.32133 0.22212 0.81973 0.0
N2219 N 0.39072 0.15217 0.83489 0.0
C2220 C 0.33274 0.20052 0.82554 0.0
C2221 C 0.36847 0.16463 0.83332 0.0
N2222 N 0.34921 0.22628 0.85902 0.0
N2223 N 0.33497 0.12448 0.80646 0.0
H2224 H 0.40961 0.15991 0.84626 0.0
H2225 H 0.3926 0.13656 0.82385 0.0
H2226 H 0.31656 0.11533 0.79475 0.0
H2227 H 0.34335 0.10757 0.81046 0.0
H2228 H 0.33246 0.23607 0.85826 0.0
H2229 H 0.36172 0.23044 0.87303 0.0
H2230 H 0.32765 0.24461 0.82757 0.0
H2231 H 0.30834 0.21936 0.80604 0.0
C2232 C 0.78787 0.17437 0.83624 0.0
C2233 C 0.80658 0.16661 0.8506 0.0
C2234 C 0.82493 0.14142 0.82365 0.0
C2235 C 0.8019 0.14434 0.81004 0.0
N2236 N 0.76176 0.16386 0.80261 0.0
N2237 N 0.84312 0.14299 0.85854 0.0
C2238 C 0.78387 0.16142 0.81603 0.0
C2239 C 0.8256 0.15061 0.8444 0.0
N2240 N 0.77397 0.19407 0.84201 0.0
N2241 N 0.84619 0.12993 0.8166 0.0
H2242 H 0.84542 0.15063 0.87371 0.0
H2243 H 0.85393 0.12768 0.85556 0.0
H2244 H 0.84608 0.12291 0.80147 0.0
H2245 H 0.8659 0.13003 0.82519 0.0
H2246 H 0.76286 0.20348 0.83196 0.0
H2247 H 0.77589 0.20326 0.8568 0.0
H2248 H 0.74462 0.17226 0.80654 0.0
H2249 H 0.75943 0.15596 0.78749 0.0
C2250 C 0.29705 0.15672 0.51461 0.0
C2251 C 0.32378 0.16806 0.49999 0.0
C2252 C 0.36767 0.1974 0.52666 0.0
C2253 C 0.34087 0.19078 0.54055 0.0
N2254 N 0.27988 0.1652 0.54808 0.0
N2255 N 0.38454 0.20179 0.49152 0.0
C2256 C 0.30543 0.17031 0.53471 0.0
C2257 C 0.35918 0.18875 0.50588 0.0
N2258 N 0.2638 0.13279 0.50925 0.0
N2259 N 0.40127 0.21196 0.53344 0.0
H2260 H 0.37955 0.19622 0.47608 0.0
H2261 H 0.41022 0.22025 0.49468 0.0
H2262 H 0.40822 0.21854 0.54865 0.0
H2263 H 0.42165 0.21449 0.52448 0.0
H2264 H 0.24369 0.12101 0.51959 0.0
H2265 H 0.25694 0.12252 0.4946 0.0
H2266 H 0.25373 0.15402 0.54406 0.0
H2267 H 0.28508 0.17396 0.56308 0.0
C2268 C 0.88156 0.17223 0.51571 0.0
C2269 C 0.85789 0.14627 0.5022 0.0
C2270 C 0.80995 0.13338 0.52536 0.0
C2271 C 0.83295 0.16146 0.53787 0.0
N2272 N 0.88957 0.21086 0.54365 0.0
N2273 N 0.79883 0.10594 0.49229 0.0
C2274 C 0.86852 0.18181 0.5327 0.0
C2275 C 0.82184 0.1279 0.5065 0.0
N2276 N 0.91655 0.18694 0.51268 0.0
N2277 N 0.77706 0.11126 0.53183 0.0
H2278 H 0.80653 0.10135 0.47824 0.0
H2279 H 0.77198 0.09461 0.49365 0.0
H2280 H 0.76746 0.11424 0.54565 0.0
H2281 H 0.76037 0.08831 0.52441 0.0
H2282 H 0.93518 0.20321 0.52319 0.0
H2283 H 0.92708 0.18075 0.50035 0.0
H2284 H 0.91467 0.22871 0.53932 0.0
H2285 H 0.88101 0.21864 0.55623 0.0
C2286 C 0.808 0.66163 0.50086 0.0
C2287 C 0.8407 0.69099 0.49702 0.0
C2288 C 0.85977 0.68812 0.5316 0.0
C2289 C 0.82593 0.66067 0.53588 0.0
N2290 N 0.76537 0.62879 0.52615 0.0
N2291 N 0.89453 0.73707 0.51058 0.0
C2292 C 0.79925 0.64992 0.521 0.0
C2293 C 0.86562 0.70581 0.51299 0.0
N2294 N 0.78599 0.6435 0.48521 0.0
N2295 N 0.88679 0.69625 0.54466 0.0
H2296 H 0.89922 0.7511 0.49738 0.0
H2297 H 0.91188 0.75047 0.52237 0.0
H2298 H 0.88406 0.68338 0.55812 0.0
H2299 H 0.91255 0.71367 0.54121 0.0
H2300 H 0.76343 0.62008 0.48719 0.0
H2301 H 0.79204 0.64972 0.47004 0.0
H2302 H 0.74467 0.6226 0.51625 0.0
H2303 H 0.75783 0.62061 0.54095 0.0
loop_
_geom_bond_atom_site_label_1
_geom_bond_atom_site_label_2
_geom_bond_distance
_geom_bond_site_symmetry_2
_ccdc_geom_bond_type
P0 O11 1.490 . S
P0 C14 1.812 . S
P0 C20 1.803 . S
P0 C26 1.819 . S
H1 C15 0.941 . S
H2 C16 0.939 . S
H3 C18 0.940 . S
H4 C19 0.940 . S
H5 C21 0.939 . S
H6 C22 0.942 . S
H7 C24 0.940 . S
H8 C25 0.939 . S
H9 C27 0.941 . S
H10 C31 0.939 . S
O11 P0 1.490 . S
H12 C28 0.939 . S
H13 C30 0.940 . S
C14 P0 1.812 . S
C14 C15 1.389 . S
C14 C19 1.391 . S
C15 H1 0.941 . S
C15 C14 1.389 . S
C15 C16 1.397 . S
C16 H2 0.939 . S
C16 C15 1.397 . S
C16 C17 1.378 . S
C17 C16 1.378 . S
C17 C18 1.378 . S
C18 H3 0.940 . S
C18 C17 1.378 . S
C18 C19 1.396 . S
C19 H4 0.940 . S
C19 C14 1.391 . S
C19 C18 1.396 . S
C20 P0 1.803 . S
C20 C21 1.378 . S
C20 C25 1.400 . S
C21 H5 0.939 . S
C21 C20 1.378 . S
C21 C22 1.361 . S
C22 H6 0.942 . S
C22 C21 1.361 . S
C22 C23 1.369 . S
C23 C22 1.369 . S
C23 C24 1.404 . S
C24 H7 0.940 . S
C24 C23 1.404 . S
C24 C25 1.389 . S
C25 H8 0.939 . S
C25 C20 1.400 . S
C25 C24 1.389 . S
C26 P0 1.819 . S
C26 C27 1.391 . S
C26 C31 1.391 . S
C27 H9 0.941 . S
C27 C26 1.391 . S
C27 C28 1.396 . S
C28 H12 0.939 . S
C28 C27 1.396 . S
C28 C29 1.397 . S
C29 C28 1.397 . S
C29 C30 1.385 . S
C30 H13 0.940 . S
C30 C29 1.385 . S
C30 C31 1.388 . S
C31 H10 0.939 . S
C31 C26 1.391 . S
C31 C30 1.388 . S
P32 O43 1.490 . S
P32 C46 1.812 . S
P32 C52 1.803 . S
P32 C58 1.819 . S
H33 C47 0.941 . S
H34 C48 0.939 . S
H35 C50 0.940 . S
H36 C51 0.940 . S
H37 C53 0.939 . S
H38 C54 0.942 1_455 S
H39 C56 0.940 . S
H40 C57 0.939 . S
H41 C59 0.941 . S
H42 C63 0.939 . S
O43 P32 1.490 . S
H44 C60 0.939 . S
H45 C62 0.940 . S
C46 P32 1.812 . S
C46 C47 1.389 . S
C46 C51 1.391 . S
C47 H33 0.941 . S
C47 C46 1.389 . S
C47 C48 1.397 . S
C48 H34 0.939 . S
C48 C47 1.397 . S
C48 C49 1.378 . S
C49 C48 1.378 . S
C49 C50 1.378 . S
C50 H35 0.940 . S
C50 C49 1.378 . S
C50 C51 1.396 . S
C51 H36 0.940 . S
C51 C46 1.391 . S
C51 C50 1.396 . S
C52 P32 1.803 . S
C52 C53 1.378 . S
C52 C57 1.400 . S
C53 H37 0.939 . S
C53 C52 1.378 . S
C53 C54 1.361 . S
C54 H38 0.942 1_655 S
C54 C53 1.361 . S
C54 C55 1.369 . S
C55 C54 1.369 . S
C55 C56 1.404 . S
C56 H39 0.940 . S
C56 C55 1.404 . S
C56 C57 1.389 . S
C57 H40 0.939 . S
C57 C52 1.400 . S
C57 C56 1.389 . S
C58 P32 1.819 . S
C58 C59 1.391 . S
C58 C63 1.391 . S
C59 H41 0.941 . S
C59 C58 1.391 . S
C59 C60 1.396 . S
C60 H44 0.939 . S
C60 C59 1.396 . S
C60 C61 1.397 . S
C61 C60 1.397 . S
C61 C62 1.385 . S
C62 H45 0.940 . S
C62 C61 1.385 . S
C62 C63 1.388 . S
C63 H42 0.939 . S
C63 C58 1.391 . S
C63 C62 1.388 . S
P64 O75 1.490 . S
P64 C78 1.812 . S
P64 C84 1.803 . S
P64 C90 1.819 . S
H65 C79 0.941 . S
H66 C80 0.939 . S
H67 C82 0.940 . S
H68 C83 0.940 . S
H69 C85 0.939 . S
H70 C86 0.942 . S
H71 C88 0.940 . S
H72 C89 0.939 . S
H73 C91 0.941 . S
H74 C95 0.939 . S
O75 P64 1.490 . S
H76 C92 0.939 . S
H77 C94 0.940 . S
C78 P64 1.812 . S
C78 C79 1.389 . S
C78 C83 1.391 . S
C79 H65 0.941 . S
C79 C78 1.389 . S
C79 C80 1.397 . S
C80 H66 0.939 . S
C80 C79 1.397 . S
C80 C81 1.378 . S
C81 C80 1.378 . S
C81 C82 1.378 . S
C82 H67 0.940 . S
C82 C81 1.378 . S
C82 C83 1.396 . S
C83 H68 0.940 . S
C83 C78 1.391 . S
C83 C82 1.396 . S
C84 P64 1.803 . S
C84 C85 1.378 . S
C84 C89 1.400 . S
C85 H69 0.939 . S
C85 C84 1.378 . S
C85 C86 1.361 . S
C86 H70 0.942 . S
C86 C85 1.361 . S
C86 C87 1.369 . S
C87 C86 1.369 . S
C87 C88 1.404 . S
C88 H71 0.940 . S
C88 C87 1.404 . S
C88 C89 1.389 . S
C89 H72 0.939 . S
C89 C84 1.400 . S
C89 C88 1.389 . S
C90 P64 1.819 . S
C90 C91 1.391 . S
C90 C95 1.391 . S
C91 H73 0.941 . S
C91 C90 1.391 . S
C91 C92 1.396 . S
C92 H76 0.939 . S
C92 C91 1.396 . S
C92 C93 1.397 . S
C93 C92 1.397 . S
C93 C94 1.385 . S
C94 H77 0.940 . S
C94 C93 1.385 . S
C94 C95 1.388 . S
C95 H74 0.939 . S
C95 C90 1.391 . S
C95 C94 1.388 . S
P96 O107 1.490 . S
P96 C110 1.812 . S
P96 C116 1.803 . S
P96 C122 1.819 . S
H97 C111 0.941 . S
H98 C112 0.939 . S
H99 C114 0.940 . S
H100 C115 0.940 . S
H101 C117 0.939 . S
H102 C118 0.942 . S
H103 C120 0.940 . S
H104 C121 0.939 . S
H105 C123 0.941 . S
H106 C127 0.939 . S
O107 P96 1.490 . S
H108 C124 0.939 . S
H109 C126 0.940 . S
C110 P96 1.812 . S
C110 C111 1.389 . S
C110 C115 1.391 . S
C111 H97 0.941 . S
C111 C110 1.389 . S
C111 C112 1.397 . S
C112 H98 0.939 . S
C112 C111 1.397 . S
C112 C113 1.378 . S
C113 C112 1.378 . S
C113 C114 1.378 . S
C114 H99 0.940 . S
C114 C113 1.378 . S
C114 C115 1.396 . S
C115 H100 0.940 . S
C115 C110 1.391 . S
C115 C114 1.396 . S
C116 P96 1.803 . S
C116 C117 1.378 . S
C116 C121 1.400 . S
C117 H101 0.939 . S
C117 C116 1.378 . S
C117 C118 1.361 . S
C118 H102 0.942 . S
C118 C117 1.361 . S
C118 C119 1.369 . S
C119 C118 1.369 . S
C119 C120 1.404 . S
C120 H103 0.940 . S
C120 C119 1.404 . S
C120 C121 1.389 . S
C121 H104 0.939 . S
C121 C116 1.400 . S
C121 C120 1.389 . S
C122 P96 1.819 . S
C122 C123 1.391 . S
C122 C127 1.391 . S
C123 H105 0.941 . S
C123 C122 1.391 . S
C123 C124 1.396 . S
C124 H108 0.939 . S
C124 C123 1.396 . S
C124 C125 1.397 . S
C125 C124 1.397 . S
C125 C126 1.385 . S
C126 H109 0.940 . S
C126 C125 1.385 . S
C126 C127 1.388 . S
C127 H106 0.939 . S
C127 C122 1.391 . S
C127 C126 1.388 . S
P128 O139 1.490 . S
P128 C142 1.812 . S
P128 C148 1.803 . S
P128 C154 1.819 . S
H129 C143 0.941 . S
H130 C144 0.939 . S
H131 C146 0.940 . S
H132 C147 0.940 . S
H133 C149 0.939 . S
H134 C150 0.942 . S
H135 C152 0.940 . S
H136 C153 0.939 . S
H137 C155 0.941 . S
H138 C159 0.939 . S
O139 P128 1.490 . S
H140 C156 0.939 . S
H141 C158 0.940 . S
C142 P128 1.812 . S
C142 C143 1.389 . S
C142 C147 1.391 . S
C143 H129 0.941 . S
C143 C142 1.389 . S
C143 C144 1.397 . S
C144 H130 0.939 . S
C144 C143 1.397 . S
C144 C145 1.378 . S
C145 C144 1.378 . S
C145 C146 1.378 . S
C146 H131 0.940 . S
C146 C145 1.378 . S
C146 C147 1.396 . S
C147 H132 0.940 . S
C147 C142 1.391 . S
C147 C146 1.396 . S
C148 P128 1.803 . S
C148 C149 1.378 . S
C148 C153 1.400 . S
C149 H133 0.939 . S
C149 C148 1.378 . S
C149 C150 1.361 . S
C150 H134 0.942 . S
C150 C149 1.361 . S
C150 C151 1.369 . S
C151 C150 1.369 . S
C151 C152 1.404 . S
C152 H135 0.940 . S
C152 C151 1.404 . S
C152 C153 1.389 . S
C153 H136 0.939 . S
C153 C148 1.400 . S
C153 C152 1.389 . S
C154 P128 1.819 . S
C154 C155 1.391 . S
C154 C159 1.391 . S
C155 H137 0.941 . S
C155 C154 1.391 . S
C155 C156 1.396 . S
C156 H140 0.939 . S
C156 C155 1.396 . S
C156 C157 1.397 . S
C157 C156 1.397 . S
C157 C158 1.385 . S
C158 H141 0.940 . S
C158 C157 1.385 . S
C158 C159 1.388 . S
C159 H138 0.939 . S
C159 C154 1.391 . S
C159 C158 1.388 . S
P160 O171 1.490 . S
P160 C174 1.812 . S
P160 C180 1.803 . S
P160 C186 1.819 . S
H161 C175 0.941 . S
H162 C176 0.939 . S
H163 C178 0.940 . S
H164 C179 0.940 . S
H165 C181 0.939 . S
H166 C182 0.942 . S
H167 C184 0.940 . S
H168 C185 0.939 . S
H169 C187 0.941 . S
H170 C191 0.939 . S
O171 P160 1.490 . S
H172 C188 0.939 . S
H173 C190 0.940 . S
C174 P160 1.812 . S
C174 C175 1.389 . S
C174 C179 1.391 . S
C175 H161 0.941 . S
C175 C174 1.389 . S
C175 C176 1.397 . S
C176 H162 0.939 . S
C176 C175 1.397 . S
C176 C177 1.378 . S
C177 C176 1.378 . S
C177 C178 1.378 . S
C178 H163 0.940 . S
C178 C177 1.378 . S
C178 C179 1.396 . S
C179 H164 0.940 . S
C179 C174 1.391 . S
C179 C178 1.396 . S
C180 P160 1.803 . S
C180 C181 1.378 . S
C180 C185 1.400 . S
C181 H165 0.939 . S
C181 C180 1.378 . S
C181 C182 1.361 . S
C182 H166 0.942 . S
C182 C181 1.361 . S
C182 C183 1.369 . S
C183 C182 1.369 . S
C183 C184 1.404 . S
C184 H167 0.940 . S
C184 C183 1.404 . S
C184 C185 1.389 . S
C185 H168 0.939 . S
C185 C180 1.400 . S
C185 C184 1.389 . S
C186 P160 1.819 . S
C186 C187 1.391 . S
C186 C191 1.391 . S
C187 H169 0.941 . S
C187 C186 1.391 . S
C187 C188 1.396 . S
C188 H172 0.939 . S
C188 C187 1.396 . S
C188 C189 1.397 . S
C189 C188 1.397 . S
C189 C190 1.385 . S
C190 H173 0.940 . S
C190 C189 1.385 . S
C190 C191 1.388 . S
C191 H170 0.939 . S
C191 C186 1.391 . S
C191 C190 1.388 . S
P192 O203 1.490 . S
P192 C206 1.812 . S
P192 C212 1.803 . S
P192 C218 1.819 . S
H193 C207 0.941 . S
H194 C208 0.939 . S
H195 C210 0.940 . S
H196 C211 0.940 . S
H197 C213 0.939 . S
H198 C214 0.942 . S
H199 C216 0.940 . S
H200 C217 0.939 . S
H201 C219 0.941 . S
H202 C223 0.939 . S
O203 P192 1.490 . S
H204 C220 0.939 . S
H205 C222 0.940 . S
C206 P192 1.812 . S
C206 C207 1.389 . S
C206 C211 1.391 . S
C207 H193 0.941 . S
C207 C206 1.389 . S
C207 C208 1.397 . S
C208 H194 0.939 . S
C208 C207 1.397 . S
C208 C209 1.378 . S
C209 C208 1.378 . S
C209 C210 1.378 . S
C210 H195 0.940 . S
C210 C209 1.378 . S
C210 C211 1.396 . S
C211 H196 0.940 . S
C211 C206 1.391 . S
C211 C210 1.396 . S
C212 P192 1.803 . S
C212 C213 1.378 . S
C212 C217 1.400 . S
C213 H197 0.939 . S
C213 C212 1.378 . S
C213 C214 1.361 . S
C214 H198 0.942 . S
C214 C213 1.361 . S
C214 C215 1.369 . S
C215 C214 1.369 . S
C215 C216 1.404 . S
C216 H199 0.940 . S
C216 C215 1.404 . S
C216 C217 1.389 . S
C217 H200 0.939 . S
C217 C212 1.400 . S
C217 C216 1.389 . S
C218 P192 1.819 . S
C218 C219 1.391 . S
C218 C223 1.391 . S
C219 H201 0.941 . S
C219 C218 1.391 . S
C219 C220 1.396 . S
C220 H204 0.939 . S
C220 C219 1.396 . S
C220 C221 1.397 . S
C221 C220 1.397 . S
C221 C222 1.385 . S
C222 H205 0.940 . S
C222 C221 1.385 . S
C222 C223 1.388 . S
C223 H202 0.939 . S
C223 C218 1.391 . S
C223 C222 1.388 . S
P224 O235 1.490 . S
P224 C238 1.812 . S
P224 C244 1.803 . S
P224 C250 1.819 . S
H225 C239 0.941 . S
H226 C240 0.939 . S
H227 C242 0.940 . S
H228 C243 0.940 . S
H229 C245 0.939 . S
H230 C246 0.942 . S
H231 C248 0.940 . S
H232 C249 0.939 . S
H233 C251 0.941 . S
H234 C255 0.939 . S
O235 P224 1.490 . S
H236 C252 0.939 . S
H237 C254 0.940 . S
C238 P224 1.812 . S
C238 C239 1.389 . S
C238 C243 1.391 . S
C239 H225 0.941 . S
C239 C238 1.389 . S
C239 C240 1.397 . S
C240 H226 0.939 . S
C240 C239 1.397 . S
C240 C241 1.378 . S
C241 C240 1.378 . S
C241 C242 1.378 . S
C242 H227 0.940 . S
C242 C241 1.378 . S
C242 C243 1.396 . S
C243 H228 0.940 . S
C243 C238 1.391 . S
C243 C242 1.396 . S
C244 P224 1.803 . S
C244 C245 1.378 . S
C244 C249 1.400 . S
C245 H229 0.939 . S
C245 C244 1.378 . S
C245 C246 1.361 . S
C246 H230 0.942 . S
C246 C245 1.361 . S
C246 C247 1.369 . S
C247 C246 1.369 . S
C247 C248 1.404 . S
C248 H231 0.940 . S
C248 C247 1.404 . S
C248 C249 1.389 . S
C249 H232 0.939 . S
C249 C244 1.400 . S
C249 C248 1.389 . S
C250 P224 1.819 . S
C250 C251 1.391 . S
C250 C255 1.391 . S
C251 H233 0.941 . S
C251 C250 1.391 . S
C251 C252 1.396 . S
C252 H236 0.939 . S
C252 C251 1.396 . S
C252 C253 1.397 . S
C253 C252 1.397 . S
C253 C254 1.385 . S
C254 H237 0.940 . S
C254 C253 1.385 . S
C254 C255 1.388 . S
C255 H234 0.939 . S
C255 C250 1.391 . S
C255 C254 1.388 . S
P256 O267 1.490 . S
P256 C270 1.812 . S
P256 C276 1.803 . S
P256 C282 1.819 . S
H257 C271 0.941 . S
H258 C272 0.939 . S
H259 C274 0.940 . S
H260 C275 0.940 . S
H261 C277 0.939 . S
H262 C278 0.942 . S
H263 C280 0.940 . S
H264 C281 0.939 . S
H265 C283 0.941 . S
H266 C287 0.939 . S
O267 P256 1.490 . S
H268 C284 0.939 . S
H269 C286 0.940 . S
C270 P256 1.812 . S
C270 C271 1.389 . S
C270 C275 1.391 . S
C271 H257 0.941 . S
C271 C270 1.389 . S
C271 C272 1.397 . S
C272 H258 0.939 . S
C272 C271 1.397 . S
C272 C273 1.378 . S
C273 C272 1.378 . S
C273 C274 1.378 . S
C274 H259 0.940 . S
C274 C273 1.378 . S
C274 C275 1.396 . S
C275 H260 0.940 . S
C275 C270 1.391 . S
C275 C274 1.396 . S
C276 P256 1.803 . S
C276 C277 1.378 . S
C276 C281 1.400 . S
C277 H261 0.939 . S
C277 C276 1.378 . S
C277 C278 1.361 . S
C278 H262 0.942 . S
C278 C277 1.361 . S
C278 C279 1.369 . S
C279 C278 1.369 . S
C279 C280 1.404 . S
C280 H263 0.940 . S
C280 C279 1.404 . S
C280 C281 1.389 . S
C281 H264 0.939 . S
C281 C276 1.400 . S
C281 C280 1.389 . S
C282 P256 1.819 . S
C282 C283 1.391 . S
C282 C287 1.391 . S
C283 H265 0.941 . S
C283 C282 1.391 . S
C283 C284 1.396 . S
C284 H268 0.939 . S
C284 C283 1.396 . S
C284 C285 1.397 . S
C285 C284 1.397 . S
C285 C286 1.385 . S
C286 H269 0.940 . S
C286 C285 1.385 . S
C286 C287 1.388 . S
C287 H266 0.939 . S
C287 C282 1.391 . S
C287 C286 1.388 . S
P288 O299 1.490 . S
P288 C302 1.812 . S
P288 C308 1.803 . S
P288 C314 1.819 . S
H289 C303 0.941 . S
H290 C304 0.939 . S
H291 C306 0.940 . S
H292 C307 0.940 . S
H293 C309 0.939 . S
H294 C310 0.942 . S
H295 C312 0.940 . S
H296 C313 0.939 . S
H297 C315 0.941 . S
H298 C319 0.939 . S
O299 P288 1.490 . S
H300 C316 0.939 . S
H301 C318 0.940 . S
C302 P288 1.812 . S
C302 C303 1.389 . S
C302 C307 1.391 . S
C303 H289 0.941 . S
C303 C302 1.389 . S
C303 C304 1.397 . S
C304 H290 0.939 . S
C304 C303 1.397 . S
C304 C305 1.378 . S
C305 C304 1.378 . S
C305 C306 1.378 . S
C306 H291 0.940 . S
C306 C305 1.378 . S
C306 C307 1.396 . S
C307 H292 0.940 . S
C307 C302 1.391 . S
C307 C306 1.396 . S
C308 P288 1.803 . S
C308 C309 1.378 . S
C308 C313 1.400 . S
C309 H293 0.939 . S
C309 C308 1.378 . S
C309 C310 1.361 . S
C310 H294 0.942 . S
C310 C309 1.361 . S
C310 C311 1.369 . S
C311 C310 1.369 . S
C311 C312 1.404 . S
C312 H295 0.940 . S
C312 C311 1.404 . S
C312 C313 1.389 . S
C313 H296 0.939 . S
C313 C308 1.400 . S
C313 C312 1.389 . S
C314 P288 1.819 . S
C314 C315 1.391 . S
C314 C319 1.391 . S
C315 H297 0.941 . S
C315 C314 1.391 . S
C315 C316 1.396 . S
C316 H300 0.939 . S
C316 C315 1.396 . S
C316 C317 1.397 . S
C317 C316 1.397 . S
C317 C318 1.385 . S
C318 H301 0.940 . S
C318 C317 1.385 . S
C318 C319 1.388 . S
C319 H298 0.939 . S
C319 C314 1.391 . S
C319 C318 1.388 . S
P320 O331 1.490 . S
P320 C334 1.812 . S
P320 C340 1.803 . S
P320 C346 1.819 . S
H321 C335 0.941 . S
H322 C336 0.939 . S
H323 C338 0.940 . S
H324 C339 0.940 . S
H325 C341 0.939 . S
H326 C342 0.942 . S
H327 C344 0.940 . S
H328 C345 0.939 . S
H329 C347 0.941 . S
H330 C351 0.939 . S
O331 P320 1.490 . S
H332 C348 0.939 . S
H333 C350 0.940 . S
C334 P320 1.812 . S
C334 C335 1.389 . S
C334 C339 1.391 . S
C335 H321 0.941 . S
C335 C334 1.389 . S
C335 C336 1.397 . S
C336 H322 0.939 . S
C336 C335 1.397 . S
C336 C337 1.378 . S
C337 C336 1.378 . S
C337 C338 1.378 . S
C338 H323 0.940 . S
C338 C337 1.378 . S
C338 C339 1.396 . S
C339 H324 0.940 . S
C339 C334 1.391 . S
C339 C338 1.396 . S
C340 P320 1.803 . S
C340 C341 1.378 . S
C340 C345 1.400 . S
C341 H325 0.939 . S
C341 C340 1.378 . S
C341 C342 1.361 . S
C342 H326 0.942 . S
C342 C341 1.361 . S
C342 C343 1.369 . S
C343 C342 1.369 . S
C343 C344 1.404 . S
C344 H327 0.940 . S
C344 C343 1.404 . S
C344 C345 1.389 . S
C345 H328 0.939 . S
C345 C340 1.400 . S
C345 C344 1.389 . S
C346 P320 1.819 . S
C346 C347 1.391 . S
C346 C351 1.391 . S
C347 H329 0.941 . S
C347 C346 1.391 . S
C347 C348 1.396 . S
C348 H332 0.939 . S
C348 C347 1.396 . S
C348 C349 1.397 . S
C349 C348 1.397 . S
C349 C350 1.385 . S
C350 H333 0.940 . S
C350 C349 1.385 . S
C350 C351 1.388 . S
C351 H330 0.939 . S
C351 C346 1.391 . S
C351 C350 1.388 . S
P352 O363 1.490 . S
P352 C366 1.812 . S
P352 C372 1.803 . S
P352 C378 1.819 . S
H353 C367 0.941 . S
H354 C368 0.939 . S
H355 C370 0.940 . S
H356 C371 0.940 . S
H357 C373 0.939 . S
H358 C374 0.942 . S
H359 C376 0.940 . S
H360 C377 0.939 . S
H361 C379 0.941 . S
H362 C383 0.939 . S
O363 P352 1.490 . S
H364 C380 0.939 . S
H365 C382 0.940 . S
C366 P352 1.812 . S
C366 C367 1.389 . S
C366 C371 1.391 . S
C367 H353 0.941 . S
C367 C366 1.389 . S
C367 C368 1.397 . S
C368 H354 0.939 . S
C368 C367 1.397 . S
C368 C369 1.378 . S
C369 C368 1.378 . S
C369 C370 1.378 . S
C370 H355 0.940 . S
C370 C369 1.378 . S
C370 C371 1.396 . S
C371 H356 0.940 . S
C371 C366 1.391 . S
C371 C370 1.396 . S
C372 P352 1.803 . S
C372 C373 1.378 . S
C372 C377 1.400 . S
C373 H357 0.939 . S
C373 C372 1.378 . S
C373 C374 1.361 . S
C374 H358 0.942 . S
C374 C373 1.361 . S
C374 C375 1.369 . S
C375 C374 1.369 . S
C375 C376 1.404 . S
C376 H359 0.940 . S
C376 C375 1.404 . S
C376 C377 1.389 . S
C377 H360 0.939 . S
C377 C372 1.400 . S
C377 C376 1.389 . S
C378 P352 1.819 . S
C378 C379 1.391 . S
C378 C383 1.391 . S
C379 H361 0.941 . S
C379 C378 1.391 . S
C379 C380 1.396 . S
C380 H364 0.939 . S
C380 C379 1.396 . S
C380 C381 1.397 . S
C381 C380 1.397 . S
C381 C382 1.385 . S
C382 H365 0.940 . S
C382 C381 1.385 . S
C382 C383 1.388 . S
C383 H362 0.939 . S
C383 C378 1.391 . S
C383 C382 1.388 . S
P384 O395 1.490 . S
P384 C398 1.812 . S
P384 C404 1.803 . S
P384 C410 1.819 . S
H385 C399 0.941 . S
H386 C400 0.939 . S
H387 C402 0.940 . S
H388 C403 0.940 . S
H389 C405 0.939 . S
H390 C406 0.942 . S
H391 C408 0.940 . S
H392 C409 0.939 . S
H393 C411 0.941 . S
H394 C415 0.939 . S
O395 P384 1.490 . S
H396 C412 0.939 . S
H397 C414 0.940 . S
C398 P384 1.812 . S
C398 C399 1.389 . S
C398 C403 1.391 . S
C399 H385 0.941 . S
C399 C398 1.389 . S
C399 C400 1.397 . S
C400 H386 0.939 . S
C400 C399 1.397 . S
C400 C401 1.378 . S
C401 C400 1.378 . S
C401 C402 1.378 . S
C402 H387 0.940 . S
C402 C401 1.378 . S
C402 C403 1.396 . S
C403 H388 0.940 . S
C403 C398 1.391 . S
C403 C402 1.396 . S
C404 P384 1.803 . S
C404 C405 1.378 . S
C404 C409 1.400 . S
C405 H389 0.939 . S
C405 C404 1.378 . S
C405 C406 1.361 . S
C406 H390 0.942 . S
C406 C405 1.361 . S
C406 C407 1.369 . S
C407 C406 1.369 . S
C407 C408 1.404 . S
C408 H391 0.940 . S
C408 C407 1.404 . S
C408 C409 1.389 . S
C409 H392 0.939 . S
C409 C404 1.400 . S
C409 C408 1.389 . S
C410 P384 1.819 . S
C410 C411 1.391 . S
C410 C415 1.391 . S
C411 H393 0.941 . S
C411 C410 1.391 . S
C411 C412 1.396 . S
C412 H396 0.939 . S
C412 C411 1.396 . S
C412 C413 1.397 . S
C413 C412 1.397 . S
C413 C414 1.385 . S
C414 H397 0.940 . S
C414 C413 1.385 . S
C414 C415 1.388 . S
C415 H394 0.939 . S
C415 C410 1.391 . S
C415 C414 1.388 . S
P416 O427 1.490 . S
P416 C430 1.812 . S
P416 C436 1.803 . S
P416 C442 1.819 . S
H417 C431 0.941 . S
H418 C432 0.939 . S
H419 C434 0.940 . S
H420 C435 0.940 . S
H421 C437 0.939 . S
H422 C438 0.942 . S
H423 C440 0.940 . S
H424 C441 0.939 . S
H425 C443 0.941 . S
H426 C447 0.939 . S
O427 P416 1.490 . S
H428 C444 0.939 . S
H429 C446 0.940 . S
C430 P416 1.812 . S
C430 C431 1.389 . S
C430 C435 1.391 . S
C431 H417 0.941 . S
C431 C430 1.389 . S
C431 C432 1.397 . S
C432 H418 0.939 . S
C432 C431 1.397 . S
C432 C433 1.378 . S
C433 C432 1.378 . S
C433 C434 1.378 . S
C434 H419 0.940 . S
C434 C433 1.378 . S
C434 C435 1.396 . S
C435 H420 0.940 . S
C435 C430 1.391 . S
C435 C434 1.396 . S
C436 P416 1.803 . S
C436 C437 1.378 . S
C436 C441 1.400 . S
C437 H421 0.939 . S
C437 C436 1.378 . S
C437 C438 1.361 . S
C438 H422 0.942 . S
C438 C437 1.361 . S
C438 C439 1.369 . S
C439 C438 1.369 . S
C439 C440 1.404 . S
C440 H423 0.940 . S
C440 C439 1.404 . S
C440 C441 1.389 . S
C441 H424 0.939 . S
C441 C436 1.400 . S
C441 C440 1.389 . S
C442 P416 1.819 . S
C442 C443 1.391 . S
C442 C447 1.391 . S
C443 H425 0.941 . S
C443 C442 1.391 . S
C443 C444 1.396 . S
C444 H428 0.939 . S
C444 C443 1.396 . S
C444 C445 1.397 . S
C445 C444 1.397 . S
C445 C446 1.385 . S
C446 H429 0.940 . S
C446 C445 1.385 . S
C446 C447 1.388 . S
C447 H426 0.939 . S
C447 C442 1.391 . S
C447 C446 1.388 . S
P448 O459 1.490 . S
P448 C462 1.812 . S
P448 C468 1.803 . S
P448 C474 1.819 . S
H449 C463 0.941 . S
H450 C464 0.939 . S
H451 C466 0.940 . S
H452 C467 0.940 . S
H453 C469 0.939 . S
H454 C470 0.942 . S
H455 C472 0.940 . S
H456 C473 0.939 . S
H457 C475 0.941 . S
H458 C479 0.939 . S
O459 P448 1.490 . S
H460 C476 0.939 . S
H461 C478 0.940 . S
C462 P448 1.812 . S
C462 C463 1.389 . S
C462 C467 1.391 . S
C463 H449 0.941 . S
C463 C462 1.389 . S
C463 C464 1.397 . S
C464 H450 0.939 . S
C464 C463 1.397 . S
C464 C465 1.378 . S
C465 C464 1.378 . S
C465 C466 1.378 . S
C466 H451 0.940 . S
C466 C465 1.378 . S
C466 C467 1.396 . S
C467 H452 0.940 . S
C467 C462 1.391 . S
C467 C466 1.396 . S
C468 P448 1.803 . S
C468 C469 1.378 . S
C468 C473 1.400 . S
C469 H453 0.939 . S
C469 C468 1.378 . S
C469 C470 1.361 . S
C470 H454 0.942 . S
C470 C469 1.361 . S
C470 C471 1.369 . S
C471 C470 1.369 . S
C471 C472 1.404 . S
C472 H455 0.940 . S
C472 C471 1.404 . S
C472 C473 1.389 . S
C473 H456 0.939 . S
C473 C468 1.400 . S
C473 C472 1.389 . S
C474 P448 1.819 . S
C474 C475 1.391 . S
C474 C479 1.391 . S
C475 H457 0.941 . S
C475 C474 1.391 . S
C475 C476 1.396 . S
C476 H460 0.939 . S
C476 C475 1.396 . S
C476 C477 1.397 . S
C477 C476 1.397 . S
C477 C478 1.385 . S
C478 H461 0.940 . S
C478 C477 1.385 . S
C478 C479 1.388 . S
C479 H458 0.939 . S
C479 C474 1.391 . S
C479 C478 1.388 . S
P480 O491 1.490 . S
P480 C494 1.812 . S
P480 C500 1.803 . S
P480 C506 1.819 . S
H481 C495 0.941 . S
H482 C496 0.939 . S
H483 C498 0.940 . S
H484 C499 0.940 . S
H485 C501 0.939 . S
H486 C502 0.942 . S
H487 C504 0.940 . S
H488 C505 0.939 . S
H489 C507 0.941 . S
H490 C511 0.939 . S
O491 P480 1.490 . S
H492 C508 0.939 . S
H493 C510 0.940 . S
C494 P480 1.812 . S
C494 C495 1.389 . S
C494 C499 1.391 . S
C495 H481 0.941 . S
C495 C494 1.389 . S
C495 C496 1.397 . S
C496 H482 0.939 . S
C496 C495 1.397 . S
C496 C497 1.378 . S
C497 C496 1.378 . S
C497 C498 1.378 . S
C498 H483 0.940 . S
C498 C497 1.378 . S
C498 C499 1.396 . S
C499 H484 0.940 . S
C499 C494 1.391 . S
C499 C498 1.396 . S
C500 P480 1.803 . S
C500 C501 1.378 . S
C500 C505 1.400 . S
C501 H485 0.939 . S
C501 C500 1.378 . S
C501 C502 1.361 . S
C502 H486 0.942 . S
C502 C501 1.361 . S
C502 C503 1.369 . S
C503 C502 1.369 . S
C503 C504 1.404 . S
C504 H487 0.940 . S
C504 C503 1.404 . S
C504 C505 1.389 . S
C505 H488 0.939 . S
C505 C500 1.400 . S
C505 C504 1.389 . S
C506 P480 1.819 . S
C506 C507 1.391 . S
C506 C511 1.391 . S
C507 H489 0.941 . S
C507 C506 1.391 . S
C507 C508 1.396 . S
C508 H492 0.939 . S
C508 C507 1.396 . S
C508 C509 1.397 . S
C509 C508 1.397 . S
C509 C510 1.385 . S
C510 H493 0.940 . S
C510 C509 1.385 . S
C510 C511 1.388 . S
C511 H490 0.939 . S
C511 C506 1.391 . S
C511 C510 1.388 . S
P512 O523 1.490 . S
P512 C526 1.812 . S
P512 C532 1.803 . S
P512 C538 1.819 . S
H513 C527 0.941 . S
H514 C528 0.939 . S
H515 C530 0.940 . S
H516 C531 0.940 . S
H517 C533 0.939 . S
H518 C534 0.942 . S
H519 C536 0.940 . S
H520 C537 0.939 . S
H521 C539 0.941 . S
H522 C543 0.939 . S
O523 P512 1.490 . S
H524 C540 0.939 . S
H525 C542 0.940 . S
C526 P512 1.812 . S
C526 C527 1.389 . S
C526 C531 1.391 . S
C527 H513 0.941 . S
C527 C526 1.389 . S
C527 C528 1.397 . S
C528 H514 0.939 . S
C528 C527 1.397 . S
C528 C529 1.378 . S
C529 C528 1.378 . S
C529 C530 1.378 . S
C530 H515 0.940 . S
C530 C529 1.378 . S
C530 C531 1.396 . S
C531 H516 0.940 . S
C531 C526 1.391 . S
C531 C530 1.396 . S
C532 P512 1.803 . S
C532 C533 1.378 . S
C532 C537 1.400 . S
C533 H517 0.939 . S
C533 C532 1.378 . S
C533 C534 1.361 . S
C534 H518 0.942 . S
C534 C533 1.361 . S
C534 C535 1.369 . S
C535 C534 1.369 . S
C535 C536 1.404 . S
C536 H519 0.940 . S
C536 C535 1.404 . S
C536 C537 1.389 . S
C537 H520 0.939 . S
C537 C532 1.400 . S
C537 C536 1.389 . S
C538 P512 1.819 . S
C538 C539 1.391 . S
C538 C543 1.391 . S
C539 H521 0.941 . S
C539 C538 1.391 . S
C539 C540 1.396 . S
C540 H524 0.939 . S
C540 C539 1.396 . S
C540 C541 1.397 . S
C541 C540 1.397 . S
C541 C542 1.385 . S
C542 H525 0.940 . S
C542 C541 1.385 . S
C542 C543 1.388 . S
C543 H522 0.939 . S
C543 C538 1.391 . S
C543 C542 1.388 . S
P544 O555 1.490 . S
P544 C558 1.812 . S
P544 C564 1.803 . S
P544 C570 1.819 . S
H545 C559 0.941 . S
H546 C560 0.939 . S
H547 C562 0.940 . S
H548 C563 0.940 . S
H549 C565 0.939 . S
H550 C566 0.942 . S
H551 C568 0.940 . S
H552 C569 0.939 . S
H553 C571 0.941 . S
H554 C575 0.939 . S
O555 P544 1.490 . S
H556 C572 0.939 . S
H557 C574 0.940 . S
C558 P544 1.812 . S
C558 C559 1.389 . S
C558 C563 1.391 . S
C559 H545 0.941 . S
C559 C558 1.389 . S
C559 C560 1.397 . S
C560 H546 0.939 . S
C560 C559 1.397 . S
C560 C561 1.378 . S
C561 C560 1.378 . S
C561 C562 1.378 . S
C562 H547 0.940 . S
C562 C561 1.378 . S
C562 C563 1.396 . S
C563 H548 0.940 . S
C563 C558 1.391 . S
C563 C562 1.396 . S
C564 P544 1.803 . S
C564 C565 1.378 . S
C564 C569 1.400 . S
C565 H549 0.939 . S
C565 C564 1.378 . S
C565 C566 1.361 . S
C566 H550 0.942 . S
C566 C565 1.361 . S
C566 C567 1.369 . S
C567 C566 1.369 . S
C567 C568 1.404 . S
C568 H551 0.940 . S
C568 C567 1.404 . S
C568 C569 1.389 . S
C569 H552 0.939 . S
C569 C564 1.400 . S
C569 C568 1.389 . S
C570 P544 1.819 . S
C570 C571 1.391 . S
C570 C575 1.391 . S
C571 H553 0.941 . S
C571 C570 1.391 . S
C571 C572 1.396 . S
C572 H556 0.939 . S
C572 C571 1.396 . S
C572 C573 1.397 . S
C573 C572 1.397 . S
C573 C574 1.385 . S
C574 H557 0.940 . S
C574 C573 1.385 . S
C574 C575 1.388 . S
C575 H554 0.939 . S
C575 C570 1.391 . S
C575 C574 1.388 . S
Gd576 N607 2.661 . S
Gd576 N613 2.601 . S
Gd576 O620 2.545 . S
Gd576 O621 2.606 1_545 S
Gd576 O623 2.429 . S
Gd576 O624 2.545 1_545 S
Gd576 O625 2.412 . S
Gd576 O627 2.362 1_554 S
Gd576 O628 2.324 1_545 S
Gd576 C635 2.828 . S
Gd577 N586 2.661 . S
Gd577 N590 2.601 . S
Gd577 O621 2.362 1_556 S
Gd577 O622 2.324 1_565 S
Gd577 O626 2.545 . S
Gd577 O627 2.606 1_565 S
Gd577 O629 2.429 . S
Gd577 O630 2.545 1_565 S
Gd577 O631 2.412 . S
Gd577 C644 2.828 . S
C578 C581 1.417 . S
C578 C583 1.431 . S
C578 C584 1.412 . S
C579 C582 1.437 . S
C579 C583 1.317 . S
C579 H598 0.929 . S
C580 C581 1.426 . S
C580 C582 1.413 . S
C580 N590 1.359 . S
C581 C578 1.417 . S
C581 C580 1.426 . S
C581 N586 1.350 . S
C582 C579 1.437 . S
C582 C580 1.413 . S
C582 C592 1.391 . S
C583 C578 1.431 . S
C583 C579 1.317 . S
C583 H594 0.930 . S
C584 C578 1.412 . S
C584 C585 1.355 . S
C584 H596 0.930 . S
C585 C584 1.355 . S
C585 C587 1.402 . S
C585 H597 0.930 . S
N586 Gd577 2.661 . S
N586 C581 1.350 . S
N586 C587 1.307 . S
C587 C585 1.402 . S
C587 N586 1.307 . S
C587 H588 0.930 . S
H588 C587 0.930 . S
C589 N590 1.334 . S
C589 C591 1.394 . S
C589 H593 0.930 . S
N590 Gd577 2.601 . S
N590 C580 1.359 . S
N590 C589 1.334 . S
C591 C589 1.394 . S
C591 C592 1.359 . S
C591 H603 0.930 . S
C592 C582 1.391 . S
C592 C591 1.359 . S
C592 H604 0.929 . S
H593 C589 0.930 . S
H594 C583 0.930 . S
H595 C612 0.930 . S
H596 C584 0.930 . S
H597 C585 0.930 . S
H598 C579 0.929 . S
H599 C617 0.930 . S
H600 C608 0.930 . S
H601 C609 0.930 . S
H602 C633 0.929 . S
H603 C591 0.930 . S
H604 C592 0.929 . S
H605 C634 0.930 . S
H606 C615 0.930 . S
N607 Gd576 2.661 . S
N607 C611 1.350 . S
N607 C612 1.307 . S
C608 H600 0.930 . S
C608 C609 1.355 . S
C608 C610 1.412 . S
C609 H601 0.930 . S
C609 C608 1.355 . S
C609 C612 1.402 . S
C610 C608 1.412 . S
C610 C611 1.417 . S
C610 C634 1.431 . S
C611 N607 1.350 . S
C611 C610 1.417 . S
C611 C614 1.426 . S
C612 H595 0.930 . S
C612 N607 1.307 . S
C612 C609 1.402 . S
N613 Gd576 2.601 . S
N613 C614 1.359 . S
N613 C617 1.334 . S
C614 C611 1.426 . S
C614 N613 1.359 . S
C614 C618 1.413 . S
C615 H606 0.930 . S
C615 C616 1.359 . S
C615 C617 1.394 . S
C616 C615 1.359 . S
C616 C618 1.391 . S
C616 H619 0.929 . S
C617 H599 0.930 . S
C617 N613 1.334 . S
C617 C615 1.394 . S
C618 C614 1.413 . S
C618 C616 1.391 . S
C618 C633 1.437 . S
H619 C616 0.929 . S
O620 Gd576 2.545 . S
O620 C635 1.258 . S
O621 Gd576 2.606 1_565 S
O621 Gd577 2.362 1_554 S
O621 C632 1.284 . S
O622 Gd577 2.324 1_545 S
O622 C642 1.254 . S
O623 Gd576 2.429 . S
O623 C642 1.268 1_554 S
O624 Gd576 2.545 1_565 S
O624 C632 1.250 . S
O625 Gd576 2.412 . S
O625 C635 1.252 . S
O626 Gd577 2.545 . S
O626 C644 1.258 . S
O627 Gd576 2.362 1_556 S
O627 Gd577 2.606 1_545 S
O627 C643 1.284 . S
O628 Gd576 2.324 1_565 S
O628 C651 1.254 . S
O629 Gd577 2.429 . S
O629 C651 1.268 1_556 S
O630 Gd577 2.545 1_545 S
O630 C643 1.250 . S
O631 Gd577 2.412 . S
O631 C644 1.252 . S
C632 O621 1.284 . S
C632 O624 1.250 . S
C633 H602 0.929 . S
C633 C618 1.437 . S
C633 C634 1.317 . S
C634 H605 0.930 . S
C634 C610 1.431 . S
C634 C633 1.317 . S
C635 Gd576 2.828 . S
C635 O620 1.258 . S
C635 O625 1.252 . S
C635 C636 1.497 . S
C636 C635 1.497 . S
C636 C637 1.395 . S
C636 C638 1.380 1_545 S
C637 C636 1.395 . S
C637 C640 1.398 . S
C637 H652 0.930 . S
C638 C636 1.380 1_565 S
C638 C639 1.391 . S
C638 H653 0.930 . S
C639 C638 1.391 . S
C639 C641 1.387 1_565 S
C640 C637 1.398 . S
C640 C641 1.380 . S
C640 H654 0.930 . S
C641 C639 1.387 1_545 S
C641 C640 1.380 . S
C641 H655 0.930 . S
C642 O622 1.254 . S
C642 O623 1.268 1_556 S
C643 O627 1.284 . S
C643 O630 1.250 . S
C644 Gd577 2.828 . S
C644 O626 1.258 . S
C644 O631 1.252 . S
C644 C645 1.497 . S
C645 C644 1.497 . S
C645 C646 1.395 . S
C645 C647 1.380 1_565 S
C646 C645 1.395 . S
C646 C649 1.398 . S
C646 H656 0.930 . S
C647 C645 1.380 1_545 S
C647 C648 1.391 . S
C647 H657 0.930 . S
C648 C647 1.391 . S
C648 C650 1.387 1_545 S
C649 C646 1.398 . S
C649 C650 1.380 . S
C649 H658 0.930 . S
C650 C648 1.387 1_565 S
C650 C649 1.380 . S
C650 H659 0.930 . S
C651 O628 1.254 . S
C651 O629 1.268 1_554 S
H652 C637 0.930 . S
H653 C638 0.930 . S
H654 C640 0.930 . S
H655 C641 0.930 . S
H656 C646 0.930 . S
H657 C647 0.930 . S
H658 C649 0.930 . S
H659 C650 0.930 . S
Gd660 N691 2.661 . S
Gd660 N697 2.601 . S
Gd660 O704 2.545 . S
Gd660 O705 2.606 1_655 S
Gd660 O707 2.429 . S
Gd660 O708 2.545 1_655 S
Gd660 O709 2.412 . S
Gd660 O711 2.362 1_554 S
Gd660 O712 2.324 1_655 S
Gd660 C719 2.828 . S
Gd661 N670 2.661 . S
Gd661 N674 2.601 . S
Gd661 O705 2.362 1_556 S
Gd661 O706 2.324 1_455 S
Gd661 O710 2.545 . S
Gd661 O711 2.606 1_455 S
Gd661 O713 2.429 . S
Gd661 O714 2.545 1_455 S
Gd661 O715 2.412 . S
Gd661 C728 2.828 . S
C662 C665 1.417 . S
C662 C667 1.431 . S
C662 C668 1.412 . S
C663 C666 1.437 . S
C663 C667 1.317 . S
C663 H682 0.929 . S
C664 C665 1.426 . S
C664 C666 1.413 . S
C664 N674 1.359 . S
C665 C662 1.417 . S
C665 C664 1.426 . S
C665 N670 1.350 . S
C666 C663 1.437 . S
C666 C664 1.413 . S
C666 C676 1.391 . S
C667 C662 1.431 . S
C667 C663 1.317 . S
C667 H678 0.930 . S
C668 C662 1.412 . S
C668 C669 1.355 . S
C668 H680 0.930 . S
C669 C668 1.355 . S
C669 C671 1.402 . S
C669 H681 0.930 . S
N670 Gd661 2.661 . S
N670 C665 1.350 . S
N670 C671 1.307 . S
C671 C669 1.402 . S
C671 N670 1.307 . S
C671 H672 0.930 . S
H672 C671 0.930 . S
C673 N674 1.334 . S
C673 C675 1.394 . S
C673 H677 0.930 . S
N674 Gd661 2.601 . S
N674 C664 1.359 . S
N674 C673 1.334 . S
C675 C673 1.394 . S
C675 C676 1.359 . S
C675 H687 0.930 . S
C676 C666 1.391 . S
C676 C675 1.359 . S
C676 H688 0.929 . S
H677 C673 0.930 . S
H678 C667 0.930 . S
H679 C696 0.930 . S
H680 C668 0.930 . S
H681 C669 0.930 . S
H682 C663 0.929 . S
H683 C701 0.930 . S
H684 C692 0.930 . S
H685 C693 0.930 . S
H686 C717 0.929 . S
H687 C675 0.930 . S
H688 C676 0.929 . S
H689 C718 0.930 . S
H690 C699 0.930 . S
N691 Gd660 2.661 . S
N691 C695 1.350 . S
N691 C696 1.307 . S
C692 H684 0.930 . S
C692 C693 1.355 . S
C692 C694 1.412 . S
C693 H685 0.930 . S
C693 C692 1.355 . S
C693 C696 1.402 . S
C694 C692 1.412 . S
C694 C695 1.417 . S
C694 C718 1.431 . S
C695 N691 1.350 . S
C695 C694 1.417 . S
C695 C698 1.426 . S
C696 H679 0.930 . S
C696 N691 1.307 . S
C696 C693 1.402 . S
N697 Gd660 2.601 . S
N697 C698 1.359 . S
N697 C701 1.334 . S
C698 C695 1.426 . S
C698 N697 1.359 . S
C698 C702 1.413 . S
C699 H690 0.930 . S
C699 C700 1.359 . S
C699 C701 1.394 . S
C700 C699 1.359 . S
C700 C702 1.391 . S
C700 H703 0.929 . S
C701 H683 0.930 . S
C701 N697 1.334 . S
C701 C699 1.394 . S
C702 C698 1.413 . S
C702 C700 1.391 . S
C702 C717 1.437 . S
H703 C700 0.929 . S
O704 Gd660 2.545 . S
O704 C719 1.258 . S
O705 Gd660 2.606 1_455 S
O705 Gd661 2.362 1_554 S
O705 C716 1.284 . S
O706 Gd661 2.324 1_655 S
O706 C726 1.254 . S
O707 Gd660 2.429 . S
O707 C726 1.268 1_554 S
O708 Gd660 2.545 1_455 S
O708 C716 1.250 . S
O709 Gd660 2.412 . S
O709 C719 1.252 . S
O710 Gd661 2.545 . S
O710 C728 1.258 . S
O711 Gd660 2.362 1_556 S
O711 Gd661 2.606 1_655 S
O711 C727 1.284 . S
O712 Gd660 2.324 1_455 S
O712 C735 1.254 . S
O713 Gd661 2.429 . S
O713 C735 1.268 1_556 S
O714 Gd661 2.545 1_655 S
O714 C727 1.250 . S
O715 Gd661 2.412 . S
O715 C728 1.252 . S
C716 O705 1.284 . S
C716 O708 1.250 . S
C717 H686 0.929 . S
C717 C702 1.437 . S
C717 C718 1.317 . S
C718 H689 0.930 . S
C718 C694 1.431 . S
C718 C717 1.317 . S
C719 Gd660 2.828 . S
C719 O704 1.258 . S
C719 O709 1.252 . S
C719 C720 1.497 . S
C720 C719 1.497 . S
C720 C721 1.395 . S
C720 C722 1.380 1_655 S
C721 C720 1.395 . S
C721 C724 1.398 . S
C721 H736 0.930 . S
C722 C720 1.380 1_455 S
C722 C723 1.391 . S
C722 H737 0.930 . S
C723 C722 1.391 . S
C723 C725 1.387 1_455 S
C724 C721 1.398 . S
C724 C725 1.380 . S
C724 H738 0.930 . S
C725 C723 1.387 1_655 S
C725 C724 1.380 . S
C725 H739 0.930 . S
C726 O706 1.254 . S
C726 O707 1.268 1_556 S
C727 O711 1.284 . S
C727 O714 1.250 . S
C728 Gd661 2.828 . S
C728 O710 1.258 . S
C728 O715 1.252 . S
C728 C729 1.497 . S
C729 C728 1.497 . S
C729 C730 1.395 . S
C729 C731 1.380 1_455 S
C730 C729 1.395 . S
C730 C733 1.398 . S
C730 H740 0.930 . S
C731 C729 1.380 1_655 S
C731 C732 1.391 . S
C731 H741 0.930 . S
C732 C731 1.391 . S
C732 C734 1.387 1_655 S
C733 C730 1.398 . S
C733 C734 1.380 . S
C733 H742 0.930 . S
C734 C732 1.387 1_455 S
C734 C733 1.380 . S
C734 H743 0.930 . S
C735 O712 1.254 . S
C735 O713 1.268 1_554 S
H736 C721 0.930 . S
H737 C722 0.930 . S
H738 C724 0.930 . S
H739 C725 0.930 . S
H740 C730 0.930 . S
H741 C731 0.930 . S
H742 C733 0.930 . S
H743 C734 0.930 . S
Gd744 N775 2.661 . S
Gd744 N781 2.601 . S
Gd744 O788 2.545 . S
Gd744 O789 2.606 . S
Gd744 O791 2.429 . S
Gd744 O792 2.545 . S
Gd744 O793 2.412 . S
Gd744 O795 2.362 1_556 S
Gd744 O796 2.324 . S
Gd744 C803 2.828 . S
Gd745 N754 2.661 . S
Gd745 N758 2.601 . S
Gd745 O789 2.362 1_554 S
Gd745 O790 2.324 . S
Gd745 O794 2.545 . S
Gd745 O795 2.606 . S
Gd745 O797 2.429 . S
Gd745 O798 2.545 . S
Gd745 O799 2.412 . S
Gd745 C812 2.828 . S
C746 C749 1.417 . S
C746 C751 1.431 . S
C746 C752 1.412 . S
C747 C750 1.437 . S
C747 C751 1.317 . S
C747 H766 0.929 . S
C748 C749 1.426 . S
C748 C750 1.413 . S
C748 N758 1.359 . S
C749 C746 1.417 . S
C749 C748 1.426 . S
C749 N754 1.350 . S
C750 C747 1.437 . S
C750 C748 1.413 . S
C750 C760 1.391 . S
C751 C746 1.431 . S
C751 C747 1.317 . S
C751 H762 0.930 . S
C752 C746 1.412 . S
C752 C753 1.355 . S
C752 H764 0.930 . S
C753 C752 1.355 . S
C753 C755 1.402 . S
C753 H765 0.930 . S
N754 Gd745 2.661 . S
N754 C749 1.350 . S
N754 C755 1.307 . S
C755 C753 1.402 . S
C755 N754 1.307 . S
C755 H756 0.930 . S
H756 C755 0.930 . S
C757 N758 1.334 . S
C757 C759 1.394 . S
C757 H761 0.930 . S
N758 Gd745 2.601 . S
N758 C748 1.359 . S
N758 C757 1.334 . S
C759 C757 1.394 . S
C759 C760 1.359 . S
C759 H771 0.930 . S
C760 C750 1.391 . S
C760 C759 1.359 . S
C760 H772 0.929 . S
H761 C757 0.930 . S
H762 C751 0.930 . S
H763 C780 0.930 . S
H764 C752 0.930 . S
H765 C753 0.930 . S
H766 C747 0.929 . S
H767 C785 0.930 . S
H768 C776 0.930 . S
H769 C777 0.930 . S
H770 C801 0.929 . S
H771 C759 0.930 . S
H772 C760 0.929 . S
H773 C802 0.930 . S
H774 C783 0.930 . S
N775 Gd744 2.661 . S
N775 C779 1.350 . S
N775 C780 1.307 . S
C776 H768 0.930 . S
C776 C777 1.355 . S
C776 C778 1.412 . S
C777 H769 0.930 . S
C777 C776 1.355 . S
C777 C780 1.402 . S
C778 C776 1.412 . S
C778 C779 1.417 . S
C778 C802 1.431 . S
C779 N775 1.350 . S
C779 C778 1.417 . S
C779 C782 1.426 . S
C780 H763 0.930 . S
C780 N775 1.307 . S
C780 C777 1.402 . S
N781 Gd744 2.601 . S
N781 C782 1.359 . S
N781 C785 1.334 . S
C782 C779 1.426 . S
C782 N781 1.359 . S
C782 C786 1.413 . S
C783 H774 0.930 . S
C783 C784 1.359 . S
C783 C785 1.394 . S
C784 C783 1.359 . S
C784 C786 1.391 . S
C784 H787 0.929 . S
C785 H767 0.930 . S
C785 N781 1.334 . S
C785 C783 1.394 . S
C786 C782 1.413 . S
C786 C784 1.391 . S
C786 C801 1.437 . S
H787 C784 0.929 . S
O788 Gd744 2.545 . S
O788 C803 1.258 . S
O789 Gd744 2.606 . S
O789 Gd745 2.362 1_556 S
O789 C800 1.284 . S
O790 Gd745 2.324 . S
O790 C810 1.254 . S
O791 Gd744 2.429 . S
O791 C810 1.268 1_556 S
O792 Gd744 2.545 . S
O792 C800 1.250 . S
O793 Gd744 2.412 . S
O793 C803 1.252 . S
O794 Gd745 2.545 . S
O794 C812 1.258 . S
O795 Gd744 2.362 1_554 S
O795 Gd745 2.606 . S
O795 C811 1.284 . S
O796 Gd744 2.324 . S
O796 C819 1.254 . S
O797 Gd745 2.429 . S
O797 C819 1.268 1_554 S
O798 Gd745 2.545 . S
O798 C811 1.250 . S
O799 Gd745 2.412 . S
O799 C812 1.252 . S
C800 O789 1.284 . S
C800 O792 1.250 . S
C801 H770 0.929 . S
C801 C786 1.437 . S
C801 C802 1.317 . S
C802 H773 0.930 . S
C802 C778 1.431 . S
C802 C801 1.317 . S
C803 Gd744 2.828 . S
C803 O788 1.258 . S
C803 O793 1.252 . S
C803 C804 1.497 . S
C804 C803 1.497 . S
C804 C805 1.395 . S
C804 C806 1.380 . S
C805 C804 1.395 . S
C805 C808 1.398 . S
C805 H820 0.930 . S
C806 C804 1.380 . S
C806 C807 1.391 . S
C806 H821 0.930 . S
C807 C806 1.391 . S
C807 C809 1.387 . S
C808 C805 1.398 . S
C808 C809 1.380 . S
C808 H822 0.930 . S
C809 C807 1.387 . S
C809 C808 1.380 . S
C809 H823 0.930 . S
C810 O790 1.254 . S
C810 O791 1.268 1_554 S
C811 O795 1.284 . S
C811 O798 1.250 . S
C812 Gd745 2.828 . S
C812 O794 1.258 . S
C812 O799 1.252 . S
C812 C813 1.497 . S
C813 C812 1.497 . S
C813 C814 1.395 . S
C813 C815 1.380 . S
C814 C813 1.395 . S
C814 C817 1.398 . S
C814 H824 0.930 . S
C815 C813 1.380 . S
C815 C816 1.391 . S
C815 H825 0.930 . S
C816 C815 1.391 . S
C816 C818 1.387 . S
C817 C814 1.398 . S
C817 C818 1.380 . S
C817 H826 0.930 . S
C818 C816 1.387 . S
C818 C817 1.380 . S
C818 H827 0.930 . S
C819 O796 1.254 . S
C819 O797 1.268 1_556 S
H820 C805 0.930 . S
H821 C806 0.930 . S
H822 C808 0.930 . S
H823 C809 0.930 . S
H824 C814 0.930 . S
H825 C815 0.930 . S
H826 C817 0.930 . S
H827 C818 0.930 . S
Gd828 N859 2.661 . S
Gd828 N865 2.601 . S
Gd828 O872 2.545 . S
Gd828 O873 2.606 . S
Gd828 O875 2.429 . S
Gd828 O876 2.545 . S
Gd828 O877 2.412 . S
Gd828 O879 2.362 . S
Gd828 O880 2.324 . S
Gd828 C887 2.828 . S
Gd829 N838 2.661 . S
Gd829 N842 2.601 . S
Gd829 O873 2.362 . S
Gd829 O874 2.324 . S
Gd829 O878 2.545 . S
Gd829 O879 2.606 . S
Gd829 O881 2.429 . S
Gd829 O882 2.545 . S
Gd829 O883 2.412 . S
Gd829 C896 2.828 . S
C830 C833 1.417 . S
C830 C835 1.431 . S
C830 C836 1.412 . S
C831 C834 1.437 . S
C831 C835 1.317 . S
C831 H850 0.929 . S
C832 C833 1.426 . S
C832 C834 1.413 . S
C832 N842 1.359 . S
C833 C830 1.417 . S
C833 C832 1.426 . S
C833 N838 1.350 . S
C834 C831 1.437 . S
C834 C832 1.413 . S
C834 C844 1.391 . S
C835 C830 1.431 . S
C835 C831 1.317 . S
C835 H846 0.930 1_455 S
C836 C830 1.412 . S
C836 C837 1.355 . S
C836 H848 0.930 1_455 S
C837 C836 1.355 . S
C837 C839 1.402 . S
C837 H849 0.930 . S
N838 Gd829 2.661 . S
N838 C833 1.350 . S
N838 C839 1.307 . S
C839 C837 1.402 . S
C839 N838 1.307 . S
C839 H840 0.930 . S
H840 C839 0.930 . S
C841 N842 1.334 . S
C841 C843 1.394 . S
C841 H845 0.930 . S
N842 Gd829 2.601 . S
N842 C832 1.359 . S
N842 C841 1.334 . S
C843 C841 1.394 . S
C843 C844 1.359 . S
C843 H855 0.930 . S
C844 C834 1.391 . S
C844 C843 1.359 . S
C844 H856 0.929 . S
H845 C841 0.930 . S
H846 C835 0.930 1_655 S
H847 C864 0.930 . S
H848 C836 0.930 1_655 S
H849 C837 0.930 . S
H850 C831 0.929 . S
H851 C869 0.930 . S
H852 C860 0.930 . S
H853 C861 0.930 . S
H854 C885 0.929 . S
H855 C843 0.930 . S
H856 C844 0.929 . S
H857 C886 0.930 . S
H858 C867 0.930 . S
N859 Gd828 2.661 . S
N859 C863 1.350 . S
N859 C864 1.307 . S
C860 H852 0.930 . S
C860 C861 1.355 . S
C860 C862 1.412 . S
C861 H853 0.930 . S
C861 C860 1.355 . S
C861 C864 1.402 . S
C862 C860 1.412 . S
C862 C863 1.417 . S
C862 C886 1.431 . S
C863 N859 1.350 . S
C863 C862 1.417 . S
C863 C866 1.426 . S
C864 H847 0.930 . S
C864 N859 1.307 . S
C864 C861 1.402 . S
N865 Gd828 2.601 . S
N865 C866 1.359 . S
N865 C869 1.334 . S
C866 C863 1.426 . S
C866 N865 1.359 . S
C866 C870 1.413 . S
C867 H858 0.930 . S
C867 C868 1.359 . S
C867 C869 1.394 . S
C868 C867 1.359 . S
C868 C870 1.391 . S
C868 H871 0.929 . S
C869 H851 0.930 . S
C869 N865 1.334 . S
C869 C867 1.394 . S
C870 C866 1.413 . S
C870 C868 1.391 . S
C870 C885 1.437 . S
H871 C868 0.929 . S
O872 Gd828 2.545 . S
O872 C887 1.258 . S
O873 Gd828 2.606 . S
O873 Gd829 2.362 . S
O873 C884 1.284 . S
O874 Gd829 2.324 . S
O874 C894 1.254 . S
O875 Gd828 2.429 . S
O875 C894 1.268 . S
O876 Gd828 2.545 . S
O876 C884 1.250 . S
O877 Gd828 2.412 . S
O877 C887 1.252 . S
O878 Gd829 2.545 . S
O878 C896 1.258 . S
O879 Gd828 2.362 . S
O879 Gd829 2.606 . S
O879 C895 1.284 . S
O880 Gd828 2.324 . S
O880 C903 1.254 . S
O881 Gd829 2.429 . S
O881 C903 1.268 . S
O882 Gd829 2.545 . S
O882 C895 1.250 . S
O883 Gd829 2.412 . S
O883 C896 1.252 . S
C884 O873 1.284 . S
C884 O876 1.250 . S
C885 H854 0.929 . S
C885 C870 1.437 . S
C885 C886 1.317 . S
C886 H857 0.930 . S
C886 C862 1.431 . S
C886 C885 1.317 . S
C887 Gd828 2.828 . S
C887 O872 1.258 . S
C887 O877 1.252 . S
C887 C888 1.497 . S
C888 C887 1.497 . S
C888 C889 1.395 . S
C888 C890 1.380 . S
C889 C888 1.395 . S
C889 C892 1.398 . S
C889 H904 0.930 . S
C890 C888 1.380 . S
C890 C891 1.391 . S
C890 H905 0.930 . S
C891 C890 1.391 . S
C891 C893 1.387 . S
C892 C889 1.398 . S
C892 C893 1.380 . S
C892 H906 0.930 . S
C893 C891 1.387 . S
C893 C892 1.380 . S
C893 H907 0.930 . S
C894 O874 1.254 . S
C894 O875 1.268 . S
C895 O879 1.284 . S
C895 O882 1.250 . S
C896 Gd829 2.828 . S
C896 O878 1.258 . S
C896 O883 1.252 . S
C896 C897 1.497 . S
C897 C896 1.497 . S
C897 C898 1.395 . S
C897 C899 1.380 . S
C898 C897 1.395 . S
C898 C901 1.398 . S
C898 H908 0.930 . S
C899 C897 1.380 . S
C899 C900 1.391 . S
C899 H909 0.930 . S
C900 C899 1.391 . S
C900 C902 1.387 . S
C901 C898 1.398 . S
C901 C902 1.380 . S
C901 H910 0.930 . S
C902 C900 1.387 . S
C902 C901 1.380 . S
C902 H911 0.930 . S
C903 O880 1.254 . S
C903 O881 1.268 . S
H904 C889 0.930 . S
H905 C890 0.930 . S
H906 C892 0.930 . S
H907 C893 0.930 . S
H908 C898 0.930 . S
H909 C899 0.930 . S
H910 C901 0.930 . S
H911 C902 0.930 . S
Gd912 N943 2.661 . S
Gd912 N949 2.601 . S
Gd912 O956 2.545 . S
Gd912 O957 2.606 . S
Gd912 O959 2.429 . S
Gd912 O960 2.545 . S
Gd912 O961 2.412 . S
Gd912 O963 2.362 . S
Gd912 O964 2.324 . S
Gd912 C971 2.828 . S
Gd913 N922 2.661 . S
Gd913 N926 2.601 . S
Gd913 O957 2.362 . S
Gd913 O958 2.324 . S
Gd913 O962 2.545 . S
Gd913 O963 2.606 . S
Gd913 O965 2.429 . S
Gd913 O966 2.545 . S
Gd913 O967 2.412 . S
Gd913 C980 2.828 . S
C914 C917 1.417 . S
C914 C919 1.431 . S
C914 C920 1.412 . S
C915 C918 1.437 . S
C915 C919 1.317 . S
C915 H934 0.929 . S
C916 C917 1.426 . S
C916 C918 1.413 . S
C916 N926 1.359 . S
C917 C914 1.417 . S
C917 C916 1.426 . S
C917 N922 1.350 . S
C918 C915 1.437 . S
C918 C916 1.413 . S
C918 C928 1.391 . S
C919 C914 1.431 . S
C919 C915 1.317 . S
C919 H930 0.930 . S
C920 C914 1.412 . S
C920 C921 1.355 . S
C920 H932 0.930 . S
C921 C920 1.355 . S
C921 C923 1.402 . S
C921 H933 0.930 . S
N922 Gd913 2.661 . S
N922 C917 1.350 . S
N922 C923 1.307 . S
C923 C921 1.402 . S
C923 N922 1.307 . S
C923 H924 0.930 . S
H924 C923 0.930 . S
C925 N926 1.334 . S
C925 C927 1.394 . S
C925 H929 0.930 . S
N926 Gd913 2.601 . S
N926 C916 1.359 . S
N926 C925 1.334 . S
C927 C925 1.394 . S
C927 C928 1.359 . S
C927 H939 0.930 . S
C928 C918 1.391 . S
C928 C927 1.359 . S
C928 H940 0.929 . S
H929 C925 0.930 . S
H930 C919 0.930 . S
H931 C948 0.930 . S
H932 C920 0.930 . S
H933 C921 0.930 . S
H934 C915 0.929 . S
H935 C953 0.930 . S
H936 C944 0.930 . S
H937 C945 0.930 . S
H938 C969 0.929 . S
H939 C927 0.930 . S
H940 C928 0.929 . S
H941 C970 0.930 . S
H942 C951 0.930 . S
N943 Gd912 2.661 . S
N943 C947 1.350 . S
N943 C948 1.307 . S
C944 H936 0.930 . S
C944 C945 1.355 . S
C944 C946 1.412 . S
C945 H937 0.930 . S
C945 C944 1.355 . S
C945 C948 1.402 . S
C946 C944 1.412 . S
C946 C947 1.417 . S
C946 C970 1.431 . S
C947 N943 1.350 . S
C947 C946 1.417 . S
C947 C950 1.426 . S
C948 H931 0.930 . S
C948 N943 1.307 . S
C948 C945 1.402 . S
N949 Gd912 2.601 . S
N949 C950 1.359 . S
N949 C953 1.334 . S
C950 C947 1.426 . S
C950 N949 1.359 . S
C950 C954 1.413 . S
C951 H942 0.930 . S
C951 C952 1.359 . S
C951 C953 1.394 . S
C952 C951 1.359 . S
C952 C954 1.391 . S
C952 H955 0.929 . S
C953 H935 0.930 . S
C953 N949 1.334 . S
C953 C951 1.394 . S
C954 C950 1.413 . S
C954 C952 1.391 . S
C954 C969 1.437 . S
H955 C952 0.929 . S
O956 Gd912 2.545 . S
O956 C971 1.258 . S
O957 Gd912 2.606 . S
O957 Gd913 2.362 . S
O957 C968 1.284 . S
O958 Gd913 2.324 . S
O958 C978 1.254 . S
O959 Gd912 2.429 . S
O959 C978 1.268 . S
O960 Gd912 2.545 . S
O960 C968 1.250 . S
O961 Gd912 2.412 . S
O961 C971 1.252 . S
O962 Gd913 2.545 . S
O962 C980 1.258 . S
O963 Gd912 2.362 . S
O963 Gd913 2.606 . S
O963 C979 1.284 . S
O964 Gd912 2.324 . S
O964 C987 1.254 . S
O965 Gd913 2.429 . S
O965 C987 1.268 . S
O966 Gd913 2.545 . S
O966 C979 1.250 . S
O967 Gd913 2.412 . S
O967 C980 1.252 . S
C968 O957 1.284 . S
C968 O960 1.250 . S
C969 H938 0.929 . S
C969 C954 1.437 . S
C969 C970 1.317 . S
C970 H941 0.930 . S
C970 C946 1.431 . S
C970 C969 1.317 . S
C971 Gd912 2.828 . S
C971 O956 1.258 . S
C971 O961 1.252 . S
C971 C972 1.497 . S
C972 C971 1.497 . S
C972 C973 1.395 . S
C972 C974 1.380 . S
C973 C972 1.395 . S
C973 C976 1.398 . S
C973 H988 0.930 . S
C974 C972 1.380 . S
C974 C975 1.391 . S
C974 H989 0.930 . S
C975 C974 1.391 . S
C975 C977 1.387 . S
C976 C973 1.398 . S
C976 C977 1.380 . S
C976 H990 0.930 . S
C977 C975 1.387 . S
C977 C976 1.380 . S
C977 H991 0.930 . S
C978 O958 1.254 . S
C978 O959 1.268 . S
C979 O963 1.284 . S
C979 O966 1.250 . S
C980 Gd913 2.828 . S
C980 O962 1.258 . S
C980 O967 1.252 . S
C980 C981 1.497 . S
C981 C980 1.497 . S
C981 C982 1.395 . S
C981 C983 1.380 . S
C982 C981 1.395 . S
C982 C985 1.398 . S
C982 H992 0.930 . S
C983 C981 1.380 . S
C983 C984 1.391 . S
C983 H993 0.930 . S
C984 C983 1.391 . S
C984 C986 1.387 . S
C985 C982 1.398 . S
C985 C986 1.380 . S
C985 H994 0.930 . S
C986 C984 1.387 . S
C986 C985 1.380 . S
C986 H995 0.930 . S
C987 O964 1.254 . S
C987 O965 1.268 . S
H988 C973 0.930 . S
H989 C974 0.930 . S
H990 C976 0.930 . S
H991 C977 0.930 . S
H992 C982 0.930 . S
H993 C983 0.930 . S
H994 C985 0.930 . S
H995 C986 0.930 . S
Gd996 N1027 2.661 . S
Gd996 N1033 2.601 . S
Gd996 O1040 2.545 . S
Gd996 O1041 2.606 . S
Gd996 O1043 2.429 . S
Gd996 O1044 2.545 . S
Gd996 O1045 2.412 . S
Gd996 O1047 2.362 . S
Gd996 O1048 2.324 . S
Gd996 C1055 2.828 . S
Gd997 N1006 2.661 . S
Gd997 N1010 2.601 . S
Gd997 O1041 2.362 . S
Gd997 O1042 2.324 . S
Gd997 O1046 2.545 . S
Gd997 O1047 2.606 . S
Gd997 O1049 2.429 . S
Gd997 O1050 2.545 . S
Gd997 O1051 2.412 . S
Gd997 C1064 2.828 . S
C998 C1001 1.417 . S
C998 C1003 1.431 . S
C998 C1004 1.412 . S
C999 C1002 1.437 . S
C999 C1003 1.317 . S
C999 H1018 0.929 . S
C1000 C1001 1.426 . S
C1000 C1002 1.413 . S
C1000 N1010 1.359 . S
C1001 C998 1.417 . S
C1001 C1000 1.426 . S
C1001 N1006 1.350 . S
C1002 C999 1.437 . S
C1002 C1000 1.413 . S
C1002 C1012 1.391 . S
C1003 C998 1.431 . S
C1003 C999 1.317 . S
C1003 H1014 0.930 . S
C1004 C998 1.412 . S
C1004 C1005 1.355 . S
C1004 H1016 0.930 . S
C1005 C1004 1.355 . S
C1005 C1007 1.402 . S
C1005 H1017 0.930 . S
N1006 Gd997 2.661 . S
N1006 C1001 1.350 . S
N1006 C1007 1.307 . S
C1007 C1005 1.402 . S
C1007 N1006 1.307 . S
C1007 H1008 0.930 . S
H1008 C1007 0.930 . S
C1009 N1010 1.334 . S
C1009 C1011 1.394 . S
C1009 H1013 0.930 . S
N1010 Gd997 2.601 . S
N1010 C1000 1.359 . S
N1010 C1009 1.334 . S
C1011 C1009 1.394 . S
C1011 C1012 1.359 . S
C1011 H1023 0.930 . S
C1012 C1002 1.391 . S
C1012 C1011 1.359 . S
C1012 H1024 0.929 . S
H1013 C1009 0.930 . S
H1014 C1003 0.930 . S
H1015 C1032 0.930 . S
H1016 C1004 0.930 . S
H1017 C1005 0.930 . S
H1018 C999 0.929 . S
H1019 C1037 0.930 . S
H1020 C1028 0.930 1_655 S
H1021 C1029 0.930 . S
H1022 C1053 0.929 . S
H1023 C1011 0.930 . S
H1024 C1012 0.929 . S
H1025 C1054 0.930 1_655 S
H1026 C1035 0.930 . S
N1027 Gd996 2.661 . S
N1027 C1031 1.350 . S
N1027 C1032 1.307 . S
C1028 H1020 0.930 1_455 S
C1028 C1029 1.355 . S
C1028 C1030 1.412 . S
C1029 H1021 0.930 . S
C1029 C1028 1.355 . S
C1029 C1032 1.402 . S
C1030 C1028 1.412 . S
C1030 C1031 1.417 . S
C1030 C1054 1.431 . S
C1031 N1027 1.350 . S
C1031 C1030 1.417 . S
C1031 C1034 1.426 . S
C1032 H1015 0.930 . S
C1032 N1027 1.307 . S
C1032 C1029 1.402 . S
N1033 Gd996 2.601 . S
N1033 C1034 1.359 . S
N1033 C1037 1.334 . S
C1034 C1031 1.426 . S
C1034 N1033 1.359 . S
C1034 C1038 1.413 . S
C1035 H1026 0.930 . S
C1035 C1036 1.359 . S
C1035 C1037 1.394 . S
C1036 C1035 1.359 . S
C1036 C1038 1.391 . S
C1036 H1039 0.929 . S
C1037 H1019 0.930 . S
C1037 N1033 1.334 . S
C1037 C1035 1.394 . S
C1038 C1034 1.413 . S
C1038 C1036 1.391 . S
C1038 C1053 1.437 . S
H1039 C1036 0.929 . S
O1040 Gd996 2.545 . S
O1040 C1055 1.258 . S
O1041 Gd996 2.606 . S
O1041 Gd997 2.362 . S
O1041 C1052 1.284 . S
O1042 Gd997 2.324 . S
O1042 C1062 1.254 . S
O1043 Gd996 2.429 . S
O1043 C1062 1.268 . S
O1044 Gd996 2.545 . S
O1044 C1052 1.250 . S
O1045 Gd996 2.412 . S
O1045 C1055 1.252 . S
O1046 Gd997 2.545 . S
O1046 C1064 1.258 . S
O1047 Gd996 2.362 . S
O1047 Gd997 2.606 . S
O1047 C1063 1.284 . S
O1048 Gd996 2.324 . S
O1048 C1071 1.254 . S
O1049 Gd997 2.429 . S
O1049 C1071 1.268 . S
O1050 Gd997 2.545 . S
O1050 C1063 1.250 . S
O1051 Gd997 2.412 . S
O1051 C1064 1.252 . S
C1052 O1041 1.284 . S
C1052 O1044 1.250 . S
C1053 H1022 0.929 . S
C1053 C1038 1.437 . S
C1053 C1054 1.317 . S
C1054 H1025 0.930 1_455 S
C1054 C1030 1.431 . S
C1054 C1053 1.317 . S
C1055 Gd996 2.828 . S
C1055 O1040 1.258 . S
C1055 O1045 1.252 . S
C1055 C1056 1.497 . S
C1056 C1055 1.497 . S
C1056 C1057 1.395 . S
C1056 C1058 1.380 . S
C1057 C1056 1.395 . S
C1057 C1060 1.398 . S
C1057 H1072 0.930 . S
C1058 C1056 1.380 . S
C1058 C1059 1.391 . S
C1058 H1073 0.930 . S
C1059 C1058 1.391 . S
C1059 C1061 1.387 . S
C1060 C1057 1.398 . S
C1060 C1061 1.380 . S
C1060 H1074 0.930 . S
C1061 C1059 1.387 . S
C1061 C1060 1.380 . S
C1061 H1075 0.930 . S
C1062 O1042 1.254 . S
C1062 O1043 1.268 . S
C1063 O1047 1.284 . S
C1063 O1050 1.250 . S
C1064 Gd997 2.828 . S
C1064 O1046 1.258 . S
C1064 O1051 1.252 . S
C1064 C1065 1.497 . S
C1065 C1064 1.497 . S
C1065 C1066 1.395 . S
C1065 C1067 1.380 . S
C1066 C1065 1.395 . S
C1066 C1069 1.398 . S
C1066 H1076 0.930 . S
C1067 C1065 1.380 . S
C1067 C1068 1.391 . S
C1067 H1077 0.930 . S
C1068 C1067 1.391 . S
C1068 C1070 1.387 . S
C1069 C1066 1.398 . S
C1069 C1070 1.380 . S
C1069 H1078 0.930 . S
C1070 C1068 1.387 . S
C1070 C1069 1.380 . S
C1070 H1079 0.930 . S
C1071 O1048 1.254 . S
C1071 O1049 1.268 . S
H1072 C1057 0.930 . S
H1073 C1058 0.930 . S
H1074 C1060 0.930 . S
H1075 C1061 0.930 . S
H1076 C1066 0.930 . S
H1077 C1067 0.930 . S
H1078 C1069 0.930 . S
H1079 C1070 0.930 . S
Gd1080 N1111 2.661 . S
Gd1080 N1117 2.601 . S
Gd1080 O1124 2.545 . S
Gd1080 O1125 2.606 . S
Gd1080 O1127 2.429 . S
Gd1080 O1128 2.545 . S
Gd1080 O1129 2.412 . S
Gd1080 O1131 2.362 . S
Gd1080 O1132 2.324 . S
Gd1080 C1139 2.828 . S
Gd1081 N1090 2.661 . S
Gd1081 N1094 2.601 . S
Gd1081 O1125 2.362 . S
Gd1081 O1126 2.324 . S
Gd1081 O1130 2.545 . S
Gd1081 O1131 2.606 . S
Gd1081 O1133 2.429 . S
Gd1081 O1134 2.545 . S
Gd1081 O1135 2.412 . S
Gd1081 C1148 2.828 . S
C1082 C1085 1.417 . S
C1082 C1087 1.431 . S
C1082 C1088 1.412 . S
C1083 C1086 1.437 . S
C1083 C1087 1.317 . S
C1083 H1102 0.929 . S
C1084 C1085 1.426 . S
C1084 C1086 1.413 . S
C1084 N1094 1.359 . S
C1085 C1082 1.417 . S
C1085 C1084 1.426 . S
C1085 N1090 1.350 . S
C1086 C1083 1.437 . S
C1086 C1084 1.413 . S
C1086 C1096 1.391 . S
C1087 C1082 1.431 . S
C1087 C1083 1.317 . S
C1087 H1098 0.930 . S
C1088 C1082 1.412 . S
C1088 C1089 1.355 . S
C1088 H1100 0.930 . S
C1089 C1088 1.355 . S
C1089 C1091 1.402 . S
C1089 H1101 0.930 . S
N1090 Gd1081 2.661 . S
N1090 C1085 1.350 . S
N1090 C1091 1.307 . S
C1091 C1089 1.402 . S
C1091 N1090 1.307 . S
C1091 H1092 0.930 . S
H1092 C1091 0.930 . S
C1093 N1094 1.334 . S
C1093 C1095 1.394 . S
C1093 H1097 0.930 . S
N1094 Gd1081 2.601 . S
N1094 C1084 1.359 . S
N1094 C1093 1.334 . S
C1095 C1093 1.394 . S
C1095 C1096 1.359 . S
C1095 H1107 0.930 . S
C1096 C1086 1.391 . S
C1096 C1095 1.359 . S
C1096 H1108 0.929 . S
H1097 C1093 0.930 . S
H1098 C1087 0.930 . S
H1099 C1116 0.930 . S
H1100 C1088 0.930 . S
H1101 C1089 0.930 . S
H1102 C1083 0.929 . S
H1103 C1121 0.930 . S
H1104 C1112 0.930 1_455 S
H1105 C1113 0.930 . S
H1106 C1137 0.929 . S
H1107 C1095 0.930 . S
H1108 C1096 0.929 . S
H1109 C1138 0.930 1_455 S
H1110 C1119 0.930 . S
N1111 Gd1080 2.661 . S
N1111 C1115 1.350 . S
N1111 C1116 1.307 . S
C1112 H1104 0.930 1_655 S
C1112 C1113 1.355 . S
C1112 C1114 1.412 . S
C1113 H1105 0.930 . S
C1113 C1112 1.355 . S
C1113 C1116 1.402 . S
C1114 C1112 1.412 . S
C1114 C1115 1.417 . S
C1114 C1138 1.431 . S
C1115 N1111 1.350 . S
C1115 C1114 1.417 . S
C1115 C1118 1.426 . S
C1116 H1099 0.930 . S
C1116 N1111 1.307 . S
C1116 C1113 1.402 . S
N1117 Gd1080 2.601 . S
N1117 C1118 1.359 . S
N1117 C1121 1.334 . S
C1118 C1115 1.426 . S
C1118 N1117 1.359 . S
C1118 C1122 1.413 . S
C1119 H1110 0.930 . S
C1119 C1120 1.359 . S
C1119 C1121 1.394 . S
C1120 C1119 1.359 . S
C1120 C1122 1.391 . S
C1120 H1123 0.929 . S
C1121 H1103 0.930 . S
C1121 N1117 1.334 . S
C1121 C1119 1.394 . S
C1122 C1118 1.413 . S
C1122 C1120 1.391 . S
C1122 C1137 1.437 . S
H1123 C1120 0.929 . S
O1124 Gd1080 2.545 . S
O1124 C1139 1.258 . S
O1125 Gd1080 2.606 . S
O1125 Gd1081 2.362 . S
O1125 C1136 1.284 . S
O1126 Gd1081 2.324 . S
O1126 C1146 1.254 . S
O1127 Gd1080 2.429 . S
O1127 C1146 1.268 . S
O1128 Gd1080 2.545 . S
O1128 C1136 1.250 . S
O1129 Gd1080 2.412 . S
O1129 C1139 1.252 . S
O1130 Gd1081 2.545 . S
O1130 C1148 1.258 . S
O1131 Gd1080 2.362 . S
O1131 Gd1081 2.606 . S
O1131 C1147 1.284 . S
O1132 Gd1080 2.324 . S
O1132 C1155 1.254 . S
O1133 Gd1081 2.429 . S
O1133 C1155 1.268 . S
O1134 Gd1081 2.545 . S
O1134 C1147 1.250 . S
O1135 Gd1081 2.412 . S
O1135 C1148 1.252 . S
C1136 O1125 1.284 . S
C1136 O1128 1.250 . S
C1137 H1106 0.929 . S
C1137 C1122 1.437 . S
C1137 C1138 1.317 . S
C1138 H1109 0.930 1_655 S
C1138 C1114 1.431 . S
C1138 C1137 1.317 . S
C1139 Gd1080 2.828 . S
C1139 O1124 1.258 . S
C1139 O1129 1.252 . S
C1139 C1140 1.497 . S
C1140 C1139 1.497 . S
C1140 C1141 1.395 . S
C1140 C1142 1.380 . S
C1141 C1140 1.395 . S
C1141 C1144 1.398 . S
C1141 H1156 0.930 . S
C1142 C1140 1.380 . S
C1142 C1143 1.391 . S
C1142 H1157 0.930 . S
C1143 C1142 1.391 . S
C1143 C1145 1.387 . S
C1144 C1141 1.398 . S
C1144 C1145 1.380 . S
C1144 H1158 0.930 . S
C1145 C1143 1.387 . S
C1145 C1144 1.380 . S
C1145 H1159 0.930 . S
C1146 O1126 1.254 . S
C1146 O1127 1.268 . S
C1147 O1131 1.284 . S
C1147 O1134 1.250 . S
C1148 Gd1081 2.828 . S
C1148 O1130 1.258 . S
C1148 O1135 1.252 . S
C1148 C1149 1.497 . S
C1149 C1148 1.497 . S
C1149 C1150 1.395 . S
C1149 C1151 1.380 . S
C1150 C1149 1.395 . S
C1150 C1153 1.398 . S
C1150 H1160 0.930 . S
C1151 C1149 1.380 . S
C1151 C1152 1.391 . S
C1151 H1161 0.930 . S
C1152 C1151 1.391 . S
C1152 C1154 1.387 . S
C1153 C1150 1.398 . S
C1153 C1154 1.380 . S
C1153 H1162 0.930 . S
C1154 C1152 1.387 . S
C1154 C1153 1.380 . S
C1154 H1163 0.930 . S
C1155 O1132 1.254 . S
C1155 O1133 1.268 . S
H1156 C1141 0.930 . S
H1157 C1142 0.930 . S
H1158 C1144 0.930 . S
H1159 C1145 0.930 . S
H1160 C1150 0.930 . S
H1161 C1151 0.930 . S
H1162 C1153 0.930 . S
H1163 C1154 0.930 . S
Gd1164 N1195 2.661 . S
Gd1164 N1201 2.601 . S
Gd1164 O1208 2.545 . S
Gd1164 O1209 2.606 . S
Gd1164 O1211 2.429 . S
Gd1164 O1212 2.545 . S
Gd1164 O1213 2.412 . S
Gd1164 O1215 2.362 . S
Gd1164 O1216 2.324 . S
Gd1164 C1223 2.828 . S
Gd1165 N1174 2.661 . S
Gd1165 N1178 2.601 . S
Gd1165 O1209 2.362 . S
Gd1165 O1210 2.324 . S
Gd1165 O1214 2.545 . S
Gd1165 O1215 2.606 . S
Gd1165 O1217 2.429 . S
Gd1165 O1218 2.545 . S
Gd1165 O1219 2.412 . S
Gd1165 C1232 2.828 . S
C1166 C1169 1.417 . S
C1166 C1171 1.431 . S
C1166 C1172 1.412 . S
C1167 C1170 1.437 . S
C1167 C1171 1.317 . S
C1167 H1186 0.929 . S
C1168 C1169 1.426 . S
C1168 C1170 1.413 . S
C1168 N1178 1.359 . S
C1169 C1166 1.417 . S
C1169 C1168 1.426 . S
C1169 N1174 1.350 . S
C1170 C1167 1.437 . S
C1170 C1168 1.413 . S
C1170 C1180 1.391 . S
C1171 C1166 1.431 . S
C1171 C1167 1.317 . S
C1171 H1182 0.930 . S
C1172 C1166 1.412 . S
C1172 C1173 1.355 . S
C1172 H1184 0.930 . S
C1173 C1172 1.355 . S
C1173 C1175 1.402 . S
C1173 H1185 0.930 . S
N1174 Gd1165 2.661 . S
N1174 C1169 1.350 . S
N1174 C1175 1.307 . S
C1175 C1173 1.402 . S
C1175 N1174 1.307 . S
C1175 H1176 0.930 . S
H1176 C1175 0.930 . S
C1177 N1178 1.334 . S
C1177 C1179 1.394 . S
C1177 H1181 0.930 . S
N1178 Gd1165 2.601 . S
N1178 C1168 1.359 . S
N1178 C1177 1.334 . S
C1179 C1177 1.394 . S
C1179 C1180 1.359 . S
C1179 H1191 0.930 . S
C1180 C1170 1.391 . S
C1180 C1179 1.359 . S
C1180 H1192 0.929 . S
H1181 C1177 0.930 . S
H1182 C1171 0.930 . S
H1183 C1200 0.930 . S
H1184 C1172 0.930 . S
H1185 C1173 0.930 . S
H1186 C1167 0.929 . S
H1187 C1205 0.930 . S
H1188 C1196 0.930 . S
H1189 C1197 0.930 . S
H1190 C1221 0.929 . S
H1191 C1179 0.930 . S
H1192 C1180 0.929 . S
H1193 C1222 0.930 . S
H1194 C1203 0.930 . S
N1195 Gd1164 2.661 . S
N1195 C1199 1.350 . S
N1195 C1200 1.307 . S
C1196 H1188 0.930 . S
C1196 C1197 1.355 . S
C1196 C1198 1.412 . S
C1197 H1189 0.930 . S
C1197 C1196 1.355 . S
C1197 C1200 1.402 . S
C1198 C1196 1.412 . S
C1198 C1199 1.417 . S
C1198 C1222 1.431 . S
C1199 N1195 1.350 . S
C1199 C1198 1.417 . S
C1199 C1202 1.426 . S
C1200 H1183 0.930 . S
C1200 N1195 1.307 . S
C1200 C1197 1.402 . S
N1201 Gd1164 2.601 . S
N1201 C1202 1.359 . S
N1201 C1205 1.334 . S
C1202 C1199 1.426 . S
C1202 N1201 1.359 . S
C1202 C1206 1.413 . S
C1203 H1194 0.930 . S
C1203 C1204 1.359 . S
C1203 C1205 1.394 . S
C1204 C1203 1.359 . S
C1204 C1206 1.391 . S
C1204 H1207 0.929 . S
C1205 H1187 0.930 . S
C1205 N1201 1.334 . S
C1205 C1203 1.394 . S
C1206 C1202 1.413 . S
C1206 C1204 1.391 . S
C1206 C1221 1.437 . S
H1207 C1204 0.929 . S
O1208 Gd1164 2.545 . S
O1208 C1223 1.258 . S
O1209 Gd1164 2.606 . S
O1209 Gd1165 2.362 . S
O1209 C1220 1.284 . S
O1210 Gd1165 2.324 . S
O1210 C1230 1.254 . S
O1211 Gd1164 2.429 . S
O1211 C1230 1.268 . S
O1212 Gd1164 2.545 . S
O1212 C1220 1.250 . S
O1213 Gd1164 2.412 . S
O1213 C1223 1.252 . S
O1214 Gd1165 2.545 . S
O1214 C1232 1.258 . S
O1215 Gd1164 2.362 . S
O1215 Gd1165 2.606 . S
O1215 C1231 1.284 . S
O1216 Gd1164 2.324 . S
O1216 C1239 1.254 . S
O1217 Gd1165 2.429 . S
O1217 C1239 1.268 . S
O1218 Gd1165 2.545 . S
O1218 C1231 1.250 . S
O1219 Gd1165 2.412 . S
O1219 C1232 1.252 . S
C1220 O1209 1.284 . S
C1220 O1212 1.250 . S
C1221 H1190 0.929 . S
C1221 C1206 1.437 . S
C1221 C1222 1.317 . S
C1222 H1193 0.930 . S
C1222 C1198 1.431 . S
C1222 C1221 1.317 . S
C1223 Gd1164 2.828 . S
C1223 O1208 1.258 . S
C1223 O1213 1.252 . S
C1223 C1224 1.497 . S
C1224 C1223 1.497 . S
C1224 C1225 1.395 . S
C1224 C1226 1.380 . S
C1225 C1224 1.395 . S
C1225 C1228 1.398 . S
C1225 H1240 0.930 . S
C1226 C1224 1.380 . S
C1226 C1227 1.391 . S
C1226 H1241 0.930 . S
C1227 C1226 1.391 . S
C1227 C1229 1.387 . S
C1228 C1225 1.398 . S
C1228 C1229 1.380 . S
C1228 H1242 0.930 . S
C1229 C1227 1.387 . S
C1229 C1228 1.380 . S
C1229 H1243 0.930 . S
C1230 O1210 1.254 . S
C1230 O1211 1.268 . S
C1231 O1215 1.284 . S
C1231 O1218 1.250 . S
C1232 Gd1165 2.828 . S
C1232 O1214 1.258 . S
C1232 O1219 1.252 . S
C1232 C1233 1.497 . S
C1233 C1232 1.497 . S
C1233 C1234 1.395 . S
C1233 C1235 1.380 . S
C1234 C1233 1.395 . S
C1234 C1237 1.398 . S
C1234 H1244 0.930 . S
C1235 C1233 1.380 . S
C1235 C1236 1.391 . S
C1235 H1245 0.930 . S
C1236 C1235 1.391 . S
C1236 C1238 1.387 . S
C1237 C1234 1.398 . S
C1237 C1238 1.380 . S
C1237 H1246 0.930 . S
C1238 C1236 1.387 . S
C1238 C1237 1.380 . S
C1238 H1247 0.930 . S
C1239 O1216 1.254 . S
C1239 O1217 1.268 . S
H1240 C1225 0.930 . S
H1241 C1226 0.930 . S
H1242 C1228 0.930 . S
H1243 C1229 0.930 . S
H1244 C1234 0.930 . S
H1245 C1235 0.930 . S
H1246 C1237 0.930 . S
H1247 C1238 0.930 . S
Gd1248 N1279 2.661 . S
Gd1248 N1285 2.601 . S
Gd1248 O1292 2.545 . S
Gd1248 O1293 2.606 . S
Gd1248 O1295 2.429 . S
Gd1248 O1296 2.545 . S
Gd1248 O1297 2.412 . S
Gd1248 O1299 2.362 . S
Gd1248 O1300 2.324 . S
Gd1248 C1307 2.828 . S
Gd1249 N1258 2.661 . S
Gd1249 N1262 2.601 . S
Gd1249 O1293 2.362 . S
Gd1249 O1294 2.324 . S
Gd1249 O1298 2.545 . S
Gd1249 O1299 2.606 . S
Gd1249 O1301 2.429 . S
Gd1249 O1302 2.545 . S
Gd1249 O1303 2.412 . S
Gd1249 C1316 2.828 . S
C1250 C1253 1.417 . S
C1250 C1255 1.431 . S
C1250 C1256 1.412 . S
C1251 C1254 1.437 . S
C1251 C1255 1.317 . S
C1251 H1270 0.929 . S
C1252 C1253 1.426 . S
C1252 C1254 1.413 . S
C1252 N1262 1.359 . S
C1253 C1250 1.417 . S
C1253 C1252 1.426 . S
C1253 N1258 1.350 . S
C1254 C1251 1.437 . S
C1254 C1252 1.413 . S
C1254 C1264 1.391 . S
C1255 C1250 1.431 . S
C1255 C1251 1.317 . S
C1255 H1266 0.930 1_655 S
C1256 C1250 1.412 . S
C1256 C1257 1.355 . S
C1256 H1268 0.930 1_655 S
C1257 C1256 1.355 . S
C1257 C1259 1.402 . S
C1257 H1269 0.930 . S
N1258 Gd1249 2.661 . S
N1258 C1253 1.350 . S
N1258 C1259 1.307 . S
C1259 C1257 1.402 . S
C1259 N1258 1.307 . S
C1259 H1260 0.930 . S
H1260 C1259 0.930 . S
C1261 N1262 1.334 . S
C1261 C1263 1.394 . S
C1261 H1265 0.930 . S
N1262 Gd1249 2.601 . S
N1262 C1252 1.359 . S
N1262 C1261 1.334 . S
C1263 C1261 1.394 . S
C1263 C1264 1.359 . S
C1263 H1275 0.930 . S
C1264 C1254 1.391 . S
C1264 C1263 1.359 . S
C1264 H1276 0.929 . S
H1265 C1261 0.930 . S
H1266 C1255 0.930 1_455 S
H1267 C1284 0.930 . S
H1268 C1256 0.930 1_455 S
H1269 C1257 0.930 . S
H1270 C1251 0.929 . S
H1271 C1289 0.930 . S
H1272 C1280 0.930 . S
H1273 C1281 0.930 . S
H1274 C1305 0.929 . S
H1275 C1263 0.930 . S
H1276 C1264 0.929 . S
H1277 C1306 0.930 . S
H1278 C1287 0.930 . S
N1279 Gd1248 2.661 . S
N1279 C1283 1.350 . S
N1279 C1284 1.307 . S
C1280 H1272 0.930 . S
C1280 C1281 1.355 . S
C1280 C1282 1.412 . S
C1281 H1273 0.930 . S
C1281 C1280 1.355 . S
C1281 C1284 1.402 . S
C1282 C1280 1.412 . S
C1282 C1283 1.417 . S
C1282 C1306 1.431 . S
C1283 N1279 1.350 . S
C1283 C1282 1.417 . S
C1283 C1286 1.426 . S
C1284 H1267 0.930 . S
C1284 N1279 1.307 . S
C1284 C1281 1.402 . S
N1285 Gd1248 2.601 . S
N1285 C1286 1.359 . S
N1285 C1289 1.334 . S
C1286 C1283 1.426 . S
C1286 N1285 1.359 . S
C1286 C1290 1.413 . S
C1287 H1278 0.930 . S
C1287 C1288 1.359 . S
C1287 C1289 1.394 . S
C1288 C1287 1.359 . S
C1288 C1290 1.391 . S
C1288 H1291 0.929 . S
C1289 H1271 0.930 . S
C1289 N1285 1.334 . S
C1289 C1287 1.394 . S
C1290 C1286 1.413 . S
C1290 C1288 1.391 . S
C1290 C1305 1.437 . S
H1291 C1288 0.929 . S
O1292 Gd1248 2.545 . S
O1292 C1307 1.258 . S
O1293 Gd1248 2.606 . S
O1293 Gd1249 2.362 . S
O1293 C1304 1.284 . S
O1294 Gd1249 2.324 . S
O1294 C1314 1.254 . S
O1295 Gd1248 2.429 . S
O1295 C1314 1.268 . S
O1296 Gd1248 2.545 . S
O1296 C1304 1.250 . S
O1297 Gd1248 2.412 . S
O1297 C1307 1.252 . S
O1298 Gd1249 2.545 . S
O1298 C1316 1.258 . S
O1299 Gd1248 2.362 . S
O1299 Gd1249 2.606 . S
O1299 C1315 1.284 . S
O1300 Gd1248 2.324 . S
O1300 C1323 1.254 . S
O1301 Gd1249 2.429 . S
O1301 C1323 1.268 . S
O1302 Gd1249 2.545 . S
O1302 C1315 1.250 . S
O1303 Gd1249 2.412 . S
O1303 C1316 1.252 . S
C1304 O1293 1.284 . S
C1304 O1296 1.250 . S
C1305 H1274 0.929 . S
C1305 C1290 1.437 . S
C1305 C1306 1.317 . S
C1306 H1277 0.930 . S
C1306 C1282 1.431 . S
C1306 C1305 1.317 . S
C1307 Gd1248 2.828 . S
C1307 O1292 1.258 . S
C1307 O1297 1.252 . S
C1307 C1308 1.497 . S
C1308 C1307 1.497 . S
C1308 C1309 1.395 . S
C1308 C1310 1.380 . S
C1309 C1308 1.395 . S
C1309 C1312 1.398 . S
C1309 H1324 0.930 . S
C1310 C1308 1.380 . S
C1310 C1311 1.391 . S
C1310 H1325 0.930 . S
C1311 C1310 1.391 . S
C1311 C1313 1.387 . S
C1312 C1309 1.398 . S
C1312 C1313 1.380 . S
C1312 H1326 0.930 . S
C1313 C1311 1.387 . S
C1313 C1312 1.380 . S
C1313 H1327 0.930 . S
C1314 O1294 1.254 . S
C1314 O1295 1.268 . S
C1315 O1299 1.284 . S
C1315 O1302 1.250 . S
C1316 Gd1249 2.828 . S
C1316 O1298 1.258 . S
C1316 O1303 1.252 . S
C1316 C1317 1.497 . S
C1317 C1316 1.497 . S
C1317 C1318 1.395 . S
C1317 C1319 1.380 . S
C1318 C1317 1.395 . S
C1318 C1321 1.398 . S
C1318 H1328 0.930 . S
C1319 C1317 1.380 . S
C1319 C1320 1.391 . S
C1319 H1329 0.930 . S
C1320 C1319 1.391 . S
C1320 C1322 1.387 . S
C1321 C1318 1.398 . S
C1321 C1322 1.380 . S
C1321 H1330 0.930 . S
C1322 C1320 1.387 . S
C1322 C1321 1.380 . S
C1322 H1331 0.930 . S
C1323 O1300 1.254 . S
C1323 O1301 1.268 . S
H1324 C1309 0.930 . S
H1325 C1310 0.930 . S
H1326 C1312 0.930 . S
H1327 C1313 0.930 . S
H1328 C1318 0.930 . S
H1329 C1319 0.930 . S
H1330 C1321 0.930 . S
H1331 C1322 0.930 . S
C1332 C1333 1.363 . S
C1332 C1338 1.379 . S
C1332 N1340 1.356 . S
C1333 C1332 1.363 . S
C1333 C1339 1.363 . S
C1334 C1335 1.363 . S
C1334 C1339 1.379 . S
C1334 N1341 1.337 1_554 S
C1335 C1334 1.363 . S
C1335 C1338 1.363 . S
N1336 C1338 1.356 . S
N1336 H1348 0.984 . S
N1336 H1349 0.985 . S
N1337 C1339 1.356 . S
N1337 H1342 0.984 . S
N1337 H1343 0.985 . S
C1338 C1332 1.379 . S
C1338 C1335 1.363 . S
C1338 N1336 1.356 . S
C1339 C1333 1.363 . S
C1339 C1334 1.379 . S
C1339 N1337 1.356 . S
N1340 C1332 1.356 . S
N1340 H1346 0.984 . S
N1340 H1347 0.984 . S
N1341 C1334 1.337 1_556 S
N1341 H1344 0.987 . S
N1341 H1345 1.001 . S
H1342 N1337 0.984 . S
H1343 N1337 0.985 . S
H1344 N1341 0.987 . S
H1345 N1341 1.001 . S
H1346 N1340 0.984 . S
H1347 N1340 0.984 . S
H1348 N1336 0.984 . S
H1349 N1336 0.985 . S
C1350 C1351 1.363 . S
C1350 C1356 1.379 . S
C1350 N1358 1.356 . S
C1351 C1350 1.363 . S
C1351 C1357 1.363 . S
C1352 C1353 1.363 . S
C1352 C1357 1.379 . S
C1352 N1359 1.356 . S
C1353 C1352 1.363 . S
C1353 C1356 1.363 . S
N1354 C1356 1.376 . S
N1354 H1366 0.967 1_554 S
N1354 H1367 0.980 1_554 S
N1355 C1357 1.356 . S
N1355 H1360 0.984 . S
N1355 H1361 0.985 . S
C1356 C1350 1.379 . S
C1356 C1353 1.363 . S
C1356 N1354 1.376 . S
C1357 C1351 1.363 . S
C1357 C1352 1.379 . S
C1357 N1355 1.356 . S
N1358 C1350 1.356 . S
N1358 H1364 0.984 . S
N1358 H1365 0.984 . S
N1359 C1352 1.356 . S
N1359 H1362 0.984 . S
N1359 H1363 0.985 . S
H1360 N1355 0.984 . S
H1361 N1355 0.985 . S
H1362 N1359 0.984 . S
H1363 N1359 0.985 . S
H1364 N1358 0.984 . S
H1365 N1358 0.984 . S
H1366 N1354 0.967 1_556 S
H1367 N1354 0.980 1_556 S
C1368 C1369 1.363 . S
C1368 C1374 1.379 . S
C1368 N1376 1.356 . S
C1369 C1368 1.363 . S
C1369 C1375 1.363 . S
C1370 C1371 1.363 . S
C1370 C1375 1.379 . S
C1370 N1377 1.356 1_554 S
C1371 C1370 1.363 . S
C1371 C1374 1.363 . S
N1372 C1374 1.356 . S
N1372 H1384 0.984 . S
N1372 H1385 0.985 . S
N1373 C1375 1.356 . S
N1373 H1378 0.984 . S
N1373 H1379 0.936 1_554 S
C1374 C1368 1.379 . S
C1374 C1371 1.363 . S
C1374 N1372 1.356 . S
C1375 C1369 1.363 . S
C1375 C1370 1.379 . S
C1375 N1373 1.356 . S
N1376 C1368 1.356 . S
N1376 H1382 0.984 . S
N1376 H1383 0.984 . S
N1377 C1370 1.356 1_556 S
N1377 H1380 0.984 . S
N1377 H1381 0.985 . S
H1378 N1373 0.984 . S
H1379 N1373 0.936 1_556 S
H1380 N1377 0.984 . S
H1381 N1377 0.985 . S
H1382 N1376 0.984 . S
H1383 N1376 0.984 . S
H1384 N1372 0.984 . S
H1385 N1372 0.985 . S
C1386 C1387 1.363 . S
C1386 C1392 1.379 . S
C1386 N1394 1.356 . S
C1387 C1386 1.363 . S
C1387 C1393 1.363 . S
C1388 C1389 1.363 . S
C1388 C1393 1.379 . S
C1388 N1395 1.356 . S
C1389 C1388 1.363 . S
C1389 C1392 1.363 . S
N1390 C1392 1.356 1_554 S
N1390 H1402 0.984 . S
N1390 H1403 0.985 . S
N1391 C1393 1.356 . S
N1391 H1396 0.984 . S
N1391 H1397 0.985 . S
C1392 C1386 1.379 . S
C1392 C1389 1.363 . S
C1392 N1390 1.356 1_556 S
C1393 C1387 1.363 . S
C1393 C1388 1.379 . S
C1393 N1391 1.356 . S
N1394 C1386 1.356 . S
N1394 H1400 0.984 . S
N1394 H1401 0.984 . S
N1395 C1388 1.356 . S
N1395 H1398 0.984 . S
N1395 H1399 0.985 . S
H1396 N1391 0.984 . S
H1397 N1391 0.985 . S
H1398 N1395 0.984 . S
H1399 N1395 0.985 . S
H1400 N1394 0.984 . S
H1401 N1394 0.984 . S
H1402 N1390 0.984 . S
H1403 N1390 0.985 . S
C1404 C1405 1.363 . S
C1404 C1410 1.379 . S
C1404 N1412 1.356 . S
C1405 C1404 1.363 . S
C1405 C1411 1.363 . S
C1406 C1407 1.363 . S
C1406 C1411 1.379 . S
C1406 N1413 1.356 . S
C1407 C1406 1.363 . S
C1407 C1410 1.363 . S
N1408 C1410 1.356 1_554 S
N1408 H1420 0.984 . S
N1408 H1421 0.985 . S
N1409 C1411 1.356 . S
N1409 H1414 0.984 . S
N1409 H1415 0.985 . S
C1410 C1404 1.379 . S
C1410 C1407 1.363 . S
C1410 N1408 1.356 1_556 S
C1411 C1405 1.363 . S
C1411 C1406 1.379 . S
C1411 N1409 1.356 . S
N1412 C1404 1.356 . S
N1412 H1418 0.984 1_556 S
N1412 H1419 0.984 . S
N1413 C1406 1.356 . S
N1413 H1416 0.984 . S
N1413 H1417 0.985 . S
H1414 N1409 0.984 . S
H1415 N1409 0.985 . S
H1416 N1413 0.984 . S
H1417 N1413 0.985 . S
H1418 N1412 0.984 1_554 S
H1419 N1412 0.984 . S
H1420 N1408 0.984 . S
H1421 N1408 0.985 . S
C1422 C1423 1.363 . S
C1422 C1428 1.379 . S
C1422 N1430 1.356 . S
C1423 C1422 1.363 . S
C1423 C1429 1.363 . S
C1424 C1425 1.363 . S
C1424 C1429 1.379 . S
C1424 N1431 1.356 . S
C1425 C1424 1.363 . S
C1425 C1428 1.363 . S
N1426 C1428 1.356 1_554 S
N1426 H1438 0.984 . S
N1426 H1439 0.985 . S
N1427 C1429 1.356 . S
N1427 H1432 0.984 . S
N1427 H1433 0.985 . S
C1428 C1422 1.379 . S
C1428 C1425 1.363 . S
C1428 N1426 1.356 1_556 S
C1429 C1423 1.363 . S
C1429 C1424 1.379 . S
C1429 N1427 1.356 . S
N1430 C1422 1.356 . S
N1430 H1436 0.984 1_556 S
N1430 H1437 0.984 . S
N1431 C1424 1.356 . S
N1431 H1434 0.984 . S
N1431 H1435 0.985 . S
H1432 N1427 0.984 . S
H1433 N1427 0.985 . S
H1434 N1431 0.984 . S
H1435 N1431 0.985 . S
H1436 N1430 0.984 1_554 S
H1437 N1430 0.984 . S
H1438 N1426 0.984 . S
H1439 N1426 0.985 . S
C1440 C1441 1.363 . S
C1440 C1446 1.379 . S
C1440 N1448 1.356 . S
C1441 C1440 1.363 . S
C1441 C1447 1.363 . S
C1442 C1443 1.363 . S
C1442 C1447 1.379 . S
C1442 N1449 1.356 . S
C1443 C1442 1.363 . S
C1443 C1446 1.363 . S
N1444 C1446 1.356 . S
N1444 H1456 0.984 1_556 S
N1444 H1457 0.977 1_556 S
N1445 C1447 1.356 . S
N1445 H1450 0.984 . S
N1445 H1451 0.985 . S
C1446 C1440 1.379 . S
C1446 C1443 1.363 . S
C1446 N1444 1.356 . S
C1447 C1441 1.363 . S
C1447 C1442 1.379 . S
C1447 N1445 1.356 . S
N1448 C1440 1.356 . S
N1448 H1454 0.984 . S
N1448 H1455 0.984 . S
N1449 C1442 1.356 . S
N1449 H1452 0.984 . S
N1449 H1453 0.985 . S
H1450 N1445 0.984 . S
H1451 N1445 0.985 . S
H1452 N1449 0.984 . S
H1453 N1449 0.985 . S
H1454 N1448 0.984 . S
H1455 N1448 0.984 . S
H1456 N1444 0.984 1_554 S
H1457 N1444 0.977 1_554 S
C1458 C1459 1.363 . S
C1458 C1464 1.379 . S
C1458 N1466 1.356 . S
C1459 C1458 1.363 . S
C1459 C1465 1.363 . S
C1460 C1461 1.363 . S
C1460 C1465 1.379 . S
C1460 N1467 1.356 . S
C1461 C1460 1.363 . S
C1461 C1464 1.363 . S
N1462 C1464 1.356 . S
N1462 H1474 0.984 . S
N1462 H1475 0.985 . S
N1463 C1465 1.356 . S
N1463 H1468 0.984 . S
N1463 H1469 0.985 . S
C1464 C1458 1.379 . S
C1464 C1461 1.363 . S
C1464 N1462 1.356 . S
C1465 C1459 1.363 . S
C1465 C1460 1.379 . S
C1465 N1463 1.356 . S
N1466 C1458 1.356 . S
N1466 H1472 0.984 . S
N1466 H1473 0.984 . S
N1467 C1460 1.356 . S
N1467 H1470 0.984 . S
N1467 H1471 0.985 . S
H1468 N1463 0.984 . S
H1469 N1463 0.985 . S
H1470 N1467 0.984 . S
H1471 N1467 0.985 . S
H1472 N1466 0.984 . S
H1473 N1466 0.984 . S
H1474 N1462 0.984 . S
H1475 N1462 0.985 . S
C1476 C1477 1.363 . S
C1476 C1482 1.379 . S
C1476 N1484 1.356 . S
C1477 C1476 1.363 . S
C1477 C1483 1.363 . S
C1478 C1479 1.363 . S
C1478 C1483 1.379 . S
C1478 N1485 1.356 . S
C1479 C1478 1.363 . S
C1479 C1482 1.363 . S
N1480 C1482 1.356 1_554 S
N1480 H1492 0.984 . S
N1480 H1493 0.985 . S
N1481 C1483 1.356 . S
N1481 H1486 0.984 . S
N1481 H1487 0.985 . S
C1482 C1476 1.379 . S
C1482 C1479 1.363 . S
C1482 N1480 1.356 1_556 S
C1483 C1477 1.363 . S
C1483 C1478 1.379 . S
C1483 N1481 1.356 . S
N1484 C1476 1.356 . S
N1484 H1490 0.984 1_556 S
N1484 H1491 0.984 . S
N1485 C1478 1.356 . S
N1485 H1488 0.984 . S
N1485 H1489 0.985 . S
H1486 N1481 0.984 . S
H1487 N1481 0.985 . S
H1488 N1485 0.984 . S
H1489 N1485 0.985 . S
H1490 N1484 0.984 1_554 S
H1491 N1484 0.984 . S
H1492 N1480 0.984 . S
H1493 N1480 0.985 . S
C1494 C1495 1.363 . S
C1494 C1500 1.379 . S
C1494 N1502 1.356 . S
C1495 C1494 1.363 . S
C1495 C1501 1.363 . S
C1496 C1497 1.363 . S
C1496 C1501 1.379 . S
C1496 N1503 1.356 . S
C1497 C1496 1.363 . S
C1497 C1500 1.363 . S
N1498 C1500 1.356 . S
N1498 H1510 0.984 . S
N1498 H1511 0.985 . S
N1499 C1501 1.356 . S
N1499 H1504 0.984 . S
N1499 H1505 0.985 . S
C1500 C1494 1.379 . S
C1500 C1497 1.363 . S
C1500 N1498 1.356 . S
C1501 C1495 1.363 . S
C1501 C1496 1.379 . S
C1501 N1499 1.356 . S
N1502 C1494 1.356 . S
N1502 H1508 0.984 . S
N1502 H1509 0.984 . S
N1503 C1496 1.356 . S
N1503 H1506 0.984 . S
N1503 H1507 0.985 1_554 S
H1504 N1499 0.984 . S
H1505 N1499 0.985 . S
H1506 N1503 0.984 . S
H1507 N1503 0.985 1_556 S
H1508 N1502 0.984 . S
H1509 N1502 0.984 . S
H1510 N1498 0.984 . S
H1511 N1498 0.985 . S
C1512 C1513 1.363 . S
C1512 C1518 1.379 . S
C1512 N1520 1.356 . S
C1513 C1512 1.363 . S
C1513 C1519 1.363 . S
C1514 C1515 1.363 . S
C1514 C1519 1.379 . S
C1514 N1521 1.356 . S
C1515 C1514 1.363 . S
C1515 C1518 1.363 . S
N1516 C1518 1.356 . S
N1516 H1528 0.984 . S
N1516 H1529 0.985 . S
N1517 C1519 1.356 . S
N1517 H1522 0.984 . S
N1517 H1523 0.985 . S
C1518 C1512 1.379 . S
C1518 C1515 1.363 . S
C1518 N1516 1.356 . S
C1519 C1513 1.363 . S
C1519 C1514 1.379 . S
C1519 N1517 1.356 . S
N1520 C1512 1.356 . S
N1520 H1526 0.984 . S
N1520 H1527 0.984 . S
N1521 C1514 1.356 . S
N1521 H1524 0.984 . S
N1521 H1525 0.985 . S
H1522 N1517 0.984 . S
H1523 N1517 0.985 . S
H1524 N1521 0.984 . S
H1525 N1521 0.985 . S
H1526 N1520 0.984 . S
H1527 N1520 0.984 . S
H1528 N1516 0.984 . S
H1529 N1516 0.985 . S
C1530 C1531 1.363 . S
C1530 C1536 1.379 . S
C1530 N1538 1.356 . S
C1531 C1530 1.363 . S
C1531 C1537 1.363 . S
C1532 C1533 1.363 . S
C1532 C1537 1.379 . S
C1532 N1539 1.356 . S
C1533 C1532 1.363 . S
C1533 C1536 1.363 . S
N1534 C1536 1.356 1_556 S
N1534 H1546 0.984 . S
N1534 H1547 0.985 . S
N1535 C1537 1.356 . S
N1535 H1540 0.984 . S
N1535 H1541 0.985 . S
C1536 C1530 1.379 . S
C1536 C1533 1.363 . S
C1536 N1534 1.356 1_554 S
C1537 C1531 1.363 . S
C1537 C1532 1.379 . S
C1537 N1535 1.356 . S
N1538 C1530 1.356 . S
N1538 H1544 0.984 1_554 S
N1538 H1545 0.984 . S
N1539 C1532 1.356 . S
N1539 H1542 0.984 . S
N1539 H1543 0.985 . S
H1540 N1535 0.984 . S
H1541 N1535 0.985 . S
H1542 N1539 0.984 . S
H1543 N1539 0.985 . S
H1544 N1538 0.984 1_556 S
H1545 N1538 0.984 . S
H1546 N1534 0.984 . S
H1547 N1534 0.985 . S
C1548 C1549 1.363 . S
C1548 C1554 1.379 . S
C1548 N1556 1.356 . S
C1549 C1548 1.363 . S
C1549 C1555 1.363 . S
C1550 C1551 1.363 . S
C1550 C1555 1.379 . S
C1550 N1557 1.356 . S
C1551 C1550 1.363 . S
C1551 C1554 1.363 . S
N1552 C1554 1.356 . S
N1552 H1564 0.984 . S
N1552 H1565 0.985 . S
N1553 C1555 1.356 . S
N1553 H1558 0.984 1_455 S
N1553 H1559 0.985 . S
C1554 C1548 1.379 . S
C1554 C1551 1.363 . S
C1554 N1552 1.356 . S
C1555 C1549 1.363 . S
C1555 C1550 1.379 . S
C1555 N1553 1.356 . S
N1556 C1548 1.356 . S
N1556 H1562 0.984 . S
N1556 H1563 0.984 1_455 S
N1557 C1550 1.356 . S
N1557 H1560 0.984 . S
N1557 H1561 0.985 . S
H1558 N1553 0.984 1_655 S
H1559 N1553 0.985 . S
H1560 N1557 0.984 . S
H1561 N1557 0.985 . S
H1562 N1556 0.984 . S
H1563 N1556 0.984 1_655 S
H1564 N1552 0.984 . S
H1565 N1552 0.985 . S
C1566 C1567 1.363 . S
C1566 C1572 1.379 . S
C1566 N1574 1.356 . S
C1567 C1566 1.363 . S
C1567 C1573 1.363 . S
C1568 C1569 1.363 . S
C1568 C1573 1.379 . S
C1568 N1575 1.356 . S
C1569 C1568 1.363 . S
C1569 C1572 1.363 . S
N1570 C1572 1.356 . S
N1570 H1582 0.984 . S
N1570 H1583 0.985 . S
N1571 C1573 1.356 . S
N1571 H1576 0.984 . S
N1571 H1577 0.985 . S
C1572 C1566 1.379 . S
C1572 C1569 1.363 . S
C1572 N1570 1.356 . S
C1573 C1567 1.363 . S
C1573 C1568 1.379 . S
C1573 N1571 1.356 . S
N1574 C1566 1.356 . S
N1574 H1580 0.984 . S
N1574 H1581 0.984 . S
N1575 C1568 1.356 . S
N1575 H1578 0.984 . S
N1575 H1579 0.985 . S
H1576 N1571 0.984 . S
H1577 N1571 0.985 . S
H1578 N1575 0.984 . S
H1579 N1575 0.985 . S
H1580 N1574 0.984 . S
H1581 N1574 0.984 . S
H1582 N1570 0.984 . S
H1583 N1570 0.985 . S
C1584 C1585 1.393 . S
C1584 C1590 1.379 . S
C1584 N1592 1.368 . S
C1585 C1584 1.393 . S
C1585 C1591 1.365 . S
C1586 C1587 1.363 . S
C1586 C1591 1.379 . S
C1586 N1593 1.356 . S
C1587 C1586 1.363 . S
C1587 C1590 1.363 . S
N1588 C1590 1.356 . S
N1588 H1600 0.984 . S
N1588 H1601 0.985 . S
N1589 C1591 1.356 1_545 S
N1589 H1594 0.984 . S
N1589 H1595 0.985 . S
C1590 C1584 1.379 . S
C1590 C1587 1.363 . S
C1590 N1588 1.356 . S
C1591 C1585 1.365 . S
C1591 C1586 1.379 . S
C1591 N1589 1.356 1_565 S
N1592 C1584 1.368 . S
N1592 H1598 1.009 . S
N1592 H1599 0.949 1_565 S
N1593 C1586 1.356 . S
N1593 H1596 0.984 . S
N1593 H1597 0.985 . S
H1594 N1589 0.984 . S
H1595 N1589 0.985 . S
H1596 N1593 0.984 . S
H1597 N1593 0.985 . S
H1598 N1592 1.009 . S
H1599 N1592 0.949 1_545 S
H1600 N1588 0.984 . S
H1601 N1588 0.985 . S
C1602 C1603 1.363 . S
C1602 C1608 1.379 . S
C1602 N1610 1.356 . S
C1603 C1602 1.363 . S
C1603 C1609 1.363 . S
C1604 C1605 1.363 . S
C1604 C1609 1.379 . S
C1604 N1611 1.356 . S
C1605 C1604 1.363 . S
C1605 C1608 1.363 . S
N1606 C1608 1.356 . S
N1606 H1618 0.984 . S
N1606 H1619 0.985 . S
N1607 C1609 1.356 . S
N1607 H1612 0.984 . S
N1607 H1613 0.985 . S
C1608 C1602 1.379 . S
C1608 C1605 1.363 . S
C1608 N1606 1.356 . S
C1609 C1603 1.363 . S
C1609 C1604 1.379 . S
C1609 N1607 1.356 . S
N1610 C1602 1.356 . S
N1610 H1616 0.984 . S
N1610 H1617 0.984 . S
N1611 C1604 1.356 . S
N1611 H1614 0.984 . S
N1611 H1615 0.985 . S
H1612 N1607 0.984 . S
H1613 N1607 0.985 . S
H1614 N1611 0.984 . S
H1615 N1611 0.985 . S
H1616 N1610 0.984 . S
H1617 N1610 0.984 . S
H1618 N1606 0.984 . S
H1619 N1606 0.985 . S
C1620 C1621 1.363 . S
C1620 C1626 1.379 . S
C1620 N1628 1.356 . S
C1621 C1620 1.363 . S
C1621 C1627 1.363 . S
C1622 C1623 1.363 . S
C1622 C1627 1.379 . S
C1622 N1629 1.356 . S
C1623 C1622 1.363 . S
C1623 C1626 1.363 . S
N1624 C1626 1.356 . S
N1624 H1636 0.984 . S
N1624 H1637 0.985 . S
N1625 C1627 1.356 . S
N1625 H1630 0.984 . S
N1625 H1631 0.985 . S
C1626 C1620 1.379 . S
C1626 C1623 1.363 . S
C1626 N1624 1.356 . S
C1627 C1621 1.363 . S
C1627 C1622 1.379 . S
C1627 N1625 1.356 . S
N1628 C1620 1.356 . S
N1628 H1634 0.984 . S
N1628 H1635 0.984 . S
N1629 C1622 1.356 . S
N1629 H1632 0.984 . S
N1629 H1633 0.985 . S
H1630 N1625 0.984 . S
H1631 N1625 0.985 . S
H1632 N1629 0.984 . S
H1633 N1629 0.985 . S
H1634 N1628 0.984 . S
H1635 N1628 0.984 . S
H1636 N1624 0.984 . S
H1637 N1624 0.985 . S
C1638 C1639 1.363 . S
C1638 C1644 1.379 . S
C1638 N1646 1.356 . S
C1639 C1638 1.363 . S
C1639 C1645 1.363 . S
C1640 C1641 1.363 . S
C1640 C1645 1.379 . S
C1640 N1647 1.356 . S
C1641 C1640 1.363 . S
C1641 C1644 1.363 . S
N1642 C1644 1.356 . S
N1642 H1654 0.984 . S
N1642 H1655 0.985 . S
N1643 C1645 1.356 . S
N1643 H1648 0.984 . S
N1643 H1649 0.985 . S
C1644 C1638 1.379 . S
C1644 C1641 1.363 . S
C1644 N1642 1.356 . S
C1645 C1639 1.363 . S
C1645 C1640 1.379 . S
C1645 N1643 1.356 . S
N1646 C1638 1.356 . S
N1646 H1652 0.984 . S
N1646 H1653 0.984 . S
N1647 C1640 1.356 . S
N1647 H1650 0.984 . S
N1647 H1651 0.985 . S
H1648 N1643 0.984 . S
H1649 N1643 0.985 . S
H1650 N1647 0.984 . S
H1651 N1647 0.985 . S
H1652 N1646 0.984 . S
H1653 N1646 0.984 . S
H1654 N1642 0.984 . S
H1655 N1642 0.985 . S
C1656 C1657 1.363 . S
C1656 C1662 1.379 . S
C1656 N1664 1.356 . S
C1657 C1656 1.363 . S
C1657 C1663 1.363 . S
C1658 C1659 1.363 . S
C1658 C1663 1.379 . S
C1658 N1665 1.356 . S
C1659 C1658 1.363 . S
C1659 C1662 1.363 . S
N1660 C1662 1.356 . S
N1660 H1672 0.984 . S
N1660 H1673 0.985 . S
N1661 C1663 1.356 . S
N1661 H1666 0.984 . S
N1661 H1667 0.985 . S
C1662 C1656 1.379 . S
C1662 C1659 1.363 . S
C1662 N1660 1.356 . S
C1663 C1657 1.363 . S
C1663 C1658 1.379 . S
C1663 N1661 1.356 . S
N1664 C1656 1.356 . S
N1664 H1670 0.984 . S
N1664 H1671 0.984 . S
N1665 C1658 1.356 . S
N1665 H1668 0.984 . S
N1665 H1669 0.985 . S
H1666 N1661 0.984 . S
H1667 N1661 0.985 . S
H1668 N1665 0.984 . S
H1669 N1665 0.985 . S
H1670 N1664 0.984 . S
H1671 N1664 0.984 . S
H1672 N1660 0.984 . S
H1673 N1660 0.985 . S
C1674 C1675 1.363 . S
C1674 C1680 1.379 . S
C1674 N1682 1.356 . S
C1675 C1674 1.363 . S
C1675 C1681 1.363 . S
C1676 C1677 1.363 . S
C1676 C1681 1.379 . S
C1676 N1683 1.356 . S
C1677 C1676 1.363 . S
C1677 C1680 1.363 . S
N1678 C1680 1.356 . S
N1678 H1690 0.984 . S
N1678 H1691 0.985 . S
N1679 C1681 1.356 . S
N1679 H1684 0.984 . S
N1679 H1685 0.985 . S
C1680 C1674 1.379 . S
C1680 C1677 1.363 . S
C1680 N1678 1.356 . S
C1681 C1675 1.363 . S
C1681 C1676 1.379 . S
C1681 N1679 1.356 . S
N1682 C1674 1.356 . S
N1682 H1688 0.984 . S
N1682 H1689 0.984 . S
N1683 C1676 1.356 . S
N1683 H1686 0.984 . S
N1683 H1687 0.985 . S
H1684 N1679 0.984 . S
H1685 N1679 0.985 . S
H1686 N1683 0.984 . S
H1687 N1683 0.985 . S
H1688 N1682 0.984 . S
H1689 N1682 0.984 . S
H1690 N1678 0.984 . S
H1691 N1678 0.985 . S
C1692 C1693 1.363 . S
C1692 C1698 1.379 . S
C1692 N1700 1.356 . S
C1693 C1692 1.363 . S
C1693 C1699 1.363 . S
C1694 C1695 1.363 . S
C1694 C1699 1.379 . S
C1694 N1701 1.356 . S
C1695 C1694 1.363 . S
C1695 C1698 1.363 . S
N1696 C1698 1.356 . S
N1696 H1708 0.984 . S
N1696 H1709 0.985 . S
N1697 C1699 1.356 . S
N1697 H1702 0.984 . S
N1697 H1703 0.985 . S
C1698 C1692 1.379 . S
C1698 C1695 1.363 . S
C1698 N1696 1.356 . S
C1699 C1693 1.363 . S
C1699 C1694 1.379 . S
C1699 N1697 1.356 . S
N1700 C1692 1.356 . S
N1700 H1706 0.984 . S
N1700 H1707 0.984 . S
N1701 C1694 1.356 . S
N1701 H1704 0.984 . S
N1701 H1705 0.985 . S
H1702 N1697 0.984 . S
H1703 N1697 0.985 . S
H1704 N1701 0.984 . S
H1705 N1701 0.985 . S
H1706 N1700 0.984 . S
H1707 N1700 0.984 . S
H1708 N1696 0.984 . S
H1709 N1696 0.985 . S
C1710 C1711 1.363 . S
C1710 C1716 1.379 . S
C1710 N1718 1.356 . S
C1711 C1710 1.363 . S
C1711 C1717 1.363 . S
C1712 C1713 1.363 . S
C1712 C1717 1.379 . S
C1712 N1719 1.356 . S
C1713 C1712 1.363 . S
C1713 C1716 1.363 . S
N1714 C1716 1.356 . S
N1714 H1726 0.984 . S
N1714 H1727 0.985 . S
N1715 C1717 1.356 1_545 S
N1715 H1720 0.984 . S
N1715 H1721 0.985 . S
C1716 C1710 1.379 . S
C1716 C1713 1.363 . S
C1716 N1714 1.356 . S
C1717 C1711 1.363 . S
C1717 C1712 1.379 . S
C1717 N1715 1.356 1_565 S
N1718 C1710 1.356 . S
N1718 H1724 0.984 . S
N1718 H1725 0.984 1_565 S
N1719 C1712 1.356 . S
N1719 H1722 0.984 . S
N1719 H1723 0.985 . S
H1720 N1715 0.984 . S
H1721 N1715 0.985 . S
H1722 N1719 0.984 . S
H1723 N1719 0.985 . S
H1724 N1718 0.984 . S
H1725 N1718 0.984 1_545 S
H1726 N1714 0.984 . S
H1727 N1714 0.985 . S
C1728 C1729 1.363 . S
C1728 C1734 1.379 . S
C1728 N1736 1.356 1_455 S
C1729 C1728 1.363 . S
C1729 C1735 1.363 . S
C1730 C1731 1.363 . S
C1730 C1735 1.379 . S
C1730 N1737 1.356 . S
C1731 C1730 1.363 . S
C1731 C1734 1.363 . S
N1732 C1734 1.356 . S
N1732 H1744 0.984 . S
N1732 H1745 0.985 . S
N1733 C1735 1.356 . S
N1733 H1738 0.984 1_455 S
N1733 H1739 0.985 . S
C1734 C1728 1.379 . S
C1734 C1731 1.363 . S
C1734 N1732 1.356 . S
C1735 C1729 1.363 . S
C1735 C1730 1.379 . S
C1735 N1733 1.356 . S
N1736 C1728 1.356 1_655 S
N1736 H1742 0.984 . S
N1736 H1743 0.984 . S
N1737 C1730 1.356 . S
N1737 H1740 0.984 . S
N1737 H1741 0.985 . S
H1738 N1733 0.984 1_655 S
H1739 N1733 0.985 . S
H1740 N1737 0.984 . S
H1741 N1737 0.985 . S
H1742 N1736 0.984 . S
H1743 N1736 0.984 . S
H1744 N1732 0.984 . S
H1745 N1732 0.985 . S
C1746 C1747 1.363 . S
C1746 C1752 1.379 . S
C1746 N1754 1.356 . S
C1747 C1746 1.363 . S
C1747 C1753 1.363 . S
C1748 C1749 1.363 . S
C1748 C1753 1.379 . S
C1748 N1755 1.356 . S
C1749 C1748 1.363 . S
C1749 C1752 1.363 . S
N1750 C1752 1.356 . S
N1750 H1762 0.984 . S
N1750 H1763 0.985 . S
N1751 C1753 1.356 . S
N1751 H1756 0.984 . S
N1751 H1757 0.985 . S
C1752 C1746 1.379 . S
C1752 C1749 1.363 . S
C1752 N1750 1.356 . S
C1753 C1747 1.363 . S
C1753 C1748 1.379 . S
C1753 N1751 1.356 . S
N1754 C1746 1.356 . S
N1754 H1760 0.984 . S
N1754 H1761 0.984 . S
N1755 C1748 1.356 . S
N1755 H1758 0.984 . S
N1755 H1759 0.985 . S
H1756 N1751 0.984 . S
H1757 N1751 0.985 . S
H1758 N1755 0.984 . S
H1759 N1755 0.985 . S
H1760 N1754 0.984 . S
H1761 N1754 0.984 . S
H1762 N1750 0.984 . S
H1763 N1750 0.985 . S
C1764 C1765 1.363 . S
C1764 C1770 1.379 . S
C1764 N1772 1.356 . S
C1765 C1764 1.363 . S
C1765 C1771 1.363 . S
C1766 C1767 1.363 . S
C1766 C1771 1.379 . S
C1766 N1773 1.356 . S
C1767 C1766 1.363 . S
C1767 C1770 1.363 . S
N1768 C1770 1.356 . S
N1768 H1780 0.984 . S
N1768 H1781 0.985 . S
N1769 C1771 1.356 . S
N1769 H1774 0.984 . S
N1769 H1775 0.985 . S
C1770 C1764 1.379 . S
C1770 C1767 1.363 . S
C1770 N1768 1.356 . S
C1771 C1765 1.363 . S
C1771 C1766 1.379 . S
C1771 N1769 1.356 . S
N1772 C1764 1.356 . S
N1772 H1778 0.984 . S
N1772 H1779 0.984 . S
N1773 C1766 1.356 . S
N1773 H1776 0.984 . S
N1773 H1777 0.985 . S
H1774 N1769 0.984 . S
H1775 N1769 0.985 . S
H1776 N1773 0.984 . S
H1777 N1773 0.985 . S
H1778 N1772 0.984 . S
H1779 N1772 0.984 . S
H1780 N1768 0.984 . S
H1781 N1768 0.985 . S
C1782 C1783 1.363 . S
C1782 C1788 1.379 . S
C1782 N1790 1.356 . S
C1783 C1782 1.363 . S
C1783 C1789 1.363 . S
C1784 C1785 1.363 . S
C1784 C1789 1.379 . S
C1784 N1791 1.356 . S
C1785 C1784 1.363 . S
C1785 C1788 1.363 . S
N1786 C1788 1.356 . S
N1786 H1798 0.984 . S
N1786 H1799 0.985 . S
N1787 C1789 1.356 . S
N1787 H1792 0.984 . S
N1787 H1793 0.985 . S
C1788 C1782 1.379 . S
C1788 C1785 1.363 . S
C1788 N1786 1.356 . S
C1789 C1783 1.363 . S
C1789 C1784 1.379 . S
C1789 N1787 1.356 . S
N1790 C1782 1.356 . S
N1790 H1796 0.984 . S
N1790 H1797 0.984 . S
N1791 C1784 1.356 . S
N1791 H1794 0.984 . S
N1791 H1795 0.985 . S
H1792 N1787 0.984 . S
H1793 N1787 0.985 . S
H1794 N1791 0.984 . S
H1795 N1791 0.985 . S
H1796 N1790 0.984 . S
H1797 N1790 0.984 . S
H1798 N1786 0.984 . S
H1799 N1786 0.985 . S
C1800 C1801 1.363 . S
C1800 C1806 1.379 . S
C1800 N1808 1.356 . S
C1801 C1800 1.363 . S
C1801 C1807 1.363 . S
C1802 C1803 1.363 . S
C1802 C1807 1.379 . S
C1802 N1809 1.356 . S
C1803 C1802 1.363 . S
C1803 C1806 1.363 . S
N1804 C1806 1.356 . S
N1804 H1816 0.984 . S
N1804 H1817 0.985 . S
N1805 C1807 1.356 . S
N1805 H1810 0.984 . S
N1805 H1811 0.985 . S
C1806 C1800 1.379 . S
C1806 C1803 1.363 . S
C1806 N1804 1.356 . S
C1807 C1801 1.363 . S
C1807 C1802 1.379 . S
C1807 N1805 1.356 . S
N1808 C1800 1.356 . S
N1808 H1814 0.984 . S
N1808 H1815 0.984 . S
N1809 C1802 1.356 . S
N1809 H1812 0.984 . S
N1809 H1813 0.985 . S
H1810 N1805 0.984 . S
H1811 N1805 0.985 . S
H1812 N1809 0.984 . S
H1813 N1809 0.985 . S
H1814 N1808 0.984 . S
H1815 N1808 0.984 . S
H1816 N1804 0.984 . S
H1817 N1804 0.985 . S
C1818 C1819 1.363 . S
C1818 C1824 1.379 . S
C1818 N1826 1.356 . S
C1819 C1818 1.363 . S
C1819 C1825 1.363 . S
C1820 C1821 1.363 . S
C1820 C1825 1.379 . S
C1820 N1827 1.356 . S
C1821 C1820 1.363 . S
C1821 C1824 1.363 . S
N1822 C1824 1.356 . S
N1822 H1834 0.984 . S
N1822 H1835 0.985 . S
N1823 C1825 1.356 1_565 S
N1823 H1828 0.984 . S
N1823 H1829 0.985 . S
C1824 C1818 1.379 . S
C1824 C1821 1.363 . S
C1824 N1822 1.356 . S
C1825 C1819 1.363 . S
C1825 C1820 1.379 . S
C1825 N1823 1.356 1_545 S
N1826 C1818 1.356 . S
N1826 H1832 0.984 . S
N1826 H1833 0.984 1_545 S
N1827 C1820 1.356 . S
N1827 H1830 0.984 . S
N1827 H1831 0.985 . S
H1828 N1823 0.984 . S
H1829 N1823 0.985 . S
H1830 N1827 0.984 . S
H1831 N1827 0.985 . S
H1832 N1826 0.984 . S
H1833 N1826 0.984 1_565 S
H1834 N1822 0.984 . S
H1835 N1822 0.985 . S
C1836 C1837 1.363 . S
C1836 C1842 1.379 . S
C1836 N1844 1.356 . S
C1837 C1836 1.363 . S
C1837 C1843 1.363 . S
C1838 C1839 1.363 . S
C1838 C1843 1.379 . S
C1838 N1845 1.356 . S
C1839 C1838 1.363 . S
C1839 C1842 1.363 . S
N1840 C1842 1.356 . S
N1840 H1852 0.984 . S
N1840 H1853 0.985 . S
N1841 C1843 1.356 1_455 S
N1841 H1846 0.984 . S
N1841 H1847 0.985 . S
C1842 C1836 1.379 . S
C1842 C1839 1.363 . S
C1842 N1840 1.356 . S
C1843 C1837 1.363 . S
C1843 C1838 1.379 . S
C1843 N1841 1.356 1_655 S
N1844 C1836 1.356 . S
N1844 H1850 0.984 . S
N1844 H1851 0.956 1_655 S
N1845 C1838 1.356 . S
N1845 H1848 0.984 . S
N1845 H1849 0.985 . S
H1846 N1841 0.984 . S
H1847 N1841 0.985 . S
H1848 N1845 0.984 . S
H1849 N1845 0.985 . S
H1850 N1844 0.984 . S
H1851 N1844 0.956 1_455 S
H1852 N1840 0.984 . S
H1853 N1840 0.985 . S
C1854 C1855 1.363 . S
C1854 C1860 1.379 . S
C1854 N1862 1.356 . S
C1855 C1854 1.363 . S
C1855 C1861 1.363 . S
C1856 C1857 1.363 . S
C1856 C1861 1.379 . S
C1856 N1863 1.356 . S
C1857 C1856 1.363 . S
C1857 C1860 1.363 . S
N1858 C1860 1.356 . S
N1858 H1870 0.984 . S
N1858 H1871 0.985 . S
N1859 C1861 1.356 . S
N1859 H1864 0.984 . S
N1859 H1865 0.985 . S
C1860 C1854 1.379 . S
C1860 C1857 1.363 . S
C1860 N1858 1.356 . S
C1861 C1855 1.363 . S
C1861 C1856 1.379 . S
C1861 N1859 1.356 . S
N1862 C1854 1.356 . S
N1862 H1868 0.984 . S
N1862 H1869 0.984 . S
N1863 C1856 1.356 . S
N1863 H1866 0.984 . S
N1863 H1867 0.985 . S
H1864 N1859 0.984 . S
H1865 N1859 0.985 . S
H1866 N1863 0.984 . S
H1867 N1863 0.985 . S
H1868 N1862 0.984 . S
H1869 N1862 0.984 . S
H1870 N1858 0.984 . S
H1871 N1858 0.985 . S
C1872 C1873 1.363 . S
C1872 C1878 1.379 . S
C1872 N1880 1.356 1_655 S
C1873 C1872 1.363 . S
C1873 C1879 1.363 . S
C1874 C1875 1.363 . S
C1874 C1879 1.379 . S
C1874 N1881 1.356 . S
C1875 C1874 1.363 . S
C1875 C1878 1.363 . S
N1876 C1878 1.356 . S
N1876 H1888 0.984 . S
N1876 H1889 0.985 . S
N1877 C1879 1.356 . S
N1877 H1882 0.984 1_655 S
N1877 H1883 0.985 . S
C1878 C1872 1.379 . S
C1878 C1875 1.363 . S
C1878 N1876 1.356 . S
C1879 C1873 1.363 . S
C1879 C1874 1.379 . S
C1879 N1877 1.356 . S
N1880 C1872 1.356 1_455 S
N1880 H1886 0.984 . S
N1880 H1887 0.984 . S
N1881 C1874 1.356 . S
N1881 H1884 0.984 . S
N1881 H1885 0.985 . S
H1882 N1877 0.984 1_455 S
H1883 N1877 0.985 . S
H1884 N1881 0.984 . S
H1885 N1881 0.985 . S
H1886 N1880 0.984 . S
H1887 N1880 0.984 . S
H1888 N1876 0.984 . S
H1889 N1876 0.985 . S
C1890 C1891 1.363 . S
C1890 C1896 1.379 . S
C1890 N1898 1.356 . S
C1891 C1890 1.363 . S
C1891 C1897 1.363 . S
C1892 C1893 1.363 . S
C1892 C1897 1.379 . S
C1892 N1899 1.356 . S
C1893 C1892 1.363 . S
C1893 C1896 1.363 . S
N1894 C1896 1.356 . S
N1894 H1906 0.984 . S
N1894 H1907 0.985 . S
N1895 C1897 1.356 . S
N1895 H1900 0.984 . S
N1895 H1901 0.985 . S
C1896 C1890 1.379 . S
C1896 C1893 1.363 . S
C1896 N1894 1.356 . S
C1897 C1891 1.363 . S
C1897 C1892 1.379 . S
C1897 N1895 1.356 . S
N1898 C1890 1.356 . S
N1898 H1904 0.984 . S
N1898 H1905 0.984 . S
N1899 C1892 1.356 . S
N1899 H1902 0.984 . S
N1899 H1903 0.985 . S
H1900 N1895 0.984 . S
H1901 N1895 0.985 . S
H1902 N1899 0.984 . S
H1903 N1899 0.985 . S
H1904 N1898 0.984 . S
H1905 N1898 0.984 . S
H1906 N1894 0.984 . S
H1907 N1894 0.985 . S
C1908 C1909 1.363 . S
C1908 C1914 1.379 . S
C1908 N1916 1.356 1_545 S
C1909 C1908 1.363 . S
C1909 C1915 1.363 . S
C1910 C1911 1.363 . S
C1910 C1915 1.379 . S
C1910 N1917 1.356 . S
C1911 C1910 1.363 . S
C1911 C1914 1.363 . S
N1912 C1914 1.356 . S
N1912 H1924 0.984 . S
N1912 H1925 0.985 . S
N1913 C1915 1.356 1_565 S
N1913 H1918 0.984 . S
N1913 H1919 0.985 1_565 S
C1914 C1908 1.379 . S
C1914 C1911 1.363 . S
C1914 N1912 1.356 . S
C1915 C1909 1.363 . S
C1915 C1910 1.379 . S
C1915 N1913 1.356 1_545 S
N1916 C1908 1.356 1_565 S
N1916 H1922 0.984 1_565 S
N1916 H1923 0.984 . S
N1917 C1910 1.356 . S
N1917 H1920 0.984 . S
N1917 H1921 0.985 . S
H1918 N1913 0.984 . S
H1919 N1913 0.985 1_545 S
H1920 N1917 0.984 . S
H1921 N1917 0.985 . S
H1922 N1916 0.984 1_545 S
H1923 N1916 0.984 . S
H1924 N1912 0.984 . S
H1925 N1912 0.985 . S
C1926 C1927 1.363 . S
C1926 C1932 1.379 . S
C1926 N1934 1.356 . S
C1927 C1926 1.363 . S
C1927 C1933 1.363 . S
C1928 C1929 1.363 . S
C1928 C1933 1.379 . S
C1928 N1935 1.356 . S
C1929 C1928 1.363 . S
C1929 C1932 1.363 . S
N1930 C1932 1.356 . S
N1930 H1942 0.984 . S
N1930 H1943 0.985 . S
N1931 C1933 1.356 . S
N1931 H1936 0.984 . S
N1931 H1937 0.985 . S
C1932 C1926 1.379 . S
C1932 C1929 1.363 . S
C1932 N1930 1.356 . S
C1933 C1927 1.363 . S
C1933 C1928 1.379 . S
C1933 N1931 1.356 . S
N1934 C1926 1.356 . S
N1934 H1940 0.984 . S
N1934 H1941 0.984 . S
N1935 C1928 1.356 . S
N1935 H1938 0.984 . S
N1935 H1939 0.985 . S
H1936 N1931 0.984 . S
H1937 N1931 0.985 . S
H1938 N1935 0.984 . S
H1939 N1935 0.985 . S
H1940 N1934 0.984 . S
H1941 N1934 0.984 . S
H1942 N1930 0.984 . S
H1943 N1930 0.985 . S
C1944 C1945 1.363 . S
C1944 C1950 1.379 . S
C1944 N1952 1.356 . S
C1945 C1944 1.363 . S
C1945 C1951 1.363 . S
C1946 C1947 1.363 . S
C1946 C1951 1.379 . S
C1946 N1953 1.356 . S
C1947 C1946 1.363 . S
C1947 C1950 1.363 . S
N1948 C1950 1.356 . S
N1948 H1960 0.984 . S
N1948 H1961 0.985 . S
N1949 C1951 1.356 . S
N1949 H1954 0.984 . S
N1949 H1955 0.985 . S
C1950 C1944 1.379 . S
C1950 C1947 1.363 . S
C1950 N1948 1.356 . S
C1951 C1945 1.363 . S
C1951 C1946 1.379 . S
C1951 N1949 1.356 . S
N1952 C1944 1.356 . S
N1952 H1958 0.984 . S
N1952 H1959 0.984 . S
N1953 C1946 1.356 . S
N1953 H1956 0.984 . S
N1953 H1957 0.985 . S
H1954 N1949 0.984 . S
H1955 N1949 0.985 . S
H1956 N1953 0.984 . S
H1957 N1953 0.985 . S
H1958 N1952 0.984 . S
H1959 N1952 0.984 . S
H1960 N1948 0.984 . S
H1961 N1948 0.985 . S
C1962 C1963 1.363 . S
C1962 C1968 1.379 . S
C1962 N1970 1.356 . S
C1963 C1962 1.363 . S
C1963 C1969 1.363 . S
C1964 C1965 1.363 . S
C1964 C1969 1.379 . S
C1964 N1971 1.356 . S
C1965 C1964 1.363 . S
C1965 C1968 1.363 . S
N1966 C1968 1.356 . S
N1966 H1978 0.984 . S
N1966 H1979 0.985 . S
N1967 C1969 1.356 . S
N1967 H1972 0.984 . S
N1967 H1973 0.985 . S
C1968 C1962 1.379 . S
C1968 C1965 1.363 . S
C1968 N1966 1.356 . S
C1969 C1963 1.363 . S
C1969 C1964 1.379 . S
C1969 N1967 1.356 . S
N1970 C1962 1.356 . S
N1970 H1976 0.984 . S
N1970 H1977 0.984 . S
N1971 C1964 1.356 . S
N1971 H1974 0.984 . S
N1971 H1975 0.985 . S
H1972 N1967 0.984 . S
H1973 N1967 0.985 . S
H1974 N1971 0.984 . S
H1975 N1971 0.985 . S
H1976 N1970 0.984 . S
H1977 N1970 0.984 . S
H1978 N1966 0.984 . S
H1979 N1966 0.985 . S
C1980 C1981 1.363 . S
C1980 C1986 1.379 . S
C1980 N1988 1.356 . S
C1981 C1980 1.363 . S
C1981 C1987 1.363 . S
C1982 C1983 1.363 . S
C1982 C1987 1.379 . S
C1982 N1989 1.356 . S
C1983 C1982 1.363 . S
C1983 C1986 1.363 . S
N1984 C1986 1.356 1_545 S
N1984 H1996 0.984 . S
N1984 H1997 0.985 . S
N1985 C1987 1.356 . S
N1985 H1990 0.984 . S
N1985 H1991 0.985 . S
C1986 C1980 1.379 . S
C1986 C1983 1.363 . S
C1986 N1984 1.356 1_565 S
C1987 C1981 1.363 . S
C1987 C1982 1.379 . S
C1987 N1985 1.356 . S
N1988 C1980 1.356 . S
N1988 H1994 0.984 1_565 S
N1988 H1995 0.984 . S
N1989 C1982 1.356 . S
N1989 H1992 0.984 . S
N1989 H1993 0.985 . S
H1990 N1985 0.984 . S
H1991 N1985 0.985 . S
H1992 N1989 0.984 . S
H1993 N1989 0.985 . S
H1994 N1988 0.984 1_545 S
H1995 N1988 0.984 . S
H1996 N1984 0.984 . S
H1997 N1984 0.985 . S
C1998 C1999 1.363 . S
C1998 C2004 1.379 . S
C1998 N2006 1.356 . S
C1999 C1998 1.363 . S
C1999 C2005 1.363 . S
C2000 C2001 1.363 . S
C2000 C2005 1.379 . S
C2000 N2007 1.356 . S
C2001 C2000 1.363 . S
C2001 C2004 1.363 . S
N2002 C2004 1.356 . S
N2002 H2014 0.984 . S
N2002 H2015 0.985 . S
N2003 C2005 1.356 . S
N2003 H2008 0.984 . S
N2003 H2009 0.985 . S
C2004 C1998 1.379 . S
C2004 C2001 1.363 . S
C2004 N2002 1.356 . S
C2005 C1999 1.363 . S
C2005 C2000 1.379 . S
C2005 N2003 1.356 . S
N2006 C1998 1.356 . S
N2006 H2012 0.984 . S
N2006 H2013 0.984 . S
N2007 C2000 1.356 . S
N2007 H2010 0.984 . S
N2007 H2011 0.985 . S
H2008 N2003 0.984 . S
H2009 N2003 0.985 . S
H2010 N2007 0.984 . S
H2011 N2007 0.985 . S
H2012 N2006 0.984 . S
H2013 N2006 0.984 . S
H2014 N2002 0.984 . S
H2015 N2002 0.985 . S
C2016 C2017 1.363 . S
C2016 C2022 1.379 . S
C2016 N2024 1.356 . S
C2017 C2016 1.363 . S
C2017 C2023 1.363 . S
C2018 C2019 1.363 . S
C2018 C2023 1.379 . S
C2018 N2025 1.356 . S
C2019 C2018 1.363 . S
C2019 C2022 1.363 . S
N2020 C2022 1.356 . S
N2020 H2032 0.984 . S
N2020 H2033 0.985 . S
N2021 C2023 1.356 . S
N2021 H2026 0.984 . S
N2021 H2027 0.985 . S
C2022 C2016 1.379 . S
C2022 C2019 1.363 . S
C2022 N2020 1.356 . S
C2023 C2017 1.363 . S
C2023 C2018 1.379 . S
C2023 N2021 1.356 . S
N2024 C2016 1.356 . S
N2024 H2030 0.984 . S
N2024 H2031 0.984 . S
N2025 C2018 1.356 . S
N2025 H2028 0.984 . S
N2025 H2029 0.985 . S
H2026 N2021 0.984 . S
H2027 N2021 0.985 . S
H2028 N2025 0.984 . S
H2029 N2025 0.985 . S
H2030 N2024 0.984 . S
H2031 N2024 0.984 . S
H2032 N2020 0.984 . S
H2033 N2020 0.985 . S
C2034 C2035 1.363 . S
C2034 C2040 1.379 . S
C2034 N2042 1.356 . S
C2035 C2034 1.363 . S
C2035 C2041 1.363 . S
C2036 C2037 1.363 . S
C2036 C2041 1.379 . S
C2036 N2043 1.356 1_655 S
C2037 C2036 1.363 . S
C2037 C2040 1.363 . S
N2038 C2040 1.356 . S
N2038 H2050 0.984 . S
N2038 H2051 0.985 . S
N2039 C2041 1.356 1_455 S
N2039 H2044 0.984 1_455 S
N2039 H2045 0.985 . S
C2040 C2034 1.379 . S
C2040 C2037 1.363 . S
C2040 N2038 1.356 . S
C2041 C2035 1.363 . S
C2041 C2036 1.379 . S
C2041 N2039 1.356 1_655 S
N2042 C2034 1.356 . S
N2042 H2048 0.984 . S
N2042 H2049 0.984 . S
N2043 C2036 1.356 1_455 S
N2043 H2046 0.984 . S
N2043 H2047 0.985 . S
H2044 N2039 0.984 1_655 S
H2045 N2039 0.985 . S
H2046 N2043 0.984 . S
H2047 N2043 0.985 . S
H2048 N2042 0.984 . S
H2049 N2042 0.984 . S
H2050 N2038 0.984 . S
H2051 N2038 0.985 . S
C2052 C2053 1.363 . S
C2052 C2058 1.379 . S
C2052 N2060 1.356 . S
C2053 C2052 1.363 . S
C2053 C2059 1.363 . S
C2054 C2055 1.363 . S
C2054 C2059 1.379 . S
C2054 N2061 1.356 . S
C2055 C2054 1.363 . S
C2055 C2058 1.363 . S
N2056 C2058 1.356 . S
N2056 H2068 0.984 . S
N2056 H2069 0.985 . S
N2057 C2059 1.356 . S
N2057 H2062 0.984 . S
N2057 H2063 0.985 . S
C2058 C2052 1.379 . S
C2058 C2055 1.363 . S
C2058 N2056 1.356 . S
C2059 C2053 1.363 . S
C2059 C2054 1.379 . S
C2059 N2057 1.356 . S
N2060 C2052 1.356 . S
N2060 H2066 0.984 . S
N2060 H2067 0.984 . S
N2061 C2054 1.356 . S
N2061 H2064 0.984 . S
N2061 H2065 0.985 . S
H2062 N2057 0.984 . S
H2063 N2057 0.985 . S
H2064 N2061 0.984 . S
H2065 N2061 0.985 . S
H2066 N2060 0.984 . S
H2067 N2060 0.984 . S
H2068 N2056 0.984 . S
H2069 N2056 0.985 . S
C2070 C2071 1.363 . S
C2070 C2076 1.379 . S
C2070 N2078 1.356 . S
C2071 C2070 1.363 . S
C2071 C2077 1.363 . S
C2072 C2073 1.363 . S
C2072 C2077 1.379 . S
C2072 N2079 1.356 . S
C2073 C2072 1.363 . S
C2073 C2076 1.363 . S
N2074 C2076 1.356 . S
N2074 H2086 0.984 . S
N2074 H2087 0.985 . S
N2075 C2077 1.356 . S
N2075 H2080 0.984 . S
N2075 H2081 0.985 . S
C2076 C2070 1.379 . S
C2076 C2073 1.363 . S
C2076 N2074 1.356 . S
C2077 C2071 1.363 . S
C2077 C2072 1.379 . S
C2077 N2075 1.356 . S
N2078 C2070 1.356 . S
N2078 H2084 0.984 . S
N2078 H2085 0.984 . S
N2079 C2072 1.356 . S
N2079 H2082 0.984 . S
N2079 H2083 0.985 . S
H2080 N2075 0.984 . S
H2081 N2075 0.985 . S
H2082 N2079 0.984 . S
H2083 N2079 0.985 . S
H2084 N2078 0.984 . S
H2085 N2078 0.984 . S
H2086 N2074 0.984 . S
H2087 N2074 0.985 . S
C2088 C2089 1.363 . S
C2088 C2094 1.379 . S
C2088 N2096 1.356 . S
C2089 C2088 1.363 . S
C2089 C2095 1.363 . S
C2090 C2091 1.363 . S
C2090 C2095 1.379 . S
C2090 N2097 1.356 . S
C2091 C2090 1.363 . S
C2091 C2094 1.363 . S
N2092 C2094 1.356 . S
N2092 H2104 0.984 . S
N2092 H2105 0.985 . S
N2093 C2095 1.356 . S
N2093 H2098 0.984 . S
N2093 H2099 0.985 . S
C2094 C2088 1.379 . S
C2094 C2091 1.363 . S
C2094 N2092 1.356 . S
C2095 C2089 1.363 . S
C2095 C2090 1.379 . S
C2095 N2093 1.356 . S
N2096 C2088 1.356 . S
N2096 H2102 0.984 . S
N2096 H2103 0.984 . S
N2097 C2090 1.356 . S
N2097 H2100 0.984 . S
N2097 H2101 0.985 . S
H2098 N2093 0.984 . S
H2099 N2093 0.985 . S
H2100 N2097 0.984 . S
H2101 N2097 0.985 . S
H2102 N2096 0.984 . S
H2103 N2096 0.984 . S
H2104 N2092 0.984 . S
H2105 N2092 0.985 . S
C2106 C2107 1.363 . S
C2106 C2112 1.379 . S
C2106 N2114 1.356 . S
C2107 C2106 1.363 . S
C2107 C2113 1.363 . S
C2108 C2109 1.363 . S
C2108 C2113 1.379 . S
C2108 N2115 1.356 . S
C2109 C2108 1.363 . S
C2109 C2112 1.363 . S
N2110 C2112 1.356 . S
N2110 H2122 0.984 . S
N2110 H2123 0.985 . S
N2111 C2113 1.356 . S
N2111 H2116 0.984 . S
N2111 H2117 0.985 . S
C2112 C2106 1.379 . S
C2112 C2109 1.363 . S
C2112 N2110 1.356 . S
C2113 C2107 1.363 . S
C2113 C2108 1.379 . S
C2113 N2111 1.356 . S
N2114 C2106 1.356 . S
N2114 H2120 0.984 . S
N2114 H2121 0.984 . S
N2115 C2108 1.356 . S
N2115 H2118 0.984 . S
N2115 H2119 0.985 . S
H2116 N2111 0.984 . S
H2117 N2111 0.985 . S
H2118 N2115 0.984 . S
H2119 N2115 0.985 . S
H2120 N2114 0.984 . S
H2121 N2114 0.984 . S
H2122 N2110 0.984 . S
H2123 N2110 0.985 . S
C2124 C2125 1.363 . S
C2124 C2130 1.379 . S
C2124 N2132 1.356 . S
C2125 C2124 1.363 . S
C2125 C2131 1.363 . S
C2126 C2127 1.363 . S
C2126 C2131 1.379 . S
C2126 N2133 1.356 . S
C2127 C2126 1.363 . S
C2127 C2130 1.363 . S
N2128 C2130 1.356 . S
N2128 H2140 0.984 . S
N2128 H2141 0.985 . S
N2129 C2131 1.356 . S
N2129 H2134 0.984 . S
N2129 H2135 0.985 . S
C2130 C2124 1.379 . S
C2130 C2127 1.363 . S
C2130 N2128 1.356 . S
C2131 C2125 1.363 . S
C2131 C2126 1.379 . S
C2131 N2129 1.356 . S
N2132 C2124 1.356 . S
N2132 H2138 0.984 . S
N2132 H2139 0.984 . S
N2133 C2126 1.356 . S
N2133 H2136 0.984 . S
N2133 H2137 0.985 . S
H2134 N2129 0.984 . S
H2135 N2129 0.985 . S
H2136 N2133 0.984 . S
H2137 N2133 0.985 . S
H2138 N2132 0.984 . S
H2139 N2132 0.984 . S
H2140 N2128 0.984 . S
H2141 N2128 0.985 . S
C2142 C2143 1.363 . S
C2142 C2148 1.379 . S
C2142 N2150 1.356 . S
C2143 C2142 1.363 . S
C2143 C2149 1.363 . S
C2144 C2145 1.363 . S
C2144 C2149 1.379 . S
C2144 N2151 1.356 . S
C2145 C2144 1.363 . S
C2145 C2148 1.363 . S
N2146 C2148 1.356 . S
N2146 H2158 0.984 . S
N2146 H2159 0.985 . S
N2147 C2149 1.356 . S
N2147 H2152 0.984 . S
N2147 H2153 0.985 . S
C2148 C2142 1.379 . S
C2148 C2145 1.363 . S
C2148 N2146 1.356 . S
C2149 C2143 1.363 . S
C2149 C2144 1.379 . S
C2149 N2147 1.356 . S
N2150 C2142 1.356 . S
N2150 H2156 0.984 . S
N2150 H2157 0.984 . S
N2151 C2144 1.356 . S
N2151 H2154 0.984 . S
N2151 H2155 0.985 . S
H2152 N2147 0.984 . S
H2153 N2147 0.985 . S
H2154 N2151 0.984 . S
H2155 N2151 0.985 . S
H2156 N2150 0.984 . S
H2157 N2150 0.984 . S
H2158 N2146 0.984 . S
H2159 N2146 0.985 . S
C2160 C2161 1.363 . S
C2160 C2166 1.379 . S
C2160 N2168 1.356 . S
C2161 C2160 1.363 . S
C2161 C2167 1.363 . S
C2162 C2163 1.363 . S
C2162 C2167 1.379 . S
C2162 N2169 1.356 . S
C2163 C2162 1.363 . S
C2163 C2166 1.363 . S
N2164 C2166 1.356 . S
N2164 H2176 0.984 . S
N2164 H2177 0.985 . S
N2165 C2167 1.356 . S
N2165 H2170 0.984 . S
N2165 H2171 0.985 . S
C2166 C2160 1.379 . S
C2166 C2163 1.363 . S
C2166 N2164 1.356 . S
C2167 C2161 1.363 . S
C2167 C2162 1.379 . S
C2167 N2165 1.356 . S
N2168 C2160 1.356 . S
N2168 H2174 0.984 . S
N2168 H2175 0.984 . S
N2169 C2162 1.356 . S
N2169 H2172 0.984 . S
N2169 H2173 0.985 . S
H2170 N2165 0.984 . S
H2171 N2165 0.985 . S
H2172 N2169 0.984 . S
H2173 N2169 0.985 . S
H2174 N2168 0.984 . S
H2175 N2168 0.984 . S
H2176 N2164 0.984 . S
H2177 N2164 0.985 . S
C2178 C2179 1.363 . S
C2178 C2184 1.379 . S
C2178 N2186 1.356 . S
C2179 C2178 1.363 . S
C2179 C2185 1.363 . S
C2180 C2181 1.363 . S
C2180 C2185 1.379 . S
C2180 N2187 1.356 . S
C2181 C2180 1.363 . S
C2181 C2184 1.363 . S
N2182 C2184 1.356 . S
N2182 H2194 0.984 . S
N2182 H2195 0.985 . S
N2183 C2185 1.356 . S
N2183 H2188 0.984 . S
N2183 H2189 0.985 . S
C2184 C2178 1.379 . S
C2184 C2181 1.363 . S
C2184 N2182 1.356 . S
C2185 C2179 1.363 . S
C2185 C2180 1.379 . S
C2185 N2183 1.356 . S
N2186 C2178 1.356 . S
N2186 H2192 0.984 . S
N2186 H2193 0.984 . S
N2187 C2180 1.356 . S
N2187 H2190 0.984 . S
N2187 H2191 0.985 . S
H2188 N2183 0.984 . S
H2189 N2183 0.985 . S
H2190 N2187 0.984 . S
H2191 N2187 0.985 . S
H2192 N2186 0.984 . S
H2193 N2186 0.984 . S
H2194 N2182 0.984 . S
H2195 N2182 0.985 . S
C2196 C2197 1.363 . S
C2196 C2202 1.379 . S
C2196 N2204 1.356 . S
C2197 C2196 1.363 . S
C2197 C2203 1.363 . S
C2198 C2199 1.363 . S
C2198 C2203 1.379 . S
C2198 N2205 1.356 . S
C2199 C2198 1.363 . S
C2199 C2202 1.363 . S
N2200 C2202 1.356 . S
N2200 H2212 0.984 . S
N2200 H2213 0.985 . S
N2201 C2203 1.356 . S
N2201 H2206 0.984 . S
N2201 H2207 0.985 . S
C2202 C2196 1.379 . S
C2202 C2199 1.363 . S
C2202 N2200 1.356 . S
C2203 C2197 1.363 . S
C2203 C2198 1.379 . S
C2203 N2201 1.356 . S
N2204 C2196 1.356 . S
N2204 H2210 0.984 . S
N2204 H2211 0.984 . S
N2205 C2198 1.356 . S
N2205 H2208 0.984 . S
N2205 H2209 0.985 . S
H2206 N2201 0.984 . S
H2207 N2201 0.985 . S
H2208 N2205 0.984 . S
H2209 N2205 0.985 . S
H2210 N2204 0.984 . S
H2211 N2204 0.984 . S
H2212 N2200 0.984 . S
H2213 N2200 0.985 . S
C2214 C2215 1.363 . S
C2214 C2220 1.379 . S
C2214 N2222 1.356 . S
C2215 C2214 1.363 . S
C2215 C2221 1.363 . S
C2216 C2217 1.363 . S
C2216 C2221 1.379 . S
C2216 N2223 1.356 . S
C2217 C2216 1.363 . S
C2217 C2220 1.363 . S
N2218 C2220 1.356 . S
N2218 H2230 0.984 . S
N2218 H2231 0.985 . S
N2219 C2221 1.356 . S
N2219 H2224 0.984 . S
N2219 H2225 0.985 . S
C2220 C2214 1.379 . S
C2220 C2217 1.363 . S
C2220 N2218 1.356 . S
C2221 C2215 1.363 . S
C2221 C2216 1.379 . S
C2221 N2219 1.356 . S
N2222 C2214 1.356 . S
N2222 H2228 0.984 . S
N2222 H2229 0.984 . S
N2223 C2216 1.356 . S
N2223 H2226 0.984 . S
N2223 H2227 0.985 . S
H2224 N2219 0.984 . S
H2225 N2219 0.985 . S
H2226 N2223 0.984 . S
H2227 N2223 0.985 . S
H2228 N2222 0.984 . S
H2229 N2222 0.984 . S
H2230 N2218 0.984 . S
H2231 N2218 0.985 . S
C2232 C2233 1.363 . S
C2232 C2238 1.379 . S
C2232 N2240 1.356 . S
C2233 C2232 1.363 . S
C2233 C2239 1.363 . S
C2234 C2235 1.363 . S
C2234 C2239 1.379 . S
C2234 N2241 1.356 . S
C2235 C2234 1.363 . S
C2235 C2238 1.363 . S
N2236 C2238 1.356 . S
N2236 H2248 0.984 . S
N2236 H2249 0.985 . S
N2237 C2239 1.356 . S
N2237 H2242 0.984 . S
N2237 H2243 0.985 . S
C2238 C2232 1.379 . S
C2238 C2235 1.363 . S
C2238 N2236 1.356 . S
C2239 C2233 1.363 . S
C2239 C2234 1.379 . S
C2239 N2237 1.356 . S
N2240 C2232 1.356 . S
N2240 H2246 0.984 . S
N2240 H2247 0.984 . S
N2241 C2234 1.356 . S
N2241 H2244 0.984 . S
N2241 H2245 0.985 . S
H2242 N2237 0.984 . S
H2243 N2237 0.985 . S
H2244 N2241 0.984 . S
H2245 N2241 0.985 . S
H2246 N2240 0.984 . S
H2247 N2240 0.984 . S
H2248 N2236 0.984 . S
H2249 N2236 0.985 . S
C2250 C2251 1.363 . S
C2250 C2256 1.379 . S
C2250 N2258 1.356 . S
C2251 C2250 1.363 . S
C2251 C2257 1.363 . S
C2252 C2253 1.363 . S
C2252 C2257 1.379 . S
C2252 N2259 1.356 . S
C2253 C2252 1.363 . S
C2253 C2256 1.363 . S
N2254 C2256 1.356 . S
N2254 H2266 0.984 . S
N2254 H2267 0.985 . S
N2255 C2257 1.356 . S
N2255 H2260 0.984 . S
N2255 H2261 0.985 . S
C2256 C2250 1.379 . S
C2256 C2253 1.363 . S
C2256 N2254 1.356 . S
C2257 C2251 1.363 . S
C2257 C2252 1.379 . S
C2257 N2255 1.356 . S
N2258 C2250 1.356 . S
N2258 H2264 0.984 . S
N2258 H2265 0.984 . S
N2259 C2252 1.356 . S
N2259 H2262 0.984 . S
N2259 H2263 0.985 . S
H2260 N2255 0.984 . S
H2261 N2255 0.985 . S
H2262 N2259 0.984 . S
H2263 N2259 0.985 . S
H2264 N2258 0.984 . S
H2265 N2258 0.984 . S
H2266 N2254 0.984 . S
H2267 N2254 0.985 . S
C2268 C2269 1.363 . S
C2268 C2274 1.379 . S
C2268 N2276 1.356 . S
C2269 C2268 1.363 . S
C2269 C2275 1.363 . S
C2270 C2271 1.363 . S
C2270 C2275 1.379 . S
C2270 N2277 1.356 . S
C2271 C2270 1.363 . S
C2271 C2274 1.363 . S
N2272 C2274 1.356 . S
N2272 H2284 0.984 . S
N2272 H2285 0.985 . S
N2273 C2275 1.356 . S
N2273 H2278 0.984 . S
N2273 H2279 0.985 . S
C2274 C2268 1.379 . S
C2274 C2271 1.363 . S
C2274 N2272 1.356 . S
C2275 C2269 1.363 . S
C2275 C2270 1.379 . S
C2275 N2273 1.356 . S
N2276 C2268 1.356 . S
N2276 H2282 0.984 . S
N2276 H2283 0.984 . S
N2277 C2270 1.356 . S
N2277 H2280 0.984 . S
N2277 H2281 0.985 . S
H2278 N2273 0.984 . S
H2279 N2273 0.985 . S
H2280 N2277 0.984 . S
H2281 N2277 0.985 . S
H2282 N2276 0.984 . S
H2283 N2276 0.984 . S
H2284 N2272 0.984 . S
H2285 N2272 0.985 . S
C2286 C2287 1.363 . S
C2286 C2292 1.379 . S
C2286 N2294 1.356 . S
C2287 C2286 1.363 . S
C2287 C2293 1.363 . S
C2288 C2289 1.363 . S
C2288 C2293 1.379 . S
C2288 N2295 1.356 . S
C2289 C2288 1.363 . S
C2289 C2292 1.363 . S
N2290 C2292 1.356 . S
N2290 H2302 0.984 . S
N2290 H2303 0.985 . S
N2291 C2293 1.356 . S
N2291 H2296 0.984 . S
N2291 H2297 0.985 . S
C2292 C2286 1.379 . S
C2292 C2289 1.363 . S
C2292 N2290 1.356 . S
C2293 C2287 1.363 . S
C2293 C2288 1.379 . S
C2293 N2291 1.356 . S
N2294 C2286 1.356 . S
N2294 H2300 0.984 . S
N2294 H2301 0.984 . S
N2295 C2288 1.356 . S
N2295 H2298 0.984 . S
N2295 H2299 0.985 . S
H2296 N2291 0.984 . S
H2297 N2291 0.985 . S
H2298 N2295 0.984 . S
H2299 N2295 0.985 . S
H2300 N2294 0.984 . S
H2301 N2294 0.984 . S
H2302 N2290 0.984 . S
H2303 N2290 0.985 . S
C1333 C439 1.380 . S
C1335 C632 1.366 . S
C1351 C465 1.531 . S
C1353 C716 1.456 . S
C1369 C401 1.512 . S
C1371 C810 1.446 . S
C1387 C369 1.469 . S
C1389 C726 1.416 . S
C1407 C800 1.404 . S
C1405 C305 1.484 . S
C1423 C343 1.354 . S
C1425 C642 1.369 . S
C1443 C643 1.395 . S
C1441 C375 1.478 . S
C1461 C727 1.433 . S
C1459 C311 1.505 . S
C1477 C337 1.437 . S
C1479 C819 1.445 . S
C1495 C433 1.411 . S
C1497 C735 1.414 . S
C1513 C471 1.458 . S
C1515 C811 1.379 . S
C1533 C651 1.400 . S
C1531 C407 1.466 . S
C1551 C884 1.366 . S
C1549 C55 1.380 1_455 S
C1567 C81 1.531 . S
C1569 C968 1.456 . S
C1585 C17 1.482 1_565 S
C1587 C1062 1.446 . S
C1603 C561 1.469 . S
C1605 C978 1.416 . S
C1621 C497 1.484 . S
C1623 C1052 1.404 . S
C1639 C535 1.354 . S
C1641 C894 1.370 . S
C1657 C567 1.479 . S
C1659 C895 1.395 . S
C1675 C503 1.505 . S
C1677 C979 1.433 . S
C1695 C1071 1.445 . S
C1693 C529 1.437 . S
C1711 C49 1.411 1_565 S
C1713 C987 1.414 . S
C1731 C1063 1.379 . S
C1729 C87 1.457 1_455 S
C1747 C23 1.466 . S
C1749 C903 1.400 . S
C1767 C1136 1.366 . S
C1765 C247 1.380 . S
C1783 C273 1.531 . S
C1785 C1220 1.457 . S
C1803 C1314 1.446 . S
C1801 C209 1.513 . S
C1821 C1230 1.415 . S
C1819 C177 1.468 1_545 S
C1839 C1304 1.403 . S
C1837 C113 1.484 1_655 S
C1855 C151 1.353 . S
C1857 C1146 1.369 . S
C1873 C183 1.478 1_655 S
C1875 C1147 1.395 . S
C1891 C119 1.504 . S
C1893 C1231 1.433 . S
C1911 C1323 1.444 . S
C1909 C145 1.436 1_545 S
C1927 C241 1.411 . S
C1929 C1239 1.414 . S
C1945 C279 1.458 . S
C1947 C1315 1.380 . S
C1963 C215 1.467 . S
C1965 C1155 1.400 . S
C1981 C509 1.463 . S
C1983 C639 1.396 . S
C2001 C723 1.357 . S
C1999 C541 1.456 . S
C2017 C573 1.468 . S
C2019 C816 1.368 . S
C2035 C221 1.496 . S
C2037 C732 1.371 . S
C2053 C253 1.449 . S
C2055 C807 1.354 . S
C2073 C648 1.397 . S
C2071 C285 1.461 . S
C2089 C125 1.463 . S
C2091 C891 1.396 . S
C2107 C157 1.456 . S
C2109 C975 1.357 . S
C2125 C189 1.468 . S
C2127 C1068 1.368 . S
C2143 C413 1.496 . S
C2145 C984 1.371 . S
C2163 C1059 1.354 . S
C2161 C445 1.449 . S
C2179 C477 1.461 . S
C2181 C900 1.397 . S
C2197 C317 1.463 . S
C2199 C1143 1.396 . S
C2215 C349 1.456 . S
C2217 C1227 1.357 . S
C2235 C1320 1.369 . S
C2233 C381 1.468 . S
C2251 C29 1.496 . S
C2253 C1236 1.371 . S
C2269 C61 1.449 . S
C2271 C1311 1.354 . S
C2287 C93 1.461 . S
C2289 C1152 1.397 . S
