# Generated by pormake.
# Topology llj, (12,3)-cn, num edge types: 1
# Building blocks:
#     Node 0, Type 0, BuildingBlock: QEWDON_clean_sbu_0, # of connection points: 12
#     Node 1, Type 0, BuildingBlock: QEWDON_clean_sbu_0, # of connection points: 12
#     Node 2, Type 1, BuildingBlock: BELTOD_clean_linker_0, # of connection points: 3
#     Node 3, Type 1, BuildingBlock: BELTOD_clean_linker_0, # of connection points: 3
#     Node 4, Type 1, BuildingBlock: BELTOD_clean_linker_0, # of connection points: 3
#     Node 5, Type 1, BuildingBlock: BELTOD_clean_linker_0, # of connection points: 3
#     Node 6, Type 1, BuildingBlock: BELTOD_clean_linker_0, # of connection points: 3
#     Node 7, Type 1, BuildingBlock: BELTOD_clean_linker_0, # of connection points: 3
#     Node 8, Type 1, BuildingBlock: BELTOD_clean_linker_0, # of connection points: 3
#     Node 9, Type 1, BuildingBlock: BELTOD_clean_linker_0, # of connection points: 3
#     Edge 10, Type (0, 1), BuildingBlock: XIVTED_clean_linker_0, # of connection points: 2
#     Edge 11, Type (0, 1), BuildingBlock: XIVTED_clean_linker_0, # of connection points: 2
#     Edge 12, Type (0, 1), BuildingBlock: XIVTED_clean_linker_0, # of connection points: 2
#     Edge 13, Type (0, 1), BuildingBlock: XIVTED_clean_linker_0, # of connection points: 2
#     Edge 14, Type (0, 1), BuildingBlock: XIVTED_clean_linker_0, # of connection points: 2
#     Edge 15, Type (0, 1), BuildingBlock: XIVTED_clean_linker_0, # of connection points: 2
#     Edge 16, Type (0, 1), BuildingBlock: XIVTED_clean_linker_0, # of connection points: 2
#     Edge 17, Type (0, 1), BuildingBlock: XIVTED_clean_linker_0, # of connection points: 2
#     Edge 18, Type (0, 1), BuildingBlock: XIVTED_clean_linker_0, # of connection points: 2
#     Edge 19, Type (0, 1), BuildingBlock: XIVTED_clean_linker_0, # of connection points: 2
#     Edge 20, Type (0, 1), BuildingBlock: XIVTED_clean_linker_0, # of connection points: 2
#     Edge 21, Type (0, 1), BuildingBlock: XIVTED_clean_linker_0, # of connection points: 2
#     Edge 22, Type (0, 1), BuildingBlock: XIVTED_clean_linker_0, # of connection points: 2
#     Edge 23, Type (0, 1), BuildingBlock: XIVTED_clean_linker_0, # of connection points: 2
#     Edge 24, Type (0, 1), BuildingBlock: XIVTED_clean_linker_0, # of connection points: 2
#     Edge 25, Type (0, 1), BuildingBlock: XIVTED_clean_linker_0, # of connection points: 2
#     Edge 26, Type (0, 1), BuildingBlock: XIVTED_clean_linker_0, # of connection points: 2
#     Edge 27, Type (0, 1), BuildingBlock: XIVTED_clean_linker_0, # of connection points: 2
#     Edge 28, Type (0, 1), BuildingBlock: XIVTED_clean_linker_0, # of connection points: 2
#     Edge 29, Type (0, 1), BuildingBlock: XIVTED_clean_linker_0, # of connection points: 2
#     Edge 30, Type (0, 1), BuildingBlock: XIVTED_clean_linker_0, # of connection points: 2
#     Edge 31, Type (0, 1), BuildingBlock: XIVTED_clean_linker_0, # of connection points: 2
#     Edge 32, Type (0, 1), BuildingBlock: XIVTED_clean_linker_0, # of connection points: 2
#     Edge 33, Type (0, 1), BuildingBlock: XIVTED_clean_linker_0, # of connection points: 2
# Relax obj value: 0.009
# Max RMSD: 0.045
# Mean RMSD: 0.042
data_MOF--net-llj--node1-QEWDON_clean_sbu_0--node2-BELTOD_clean_linker_0--edge1-XIVTED_clean_linker_0
_symmetry_space_group_name_H-M    P1
_symmetry_Int_Tables_number       1
_symmetry_cell_setting            triclinic
loop_
_symmetry_equiv_pos_as_xyz
'x, y, z'
_cell_length_a     42.361818
_cell_length_b     42.360292
_cell_length_c     29.192446
_cell_angle_alpha  89.451621
_cell_angle_beta   90.068665
_cell_angle_gamma 90.028944
loop_
_atom_site_label
_atom_site_type_symbol
_atom_site_fract_x
_atom_site_fract_y
_atom_site_fract_z
_atom_type_partial_charge
Zn0 Zn 0.91856 0.06438 0.96616 0.0
Zn1 Zn 0.92184 0.0609 0.07572 0.0
O2 O 0.94812 0.05797 0.0193 0.0
H3 H 0.96692 0.04542 0.01582 0.0
C4 C 0.89808 0.99348 0.91729 0.0
O5 O 0.88644 0.00161 0.95718 0.0
Zn6 Zn 0.04412 0.94366 0.06836 0.0
Zn7 Zn 0.04349 0.93927 0.95931 0.0
O8 O 0.01521 0.94335 0.01466 0.0
H9 H 0.99409 0.95189 0.01386 0.0
Zn10 Zn 0.92474 0.94614 0.97665 0.0
O11 O 0.93357 0.97474 0.02966 0.0
Zn12 Zn 0.93102 0.94732 0.08523 0.0
H13 H 0.9477 0.99252 0.02674 0.0
Zn14 Zn 0.02714 0.05744 0.9565 0.0
O15 O 0.0252 0.02873 0.01275 0.0
H16 H 0.01414 0.0088 0.01375 0.0
Zn17 Zn 0.03153 0.05796 0.06505 0.0
C18 C 0.05572 0.01103 0.89912 0.0
O19 O 0.06364 0.00049 0.94001 0.0
O20 O 0.87963 0.09032 0.98449 0.0
O21 O 0.88258 0.08711 0.06071 0.0
O22 O 0.08695 0.92024 0.97508 0.0
O23 O 0.08645 0.92315 0.05116 0.0
O24 O 0.9006 0.90606 0.99589 0.0
O25 O 0.90396 0.9078 0.07209 0.0
C26 C 0.97682 0.07986 0.12416 0.0
O27 O 0.05235 0.09822 0.96822 0.0
O28 O 0.0567 0.09618 0.04404 0.0
O29 O 0.02182 0.92529 0.89929 0.0
C30 C 0.86902 0.09701 0.02413 0.0
O31 O 0.9415 0.07227 0.90438 0.0
C32 C 0.99331 0.91871 0.12376 0.0
O33 O 0.91527 0.96897 0.91505 0.0
C34 C 0.10003 0.91534 0.01385 0.0
O35 O 0.03861 0.03555 0.89588 0.0
C36 C 0.90916 0.00314 0.13277 0.0
O37 O 0.94696 0.08065 0.12776 0.0
O38 O 0.98832 0.06976 0.08695 0.0
C39 C 0.89425 0.89455 0.03537 0.0
O40 O 0.02318 0.91847 0.11896 0.0
O41 O 0.9771 0.93642 0.09728 0.0
C42 C 0.05812 0.00619 0.11821 0.0
O43 O 0.91319 0.97353 0.1379 0.0
O44 O 0.91386 0.01538 0.09345 0.0
C45 C 0.0627 0.10947 0.00564 0.0
O46 O 0.05444 0.03593 0.11636 0.0
O47 O 0.04798 0.98975 0.08506 0.0
C48 C 0.99423 0.91366 0.90213 0.0
O49 O 0.98064 0.91147 0.94245 0.0
C50 C 0.96562 0.09007 0.90586 0.0
O51 O 0.97305 0.10349 0.94482 0.0
Zn52 Zn 0.42057 0.56312 0.47104 0.0
Zn53 Zn 0.42619 0.56021 0.57825 0.0
O54 O 0.45256 0.55695 0.52199 0.0
H55 H 0.47044 0.54306 0.51854 0.0
C56 C 0.39601 0.48962 0.40786 0.0
O57 O 0.38127 0.49649 0.44607 0.0
Zn58 Zn 0.5398 0.44992 0.56704 0.0
Zn59 Zn 0.5394 0.44446 0.45829 0.0
O60 O 0.51139 0.45229 0.5129 0.0
H61 H 0.4916 0.46359 0.51167 0.0
Zn62 Zn 0.42167 0.44496 0.47115 0.0
O63 O 0.42475 0.4753 0.52351 0.0
Zn64 Zn 0.42397 0.44766 0.57914 0.0
H65 H 0.43702 0.49438 0.52013 0.0
Zn66 Zn 0.5311 0.57215 0.45463 0.0
O67 O 0.53226 0.53949 0.50613 0.0
H68 H 0.52641 0.51754 0.50364 0.0
Zn69 Zn 0.53718 0.56458 0.5631 0.0
C70 C 0.5403 0.52903 0.37685 0.0
O71 O 0.52146 0.51031 0.40036 0.0
O72 O 0.38416 0.5928 0.48922 0.0
O73 O 0.38974 0.59023 0.56504 0.0
O74 O 0.58179 0.42357 0.47555 0.0
O75 O 0.58112 0.42719 0.55156 0.0
O76 O 0.3985 0.40406 0.48909 0.0
O77 O 0.39889 0.40698 0.56536 0.0
C78 C 0.48192 0.57739 0.62774 0.0
O79 O 0.55161 0.61433 0.47295 0.0
O80 O 0.55796 0.60657 0.54775 0.0
O81 O 0.51666 0.42922 0.39987 0.0
C82 C 0.3758 0.60101 0.52935 0.0
O83 O 0.43998 0.56512 0.40593 0.0
C84 C 0.4871 0.42344 0.61986 0.0
O85 O 0.41499 0.4664 0.40777 0.0
C86 C 0.59447 0.4184 0.51454 0.0
O87 O 0.54675 0.55623 0.39216 0.0
C88 C 0.40565 0.50253 0.63025 0.0
O89 O 0.45211 0.57612 0.63191 0.0
O90 O 0.49367 0.57039 0.58913 0.0
C91 C 0.3911 0.39286 0.52838 0.0
O92 O 0.51699 0.42509 0.61644 0.0
O93 O 0.47037 0.43908 0.59139 0.0
C94 C 0.56595 0.5111 0.60963 0.0
O95 O 0.40595 0.47254 0.63312 0.0
O96 O 0.41344 0.5154 0.59249 0.0
C97 C 0.56172 0.62344 0.51175 0.0
O98 O 0.56507 0.54104 0.60745 0.0
O99 O 0.54771 0.49555 0.58354 0.0
C100 C 0.49004 0.41573 0.40458 0.0
O101 O 0.47822 0.41217 0.44589 0.0
C102 C 0.43833 0.58917 0.37971 0.0
O103 O 0.42224 0.61395 0.39298 0.0
P104 P 0.37143 0.24132 0.01314 0.0
H105 H 0.38597 0.2264 0.1086 0.0
H106 H 0.40114 0.25917 0.17364 0.0
H107 H 0.3923 0.34269 0.0884 0.0
H108 H 0.37728 0.30979 0.02361 0.0
H109 H 0.33461 0.19243 0.96923 0.0
H110 H 0.27796 0.18194 0.96494 0.0
H111 H 0.2598 0.2639 0.04786 0.0
H112 H 0.31656 0.27429 0.05197 0.0
H113 H 0.43305 0.26272 0.98317 0.0
H114 H 0.3382 0.26238 0.92916 0.0
O115 O 0.3905 0.20702 0.01828 0.0
H116 H 0.45132 0.29097 0.91496 0.0
H117 H 0.35643 0.2894 0.86011 0.0
C118 C 0.38139 0.26563 0.06113 0.0
C119 C 0.38735 0.25176 0.10399 0.0
C120 C 0.39575 0.27053 0.14117 0.0
C121 C 0.39817 0.30349 0.13597 0.0
C122 C 0.39118 0.31733 0.0932 0.0
C123 C 0.38263 0.29855 0.05617 0.0
C124 C 0.32975 0.23367 0.01169 0.0
C125 C 0.31842 0.20803 0.98665 0.0
C126 C 0.28606 0.20229 0.98382 0.0
C127 C 0.26448 0.22216 0.00604 0.0
C128 C 0.27593 0.24807 0.03076 0.0
C129 C 0.30836 0.25395 0.03321 0.0
C130 C 0.38437 0.2604 0.96122 0.0
C131 C 0.41625 0.26838 0.95631 0.0
C132 C 0.42666 0.28437 0.91714 0.0
C133 C 0.40535 0.29241 0.8819 0.0
C134 C 0.3734 0.28397 0.88681 0.0
C135 C 0.36298 0.26821 0.92623 0.0
P136 P 0.73971 0.40682 0.01203 0.0
H137 H 0.74965 0.44518 0.09355 0.0
H138 H 0.71342 0.46654 0.15038 0.0
H139 H 0.63521 0.42138 0.0819 0.0
H140 H 0.67179 0.39972 0.0254 0.0
H141 H 0.77763 0.36437 0.95824 0.0
H142 H 0.78764 0.30767 0.96282 0.0
H143 H 0.72865 0.30101 0.08318 0.0
H144 H 0.71875 0.35791 0.07847 0.0
H145 H 0.73251 0.46533 0.96067 0.0
H146 H 0.70689 0.36755 0.94413 0.0
O147 O 0.77409 0.4259 0.01545 0.0
H148 H 0.70665 0.47842 0.88823 0.0
H149 H 0.68258 0.38001 0.87056 0.0
C150 C 0.71328 0.42119 0.05511 0.0
C151 C 0.72473 0.43985 0.09078 0.0
C152 C 0.70396 0.4522 0.12308 0.0
C153 C 0.67141 0.44591 0.12033 0.0
C154 C 0.66015 0.42654 0.08503 0.0
C155 C 0.68097 0.41429 0.05265 0.0
C156 C 0.74735 0.36526 0.01776 0.0
C157 C 0.76684 0.35069 0.9856 0.0
C158 C 0.7723 0.31828 0.98803 0.0
C159 C 0.75859 0.29988 0.02305 0.0
C160 C 0.73948 0.31465 0.05583 0.0
C161 C 0.73378 0.34715 0.05309 0.0
C162 C 0.72232 0.41543 0.95717 0.0
C163 C 0.72187 0.44659 0.94091 0.0
C164 C 0.70723 0.45397 0.89932 0.0
C165 C 0.69281 0.4302 0.87313 0.0
C166 C 0.69324 0.39894 0.88985 0.0
C167 C 0.70755 0.3917 0.93175 0.0
P168 P 0.68246 0.62055 0.03053 0.0
H169 H 0.69277 0.589 0.94268 0.0
H170 H 0.66026 0.58478 0.87367 0.0
H171 H 0.59164 0.64777 0.93303 0.0
H172 H 0.62412 0.65158 0.00203 0.0
H173 H 0.72808 0.64034 0.09936 0.0
H174 H 0.7631 0.68621 0.10493 0.0
H175 H 0.7217 0.72511 0.98135 0.0
H176 H 0.68746 0.67913 0.97556 0.0
H177 H 0.64372 0.56673 0.05452 0.0
H178 H 0.6566 0.66184 0.10227 0.0
O179 O 0.70731 0.59001 0.03162 0.0
H180 H 0.59963 0.55951 0.10697 0.0
H181 H 0.61347 0.65445 0.15673 0.0
C182 C 0.6606 0.62023 0.97763 0.0
C183 C 0.67085 0.60207 0.94067 0.0
C184 C 0.6523 0.5998 0.90117 0.0
C185 C 0.6232 0.6157 0.89809 0.0
C186 C 0.61363 0.63477 0.93469 0.0
C187 C 0.63224 0.6371 0.97403 0.0
C188 C 0.7053 0.65619 0.03697 0.0
C189 C 0.72642 0.65893 0.07373 0.0
C190 C 0.74632 0.68523 0.07697 0.0
C191 C 0.74546 0.70924 0.04333 0.0
C192 C 0.72343 0.7068 0.00738 0.0
C193 C 0.7036 0.68053 0.00421 0.0
C194 C 0.65373 0.61459 0.07508 0.0
C195 C 0.6375 0.58581 0.07725 0.0
C196 C 0.61225 0.58173 0.10741 0.0
C197 C 0.60276 0.6064 0.13626 0.0
C198 C 0.61965 0.63508 0.13455 0.0
C199 C 0.64472 0.63923 0.10389 0.0
P200 P 0.38134 0.71343 0.02333 0.0
H201 H 0.40204 0.72267 0.92877 0.0
H202 H 0.40435 0.68746 0.8628 0.0
H203 H 0.36252 0.6128 0.94435 0.0
H204 H 0.36042 0.64797 0.00998 0.0
H205 H 0.36532 0.76863 0.07697 0.0
H206 H 0.31956 0.80388 0.07748 0.0
H207 H 0.27562 0.74785 0.97211 0.0
H208 H 0.32155 0.71304 0.97145 0.0
H209 H 0.43399 0.68364 0.07118 0.0
H210 H 0.33295 0.68944 0.0865 0.0
O211 O 0.4133 0.73643 0.0211 0.0
H212 H 0.43682 0.64752 0.13697 0.0
H213 H 0.33543 0.65294 0.15165 0.0
C214 C 0.38174 0.68775 0.97451 0.0
C215 C 0.39342 0.6987 0.93239 0.0
C216 C 0.39455 0.67861 0.89468 0.0
C217 C 0.3839 0.64722 0.8985 0.0
C218 C 0.37148 0.63663 0.94056 0.0
C219 C 0.3702 0.65679 0.97812 0.0
C220 C 0.34704 0.73855 0.02373 0.0
C221 C 0.34582 0.76402 0.05395 0.0
C222 C 0.31956 0.78401 0.05441 0.0
C223 C 0.29398 0.77883 0.02462 0.0
C224 C 0.29514 0.75286 0.9949 0.0
C225 C 0.32139 0.73284 0.9946 0.0
C226 C 0.38337 0.68975 0.07471 0.0
C227 C 0.41247 0.67746 0.08915 0.0
C228 C 0.414 0.65655 0.12642 0.0
C229 C 0.38636 0.64737 0.14963 0.0
C230 C 0.35723 0.65996 0.13509 0.0
C231 C 0.35576 0.68085 0.09782 0.0
P232 P 0.87253 0.73766 0.51302 0.0
H233 H 0.88675 0.72335 0.60868 0.0
H234 H 0.90454 0.75607 0.6724 0.0
H235 H 0.90412 0.83806 0.58315 0.0
H236 H 0.88642 0.80525 0.51972 0.0
H237 H 0.82964 0.69536 0.46645 0.0
H238 H 0.77214 0.69029 0.46596 0.0
H239 H 0.76501 0.76737 0.56124 0.0
H240 H 0.82251 0.77248 0.56139 0.0
H241 H 0.93487 0.74845 0.4752 0.0
H242 H 0.83846 0.76566 0.43425 0.0
O243 O 0.88851 0.70181 0.51826 0.0
H244 H 0.95347 0.77539 0.40605 0.0
H245 H 0.85672 0.79122 0.36417 0.0
C246 C 0.88612 0.76174 0.55934 0.0
C247 C 0.89071 0.74833 0.60285 0.0
C248 C 0.90059 0.76709 0.63925 0.0
C249 C 0.90591 0.79959 0.63263 0.0
C250 C 0.90074 0.813 0.58905 0.0
C251 C 0.89066 0.79425 0.55278 0.0
C252 C 0.83032 0.73387 0.51447 0.0
C253 C 0.81568 0.71108 0.48731 0.0
C254 C 0.78286 0.70845 0.48671 0.0
C255 C 0.76415 0.72854 0.51347 0.0
C256 C 0.77891 0.75149 0.54054 0.0
C257 C 0.81178 0.75433 0.5407 0.0
C258 C 0.88538 0.75479 0.45967 0.0
C259 C 0.91772 0.7575 0.45084 0.0
C260 C 0.92829 0.77277 0.41115 0.0
C261 C 0.90659 0.78545 0.37939 0.0
C262 C 0.8741 0.78214 0.38812 0.0
C263 C 0.86359 0.76715 0.42809 0.0
P264 P 0.24904 0.91448 0.51282 0.0
H265 H 0.25975 0.9289 0.60881 0.0
H266 H 0.22412 0.94293 0.6714 0.0
H267 H 0.14461 0.93677 0.57909 0.0
H268 H 0.18019 0.92259 0.5169 0.0
H269 H 0.30878 0.88017 0.51987 0.0
H270 H 0.32119 0.82415 0.53003 0.0
H271 H 0.22172 0.80195 0.53087 0.0
H272 H 0.2093 0.85834 0.52217 0.0
H273 H 0.23374 0.97386 0.46854 0.0
H274 H 0.22299 0.8749 0.43854 0.0
O275 O 0.28198 0.93589 0.51702 0.0
H276 H 0.20214 0.98738 0.40121 0.0
H277 H 0.19032 0.8881 0.37258 0.0
C278 C 0.22272 0.92547 0.55809 0.0
C279 C 0.23467 0.93078 0.60206 0.0
C280 C 0.21429 0.93857 0.63778 0.0
C281 C 0.18163 0.94112 0.62996 0.0
C282 C 0.16972 0.93547 0.58587 0.0
C283 C 0.19009 0.92739 0.55031 0.0
C284 C 0.25814 0.8733 0.51996 0.0
C285 C 0.28961 0.86335 0.52247 0.0
C286 C 0.29668 0.8314 0.52843 0.0
C287 C 0.27236 0.80892 0.53123 0.0
C288 C 0.24082 0.81891 0.52862 0.0
C289 C 0.23377 0.85099 0.52367 0.0
C290 C 0.23067 0.92344 0.4587 0.0
C291 C 0.2249 0.95506 0.44714 0.0
C292 C 0.20649 0.96271 0.40897 0.0
C293 C 0.19328 0.93879 0.38189 0.0
C294 C 0.20025 0.90711 0.39254 0.0
C295 C 0.21882 0.89951 0.43063 0.0
P296 P 0.18602 0.11318 0.5206 0.0
H297 H 0.19075 0.0811 0.4324 0.0
H298 H 0.15525 0.07811 0.36646 0.0
H299 H 0.09048 0.14159 0.43319 0.0
H300 H 0.12597 0.14422 0.49916 0.0
H301 H 0.23201 0.13501 0.58712 0.0
H302 H 0.26668 0.18117 0.59 0.0
H303 H 0.22757 0.21462 0.46161 0.0
H304 H 0.19357 0.16817 0.45858 0.0
H305 H 0.15838 0.05934 0.56903 0.0
H306 H 0.15819 0.16075 0.58054 0.0
O307 O 0.20995 0.08192 0.51969 0.0
H308 H 0.12249 0.05518 0.63448 0.0
H309 H 0.12197 0.15689 0.64534 0.0
C310 C 0.16072 0.11244 0.47097 0.0
C311 C 0.16893 0.09439 0.43282 0.0
C312 C 0.14869 0.09285 0.39502 0.0
C313 C 0.11991 0.10944 0.39472 0.0
C314 C 0.11218 0.12809 0.43269 0.0
C315 C 0.1325 0.1297 0.47037 0.0
C316 C 0.21025 0.14814 0.52271 0.0
C317 C 0.23089 0.15238 0.55969 0.0
C318 C 0.25055 0.17888 0.56141 0.0
C319 C 0.25 0.20163 0.52599 0.0
C320 C 0.22896 0.19737 0.48915 0.0
C321 C 0.20931 0.17085 0.48751 0.0
C322 C 0.1615 0.11029 0.57072 0.0
C323 C 0.15085 0.08069 0.58598 0.0
C324 C 0.13011 0.07837 0.62308 0.0
C325 C 0.11947 0.10571 0.64526 0.0
C326 C 0.13018 0.13535 0.62961 0.0
C327 C 0.15089 0.13761 0.59253 0.0
P328 P 0.87212 0.21144 0.52667 0.0
H329 H 0.89232 0.22147 0.43204 0.0
H330 H 0.8964 0.1862 0.3663 0.0
H331 H 0.85667 0.11028 0.44762 0.0
H332 H 0.85272 0.14554 0.513 0.0
H333 H 0.85597 0.2662 0.581 0.0
H334 H 0.81041 0.30167 0.58143 0.0
H335 H 0.7667 0.24643 0.47496 0.0
H336 H 0.8125 0.21139 0.47438 0.0
H337 H 0.92474 0.18064 0.57278 0.0
H338 H 0.82407 0.18817 0.59125 0.0
O339 O 0.90399 0.23459 0.52474 0.0
H340 H 0.92797 0.14467 0.63861 0.0
H341 H 0.82698 0.15186 0.65675 0.0
C342 C 0.8729 0.18596 0.47763 0.0
C343 C 0.88444 0.19725 0.43561 0.0
C344 C 0.88659 0.17712 0.39803 0.0
C345 C 0.87719 0.14534 0.40194 0.0
C346 C 0.86469 0.13445 0.4438 0.0
C347 C 0.86235 0.15465 0.4812 0.0
C348 C 0.83781 0.2365 0.52723 0.0
C349 C 0.83655 0.26179 0.55776 0.0
C350 C 0.81039 0.28191 0.55817 0.0
C351 C 0.78496 0.27703 0.52802 0.0
C352 C 0.78612 0.2512 0.49805 0.0
C353 C 0.81227 0.23105 0.49779 0.0
C354 C 0.87431 0.1876 0.57787 0.0
C355 C 0.90339 0.17484 0.59142 0.0
C356 C 0.90513 0.15402 0.62873 0.0
C357 C 0.87772 0.1454 0.65295 0.0
C358 C 0.84859 0.15841 0.63929 0.0
C359 C 0.84689 0.17919 0.60186 0.0
H360 H 0.08803 0.13874 0.92998 0.0
H361 H 0.22246 0.22239 0.07714 0.0
H362 H 0.08966 0.14034 0.07792 0.0
H363 H 0.22885 0.20524 0.93199 0.0
H364 H 0.16779 0.20377 0.07599 0.0
H365 H 0.13308 0.17468 0.92864 0.0
C366 C 0.09746 0.14706 0.96219 0.0
C367 C 0.08546 0.13594 0.00416 0.0
C368 C 0.18103 0.20447 0.04429 0.0
C369 C 0.13715 0.1769 0.00277 0.0
C370 C 0.21216 0.21523 0.04488 0.0
C371 C 0.2303 0.21489 0.00471 0.0
C372 C 0.16798 0.19337 0.00322 0.0
C373 C 0.21585 0.20524 0.9639 0.0
C374 C 0.12328 0.16751 0.96137 0.0
C375 C 0.09847 0.14785 0.04476 0.0
N376 N 0.18563 0.19459 0.96427 0.0
N377 N 0.12391 0.16735 0.04306 0.0
H378 H 0.84596 0.12544 0.10135 0.0
H379 H 0.75788 0.25737 0.95333 0.0
H380 H 0.83276 0.12151 0.95476 0.0
H381 H 0.77454 0.26448 0.09867 0.0
H382 H 0.7761 0.20274 0.95607 0.0
H383 H 0.81051 0.17087 0.10383 0.0
C384 C 0.83518 0.13372 0.06978 0.0
C385 C 0.84291 0.12004 0.02761 0.0
C386 C 0.77544 0.21607 0.98752 0.0
C387 C 0.80255 0.17217 0.03026 0.0
C388 C 0.76515 0.24729 0.98591 0.0
C389 C 0.76525 0.2656 0.02569 0.0
C390 C 0.78621 0.2031 0.02914 0.0
C391 C 0.77422 0.2512 0.06719 0.0
C392 C 0.81501 0.15975 0.07124 0.0
C393 C 0.82797 0.13164 0.98794 0.0
N394 N 0.78481 0.22091 0.06773 0.0
N395 N 0.80888 0.15729 0.99017 0.0
H396 H 0.87464 0.85765 0.96464 0.0
H397 H 0.76641 0.74309 0.11779 0.0
H398 H 0.86825 0.86558 0.11174 0.0
H399 H 0.77705 0.73617 0.9712 0.0
H400 H 0.80425 0.78696 0.11763 0.0
H401 H 0.83973 0.81221 0.96781 0.0
C402 C 0.86596 0.84983 0.99775 0.0
C403 C 0.87433 0.86572 0.03798 0.0
C404 C 0.79826 0.7758 0.08555 0.0
C405 C 0.83392 0.81329 0.04179 0.0
C406 C 0.77675 0.75068 0.08561 0.0
C407 C 0.76828 0.73601 0.04438 0.0
C408 C 0.8115 0.78626 0.04397 0.0
C409 C 0.78229 0.74707 0.00372 0.0
C410 C 0.84594 0.82375 -0.0005 0.0
C411 C 0.86239 0.85415 0.07982 0.0
N412 N 0.80309 0.77145 0.00458 0.0
N413 N 0.84265 0.82872 0.08062 0.0
H414 H 0.13584 0.89537 0.94165 0.0
H415 H 0.26374 0.80575 0.09784 0.0
H416 H 0.13415 0.89632 0.08957 0.0
H417 H 0.26138 0.80169 0.95021 0.0
H418 H 0.21829 0.84139 0.09582 0.0
H419 H 0.18389 0.86386 0.94454 0.0
C420 C 0.14564 0.88913 0.97481 0.0
C421 C 0.1307 0.89841 0.01545 0.0
C422 C 0.22775 0.83272 0.06388 0.0
C423 C 0.18592 0.862 0.01894 0.0
C424 C 0.2538 0.81248 0.06498 0.0
C425 C 0.26639 0.80057 0.02412 0.0
C426 C 0.21419 0.84126 0.0216 0.0
C427 C 0.25223 0.80985 0.98261 0.0
C428 C 0.17312 0.87103 0.9764 0.0
C429 C 0.14473 0.88964 0.05734 0.0
N430 N 0.22695 0.82959 0.98244 0.0
N431 N 0.17145 0.87181 0.05799 0.0
H432 H 0.58171 0.66116 0.44066 0.0
H433 H 0.72526 0.72653 0.58818 0.0
H434 H 0.59038 0.64888 0.58721 0.0
H435 H 0.72428 0.72103 0.44071 0.0
H436 H 0.66934 0.71189 0.58936 0.0
H437 H 0.62646 0.69737 0.44197 0.0
C438 C 0.59253 0.66659 0.47329 0.0
C439 C 0.5828 0.65125 0.51373 0.0
C440 C 0.68125 0.7144 0.55671 0.0
C441 C 0.63425 0.69244 0.51528 0.0
C442 C 0.71309 0.72286 0.55601 0.0
C443 C 0.72947 0.72443 0.51431 0.0
C444 C 0.66575 0.70757 0.51541 0.0
C445 C 0.71264 0.71938 0.47364 0.0
C446 C 0.61819 0.68719 0.47395 0.0
C447 C 0.59748 0.65963 0.55504 0.0
N448 N 0.68177 0.71083 0.47523 0.0
N449 N 0.62287 0.67922 0.55463 0.0
H450 H 0.36084 0.63334 0.60707 0.0
H451 H 0.25296 0.76041 0.47707 0.0
H452 H 0.33709 0.6269 0.46349 0.0
H453 H 0.30981 0.781 0.59569 0.0
H454 H 0.27126 0.70537 0.48059 0.0
H455 H 0.32896 0.68117 0.61199 0.0
C456 C 0.34849 0.64161 0.57674 0.0
C457 C 0.35212 0.62637 0.53455 0.0
C458 C 0.27935 0.72189 0.50614 0.0
C459 C 0.31562 0.68107 0.54017 0.0
C460 C 0.26887 0.75313 0.50426 0.0
C461 C 0.28021 0.77511 0.53591 0.0
C462 C 0.30086 0.71265 0.54034 0.0
C463 C 0.30087 0.76472 0.5704 0.0
C464 C 0.33042 0.669 0.5796 0.0
C465 C 0.33533 0.63814 0.49654 0.0
N466 N 0.31063 0.73422 0.57164 0.0
N467 N 0.31801 0.665 0.50014 0.0
H468 H 0.36467 0.36343 0.60389 0.0
H469 H 0.28259 0.22825 0.45435 0.0
H470 H 0.37416 0.35494 0.45722 0.0
H471 H 0.26731 0.23798 0.5997 0.0
H472 H 0.31787 0.27367 0.456 0.0
H473 H 0.33113 0.31619 0.60448 0.0
C474 C 0.35986 0.35161 0.57188 0.0
C475 C 0.37216 0.36337 0.53041 0.0
C476 C 0.30683 0.26592 0.48761 0.0
C477 C 0.33378 0.30937 0.53087 0.0
C478 C 0.28646 0.24006 0.48661 0.0
C479 C 0.27172 0.2293 0.52688 0.0
C480 C 0.31267 0.28133 0.52918 0.0
C481 C 0.27832 0.24523 0.56786 0.0
C482 C 0.34065 0.32469 0.57224 0.0
C483 C 0.36512 0.34698 0.49002 0.0
N484 N 0.29823 0.27047 0.56794 0.0
N485 N 0.34641 0.32097 0.4913 0.0
H486 H 0.62958 0.39637 0.44299 0.0
H487 H 0.75456 0.30419 0.60097 0.0
H488 H 0.62766 0.39868 0.59085 0.0
H489 H 0.75312 0.30039 0.45329 0.0
H490 H 0.70977 0.34066 0.59842 0.0
H491 H 0.67657 0.3634 0.44664 0.0
C492 C 0.6391 0.3901 0.4763 0.0
C493 C 0.62442 0.40025 0.51669 0.0
C494 C 0.71928 0.33185 0.56659 0.0
C495 C 0.67845 0.36214 0.52107 0.0
C496 C 0.74494 0.31112 0.56799 0.0
C497 C 0.75761 0.29907 0.52727 0.0
C498 C 0.70619 0.34072 0.52415 0.0
C499 C 0.74388 0.30864 0.48559 0.0
C500 C 0.66598 0.37117 0.47834 0.0
C501 C 0.63806 0.39136 0.5588 0.0
N502 N 0.71898 0.32885 0.48513 0.0
N503 N 0.66422 0.37271 0.55989 0.0
H504 H 0.03793 0.10058 0.12343 0.0
H505 H 0.0555 0.10281 0.39633 0.0
H506 H 0.96172 0.07742 0.21525 0.0
H507 H 0.13416 0.11036 0.30307 0.0
H508 H 0.0198 0.09806 0.33079 0.0
H509 H 0.0725 0.10896 0.18901 0.0
C510 C 0.02855 0.09703 0.15737 0.0
C511 C 0.99719 0.08754 0.16373 0.0
C512 C 0.04486 0.1008 0.32468 0.0
C513 C 0.03638 0.09772 0.23944 0.0
C514 C 0.06525 0.1037 0.36206 0.0
C515 C 0.0979 0.10699 0.3552 0.0
C516 C 0.05717 0.10138 0.28003 0.0
C517 C 0.10922 0.10752 0.31002 0.0
C518 C 0.04823 0.10202 0.19493 0.0
C519 C 0.98587 0.0845 0.20875 0.0
N520 N 0.0889 0.10478 0.27421 0.0
N521 N 0.00551 0.08938 0.24492 0.0
H522 H 0.87623 0.05829 0.13465 0.0
H523 H 0.89943 0.08463 0.40368 0.0
H524 H 0.92614 0.9929 0.22222 0.0
H525 H 0.86378 0.15628 0.3112 0.0
H526 H 0.90602 0.04911 0.33883 0.0
H527 H 0.86822 0.09304 0.19991 0.0
C528 C 0.88585 0.05151 0.16754 0.0
C529 C 0.9026 0.02322 0.17275 0.0
C530 C 0.89673 0.07258 0.33272 0.0
C531 C 0.89273 0.06223 0.24817 0.0
C532 C 0.89278 0.09281 0.36975 0.0
C533 C 0.88098 0.12347 0.36286 0.0
C534 C 0.88863 0.08297 0.28843 0.0
C535 C 0.87322 0.13296 0.31804 0.0
C536 C 0.88104 0.07117 0.20493 0.0
C537 C 0.91327 0.01469 0.21666 0.0
N538 N 0.87711 0.11277 0.28258 0.0
N539 N 0.90827 0.03419 0.2527 0.0
H540 H 0.93179 0.91833 0.15466 0.0
H541 H 0.95789 0.7724 0.32531 0.0
H542 H 0.02136 0.87146 0.17284 0.0
H543 H 0.8811 0.83866 0.33952 0.0
H544 H 0.97787 0.80362 0.26089 0.0
H545 H 0.90913 0.88428 0.21398 0.0
C546 C 0.94668 0.90093 0.17089 0.0
C547 C 0.97856 0.89803 0.15882 0.0
C548 C 0.95659 0.81122 0.27808 0.0
C549 C 0.95279 0.85874 0.22658 0.0
C550 C 0.94523 0.7935 0.315 0.0
C551 C 0.91788 0.803 0.33824 0.0
C552 C 0.94038 0.83851 0.26395 0.0
C553 C 0.90206 0.83017 0.32245 0.0
C554 C 0.93375 0.88149 0.20487 0.0
C555 C 0.99671 0.87479 0.18119 0.0
N556 N 0.91358 0.84701 0.28634 0.0
N557 N 0.98356 0.85603 0.21393 0.0
H558 H 0.08709 0.94819 0.12743 0.0
H559 H 0.14756 0.98433 0.38109 0.0
H560 H 0.06494 0.03277 0.20174 0.0
H561 H 0.18787 0.91127 0.29715 0.0
H562 H 0.11162 0.99795 0.31891 0.0
H563 H 0.11797 0.92927 0.19316 0.0
C564 C 0.0884 0.96257 0.1576 0.0
C565 C 0.07379 0.99221 0.15877 0.0
C566 C 0.1283 0.9789 0.31406 0.0
C567 C 0.10892 0.97094 0.23398 0.0
C568 C 0.14905 0.97127 0.34944 0.0
C569 C 0.17111 0.94687 0.34417 0.0
C570 C 0.1294 0.96195 0.27302 0.0
C571 C 0.17119 0.93017 0.30281 0.0
C572 C 0.10615 0.95188 0.19505 0.0
C573 C 0.07622 0.00995 0.199 0.0
N574 N 0.15071 0.9381 0.2687 0.0
N575 N 0.09355 0.99911 0.23486 0.0
H576 H 0.09309 0.95864 0.89433 0.0
H577 H 0.13307 0.98378 0.62864 0.0
H578 H 0.05054 0.03128 0.81 0.0
H579 H 0.18113 0.91727 0.7172 0.0
H580 H 0.0986 0.99801 0.69244 0.0
H581 H 0.12097 0.93914 0.82729 0.0
C582 C 0.08939 0.97035 0.86162 0.0
C583 C 0.06973 0.99687 0.85785 0.0
C584 C 0.11656 0.98017 0.69784 0.0
C585 C 0.10178 0.97482 0.78098 0.0
C586 C 0.13615 0.97199 0.66144 0.0
C587 C 0.16005 0.94942 0.6678 0.0
C588 C 0.12081 0.96552 0.74079 0.0
C589 C 0.16328 0.93509 0.71105 0.0
C590 C 0.10538 0.95924 0.82335 0.0
C591 C 0.06563 0.01092 0.81451 0.0
N592 N 0.14391 0.94341 0.7459 0.0
N593 N 0.08175 -0.00012 0.77779 0.0
H594 H 0.96131 0.06064 0.82282 0.0
H595 H 0.11965 0.13942 0.72489 0.0
H596 H 0.01795 0.12745 0.89751 0.0
H597 H 0.06775 0.06698 0.65402 0.0
H598 H 0.08129 0.13678 0.78711 0.0
H599 H 0.99827 0.06462 0.75875 0.0
C600 C 0.98138 0.0763 0.82564 0.0
C601 C 0.98656 0.09366 0.86565 0.0
C602 C 0.07827 0.12144 0.75798 0.0
C603 C 0.02918 0.09809 0.79272 0.0
C604 C 0.1001 0.12304 0.72232 0.0
C605 C 0.09687 0.10349 0.68404 0.0
C606 C 0.05286 0.10022 0.7554 0.0
C607 C 0.07135 0.0823 0.68303 0.0
C608 C 0.00255 0.07847 0.78912 0.0
C609 C 0.01308 0.11348 0.86747 0.0
N610 N 0.05028 0.0813 0.7181 0.0
N611 N 0.03343 0.11506 0.83163 0.0
H612 H 0.92285 0.98678 0.83113 0.0
H613 H 0.84679 0.14757 0.73537 0.0
H614 H 0.86215 0.04694 0.91076 0.0
H615 H 0.91254 0.09093 0.65883 0.0
H616 H 0.84993 0.10943 0.79855 0.0
H617 H 0.9168 0.02293 0.76592 0.0
C618 C 0.90807 0.00746 0.83483 0.0
C619 C 0.89307 0.01389 0.87654 0.0
C620 C 0.86367 0.10533 0.76793 0.0
C621 C 0.88629 0.05552 0.80217 0.0
C622 C 0.86176 0.12703 0.73175 0.0
C623 C 0.87946 0.12249 0.69173 0.0
C624 C 0.88332 0.07878 0.76409 0.0
C625 C 0.8988 0.09563 0.68925 0.0
C626 C 0.90469 0.02814 0.79761 0.0
C627 C 0.87425 0.04108 0.87933 0.0
N628 N 0.9002 0.0748 0.72488 0.0
N629 N 0.87152 0.06095 0.84275 0.0
H630 H 0.93764 0.88276 0.89801 0.0
H631 H 0.95223 0.84462 0.63094 0.0
H632 H 0.01507 0.91469 0.81329 0.0
H633 H 0.88512 0.79949 0.72139 0.0
H634 H 0.97162 0.87577 0.69524 0.0
H635 H 0.9141 0.85757 0.83132 0.0
C636 C 0.94962 0.88464 0.86533 0.0
C637 C 0.97856 0.90054 0.86131 0.0
C638 C 0.95258 0.85912 0.70098 0.0
C639 C 0.95171 0.87175 0.78487 0.0
C640 C 0.9414 0.84147 0.66427 0.0
C641 C 0.91714 0.81935 0.67094 0.0
C642 C 0.93929 0.85474 0.74461 0.0
C643 C 0.90417 0.81598 0.71492 0.0
C644 C 0.93618 0.87018 0.82729 0.0
C645 C 0.99287 0.90242 0.81803 0.0
N646 N 0.91544 0.83346 0.75011 0.0
N647 N 0.97936 0.88805 0.7815 0.0
H648 H 0.46574 0.57478 0.71832 0.0
H649 H 0.63992 0.61471 0.8073 0.0
H650 H 0.54332 0.59798 0.62884 0.0
H651 H 0.55915 0.60697 0.89668 0.0
H652 H 0.60526 0.60643 0.74144 0.0
H653 H 0.49966 0.58519 0.78433 0.0
C654 C 0.48994 0.58205 0.71246 0.0
C655 C 0.50195 0.58487 0.66779 0.0
C656 C 0.59509 0.6067 0.77545 0.0
C657 C 0.54093 0.59673 0.74321 0.0
C658 C 0.6149 0.61124 0.81307 0.0
C659 C 0.60242 0.61159 0.85757 0.0
C660 C 0.56256 0.60225 0.78234 0.0
C661 C 0.56974 0.6073 0.86295 0.0
C662 C 0.5093 0.58794 0.75019 0.0
C663 C 0.53337 0.59454 0.66239 0.0
N664 N 0.55097 0.60269 0.82583 0.0
N665 N 0.55183 0.59995 0.69957 0.0
H666 H 0.42192 0.48929 0.71911 0.0
H667 H 0.3698 0.65975 0.80846 0.0
H668 H 0.37608 0.55935 0.63456 0.0
H669 H 0.40278 0.5853 0.89837 0.0
H670 H 0.37386 0.6238 0.74378 0.0
H671 H 0.41599 0.52406 0.78532 0.0
C672 C 0.4105 0.51199 0.71457 0.0
C673 C 0.40011 0.52194 0.67116 0.0
C674 C 0.38013 0.61527 0.77767 0.0
C675 C 0.39334 0.56178 0.74635 0.0
C676 C 0.378 0.63586 0.81457 0.0
C677 C 0.38595 0.62553 0.85891 0.0
C678 C 0.39045 0.5841 0.78501 0.0
C679 C 0.39605 0.59416 0.86485 0.0
C680 C 0.40723 0.53186 0.75224 0.0
C681 C 0.38544 0.55144 0.66705 0.0
N682 N 0.39812 0.5746 0.82832 0.0
N683 N 0.38263 0.57041 0.70405 0.0
H684 H 0.42451 0.41696 0.6457 0.0
H685 H 0.46111 0.28526 0.83549 0.0
H686 H 0.51821 0.38351 0.67779 0.0
H687 H 0.37483 0.33958 0.83398 0.0
H688 H 0.48007 0.31622 0.77028 0.0
H689 H 0.40352 0.38389 0.70741 0.0
C690 C 0.4407 0.40283 0.66552 0.0
C691 C 0.4732 0.40341 0.65651 0.0
C692 C 0.45696 0.32131 0.78421 0.0
C693 C 0.44933 0.36508 0.72698 0.0
C694 C 0.44616 0.30375 0.8216 0.0
C695 C 0.41641 0.30996 0.84064 0.0
C696 C 0.43783 0.34515 0.76533 0.0
C697 C 0.39779 0.33371 0.82026 0.0
C698 C 0.42868 0.38389 0.70085 0.0
C699 C 0.49297 0.38412 0.68348 0.0
N700 N 0.40883 0.3505 0.78374 0.0
N701 N 0.48073 0.36575 0.71737 0.0
H702 H 0.61728 0.53776 0.64945 0.0
H703 H 0.63808 0.40497 0.83809 0.0
H704 H 0.56555 0.45023 0.64397 0.0
H705 H 0.71056 0.47388 0.80798 0.0
H706 H 0.61038 0.42106 0.7683 0.0
H707 H 0.65092 0.51519 0.7089 0.0
C708 C 0.61311 0.51362 0.66045 0.0
C709 C 0.58827 0.49587 0.64188 0.0
C710 C 0.63252 0.43239 0.77681 0.0
C711 C 0.62664 0.47 0.71045 0.0
C712 C 0.64846 0.42316 0.8166 0.0
C713 C 0.67665 0.43826 0.82933 0.0
C714 C 0.6446 0.45718 0.74989 0.0
C715 C 0.68856 0.46206 0.80029 0.0
C716 C 0.63244 0.50073 0.69432 0.0
C717 C 0.58423 0.46471 0.65732 0.0
N718 N 0.67231 0.471 0.76224 0.0
N719 N 0.60293 0.45283 0.69124 0.0
H720 H 0.5296 0.47424 0.32998 0.0
H721 H 0.67114 0.50598 0.15383 0.0
H722 H 0.58688 0.55854 0.32811 0.0
H723 H 0.62144 0.4172 0.1637 0.0
H724 H 0.63671 0.52739 0.21276 0.0
H725 H 0.55906 0.45476 0.26385 0.0
C726 C 0.54829 0.48866 0.3156 0.0
C727 C 0.55601 0.51787 0.33487 0.0
C728 C 0.63324 0.50324 0.202 0.0
C729 C 0.58977 0.49583 0.25944 0.0
C730 C 0.65301 0.49096 0.16851 0.0
C731 C 0.64941 0.45962 0.15424 0.0
C732 C 0.60963 0.4841 0.22148 0.0
C733 C 0.62499 0.4415 0.17361 0.0
C734 C 0.56508 0.47756 0.27788 0.0
C735 C 0.58022 0.53578 0.31459 0.0
N736 N 0.60613 0.45394 0.20648 0.0
N737 N 0.59636 0.52437 0.27823 0.0
H738 H 0.44447 0.63818 0.31803 0.0
H739 H 0.58345 0.55265 0.18208 0.0
H740 H 0.47493 0.54243 0.34387 0.0
H741 H 0.55836 0.65059 0.16123 0.0
H742 H 0.53858 0.54664 0.23338 0.0
H743 H 0.48089 0.64116 0.25308 0.0
C744 C 0.45867 0.61773 0.30992 0.0
C745 C 0.4572 0.59026 0.3371 0.0
C746 C 0.54303 0.5695 0.2178 0.0
C747 C 0.49894 0.59355 0.26303 0.0
C748 C 0.56857 0.57293 0.18808 0.0
C749 C 0.57517 0.60232 0.16749 0.0
C750 C 0.52409 0.5957 0.2278 0.0
C751 C 0.55489 0.62768 0.17716 0.0
C752 C 0.47948 0.61946 0.27287 0.0
C753 C 0.47577 0.56433 0.32451 0.0
N754 N 0.53046 0.62386 0.20687 0.0
N755 N 0.49605 0.56671 0.28869 0.0
H756 H 0.42694 0.48595 0.3254 0.0
H757 H 0.35339 0.64802 0.23036 0.0
H758 H 0.358 0.54127 0.39816 0.0
H759 H 0.42232 0.59356 0.15632 0.0
H760 H 0.35417 0.60835 0.29149 0.0
H761 H 0.42416 0.52377 0.26161 0.0
C762 C 0.41098 0.50584 0.32778 0.0
C763 C 0.39273 0.5105 0.36726 0.0
C764 C 0.36911 0.60502 0.26185 0.0
C765 C 0.38971 0.55399 0.29465 0.0
C766 C 0.3686 0.62765 0.22685 0.0
C767 C 0.38767 0.62407 0.18798 0.0
C768 C 0.38877 0.57849 0.25803 0.0
C769 C 0.4074 0.59746 0.1858 0.0
C770 C 0.40946 0.52746 0.2914 0.0
C771 C 0.37255 0.53674 0.36849 0.0
N772 N 0.40737 0.57565 0.22027 0.0
N773 N 0.37172 0.55755 0.33286 0.0
H774 H 0.43509 0.38175 0.40362 0.0
H775 H 0.44088 0.35186 0.13354 0.0
H776 H 0.50728 0.41959 0.31431 0.0
H777 H 0.38044 0.29984 0.22619 0.0
H778 H 0.46065 0.3824 0.19808 0.0
H779 H 0.4101 0.35703 0.33755 0.0
C780 C 0.4456 0.38503 0.3701 0.0
C781 C 0.4735 0.40252 0.36454 0.0
C782 C 0.44296 0.3644 0.20428 0.0
C783 C 0.44497 0.37435 0.28885 0.0
C784 C 0.43151 0.3471 0.16742 0.0
C785 C 0.40906 0.3232 0.17457 0.0
C786 C 0.43179 0.35786 0.24862 0.0
C787 C 0.39805 0.31777 0.21928 0.0
C788 C 0.43133 0.37086 0.33242 0.0
C789 C 0.48591 0.40616 0.32025 0.0
N790 N 0.40957 0.33494 0.25466 0.0
N791 N 0.47162 0.39208 0.28414 0.0
loop_
_geom_bond_atom_site_label_1
_geom_bond_atom_site_label_2
_geom_bond_distance
_geom_bond_site_symmetry_2
_ccdc_geom_bond_type
Zn0 O2 1.933 1_556 S
Zn0 O20 1.985 . S
Zn0 O31 1.955 . S
Zn1 O2 1.911 . S
Zn1 O21 1.970 . S
Zn1 O37 1.945 . S
Zn1 O44 1.981 . S
O2 Zn0 1.933 1_554 S
O2 Zn1 1.911 . S
O2 H3 0.841 1_655 S
H3 O2 0.841 1_455 S
C4 O5 1.246 . S
C4 O33 1.276 1_545 S
O5 C4 1.246 . S
Zn6 O8 1.911 . S
Zn6 O23 1.970 . S
Zn6 O40 1.945 . S
Zn6 O47 1.981 . S
Zn7 O8 1.933 1_556 S
Zn7 O22 1.985 . S
Zn7 O29 1.955 . S
O8 Zn6 1.911 . S
O8 Zn7 1.933 1_554 S
O8 H9 0.841 1_455 S
H9 O8 0.841 1_655 S
Zn10 O11 1.933 1_556 S
Zn10 O24 1.985 . S
Zn10 O33 1.955 . S
O11 Zn10 1.933 1_554 S
O11 Zn12 1.911 . S
O11 H13 0.841 1_565 S
Zn12 O11 1.911 . S
Zn12 O25 1.970 . S
Zn12 O41 1.981 . S
Zn12 O43 1.945 . S
H13 O11 0.841 1_545 S
Zn14 O15 1.933 1_556 S
Zn14 O27 1.985 . S
Zn14 O35 1.955 . S
O15 Zn14 1.933 1_554 S
O15 H16 0.841 1_545 S
O15 Zn17 1.911 . S
H16 O15 0.841 1_565 S
Zn17 O15 1.911 . S
Zn17 O28 1.970 . S
Zn17 O38 1.981 . S
Zn17 O46 1.945 . S
C18 O19 1.246 . S
C18 O35 1.276 1_565 S
O19 C18 1.246 . S
O20 Zn0 1.985 . S
O20 C30 1.245 1_556 S
O21 Zn1 1.970 . S
O21 C30 1.263 . S
O22 Zn7 1.985 . S
O22 C34 1.245 1_556 S
O23 Zn6 1.970 . S
O23 C34 1.263 . S
O24 Zn10 1.985 . S
O24 C39 1.245 1_556 S
O25 Zn12 1.970 . S
O25 C39 1.263 . S
C26 O37 1.262 1_455 S
C26 O38 1.245 . S
O27 Zn14 1.985 . S
O27 C45 1.245 1_556 S
O28 Zn17 1.970 . S
O28 C45 1.263 . S
O29 Zn7 1.955 . S
O29 C48 1.276 1_455 S
C30 O20 1.245 1_554 S
C30 O21 1.263 . S
O31 Zn0 1.955 . S
O31 C50 1.276 1_655 S
C32 O40 1.262 1_655 S
C32 O41 1.245 . S
O33 C4 1.276 1_565 S
O33 Zn10 1.955 . S
C34 O22 1.245 1_554 S
C34 O23 1.263 . S
O35 Zn14 1.955 . S
O35 C18 1.276 1_545 S
C36 O43 1.262 1_545 S
C36 O44 1.245 . S
O37 Zn1 1.945 . S
O37 C26 1.262 1_655 S
O38 Zn17 1.981 . S
O38 C26 1.245 . S
C39 O24 1.245 1_554 S
C39 O25 1.263 . S
O40 Zn6 1.945 . S
O40 C32 1.262 1_455 S
O41 Zn12 1.981 . S
O41 C32 1.245 . S
C42 O46 1.262 1_565 S
C42 O47 1.245 . S
O43 Zn12 1.945 . S
O43 C36 1.262 1_565 S
O44 Zn1 1.981 . S
O44 C36 1.245 . S
C45 O27 1.245 1_554 S
C45 O28 1.263 . S
O46 Zn17 1.945 . S
O46 C42 1.262 1_545 S
O47 Zn6 1.981 . S
O47 C42 1.245 . S
C48 O29 1.276 1_655 S
C48 O49 1.246 . S
O49 C48 1.246 . S
C50 O31 1.276 1_455 S
C50 O51 1.246 . S
O51 C50 1.246 . S
Zn52 O54 1.933 . S
Zn52 O72 1.985 . S
Zn52 O83 1.955 . S
Zn53 O54 1.911 . S
Zn53 O73 1.970 . S
Zn53 O89 1.945 . S
Zn53 O96 1.981 . S
O54 Zn52 1.933 . S
O54 Zn53 1.911 . S
O54 H55 0.841 . S
H55 O54 0.841 . S
C56 O57 1.246 . S
C56 O85 1.276 . S
O57 C56 1.246 . S
Zn58 O60 1.911 . S
Zn58 O75 1.970 . S
Zn58 O92 1.945 . S
Zn58 O99 1.981 . S
Zn59 O60 1.933 . S
Zn59 O74 1.985 . S
Zn59 O81 1.955 . S
O60 Zn58 1.911 . S
O60 Zn59 1.933 . S
O60 H61 0.841 . S
H61 O60 0.841 . S
Zn62 O63 1.933 . S
Zn62 O76 1.985 . S
Zn62 O85 1.955 . S
O63 Zn62 1.933 . S
O63 Zn64 1.911 . S
O63 H65 0.841 . S
Zn64 O63 1.911 . S
Zn64 O77 1.970 . S
Zn64 O93 1.981 . S
Zn64 O95 1.945 . S
H65 O63 0.841 . S
Zn66 O67 1.933 . S
Zn66 O79 1.985 . S
Zn66 O87 1.955 . S
O67 Zn66 1.933 . S
O67 H68 0.841 . S
O67 Zn69 1.911 . S
H68 O67 0.841 . S
Zn69 O67 1.911 . S
Zn69 O80 1.970 . S
Zn69 O90 1.981 . S
Zn69 O98 1.945 . S
C70 O71 1.246 . S
C70 O87 1.276 . S
O71 C70 1.246 . S
O72 Zn52 1.985 . S
O72 C82 1.245 . S
O73 Zn53 1.970 . S
O73 C82 1.263 . S
O74 Zn59 1.985 . S
O74 C86 1.245 . S
O75 Zn58 1.970 . S
O75 C86 1.263 . S
O76 Zn62 1.985 . S
O76 C91 1.245 . S
O77 Zn64 1.970 . S
O77 C91 1.263 . S
C78 O89 1.262 . S
C78 O90 1.245 . S
O79 Zn66 1.985 . S
O79 C97 1.245 . S
O80 Zn69 1.970 . S
O80 C97 1.263 . S
O81 Zn59 1.955 . S
O81 C100 1.276 . S
C82 O72 1.245 . S
C82 O73 1.263 . S
O83 Zn52 1.955 . S
O83 C102 1.276 . S
C84 O92 1.262 . S
C84 O93 1.245 . S
O85 C56 1.276 . S
O85 Zn62 1.955 . S
C86 O74 1.245 . S
C86 O75 1.263 . S
O87 Zn66 1.955 . S
O87 C70 1.276 . S
C88 O95 1.262 . S
C88 O96 1.245 . S
O89 Zn53 1.945 . S
O89 C78 1.262 . S
O90 Zn69 1.981 . S
O90 C78 1.245 . S
C91 O76 1.245 . S
C91 O77 1.263 . S
O92 Zn58 1.945 . S
O92 C84 1.262 . S
O93 Zn64 1.981 . S
O93 C84 1.245 . S
C94 O98 1.262 . S
C94 O99 1.245 . S
O95 Zn64 1.945 . S
O95 C88 1.262 . S
O96 Zn53 1.981 . S
O96 C88 1.245 . S
C97 O79 1.245 . S
C97 O80 1.263 . S
O98 Zn69 1.945 . S
O98 C94 1.262 . S
O99 Zn58 1.981 . S
O99 C94 1.245 . S
C100 O81 1.276 . S
C100 O101 1.246 . S
O101 C100 1.246 . S
C102 O83 1.276 . S
C102 O103 1.246 . S
O103 C102 1.246 . S
P104 O115 1.490 . S
P104 C118 1.812 . S
P104 C124 1.803 . S
P104 C130 1.819 1_554 S
H105 C119 0.941 . S
H106 C120 0.939 . S
H107 C122 0.940 . S
H108 C123 0.940 . S
H109 C125 0.939 1_556 S
H110 C126 0.942 1_556 S
H111 C128 0.940 . S
H112 C129 0.939 . S
H113 C131 0.941 . S
H114 C135 0.939 . S
O115 P104 1.490 . S
H116 C132 0.939 . S
H117 C134 0.940 . S
C118 P104 1.812 . S
C118 C119 1.389 . S
C118 C123 1.391 . S
C119 H105 0.941 . S
C119 C118 1.389 . S
C119 C120 1.397 . S
C120 H106 0.939 . S
C120 C119 1.397 . S
C120 C121 1.378 . S
C121 C120 1.378 . S
C121 C122 1.378 . S
C122 H107 0.940 . S
C122 C121 1.378 . S
C122 C123 1.396 . S
C123 H108 0.940 . S
C123 C118 1.391 . S
C123 C122 1.396 . S
C124 P104 1.803 . S
C124 C125 1.378 . S
C124 C129 1.400 . S
C125 H109 0.939 1_554 S
C125 C124 1.378 . S
C125 C126 1.361 . S
C126 H110 0.942 1_554 S
C126 C125 1.361 . S
C126 C127 1.369 . S
C127 C126 1.369 . S
C127 C128 1.404 . S
C128 H111 0.940 . S
C128 C127 1.404 . S
C128 C129 1.389 . S
C129 H112 0.939 . S
C129 C124 1.400 . S
C129 C128 1.389 . S
C130 P104 1.819 1_556 S
C130 C131 1.391 . S
C130 C135 1.391 . S
C131 H113 0.941 . S
C131 C130 1.391 . S
C131 C132 1.396 . S
C132 H116 0.939 . S
C132 C131 1.396 . S
C132 C133 1.397 . S
C133 C132 1.397 . S
C133 C134 1.385 . S
C134 H117 0.940 . S
C134 C133 1.385 . S
C134 C135 1.388 . S
C135 H114 0.939 . S
C135 C130 1.391 . S
C135 C134 1.388 . S
P136 O147 1.490 . S
P136 C150 1.812 . S
P136 C156 1.803 . S
P136 C162 1.819 1_554 S
H137 C151 0.941 . S
H138 C152 0.939 . S
H139 C154 0.940 . S
H140 C155 0.940 . S
H141 C157 0.939 1_556 S
H142 C158 0.945 . S
H143 C160 0.940 . S
H144 C161 0.939 . S
H145 C163 0.941 . S
H146 C167 0.939 . S
O147 P136 1.490 . S
H148 C164 0.939 . S
H149 C166 0.940 . S
C150 P136 1.812 . S
C150 C151 1.389 . S
C150 C155 1.391 . S
C151 H137 0.941 . S
C151 C150 1.389 . S
C151 C152 1.397 . S
C152 H138 0.939 . S
C152 C151 1.397 . S
C152 C153 1.378 . S
C153 C152 1.378 . S
C153 C154 1.378 . S
C154 H139 0.940 . S
C154 C153 1.378 . S
C154 C155 1.396 . S
C155 H140 0.940 . S
C155 C150 1.391 . S
C155 C154 1.396 . S
C156 P136 1.803 . S
C156 C157 1.378 . S
C156 C161 1.400 . S
C157 H141 0.939 1_554 S
C157 C156 1.378 . S
C157 C158 1.360 1_554 S
C158 H142 0.945 . S
C158 C157 1.360 1_556 S
C158 C159 1.366 1_556 S
C159 C158 1.366 1_554 S
C159 C160 1.404 . S
C160 H143 0.940 . S
C160 C159 1.404 . S
C160 C161 1.389 . S
C161 H144 0.939 . S
C161 C156 1.400 . S
C161 C160 1.389 . S
C162 P136 1.819 1_556 S
C162 C163 1.391 . S
C162 C167 1.391 . S
C163 H145 0.941 . S
C163 C162 1.391 . S
C163 C164 1.396 . S
C164 H148 0.939 . S
C164 C163 1.396 . S
C164 C165 1.397 . S
C165 C164 1.397 . S
C165 C166 1.385 . S
C166 H149 0.940 . S
C166 C165 1.385 . S
C166 C167 1.388 . S
C167 H146 0.939 . S
C167 C162 1.391 . S
C167 C166 1.388 . S
P168 O179 1.490 . S
P168 C182 1.812 1_554 S
P168 C188 1.803 . S
P168 C194 1.819 . S
H169 C183 0.941 . S
H170 C184 0.939 . S
H171 C186 0.940 . S
H172 C187 0.940 . S
H173 C189 0.939 . S
H174 C190 0.942 . S
H175 C192 0.944 . S
H176 C193 0.939 . S
H177 C195 0.941 . S
H178 C199 0.939 . S
O179 P168 1.490 . S
H180 C196 0.939 . S
H181 C198 0.940 . S
C182 P168 1.812 1_556 S
C182 C183 1.389 . S
C182 C187 1.391 . S
C183 H169 0.941 . S
C183 C182 1.389 . S
C183 C184 1.397 . S
C184 H170 0.939 . S
C184 C183 1.397 . S
C184 C185 1.378 . S
C185 C184 1.378 . S
C185 C186 1.378 . S
C186 H171 0.940 . S
C186 C185 1.378 . S
C186 C187 1.396 . S
C187 H172 0.940 . S
C187 C182 1.391 . S
C187 C186 1.396 . S
C188 P168 1.803 . S
C188 C189 1.378 . S
C188 C193 1.400 1_554 S
C189 H173 0.939 . S
C189 C188 1.378 . S
C189 C190 1.361 . S
C190 H174 0.942 . S
C190 C189 1.361 . S
C190 C191 1.369 . S
C191 C190 1.369 . S
C191 C192 1.399 1_554 S
C192 H175 0.944 . S
C192 C191 1.399 1_556 S
C192 C193 1.390 . S
C193 H176 0.939 . S
C193 C188 1.400 1_556 S
C193 C192 1.390 . S
C194 P168 1.819 . S
C194 C195 1.391 . S
C194 C199 1.391 . S
C195 H177 0.941 . S
C195 C194 1.391 . S
C195 C196 1.396 . S
C196 H180 0.939 . S
C196 C195 1.396 . S
C196 C197 1.397 . S
C197 C196 1.397 . S
C197 C198 1.385 . S
C198 H181 0.940 . S
C198 C197 1.385 . S
C198 C199 1.388 . S
C199 H178 0.939 . S
C199 C194 1.391 . S
C199 C198 1.388 . S
P200 O211 1.490 . S
P200 C214 1.812 1_554 S
P200 C220 1.803 . S
P200 C226 1.819 . S
H201 C215 0.941 . S
H202 C216 0.939 . S
H203 C218 0.940 . S
H204 C219 0.940 . S
H205 C221 0.939 . S
H206 C222 0.942 . S
H207 C224 0.940 1_556 S
H208 C225 0.939 . S
H209 C227 0.941 . S
H210 C231 0.939 . S
O211 P200 1.490 . S
H212 C228 0.939 . S
H213 C230 0.940 . S
C214 P200 1.812 1_556 S
C214 C215 1.389 . S
C214 C219 1.391 . S
C215 H201 0.941 . S
C215 C214 1.389 . S
C215 C216 1.397 . S
C216 H202 0.939 . S
C216 C215 1.397 . S
C216 C217 1.378 . S
C217 C216 1.378 . S
C217 C218 1.378 . S
C218 H203 0.940 . S
C218 C217 1.378 . S
C218 C219 1.396 . S
C219 H204 0.940 . S
C219 C214 1.391 . S
C219 C218 1.396 . S
C220 P200 1.803 . S
C220 C221 1.378 . S
C220 C225 1.400 1_554 S
C221 H205 0.939 . S
C221 C220 1.378 . S
C221 C222 1.361 . S
C222 H206 0.942 . S
C222 C221 1.361 . S
C222 C223 1.369 . S
C223 C222 1.369 . S
C223 C224 1.404 . S
C224 H207 0.940 1_554 S
C224 C223 1.404 . S
C224 C225 1.389 1_554 S
C225 H208 0.939 . S
C225 C220 1.400 1_556 S
C225 C224 1.389 1_556 S
C226 P200 1.819 . S
C226 C227 1.391 . S
C226 C231 1.391 . S
C227 H209 0.941 . S
C227 C226 1.391 . S
C227 C228 1.396 . S
C228 H212 0.939 . S
C228 C227 1.396 . S
C228 C229 1.397 . S
C229 C228 1.397 . S
C229 C230 1.385 . S
C230 H213 0.940 . S
C230 C229 1.385 . S
C230 C231 1.388 . S
C231 H210 0.939 . S
C231 C226 1.391 . S
C231 C230 1.388 . S
P232 O243 1.490 . S
P232 C246 1.812 . S
P232 C252 1.803 . S
P232 C258 1.819 . S
H233 C247 0.941 . S
H234 C248 0.939 . S
H235 C250 0.940 . S
H236 C251 0.940 . S
H237 C253 0.939 . S
H238 C254 0.942 . S
H239 C256 0.940 . S
H240 C257 0.939 . S
H241 C259 0.941 . S
H242 C263 0.939 . S
O243 P232 1.490 . S
H244 C260 0.939 . S
H245 C262 0.940 . S
C246 P232 1.812 . S
C246 C247 1.389 . S
C246 C251 1.391 . S
C247 H233 0.941 . S
C247 C246 1.389 . S
C247 C248 1.397 . S
C248 H234 0.939 . S
C248 C247 1.397 . S
C248 C249 1.378 . S
C249 C248 1.378 . S
C249 C250 1.378 . S
C250 H235 0.940 . S
C250 C249 1.378 . S
C250 C251 1.396 . S
C251 H236 0.940 . S
C251 C246 1.391 . S
C251 C250 1.396 . S
C252 P232 1.803 . S
C252 C253 1.378 . S
C252 C257 1.400 . S
C253 H237 0.939 . S
C253 C252 1.378 . S
C253 C254 1.361 . S
C254 H238 0.942 . S
C254 C253 1.361 . S
C254 C255 1.369 . S
C255 C254 1.369 . S
C255 C256 1.404 . S
C256 H239 0.940 . S
C256 C255 1.404 . S
C256 C257 1.389 . S
C257 H240 0.939 . S
C257 C252 1.400 . S
C257 C256 1.389 . S
C258 P232 1.819 . S
C258 C259 1.391 . S
C258 C263 1.391 . S
C259 H241 0.941 . S
C259 C258 1.391 . S
C259 C260 1.396 . S
C260 H244 0.939 . S
C260 C259 1.396 . S
C260 C261 1.397 . S
C261 C260 1.397 . S
C261 C262 1.385 . S
C262 H245 0.940 . S
C262 C261 1.385 . S
C262 C263 1.388 . S
C263 H242 0.939 . S
C263 C258 1.391 . S
C263 C262 1.388 . S
P264 O275 1.490 . S
P264 C278 1.812 . S
P264 C284 1.803 . S
P264 C290 1.819 . S
H265 C279 0.941 . S
H266 C280 0.939 . S
H267 C282 0.940 . S
H268 C283 0.940 . S
H269 C285 0.939 . S
H270 C286 0.942 . S
H271 C288 0.940 . S
H272 C289 0.939 . S
H273 C291 0.941 . S
H274 C295 0.939 . S
O275 P264 1.490 . S
H276 C292 0.939 . S
H277 C294 0.940 . S
C278 P264 1.812 . S
C278 C279 1.389 . S
C278 C283 1.391 . S
C279 H265 0.941 . S
C279 C278 1.389 . S
C279 C280 1.397 . S
C280 H266 0.939 . S
C280 C279 1.397 . S
C280 C281 1.378 . S
C281 C280 1.378 . S
C281 C282 1.378 . S
C282 H267 0.940 . S
C282 C281 1.378 . S
C282 C283 1.396 . S
C283 H268 0.940 . S
C283 C278 1.391 . S
C283 C282 1.396 . S
C284 P264 1.803 . S
C284 C285 1.378 . S
C284 C289 1.400 . S
C285 H269 0.939 . S
C285 C284 1.378 . S
C285 C286 1.361 . S
C286 H270 0.942 . S
C286 C285 1.361 . S
C286 C287 1.369 . S
C287 C286 1.369 . S
C287 C288 1.404 . S
C288 H271 0.940 . S
C288 C287 1.404 . S
C288 C289 1.389 . S
C289 H272 0.939 . S
C289 C284 1.400 . S
C289 C288 1.389 . S
C290 P264 1.819 . S
C290 C291 1.391 . S
C290 C295 1.391 . S
C291 H273 0.941 . S
C291 C290 1.391 . S
C291 C292 1.396 . S
C292 H276 0.939 . S
C292 C291 1.396 . S
C292 C293 1.397 . S
C293 C292 1.397 . S
C293 C294 1.385 . S
C294 H277 0.940 . S
C294 C293 1.385 . S
C294 C295 1.388 . S
C295 H274 0.939 . S
C295 C290 1.391 . S
C295 C294 1.388 . S
P296 O307 1.490 . S
P296 C310 1.812 . S
P296 C316 1.803 . S
P296 C322 1.819 . S
H297 C311 0.941 . S
H298 C312 0.939 . S
H299 C314 0.940 . S
H300 C315 0.940 . S
H301 C317 0.939 . S
H302 C318 0.942 . S
H303 C320 0.940 . S
H304 C321 0.939 . S
H305 C323 0.941 . S
H306 C327 0.939 . S
O307 P296 1.490 . S
H308 C324 0.939 . S
H309 C326 0.940 . S
C310 P296 1.812 . S
C310 C311 1.389 . S
C310 C315 1.391 . S
C311 H297 0.941 . S
C311 C310 1.389 . S
C311 C312 1.397 . S
C312 H298 0.939 . S
C312 C311 1.397 . S
C312 C313 1.378 . S
C313 C312 1.378 . S
C313 C314 1.378 . S
C314 H299 0.940 . S
C314 C313 1.378 . S
C314 C315 1.396 . S
C315 H300 0.940 . S
C315 C310 1.391 . S
C315 C314 1.396 . S
C316 P296 1.803 . S
C316 C317 1.378 . S
C316 C321 1.400 . S
C317 H301 0.939 . S
C317 C316 1.378 . S
C317 C318 1.361 . S
C318 H302 0.942 . S
C318 C317 1.361 . S
C318 C319 1.369 . S
C319 C318 1.369 . S
C319 C320 1.404 . S
C320 H303 0.940 . S
C320 C319 1.404 . S
C320 C321 1.389 . S
C321 H304 0.939 . S
C321 C316 1.400 . S
C321 C320 1.389 . S
C322 P296 1.819 . S
C322 C323 1.391 . S
C322 C327 1.391 . S
C323 H305 0.941 . S
C323 C322 1.391 . S
C323 C324 1.396 . S
C324 H308 0.939 . S
C324 C323 1.396 . S
C324 C325 1.397 . S
C325 C324 1.397 . S
C325 C326 1.385 . S
C326 H309 0.940 . S
C326 C325 1.385 . S
C326 C327 1.388 . S
C327 H306 0.939 . S
C327 C322 1.391 . S
C327 C326 1.388 . S
P328 O339 1.490 . S
P328 C342 1.812 . S
P328 C348 1.803 . S
P328 C354 1.819 . S
H329 C343 0.941 . S
H330 C344 0.939 . S
H331 C346 0.940 . S
H332 C347 0.940 . S
H333 C349 0.939 . S
H334 C350 0.942 . S
H335 C352 0.940 . S
H336 C353 0.939 . S
H337 C355 0.941 . S
H338 C359 0.939 . S
O339 P328 1.490 . S
H340 C356 0.939 . S
H341 C358 0.940 . S
C342 P328 1.812 . S
C342 C343 1.389 . S
C342 C347 1.391 . S
C343 H329 0.941 . S
C343 C342 1.389 . S
C343 C344 1.397 . S
C344 H330 0.939 . S
C344 C343 1.397 . S
C344 C345 1.378 . S
C345 C344 1.378 . S
C345 C346 1.378 . S
C346 H331 0.940 . S
C346 C345 1.378 . S
C346 C347 1.396 . S
C347 H332 0.940 . S
C347 C342 1.391 . S
C347 C346 1.396 . S
C348 P328 1.803 . S
C348 C349 1.378 . S
C348 C353 1.400 . S
C349 H333 0.939 . S
C349 C348 1.378 . S
C349 C350 1.361 . S
C350 H334 0.942 . S
C350 C349 1.361 . S
C350 C351 1.369 . S
C351 C350 1.369 . S
C351 C352 1.404 . S
C352 H335 0.940 . S
C352 C351 1.404 . S
C352 C353 1.389 . S
C353 H336 0.939 . S
C353 C348 1.400 . S
C353 C352 1.389 . S
C354 P328 1.819 . S
C354 C355 1.391 . S
C354 C359 1.391 . S
C355 H337 0.941 . S
C355 C354 1.391 . S
C355 C356 1.396 . S
C356 H340 0.939 . S
C356 C355 1.396 . S
C356 C357 1.397 . S
C357 C356 1.397 . S
C357 C358 1.385 . S
C358 H341 0.940 . S
C358 C357 1.385 . S
C358 C359 1.388 . S
C359 H338 0.939 . S
C359 C354 1.391 . S
C359 C358 1.388 . S
H360 C366 0.930 . S
H361 C370 0.930 . S
H362 C375 0.929 . S
H363 C373 0.929 . S
H364 C368 0.929 . S
H365 C374 0.929 . S
C366 H360 0.930 . S
C366 C367 1.367 1_556 S
C366 C374 1.378 . S
C367 C366 1.367 1_554 S
C367 C375 1.433 . S
C368 H364 0.929 . S
C368 C370 1.378 . S
C368 C372 1.350 . S
C369 C372 1.463 . S
C369 C374 1.350 1_554 S
C369 N377 1.427 . S
C370 H361 0.930 . S
C370 C368 1.378 . S
C370 C371 1.367 . S
C371 C370 1.367 . S
C371 C373 1.433 1_554 S
C372 C368 1.350 . S
C372 C369 1.463 . S
C372 N376 1.427 1_554 S
C373 H363 0.929 . S
C373 C371 1.433 1_556 S
C373 N376 1.384 . S
C374 H365 0.929 . S
C374 C366 1.378 . S
C374 C369 1.350 1_556 S
C375 H362 0.929 . S
C375 C367 1.433 . S
C375 N377 1.384 . S
N376 C372 1.427 1_556 S
N376 C373 1.384 . S
N377 C369 1.427 . S
N377 C375 1.384 . S
H378 C384 0.930 . S
H379 C388 0.930 . S
H380 C393 0.929 . S
H381 C391 0.929 . S
H382 C386 0.929 . S
H383 C392 0.929 . S
C384 H378 0.930 . S
C384 C385 1.367 . S
C384 C392 1.378 . S
C385 C384 1.367 . S
C385 C393 1.433 1_554 S
C386 H382 0.929 . S
C386 C388 1.378 . S
C386 C390 1.350 1_556 S
C387 C390 1.463 . S
C387 C392 1.350 . S
C387 N395 1.427 1_554 S
C388 H379 0.930 . S
C388 C386 1.378 . S
C388 C389 1.367 1_556 S
C389 C388 1.367 1_554 S
C389 C391 1.433 . S
C390 C386 1.350 1_554 S
C390 C387 1.463 . S
C390 N394 1.427 . S
C391 H381 0.929 . S
C391 C389 1.433 . S
C391 N394 1.384 . S
C392 H383 0.929 . S
C392 C384 1.378 . S
C392 C387 1.350 . S
C393 H380 0.929 . S
C393 C385 1.433 1_556 S
C393 N395 1.384 . S
N394 C390 1.427 . S
N394 C391 1.384 . S
N395 C387 1.427 1_556 S
N395 C393 1.384 . S
H396 C402 0.930 . S
H397 C406 0.930 . S
H398 C411 0.929 . S
H399 C409 0.929 . S
H400 C404 0.929 . S
H401 C410 0.929 . S
C402 H396 0.930 . S
C402 C403 1.367 1_556 S
C402 C410 1.378 . S
C403 C402 1.367 1_554 S
C403 C411 1.433 . S
C404 H400 0.929 . S
C404 C406 1.378 . S
C404 C408 1.350 . S
C405 C408 1.463 . S
C405 C410 1.350 1_554 S
C405 N413 1.427 . S
C406 H397 0.930 . S
C406 C404 1.378 . S
C406 C407 1.367 . S
C407 C406 1.367 . S
C407 C409 1.433 1_554 S
C408 C404 1.350 . S
C408 C405 1.463 . S
C408 N412 1.427 1_554 S
C409 H399 0.929 . S
C409 C407 1.433 1_556 S
C409 N412 1.384 . S
C410 H401 0.929 . S
C410 C402 1.378 . S
C410 C405 1.350 1_556 S
C411 H398 0.929 . S
C411 C403 1.433 . S
C411 N413 1.384 . S
N412 C408 1.427 1_556 S
N412 C409 1.384 . S
N413 C405 1.427 . S
N413 C411 1.384 . S
H414 C420 0.930 . S
H415 C424 0.930 . S
H416 C429 0.929 . S
H417 C427 0.929 . S
H418 C422 0.929 . S
H419 C428 0.929 . S
C420 H414 0.930 . S
C420 C421 1.367 1_556 S
C420 C428 1.378 . S
C421 C420 1.367 1_554 S
C421 C429 1.433 . S
C422 H418 0.929 . S
C422 C424 1.378 . S
C422 C426 1.350 . S
C423 C426 1.463 . S
C423 C428 1.350 1_554 S
C423 N431 1.427 . S
C424 H415 0.930 . S
C424 C422 1.378 . S
C424 C425 1.367 . S
C425 C424 1.367 . S
C425 C427 1.433 1_554 S
C426 C422 1.350 . S
C426 C423 1.463 . S
C426 N430 1.427 1_554 S
C427 H417 0.929 . S
C427 C425 1.433 1_556 S
C427 N430 1.384 . S
C428 H419 0.929 . S
C428 C420 1.378 . S
C428 C423 1.350 1_556 S
C429 H416 0.929 . S
C429 C421 1.433 . S
C429 N431 1.384 . S
N430 C426 1.427 1_556 S
N430 C427 1.384 . S
N431 C423 1.427 . S
N431 C429 1.384 . S
H432 C438 0.930 . S
H433 C442 0.930 . S
H434 C447 0.929 . S
H435 C445 0.929 . S
H436 C440 0.929 . S
H437 C446 0.929 . S
C438 H432 0.930 . S
C438 C439 1.367 . S
C438 C446 1.378 . S
C439 C438 1.367 . S
C439 C447 1.433 . S
C440 H436 0.929 . S
C440 C442 1.378 . S
C440 C444 1.350 . S
C441 C444 1.463 . S
C441 C446 1.350 . S
C441 N449 1.427 . S
C442 H433 0.930 . S
C442 C440 1.378 . S
C442 C443 1.367 . S
C443 C442 1.367 . S
C443 C445 1.433 . S
C444 C440 1.350 . S
C444 C441 1.463 . S
C444 N448 1.427 . S
C445 H435 0.929 . S
C445 C443 1.433 . S
C445 N448 1.384 . S
C446 H437 0.929 . S
C446 C438 1.378 . S
C446 C441 1.350 . S
C447 H434 0.929 . S
C447 C439 1.433 . S
C447 N449 1.384 . S
N448 C444 1.427 . S
N448 C445 1.384 . S
N449 C441 1.427 . S
N449 C447 1.384 . S
H450 C456 0.930 . S
H451 C460 0.930 . S
H452 C465 0.929 . S
H453 C463 0.929 . S
H454 C458 0.929 . S
H455 C464 0.929 . S
C456 H450 0.930 . S
C456 C457 1.367 . S
C456 C464 1.378 . S
C457 C456 1.367 . S
C457 C465 1.433 . S
C458 H454 0.929 . S
C458 C460 1.378 . S
C458 C462 1.350 . S
C459 C462 1.463 . S
C459 C464 1.350 . S
C459 N467 1.427 . S
C460 H451 0.930 . S
C460 C458 1.378 . S
C460 C461 1.367 . S
C461 C460 1.367 . S
C461 C463 1.433 . S
C462 C458 1.350 . S
C462 C459 1.463 . S
C462 N466 1.427 . S
C463 H453 0.929 . S
C463 C461 1.433 . S
C463 N466 1.384 . S
C464 H455 0.929 . S
C464 C456 1.378 . S
C464 C459 1.350 . S
C465 H452 0.929 . S
C465 C457 1.433 . S
C465 N467 1.384 . S
N466 C462 1.427 . S
N466 C463 1.384 . S
N467 C459 1.427 . S
N467 C465 1.384 . S
H468 C474 0.930 . S
H469 C478 0.930 . S
H470 C483 0.929 . S
H471 C481 0.929 . S
H472 C476 0.929 . S
H473 C482 0.929 . S
C474 H468 0.930 . S
C474 C475 1.367 . S
C474 C482 1.378 . S
C475 C474 1.367 . S
C475 C483 1.433 . S
C476 H472 0.929 . S
C476 C478 1.378 . S
C476 C480 1.350 . S
C477 C480 1.463 . S
C477 C482 1.350 . S
C477 N485 1.427 . S
C478 H469 0.930 . S
C478 C476 1.378 . S
C478 C479 1.367 . S
C479 C478 1.367 . S
C479 C481 1.433 . S
C480 C476 1.350 . S
C480 C477 1.463 . S
C480 N484 1.427 . S
C481 H471 0.929 . S
C481 C479 1.433 . S
C481 N484 1.384 . S
C482 H473 0.929 . S
C482 C474 1.378 . S
C482 C477 1.350 . S
C483 H470 0.929 . S
C483 C475 1.433 . S
C483 N485 1.384 . S
N484 C480 1.427 . S
N484 C481 1.384 . S
N485 C477 1.427 . S
N485 C483 1.384 . S
H486 C492 0.930 . S
H487 C496 0.930 . S
H488 C501 0.929 . S
H489 C499 0.929 . S
H490 C494 0.929 . S
H491 C500 0.929 . S
C492 H486 0.930 . S
C492 C493 1.367 . S
C492 C500 1.378 . S
C493 C492 1.367 . S
C493 C501 1.433 . S
C494 H490 0.929 . S
C494 C496 1.378 . S
C494 C498 1.350 . S
C495 C498 1.463 . S
C495 C500 1.350 . S
C495 N503 1.427 . S
C496 H487 0.930 . S
C496 C494 1.378 . S
C496 C497 1.367 . S
C497 C496 1.367 . S
C497 C499 1.433 . S
C498 C494 1.350 . S
C498 C495 1.463 . S
C498 N502 1.427 . S
C499 H489 0.929 . S
C499 C497 1.433 . S
C499 N502 1.384 . S
C500 H491 0.929 . S
C500 C492 1.378 . S
C500 C495 1.350 . S
C501 H488 0.929 . S
C501 C493 1.433 . S
C501 N503 1.384 . S
N502 C498 1.427 . S
N502 C499 1.384 . S
N503 C495 1.427 . S
N503 C501 1.384 . S
H504 C510 0.930 . S
H505 C514 0.930 . S
H506 C519 0.929 1_655 S
H507 C517 0.929 . S
H508 C512 0.929 . S
H509 C518 0.929 . S
C510 H504 0.930 . S
C510 C511 1.367 . S
C510 C518 1.378 . S
C511 C510 1.367 . S
C511 C519 1.433 . S
C512 H508 0.929 . S
C512 C514 1.378 . S
C512 C516 1.350 . S
C513 C516 1.463 . S
C513 C518 1.350 . S
C513 N521 1.427 . S
C514 H505 0.930 . S
C514 C512 1.378 . S
C514 C515 1.367 . S
C515 C514 1.367 . S
C515 C517 1.433 . S
C516 C512 1.350 . S
C516 C513 1.463 . S
C516 N520 1.427 . S
C517 H507 0.929 . S
C517 C515 1.433 . S
C517 N520 1.384 . S
C518 H509 0.929 . S
C518 C510 1.378 . S
C518 C513 1.350 . S
C519 H506 0.929 1_455 S
C519 C511 1.433 . S
C519 N521 1.384 . S
N520 C516 1.427 . S
N520 C517 1.384 . S
N521 C513 1.427 . S
N521 C519 1.384 . S
H522 C528 0.930 . S
H523 C532 0.930 . S
H524 C537 0.929 1_565 S
H525 C535 0.929 . S
H526 C530 0.929 . S
H527 C536 0.929 . S
C528 H522 0.930 . S
C528 C529 1.367 . S
C528 C536 1.378 . S
C529 C528 1.367 . S
C529 C537 1.433 . S
C530 H526 0.929 . S
C530 C532 1.378 . S
C530 C534 1.350 . S
C531 C534 1.463 . S
C531 C536 1.350 . S
C531 N539 1.427 . S
C532 H523 0.930 . S
C532 C530 1.378 . S
C532 C533 1.367 . S
C533 C532 1.367 . S
C533 C535 1.433 . S
C534 C530 1.350 . S
C534 C531 1.463 . S
C534 N538 1.427 . S
C535 H525 0.929 . S
C535 C533 1.433 . S
C535 N538 1.384 . S
C536 H527 0.929 . S
C536 C528 1.378 . S
C536 C531 1.350 . S
C537 H524 0.929 1_545 S
C537 C529 1.433 . S
C537 N539 1.384 . S
N538 C534 1.427 . S
N538 C535 1.384 . S
N539 C531 1.427 . S
N539 C537 1.384 . S
H540 C546 0.930 . S
H541 C550 0.930 . S
H542 C555 0.929 . S
H543 C553 0.929 . S
H544 C548 0.929 . S
H545 C554 0.929 . S
C546 H540 0.930 . S
C546 C547 1.367 . S
C546 C554 1.378 . S
C547 C546 1.367 . S
C547 C555 1.433 . S
C548 H544 0.929 . S
C548 C550 1.378 . S
C548 C552 1.350 . S
C549 C552 1.463 . S
C549 C554 1.350 . S
C549 N557 1.427 . S
C550 H541 0.930 . S
C550 C548 1.378 . S
C550 C551 1.367 . S
C551 C550 1.367 . S
C551 C553 1.433 . S
C552 C548 1.350 . S
C552 C549 1.463 . S
C552 N556 1.427 . S
C553 H543 0.929 . S
C553 C551 1.433 . S
C553 N556 1.384 . S
C554 H545 0.929 . S
C554 C546 1.378 . S
C554 C549 1.350 . S
C555 H542 0.929 . S
C555 C547 1.433 . S
C555 N557 1.384 . S
N556 C552 1.427 . S
N556 C553 1.384 . S
N557 C549 1.427 . S
N557 C555 1.384 . S
H558 C564 0.930 . S
H559 C568 0.930 . S
H560 C573 0.929 . S
H561 C571 0.929 . S
H562 C566 0.929 . S
H563 C572 0.929 . S
C564 H558 0.930 . S
C564 C565 1.367 . S
C564 C572 1.378 . S
C565 C564 1.367 . S
C565 C573 1.433 . S
C566 H562 0.929 . S
C566 C568 1.378 . S
C566 C570 1.350 . S
C567 C570 1.463 . S
C567 C572 1.350 . S
C567 N575 1.427 . S
C568 H559 0.930 . S
C568 C566 1.378 . S
C568 C569 1.367 . S
C569 C568 1.367 . S
C569 C571 1.433 . S
C570 C566 1.350 . S
C570 C567 1.463 . S
C570 N574 1.427 . S
C571 H561 0.929 . S
C571 C569 1.433 . S
C571 N574 1.384 . S
C572 H563 0.929 . S
C572 C564 1.378 . S
C572 C567 1.350 . S
C573 H560 0.929 . S
C573 C565 1.433 . S
C573 N575 1.384 . S
N574 C570 1.427 . S
N574 C571 1.384 . S
N575 C567 1.427 . S
N575 C573 1.384 . S
H576 C582 0.930 . S
H577 C586 0.930 . S
H578 C591 0.929 . S
H579 C589 0.929 . S
H580 C584 0.929 . S
H581 C590 0.929 . S
C582 H576 0.930 . S
C582 C583 1.367 . S
C582 C590 1.378 . S
C583 C582 1.367 . S
C583 C591 1.433 . S
C584 H580 0.929 . S
C584 C586 1.378 . S
C584 C588 1.350 . S
C585 C588 1.463 . S
C585 C590 1.350 . S
C585 N593 1.427 . S
C586 H577 0.930 . S
C586 C584 1.378 . S
C586 C587 1.367 . S
C587 C586 1.367 . S
C587 C589 1.433 . S
C588 C584 1.350 . S
C588 C585 1.463 . S
C588 N592 1.427 . S
C589 H579 0.929 . S
C589 C587 1.433 . S
C589 N592 1.384 . S
C590 H581 0.929 . S
C590 C582 1.378 . S
C590 C585 1.350 . S
C591 H578 0.929 . S
C591 C583 1.433 . S
C591 N593 1.384 . S
N592 C588 1.427 . S
N592 C589 1.384 . S
N593 C585 1.427 . S
N593 C591 1.384 . S
H594 C600 0.930 . S
H595 C604 0.930 . S
H596 C609 0.929 . S
H597 C607 0.929 . S
H598 C602 0.929 . S
H599 C608 0.929 . S
C600 H594 0.930 . S
C600 C601 1.367 . S
C600 C608 1.378 . S
C601 C600 1.367 . S
C601 C609 1.433 . S
C602 H598 0.929 . S
C602 C604 1.378 . S
C602 C606 1.350 . S
C603 C606 1.463 . S
C603 C608 1.350 . S
C603 N611 1.427 . S
C604 H595 0.930 . S
C604 C602 1.378 . S
C604 C605 1.367 . S
C605 C604 1.367 . S
C605 C607 1.433 . S
C606 C602 1.350 . S
C606 C603 1.463 . S
C606 N610 1.427 . S
C607 H597 0.929 . S
C607 C605 1.433 . S
C607 N610 1.384 . S
C608 H599 0.929 . S
C608 C600 1.378 . S
C608 C603 1.350 . S
C609 H596 0.929 . S
C609 C601 1.433 . S
C609 N611 1.384 . S
N610 C606 1.427 . S
N610 C607 1.384 . S
N611 C603 1.427 . S
N611 C609 1.384 . S
H612 C618 0.930 . S
H613 C622 0.930 . S
H614 C627 0.929 . S
H615 C625 0.929 . S
H616 C620 0.929 . S
H617 C626 0.929 . S
C618 H612 0.930 . S
C618 C619 1.367 . S
C618 C626 1.378 . S
C619 C618 1.367 . S
C619 C627 1.433 . S
C620 H616 0.929 . S
C620 C622 1.378 . S
C620 C624 1.350 . S
C621 C624 1.463 . S
C621 C626 1.350 . S
C621 N629 1.427 . S
C622 H613 0.930 . S
C622 C620 1.378 . S
C622 C623 1.367 . S
C623 C622 1.367 . S
C623 C625 1.433 . S
C624 C620 1.350 . S
C624 C621 1.463 . S
C624 N628 1.427 . S
C625 H615 0.929 . S
C625 C623 1.433 . S
C625 N628 1.384 . S
C626 H617 0.929 . S
C626 C618 1.378 . S
C626 C621 1.350 . S
C627 H614 0.929 . S
C627 C619 1.433 . S
C627 N629 1.384 . S
N628 C624 1.427 . S
N628 C625 1.384 . S
N629 C621 1.427 . S
N629 C627 1.384 . S
H630 C636 0.930 . S
H631 C640 0.930 . S
H632 C645 0.929 . S
H633 C643 0.929 . S
H634 C638 0.929 . S
H635 C644 0.929 . S
C636 H630 0.930 . S
C636 C637 1.367 . S
C636 C644 1.378 . S
C637 C636 1.367 . S
C637 C645 1.433 . S
C638 H634 0.929 . S
C638 C640 1.378 . S
C638 C642 1.350 . S
C639 C642 1.463 . S
C639 C644 1.350 . S
C639 N647 1.427 . S
C640 H631 0.930 . S
C640 C638 1.378 . S
C640 C641 1.367 . S
C641 C640 1.367 . S
C641 C643 1.433 . S
C642 C638 1.350 . S
C642 C639 1.463 . S
C642 N646 1.427 . S
C643 H633 0.929 . S
C643 C641 1.433 . S
C643 N646 1.384 . S
C644 H635 0.929 . S
C644 C636 1.378 . S
C644 C639 1.350 . S
C645 H632 0.929 . S
C645 C637 1.433 . S
C645 N647 1.384 . S
N646 C642 1.427 . S
N646 C643 1.384 . S
N647 C639 1.427 . S
N647 C645 1.384 . S
H648 C654 0.930 . S
H649 C658 0.930 . S
H650 C663 0.929 . S
H651 C661 0.929 . S
H652 C656 0.929 . S
H653 C662 0.929 . S
C654 H648 0.930 . S
C654 C655 1.367 . S
C654 C662 1.378 . S
C655 C654 1.367 . S
C655 C663 1.433 . S
C656 H652 0.929 . S
C656 C658 1.378 . S
C656 C660 1.350 . S
C657 C660 1.463 . S
C657 C662 1.350 . S
C657 N665 1.427 . S
C658 H649 0.930 . S
C658 C656 1.378 . S
C658 C659 1.367 . S
C659 C658 1.367 . S
C659 C661 1.433 . S
C660 C656 1.350 . S
C660 C657 1.463 . S
C660 N664 1.427 . S
C661 H651 0.929 . S
C661 C659 1.433 . S
C661 N664 1.384 . S
C662 H653 0.929 . S
C662 C654 1.378 . S
C662 C657 1.350 . S
C663 H650 0.929 . S
C663 C655 1.433 . S
C663 N665 1.384 . S
N664 C660 1.427 . S
N664 C661 1.384 . S
N665 C657 1.427 . S
N665 C663 1.384 . S
H666 C672 0.930 . S
H667 C676 0.930 . S
H668 C681 0.929 . S
H669 C679 0.929 . S
H670 C674 0.929 . S
H671 C680 0.929 . S
C672 H666 0.930 . S
C672 C673 1.367 . S
C672 C680 1.378 . S
C673 C672 1.367 . S
C673 C681 1.433 . S
C674 H670 0.929 . S
C674 C676 1.378 . S
C674 C678 1.350 . S
C675 C678 1.463 . S
C675 C680 1.350 . S
C675 N683 1.427 . S
C676 H667 0.930 . S
C676 C674 1.378 . S
C676 C677 1.367 . S
C677 C676 1.367 . S
C677 C679 1.433 . S
C678 C674 1.350 . S
C678 C675 1.463 . S
C678 N682 1.427 . S
C679 H669 0.929 . S
C679 C677 1.433 . S
C679 N682 1.384 . S
C680 H671 0.929 . S
C680 C672 1.378 . S
C680 C675 1.350 . S
C681 H668 0.929 . S
C681 C673 1.433 . S
C681 N683 1.384 . S
N682 C678 1.427 . S
N682 C679 1.384 . S
N683 C675 1.427 . S
N683 C681 1.384 . S
H684 C690 0.930 . S
H685 C694 0.930 . S
H686 C699 0.929 . S
H687 C697 0.929 . S
H688 C692 0.929 . S
H689 C698 0.929 . S
C690 H684 0.930 . S
C690 C691 1.367 . S
C690 C698 1.378 . S
C691 C690 1.367 . S
C691 C699 1.433 . S
C692 H688 0.929 . S
C692 C694 1.378 . S
C692 C696 1.350 . S
C693 C696 1.463 . S
C693 C698 1.350 . S
C693 N701 1.427 . S
C694 H685 0.930 . S
C694 C692 1.378 . S
C694 C695 1.367 . S
C695 C694 1.367 . S
C695 C697 1.433 . S
C696 C692 1.350 . S
C696 C693 1.463 . S
C696 N700 1.427 . S
C697 H687 0.929 . S
C697 C695 1.433 . S
C697 N700 1.384 . S
C698 H689 0.929 . S
C698 C690 1.378 . S
C698 C693 1.350 . S
C699 H686 0.929 . S
C699 C691 1.433 . S
C699 N701 1.384 . S
N700 C696 1.427 . S
N700 C697 1.384 . S
N701 C693 1.427 . S
N701 C699 1.384 . S
H702 C708 0.930 . S
H703 C712 0.930 . S
H704 C717 0.929 . S
H705 C715 0.929 . S
H706 C710 0.929 . S
H707 C716 0.929 . S
C708 H702 0.930 . S
C708 C709 1.367 . S
C708 C716 1.378 . S
C709 C708 1.367 . S
C709 C717 1.433 . S
C710 H706 0.929 . S
C710 C712 1.378 . S
C710 C714 1.350 . S
C711 C714 1.463 . S
C711 C716 1.350 . S
C711 N719 1.427 . S
C712 H703 0.930 . S
C712 C710 1.378 . S
C712 C713 1.367 . S
C713 C712 1.367 . S
C713 C715 1.433 . S
C714 C710 1.350 . S
C714 C711 1.463 . S
C714 N718 1.427 . S
C715 H705 0.929 . S
C715 C713 1.433 . S
C715 N718 1.384 . S
C716 H707 0.929 . S
C716 C708 1.378 . S
C716 C711 1.350 . S
C717 H704 0.929 . S
C717 C709 1.433 . S
C717 N719 1.384 . S
N718 C714 1.427 . S
N718 C715 1.384 . S
N719 C711 1.427 . S
N719 C717 1.384 . S
H720 C726 0.930 . S
H721 C730 0.930 . S
H722 C735 0.929 . S
H723 C733 0.929 . S
H724 C728 0.929 . S
H725 C734 0.929 . S
C726 H720 0.930 . S
C726 C727 1.367 . S
C726 C734 1.378 . S
C727 C726 1.367 . S
C727 C735 1.433 . S
C728 H724 0.929 . S
C728 C730 1.378 . S
C728 C732 1.350 . S
C729 C732 1.463 . S
C729 C734 1.350 . S
C729 N737 1.427 . S
C730 H721 0.930 . S
C730 C728 1.378 . S
C730 C731 1.367 . S
C731 C730 1.367 . S
C731 C733 1.433 . S
C732 C728 1.350 . S
C732 C729 1.463 . S
C732 N736 1.427 . S
C733 H723 0.929 . S
C733 C731 1.433 . S
C733 N736 1.384 . S
C734 H725 0.929 . S
C734 C726 1.378 . S
C734 C729 1.350 . S
C735 H722 0.929 . S
C735 C727 1.433 . S
C735 N737 1.384 . S
N736 C732 1.427 . S
N736 C733 1.384 . S
N737 C729 1.427 . S
N737 C735 1.384 . S
H738 C744 0.930 . S
H739 C748 0.930 . S
H740 C753 0.929 . S
H741 C751 0.929 . S
H742 C746 0.929 . S
H743 C752 0.929 . S
C744 H738 0.930 . S
C744 C745 1.367 . S
C744 C752 1.378 . S
C745 C744 1.367 . S
C745 C753 1.433 . S
C746 H742 0.929 . S
C746 C748 1.378 . S
C746 C750 1.350 . S
C747 C750 1.463 . S
C747 C752 1.350 . S
C747 N755 1.427 . S
C748 H739 0.930 . S
C748 C746 1.378 . S
C748 C749 1.367 . S
C749 C748 1.367 . S
C749 C751 1.433 . S
C750 C746 1.350 . S
C750 C747 1.463 . S
C750 N754 1.427 . S
C751 H741 0.929 . S
C751 C749 1.433 . S
C751 N754 1.384 . S
C752 H743 0.929 . S
C752 C744 1.378 . S
C752 C747 1.350 . S
C753 H740 0.929 . S
C753 C745 1.433 . S
C753 N755 1.384 . S
N754 C750 1.427 . S
N754 C751 1.384 . S
N755 C747 1.427 . S
N755 C753 1.384 . S
H756 C762 0.930 . S
H757 C766 0.930 . S
H758 C771 0.929 . S
H759 C769 0.929 . S
H760 C764 0.929 . S
H761 C770 0.929 . S
C762 H756 0.930 . S
C762 C763 1.367 . S
C762 C770 1.378 . S
C763 C762 1.367 . S
C763 C771 1.433 . S
C764 H760 0.929 . S
C764 C766 1.378 . S
C764 C768 1.350 . S
C765 C768 1.463 . S
C765 C770 1.350 . S
C765 N773 1.427 . S
C766 H757 0.930 . S
C766 C764 1.378 . S
C766 C767 1.367 . S
C767 C766 1.367 . S
C767 C769 1.433 . S
C768 C764 1.350 . S
C768 C765 1.463 . S
C768 N772 1.427 . S
C769 H759 0.929 . S
C769 C767 1.433 . S
C769 N772 1.384 . S
C770 H761 0.929 . S
C770 C762 1.378 . S
C770 C765 1.350 . S
C771 H758 0.929 . S
C771 C763 1.433 . S
C771 N773 1.384 . S
N772 C768 1.427 . S
N772 C769 1.384 . S
N773 C765 1.427 . S
N773 C771 1.384 . S
H774 C780 0.930 . S
H775 C784 0.930 . S
H776 C789 0.929 . S
H777 C787 0.929 . S
H778 C782 0.929 . S
H779 C788 0.929 . S
C780 H774 0.930 . S
C780 C781 1.367 . S
C780 C788 1.378 . S
C781 C780 1.367 . S
C781 C789 1.433 . S
C782 H778 0.929 . S
C782 C784 1.378 . S
C782 C786 1.350 . S
C783 C786 1.463 . S
C783 C788 1.350 . S
C783 N791 1.427 . S
C784 H775 0.930 . S
C784 C782 1.378 . S
C784 C785 1.367 . S
C785 C784 1.367 . S
C785 C787 1.433 . S
C786 C782 1.350 . S
C786 C783 1.463 . S
C786 N790 1.427 . S
C787 H777 0.929 . S
C787 C785 1.433 . S
C787 N790 1.384 . S
C788 H779 0.929 . S
C788 C780 1.378 . S
C788 C783 1.350 . S
C789 H776 0.929 . S
C789 C781 1.433 . S
C789 N791 1.384 . S
N790 C786 1.427 . S
N790 C787 1.384 . S
N791 C783 1.427 . S
N791 C789 1.384 . S
C367 C45 1.602 . S
C371 C127 1.629 . S
C385 C30 1.598 . S
C389 C159 1.631 . S
C403 C39 1.596 . S
C407 C191 1.530 . S
C425 C223 1.538 . S
C421 C34 1.601 . S
C439 C97 1.599 . S
C443 C255 1.629 . S
C461 C287 1.631 . S
C457 C82 1.595 . S
C479 C319 1.528 . S
C475 C91 1.597 . S
C497 C351 1.539 . S
C493 C86 1.602 . S
C515 C313 1.456 . S
C511 C26 1.470 . S
C533 C345 1.454 . S
C529 C36 1.469 . S
C551 C261 1.542 . S
C547 C32 1.482 . S
C569 C293 1.543 . S
C565 C42 1.471 . S
C583 C18 1.527 . S
C587 C281 1.626 . S
C605 C325 1.527 . S
C601 C50 1.552 . S
C619 C4 1.546 . S
C623 C357 1.521 . S
C637 C48 1.534 . S
C641 C249 1.627 . S
C659 C185 1.452 . S
C655 C78 1.470 . S
C673 C88 1.470 . S
C677 C217 1.451 . S
C695 C133 1.542 . S
C691 C84 1.482 . S
C713 C165 1.545 . S
C709 C94 1.469 . S
C731 C153 1.626 . S
C727 C70 1.543 . S
C749 C197 1.512 . S
C745 C102 1.536 . S
C763 C56 1.550 . S
C767 C229 1.526 . S
C781 C100 1.529 . S
C785 C121 1.627 . S
