# Generated by pormake.
# Topology wbl, (4,4)-cn, num edge types: 1
# Building blocks:
#     Node 0, Type 0, BuildingBlock: NAWXER_clean_linker_0, # of connection points: 4
#     Node 1, Type 0, BuildingBlock: NAWXER_clean_linker_0, # of connection points: 4
#     Node 2, Type 0, BuildingBlock: NAWXER_clean_linker_0, # of connection points: 4
#     Node 3, Type 0, BuildingBlock: NAWXER_clean_linker_0, # of connection points: 4
#     Node 4, Type 0, BuildingBlock: NAWXER_clean_linker_0, # of connection points: 4
#     Node 5, Type 0, BuildingBlock: NAWXER_clean_linker_0, # of connection points: 4
#     Node 6, Type 0, BuildingBlock: NAWXER_clean_linker_0, # of connection points: 4
#     Node 7, Type 0, BuildingBlock: NAWXER_clean_linker_0, # of connection points: 4
#     Node 8, Type 1, BuildingBlock: KUFVIS_clean_sbu_0, # of connection points: 4
#     Node 9, Type 1, BuildingBlock: KUFVIS_clean_sbu_0, # of connection points: 4
#     Node 10, Type 1, BuildingBlock: KUFVIS_clean_sbu_0, # of connection points: 4
#     Node 11, Type 1, BuildingBlock: KUFVIS_clean_sbu_0, # of connection points: 4
#     Node 12, Type 1, BuildingBlock: KUFVIS_clean_sbu_0, # of connection points: 4
#     Node 13, Type 1, BuildingBlock: KUFVIS_clean_sbu_0, # of connection points: 4
#     Node 14, Type 1, BuildingBlock: KUFVIS_clean_sbu_0, # of connection points: 4
#     Node 15, Type 1, BuildingBlock: KUFVIS_clean_sbu_0, # of connection points: 4
#     Edge 16, Type (0, 1), BuildingBlock: XUDNAN_clean_linker_2, # of connection points: 2
#     Edge 17, Type (0, 1), BuildingBlock: XUDNAN_clean_linker_2, # of connection points: 2
#     Edge 18, Type (0, 1), BuildingBlock: XUDNAN_clean_linker_2, # of connection points: 2
#     Edge 19, Type (0, 1), BuildingBlock: XUDNAN_clean_linker_2, # of connection points: 2
#     Edge 20, Type (0, 1), BuildingBlock: XUDNAN_clean_linker_2, # of connection points: 2
#     Edge 21, Type (0, 1), BuildingBlock: XUDNAN_clean_linker_2, # of connection points: 2
#     Edge 22, Type (0, 1), BuildingBlock: XUDNAN_clean_linker_2, # of connection points: 2
#     Edge 23, Type (0, 1), BuildingBlock: XUDNAN_clean_linker_2, # of connection points: 2
#     Edge 24, Type (0, 1), BuildingBlock: XUDNAN_clean_linker_2, # of connection points: 2
#     Edge 25, Type (0, 1), BuildingBlock: XUDNAN_clean_linker_2, # of connection points: 2
#     Edge 26, Type (0, 1), BuildingBlock: XUDNAN_clean_linker_2, # of connection points: 2
#     Edge 27, Type (0, 1), BuildingBlock: XUDNAN_clean_linker_2, # of connection points: 2
#     Edge 28, Type (0, 1), BuildingBlock: XUDNAN_clean_linker_2, # of connection points: 2
#     Edge 29, Type (0, 1), BuildingBlock: XUDNAN_clean_linker_2, # of connection points: 2
#     Edge 30, Type (0, 1), BuildingBlock: XUDNAN_clean_linker_2, # of connection points: 2
#     Edge 31, Type (0, 1), BuildingBlock: XUDNAN_clean_linker_2, # of connection points: 2
#     Edge 32, Type (0, 1), BuildingBlock: XUDNAN_clean_linker_2, # of connection points: 2
#     Edge 33, Type (0, 1), BuildingBlock: XUDNAN_clean_linker_2, # of connection points: 2
#     Edge 34, Type (0, 1), BuildingBlock: XUDNAN_clean_linker_2, # of connection points: 2
#     Edge 35, Type (0, 1), BuildingBlock: XUDNAN_clean_linker_2, # of connection points: 2
#     Edge 36, Type (0, 1), BuildingBlock: XUDNAN_clean_linker_2, # of connection points: 2
#     Edge 37, Type (0, 1), BuildingBlock: XUDNAN_clean_linker_2, # of connection points: 2
#     Edge 38, Type (0, 1), BuildingBlock: XUDNAN_clean_linker_2, # of connection points: 2
#     Edge 39, Type (0, 1), BuildingBlock: XUDNAN_clean_linker_2, # of connection points: 2
#     Edge 40, Type (0, 1), BuildingBlock: XUDNAN_clean_linker_2, # of connection points: 2
#     Edge 41, Type (0, 1), BuildingBlock: XUDNAN_clean_linker_2, # of connection points: 2
#     Edge 42, Type (0, 1), BuildingBlock: XUDNAN_clean_linker_2, # of connection points: 2
#     Edge 43, Type (0, 1), BuildingBlock: XUDNAN_clean_linker_2, # of connection points: 2
#     Edge 44, Type (0, 1), BuildingBlock: XUDNAN_clean_linker_2, # of connection points: 2
#     Edge 45, Type (0, 1), BuildingBlock: XUDNAN_clean_linker_2, # of connection points: 2
#     Edge 46, Type (0, 1), BuildingBlock: XUDNAN_clean_linker_2, # of connection points: 2
#     Edge 47, Type (0, 1), BuildingBlock: XUDNAN_clean_linker_2, # of connection points: 2
# Relax obj value: 0.160
# Max RMSD: 0.159
# Mean RMSD: 0.140
data_MOF--net-wbl--node1-KUFVIS_clean_sbu_0--node2-NAWXER_clean_linker_0--edge1-XUDNAN_clean_linker_2
_symmetry_space_group_name_H-M    P1
_symmetry_Int_Tables_number       1
_symmetry_cell_setting            triclinic
loop_
_symmetry_equiv_pos_as_xyz
'x, y, z'
_cell_length_a     45.161141
_cell_length_b     45.154703
_cell_length_c     77.777565
_cell_angle_alpha  90.007799
_cell_angle_beta   90.685944
_cell_angle_gamma 90.044513
loop_
_atom_site_label
_atom_site_type_symbol
_atom_site_fract_x
_atom_site_fract_y
_atom_site_fract_z
_atom_type_partial_charge
C0 C 0.06203 0.93188 0.34581 0.0
C1 C 0.06814 0.94044 0.36291 0.0
C2 C 0.04682 0.95078 0.33455 0.0
C3 C 0.03873 0.97949 0.3397 0.0
C4 C 0.05983 0.96915 0.36805 0.0
C5 C 0.04569 0.98843 0.35657 0.0
C6 C 0.01996 0.99906 0.32864 0.0
C7 C 0.09816 0.98114 0.29523 0.0
C8 C 0.09238 0.95753 0.28379 0.0
C9 C 0.07513 0.9952 0.30381 0.0
C10 C 0.04574 0.98661 0.30079 0.0
C11 C 0.06264 0.94959 0.2805 0.0
C12 C 0.03953 0.96437 0.28871 0.0
C13 C 0.02164 0.00052 0.31051 0.0
C14 C 0.92971 0.09404 0.29309 0.0
C15 C 0.91221 0.0784 0.28105 0.0
C16 C 0.95293 0.07991 0.30184 0.0
C17 C 0.95868 0.04978 0.29892 0.0
C18 C 0.9196 0.04888 0.27725 0.0
C19 C 0.94265 0.03474 0.28608 0.0
C20 C 0.9801 0.03318 0.30971 0.0
C21 C 0.90725 0.06472 0.345 0.0
C22 C 0.91731 0.07956 0.35991 0.0
C23 C 0.92706 0.04945 0.33451 0.0
C24 C 0.95757 0.04968 0.33829 0.0
C25 C 0.94786 0.07927 0.36374 0.0
C26 C 0.96767 0.06466 0.35303 0.0
C27 C 0.97916 0.0328 0.32789 0.0
H28 H 0.06834 0.91029 0.34109 0.0
H29 H 0.04047 0.94217 0.32209 0.0
H30 H 0.06316 0.97666 0.38114 0.0
H31 H 0.03935 0.01018 0.36112 0.0
H32 H 0.12051 0.98882 0.2977 0.0
H33 H 0.08026 0.01277 0.31286 0.0
H34 H 0.05707 0.9314 0.27201 0.0
H35 H 0.01688 0.95755 0.2862 0.0
H36 H 0.92463 0.11678 0.29635 0.0
H37 H 0.96555 0.09214 0.31141 0.0
H38 H 0.90702 0.03643 0.26775 0.0
H39 H 0.94708 0.01162 0.28342 0.0
H40 H 0.884 0.06453 0.34147 0.0
H41 H 0.91838 0.03715 0.32362 0.0
H42 H 0.95659 0.08952 0.37531 0.0
H43 H 0.99101 0.06475 0.35644 0.0
N44 N 0.99903 0.01565 0.33652 0.0
N45 N 0.00136 0.01706 0.30173 0.0
C46 C 0.9266 0.44005 0.60617 0.0
C47 C 0.9387 0.42927 0.62173 0.0
C48 C 0.94462 0.45402 0.59407 0.0
C49 C 0.97528 0.45676 0.59704 0.0
C50 C 0.96944 0.43202 0.62456 0.0
C51 C 0.98742 0.44539 0.61235 0.0
C52 C 0.99449 0.47443 0.58553 0.0
C53 C 0.9589 0.40149 0.55219 0.0
C54 C 0.94501 0.41 0.53675 0.0
C55 C 0.97437 0.42225 0.56214 0.0
C56 C 0.97525 0.45223 0.5572 0.0
C57 C 0.94649 0.43967 0.53148 0.0
C58 C 0.96133 0.46063 0.54168 0.0
C59 C 0.9926 0.47435 0.56731 0.0
C60 C 0.08882 0.56337 0.5491 0.0
C61 C 0.07269 0.58177 0.53779 0.0
C62 C 0.07477 0.54036 0.55785 0.0
C63 C 0.04415 0.53569 0.5558 0.0
C64 C 0.04246 0.57566 0.53489 0.0
C65 C 0.02837 0.55288 0.54381 0.0
C66 C 0.02811 0.51374 0.5664 0.0
C67 C 0.06622 0.57891 0.60624 0.0
C68 C 0.08954 0.56551 0.61549 0.0
C69 C 0.04761 0.56183 0.59566 0.0
C70 C 0.05187 0.53111 0.59444 0.0
C71 C 0.09399 0.53485 0.61397 0.0
C72 C 0.07509 0.51776 0.6037 0.0
C73 C 0.03129 0.51231 0.58443 0.0
H74 H 0.90313 0.43816 0.60341 0.0
H75 H 0.93438 0.4634 0.58265 0.0
H76 H 0.97968 0.42486 0.6365 0.0
H77 H 0.01089 0.44756 0.61514 0.0
H78 H 0.95856 0.37856 0.55628 0.0
H79 H 0.98612 0.41461 0.57351 0.0
H80 H 0.93611 0.4466 0.51952 0.0
H81 H 0.96207 0.48343 0.53736 0.0
H82 H 0.1121 0.56732 0.55168 0.0
H83 H 0.08777 0.52666 0.5665 0.0
H84 H 0.02948 0.58881 0.52593 0.0
H85 H 0.00486 0.54936 0.54175 0.0
H86 H 0.06233 0.60251 0.60729 0.0
H87 H 0.02957 0.57241 0.58872 0.0
H88 H 0.11155 0.52396 0.62117 0.0
H89 H 0.0785 0.49404 0.60301 0.0
N90 N 0.01424 0.493 0.59324 0.0
N91 N 0.00902 0.49456 0.55852 0.0
C92 C 0.5585 0.44788 0.87265 0.0
C93 C 0.58802 0.45665 0.87532 0.0
C94 C 0.54082 0.46236 0.86043 0.0
C95 C 0.55262 0.48523 0.85043 0.0
C96 C 0.60013 0.47885 0.86487 0.0
C97 C 0.58259 0.49287 0.85237 0.0
C98 C 0.53274 0.50329 0.83955 0.0
C99 C 0.59994 0.48816 0.79252 0.0
C100 C 0.60118 0.45712 0.79375 0.0
C101 C 0.57846 0.50406 0.80146 0.0
C102 C 0.55835 0.48923 0.81204 0.0
C103 C 0.5806 0.44231 0.80409 0.0
C104 C 0.55941 0.45823 0.81317 0.0
C105 C 0.53596 0.50609 0.82164 0.0
C106 C 0.445 0.60181 0.80567 0.0
C107 C 0.42911 0.58774 0.79231 0.0
C108 C 0.46789 0.58696 0.8143 0.0
C109 C 0.47486 0.55762 0.80993 0.0
C110 C 0.43795 0.55933 0.78703 0.0
C111 C 0.46063 0.54443 0.79576 0.0
C112 C 0.4952 0.53966 0.82069 0.0
C113 C 0.41687 0.56346 0.85399 0.0
C114 C 0.42475 0.57792 0.86943 0.0
C115 C 0.43848 0.55007 0.84386 0.0
C116 C 0.46852 0.55159 0.8487 0.0
C117 C 0.45487 0.57912 0.87425 0.0
C118 C 0.47644 0.56614 0.864 0.0
C119 C 0.49182 0.53654 0.83867 0.0
H120 H 0.54862 0.4311 0.88073 0.0
H121 H 0.51766 0.45635 0.85916 0.0
H122 H 0.6228 0.48606 0.86683 0.0
H123 H 0.59196 0.51072 0.84488 0.0
H124 H 0.61542 0.50007 0.78454 0.0
H125 H 0.57783 0.52796 0.80033 0.0
H126 H 0.58119 0.41843 0.80536 0.0
H127 H 0.54375 0.4463 0.82104 0.0
H128 H 0.4388 0.62367 0.81006 0.0
H129 H 0.47916 0.59786 0.82492 0.0
H130 H 0.42668 0.54818 0.7765 0.0
H131 H 0.466 0.52198 0.79198 0.0
H132 H 0.39396 0.56216 0.8498 0.0
H133 H 0.43162 0.53819 0.83239 0.0
H134 H 0.46184 0.58927 0.88625 0.0
H135 H 0.49941 0.56721 0.86815 0.0
N136 N 0.51087 0.5186 0.84737 0.0
N137 N 0.51707 0.52415 0.81283 0.0
C138 C 0.45751 0.90394 0.04595 0.0
C139 C 0.43842 0.91151 0.03223 0.0
C140 C 0.47224 0.92583 0.05537 0.0
C141 C 0.46773 0.95593 0.05162 0.0
C142 C 0.43479 0.94165 0.02805 0.0
C143 C 0.44941 0.96363 0.03762 0.0
C144 C 0.48272 0.97915 0.06203 0.0
C145 C 0.42031 0.93951 0.10173 0.0
C146 C 0.43487 0.92516 0.11549 0.0
C147 C 0.43655 0.95514 0.08945 0.0
C148 C 0.46757 0.95666 0.09076 0.0
C149 C 0.46603 0.9252 0.11603 0.0
C150 C 0.48216 0.94107 0.10393 0.0
C151 C 0.48459 0.97771 0.08017 0.0
C152 C 0.53029 0.08944 0.10623 0.0
C153 C 0.55373 0.08013 0.11695 0.0
C154 C 0.51928 0.07072 0.09334 0.0
C155 C 0.53121 0.04228 0.09129 0.0
C156 C 0.56692 0.05246 0.11409 0.0
C157 C 0.55545 0.03349 0.10149 0.0
C158 C 0.51567 0.02026 0.08051 0.0
C159 C 0.57311 0.07398 0.04698 0.0
C160 C 0.55696 0.09396 0.03667 0.0
C161 C 0.55894 0.05031 0.05497 0.0
C162 C 0.52831 0.04615 0.05287 0.0
C163 C 0.5264 0.08926 0.03418 0.0
C164 C 0.51223 0.06538 0.04212 0.0
C165 C 0.51304 0.02254 0.06251 0.0
H166 H 0.46069 0.88107 0.04971 0.0
H167 H 0.48713 0.91912 0.06567 0.0
H168 H 0.42066 0.94828 0.01739 0.0
H169 H 0.44599 0.98668 0.03428 0.0
H170 H 0.39636 0.94011 0.10097 0.0
H171 H 0.42481 0.96742 0.07955 0.0
H172 H 0.47802 0.91377 0.12618 0.0
H173 H 0.50607 0.94193 0.10516 0.0
H174 H 0.51964 0.11059 0.10838 0.0
H175 H 0.50029 0.07767 0.08571 0.0
H176 H 0.5847 0.04471 0.12241 0.0
H177 H 0.56468 0.01147 0.10017 0.0
H178 H 0.5966 0.07709 0.04929 0.0
H179 H 0.57187 0.03546 0.06301 0.0
H180 H 0.51344 0.1041 0.02615 0.0
H181 H 0.48859 0.06245 0.04029 0.0
N182 N 0.49673 0.00182 0.05384 0.0
N183 N 0.50124 0.99812 0.08865 0.0
C184 C 0.05986 0.57645 0.89636 0.0
C185 C 0.0752 0.56205 0.8831 0.0
C186 C 0.04521 0.56006 0.90895 0.0
C187 C 0.04549 0.52898 0.90848 0.0
C188 C 0.07649 0.53089 0.8832 0.0
C189 C 0.0615 0.51458 0.89562 0.0
C190 C 0.02646 0.51143 0.92003 0.0
C191 C 0.10032 0.54255 0.95384 0.0
C192 C 0.09262 0.56101 0.96763 0.0
C193 C 0.07851 0.52831 0.94407 0.0
C194 C 0.04839 0.53252 0.94764 0.0
C195 C 0.06247 0.56532 0.97122 0.0
C196 C 0.04056 0.55099 0.96138 0.0
C197 C 0.02548 0.51554 0.93803 0.0
C198 C 0.94006 0.42 0.95988 0.0
C199 C 0.92045 0.43625 0.97014 0.0
C200 C 0.96158 0.43444 0.95022 0.0
C201 C 0.96373 0.46547 0.95045 0.0
C202 C 0.92339 0.46726 0.97084 0.0
C203 C 0.94495 0.4817 0.96115 0.0
C204 C 0.98541 0.4811 0.93957 0.0
C205 C 0.92158 0.43936 0.90015 0.0
C206 C 0.9353 0.41592 0.89141 0.0
C207 C 0.93836 0.45834 0.91066 0.0
C208 C 0.96909 0.45435 0.9123 0.0
C209 C 0.96591 0.41155 0.89351 0.0
C210 C 0.98269 0.43082 0.90371 0.0
C211 C 0.98771 0.4758 0.92176 0.0
H212 H 0.05804 0.60035 0.89661 0.0
H213 H 0.03252 0.57167 0.91857 0.0
H214 H 0.08868 0.51898 0.8735 0.0
H215 H 0.06203 0.49061 0.89502 0.0
H216 H 0.1233 0.53901 0.95059 0.0
H217 H 0.08533 0.51339 0.93396 0.0
H218 H 0.05585 0.57921 0.98185 0.0
H219 H 0.01749 0.5542 0.96457 0.0
H220 H 0.93833 0.39613 0.95894 0.0
H221 H 0.97639 0.42134 0.94245 0.0
H222 H 0.90895 0.48039 0.97883 0.0
H223 H 0.94649 0.50563 0.96171 0.0
H224 H 0.89802 0.44318 0.89865 0.0
H225 H 0.92757 0.47663 0.91706 0.0
H226 H 0.97706 0.39391 0.88672 0.0
H227 H 0.00642 0.42758 0.90473 0.0
N228 N 0.00791 0.49134 0.91267 0.0
N229 N 0.00457 0.50064 0.94709 0.0
C230 C 0.45242 0.5691 0.14213 0.0
C231 C 0.47049 0.58502 0.13075 0.0
C232 C 0.46488 0.55403 0.15617 0.0
C233 C 0.49564 0.55439 0.15902 0.0
C234 C 0.50109 0.5868 0.13437 0.0
C235 C 0.51356 0.57127 0.14818 0.0
C236 C 0.50943 0.53423 0.17177 0.0
C237 C 0.47216 0.60768 0.20235 0.0
C238 C 0.44923 0.60036 0.21365 0.0
C239 C 0.48853 0.58558 0.19436 0.0
C240 C 0.48207 0.55554 0.19717 0.0
C241 C 0.44295 0.57027 0.21665 0.0
C242 C 0.45937 0.54806 0.20856 0.0
C243 C 0.50028 0.53226 0.18901 0.0
C244 C 0.57777 0.43638 0.21903 0.0
C245 C 0.55665 0.41523 0.22415 0.0
C246 C 0.56936 0.46073 0.20898 0.0
C247 C 0.53965 0.46466 0.2041 0.0
C248 C 0.52678 0.41972 0.21939 0.0
C249 C 0.51836 0.44436 0.20966 0.0
C250 C 0.53052 0.48933 0.19282 0.0
C251 C 0.57677 0.42486 0.15631 0.0
C252 C 0.59896 0.43814 0.1464 0.0
C253 C 0.55893 0.44223 0.16695 0.0
C254 C 0.5634 0.47301 0.16799 0.0
C255 C 0.60448 0.46857 0.14829 0.0
C256 C 0.58685 0.48581 0.15894 0.0
C257 C 0.54138 0.49281 0.17599 0.0
H258 H 0.42887 0.56687 0.1397 0.0
H259 H 0.45067 0.54072 0.16421 0.0
H260 H 0.51565 0.59948 0.12621 0.0
H261 H 0.53734 0.57187 0.15018 0.0
H262 H 0.47742 0.63057 0.19958 0.0
H263 H 0.50659 0.5921 0.18614 0.0
H264 H 0.42566 0.56389 0.22545 0.0
H265 H 0.45427 0.52505 0.21115 0.0
H266 H 0.60084 0.43415 0.22271 0.0
H267 H 0.58606 0.47643 0.20496 0.0
H268 H 0.50987 0.40378 0.22268 0.0
H269 H 0.49531 0.44702 0.20595 0.0
H270 H 0.57184 0.4015 0.1549 0.0
H271 H 0.54052 0.43188 0.17341 0.0
H272 H 0.62154 0.4793 0.14083 0.0
H273 H 0.59064 0.5095 0.15947 0.0
N274 N 0.53005 0.51488 0.16607 0.0
N275 N 0.51064 0.50942 0.19881 0.0
C276 C 0.41515 0.94314 0.40225 0.0
C277 C 0.41094 0.95824 0.38653 0.0
C278 C 0.43484 0.95416 0.41482 0.0
C279 C 0.45006 0.98094 0.41213 0.0
C280 C 0.42643 0.98494 0.38402 0.0
C281 C 0.44528 0.99622 0.39666 0.0
C282 C 0.47325 0.99238 0.42414 0.0
C283 C 0.39114 0.98625 0.45574 0.0
C284 C 0.39275 0.96371 0.4682 0.0
C285 C 0.4166 0.99585 0.4474 0.0
C286 C 0.44418 0.98311 0.45133 0.0
C287 C 0.42045 0.95117 0.47225 0.0
C288 C 0.44603 0.96105 0.464 0.0
C289 C 0.47101 0.99297 0.44227 0.0
C290 C 0.55848 0.06467 0.477 0.0
C291 C 0.58827 0.05793 0.4736 0.0
C292 C 0.53558 0.05043 0.46793 0.0
C293 C 0.5421 0.02948 0.45521 0.0
C294 C 0.59455 0.0359 0.46139 0.0
C295 C 0.57173 0.02173 0.45238 0.0
C296 C 0.51822 0.01684 0.44427 0.0
C297 C 0.57728 0.0322 0.3927 0.0
C298 C 0.57832 0.06339 0.39267 0.0
C299 C 0.5595 0.01705 0.40432 0.0
C300 C 0.54313 0.03262 0.41653 0.0
C301 C 0.56318 0.07885 0.4056 0.0
C302 C 0.54578 0.06356 0.41746 0.0
C303 C 0.51988 0.01706 0.4262 0.0
H304 H 0.40367 0.92258 0.40477 0.0
H305 H 0.43872 0.94124 0.42634 0.0
H306 H 0.42504 0.99692 0.37199 0.0
H307 H 0.45685 0.01675 0.39406 0.0
H308 H 0.37007 0.99615 0.45225 0.0
H309 H 0.41475 0.01318 0.43781 0.0
H310 H 0.42235 0.93395 0.48189 0.0
H311 H 0.46718 0.95111 0.46729 0.0
H312 H 0.55288 0.08123 0.48649 0.0
H313 H 0.51284 0.05658 0.47041 0.0
H314 H 0.61718 0.03031 0.45828 0.0
H315 H 0.5773 0.00517 0.44288 0.0
H316 H 0.58928 0.01946 0.38327 0.0
H317 H 0.5577 0.99317 0.4034 0.0
H318 H 0.56324 0.10282 0.40593 0.0
H319 H 0.53294 0.07601 0.42665 0.0
N320 N 0.4976 0.00459 0.41694 0.0
N321 N 0.49373 0.00496 0.45169 0.0
C322 C 0.05941 0.92808 0.64531 0.0
C323 C 0.04514 0.91297 0.63172 0.0
C324 C 0.04293 0.94371 0.65742 0.0
C325 C 0.0119 0.94454 0.65615 0.0
C326 C 0.01396 0.91228 0.63123 0.0
C327 C 0.99755 0.92821 0.6432 0.0
C328 C 0.99492 0.96628 0.66623 0.0
C329 C 0.01482 0.89487 0.7045 0.0
C330 C 0.04139 0.90104 0.71349 0.0
C331 C 0.00038 0.91693 0.69507 0.0
C332 C 0.01174 0.94578 0.69476 0.0
C333 C 0.05241 0.93027 0.71331 0.0
C334 C 0.03747 0.95252 0.70419 0.0
C335 C 0.99687 0.96858 0.68427 0.0
C336 C 0.90926 0.06713 0.69785 0.0
C337 C 0.9251 0.08365 0.71023 0.0
C338 C 0.92266 0.04353 0.68938 0.0
C339 C 0.95235 0.0362 0.69288 0.0
C340 C 0.95448 0.07552 0.7142 0.0
C341 C 0.96792 0.05194 0.70564 0.0
C342 C 0.96716 0.01218 0.68332 0.0
C343 C 0.95501 0.08024 0.64012 0.0
C344 C 0.93266 0.07191 0.62839 0.0
C345 C 0.96418 0.06067 0.65304 0.0
C346 C 0.95149 0.03236 0.65412 0.0
C347 C 0.91879 0.04428 0.63014 0.0
C348 C 0.92845 0.02445 0.64278 0.0
C349 C 0.96512 0.00966 0.66525 0.0
H350 H 0.08334 0.92942 0.64601 0.0
H351 H 0.05453 0.95677 0.66704 0.0
H352 H 0.00219 0.90031 0.6212 0.0
H353 H 0.97364 0.92868 0.64195 0.0
H354 H 0.00509 0.87297 0.70468 0.0
H355 H 0.98027 0.91149 0.68801 0.0
H356 H 0.07297 0.93591 0.7198 0.0
H357 H 0.04652 0.97474 0.70403 0.0
H358 H 0.88668 0.07284 0.6944 0.0
H359 H 0.90981 0.03111 0.68 0.0
H360 H 0.96713 0.08743 0.72389 0.0
H361 H 0.99071 0.04642 0.70873 0.0
H362 H 0.96614 0.10137 0.63883 0.0
H363 H 0.98231 0.06693 0.66153 0.0
H364 H 0.90181 0.03732 0.62104 0.0
H365 H 0.91869 0.00255 0.64333 0.0
N366 N 0.97903 0.98685 0.65742 0.0
N367 N 0.98303 0.99147 0.69222 0.0
Mn368 Mn 0.33355 0.6746 0.0065 0.0
Mn369 Mn 0.34449 0.60064 0.00724 0.0
C370 C 0.35327 0.65186 0.03076 0.0
C371 C 0.34893 0.72306 0.00146 0.0
C372 C 0.28393 0.62856 0.00994 0.0
O373 O 0.33345 0.66401 0.98097 0.0
O374 O 0.34091 0.6146 0.98312 0.0
C375 C 0.40397 0.59912 0.99169 0.0
N376 N 0.38578 0.59254 0.005 0.0
C377 C 0.42548 0.56875 0.0206 0.0
C378 C 0.4446 0.57514 0.00702 0.0
C379 C 0.43381 0.59044 0.99252 0.0
C380 C 0.39593 0.57784 0.01901 0.0
H381 H 0.39578 0.61094 0.98054 0.0
C382 C 0.33667 0.6383 0.97438 0.0
O383 O 0.32109 0.71597 0.00163 0.0
O384 O 0.36791 0.70175 0.00357 0.0
N385 N 0.3486 0.58445 0.02987 0.0
C386 C 0.32774 0.58168 0.04228 0.0
C387 C 0.33511 0.56737 0.05777 0.0
C388 C 0.36378 0.55599 0.06031 0.0
C389 C 0.38493 0.55932 0.04741 0.0
C390 C 0.37621 0.57346 0.03216 0.0
H391 H 0.30565 0.59031 0.04033 0.0
O392 O 0.33948 0.67696 0.03209 0.0
O393 O 0.35421 0.64058 0.01542 0.0
O394 O 0.29287 0.65528 0.00912 0.0
O395 O 0.30143 0.60638 0.00974 0.0
C396 C 0.41442 0.54951 0.04918 0.0
C397 C 0.4347 0.55428 0.0358 0.0
H398 H 0.46767 0.56863 0.00765 0.0
H399 H 0.44846 0.59557 0.98202 0.0
H400 H 0.31874 0.56506 0.06773 0.0
H401 H 0.36939 0.54486 0.07224 0.0
H402 H 0.42184 0.53865 0.06087 0.0
H403 H 0.45742 0.54703 0.03741 0.0
Mn404 Mn 0.32587 0.83932 0.25757 0.0
Mn405 Mn 0.39935 0.85017 0.26058 0.0
C406 C 0.34843 0.8487 0.28417 0.0
C407 C 0.27853 0.85874 0.25425 0.0
C408 C 0.37134 0.78985 0.25428 0.0
O409 O 0.33717 0.84882 0.23274 0.0
O410 O 0.38551 0.85963 0.23695 0.0
C411 C 0.39982 0.91532 0.25629 0.0
N412 N 0.40668 0.8909 0.26581 0.0
C413 C 0.42829 0.92083 0.28827 0.0
C414 C 0.4216 0.94629 0.27868 0.0
C415 C 0.40722 0.94352 0.26264 0.0
C416 C 0.42017 0.89334 0.28134 0.0
H417 H 0.38866 0.91329 0.24399 0.0
C418 C 0.36231 0.85772 0.22735 0.0
O419 O 0.28383 0.83114 0.25072 0.0
O420 O 0.30075 0.87509 0.25895 0.0
N421 N 0.41519 0.84213 0.283 0.0
C422 C 0.41943 0.81543 0.29079 0.0
C423 C 0.43429 0.8142 0.30673 0.0
C424 C 0.4447 0.8404 0.31443 0.0
C425 C 0.43963 0.86768 0.30631 0.0
C426 C 0.42508 0.86747 0.29033 0.0
H427 H 0.41189 0.79517 0.2848 0.0
O428 O 0.32304 0.83526 0.28336 0.0
O429 O 0.35971 0.85498 0.26941 0.0
O430 O 0.34449 0.79832 0.25537 0.0
O431 O 0.39343 0.80751 0.25562 0.0
C432 C 0.44852 0.89506 0.3134 0.0
C433 C 0.44255 0.92163 0.30448 0.0
H434 H 0.4273 0.96808 0.28352 0.0
H435 H 0.40186 0.96307 0.25519 0.0
H436 H 0.43795 0.7931 0.31299 0.0
H437 H 0.45642 0.83929 0.32664 0.0
H438 H 0.45978 0.89595 0.32576 0.0
H439 H 0.44914 0.94256 0.31016 0.0
Mn440 Mn 0.16653 0.8349 0.49183 0.0
Mn441 Mn 0.0923 0.83384 0.48763 0.0
C442 C 0.14491 0.83684 0.46469 0.0
C443 C 0.20907 0.86338 0.4961 0.0
C444 C 0.12934 0.77953 0.49666 0.0
O445 O 0.15209 0.84344 0.51612 0.0
O446 O 0.10329 0.84935 0.51071 0.0
C447 C 0.08022 0.89822 0.48816 0.0
N448 N 0.07837 0.87159 0.48 0.0
C449 C 0.05116 0.89305 0.45633 0.0
C450 C 0.05256 0.92067 0.46454 0.0
C451 C 0.06733 0.9233 0.48048 0.0
C452 C 0.06469 0.86893 0.46452 0.0
H453 H 0.09139 0.90026 0.50046 0.0
C454 C 0.12594 0.85031 0.52079 0.0
O455 O 0.20905 0.83521 0.49957 0.0
O456 O 0.18451 0.8748 0.49052 0.0
N457 N 0.07855 0.81935 0.46583 0.0
C458 C 0.07838 0.79097 0.45986 0.0
C459 C 0.0645 0.78456 0.44403 0.0
C460 C 0.05056 0.80728 0.43464 0.0
C461 C 0.05042 0.83618 0.44123 0.0
C462 C 0.06456 0.84123 0.45709 0.0
H463 H 0.08873 0.77333 0.46711 0.0
O464 O 0.17249 0.82944 0.4665 0.0
O465 O 0.13126 0.84343 0.47875 0.0
O466 O 0.15486 0.79123 0.49466 0.0
O467 O 0.10507 0.79395 0.49509 0.0
C468 C 0.03666 0.86013 0.43274 0.0
C469 C 0.03696 0.88852 0.4403 0.0
H470 H 0.04255 0.94005 0.45869 0.0
H471 H 0.06863 0.94457 0.48685 0.0
H472 H 0.0645 0.76215 0.43911 0.0
H473 H 0.03994 0.80226 0.42242 0.0
H474 H 0.02573 0.85696 0.4204 0.0
H475 H 0.02629 0.90677 0.43365 0.0
Mn476 Mn 0.17375 0.67662 0.74537 0.0
Mn477 Mn 0.17451 0.60216 0.74245 0.0
C478 C 0.17525 0.65416 0.71865 0.0
C479 C 0.14773 0.72081 0.74737 0.0
C480 C 0.22801 0.63885 0.75323 0.0
O481 O 0.16081 0.66319 0.76917 0.0
O482 O 0.15689 0.61399 0.76472 0.0
C483 C 0.11008 0.59032 0.74075 0.0
N484 N 0.1374 0.58815 0.73365 0.0
C485 C 0.11822 0.55913 0.71008 0.0
C486 C 0.08988 0.56089 0.7172 0.0
C487 C 0.08576 0.57675 0.73253 0.0
C488 C 0.14148 0.57352 0.7187 0.0
H489 H 0.10691 0.6022 0.75264 0.0
C490 C 0.15389 0.63713 0.7741 0.0
O491 O 0.17488 0.71872 0.75291 0.0
O492 O 0.13545 0.69705 0.74117 0.0
N493 N 0.19088 0.58756 0.72151 0.0
C494 C 0.21975 0.58721 0.7166 0.0
C495 C 0.22756 0.57258 0.70137 0.0
C496 C 0.20572 0.55801 0.69153 0.0
C497 C 0.17629 0.55804 0.69707 0.0
C498 C 0.16981 0.5731 0.71231 0.0
H499 H 0.23673 0.598 0.72421 0.0
O500 O 0.18346 0.68153 0.72047 0.0
O501 O 0.16604 0.64104 0.73244 0.0
O502 O 0.21621 0.66415 0.75086 0.0
O503 O 0.21397 0.61448 0.75118 0.0
C504 C 0.15323 0.54334 0.68819 0.0
C505 C 0.12427 0.54369 0.69477 0.0
H506 H 0.07111 0.55029 0.71095 0.0
H507 H 0.06395 0.5783 0.73806 0.0
H508 H 0.25037 0.57244 0.69727 0.0
H509 H 0.21183 0.54672 0.67981 0.0
H510 H 0.15755 0.53157 0.67635 0.0
H511 H 0.10674 0.53223 0.68785 0.0
Mn512 Mn 0.83425 0.18207 0.49862 0.0
Mn513 Mn 0.84432 0.10798 0.49816 0.0
C514 C 0.85077 0.15766 0.52305 0.0
C515 C 0.85201 0.22996 0.49493 0.0
C516 C 0.78392 0.13642 0.50075 0.0
O517 O 0.83518 0.1731 0.4729 0.0
O518 O 0.84173 0.12359 0.47438 0.0
C519 C 0.90458 0.10825 0.48359 0.0
N520 N 0.88578 0.10034 0.49636 0.0
C521 C 0.92506 0.07615 0.5121 0.0
C522 C 0.94481 0.08389 0.49907 0.0
C523 C 0.93452 0.10006 0.48476 0.0
C524 C 0.89547 0.08493 0.51021 0.0
H525 H 0.89679 0.12076 0.4726 0.0
C526 C 0.8382 0.14769 0.46595 0.0
O527 O 0.82379 0.22446 0.49465 0.0
O528 O 0.86984 0.20769 0.49674 0.0
N529 N 0.84737 0.08964 0.52026 0.0
C530 C 0.82551 0.08417 0.53175 0.0
C531 C 0.83203 0.06786 0.54668 0.0
C532 C 0.86093 0.05739 0.54965 0.0
C533 C 0.883 0.06311 0.53759 0.0
C534 C 0.87505 0.07896 0.52278 0.0
H535 H 0.80323 0.09205 0.52949 0.0
O536 O 0.83802 0.18327 0.52426 0.0
O537 O 0.85353 0.14713 0.5076 0.0
O538 O 0.79297 0.16322 0.50019 0.0
O539 O 0.80129 0.1141 0.50036 0.0
C540 C 0.91258 0.05375 0.53968 0.0
C541 C 0.93363 0.06039 0.52698 0.0
H542 H 0.96794 0.07767 0.49995 0.0
H543 H 0.94965 0.10622 0.47468 0.0
H544 H 0.81481 0.06338 0.55588 0.0
H545 H 0.86594 0.04495 0.56123 0.0
H546 H 0.91942 0.04164 0.55107 0.0
H547 H 0.95636 0.05332 0.52881 0.0
Mn548 Mn 0.82731 0.33261 0.76001 0.0
Mn549 Mn 0.90195 0.33561 0.76226 0.0
C550 C 0.85117 0.33207 0.78643 0.0
C551 C 0.78122 0.35554 0.75846 0.0
C552 C 0.86806 0.27998 0.75284 0.0
O553 O 0.83841 0.34692 0.73611 0.0
O554 O 0.88801 0.34992 0.73939 0.0
C555 C 0.90945 0.4007 0.76121 0.0
N556 N 0.91385 0.37437 0.76937 0.0
C557 C 0.94302 0.39771 0.79163 0.0
C558 C 0.93888 0.4251 0.78344 0.0
C559 C 0.92183 0.42662 0.76824 0.0
C560 C 0.92957 0.37277 0.78424 0.0
H561 H 0.89672 0.40186 0.74938 0.0
C562 C 0.86416 0.35284 0.73046 0.0
O563 O 0.78503 0.32862 0.75306 0.0
O564 O 0.80441 0.36943 0.76431 0.0
N565 N 0.91874 0.32241 0.78362 0.0
C566 C 0.92146 0.29416 0.78961 0.0
C567 C 0.93742 0.28888 0.80492 0.0
C568 C 0.95099 0.31257 0.81368 0.0
C569 C 0.94869 0.3413 0.80696 0.0
C570 C 0.93224 0.34526 0.79176 0.0
H571 H 0.91146 0.27579 0.78281 0.0
O572 O 0.82433 0.32209 0.78487 0.0
O573 O 0.8631 0.34245 0.77255 0.0
O574 O 0.84224 0.29098 0.75439 0.0
O575 O 0.89181 0.29482 0.75526 0.0
C576 C 0.96263 0.36605 0.81455 0.0
C577 C 0.96008 0.39416 0.80677 0.0
H578 H 0.94866 0.44508 0.78873 0.0
H579 H 0.9185 0.44767 0.76186 0.0
H580 H 0.93937 0.26658 0.8099 0.0
H581 H 0.96339 0.30839 0.82543 0.0
H582 H 0.97556 0.36367 0.82629 0.0
H583 H 0.971 0.41301 0.81269 0.0
Mn584 Mn 0.68246 0.33702 0.00295 0.0
Mn585 Mn 0.6098 0.35269 0.00357 0.0
C586 C 0.6579 0.35113 0.9778 0.0
C587 C 0.7315 0.35257 0.00576 0.0
C588 C 0.63473 0.29034 0.00677 0.0
O589 O 0.67399 0.34336 0.02854 0.0
O590 O 0.62733 0.3614 0.02655 0.0
C591 C 0.61266 0.41783 0.00777 0.0
N592 N 0.60328 0.39371 0.99872 0.0
C593 C 0.57943 0.42452 0.97744 0.0
C594 C 0.58845 0.44968 0.98669 0.0
C595 C 0.60526 0.44631 0.00188 0.0
C596 C 0.58747 0.39672 0.98396 0.0
H597 H 0.626 0.41535 0.01926 0.0
C598 C 0.65106 0.35539 0.03508 0.0
O599 O 0.72418 0.32499 0.00785 0.0
O600 O 0.7102 0.37117 0.00272 0.0
N601 N 0.59084 0.34544 0.98183 0.0
C602 C 0.58516 0.31902 0.97398 0.0
C603 C 0.56853 0.31847 0.95863 0.0
C604 C 0.5579 0.34503 0.95151 0.0
C605 C 0.56446 0.37201 0.95965 0.0
C606 C 0.58066 0.37113 0.97509 0.0
H607 H 0.59293 0.29847 0.97947 0.0
O608 O 0.68267 0.33666 0.97702 0.0
O609 O 0.64857 0.35622 0.99318 0.0
O610 O 0.66149 0.29714 0.00358 0.0
O611 O 0.61412 0.30959 0.00818 0.0
C612 C 0.55565 0.39971 0.95301 0.0
C613 C 0.56332 0.42596 0.96184 0.0
H614 H 0.58292 0.47168 0.98214 0.0
H615 H 0.61262 0.46562 0.00899 0.0
H616 H 0.56373 0.29759 0.95235 0.0
H617 H 0.54484 0.34444 0.93975 0.0
H618 H 0.54327 0.40109 0.94102 0.0
H619 H 0.55684 0.44715 0.95646 0.0
Mn620 Mn 0.6554 0.1752 0.24987 0.0
Mn621 Mn 0.65058 0.10101 0.24694 0.0
C622 C 0.64322 0.1529 0.22378 0.0
C623 C 0.63375 0.2209 0.25517 0.0
C624 C 0.70883 0.13439 0.25023 0.0
O625 O 0.65209 0.16204 0.27504 0.0
O626 O 0.6429 0.11338 0.27088 0.0
C627 C 0.58669 0.09304 0.25371 0.0
N628 N 0.61035 0.08921 0.24325 0.0
C629 C 0.58031 0.06389 0.22212 0.0
C630 C 0.55564 0.06745 0.23269 0.0
C631 C 0.55883 0.08214 0.24854 0.0
C632 C 0.60748 0.07529 0.22793 0.0
H633 H 0.58904 0.10441 0.26586 0.0
C634 C 0.64512 0.13626 0.28057 0.0
O635 O 0.66222 0.21732 0.2563 0.0
O636 O 0.61777 0.1978 0.25156 0.0
N637 N 0.65727 0.08656 0.2242 0.0
C638 C 0.68308 0.0857 0.21532 0.0
C639 C 0.68387 0.07114 0.19939 0.0
C640 C 0.65815 0.05764 0.19277 0.0
C641 C 0.63168 0.05938 0.20195 0.0
C642 C 0.6324 0.07363 0.21792 0.0
H643 H 0.70305 0.09565 0.22046 0.0
O644 O 0.65393 0.17956 0.2241 0.0
O645 O 0.64027 0.14042 0.23865 0.0
O646 O 0.69795 0.16032 0.24907 0.0
O647 O 0.69299 0.11093 0.25034 0.0
C648 C 0.60467 0.04742 0.19591 0.0
C649 C 0.57895 0.04986 0.20594 0.0
H650 H 0.5341 0.05913 0.22874 0.0
H651 H 0.53987 0.08508 0.25674 0.0
H652 H 0.70432 0.07008 0.1923 0.0
H653 H 0.659 0.04596 0.18063 0.0
H654 H 0.60339 0.0365 0.18352 0.0
H655 H 0.55823 0.04089 0.20108 0.0
H656 H 0.14803 0.94722 0.29745 0.0
H657 H 0.09377 0.92953 0.25204 0.0
H658 H 0.1347 0.90062 0.23975 0.0
H659 H 0.21506 0.95996 0.27413 0.0
H660 H 0.23821 0.9439 0.29071 0.0
H661 H 0.20384 0.96142 0.29628 0.0
H662 H 0.18692 0.91324 0.31144 0.0
H663 H 0.22116 0.89551 0.30582 0.0
H664 H 0.18634 0.87892 0.2996 0.0
H665 H 0.18194 0.87153 0.233 0.0
H666 H 0.23259 0.85014 0.23125 0.0
H667 H 0.25643 0.89323 0.27922 0.0
C668 C 0.14462 0.93788 0.28478 0.0
C669 C 0.11729 0.94078 0.27585 0.0
C670 C 0.11408 0.92725 0.25944 0.0
C671 C 0.13733 0.9109 0.25225 0.0
C672 C 0.16389 0.90866 0.26145 0.0
C673 C 0.16771 0.92223 0.27724 0.0
C674 C 0.1987 0.91775 0.28429 0.0
C675 C 0.2149 0.94753 0.28647 0.0
C676 C 0.19824 0.90032 0.30129 0.0
C677 C 0.21183 0.89956 0.26999 0.0
C678 C 0.19136 0.89396 0.25705 0.0
C679 C 0.19825 0.87616 0.24295 0.0
C680 C 0.22691 0.86407 0.24206 0.0
C681 C 0.24827 0.87058 0.25495 0.0
C682 C 0.24057 0.8885 0.26902 0.0
H683 H 0.04801 0.63648 0.53239 0.0
H684 H 0.12956 0.58726 0.52545 0.0
H685 H 0.15333 0.63229 0.51391 0.0
H686 H 0.05323 0.67989 0.49324 0.0
H687 H 0.03752 0.71235 0.50305 0.0
H688 H 0.0272 0.67606 0.51049 0.0
H689 H 0.04318 0.69055 0.54151 0.0
H690 H 0.05372 0.7268 0.53415 0.0
H691 H 0.08025 0.70398 0.54547 0.0
H692 H 0.1686 0.68406 0.50406 0.0
H693 H 0.17312 0.73688 0.49588 0.0
H694 H 0.0806 0.75024 0.50833 0.0
C695 C 0.07069 0.63484 0.52813 0.0
C696 C 0.08683 0.60818 0.52983 0.0
C697 C 0.11676 0.60746 0.52449 0.0
C698 C 0.13043 0.6329 0.51782 0.0
C699 C 0.11383 0.65884 0.51646 0.0
C700 C 0.08454 0.65984 0.52136 0.0
C701 C 0.07149 0.69035 0.5188 0.0
C702 C 0.04585 0.68961 0.50561 0.0
C703 C 0.06159 0.7037 0.536 0.0
C704 C 0.09806 0.70651 0.51179 0.0
C705 C 0.12236 0.68811 0.51056 0.0
C706 C 0.14962 0.69859 0.50486 0.0
C707 C 0.15201 0.72864 0.50029 0.0
C708 C 0.12721 0.74776 0.50135 0.0
C709 C 0.09997 0.73629 0.50717 0.0
H710 H 0.37684 0.56018 0.7843 0.0
H711 H 0.41948 0.64637 0.78409 0.0
H712 H 0.37271 0.66908 0.77374 0.0
H713 H 0.33229 0.57121 0.74553 0.0
H714 H 0.30128 0.55089 0.75392 0.0
H715 H 0.33839 0.54166 0.76075 0.0
H716 H 0.32342 0.54901 0.79254 0.0
H717 H 0.28635 0.55849 0.78582 0.0
H718 H 0.30745 0.58375 0.7991 0.0
H719 H 0.32043 0.68234 0.76441 0.0
H720 H 0.26755 0.685 0.75611 0.0
H721 H 0.26034 0.58958 0.76195 0.0
C722 C 0.37665 0.58374 0.78173 0.0
C723 C 0.40193 0.60147 0.78491 0.0
C724 C 0.40035 0.63237 0.78185 0.0
C725 C 0.37393 0.64543 0.7759 0.0
C726 C 0.34939 0.62726 0.77306 0.0
C727 C 0.35062 0.59705 0.77577 0.0
C728 C 0.32107 0.58243 0.77212 0.0
C729 C 0.32341 0.56024 0.75719 0.0
C730 C 0.30886 0.56755 0.78836 0.0
C731 C 0.30288 0.60916 0.76703 0.0
C732 C 0.31953 0.63482 0.76764 0.0
C733 C 0.30723 0.66235 0.7638 0.0
C734 C 0.27713 0.66363 0.75914 0.0
C735 C 0.25969 0.6375 0.75835 0.0
C736 C 0.27294 0.60998 0.76236 0.0
H737 H 0.45746 0.85566 0.0235 0.0
H738 H 0.3809 0.91361 0.02034 0.0
H739 H 0.35142 0.87278 0.00786 0.0
H740 H 0.44078 0.81039 0.98465 0.0
H741 H 0.45336 0.77685 0.99495 0.0
H742 H 0.46983 0.8119 0.00073 0.0
H743 H 0.45724 0.80252 0.0327 0.0
H744 H 0.44079 0.76755 0.02703 0.0
H745 H 0.41947 0.79475 0.03847 0.0
H746 H 0.32855 0.82423 0.99943 0.0
H747 H 0.31399 0.77179 0.99626 0.0
H748 H 0.40502 0.74513 0.00579 0.0
C749 C 0.43459 0.85995 0.01999 0.0
C750 C 0.4216 0.88799 0.02288 0.0
C751 C 0.39161 0.89258 0.01798 0.0
C752 C 0.37462 0.86945 0.01093 0.0
C753 C 0.38793 0.84189 0.00875 0.0
C754 C 0.41729 0.83709 0.01308 0.0
C755 C 0.42555 0.80477 0.01112 0.0
C756 C 0.44876 0.80075 0.99702 0.0
C757 C 0.43638 0.79164 0.02835 0.0
C758 C 0.39594 0.79191 0.00565 0.0
C759 C 0.37465 0.81375 0.00406 0.0
C760 C 0.34514 0.807 0.00036 0.0
C761 C 0.33707 0.77713 0.99861 0.0
C762 C 0.3584 0.75439 0.00069 0.0
C763 C 0.3883 0.76202 0.00386 0.0
H764 H 0.1445 0.53635 0.97915 0.0
H765 H 0.09443 0.61829 0.97957 0.0
H766 H 0.1361 0.64321 0.99461 0.0
H767 H 0.18378 0.54699 0.0209 0.0
H768 H 0.21743 0.53097 0.01285 0.0
H769 H 0.18204 0.51867 0.00458 0.0
H770 H 0.1986 0.53091 0.97357 0.0
H771 H 0.23395 0.54311 0.98172 0.0
H772 H 0.21163 0.56769 0.96872 0.0
H773 H 0.18569 0.66056 0.00604 0.0
H774 H 0.23866 0.66899 0.01253 0.0
H775 H 0.25598 0.57545 0.00451 0.0
C776 C 0.14212 0.55946 0.98259 0.0
C777 C 0.11622 0.5754 0.97817 0.0
C778 C 0.11392 0.60555 0.98301 0.0
C779 C 0.13749 0.61988 0.99154 0.0
C780 C 0.16303 0.60365 0.9953 0.0
C781 C 0.16536 0.57403 0.99107 0.0
C782 C 0.19596 0.56213 0.99514 0.0
C783 C 0.19472 0.53828 0.00921 0.0
C784 C 0.2109 0.55029 0.97882 0.0
C785 C 0.21093 0.58996 0.00169 0.0
C786 C 0.1915 0.6136 0.00194 0.0
C787 C 0.20096 0.6421 0.00619 0.0
C788 C 0.23114 0.64667 0.00984 0.0
C789 C 0.25158 0.62287 0.00912 0.0
C790 C 0.24099 0.59406 0.00546 0.0
H791 H 0.47046 0.65244 0.22713 0.0
H792 H 0.38922 0.60265 0.21905 0.0
H793 H 0.36057 0.64431 0.23102 0.0
H794 H 0.44877 0.69019 0.26678 0.0
H795 H 0.46686 0.72418 0.26078 0.0
H796 H 0.48109 0.68919 0.2534 0.0
H797 H 0.47725 0.70751 0.22187 0.0
H798 H 0.46301 0.74248 0.22913 0.0
H799 H 0.44223 0.72088 0.21366 0.0
H800 H 0.34055 0.6932 0.24152 0.0
H801 H 0.33073 0.74503 0.2497 0.0
H802 H 0.4253 0.76284 0.25022 0.0
C803 C 0.44665 0.65017 0.22795 0.0
C804 C 0.43209 0.62424 0.22213 0.0
C805 C 0.40092 0.6221 0.22363 0.0
C806 C 0.38445 0.6457 0.23035 0.0
C807 C 0.3995 0.67119 0.23559 0.0
C808 C 0.42993 0.67347 0.23454 0.0
C809 C 0.44069 0.7038 0.24006 0.0
C810 C 0.46052 0.7017 0.25622 0.0
C811 C 0.45673 0.71959 0.2253 0.0
C812 C 0.41149 0.71854 0.24399 0.0
C813 C 0.388 0.69931 0.24151 0.0
C814 C 0.3588 0.70836 0.24366 0.0
C815 C 0.35346 0.7379 0.24829 0.0
C816 C 0.37722 0.75815 0.25063 0.0
C817 C 0.40659 0.74802 0.24863 0.0
H818 H 0.37451 0.90635 0.47335 0.0
H819 H 0.34896 0.99773 0.48182 0.0
H820 H 0.30123 0.98099 0.49351 0.0
H821 H 0.30597 0.88199 0.45859 0.0
H822 H 0.30748 0.84602 0.46861 0.0
H823 H 0.34122 0.86479 0.46315 0.0
H824 H 0.35957 0.86057 0.49474 0.0
H825 H 0.32581 0.84172 0.50032 0.0
H826 H 0.33687 0.87469 0.51179 0.0
H827 H 0.25455 0.9553 0.50075 0.0
H828 H 0.2114 0.9221 0.50307 0.0
H829 H 0.26677 0.84677 0.49082 0.0
C830 C 0.35917 0.92275 0.47812 0.0
C831 C 0.36542 0.95335 0.47674 0.0
C832 C 0.34451 0.97421 0.48268 0.0
C833 C 0.31746 0.9649 0.48946 0.0
C834 C 0.31169 0.93463 0.49031 0.0
C835 C 0.33195 0.9138 0.48489 0.0
C836 C 0.31913 0.88278 0.48584 0.0
C837 C 0.3184 0.86804 0.46799 0.0
C838 C 0.33638 0.86382 0.49895 0.0
C839 C 0.28817 0.88953 0.49209 0.0
C840 C 0.28454 0.91959 0.49476 0.0
C841 C 0.25726 0.93167 0.49905 0.0
C842 C 0.23288 0.91267 0.50031 0.0
C843 C 0.23593 0.8819 0.49737 0.0
C844 C 0.26407 0.8701 0.4936 0.0
H845 H 0.04558 0.84253 0.70393 0.0
H846 H 0.07513 0.90445 0.74335 0.0
H847 H 0.10444 0.86467 0.75705 0.0
H848 H 0.03708 0.77966 0.73301 0.0
H849 H 0.04905 0.75344 0.71707 0.0
H850 H 0.03034 0.78688 0.71051 0.0
H851 H 0.07437 0.80021 0.69086 0.0
H852 H 0.09323 0.76691 0.69739 0.0
H853 H 0.1112 0.80231 0.69999 0.0
H854 H 0.13357 0.81858 0.76514 0.0
H855 H 0.15739 0.76932 0.76784 0.0
H856 H 0.1043 0.73726 0.7249 0.0
C857 C 0.05756 0.8478 0.71566 0.0
C858 C 0.05795 0.87687 0.72245 0.0
C859 C 0.07479 0.88261 0.73762 0.0
C860 C 0.09133 0.86006 0.74563 0.0
C861 C 0.09042 0.83176 0.7385 0.0
C862 C 0.07363 0.82553 0.72399 0.0
C863 C 0.07643 0.7934 0.71878 0.0
C864 C 0.04644 0.7774 0.71992 0.0
C865 C 0.0896 0.79056 0.70069 0.0
C866 C 0.09784 0.78257 0.73246 0.0
C867 C 0.10585 0.80502 0.74368 0.0
C868 C 0.12705 0.80071 0.75663 0.0
C869 C 0.14048 0.77275 0.75805 0.0
C870 C 0.13227 0.7495 0.74676 0.0
C871 C 0.11045 0.75447 0.73397 0.0
H872 H 0.66067 0.46838 0.79299 0.0
H873 H 0.59359 0.40716 0.77433 0.0
H874 H 0.63241 0.37683 0.76074 0.0
H875 H 0.71047 0.46297 0.75575 0.0
H876 H 0.74334 0.46469 0.76909 0.0
H877 H 0.71003 0.48322 0.77572 0.0
H878 H 0.71162 0.45455 0.80459 0.0
H879 H 0.74485 0.43595 0.79805 0.0
H880 H 0.71298 0.41464 0.80433 0.0
H881 H 0.67862 0.35134 0.75111 0.0
H882 H 0.72898 0.33155 0.74697 0.0
H883 H 0.76601 0.40926 0.77212 0.0
C884 C 0.65415 0.44896 0.78569 0.0
C885 C 0.62418 0.44016 0.78458 0.0
C886 C 0.61648 0.4142 0.77534 0.0
C887 C 0.63833 0.39697 0.7675 0.0
C888 C 0.66774 0.40603 0.76904 0.0
C889 C 0.67569 0.43141 0.77791 0.0
C890 C 0.70902 0.43502 0.77879 0.0
C891 C 0.71878 0.46315 0.76927 0.0
C892 C 0.72026 0.43503 0.79755 0.0
C893 C 0.71859 0.40737 0.76936 0.0
C894 C 0.69444 0.39114 0.76365 0.0
C895 C 0.69771 0.36401 0.75535 0.0
C896 C 0.7264 0.35294 0.75307 0.0
C897 C 0.75141 0.36891 0.75916 0.0
C898 C 0.74735 0.39669 0.76715 0.0
H899 H 0.53721 0.15147 0.03553 0.0
H900 H 0.61096 0.09556 0.02105 0.0
H901 H 0.63798 0.13956 0.01078 0.0
H902 H 0.54285 0.20361 0.99932 0.0
H903 H 0.53322 0.2351 0.01235 0.0
H904 H 0.5189 0.19895 0.0175 0.0
H905 H 0.5407 0.20363 0.04836 0.0
H906 H 0.55525 0.23965 0.04327 0.0
H907 H 0.57966 0.21111 0.05127 0.0
H908 H 0.65822 0.18967 0.00385 0.0
H909 H 0.66997 0.24249 0.99992 0.0
H910 H 0.58268 0.26604 0.01843 0.0
C911 C 0.55877 0.14841 0.02985 0.0
C912 C 0.57199 0.12007 0.02908 0.0
C913 C 0.60052 0.11709 0.02191 0.0
C914 C 0.61597 0.14192 0.01596 0.0
C915 C 0.60254 0.16958 0.01721 0.0
C916 C 0.57452 0.17298 0.02386 0.0
C917 C 0.56565 0.20534 0.02436 0.0
C918 C 0.53855 0.21108 0.01268 0.0
C919 C 0.55999 0.21552 0.04292 0.0
C920 C 0.59325 0.21961 0.0172 0.0
C921 C 0.6142 0.19856 0.01311 0.0
C922 C 0.6419 0.20636 0.00686 0.0
C923 C 0.64838 0.23648 0.00474 0.0
C924 C 0.62726 0.25854 0.00883 0.0
C925 C 0.59927 0.24981 0.01506 0.0
H926 H 0.85826 0.05202 0.27617 0.0
H927 H 0.90431 0.13557 0.26951 0.0
H928 H 0.85763 0.1586 0.25929 0.0
H929 H 0.8091 0.05891 0.23843 0.0
H930 H 0.77852 0.04174 0.24929 0.0
H931 H 0.81599 0.03162 0.25491 0.0
H932 H 0.80599 0.04478 0.28676 0.0
H933 H 0.7686 0.05508 0.28125 0.0
H934 H 0.79258 0.08121 0.29206 0.0
H935 H 0.80503 0.17307 0.25165 0.0
H936 H 0.7511 0.17781 0.24693 0.0
H937 H 0.74037 0.08414 0.258 0.0
C938 C 0.8588 0.07497 0.27215 0.0
C939 C 0.88503 0.09194 0.27354 0.0
C940 C 0.88445 0.12217 0.26864 0.0
C941 C 0.8581 0.13538 0.26273 0.0
C942 C 0.8326 0.11802 0.26171 0.0
C943 C 0.83282 0.08842 0.26619 0.0
C944 C 0.80224 0.07489 0.26472 0.0
C945 C 0.80142 0.05034 0.25102 0.0
C946 C 0.79175 0.06333 0.28224 0.0
C947 C 0.7846 0.10163 0.25898 0.0
C948 C 0.80248 0.12628 0.25724 0.0
C949 C 0.79087 0.15385 0.2528 0.0
C950 C 0.76017 0.15631 0.25019 0.0
C951 C 0.7414 0.13134 0.25204 0.0
C952 C 0.75402 0.10363 0.25632 0.0
H953 H 0.89817 0.37494 0.54517 0.0
H954 H 0.95935 0.39398 0.50415 0.0
H955 H 0.93837 0.3524 0.48711 0.0
H956 H 0.9008 0.29835 0.54286 0.0
H957 H 0.86206 0.29224 0.54692 0.0
H958 H 0.88 0.32505 0.55501 0.0
H959 H 0.84097 0.35769 0.53934 0.0
H960 H 0.82285 0.3249 0.53119 0.0
H961 H 0.83495 0.35323 0.51653 0.0
H962 H 0.91623 0.30409 0.47691 0.0
H963 H 0.89119 0.25555 0.4731 0.0
H964 H 0.84089 0.27105 0.51925 0.0
C965 C 0.90664 0.37062 0.53244 0.0
C966 C 0.93023 0.38749 0.52586 0.0
C967 C 0.94107 0.38132 0.50926 0.0
C968 C 0.92932 0.35779 0.49954 0.0
C969 C 0.90632 0.34118 0.50649 0.0
C970 C 0.8947 0.34768 0.52243 0.0
C971 C 0.87075 0.32583 0.52725 0.0
C972 C 0.87891 0.3094 0.544 0.0
C973 C 0.84059 0.34135 0.52866 0.0
C974 C 0.87146 0.30534 0.51186 0.0
C975 C 0.89218 0.3145 0.50002 0.0
C976 C 0.89927 0.2972 0.48578 0.0
C977 C 0.88502 0.26976 0.48369 0.0
C978 C 0.86355 0.26033 0.49557 0.0
C979 C 0.85637 0.27852 0.50963 0.0
H980 H 0.64172 0.03659 0.48533 0.0
H981 H 0.59098 0.11769 0.4799 0.0
H982 H 0.63427 0.14651 0.49002 0.0
H983 H 0.68749 0.05971 0.52308 0.0
H984 H 0.71986 0.04137 0.51494 0.0
H985 H 0.68352 0.02686 0.51008 0.0
H986 H 0.69478 0.02935 0.4775 0.0
H987 H 0.73103 0.04391 0.48224 0.0
H988 H 0.70619 0.06406 0.46822 0.0
H989 H 0.68499 0.16694 0.49698 0.0
H990 H 0.73848 0.17709 0.50033 0.0
H991 H 0.75595 0.0825 0.50064 0.0
C992 C 0.63952 0.06037 0.48653 0.0
C993 C 0.61287 0.07483 0.48187 0.0
C994 C 0.61095 0.10601 0.48368 0.0
C995 C 0.63549 0.12261 0.48935 0.0
C996 C 0.66171 0.10769 0.4933 0.0
C997 C 0.66378 0.07722 0.49209 0.0
C998 C 0.69508 0.0667 0.49558 0.0
C999 C 0.69656 0.04753 0.51189 0.0
C1000 C 0.70749 0.05004 0.47995 0.0
C1001 C 0.71056 0.09607 0.4983 0.0
C1002 C 0.69092 0.11945 0.49719 0.0
C1003 C 0.7005 0.14877 0.49814 0.0
C1004 C 0.73098 0.15432 0.50002 0.0
C1005 C 0.75156 0.13063 0.50079 0.0
C1006 C 0.74093 0.10117 0.50025 0.0
H1007 H 0.95105 0.13721 0.71753 0.0
H1008 H 0.86784 0.08955 0.72136 0.0
H1009 H 0.84425 0.13431 0.73323 0.0
H1010 H 0.94343 0.17934 0.75731 0.0
H1011 H 0.96042 0.21197 0.74842 0.0
H1012 H 0.97083 0.17584 0.74076 0.0
H1013 H 0.95766 0.1918 0.70958 0.0
H1014 H 0.94705 0.22789 0.71715 0.0
H1015 H 0.92115 0.2059 0.70479 0.0
H1016 H 0.82922 0.18514 0.74337 0.0
H1017 H 0.82437 0.23756 0.75196 0.0
H1018 H 0.918 0.25098 0.74236 0.0
C1019 C 0.92802 0.13593 0.72117 0.0
C1020 C 0.91131 0.10983 0.71848 0.0
C1021 C 0.88102 0.1094 0.72309 0.0
C1022 C 0.86746 0.13465 0.72994 0.0
C1023 C 0.88453 0.16009 0.73221 0.0
C1024 C 0.91419 0.16083 0.72809 0.0
C1025 C 0.92748 0.19109 0.73145 0.0
C1026 C 0.95198 0.18945 0.74531 0.0
C1027 C 0.939 0.20498 0.71474 0.0
C1028 C 0.90056 0.20735 0.73793 0.0
C1029 C 0.87599 0.18914 0.73828 0.0
C1030 C 0.84837 0.19956 0.74328 0.0
C1031 C 0.84582 0.2294 0.74809 0.0
C1032 C 0.87081 0.24843 0.7479 0.0
C1033 C 0.8985 0.23704 0.7428 0.0
H1034 H 0.86271 0.45401 0.97325 0.0
H1035 H 0.92329 0.3835 0.98775 0.0
H1036 H 0.88199 0.35612 0.00094 0.0
H1037 H 0.81591 0.4497 0.01192 0.0
H1038 H 0.78256 0.45732 0.99975 0.0
H1039 H 0.81743 0.4725 0.99293 0.0
H1040 H 0.80991 0.44845 0.96293 0.0
H1041 H 0.77514 0.43316 0.96965 0.0
H1042 H 0.80348 0.40911 0.96142 0.0
H1043 H 0.83316 0.33436 0.01006 0.0
H1044 H 0.78085 0.32025 0.01446 0.0
H1045 H 0.75284 0.40585 0.99485 0.0
C1046 C 0.8675 0.4332 0.9796 0.0
C1047 C 0.89629 0.42095 0.97948 0.0
C1048 C 0.90138 0.39322 0.98753 0.0
C1049 C 0.8781 0.3776 0.99518 0.0
C1050 C 0.8499 0.39011 0.99481 0.0
C1051 C 0.84458 0.41739 0.98732 0.0
C1052 C 0.81199 0.42514 0.98767 0.0
C1053 C 0.80667 0.4528 0.99873 0.0
C1054 C 0.7994 0.42919 0.96933 0.0
C1055 C 0.79969 0.39764 0.99611 0.0
C1056 C 0.8219 0.37777 0.00026 0.0
C1057 C 0.81563 0.34995 0.00712 0.0
C1058 C 0.78588 0.34211 0.00956 0.0
C1059 C 0.76281 0.36204 0.00515 0.0
C1060 C 0.76998 0.39032 0.99864 0.0
H1061 H 0.60863 0.38363 0.22127 0.0
H1062 H 0.52524 0.3844 0.2486 0.0
H1063 H 0.53775 0.33619 0.26154 0.0
H1064 H 0.61083 0.30951 0.2115 0.0
H1065 H 0.65005 0.30483 0.2151 0.0
H1066 H 0.63565 0.34047 0.209 0.0
H1067 H 0.66 0.36414 0.23603 0.0
H1068 H 0.67469 0.32853 0.24219 0.0
H1069 H 0.65221 0.34915 0.25698 0.0
H1070 H 0.55602 0.28469 0.26801 0.0
H1071 H 0.58123 0.23602 0.26973 0.0
H1072 H 0.65506 0.27159 0.24127 0.0
C1073 C 0.5933 0.3743 0.23038 0.0
C1074 C 0.56572 0.38793 0.23368 0.0
C1075 C 0.54618 0.37424 0.24544 0.0
C1076 C 0.55321 0.34694 0.25304 0.0
C1077 C 0.58023 0.33387 0.24915 0.0
C1078 C 0.60024 0.3474 0.23838 0.0
C1079 C 0.62735 0.32826 0.23583 0.0
C1080 C 0.63117 0.3203 0.21673 0.0
C1081 C 0.65521 0.34343 0.2432 0.0
C1082 C 0.61899 0.3014 0.24636 0.0
C1083 C 0.59167 0.30501 0.25391 0.0
C1084 C 0.57781 0.28191 0.26261 0.0
C1085 C 0.59219 0.25439 0.2635 0.0
C1086 C 0.6203 0.2505 0.25602 0.0
C1087 C 0.63403 0.27442 0.24762 0.0
H1088 H 0.10223 0.95272 0.39199 0.0
H1089 H 0.06352 0.87924 0.36327 0.0
H1090 H 0.08314 0.8446 0.38483 0.0
H1091 H 0.16699 0.91268 0.40999 0.0
H1092 H 0.16408 0.93142 0.43037 0.0
H1093 H 0.15254 0.94983 0.41085 0.0
H1094 H 0.10288 0.95967 0.42466 0.0
H1095 H 0.11092 0.93862 0.44381 0.0
H1096 H 0.07925 0.92949 0.43047 0.0
H1097 H 0.10882 0.81746 0.4094 0.0
H1098 H 0.12875 0.80127 0.43778 0.0
H1099 H 0.13925 0.89285 0.45309 0.0
C1100 C 0.09769 0.92943 0.39007 0.0
C1101 C 0.08149 0.91909 0.37555 0.0
C1102 C 0.07666 0.88811 0.37378 0.0
C1103 C 0.08758 0.86807 0.38608 0.0
C1104 C 0.10289 0.87921 0.40029 0.0
C1105 C 0.10757 0.90921 0.40246 0.0
C1106 C 0.12172 0.91579 0.41979 0.0
C1107 C 0.1532 0.92815 0.41761 0.0
C1108 C 0.10257 0.9371 0.43034 0.0
C1109 C 0.12263 0.88494 0.4274 0.0
C1110 C 0.11331 0.86397 0.41557 0.0
C1111 C 0.11536 0.83369 0.41895 0.0
C1112 C 0.12646 0.82468 0.43506 0.0
C1113 C 0.13367 0.84591 0.44775 0.0
C1114 C 0.13233 0.87633 0.44377 0.0
H1115 H 0.07106 0.60072 0.64173 0.0
H1116 H 0.14991 0.56763 0.61703 0.0
H1117 H 0.18106 0.59107 0.63963 0.0
H1118 H 0.10702 0.67193 0.659 0.0
H1119 H 0.08534 0.66978 0.67826 0.0
H1120 H 0.07028 0.6564 0.65814 0.0
H1121 H 0.0593 0.60817 0.67315 0.0
H1122 H 0.07795 0.61716 0.69304 0.0
H1123 H 0.08881 0.58511 0.68078 0.0
H1124 H 0.20343 0.61797 0.66516 0.0
H1125 H 0.21488 0.63879 0.69404 0.0
H1126 H 0.12115 0.64643 0.70411 0.0
C1127 C 0.09493 0.59936 0.64079 0.0
C1128 C 0.10823 0.58283 0.62757 0.0
C1129 C 0.13945 0.58048 0.62703 0.0
C1130 C 0.15726 0.59384 0.63972 0.0
C1131 C 0.14346 0.60938 0.65286 0.0
C1132 C 0.11298 0.61226 0.65348 0.0
C1133 C 0.10353 0.62726 0.66995 0.0
C1134 C 0.0908 0.65817 0.6661 0.0
C1135 C 0.08115 0.60831 0.67986 0.0
C1136 C 0.13319 0.62975 0.67916 0.0
C1137 C 0.15608 0.62115 0.66863 0.0
C1138 C 0.18569 0.62421 0.67366 0.0
C1139 C 0.19202 0.63581 0.69004 0.0
C1140 C 0.16885 0.6425 0.70141 0.0
C1141 C 0.13914 0.64002 0.69581 0.0
H1142 H 0.42787 0.62759 0.89002 0.0
H1143 H 0.36996 0.55439 0.87606 0.0
H1144 H 0.33494 0.56988 0.89826 0.0
H1145 H 0.42223 0.6179 0.93321 0.0
H1146 H 0.42337 0.65654 0.93899 0.0
H1147 H 0.44027 0.64433 0.91945 0.0
H1148 H 0.40832 0.6818 0.90209 0.0
H1149 H 0.39118 0.69403 0.92168 0.0
H1150 H 0.36858 0.68102 0.90397 0.0
H1151 H 0.31166 0.58619 0.9252 0.0
H1152 H 0.30234 0.60194 0.95506 0.0
H1153 H 0.37474 0.66454 0.95226 0.0
C1154 C 0.40755 0.61513 0.89138 0.0
C1155 C 0.40172 0.58982 0.88114 0.0
C1156 C 0.37478 0.57423 0.88339 0.0
C1157 C 0.3547 0.58284 0.89604 0.0
C1158 C 0.36168 0.6072 0.90632 0.0
C1159 C 0.3874 0.62327 0.90407 0.0
C1160 C 0.39168 0.64594 0.91827 0.0
C1161 C 0.42111 0.64085 0.92805 0.0
C1162 C 0.38982 0.67758 0.91106 0.0
C1163 C 0.36524 0.63898 0.92938 0.0
C1164 C 0.34787 0.61698 0.92203 0.0
C1165 C 0.32447 0.60405 0.93084 0.0
C1166 C 0.31931 0.61311 0.94776 0.0
C1167 C 0.33731 0.63498 0.95562 0.0
C1168 C 0.35993 0.64872 0.94617 0.0
H1169 H 0.44873 0.92916 0.14964 0.0
H1170 H 0.38241 0.89337 0.11454 0.0
H1171 H 0.35461 0.87369 0.13938 0.0
H1172 H 0.44976 0.86814 0.17869 0.0
H1173 H 0.45535 0.89122 0.19735 0.0
H1174 H 0.46879 0.90307 0.17678 0.0
H1175 H 0.43912 0.95198 0.17956 0.0
H1176 H 0.42539 0.94016 0.20009 0.0
H1177 H 0.39979 0.95044 0.18317 0.0
H1178 H 0.3346 0.8573 0.16889 0.0
H1179 H 0.32583 0.8446 0.19948 0.0
H1180 H 0.40676 0.89073 0.21389 0.0
C1181 C 0.42858 0.91685 0.14705 0.0
C1182 C 0.41794 0.91259 0.13009 0.0
C1183 C 0.39096 0.89704 0.12743 0.0
C1184 C 0.37507 0.88574 0.14145 0.0
C1185 C 0.38641 0.89026 0.15802 0.0
C1186 C 0.41264 0.90543 0.16078 0.0
C1187 C 0.42071 0.90704 0.17964 0.0
C1188 C 0.4504 0.89143 0.18333 0.0
C1189 C 0.42127 0.93932 0.18598 0.0
C1190 C 0.3951 0.89015 0.18716 0.0
C1191 C 0.37531 0.88077 0.17462 0.0
C1192 C 0.35001 0.86458 0.17879 0.0
C1193 C 0.34515 0.85754 0.19618 0.0
C1194 C 0.36567 0.86649 0.2091 0.0
C1195 C 0.39069 0.88328 0.20439 0.0
H1196 H 0.07695 0.54659 0.84898 0.0
H1197 H 0.10319 0.61648 0.88439 0.0
H1198 H 0.12396 0.64482 0.86015 0.0
H1199 H 0.14234 0.5494 0.82355 0.0
H1200 H 0.12284 0.54146 0.80373 0.0
H1201 H 0.10881 0.52773 0.82377 0.0
H1202 H 0.05847 0.55333 0.81746 0.0
H1203 H 0.07243 0.56734 0.79745 0.0
H1204 H 0.05757 0.59254 0.8131 0.0
H1205 H 0.14228 0.66537 0.83162 0.0
H1206 H 0.15899 0.67466 0.80189 0.0
H1207 H 0.12267 0.58973 0.7861 0.0
C1208 C 0.08736 0.56766 0.85178 0.0
C1209 C 0.0884 0.57919 0.86869 0.0
C1210 C 0.10171 0.60726 0.87156 0.0
C1211 C 0.11369 0.6235 0.85787 0.0
C1212 C 0.11231 0.61134 0.8414 0.0
C1213 C 0.09963 0.58395 0.83837 0.0
C1214 C 0.10168 0.57523 0.81965 0.0
C1215 C 0.12001 0.54678 0.81756 0.0
C1216 C 0.07069 0.57193 0.81144 0.0
C1217 C 0.11771 0.60189 0.81259 0.0
C1218 C 0.1234 0.62269 0.82524 0.0
C1219 C 0.13796 0.64919 0.82163 0.0
C1220 C 0.14728 0.65432 0.8047 0.0
C1221 C 0.14228 0.63288 0.79167 0.0
C1222 C 0.12705 0.60651 0.79575 0.0
H1223 H 0.41528 0.61038 0.1247 0.0
H1224 H 0.49706 0.58618 0.09931 0.0
H1225 H 0.4765 0.60371 0.07184 0.0
H1226 H 0.36814 0.5849 0.09279 0.0
H1227 H 0.34088 0.61404 0.09314 0.0
H1228 H 0.36181 0.60505 0.1123 0.0
H1229 H 0.38167 0.6577 0.11579 0.0
H1230 H 0.35938 0.66879 0.09752 0.0
H1231 H 0.39863 0.6761 0.09785 0.0
H1232 H 0.44803 0.62349 0.0472 0.0
H1233 H 0.4108 0.63973 0.02582 0.0
H1234 H 0.34512 0.64669 0.0658 0.0
C1235 C 0.42897 0.60892 0.11341 0.0
C1236 C 0.45812 0.59733 0.11438 0.0
C1237 C 0.47511 0.59581 0.09918 0.0
C1238 C 0.46355 0.60554 0.08341 0.0
C1239 C 0.43486 0.61664 0.08293 0.0
C1240 C 0.41766 0.61835 0.09745 0.0
C1241 C 0.38682 0.62968 0.09302 0.0
C1242 C 0.36299 0.60708 0.09809 0.0
C1243 C 0.38131 0.65986 0.10155 0.0
C1244 C 0.38915 0.63286 0.07365 0.0
C1245 C 0.4174 0.62601 0.06827 0.0
C1246 C 0.4257 0.62843 0.05118 0.0
C1247 C 0.40436 0.63739 0.03912 0.0
C1248 C 0.37487 0.64293 0.0441 0.0
C1249 C 0.36733 0.64156 0.06166 0.0
H1250 H 0.39958 0.89911 0.37846 0.0
H1251 H 0.37932 0.98892 0.36184 0.0
H1252 H 0.36027 0.96964 0.33447 0.0
H1253 H 0.42224 0.86934 0.34392 0.0
H1254 H 0.40281 0.83431 0.34269 0.0
H1255 H 0.40948 0.85179 0.36314 0.0
H1256 H 0.35522 0.85439 0.37105 0.0
H1257 H 0.34675 0.83359 0.35181 0.0
H1258 H 0.32834 0.8683 0.35577 0.0
H1259 H 0.3528 0.94266 0.30746 0.0
H1260 H 0.34597 0.90766 0.2835 0.0
H1261 H 0.36394 0.83397 0.31784 0.0
C1262 C 0.39011 0.91477 0.36944 0.0
C1263 C 0.39243 0.94578 0.37217 0.0
C1264 C 0.37952 0.96521 0.35984 0.0
C1265 C 0.36815 0.95447 0.34427 0.0
C1266 C 0.36817 0.92407 0.34154 0.0
C1267 C 0.37723 0.90432 0.35407 0.0
C1268 C 0.37449 0.87263 0.34761 0.0
C1269 C 0.40402 0.85601 0.3494 0.0
C1270 C 0.34972 0.85626 0.35712 0.0
C1271 C 0.36568 0.87804 0.32893 0.0
C1272 C 0.3617 0.90798 0.32594 0.0
C1273 C 0.35502 0.91911 0.30969 0.0
C1274 C 0.35149 0.89911 0.29615 0.0
C1275 C 0.35459 0.86831 0.29888 0.0
C1276 C 0.3615 0.85749 0.31551 0.0
H1277 H 0.03081 0.91444 0.59743 0.0
H1278 H 0.09906 0.88404 0.63303 0.0
H1279 H 0.12863 0.86639 0.60848 0.0
H1280 H 0.0356 0.85287 0.56826 0.0
H1281 H 0.02857 0.87548 0.54956 0.0
H1282 H 0.01351 0.88595 0.57 0.0
H1283 H 0.03882 0.93732 0.56751 0.0
H1284 H 0.05424 0.92688 0.54715 0.0
H1285 H 0.07826 0.93934 0.56436 0.0
H1286 H 0.1509 0.85254 0.57947 0.0
H1287 H 0.16211 0.841 0.54908 0.0
H1288 H 0.07788 0.87933 0.53341 0.0
C1289 C 0.05171 0.9036 0.6002 0.0
C1290 C 0.06248 0.90054 0.61724 0.0
C1291 C 0.09039 0.8869 0.6201 0.0
C1292 C 0.10732 0.87674 0.60624 0.0
C1293 C 0.096 0.88032 0.5896 0.0
C1294 C 0.0687 0.89323 0.5866 0.0
C1295 C 0.06113 0.89422 0.56763 0.0
C1296 C 0.03305 0.87604 0.56363 0.0
C1297 C 0.05793 0.92635 0.5613 0.0
C1298 C 0.08838 0.87971 0.56037 0.0
C1299 C 0.10843 0.87203 0.57316 0.0
C1300 C 0.1353 0.85841 0.56936 0.0
C1301 C 0.14153 0.85207 0.55207 0.0
C1302 C 0.12084 0.85912 0.53886 0.0
C1303 C 0.09413 0.87342 0.54317 0.0
H1304 H 0.60116 0.39902 0.88386 0.0
H1305 H 0.61029 0.48977 0.90136 0.0
H1306 H 0.63074 0.4721 0.92909 0.0
H1307 H 0.57786 0.36898 0.9202 0.0
H1308 H 0.59868 0.3348 0.92116 0.0
H1309 H 0.59018 0.35179 0.90075 0.0
H1310 H 0.64389 0.35662 0.89177 0.0
H1311 H 0.65436 0.33642 0.91089 0.0
H1312 H 0.67096 0.37191 0.9065 0.0
H1313 H 0.64541 0.44525 0.95543 0.0
H1314 H 0.65758 0.41037 0.97881 0.0
H1315 H 0.64045 0.33621 0.94469 0.0
C1316 C 0.60826 0.41506 0.89341 0.0
C1317 C 0.60445 0.44572 0.89055 0.0
C1318 C 0.61351 0.46622 0.9033 0.0
C1319 C 0.62502 0.4564 0.91908 0.0
C1320 C 0.62789 0.42603 0.9217 0.0
C1321 C 0.62056 0.40562 0.90911 0.0
C1322 C 0.62519 0.3742 0.91554 0.0
C1323 C 0.59627 0.35634 0.91438 0.0
C1324 C 0.65009 0.35889 0.90558 0.0
C1325 C 0.63461 0.38017 0.93402 0.0
C1326 C 0.63637 0.4103 0.93712 0.0
C1327 C 0.64434 0.42163 0.95314 0.0
C1328 C 0.65095 0.40169 0.96636 0.0
C1329 C 0.64927 0.3708 0.96356 0.0
C1330 C 0.64145 0.3598 0.94713 0.0
H1331 H 0.6073 0.10413 0.12678 0.0
H1332 H 0.51678 0.09124 0.14312 0.0
H1333 H 0.52989 0.11057 0.17192 0.0
H1334 H 0.64147 0.08195 0.16148 0.0
H1335 H 0.67056 0.10893 0.16494 0.0
H1336 H 0.65632 0.10184 0.14361 0.0
H1337 H 0.63961 0.15424 0.13744 0.0
H1338 H 0.65745 0.16508 0.15733 0.0
H1339 H 0.61923 0.17462 0.15332 0.0
H1340 H 0.55327 0.12586 0.1993 0.0
H1341 H 0.58515 0.14048 0.22381 0.0
H1342 H 0.66096 0.14502 0.19023 0.0
C1343 C 0.59016 0.10634 0.13632 0.0
C1344 C 0.561 0.09655 0.13283 0.0
C1345 C 0.5391 0.09912 0.14558 0.0
C1346 C 0.54636 0.10997 0.16194 0.0
C1347 C 0.57545 0.11878 0.16516 0.0
C1348 C 0.59686 0.11798 0.15262 0.0
C1349 C 0.62667 0.1279 0.15978 0.0
C1350 C 0.65021 0.10374 0.15736 0.0
C1351 C 0.6363 0.15721 0.15148 0.0
C1352 C 0.61903 0.13242 0.17856 0.0
C1353 C 0.5892 0.12751 0.18122 0.0
C1354 C 0.5766 0.13003 0.19738 0.0
C1355 C 0.59489 0.13805 0.21122 0.0
C1356 C 0.62547 0.1431 0.20888 0.0
C1357 C 0.63767 0.14077 0.19231 0.0
H1358 H 0.92598 0.12863 0.38071 0.0
H1359 H 0.86075 0.06129 0.36749 0.0
H1360 H 0.82816 0.08032 0.38993 0.0
H1361 H 0.92056 0.11876 0.42411 0.0
H1362 H 0.926 0.15701 0.42999 0.0
H1363 H 0.94102 0.1432 0.41028 0.0
H1364 H 0.91292 0.18408 0.3933 0.0
H1365 H 0.89762 0.19789 0.41306 0.0
H1366 H 0.87338 0.18754 0.39548 0.0
H1367 H 0.80684 0.09951 0.41673 0.0
H1368 H 0.79967 0.11611 0.44664 0.0
H1369 H 0.87877 0.16995 0.44377 0.0
C1370 C 0.90467 0.11808 0.3823 0.0
C1371 C 0.89606 0.09348 0.37208 0.0
C1372 C 0.86781 0.0806 0.37469 0.0
C1373 C 0.84905 0.09123 0.38752 0.0
C1374 C 0.85871 0.11478 0.3977 0.0
C1375 C 0.88588 0.12809 0.39525 0.0
C1376 C 0.89288 0.15006 0.40949 0.0
C1377 C 0.92181 0.14174 0.41903 0.0
C1378 C 0.89427 0.18178 0.4024 0.0
C1379 C 0.8661 0.14589 0.4208 0.0
C1380 C 0.84631 0.12596 0.41351 0.0
C1381 C 0.82167 0.11578 0.42236 0.0
C1382 C 0.81771 0.12533 0.4393 0.0
C1383 C 0.8382 0.1449 0.44716 0.0
C1384 C 0.86217 0.15601 0.43767 0.0
H1385 H 0.9523 0.38511 0.64498 0.0
H1386 H 0.88177 0.44569 0.63018 0.0
H1387 H 0.85239 0.42851 0.65474 0.0
H1388 H 0.90649 0.32588 0.6629 0.0
H1389 H 0.93225 0.31916 0.68034 0.0
H1390 H 0.94548 0.33249 0.65999 0.0
H1391 H 0.97062 0.37699 0.67539 0.0
H1392 H 0.95744 0.36386 0.69574 0.0
H1393 H 0.94871 0.40092 0.68874 0.0
H1394 H 0.83219 0.40733 0.68255 0.0
H1395 H 0.82465 0.38624 0.71161 0.0
H1396 H 0.91062 0.34382 0.70916 0.0
C1397 C 0.93064 0.39479 0.64676 0.0
C1398 C 0.91949 0.41678 0.63546 0.0
C1399 C 0.89075 0.42838 0.63831 0.0
C1400 C 0.87388 0.41888 0.65234 0.0
C1401 C 0.88605 0.39788 0.66349 0.0
C1402 C 0.91384 0.38608 0.66084 0.0
C1403 C 0.92327 0.36609 0.67552 0.0
C1404 C 0.92709 0.334 0.66931 0.0
C1405 C 0.95168 0.37767 0.68437 0.0
C1406 C 0.89675 0.36904 0.68707 0.0
C1407 C 0.87519 0.38693 0.67979 0.0
C1408 C 0.84889 0.39319 0.68832 0.0
C1409 C 0.84477 0.38112 0.70478 0.0
C1410 C 0.86713 0.3636 0.71263 0.0
C1411 C 0.89323 0.35732 0.70352 0.0
H1412 H 0.57812 0.04744 0.35879 0.0
H1413 H 0.60965 0.11626 0.39343 0.0
H1414 H 0.63015 0.14353 0.36861 0.0
H1415 H 0.64146 0.04779 0.33101 0.0
H1416 H 0.61927 0.04059 0.31205 0.0
H1417 H 0.60741 0.02715 0.33264 0.0
H1418 H 0.55724 0.05431 0.32848 0.0
H1419 H 0.56905 0.06806 0.30795 0.0
H1420 H 0.55701 0.09357 0.32426 0.0
H1421 H 0.64614 0.16376 0.33895 0.0
H1422 H 0.65757 0.17319 0.30826 0.0
H1423 H 0.61665 0.08924 0.29464 0.0
C1424 C 0.58988 0.0679 0.36134 0.0
C1425 C 0.59245 0.07948 0.37817 0.0
C1426 C 0.60721 0.10693 0.38067 0.0
C1427 C 0.61902 0.12254 0.36665 0.0
C1428 C 0.61596 0.11037 0.35023 0.0
C1429 C 0.60188 0.08352 0.34763 0.0
C1430 C 0.60125 0.07488 0.32889 0.0
C1431 C 0.61838 0.0459 0.32598 0.0
C1432 C 0.56924 0.07258 0.322 0.0
C1433 C 0.61715 0.10105 0.32124 0.0
C1434 C 0.62542 0.12149 0.33361 0.0
C1435 C 0.6399 0.14774 0.32921 0.0
C1436 C 0.64623 0.15297 0.31176 0.0
C1437 C 0.63826 0.13189 0.29901 0.0
C1438 C 0.62344 0.10575 0.30398 0.0
H1439 H 0.88054 0.09824 0.61836 0.0
H1440 H 0.97149 0.08408 0.60326 0.0
H1441 H 0.96072 0.10689 0.57498 0.0
H1442 H 0.84653 0.08134 0.58212 0.0
H1443 H 0.81919 0.11026 0.57981 0.0
H1444 H 0.83253 0.09957 0.6008 0.0
H1445 H 0.85103 0.15066 0.60912 0.0
H1446 H 0.8348 0.16445 0.5894 0.0
H1447 H 0.87321 0.17173 0.59439 0.0
H1448 H 0.93943 0.12674 0.54783 0.0
H1449 H 0.90906 0.1448 0.52337 0.0
H1450 H 0.83177 0.14708 0.55582 0.0
C1451 C 0.89826 0.10078 0.60921 0.0
C1452 C 0.92687 0.08975 0.61287 0.0
C1453 C 0.94958 0.09288 0.60065 0.0
C1454 C 0.94365 0.10571 0.5846 0.0
C1455 C 0.91507 0.11586 0.58119 0.0
C1456 C 0.89289 0.11428 0.59326 0.0
C1457 C 0.86391 0.12618 0.58606 0.0
C1458 C 0.83907 0.10298 0.58722 0.0
C1459 C 0.85524 0.15497 0.59529 0.0
C1460 C 0.87275 0.13241 0.56766 0.0
C1461 C 0.90256 0.127 0.5653 0.0
C1462 C 0.9161 0.13117 0.5495 0.0
C1463 C 0.89869 0.14111 0.53567 0.0
C1464 C 0.86807 0.14621 0.53769 0.0
C1465 C 0.85506 0.14257 0.55396 0.0
H1466 H 0.90085 0.43467 0.86457 0.0
H1467 H 0.93377 0.35552 0.88981 0.0
H1468 H 0.91212 0.32476 0.86651 0.0
H1469 H 0.8312 0.39841 0.84527 0.0
H1470 H 0.83429 0.42079 0.82618 0.0
H1471 H 0.84626 0.4353 0.84672 0.0
H1472 H 0.89512 0.44734 0.83298 0.0
H1473 H 0.88788 0.42895 0.81283 0.0
H1474 H 0.91911 0.41825 0.82614 0.0
H1475 H 0.88744 0.30289 0.84013 0.0
H1476 H 0.86765 0.29204 0.81089 0.0
H1477 H 0.85861 0.38596 0.80105 0.0
C1478 C 0.90248 0.41079 0.86548 0.0
C1479 C 0.91852 0.39732 0.87905 0.0
C1480 C 0.92128 0.36611 0.87955 0.0
C1481 C 0.90896 0.34852 0.86644 0.0
C1482 C 0.89403 0.36253 0.85294 0.0
C1483 C 0.89059 0.39296 0.8524 0.0
C1484 C 0.87646 0.40276 0.83558 0.0
C1485 C 0.84519 0.41503 0.83862 0.0
C1486 C 0.89577 0.42562 0.82628 0.0
C1487 C 0.87491 0.37338 0.8262 0.0
C1488 C 0.88346 0.35028 0.8368 0.0
C1489 C 0.88121 0.3208 0.83159 0.0
C1490 C 0.87018 0.31483 0.815 0.0
C1491 C 0.86329 0.33825 0.80363 0.0
C1492 C 0.86523 0.36782 0.80936 0.0
H1493 H 0.60115 0.45462 0.11306 0.0
H1494 H 0.62722 0.38394 0.1477 0.0
H1495 H 0.64836 0.35619 0.12309 0.0
H1496 H 0.57665 0.40862 0.07977 0.0
H1497 H 0.58869 0.43287 0.06282 0.0
H1498 H 0.57911 0.44799 0.0834 0.0
H1499 H 0.63082 0.4728 0.0858 0.0
H1500 H 0.64057 0.45767 0.0652 0.0
H1501 H 0.66365 0.45043 0.08379 0.0
H1502 H 0.66541 0.3359 0.09373 0.0
H1503 H 0.67145 0.32314 0.06285 0.0
H1504 H 0.6308 0.40656 0.04855 0.0
C1505 C 0.61195 0.43361 0.11555 0.0
C1506 C 0.61318 0.42162 0.13227 0.0
C1507 C 0.62641 0.39356 0.13495 0.0
C1508 C 0.63855 0.37779 0.12109 0.0
C1509 C 0.6369 0.39033 0.10468 0.0
C1510 C 0.62363 0.41755 0.10193 0.0
C1511 C 0.62205 0.42529 0.08307 0.0
C1512 C 0.58971 0.42888 0.07691 0.0
C1513 C 0.64037 0.4532 0.07925 0.0
C1514 C 0.63611 0.39803 0.0755 0.0
C1515 C 0.64515 0.37826 0.08806 0.0
C1516 C 0.65844 0.35132 0.08383 0.0
C1517 C 0.66191 0.34428 0.06631 0.0
C1518 C 0.65151 0.36388 0.05339 0.0
C1519 C 0.6389 0.39115 0.05814 0.0
loop_
_geom_bond_atom_site_label_1
_geom_bond_atom_site_label_2
_geom_bond_distance
_geom_bond_site_symmetry_2
_ccdc_geom_bond_type
C0 C1 1.384 . S
C0 C2 1.384 . S
C0 H28 0.931 . S
C1 C0 1.384 . S
C1 C4 1.382 . S
C2 C0 1.384 . S
C2 C3 1.381 . S
C2 H29 0.930 . S
C3 C2 1.381 . S
C3 C5 1.381 . S
C3 C6 1.487 . S
C4 C1 1.382 . S
C4 C5 1.387 . S
C4 H30 0.930 . S
C5 C3 1.381 . S
C5 C4 1.387 . S
C5 H31 0.931 1_565 S
C6 C3 1.487 . S
C6 C13 1.399 . S
C6 N44 1.343 1_565 S
C7 C8 1.384 . S
C7 C9 1.384 . S
C7 H32 0.931 . S
C8 C7 1.384 . S
C8 C11 1.382 . S
C9 C7 1.384 . S
C9 C10 1.381 . S
C9 H33 0.930 . S
C10 C9 1.381 . S
C10 C12 1.381 . S
C10 C13 1.487 . S
C11 C8 1.382 . S
C11 C12 1.387 . S
C11 H34 0.930 . S
C12 C10 1.381 . S
C12 C11 1.387 . S
C12 H35 0.931 . S
C13 C6 1.399 . S
C13 C10 1.487 . S
C13 N45 1.325 1_465 S
C14 C15 1.384 . S
C14 C16 1.384 . S
C14 H36 0.931 . S
C15 C14 1.384 . S
C15 C18 1.382 . S
C16 C14 1.384 . S
C16 C17 1.381 . S
C16 H37 0.930 . S
C17 C16 1.381 . S
C17 C19 1.381 . S
C17 C20 1.487 . S
C18 C15 1.382 . S
C18 C19 1.387 . S
C18 H38 0.930 . S
C19 C17 1.381 . S
C19 C18 1.387 . S
C19 H39 0.934 1_545 S
C20 C17 1.487 . S
C20 C27 1.399 . S
C20 N45 1.366 . S
C21 C22 1.384 . S
C21 C23 1.384 . S
C21 H40 0.931 . S
C22 C21 1.384 . S
C22 C25 1.382 . S
C23 C21 1.384 . S
C23 C24 1.381 . S
C23 H41 0.930 . S
C24 C23 1.381 . S
C24 C26 1.381 . S
C24 C27 1.487 . S
C25 C22 1.382 . S
C25 C26 1.387 . S
C25 H42 0.930 . S
C26 C24 1.381 . S
C26 C25 1.387 . S
C26 H43 0.931 . S
C27 C20 1.399 . S
C27 C24 1.487 . S
C27 N44 1.343 1_655 S
H28 C0 0.931 . S
H29 C2 0.930 . S
H30 C4 0.930 . S
H31 C5 0.931 1_545 S
H32 C7 0.931 . S
H33 C9 0.930 . S
H34 C11 0.930 . S
H35 C12 0.931 . S
H36 C14 0.931 . S
H37 C16 0.930 . S
H38 C18 0.930 . S
H39 C19 0.934 1_565 S
H40 C21 0.931 . S
H41 C23 0.930 . S
H42 C25 0.930 . S
H43 C26 0.931 . S
N44 C6 1.343 1_545 S
N44 C27 1.343 1_455 S
N45 C13 1.325 1_645 S
N45 C20 1.366 . S
C46 C47 1.384 . S
C46 C48 1.384 . S
C46 H74 0.931 . S
C47 C46 1.384 . S
C47 C50 1.382 . S
C48 C46 1.384 . S
C48 C49 1.381 . S
C48 H75 0.930 . S
C49 C48 1.381 . S
C49 C51 1.381 . S
C49 C52 1.487 . S
C50 C47 1.382 . S
C50 C51 1.387 . S
C50 H76 0.930 . S
C51 C49 1.381 . S
C51 C50 1.387 . S
C51 H77 0.931 1_655 S
C52 C49 1.487 . S
C52 C59 1.399 . S
C52 N90 1.343 1_655 S
C53 C54 1.384 . S
C53 C55 1.384 . S
C53 H78 0.931 . S
C54 C53 1.384 . S
C54 C57 1.382 . S
C55 C53 1.384 . S
C55 C56 1.381 . S
C55 H79 0.930 . S
C56 C55 1.381 . S
C56 C58 1.381 . S
C56 C59 1.487 . S
C57 C54 1.382 . S
C57 C58 1.387 . S
C57 H80 0.930 . S
C58 C56 1.381 . S
C58 C57 1.387 . S
C58 H81 0.931 . S
C59 C52 1.399 . S
C59 C56 1.487 . S
C59 N91 1.343 . S
C60 C61 1.384 . S
C60 C62 1.384 . S
C60 H82 0.931 . S
C61 C60 1.384 . S
C61 C64 1.382 . S
C62 C60 1.384 . S
C62 C63 1.381 . S
C62 H83 0.930 . S
C63 C62 1.381 . S
C63 C65 1.381 . S
C63 C66 1.487 . S
C64 C61 1.382 . S
C64 C65 1.387 . S
C64 H84 0.930 . S
C65 C63 1.381 . S
C65 C64 1.387 . S
C65 H85 0.931 1_455 S
C66 C63 1.487 . S
C66 C73 1.399 . S
C66 N91 1.343 1_455 S
C67 C68 1.384 . S
C67 C69 1.384 . S
C67 H86 0.931 . S
C68 C67 1.384 . S
C68 C71 1.382 . S
C69 C67 1.384 . S
C69 C70 1.381 . S
C69 H87 0.930 . S
C70 C69 1.381 . S
C70 C72 1.381 . S
C70 C73 1.487 . S
C71 C68 1.382 . S
C71 C72 1.387 . S
C71 H88 0.930 . S
C72 C70 1.381 . S
C72 C71 1.387 . S
C72 H89 0.931 . S
C73 C66 1.399 . S
C73 C70 1.487 . S
C73 N90 1.343 . S
H74 C46 0.931 . S
H75 C48 0.930 . S
H76 C50 0.930 . S
H77 C51 0.931 1_455 S
H78 C53 0.931 . S
H79 C55 0.930 . S
H80 C57 0.930 . S
H81 C58 0.931 . S
H82 C60 0.931 . S
H83 C62 0.930 . S
H84 C64 0.930 . S
H85 C65 0.931 1_655 S
H86 C67 0.931 . S
H87 C69 0.930 . S
H88 C71 0.930 . S
H89 C72 0.931 . S
N90 C52 1.343 1_455 S
N90 C73 1.343 . S
N91 C59 1.343 . S
N91 C66 1.343 1_655 S
C92 C93 1.384 . S
C92 C94 1.384 . S
C92 H120 0.931 . S
C93 C92 1.384 . S
C93 C96 1.382 . S
C94 C92 1.384 . S
C94 C95 1.381 . S
C94 H121 0.930 . S
C95 C94 1.381 . S
C95 C97 1.381 . S
C95 C98 1.487 . S
C96 C93 1.382 . S
C96 C97 1.387 . S
C96 H122 0.930 . S
C97 C95 1.381 . S
C97 C96 1.387 . S
C97 H123 0.931 . S
C98 C95 1.487 . S
C98 C105 1.399 . S
C98 N136 1.343 . S
C99 C100 1.384 . S
C99 C101 1.384 . S
C99 H124 0.931 . S
C100 C99 1.384 . S
C100 C103 1.382 . S
C101 C99 1.384 . S
C101 C102 1.381 . S
C101 H125 0.930 . S
C102 C101 1.381 . S
C102 C104 1.381 . S
C102 C105 1.487 . S
C103 C100 1.382 . S
C103 C104 1.387 . S
C103 H126 0.930 . S
C104 C102 1.381 . S
C104 C103 1.387 . S
C104 H127 0.931 . S
C105 C98 1.399 . S
C105 C102 1.487 . S
C105 N137 1.343 . S
C106 C107 1.384 . S
C106 C108 1.384 . S
C106 H128 0.931 . S
C107 C106 1.384 . S
C107 C110 1.382 . S
C108 C106 1.384 . S
C108 C109 1.381 . S
C108 H129 0.930 . S
C109 C108 1.381 . S
C109 C111 1.381 . S
C109 C112 1.487 . S
C110 C107 1.382 . S
C110 C111 1.387 . S
C110 H130 0.930 . S
C111 C109 1.381 . S
C111 C110 1.387 . S
C111 H131 0.931 . S
C112 C109 1.487 . S
C112 C119 1.399 . S
C112 N137 1.343 . S
C113 C114 1.384 . S
C113 C115 1.384 . S
C113 H132 0.931 . S
C114 C113 1.384 . S
C114 C117 1.382 . S
C115 C113 1.384 . S
C115 C116 1.381 . S
C115 H133 0.930 . S
C116 C115 1.381 . S
C116 C118 1.381 . S
C116 C119 1.487 . S
C117 C114 1.382 . S
C117 C118 1.387 . S
C117 H134 0.930 . S
C118 C116 1.381 . S
C118 C117 1.387 . S
C118 H135 0.931 . S
C119 C112 1.399 . S
C119 C116 1.487 . S
C119 N136 1.343 . S
H120 C92 0.931 . S
H121 C94 0.930 . S
H122 C96 0.930 . S
H123 C97 0.931 . S
H124 C99 0.931 . S
H125 C101 0.930 . S
H126 C103 0.930 . S
H127 C104 0.931 . S
H128 C106 0.931 . S
H129 C108 0.930 . S
H130 C110 0.930 . S
H131 C111 0.931 . S
H132 C113 0.931 . S
H133 C115 0.930 . S
H134 C117 0.930 . S
H135 C118 0.931 . S
N136 C98 1.343 . S
N136 C119 1.343 . S
N137 C105 1.343 . S
N137 C112 1.343 . S
C138 C139 1.384 . S
C138 C140 1.384 . S
C138 H166 0.931 . S
C139 C138 1.384 . S
C139 C142 1.382 . S
C140 C138 1.384 . S
C140 C141 1.381 . S
C140 H167 0.930 . S
C141 C140 1.381 . S
C141 C143 1.381 . S
C141 C144 1.487 . S
C142 C139 1.382 . S
C142 C143 1.387 . S
C142 H168 0.930 . S
C143 C141 1.381 . S
C143 C142 1.387 . S
C143 H169 0.928 1_565 S
C144 C141 1.487 . S
C144 C151 1.399 . S
C144 N182 1.343 1_565 S
C145 C146 1.384 . S
C145 C147 1.384 . S
C145 H170 0.931 . S
C146 C145 1.384 . S
C146 C149 1.382 . S
C147 C145 1.384 . S
C147 C148 1.381 . S
C147 H171 0.930 . S
C148 C147 1.381 . S
C148 C150 1.381 . S
C148 C151 1.487 . S
C149 C146 1.382 . S
C149 C150 1.387 . S
C149 H172 0.930 . S
C150 C148 1.381 . S
C150 C149 1.387 . S
C150 H173 0.931 . S
C151 C144 1.399 . S
C151 C148 1.487 . S
C151 N183 1.343 1_565 S
C152 C153 1.384 . S
C152 C154 1.384 . S
C152 H174 0.931 . S
C153 C152 1.384 . S
C153 C156 1.382 . S
C154 C152 1.384 . S
C154 C155 1.381 . S
C154 H175 0.930 . S
C155 C154 1.381 . S
C155 C157 1.381 . S
C155 C158 1.487 . S
C156 C153 1.382 . S
C156 C157 1.387 . S
C156 H176 0.930 . S
C157 C155 1.381 . S
C157 C156 1.387 . S
C157 H177 0.931 . S
C158 C155 1.487 . S
C158 C165 1.399 . S
C158 N183 1.343 . S
C159 C160 1.384 . S
C159 C161 1.384 . S
C159 H178 0.931 . S
C160 C159 1.384 . S
C160 C163 1.382 . S
C161 C159 1.384 . S
C161 C162 1.381 . S
C161 H179 0.930 . S
C162 C161 1.381 . S
C162 C164 1.381 . S
C162 C165 1.487 . S
C163 C160 1.382 . S
C163 C164 1.387 . S
C163 H180 0.930 . S
C164 C162 1.381 . S
C164 C163 1.387 . S
C164 H181 0.931 . S
C165 C158 1.399 . S
C165 C162 1.487 . S
C165 N182 1.343 . S
H166 C138 0.931 . S
H167 C140 0.930 . S
H168 C142 0.930 . S
H169 C143 0.928 1_545 S
H170 C145 0.931 . S
H171 C147 0.930 . S
H172 C149 0.930 . S
H173 C150 0.931 . S
H174 C152 0.931 . S
H175 C154 0.930 . S
H176 C156 0.930 . S
H177 C157 0.931 . S
H178 C159 0.931 . S
H179 C161 0.930 . S
H180 C163 0.930 . S
H181 C164 0.931 . S
N182 C144 1.343 1_545 S
N182 C165 1.343 . S
N183 C151 1.343 1_545 S
N183 C158 1.343 . S
C184 C185 1.384 . S
C184 C186 1.384 . S
C184 H212 0.931 . S
C185 C184 1.384 . S
C185 C188 1.382 . S
C186 C184 1.384 . S
C186 C187 1.381 . S
C186 H213 0.930 . S
C187 C186 1.381 . S
C187 C189 1.381 . S
C187 C190 1.487 . S
C188 C185 1.382 . S
C188 C189 1.387 . S
C188 H214 0.930 . S
C189 C187 1.381 . S
C189 C188 1.387 . S
C189 H215 0.931 . S
C190 C187 1.487 . S
C190 C197 1.399 . S
C190 N228 1.343 . S
C191 C192 1.384 . S
C191 C193 1.384 . S
C191 H216 0.931 . S
C192 C191 1.384 . S
C192 C195 1.382 . S
C193 C191 1.384 . S
C193 C194 1.381 . S
C193 H217 0.930 . S
C194 C193 1.381 . S
C194 C196 1.381 . S
C194 C197 1.487 . S
C195 C192 1.382 . S
C195 C196 1.387 . S
C195 H218 0.930 . S
C196 C194 1.381 . S
C196 C195 1.387 . S
C196 H219 0.931 . S
C197 C190 1.399 . S
C197 C194 1.487 . S
C197 N229 1.372 . S
C198 C199 1.384 . S
C198 C200 1.384 . S
C198 H220 0.931 . S
C199 C198 1.384 . S
C199 C202 1.382 . S
C200 C198 1.384 . S
C200 C201 1.381 . S
C200 H221 0.930 . S
C201 C200 1.381 . S
C201 C203 1.381 . S
C201 C204 1.487 . S
C202 C199 1.382 . S
C202 C203 1.387 . S
C202 H222 0.930 . S
C203 C201 1.381 . S
C203 C202 1.387 . S
C203 H223 0.931 . S
C204 C201 1.487 . S
C204 C211 1.399 . S
C204 N229 1.318 1_655 S
C205 C206 1.384 . S
C205 C207 1.384 . S
C205 H224 0.931 . S
C206 C205 1.384 . S
C206 C209 1.382 . S
C207 C205 1.384 . S
C207 C208 1.381 . S
C207 H225 0.930 . S
C208 C207 1.381 . S
C208 C210 1.381 . S
C208 C211 1.487 . S
C209 C206 1.382 . S
C209 C210 1.387 . S
C209 H226 0.930 . S
C210 C208 1.381 . S
C210 C209 1.387 . S
C210 H227 0.931 . S
C211 C204 1.399 . S
C211 C208 1.487 . S
C211 N228 1.343 1_655 S
H212 C184 0.931 . S
H213 C186 0.930 . S
H214 C188 0.930 . S
H215 C189 0.931 . S
H216 C191 0.931 . S
H217 C193 0.930 . S
H218 C195 0.930 . S
H219 C196 0.931 . S
H220 C198 0.931 . S
H221 C200 0.930 . S
H222 C202 0.930 . S
H223 C203 0.931 . S
H224 C205 0.931 . S
H225 C207 0.930 . S
H226 C209 0.930 . S
H227 C210 0.931 . S
N228 C190 1.343 . S
N228 C211 1.343 1_455 S
N229 C197 1.372 . S
N229 C204 1.318 1_455 S
C230 C231 1.384 . S
C230 C232 1.384 . S
C230 H258 0.931 . S
C231 C230 1.384 . S
C231 C234 1.382 . S
C232 C230 1.384 . S
C232 C233 1.381 . S
C232 H259 0.930 . S
C233 C232 1.381 . S
C233 C235 1.381 . S
C233 C236 1.487 . S
C234 C231 1.382 . S
C234 C235 1.387 . S
C234 H260 0.930 . S
C235 C233 1.381 . S
C235 C234 1.387 . S
C235 H261 0.931 . S
C236 C233 1.487 . S
C236 C243 1.399 . S
C236 N274 1.343 . S
C237 C238 1.384 . S
C237 C239 1.384 . S
C237 H262 0.931 . S
C238 C237 1.384 . S
C238 C241 1.382 . S
C239 C237 1.384 . S
C239 C240 1.381 . S
C239 H263 0.930 . S
C240 C239 1.381 . S
C240 C242 1.381 . S
C240 C243 1.487 . S
C241 C238 1.382 . S
C241 C242 1.387 . S
C241 H264 0.930 . S
C242 C240 1.381 . S
C242 C241 1.387 . S
C242 H265 0.931 . S
C243 C236 1.399 . S
C243 C240 1.487 . S
C243 N275 1.343 . S
C244 C245 1.384 . S
C244 C246 1.384 . S
C244 H266 0.931 . S
C245 C244 1.384 . S
C245 C248 1.382 . S
C246 C244 1.384 . S
C246 C247 1.381 . S
C246 H267 0.930 . S
C247 C246 1.381 . S
C247 C249 1.381 . S
C247 C250 1.487 . S
C248 C245 1.382 . S
C248 C249 1.387 . S
C248 H268 0.930 . S
C249 C247 1.381 . S
C249 C248 1.387 . S
C249 H269 0.931 . S
C250 C247 1.487 . S
C250 C257 1.399 . S
C250 N275 1.343 . S
C251 C252 1.384 . S
C251 C253 1.384 . S
C251 H270 0.931 . S
C252 C251 1.384 . S
C252 C255 1.382 . S
C253 C251 1.384 . S
C253 C254 1.381 . S
C253 H271 0.930 . S
C254 C253 1.381 . S
C254 C256 1.381 . S
C254 C257 1.487 . S
C255 C252 1.382 . S
C255 C256 1.387 . S
C255 H272 0.930 . S
C256 C254 1.381 . S
C256 C255 1.387 . S
C256 H273 0.931 . S
C257 C250 1.399 . S
C257 C254 1.487 . S
C257 N274 1.343 . S
H258 C230 0.931 . S
H259 C232 0.930 . S
H260 C234 0.930 . S
H261 C235 0.931 . S
H262 C237 0.931 . S
H263 C239 0.930 . S
H264 C241 0.930 . S
H265 C242 0.931 . S
H266 C244 0.931 . S
H267 C246 0.930 . S
H268 C248 0.930 . S
H269 C249 0.931 . S
H270 C251 0.931 . S
H271 C253 0.930 . S
H272 C255 0.930 . S
H273 C256 0.931 . S
N274 C236 1.343 . S
N274 C257 1.343 . S
N275 C243 1.343 . S
N275 C250 1.343 . S
C276 C277 1.384 . S
C276 C278 1.384 . S
C276 H304 0.931 . S
C277 C276 1.384 . S
C277 C280 1.382 . S
C278 C276 1.384 . S
C278 C279 1.381 . S
C278 H305 0.930 . S
C279 C278 1.381 . S
C279 C281 1.381 . S
C279 C282 1.487 . S
C280 C277 1.382 . S
C280 C281 1.387 . S
C280 H306 0.930 . S
C281 C279 1.381 . S
C281 C280 1.387 . S
C281 H307 0.931 1_565 S
C282 C279 1.487 . S
C282 C289 1.399 . S
C282 N320 1.343 1_565 S
C283 C284 1.384 . S
C283 C285 1.384 . S
C283 H308 0.931 . S
C284 C283 1.384 . S
C284 C287 1.382 . S
C285 C283 1.384 . S
C285 C286 1.381 . S
C285 H309 0.930 . S
C286 C285 1.381 . S
C286 C288 1.381 . S
C286 C289 1.487 . S
C287 C284 1.382 . S
C287 C288 1.387 . S
C287 H310 0.930 . S
C288 C286 1.381 . S
C288 C287 1.387 . S
C288 H311 0.931 . S
C289 C282 1.399 . S
C289 C286 1.487 . S
C289 N321 1.343 1_565 S
C290 C291 1.384 . S
C290 C292 1.384 . S
C290 H312 0.931 . S
C291 C290 1.384 . S
C291 C294 1.382 . S
C292 C290 1.384 . S
C292 C293 1.381 . S
C292 H313 0.930 . S
C293 C292 1.381 . S
C293 C295 1.381 . S
C293 C296 1.487 . S
C294 C291 1.382 . S
C294 C295 1.387 . S
C294 H314 0.930 . S
C295 C293 1.381 . S
C295 C294 1.387 . S
C295 H315 0.931 . S
C296 C293 1.487 . S
C296 C303 1.399 . S
C296 N321 1.343 . S
C297 C298 1.384 . S
C297 C299 1.384 . S
C297 H316 0.931 . S
C298 C297 1.384 . S
C298 C301 1.382 . S
C299 C297 1.384 . S
C299 C300 1.381 . S
C299 H317 0.930 . S
C300 C299 1.381 . S
C300 C302 1.381 . S
C300 C303 1.487 . S
C301 C298 1.382 . S
C301 C302 1.387 . S
C301 H318 0.930 . S
C302 C300 1.381 . S
C302 C301 1.387 . S
C302 H319 0.931 . S
C303 C296 1.399 . S
C303 C300 1.487 . S
C303 N320 1.343 . S
H304 C276 0.931 . S
H305 C278 0.930 . S
H306 C280 0.930 . S
H307 C281 0.931 1_545 S
H308 C283 0.931 . S
H309 C285 0.930 . S
H310 C287 0.930 . S
H311 C288 0.931 . S
H312 C290 0.931 . S
H313 C292 0.930 . S
H314 C294 0.930 . S
H315 C295 0.931 . S
H316 C297 0.931 . S
H317 C299 0.930 . S
H318 C301 0.930 . S
H319 C302 0.931 . S
N320 C282 1.343 1_545 S
N320 C303 1.343 . S
N321 C289 1.343 1_545 S
N321 C296 1.343 . S
C322 C323 1.384 . S
C322 C324 1.384 . S
C322 H350 0.931 . S
C323 C322 1.384 . S
C323 C326 1.382 . S
C324 C322 1.384 . S
C324 C325 1.381 . S
C324 H351 0.930 . S
C325 C324 1.381 . S
C325 C327 1.381 . S
C325 C328 1.487 . S
C326 C323 1.382 . S
C326 C327 1.387 . S
C326 H352 0.930 . S
C327 C325 1.381 . S
C327 C326 1.387 . S
C327 H353 0.895 1_455 S
C328 C325 1.487 . S
C328 C335 1.399 . S
C328 N366 1.345 1_565 S
C329 C330 1.384 . S
C329 C331 1.384 . S
C329 H354 0.931 . S
C330 C329 1.384 . S
C330 C333 1.382 . S
C331 C329 1.384 . S
C331 C332 1.381 . S
C331 H355 0.930 . S
C332 C331 1.381 . S
C332 C334 1.381 . S
C332 C335 1.487 . S
C333 C330 1.382 . S
C333 C334 1.387 . S
C333 H356 0.930 . S
C334 C332 1.381 . S
C334 C333 1.387 . S
C334 H357 0.931 . S
C335 C328 1.399 . S
C335 C332 1.487 . S
C335 N367 1.343 1_565 S
C336 C337 1.384 . S
C336 C338 1.384 . S
C336 H358 0.931 . S
C337 C336 1.384 . S
C337 C340 1.382 . S
C338 C336 1.384 . S
C338 C339 1.381 . S
C338 H359 0.930 . S
C339 C338 1.381 . S
C339 C341 1.381 . S
C339 C342 1.487 . S
C340 C337 1.382 . S
C340 C341 1.387 . S
C340 H360 0.930 . S
C341 C339 1.381 . S
C341 C340 1.387 . S
C341 H361 0.931 1_655 S
C342 C339 1.487 . S
C342 C349 1.399 . S
C342 N367 1.343 1_655 S
C343 C344 1.384 . S
C343 C345 1.384 . S
C343 H362 0.931 . S
C344 C343 1.384 . S
C344 C347 1.382 . S
C345 C343 1.384 . S
C345 C346 1.381 . S
C345 H363 0.930 . S
C346 C345 1.381 . S
C346 C348 1.381 . S
C346 C349 1.487 . S
C347 C344 1.382 . S
C347 C348 1.387 . S
C347 H364 0.930 . S
C348 C346 1.381 . S
C348 C347 1.387 . S
C348 H365 0.931 . S
C349 C342 1.399 . S
C349 C346 1.487 . S
C349 N366 1.341 1_655 S
H350 C322 0.931 . S
H351 C324 0.930 . S
H352 C326 0.930 . S
H353 C327 0.895 1_655 S
H354 C329 0.931 . S
H355 C331 0.930 . S
H356 C333 0.930 . S
H357 C334 0.931 . S
H358 C336 0.931 . S
H359 C338 0.930 . S
H360 C340 0.930 . S
H361 C341 0.931 1_455 S
H362 C343 0.931 . S
H363 C345 0.930 . S
H364 C347 0.930 . S
H365 C348 0.931 . S
N366 C328 1.345 1_545 S
N366 C349 1.341 1_455 S
N367 C335 1.343 1_545 S
N367 C342 1.343 1_455 S
Mn368 O373 2.095 1_554 S
Mn368 O383 2.162 . S
Mn368 O384 2.297 . S
Mn368 O392 2.385 . S
Mn368 O393 2.209 . S
Mn368 O394 2.094 1_554 S
Mn369 O374 2.121 . S
Mn369 N376 2.257 1_556 S
Mn369 N385 2.282 1_556 S
Mn369 O393 2.215 1_556 S
Mn369 O395 2.117 . S
C370 O392 1.234 . S
C370 O393 1.283 . S
C371 O383 1.281 . S
C371 O384 1.236 . S
C372 O394 1.240 . S
C372 O395 1.264 . S
O373 Mn368 2.095 1_556 S
O373 C382 1.250 . S
O374 Mn369 2.121 . S
O374 C382 1.258 . S
C375 N376 1.326 1_556 S
C375 C379 1.460 1_556 S
C375 H381 0.929 . S
N376 Mn369 2.257 1_554 S
N376 C375 1.326 1_554 S
N376 C380 1.362 . S
C377 C378 1.258 . S
C377 C380 1.431 . S
C377 C397 1.449 . S
C378 C377 1.258 . S
C378 C379 1.477 . S
C378 H398 0.931 . S
C379 C375 1.460 1_554 S
C379 C378 1.477 . S
C379 H399 0.930 1_554 S
C380 N376 1.362 . S
C380 C377 1.431 . S
C380 C390 1.476 . S
H381 C375 0.929 . S
C382 O373 1.250 . S
C382 O374 1.258 . S
O383 Mn368 2.162 . S
O383 C371 1.281 . S
O384 Mn368 2.297 . S
O384 C371 1.236 . S
N385 Mn369 2.282 1_554 S
N385 C386 1.328 . S
N385 C390 1.318 . S
C386 N385 1.328 . S
C386 C387 1.457 . S
C386 H391 0.929 . S
C387 C386 1.457 . S
C387 C388 1.291 . S
C387 H400 0.931 . S
C388 C387 1.291 . S
C388 C389 1.373 . S
C388 H401 0.929 . S
C389 C388 1.373 . S
C389 C390 1.396 . S
C389 C396 1.403 . S
C390 C380 1.476 . S
C390 N385 1.318 . S
C390 C389 1.396 . S
H391 C386 0.929 . S
O392 Mn368 2.385 . S
O392 C370 1.234 . S
O393 Mn368 2.209 . S
O393 Mn369 2.215 1_554 S
O393 C370 1.283 . S
O394 Mn368 2.094 1_556 S
O394 C372 1.240 . S
O395 Mn369 2.117 . S
O395 C372 1.264 . S
C396 C389 1.403 . S
C396 C397 1.399 . S
C396 H402 0.929 . S
C397 C377 1.449 . S
C397 C396 1.399 . S
C397 H403 0.930 . S
H398 C378 0.931 . S
H399 C379 0.930 1_556 S
H400 C387 0.931 . S
H401 C388 0.929 . S
H402 C396 0.929 . S
H403 C397 0.930 . S
Mn404 O409 2.095 . S
Mn404 O419 2.162 . S
Mn404 O420 2.297 . S
Mn404 O428 2.385 . S
Mn404 O429 2.209 . S
Mn404 O430 2.094 . S
Mn405 O410 2.121 . S
Mn405 N412 2.257 . S
Mn405 N421 2.282 . S
Mn405 O429 2.215 . S
Mn405 O431 2.117 . S
C406 O428 1.234 . S
C406 O429 1.283 . S
C407 O419 1.281 . S
C407 O420 1.236 . S
C408 O430 1.240 . S
C408 O431 1.264 . S
O409 Mn404 2.095 . S
O409 C418 1.250 . S
O410 Mn405 2.121 . S
O410 C418 1.258 . S
C411 N412 1.326 . S
C411 C415 1.460 . S
C411 H417 0.929 . S
N412 Mn405 2.257 . S
N412 C411 1.326 . S
N412 C416 1.362 . S
C413 C414 1.258 . S
C413 C416 1.431 . S
C413 C433 1.449 . S
C414 C413 1.258 . S
C414 C415 1.477 . S
C414 H434 0.931 . S
C415 C411 1.460 . S
C415 C414 1.477 . S
C415 H435 0.930 . S
C416 N412 1.362 . S
C416 C413 1.431 . S
C416 C426 1.476 . S
H417 C411 0.929 . S
C418 O409 1.250 . S
C418 O410 1.258 . S
O419 Mn404 2.162 . S
O419 C407 1.281 . S
O420 Mn404 2.297 . S
O420 C407 1.236 . S
N421 Mn405 2.282 . S
N421 C422 1.328 . S
N421 C426 1.318 . S
C422 N421 1.328 . S
C422 C423 1.457 . S
C422 H427 0.929 . S
C423 C422 1.457 . S
C423 C424 1.291 . S
C423 H436 0.931 . S
C424 C423 1.291 . S
C424 C425 1.373 . S
C424 H437 0.929 . S
C425 C424 1.373 . S
C425 C426 1.396 . S
C425 C432 1.403 . S
C426 C416 1.476 . S
C426 N421 1.318 . S
C426 C425 1.396 . S
H427 C422 0.929 . S
O428 Mn404 2.385 . S
O428 C406 1.234 . S
O429 Mn404 2.209 . S
O429 Mn405 2.215 . S
O429 C406 1.283 . S
O430 Mn404 2.094 . S
O430 C408 1.240 . S
O431 Mn405 2.117 . S
O431 C408 1.264 . S
C432 C425 1.403 . S
C432 C433 1.399 . S
C432 H438 0.929 . S
C433 C413 1.449 . S
C433 C432 1.399 . S
C433 H439 0.930 . S
H434 C414 0.931 . S
H435 C415 0.930 . S
H436 C423 0.931 . S
H437 C424 0.929 . S
H438 C432 0.929 . S
H439 C433 0.930 . S
Mn440 O445 2.095 . S
Mn440 O455 2.162 . S
Mn440 O456 2.297 . S
Mn440 O464 2.385 . S
Mn440 O465 2.209 . S
Mn440 O466 2.094 . S
Mn441 O446 2.121 . S
Mn441 N448 2.257 . S
Mn441 N457 2.282 . S
Mn441 O465 2.215 . S
Mn441 O467 2.117 . S
C442 O464 1.234 . S
C442 O465 1.283 . S
C443 O455 1.281 . S
C443 O456 1.236 . S
C444 O466 1.240 . S
C444 O467 1.264 . S
O445 Mn440 2.095 . S
O445 C454 1.250 . S
O446 Mn441 2.121 . S
O446 C454 1.258 . S
C447 N448 1.326 . S
C447 C451 1.460 . S
C447 H453 0.929 . S
N448 Mn441 2.257 . S
N448 C447 1.326 . S
N448 C452 1.362 . S
C449 C450 1.258 . S
C449 C452 1.431 . S
C449 C469 1.449 . S
C450 C449 1.258 . S
C450 C451 1.477 . S
C450 H470 0.931 . S
C451 C447 1.460 . S
C451 C450 1.477 . S
C451 H471 0.930 . S
C452 N448 1.362 . S
C452 C449 1.431 . S
C452 C462 1.476 . S
H453 C447 0.929 . S
C454 O445 1.250 . S
C454 O446 1.258 . S
O455 Mn440 2.162 . S
O455 C443 1.281 . S
O456 Mn440 2.297 . S
O456 C443 1.236 . S
N457 Mn441 2.282 . S
N457 C458 1.328 . S
N457 C462 1.318 . S
C458 N457 1.328 . S
C458 C459 1.457 . S
C458 H463 0.929 . S
C459 C458 1.457 . S
C459 C460 1.291 . S
C459 H472 0.931 . S
C460 C459 1.291 . S
C460 C461 1.373 . S
C460 H473 0.929 . S
C461 C460 1.373 . S
C461 C462 1.396 . S
C461 C468 1.403 . S
C462 C452 1.476 . S
C462 N457 1.318 . S
C462 C461 1.396 . S
H463 C458 0.929 . S
O464 Mn440 2.385 . S
O464 C442 1.234 . S
O465 Mn440 2.209 . S
O465 Mn441 2.215 . S
O465 C442 1.283 . S
O466 Mn440 2.094 . S
O466 C444 1.240 . S
O467 Mn441 2.117 . S
O467 C444 1.264 . S
C468 C461 1.403 . S
C468 C469 1.399 . S
C468 H474 0.929 . S
C469 C449 1.449 . S
C469 C468 1.399 . S
C469 H475 0.930 . S
H470 C450 0.931 . S
H471 C451 0.930 . S
H472 C459 0.931 . S
H473 C460 0.929 . S
H474 C468 0.929 . S
H475 C469 0.930 . S
Mn476 O481 2.095 . S
Mn476 O491 2.162 . S
Mn476 O492 2.297 . S
Mn476 O500 2.385 . S
Mn476 O501 2.209 . S
Mn476 O502 2.094 . S
Mn477 O482 2.121 . S
Mn477 N484 2.257 . S
Mn477 N493 2.282 . S
Mn477 O501 2.215 . S
Mn477 O503 2.117 . S
C478 O500 1.234 . S
C478 O501 1.283 . S
C479 O491 1.281 . S
C479 O492 1.236 . S
C480 O502 1.240 . S
C480 O503 1.264 . S
O481 Mn476 2.095 . S
O481 C490 1.250 . S
O482 Mn477 2.121 . S
O482 C490 1.258 . S
C483 N484 1.326 . S
C483 C487 1.460 . S
C483 H489 0.929 . S
N484 Mn477 2.257 . S
N484 C483 1.326 . S
N484 C488 1.362 . S
C485 C486 1.258 . S
C485 C488 1.431 . S
C485 C505 1.449 . S
C486 C485 1.258 . S
C486 C487 1.477 . S
C486 H506 0.931 . S
C487 C483 1.460 . S
C487 C486 1.477 . S
C487 H507 0.930 . S
C488 N484 1.362 . S
C488 C485 1.431 . S
C488 C498 1.476 . S
H489 C483 0.929 . S
C490 O481 1.250 . S
C490 O482 1.258 . S
O491 Mn476 2.162 . S
O491 C479 1.281 . S
O492 Mn476 2.297 . S
O492 C479 1.236 . S
N493 Mn477 2.282 . S
N493 C494 1.328 . S
N493 C498 1.318 . S
C494 N493 1.328 . S
C494 C495 1.457 . S
C494 H499 0.929 . S
C495 C494 1.457 . S
C495 C496 1.291 . S
C495 H508 0.931 . S
C496 C495 1.291 . S
C496 C497 1.373 . S
C496 H509 0.929 . S
C497 C496 1.373 . S
C497 C498 1.396 . S
C497 C504 1.403 . S
C498 C488 1.476 . S
C498 N493 1.318 . S
C498 C497 1.396 . S
H499 C494 0.929 . S
O500 Mn476 2.385 . S
O500 C478 1.234 . S
O501 Mn476 2.209 . S
O501 Mn477 2.215 . S
O501 C478 1.283 . S
O502 Mn476 2.094 . S
O502 C480 1.240 . S
O503 Mn477 2.117 . S
O503 C480 1.264 . S
C504 C497 1.403 . S
C504 C505 1.399 . S
C504 H510 0.929 . S
C505 C485 1.449 . S
C505 C504 1.399 . S
C505 H511 0.930 . S
H506 C486 0.931 . S
H507 C487 0.930 . S
H508 C495 0.931 . S
H509 C496 0.929 . S
H510 C504 0.929 . S
H511 C505 0.930 . S
Mn512 O517 2.095 . S
Mn512 O527 2.162 . S
Mn512 O528 2.297 . S
Mn512 O536 2.385 . S
Mn512 O537 2.209 . S
Mn512 O538 2.094 . S
Mn513 O518 2.121 . S
Mn513 N520 2.257 . S
Mn513 N529 2.282 . S
Mn513 O537 2.215 . S
Mn513 O539 2.117 . S
C514 O536 1.234 . S
C514 O537 1.283 . S
C515 O527 1.281 . S
C515 O528 1.236 . S
C516 O538 1.240 . S
C516 O539 1.264 . S
O517 Mn512 2.095 . S
O517 C526 1.250 . S
O518 Mn513 2.121 . S
O518 C526 1.258 . S
C519 N520 1.326 . S
C519 C523 1.460 . S
C519 H525 0.929 . S
N520 Mn513 2.257 . S
N520 C519 1.326 . S
N520 C524 1.362 . S
C521 C522 1.258 . S
C521 C524 1.431 . S
C521 C541 1.449 . S
C522 C521 1.258 . S
C522 C523 1.477 . S
C522 H542 0.931 . S
C523 C519 1.460 . S
C523 C522 1.477 . S
C523 H543 0.930 . S
C524 N520 1.362 . S
C524 C521 1.431 . S
C524 C534 1.476 . S
H525 C519 0.929 . S
C526 O517 1.250 . S
C526 O518 1.258 . S
O527 Mn512 2.162 . S
O527 C515 1.281 . S
O528 Mn512 2.297 . S
O528 C515 1.236 . S
N529 Mn513 2.282 . S
N529 C530 1.328 . S
N529 C534 1.318 . S
C530 N529 1.328 . S
C530 C531 1.457 . S
C530 H535 0.929 . S
C531 C530 1.457 . S
C531 C532 1.291 . S
C531 H544 0.931 . S
C532 C531 1.291 . S
C532 C533 1.373 . S
C532 H545 0.929 . S
C533 C532 1.373 . S
C533 C534 1.396 . S
C533 C540 1.403 . S
C534 C524 1.476 . S
C534 N529 1.318 . S
C534 C533 1.396 . S
H535 C530 0.929 . S
O536 Mn512 2.385 . S
O536 C514 1.234 . S
O537 Mn512 2.209 . S
O537 Mn513 2.215 . S
O537 C514 1.283 . S
O538 Mn512 2.094 . S
O538 C516 1.240 . S
O539 Mn513 2.117 . S
O539 C516 1.264 . S
C540 C533 1.403 . S
C540 C541 1.399 . S
C540 H546 0.929 . S
C541 C521 1.449 . S
C541 C540 1.399 . S
C541 H547 0.930 . S
H542 C522 0.931 . S
H543 C523 0.930 . S
H544 C531 0.931 . S
H545 C532 0.929 . S
H546 C540 0.929 . S
H547 C541 0.930 . S
Mn548 O553 2.095 . S
Mn548 O563 2.162 . S
Mn548 O564 2.297 . S
Mn548 O572 2.385 . S
Mn548 O573 2.209 . S
Mn548 O574 2.094 . S
Mn549 O554 2.121 . S
Mn549 N556 2.257 . S
Mn549 N565 2.282 . S
Mn549 O573 2.215 . S
Mn549 O575 2.117 . S
C550 O572 1.234 . S
C550 O573 1.283 . S
C551 O563 1.281 . S
C551 O564 1.236 . S
C552 O574 1.240 . S
C552 O575 1.264 . S
O553 Mn548 2.095 . S
O553 C562 1.250 . S
O554 Mn549 2.121 . S
O554 C562 1.258 . S
C555 N556 1.326 . S
C555 C559 1.460 . S
C555 H561 0.929 . S
N556 Mn549 2.257 . S
N556 C555 1.326 . S
N556 C560 1.362 . S
C557 C558 1.258 . S
C557 C560 1.431 . S
C557 C577 1.449 . S
C558 C557 1.258 . S
C558 C559 1.477 . S
C558 H578 0.931 . S
C559 C555 1.460 . S
C559 C558 1.477 . S
C559 H579 0.930 . S
C560 N556 1.362 . S
C560 C557 1.431 . S
C560 C570 1.476 . S
H561 C555 0.929 . S
C562 O553 1.250 . S
C562 O554 1.258 . S
O563 Mn548 2.162 . S
O563 C551 1.281 . S
O564 Mn548 2.297 . S
O564 C551 1.236 . S
N565 Mn549 2.282 . S
N565 C566 1.328 . S
N565 C570 1.318 . S
C566 N565 1.328 . S
C566 C567 1.457 . S
C566 H571 0.929 . S
C567 C566 1.457 . S
C567 C568 1.291 . S
C567 H580 0.931 . S
C568 C567 1.291 . S
C568 C569 1.373 . S
C568 H581 0.929 . S
C569 C568 1.373 . S
C569 C570 1.396 . S
C569 C576 1.403 . S
C570 C560 1.476 . S
C570 N565 1.318 . S
C570 C569 1.396 . S
H571 C566 0.929 . S
O572 Mn548 2.385 . S
O572 C550 1.234 . S
O573 Mn548 2.209 . S
O573 Mn549 2.215 . S
O573 C550 1.283 . S
O574 Mn548 2.094 . S
O574 C552 1.240 . S
O575 Mn549 2.117 . S
O575 C552 1.264 . S
C576 C569 1.403 . S
C576 C577 1.399 . S
C576 H582 0.929 . S
C577 C557 1.449 . S
C577 C576 1.399 . S
C577 H583 0.930 . S
H578 C558 0.931 . S
H579 C559 0.930 . S
H580 C567 0.931 . S
H581 C568 0.929 . S
H582 C576 0.929 . S
H583 C577 0.930 . S
Mn584 O589 2.095 . S
Mn584 O599 2.162 1_554 S
Mn584 O600 2.297 1_554 S
Mn584 O608 2.385 1_554 S
Mn584 O609 2.209 1_554 S
Mn584 O610 2.094 . S
Mn585 O590 2.121 . S
Mn585 N592 2.257 1_554 S
Mn585 N601 2.282 1_554 S
Mn585 O609 2.215 1_554 S
Mn585 O611 2.117 . S
C586 O608 1.234 . S
C586 O609 1.283 . S
C587 O599 1.281 . S
C587 O600 1.236 . S
C588 O610 1.240 . S
C588 O611 1.264 . S
O589 Mn584 2.095 . S
O589 C598 1.250 . S
O590 Mn585 2.121 . S
O590 C598 1.258 . S
C591 N592 1.326 1_554 S
C591 C595 1.460 . S
C591 H597 0.929 . S
N592 Mn585 2.257 1_556 S
N592 C591 1.326 1_556 S
N592 C596 1.362 . S
C593 C594 1.258 . S
C593 C596 1.431 . S
C593 C613 1.449 . S
C594 C593 1.258 . S
C594 C595 1.477 1_556 S
C594 H614 0.931 . S
C595 C591 1.460 . S
C595 C594 1.477 1_554 S
C595 H615 0.930 . S
C596 N592 1.362 . S
C596 C593 1.431 . S
C596 C606 1.476 . S
H597 C591 0.929 . S
C598 O589 1.250 . S
C598 O590 1.258 . S
O599 Mn584 2.162 1_556 S
O599 C587 1.281 . S
O600 Mn584 2.297 1_556 S
O600 C587 1.236 . S
N601 Mn585 2.282 1_556 S
N601 C602 1.328 . S
N601 C606 1.318 . S
C602 N601 1.328 . S
C602 C603 1.457 . S
C602 H607 0.929 . S
C603 C602 1.457 . S
C603 C604 1.291 . S
C603 H616 0.931 . S
C604 C603 1.291 . S
C604 C605 1.373 . S
C604 H617 0.929 . S
C605 C604 1.373 . S
C605 C606 1.396 . S
C605 C612 1.403 . S
C606 C596 1.476 . S
C606 N601 1.318 . S
C606 C605 1.396 . S
H607 C602 0.929 . S
O608 Mn584 2.385 1_556 S
O608 C586 1.234 . S
O609 Mn584 2.209 1_556 S
O609 Mn585 2.215 1_556 S
O609 C586 1.283 . S
O610 Mn584 2.094 . S
O610 C588 1.240 . S
O611 Mn585 2.117 . S
O611 C588 1.264 . S
C612 C605 1.403 . S
C612 C613 1.399 . S
C612 H618 0.929 . S
C613 C593 1.449 . S
C613 C612 1.399 . S
C613 H619 0.930 . S
H614 C594 0.931 . S
H615 C595 0.930 . S
H616 C603 0.931 . S
H617 C604 0.929 . S
H618 C612 0.929 . S
H619 C613 0.930 . S
Mn620 O625 2.095 . S
Mn620 O635 2.162 . S
Mn620 O636 2.297 . S
Mn620 O644 2.385 . S
Mn620 O645 2.209 . S
Mn620 O646 2.094 . S
Mn621 O626 2.121 . S
Mn621 N628 2.257 . S
Mn621 N637 2.282 . S
Mn621 O645 2.215 . S
Mn621 O647 2.117 . S
C622 O644 1.234 . S
C622 O645 1.283 . S
C623 O635 1.281 . S
C623 O636 1.236 . S
C624 O646 1.240 . S
C624 O647 1.264 . S
O625 Mn620 2.095 . S
O625 C634 1.250 . S
O626 Mn621 2.121 . S
O626 C634 1.258 . S
C627 N628 1.326 . S
C627 C631 1.460 . S
C627 H633 0.929 . S
N628 Mn621 2.257 . S
N628 C627 1.326 . S
N628 C632 1.362 . S
C629 C630 1.258 . S
C629 C632 1.431 . S
C629 C649 1.449 . S
C630 C629 1.258 . S
C630 C631 1.477 . S
C630 H650 0.931 . S
C631 C627 1.460 . S
C631 C630 1.477 . S
C631 H651 0.930 . S
C632 N628 1.362 . S
C632 C629 1.431 . S
C632 C642 1.476 . S
H633 C627 0.929 . S
C634 O625 1.250 . S
C634 O626 1.258 . S
O635 Mn620 2.162 . S
O635 C623 1.281 . S
O636 Mn620 2.297 . S
O636 C623 1.236 . S
N637 Mn621 2.282 . S
N637 C638 1.328 . S
N637 C642 1.318 . S
C638 N637 1.328 . S
C638 C639 1.457 . S
C638 H643 0.929 . S
C639 C638 1.457 . S
C639 C640 1.291 . S
C639 H652 0.931 . S
C640 C639 1.291 . S
C640 C641 1.373 . S
C640 H653 0.929 . S
C641 C640 1.373 . S
C641 C642 1.396 . S
C641 C648 1.403 . S
C642 C632 1.476 . S
C642 N637 1.318 . S
C642 C641 1.396 . S
H643 C638 0.929 . S
O644 Mn620 2.385 . S
O644 C622 1.234 . S
O645 Mn620 2.209 . S
O645 Mn621 2.215 . S
O645 C622 1.283 . S
O646 Mn620 2.094 . S
O646 C624 1.240 . S
O647 Mn621 2.117 . S
O647 C624 1.264 . S
C648 C641 1.403 . S
C648 C649 1.399 . S
C648 H654 0.929 . S
C649 C629 1.449 . S
C649 C648 1.399 . S
C649 H655 0.930 . S
H650 C630 0.931 . S
H651 C631 0.930 . S
H652 C639 0.931 . S
H653 C640 0.929 . S
H654 C648 0.929 . S
H655 C649 0.930 . S
H656 C668 0.930 . S
H657 C670 0.930 . S
H658 C671 0.930 . S
H659 C675 0.959 . S
H660 C675 0.959 . S
H661 C675 0.961 . S
H662 C676 0.960 . S
H663 C676 0.961 . S
H664 C676 0.959 . S
H665 C679 0.929 . S
H666 C680 0.931 . S
H667 C682 0.930 . S
C668 H656 0.930 . S
C668 C669 1.399 . S
C668 C673 1.399 . S
C669 C668 1.399 . S
C669 C670 1.376 . S
C670 H657 0.930 . S
C670 C669 1.376 . S
C670 C671 1.388 . S
C671 H658 0.930 . S
C671 C670 1.388 . S
C671 C672 1.390 . S
C672 C671 1.390 . S
C672 C673 1.394 . S
C672 C678 1.465 . S
C673 C668 1.399 . S
C673 C672 1.394 . S
C673 C674 1.516 . S
C674 C673 1.516 . S
C674 C675 1.502 . S
C674 C676 1.561 . S
C674 C677 1.526 . S
C675 H659 0.959 . S
C675 H660 0.959 . S
C675 H661 0.961 . S
C675 C674 1.502 . S
C676 H662 0.960 . S
C676 H663 0.961 . S
C676 H664 0.959 . S
C676 C674 1.561 . S
C677 C674 1.526 . S
C677 C678 1.396 . S
C677 C682 1.390 . S
C678 C672 1.465 . S
C678 C677 1.396 . S
C678 C679 1.399 . S
C679 H665 0.929 . S
C679 C678 1.399 . S
C679 C680 1.385 . S
C680 H666 0.931 . S
C680 C679 1.385 . S
C680 C681 1.389 . S
C681 C680 1.389 . S
C681 C682 1.387 . S
C682 H667 0.930 . S
C682 C677 1.390 . S
C682 C681 1.387 . S
H683 C695 0.930 . S
H684 C697 0.930 . S
H685 C698 0.930 . S
H686 C702 0.959 . S
H687 C702 0.959 . S
H688 C702 0.961 . S
H689 C703 0.960 . S
H690 C703 0.961 . S
H691 C703 0.959 . S
H692 C706 0.929 . S
H693 C707 0.931 . S
H694 C709 0.930 . S
C695 H683 0.930 . S
C695 C696 1.399 . S
C695 C700 1.399 . S
C696 C695 1.399 . S
C696 C697 1.376 . S
C697 H684 0.930 . S
C697 C696 1.376 . S
C697 C698 1.388 . S
C698 H685 0.930 . S
C698 C697 1.388 . S
C698 C699 1.390 . S
C699 C698 1.390 . S
C699 C700 1.394 . S
C699 C705 1.465 . S
C700 C695 1.399 . S
C700 C699 1.394 . S
C700 C701 1.516 . S
C701 C700 1.516 . S
C701 C702 1.502 . S
C701 C703 1.561 . S
C701 C704 1.526 . S
C702 H686 0.959 . S
C702 H687 0.959 . S
C702 H688 0.961 . S
C702 C701 1.502 . S
C703 H689 0.960 . S
C703 H690 0.961 . S
C703 H691 0.959 . S
C703 C701 1.561 . S
C704 C701 1.526 . S
C704 C705 1.396 . S
C704 C709 1.390 . S
C705 C699 1.465 . S
C705 C704 1.396 . S
C705 C706 1.399 . S
C706 H692 0.929 . S
C706 C705 1.399 . S
C706 C707 1.385 . S
C707 H693 0.931 . S
C707 C706 1.385 . S
C707 C708 1.389 . S
C708 C707 1.389 . S
C708 C709 1.387 . S
C709 H694 0.930 . S
C709 C704 1.390 . S
C709 C708 1.387 . S
H710 C722 0.930 . S
H711 C724 0.930 . S
H712 C725 0.930 . S
H713 C729 0.959 . S
H714 C729 0.959 . S
H715 C729 0.961 . S
H716 C730 0.960 . S
H717 C730 0.961 . S
H718 C730 0.959 . S
H719 C733 0.929 . S
H720 C734 0.931 . S
H721 C736 0.930 . S
C722 H710 0.930 . S
C722 C723 1.399 . S
C722 C727 1.399 . S
C723 C722 1.399 . S
C723 C724 1.376 . S
C724 H711 0.930 . S
C724 C723 1.376 . S
C724 C725 1.388 . S
C725 H712 0.930 . S
C725 C724 1.388 . S
C725 C726 1.390 . S
C726 C725 1.390 . S
C726 C727 1.394 . S
C726 C732 1.465 . S
C727 C722 1.399 . S
C727 C726 1.394 . S
C727 C728 1.516 . S
C728 C727 1.516 . S
C728 C729 1.502 . S
C728 C730 1.561 . S
C728 C731 1.526 . S
C729 H713 0.959 . S
C729 H714 0.959 . S
C729 H715 0.961 . S
C729 C728 1.502 . S
C730 H716 0.960 . S
C730 H717 0.961 . S
C730 H718 0.959 . S
C730 C728 1.561 . S
C731 C728 1.526 . S
C731 C732 1.396 . S
C731 C736 1.390 . S
C732 C726 1.465 . S
C732 C731 1.396 . S
C732 C733 1.399 . S
C733 H719 0.929 . S
C733 C732 1.399 . S
C733 C734 1.385 . S
C734 H720 0.931 . S
C734 C733 1.385 . S
C734 C735 1.389 . S
C735 C734 1.389 . S
C735 C736 1.387 . S
C736 H721 0.930 . S
C736 C731 1.390 . S
C736 C735 1.387 . S
H737 C749 0.930 . S
H738 C751 0.930 . S
H739 C752 0.930 . S
H740 C756 0.938 1_554 S
H741 C756 0.959 . S
H742 C756 0.961 . S
H743 C757 0.960 . S
H744 C757 0.961 . S
H745 C757 0.959 . S
H746 C760 0.929 . S
H747 C761 0.931 . S
H748 C763 0.930 1_556 S
C749 H737 0.930 . S
C749 C750 1.399 . S
C749 C754 1.399 . S
C750 C749 1.399 . S
C750 C751 1.376 . S
C751 H738 0.930 . S
C751 C750 1.376 . S
C751 C752 1.388 . S
C752 H739 0.930 . S
C752 C751 1.388 . S
C752 C753 1.390 . S
C753 C752 1.390 . S
C753 C754 1.394 . S
C753 C759 1.465 . S
C754 C749 1.399 . S
C754 C753 1.394 . S
C754 C755 1.516 . S
C755 C754 1.516 . S
C755 C756 1.502 1_554 S
C755 C757 1.561 1_554 S
C755 C758 1.526 . S
C756 H740 0.938 1_556 S
C756 H741 0.959 . S
C756 H742 0.961 . S
C756 C755 1.502 1_556 S
C757 H743 0.960 . S
C757 H744 0.961 . S
C757 H745 0.959 . S
C757 C755 1.561 1_556 S
C758 C755 1.526 . S
C758 C759 1.396 . S
C758 C763 1.390 . S
C759 C753 1.465 . S
C759 C758 1.396 . S
C759 C760 1.399 . S
C760 H746 0.929 . S
C760 C759 1.399 . S
C760 C761 1.385 . S
C761 H747 0.931 . S
C761 C760 1.385 . S
C761 C762 1.389 . S
C762 C761 1.389 . S
C762 C763 1.387 . S
C763 H748 0.930 1_554 S
C763 C758 1.390 . S
C763 C762 1.387 . S
H764 C776 0.930 . S
H765 C778 0.930 . S
H766 C779 0.930 . S
H767 C783 0.959 . S
H768 C783 0.959 . S
H769 C783 0.961 . S
H770 C784 0.960 . S
H771 C784 0.961 . S
H772 C784 0.959 . S
H773 C787 0.929 . S
H774 C788 0.931 . S
H775 C790 0.930 1_554 S
C776 H764 0.930 . S
C776 C777 1.399 . S
C776 C781 1.399 . S
C777 C776 1.399 . S
C777 C778 1.376 . S
C778 H765 0.930 . S
C778 C777 1.376 . S
C778 C779 1.388 . S
C779 H766 0.930 . S
C779 C778 1.388 . S
C779 C780 1.390 . S
C780 C779 1.390 . S
C780 C781 1.394 . S
C780 C786 1.465 . S
C781 C776 1.399 . S
C781 C780 1.394 . S
C781 C782 1.516 . S
C782 C781 1.516 . S
C782 C783 1.502 1_556 S
C782 C784 1.561 . S
C782 C785 1.526 . S
C783 H767 0.959 . S
C783 H768 0.959 . S
C783 H769 0.961 . S
C783 C782 1.502 1_554 S
C784 H770 0.960 . S
C784 H771 0.961 . S
C784 H772 0.959 . S
C784 C782 1.561 . S
C785 C782 1.526 . S
C785 C786 1.396 . S
C785 C790 1.390 . S
C786 C780 1.465 . S
C786 C785 1.396 . S
C786 C787 1.399 . S
C787 H773 0.929 . S
C787 C786 1.399 . S
C787 C788 1.385 . S
C788 H774 0.931 . S
C788 C787 1.385 . S
C788 C789 1.389 . S
C789 C788 1.389 . S
C789 C790 1.387 . S
C790 H775 0.930 1_556 S
C790 C785 1.390 . S
C790 C789 1.387 . S
H791 C803 0.930 . S
H792 C805 0.930 . S
H793 C806 0.930 . S
H794 C810 0.959 . S
H795 C810 0.959 . S
H796 C810 0.961 . S
H797 C811 0.960 . S
H798 C811 0.961 . S
H799 C811 0.959 . S
H800 C814 0.929 . S
H801 C815 0.931 . S
H802 C817 0.930 . S
C803 H791 0.930 . S
C803 C804 1.399 . S
C803 C808 1.399 . S
C804 C803 1.399 . S
C804 C805 1.376 . S
C805 H792 0.930 . S
C805 C804 1.376 . S
C805 C806 1.388 . S
C806 H793 0.930 . S
C806 C805 1.388 . S
C806 C807 1.390 . S
C807 C806 1.390 . S
C807 C808 1.394 . S
C807 C813 1.465 . S
C808 C803 1.399 . S
C808 C807 1.394 . S
C808 C809 1.516 . S
C809 C808 1.516 . S
C809 C810 1.502 . S
C809 C811 1.561 . S
C809 C812 1.526 . S
C810 H794 0.959 . S
C810 H795 0.959 . S
C810 H796 0.961 . S
C810 C809 1.502 . S
C811 H797 0.960 . S
C811 H798 0.961 . S
C811 H799 0.959 . S
C811 C809 1.561 . S
C812 C809 1.526 . S
C812 C813 1.396 . S
C812 C817 1.390 . S
C813 C807 1.465 . S
C813 C812 1.396 . S
C813 C814 1.399 . S
C814 H800 0.929 . S
C814 C813 1.399 . S
C814 C815 1.385 . S
C815 H801 0.931 . S
C815 C814 1.385 . S
C815 C816 1.389 . S
C816 C815 1.389 . S
C816 C817 1.387 . S
C817 H802 0.930 . S
C817 C812 1.390 . S
C817 C816 1.387 . S
H818 C830 0.930 . S
H819 C832 0.930 . S
H820 C833 0.930 . S
H821 C837 0.959 . S
H822 C837 0.959 . S
H823 C837 0.961 . S
H824 C838 0.960 . S
H825 C838 0.961 . S
H826 C838 0.959 . S
H827 C841 0.929 . S
H828 C842 0.931 . S
H829 C844 0.930 . S
C830 H818 0.930 . S
C830 C831 1.399 . S
C830 C835 1.399 . S
C831 C830 1.399 . S
C831 C832 1.376 . S
C832 H819 0.930 . S
C832 C831 1.376 . S
C832 C833 1.388 . S
C833 H820 0.930 . S
C833 C832 1.388 . S
C833 C834 1.390 . S
C834 C833 1.390 . S
C834 C835 1.394 . S
C834 C840 1.465 . S
C835 C830 1.399 . S
C835 C834 1.394 . S
C835 C836 1.516 . S
C836 C835 1.516 . S
C836 C837 1.502 . S
C836 C838 1.561 . S
C836 C839 1.526 . S
C837 H821 0.959 . S
C837 H822 0.959 . S
C837 H823 0.961 . S
C837 C836 1.502 . S
C838 H824 0.960 . S
C838 H825 0.961 . S
C838 H826 0.959 . S
C838 C836 1.561 . S
C839 C836 1.526 . S
C839 C840 1.396 . S
C839 C844 1.390 . S
C840 C834 1.465 . S
C840 C839 1.396 . S
C840 C841 1.399 . S
C841 H827 0.929 . S
C841 C840 1.399 . S
C841 C842 1.385 . S
C842 H828 0.931 . S
C842 C841 1.385 . S
C842 C843 1.389 . S
C843 C842 1.389 . S
C843 C844 1.387 . S
C844 H829 0.930 . S
C844 C839 1.390 . S
C844 C843 1.387 . S
H845 C857 0.930 . S
H846 C859 0.930 . S
H847 C860 0.930 . S
H848 C864 0.959 . S
H849 C864 0.959 . S
H850 C864 0.961 . S
H851 C865 0.960 . S
H852 C865 0.961 . S
H853 C865 0.959 . S
H854 C868 0.929 . S
H855 C869 0.931 . S
H856 C871 0.930 . S
C857 H845 0.930 . S
C857 C858 1.399 . S
C857 C862 1.399 . S
C858 C857 1.399 . S
C858 C859 1.376 . S
C859 H846 0.930 . S
C859 C858 1.376 . S
C859 C860 1.388 . S
C860 H847 0.930 . S
C860 C859 1.388 . S
C860 C861 1.390 . S
C861 C860 1.390 . S
C861 C862 1.394 . S
C861 C867 1.465 . S
C862 C857 1.399 . S
C862 C861 1.394 . S
C862 C863 1.516 . S
C863 C862 1.516 . S
C863 C864 1.502 . S
C863 C865 1.561 . S
C863 C866 1.526 . S
C864 H848 0.959 . S
C864 H849 0.959 . S
C864 H850 0.961 . S
C864 C863 1.502 . S
C865 H851 0.960 . S
C865 H852 0.961 . S
C865 H853 0.959 . S
C865 C863 1.561 . S
C866 C863 1.526 . S
C866 C867 1.396 . S
C866 C871 1.390 . S
C867 C861 1.465 . S
C867 C866 1.396 . S
C867 C868 1.399 . S
C868 H854 0.929 . S
C868 C867 1.399 . S
C868 C869 1.385 . S
C869 H855 0.931 . S
C869 C868 1.385 . S
C869 C870 1.389 . S
C870 C869 1.389 . S
C870 C871 1.387 . S
C871 H856 0.930 . S
C871 C866 1.390 . S
C871 C870 1.387 . S
H872 C884 0.930 . S
H873 C886 0.930 . S
H874 C887 0.930 . S
H875 C891 0.959 . S
H876 C891 0.959 . S
H877 C891 0.961 . S
H878 C892 0.960 . S
H879 C892 0.961 . S
H880 C892 0.959 . S
H881 C895 0.929 . S
H882 C896 0.931 . S
H883 C898 0.930 . S
C884 H872 0.930 . S
C884 C885 1.399 . S
C884 C889 1.399 . S
C885 C884 1.399 . S
C885 C886 1.376 . S
C886 H873 0.930 . S
C886 C885 1.376 . S
C886 C887 1.388 . S
C887 H874 0.930 . S
C887 C886 1.388 . S
C887 C888 1.390 . S
C888 C887 1.390 . S
C888 C889 1.394 . S
C888 C894 1.465 . S
C889 C884 1.399 . S
C889 C888 1.394 . S
C889 C890 1.516 . S
C890 C889 1.516 . S
C890 C891 1.502 . S
C890 C892 1.561 . S
C890 C893 1.526 . S
C891 H875 0.959 . S
C891 H876 0.959 . S
C891 H877 0.961 . S
C891 C890 1.502 . S
C892 H878 0.960 . S
C892 H879 0.961 . S
C892 H880 0.959 . S
C892 C890 1.561 . S
C893 C890 1.526 . S
C893 C894 1.396 . S
C893 C898 1.390 . S
C894 C888 1.465 . S
C894 C893 1.396 . S
C894 C895 1.399 . S
C895 H881 0.929 . S
C895 C894 1.399 . S
C895 C896 1.385 . S
C896 H882 0.931 . S
C896 C895 1.385 . S
C896 C897 1.389 . S
C897 C896 1.389 . S
C897 C898 1.387 . S
C898 H883 0.930 . S
C898 C893 1.390 . S
C898 C897 1.387 . S
H899 C911 0.930 . S
H900 C913 0.930 . S
H901 C914 0.930 1_556 S
H902 C918 0.959 . S
H903 C918 0.959 . S
H904 C918 0.961 . S
H905 C919 0.960 . S
H906 C919 0.961 . S
H907 C919 0.959 . S
H908 C922 0.929 . S
H909 C923 0.931 . S
H910 C925 0.930 . S
C911 H899 0.930 . S
C911 C912 1.399 . S
C911 C916 1.399 . S
C912 C911 1.399 . S
C912 C913 1.376 . S
C913 H900 0.930 . S
C913 C912 1.376 . S
C913 C914 1.388 . S
C914 H901 0.930 1_554 S
C914 C913 1.388 . S
C914 C915 1.390 . S
C915 C914 1.390 . S
C915 C916 1.394 . S
C915 C921 1.465 . S
C916 C911 1.399 . S
C916 C915 1.394 . S
C916 C917 1.516 . S
C917 C916 1.516 . S
C917 C918 1.502 . S
C917 C919 1.561 . S
C917 C920 1.526 . S
C918 H902 0.959 . S
C918 H903 0.959 . S
C918 H904 0.961 . S
C918 C917 1.502 . S
C919 H905 0.960 . S
C919 H906 0.961 . S
C919 H907 0.959 . S
C919 C917 1.561 . S
C920 C917 1.526 . S
C920 C921 1.396 . S
C920 C925 1.390 . S
C921 C915 1.465 . S
C921 C920 1.396 . S
C921 C922 1.399 1_554 S
C922 H908 0.929 . S
C922 C921 1.399 1_556 S
C922 C923 1.385 . S
C923 H909 0.931 . S
C923 C922 1.385 . S
C923 C924 1.389 1_556 S
C924 C923 1.389 1_554 S
C924 C925 1.387 . S
C925 H910 0.930 . S
C925 C920 1.390 . S
C925 C924 1.387 . S
H926 C938 0.930 . S
H927 C940 0.930 . S
H928 C941 0.930 . S
H929 C945 0.959 . S
H930 C945 0.959 . S
H931 C945 0.961 . S
H932 C946 0.960 . S
H933 C946 0.961 . S
H934 C946 0.959 . S
H935 C949 0.929 . S
H936 C950 0.931 . S
H937 C952 0.930 . S
C938 H926 0.930 . S
C938 C939 1.399 . S
C938 C943 1.399 . S
C939 C938 1.399 . S
C939 C940 1.376 . S
C940 H927 0.930 . S
C940 C939 1.376 . S
C940 C941 1.388 . S
C941 H928 0.930 . S
C941 C940 1.388 . S
C941 C942 1.390 . S
C942 C941 1.390 . S
C942 C943 1.394 . S
C942 C948 1.465 . S
C943 C938 1.399 . S
C943 C942 1.394 . S
C943 C944 1.516 . S
C944 C943 1.516 . S
C944 C945 1.502 . S
C944 C946 1.561 . S
C944 C947 1.526 . S
C945 H929 0.959 . S
C945 H930 0.959 . S
C945 H931 0.961 . S
C945 C944 1.502 . S
C946 H932 0.960 . S
C946 H933 0.961 . S
C946 H934 0.959 . S
C946 C944 1.561 . S
C947 C944 1.526 . S
C947 C948 1.396 . S
C947 C952 1.390 . S
C948 C942 1.465 . S
C948 C947 1.396 . S
C948 C949 1.399 . S
C949 H935 0.929 . S
C949 C948 1.399 . S
C949 C950 1.385 . S
C950 H936 0.931 . S
C950 C949 1.385 . S
C950 C951 1.389 . S
C951 C950 1.389 . S
C951 C952 1.387 . S
C952 H937 0.930 . S
C952 C947 1.390 . S
C952 C951 1.387 . S
H953 C965 0.930 . S
H954 C967 0.930 . S
H955 C968 0.930 . S
H956 C972 0.959 . S
H957 C972 0.959 . S
H958 C972 0.961 . S
H959 C973 0.960 . S
H960 C973 0.961 . S
H961 C973 0.959 . S
H962 C976 0.929 . S
H963 C977 0.931 . S
H964 C979 0.930 . S
C965 H953 0.930 . S
C965 C966 1.399 . S
C965 C970 1.399 . S
C966 C965 1.399 . S
C966 C967 1.376 . S
C967 H954 0.930 . S
C967 C966 1.376 . S
C967 C968 1.388 . S
C968 H955 0.930 . S
C968 C967 1.388 . S
C968 C969 1.390 . S
C969 C968 1.390 . S
C969 C970 1.394 . S
C969 C975 1.465 . S
C970 C965 1.399 . S
C970 C969 1.394 . S
C970 C971 1.516 . S
C971 C970 1.516 . S
C971 C972 1.502 . S
C971 C973 1.561 . S
C971 C974 1.526 . S
C972 H956 0.959 . S
C972 H957 0.959 . S
C972 H958 0.961 . S
C972 C971 1.502 . S
C973 H959 0.960 . S
C973 H960 0.961 . S
C973 H961 0.959 . S
C973 C971 1.561 . S
C974 C971 1.526 . S
C974 C975 1.396 . S
C974 C979 1.390 . S
C975 C969 1.465 . S
C975 C974 1.396 . S
C975 C976 1.399 . S
C976 H962 0.929 . S
C976 C975 1.399 . S
C976 C977 1.385 . S
C977 H963 0.931 . S
C977 C976 1.385 . S
C977 C978 1.389 . S
C978 C977 1.389 . S
C978 C979 1.387 . S
C979 H964 0.930 . S
C979 C974 1.390 . S
C979 C978 1.387 . S
H980 C992 0.930 . S
H981 C994 0.930 . S
H982 C995 0.930 . S
H983 C999 0.959 . S
H984 C999 0.959 . S
H985 C999 0.961 . S
H986 C1000 0.960 . S
H987 C1000 0.961 . S
H988 C1000 0.959 . S
H989 C1003 0.929 . S
H990 C1004 0.931 . S
H991 C1006 0.930 . S
C992 H980 0.930 . S
C992 C993 1.399 . S
C992 C997 1.399 . S
C993 C992 1.399 . S
C993 C994 1.376 . S
C994 H981 0.930 . S
C994 C993 1.376 . S
C994 C995 1.388 . S
C995 H982 0.930 . S
C995 C994 1.388 . S
C995 C996 1.390 . S
C996 C995 1.390 . S
C996 C997 1.394 . S
C996 C1002 1.465 . S
C997 C992 1.399 . S
C997 C996 1.394 . S
C997 C998 1.516 . S
C998 C997 1.516 . S
C998 C999 1.502 . S
C998 C1000 1.561 . S
C998 C1001 1.526 . S
C999 H983 0.959 . S
C999 H984 0.959 . S
C999 H985 0.961 . S
C999 C998 1.502 . S
C1000 H986 0.960 . S
C1000 H987 0.961 . S
C1000 H988 0.959 . S
C1000 C998 1.561 . S
C1001 C998 1.526 . S
C1001 C1002 1.396 . S
C1001 C1006 1.390 . S
C1002 C996 1.465 . S
C1002 C1001 1.396 . S
C1002 C1003 1.399 . S
C1003 H989 0.929 . S
C1003 C1002 1.399 . S
C1003 C1004 1.385 . S
C1004 H990 0.931 . S
C1004 C1003 1.385 . S
C1004 C1005 1.389 . S
C1005 C1004 1.389 . S
C1005 C1006 1.387 . S
C1006 H991 0.930 . S
C1006 C1001 1.390 . S
C1006 C1005 1.387 . S
H1007 C1019 0.930 . S
H1008 C1021 0.930 . S
H1009 C1022 0.930 . S
H1010 C1026 0.959 . S
H1011 C1026 0.959 . S
H1012 C1026 0.961 . S
H1013 C1027 0.960 . S
H1014 C1027 0.961 . S
H1015 C1027 0.959 . S
H1016 C1030 0.929 . S
H1017 C1031 0.931 . S
H1018 C1033 0.930 . S
C1019 H1007 0.930 . S
C1019 C1020 1.399 . S
C1019 C1024 1.399 . S
C1020 C1019 1.399 . S
C1020 C1021 1.376 . S
C1021 H1008 0.930 . S
C1021 C1020 1.376 . S
C1021 C1022 1.388 . S
C1022 H1009 0.930 . S
C1022 C1021 1.388 . S
C1022 C1023 1.390 . S
C1023 C1022 1.390 . S
C1023 C1024 1.394 . S
C1023 C1029 1.465 . S
C1024 C1019 1.399 . S
C1024 C1023 1.394 . S
C1024 C1025 1.516 . S
C1025 C1024 1.516 . S
C1025 C1026 1.502 . S
C1025 C1027 1.561 . S
C1025 C1028 1.526 . S
C1026 H1010 0.959 . S
C1026 H1011 0.959 . S
C1026 H1012 0.961 . S
C1026 C1025 1.502 . S
C1027 H1013 0.960 . S
C1027 H1014 0.961 . S
C1027 H1015 0.959 . S
C1027 C1025 1.561 . S
C1028 C1025 1.526 . S
C1028 C1029 1.396 . S
C1028 C1033 1.390 . S
C1029 C1023 1.465 . S
C1029 C1028 1.396 . S
C1029 C1030 1.399 . S
C1030 H1016 0.929 . S
C1030 C1029 1.399 . S
C1030 C1031 1.385 . S
C1031 H1017 0.931 . S
C1031 C1030 1.385 . S
C1031 C1032 1.389 . S
C1032 C1031 1.389 . S
C1032 C1033 1.387 . S
C1033 H1018 0.930 . S
C1033 C1028 1.390 . S
C1033 C1032 1.387 . S
H1034 C1046 0.930 . S
H1035 C1048 0.930 . S
H1036 C1049 0.930 . S
H1037 C1053 0.959 . S
H1038 C1053 0.959 . S
H1039 C1053 0.961 . S
H1040 C1054 0.960 . S
H1041 C1054 0.961 . S
H1042 C1054 0.959 . S
H1043 C1057 0.929 . S
H1044 C1058 0.931 . S
H1045 C1060 0.930 . S
C1046 H1034 0.930 . S
C1046 C1047 1.399 . S
C1046 C1051 1.399 . S
C1047 C1046 1.399 . S
C1047 C1048 1.376 . S
C1048 H1035 0.930 . S
C1048 C1047 1.376 . S
C1048 C1049 1.388 . S
C1049 H1036 0.930 . S
C1049 C1048 1.388 . S
C1049 C1050 1.390 . S
C1050 C1049 1.390 . S
C1050 C1051 1.394 . S
C1050 C1056 1.465 . S
C1051 C1046 1.399 . S
C1051 C1050 1.394 . S
C1051 C1052 1.516 . S
C1052 C1051 1.516 . S
C1052 C1053 1.502 . S
C1052 C1054 1.561 . S
C1052 C1055 1.526 . S
C1053 H1037 0.959 . S
C1053 H1038 0.959 . S
C1053 H1039 0.961 . S
C1053 C1052 1.502 . S
C1054 H1040 0.960 . S
C1054 H1041 0.961 . S
C1054 H1042 0.959 . S
C1054 C1052 1.561 . S
C1055 C1052 1.526 . S
C1055 C1056 1.396 . S
C1055 C1060 1.390 . S
C1056 C1050 1.465 . S
C1056 C1055 1.396 . S
C1056 C1057 1.399 1_556 S
C1057 H1043 0.929 . S
C1057 C1056 1.399 1_554 S
C1057 C1058 1.385 . S
C1058 H1044 0.931 . S
C1058 C1057 1.385 . S
C1058 C1059 1.389 1_554 S
C1059 C1058 1.389 1_556 S
C1059 C1060 1.387 . S
C1060 H1045 0.930 . S
C1060 C1055 1.390 . S
C1060 C1059 1.387 . S
H1061 C1073 0.930 . S
H1062 C1075 0.930 . S
H1063 C1076 0.930 . S
H1064 C1080 0.959 . S
H1065 C1080 0.959 . S
H1066 C1080 0.961 . S
H1067 C1081 0.960 . S
H1068 C1081 0.961 . S
H1069 C1081 0.959 . S
H1070 C1084 0.929 . S
H1071 C1085 0.931 . S
H1072 C1087 0.930 . S
C1073 H1061 0.930 . S
C1073 C1074 1.399 . S
C1073 C1078 1.399 . S
C1074 C1073 1.399 . S
C1074 C1075 1.376 . S
C1075 H1062 0.930 . S
C1075 C1074 1.376 . S
C1075 C1076 1.388 . S
C1076 H1063 0.930 . S
C1076 C1075 1.388 . S
C1076 C1077 1.390 . S
C1077 C1076 1.390 . S
C1077 C1078 1.394 . S
C1077 C1083 1.465 . S
C1078 C1073 1.399 . S
C1078 C1077 1.394 . S
C1078 C1079 1.516 . S
C1079 C1078 1.516 . S
C1079 C1080 1.502 . S
C1079 C1081 1.561 . S
C1079 C1082 1.526 . S
C1080 H1064 0.959 . S
C1080 H1065 0.959 . S
C1080 H1066 0.961 . S
C1080 C1079 1.502 . S
C1081 H1067 0.960 . S
C1081 H1068 0.961 . S
C1081 H1069 0.959 . S
C1081 C1079 1.561 . S
C1082 C1079 1.526 . S
C1082 C1083 1.396 . S
C1082 C1087 1.390 . S
C1083 C1077 1.465 . S
C1083 C1082 1.396 . S
C1083 C1084 1.399 . S
C1084 H1070 0.929 . S
C1084 C1083 1.399 . S
C1084 C1085 1.385 . S
C1085 H1071 0.931 . S
C1085 C1084 1.385 . S
C1085 C1086 1.389 . S
C1086 C1085 1.389 . S
C1086 C1087 1.387 . S
C1087 H1072 0.930 . S
C1087 C1082 1.390 . S
C1087 C1086 1.387 . S
H1088 C1100 0.930 . S
H1089 C1102 0.930 . S
H1090 C1103 0.930 . S
H1091 C1107 0.959 . S
H1092 C1107 0.959 . S
H1093 C1107 0.961 . S
H1094 C1108 0.960 . S
H1095 C1108 0.961 . S
H1096 C1108 0.959 . S
H1097 C1111 0.929 . S
H1098 C1112 0.931 . S
H1099 C1114 0.930 . S
C1100 H1088 0.930 . S
C1100 C1101 1.399 . S
C1100 C1105 1.399 . S
C1101 C1100 1.399 . S
C1101 C1102 1.376 . S
C1102 H1089 0.930 . S
C1102 C1101 1.376 . S
C1102 C1103 1.388 . S
C1103 H1090 0.930 . S
C1103 C1102 1.388 . S
C1103 C1104 1.390 . S
C1104 C1103 1.390 . S
C1104 C1105 1.394 . S
C1104 C1110 1.465 . S
C1105 C1100 1.399 . S
C1105 C1104 1.394 . S
C1105 C1106 1.516 . S
C1106 C1105 1.516 . S
C1106 C1107 1.502 . S
C1106 C1108 1.561 . S
C1106 C1109 1.526 . S
C1107 H1091 0.959 . S
C1107 H1092 0.959 . S
C1107 H1093 0.961 . S
C1107 C1106 1.502 . S
C1108 H1094 0.960 . S
C1108 H1095 0.961 . S
C1108 H1096 0.959 . S
C1108 C1106 1.561 . S
C1109 C1106 1.526 . S
C1109 C1110 1.396 . S
C1109 C1114 1.390 . S
C1110 C1104 1.465 . S
C1110 C1109 1.396 . S
C1110 C1111 1.399 . S
C1111 H1097 0.929 . S
C1111 C1110 1.399 . S
C1111 C1112 1.385 . S
C1112 H1098 0.931 . S
C1112 C1111 1.385 . S
C1112 C1113 1.389 . S
C1113 C1112 1.389 . S
C1113 C1114 1.387 . S
C1114 H1099 0.930 . S
C1114 C1109 1.390 . S
C1114 C1113 1.387 . S
H1115 C1127 0.930 . S
H1116 C1129 0.930 . S
H1117 C1130 0.930 . S
H1118 C1134 0.959 . S
H1119 C1134 0.959 . S
H1120 C1134 0.961 . S
H1121 C1135 0.960 . S
H1122 C1135 0.961 . S
H1123 C1135 0.959 . S
H1124 C1138 0.929 . S
H1125 C1139 0.931 . S
H1126 C1141 0.930 . S
C1127 H1115 0.930 . S
C1127 C1128 1.399 . S
C1127 C1132 1.399 . S
C1128 C1127 1.399 . S
C1128 C1129 1.376 . S
C1129 H1116 0.930 . S
C1129 C1128 1.376 . S
C1129 C1130 1.388 . S
C1130 H1117 0.930 . S
C1130 C1129 1.388 . S
C1130 C1131 1.390 . S
C1131 C1130 1.390 . S
C1131 C1132 1.394 . S
C1131 C1137 1.465 . S
C1132 C1127 1.399 . S
C1132 C1131 1.394 . S
C1132 C1133 1.516 . S
C1133 C1132 1.516 . S
C1133 C1134 1.502 . S
C1133 C1135 1.561 . S
C1133 C1136 1.526 . S
C1134 H1118 0.959 . S
C1134 H1119 0.959 . S
C1134 H1120 0.961 . S
C1134 C1133 1.502 . S
C1135 H1121 0.960 . S
C1135 H1122 0.961 . S
C1135 H1123 0.959 . S
C1135 C1133 1.561 . S
C1136 C1133 1.526 . S
C1136 C1137 1.396 . S
C1136 C1141 1.390 . S
C1137 C1131 1.465 . S
C1137 C1136 1.396 . S
C1137 C1138 1.399 . S
C1138 H1124 0.929 . S
C1138 C1137 1.399 . S
C1138 C1139 1.385 . S
C1139 H1125 0.931 . S
C1139 C1138 1.385 . S
C1139 C1140 1.389 . S
C1140 C1139 1.389 . S
C1140 C1141 1.387 . S
C1141 H1126 0.930 . S
C1141 C1136 1.390 . S
C1141 C1140 1.387 . S
H1142 C1154 0.930 . S
H1143 C1156 0.930 . S
H1144 C1157 0.930 . S
H1145 C1161 0.959 . S
H1146 C1161 0.959 . S
H1147 C1161 0.961 . S
H1148 C1162 0.960 . S
H1149 C1162 0.961 . S
H1150 C1162 0.959 . S
H1151 C1165 0.929 . S
H1152 C1166 0.931 . S
H1153 C1168 0.930 . S
C1154 H1142 0.930 . S
C1154 C1155 1.399 . S
C1154 C1159 1.399 . S
C1155 C1154 1.399 . S
C1155 C1156 1.376 . S
C1156 H1143 0.930 . S
C1156 C1155 1.376 . S
C1156 C1157 1.388 . S
C1157 H1144 0.930 . S
C1157 C1156 1.388 . S
C1157 C1158 1.390 . S
C1158 C1157 1.390 . S
C1158 C1159 1.394 . S
C1158 C1164 1.465 . S
C1159 C1154 1.399 . S
C1159 C1158 1.394 . S
C1159 C1160 1.516 . S
C1160 C1159 1.516 . S
C1160 C1161 1.502 . S
C1160 C1162 1.561 . S
C1160 C1163 1.526 . S
C1161 H1145 0.959 . S
C1161 H1146 0.959 . S
C1161 H1147 0.961 . S
C1161 C1160 1.502 . S
C1162 H1148 0.960 . S
C1162 H1149 0.961 . S
C1162 H1150 0.959 . S
C1162 C1160 1.561 . S
C1163 C1160 1.526 . S
C1163 C1164 1.396 . S
C1163 C1168 1.390 . S
C1164 C1158 1.465 . S
C1164 C1163 1.396 . S
C1164 C1165 1.399 . S
C1165 H1151 0.929 . S
C1165 C1164 1.399 . S
C1165 C1166 1.385 . S
C1166 H1152 0.931 . S
C1166 C1165 1.385 . S
C1166 C1167 1.389 . S
C1167 C1166 1.389 . S
C1167 C1168 1.387 . S
C1168 H1153 0.930 . S
C1168 C1163 1.390 . S
C1168 C1167 1.387 . S
H1169 C1181 0.930 . S
H1170 C1183 0.930 . S
H1171 C1184 0.930 . S
H1172 C1188 0.959 . S
H1173 C1188 0.959 . S
H1174 C1188 0.961 . S
H1175 C1189 0.960 . S
H1176 C1189 0.961 . S
H1177 C1189 0.959 . S
H1178 C1192 0.929 . S
H1179 C1193 0.931 . S
H1180 C1195 0.930 . S
C1181 H1169 0.930 . S
C1181 C1182 1.399 . S
C1181 C1186 1.399 . S
C1182 C1181 1.399 . S
C1182 C1183 1.376 . S
C1183 H1170 0.930 . S
C1183 C1182 1.376 . S
C1183 C1184 1.388 . S
C1184 H1171 0.930 . S
C1184 C1183 1.388 . S
C1184 C1185 1.390 . S
C1185 C1184 1.390 . S
C1185 C1186 1.394 . S
C1185 C1191 1.465 . S
C1186 C1181 1.399 . S
C1186 C1185 1.394 . S
C1186 C1187 1.516 . S
C1187 C1186 1.516 . S
C1187 C1188 1.502 . S
C1187 C1189 1.561 . S
C1187 C1190 1.526 . S
C1188 H1172 0.959 . S
C1188 H1173 0.959 . S
C1188 H1174 0.961 . S
C1188 C1187 1.502 . S
C1189 H1175 0.960 . S
C1189 H1176 0.961 . S
C1189 H1177 0.959 . S
C1189 C1187 1.561 . S
C1190 C1187 1.526 . S
C1190 C1191 1.396 . S
C1190 C1195 1.390 . S
C1191 C1185 1.465 . S
C1191 C1190 1.396 . S
C1191 C1192 1.399 . S
C1192 H1178 0.929 . S
C1192 C1191 1.399 . S
C1192 C1193 1.385 . S
C1193 H1179 0.931 . S
C1193 C1192 1.385 . S
C1193 C1194 1.389 . S
C1194 C1193 1.389 . S
C1194 C1195 1.387 . S
C1195 H1180 0.930 . S
C1195 C1190 1.390 . S
C1195 C1194 1.387 . S
H1196 C1208 0.930 . S
H1197 C1210 0.930 . S
H1198 C1211 0.930 . S
H1199 C1215 0.959 . S
H1200 C1215 0.959 . S
H1201 C1215 0.961 . S
H1202 C1216 0.960 . S
H1203 C1216 0.961 . S
H1204 C1216 0.959 . S
H1205 C1219 0.929 . S
H1206 C1220 0.931 . S
H1207 C1222 0.930 . S
C1208 H1196 0.930 . S
C1208 C1209 1.399 . S
C1208 C1213 1.399 . S
C1209 C1208 1.399 . S
C1209 C1210 1.376 . S
C1210 H1197 0.930 . S
C1210 C1209 1.376 . S
C1210 C1211 1.388 . S
C1211 H1198 0.930 . S
C1211 C1210 1.388 . S
C1211 C1212 1.390 . S
C1212 C1211 1.390 . S
C1212 C1213 1.394 . S
C1212 C1218 1.465 . S
C1213 C1208 1.399 . S
C1213 C1212 1.394 . S
C1213 C1214 1.516 . S
C1214 C1213 1.516 . S
C1214 C1215 1.502 . S
C1214 C1216 1.561 . S
C1214 C1217 1.526 . S
C1215 H1199 0.959 . S
C1215 H1200 0.959 . S
C1215 H1201 0.961 . S
C1215 C1214 1.502 . S
C1216 H1202 0.960 . S
C1216 H1203 0.961 . S
C1216 H1204 0.959 . S
C1216 C1214 1.561 . S
C1217 C1214 1.526 . S
C1217 C1218 1.396 . S
C1217 C1222 1.390 . S
C1218 C1212 1.465 . S
C1218 C1217 1.396 . S
C1218 C1219 1.399 . S
C1219 H1205 0.929 . S
C1219 C1218 1.399 . S
C1219 C1220 1.385 . S
C1220 H1206 0.931 . S
C1220 C1219 1.385 . S
C1220 C1221 1.389 . S
C1221 C1220 1.389 . S
C1221 C1222 1.387 . S
C1222 H1207 0.930 . S
C1222 C1217 1.390 . S
C1222 C1221 1.387 . S
H1223 C1235 0.930 . S
H1224 C1237 0.930 . S
H1225 C1238 0.930 . S
H1226 C1242 0.959 . S
H1227 C1242 0.959 . S
H1228 C1242 0.961 . S
H1229 C1243 0.960 . S
H1230 C1243 0.961 . S
H1231 C1243 0.959 . S
H1232 C1246 0.929 . S
H1233 C1247 0.931 . S
H1234 C1249 0.930 . S
C1235 H1223 0.930 . S
C1235 C1236 1.399 . S
C1235 C1240 1.399 . S
C1236 C1235 1.399 . S
C1236 C1237 1.376 . S
C1237 H1224 0.930 . S
C1237 C1236 1.376 . S
C1237 C1238 1.388 . S
C1238 H1225 0.930 . S
C1238 C1237 1.388 . S
C1238 C1239 1.390 . S
C1239 C1238 1.390 . S
C1239 C1240 1.394 . S
C1239 C1245 1.465 . S
C1240 C1235 1.399 . S
C1240 C1239 1.394 . S
C1240 C1241 1.516 . S
C1241 C1240 1.516 . S
C1241 C1242 1.502 . S
C1241 C1243 1.561 . S
C1241 C1244 1.526 . S
C1242 H1226 0.959 . S
C1242 H1227 0.959 . S
C1242 H1228 0.961 . S
C1242 C1241 1.502 . S
C1243 H1229 0.960 . S
C1243 H1230 0.961 . S
C1243 H1231 0.959 . S
C1243 C1241 1.561 . S
C1244 C1241 1.526 . S
C1244 C1245 1.396 . S
C1244 C1249 1.390 . S
C1245 C1239 1.465 . S
C1245 C1244 1.396 . S
C1245 C1246 1.399 . S
C1246 H1232 0.929 . S
C1246 C1245 1.399 . S
C1246 C1247 1.385 . S
C1247 H1233 0.931 . S
C1247 C1246 1.385 . S
C1247 C1248 1.389 . S
C1248 C1247 1.389 . S
C1248 C1249 1.387 . S
C1249 H1234 0.930 . S
C1249 C1244 1.390 . S
C1249 C1248 1.387 . S
H1250 C1262 0.930 . S
H1251 C1264 0.930 . S
H1252 C1265 0.930 . S
H1253 C1269 0.959 . S
H1254 C1269 0.959 . S
H1255 C1269 0.961 . S
H1256 C1270 0.960 . S
H1257 C1270 0.961 . S
H1258 C1270 0.959 . S
H1259 C1273 0.929 . S
H1260 C1274 0.931 . S
H1261 C1276 0.930 . S
C1262 H1250 0.930 . S
C1262 C1263 1.399 . S
C1262 C1267 1.399 . S
C1263 C1262 1.399 . S
C1263 C1264 1.376 . S
C1264 H1251 0.930 . S
C1264 C1263 1.376 . S
C1264 C1265 1.388 . S
C1265 H1252 0.930 . S
C1265 C1264 1.388 . S
C1265 C1266 1.390 . S
C1266 C1265 1.390 . S
C1266 C1267 1.394 . S
C1266 C1272 1.465 . S
C1267 C1262 1.399 . S
C1267 C1266 1.394 . S
C1267 C1268 1.516 . S
C1268 C1267 1.516 . S
C1268 C1269 1.502 . S
C1268 C1270 1.561 . S
C1268 C1271 1.526 . S
C1269 H1253 0.959 . S
C1269 H1254 0.959 . S
C1269 H1255 0.961 . S
C1269 C1268 1.502 . S
C1270 H1256 0.960 . S
C1270 H1257 0.961 . S
C1270 H1258 0.959 . S
C1270 C1268 1.561 . S
C1271 C1268 1.526 . S
C1271 C1272 1.396 . S
C1271 C1276 1.390 . S
C1272 C1266 1.465 . S
C1272 C1271 1.396 . S
C1272 C1273 1.399 . S
C1273 H1259 0.929 . S
C1273 C1272 1.399 . S
C1273 C1274 1.385 . S
C1274 H1260 0.931 . S
C1274 C1273 1.385 . S
C1274 C1275 1.389 . S
C1275 C1274 1.389 . S
C1275 C1276 1.387 . S
C1276 H1261 0.930 . S
C1276 C1271 1.390 . S
C1276 C1275 1.387 . S
H1277 C1289 0.930 . S
H1278 C1291 0.930 . S
H1279 C1292 0.930 . S
H1280 C1296 0.959 . S
H1281 C1296 0.959 . S
H1282 C1296 0.961 . S
H1283 C1297 0.960 . S
H1284 C1297 0.961 . S
H1285 C1297 0.959 . S
H1286 C1300 0.929 . S
H1287 C1301 0.931 . S
H1288 C1303 0.930 . S
C1289 H1277 0.930 . S
C1289 C1290 1.399 . S
C1289 C1294 1.399 . S
C1290 C1289 1.399 . S
C1290 C1291 1.376 . S
C1291 H1278 0.930 . S
C1291 C1290 1.376 . S
C1291 C1292 1.388 . S
C1292 H1279 0.930 . S
C1292 C1291 1.388 . S
C1292 C1293 1.390 . S
C1293 C1292 1.390 . S
C1293 C1294 1.394 . S
C1293 C1299 1.465 . S
C1294 C1289 1.399 . S
C1294 C1293 1.394 . S
C1294 C1295 1.516 . S
C1295 C1294 1.516 . S
C1295 C1296 1.502 . S
C1295 C1297 1.561 . S
C1295 C1298 1.526 . S
C1296 H1280 0.959 . S
C1296 H1281 0.959 . S
C1296 H1282 0.961 . S
C1296 C1295 1.502 . S
C1297 H1283 0.960 . S
C1297 H1284 0.961 . S
C1297 H1285 0.959 . S
C1297 C1295 1.561 . S
C1298 C1295 1.526 . S
C1298 C1299 1.396 . S
C1298 C1303 1.390 . S
C1299 C1293 1.465 . S
C1299 C1298 1.396 . S
C1299 C1300 1.399 . S
C1300 H1286 0.929 . S
C1300 C1299 1.399 . S
C1300 C1301 1.385 . S
C1301 H1287 0.931 . S
C1301 C1300 1.385 . S
C1301 C1302 1.389 . S
C1302 C1301 1.389 . S
C1302 C1303 1.387 . S
C1303 H1288 0.930 . S
C1303 C1298 1.390 . S
C1303 C1302 1.387 . S
H1304 C1316 0.930 . S
H1305 C1318 0.930 . S
H1306 C1319 0.930 . S
H1307 C1323 0.959 . S
H1308 C1323 0.959 . S
H1309 C1323 0.961 . S
H1310 C1324 0.960 . S
H1311 C1324 0.961 . S
H1312 C1324 0.959 . S
H1313 C1327 0.929 . S
H1314 C1328 0.931 . S
H1315 C1330 0.930 . S
C1316 H1304 0.930 . S
C1316 C1317 1.399 . S
C1316 C1321 1.399 . S
C1317 C1316 1.399 . S
C1317 C1318 1.376 . S
C1318 H1305 0.930 . S
C1318 C1317 1.376 . S
C1318 C1319 1.388 . S
C1319 H1306 0.930 . S
C1319 C1318 1.388 . S
C1319 C1320 1.390 . S
C1320 C1319 1.390 . S
C1320 C1321 1.394 . S
C1320 C1326 1.465 . S
C1321 C1316 1.399 . S
C1321 C1320 1.394 . S
C1321 C1322 1.516 . S
C1322 C1321 1.516 . S
C1322 C1323 1.502 . S
C1322 C1324 1.561 . S
C1322 C1325 1.526 . S
C1323 H1307 0.959 . S
C1323 H1308 0.959 . S
C1323 H1309 0.961 . S
C1323 C1322 1.502 . S
C1324 H1310 0.960 . S
C1324 H1311 0.961 . S
C1324 H1312 0.959 . S
C1324 C1322 1.561 . S
C1325 C1322 1.526 . S
C1325 C1326 1.396 . S
C1325 C1330 1.390 . S
C1326 C1320 1.465 . S
C1326 C1325 1.396 . S
C1326 C1327 1.399 . S
C1327 H1313 0.929 . S
C1327 C1326 1.399 . S
C1327 C1328 1.385 . S
C1328 H1314 0.931 . S
C1328 C1327 1.385 . S
C1328 C1329 1.389 . S
C1329 C1328 1.389 . S
C1329 C1330 1.387 . S
C1330 H1315 0.930 . S
C1330 C1325 1.390 . S
C1330 C1329 1.387 . S
H1331 C1343 0.930 . S
H1332 C1345 0.930 . S
H1333 C1346 0.930 . S
H1334 C1350 0.959 . S
H1335 C1350 0.959 . S
H1336 C1350 0.961 . S
H1337 C1351 0.960 . S
H1338 C1351 0.961 . S
H1339 C1351 0.959 . S
H1340 C1354 0.929 . S
H1341 C1355 0.931 . S
H1342 C1357 0.930 . S
C1343 H1331 0.930 . S
C1343 C1344 1.399 . S
C1343 C1348 1.399 . S
C1344 C1343 1.399 . S
C1344 C1345 1.376 . S
C1345 H1332 0.930 . S
C1345 C1344 1.376 . S
C1345 C1346 1.388 . S
C1346 H1333 0.930 . S
C1346 C1345 1.388 . S
C1346 C1347 1.390 . S
C1347 C1346 1.390 . S
C1347 C1348 1.394 . S
C1347 C1353 1.465 . S
C1348 C1343 1.399 . S
C1348 C1347 1.394 . S
C1348 C1349 1.516 . S
C1349 C1348 1.516 . S
C1349 C1350 1.502 . S
C1349 C1351 1.561 . S
C1349 C1352 1.526 . S
C1350 H1334 0.959 . S
C1350 H1335 0.959 . S
C1350 H1336 0.961 . S
C1350 C1349 1.502 . S
C1351 H1337 0.960 . S
C1351 H1338 0.961 . S
C1351 H1339 0.959 . S
C1351 C1349 1.561 . S
C1352 C1349 1.526 . S
C1352 C1353 1.396 . S
C1352 C1357 1.390 . S
C1353 C1347 1.465 . S
C1353 C1352 1.396 . S
C1353 C1354 1.399 . S
C1354 H1340 0.929 . S
C1354 C1353 1.399 . S
C1354 C1355 1.385 . S
C1355 H1341 0.931 . S
C1355 C1354 1.385 . S
C1355 C1356 1.389 . S
C1356 C1355 1.389 . S
C1356 C1357 1.387 . S
C1357 H1342 0.930 . S
C1357 C1352 1.390 . S
C1357 C1356 1.387 . S
H1358 C1370 0.930 . S
H1359 C1372 0.930 . S
H1360 C1373 0.930 . S
H1361 C1377 0.959 . S
H1362 C1377 0.959 . S
H1363 C1377 0.961 . S
H1364 C1378 0.960 . S
H1365 C1378 0.961 . S
H1366 C1378 0.959 . S
H1367 C1381 0.929 . S
H1368 C1382 0.931 . S
H1369 C1384 0.930 . S
C1370 H1358 0.930 . S
C1370 C1371 1.399 . S
C1370 C1375 1.399 . S
C1371 C1370 1.399 . S
C1371 C1372 1.376 . S
C1372 H1359 0.930 . S
C1372 C1371 1.376 . S
C1372 C1373 1.388 . S
C1373 H1360 0.930 . S
C1373 C1372 1.388 . S
C1373 C1374 1.390 . S
C1374 C1373 1.390 . S
C1374 C1375 1.394 . S
C1374 C1380 1.465 . S
C1375 C1370 1.399 . S
C1375 C1374 1.394 . S
C1375 C1376 1.516 . S
C1376 C1375 1.516 . S
C1376 C1377 1.502 . S
C1376 C1378 1.561 . S
C1376 C1379 1.526 . S
C1377 H1361 0.959 . S
C1377 H1362 0.959 . S
C1377 H1363 0.961 . S
C1377 C1376 1.502 . S
C1378 H1364 0.960 . S
C1378 H1365 0.961 . S
C1378 H1366 0.959 . S
C1378 C1376 1.561 . S
C1379 C1376 1.526 . S
C1379 C1380 1.396 . S
C1379 C1384 1.390 . S
C1380 C1374 1.465 . S
C1380 C1379 1.396 . S
C1380 C1381 1.399 . S
C1381 H1367 0.929 . S
C1381 C1380 1.399 . S
C1381 C1382 1.385 . S
C1382 H1368 0.931 . S
C1382 C1381 1.385 . S
C1382 C1383 1.389 . S
C1383 C1382 1.389 . S
C1383 C1384 1.387 . S
C1384 H1369 0.930 . S
C1384 C1379 1.390 . S
C1384 C1383 1.387 . S
H1385 C1397 0.930 . S
H1386 C1399 0.930 . S
H1387 C1400 0.930 . S
H1388 C1404 0.959 . S
H1389 C1404 0.959 . S
H1390 C1404 0.961 . S
H1391 C1405 0.960 . S
H1392 C1405 0.961 . S
H1393 C1405 0.959 . S
H1394 C1408 0.929 . S
H1395 C1409 0.931 . S
H1396 C1411 0.930 . S
C1397 H1385 0.930 . S
C1397 C1398 1.399 . S
C1397 C1402 1.399 . S
C1398 C1397 1.399 . S
C1398 C1399 1.376 . S
C1399 H1386 0.930 . S
C1399 C1398 1.376 . S
C1399 C1400 1.388 . S
C1400 H1387 0.930 . S
C1400 C1399 1.388 . S
C1400 C1401 1.390 . S
C1401 C1400 1.390 . S
C1401 C1402 1.394 . S
C1401 C1407 1.465 . S
C1402 C1397 1.399 . S
C1402 C1401 1.394 . S
C1402 C1403 1.516 . S
C1403 C1402 1.516 . S
C1403 C1404 1.502 . S
C1403 C1405 1.561 . S
C1403 C1406 1.526 . S
C1404 H1388 0.959 . S
C1404 H1389 0.959 . S
C1404 H1390 0.961 . S
C1404 C1403 1.502 . S
C1405 H1391 0.960 . S
C1405 H1392 0.961 . S
C1405 H1393 0.959 . S
C1405 C1403 1.561 . S
C1406 C1403 1.526 . S
C1406 C1407 1.396 . S
C1406 C1411 1.390 . S
C1407 C1401 1.465 . S
C1407 C1406 1.396 . S
C1407 C1408 1.399 . S
C1408 H1394 0.929 . S
C1408 C1407 1.399 . S
C1408 C1409 1.385 . S
C1409 H1395 0.931 . S
C1409 C1408 1.385 . S
C1409 C1410 1.389 . S
C1410 C1409 1.389 . S
C1410 C1411 1.387 . S
C1411 H1396 0.930 . S
C1411 C1406 1.390 . S
C1411 C1410 1.387 . S
H1412 C1424 0.930 . S
H1413 C1426 0.930 . S
H1414 C1427 0.930 . S
H1415 C1431 0.959 . S
H1416 C1431 0.959 . S
H1417 C1431 0.961 . S
H1418 C1432 0.960 . S
H1419 C1432 0.961 . S
H1420 C1432 0.959 . S
H1421 C1435 0.929 . S
H1422 C1436 0.931 . S
H1423 C1438 0.930 . S
C1424 H1412 0.930 . S
C1424 C1425 1.399 . S
C1424 C1429 1.399 . S
C1425 C1424 1.399 . S
C1425 C1426 1.376 . S
C1426 H1413 0.930 . S
C1426 C1425 1.376 . S
C1426 C1427 1.388 . S
C1427 H1414 0.930 . S
C1427 C1426 1.388 . S
C1427 C1428 1.390 . S
C1428 C1427 1.390 . S
C1428 C1429 1.394 . S
C1428 C1434 1.465 . S
C1429 C1424 1.399 . S
C1429 C1428 1.394 . S
C1429 C1430 1.516 . S
C1430 C1429 1.516 . S
C1430 C1431 1.502 . S
C1430 C1432 1.561 . S
C1430 C1433 1.526 . S
C1431 H1415 0.959 . S
C1431 H1416 0.959 . S
C1431 H1417 0.961 . S
C1431 C1430 1.502 . S
C1432 H1418 0.960 . S
C1432 H1419 0.961 . S
C1432 H1420 0.959 . S
C1432 C1430 1.561 . S
C1433 C1430 1.526 . S
C1433 C1434 1.396 . S
C1433 C1438 1.390 . S
C1434 C1428 1.465 . S
C1434 C1433 1.396 . S
C1434 C1435 1.399 . S
C1435 H1421 0.929 . S
C1435 C1434 1.399 . S
C1435 C1436 1.385 . S
C1436 H1422 0.931 . S
C1436 C1435 1.385 . S
C1436 C1437 1.389 . S
C1437 C1436 1.389 . S
C1437 C1438 1.387 . S
C1438 H1423 0.930 . S
C1438 C1433 1.390 . S
C1438 C1437 1.387 . S
H1439 C1451 0.930 . S
H1440 C1453 0.930 . S
H1441 C1454 0.930 . S
H1442 C1458 0.959 . S
H1443 C1458 0.959 . S
H1444 C1458 0.961 . S
H1445 C1459 0.960 . S
H1446 C1459 0.961 . S
H1447 C1459 0.959 . S
H1448 C1462 0.929 . S
H1449 C1463 0.931 . S
H1450 C1465 0.930 . S
C1451 H1439 0.930 . S
C1451 C1452 1.399 . S
C1451 C1456 1.399 . S
C1452 C1451 1.399 . S
C1452 C1453 1.376 . S
C1453 H1440 0.930 . S
C1453 C1452 1.376 . S
C1453 C1454 1.388 . S
C1454 H1441 0.930 . S
C1454 C1453 1.388 . S
C1454 C1455 1.390 . S
C1455 C1454 1.390 . S
C1455 C1456 1.394 . S
C1455 C1461 1.465 . S
C1456 C1451 1.399 . S
C1456 C1455 1.394 . S
C1456 C1457 1.516 . S
C1457 C1456 1.516 . S
C1457 C1458 1.502 . S
C1457 C1459 1.561 . S
C1457 C1460 1.526 . S
C1458 H1442 0.959 . S
C1458 H1443 0.959 . S
C1458 H1444 0.961 . S
C1458 C1457 1.502 . S
C1459 H1445 0.960 . S
C1459 H1446 0.961 . S
C1459 H1447 0.959 . S
C1459 C1457 1.561 . S
C1460 C1457 1.526 . S
C1460 C1461 1.396 . S
C1460 C1465 1.390 . S
C1461 C1455 1.465 . S
C1461 C1460 1.396 . S
C1461 C1462 1.399 . S
C1462 H1448 0.929 . S
C1462 C1461 1.399 . S
C1462 C1463 1.385 . S
C1463 H1449 0.931 . S
C1463 C1462 1.385 . S
C1463 C1464 1.389 . S
C1464 C1463 1.389 . S
C1464 C1465 1.387 . S
C1465 H1450 0.930 . S
C1465 C1460 1.390 . S
C1465 C1464 1.387 . S
H1466 C1478 0.930 . S
H1467 C1480 0.930 . S
H1468 C1481 0.930 . S
H1469 C1485 0.959 . S
H1470 C1485 0.959 . S
H1471 C1485 0.961 . S
H1472 C1486 0.960 . S
H1473 C1486 0.961 . S
H1474 C1486 0.959 . S
H1475 C1489 0.929 . S
H1476 C1490 0.931 . S
H1477 C1492 0.930 . S
C1478 H1466 0.930 . S
C1478 C1479 1.399 . S
C1478 C1483 1.399 . S
C1479 C1478 1.399 . S
C1479 C1480 1.376 . S
C1480 H1467 0.930 . S
C1480 C1479 1.376 . S
C1480 C1481 1.388 . S
C1481 H1468 0.930 . S
C1481 C1480 1.388 . S
C1481 C1482 1.390 . S
C1482 C1481 1.390 . S
C1482 C1483 1.394 . S
C1482 C1488 1.465 . S
C1483 C1478 1.399 . S
C1483 C1482 1.394 . S
C1483 C1484 1.516 . S
C1484 C1483 1.516 . S
C1484 C1485 1.502 . S
C1484 C1486 1.561 . S
C1484 C1487 1.526 . S
C1485 H1469 0.959 . S
C1485 H1470 0.959 . S
C1485 H1471 0.961 . S
C1485 C1484 1.502 . S
C1486 H1472 0.960 . S
C1486 H1473 0.961 . S
C1486 H1474 0.959 . S
C1486 C1484 1.561 . S
C1487 C1484 1.526 . S
C1487 C1488 1.396 . S
C1487 C1492 1.390 . S
C1488 C1482 1.465 . S
C1488 C1487 1.396 . S
C1488 C1489 1.399 . S
C1489 H1475 0.929 . S
C1489 C1488 1.399 . S
C1489 C1490 1.385 . S
C1490 H1476 0.931 . S
C1490 C1489 1.385 . S
C1490 C1491 1.389 . S
C1491 C1490 1.389 . S
C1491 C1492 1.387 . S
C1492 H1477 0.930 . S
C1492 C1487 1.390 . S
C1492 C1491 1.387 . S
H1493 C1505 0.930 . S
H1494 C1507 0.930 . S
H1495 C1508 0.930 . S
H1496 C1512 0.959 . S
H1497 C1512 0.959 . S
H1498 C1512 0.961 . S
H1499 C1513 0.960 . S
H1500 C1513 0.961 . S
H1501 C1513 0.959 . S
H1502 C1516 0.929 . S
H1503 C1517 0.931 . S
H1504 C1519 0.930 . S
C1505 H1493 0.930 . S
C1505 C1506 1.399 . S
C1505 C1510 1.399 . S
C1506 C1505 1.399 . S
C1506 C1507 1.376 . S
C1507 H1494 0.930 . S
C1507 C1506 1.376 . S
C1507 C1508 1.388 . S
C1508 H1495 0.930 . S
C1508 C1507 1.388 . S
C1508 C1509 1.390 . S
C1509 C1508 1.390 . S
C1509 C1510 1.394 . S
C1509 C1515 1.465 . S
C1510 C1505 1.399 . S
C1510 C1509 1.394 . S
C1510 C1511 1.516 . S
C1511 C1510 1.516 . S
C1511 C1512 1.502 . S
C1511 C1513 1.561 . S
C1511 C1514 1.526 . S
C1512 H1496 0.959 . S
C1512 H1497 0.959 . S
C1512 H1498 0.961 . S
C1512 C1511 1.502 . S
C1513 H1499 0.960 . S
C1513 H1500 0.961 . S
C1513 H1501 0.959 . S
C1513 C1511 1.561 . S
C1514 C1511 1.526 . S
C1514 C1515 1.396 . S
C1514 C1519 1.390 . S
C1515 C1509 1.465 . S
C1515 C1514 1.396 . S
C1515 C1516 1.399 . S
C1516 H1502 0.929 . S
C1516 C1515 1.399 . S
C1516 C1517 1.385 . S
C1517 H1503 0.931 . S
C1517 C1516 1.385 . S
C1517 C1518 1.389 . S
C1518 C1517 1.389 . S
C1518 C1519 1.387 . S
C1519 H1504 0.930 . S
C1519 C1514 1.390 . S
C1519 C1518 1.387 . S
C681 C407 1.296 . S
C669 C8 1.314 . S
C708 C444 1.306 . S
C696 C61 1.312 . S
C735 C480 1.334 . S
C723 C107 1.271 . S
C750 C139 1.259 . S
C762 C371 1.319 . S
C777 C192 1.263 . S
C789 C372 1.330 . S
C804 C238 1.270 . S
C816 C408 1.266 . S
C843 C443 1.299 . S
C831 C284 1.318 . S
C870 C479 1.328 . S
C858 C330 1.322 . S
C885 C100 1.311 . S
C897 C551 1.312 . S
C924 C588 1.295 . S
C912 C160 1.322 . S
C939 C15 1.335 . S
C951 C624 1.307 . S
C978 C515 1.320 . S
C966 C54 1.331 . S
C993 C291 1.256 . S
C1005 C516 1.290 . S
C1020 C337 1.289 . S
C1032 C552 1.320 . S
C1059 C587 1.317 . S
C1047 C199 1.298 . S
C1074 C245 1.327 . S
C1086 C623 1.318 . S
C1113 C442 1.657 . S
C1101 C1 1.628 . S
C1140 C478 1.619 . S
C1128 C68 1.630 . S
C1155 C114 1.596 . S
C1167 C382 1.398 . S
C1182 C146 1.616 . S
C1194 C418 1.440 . S
C1209 C185 1.606 . S
C1221 C490 1.455 . S
C1248 C370 1.638 . S
C1236 C231 1.627 . S
C1275 C406 1.633 . S
C1263 C277 1.662 . S
C1302 C454 1.526 . S
C1290 C323 1.601 . S
C1329 C586 1.644 . S
C1317 C93 1.648 . S
C1356 C622 1.621 . S
C1344 C153 1.646 . S
C1371 C22 1.605 . S
C1383 C526 1.412 . S
C1410 C562 1.428 . S
C1398 C47 1.608 . S
C1437 C634 1.502 . S
C1425 C298 1.569 . S
C1452 C344 1.624 . S
C1464 C514 1.621 . S
C1491 C550 1.631 . S
C1479 C206 1.648 . S
C1518 C598 1.482 . S
C1506 C252 1.601 . S
