# Generated by pormake.
# Topology anh, (6,3)-cn, num edge types: 1
# Building blocks:
#     Node 0, Type 0, BuildingBlock: NUHQIS_clean_sbu_0, # of connection points: 6
#     Node 1, Type 0, BuildingBlock: NUHQIS_clean_sbu_0, # of connection points: 6
#     Node 2, Type 0, BuildingBlock: NUHQIS_clean_sbu_0, # of connection points: 6
#     Node 3, Type 1, BuildingBlock: ESEHIV_clean_linker_0, # of connection points: 3
#     Node 4, Type 1, BuildingBlock: ESEHIV_clean_linker_0, # of connection points: 3
#     Node 5, Type 1, BuildingBlock: ESEHIV_clean_linker_0, # of connection points: 3
#     Node 6, Type 1, BuildingBlock: ESEHIV_clean_linker_0, # of connection points: 3
#     Node 7, Type 1, BuildingBlock: ESEHIV_clean_linker_0, # of connection points: 3
#     Node 8, Type 1, BuildingBlock: ESEHIV_clean_linker_0, # of connection points: 3
#     Edge 9, Type (0, 1), BuildingBlock: XIVTED_clean_linker_0, # of connection points: 2
#     Edge 10, Type (0, 1), BuildingBlock: XIVTED_clean_linker_0, # of connection points: 2
#     Edge 11, Type (0, 1), BuildingBlock: XIVTED_clean_linker_0, # of connection points: 2
#     Edge 12, Type (0, 1), BuildingBlock: XIVTED_clean_linker_0, # of connection points: 2
#     Edge 13, Type (0, 1), BuildingBlock: XIVTED_clean_linker_0, # of connection points: 2
#     Edge 14, Type (0, 1), BuildingBlock: XIVTED_clean_linker_0, # of connection points: 2
#     Edge 15, Type (0, 1), BuildingBlock: XIVTED_clean_linker_0, # of connection points: 2
#     Edge 16, Type (0, 1), BuildingBlock: XIVTED_clean_linker_0, # of connection points: 2
#     Edge 17, Type (0, 1), BuildingBlock: XIVTED_clean_linker_0, # of connection points: 2
#     Edge 18, Type (0, 1), BuildingBlock: XIVTED_clean_linker_0, # of connection points: 2
#     Edge 19, Type (0, 1), BuildingBlock: XIVTED_clean_linker_0, # of connection points: 2
#     Edge 20, Type (0, 1), BuildingBlock: XIVTED_clean_linker_0, # of connection points: 2
#     Edge 21, Type (0, 1), BuildingBlock: XIVTED_clean_linker_0, # of connection points: 2
#     Edge 22, Type (0, 1), BuildingBlock: XIVTED_clean_linker_0, # of connection points: 2
#     Edge 23, Type (0, 1), BuildingBlock: XIVTED_clean_linker_0, # of connection points: 2
#     Edge 24, Type (0, 1), BuildingBlock: XIVTED_clean_linker_0, # of connection points: 2
#     Edge 25, Type (0, 1), BuildingBlock: XIVTED_clean_linker_0, # of connection points: 2
#     Edge 26, Type (0, 1), BuildingBlock: XIVTED_clean_linker_0, # of connection points: 2
# Relax obj value: 0.304
# Max RMSD: 0.198
# Mean RMSD: 0.163
data_MOF--net-anh--node1-NUHQIS_clean_sbu_0--node2-ESEHIV_clean_linker_0--edge1-XIVTED_clean_linker_0
_symmetry_space_group_name_H-M    P1
_symmetry_Int_Tables_number       1
_symmetry_cell_setting            triclinic
loop_
_symmetry_equiv_pos_as_xyz
'x, y, z'
_cell_length_a     27.960783
_cell_length_b     28.022968
_cell_length_c     53.604923
_cell_angle_alpha  90.541788
_cell_angle_beta   92.186188
_cell_angle_gamma 120.10673
loop_
_atom_site_label
_atom_site_type_symbol
_atom_site_fract_x
_atom_site_fract_y
_atom_site_fract_z
_atom_type_partial_charge
Tb0 Tb 0.21775 0.64001 0.15039 0.0
Eu1 Eu 0.1454 0.69801 0.14019 0.0
C2 C 0.17618 0.67961 0.19433 0.0
C3 C 1.08521 0.56464 0.14943 0.0
C4 C 0.33031 0.61137 0.16991 0.0
C5 C 0.38583 0.58863 0.19777 0.0
C6 C 0.33544 0.58537 0.19124 0.0
C7 C 0.37782 0.64673 0.15729 0.0
C8 C 0.4278 0.6492 0.16351 0.0
C9 C 0.43102 0.61616 0.18243 0.0
C10 C 0.2749 0.59522 0.15913 0.0
O11 O 0.19019 0.624 0.11048 0.0
O12 O 0.18392 0.70077 0.10389 0.0
O13 O 0.23292 0.77034 0.15055 0.0
O14 O 0.28337 0.72665 0.14669 0.0
C15 C 0.18925 0.66003 0.09512 0.0
O16 O 1.08519 0.70947 0.11794 0.0
O17 O 1.11936 0.75523 0.15312 0.0
O18 O 0.13453 0.67027 0.17929 0.0
O19 O 0.2201 0.6813 0.18559 0.0
O20 O 0.13388 0.57307 0.15776 0.0
O21 O 1.08126 0.60459 0.13829 0.0
C22 C 0.28122 0.77229 0.15008 0.0
O23 O 0.23933 0.59421 0.17439 0.0
O24 O 0.27226 0.61565 0.1377 0.0
C25 C 1.02278 0.7107 0.14515 0.0
C26 C 0.91471 0.62512 0.15237 0.0
C27 C 0.92502 0.66205 0.13294 0.0
C28 C 0.97893 0.70447 0.12927 0.0
C29 C 1.01108 0.67875 0.16656 0.0
C30 C 0.95741 0.63619 0.17013 0.0
C31 C 1.07909 0.73733 0.13601 0.0
H32 H 0.38748 0.56467 0.21316 0.0
H33 H 0.29952 0.55899 0.20168 0.0
H34 H 0.37553 0.66868 0.14118 0.0
H35 H 0.46151 0.67179 0.15135 0.0
H36 H 0.89285 0.6542 0.11886 0.0
H37 H 0.98707 0.72834 0.11257 0.0
H38 H 1.04409 0.68254 0.17914 0.0
H39 H 0.95043 0.60842 0.18527 0.0
Tb40 Tb 0.74158 0.16022 0.48308 0.0
Eu41 Eu 0.61046 1.08676 0.47529 0.0
C42 C 0.66572 0.11361 0.52802 0.0
C43 C 0.68626 1.02767 0.4823 0.0
C44 C 0.86484 0.28861 0.4926 0.0
C45 C 0.899 0.37045 0.46807 0.0
C46 C 0.89882 0.32207 0.47407 0.0
C47 C 0.83835 0.30894 0.50773 0.0
C48 C 0.8393 0.35791 0.50196 0.0
C49 C 0.86606 0.38643 0.48086 0.0
C50 C 0.84273 0.22865 0.49014 0.0
O51 O 0.7251 0.13717 0.44282 0.0
O52 O 0.63892 0.12651 0.43861 0.0
O53 O 0.62643 0.17235 0.48787 0.0
O54 O 0.71628 0.22287 0.47711 0.0
C55 C 0.68438 0.13492 0.42862 0.0
O56 O 0.53491 1.02443 0.45544 0.0
O57 O 0.53027 1.06492 0.48934 0.0
O58 O 0.63393 1.07191 0.51307 0.0
O59 O 0.70525 0.15886 0.51886 0.0
O60 O 0.72886 1.07654 0.48937 0.0
O61 O 0.63994 1.02366 0.47278 0.0
C62 C 0.67041 0.22068 0.48404 0.0
O63 O 0.81202 0.19872 0.50785 0.0
O64 O 0.81956 0.20767 0.46819 0.0
C65 C 0.46886 0.97044 0.48413 0.0
C66 C 0.40023 0.86618 0.50351 0.0
C67 C 0.38001 0.90236 0.49851 0.0
C68 C 0.41409 0.95403 0.48886 0.0
C69 C 0.49045 0.9362 0.49058 0.0
C70 C 0.45623 0.88419 0.50006 0.0
C71 C 0.50379 1.02391 0.47317 0.0
H72 H 0.92101 0.3928 0.45203 0.0
H73 H 0.91963 0.30743 0.46219 0.0
H74 H 0.81179 0.28416 0.52221 0.0
H75 H 0.81431 0.37006 0.51227 0.0
H76 H 0.33681 0.88947 0.50046 0.0
H77 H 0.39721 0.98047 0.48438 0.0
H78 H 0.53329 0.94903 0.48761 0.0
H79 H 0.47285 0.85722 0.5037 0.0
Tb80 Tb 0.71418 0.67997 0.81548 0.0
Eu81 Eu 0.65595 0.54992 0.80868 0.0
C82 C 0.69407 0.60494 0.86087 0.0
C83 C 0.79216 0.62578 0.81492 0.0
C84 C 0.70734 0.80186 0.82269 0.0
C85 C 0.65687 0.83391 0.79685 0.0
C86 C 0.70577 0.83404 0.80315 0.0
C87 C 0.66197 0.77663 0.8382 0.0
C88 C 0.61332 0.77746 0.83214 0.0
C89 C 0.60942 0.80271 0.81037 0.0
C90 C 0.74585 0.78051 0.82137 0.0
O91 O 0.72107 0.66336 0.7758 0.0
O92 O 0.64394 0.57849 0.77128 0.0
O93 O 0.58872 0.56652 0.82248 0.0
O94 O 0.6255 0.65413 0.80899 0.0
C95 C 0.68231 0.62318 0.76134 0.0
O96 O 0.64022 0.47381 0.78991 0.0
O97 O 0.59719 0.47062 0.82337 0.0
O98 O 0.70136 0.57336 0.84553 0.0
O99 O 0.68497 0.64316 0.85184 0.0
O100 O 0.78665 0.66846 0.82151 0.0
O101 O 0.7486 0.57908 0.80628 0.0
C102 C 0.5832 0.60955 0.81755 0.0
O103 O 0.746 0.7502 0.83964 0.0
O104 O 0.74352 0.75751 0.79979 0.0
C105 C 0.62856 0.40824 0.81965 0.0
C106 C 0.6643 0.33909 0.84027 0.0
C107 C 0.6077 0.31895 0.83425 0.0
C108 C 0.59005 0.35329 0.82396 0.0
C109 C 0.68446 0.42976 0.82727 0.0
C110 C 0.70231 0.39529 0.83738 0.0
C111 C 0.61017 0.4434 0.8078 0.0
H112 H 0.65479 0.85459 0.78021 0.0
H113 H 0.74002 0.8538 0.79094 0.0
H114 H 0.66174 0.75139 0.85342 0.0
H115 H 0.57728 0.75382 0.84297 0.0
H116 H 0.57738 0.27564 0.83576 0.0
H117 H 0.54665 0.33648 0.81861 0.0
H118 H 0.71452 0.47273 0.82463 0.0
H119 H 0.74604 0.41184 0.84181 0.0
H120 H 0.61545 0.09093 0.23493 0.0
H121 H 0.77445 0.23845 0.23868 0.0
H122 H 0.69063 0.16807 0.16682 0.0
C123 C 0.6494 0.12396 0.22553 0.0
C124 C 0.64638 0.1242 0.19926 0.0
C125 C 0.69556 0.16431 0.23988 0.0
C126 C 0.74001 0.20644 0.22746 0.0
C127 C 0.73991 0.2093 0.20106 0.0
C128 C 0.69218 0.1673 0.18701 0.0
H129 H 0.69348 0.71055 0.56865 0.0
H130 H 0.6804 0.5514 0.56902 0.0
H131 H 0.68226 0.62648 0.49874 0.0
C132 C 0.69078 0.67564 0.55843 0.0
C133 C 0.689 0.67536 0.53205 0.0
C134 C 0.68698 0.63109 0.57191 0.0
C135 C 0.68193 0.58507 0.55861 0.0
C136 C 0.68027 0.58194 0.53224 0.0
C137 C 0.68374 0.62781 0.51895 0.0
H138 H 1.12273 0.63639 0.90122 0.0
H139 H 0.26957 0.62395 0.90517 0.0
H140 H 0.19236 0.62108 0.83319 0.0
C141 C 0.15454 0.63292 0.8918 0.0
C142 C 0.15169 0.62942 0.8655 0.0
C143 C 0.19639 0.63071 0.90628 0.0
C144 C 0.23672 0.62446 0.894 0.0
C145 C 0.23682 0.62115 0.8676 0.0
C146 C 0.19351 0.62363 0.85338 0.0
H147 H 1.0058 0.66803 0.36 0.0
H148 H 0.16149 0.69208 0.39046 0.0
H149 H 1.02626 0.64594 0.43798 0.0
C150 C 1.03224 0.67047 0.37586 0.0
C151 C 1.01091 0.65962 0.39974 0.0
C152 C 1.08638 0.68113 0.37229 0.0
C153 C 1.11915 0.68178 0.39299 0.0
C154 C 1.09786 0.66953 0.41684 0.0
C155 C 1.04391 0.6586 0.41992 0.0
H156 H 0.60804 0.11204 0.7216 0.0
H157 H 0.47745 0.95747 0.68949 0.0
H158 H 0.51162 0.97788 0.76879 0.0
C159 C 0.5748 1.07012 0.7238 0.0
C160 C 0.56276 1.0489 0.74779 0.0
C161 C 0.54445 1.0376 0.70258 0.0
C162 C 0.49988 0.98382 0.70569 0.0
C163 C 0.48667 0.96242 0.72963 0.0
C164 C 0.51862 0.99537 0.75044 0.0
H165 H 0.5509 0.48776 0.04204 0.0
H166 H 0.64249 0.40629 0.02527 0.0
H167 H 0.58935 0.40666 0.09944 0.0
C168 C 0.568 0.46201 0.04749 0.0
C169 C 0.56565 0.44667 0.07235 0.0
C170 C 0.59515 0.44716 0.03017 0.0
C171 C 0.61867 0.41514 0.03805 0.0
C172 C 0.61754 0.40045 0.06318 0.0
C173 C 0.58814 0.41416 0.07971 0.0
H174 H 0.41629 0.51334 0.19148 0.0
H175 H 0.60405 0.55646 0.07944 0.0
H176 H 0.53992 0.67479 0.16846 0.0
H177 H 0.49821 0.39836 0.11093 0.0
H178 H 0.59027 0.60183 0.11535 0.0
H179 H 0.46144 0.47312 0.1693 0.0
C180 C 0.45411 0.54104 0.18258 0.0
C181 C 0.47218 0.59757 0.1806 0.0
C182 C 0.57018 0.55723 0.11447 0.0
C183 C 0.52262 0.55062 0.15405 0.0
C184 C 0.57705 0.53133 0.09374 0.0
C185 C 0.55105 0.47361 0.09202 0.0
C186 C 0.53677 0.5251 0.13352 0.0
C187 C 0.51821 0.44296 0.11144 0.0
C188 C 0.47949 0.51753 0.16945 0.0
C189 C 0.52241 0.63056 0.16919 0.0
N190 N 0.51168 0.46909 0.13131 0.0
N191 N 0.5447 0.60637 0.15541 0.0
H192 H 0.87597 0.48123 0.50192 0.0
H193 H 0.92164 0.5804 0.37184 0.0
H194 H 0.82236 0.37991 0.43435 0.0
H195 H 0.96314 0.68753 0.43693 0.0
H196 H 0.84188 0.51002 0.39221 0.0
H197 H 0.86915 0.55351 0.47927 0.0
C198 C 0.86187 0.474 0.48243 0.0
C199 C 0.85274 0.42633 0.46949 0.0
C200 C 0.86719 0.54956 0.4019 0.0
C201 C 0.84432 0.50772 0.44359 0.0
C202 C 0.91256 0.59033 0.39 0.0
C203 C 0.9514 0.63798 0.40361 0.0
C204 C 0.86305 0.55635 0.42766 0.0
C205 C 0.93587 0.64939 0.42654 0.0
C206 C 0.85744 0.51489 0.46952 0.0
C207 C 0.83258 0.41764 0.44456 0.0
N208 N 0.89452 0.60754 0.4386 0.0
N209 N 0.83008 0.45836 0.43229 0.0
H210 H 0.56205 0.75005 0.76615 0.0
H211 H 0.4098 0.91297 0.7654 0.0
H212 H 0.5332 0.82545 0.82982 0.0
H213 H 0.47842 0.87457 0.7029 0.0
H214 H 0.40129 0.8323 0.78632 0.0
H215 H 0.48317 0.74713 0.74353 0.0
C216 C 0.53824 0.76511 0.77547 0.0
C217 C 0.55515 0.79025 0.79937 0.0
C218 C 0.41567 0.83994 0.7675 0.0
C219 C 0.46605 0.78827 0.7735 0.0
C220 C 0.42027 0.88587 0.75545 0.0
C221 C 0.44909 0.90274 0.73335 0.0
C222 C 0.4395 0.8112 0.75698 0.0
C223 C 0.45897 0.86486 0.72066 0.0
C224 C 0.49295 0.76292 0.76269 0.0
C225 C 0.52222 0.80741 0.81106 0.0
N226 N 0.45629 0.82177 0.73312 0.0
N227 N 0.48005 0.80773 0.79769 0.0
H228 H 0.91448 0.52878 0.15244 0.0
H229 H 0.7236 0.43706 0.04849 0.0
H230 H 0.80509 0.59465 0.14467 0.0
H231 H 0.61119 0.3376 0.10416 0.0
H232 H 0.79943 0.46938 0.07938 0.0
H233 H 0.84237 0.44169 0.13235 0.0
C234 C 0.87436 0.52383 0.14766 0.0
C235 C 0.86591 0.56903 0.14971 0.0
C236 C 0.75832 0.43866 0.08456 0.0
C237 C 0.78327 0.4694 0.12823 0.0
C238 C 0.71455 0.41951 0.06678 0.0
C239 C 0.65987 0.38822 0.07428 0.0
C240 C 0.7468 0.42684 0.10966 0.0
C241 C 0.65242 0.36542 0.09814 0.0
C242 C 0.83345 0.47417 0.13643 0.0
C243 C 0.81335 0.56092 0.14319 0.0
N244 N 0.69486 0.38856 0.11571 0.0
N245 N 0.77409 0.51212 0.13235 0.0
H246 H 0.39586 0.7768 0.48032 0.0
H247 H 1.09818 0.70074 0.46565 0.0
H248 H 0.31186 0.82036 0.5339 0.0
H249 H 0.17429 0.63467 0.41831 0.0
H250 H 0.1635 0.71268 0.4994 0.0
H251 H 0.30942 0.69322 0.46898 0.0
C252 C 0.35975 0.7676 0.49059 0.0
C253 C 0.36004 0.80717 0.50694 0.0
C254 C 0.16544 0.6945 0.48182 0.0
C255 C 0.26067 0.7131 0.49316 0.0
C256 C 1.12787 0.68761 0.46238 0.0
C257 C 1.13195 0.6687 0.43864 0.0
C258 C 0.20887 0.68456 0.47728 0.0
C259 C 0.17134 0.65217 0.43587 0.0
C260 C 0.30997 0.71986 0.48389 0.0
C261 C 0.31245 0.79215 0.52013 0.0
N262 N 0.20926 0.66192 0.45474 0.0
N263 N 0.26389 0.74724 0.51223 0.0
H264 H 0.62197 0.24819 0.86967 0.0
H265 H 0.67539 0.12033 0.75255 0.0
H266 H 0.74941 0.33721 0.81792 0.0
H267 H 0.52749 1.05181 0.79449 0.0
H268 H 0.72675 0.184 0.78785 0.0
H269 H 0.6185 0.163 0.8563 0.0
C270 C 0.65104 0.25023 0.85633 0.0
C271 C 0.68342 0.29893 0.84368 0.0
C272 C 0.68339 0.15387 0.7895 0.0
C273 C 0.67866 0.20223 0.82794 0.0
C274 C 0.65379 0.11822 0.76922 0.0
C275 C 0.59651 1.08204 0.77016 0.0
C276 C 0.65542 0.15345 0.81077 0.0
C277 C 0.57136 1.07938 0.79267 0.0
C278 C 0.64888 0.20155 0.84859 0.0
C279 C 0.72194 0.29994 0.82736 0.0
N280 N 0.60075 0.11531 0.81188 0.0
N281 N 0.71695 0.25168 0.81912 0.0
H282 H 0.77057 1.01694 0.50569 0.0
H283 H 0.61763 0.68229 0.49593 0.0
H284 H 0.6084 0.91731 0.46993 0.0
H285 H 0.76652 0.78513 0.54093 0.0
H286 H 0.61721 0.76625 0.4823 0.0
H287 H 0.77302 0.93265 0.51499 0.0
C288 C 0.73547 0.97753 0.49955 0.0
C289 C 0.68925 0.97536 0.48683 0.0
C290 C 0.65036 0.77054 0.49495 0.0
C291 C 0.69186 0.87654 0.49767 0.0
C292 C 0.65095 0.72236 0.50255 0.0
C293 C 0.69243 0.72584 0.51958 0.0
C294 C 0.69181 0.82337 0.50418 0.0
C295 C 0.73368 0.77966 0.52777 0.0
C296 C 0.73687 0.92895 0.50499 0.0
C297 C 0.64519 0.92197 0.47968 0.0
N298 N 0.73225 0.8255 0.52011 0.0
N299 N 0.6476 0.87528 0.48514 0.0
H300 H 0.89099 0.71179 0.83563 0.0
H301 H 1.06735 0.55366 0.83217 0.0
H302 H 0.82207 0.54641 0.80484 0.0
H303 H 1.12411 0.71038 0.87001 0.0
H304 H 0.98166 0.55306 0.81814 0.0
H305 H 0.97889 0.71439 0.84475 0.0
C306 C 0.89412 0.676 0.83055 0.0
C307 C 0.84799 0.62885 0.81927 0.0
C308 C 1.01318 0.58798 0.82924 0.0
C309 C 0.95065 0.63158 0.82995 0.0
C310 C 1.06267 0.58865 0.83702 0.0
C311 C 1.10409 0.63248 0.85216 0.0
C312 C 1.00444 0.63159 0.83646 0.0
C313 C 1.0941 0.67582 0.85826 0.0
C314 C 0.94477 0.6775 0.83587 0.0
C315 C 0.85585 0.58393 0.81343 0.0
N316 N 1.04598 0.67418 0.85054 0.0
N317 N 0.90559 0.58641 0.8188 0.0
H318 H 0.29723 0.87461 0.16546 0.0
H319 H 0.63296 1.0379 0.168 0.0
H320 H 0.38978 0.79625 0.14519 0.0
H321 H 0.53922 0.1019 0.20238 0.0
H322 H 0.5453 0.954 0.15447 0.0
H323 H 0.38484 0.96121 0.17434 0.0
C324 C 0.33576 0.8754 0.16265 0.0
C325 C 0.3351 0.82708 0.15446 0.0
C326 C 0.54378 0.98673 0.16464 0.0
C327 C 0.43734 0.92793 0.16468 0.0
C328 C 0.59406 1.03518 0.1721 0.0
C329 C 0.59409 1.07813 0.18601 0.0
C330 C 0.49241 0.98062 0.17095 0.0
C331 C 0.54174 1.0707 0.19138 0.0
C332 C 0.38615 0.92522 0.16784 0.0
C333 C 0.38736 0.83179 0.15143 0.0
N334 N 0.49368 1.02351 0.18392 0.0
N335 N 0.43574 0.88076 0.15645 0.0
H336 H 0.5955 0.23661 0.51013 0.0
H337 H 0.74369 0.56884 0.49618 0.0
H338 H 0.74128 0.32707 0.46837 0.0
H339 H 0.60494 0.4737 0.54152 0.0
H340 H 0.74071 0.48243 0.4829 0.0
H341 H 0.59575 0.32276 0.51905 0.0
C342 C 0.62765 0.2745 0.50269 0.0
C343 C 0.66887 0.27381 0.48859 0.0
C344 C 0.71059 0.48039 0.49559 0.0
C345 C 0.66946 0.37475 0.49893 0.0
C346 C 0.71188 0.52995 0.50299 0.0
C347 C 0.67436 0.52943 0.52005 0.0
C348 C 0.67129 0.42918 0.50512 0.0
C349 C 0.63491 0.477 0.52843 0.0
C350 C 0.62788 0.32417 0.5079 0.0
C351 C 0.70921 0.32519 0.47964 0.0
N352 N 0.63459 0.42987 0.52103 0.0
N353 N 0.7086 0.37307 0.48493 0.0
H354 H 0.49834 0.53882 0.84703 0.0
H355 H 0.30612 0.67883 0.82884 0.0
H356 H 0.54353 0.67725 0.80009 0.0
H357 H 0.27618 0.55164 0.88082 0.0
H358 H 0.38833 0.67576 0.81541 0.0
H359 H 0.41384 0.53975 0.85689 0.0
C360 C 0.49062 0.56947 0.83863 0.0
C361 C 0.52929 0.60843 0.82276 0.0
C362 C 0.36351 0.64819 0.82962 0.0
C363 C 0.43054 0.60976 0.83418 0.0
C364 C 0.31598 0.64958 0.83718 0.0
C365 C 0.28323 0.61546 0.85614 0.0
C366 C 0.37879 0.61193 0.84081 0.0
C367 C 0.29962 0.57915 0.86631 0.0
C368 C 0.44202 0.57011 0.84439 0.0
C369 C 0.51586 0.64693 0.81267 0.0
N370 N 0.34549 0.57846 0.85863 0.0
N371 N 0.46818 0.6467 0.81849 0.0
H372 H 1.07439 0.48867 0.18427 0.0
H373 H 0.74603 0.27307 0.15965 0.0
H374 H 0.97803 0.51289 0.12652 0.0
H375 H 0.85095 0.25654 0.21572 0.0
H376 H 0.82821 0.35599 0.14509 0.0
H377 H 0.99254 0.40189 0.19419 0.0
C378 C 1.0361 0.47586 0.17348 0.0
C379 C 1.03394 0.50952 0.15458 0.0
C380 C 0.83321 0.33443 0.16066 0.0
C381 C 0.93772 0.40762 0.1661 0.0
C382 C 0.78605 0.28629 0.16887 0.0
C383 C 0.79027 0.25709 0.18939 0.0
C384 C 0.88575 0.35436 0.17295 0.0
C385 C 0.8442 0.2775 0.20032 0.0
C386 C 0.98885 0.4258 0.17927 0.0
C387 C 0.98223 0.48935 0.14147 0.0
N388 N 0.88884 0.32424 0.19218 0.0
N389 N 0.93661 0.44025 0.14746 0.0
H390 H 0.20485 0.58417 0.06814 0.0
H391 H 0.17747 0.70097 0.93491 0.0
H392 H 0.17952 0.72273 0.05851 0.0
H393 H 0.2188 0.57253 0.94202 0.0
H394 H 0.17627 0.70706 0.98028 0.0
H395 H 0.20841 0.57685 0.0225 0.0
C396 C 0.20002 0.61304 0.05653 0.0
C397 C 0.19184 0.65415 0.06742 0.0
C398 C 0.1857 0.6775 0.97202 0.0
C399 C 0.19579 0.64589 0.01497 0.0
C400 C 0.1861 0.67377 0.94597 0.0
C401 C 0.19791 0.63589 0.93435 0.0
C402 C 0.19697 0.64299 -0.01302 0.0
C403 C 0.20981 0.60262 0.95 0.0
C404 C 0.20215 0.60887 0.03043 0.0
C405 C 0.18596 0.69034 0.05122 0.0
N406 N 0.20877 0.60674 0.97541 0.0
N407 N 0.18793 0.68526 0.02603 0.0
H408 H 0.60395 0.12444 0.39459 0.0
H409 H 0.78298 0.18485 0.27295 0.0
H410 H 0.77236 0.15751 0.39885 0.0
H411 H 0.6108 0.13916 0.27124 0.0
H412 H 0.78242 0.17885 0.31867 0.0
H413 H 0.6082 0.13283 0.34953 0.0
C414 C 0.64205 0.13351 0.38612 0.0
C415 C 0.68789 0.14017 0.40083 0.0
C416 C 0.7448 0.17014 0.30827 0.0
C417 C 0.693 0.15005 0.34844 0.0
C418 C 0.74513 0.17389 0.28212 0.0
C419 C 0.69678 0.16231 0.26796 0.0
C420 C 0.69585 0.15502 0.32057 0.0
C421 C 0.64893 0.1477 0.28109 0.0
C422 C 0.64437 0.13828 0.36019 0.0
C423 C 0.7359 0.1519 0.3884 0.0
N424 N 0.64976 0.14456 0.30645 0.0
N425 N 0.73722 0.15651 0.36299 0.0
H426 H 0.61264 0.5435 0.72668 0.0
H427 H 0.75137 0.71792 0.60549 0.0
H428 H 0.75304 0.70895 0.73189 0.0
H429 H 0.62323 0.54655 0.60283 0.0
H430 H 0.75062 0.71788 0.65129 0.0
H431 H 0.6141 0.54648 0.68131 0.0
C432 C 0.64385 0.58068 0.71835 0.0
C433 C 0.68287 0.62605 0.73341 0.0
C434 C 0.72273 0.68029 0.64068 0.0
C435 C 0.68468 0.62966 0.68076 0.0
C436 C 0.72288 0.68031 0.61445 0.0
C437 C 0.68738 0.63209 0.60003 0.0
C438 C 0.68651 0.63181 0.65278 0.0
C439 C 0.65193 0.58456 0.61295 0.0
C440 C 0.64467 0.58226 0.69228 0.0
C441 C 0.72215 0.6729 0.72119 0.0
N442 N 0.65236 0.58572 0.6384 0.0
N443 N 0.72203 0.6735 0.69566 0.0
H444 H 0.73045 0.17422 0.56943 0.0
H445 H 0.47932 1.02294 0.66033 0.0
H446 H 0.56488 1.04711 0.54583 0.0
H447 H 0.65044 0.09873 0.68692 0.0
H448 H 0.50983 1.04934 0.61804 0.0
H449 H 0.70121 0.16389 0.61285 0.0
C450 C 0.6881 0.14451 0.57337 0.0
C451 C 0.65029 0.11092 0.55415 0.0
C452 C 0.54067 1.06055 0.6332 0.0
C453 C 0.61658 0.09972 0.60316 0.0
C454 C 0.52327 1.04528 0.65732 0.0
C455 C 0.56226 1.05807 0.67721 0.0
C456 C 0.59748 0.08899 0.6289 0.0
C457 C 0.61882 0.08832 0.67223 0.0
C458 C 0.67149 0.1386 0.59803 0.0
C459 C 0.59574 1.07323 0.56012 0.0
N460 N 0.63476 0.10248 0.64852 0.0
N461 N 0.5806 1.0687 0.58404 0.0
H462 H 0.71215 0.52836 0.88292 0.0
H463 H 0.61896 0.5517 0.01763 0.0
H464 H 0.65657 0.64374 0.8987 0.0
H465 H 0.59861 0.40011 -0.01441 0.0
H466 H 0.64401 0.59367 0.97698 0.0
H467 H 0.68627 0.49106 0.92401 0.0
C468 C 0.69493 0.54634 0.89512 0.0
C469 C 0.68593 0.58897 0.8872 0.0
C470 C 0.63357 0.55111 0.9789 0.0
C471 C 0.65611 0.54592 0.93448 0.0
C472 C 0.61872 0.52676 0.00203 0.0
C473 C 0.60627 0.47189 0.00512 0.0
C474 C 0.63715 0.52087 0.95886 0.0
C475 C 0.60852 0.44259 -0.01573 0.0
C476 C 0.67983 0.52462 0.91855 0.0
C477 C 0.66405 0.6108 0.90404 0.0
N478 N 0.62412 0.4676 0.9621 0.0
N479 N 0.64967 0.58887 0.927 0.0
H480 H 1.11709 0.72136 0.21436 0.0
H481 H 0.14878 0.64054 0.35286 0.0
H482 H 0.22646 0.65979 0.23488 0.0
H483 H 1.07228 0.73708 0.33357 0.0
H484 H 0.17975 0.64865 0.31038 0.0
H485 H 1.1022 0.72888 0.25824 0.0
C486 C 0.13819 0.70959 0.2282 0.0
C487 C 0.17251 0.68925 0.22104 0.0
C488 C 0.15669 0.66851 0.31552 0.0
C489 C 0.15542 0.69754 0.27144 0.0
C490 C 0.13912 0.66414 0.33982 0.0
C491 C 1.10769 0.68812 0.34684 0.0
C492 C 0.14227 0.69656 0.29799 0.0
C493 C 1.09558 0.71718 0.32892 0.0
C494 C 1.12986 0.71416 0.25328 0.0
C495 C 0.19958 0.67554 0.23971 0.0
N496 N 1.11258 0.72026 0.30531 0.0
N497 N 0.18986 0.67923 0.26415 0.0
loop_
_geom_bond_atom_site_label_1
_geom_bond_atom_site_label_2
_geom_bond_distance
_geom_bond_site_symmetry_2
_ccdc_geom_bond_type
Tb0 C10 2.825 . S
Tb0 O11 2.347 . S
Tb0 O14 2.366 . S
Tb0 O19 2.418 . S
Tb0 O20 2.384 1_455 S
Tb0 O23 2.479 . S
Tb0 O24 2.471 . S
Eu1 O12 2.418 . S
Eu1 O13 2.384 1_655 S
Eu1 O16 2.479 . S
Eu1 O17 2.471 . S
Eu1 O18 2.347 1_655 S
Eu1 O21 2.366 . S
Eu1 C31 2.825 . S
C2 O18 1.259 . S
C2 O19 1.265 . S
C3 O20 1.255 . S
C3 O21 1.265 . S
C4 C6 1.380 . S
C4 C7 1.374 . S
C4 C10 1.507 . S
C5 C6 1.384 . S
C5 C9 1.387 . S
C5 H32 0.930 . S
C6 C4 1.380 . S
C6 C5 1.384 . S
C6 H33 0.931 . S
C7 C4 1.374 . S
C7 C8 1.390 . S
C7 H34 0.930 . S
C8 C7 1.390 . S
C8 C9 1.391 . S
C8 H35 0.930 . S
C9 C5 1.387 . S
C9 C8 1.391 . S
C10 Tb0 2.825 . S
C10 C4 1.507 . S
C10 O23 1.238 . S
C10 O24 1.247 . S
O11 Tb0 2.347 . S
O11 C15 1.259 . S
O12 Eu1 2.418 . S
O12 C15 1.265 1_655 S
O13 Eu1 2.384 1_455 S
O13 C22 1.255 . S
O14 Tb0 2.366 . S
O14 C22 1.265 . S
C15 O11 1.259 . S
C15 O12 1.265 1_455 S
O16 Eu1 2.479 . S
O16 C31 1.238 . S
O17 Eu1 2.471 . S
O17 C31 1.247 . S
O18 Eu1 2.347 1_455 S
O18 C2 1.259 . S
O19 Tb0 2.418 . S
O19 C2 1.265 . S
O20 Tb0 2.384 1_655 S
O20 C3 1.255 . S
O21 Eu1 2.366 . S
O21 C3 1.265 . S
C22 O13 1.255 . S
C22 O14 1.265 . S
O23 Tb0 2.479 . S
O23 C10 1.238 . S
O24 Tb0 2.471 . S
O24 C10 1.247 . S
C25 C28 1.380 . S
C25 C29 1.374 . S
C25 C31 1.507 . S
C26 C27 1.387 . S
C26 C30 1.391 . S
C27 C26 1.387 . S
C27 C28 1.384 . S
C27 H36 0.930 . S
C28 C25 1.380 . S
C28 C27 1.384 . S
C28 H37 0.931 . S
C29 C25 1.374 . S
C29 C30 1.390 . S
C29 H38 0.930 . S
C30 C26 1.391 . S
C30 C29 1.390 . S
C30 H39 0.930 . S
C31 Eu1 2.825 . S
C31 O16 1.238 . S
C31 O17 1.247 . S
C31 C25 1.507 . S
H32 C5 0.930 . S
H33 C6 0.931 . S
H34 C7 0.930 . S
H35 C8 0.930 . S
H36 C27 0.930 . S
H37 C28 0.931 . S
H38 C29 0.930 . S
H39 C30 0.930 . S
Tb40 C50 2.825 . S
Tb40 O51 2.347 . S
Tb40 O54 2.366 . S
Tb40 O59 2.418 . S
Tb40 O60 2.384 1_545 S
Tb40 O63 2.479 . S
Tb40 O64 2.471 . S
Eu41 O52 2.418 . S
Eu41 O53 2.384 . S
Eu41 O56 2.479 1_545 S
Eu41 O57 2.471 1_545 S
Eu41 O58 2.347 . S
Eu41 O61 2.366 1_545 S
Eu41 C71 2.825 1_545 S
C42 O58 1.259 . S
C42 O59 1.265 . S
C43 O60 1.255 . S
C43 O61 1.265 . S
C44 C46 1.380 . S
C44 C47 1.374 . S
C44 C50 1.507 . S
C45 C46 1.384 . S
C45 C49 1.387 . S
C45 H72 0.930 . S
C46 C44 1.380 . S
C46 C45 1.384 . S
C46 H73 0.931 . S
C47 C44 1.374 . S
C47 C48 1.390 . S
C47 H74 0.930 . S
C48 C47 1.390 . S
C48 C49 1.391 . S
C48 H75 0.930 . S
C49 C45 1.387 . S
C49 C48 1.391 . S
C50 Tb40 2.825 . S
C50 C44 1.507 . S
C50 O63 1.238 . S
C50 O64 1.247 . S
O51 Tb40 2.347 . S
O51 C55 1.259 . S
O52 Eu41 2.418 . S
O52 C55 1.265 . S
O53 Eu41 2.384 . S
O53 C62 1.255 . S
O54 Tb40 2.366 . S
O54 C62 1.265 . S
C55 O51 1.259 . S
C55 O52 1.265 . S
O56 Eu41 2.479 1_565 S
O56 C71 1.238 . S
O57 Eu41 2.471 1_565 S
O57 C71 1.247 . S
O58 Eu41 2.347 . S
O58 C42 1.259 . S
O59 Tb40 2.418 . S
O59 C42 1.265 . S
O60 Tb40 2.384 1_565 S
O60 C43 1.255 . S
O61 Eu41 2.366 1_565 S
O61 C43 1.265 . S
C62 O53 1.255 . S
C62 O54 1.265 . S
O63 Tb40 2.479 . S
O63 C50 1.238 . S
O64 Tb40 2.471 . S
O64 C50 1.247 . S
C65 C68 1.380 . S
C65 C69 1.374 . S
C65 C71 1.507 . S
C66 C67 1.387 . S
C66 C70 1.391 . S
C67 C66 1.387 . S
C67 C68 1.384 . S
C67 H76 0.930 . S
C68 C65 1.380 . S
C68 C67 1.384 . S
C68 H77 0.931 . S
C69 C65 1.374 . S
C69 C70 1.390 . S
C69 H78 0.930 . S
C70 C66 1.391 . S
C70 C69 1.390 . S
C70 H79 0.930 . S
C71 Eu41 2.825 1_565 S
C71 O56 1.238 . S
C71 O57 1.247 . S
C71 C65 1.507 . S
H72 C45 0.930 . S
H73 C46 0.931 . S
H74 C47 0.930 . S
H75 C48 0.930 . S
H76 C67 0.930 . S
H77 C68 0.931 . S
H78 C69 0.930 . S
H79 C70 0.930 . S
Tb80 C90 2.825 . S
Tb80 O91 2.347 . S
Tb80 O94 2.366 . S
Tb80 O99 2.418 . S
Tb80 O100 2.384 . S
Tb80 O103 2.479 . S
Tb80 O104 2.471 . S
Eu81 O92 2.418 . S
Eu81 O93 2.384 . S
Eu81 O96 2.479 . S
Eu81 O97 2.471 . S
Eu81 O98 2.347 . S
Eu81 O101 2.366 . S
Eu81 C111 2.825 . S
C82 O98 1.259 . S
C82 O99 1.265 . S
C83 O100 1.255 . S
C83 O101 1.265 . S
C84 C86 1.380 . S
C84 C87 1.374 . S
C84 C90 1.507 . S
C85 C86 1.384 . S
C85 C89 1.387 . S
C85 H112 0.930 . S
C86 C84 1.380 . S
C86 C85 1.384 . S
C86 H113 0.931 . S
C87 C84 1.374 . S
C87 C88 1.390 . S
C87 H114 0.930 . S
C88 C87 1.390 . S
C88 C89 1.391 . S
C88 H115 0.930 . S
C89 C85 1.387 . S
C89 C88 1.391 . S
C90 Tb80 2.825 . S
C90 C84 1.507 . S
C90 O103 1.238 . S
C90 O104 1.247 . S
O91 Tb80 2.347 . S
O91 C95 1.259 . S
O92 Eu81 2.418 . S
O92 C95 1.265 . S
O93 Eu81 2.384 . S
O93 C102 1.255 . S
O94 Tb80 2.366 . S
O94 C102 1.265 . S
C95 O91 1.259 . S
C95 O92 1.265 . S
O96 Eu81 2.479 . S
O96 C111 1.238 . S
O97 Eu81 2.471 . S
O97 C111 1.247 . S
O98 Eu81 2.347 . S
O98 C82 1.259 . S
O99 Tb80 2.418 . S
O99 C82 1.265 . S
O100 Tb80 2.384 . S
O100 C83 1.255 . S
O101 Eu81 2.366 . S
O101 C83 1.265 . S
C102 O93 1.255 . S
C102 O94 1.265 . S
O103 Tb80 2.479 . S
O103 C90 1.238 . S
O104 Tb80 2.471 . S
O104 C90 1.247 . S
C105 C108 1.380 . S
C105 C109 1.374 . S
C105 C111 1.507 . S
C106 C107 1.387 . S
C106 C110 1.391 . S
C107 C106 1.387 . S
C107 C108 1.384 . S
C107 H116 0.930 . S
C108 C105 1.380 . S
C108 C107 1.384 . S
C108 H117 0.931 . S
C109 C105 1.374 . S
C109 C110 1.390 . S
C109 H118 0.930 . S
C110 C106 1.391 . S
C110 C109 1.390 . S
C110 H119 0.930 . S
C111 Eu81 2.825 . S
C111 O96 1.238 . S
C111 O97 1.247 . S
C111 C105 1.507 . S
H112 C85 0.930 . S
H113 C86 0.931 . S
H114 C87 0.930 . S
H115 C88 0.930 . S
H116 C107 0.930 . S
H117 C108 0.931 . S
H118 C109 0.930 . S
H119 C110 0.930 . S
H120 C123 0.931 . S
H121 C126 0.928 . S
H122 C128 0.930 . S
C123 H120 0.931 . S
C123 C124 1.413 . S
C123 C125 1.360 1_565 S
C124 C123 1.413 . S
C124 C128 1.429 1_565 S
C125 C123 1.360 1_545 S
C125 C126 1.372 . S
C126 H121 0.928 . S
C126 C125 1.372 . S
C126 C127 1.404 . S
C127 C126 1.404 . S
C127 C128 1.391 . S
C128 H122 0.930 . S
C128 C124 1.429 1_545 S
C128 C127 1.391 . S
H129 C132 0.931 . S
H130 C135 0.928 . S
H131 C137 0.930 . S
C132 H129 0.931 . S
C132 C133 1.413 . S
C132 C134 1.360 . S
C133 C132 1.413 . S
C133 C137 1.429 . S
C134 C132 1.360 . S
C134 C135 1.372 . S
C135 H130 0.928 . S
C135 C134 1.372 . S
C135 C136 1.404 . S
C136 C135 1.404 . S
C136 C137 1.391 . S
C137 H131 0.930 . S
C137 C133 1.429 . S
C137 C136 1.391 . S
H138 C141 0.931 . S
H139 C144 0.928 . S
H140 C146 0.930 . S
C141 H138 0.931 . S
C141 C142 1.413 . S
C141 C143 1.360 1_655 S
C142 C141 1.413 . S
C142 C146 1.429 1_655 S
C143 C141 1.360 1_455 S
C143 C144 1.372 . S
C144 H139 0.928 . S
C144 C143 1.372 . S
C144 C145 1.404 . S
C145 C144 1.404 . S
C145 C146 1.391 . S
C146 H140 0.930 . S
C146 C142 1.429 1_455 S
C146 C145 1.391 . S
H147 C150 0.931 . S
H148 C153 0.928 . S
H149 C155 0.930 . S
C150 H147 0.931 . S
C150 C151 1.413 . S
C150 C152 1.360 1_655 S
C151 C150 1.413 . S
C151 C155 1.429 1_655 S
C152 C150 1.360 1_455 S
C152 C153 1.372 . S
C153 H148 0.928 . S
C153 C152 1.372 . S
C153 C154 1.404 . S
C154 C153 1.404 . S
C154 C155 1.391 . S
C155 H149 0.930 . S
C155 C151 1.429 1_455 S
C155 C154 1.391 . S
H156 C159 0.931 . S
H157 C162 0.928 . S
H158 C164 0.931 . S
C159 H156 0.931 . S
C159 C160 1.413 . S
C159 C161 1.382 . S
C160 C159 1.413 . S
C160 C164 1.406 1_545 S
C161 C159 1.382 . S
C161 C162 1.349 1_545 S
C162 H157 0.928 . S
C162 C161 1.349 1_565 S
C162 C163 1.404 . S
C163 C162 1.404 . S
C163 C164 1.414 . S
C164 H158 0.931 . S
C164 C160 1.406 1_565 S
C164 C163 1.414 . S
H165 C168 0.931 . S
H166 C171 0.928 . S
H167 C173 0.930 . S
C168 H165 0.931 . S
C168 C169 1.413 . S
C168 C170 1.360 . S
C169 C168 1.413 . S
C169 C173 1.429 . S
C170 C168 1.360 . S
C170 C171 1.372 . S
C171 H166 0.928 . S
C171 C170 1.372 . S
C171 C172 1.404 . S
C172 C171 1.404 . S
C172 C173 1.391 . S
C173 H167 0.930 . S
C173 C169 1.429 . S
C173 C172 1.391 . S
H174 C180 0.930 . S
H175 C184 0.930 . S
H176 C189 0.929 . S
H177 C187 0.929 . S
H178 C182 0.929 . S
H179 C188 0.929 . S
C180 H174 0.930 . S
C180 C181 1.367 . S
C180 C188 1.378 . S
C181 C180 1.367 . S
C181 C189 1.433 . S
C182 H178 0.929 . S
C182 C184 1.378 . S
C182 C186 1.350 . S
C183 C186 1.463 . S
C183 C188 1.350 . S
C183 N191 1.427 . S
C184 H175 0.930 . S
C184 C182 1.378 . S
C184 C185 1.367 . S
C185 C184 1.367 . S
C185 C187 1.433 . S
C186 C182 1.350 . S
C186 C183 1.463 . S
C186 N190 1.427 . S
C187 H177 0.929 . S
C187 C185 1.433 . S
C187 N190 1.384 . S
C188 H179 0.929 . S
C188 C180 1.378 . S
C188 C183 1.350 . S
C189 H176 0.929 . S
C189 C181 1.433 . S
C189 N191 1.384 . S
N190 C186 1.427 . S
N190 C187 1.384 . S
N191 C183 1.427 . S
N191 C189 1.384 . S
H192 C198 0.930 . S
H193 C202 0.930 . S
H194 C207 0.929 . S
H195 C205 0.929 . S
H196 C200 0.929 . S
H197 C206 0.929 . S
C198 H192 0.930 . S
C198 C199 1.367 . S
C198 C206 1.378 . S
C199 C198 1.367 . S
C199 C207 1.433 . S
C200 H196 0.929 . S
C200 C202 1.378 . S
C200 C204 1.350 . S
C201 C204 1.463 . S
C201 C206 1.350 . S
C201 N209 1.427 . S
C202 H193 0.930 . S
C202 C200 1.378 . S
C202 C203 1.367 . S
C203 C202 1.367 . S
C203 C205 1.433 . S
C204 C200 1.350 . S
C204 C201 1.463 . S
C204 N208 1.427 . S
C205 H195 0.929 . S
C205 C203 1.433 . S
C205 N208 1.384 . S
C206 H197 0.929 . S
C206 C198 1.378 . S
C206 C201 1.350 . S
C207 H194 0.929 . S
C207 C199 1.433 . S
C207 N209 1.384 . S
N208 C204 1.427 . S
N208 C205 1.384 . S
N209 C201 1.427 . S
N209 C207 1.384 . S
H210 C216 0.930 . S
H211 C220 0.930 . S
H212 C225 0.929 . S
H213 C223 0.929 . S
H214 C218 0.929 . S
H215 C224 0.929 . S
C216 H210 0.930 . S
C216 C217 1.367 . S
C216 C224 1.378 . S
C217 C216 1.367 . S
C217 C225 1.433 . S
C218 H214 0.929 . S
C218 C220 1.378 . S
C218 C222 1.350 . S
C219 C222 1.463 . S
C219 C224 1.350 . S
C219 N227 1.427 . S
C220 H211 0.930 . S
C220 C218 1.378 . S
C220 C221 1.367 . S
C221 C220 1.367 . S
C221 C223 1.433 . S
C222 C218 1.350 . S
C222 C219 1.463 . S
C222 N226 1.427 . S
C223 H213 0.929 . S
C223 C221 1.433 . S
C223 N226 1.384 . S
C224 H215 0.929 . S
C224 C216 1.378 . S
C224 C219 1.350 . S
C225 H212 0.929 . S
C225 C217 1.433 . S
C225 N227 1.384 . S
N226 C222 1.427 . S
N226 C223 1.384 . S
N227 C219 1.427 . S
N227 C225 1.384 . S
H228 C234 0.930 . S
H229 C238 0.930 . S
H230 C243 0.929 . S
H231 C241 0.929 . S
H232 C236 0.929 . S
H233 C242 0.929 . S
C234 H228 0.930 . S
C234 C235 1.367 . S
C234 C242 1.378 . S
C235 C234 1.367 . S
C235 C243 1.433 . S
C236 H232 0.929 . S
C236 C238 1.378 . S
C236 C240 1.350 . S
C237 C240 1.463 . S
C237 C242 1.350 . S
C237 N245 1.427 . S
C238 H229 0.930 . S
C238 C236 1.378 . S
C238 C239 1.367 . S
C239 C238 1.367 . S
C239 C241 1.433 . S
C240 C236 1.350 . S
C240 C237 1.463 . S
C240 N244 1.427 . S
C241 H231 0.929 . S
C241 C239 1.433 . S
C241 N244 1.384 . S
C242 H233 0.929 . S
C242 C234 1.378 . S
C242 C237 1.350 . S
C243 H230 0.929 . S
C243 C235 1.433 . S
C243 N245 1.384 . S
N244 C240 1.427 . S
N244 C241 1.384 . S
N245 C237 1.427 . S
N245 C243 1.384 . S
H246 C252 0.930 . S
H247 C256 0.930 . S
H248 C261 0.929 . S
H249 C259 0.929 . S
H250 C254 0.929 . S
H251 C260 0.929 . S
C252 H246 0.930 . S
C252 C253 1.367 . S
C252 C260 1.378 . S
C253 C252 1.367 . S
C253 C261 1.433 . S
C254 H250 0.929 . S
C254 C256 1.378 . S
C254 C258 1.350 . S
C255 C258 1.463 . S
C255 C260 1.350 . S
C255 N263 1.427 . S
C256 H247 0.930 . S
C256 C254 1.378 . S
C256 C257 1.367 . S
C257 C256 1.367 . S
C257 C259 1.433 . S
C258 C254 1.350 . S
C258 C255 1.463 . S
C258 N262 1.427 . S
C259 H249 0.929 . S
C259 C257 1.433 . S
C259 N262 1.384 . S
C260 H251 0.929 . S
C260 C252 1.378 . S
C260 C255 1.350 . S
C261 H248 0.929 . S
C261 C253 1.433 . S
C261 N263 1.384 . S
N262 C258 1.427 . S
N262 C259 1.384 . S
N263 C255 1.427 . S
N263 C261 1.384 . S
H264 C270 0.930 . S
H265 C274 0.930 . S
H266 C279 0.929 . S
H267 C277 0.929 . S
H268 C272 0.929 . S
H269 C278 0.929 . S
C270 H264 0.930 . S
C270 C271 1.367 . S
C270 C278 1.378 . S
C271 C270 1.367 . S
C271 C279 1.433 . S
C272 H268 0.929 . S
C272 C274 1.378 . S
C272 C276 1.350 . S
C273 C276 1.463 . S
C273 C278 1.350 . S
C273 N281 1.427 . S
C274 H265 0.930 . S
C274 C272 1.378 . S
C274 C275 1.367 . S
C275 C274 1.367 . S
C275 C277 1.433 . S
C276 C272 1.350 . S
C276 C273 1.463 . S
C276 N280 1.427 . S
C277 H267 0.929 . S
C277 C275 1.433 . S
C277 N280 1.384 . S
C278 H269 0.929 . S
C278 C270 1.378 . S
C278 C273 1.350 . S
C279 H266 0.929 . S
C279 C271 1.433 . S
C279 N281 1.384 . S
N280 C276 1.427 . S
N280 C277 1.384 . S
N281 C273 1.427 . S
N281 C279 1.384 . S
H282 C288 0.930 . S
H283 C292 0.930 . S
H284 C297 0.929 . S
H285 C295 0.929 . S
H286 C290 0.929 . S
H287 C296 0.929 . S
C288 H282 0.930 . S
C288 C289 1.367 . S
C288 C296 1.378 . S
C289 C288 1.367 . S
C289 C297 1.433 . S
C290 H286 0.929 . S
C290 C292 1.378 . S
C290 C294 1.350 . S
C291 C294 1.463 . S
C291 C296 1.350 . S
C291 N299 1.427 . S
C292 H283 0.930 . S
C292 C290 1.378 . S
C292 C293 1.367 . S
C293 C292 1.367 . S
C293 C295 1.433 . S
C294 C290 1.350 . S
C294 C291 1.463 . S
C294 N298 1.427 . S
C295 H285 0.929 . S
C295 C293 1.433 . S
C295 N298 1.384 . S
C296 H287 0.929 . S
C296 C288 1.378 . S
C296 C291 1.350 . S
C297 H284 0.929 . S
C297 C289 1.433 . S
C297 N299 1.384 . S
N298 C294 1.427 . S
N298 C295 1.384 . S
N299 C291 1.427 . S
N299 C297 1.384 . S
H300 C306 0.930 . S
H301 C310 0.930 . S
H302 C315 0.929 . S
H303 C313 0.929 . S
H304 C308 0.929 . S
H305 C314 0.929 . S
C306 H300 0.930 . S
C306 C307 1.367 . S
C306 C314 1.378 . S
C307 C306 1.367 . S
C307 C315 1.433 . S
C308 H304 0.929 . S
C308 C310 1.378 . S
C308 C312 1.350 . S
C309 C312 1.463 . S
C309 C314 1.350 . S
C309 N317 1.427 . S
C310 H301 0.930 . S
C310 C308 1.378 . S
C310 C311 1.367 . S
C311 C310 1.367 . S
C311 C313 1.433 . S
C312 C308 1.350 . S
C312 C309 1.463 . S
C312 N316 1.427 . S
C313 H303 0.929 . S
C313 C311 1.433 . S
C313 N316 1.384 . S
C314 H305 0.929 . S
C314 C306 1.378 . S
C314 C309 1.350 . S
C315 H302 0.929 . S
C315 C307 1.433 . S
C315 N317 1.384 . S
N316 C312 1.427 . S
N316 C313 1.384 . S
N317 C309 1.427 . S
N317 C315 1.384 . S
H318 C324 0.930 . S
H319 C328 0.930 . S
H320 C333 0.929 . S
H321 C331 0.929 . S
H322 C326 0.929 . S
H323 C332 0.929 . S
C324 H318 0.930 . S
C324 C325 1.367 . S
C324 C332 1.378 . S
C325 C324 1.367 . S
C325 C333 1.433 . S
C326 H322 0.929 . S
C326 C328 1.378 . S
C326 C330 1.350 . S
C327 C330 1.463 . S
C327 C332 1.350 . S
C327 N335 1.427 . S
C328 H319 0.930 . S
C328 C326 1.378 . S
C328 C329 1.367 . S
C329 C328 1.367 . S
C329 C331 1.433 . S
C330 C326 1.350 . S
C330 C327 1.463 . S
C330 N334 1.427 . S
C331 H321 0.929 . S
C331 C329 1.433 . S
C331 N334 1.384 . S
C332 H323 0.929 . S
C332 C324 1.378 . S
C332 C327 1.350 . S
C333 H320 0.929 . S
C333 C325 1.433 . S
C333 N335 1.384 . S
N334 C330 1.427 . S
N334 C331 1.384 . S
N335 C327 1.427 . S
N335 C333 1.384 . S
H336 C342 0.930 . S
H337 C346 0.930 . S
H338 C351 0.929 . S
H339 C349 0.929 . S
H340 C344 0.929 . S
H341 C350 0.929 . S
C342 H336 0.930 . S
C342 C343 1.367 . S
C342 C350 1.378 . S
C343 C342 1.367 . S
C343 C351 1.433 . S
C344 H340 0.929 . S
C344 C346 1.378 . S
C344 C348 1.350 . S
C345 C348 1.463 . S
C345 C350 1.350 . S
C345 N353 1.427 . S
C346 H337 0.930 . S
C346 C344 1.378 . S
C346 C347 1.367 . S
C347 C346 1.367 . S
C347 C349 1.433 . S
C348 C344 1.350 . S
C348 C345 1.463 . S
C348 N352 1.427 . S
C349 H339 0.929 . S
C349 C347 1.433 . S
C349 N352 1.384 . S
C350 H341 0.929 . S
C350 C342 1.378 . S
C350 C345 1.350 . S
C351 H338 0.929 . S
C351 C343 1.433 . S
C351 N353 1.384 . S
N352 C348 1.427 . S
N352 C349 1.384 . S
N353 C345 1.427 . S
N353 C351 1.384 . S
H354 C360 0.930 . S
H355 C364 0.930 . S
H356 C369 0.929 . S
H357 C367 0.929 . S
H358 C362 0.929 . S
H359 C368 0.929 . S
C360 H354 0.930 . S
C360 C361 1.367 . S
C360 C368 1.378 . S
C361 C360 1.367 . S
C361 C369 1.433 . S
C362 H358 0.929 . S
C362 C364 1.378 . S
C362 C366 1.350 . S
C363 C366 1.463 . S
C363 C368 1.350 . S
C363 N371 1.427 . S
C364 H355 0.930 . S
C364 C362 1.378 . S
C364 C365 1.367 . S
C365 C364 1.367 . S
C365 C367 1.433 . S
C366 C362 1.350 . S
C366 C363 1.463 . S
C366 N370 1.427 . S
C367 H357 0.929 . S
C367 C365 1.433 . S
C367 N370 1.384 . S
C368 H359 0.929 . S
C368 C360 1.378 . S
C368 C363 1.350 . S
C369 H356 0.929 . S
C369 C361 1.433 . S
C369 N371 1.384 . S
N370 C366 1.427 . S
N370 C367 1.384 . S
N371 C363 1.427 . S
N371 C369 1.384 . S
H372 C378 0.930 . S
H373 C382 0.930 . S
H374 C387 0.929 . S
H375 C385 0.929 . S
H376 C380 0.929 . S
H377 C386 0.929 . S
C378 H372 0.930 . S
C378 C379 1.367 . S
C378 C386 1.378 . S
C379 C378 1.367 . S
C379 C387 1.433 . S
C380 H376 0.929 . S
C380 C382 1.378 . S
C380 C384 1.350 . S
C381 C384 1.463 . S
C381 C386 1.350 . S
C381 N389 1.427 . S
C382 H373 0.930 . S
C382 C380 1.378 . S
C382 C383 1.367 . S
C383 C382 1.367 . S
C383 C385 1.433 . S
C384 C380 1.350 . S
C384 C381 1.463 . S
C384 N388 1.427 . S
C385 H375 0.929 . S
C385 C383 1.433 . S
C385 N388 1.384 . S
C386 H377 0.929 . S
C386 C378 1.378 . S
C386 C381 1.350 . S
C387 H374 0.929 . S
C387 C379 1.433 . S
C387 N389 1.384 . S
N388 C384 1.427 . S
N388 C385 1.384 . S
N389 C381 1.427 . S
N389 C387 1.384 . S
H390 C396 0.930 . S
H391 C400 0.930 . S
H392 C405 0.929 . S
H393 C403 0.929 . S
H394 C398 0.929 1_554 S
H395 C404 0.929 . S
C396 H390 0.930 . S
C396 C397 1.367 . S
C396 C404 1.378 . S
C397 C396 1.367 . S
C397 C405 1.433 1_455 S
C398 H394 0.929 1_556 S
C398 C400 1.378 . S
C398 C402 1.350 1_656 S
C399 C402 1.463 . S
C399 C404 1.350 . S
C399 N407 1.427 1_455 S
C400 H391 0.930 . S
C400 C398 1.378 . S
C400 C401 1.367 1_655 S
C401 C400 1.367 1_455 S
C401 C403 1.433 . S
C402 C398 1.350 1_454 S
C402 C399 1.463 . S
C402 N406 1.427 1_554 S
C403 H393 0.929 . S
C403 C401 1.433 . S
C403 N406 1.384 . S
C404 H395 0.929 . S
C404 C396 1.378 . S
C404 C399 1.350 . S
C405 H392 0.929 . S
C405 C397 1.433 1_655 S
C405 N407 1.384 . S
N406 C402 1.427 1_556 S
N406 C403 1.384 . S
N407 C399 1.427 1_655 S
N407 C405 1.384 . S
H408 C414 0.930 . S
H409 C418 0.930 . S
H410 C423 0.929 . S
H411 C421 0.929 1_565 S
H412 C416 0.929 . S
H413 C422 0.929 . S
C414 H408 0.930 . S
C414 C415 1.367 . S
C414 C422 1.378 . S
C415 C414 1.367 . S
C415 C423 1.433 . S
C416 H412 0.929 . S
C416 C418 1.378 . S
C416 C420 1.350 . S
C417 C420 1.463 . S
C417 C422 1.350 . S
C417 N425 1.427 . S
C418 H409 0.930 . S
C418 C416 1.378 . S
C418 C419 1.367 . S
C419 C418 1.367 . S
C419 C421 1.433 . S
C420 C416 1.350 . S
C420 C417 1.463 . S
C420 N424 1.427 . S
C421 H411 0.929 1_545 S
C421 C419 1.433 . S
C421 N424 1.384 . S
C422 H413 0.929 . S
C422 C414 1.378 . S
C422 C417 1.350 . S
C423 H410 0.929 . S
C423 C415 1.433 . S
C423 N425 1.384 . S
N424 C420 1.427 . S
N424 C421 1.384 . S
N425 C417 1.427 . S
N425 C423 1.384 . S
H426 C432 0.930 . S
H427 C436 0.930 . S
H428 C441 0.929 . S
H429 C439 0.929 . S
H430 C434 0.929 . S
H431 C440 0.929 . S
C432 H426 0.930 . S
C432 C433 1.367 . S
C432 C440 1.378 . S
C433 C432 1.367 . S
C433 C441 1.433 . S
C434 H430 0.929 . S
C434 C436 1.378 . S
C434 C438 1.350 . S
C435 C438 1.463 . S
C435 C440 1.350 . S
C435 N443 1.427 . S
C436 H427 0.930 . S
C436 C434 1.378 . S
C436 C437 1.367 . S
C437 C436 1.367 . S
C437 C439 1.433 . S
C438 C434 1.350 . S
C438 C435 1.463 . S
C438 N442 1.427 . S
C439 H429 0.929 . S
C439 C437 1.433 . S
C439 N442 1.384 . S
C440 H431 0.929 . S
C440 C432 1.378 . S
C440 C435 1.350 . S
C441 H428 0.929 . S
C441 C433 1.433 . S
C441 N443 1.384 . S
N442 C438 1.427 . S
N442 C439 1.384 . S
N443 C435 1.427 . S
N443 C441 1.384 . S
H444 C450 0.930 . S
H445 C454 0.930 . S
H446 C459 0.929 . S
H447 C457 0.929 . S
H448 C452 0.929 . S
H449 C458 0.929 . S
C450 H444 0.930 . S
C450 C451 1.367 . S
C450 C458 1.378 . S
C451 C450 1.367 . S
C451 C459 1.433 1_545 S
C452 H448 0.929 . S
C452 C454 1.378 . S
C452 C456 1.350 1_565 S
C453 C456 1.463 . S
C453 C458 1.350 . S
C453 N461 1.427 1_545 S
C454 H445 0.930 . S
C454 C452 1.378 . S
C454 C455 1.367 1_565 S
C455 C454 1.367 1_545 S
C455 C457 1.433 . S
C456 C452 1.350 1_545 S
C456 C453 1.463 . S
C456 N460 1.427 . S
C457 H447 0.929 . S
C457 C455 1.433 . S
C457 N460 1.384 . S
C458 H449 0.929 . S
C458 C450 1.378 . S
C458 C453 1.350 . S
C459 H446 0.929 . S
C459 C451 1.433 1_565 S
C459 N461 1.384 . S
N460 C456 1.427 . S
N460 C457 1.384 . S
N461 C453 1.427 1_565 S
N461 C459 1.384 . S
H462 C468 0.930 . S
H463 C472 0.930 . S
H464 C477 0.929 . S
H465 C475 0.929 . S
H466 C470 0.925 1_556 S
H467 C476 0.929 . S
C468 H462 0.930 . S
C468 C469 1.367 . S
C468 C476 1.378 . S
C469 C468 1.367 . S
C469 C477 1.433 . S
C470 H466 0.925 1_554 S
C470 C472 1.387 . S
C470 C474 1.344 1_554 S
C471 C474 1.463 . S
C471 C476 1.350 . S
C471 N479 1.427 . S
C472 H463 0.930 . S
C472 C470 1.387 . S
C472 C473 1.367 . S
C473 C472 1.367 . S
C473 C475 1.433 . S
C474 C470 1.344 1_556 S
C474 C471 1.463 . S
C474 N478 1.427 . S
C475 H465 0.929 . S
C475 C473 1.433 . S
C475 N478 1.384 1_554 S
C476 H467 0.929 . S
C476 C468 1.378 . S
C476 C471 1.350 . S
C477 H464 0.929 . S
C477 C469 1.433 . S
C477 N479 1.384 . S
N478 C474 1.427 . S
N478 C475 1.384 1_556 S
N479 C471 1.427 . S
N479 C477 1.384 . S
H480 C486 0.930 1_655 S
H481 C490 0.930 . S
H482 C495 0.929 . S
H483 C493 0.929 . S
H484 C488 0.929 . S
H485 C494 0.929 . S
C486 H480 0.930 1_455 S
C486 C487 1.367 . S
C486 C494 1.378 1_455 S
C487 C486 1.367 . S
C487 C495 1.433 . S
C488 H484 0.929 . S
C488 C490 1.378 . S
C488 C492 1.350 . S
C489 C492 1.463 . S
C489 C494 1.350 1_455 S
C489 N497 1.427 . S
C490 H481 0.930 . S
C490 C488 1.378 . S
C490 C491 1.367 . S
C491 C490 1.367 . S
C491 C493 1.433 1_455 S
C492 C488 1.350 . S
C492 C489 1.463 . S
C492 N496 1.427 1_455 S
C493 H483 0.929 . S
C493 C491 1.433 1_655 S
C493 N496 1.384 . S
C494 H485 0.929 . S
C494 C486 1.378 1_655 S
C494 C489 1.350 1_655 S
C495 H482 0.929 . S
C495 C487 1.433 . S
C495 N497 1.384 . S
N496 C492 1.427 1_655 S
N496 C493 1.384 . S
N497 C489 1.427 . S
N497 C495 1.384 . S
C181 C9 0.574 . S
C185 C169 0.541 . S
C199 C49 0.512 . S
C203 C151 0.430 . S
C217 C89 0.474 . S
C221 C163 0.421 . S
C235 C26 0.615 . S
C239 C172 0.515 . S
C257 C154 0.578 . S
C253 C66 0.626 . S
C275 C160 0.633 . S
C271 C106 0.681 . S
C289 C43 2.876 . S
C293 C133 2.864 . S
C307 C83 2.964 . S
C311 C142 2.941 . S
C325 C22 3.004 . S
C329 C124 2.969 . S
C347 C136 2.964 . S
C343 C62 2.996 . S
C365 C145 2.878 . S
C361 C102 2.901 . S
C379 C3 2.872 . S
C383 C127 2.852 . S
C401 C143 1.811 . S
C397 C15 1.752 . S
C415 C55 1.753 . S
C419 C125 1.810 . S
C433 C95 1.750 . S
C437 C134 1.806 . S
C455 C161 1.019 . S
C451 C42 1.009 . S
C473 C170 1.021 . S
C469 C82 1.018 . S
C487 C2 1.011 . S
C491 C152 1.009 . S
