# Generated by pormake.
# Topology nom, (4,4)-cn, num edge types: 1
# Building blocks:
#     Node 0, Type 0, BuildingBlock: NAWXER_clean_linker_0, # of connection points: 4
#     Node 1, Type 0, BuildingBlock: NAWXER_clean_linker_0, # of connection points: 4
#     Node 2, Type 0, BuildingBlock: NAWXER_clean_linker_0, # of connection points: 4
#     Node 3, Type 0, BuildingBlock: NAWXER_clean_linker_0, # of connection points: 4
#     Node 4, Type 0, BuildingBlock: NAWXER_clean_linker_0, # of connection points: 4
#     Node 5, Type 0, BuildingBlock: NAWXER_clean_linker_0, # of connection points: 4
#     Node 6, Type 1, BuildingBlock: CEKHIL_clean_sbu_0, # of connection points: 4
#     Node 7, Type 1, BuildingBlock: CEKHIL_clean_sbu_0, # of connection points: 4
#     Node 8, Type 1, BuildingBlock: CEKHIL_clean_sbu_0, # of connection points: 4
#     Node 9, Type 1, BuildingBlock: CEKHIL_clean_sbu_0, # of connection points: 4
#     Node 10, Type 1, BuildingBlock: CEKHIL_clean_sbu_0, # of connection points: 4
#     Node 11, Type 1, BuildingBlock: CEKHIL_clean_sbu_0, # of connection points: 4
#     Edge 12, Type (0, 1), BuildingBlock: KIFKEQ_clean_linker_1, # of connection points: 2
#     Edge 13, Type (0, 1), BuildingBlock: KIFKEQ_clean_linker_1, # of connection points: 2
#     Edge 14, Type (0, 1), BuildingBlock: KIFKEQ_clean_linker_1, # of connection points: 2
#     Edge 15, Type (0, 1), BuildingBlock: KIFKEQ_clean_linker_1, # of connection points: 2
#     Edge 16, Type (0, 1), BuildingBlock: KIFKEQ_clean_linker_1, # of connection points: 2
#     Edge 17, Type (0, 1), BuildingBlock: KIFKEQ_clean_linker_1, # of connection points: 2
#     Edge 18, Type (0, 1), BuildingBlock: KIFKEQ_clean_linker_1, # of connection points: 2
#     Edge 19, Type (0, 1), BuildingBlock: KIFKEQ_clean_linker_1, # of connection points: 2
#     Edge 20, Type (0, 1), BuildingBlock: KIFKEQ_clean_linker_1, # of connection points: 2
#     Edge 21, Type (0, 1), BuildingBlock: KIFKEQ_clean_linker_1, # of connection points: 2
#     Edge 22, Type (0, 1), BuildingBlock: KIFKEQ_clean_linker_1, # of connection points: 2
#     Edge 23, Type (0, 1), BuildingBlock: KIFKEQ_clean_linker_1, # of connection points: 2
#     Edge 24, Type (0, 1), BuildingBlock: KIFKEQ_clean_linker_1, # of connection points: 2
#     Edge 25, Type (0, 1), BuildingBlock: KIFKEQ_clean_linker_1, # of connection points: 2
#     Edge 26, Type (0, 1), BuildingBlock: KIFKEQ_clean_linker_1, # of connection points: 2
#     Edge 27, Type (0, 1), BuildingBlock: KIFKEQ_clean_linker_1, # of connection points: 2
#     Edge 28, Type (0, 1), BuildingBlock: KIFKEQ_clean_linker_1, # of connection points: 2
#     Edge 29, Type (0, 1), BuildingBlock: KIFKEQ_clean_linker_1, # of connection points: 2
#     Edge 30, Type (0, 1), BuildingBlock: KIFKEQ_clean_linker_1, # of connection points: 2
#     Edge 31, Type (0, 1), BuildingBlock: KIFKEQ_clean_linker_1, # of connection points: 2
#     Edge 32, Type (0, 1), BuildingBlock: KIFKEQ_clean_linker_1, # of connection points: 2
#     Edge 33, Type (0, 1), BuildingBlock: KIFKEQ_clean_linker_1, # of connection points: 2
#     Edge 34, Type (0, 1), BuildingBlock: KIFKEQ_clean_linker_1, # of connection points: 2
#     Edge 35, Type (0, 1), BuildingBlock: KIFKEQ_clean_linker_1, # of connection points: 2
# Relax obj value: 0.006
# Max RMSD: 0.109
# Mean RMSD: 0.075
data_MOF--net-nom--node1-CEKHIL_clean_sbu_0--node2-NAWXER_clean_linker_0--edge1-KIFKEQ_clean_linker_1
_symmetry_space_group_name_H-M    P1
_symmetry_Int_Tables_number       1
_symmetry_cell_setting            triclinic
loop_
_symmetry_equiv_pos_as_xyz
'x, y, z'
_cell_length_a     53.472498
_cell_length_b     52.873199
_cell_length_c     58.447306
_cell_angle_alpha  90.038654
_cell_angle_beta   89.961695
_cell_angle_gamma 121.10339
loop_
_atom_site_label
_atom_site_type_symbol
_atom_site_fract_x
_atom_site_fract_y
_atom_site_fract_z
_atom_type_partial_charge
C0 C 0.90614 0.52172 0.34531 0.0
C1 C 0.8911 0.49991 0.36204 0.0
C2 C 0.93527 0.53153 0.34022 0.0
C3 C 0.94992 0.51938 0.35144 0.0
C4 C 0.90609 0.48854 0.37387 0.0
C5 C 0.93526 0.49827 0.36866 0.0
C6 C 0.98069 0.5294 0.34565 0.0
C7 C 0.92829 0.48252 0.28325 0.0
C8 C 0.93615 0.49911 0.26296 0.0
C9 C 0.94592 0.49351 0.30271 0.0
C10 C 0.97135 0.52174 0.30252 0.0
C11 C 0.96181 0.52708 0.2626 0.0
C12 C 0.97919 0.5383 0.28219 0.0
C13 C 0.99093 0.53327 0.32282 0.0
C14 C 0.12104 0.58335 0.33314 0.0
C15 C 0.131 0.60726 0.31788 0.0
C16 C 0.09149 0.56664 0.33925 0.0
C17 C 0.07143 0.57375 0.33042 0.0
C18 C 0.11068 0.6138 0.30871 0.0
C19 C 0.08127 0.59721 0.31487 0.0
C20 C 0.04002 0.55675 0.33653 0.0
C21 C 0.0892 0.59668 0.40226 0.0
C22 C 0.0871 0.57489 0.41729 0.0
C23 C 0.07048 0.58892 0.38344 0.0
C24 C 0.04926 0.55922 0.37933 0.0
C25 C 0.06567 0.54518 0.4132 0.0
C26 C 0.04673 0.53747 0.39452 0.0
C27 C 0.02963 0.55066 0.35929 0.0
H28 H 0.89543 0.5314 0.33625 0.0
H29 H 0.94637 0.54866 0.32746 0.0
H30 H 0.89507 0.47164 0.3868 0.0
H31 H 0.9462 0.48887 0.37776 0.0
H32 H 0.90895 0.46063 0.28386 0.0
H33 H 0.9399 0.47959 0.31773 0.0
H34 H 0.96838 0.54032 0.24716 0.0
H35 H 0.99883 0.55995 0.28143 0.0
H36 H 0.1361 0.5777 0.34051 0.0
H37 H 0.08434 0.54812 0.35078 0.0
H38 H 0.11741 0.63158 0.29651 0.0
H39 H 0.06618 0.6029 0.30759 0.0
H40 H 0.10558 0.61973 0.40491 0.0
H41 H 0.07259 0.60609 0.37207 0.0
H42 H 0.06331 0.52796 0.42463 0.0
H43 H 0.03037 0.51445 0.3917 0.0
N44 N 1.00038 0.53752 0.363 0.0
N45 N 0.02023 0.54745 0.31923 0.0
C46 C 0.40633 0.89416 0.49887 0.0
C47 C 0.41675 0.88208 0.51499 0.0
C48 C 0.42337 0.92376 0.49242 0.0
C49 C 0.45137 0.94188 0.50173 0.0
C50 C 0.44485 0.9002 0.52423 0.0
C51 C 0.4619 0.92987 0.51777 0.0
C52 C 0.46858 0.97381 0.49621 0.0
C53 C 0.46495 0.92754 0.43093 0.0
C54 C 0.44845 0.93024 0.41338 0.0
C55 C 0.47239 0.9451 0.45057 0.0
C56 C 0.46344 0.9657 0.45315 0.0
C57 C 0.43973 0.95107 0.41601 0.0
C58 C 0.44737 0.96876 0.43558 0.0
C59 C 0.47175 0.98482 0.47372 0.0
C60 C 0.54608 0.11723 0.48591 0.0
C61 C 0.53041 0.12582 0.47181 0.0
C62 C 0.5347 0.08745 0.49128 0.0
C63 C 0.50716 0.06571 0.48302 0.0
C64 C 0.50316 0.10386 0.46316 0.0
C65 C 0.49173 0.07418 0.46867 0.0
C66 C 0.4945 0.034 0.48839 0.0
C67 C 0.50646 0.08026 0.55628 0.0
C68 C 0.52624 0.07801 0.57079 0.0
C69 C 0.4954 0.06245 0.53676 0.0
C70 C 0.50409 0.04222 0.53129 0.0
C71 C 0.53454 0.05743 0.5653 0.0
C72 C 0.52341 0.03962 0.54589 0.0
C73 C 0.49279 0.02309 0.51079 0.0
H74 H 0.38487 0.88077 0.49133 0.0
H75 H 0.41431 0.93264 0.48054 0.0
H76 H 0.45334 0.89167 0.53693 0.0
H77 H 0.48325 0.94352 0.52544 0.0
H78 H 0.47256 0.91221 0.42934 0.0
H79 H 0.4855 0.94287 0.46361 0.0
H80 H 0.42664 0.9535 0.40306 0.0
H81 H 0.44034 0.98459 0.43714 0.0
H82 H 0.56708 0.13351 0.49294 0.0
H83 H 0.5475 0.08146 0.50181 0.0
H84 H 0.49077 0.10952 0.45183 0.0
H85 H 0.47065 0.05778 0.4618 0.0
H86 H 0.49924 0.09552 0.56015 0.0
H87 H 0.47996 0.06436 0.52601 0.0
H88 H 0.55008 0.05538 0.5758 0.0
H89 H 0.53033 0.02409 0.54205 0.0
N90 N 0.47974 0.99341 0.51381 0.0
N91 N 0.48407 0.01441 0.47072 0.0
C92 C 0.52884 0.44356 0.59968 0.0
C93 C 0.51065 0.42841 0.58095 0.0
C94 C 0.51742 0.44892 0.61939 0.0
C95 C 0.48753 0.43915 0.62086 0.0
C96 C 0.4807 0.41862 0.58256 0.0
C97 C 0.46935 0.42417 0.60221 0.0
C98 C 0.47552 0.44612 0.64116 0.0
C99 C 0.49945 0.38103 0.66581 0.0
C100 C 0.52148 0.39174 0.68256 0.0
C101 C 0.48667 0.39734 0.65954 0.0
C102 C 0.49581 0.42487 0.66973 0.0
C103 C 0.53039 0.41918 0.69289 0.0
C104 C 0.51755 0.43546 0.68664 0.0
C105 C 0.48152 0.44175 0.66387 0.0
C106 C 0.41431 0.48425 0.71996 0.0
C107 C 0.43583 0.50074 0.73642 0.0
C108 C 0.42062 0.47188 0.70128 0.0
C109 C 0.44892 0.47683 0.69825 0.0
C110 C 0.46358 0.50426 0.73406 0.0
C111 C 0.47007 0.49249 0.71514 0.0
C112 C 0.45698 0.46577 0.67784 0.0
C113 C 0.42328 0.52303 0.65201 0.0
C114 C 0.39818 0.50744 0.6383 0.0
C115 C 0.44051 0.51093 0.65717 0.0
C116 C 0.43262 0.48272 0.6491 0.0
C117 C 0.39099 0.47969 0.62957 0.0
C118 C 0.40809 0.46752 0.63487 0.0
C119 C 0.44977 0.46885 0.6551 0.0
H120 H 0.55207 0.45191 0.59894 0.0
H121 H 0.53209 0.46128 0.63329 0.0
H122 H 0.4659 0.40647 0.56868 0.0
H123 H 0.44627 0.41658 0.60289 0.0
H124 H 0.49218 0.36008 0.65743 0.0
H125 H 0.46934 0.38819 0.64695 0.0
H126 H 0.54698 0.42786 0.7061 0.0
H127 H 0.52468 0.45641 0.69499 0.0
H128 H 0.39261 0.48088 0.72161 0.0
H129 H 0.40346 0.45879 0.68911 0.0
H130 H 0.48057 0.51692 0.74651 0.0
H131 H 0.49193 0.49629 0.71343 0.0
H132 H 0.42974 0.54471 0.65862 0.0
H133 H 0.45983 0.52348 0.66762 0.0
H134 H 0.37175 0.46706 0.61905 0.0
H135 H 0.40176 0.44587 0.62825 0.0
N136 N 0.45942 0.45898 0.63769 0.0
N137 N 0.47246 0.45222 0.68127 0.0
C138 C 0.90594 0.397 0.83188 0.0
C139 C 0.89485 0.40803 0.81542 0.0
C140 C 0.93512 0.41368 0.83876 0.0
C141 C 0.95376 0.44187 0.82948 0.0
C142 C 0.91355 0.43626 0.80616 0.0
C143 C 0.94276 0.45291 0.81301 0.0
C144 C 0.98515 0.45894 0.83566 0.0
C145 C 0.93568 0.45448 0.89856 0.0
C146 C 0.93972 0.44097 0.9178 0.0
C147 C 0.9539 0.46182 0.87947 0.0
C148 C 0.97611 0.45506 0.87877 0.0
C149 C 0.96275 0.43532 0.9174 0.0
C150 C 0.98068 0.44226 0.89812 0.0
C151 C 0.99544 0.46253 0.85842 0.0
C152 C 0.12674 0.53589 0.84759 0.0
C153 C 0.13488 0.51956 0.86149 0.0
C154 C 0.09741 0.52486 0.84218 0.0
C155 C 0.07561 0.49703 0.8502 0.0
C156 C 0.11288 0.49202 0.86993 0.0
C157 C 0.08358 0.48095 0.86441 0.0
C158 C 0.0444 0.48465 0.84444 0.0
C159 C 0.09091 0.49675 0.77647 0.0
C160 C 0.08849 0.51652 0.7618 0.0
C161 C 0.07349 0.48582 0.79613 0.0
C162 C 0.05352 0.49465 0.80156 0.0
C163 C 0.06838 0.52517 0.7674 0.0
C164 C 0.05097 0.51417 0.78692 0.0
C165 C 0.0342 0.48298 0.82184 0.0
H166 H 0.89208 0.37541 0.83942 0.0
H167 H 0.94323 0.4043 0.85105 0.0
H168 H 0.9058 0.4452 0.7932 0.0
H169 H 0.95683 0.47441 0.80539 0.0
H170 H 0.91818 0.45908 0.89805 0.0
H171 H 0.95055 0.47287 0.86525 0.0
H172 H 0.96713 0.42568 0.93204 0.0
H173 H 0.99802 0.43737 0.89828 0.0
H174 H 0.14307 0.5571 0.84066 0.0
H175 H 0.09181 0.53813 0.83173 0.0
H176 H 0.11824 0.4791 0.88103 0.0
H177 H 0.0671 0.45961 0.87107 0.0
H178 H 0.10588 0.48931 0.77255 0.0
H179 H 0.07539 0.47025 0.80693 0.0
H180 H 0.06625 0.54076 0.75682 0.0
H181 H 0.03565 0.52122 0.79074 0.0
N182 N 0.00497 0.46994 0.81837 0.0
N183 N 0.02463 0.47461 0.86185 0.0
C184 C 0.52102 0.90377 0.9844 0.0
C185 C 0.50073 0.8909 0.96647 0.0
C186 C 0.5314 0.93292 0.99103 0.0
C187 C 0.52143 0.94973 0.98008 0.0
C188 C 0.49131 0.908 0.95516 0.0
C189 C 0.50168 0.93719 0.96184 0.0
C190 C 0.53235 0.98065 0.98709 0.0
C191 C 0.47897 0.9243 0.04585 0.0
C192 C 0.4935 0.92948 0.06695 0.0
C193 C 0.4922 0.9436 0.02747 0.0
C194 C 0.52069 0.96814 0.02943 0.0
C195 C 0.52194 0.95424 0.06897 0.0
C196 C 0.53533 0.97336 0.05043 0.0
C197 C 0.53449 0.9894 0.01022 0.0
C198 C 0.58511 0.12146 0.00471 0.0
C199 C 0.6074 0.1305 0.0211 0.0
C200 C 0.56911 0.09198 0.99747 0.0
C201 C 0.57559 0.07122 0.00615 0.0
C202 C 0.61326 0.10946 0.03014 0.0
C203 C 0.59747 0.08016 0.02279 0.0
C204 C 0.55964 0.04001 0.99858 0.0
C205 C 0.60347 0.09564 0.93587 0.0
C206 C 0.58422 0.09051 0.91759 0.0
C207 C 0.59451 0.0764 0.95459 0.0
C208 C 0.56585 0.05203 0.95579 0.0
C209 C 0.55574 0.06567 0.91867 0.0
C210 C 0.54671 0.04669 0.93752 0.0
C211 C 0.55574 0.03114 0.97535 0.0
H212 H 0.5292 0.89143 0.99313 0.0
H213 H 0.54738 0.9424 0.00465 0.0
H214 H 0.47555 0.89869 0.94138 0.0
H215 H 0.49391 0.94983 0.95299 0.0
H216 H 0.4572 0.90536 0.04348 0.0
H217 H 0.47986 0.9395 0.01182 0.0
H218 H 0.53364 0.95932 0.08503 0.0
H219 H 0.55713 0.99236 0.05255 0.0
H220 H 0.57982 0.13708 0.9977 0.0
H221 H 0.55175 0.08544 0.9851 0.0
H222 H 0.63046 0.11577 0.04262 0.0
H223 H 0.60273 0.06452 0.02985 0.0
H224 H 0.6255 0.11458 0.93579 0.0
H225 H 0.61007 0.08055 0.96806 0.0
H226 H 0.54048 0.06049 0.90475 0.0
H227 H 0.52464 0.02777 0.93784 0.0
N228 N 0.54243 0.00179 0.97058 0.0
N229 N 0.54863 0.01876 0.01503 0.0
C230 C 0.52373 0.63047 0.16499 0.0
C231 C 0.50106 0.61946 0.18121 0.0
C232 C 0.53655 0.61414 0.15886 0.0
C233 C 0.52675 0.58624 0.16859 0.0
C234 C 0.49145 0.59163 0.19107 0.0
C235 C 0.50428 0.57529 0.18492 0.0
C236 C 0.54121 0.56942 0.16296 0.0
C237 C 0.49738 0.56991 0.09774 0.0
C238 C 0.51627 0.58564 0.0795 0.0
C239 C 0.50805 0.56406 0.11763 0.0
C240 C 0.5379 0.57395 0.11983 0.0
C241 C 0.54616 0.59543 0.08177 0.0
C242 C 0.55679 0.58944 0.10163 0.0
C243 C 0.54907 0.56652 0.14043 0.0
C244 C 0.6029 0.49108 0.15239 0.0
C245 C 0.62868 0.50763 0.13958 0.0
C246 C 0.58492 0.50242 0.15718 0.0
C247 C 0.59268 0.53081 0.14969 0.0
C248 C 0.6359 0.53565 0.1315 0.0
C249 C 0.61804 0.54708 0.13647 0.0
C250 C 0.57432 0.54359 0.155 0.0
C251 C 0.60385 0.52606 0.22251 0.0
C252 C 0.5801 0.5036 0.23477 0.0
C253 C 0.59909 0.53985 0.20397 0.0
C254 C 0.57051 0.53147 0.19749 0.0
C255 C 0.55161 0.49589 0.22858 0.0
C256 C 0.5469 0.50986 0.21026 0.0
C257 C 0.56466 0.54458 0.17734 0.0
H258 H 0.53156 0.65171 0.15694 0.0
H259 H 0.55446 0.6236 0.14676 0.0
H260 H 0.47435 0.58268 0.20388 0.0
H261 H 0.49663 0.55405 0.19294 0.0
H262 H 0.47417 0.56148 0.09647 0.0
H263 H 0.49281 0.55124 0.1311 0.0
H264 H 0.56146 0.60795 0.06825 0.0
H265 H 0.57985 0.5971 0.10284 0.0
H266 H 0.5964 0.46916 0.15843 0.0
H267 H 0.56492 0.48892 0.16668 0.0
H268 H 0.65564 0.54899 0.12166 0.0
H269 H 0.62431 0.56889 0.13029 0.0
H270 H 0.62602 0.53243 0.22692 0.0
H271 H 0.61766 0.5568 0.19453 0.0
H272 H 0.53292 0.47898 0.23793 0.0
H273 H 0.52471 0.50324 0.20568 0.0
N274 N 0.54872 0.55769 0.18047 0.0
N275 N 0.56591 0.55437 0.13739 0.0
Co276 Co 0.62891 0.38227 0.40622 0.0
O277 O 0.65845 0.38384 0.38643 0.0
O278 O 0.6654 0.41929 0.41044 0.0
C279 C 0.61235 0.33611 0.41933 0.0
O280 O 0.60424 0.38788 0.43018 0.0
Co281 Co 0.56334 0.33681 0.3978 0.0
O282 O 0.55791 0.34968 0.42825 0.0
C283 C 0.5939 0.38941 0.36816 0.0
C284 C 0.67625 0.40951 0.39532 0.0
C285 C 0.57786 0.37309 0.43789 0.0
O286 O 0.61657 0.40007 0.38118 0.0
O287 O 0.57134 0.36366 0.37104 0.0
O288 O 0.63544 0.35852 0.42821 0.0
O289 O 0.60165 0.34193 0.40167 0.0
Co290 Co 0.26015 0.62834 0.58865 0.0
O291 O 0.28807 0.62754 0.60889 0.0
O292 O 0.25899 0.59124 0.58546 0.0
C293 C 0.29079 0.67419 0.575 0.0
O294 O 0.22975 0.62194 0.56437 0.0
Co295 Co 0.24078 0.67392 0.59526 0.0
O296 O 0.22654 0.66269 0.56343 0.0
C297 C 0.21699 0.62193 0.62574 0.0
C298 C 0.2798 0.6016 0.60063 0.0
C299 C 0.2212 0.63822 0.55486 0.0
O300 O 0.22951 0.61125 0.6136 0.0
O301 O 0.22023 0.64733 0.62199 0.0
O302 O 0.2911 0.65162 0.56657 0.0
O303 O 0.27389 0.66869 0.59245 0.0
Co304 Co 0.64376 0.25704 0.74018 0.0
O305 O 0.64351 0.2852 0.71947 0.0
O306 O 0.60763 0.25692 0.74332 0.0
C307 C 0.6894 0.28717 0.75362 0.0
O308 O 0.63688 0.22672 0.76494 0.0
Co309 Co 0.68737 0.2355 0.7335 0.0
O310 O 0.67374 0.21784 0.76419 0.0
C311 C 0.63579 0.21228 0.70344 0.0
C312 C 0.61802 0.27748 0.72776 0.0
C313 C 0.65075 0.21488 0.77337 0.0
O314 O 0.62583 0.22543 0.71569 0.0
O315 O 0.66082 0.21524 0.70684 0.0
O316 O 0.66758 0.28858 0.76184 0.0
O317 O 0.68341 0.26976 0.7363 0.0
Co318 Co 0.3972 0.63177 0.90571 0.0
O319 O 0.36783 0.63157 0.8867 0.0
O320 O 0.35969 0.59607 0.91103 0.0
C321 C 0.41678 0.67878 0.91792 0.0
O322 O 0.42199 0.62537 0.92897 0.0
Co323 Co 0.4626 0.67392 0.89426 0.0
O324 O 0.46904 0.66123 0.92451 0.0
C325 C 0.42718 0.62159 0.86557 0.0
C326 C 0.34931 0.6065 0.89605 0.0
C327 C 0.44895 0.63911 0.93537 0.0
O328 O 0.40666 0.61165 0.88063 0.0
O329 O 0.45012 0.64736 0.86672 0.0
O330 O 0.39359 0.65749 0.92767 0.0
O331 O 0.4257 0.67138 0.89999 0.0
Co332 Co 0.76643 0.38654 0.08953 0.0
O333 O 0.73863 0.38744 0.10993 0.0
O334 O 0.76747 0.42356 0.08628 0.0
C335 C 0.73573 0.34053 0.07619 0.0
O336 O 0.79666 0.39295 0.0651 0.0
Co337 Co 0.78631 0.34138 0.0958 0.0
O338 O 0.79974 0.35216 0.06375 0.0
C339 C 0.81055 0.39371 0.12598 0.0
C340 C 0.74682 0.41331 0.10158 0.0
C341 C 0.80502 0.37667 0.05534 0.0
O342 O 0.79729 0.40392 0.11426 0.0
O343 O 0.80778 0.36854 0.12207 0.0
O344 O 0.73527 0.36298 0.06769 0.0
O345 O 0.75291 0.34626 0.09348 0.0
Co346 Co 0.38086 0.75587 0.24023 0.0
O347 O 0.38018 0.72703 0.21969 0.0
O348 O 0.41718 0.75621 0.24236 0.0
C349 C 0.33591 0.72608 0.25511 0.0
O350 O 0.38899 0.78709 0.26455 0.0
Co351 Co 0.33672 0.77699 0.23492 0.0
O352 O 0.35212 0.79596 0.26498 0.0
C353 C 0.38685 0.79955 0.20329 0.0
C354 C 0.40608 0.7351 0.22724 0.0
C355 C 0.37568 0.79934 0.27332 0.0
O356 O 0.39744 0.78665 0.21508 0.0
O357 O 0.36202 0.7967 0.20756 0.0
O358 O 0.35815 0.725 0.26274 0.0
O359 O 0.34104 0.74296 0.23758 0.0
H360 H 0.16416 0.66716 0.3122 0.0
H361 H 0.16879 0.58806 0.30829 0.0
H362 H 0.21425 0.69628 0.29839 0.0
H363 H 0.21914 0.61737 0.29473 0.0
H364 H 0.31798 0.68527 0.2895 0.0
H365 H 0.26924 0.65694 0.30649 0.0
H366 H 0.23927 0.70082 0.26172 0.0
H367 H 0.28785 0.72916 0.24488 0.0
C368 C 0.17584 0.65595 0.30836 0.0
C369 C 0.16231 0.6252 0.31113 0.0
C370 C 0.20456 0.67267 0.30048 0.0
C371 C 0.22057 0.6591 0.2953 0.0
C372 C 0.20745 0.62851 0.29877 0.0
C373 C 0.1786 0.61172 0.30657 0.0
C374 C 0.30098 0.68892 0.28337 0.0
C375 C 0.30672 0.70943 0.26586 0.0
C376 C 0.27306 0.6726 0.29302 0.0
C377 C 0.25042 0.67668 0.28547 0.0
C378 C 0.25633 0.69744 0.26811 0.0
C379 C 0.28413 0.71356 0.25837 0.0
H380 H 0.50095 0.15537 0.46783 0.0
H381 H 0.58727 0.16796 0.46207 0.0
H382 H 0.5203 0.20645 0.45615 0.0
H383 H 0.60663 0.21921 0.45088 0.0
H384 H 0.63466 0.31723 0.45264 0.0
H385 H 0.61469 0.26685 0.46665 0.0
H386 H 0.54146 0.23629 0.42062 0.0
H387 H 0.56136 0.28666 0.40665 0.0
C388 C 0.52402 0.16895 0.46401 0.0
C389 C 0.5425 0.15742 0.46578 0.0
C390 C 0.5351 0.19825 0.45737 0.0
C391 C 0.56496 0.21681 0.45255 0.0
C392 C 0.58357 0.20554 0.45475 0.0
C393 C 0.57246 0.17616 0.46122 0.0
C394 C 0.61422 0.29977 0.4456 0.0
C395 C 0.5996 0.30586 0.4285 0.0
C396 C 0.60288 0.27092 0.45354 0.0
C397 C 0.57656 0.24762 0.44469 0.0
C398 C 0.56166 0.25383 0.42791 0.0
C399 C 0.57313 0.28264 0.41983 0.0
H400 H 0.37343 0.50785 0.59737 0.0
H401 H 0.38029 0.53505 0.6679 0.0
H402 H 0.34307 0.52878 0.5891 0.0
H403 H 0.34963 0.55562 0.65977 0.0
H404 H 0.32486 0.62003 0.63061 0.0
H405 H 0.35217 0.5963 0.6399 0.0
H406 H 0.29588 0.52319 0.59562 0.0
H407 H 0.26891 0.54752 0.58579 0.0
C408 C 0.36819 0.51803 0.61117 0.0
C409 C 0.37942 0.51993 0.63327 0.0
C410 C 0.35069 0.52994 0.60645 0.0
C411 C 0.34388 0.54395 0.62374 0.0
C412 C 0.35482 0.54547 0.64592 0.0
C413 C 0.37243 0.53369 0.6506 0.0
C414 C 0.31813 0.59879 0.62294 0.0
C415 C 0.29472 0.58569 0.60741 0.0
C416 C 0.33374 0.58507 0.62839 0.0
C417 C 0.32629 0.55779 0.61853 0.0
C418 C 0.30248 0.54438 0.6033 0.0
C419 C 0.28687 0.5582 0.59779 0.0
H420 H 0.85577 0.42581 0.80739 0.0
H421 H 0.86453 0.34908 0.80521 0.0
H422 H 0.80591 0.39617 0.79293 0.0
H423 H 0.81444 0.31928 0.79141 0.0
H424 H 0.73773 0.28569 0.74087 0.0
H425 H 0.78698 0.3146 0.75649 0.0
H426 H 0.75731 0.35562 0.80458 0.0
H427 H 0.70807 0.32694 0.78874 0.0
C428 C 0.84703 0.40261 0.80386 0.0
C429 C 0.86413 0.38982 0.80742 0.0
C430 C 0.81837 0.38556 0.7958 0.0
C431 C 0.80622 0.35536 0.79101 0.0
C432 C 0.82326 0.34254 0.79473 0.0
C433 C 0.85185 0.35955 0.80287 0.0
C434 C 0.7417 0.30082 0.75481 0.0
C435 C 0.71905 0.30409 0.76355 0.0
C436 C 0.76989 0.31727 0.76385 0.0
C437 C 0.77607 0.33742 0.78178 0.0
C438 C 0.75333 0.34054 0.7906 0.0
C439 C 0.7251 0.32399 0.78161 0.0
H440 H 0.49174 0.86804 0.92314 0.0
H441 H 0.48423 0.84327 0.99436 0.0
H442 H 0.47244 0.81675 0.91202 0.0
H443 H 0.46594 0.79218 0.98322 0.0
H444 H 0.46413 0.72756 0.89958 0.0
H445 H 0.48564 0.77887 0.91175 0.0
H446 H 0.42225 0.75098 0.96634 0.0
H447 H 0.40112 0.69973 0.95441 0.0
C448 C 0.48597 0.85165 0.93642 0.0
C449 C 0.48946 0.85974 0.95964 0.0
C450 C 0.47525 0.82231 0.93004 0.0
C451 C 0.46771 0.80037 0.94673 0.0
C452 C 0.4713 0.80849 0.96995 0.0
C453 C 0.48207 0.83783 0.97632 0.0
C454 C 0.45494 0.7324 0.91427 0.0
C455 C 0.4309 0.70964 0.92601 0.0
C456 C 0.46713 0.7618 0.92115 0.0
C457 C 0.45557 0.76904 0.93995 0.0
C458 C 0.43188 0.74615 0.95194 0.0
C459 C 0.41968 0.71678 0.94504 0.0
H460 H 0.65506 0.509 0.09903 0.0
H461 H 0.64586 0.47932 0.169 0.0
H462 H 0.68543 0.48808 0.09071 0.0
H463 H 0.67662 0.45885 0.16087 0.0
H464 H 0.70122 0.39464 0.13109 0.0
H465 H 0.67423 0.41867 0.14055 0.0
H466 H 0.73193 0.49254 0.09742 0.0
H467 H 0.75853 0.46788 0.08739 0.0
C468 C 0.65983 0.49832 0.11271 0.0
C469 C 0.6479 0.49565 0.13464 0.0
C470 C 0.67734 0.4864 0.10797 0.0
C471 C 0.68346 0.47166 0.12508 0.0
C472 C 0.67194 0.46953 0.14714 0.0
C473 C 0.6543 0.48128 0.15183 0.0
C474 C 0.70832 0.4161 0.12372 0.0
C475 C 0.73201 0.42932 0.10844 0.0
C476 C 0.6929 0.43 0.12926 0.0
C477 C 0.70084 0.4576 0.11978 0.0
C478 C 0.72493 0.47111 0.1048 0.0
C479 C 0.74033 0.4571 0.09918 0.0
H480 H 0.43231 0.84083 0.52243 0.0
H481 H 0.35857 0.85318 0.52533 0.0
H482 H 0.40146 0.79032 0.5364 0.0
H483 H 0.3276 0.80252 0.53859 0.0
H484 H 0.29163 0.72407 0.58829 0.0
H485 H 0.3219 0.77391 0.57315 0.0
H486 H 0.36004 0.74198 0.52441 0.0
H487 H 0.32996 0.69209 0.53979 0.0
C488 C 0.40952 0.83274 0.52601 0.0
C489 C 0.3979 0.85103 0.52278 0.0
C490 C 0.39178 0.80372 0.53378 0.0
C491 C 0.36208 0.79242 0.53862 0.0
C492 C 0.35045 0.81065 0.53524 0.0
C493 C 0.36813 0.83959 0.5274 0.0
C494 C 0.3064 0.72766 0.5743 0.0
C495 C 0.30845 0.70418 0.56525 0.0
C496 C 0.32365 0.7562 0.56554 0.0
C497 C 0.34339 0.76191 0.54758 0.0
C498 C 0.34529 0.73836 0.53843 0.0
C499 C 0.32794 0.70976 0.54714 0.0
H500 H 0.49437 0.332 0.68969 0.0
H501 H 0.57922 0.41203 0.69071 0.0
H502 H 0.5168 0.3034 0.70001 0.0
H503 H 0.60147 0.38362 0.70174 0.0
H504 H 0.63567 0.32109 0.69596 0.0
H505 H 0.61172 0.3478 0.68495 0.0
H506 H 0.54144 0.29525 0.73215 0.0
H507 H 0.5653 0.26808 0.74297 0.0
C508 C 0.51781 0.34349 0.69208 0.0
C509 C 0.53501 0.37431 0.68929 0.0
C510 C 0.53062 0.32713 0.69824 0.0
C511 C 0.56094 0.34119 0.70165 0.0
C512 C 0.5781 0.37202 0.69897 0.0
C513 C 0.5653 0.38838 0.69289 0.0
C514 C 0.61503 0.31508 0.70394 0.0
C515 C 0.60242 0.29249 0.7204 0.0
C516 C 0.6014 0.33057 0.69773 0.0
C517 C 0.57478 0.32386 0.7078 0.0
C518 C 0.56183 0.30083 0.72394 0.0
C519 C 0.57554 0.28533 0.7302 0.0
H520 H 0.17703 0.57661 0.87163 0.0
H521 H 0.16364 0.48908 0.86446 0.0
H522 H 0.22843 0.59612 0.87993 0.0
H523 H 0.21514 0.50868 0.87315 0.0
H524 H 0.30402 0.55412 0.91287 0.0
H525 H 0.25177 0.53207 0.90493 0.0
H526 H 0.2716 0.60371 0.85865 0.0
H527 H 0.32334 0.62569 0.8666 0.0
C528 C 0.18505 0.56153 0.87167 0.0
C529 C 0.16615 0.53129 0.8672 0.0
C530 C 0.21453 0.57272 0.87649 0.0
C531 C 0.2259 0.55397 0.87707 0.0
C532 C 0.20698 0.52364 0.87304 0.0
C533 C 0.17746 0.51244 0.86809 0.0
C534 C 0.29716 0.565 0.90091 0.0
C535 C 0.31781 0.59171 0.89046 0.0
C536 C 0.26728 0.55236 0.89632 0.0
C537 C 0.25755 0.56633 0.88134 0.0
C538 C 0.27833 0.59268 0.87058 0.0
C539 C 0.30804 0.60517 0.87505 0.0
H540 H 0.63108 0.18052 0.99481 0.0
H541 H 0.62305 0.151 0.06475 0.0
H542 H 0.66235 0.23167 0.00736 0.0
H543 H 0.65391 0.20194 0.07734 0.0
H544 H 0.7356 0.29103 0.08932 0.0
H545 H 0.70434 0.24079 0.07536 0.0
H546 H 0.66272 0.2712 0.02873 0.0
H547 H 0.69462 0.32171 0.04235 0.0
C548 C 0.63569 0.18501 0.01289 0.0
C549 C 0.62479 0.16173 0.02877 0.0
C550 C 0.6536 0.2143 0.02009 0.0
C551 C 0.6609 0.22091 0.04334 0.0
C552 C 0.64932 0.19762 0.05925 0.0
C553 C 0.63154 0.16841 0.05205 0.0
C554 C 0.71987 0.28702 0.07602 0.0
C555 C 0.7175 0.31029 0.06699 0.0
C556 C 0.70178 0.25817 0.06812 0.0
C557 C 0.68079 0.25187 0.05107 0.0
C558 C 0.67879 0.27529 0.04175 0.0
C559 C 0.69698 0.30421 0.04961 0.0
H560 H 0.44324 0.59966 0.18876 0.0
H561 H 0.52855 0.67913 0.18893 0.0
H562 H 0.42132 0.62835 0.19991 0.0
H563 H 0.50647 0.70803 0.19922 0.0
H564 H 0.45875 0.74407 0.24199 0.0
H565 H 0.4821 0.71652 0.23093 0.0
H566 H 0.41136 0.66443 0.18397 0.0
H567 H 0.38784 0.69148 0.19533 0.0
C568 C 0.45734 0.62325 0.19121 0.0
C569 C 0.48766 0.63706 0.18792 0.0
C570 C 0.44473 0.63978 0.19734 0.0
C571 C 0.4621 0.67056 0.20035 0.0
C572 C 0.49246 0.68436 0.19721 0.0
C573 C 0.50508 0.66782 0.19105 0.0
C574 C 0.4483 0.72684 0.22922 0.0
C575 C 0.4214 0.7199 0.21961 0.0
C576 C 0.46172 0.71111 0.22281 0.0
C577 C 0.44851 0.68809 0.20666 0.0
C578 C 0.42188 0.68162 0.19676 0.0
C579 C 0.4085 0.69731 0.20316 0.0
H580 H 0.86367 0.48864 0.40368 0.0
H581 H 0.84763 0.48593 0.33104 0.0
H582 H 0.81182 0.46899 0.41115 0.0
H583 H 0.79605 0.46699 0.33853 0.0
H584 H 0.72107 0.45837 0.41629 0.0
H585 H 0.77336 0.48223 0.40802 0.0
H586 H 0.75449 0.42041 0.35292 0.0
H587 H 0.70251 0.39682 0.36104 0.0
C588 C 0.84909 0.4839 0.38933 0.0
C589 C 0.85975 0.48877 0.36677 0.0
C590 C 0.81947 0.47297 0.39362 0.0
C591 C 0.79983 0.46644 0.37543 0.0
C592 C 0.81057 0.47158 0.3529 0.0
C593 C 0.84017 0.48267 0.34863 0.0
C594 C 0.72812 0.45013 0.40227 0.0
C595 C 0.70767 0.42571 0.38934 0.0
C596 C 0.75805 0.46364 0.39764 0.0
C597 C 0.76807 0.45316 0.37986 0.0
C598 C 0.7475 0.42922 0.36659 0.0
C599 C 0.71769 0.41561 0.37131 0.0
H600 H 0.10138 0.61925 0.44789 0.0
H601 H 0.11751 0.5492 0.43201 0.0
H602 H 0.13403 0.63339 0.48059 0.0
H603 H 0.15109 0.56388 0.46442 0.0
H604 H 0.18746 0.58154 0.53835 0.0
H605 H 0.15504 0.5654 0.50508 0.0
H606 H 0.18373 0.6564 0.48972 0.0
H607 H 0.21493 0.67221 0.52323 0.0
C608 C 0.11221 0.60708 0.45127 0.0
C609 C 0.10699 0.58322 0.43731 0.0
C610 C 0.13107 0.61524 0.46999 0.0
C611 C 0.14558 0.60002 0.47512 0.0
C612 C 0.14013 0.57594 0.46121 0.0
C613 C 0.12095 0.56756 0.44259 0.0
C614 C 0.1869 0.59803 0.52774 0.0
C615 C 0.2035 0.62811 0.53361 0.0
C616 C 0.16838 0.58882 0.50861 0.0
C617 C 0.16634 0.60954 0.4948 0.0
C618 C 0.18396 0.63969 0.50025 0.0
C619 C 0.20207 0.6488 0.51944 0.0
H620 H 0.5435 0.13659 0.57562 0.0
H621 H 0.53685 0.06276 0.61289 0.0
H622 H 0.56727 0.16859 0.60864 0.0
H623 H 0.5612 0.09492 0.6455 0.0
H624 H 0.64187 0.16991 0.68214 0.0
H625 H 0.61276 0.13732 0.65113 0.0
H626 H 0.55911 0.17642 0.65092 0.0
H627 H 0.58836 0.20932 0.68228 0.0
C628 C 0.5467 0.12706 0.59091 0.0
C629 C 0.53857 0.09713 0.59144 0.0
C630 C 0.56035 0.14543 0.60981 0.0
C631 C 0.56636 0.1343 0.62954 0.0
C632 C 0.55731 0.10421 0.63037 0.0
C633 C 0.54347 0.08583 0.61162 0.0
C634 C 0.62388 0.17165 0.67557 0.0
C635 C 0.61749 0.19229 0.68472 0.0
C636 C 0.60707 0.15278 0.65788 0.0
C637 C 0.58358 0.15422 0.64868 0.0
C638 C 0.57716 0.17491 0.65766 0.0
C639 C 0.59381 0.19362 0.67566 0.0
H640 H 0.44438 0.49706 0.78202 0.0
H641 H 0.41457 0.53763 0.73382 0.0
H642 H 0.43856 0.52454 0.81332 0.0
H643 H 0.40929 0.56554 0.76506 0.0
H644 H 0.45188 0.63846 0.8233 0.0
H645 H 0.45003 0.60691 0.79198 0.0
H646 H 0.39592 0.52955 0.83295 0.0
H647 H 0.39716 0.5611 0.86428 0.0
C648 C 0.43635 0.51167 0.77821 0.0
C649 C 0.42991 0.51529 0.75557 0.0
C650 C 0.43289 0.52723 0.79607 0.0
C651 C 0.42353 0.54713 0.79154 0.0
C652 C 0.4166 0.55035 0.76896 0.0
C653 C 0.41948 0.53433 0.75116 0.0
C654 C 0.4394 0.61471 0.82559 0.0
C655 C 0.42473 0.60226 0.84628 0.0
C656 C 0.43821 0.5967 0.80762 0.0
C657 C 0.42283 0.56586 0.8101 0.0
C658 C 0.40797 0.5533 0.83068 0.0
C659 C 0.4086 0.57133 0.84852 0.0
H660 H 0.92039 0.39261 0.94569 0.0
H661 H 0.91361 0.4699 0.93591 0.0
H662 H 0.88828 0.37869 0.9785 0.0
H663 H 0.87943 0.45458 0.96768 0.0
H664 H 0.84157 0.43366 0.04078 0.0
H665 H 0.87419 0.44994 0.00767 0.0
H666 H 0.83962 0.35878 0.9884 0.0
H667 H 0.80838 0.34278 0.02196 0.0
C668 C 0.91211 0.40672 0.95049 0.0
C669 C 0.9198 0.43247 0.938 0.0
C670 C 0.89314 0.39839 0.96916 0.0
C671 C 0.88081 0.41526 0.97574 0.0
C672 C 0.88857 0.44109 0.96333 0.0
C673 C 0.90792 0.44967 0.94481 0.0
C674 C 0.84089 0.41719 0.02933 0.0
C675 C 0.82266 0.38696 0.0341 0.0
C676 C 0.85953 0.42648 0.01028 0.0
C677 C 0.85997 0.40572 0.9954 0.0
C678 C 0.84068 0.37549 0.99976 0.0
C679 C 0.82252 0.36626 0.01894 0.0
H680 H 0.43575 0.90263 0.07887 0.0
H681 H 0.51725 0.91168 0.10057 0.0
H682 H 0.4111 0.8706 0.11115 0.0
H683 H 0.49282 0.8811 0.13397 0.0
H684 H 0.43238 0.80127 0.17986 0.0
H685 H 0.45863 0.83205 0.14684 0.0
H686 H 0.40705 0.87344 0.15089 0.0
H687 H 0.38031 0.84213 0.18303 0.0
C688 C 0.44848 0.89775 0.09046 0.0
C689 C 0.47857 0.90979 0.08695 0.0
C690 C 0.43437 0.87969 0.10929 0.0
C691 C 0.44996 0.87342 0.12541 0.0
C692 C 0.48002 0.88523 0.12186 0.0
C693 C 0.49414 0.90314 0.10284 0.0
C694 C 0.42673 0.817 0.17367 0.0
C695 C 0.40402 0.81899 0.18395 0.0
C696 C 0.44186 0.83475 0.1548 0.0
C697 C 0.43479 0.85507 0.14595 0.0
C698 C 0.41262 0.85753 0.15674 0.0
C699 C 0.39735 0.83964 0.17533 0.0
H700 H 0.55215 0.44422 0.24136 0.0
H701 H 0.6184 0.52692 0.27076 0.0
H702 H 0.55731 0.41758 0.27314 0.0
H703 H 0.62307 0.50033 0.30316 0.0
H704 H 0.63999 0.43924 0.34877 0.0
H705 H 0.63853 0.46731 0.31606 0.0
H706 H 0.54487 0.40909 0.31221 0.0
H707 H 0.54646 0.38072 0.34409 0.0
C708 C 0.56771 0.4567 0.25476 0.0
C709 C 0.58464 0.48765 0.2537 0.0
C710 C 0.57062 0.44146 0.27306 0.0
C711 C 0.59029 0.45677 0.29099 0.0
C712 C 0.60785 0.48777 0.28962 0.0
C713 C 0.60513 0.50304 0.2711 0.0
C714 C 0.61911 0.4325 0.34091 0.0
C715 C 0.59339 0.40754 0.34896 0.0
C716 C 0.61825 0.44866 0.3222 0.0
C717 C 0.59162 0.44032 0.31125 0.0
C718 C 0.5659 0.41577 0.31974 0.0
C719 C 0.56679 0.39955 0.3382 0.0
H720 H 0.43268 0.87191 0.41004 0.0
H721 H 0.44602 0.94597 0.36909 0.0
H722 H 0.41769 0.84091 0.37584 0.0
H723 H 0.43025 0.91469 0.33517 0.0
H724 H 0.36246 0.83948 0.28931 0.0
H725 H 0.38211 0.87124 0.32267 0.0
H726 H 0.43704 0.83553 0.33702 0.0
H727 H 0.41733 0.80346 0.30332 0.0
C728 C 0.43276 0.88172 0.39376 0.0
C729 C 0.44036 0.91147 0.39243 0.0
C730 C 0.42413 0.8639 0.37418 0.0
C731 C 0.42263 0.87533 0.35288 0.0
C732 C 0.43079 0.90516 0.35143 0.0
C733 C 0.43967 0.92303 0.37093 0.0
C734 C 0.37874 0.83831 0.2995 0.0
C735 C 0.38829 0.81884 0.2936 0.0
C736 C 0.39015 0.8567 0.31856 0.0
C737 C 0.41119 0.85596 0.3324 0.0
C738 C 0.42074 0.83646 0.32668 0.0
C739 C 0.40956 0.81823 0.30734 0.0
H740 H 0.55343 0.41441 0.57721 0.0
H741 H 0.49564 0.43056 0.53646 0.0
H742 H 0.57181 0.40395 0.54239 0.0
H743 H 0.51349 0.41933 0.50189 0.0
H744 H 0.52313 0.35727 0.45205 0.0
H745 H 0.50897 0.37289 0.48629 0.0
H746 H 0.59963 0.42813 0.50525 0.0
H747 H 0.61406 0.41248 0.47067 0.0
C748 C 0.54484 0.41606 0.56087 0.0
C749 C 0.52278 0.42305 0.55974 0.0
C750 C 0.55539 0.41004 0.54093 0.0
C751 C 0.54395 0.41063 0.51944 0.0
C752 C 0.52241 0.41826 0.51825 0.0
C753 C 0.51206 0.42452 0.53811 0.0
C754 C 0.54016 0.3728 0.46343 0.0
C755 C 0.56977 0.38359 0.45859 0.0
C756 C 0.532 0.3819 0.483 0.0
C757 C 0.55318 0.4018 0.49842 0.0
C758 C 0.58283 0.41265 0.4937 0.0
C759 C 0.59108 0.40382 0.47386 0.0
H760 H 0.07217 0.5261 0.71984 0.0
H761 H 0.1462 0.53354 0.75595 0.0
H762 H 0.10285 0.54951 0.68648 0.0
H763 H 0.17674 0.55635 0.72216 0.0
H764 H 0.21427 0.57453 0.64768 0.0
H765 H 0.18281 0.5464 0.67996 0.0
H766 H 0.14477 0.60122 0.67932 0.0
H767 H 0.17596 0.62925 0.64737 0.0
C768 C 0.09498 0.53272 0.7207 0.0
C769 C 0.10677 0.52832 0.74077 0.0
C770 C 0.11252 0.54601 0.70152 0.0
C771 C 0.14224 0.55499 0.70179 0.0
C772 C 0.15385 0.54948 0.72143 0.0
C773 C 0.13632 0.53637 0.74076 0.0
C774 C 0.19909 0.58047 0.65438 0.0
C775 C 0.19767 0.60417 0.64493 0.0
C776 C 0.18122 0.56447 0.67292 0.0
C777 C 0.16127 0.57155 0.68208 0.0
C778 C 0.15969 0.59502 0.67247 0.0
C779 C 0.17774 0.61121 0.65422 0.0
H780 H 0.55247 0.10757 0.89163 0.0
H781 H 0.63818 0.1186 0.89709 0.0
H782 H 0.56756 0.1372 0.85689 0.0
H783 H 0.65383 0.14989 0.86343 0.0
H784 H 0.66405 0.1747 0.78896 0.0
H785 H 0.64753 0.14557 0.82368 0.0
H786 H 0.59676 0.18528 0.84103 0.0
H787 H 0.61256 0.21379 0.80552 0.0
C788 C 0.57457 0.11638 0.88552 0.0
C789 C 0.59398 0.11036 0.89719 0.0
C790 C 0.58337 0.13379 0.86573 0.0
C791 C 0.61189 0.14586 0.85715 0.0
C792 C 0.63151 0.14053 0.86919 0.0
C793 C 0.62264 0.1229 0.88881 0.0
C794 C 0.64934 0.17728 0.80013 0.0
C795 C 0.63974 0.19673 0.79446 0.0
C796 C 0.64001 0.16067 0.82022 0.0
C797 C 0.62107 0.16325 0.83544 0.0
C798 C 0.61114 0.18247 0.82966 0.0
C799 C 0.62027 0.19892 0.80933 0.0
H800 H 0.4737 0.59979 0.07519 0.0
H801 H 0.53269 0.58451 0.03521 0.0
H802 H 0.4558 0.61023 0.04017 0.0
H803 H 0.51517 0.59553 1.00037 0.0
H804 H 0.50394 0.65471 0.94888 0.0
H805 H 0.51864 0.64014 0.98336 0.0
H806 H 0.42833 0.58637 0.00377 0.0
H807 H 0.41339 0.6011 0.96907 0.0
C808 C 0.48267 0.59836 0.05896 0.0
C809 C 0.50484 0.59149 0.05812 0.0
C810 C 0.47238 0.60435 0.03889 0.0
C811 C 0.48415 0.60383 0.01751 0.0
C812 C 0.50597 0.59655 0.01661 0.0
C813 C 0.51611 0.59037 0.03663 0.0
C814 C 0.4871 0.63971 0.96063 0.0
C815 C 0.45743 0.62911 0.95615 0.0
C816 C 0.49557 0.63121 0.98035 0.0
C817 C 0.47467 0.61205 0.99628 0.0
C818 C 0.44496 0.60133 0.99187 0.0
C819 C 0.43641 0.60962 0.97194 0.0
H820 H 0.877 0.47332 0.25865 0.0
H821 H 0.95487 0.49653 0.22009 0.0
H822 H 0.84722 0.45022 0.22447 0.0
H823 H 0.9251 0.47327 0.18601 0.0
H824 H 0.8558 0.39081 0.14445 0.0
H825 H 0.88671 0.41881 0.1767 0.0
H826 H 0.83998 0.46491 0.18326 0.0
H827 H 0.80909 0.4371 0.15064 0.0
C828 C 0.88771 0.47359 0.24283 0.0
C829 C 0.91822 0.48666 0.242 0.0
C830 C 0.87072 0.46058 0.22328 0.0
C831 C 0.88388 0.45994 0.20264 0.0
C832 C 0.91441 0.47335 0.20174 0.0
C833 C 0.93143 0.48679 0.22117 0.0
C834 C 0.85215 0.407 0.15267 0.0
C835 C 0.82994 0.41169 0.14501 0.0
C836 C 0.86998 0.42314 0.17105 0.0
C837 C 0.86572 0.44401 0.18245 0.0
C838 C 0.84362 0.44885 0.1748 0.0
C839 C 0.82608 0.43306 0.15609 0.0
loop_
_geom_bond_atom_site_label_1
_geom_bond_atom_site_label_2
_geom_bond_distance
_geom_bond_site_symmetry_2
_ccdc_geom_bond_type
C0 C1 1.384 . S
C0 C2 1.384 . S
C0 H28 0.931 . S
C1 C0 1.384 . S
C1 C4 1.382 . S
C2 C0 1.384 . S
C2 C3 1.381 . S
C2 H29 0.930 . S
C3 C2 1.381 . S
C3 C5 1.381 . S
C3 C6 1.487 . S
C4 C1 1.382 . S
C4 C5 1.387 . S
C4 H30 0.930 . S
C5 C3 1.381 . S
C5 C4 1.387 . S
C5 H31 0.931 . S
C6 C3 1.487 . S
C6 C13 1.399 . S
C6 N44 1.343 1_655 S
C7 C8 1.384 . S
C7 C9 1.384 . S
C7 H32 0.931 . S
C8 C7 1.384 . S
C8 C11 1.382 . S
C9 C7 1.384 . S
C9 C10 1.381 . S
C9 H33 0.930 . S
C10 C9 1.381 . S
C10 C12 1.381 . S
C10 C13 1.487 . S
C11 C8 1.382 . S
C11 C12 1.387 . S
C11 H34 0.930 . S
C12 C10 1.381 . S
C12 C11 1.387 . S
C12 H35 0.931 . S
C13 C6 1.399 . S
C13 C10 1.487 . S
C13 N45 1.343 1_655 S
C14 C15 1.384 . S
C14 C16 1.384 . S
C14 H36 0.931 . S
C15 C14 1.384 . S
C15 C18 1.382 . S
C16 C14 1.384 . S
C16 C17 1.381 . S
C16 H37 0.930 . S
C17 C16 1.381 . S
C17 C19 1.381 . S
C17 C20 1.487 . S
C18 C15 1.382 . S
C18 C19 1.387 . S
C18 H38 0.930 . S
C19 C17 1.381 . S
C19 C18 1.387 . S
C19 H39 0.931 . S
C20 C17 1.487 . S
C20 C27 1.399 . S
C20 N45 1.343 . S
C21 C22 1.384 . S
C21 C23 1.384 . S
C21 H40 0.931 . S
C22 C21 1.384 . S
C22 C25 1.382 . S
C23 C21 1.384 . S
C23 C24 1.381 . S
C23 H41 0.930 . S
C24 C23 1.381 . S
C24 C26 1.381 . S
C24 C27 1.487 . S
C25 C22 1.382 . S
C25 C26 1.387 . S
C25 H42 0.930 . S
C26 C24 1.381 . S
C26 C25 1.387 . S
C26 H43 0.931 . S
C27 C20 1.399 . S
C27 C24 1.487 . S
C27 N44 1.343 . S
H28 C0 0.931 . S
H29 C2 0.930 . S
H30 C4 0.930 . S
H31 C5 0.931 . S
H32 C7 0.931 . S
H33 C9 0.930 . S
H34 C11 0.930 . S
H35 C12 0.931 . S
H36 C14 0.931 . S
H37 C16 0.930 . S
H38 C18 0.930 . S
H39 C19 0.931 . S
H40 C21 0.931 . S
H41 C23 0.930 . S
H42 C25 0.930 . S
H43 C26 0.931 . S
N44 C6 1.343 1_455 S
N44 C27 1.343 . S
N45 C13 1.343 1_455 S
N45 C20 1.343 . S
C46 C47 1.384 . S
C46 C48 1.384 . S
C46 H74 0.931 . S
C47 C46 1.384 . S
C47 C50 1.382 . S
C48 C46 1.384 . S
C48 C49 1.381 . S
C48 H75 0.930 . S
C49 C48 1.381 . S
C49 C51 1.381 . S
C49 C52 1.487 . S
C50 C47 1.382 . S
C50 C51 1.387 . S
C50 H76 0.930 . S
C51 C49 1.381 . S
C51 C50 1.387 . S
C51 H77 0.931 . S
C52 C49 1.487 . S
C52 C59 1.399 . S
C52 N90 1.343 . S
C53 C54 1.384 . S
C53 C55 1.384 . S
C53 H78 0.931 . S
C54 C53 1.384 . S
C54 C57 1.382 . S
C55 C53 1.384 . S
C55 C56 1.381 . S
C55 H79 0.930 . S
C56 C55 1.381 . S
C56 C58 1.381 . S
C56 C59 1.487 . S
C57 C54 1.382 . S
C57 C58 1.387 . S
C57 H80 0.930 . S
C58 C56 1.381 . S
C58 C57 1.387 . S
C58 H81 0.931 . S
C59 C52 1.399 . S
C59 C56 1.487 . S
C59 N91 1.343 1_565 S
C60 C61 1.384 . S
C60 C62 1.384 . S
C60 H82 0.931 . S
C61 C60 1.384 . S
C61 C64 1.382 . S
C62 C60 1.384 . S
C62 C63 1.381 . S
C62 H83 0.930 . S
C63 C62 1.381 . S
C63 C65 1.381 . S
C63 C66 1.487 . S
C64 C61 1.382 . S
C64 C65 1.387 . S
C64 H84 0.930 . S
C65 C63 1.381 . S
C65 C64 1.387 . S
C65 H85 0.931 . S
C66 C63 1.487 . S
C66 C73 1.399 . S
C66 N91 1.343 . S
C67 C68 1.384 . S
C67 C69 1.384 . S
C67 H86 0.931 . S
C68 C67 1.384 . S
C68 C71 1.382 . S
C69 C67 1.384 . S
C69 C70 1.381 . S
C69 H87 0.930 . S
C70 C69 1.381 . S
C70 C72 1.381 . S
C70 C73 1.487 . S
C71 C68 1.382 . S
C71 C72 1.387 . S
C71 H88 0.930 . S
C72 C70 1.381 . S
C72 C71 1.387 . S
C72 H89 0.931 . S
C73 C66 1.399 . S
C73 C70 1.487 . S
C73 N90 1.343 1_545 S
H74 C46 0.931 . S
H75 C48 0.930 . S
H76 C50 0.930 . S
H77 C51 0.931 . S
H78 C53 0.931 . S
H79 C55 0.930 . S
H80 C57 0.930 . S
H81 C58 0.931 . S
H82 C60 0.931 . S
H83 C62 0.930 . S
H84 C64 0.930 . S
H85 C65 0.931 . S
H86 C67 0.931 . S
H87 C69 0.930 . S
H88 C71 0.930 . S
H89 C72 0.931 . S
N90 C52 1.343 . S
N90 C73 1.343 1_565 S
N91 C59 1.343 1_545 S
N91 C66 1.343 . S
C92 C93 1.384 . S
C92 C94 1.384 . S
C92 H120 0.931 . S
C93 C92 1.384 . S
C93 C96 1.382 . S
C94 C92 1.384 . S
C94 C95 1.381 . S
C94 H121 0.930 . S
C95 C94 1.381 . S
C95 C97 1.381 . S
C95 C98 1.487 . S
C96 C93 1.382 . S
C96 C97 1.387 . S
C96 H122 0.930 . S
C97 C95 1.381 . S
C97 C96 1.387 . S
C97 H123 0.931 . S
C98 C95 1.487 . S
C98 C105 1.399 . S
C98 N136 1.343 . S
C99 C100 1.384 . S
C99 C101 1.384 . S
C99 H124 0.931 . S
C100 C99 1.384 . S
C100 C103 1.382 . S
C101 C99 1.384 . S
C101 C102 1.381 . S
C101 H125 0.930 . S
C102 C101 1.381 . S
C102 C104 1.381 . S
C102 C105 1.487 . S
C103 C100 1.382 . S
C103 C104 1.387 . S
C103 H126 0.930 . S
C104 C102 1.381 . S
C104 C103 1.387 . S
C104 H127 0.931 . S
C105 C98 1.399 . S
C105 C102 1.487 . S
C105 N137 1.343 . S
C106 C107 1.384 . S
C106 C108 1.384 . S
C106 H128 0.931 . S
C107 C106 1.384 . S
C107 C110 1.382 . S
C108 C106 1.384 . S
C108 C109 1.381 . S
C108 H129 0.930 . S
C109 C108 1.381 . S
C109 C111 1.381 . S
C109 C112 1.487 . S
C110 C107 1.382 . S
C110 C111 1.387 . S
C110 H130 0.930 . S
C111 C109 1.381 . S
C111 C110 1.387 . S
C111 H131 0.931 . S
C112 C109 1.487 . S
C112 C119 1.399 . S
C112 N137 1.343 . S
C113 C114 1.384 . S
C113 C115 1.384 . S
C113 H132 0.931 . S
C114 C113 1.384 . S
C114 C117 1.382 . S
C115 C113 1.384 . S
C115 C116 1.381 . S
C115 H133 0.930 . S
C116 C115 1.381 . S
C116 C118 1.381 . S
C116 C119 1.487 . S
C117 C114 1.382 . S
C117 C118 1.387 . S
C117 H134 0.930 . S
C118 C116 1.381 . S
C118 C117 1.387 . S
C118 H135 0.931 . S
C119 C112 1.399 . S
C119 C116 1.487 . S
C119 N136 1.343 . S
H120 C92 0.931 . S
H121 C94 0.930 . S
H122 C96 0.930 . S
H123 C97 0.931 . S
H124 C99 0.931 . S
H125 C101 0.930 . S
H126 C103 0.930 . S
H127 C104 0.931 . S
H128 C106 0.931 . S
H129 C108 0.930 . S
H130 C110 0.930 . S
H131 C111 0.931 . S
H132 C113 0.931 . S
H133 C115 0.930 . S
H134 C117 0.930 . S
H135 C118 0.931 . S
N136 C98 1.343 . S
N136 C119 1.343 . S
N137 C105 1.343 . S
N137 C112 1.343 . S
C138 C139 1.384 . S
C138 C140 1.384 . S
C138 H166 0.931 . S
C139 C138 1.384 . S
C139 C142 1.382 . S
C140 C138 1.384 . S
C140 C141 1.381 . S
C140 H167 0.930 . S
C141 C140 1.381 . S
C141 C143 1.381 . S
C141 C144 1.487 . S
C142 C139 1.382 . S
C142 C143 1.387 . S
C142 H168 0.930 . S
C143 C141 1.381 . S
C143 C142 1.387 . S
C143 H169 0.931 . S
C144 C141 1.487 . S
C144 C151 1.399 . S
C144 N182 1.345 . S
C145 C146 1.384 . S
C145 C147 1.384 . S
C145 H170 0.931 . S
C146 C145 1.384 . S
C146 C149 1.382 . S
C147 C145 1.384 . S
C147 C148 1.381 . S
C147 H171 0.930 . S
C148 C147 1.381 . S
C148 C150 1.381 . S
C148 C151 1.487 . S
C149 C146 1.382 . S
C149 C150 1.387 . S
C149 H172 0.930 . S
C150 C148 1.381 . S
C150 C149 1.387 . S
C150 H173 0.931 . S
C151 C144 1.399 . S
C151 C148 1.487 . S
C151 N183 1.343 1_655 S
C152 C153 1.384 . S
C152 C154 1.384 . S
C152 H174 0.931 . S
C153 C152 1.384 . S
C153 C156 1.382 . S
C154 C152 1.384 . S
C154 C155 1.381 . S
C154 H175 0.930 . S
C155 C154 1.381 . S
C155 C157 1.381 . S
C155 C158 1.487 . S
C156 C153 1.382 . S
C156 C157 1.387 . S
C156 H176 0.930 . S
C157 C155 1.381 . S
C157 C156 1.387 . S
C157 H177 0.931 . S
C158 C155 1.487 . S
C158 C165 1.399 . S
C158 N183 1.343 . S
C159 C160 1.384 . S
C159 C161 1.384 . S
C159 H178 0.931 . S
C160 C159 1.384 . S
C160 C163 1.382 . S
C161 C159 1.384 . S
C161 C162 1.381 . S
C161 H179 0.930 . S
C162 C161 1.381 . S
C162 C164 1.381 . S
C162 C165 1.487 . S
C163 C160 1.382 . S
C163 C164 1.387 . S
C163 H180 0.930 . S
C164 C162 1.381 . S
C164 C163 1.387 . S
C164 H181 0.931 . S
C165 C158 1.399 . S
C165 C162 1.487 . S
C165 N182 1.340 1_455 S
H166 C138 0.931 . S
H167 C140 0.930 . S
H168 C142 0.930 . S
H169 C143 0.931 . S
H170 C145 0.931 . S
H171 C147 0.930 . S
H172 C149 0.930 . S
H173 C150 0.931 . S
H174 C152 0.931 . S
H175 C154 0.930 . S
H176 C156 0.930 . S
H177 C157 0.931 . S
H178 C159 0.931 . S
H179 C161 0.930 . S
H180 C163 0.930 . S
H181 C164 0.931 . S
N182 C144 1.345 . S
N182 C165 1.340 1_655 S
N183 C151 1.343 1_455 S
N183 C158 1.343 . S
C184 C185 1.384 . S
C184 C186 1.384 . S
C184 H212 0.931 . S
C185 C184 1.384 . S
C185 C188 1.382 . S
C186 C184 1.384 . S
C186 C187 1.381 . S
C186 H213 0.930 1_556 S
C187 C186 1.381 . S
C187 C189 1.381 . S
C187 C190 1.487 . S
C188 C185 1.382 . S
C188 C189 1.387 . S
C188 H214 0.930 . S
C189 C187 1.381 . S
C189 C188 1.387 . S
C189 H215 0.931 . S
C190 C187 1.487 . S
C190 C197 1.399 1_556 S
C190 N228 1.343 . S
C191 C192 1.384 . S
C191 C193 1.384 . S
C191 H216 0.931 . S
C192 C191 1.384 . S
C192 C195 1.382 . S
C193 C191 1.384 . S
C193 C194 1.381 . S
C193 H217 0.930 . S
C194 C193 1.381 . S
C194 C196 1.381 . S
C194 C197 1.487 . S
C195 C192 1.382 . S
C195 C196 1.387 . S
C195 H218 0.930 . S
C196 C194 1.381 . S
C196 C195 1.387 . S
C196 H219 0.931 . S
C197 C190 1.399 1_554 S
C197 C194 1.487 . S
C197 N229 1.343 1_565 S
C198 C199 1.384 . S
C198 C200 1.384 1_554 S
C198 H220 0.931 . S
C199 C198 1.384 . S
C199 C202 1.382 . S
C200 C198 1.384 1_556 S
C200 C201 1.381 1_556 S
C200 H221 0.930 . S
C201 C200 1.381 1_554 S
C201 C203 1.381 . S
C201 C204 1.490 . S
C202 C199 1.382 . S
C202 C203 1.387 . S
C202 H222 0.930 . S
C203 C201 1.381 . S
C203 C202 1.387 . S
C203 H223 0.931 . S
C204 C201 1.490 . S
C204 C211 1.390 1_554 S
C204 N229 1.350 . S
C205 C206 1.384 . S
C205 C207 1.384 . S
C205 H224 0.931 . S
C206 C205 1.384 . S
C206 C209 1.382 . S
C207 C205 1.384 . S
C207 C208 1.381 . S
C207 H225 0.930 . S
C208 C207 1.381 . S
C208 C210 1.381 . S
C208 C211 1.487 . S
C209 C206 1.382 . S
C209 C210 1.387 . S
C209 H226 0.930 . S
C210 C208 1.381 . S
C210 C209 1.387 . S
C210 H227 0.931 . S
C211 C204 1.390 1_556 S
C211 C208 1.487 . S
C211 N228 1.343 1_545 S
H212 C184 0.931 . S
H213 C186 0.930 1_554 S
H214 C188 0.930 . S
H215 C189 0.931 . S
H216 C191 0.931 . S
H217 C193 0.930 . S
H218 C195 0.930 . S
H219 C196 0.931 . S
H220 C198 0.931 . S
H221 C200 0.930 . S
H222 C202 0.930 . S
H223 C203 0.931 . S
H224 C205 0.931 . S
H225 C207 0.930 . S
H226 C209 0.930 . S
H227 C210 0.931 . S
N228 C190 1.343 . S
N228 C211 1.343 1_565 S
N229 C197 1.343 1_545 S
N229 C204 1.350 . S
C230 C231 1.384 . S
C230 C232 1.384 . S
C230 H258 0.931 . S
C231 C230 1.384 . S
C231 C234 1.382 . S
C232 C230 1.384 . S
C232 C233 1.381 . S
C232 H259 0.930 . S
C233 C232 1.381 . S
C233 C235 1.381 . S
C233 C236 1.487 . S
C234 C231 1.382 . S
C234 C235 1.387 . S
C234 H260 0.930 . S
C235 C233 1.381 . S
C235 C234 1.387 . S
C235 H261 0.931 . S
C236 C233 1.487 . S
C236 C243 1.399 . S
C236 N274 1.343 . S
C237 C238 1.384 . S
C237 C239 1.384 . S
C237 H262 0.931 . S
C238 C237 1.384 . S
C238 C241 1.382 . S
C239 C237 1.384 . S
C239 C240 1.381 . S
C239 H263 0.930 . S
C240 C239 1.381 . S
C240 C242 1.381 . S
C240 C243 1.487 . S
C241 C238 1.382 . S
C241 C242 1.387 . S
C241 H264 0.930 . S
C242 C240 1.381 . S
C242 C241 1.387 . S
C242 H265 0.931 . S
C243 C236 1.399 . S
C243 C240 1.487 . S
C243 N275 1.343 . S
C244 C245 1.384 . S
C244 C246 1.384 . S
C244 H266 0.931 . S
C245 C244 1.384 . S
C245 C248 1.382 . S
C246 C244 1.384 . S
C246 C247 1.381 . S
C246 H267 0.930 . S
C247 C246 1.381 . S
C247 C249 1.381 . S
C247 C250 1.487 . S
C248 C245 1.382 . S
C248 C249 1.387 . S
C248 H268 0.930 . S
C249 C247 1.381 . S
C249 C248 1.387 . S
C249 H269 0.931 . S
C250 C247 1.487 . S
C250 C257 1.399 . S
C250 N275 1.343 . S
C251 C252 1.384 . S
C251 C253 1.384 . S
C251 H270 0.931 . S
C252 C251 1.384 . S
C252 C255 1.382 . S
C253 C251 1.384 . S
C253 C254 1.381 . S
C253 H271 0.930 . S
C254 C253 1.381 . S
C254 C256 1.381 . S
C254 C257 1.487 . S
C255 C252 1.382 . S
C255 C256 1.387 . S
C255 H272 0.930 . S
C256 C254 1.381 . S
C256 C255 1.387 . S
C256 H273 0.931 . S
C257 C250 1.399 . S
C257 C254 1.487 . S
C257 N274 1.343 . S
H258 C230 0.931 . S
H259 C232 0.930 . S
H260 C234 0.930 . S
H261 C235 0.931 . S
H262 C237 0.931 . S
H263 C239 0.930 . S
H264 C241 0.930 . S
H265 C242 0.931 . S
H266 C244 0.931 . S
H267 C246 0.930 . S
H268 C248 0.930 . S
H269 C249 0.931 . S
H270 C251 0.931 . S
H271 C253 0.930 . S
H272 C255 0.930 . S
H273 C256 0.931 . S
N274 C236 1.343 . S
N274 C257 1.343 . S
N275 C243 1.343 . S
N275 C250 1.343 . S
Co276 O277 2.216 . S
Co276 O278 2.091 . S
Co276 O280 2.004 . S
Co276 O286 2.021 . S
Co276 O288 2.137 . S
Co276 O289 2.244 . S
O277 Co276 2.216 . S
O277 C284 1.247 . S
O278 Co276 2.091 . S
O278 C284 1.261 . S
C279 O288 1.247 . S
C279 O289 1.272 . S
O280 Co276 2.004 . S
O280 C285 1.259 . S
Co281 O282 2.061 . S
Co281 O287 2.052 . S
Co281 O289 2.135 . S
O282 Co281 2.061 . S
O282 C285 1.235 . S
C283 O286 1.238 . S
C283 O287 1.241 . S
C284 O277 1.247 . S
C284 O278 1.261 . S
C285 O280 1.259 . S
C285 O282 1.235 . S
O286 Co276 2.021 . S
O286 C283 1.238 . S
O287 Co281 2.052 . S
O287 C283 1.241 . S
O288 Co276 2.137 . S
O288 C279 1.247 . S
O289 Co276 2.244 . S
O289 C279 1.272 . S
O289 Co281 2.135 . S
Co290 O291 2.216 . S
Co290 O292 2.091 . S
Co290 O294 2.004 . S
Co290 O300 2.021 . S
Co290 O302 2.137 . S
Co290 O303 2.244 . S
O291 Co290 2.216 . S
O291 C298 1.247 . S
O292 Co290 2.091 . S
O292 C298 1.261 . S
C293 O302 1.247 . S
C293 O303 1.272 . S
O294 Co290 2.004 . S
O294 C299 1.259 . S
Co295 O296 2.061 . S
Co295 O301 2.052 . S
Co295 O303 2.135 . S
O296 Co295 2.061 . S
O296 C299 1.235 . S
C297 O300 1.238 . S
C297 O301 1.241 . S
C298 O291 1.247 . S
C298 O292 1.261 . S
C299 O294 1.259 . S
C299 O296 1.235 . S
O300 Co290 2.021 . S
O300 C297 1.238 . S
O301 Co295 2.052 . S
O301 C297 1.241 . S
O302 Co290 2.137 . S
O302 C293 1.247 . S
O303 Co290 2.244 . S
O303 C293 1.272 . S
O303 Co295 2.135 . S
Co304 O305 2.216 . S
Co304 O306 2.091 . S
Co304 O308 2.004 . S
Co304 O314 2.021 . S
Co304 O316 2.137 . S
Co304 O317 2.244 . S
O305 Co304 2.216 . S
O305 C312 1.247 . S
O306 Co304 2.091 . S
O306 C312 1.261 . S
C307 O316 1.247 . S
C307 O317 1.272 . S
O308 Co304 2.004 . S
O308 C313 1.259 . S
Co309 O310 2.061 . S
Co309 O315 2.052 . S
Co309 O317 2.135 . S
O310 Co309 2.061 . S
O310 C313 1.235 . S
C311 O314 1.238 . S
C311 O315 1.241 . S
C312 O305 1.247 . S
C312 O306 1.261 . S
C313 O308 1.259 . S
C313 O310 1.235 . S
O314 Co304 2.021 . S
O314 C311 1.238 . S
O315 Co309 2.052 . S
O315 C311 1.241 . S
O316 Co304 2.137 . S
O316 C307 1.247 . S
O317 Co304 2.244 . S
O317 C307 1.272 . S
O317 Co309 2.135 . S
Co318 O319 2.216 . S
Co318 O320 2.091 . S
Co318 O322 2.004 . S
Co318 O328 2.021 . S
Co318 O330 2.137 . S
Co318 O331 2.244 . S
O319 Co318 2.216 . S
O319 C326 1.247 . S
O320 Co318 2.091 . S
O320 C326 1.261 . S
C321 O330 1.247 . S
C321 O331 1.272 . S
O322 Co318 2.004 . S
O322 C327 1.259 . S
Co323 O324 2.061 . S
Co323 O329 2.052 . S
Co323 O331 2.135 . S
O324 Co323 2.061 . S
O324 C327 1.235 . S
C325 O328 1.238 . S
C325 O329 1.241 . S
C326 O319 1.247 . S
C326 O320 1.261 . S
C327 O322 1.259 . S
C327 O324 1.235 . S
O328 Co318 2.021 . S
O328 C325 1.238 . S
O329 Co323 2.052 . S
O329 C325 1.241 . S
O330 Co318 2.137 . S
O330 C321 1.247 . S
O331 Co318 2.244 . S
O331 C321 1.272 . S
O331 Co323 2.135 . S
Co332 O333 2.216 . S
Co332 O334 2.091 . S
Co332 O336 2.004 . S
Co332 O342 2.021 . S
Co332 O344 2.137 . S
Co332 O345 2.244 . S
O333 Co332 2.216 . S
O333 C340 1.247 . S
O334 Co332 2.091 . S
O334 C340 1.261 . S
C335 O344 1.247 . S
C335 O345 1.272 . S
O336 Co332 2.004 . S
O336 C341 1.259 . S
Co337 O338 2.061 . S
Co337 O343 2.052 . S
Co337 O345 2.135 . S
O338 Co337 2.061 . S
O338 C341 1.235 . S
C339 O342 1.238 . S
C339 O343 1.241 . S
C340 O333 1.247 . S
C340 O334 1.261 . S
C341 O336 1.259 . S
C341 O338 1.235 . S
O342 Co332 2.021 . S
O342 C339 1.238 . S
O343 Co337 2.052 . S
O343 C339 1.241 . S
O344 Co332 2.137 . S
O344 C335 1.247 . S
O345 Co332 2.244 . S
O345 C335 1.272 . S
O345 Co337 2.135 . S
Co346 O347 2.216 . S
Co346 O348 2.091 . S
Co346 O350 2.004 . S
Co346 O356 2.021 . S
Co346 O358 2.137 . S
Co346 O359 2.244 . S
O347 Co346 2.216 . S
O347 C354 1.247 . S
O348 Co346 2.091 . S
O348 C354 1.261 . S
C349 O358 1.247 . S
C349 O359 1.272 . S
O350 Co346 2.004 . S
O350 C355 1.259 . S
Co351 O352 2.061 . S
Co351 O357 2.052 . S
Co351 O359 2.135 . S
O352 Co351 2.061 . S
O352 C355 1.235 . S
C353 O356 1.238 . S
C353 O357 1.241 . S
C354 O347 1.247 . S
C354 O348 1.261 . S
C355 O350 1.259 . S
C355 O352 1.235 . S
O356 Co346 2.021 . S
O356 C353 1.238 . S
O357 Co351 2.052 . S
O357 C353 1.241 . S
O358 Co346 2.137 . S
O358 C349 1.247 . S
O359 Co346 2.244 . S
O359 C349 1.272 . S
O359 Co351 2.135 . S
H360 C368 0.950 . S
H361 C373 0.950 . S
H362 C370 0.950 . S
H363 C372 0.950 . S
H364 C374 0.950 . S
H365 C376 0.950 . S
H366 C378 0.950 . S
H367 C379 0.950 . S
C368 H360 0.950 . S
C368 C369 1.386 . S
C368 C370 1.391 . S
C369 C368 1.386 . S
C369 C373 1.393 . S
C370 H362 0.950 . S
C370 C368 1.391 . S
C370 C371 1.400 . S
C371 C370 1.400 . S
C371 C372 1.398 . S
C371 C377 1.491 . S
C372 H363 0.950 . S
C372 C371 1.398 . S
C372 C373 1.391 . S
C373 H361 0.950 . S
C373 C369 1.393 . S
C373 C372 1.391 . S
C374 H364 0.950 . S
C374 C375 1.386 . S
C374 C376 1.391 . S
C375 C374 1.386 . S
C375 C379 1.393 . S
C376 H365 0.950 . S
C376 C374 1.391 . S
C376 C377 1.400 . S
C377 C371 1.491 . S
C377 C376 1.400 . S
C377 C378 1.398 . S
C378 H366 0.950 . S
C378 C377 1.398 . S
C378 C379 1.391 . S
C379 H367 0.950 . S
C379 C375 1.393 . S
C379 C378 1.391 . S
H380 C388 0.950 . S
H381 C393 0.950 . S
H382 C390 0.950 . S
H383 C392 0.950 . S
H384 C394 0.950 . S
H385 C396 0.950 . S
H386 C398 0.950 . S
H387 C399 0.950 . S
C388 H380 0.950 . S
C388 C389 1.386 . S
C388 C390 1.391 . S
C389 C388 1.386 . S
C389 C393 1.393 . S
C390 H382 0.950 . S
C390 C388 1.391 . S
C390 C391 1.400 . S
C391 C390 1.400 . S
C391 C392 1.398 . S
C391 C397 1.491 . S
C392 H383 0.950 . S
C392 C391 1.398 . S
C392 C393 1.391 . S
C393 H381 0.950 . S
C393 C389 1.393 . S
C393 C392 1.391 . S
C394 H384 0.950 . S
C394 C395 1.386 . S
C394 C396 1.391 . S
C395 C394 1.386 . S
C395 C399 1.393 . S
C396 H385 0.950 . S
C396 C394 1.391 . S
C396 C397 1.400 . S
C397 C391 1.491 . S
C397 C396 1.400 . S
C397 C398 1.398 . S
C398 H386 0.950 . S
C398 C397 1.398 . S
C398 C399 1.391 . S
C399 H387 0.950 . S
C399 C395 1.393 . S
C399 C398 1.391 . S
H400 C408 0.950 . S
H401 C413 0.950 . S
H402 C410 0.950 . S
H403 C412 0.950 . S
H404 C414 0.950 . S
H405 C416 0.950 . S
H406 C418 0.950 . S
H407 C419 0.950 . S
C408 H400 0.950 . S
C408 C409 1.386 . S
C408 C410 1.391 . S
C409 C408 1.386 . S
C409 C413 1.393 . S
C410 H402 0.950 . S
C410 C408 1.391 . S
C410 C411 1.400 . S
C411 C410 1.400 . S
C411 C412 1.398 . S
C411 C417 1.491 . S
C412 H403 0.950 . S
C412 C411 1.398 . S
C412 C413 1.391 . S
C413 H401 0.950 . S
C413 C409 1.393 . S
C413 C412 1.391 . S
C414 H404 0.950 . S
C414 C415 1.386 . S
C414 C416 1.391 . S
C415 C414 1.386 . S
C415 C419 1.393 . S
C416 H405 0.950 . S
C416 C414 1.391 . S
C416 C417 1.400 . S
C417 C411 1.491 . S
C417 C416 1.400 . S
C417 C418 1.398 . S
C418 H406 0.950 . S
C418 C417 1.398 . S
C418 C419 1.391 . S
C419 H407 0.950 . S
C419 C415 1.393 . S
C419 C418 1.391 . S
H420 C428 0.950 . S
H421 C433 0.950 . S
H422 C430 0.950 . S
H423 C432 0.950 . S
H424 C434 0.950 . S
H425 C436 0.950 . S
H426 C438 0.950 . S
H427 C439 0.950 . S
C428 H420 0.950 . S
C428 C429 1.386 . S
C428 C430 1.391 . S
C429 C428 1.386 . S
C429 C433 1.393 . S
C430 H422 0.950 . S
C430 C428 1.391 . S
C430 C431 1.400 . S
C431 C430 1.400 . S
C431 C432 1.398 . S
C431 C437 1.491 . S
C432 H423 0.950 . S
C432 C431 1.398 . S
C432 C433 1.391 . S
C433 H421 0.950 . S
C433 C429 1.393 . S
C433 C432 1.391 . S
C434 H424 0.950 . S
C434 C435 1.386 . S
C434 C436 1.391 . S
C435 C434 1.386 . S
C435 C439 1.393 . S
C436 H425 0.950 . S
C436 C434 1.391 . S
C436 C437 1.400 . S
C437 C431 1.491 . S
C437 C436 1.400 . S
C437 C438 1.398 . S
C438 H426 0.950 . S
C438 C437 1.398 . S
C438 C439 1.391 . S
C439 H427 0.950 . S
C439 C435 1.393 . S
C439 C438 1.391 . S
H440 C448 0.950 . S
H441 C453 0.950 . S
H442 C450 0.950 . S
H443 C452 0.950 . S
H444 C454 0.950 . S
H445 C456 0.950 . S
H446 C458 0.950 . S
H447 C459 0.950 . S
C448 H440 0.950 . S
C448 C449 1.386 . S
C448 C450 1.391 . S
C449 C448 1.386 . S
C449 C453 1.393 . S
C450 H442 0.950 . S
C450 C448 1.391 . S
C450 C451 1.400 . S
C451 C450 1.400 . S
C451 C452 1.398 . S
C451 C457 1.491 . S
C452 H443 0.950 . S
C452 C451 1.398 . S
C452 C453 1.391 . S
C453 H441 0.950 . S
C453 C449 1.393 . S
C453 C452 1.391 . S
C454 H444 0.950 . S
C454 C455 1.386 . S
C454 C456 1.391 . S
C455 C454 1.386 . S
C455 C459 1.393 . S
C456 H445 0.950 . S
C456 C454 1.391 . S
C456 C457 1.400 . S
C457 C451 1.491 . S
C457 C456 1.400 . S
C457 C458 1.398 . S
C458 H446 0.950 . S
C458 C457 1.398 . S
C458 C459 1.391 . S
C459 H447 0.950 . S
C459 C455 1.393 . S
C459 C458 1.391 . S
H460 C468 0.950 . S
H461 C473 0.950 . S
H462 C470 0.950 . S
H463 C472 0.950 . S
H464 C474 0.950 . S
H465 C476 0.950 . S
H466 C478 0.950 . S
H467 C479 0.950 . S
C468 H460 0.950 . S
C468 C469 1.386 . S
C468 C470 1.391 . S
C469 C468 1.386 . S
C469 C473 1.393 . S
C470 H462 0.950 . S
C470 C468 1.391 . S
C470 C471 1.400 . S
C471 C470 1.400 . S
C471 C472 1.398 . S
C471 C477 1.491 . S
C472 H463 0.950 . S
C472 C471 1.398 . S
C472 C473 1.391 . S
C473 H461 0.950 . S
C473 C469 1.393 . S
C473 C472 1.391 . S
C474 H464 0.950 . S
C474 C475 1.386 . S
C474 C476 1.391 . S
C475 C474 1.386 . S
C475 C479 1.393 . S
C476 H465 0.950 . S
C476 C474 1.391 . S
C476 C477 1.400 . S
C477 C471 1.491 . S
C477 C476 1.400 . S
C477 C478 1.398 . S
C478 H466 0.950 . S
C478 C477 1.398 . S
C478 C479 1.391 . S
C479 H467 0.950 . S
C479 C475 1.393 . S
C479 C478 1.391 . S
H480 C488 0.950 . S
H481 C493 0.950 . S
H482 C490 0.950 . S
H483 C492 0.950 . S
H484 C494 0.950 . S
H485 C496 0.950 . S
H486 C498 0.950 . S
H487 C499 0.950 . S
C488 H480 0.950 . S
C488 C489 1.386 . S
C488 C490 1.391 . S
C489 C488 1.386 . S
C489 C493 1.393 . S
C490 H482 0.950 . S
C490 C488 1.391 . S
C490 C491 1.400 . S
C491 C490 1.400 . S
C491 C492 1.398 . S
C491 C497 1.491 . S
C492 H483 0.950 . S
C492 C491 1.398 . S
C492 C493 1.391 . S
C493 H481 0.950 . S
C493 C489 1.393 . S
C493 C492 1.391 . S
C494 H484 0.950 . S
C494 C495 1.386 . S
C494 C496 1.391 . S
C495 C494 1.386 . S
C495 C499 1.393 . S
C496 H485 0.950 . S
C496 C494 1.391 . S
C496 C497 1.400 . S
C497 C491 1.491 . S
C497 C496 1.400 . S
C497 C498 1.398 . S
C498 H486 0.950 . S
C498 C497 1.398 . S
C498 C499 1.391 . S
C499 H487 0.950 . S
C499 C495 1.393 . S
C499 C498 1.391 . S
H500 C508 0.950 . S
H501 C513 0.950 . S
H502 C510 0.950 . S
H503 C512 0.950 . S
H504 C514 0.950 . S
H505 C516 0.950 . S
H506 C518 0.950 . S
H507 C519 0.950 . S
C508 H500 0.950 . S
C508 C509 1.386 . S
C508 C510 1.391 . S
C509 C508 1.386 . S
C509 C513 1.393 . S
C510 H502 0.950 . S
C510 C508 1.391 . S
C510 C511 1.400 . S
C511 C510 1.400 . S
C511 C512 1.398 . S
C511 C517 1.491 . S
C512 H503 0.950 . S
C512 C511 1.398 . S
C512 C513 1.391 . S
C513 H501 0.950 . S
C513 C509 1.393 . S
C513 C512 1.391 . S
C514 H504 0.950 . S
C514 C515 1.386 . S
C514 C516 1.391 . S
C515 C514 1.386 . S
C515 C519 1.393 . S
C516 H505 0.950 . S
C516 C514 1.391 . S
C516 C517 1.400 . S
C517 C511 1.491 . S
C517 C516 1.400 . S
C517 C518 1.398 . S
C518 H506 0.950 . S
C518 C517 1.398 . S
C518 C519 1.391 . S
C519 H507 0.950 . S
C519 C515 1.393 . S
C519 C518 1.391 . S
H520 C528 0.950 . S
H521 C533 0.950 . S
H522 C530 0.950 . S
H523 C532 0.950 . S
H524 C534 0.950 . S
H525 C536 0.950 . S
H526 C538 0.950 . S
H527 C539 0.950 . S
C528 H520 0.950 . S
C528 C529 1.386 . S
C528 C530 1.391 . S
C529 C528 1.386 . S
C529 C533 1.393 . S
C530 H522 0.950 . S
C530 C528 1.391 . S
C530 C531 1.400 . S
C531 C530 1.400 . S
C531 C532 1.398 . S
C531 C537 1.491 . S
C532 H523 0.950 . S
C532 C531 1.398 . S
C532 C533 1.391 . S
C533 H521 0.950 . S
C533 C529 1.393 . S
C533 C532 1.391 . S
C534 H524 0.950 . S
C534 C535 1.386 . S
C534 C536 1.391 . S
C535 C534 1.386 . S
C535 C539 1.393 . S
C536 H525 0.950 . S
C536 C534 1.391 . S
C536 C537 1.400 . S
C537 C531 1.491 . S
C537 C536 1.400 . S
C537 C538 1.398 . S
C538 H526 0.950 . S
C538 C537 1.398 . S
C538 C539 1.391 . S
C539 H527 0.950 . S
C539 C535 1.393 . S
C539 C538 1.391 . S
H540 C548 0.950 . S
H541 C553 0.950 . S
H542 C550 0.950 . S
H543 C552 0.950 . S
H544 C554 0.950 . S
H545 C556 0.950 . S
H546 C558 0.950 . S
H547 C559 0.950 . S
C548 H540 0.950 . S
C548 C549 1.386 . S
C548 C550 1.391 . S
C549 C548 1.386 . S
C549 C553 1.393 . S
C550 H542 0.950 . S
C550 C548 1.391 . S
C550 C551 1.400 . S
C551 C550 1.400 . S
C551 C552 1.398 . S
C551 C557 1.491 . S
C552 H543 0.950 . S
C552 C551 1.398 . S
C552 C553 1.391 . S
C553 H541 0.950 . S
C553 C549 1.393 . S
C553 C552 1.391 . S
C554 H544 0.950 . S
C554 C555 1.386 . S
C554 C556 1.391 . S
C555 C554 1.386 . S
C555 C559 1.393 . S
C556 H545 0.950 . S
C556 C554 1.391 . S
C556 C557 1.400 . S
C557 C551 1.491 . S
C557 C556 1.400 . S
C557 C558 1.398 . S
C558 H546 0.950 . S
C558 C557 1.398 . S
C558 C559 1.391 . S
C559 H547 0.950 . S
C559 C555 1.393 . S
C559 C558 1.391 . S
H560 C568 0.950 . S
H561 C573 0.950 . S
H562 C570 0.950 . S
H563 C572 0.950 . S
H564 C574 0.950 . S
H565 C576 0.950 . S
H566 C578 0.950 . S
H567 C579 0.950 . S
C568 H560 0.950 . S
C568 C569 1.386 . S
C568 C570 1.391 . S
C569 C568 1.386 . S
C569 C573 1.393 . S
C570 H562 0.950 . S
C570 C568 1.391 . S
C570 C571 1.400 . S
C571 C570 1.400 . S
C571 C572 1.398 . S
C571 C577 1.491 . S
C572 H563 0.950 . S
C572 C571 1.398 . S
C572 C573 1.391 . S
C573 H561 0.950 . S
C573 C569 1.393 . S
C573 C572 1.391 . S
C574 H564 0.950 . S
C574 C575 1.386 . S
C574 C576 1.391 . S
C575 C574 1.386 . S
C575 C579 1.393 . S
C576 H565 0.950 . S
C576 C574 1.391 . S
C576 C577 1.400 . S
C577 C571 1.491 . S
C577 C576 1.400 . S
C577 C578 1.398 . S
C578 H566 0.950 . S
C578 C577 1.398 . S
C578 C579 1.391 . S
C579 H567 0.950 . S
C579 C575 1.393 . S
C579 C578 1.391 . S
H580 C588 0.950 . S
H581 C593 0.950 . S
H582 C590 0.950 . S
H583 C592 0.950 . S
H584 C594 0.950 . S
H585 C596 0.950 . S
H586 C598 0.950 . S
H587 C599 0.950 . S
C588 H580 0.950 . S
C588 C589 1.386 . S
C588 C590 1.391 . S
C589 C588 1.386 . S
C589 C593 1.393 . S
C590 H582 0.950 . S
C590 C588 1.391 . S
C590 C591 1.400 . S
C591 C590 1.400 . S
C591 C592 1.398 . S
C591 C597 1.491 . S
C592 H583 0.950 . S
C592 C591 1.398 . S
C592 C593 1.391 . S
C593 H581 0.950 . S
C593 C589 1.393 . S
C593 C592 1.391 . S
C594 H584 0.950 . S
C594 C595 1.386 . S
C594 C596 1.391 . S
C595 C594 1.386 . S
C595 C599 1.393 . S
C596 H585 0.950 . S
C596 C594 1.391 . S
C596 C597 1.400 . S
C597 C591 1.491 . S
C597 C596 1.400 . S
C597 C598 1.398 . S
C598 H586 0.950 . S
C598 C597 1.398 . S
C598 C599 1.391 . S
C599 H587 0.950 . S
C599 C595 1.393 . S
C599 C598 1.391 . S
H600 C608 0.950 . S
H601 C613 0.950 . S
H602 C610 0.950 . S
H603 C612 0.950 . S
H604 C614 0.950 . S
H605 C616 0.950 . S
H606 C618 0.950 . S
H607 C619 0.950 . S
C608 H600 0.950 . S
C608 C609 1.386 . S
C608 C610 1.391 . S
C609 C608 1.386 . S
C609 C613 1.393 . S
C610 H602 0.950 . S
C610 C608 1.391 . S
C610 C611 1.400 . S
C611 C610 1.400 . S
C611 C612 1.398 . S
C611 C617 1.491 . S
C612 H603 0.950 . S
C612 C611 1.398 . S
C612 C613 1.391 . S
C613 H601 0.950 . S
C613 C609 1.393 . S
C613 C612 1.391 . S
C614 H604 0.950 . S
C614 C615 1.386 . S
C614 C616 1.391 . S
C615 C614 1.386 . S
C615 C619 1.393 . S
C616 H605 0.950 . S
C616 C614 1.391 . S
C616 C617 1.400 . S
C617 C611 1.491 . S
C617 C616 1.400 . S
C617 C618 1.398 . S
C618 H606 0.950 . S
C618 C617 1.398 . S
C618 C619 1.391 . S
C619 H607 0.950 . S
C619 C615 1.393 . S
C619 C618 1.391 . S
H620 C628 0.950 . S
H621 C633 0.950 . S
H622 C630 0.950 . S
H623 C632 0.950 . S
H624 C634 0.950 . S
H625 C636 0.950 . S
H626 C638 0.950 . S
H627 C639 0.950 . S
C628 H620 0.950 . S
C628 C629 1.386 . S
C628 C630 1.391 . S
C629 C628 1.386 . S
C629 C633 1.393 . S
C630 H622 0.950 . S
C630 C628 1.391 . S
C630 C631 1.400 . S
C631 C630 1.400 . S
C631 C632 1.398 . S
C631 C637 1.491 . S
C632 H623 0.950 . S
C632 C631 1.398 . S
C632 C633 1.391 . S
C633 H621 0.950 . S
C633 C629 1.393 . S
C633 C632 1.391 . S
C634 H624 0.950 . S
C634 C635 1.386 . S
C634 C636 1.391 . S
C635 C634 1.386 . S
C635 C639 1.393 . S
C636 H625 0.950 . S
C636 C634 1.391 . S
C636 C637 1.400 . S
C637 C631 1.491 . S
C637 C636 1.400 . S
C637 C638 1.398 . S
C638 H626 0.950 . S
C638 C637 1.398 . S
C638 C639 1.391 . S
C639 H627 0.950 . S
C639 C635 1.393 . S
C639 C638 1.391 . S
H640 C648 0.950 . S
H641 C653 0.950 . S
H642 C650 0.950 . S
H643 C652 0.950 . S
H644 C654 0.950 . S
H645 C656 0.950 . S
H646 C658 0.950 . S
H647 C659 0.950 . S
C648 H640 0.950 . S
C648 C649 1.386 . S
C648 C650 1.391 . S
C649 C648 1.386 . S
C649 C653 1.393 . S
C650 H642 0.950 . S
C650 C648 1.391 . S
C650 C651 1.400 . S
C651 C650 1.400 . S
C651 C652 1.398 . S
C651 C657 1.491 . S
C652 H643 0.950 . S
C652 C651 1.398 . S
C652 C653 1.391 . S
C653 H641 0.950 . S
C653 C649 1.393 . S
C653 C652 1.391 . S
C654 H644 0.950 . S
C654 C655 1.386 . S
C654 C656 1.391 . S
C655 C654 1.386 . S
C655 C659 1.393 . S
C656 H645 0.950 . S
C656 C654 1.391 . S
C656 C657 1.400 . S
C657 C651 1.491 . S
C657 C656 1.400 . S
C657 C658 1.398 . S
C658 H646 0.950 . S
C658 C657 1.398 . S
C658 C659 1.391 . S
C659 H647 0.950 . S
C659 C655 1.393 . S
C659 C658 1.391 . S
H660 C668 0.950 . S
H661 C673 0.950 . S
H662 C670 0.950 . S
H663 C672 0.950 . S
H664 C674 0.950 . S
H665 C676 0.950 . S
H666 C678 0.950 . S
H667 C679 0.950 . S
C668 H660 0.950 . S
C668 C669 1.386 . S
C668 C670 1.391 . S
C669 C668 1.386 . S
C669 C673 1.393 . S
C670 H662 0.950 . S
C670 C668 1.391 . S
C670 C671 1.400 . S
C671 C670 1.400 . S
C671 C672 1.398 . S
C671 C677 1.491 . S
C672 H663 0.950 . S
C672 C671 1.398 . S
C672 C673 1.391 . S
C673 H661 0.950 . S
C673 C669 1.393 . S
C673 C672 1.391 . S
C674 H664 0.950 . S
C674 C675 1.386 . S
C674 C676 1.391 1_554 S
C675 C674 1.386 . S
C675 C679 1.393 . S
C676 H665 0.950 . S
C676 C674 1.391 1_556 S
C676 C677 1.400 . S
C677 C671 1.491 . S
C677 C676 1.400 . S
C677 C678 1.398 . S
C678 H666 0.950 . S
C678 C677 1.398 . S
C678 C679 1.391 1_556 S
C679 H667 0.950 . S
C679 C675 1.393 . S
C679 C678 1.391 1_554 S
H680 C688 0.950 . S
H681 C693 0.950 . S
H682 C690 0.950 . S
H683 C692 0.950 . S
H684 C694 0.950 . S
H685 C696 0.950 . S
H686 C698 0.950 . S
H687 C699 0.950 . S
C688 H680 0.950 . S
C688 C689 1.386 . S
C688 C690 1.391 . S
C689 C688 1.386 . S
C689 C693 1.393 . S
C690 H682 0.950 . S
C690 C688 1.391 . S
C690 C691 1.400 . S
C691 C690 1.400 . S
C691 C692 1.398 . S
C691 C697 1.491 . S
C692 H683 0.950 . S
C692 C691 1.398 . S
C692 C693 1.391 . S
C693 H681 0.950 . S
C693 C689 1.393 . S
C693 C692 1.391 . S
C694 H684 0.950 . S
C694 C695 1.386 . S
C694 C696 1.391 . S
C695 C694 1.386 . S
C695 C699 1.393 . S
C696 H685 0.950 . S
C696 C694 1.391 . S
C696 C697 1.400 . S
C697 C691 1.491 . S
C697 C696 1.400 . S
C697 C698 1.398 . S
C698 H686 0.950 . S
C698 C697 1.398 . S
C698 C699 1.391 . S
C699 H687 0.950 . S
C699 C695 1.393 . S
C699 C698 1.391 . S
H700 C708 0.950 . S
H701 C713 0.950 . S
H702 C710 0.950 . S
H703 C712 0.950 . S
H704 C714 0.950 . S
H705 C716 0.950 . S
H706 C718 0.950 . S
H707 C719 0.950 . S
C708 H700 0.950 . S
C708 C709 1.386 . S
C708 C710 1.391 . S
C709 C708 1.386 . S
C709 C713 1.393 . S
C710 H702 0.950 . S
C710 C708 1.391 . S
C710 C711 1.400 . S
C711 C710 1.400 . S
C711 C712 1.398 . S
C711 C717 1.491 . S
C712 H703 0.950 . S
C712 C711 1.398 . S
C712 C713 1.391 . S
C713 H701 0.950 . S
C713 C709 1.393 . S
C713 C712 1.391 . S
C714 H704 0.950 . S
C714 C715 1.386 . S
C714 C716 1.391 . S
C715 C714 1.386 . S
C715 C719 1.393 . S
C716 H705 0.950 . S
C716 C714 1.391 . S
C716 C717 1.400 . S
C717 C711 1.491 . S
C717 C716 1.400 . S
C717 C718 1.398 . S
C718 H706 0.950 . S
C718 C717 1.398 . S
C718 C719 1.391 . S
C719 H707 0.950 . S
C719 C715 1.393 . S
C719 C718 1.391 . S
H720 C728 0.950 . S
H721 C733 0.950 . S
H722 C730 0.950 . S
H723 C732 0.950 . S
H724 C734 0.950 . S
H725 C736 0.950 . S
H726 C738 0.950 . S
H727 C739 0.950 . S
C728 H720 0.950 . S
C728 C729 1.386 . S
C728 C730 1.391 . S
C729 C728 1.386 . S
C729 C733 1.393 . S
C730 H722 0.950 . S
C730 C728 1.391 . S
C730 C731 1.400 . S
C731 C730 1.400 . S
C731 C732 1.398 . S
C731 C737 1.491 . S
C732 H723 0.950 . S
C732 C731 1.398 . S
C732 C733 1.391 . S
C733 H721 0.950 . S
C733 C729 1.393 . S
C733 C732 1.391 . S
C734 H724 0.950 . S
C734 C735 1.386 . S
C734 C736 1.391 . S
C735 C734 1.386 . S
C735 C739 1.393 . S
C736 H725 0.950 . S
C736 C734 1.391 . S
C736 C737 1.400 . S
C737 C731 1.491 . S
C737 C736 1.400 . S
C737 C738 1.398 . S
C738 H726 0.950 . S
C738 C737 1.398 . S
C738 C739 1.391 . S
C739 H727 0.950 . S
C739 C735 1.393 . S
C739 C738 1.391 . S
H740 C748 0.950 . S
H741 C753 0.950 . S
H742 C750 0.950 . S
H743 C752 0.950 . S
H744 C754 0.950 . S
H745 C756 0.950 . S
H746 C758 0.950 . S
H747 C759 0.950 . S
C748 H740 0.950 . S
C748 C749 1.386 . S
C748 C750 1.391 . S
C749 C748 1.386 . S
C749 C753 1.393 . S
C750 H742 0.950 . S
C750 C748 1.391 . S
C750 C751 1.400 . S
C751 C750 1.400 . S
C751 C752 1.398 . S
C751 C757 1.491 . S
C752 H743 0.950 . S
C752 C751 1.398 . S
C752 C753 1.391 . S
C753 H741 0.950 . S
C753 C749 1.393 . S
C753 C752 1.391 . S
C754 H744 0.950 . S
C754 C755 1.386 . S
C754 C756 1.391 . S
C755 C754 1.386 . S
C755 C759 1.393 . S
C756 H745 0.950 . S
C756 C754 1.391 . S
C756 C757 1.400 . S
C757 C751 1.491 . S
C757 C756 1.400 . S
C757 C758 1.398 . S
C758 H746 0.950 . S
C758 C757 1.398 . S
C758 C759 1.391 . S
C759 H747 0.950 . S
C759 C755 1.393 . S
C759 C758 1.391 . S
H760 C768 0.950 . S
H761 C773 0.950 . S
H762 C770 0.950 . S
H763 C772 0.950 . S
H764 C774 0.950 . S
H765 C776 0.950 . S
H766 C778 0.950 . S
H767 C779 0.950 . S
C768 H760 0.950 . S
C768 C769 1.386 . S
C768 C770 1.391 . S
C769 C768 1.386 . S
C769 C773 1.393 . S
C770 H762 0.950 . S
C770 C768 1.391 . S
C770 C771 1.400 . S
C771 C770 1.400 . S
C771 C772 1.398 . S
C771 C777 1.491 . S
C772 H763 0.950 . S
C772 C771 1.398 . S
C772 C773 1.391 . S
C773 H761 0.950 . S
C773 C769 1.393 . S
C773 C772 1.391 . S
C774 H764 0.950 . S
C774 C775 1.386 . S
C774 C776 1.391 . S
C775 C774 1.386 . S
C775 C779 1.393 . S
C776 H765 0.950 . S
C776 C774 1.391 . S
C776 C777 1.400 . S
C777 C771 1.491 . S
C777 C776 1.400 . S
C777 C778 1.398 . S
C778 H766 0.950 . S
C778 C777 1.398 . S
C778 C779 1.391 . S
C779 H767 0.950 . S
C779 C775 1.393 . S
C779 C778 1.391 . S
H780 C788 0.950 . S
H781 C793 0.950 . S
H782 C790 0.950 . S
H783 C792 0.950 . S
H784 C794 0.950 . S
H785 C796 0.950 . S
H786 C798 0.950 . S
H787 C799 0.950 . S
C788 H780 0.950 . S
C788 C789 1.386 . S
C788 C790 1.391 . S
C789 C788 1.386 . S
C789 C793 1.393 . S
C790 H782 0.950 . S
C790 C788 1.391 . S
C790 C791 1.400 . S
C791 C790 1.400 . S
C791 C792 1.398 . S
C791 C797 1.491 . S
C792 H783 0.950 . S
C792 C791 1.398 . S
C792 C793 1.391 . S
C793 H781 0.950 . S
C793 C789 1.393 . S
C793 C792 1.391 . S
C794 H784 0.950 . S
C794 C795 1.386 . S
C794 C796 1.391 . S
C795 C794 1.386 . S
C795 C799 1.393 . S
C796 H785 0.950 . S
C796 C794 1.391 . S
C796 C797 1.400 . S
C797 C791 1.491 . S
C797 C796 1.400 . S
C797 C798 1.398 . S
C798 H786 0.950 . S
C798 C797 1.398 . S
C798 C799 1.391 . S
C799 H787 0.950 . S
C799 C795 1.393 . S
C799 C798 1.391 . S
H800 C808 0.950 . S
H801 C813 0.950 . S
H802 C810 0.950 . S
H803 C812 0.950 . S
H804 C814 0.950 . S
H805 C816 0.950 . S
H806 C818 0.950 . S
H807 C819 0.950 . S
C808 H800 0.950 . S
C808 C809 1.386 . S
C808 C810 1.391 . S
C809 C808 1.386 . S
C809 C813 1.393 . S
C810 H802 0.950 . S
C810 C808 1.391 . S
C810 C811 1.400 . S
C811 C810 1.400 . S
C811 C812 1.398 . S
C811 C817 1.491 . S
C812 H803 0.950 . S
C812 C811 1.398 . S
C812 C813 1.391 . S
C813 H801 0.950 . S
C813 C809 1.393 . S
C813 C812 1.391 . S
C814 H804 0.950 . S
C814 C815 1.386 . S
C814 C816 1.391 . S
C815 C814 1.386 . S
C815 C819 1.393 . S
C816 H805 0.950 . S
C816 C814 1.391 . S
C816 C817 1.400 1_556 S
C817 C811 1.491 . S
C817 C816 1.400 1_554 S
C817 C818 1.398 . S
C818 H806 0.950 . S
C818 C817 1.398 . S
C818 C819 1.391 1_554 S
C819 H807 0.950 . S
C819 C815 1.393 . S
C819 C818 1.391 1_556 S
H820 C828 0.950 . S
H821 C833 0.950 . S
H822 C830 0.950 . S
H823 C832 0.950 . S
H824 C834 0.950 . S
H825 C836 0.950 . S
H826 C838 0.950 . S
H827 C839 0.950 . S
C828 H820 0.950 . S
C828 C829 1.386 . S
C828 C830 1.391 . S
C829 C828 1.386 . S
C829 C833 1.393 . S
C830 H822 0.950 . S
C830 C828 1.391 . S
C830 C831 1.400 . S
C831 C830 1.400 . S
C831 C832 1.398 . S
C831 C837 1.491 . S
C832 H823 0.950 . S
C832 C831 1.398 . S
C832 C833 1.391 . S
C833 H821 0.950 . S
C833 C829 1.393 . S
C833 C832 1.391 . S
C834 H824 0.950 . S
C834 C835 1.386 . S
C834 C836 1.391 . S
C835 C834 1.386 . S
C835 C839 1.393 . S
C836 H825 0.950 . S
C836 C834 1.391 . S
C836 C837 1.400 . S
C837 C831 1.491 . S
C837 C836 1.400 . S
C837 C838 1.398 . S
C838 H826 0.950 . S
C838 C837 1.398 . S
C838 C839 1.391 . S
C839 H827 0.950 . S
C839 C835 1.393 . S
C839 C838 1.391 . S
C375 C349 1.610 . S
C369 C15 1.588 . S
C389 C61 1.589 . S
C395 C279 1.606 . S
C409 C114 1.597 . S
C415 C298 1.624 . S
C429 C139 1.604 . S
C435 C307 1.612 . S
C455 C321 1.599 . S
C449 C185 1.595 . S
C469 C245 1.599 . S
C475 C340 1.626 . S
C489 C47 1.578 . S
C495 C293 1.580 . S
C509 C100 1.591 . S
C515 C312 1.602 . S
C529 C153 1.586 . S
C535 C326 1.605 . S
C555 C335 1.581 . S
C549 C199 1.570 . S
C575 C354 1.609 . S
C569 C231 1.599 . S
C595 C284 1.600 . S
C589 C1 1.590 . S
C609 C22 1.490 . S
C615 C299 1.480 . S
C629 C68 1.486 . S
C635 C311 1.459 . S
C655 C325 1.476 . S
C649 C107 1.489 . S
C669 C146 1.491 . S
C675 C341 1.477 . S
C695 C353 1.464 . S
C689 C192 1.483 . S
C715 C283 1.469 . S
C709 C252 1.487 . S
C735 C355 1.492 . S
C729 C54 1.499 . S
C749 C93 1.503 . S
C755 C285 1.501 . S
C775 C297 1.479 . S
C769 C160 1.491 . S
C789 C206 1.495 . S
C795 C313 1.488 . S
C809 C238 1.503 . S
C815 C327 1.501 . S
C829 C8 1.498 . S
C835 C339 1.470 . S
