# Generated by pormake.
# Topology nom, (4,4)-cn, num edge types: 1
# Building blocks:
#     Node 0, Type 0, BuildingBlock: MIFKUJ_clean_linker_1, # of connection points: 4
#     Node 1, Type 0, BuildingBlock: MIFKUJ_clean_linker_1, # of connection points: 4
#     Node 2, Type 0, BuildingBlock: MIFKUJ_clean_linker_1, # of connection points: 4
#     Node 3, Type 0, BuildingBlock: MIFKUJ_clean_linker_1, # of connection points: 4
#     Node 4, Type 0, BuildingBlock: MIFKUJ_clean_linker_1, # of connection points: 4
#     Node 5, Type 0, BuildingBlock: MIFKUJ_clean_linker_1, # of connection points: 4
#     Node 6, Type 1, BuildingBlock: UXUYUI_clean_sbu_0, # of connection points: 4
#     Node 7, Type 1, BuildingBlock: UXUYUI_clean_sbu_0, # of connection points: 4
#     Node 8, Type 1, BuildingBlock: UXUYUI_clean_sbu_0, # of connection points: 4
#     Node 9, Type 1, BuildingBlock: UXUYUI_clean_sbu_0, # of connection points: 4
#     Node 10, Type 1, BuildingBlock: UXUYUI_clean_sbu_0, # of connection points: 4
#     Node 11, Type 1, BuildingBlock: UXUYUI_clean_sbu_0, # of connection points: 4
#     Edge 12, Type (0, 1), BuildingBlock: CIFDUS_clean_linker_0, # of connection points: 2
#     Edge 13, Type (0, 1), BuildingBlock: CIFDUS_clean_linker_0, # of connection points: 2
#     Edge 14, Type (0, 1), BuildingBlock: CIFDUS_clean_linker_0, # of connection points: 2
#     Edge 15, Type (0, 1), BuildingBlock: CIFDUS_clean_linker_0, # of connection points: 2
#     Edge 16, Type (0, 1), BuildingBlock: CIFDUS_clean_linker_0, # of connection points: 2
#     Edge 17, Type (0, 1), BuildingBlock: CIFDUS_clean_linker_0, # of connection points: 2
#     Edge 18, Type (0, 1), BuildingBlock: CIFDUS_clean_linker_0, # of connection points: 2
#     Edge 19, Type (0, 1), BuildingBlock: CIFDUS_clean_linker_0, # of connection points: 2
#     Edge 20, Type (0, 1), BuildingBlock: CIFDUS_clean_linker_0, # of connection points: 2
#     Edge 21, Type (0, 1), BuildingBlock: CIFDUS_clean_linker_0, # of connection points: 2
#     Edge 22, Type (0, 1), BuildingBlock: CIFDUS_clean_linker_0, # of connection points: 2
#     Edge 23, Type (0, 1), BuildingBlock: CIFDUS_clean_linker_0, # of connection points: 2
#     Edge 24, Type (0, 1), BuildingBlock: CIFDUS_clean_linker_0, # of connection points: 2
#     Edge 25, Type (0, 1), BuildingBlock: CIFDUS_clean_linker_0, # of connection points: 2
#     Edge 26, Type (0, 1), BuildingBlock: CIFDUS_clean_linker_0, # of connection points: 2
#     Edge 27, Type (0, 1), BuildingBlock: CIFDUS_clean_linker_0, # of connection points: 2
#     Edge 28, Type (0, 1), BuildingBlock: CIFDUS_clean_linker_0, # of connection points: 2
#     Edge 29, Type (0, 1), BuildingBlock: CIFDUS_clean_linker_0, # of connection points: 2
#     Edge 30, Type (0, 1), BuildingBlock: CIFDUS_clean_linker_0, # of connection points: 2
#     Edge 31, Type (0, 1), BuildingBlock: CIFDUS_clean_linker_0, # of connection points: 2
#     Edge 32, Type (0, 1), BuildingBlock: CIFDUS_clean_linker_0, # of connection points: 2
#     Edge 33, Type (0, 1), BuildingBlock: CIFDUS_clean_linker_0, # of connection points: 2
#     Edge 34, Type (0, 1), BuildingBlock: CIFDUS_clean_linker_0, # of connection points: 2
#     Edge 35, Type (0, 1), BuildingBlock: CIFDUS_clean_linker_0, # of connection points: 2
# Relax obj value: 0.035
# Max RMSD: 0.144
# Mean RMSD: 0.118
data_MOF--net-nom--node1-UXUYUI_clean_sbu_0--node2-MIFKUJ_clean_linker_1--edge1-CIFDUS_clean_linker_0
_symmetry_space_group_name_H-M    P1
_symmetry_Int_Tables_number       1
_symmetry_cell_setting            triclinic
loop_
_symmetry_equiv_pos_as_xyz
'x, y, z'
_cell_length_a     57.983716
_cell_length_b     57.970429
_cell_length_c     61.706993
_cell_angle_alpha  90.013684
_cell_angle_beta   89.954974
_cell_angle_gamma 120.00494
loop_
_atom_site_label
_atom_site_type_symbol
_atom_site_fract_x
_atom_site_fract_y
_atom_site_fract_z
_atom_type_partial_charge
H0 H 0.99609 0.49132 0.28504 0.0
H1 H 0.9653 0.47595 0.25457 0.0
H2 H 0.92637 0.51688 0.2809 0.0
H3 H 0.95859 0.53385 0.31042 0.0
H4 H 0.03233 0.54044 0.29603 0.0
H5 H 0.94834 0.47128 0.3322 0.0
H6 H 0.9026 0.45396 0.34537 0.0
H7 H 0.92715 0.52863 0.37808 0.0
H8 H 0.97246 0.54568 0.36498 0.0
H9 H 0.04244 0.57262 0.38662 0.0
H10 H 0.07204 0.58301 0.41768 0.0
H11 H 0.10809 0.54151 0.38734 0.0
H12 H 0.07862 0.53154 0.3561 0.0
H13 H 0.00554 0.52669 0.37334 0.0
H14 H 0.07885 0.59819 0.34315 0.0
H15 H 0.12362 0.62982 0.33067 0.0
H16 H 0.12078 0.57084 0.28622 0.0
H17 H 0.07616 0.53877 0.29944 0.0
C18 C 0.97948 0.51342 0.30028 0.0
C19 C 0.98096 0.49705 0.28422 0.0
C20 C 0.96308 0.488 0.26688 0.0
C21 C 0.94307 0.49491 0.26524 0.0
C22 C 0.94162 0.51131 0.28141 0.0
C23 C 0.95982 0.52072 0.29857 0.0
C24 C 0.99922 0.52345 0.31826 0.0
C25 C 0.02647 0.53693 0.31295 0.0
C26 C 0.9917 0.52071 0.34037 0.0
C27 C 0.96376 0.50979 0.34758 0.0
C28 C 0.94375 0.4839 0.3421 0.0
C29 C 0.91768 0.47406 0.34962 0.0
C30 C 0.91136 0.48988 0.3629 0.0
C31 C 0.93148 0.51578 0.36823 0.0
C32 C 0.95736 0.52559 0.36067 0.0
C33 C 0.05825 0.55126 0.36903 0.0
C34 C 0.05682 0.56589 0.38659 0.0
C35 C 0.07368 0.57169 0.4044 0.0
C36 C 0.09225 0.56283 0.40513 0.0
C37 C 0.09418 0.54882 0.38723 0.0
C38 C 0.07733 0.5431 0.36936 0.0
C39 C 0.03858 0.54302 0.35111 0.0
C40 C 0.01145 0.52985 0.35641 0.0
C41 C 0.04623 0.54758 0.32907 0.0
C42 C 0.07423 0.56593 0.32247 0.0
C43 C 0.08804 0.5918 0.33108 0.0
C44 C 0.11352 0.61004 0.32368 0.0
C45 C 0.12569 0.60293 0.30733 0.0
C46 C 0.11204 0.57687 0.29896 0.0
C47 C 0.0865 0.55857 0.30641 0.0
H48 H 0.45048 0.97308 0.53175 0.0
H49 H 0.42218 0.92797 0.54531 0.0
H50 H 0.47256 0.90291 0.51384 0.0
H51 H 0.50138 0.94852 0.50055 0.0
H52 H 0.50155 0.00694 0.54046 0.0
H53 H 0.45203 0.95831 0.47333 0.0
H54 H 0.44202 0.92838 0.44219 0.0
H55 H 0.52592 0.96682 0.42699 0.0
H56 H 0.53575 0.99643 0.458 0.0
H57 H 0.56146 0.07724 0.46682 0.0
H58 H 0.57364 0.12183 0.45363 0.0
H59 H 0.51333 0.12179 0.4948 0.0
H60 H 0.50091 0.07722 0.50753 0.0
H61 H 0.51705 0.03176 0.46277 0.0
H62 H 0.56971 0.08031 0.52017 0.0
H63 H 0.59005 0.11364 0.54873 0.0
H64 H 0.51497 0.07771 0.58296 0.0
H65 H 0.49462 0.04437 0.55423 0.0
C66 C 0.47801 0.96422 0.51503 0.0
C67 C 0.45557 0.95794 0.5278 0.0
C68 C 0.43943 0.93217 0.5356 0.0
C69 C 0.44525 0.91198 0.53073 0.0
C70 C 0.46754 0.91809 0.51772 0.0
C71 C 0.48394 0.94409 0.51008 0.0
C72 C 0.49516 0.99215 0.50769 0.0
C73 C 0.50471 0.01237 0.52345 0.0
C74 C 0.50121 0.99929 0.4856 0.0
C75 C 0.49466 0.97952 0.46803 0.0
C76 C 0.46826 0.95995 0.46348 0.0
C77 C 0.46258 0.9429 0.4457 0.0
C78 C 0.48319 0.94541 0.43207 0.0
C79 C 0.50959 0.96466 0.43699 0.0
C80 C 0.51524 0.98152 0.45476 0.0
C81 C 0.53043 0.07397 0.48829 0.0
C82 C 0.55096 0.08691 0.47304 0.0
C83 C 0.55798 0.11241 0.46561 0.0
C84 C 0.54436 0.12524 0.47314 0.0
C85 C 0.52398 0.1123 0.48853 0.0
C86 C 0.51707 0.08694 0.49599 0.0
C87 C 0.52172 0.04637 0.49546 0.0
C88 C 0.51403 0.02634 0.47979 0.0
C89 C 0.51854 0.03939 0.51765 0.0
C90 C 0.53054 0.05993 0.53492 0.0
C91 C 0.55749 0.07978 0.53367 0.0
C92 C 0.56913 0.09884 0.55002 0.0
C93 C 0.55412 0.09834 0.56809 0.0
C94 C 0.52714 0.07843 0.56936 0.0
C95 C 0.51547 0.0594 0.55293 0.0
H96 H 0.53289 0.56074 0.70581 0.0
H97 H 0.51756 0.57987 0.73366 0.0
H98 H 0.43589 0.52273 0.71749 0.0
H99 H 0.45155 0.50435 0.6891 0.0
H100 H 0.52008 0.50575 0.7019 0.0
H101 H 0.50186 0.56999 0.66471 0.0
H102 H 0.47201 0.5857 0.65201 0.0
H103 H 0.42704 0.51311 0.61548 0.0
H104 H 0.45598 0.49689 0.62889 0.0
H105 H 0.49994 0.47058 0.61071 0.0
H106 H 0.52018 0.4579 0.58171 0.0
H107 H 0.59515 0.49592 0.61587 0.0
H108 H 0.57519 0.50947 0.64453 0.0
H109 H 0.50646 0.51398 0.62363 0.0
H110 H 0.51246 0.44572 0.65788 0.0
H111 H 0.52915 0.4176 0.67218 0.0
H112 H 0.58258 0.48146 0.71449 0.0
H113 H 0.56609 0.5098 0.69985 0.0
C114 C 0.49336 0.53125 0.69535 0.0
C115 C 0.51169 0.55235 0.70831 0.0
C116 C 0.50285 0.56316 0.72431 0.0
C117 C 0.47544 0.55283 0.72793 0.0
C118 C 0.45712 0.53148 0.71497 0.0
C119 C 0.46601 0.52082 0.69882 0.0
C120 C 0.50316 0.52028 0.67831 0.0
C121 C 0.51747 0.50781 0.68474 0.0
C122 C 0.49819 0.52156 0.65602 0.0
C123 C 0.48096 0.53202 0.64806 0.0
C124 C 0.48533 0.55725 0.65426 0.0
C125 C 0.46839 0.56629 0.64693 0.0
C126 C 0.44729 0.55058 0.63279 0.0
C127 C 0.44329 0.52566 0.62624 0.0
C128 C 0.45985 0.51642 0.63389 0.0
C129 C 0.53593 0.49087 0.62997 0.0
C130 C 0.52078 0.47635 0.61196 0.0
C131 C 0.53233 0.46909 0.59539 0.0
C132 C 0.55921 0.47595 0.59656 0.0
C133 C 0.57431 0.49016 0.61467 0.0
C134 C 0.56286 0.4978 0.6311 0.0
C135 C 0.52382 0.49962 0.6471 0.0
C136 C 0.50918 0.5118 0.64075 0.0
C137 C 0.52708 0.49662 0.6695 0.0
C138 C 0.53827 0.48007 0.67754 0.0
C139 C 0.52814 0.45391 0.66992 0.0
C140 C 0.53765 0.4378 0.67815 0.0
C141 C 0.55722 0.44735 0.69443 0.0
C142 C 0.56734 0.4735 0.70208 0.0
C143 C 0.55798 0.48972 0.69369 0.0
H144 H 0.04293 0.55407 0.7838 0.0
H145 H 0.07308 0.569 0.75268 0.0
H146 H 0.10655 0.52114 0.77465 0.0
H147 H 0.07541 0.50525 0.805 0.0
H148 H 0.00408 0.50466 0.79487 0.0
H149 H 0.08864 0.57159 0.82808 0.0
H150 H 0.13582 0.58977 0.83674 0.0
H151 H 0.11706 0.51535 0.86746 0.0
H152 H 0.07005 0.49758 0.85907 0.0
H153 H 0.99815 0.46856 0.88405 0.0
H154 H 0.96925 0.4564 0.91583 0.0
H155 H 0.9339 0.50109 0.89048 0.0
H156 H 0.96279 0.51305 0.85864 0.0
H157 H 0.03559 0.51455 0.87081 0.0
H158 H 0.95701 0.44604 0.84083 0.0
H159 H 0.91043 0.41866 0.83029 0.0
H160 H 0.91662 0.4835 0.7914 0.0
H161 H 0.96309 0.51119 0.80264 0.0
C162 C 0.0571 0.5288 0.79692 0.0
C163 C 0.05671 0.54673 0.78184 0.0
C164 C 0.07416 0.55546 0.76416 0.0
C165 C 0.0924 0.54641 0.76115 0.0
C166 C 0.09263 0.52834 0.77627 0.0
C167 C 0.07503 0.51947 0.79384 0.0
C168 C 0.03842 0.51955 0.81563 0.0
C169 C 0.01095 0.50729 0.81151 0.0
C170 C 0.04731 0.52164 0.83729 0.0
C171 C 0.07587 0.53319 0.84283 0.0
C172 C 0.09476 0.55925 0.83668 0.0
C173 C 0.12171 0.56955 0.84157 0.0
C174 C 0.13025 0.55401 0.85279 0.0
C175 C 0.11117 0.52802 0.85911 0.0
C176 C 0.08428 0.51778 0.85426 0.0
C177 C 0.9826 0.49163 0.86888 0.0
C178 C 0.98415 0.47571 0.88531 0.0
C179 C 0.96767 0.46886 0.90352 0.0
C180 C 0.94933 0.47787 0.90577 0.0
C181 C 0.94757 0.49354 0.88915 0.0
C182 C 0.96408 0.5004 0.87093 0.0
C183 C 1.00119 0.50004 0.85011 0.0
C184 C 0.02862 0.51215 0.8542 0.0
C185 C 0.99219 0.49689 0.82841 0.0
C186 C 0.9635 0.48081 0.82275 0.0
C187 C 0.94824 0.45456 0.83034 0.0
C188 C 0.92168 0.43879 0.82407 0.0
C189 C 0.90983 0.44884 0.80991 0.0
C190 C 0.92506 0.47524 0.80249 0.0
C191 C 0.95167 0.49103 0.80879 0.0
H192 H 0.58984 0.07012 0.0314 0.0
H193 H 0.61757 0.11672 0.04175 0.0
H194 H 0.55961 0.13433 0.014 0.0
H195 H 0.53234 0.08763 0.00314 0.0
H196 H 0.53574 0.03271 0.04184 0.0
H197 H 0.59014 0.07958 0.97759 0.0
H198 H 0.60448 0.11385 0.94951 0.0
H199 H 0.52259 0.08158 0.92953 0.0
H200 H 0.50853 0.0472 0.95743 0.0
H201 H 0.47989 0.96377 0.9665 0.0
H202 H 0.46773 0.91942 0.95289 0.0
H203 H 0.52408 0.91655 0.99701 0.0
H204 H 0.53669 0.96106 0.01004 0.0
H205 H 0.52467 0.00842 0.96393 0.0
H206 H 0.46962 0.95739 0.02033 0.0
H207 H 0.44897 0.92459 0.04916 0.0
H208 H 0.52162 0.96551 0.08651 0.0
H209 H 0.54273 0.99713 0.05697 0.0
C210 C 0.55914 0.07549 0.01643 0.0
C211 C 0.58304 0.08401 0.02771 0.0
C212 C 0.59881 0.11067 0.0337 0.0
C213 C 0.59086 0.12936 0.02875 0.0
C214 C 0.56656 0.1206 0.01779 0.0
C215 C 0.55086 0.0939 0.01167 0.0
C216 C 0.54354 0.04743 0.00915 0.0
C217 C 0.53349 0.02723 0.02484 0.0
C218 C 0.53926 0.04053 0.98696 0.0
C219 C 0.54825 0.06099 0.96968 0.0
C220 C 0.57531 0.07997 0.96718 0.0
C221 C 0.58345 0.09961 0.95117 0.0
C222 C 0.56468 0.10054 0.93729 0.0
C223 C 0.53761 0.08126 0.93974 0.0
C224 C 0.52951 0.06164 0.95572 0.0
C225 C 0.50905 0.9657 0.98942 0.0
C226 C 0.48955 0.95353 0.97328 0.0
C227 C 0.4825 0.92812 0.96562 0.0
C228 C 0.495 0.91449 0.97383 0.0
C229 C 0.5143 0.92663 0.99016 0.0
C230 C 0.5213 0.95196 0.99781 0.0
C231 C 0.51792 0.99334 0.99668 0.0
C232 C 0.52662 0.01357 0.981 0.0
C233 C 0.52018 1.00019 0.01894 0.0
C234 C 0.5079 0.97966 0.03628 0.0
C235 C 0.48133 0.95899 0.03451 0.0
C236 C 0.46937 0.94044 0.05122 0.0
C237 C 0.48354 0.94237 0.07028 0.0
C238 C 0.51017 0.96307 0.07198 0.0
C239 C 0.52222 0.98141 0.05515 0.0
H240 H 0.50179 0.47936 0.20232 0.0
H241 H 0.51104 0.45919 0.23336 0.0
H242 H 0.59549 0.50864 0.22167 0.0
H243 H 0.58602 0.52871 0.19038 0.0
H244 H 0.51973 0.53419 0.19922 0.0
H245 H 0.53814 0.46891 0.16063 0.0
H246 H 0.56835 0.45345 0.14816 0.0
H247 H 0.61985 0.53072 0.1198 0.0
H248 H 0.58994 0.54605 0.13237 0.0
H249 H 0.54493 0.57078 0.1077 0.0
H250 H 0.52547 0.58463 0.07884 0.0
H251 H 0.45052 0.54825 0.11312 0.0
H252 H 0.4696 0.53363 0.14153 0.0
H253 H 0.53868 0.52804 0.12177 0.0
H254 H 0.53687 0.5973 0.15579 0.0
H255 H 0.5239 0.62871 0.16941 0.0
H256 H 0.46273 0.56644 0.20867 0.0
H257 H 0.47545 0.53482 0.19459 0.0
C258 C 0.5432 0.50543 0.19399 0.0
C259 C 0.52231 0.48571 0.20633 0.0
C260 C 0.52762 0.47431 0.22414 0.0
C261 C 0.554 0.48248 0.2301 0.0
C262 C 0.57496 0.50178 0.21738 0.0
C263 C 0.56959 0.51326 0.19951 0.0
C264 C 0.53689 0.51886 0.17647 0.0
C265 C 0.52347 0.5325 0.18223 0.0
C266 C 0.54392 0.5187 0.15453 0.0
C267 C 0.56183 0.5087 0.14752 0.0
C268 C 0.55607 0.48256 0.15192 0.0
C269 C 0.57332 0.47376 0.14477 0.0
C270 C 0.59639 0.49084 0.13288 0.0
C271 C 0.60204 0.51695 0.1286 0.0
C272 C 0.58498 0.52575 0.13584 0.0
C273 C 0.50889 0.55139 0.12701 0.0
C274 C 0.52426 0.56562 0.10898 0.0
C275 C 0.51316 0.57355 0.0925 0.0
C276 C 0.48654 0.56762 0.09383 0.0
C277 C 0.47119 0.55343 0.11184 0.0
C278 C 0.48216 0.54517 0.12813 0.0
C279 C 0.52032 0.54232 0.14441 0.0
C280 C 0.53473 0.52965 0.13872 0.0
C281 C 0.51619 0.54522 0.1666 0.0
C282 C 0.50698 0.56363 0.17402 0.0
C283 C 0.52039 0.59027 0.16708 0.0
C284 C 0.51316 0.60829 0.17506 0.0
C285 C 0.4924 0.60007 0.1902 0.0
C286 C 0.47868 0.57329 0.1969 0.0
C287 C 0.48601 0.55526 0.18896 0.0
Li288 Li 0.63457 0.40565 0.42935 0.0
Li289 Li 0.62762 0.36349 0.41492 0.0
Li290 Li 0.66901 0.40651 0.40628 0.0
Li291 Li 0.62659 0.39612 0.38916 0.0
C292 C 0.66227 0.39167 0.45614 0.0
N293 N 0.67358 0.39852 0.49994 0.0
C294 C 0.64861 0.37037 0.47046 0.0
C295 C 0.68196 0.41632 0.46404 0.0
C296 C 0.65454 0.37427 0.49256 0.0
C297 C 0.68731 0.41942 0.48625 0.0
C298 C 0.57616 0.35848 0.41273 0.0
C299 C 0.53849 0.32668 0.39178 0.0
N300 N 0.5229 0.32027 0.40976 0.0
C301 C 0.55968 0.35187 0.43094 0.0
C302 C 0.56543 0.34606 0.39293 0.0
C303 C 0.53284 0.33238 0.42914 0.0
C304 C 0.6314 0.44612 0.45313 0.0
N305 N 0.62619 0.4205 0.45365 0.0
C306 C 0.60562 0.41383 0.48845 0.0
C307 C 0.61344 0.40432 0.47077 0.0
C308 C 0.61047 0.4401 0.4883 0.0
C309 C 0.62363 0.45638 0.47037 0.0
H310 H 0.6411 0.45842 0.43914 0.0
H311 H 0.60878 0.3838 0.47049 0.0
C312 C 0.63065 0.31691 0.41464 0.0
N313 N 0.61543 0.32716 0.42175 0.0
C314 C 0.62425 0.29108 0.42029 0.0
C315 C 0.58684 0.2869 0.44083 0.0
C316 C 0.59391 0.3128 0.43468 0.0
C317 C 0.60219 0.27575 0.43372 0.0
H318 H 0.64803 0.329 0.40478 0.0
H319 H 0.58274 0.3217 0.44083 0.0
C320 C 0.67336 0.45423 0.39933 0.0
N321 N 0.71562 0.50387 0.38906 0.0
C322 C 0.67723 0.46341 0.37796 0.0
C323 C 0.69081 0.4704 0.41552 0.0
C324 C 0.69876 0.48854 0.37308 0.0
C325 C 0.71211 0.4954 0.40999 0.0
C326 C 0.64219 0.36046 0.36919 0.0
C327 C 0.66182 0.36803 0.35325 0.0
C328 C 0.61841 0.33619 0.36721 0.0
C329 C 0.65719 0.35134 0.33547 0.0
C330 C 0.61455 0.32004 0.34921 0.0
N331 N 0.63385 0.3279 0.33383 0.0
C332 C 0.72229 0.41883 0.41391 0.0
C333 C 0.71406 0.43192 0.37974 0.0
C334 C 0.74844 0.42674 0.40781 0.0
N335 N 0.70572 0.42139 0.39981 0.0
C336 C 0.73999 0.44018 0.37301 0.0
C337 C 0.75746 0.43722 0.38697 0.0
H338 H 0.71494 0.40978 0.42959 0.0
H339 H 0.70026 0.43301 0.36862 0.0
C340 C 0.60625 0.42293 0.36545 0.0
N341 N 0.61234 0.4032 0.36369 0.0
C342 C 0.59925 0.43218 0.3471 0.0
C343 C 0.60385 0.39992 0.32557 0.0
C344 C 0.61084 0.39136 0.3443 0.0
C345 C 0.59845 0.42096 0.32673 0.0
H346 H 0.6079 0.43222 0.38102 0.0
H347 H 0.61565 0.37573 0.3431 0.0
O348 O 0.65655 0.3883 0.43448 0.0
O349 O 0.60243 0.37766 0.4142 0.0
O350 O 0.65248 0.42961 0.40441 0.0
O351 O 0.64647 0.37656 0.38675 0.0
H352 H 0.63343 0.35111 0.46461 0.0
H353 H 0.69301 0.43286 0.45314 0.0
H354 H 0.64399 0.35802 0.50385 0.0
H355 H 0.7024 0.43844 0.4926 0.0
H356 H 0.52997 0.31682 0.37657 0.0
H357 H 0.56757 0.36154 0.44633 0.0
H358 H 0.57769 0.35141 0.37855 0.0
H359 H 0.51991 0.32691 0.44314 0.0
H360 H 0.59508 0.40048 0.50176 0.0
H361 H 0.62774 0.47676 0.46966 0.0
H362 H 0.63653 0.28327 0.41427 0.0
H363 H 0.57004 0.27606 0.4516 0.0
H364 H 0.66398 0.45114 0.3652 0.0
H365 H 0.6879 0.46376 0.43217 0.0
H366 H 0.70211 0.49582 0.35659 0.0
H367 H 0.72581 0.5081 0.42235 0.0
H368 H 0.68041 0.38661 0.35452 0.0
H369 H 0.60311 0.32978 0.37947 0.0
H370 H 0.67218 0.35702 0.32298 0.0
H371 H 0.59622 0.30124 0.34749 0.0
H372 H 0.7611 0.42376 0.419 0.0
H373 H 0.74615 0.44845 0.35691 0.0
H374 H 0.59551 0.44863 0.34876 0.0
H375 H 0.60303 0.39036 0.31028 0.0
Li376 Li 0.25057 0.63754 0.60218 0.0
Li377 Li 0.28449 0.62863 0.58793 0.0
Li378 Li 0.28472 0.67112 0.57858 0.0
Li379 Li 0.25167 0.6289 0.56217 0.0
C380 C 0.29266 0.66623 0.62834 0.0
N381 N 0.2977 0.6814 0.67134 0.0
C382 C 0.29708 0.65168 0.64422 0.0
C383 C 0.29132 0.68879 0.6343 0.0
C384 C 0.29942 0.65958 0.66588 0.0
C385 C 0.29378 0.69606 0.65612 0.0
C386 C 0.23833 0.57828 0.58607 0.0
C387 C 0.23291 0.54056 0.56537 0.0
N388 N 0.2245 0.52526 0.58354 0.0
C389 C 0.22921 0.56204 0.60446 0.0
C390 C 0.23984 0.56734 0.5663 0.0
C391 C 0.2225 0.53535 0.60289 0.0
C392 C 0.20975 0.63846 0.62796 0.0
N393 N 0.22802 0.63031 0.62687 0.0
C394 C 0.21331 0.60789 0.6609 0.0
C395 C 0.2301 0.61539 0.6429 0.0
C396 C 0.19408 0.61578 0.66245 0.0
C397 C 0.19259 0.63152 0.64579 0.0
H398 H 0.20811 0.64987 0.61482 0.0
H399 H 0.24463 0.60899 0.64156 0.0
C400 C 0.33105 0.62463 0.58552 0.0
N401 N 0.30694 0.61456 0.59539 0.0
C402 C 0.34891 0.6164 0.59193 0.0
C403 C 0.3171 0.58812 0.61896 0.0
C404 C 0.29972 0.59663 0.61182 0.0
C405 C 0.3421 0.59814 0.60903 0.0
H406 H 0.33672 0.63956 0.57301 0.0
H407 H 0.28086 0.58964 0.61992 0.0
C408 C 0.24139 0.6767 0.57253 0.0
N409 N 0.23409 0.7193 0.5634 0.0
C410 C 0.23359 0.67974 0.55179 0.0
C411 C 0.24501 0.69507 0.58871 0.0
C412 C 0.23014 0.70147 0.54747 0.0
C413 C 0.24135 0.71654 0.58376 0.0
C414 C 0.30044 0.6424 0.54074 0.0
C415 C 0.31181 0.66211 0.52479 0.0
C416 C 0.2994 0.61803 0.53755 0.0
C417 C 0.32123 0.65682 0.50567 0.0
C418 C 0.30908 0.6135 0.51823 0.0
N419 N 0.31965 0.63281 0.50279 0.0
C420 C 0.32819 0.72384 0.58436 0.0
C421 C 0.30362 0.71616 0.55187 0.0
C422 C 0.34646 0.74976 0.57771 0.0
N423 N 0.30735 0.70766 0.57139 0.0
C424 C 0.32139 0.74182 0.54458 0.0
C425 C 0.34336 0.75891 0.55742 0.0
H426 H 0.33114 0.71635 0.59953 0.0
H427 H 0.28736 0.70265 0.54159 0.0
C428 C 0.20666 0.59267 0.53705 0.0
N429 N 0.23112 0.61495 0.53636 0.0
C430 C 0.19082 0.58388 0.51843 0.0
C431 C 0.2256 0.62113 0.49881 0.0
C432 C 0.24071 0.62917 0.51776 0.0
C433 C 0.20018 0.59833 0.499 0.0
H434 H 0.19925 0.58202 0.55216 0.0
H435 H 0.25964 0.64744 0.51784 0.0
O436 O 0.29 0.65861 0.60707 0.0
O437 O 0.24493 0.60448 0.58733 0.0
O438 O 0.24512 0.65566 0.57701 0.0
O439 O 0.29115 0.64731 0.55961 0.0
H440 H 0.29844 0.63434 0.63991 0.0
H441 H 0.28862 0.70068 0.6222 0.0
H442 H 0.3026 0.64834 0.67834 0.0
H443 H 0.29267 0.71341 0.66095 0.0
H444 H 0.2341 0.53191 0.55017 0.0
H445 H 0.22744 0.56994 0.61983 0.0
H446 H 0.246 0.57927 0.55175 0.0
H447 H 0.21564 0.52265 0.61705 0.0
H448 H 0.21536 0.596 0.67348 0.0
H449 H 0.17784 0.63776 0.64623 0.0
H450 H 0.36818 0.62491 0.58411 0.0
H451 H 0.31113 0.57402 0.6322 0.0
H452 H 0.23036 0.66557 0.53912 0.0
H453 H 0.25041 0.6927 0.60496 0.0
H454 H 0.22429 0.70416 0.53144 0.0
H455 H 0.24421 0.73096 0.59613 0.0
H456 H 0.31319 0.68124 0.52705 0.0
H457 H 0.29168 0.60292 0.55 0.0
H458 H 0.32985 0.67182 0.49312 0.0
H459 H 0.30832 0.59469 0.51557 0.0
H460 H 0.36332 0.76214 0.588 0.0
H461 H 0.31811 0.74812 0.52892 0.0
H462 H 0.17137 0.56613 0.5193 0.0
H463 H 0.23336 0.63327 0.48439 0.0
Li464 Li 0.67357 0.28227 0.75634 0.0
Li465 Li 0.63116 0.25039 0.77275 0.0
Li466 Li 0.63818 0.24782 0.73298 0.0
Li467 Li 0.63126 0.28317 0.74787 0.0
C468 C 0.67532 0.23456 0.75468 0.0
N469 N 0.71197 0.21802 0.74804 0.0
C470 C 0.68113 0.22188 0.77131 0.0
C471 C 0.68787 0.23844 0.73459 0.0
C472 C 0.69981 0.21379 0.76767 0.0
C473 C 0.7064 0.23003 0.73157 0.0
C474 C 0.64878 0.29405 0.79735 0.0
C475 C 0.62552 0.30004 0.82728 0.0
N476 N 0.64447 0.30145 0.84107 0.0
C477 C 0.66821 0.2959 0.81177 0.0
C478 C 0.62742 0.29642 0.8051 0.0
C479 C 0.6656 0.29951 0.83384 0.0
C480 C 0.72395 0.32891 0.75312 0.0
N481 N 0.71073 0.30403 0.7618 0.0
C482 C 0.74995 0.31144 0.78048 0.0
C483 C 0.72309 0.29516 0.77536 0.0
C484 C 0.76419 0.33726 0.77177 0.0
C485 C 0.75086 0.34593 0.75787 0.0
H486 H 0.7135 0.33561 0.74268 0.0
H487 H 0.71193 0.27571 0.78269 0.0
C488 C 0.58984 0.2129 0.80041 0.0
N489 N 0.61655 0.22917 0.79811 0.0
C490 C 0.5797 0.19527 0.8179 0.0
C491 C 0.62472 0.21173 0.83048 0.0
C492 C 0.63396 0.229 0.81276 0.0
C493 C 0.59725 0.19424 0.83307 0.0
H494 H 0.57641 0.21297 0.78834 0.0
H495 H 0.65513 0.2417 0.81029 0.0
C496 C 0.67129 0.29485 0.70799 0.0
N497 N 0.69449 0.31179 0.66764 0.0
C498 C 0.65861 0.30159 0.69201 0.0
C499 C 0.69608 0.29732 0.70356 0.0
C500 C 0.67055 0.30992 0.67167 0.0
C501 C 0.7074 0.30576 0.68304 0.0
C502 C 0.58116 0.23949 0.74559 0.0
C503 C 0.56668 0.22634 0.72706 0.0
C504 C 0.5697 0.24818 0.76116 0.0
C505 C 0.54106 0.22245 0.72428 0.0
C506 C 0.54404 0.24392 0.75779 0.0
N507 N 0.53038 0.23128 0.73956 0.0
C508 C 0.62783 0.20036 0.71133 0.0
C509 C 0.62096 0.23052 0.69023 0.0
C510 C 0.61849 0.18177 0.69448 0.0
N511 N 0.62897 0.22421 0.70889 0.0
C512 C 0.6114 0.21253 0.673 0.0
C513 C 0.60983 0.18764 0.67505 0.0
H514 H 0.63354 0.19545 0.72656 0.0
H515 H 0.62084 0.24903 0.68905 0.0
C516 C 0.62627 0.32947 0.75058 0.0
N517 N 0.61755 0.30586 0.74019 0.0
C518 C 0.61845 0.34742 0.7434 0.0
C519 C 0.59236 0.31609 0.71535 0.0
C520 C 0.60084 0.29892 0.72294 0.0
C521 C 0.60154 0.34098 0.72532 0.0
H522 H 0.63996 0.3347 0.76403 0.0
H523 H 0.59474 0.28038 0.71458 0.0
O524 O 0.65719 0.24277 0.75804 0.0
O525 O 0.65086 0.29024 0.77572 0.0
O526 O 0.66 0.28698 0.72811 0.0
O527 O 0.60642 0.24379 0.74843 0.0
H528 H 0.67142 0.21844 0.7869 0.0
H529 H 0.68301 0.24743 0.72137 0.0
H530 H 0.70461 0.20411 0.78044 0.0
H531 H 0.71625 0.23294 0.71608 0.0
H532 H 0.60903 0.3018 0.83351 0.0
H533 H 0.68497 0.29429 0.80603 0.0
H534 H 0.61255 0.29565 0.7941 0.0
H535 H 0.68036 0.30074 0.84521 0.0
H536 H 0.75927 0.30415 0.79163 0.0
H537 H 0.76111 0.36563 0.75072 0.0
H538 H 0.55837 0.18229 0.81934 0.0
H539 H 0.63902 0.21133 0.84152 0.0
H540 H 0.63963 0.3002 0.69518 0.0
H541 H 0.70666 0.29305 0.71587 0.0
H542 H 0.66081 0.31495 0.65911 0.0
H543 H 0.72652 0.30765 0.6794 0.0
H544 H 0.57513 0.21926 0.71494 0.0
H545 H 0.58052 0.25811 0.77567 0.0
H546 H 0.52967 0.21242 0.70998 0.0
H547 H 0.53498 0.25065 0.76967 0.0
H548 H 0.61776 0.1629 0.69675 0.0
H549 H 0.60433 0.21767 0.65857 0.0
H550 H 0.62633 0.3665 0.75143 0.0
H551 H 0.57902 0.31003 0.70158 0.0
Li552 Li 0.40361 0.63531 0.92971 0.0
Li553 Li 0.40962 0.6765 0.91356 0.0
Li554 Li 0.36809 0.63278 0.90738 0.0
Li555 Li 0.40955 0.64214 0.88932 0.0
C556 C 0.37762 0.65034 0.9566 0.0
N557 N 0.36941 0.64498 1.00086 0.0
C558 C 0.39007 0.6727 0.97004 0.0
C559 C 0.36074 0.62532 0.96563 0.0
C560 C 0.38572 0.66956 0.99239 0.0
C561 C 0.35693 0.623 0.98806 0.0
C562 C 0.46114 0.68092 0.91147 0.0
C563 C 0.49956 0.70998 0.88987 0.0
N564 N 0.51485 0.71762 0.90805 0.0
C565 C 0.47733 0.68875 0.92989 0.0
C566 C 0.47241 0.69134 0.89125 0.0
C567 C 0.50439 0.70746 0.92785 0.0
C568 C 0.40909 0.59643 0.95327 0.0
N569 N 0.41349 0.62176 0.95393 0.0
C570 C 0.43563 0.62937 0.98805 0.0
C571 C 0.42647 0.63823 0.97084 0.0
C572 C 0.43178 0.60346 0.98768 0.0
C573 C 0.41815 0.58682 0.97006 0.0
H574 H 0.39904 0.58388 0.93948 0.0
H575 H 0.43028 0.65847 0.97072 0.0
C576 C 0.40925 0.7248 0.9104 0.0
N577 N 0.42259 0.71334 0.91917 0.0
C578 C 0.41626 0.7509 0.91581 0.0
C579 C 0.45054 0.75292 0.9393 0.0
C580 C 0.44293 0.72681 0.93336 0.0
C581 C 0.43697 0.76524 0.93066 0.0
H582 H 0.39272 0.71344 0.89955 0.0
H583 H 0.4525 0.71695 0.9408 0.0
C584 C 0.3636 0.5855 0.90017 0.0
N585 N 0.32091 0.53689 0.88828 0.0
C586 C 0.35967 0.57775 0.87842 0.0
C587 C 0.346 0.56842 0.9159 0.0
C588 C 0.33793 0.55312 0.87273 0.0
C589 C 0.32448 0.54396 0.90956 0.0
C590 C 0.39483 0.67607 0.86739 0.0
C591 C 0.37561 0.66821 0.85109 0.0
C592 C 0.41952 0.69917 0.86466 0.0
C593 C 0.38159 0.6834 0.83218 0.0
C594 C 0.42474 0.71382 0.84552 0.0
N595 N 0.40583 0.70568 0.8298 0.0
C596 C 0.31484 0.61697 0.91915 0.0
C597 C 0.32062 0.6066 0.88313 0.0
C598 C 0.28768 0.60687 0.91554 0.0
N599 N 0.33067 0.61669 0.90302 0.0
C600 C 0.2936 0.59627 0.87881 0.0
C601 C 0.27675 0.59655 0.89507 0.0
H602 H 0.3234 0.6256 0.93468 0.0
H603 H 0.3337 0.60694 0.8705 0.0
C604 C 0.43523 0.61836 0.86992 0.0
N605 N 0.4244 0.63375 0.86497 0.0
C606 C 0.44513 0.60902 0.85359 0.0
C607 C 0.43303 0.63195 0.82727 0.0
C608 C 0.4232 0.64073 0.84413 0.0
C609 C 0.44399 0.61566 0.83186 0.0
H610 H 0.43563 0.61286 0.88661 0.0
H611 H 0.41434 0.65276 0.84043 0.0
O612 O 0.3819 0.65297 0.93471 0.0
O613 O 0.43466 0.66236 0.91316 0.0
O614 O 0.38459 0.60967 0.90604 0.0
O615 O 0.38924 0.6614 0.88601 0.0
H616 H 0.40303 0.69224 0.96332 0.0
H617 H 0.35083 0.60787 0.95545 0.0
H618 H 0.39533 0.68667 0.003 0.0
H619 H 0.34405 0.60372 0.99528 0.0
H620 H 0.50849 0.71828 0.87432 0.0
H621 H 0.46907 0.68063 0.94563 0.0
H622 H 0.46043 0.68499 0.87672 0.0
H623 H 0.51709 0.71386 0.94201 0.0
H624 H 0.44639 0.64296 1.00116 0.0
H625 H 0.41467 0.56667 0.96923 0.0
H626 H 0.40537 0.75963 0.9086 0.0
H627 H 0.46621 0.76293 0.95118 0.0
H628 H 0.37306 0.59073 0.86601 0.0
H629 H 0.34892 0.57397 0.93283 0.0
H630 H 0.33454 0.54694 0.85594 0.0
H631 H 0.31064 0.53059 0.92155 0.0
H632 H 0.35631 0.65054 0.85298 0.0
H633 H 0.43443 0.70588 0.87724 0.0
H634 H 0.36695 0.67748 0.8194 0.0
H635 H 0.44379 0.73171 0.8432 0.0
H636 H 0.27553 0.60786 0.92845 0.0
H637 H 0.28601 0.58824 0.86288 0.0
H638 H 0.45297 0.59617 0.85794 0.0
H639 H 0.43201 0.63786 0.81081 0.0
Li640 Li 0.75604 0.40846 0.08717 0.0
Li641 Li 0.79085 0.40196 0.1029 0.0
Li642 Li 0.78741 0.40536 0.06295 0.0
Li643 Li 0.75473 0.36563 0.08201 0.0
C644 C 0.7991 0.45792 0.08615 0.0
N645 N 0.80616 0.50871 0.08759 0.0
C646 C 0.80147 0.4704 0.10607 0.0
C647 C 0.80091 0.47152 0.06696 0.0
C648 C 0.80485 0.496 0.10647 0.0
C649 C 0.80433 0.49712 0.06802 0.0
C650 C 0.74671 0.36496 0.12639 0.0
C651 C 0.75491 0.33397 0.14627 0.0
N652 N 0.73516 0.32984 0.16038 0.0
C653 C 0.72654 0.36045 0.14108 0.0
C654 C 0.76107 0.35167 0.12899 0.0
C655 C 0.72099 0.3426 0.15816 0.0
C656 C 0.71472 0.42116 0.08033 0.0
N657 N 0.73382 0.42298 0.09413 0.0
C658 C 0.71837 0.44067 0.12195 0.0
C659 C 0.73583 0.43236 0.11464 0.0
C660 C 0.69831 0.43892 0.10812 0.0
C661 C 0.69679 0.42923 0.08698 0.0
H662 H 0.71268 0.41256 0.06446 0.0
H663 H 0.75059 0.4327 0.12554 0.0
C664 C 0.83554 0.40831 0.12725 0.0
N665 N 0.81362 0.4111 0.12746 0.0
C666 C 0.85224 0.41566 0.14536 0.0
C667 C 0.82351 0.42869 0.16345 0.0
C668 C 0.80721 0.42076 0.14513 0.0
C669 C 0.84641 0.42625 0.16368 0.0
H670 H 0.84014 0.40057 0.11299 0.0
H671 H 0.78944 0.42242 0.14493 0.0
C672 C 0.74036 0.38941 0.04016 0.0
N673 N 0.72608 0.39489 0.99856 0.0
C674 C 0.72695 0.3671 0.02675 0.0
C675 C 0.74627 0.41443 0.03245 0.0
C676 C 0.71996 0.3703 0.00576 0.0
C677 C 0.73895 0.41682 0.01137 0.0
C678 C 0.80001 0.36495 0.06558 0.0
C679 C 0.78291 0.35115 0.04842 0.0
C680 C 0.82362 0.36429 0.06807 0.0
C681 C 0.78969 0.33689 0.03403 0.0
C682 C 0.82972 0.3498 0.05334 0.0
N683 N 0.81277 0.33651 0.03677 0.0
C684 C 0.83286 0.43979 0.03807 0.0
C685 C 0.79907 0.40422 0.01789 0.0
C686 C 0.84933 0.4489 0.01978 0.0
N687 N 0.80819 0.41785 0.03681 0.0
C688 C 0.81477 0.41265 0.99923 0.0
C689 C 0.84032 0.43522 1.00001 0.0
H690 H 0.83986 0.45009 0.05337 0.0
H691 H 0.77983 0.38641 0.01725 0.0
C692 C 0.70555 0.32087 0.07356 0.0
N693 N 0.7307 0.32829 0.08005 0.0
C694 C 0.68706 0.29407 0.07001 0.0
C695 C 0.72033 0.28288 0.08088 0.0
C696 C 0.73828 0.30997 0.08406 0.0
C697 C 0.69445 0.2747 0.07343 0.0
H698 H 0.70005 0.33589 0.07071 0.0
H699 H 0.75841 0.31643 0.08928 0.0
O700 O 0.79567 0.43278 0.08545 0.0
O701 O 0.75233 0.3824 0.10962 0.0
O702 O 0.74769 0.38669 0.06068 0.0
O703 O 0.79386 0.3792 0.07981 0.0
H704 H 0.80058 0.46038 0.12107 0.0
H705 H 0.79989 0.46253 0.05138 0.0
H706 H 0.80647 0.50578 0.12179 0.0
H707 H 0.80563 0.50782 0.05329 0.0
H708 H 0.76584 0.32353 0.14847 0.0
H709 H 0.7153 0.37065 0.13929 0.0
H710 H 0.77681 0.35496 0.11782 0.0
H711 H 0.70541 0.3389 0.16966 0.0
H712 H 0.72041 0.44815 0.13834 0.0
H713 H 0.6813 0.42698 0.07592 0.0
H714 H 0.8698 0.41361 0.14488 0.0
H715 H 0.81817 0.43645 0.17735 0.0
H716 H 0.72221 0.34754 0.03237 0.0
H717 H 0.75617 0.43178 0.04271 0.0
H718 H 0.70972 0.35323 0.99518 0.0
H719 H 0.74345 0.4361 0.00522 0.0
H720 H 0.76463 0.35151 0.04616 0.0
H721 H 0.83715 0.37489 0.08122 0.0
H722 H 0.77662 0.32616 0.02067 0.0
H723 H 0.84794 0.34913 0.05509 0.0
H724 H 0.86885 0.46647 0.0211 0.0
H725 H 0.80721 0.40115 0.98448 0.0
H726 H 0.66719 0.28857 0.06459 0.0
H727 H 0.72685 0.26857 0.08359 0.0
Li728 Li 0.40706 0.78694 0.27292 0.0
Li729 Li 0.3662 0.75547 0.25507 0.0
Li730 Li 0.4068 0.75216 0.24954 0.0
Li731 Li 0.40252 0.788 0.23324 0.0
C732 C 0.37349 0.7391 0.29618 0.0
N733 N 0.34658 0.72177 0.33509 0.0
C734 C 0.36371 0.75389 0.30656 0.0
C735 C 0.36969 0.71555 0.30563 0.0
C736 C 0.35013 0.74479 0.3262 0.0
C737 C 0.35601 0.7071 0.3253 0.0
C738 C 0.36263 0.80069 0.25648 0.0
C739 C 0.32567 0.80117 0.23903 0.0
N740 N 0.32124 0.8114 0.25737 0.0
C741 C 0.35786 0.81141 0.2751 0.0
C742 C 0.34655 0.79572 0.23824 0.0
C743 C 0.33678 0.81661 0.27525 0.0
C744 C 0.42545 0.83345 0.2974 0.0
N745 N 0.4216 0.80835 0.29815 0.0
C746 C 0.43391 0.81359 0.33556 0.0
C747 C 0.42617 0.7984 0.31658 0.0
C748 C 0.43712 0.83928 0.33549 0.0
C749 C 0.4332 0.84933 0.31596 0.0
H750 H 0.42167 0.84083 0.2825 0.0
H751 H 0.42313 0.77842 0.31672 0.0
C752 C 0.31745 0.7092 0.24826 0.0
N753 N 0.32862 0.73306 0.25865 0.0
C754 C 0.29093 0.68996 0.25214 0.0
C755 C 0.2877 0.72035 0.27708 0.0
C756 C 0.31425 0.739 0.2727 0.0
C757 C 0.2758 0.69527 0.267 0.0
H758 H 0.32943 0.70479 0.23745 0.0
H759 H 0.32357 0.75771 0.28125 0.0
C760 C 0.45655 0.79572 0.25957 0.0
N761 N 0.50353 0.8057 0.27907 0.0
C762 C 0.48081 0.81699 0.25255 0.0
C763 C 0.45616 0.77948 0.27648 0.0
C764 C 0.50436 0.82171 0.26262 0.0
C765 C 0.48012 0.78487 0.28614 0.0
C766 C 0.37542 0.74582 0.20641 0.0
C767 C 0.39285 0.74269 0.19269 0.0
C768 C 0.35287 0.74524 0.19777 0.0
C769 C 0.38781 0.73977 0.17043 0.0
C770 C 0.34849 0.74224 0.17543 0.0
N771 N 0.36594 0.73965 0.16233 0.0
C772 C 0.40386 0.70243 0.25109 0.0
C773 C 0.44149 0.73579 0.23231 0.0
C774 C 0.41074 0.68329 0.24558 0.0
N775 N 0.41914 0.72801 0.24432 0.0
C776 C 0.44904 0.71728 0.22631 0.0
C777 C 0.43339 0.69052 0.23274 0.0
H778 H 0.38593 0.69678 0.26029 0.0
H779 H 0.45293 0.75618 0.22676 0.0
C780 C 0.40671 0.82866 0.20391 0.0
N781 N 0.41424 0.8104 0.20832 0.0
C782 C 0.41738 0.84558 0.186 0.0
C783 C 0.44318 0.82446 0.17757 0.0
C784 C 0.43226 0.80822 0.19571 0.0
C785 C 0.43602 0.84371 0.17257 0.0
H786 H 0.39297 0.83059 0.21453 0.0
H787 H 0.43842 0.794 0.19993 0.0
O788 O 0.38699 0.74771 0.27698 0.0
O789 O 0.38306 0.79528 0.25607 0.0
O790 O 0.43339 0.79093 0.24981 0.0
O791 O 0.38014 0.7489 0.22823 0.0
H792 H 0.36666 0.77224 0.29955 0.0
H793 H 0.37731 0.70396 0.29791 0.0
H794 H 0.34245 0.75605 0.33438 0.0
H795 H 0.35293 0.68891 0.3328 0.0
H796 H 0.31302 0.79732 0.22504 0.0
H797 H 0.3701 0.81547 0.28938 0.0
H798 H 0.35022 0.78782 0.22362 0.0
H799 H 0.33276 0.82475 0.2896 0.0
H800 H 0.43712 0.80522 0.35016 0.0
H801 H 0.43519 0.86891 0.31519 0.0
H802 H 0.28251 0.67099 0.24385 0.0
H803 H 0.27699 0.72516 0.28895 0.0
H804 H 0.48142 0.8297 0.23944 0.0
H805 H 0.4376 0.76286 0.28209 0.0
H806 H 0.52329 0.83811 0.25736 0.0
H807 H 0.48012 0.77248 0.29925 0.0
H808 H 0.41022 0.74276 0.19913 0.0
H809 H 0.33876 0.74684 0.20821 0.0
H810 H 0.40128 0.7376 0.1596 0.0
H811 H 0.33118 0.74189 0.16851 0.0
H812 H 0.39825 0.66299 0.2511 0.0
H813 H 0.46638 0.7237 0.21609 0.0
H814 H 0.41164 0.86044 0.18309 0.0
H815 H 0.45718 0.82197 0.16762 0.0
H816 H 0.16754 0.59577 0.29737 0.0
H817 H 0.14334 0.65511 0.29779 0.0
H818 H 0.18724 0.68861 0.28479 0.0
H819 H 0.23271 0.7013 0.27381 0.0
H820 H 0.25721 0.6422 0.27375 0.0
H821 H 0.21278 0.60825 0.28541 0.0
C822 C 0.17178 0.61596 0.29439 0.0
C823 C 0.15223 0.62294 0.29873 0.0
C824 C 0.19708 0.63516 0.28683 0.0
C825 C 0.15817 0.64929 0.29498 0.0
C826 C 0.18322 0.66844 0.2874 0.0
C827 C 0.22836 0.68102 0.27642 0.0
C828 C 0.24831 0.67437 0.27291 0.0
C829 C 0.20289 0.66166 0.28344 0.0
C830 C 0.24217 0.64785 0.27603 0.0
C831 C 0.21681 0.62843 0.28289 0.0
H832 H 0.59356 0.16854 0.4672 0.0
H833 H 0.50982 0.14154 0.46025 0.0
H834 H 0.52027 0.18549 0.44723 0.0
H835 H 0.55313 0.2316 0.43789 0.0
H836 H 0.63691 0.25901 0.44567 0.0
H837 H 0.62651 0.21477 0.45776 0.0
C838 C 0.57763 0.17225 0.46264 0.0
C839 C 0.55097 0.15185 0.46475 0.0
C840 C 0.58377 0.1976 0.45521 0.0
C841 C 0.53051 0.15702 0.45904 0.0
C842 C 0.53646 0.1821 0.4515 0.0
C843 C 0.56912 0.22798 0.44239 0.0
C844 C 0.59576 0.24865 0.44081 0.0
C845 C 0.56301 0.20258 0.44962 0.0
C846 C 0.61623 0.24341 0.44639 0.0
C847 C 0.61031 0.21815 0.45346 0.0
H848 H 0.42029 0.56855 0.65679 0.0
H849 H 0.43373 0.55303 0.59103 0.0
H850 H 0.40269 0.56681 0.57776 0.0
H851 H 0.37106 0.58245 0.58497 0.0
H852 H 0.35626 0.59635 0.65085 0.0
H853 H 0.38832 0.58389 0.66402 0.0
C854 C 0.41654 0.56844 0.63956 0.0
C855 C 0.42928 0.55993 0.62487 0.0
C856 C 0.3983 0.5759 0.63211 0.0
C857 C 0.42403 0.55945 0.6026 0.0
C858 C 0.40633 0.56733 0.59503 0.0
C859 C 0.37499 0.58287 0.60219 0.0
C860 C 0.36135 0.59028 0.61692 0.0
C861 C 0.39324 0.57545 0.60964 0.0
C862 C 0.36635 0.59044 0.63922 0.0
C863 C 0.38476 0.58346 0.64675 0.0
H864 H 0.88588 0.39686 0.79766 0.0
H865 H 0.87097 0.46223 0.80556 0.0
H866 H 0.82495 0.43381 0.79373 0.0
H867 H 0.78855 0.38997 0.78219 0.0
H868 H 0.80356 0.32461 0.77467 0.0
H869 H 0.84979 0.35333 0.78572 0.0
C870 C 0.87251 0.40484 0.79699 0.0
C871 C 0.88186 0.43162 0.80259 0.0
C872 C 0.84605 0.38835 0.79033 0.0
C873 C 0.86438 0.44176 0.80118 0.0
C874 C 0.83801 0.42549 0.79452 0.0
C875 C 0.80202 0.3821 0.78272 0.0
C876 C 0.79257 0.35515 0.77764 0.0
C877 C 0.82861 0.39873 0.78911 0.0
C878 C 0.81021 0.34518 0.77874 0.0
C879 C 0.83669 0.36161 0.78497 0.0
H880 H 0.44592 0.87254 0.96436 0.0
H881 H 0.52948 0.89695 0.96365 0.0
H882 H 0.519 0.85326 0.94998 0.0
H883 H 0.48616 0.80809 0.93826 0.0
H884 H 0.40251 0.78337 0.93951 0.0
H885 H 0.41305 0.8274 0.95231 0.0
C886 C 0.46184 0.86837 0.96102 0.0
C887 C 0.48843 0.88797 0.96513 0.0
C888 C 0.45569 0.84319 0.9531 0.0
C889 C 0.50881 0.88211 0.96096 0.0
C890 C 0.50286 0.85718 0.95301 0.0
C891 C 0.47021 0.81225 0.94146 0.0
C892 C 0.44359 0.79239 0.93786 0.0
C893 C 0.47637 0.83752 0.94911 0.0
C894 C 0.42322 0.79835 0.94179 0.0
C895 C 0.4292 0.82349 0.94928 0.0
H896 H 0.61494 0.46254 0.1547 0.0
H897 H 0.61884 0.49885 0.09277 0.0
H898 H 0.65067 0.48614 0.07971 0.0
H899 H 0.67821 0.46567 0.08609 0.0
H900 H 0.67388 0.4286 0.14776 0.0
H901 H 0.64163 0.44082 0.16072 0.0
C902 C 0.62255 0.46738 0.13827 0.0
C903 C 0.61461 0.4817 0.12477 0.0
C904 C 0.64096 0.46009 0.13086 0.0
C905 C 0.62489 0.48813 0.10359 0.0
C906 C 0.64303 0.4808 0.09608 0.0
C907 C 0.67003 0.46002 0.10229 0.0
C908 C 0.67859 0.44634 0.11593 0.0
C909 C 0.65135 0.46695 0.10961 0.0
C910 C 0.66802 0.43953 0.13701 0.0
C911 C 0.6494 0.44633 0.1444 0.0
H912 H 0.42454 0.86505 0.50882 0.0
H913 H 0.42695 0.89794 0.57203 0.0
H914 H 0.39608 0.85353 0.586 0.0
H915 H 0.36713 0.80553 0.57995 0.0
H916 H 0.36449 0.77254 0.51671 0.0
H917 H 0.39654 0.81672 0.50305 0.0
C918 C 0.41853 0.8624 0.5257 0.0
C919 C 0.42794 0.88472 0.53935 0.0
C920 C 0.40054 0.83682 0.53358 0.0
C921 C 0.41975 0.88107 0.56115 0.0
C922 C 0.40215 0.85569 0.56916 0.0
C923 C 0.37378 0.80798 0.56324 0.0
C924 C 0.3633 0.78578 0.54936 0.0
C925 C 0.3922 0.83345 0.55548 0.0
C926 C 0.3719 0.78935 0.52766 0.0
C927 C 0.39036 0.81459 0.51986 0.0
H928 H 0.57069 0.41514 0.67255 0.0
H929 H 0.5645 0.44007 0.7371 0.0
H930 H 0.57798 0.40971 0.75243 0.0
H931 H 0.58999 0.37488 0.74748 0.0
H932 H 0.59721 0.35102 0.68268 0.0
H933 H 0.58427 0.38166 0.66756 0.0
C934 C 0.57221 0.41385 0.68998 0.0
C935 C 0.56651 0.42975 0.70366 0.0
C936 C 0.5799 0.39633 0.69867 0.0
C937 C 0.56899 0.4282 0.72621 0.0
C938 C 0.57655 0.41073 0.73499 0.0
C939 C 0.58902 0.37657 0.73005 0.0
C940 C 0.59429 0.36035 0.7163 0.0
C941 C 0.5819 0.39457 0.72137 0.0
C942 C 0.59267 0.36272 0.69372 0.0
C943 C 0.58547 0.38043 0.68501 0.0
H944 H 0.152 0.54777 0.88992 0.0
H945 H 0.17306 0.58408 0.82655 0.0
H946 H 0.22009 0.60072 0.83418 0.0
H947 H 0.25518 0.60452 0.85863 0.0
H948 H 0.23399 0.56673 0.92143 0.0
H949 H 0.18704 0.55104 0.91417 0.0
C950 C 0.16684 0.55912 0.87768 0.0
C951 C 0.15894 0.56462 0.85768 0.0
C952 C 0.19383 0.56836 0.88206 0.0
C953 C 0.17854 0.57983 0.84219 0.0
C954 C 0.20545 0.5892 0.84648 0.0
C955 C 0.24028 0.59259 0.87065 0.0
C956 C 0.24814 0.58676 0.89053 0.0
C957 C 0.2133 0.58348 0.86631 0.0
C958 C 0.22856 0.57175 0.90608 0.0
C959 C 0.20169 0.56265 0.9019 0.0
H960 H 0.62028 0.14999 0.06554 0.0
H961 H 0.60077 0.17319 0.00484 0.0
H962 H 0.63021 0.22001 0.01373 0.0
H963 H 0.66279 0.25436 0.03804 0.0
H964 H 0.68378 0.23123 0.098 0.0
H965 H 0.65301 0.18431 0.08978 0.0
C966 C 0.62261 0.16524 0.05414 0.0
C967 C 0.60823 0.15795 0.03454 0.0
C968 C 0.64002 0.19214 0.05913 0.0
C969 C 0.61119 0.17812 0.02019 0.0
C970 C 0.62822 0.20494 0.02517 0.0
C971 C 0.66042 0.23905 0.04941 0.0
C972 C 0.67549 0.24625 0.06863 0.0
C973 C 0.64283 0.21216 0.04453 0.0
C974 C 0.67257 0.22617 0.08302 0.0
C975 C 0.6549 0.19938 0.07837 0.0
H976 H 0.44304 0.59374 0.19613 0.0
H977 H 0.52658 0.65027 0.20473 0.0
H978 H 0.51574 0.68296 0.21909 0.0
H979 H 0.48259 0.69558 0.22904 0.0
H980 H 0.39904 0.63951 0.21945 0.0
H981 H 0.40981 0.60636 0.20625 0.0
C982 C 0.45884 0.61314 0.20133 0.0
C983 C 0.48556 0.6196 0.19929 0.0
C984 C 0.45247 0.63188 0.20953 0.0
C985 C 0.50585 0.64493 0.20586 0.0
C986 C 0.49967 0.66359 0.21418 0.0
C987 C 0.46673 0.67618 0.22393 0.0
C988 C 0.44004 0.67011 0.22531 0.0
C989 C 0.47306 0.65733 0.21598 0.0
C990 C 0.41974 0.64466 0.21892 0.0
C991 C 0.42588 0.62572 0.21118 0.0
H992 H 0.86485 0.46234 0.34065 0.0
H993 H 0.89635 0.49499 0.40372 0.0
H994 H 0.85161 0.48143 0.4168 0.0
H995 H 0.80376 0.46182 0.40995 0.0
H996 H 0.77205 0.42814 0.34713 0.0
H997 H 0.81662 0.44069 0.33434 0.0
C998 C 0.86186 0.46614 0.35734 0.0
C999 C 0.8839 0.47978 0.37114 0.0
C1000 C 0.83607 0.45834 0.36475 0.0
C1001 C 0.87974 0.48485 0.39267 0.0
C1002 C 0.85416 0.47704 0.40019 0.0
C1003 C 0.80654 0.45693 0.39354 0.0
C1004 C 0.78458 0.44427 0.3795 0.0
C1005 C 0.83221 0.46402 0.38631 0.0
C1006 C 0.78864 0.43837 0.35819 0.0
C1007 C 0.81411 0.44536 0.35088 0.0
H1008 H 0.1448 0.57699 0.40716 0.0
H1009 H 0.07691 0.5589 0.44746 0.0
H1010 H 0.10402 0.56756 0.47988 0.0
H1011 H 0.1472 0.5814 0.49686 0.0
H1012 H 0.21495 0.59843 0.45682 0.0
H1013 H 0.18764 0.58886 0.42429 0.0
C1014 C 0.13586 0.57466 0.42303 0.0
C1015 C 0.10889 0.56753 0.4248 0.0
C1016 C 0.15153 0.57949 0.44169 0.0
C1017 C 0.09774 0.56488 0.44555 0.0
C1018 C 0.11317 0.56964 0.46414 0.0
C1019 C 0.15591 0.5826 0.48105 0.0
C1020 C 0.18311 0.59065 0.47932 0.0
C1021 C 0.14012 0.5771 0.46241 0.0
C1022 C 0.19415 0.59257 0.45863 0.0
C1023 C 0.17853 0.58702 0.44001 0.0
H1024 H 0.54848 0.08979 0.61161 0.0
H1025 H 0.58826 0.15187 0.56394 0.0
H1026 H 0.60962 0.18477 0.59274 0.0
H1027 H 0.61684 0.19594 0.63145 0.0
H1028 H 0.57593 0.134 0.67909 0.0
H1029 H 0.55539 0.10103 0.65032 0.0
C1030 C 0.56162 0.11056 0.60753 0.0
C1031 C 0.56672 0.11835 0.58566 0.0
C1032 C 0.57379 0.12938 0.62416 0.0
C1033 C 0.58419 0.14529 0.58065 0.0
C1034 C 0.59633 0.16414 0.5971 0.0
C1035 C 0.60329 0.17526 0.63555 0.0
C1036 C 0.59802 0.16751 0.65744 0.0
C1037 C 0.59127 0.15641 0.61891 0.0
C1038 C 0.58072 0.14051 0.66242 0.0
C1039 C 0.56876 0.12165 0.64596 0.0
H1040 H 0.49708 0.57038 0.76799 0.0
H1041 H 0.43274 0.56099 0.72685 0.0
H1042 H 0.41731 0.57935 0.75527 0.0
H1043 H 0.42196 0.5979 0.79188 0.0
H1044 H 0.48794 0.60967 0.83204 0.0
H1045 H 0.50291 0.59074 0.80381 0.0
C1046 C 0.47989 0.57266 0.76506 0.0
C1047 C 0.46612 0.56422 0.74523 0.0
C1048 C 0.47137 0.58366 0.78133 0.0
C1049 C 0.44353 0.56688 0.74203 0.0
C1050 C 0.43479 0.57758 0.75823 0.0
C1051 C 0.43984 0.5967 0.79437 0.0
C1052 C 0.45369 0.60515 0.81417 0.0
C1053 C 0.44856 0.58604 0.77795 0.0
C1054 C 0.47658 0.60296 0.81717 0.0
C1055 C 0.48527 0.59226 0.80096 0.0
H1056 H 0.89677 0.46331 0.90833 0.0
H1057 H 0.96415 0.47788 0.94782 0.0
H1058 H 0.93664 0.46652 0.98035 0.0
H1059 H 0.89326 0.4517 0.99762 0.0
H1060 H 0.82604 0.43785 0.95826 0.0
H1061 H 0.85371 0.44984 0.92573 0.0
C1062 C 0.90551 0.46427 0.92407 0.0
C1063 C 0.93249 0.47133 0.92556 0.0
C1064 C 0.8896 0.45782 0.94277 0.0
C1065 C 0.94336 0.4721 0.94611 0.0
C1066 C 0.92768 0.46577 0.96477 0.0
C1067 C 0.88474 0.45165 0.98196 0.0
C1068 C 0.85759 0.44385 0.98041 0.0
C1069 C 0.90076 0.45851 0.9633 0.0
C1070 C 0.8468 0.44347 0.95991 0.0
C1071 C 0.86263 0.45042 0.9413 0.0
H1072 H 0.50558 0.92118 0.09712 0.0
H1073 H 0.43196 0.92049 0.08461 0.0
H1074 H 0.41065 0.88944 0.11451 0.0
H1075 H 0.41297 0.86283 0.14455 0.0
H1076 H 0.48768 0.86647 0.15862 0.0
H1077 H 0.50838 0.89607 0.12787 0.0
C1078 C 0.48496 0.91454 0.10104 0.0
C1079 C 0.47048 0.92323 0.08848 0.0
C1080 C 0.47293 0.89712 0.11858 0.0
C1081 C 0.44357 0.91386 0.09367 0.0
C1082 C 0.43138 0.89624 0.11092 0.0
C1083 C 0.43385 0.8703 0.14106 0.0
C1084 C 0.44859 0.86215 0.15389 0.0
C1085 C 0.44588 0.8878 0.12354 0.0
C1086 C 0.47559 0.87184 0.14884 0.0
C1087 C 0.48757 0.88899 0.13132 0.0
H1088 H 0.59033 0.46611 0.23541 0.0
H1089 H 0.52978 0.47426 0.2695 0.0
H1090 H 0.53777 0.45557 0.30213 0.0
H1091 H 0.56182 0.43681 0.32106 0.0
H1092 H 0.62321 0.42965 0.28739 0.0
H1093 H 0.61491 0.44788 0.25459 0.0
C1094 C 0.57905 0.46398 0.25004 0.0
C1095 C 0.55941 0.47147 0.24996 0.0
C1096 C 0.58378 0.45326 0.26882 0.0
C1097 C 0.54474 0.46829 0.26899 0.0
C1098 C 0.54938 0.45773 0.28772 0.0
C1099 C 0.57353 0.43941 0.3066 0.0
C1100 C 0.59304 0.43176 0.30672 0.0
C1101 C 0.56882 0.45011 0.28782 0.0
C1102 C 0.60776 0.43495 0.2877 0.0
C1103 C 0.60318 0.44557 0.26895 0.0
H1104 H 0.44954 0.89188 0.42784 0.0
H1105 H 0.50376 0.96207 0.39169 0.0
H1106 H 0.49494 0.93543 0.35891 0.0
H1107 H 0.47174 0.89232 0.34039 0.0
H1108 H 0.41689 0.82202 0.37612 0.0
H1109 H 0.42625 0.84847 0.40917 0.0
C1110 C 0.45927 0.90131 0.41274 0.0
C1111 C 0.47733 0.92889 0.41223 0.0
C1112 C 0.45413 0.88585 0.3939 0.0
C1113 C 0.49003 0.94082 0.3926 0.0
C1114 C 0.48492 0.92563 0.37381 0.0
C1115 C 0.46171 0.8828 0.35538 0.0
C1116 C 0.44364 0.85524 0.35574 0.0
C1117 C 0.46702 0.89814 0.37426 0.0
C1118 C 0.43116 0.84315 0.37541 0.0
C1119 C 0.43634 0.8583 0.3943 0.0
H1120 H 0.55685 0.48347 0.55343 0.0
H1121 H 0.58919 0.45187 0.60002 0.0
H1122 H 0.60844 0.43843 0.57068 0.0
H1123 H 0.61518 0.4348 0.53166 0.0
H1124 H 0.58349 0.46726 0.48519 0.0
H1125 H 0.56504 0.4814 0.51456 0.0
C1126 C 0.56805 0.47356 0.5571 0.0
C1127 C 0.57146 0.46848 0.5788 0.0
C1128 C 0.57923 0.46613 0.54019 0.0
C1129 C 0.5864 0.45605 0.58342 0.0
C1130 C 0.59732 0.44831 0.56667 0.0
C1131 C 0.60422 0.44497 0.528 0.0
C1132 C 0.60065 0.44992 0.50629 0.0
C1133 C 0.59373 0.45311 0.54498 0.0
C1134 C 0.58672 0.46343 0.50178 0.0
C1135 C 0.57603 0.47137 0.51855 0.0
H1136 H 0.11892 0.59616 0.74307 0.0
H1137 H 0.10724 0.51685 0.73635 0.0
H1138 H 0.1378 0.53143 0.70567 0.0
H1139 H 0.16749 0.56643 0.68042 0.0
H1140 H 0.17842 0.64544 0.68625 0.0
H1141 H 0.14793 0.63103 0.7172 0.0
C1142 C 0.12281 0.58196 0.73477 0.0
C1143 C 0.11082 0.55544 0.74219 0.0
C1144 C 0.14017 0.59038 0.71687 0.0
C1145 C 0.11649 0.53749 0.73134 0.0
C1146 C 0.13384 0.54575 0.71365 0.0
C1147 C 0.16336 0.58056 0.68857 0.0
C1148 C 0.17532 0.60701 0.6811 0.0
C1149 C 0.14583 0.57214 0.70631 0.0
C1150 C 0.16934 0.62492 0.69158 0.0
C1151 C 0.15201 0.61673 0.70934 0.0
H1152 H 0.54647 0.09478 0.89582 0.0
H1153 H 0.60226 0.1534 0.9405 0.0
H1154 H 0.61692 0.18758 0.91243 0.0
H1155 H 0.61398 0.20083 0.87512 0.0
H1156 H 0.55809 0.14205 0.83058 0.0
H1157 H 0.54281 0.10819 0.85889 0.0
C1158 C 0.56161 0.1151 0.89953 0.0
C1159 C 0.57327 0.12144 0.92026 0.0
C1160 C 0.5698 0.13471 0.88337 0.0
C1161 C 0.59321 0.14782 0.92461 0.0
C1162 C 0.60148 0.16744 0.9086 0.0
C1163 C 0.59852 0.18059 0.87159 0.0
C1164 C 0.58719 0.17406 0.85074 0.0
C1165 C 0.59 0.16109 0.88789 0.0
C1166 C 0.5669 0.14779 0.84655 0.0
C1167 C 0.55829 0.12832 0.86269 0.0
H1168 H 0.48852 0.56104 0.05043 0.0
H1169 H 0.45772 0.59273 0.09839 0.0
H1170 H 0.43776 0.60637 0.06984 0.0
H1171 H 0.42925 0.60944 0.03119 0.0
H1172 H 0.45944 0.57706 0.98327 0.0
H1173 H 0.47927 0.56335 0.01181 0.0
C1174 C 0.47757 0.57109 0.05457 0.0
C1175 C 0.47468 0.576 0.07643 0.0
C1176 C 0.46593 0.57861 0.0381 0.0
C1177 C 0.46009 0.58864 0.08165 0.0
C1178 C 0.44874 0.59649 0.06535 0.0
C1179 C 0.44025 0.59945 0.02703 0.0
C1180 C 0.44289 0.59429 0.00516 0.0
C1181 C 0.45155 0.59159 0.04352 0.0
C1182 C 0.45688 0.58101 1.0 0.0
C1183 C 0.46837 0.57332 0.01629 0.0
H1184 H 0.92143 0.4469 0.24426 0.0
H1185 H 0.92227 0.52185 0.24374 0.0
H1186 H 0.89177 0.50679 0.21308 0.0
H1187 H 0.86576 0.47289 0.18562 0.0
H1188 H 0.86714 0.39922 0.18459 0.0
H1189 H 0.89649 0.41357 0.21624 0.0
C1190 C 0.91527 0.46015 0.23733 0.0
C1191 C 0.92421 0.48551 0.24652 0.0
C1192 C 0.89824 0.45166 0.21927 0.0
C1193 C 0.91542 0.50204 0.23743 0.0
C1194 C 0.89813 0.49355 0.2197 0.0
C1195 C 0.87238 0.45994 0.19243 0.0
C1196 C 0.86425 0.43501 0.18285 0.0
C1197 C 0.88947 0.46844 0.21045 0.0
C1198 C 0.87328 0.41858 0.19161 0.0
C1199 C 0.88996 0.42673 0.20974 0.0
loop_
_geom_bond_atom_site_label_1
_geom_bond_atom_site_label_2
_geom_bond_distance
_geom_bond_site_symmetry_2
_ccdc_geom_bond_type
H0 C19 0.949 . S
H1 C20 0.950 . S
H2 C22 0.950 . S
H3 C23 0.950 . S
H4 C25 0.950 . S
H5 C28 0.950 . S
H6 C29 0.950 . S
H7 C31 0.951 . S
H8 C32 0.949 . S
H9 C34 0.949 . S
H10 C35 0.950 . S
H11 C37 0.950 . S
H12 C38 0.950 . S
H13 C40 0.950 . S
H14 C43 0.950 . S
H15 C44 0.950 . S
H16 C46 0.951 . S
H17 C47 0.949 . S
C18 C19 1.376 . S
C18 C23 1.386 . S
C18 C24 1.483 . S
C19 H0 0.949 . S
C19 C18 1.376 . S
C19 C20 1.397 . S
C20 H1 0.950 . S
C20 C19 1.397 . S
C20 C21 1.391 . S
C21 C20 1.391 . S
C21 C22 1.405 . S
C22 H2 0.950 . S
C22 C21 1.405 . S
C22 C23 1.367 . S
C23 H3 0.950 . S
C23 C18 1.386 . S
C23 C22 1.367 . S
C24 C18 1.483 . S
C24 C25 1.382 1_655 S
C24 C26 1.403 . S
C25 H4 0.950 . S
C25 C24 1.382 1_455 S
C25 C41 1.411 . S
C26 C24 1.403 . S
C26 C27 1.489 . S
C26 C40 1.411 1_655 S
C27 C26 1.489 . S
C27 C28 1.383 . S
C27 C32 1.382 . S
C28 H5 0.950 . S
C28 C27 1.383 . S
C28 C29 1.395 . S
C29 H6 0.950 . S
C29 C28 1.395 . S
C29 C30 1.288 . S
C30 C29 1.288 . S
C30 C31 1.392 . S
C31 H7 0.951 . S
C31 C30 1.392 . S
C31 C32 1.392 . S
C32 H8 0.949 . S
C32 C27 1.382 . S
C32 C31 1.392 . S
C33 C34 1.376 . S
C33 C38 1.386 . S
C33 C39 1.483 . S
C34 H9 0.949 . S
C34 C33 1.376 . S
C34 C35 1.397 . S
C35 H10 0.950 . S
C35 C34 1.397 . S
C35 C36 1.391 . S
C36 C35 1.391 . S
C36 C37 1.405 . S
C37 H11 0.950 . S
C37 C36 1.405 . S
C37 C38 1.367 . S
C38 H12 0.950 . S
C38 C33 1.386 . S
C38 C37 1.367 . S
C39 C33 1.483 . S
C39 C40 1.382 . S
C39 C41 1.403 . S
C40 H13 0.950 . S
C40 C26 1.411 1_455 S
C40 C39 1.382 . S
C41 C25 1.411 . S
C41 C39 1.403 . S
C41 C42 1.489 . S
C42 C41 1.489 . S
C42 C43 1.383 . S
C42 C47 1.382 . S
C43 H14 0.950 . S
C43 C42 1.383 . S
C43 C44 1.395 . S
C44 H15 0.950 . S
C44 C43 1.395 . S
C44 C45 1.288 . S
C45 C44 1.288 . S
C45 C46 1.392 . S
C46 H16 0.951 . S
C46 C45 1.392 . S
C46 C47 1.392 . S
C47 H17 0.949 . S
C47 C42 1.382 . S
C47 C46 1.392 . S
H48 C67 0.949 . S
H49 C68 0.950 . S
H50 C70 0.950 . S
H51 C71 0.950 . S
H52 C73 0.950 . S
H53 C76 0.950 . S
H54 C77 0.950 . S
H55 C79 0.951 . S
H56 C80 0.949 . S
H57 C82 0.949 . S
H58 C83 0.950 . S
H59 C85 0.950 . S
H60 C86 0.950 . S
H61 C88 0.950 . S
H62 C91 0.950 . S
H63 C92 0.950 . S
H64 C94 0.951 . S
H65 C95 0.949 . S
C66 C67 1.376 . S
C66 C71 1.386 . S
C66 C72 1.483 . S
C67 H48 0.949 . S
C67 C66 1.376 . S
C67 C68 1.397 . S
C68 H49 0.950 . S
C68 C67 1.397 . S
C68 C69 1.391 . S
C69 C68 1.391 . S
C69 C70 1.405 . S
C70 H50 0.950 . S
C70 C69 1.405 . S
C70 C71 1.367 . S
C71 H51 0.950 . S
C71 C66 1.386 . S
C71 C70 1.367 . S
C72 C66 1.483 . S
C72 C73 1.382 1_565 S
C72 C74 1.408 . S
C73 H52 0.950 . S
C73 C72 1.382 1_545 S
C73 C89 1.411 . S
C74 C72 1.408 . S
C74 C75 1.501 . S
C74 C88 1.393 1_565 S
C75 C74 1.501 . S
C75 C76 1.383 . S
C75 C80 1.382 . S
C76 H53 0.950 . S
C76 C75 1.383 . S
C76 C77 1.395 . S
C77 H54 0.950 . S
C77 C76 1.395 . S
C77 C78 1.288 . S
C78 C77 1.288 . S
C78 C79 1.392 . S
C79 H55 0.951 . S
C79 C78 1.392 . S
C79 C80 1.392 . S
C80 H56 0.949 . S
C80 C75 1.382 . S
C80 C79 1.392 . S
C81 C82 1.376 . S
C81 C86 1.386 . S
C81 C87 1.483 . S
C82 H57 0.949 . S
C82 C81 1.376 . S
C82 C83 1.397 . S
C83 H58 0.950 . S
C83 C82 1.397 . S
C83 C84 1.391 . S
C84 C83 1.391 . S
C84 C85 1.405 . S
C85 H59 0.950 . S
C85 C84 1.405 . S
C85 C86 1.367 . S
C86 H60 0.950 . S
C86 C81 1.386 . S
C86 C85 1.367 . S
C87 C81 1.483 . S
C87 C88 1.382 . S
C87 C89 1.403 . S
C88 H61 0.950 . S
C88 C74 1.393 1_545 S
C88 C87 1.382 . S
C89 C73 1.411 . S
C89 C87 1.403 . S
C89 C90 1.489 . S
C90 C89 1.489 . S
C90 C91 1.383 . S
C90 C95 1.382 . S
C91 H62 0.950 . S
C91 C90 1.383 . S
C91 C92 1.395 . S
C92 H63 0.950 . S
C92 C91 1.395 . S
C92 C93 1.288 . S
C93 C92 1.288 . S
C93 C94 1.392 . S
C94 H64 0.951 . S
C94 C93 1.392 . S
C94 C95 1.392 . S
C95 H65 0.949 . S
C95 C90 1.382 . S
C95 C94 1.392 . S
H96 C115 0.949 . S
H97 C116 0.950 . S
H98 C118 0.950 . S
H99 C119 0.950 . S
H100 C121 0.950 . S
H101 C124 0.950 . S
H102 C125 0.950 . S
H103 C127 0.951 . S
H104 C128 0.949 . S
H105 C130 0.949 . S
H106 C131 0.950 . S
H107 C133 0.950 . S
H108 C134 0.950 . S
H109 C136 0.950 . S
H110 C139 0.950 . S
H111 C140 0.950 . S
H112 C142 0.951 . S
H113 C143 0.949 . S
C114 C115 1.376 . S
C114 C119 1.386 . S
C114 C120 1.483 . S
C115 H96 0.949 . S
C115 C114 1.376 . S
C115 C116 1.397 . S
C116 H97 0.950 . S
C116 C115 1.397 . S
C116 C117 1.391 . S
C117 C116 1.391 . S
C117 C118 1.405 . S
C118 H98 0.950 . S
C118 C117 1.405 . S
C118 C119 1.367 . S
C119 H99 0.950 . S
C119 C114 1.386 . S
C119 C118 1.367 . S
C120 C114 1.483 . S
C120 C121 1.382 . S
C120 C122 1.403 . S
C121 H100 0.950 . S
C121 C120 1.382 . S
C121 C137 1.411 . S
C122 C120 1.403 . S
C122 C123 1.489 . S
C122 C136 1.411 . S
C123 C122 1.489 . S
C123 C124 1.383 . S
C123 C128 1.382 . S
C124 H101 0.950 . S
C124 C123 1.383 . S
C124 C125 1.395 . S
C125 H102 0.950 . S
C125 C124 1.395 . S
C125 C126 1.288 . S
C126 C125 1.288 . S
C126 C127 1.392 . S
C127 H103 0.951 . S
C127 C126 1.392 . S
C127 C128 1.392 . S
C128 H104 0.949 . S
C128 C123 1.382 . S
C128 C127 1.392 . S
C129 C130 1.376 . S
C129 C134 1.386 . S
C129 C135 1.483 . S
C130 H105 0.949 . S
C130 C129 1.376 . S
C130 C131 1.397 . S
C131 H106 0.950 . S
C131 C130 1.397 . S
C131 C132 1.391 . S
C132 C131 1.391 . S
C132 C133 1.405 . S
C133 H107 0.950 . S
C133 C132 1.405 . S
C133 C134 1.367 . S
C134 H108 0.950 . S
C134 C129 1.386 . S
C134 C133 1.367 . S
C135 C129 1.483 . S
C135 C136 1.382 . S
C135 C137 1.403 . S
C136 H109 0.950 . S
C136 C122 1.411 . S
C136 C135 1.382 . S
C137 C121 1.411 . S
C137 C135 1.403 . S
C137 C138 1.489 . S
C138 C137 1.489 . S
C138 C139 1.383 . S
C138 C143 1.382 . S
C139 H110 0.950 . S
C139 C138 1.383 . S
C139 C140 1.395 . S
C140 H111 0.950 . S
C140 C139 1.395 . S
C140 C141 1.288 . S
C141 C140 1.288 . S
C141 C142 1.392 . S
C142 H112 0.951 . S
C142 C141 1.392 . S
C142 C143 1.392 . S
C143 H113 0.949 . S
C143 C138 1.382 . S
C143 C142 1.392 . S
H144 C163 0.949 . S
H145 C164 0.950 . S
H146 C166 0.950 . S
H147 C167 0.950 . S
H148 C169 0.950 . S
H149 C172 0.950 . S
H150 C173 0.950 . S
H151 C175 0.951 . S
H152 C176 0.949 . S
H153 C178 0.949 . S
H154 C179 0.950 . S
H155 C181 0.950 . S
H156 C182 0.950 . S
H157 C184 0.950 . S
H158 C187 0.950 . S
H159 C188 0.950 . S
H160 C190 0.951 . S
H161 C191 0.949 . S
C162 C163 1.376 . S
C162 C167 1.386 . S
C162 C168 1.483 . S
C163 H144 0.949 . S
C163 C162 1.376 . S
C163 C164 1.397 . S
C164 H145 0.950 . S
C164 C163 1.397 . S
C164 C165 1.391 . S
C165 C164 1.391 . S
C165 C166 1.405 . S
C166 H146 0.950 . S
C166 C165 1.405 . S
C166 C167 1.367 . S
C167 H147 0.950 . S
C167 C162 1.386 . S
C167 C166 1.367 . S
C168 C162 1.483 . S
C168 C169 1.382 . S
C168 C170 1.403 . S
C169 H148 0.950 . S
C169 C168 1.382 . S
C169 C185 1.411 1_455 S
C170 C168 1.403 . S
C170 C171 1.489 . S
C170 C184 1.411 . S
C171 C170 1.489 . S
C171 C172 1.383 . S
C171 C176 1.382 . S
C172 H149 0.950 . S
C172 C171 1.383 . S
C172 C173 1.395 . S
C173 H150 0.950 . S
C173 C172 1.395 . S
C173 C174 1.288 . S
C174 C173 1.288 . S
C174 C175 1.392 . S
C175 H151 0.951 . S
C175 C174 1.392 . S
C175 C176 1.392 . S
C176 H152 0.949 . S
C176 C171 1.382 . S
C176 C175 1.392 . S
C177 C178 1.376 . S
C177 C182 1.386 . S
C177 C183 1.483 . S
C178 H153 0.949 . S
C178 C177 1.376 . S
C178 C179 1.397 . S
C179 H154 0.950 . S
C179 C178 1.397 . S
C179 C180 1.391 . S
C180 C179 1.391 . S
C180 C181 1.405 . S
C181 H155 0.950 . S
C181 C180 1.405 . S
C181 C182 1.367 . S
C182 H156 0.950 . S
C182 C177 1.386 . S
C182 C181 1.367 . S
C183 C177 1.483 . S
C183 C184 1.382 1_655 S
C183 C185 1.403 . S
C184 H157 0.950 . S
C184 C170 1.411 . S
C184 C183 1.382 1_455 S
C185 C169 1.411 1_655 S
C185 C183 1.403 . S
C185 C186 1.489 . S
C186 C185 1.489 . S
C186 C187 1.383 . S
C186 C191 1.382 . S
C187 H158 0.950 . S
C187 C186 1.383 . S
C187 C188 1.395 . S
C188 H159 0.950 . S
C188 C187 1.395 . S
C188 C189 1.288 . S
C189 C188 1.288 . S
C189 C190 1.392 . S
C190 H160 0.951 . S
C190 C189 1.392 . S
C190 C191 1.392 . S
C191 H161 0.949 . S
C191 C186 1.382 . S
C191 C190 1.392 . S
H192 C211 0.949 . S
H193 C212 0.950 . S
H194 C214 0.950 . S
H195 C215 0.950 1_556 S
H196 C217 0.950 . S
H197 C220 0.950 . S
H198 C221 0.950 . S
H199 C223 0.951 . S
H200 C224 0.949 . S
H201 C226 0.949 . S
H202 C227 0.950 . S
H203 C229 0.950 . S
H204 C230 0.979 . S
H205 C232 0.950 . S
H206 C235 0.950 . S
H207 C236 0.950 . S
H208 C238 0.951 . S
H209 C239 0.949 . S
C210 C211 1.376 . S
C210 C215 1.386 . S
C210 C216 1.484 1_554 S
C211 H192 0.949 . S
C211 C210 1.376 . S
C211 C212 1.397 . S
C212 H193 0.950 . S
C212 C211 1.397 . S
C212 C213 1.391 . S
C213 C212 1.391 . S
C213 C214 1.405 . S
C214 H194 0.950 . S
C214 C213 1.405 . S
C214 C215 1.367 . S
C215 H195 0.950 1_554 S
C215 C210 1.386 . S
C215 C214 1.367 . S
C216 C210 1.484 1_556 S
C216 C217 1.385 1_556 S
C216 C218 1.399 . S
C217 H196 0.950 . S
C217 C216 1.385 1_554 S
C217 C233 1.393 1_545 S
C218 C216 1.399 . S
C218 C219 1.489 . S
C218 C232 1.411 . S
C219 C218 1.489 . S
C219 C220 1.383 . S
C219 C224 1.382 . S
C220 H197 0.950 . S
C220 C219 1.383 . S
C220 C221 1.395 . S
C221 H198 0.950 . S
C221 C220 1.395 . S
C221 C222 1.288 . S
C222 C221 1.288 . S
C222 C223 1.392 . S
C223 H199 0.951 . S
C223 C222 1.392 . S
C223 C224 1.392 . S
C224 H200 0.949 . S
C224 C219 1.382 . S
C224 C223 1.392 . S
C225 C226 1.376 . S
C225 C230 1.386 . S
C225 C231 1.483 . S
C226 H201 0.949 . S
C226 C225 1.376 . S
C226 C227 1.397 . S
C227 H202 0.950 . S
C227 C226 1.397 . S
C227 C228 1.391 . S
C228 C227 1.391 . S
C228 C229 1.405 . S
C229 H203 0.950 . S
C229 C228 1.405 . S
C229 C230 1.367 . S
C230 H204 0.979 . S
C230 C225 1.386 . S
C230 C229 1.367 . S
C231 C225 1.483 . S
C231 C232 1.382 1_565 S
C231 C233 1.408 1_556 S
C232 H205 0.950 . S
C232 C218 1.411 . S
C232 C231 1.382 1_545 S
C233 C217 1.393 1_565 S
C233 C231 1.408 1_554 S
C233 C234 1.501 . S
C234 C233 1.501 . S
C234 C235 1.383 . S
C234 C239 1.382 . S
C235 H206 0.950 . S
C235 C234 1.383 . S
C235 C236 1.395 . S
C236 H207 0.950 . S
C236 C235 1.395 . S
C236 C237 1.288 . S
C237 C236 1.288 . S
C237 C238 1.392 . S
C238 H208 0.951 . S
C238 C237 1.392 . S
C238 C239 1.392 . S
C239 H209 0.949 . S
C239 C234 1.382 . S
C239 C238 1.392 . S
H240 C259 0.949 . S
H241 C260 0.950 . S
H242 C262 0.950 . S
H243 C263 0.950 . S
H244 C265 0.950 . S
H245 C268 0.950 . S
H246 C269 0.950 . S
H247 C271 0.951 . S
H248 C272 0.949 . S
H249 C274 0.949 . S
H250 C275 0.950 . S
H251 C277 0.950 . S
H252 C278 0.950 . S
H253 C280 0.950 . S
H254 C283 0.950 . S
H255 C284 0.950 . S
H256 C286 0.951 . S
H257 C287 0.949 . S
C258 C259 1.376 . S
C258 C263 1.386 . S
C258 C264 1.483 . S
C259 H240 0.949 . S
C259 C258 1.376 . S
C259 C260 1.397 . S
C260 H241 0.950 . S
C260 C259 1.397 . S
C260 C261 1.391 . S
C261 C260 1.391 . S
C261 C262 1.405 . S
C262 H242 0.950 . S
C262 C261 1.405 . S
C262 C263 1.367 . S
C263 H243 0.950 . S
C263 C258 1.386 . S
C263 C262 1.367 . S
C264 C258 1.483 . S
C264 C265 1.382 . S
C264 C266 1.403 . S
C265 H244 0.950 . S
C265 C264 1.382 . S
C265 C281 1.411 . S
C266 C264 1.403 . S
C266 C267 1.489 . S
C266 C280 1.411 . S
C267 C266 1.489 . S
C267 C268 1.383 . S
C267 C272 1.382 . S
C268 H245 0.950 . S
C268 C267 1.383 . S
C268 C269 1.395 . S
C269 H246 0.950 . S
C269 C268 1.395 . S
C269 C270 1.288 . S
C270 C269 1.288 . S
C270 C271 1.392 . S
C271 H247 0.951 . S
C271 C270 1.392 . S
C271 C272 1.392 . S
C272 H248 0.949 . S
C272 C267 1.382 . S
C272 C271 1.392 . S
C273 C274 1.376 . S
C273 C278 1.386 . S
C273 C279 1.483 . S
C274 H249 0.949 . S
C274 C273 1.376 . S
C274 C275 1.397 . S
C275 H250 0.950 . S
C275 C274 1.397 . S
C275 C276 1.391 . S
C276 C275 1.391 . S
C276 C277 1.405 . S
C277 H251 0.950 . S
C277 C276 1.405 . S
C277 C278 1.367 . S
C278 H252 0.950 . S
C278 C273 1.386 . S
C278 C277 1.367 . S
C279 C273 1.483 . S
C279 C280 1.382 . S
C279 C281 1.403 . S
C280 H253 0.950 . S
C280 C266 1.411 . S
C280 C279 1.382 . S
C281 C265 1.411 . S
C281 C279 1.403 . S
C281 C282 1.489 . S
C282 C281 1.489 . S
C282 C283 1.383 . S
C282 C287 1.382 . S
C283 H254 0.950 . S
C283 C282 1.383 . S
C283 C284 1.395 . S
C284 H255 0.950 . S
C284 C283 1.395 . S
C284 C285 1.288 . S
C285 C284 1.288 . S
C285 C286 1.392 . S
C286 H256 0.951 . S
C286 C285 1.392 . S
C286 C287 1.392 . S
C287 H257 0.949 . S
C287 C282 1.382 . S
C287 C286 1.392 . S
Li288 N305 1.990 . S
Li288 O348 1.956 . S
Li288 O349 1.970 . S
Li288 O350 1.961 . S
Li289 N313 1.990 . S
Li289 O348 1.970 . S
Li289 O349 1.956 . S
Li289 O351 1.961 . S
Li290 N335 1.990 . S
Li290 O348 1.961 . S
Li290 O350 1.956 . S
Li290 O351 1.970 . S
Li291 N341 1.990 . S
Li291 O349 1.961 . S
Li291 O350 1.970 . S
Li291 O351 1.956 . S
C292 C294 1.348 . S
C292 C295 1.356 . S
C292 O348 1.325 . S
N293 C296 1.314 . S
N293 C297 1.279 . S
C294 C292 1.348 . S
C294 C296 1.353 . S
C294 H352 0.929 . S
C295 C292 1.356 . S
C295 C297 1.358 . S
C295 H353 0.930 . S
C296 N293 1.314 . S
C296 C294 1.353 . S
C296 H354 0.930 . S
C297 N293 1.279 . S
C297 C295 1.358 . S
C297 H355 0.930 . S
C298 C301 1.348 . S
C298 C302 1.356 . S
C298 O349 1.325 . S
C299 N300 1.279 . S
C299 C302 1.358 . S
C299 H356 0.930 . S
N300 C299 1.279 . S
N300 C303 1.314 . S
C301 C298 1.348 . S
C301 C303 1.353 . S
C301 H357 0.929 . S
C302 C298 1.356 . S
C302 C299 1.358 . S
C302 H358 0.930 . S
C303 N300 1.314 . S
C303 C301 1.353 . S
C303 H359 0.930 . S
C304 N305 1.314 . S
C304 C309 1.353 . S
C304 H310 0.930 . S
N305 Li288 1.990 . S
N305 C304 1.314 . S
N305 C307 1.279 . S
C306 C307 1.358 . S
C306 C308 1.356 . S
C306 H360 0.930 . S
C307 N305 1.279 . S
C307 C306 1.358 . S
C307 H311 0.930 . S
C308 C306 1.356 . S
C308 C309 1.348 . S
C309 C304 1.353 . S
C309 C308 1.348 . S
C309 H361 0.929 . S
H310 C304 0.930 . S
H311 C307 0.930 . S
C312 N313 1.314 . S
C312 C314 1.353 . S
C312 H318 0.930 . S
N313 Li289 1.990 . S
N313 C312 1.314 . S
N313 C316 1.279 . S
C314 C312 1.353 . S
C314 C317 1.348 . S
C314 H362 0.929 . S
C315 C316 1.358 . S
C315 C317 1.356 . S
C315 H363 0.930 . S
C316 N313 1.279 . S
C316 C315 1.358 . S
C316 H319 0.930 . S
C317 C314 1.348 . S
C317 C315 1.356 . S
H318 C312 0.930 . S
H319 C316 0.930 . S
C320 C322 1.348 . S
C320 C323 1.356 . S
C320 O350 1.325 . S
N321 C324 1.314 . S
N321 C325 1.279 . S
C322 C320 1.348 . S
C322 C324 1.353 . S
C322 H364 0.929 . S
C323 C320 1.356 . S
C323 C325 1.358 . S
C323 H365 0.930 . S
C324 N321 1.314 . S
C324 C322 1.353 . S
C324 H366 0.930 . S
C325 N321 1.279 . S
C325 C323 1.358 . S
C325 H367 0.930 . S
C326 C327 1.348 . S
C326 C328 1.356 . S
C326 O351 1.325 . S
C327 C326 1.348 . S
C327 C329 1.353 . S
C327 H368 0.929 . S
C328 C326 1.356 . S
C328 C330 1.358 . S
C328 H369 0.930 . S
C329 C327 1.353 . S
C329 N331 1.314 . S
C329 H370 0.930 . S
C330 C328 1.358 . S
C330 N331 1.279 . S
C330 H371 0.930 . S
N331 C329 1.314 . S
N331 C330 1.279 . S
C332 C334 1.353 . S
C332 N335 1.314 . S
C332 H338 0.930 . S
C333 N335 1.279 . S
C333 C336 1.358 . S
C333 H339 0.930 . S
C334 C332 1.353 . S
C334 C337 1.348 . S
C334 H372 0.929 . S
N335 Li290 1.990 . S
N335 C332 1.314 . S
N335 C333 1.279 . S
C336 C333 1.358 . S
C336 C337 1.356 . S
C336 H373 0.930 . S
C337 C334 1.348 . S
C337 C336 1.356 . S
H338 C332 0.930 . S
H339 C333 0.930 . S
C340 N341 1.314 . S
C340 C342 1.353 . S
C340 H346 0.930 . S
N341 Li291 1.990 . S
N341 C340 1.314 . S
N341 C344 1.279 . S
C342 C340 1.353 . S
C342 C345 1.348 . S
C342 H374 0.929 . S
C343 C344 1.358 . S
C343 C345 1.356 . S
C343 H375 0.930 . S
C344 N341 1.279 . S
C344 C343 1.358 . S
C344 H347 0.930 . S
C345 C342 1.348 . S
C345 C343 1.356 . S
H346 C340 0.930 . S
H347 C344 0.930 . S
O348 Li288 1.956 . S
O348 Li289 1.970 . S
O348 Li290 1.961 . S
O348 C292 1.325 . S
O349 Li288 1.970 . S
O349 Li289 1.956 . S
O349 Li291 1.961 . S
O349 C298 1.325 . S
O350 Li288 1.961 . S
O350 Li290 1.956 . S
O350 Li291 1.970 . S
O350 C320 1.325 . S
O351 Li289 1.961 . S
O351 Li290 1.970 . S
O351 Li291 1.956 . S
O351 C326 1.325 . S
H352 C294 0.929 . S
H353 C295 0.930 . S
H354 C296 0.930 . S
H355 C297 0.930 . S
H356 C299 0.930 . S
H357 C301 0.929 . S
H358 C302 0.930 . S
H359 C303 0.930 . S
H360 C306 0.930 . S
H361 C309 0.929 . S
H362 C314 0.929 . S
H363 C315 0.930 . S
H364 C322 0.929 . S
H365 C323 0.930 . S
H366 C324 0.930 . S
H367 C325 0.930 . S
H368 C327 0.929 . S
H369 C328 0.930 . S
H370 C329 0.930 . S
H371 C330 0.930 . S
H372 C334 0.929 . S
H373 C336 0.930 . S
H374 C342 0.929 . S
H375 C343 0.930 . S
Li376 N393 1.990 . S
Li376 O436 1.956 . S
Li376 O437 1.970 . S
Li376 O438 1.961 . S
Li377 N401 1.990 . S
Li377 O436 1.970 . S
Li377 O437 1.956 . S
Li377 O439 1.961 . S
Li378 N423 1.990 . S
Li378 O436 1.961 . S
Li378 O438 1.956 . S
Li378 O439 1.970 . S
Li379 N429 1.990 . S
Li379 O437 1.961 . S
Li379 O438 1.970 . S
Li379 O439 1.956 . S
C380 C382 1.348 . S
C380 C383 1.356 . S
C380 O436 1.325 . S
N381 C384 1.314 . S
N381 C385 1.279 . S
C382 C380 1.348 . S
C382 C384 1.353 . S
C382 H440 0.929 . S
C383 C380 1.356 . S
C383 C385 1.358 . S
C383 H441 0.930 . S
C384 N381 1.314 . S
C384 C382 1.353 . S
C384 H442 0.930 . S
C385 N381 1.279 . S
C385 C383 1.358 . S
C385 H443 0.930 . S
C386 C389 1.348 . S
C386 C390 1.356 . S
C386 O437 1.325 . S
C387 N388 1.279 . S
C387 C390 1.358 . S
C387 H444 0.930 . S
N388 C387 1.279 . S
N388 C391 1.314 . S
C389 C386 1.348 . S
C389 C391 1.353 . S
C389 H445 0.929 . S
C390 C386 1.356 . S
C390 C387 1.358 . S
C390 H446 0.930 . S
C391 N388 1.314 . S
C391 C389 1.353 . S
C391 H447 0.930 . S
C392 N393 1.314 . S
C392 C397 1.353 . S
C392 H398 0.930 . S
N393 Li376 1.990 . S
N393 C392 1.314 . S
N393 C395 1.279 . S
C394 C395 1.358 . S
C394 C396 1.356 . S
C394 H448 0.930 . S
C395 N393 1.279 . S
C395 C394 1.358 . S
C395 H399 0.930 . S
C396 C394 1.356 . S
C396 C397 1.348 . S
C397 C392 1.353 . S
C397 C396 1.348 . S
C397 H449 0.929 . S
H398 C392 0.930 . S
H399 C395 0.930 . S
C400 N401 1.314 . S
C400 C402 1.353 . S
C400 H406 0.930 . S
N401 Li377 1.990 . S
N401 C400 1.314 . S
N401 C404 1.279 . S
C402 C400 1.353 . S
C402 C405 1.348 . S
C402 H450 0.929 . S
C403 C404 1.358 . S
C403 C405 1.356 . S
C403 H451 0.930 . S
C404 N401 1.279 . S
C404 C403 1.358 . S
C404 H407 0.930 . S
C405 C402 1.348 . S
C405 C403 1.356 . S
H406 C400 0.930 . S
H407 C404 0.930 . S
C408 C410 1.348 . S
C408 C411 1.356 . S
C408 O438 1.325 . S
N409 C412 1.314 . S
N409 C413 1.279 . S
C410 C408 1.348 . S
C410 C412 1.353 . S
C410 H452 0.929 . S
C411 C408 1.356 . S
C411 C413 1.358 . S
C411 H453 0.930 . S
C412 N409 1.314 . S
C412 C410 1.353 . S
C412 H454 0.930 . S
C413 N409 1.279 . S
C413 C411 1.358 . S
C413 H455 0.930 . S
C414 C415 1.348 . S
C414 C416 1.356 . S
C414 O439 1.325 . S
C415 C414 1.348 . S
C415 C417 1.353 . S
C415 H456 0.929 . S
C416 C414 1.356 . S
C416 C418 1.358 . S
C416 H457 0.930 . S
C417 C415 1.353 . S
C417 N419 1.314 . S
C417 H458 0.930 . S
C418 C416 1.358 . S
C418 N419 1.279 . S
C418 H459 0.930 . S
N419 C417 1.314 . S
N419 C418 1.279 . S
C420 C422 1.353 . S
C420 N423 1.314 . S
C420 H426 0.930 . S
C421 N423 1.279 . S
C421 C424 1.358 . S
C421 H427 0.930 . S
C422 C420 1.353 . S
C422 C425 1.348 . S
C422 H460 0.929 . S
N423 Li378 1.990 . S
N423 C420 1.314 . S
N423 C421 1.279 . S
C424 C421 1.358 . S
C424 C425 1.356 . S
C424 H461 0.930 . S
C425 C422 1.348 . S
C425 C424 1.356 . S
H426 C420 0.930 . S
H427 C421 0.930 . S
C428 N429 1.314 . S
C428 C430 1.353 . S
C428 H434 0.930 . S
N429 Li379 1.990 . S
N429 C428 1.314 . S
N429 C432 1.279 . S
C430 C428 1.353 . S
C430 C433 1.348 . S
C430 H462 0.929 . S
C431 C432 1.358 . S
C431 C433 1.356 . S
C431 H463 0.930 . S
C432 N429 1.279 . S
C432 C431 1.358 . S
C432 H435 0.930 . S
C433 C430 1.348 . S
C433 C431 1.356 . S
H434 C428 0.930 . S
H435 C432 0.930 . S
O436 Li376 1.956 . S
O436 Li377 1.970 . S
O436 Li378 1.961 . S
O436 C380 1.325 . S
O437 Li376 1.970 . S
O437 Li377 1.956 . S
O437 Li379 1.961 . S
O437 C386 1.325 . S
O438 Li376 1.961 . S
O438 Li378 1.956 . S
O438 Li379 1.970 . S
O438 C408 1.325 . S
O439 Li377 1.961 . S
O439 Li378 1.970 . S
O439 Li379 1.956 . S
O439 C414 1.325 . S
H440 C382 0.929 . S
H441 C383 0.930 . S
H442 C384 0.930 . S
H443 C385 0.930 . S
H444 C387 0.930 . S
H445 C389 0.929 . S
H446 C390 0.930 . S
H447 C391 0.930 . S
H448 C394 0.930 . S
H449 C397 0.929 . S
H450 C402 0.929 . S
H451 C403 0.930 . S
H452 C410 0.929 . S
H453 C411 0.930 . S
H454 C412 0.930 . S
H455 C413 0.930 . S
H456 C415 0.929 . S
H457 C416 0.930 . S
H458 C417 0.930 . S
H459 C418 0.930 . S
H460 C422 0.929 . S
H461 C424 0.930 . S
H462 C430 0.929 . S
H463 C431 0.930 . S
Li464 N481 1.990 . S
Li464 O524 1.956 . S
Li464 O525 1.970 . S
Li464 O526 1.961 . S
Li465 N489 1.990 . S
Li465 O524 1.970 . S
Li465 O525 1.956 . S
Li465 O527 1.961 . S
Li466 N511 1.990 . S
Li466 O524 1.961 . S
Li466 O526 1.956 . S
Li466 O527 1.970 . S
Li467 N517 1.990 . S
Li467 O525 1.961 . S
Li467 O526 1.970 . S
Li467 O527 1.956 . S
C468 C470 1.348 . S
C468 C471 1.356 . S
C468 O524 1.325 . S
N469 C472 1.314 . S
N469 C473 1.279 . S
C470 C468 1.348 . S
C470 C472 1.353 . S
C470 H528 0.929 . S
C471 C468 1.356 . S
C471 C473 1.358 . S
C471 H529 0.930 . S
C472 N469 1.314 . S
C472 C470 1.353 . S
C472 H530 0.930 . S
C473 N469 1.279 . S
C473 C471 1.358 . S
C473 H531 0.930 . S
C474 C477 1.348 . S
C474 C478 1.356 . S
C474 O525 1.325 . S
C475 N476 1.279 . S
C475 C478 1.358 . S
C475 H532 0.930 . S
N476 C475 1.279 . S
N476 C479 1.314 . S
C477 C474 1.348 . S
C477 C479 1.353 . S
C477 H533 0.929 . S
C478 C474 1.356 . S
C478 C475 1.358 . S
C478 H534 0.930 . S
C479 N476 1.314 . S
C479 C477 1.353 . S
C479 H535 0.930 . S
C480 N481 1.314 . S
C480 C485 1.353 . S
C480 H486 0.930 . S
N481 Li464 1.990 . S
N481 C480 1.314 . S
N481 C483 1.279 . S
C482 C483 1.358 . S
C482 C484 1.356 . S
C482 H536 0.930 . S
C483 N481 1.279 . S
C483 C482 1.358 . S
C483 H487 0.930 . S
C484 C482 1.356 . S
C484 C485 1.348 . S
C485 C480 1.353 . S
C485 C484 1.348 . S
C485 H537 0.929 . S
H486 C480 0.930 . S
H487 C483 0.930 . S
C488 N489 1.314 . S
C488 C490 1.353 . S
C488 H494 0.930 . S
N489 Li465 1.990 . S
N489 C488 1.314 . S
N489 C492 1.279 . S
C490 C488 1.353 . S
C490 C493 1.348 . S
C490 H538 0.929 . S
C491 C492 1.358 . S
C491 C493 1.356 . S
C491 H539 0.930 . S
C492 N489 1.279 . S
C492 C491 1.358 . S
C492 H495 0.930 . S
C493 C490 1.348 . S
C493 C491 1.356 . S
H494 C488 0.930 . S
H495 C492 0.930 . S
C496 C498 1.348 . S
C496 C499 1.356 . S
C496 O526 1.325 . S
N497 C500 1.314 . S
N497 C501 1.279 . S
C498 C496 1.348 . S
C498 C500 1.353 . S
C498 H540 0.929 . S
C499 C496 1.356 . S
C499 C501 1.358 . S
C499 H541 0.930 . S
C500 N497 1.314 . S
C500 C498 1.353 . S
C500 H542 0.930 . S
C501 N497 1.279 . S
C501 C499 1.358 . S
C501 H543 0.930 . S
C502 C503 1.348 . S
C502 C504 1.356 . S
C502 O527 1.325 . S
C503 C502 1.348 . S
C503 C505 1.353 . S
C503 H544 0.929 . S
C504 C502 1.356 . S
C504 C506 1.358 . S
C504 H545 0.930 . S
C505 C503 1.353 . S
C505 N507 1.314 . S
C505 H546 0.930 . S
C506 C504 1.358 . S
C506 N507 1.279 . S
C506 H547 0.930 . S
N507 C505 1.314 . S
N507 C506 1.279 . S
C508 C510 1.353 . S
C508 N511 1.314 . S
C508 H514 0.930 . S
C509 N511 1.279 . S
C509 C512 1.358 . S
C509 H515 0.930 . S
C510 C508 1.353 . S
C510 C513 1.348 . S
C510 H548 0.929 . S
N511 Li466 1.990 . S
N511 C508 1.314 . S
N511 C509 1.279 . S
C512 C509 1.358 . S
C512 C513 1.356 . S
C512 H549 0.930 . S
C513 C510 1.348 . S
C513 C512 1.356 . S
H514 C508 0.930 . S
H515 C509 0.930 . S
C516 N517 1.314 . S
C516 C518 1.353 . S
C516 H522 0.930 . S
N517 Li467 1.990 . S
N517 C516 1.314 . S
N517 C520 1.279 . S
C518 C516 1.353 . S
C518 C521 1.348 . S
C518 H550 0.929 . S
C519 C520 1.358 . S
C519 C521 1.356 . S
C519 H551 0.930 . S
C520 N517 1.279 . S
C520 C519 1.358 . S
C520 H523 0.930 . S
C521 C518 1.348 . S
C521 C519 1.356 . S
H522 C516 0.930 . S
H523 C520 0.930 . S
O524 Li464 1.956 . S
O524 Li465 1.970 . S
O524 Li466 1.961 . S
O524 C468 1.325 . S
O525 Li464 1.970 . S
O525 Li465 1.956 . S
O525 Li467 1.961 . S
O525 C474 1.325 . S
O526 Li464 1.961 . S
O526 Li466 1.956 . S
O526 Li467 1.970 . S
O526 C496 1.325 . S
O527 Li465 1.961 . S
O527 Li466 1.970 . S
O527 Li467 1.956 . S
O527 C502 1.325 . S
H528 C470 0.929 . S
H529 C471 0.930 . S
H530 C472 0.930 . S
H531 C473 0.930 . S
H532 C475 0.930 . S
H533 C477 0.929 . S
H534 C478 0.930 . S
H535 C479 0.930 . S
H536 C482 0.930 . S
H537 C485 0.929 . S
H538 C490 0.929 . S
H539 C491 0.930 . S
H540 C498 0.929 . S
H541 C499 0.930 . S
H542 C500 0.930 . S
H543 C501 0.930 . S
H544 C503 0.929 . S
H545 C504 0.930 . S
H546 C505 0.930 . S
H547 C506 0.930 . S
H548 C510 0.929 . S
H549 C512 0.930 . S
H550 C518 0.929 . S
H551 C519 0.930 . S
Li552 N569 1.990 . S
Li552 O612 1.956 . S
Li552 O613 1.970 . S
Li552 O614 1.961 . S
Li553 N577 1.990 . S
Li553 O612 1.970 . S
Li553 O613 1.956 . S
Li553 O615 1.961 . S
Li554 N599 1.990 . S
Li554 O612 1.961 . S
Li554 O614 1.956 . S
Li554 O615 1.970 . S
Li555 N605 1.990 . S
Li555 O613 1.961 . S
Li555 O614 1.970 . S
Li555 O615 1.956 . S
C556 C558 1.348 . S
C556 C559 1.356 . S
C556 O612 1.325 . S
N557 C560 1.314 . S
N557 C561 1.279 . S
C558 C556 1.348 . S
C558 C560 1.353 . S
C558 H616 0.929 . S
C559 C556 1.356 . S
C559 C561 1.358 . S
C559 H617 0.930 . S
C560 N557 1.314 . S
C560 C558 1.353 . S
C560 H618 0.930 . S
C561 N557 1.279 . S
C561 C559 1.358 . S
C561 H619 0.930 . S
C562 C565 1.348 . S
C562 C566 1.356 . S
C562 O613 1.325 . S
C563 N564 1.279 . S
C563 C566 1.358 . S
C563 H620 0.930 . S
N564 C563 1.279 . S
N564 C567 1.314 . S
C565 C562 1.348 . S
C565 C567 1.353 . S
C565 H621 0.929 . S
C566 C562 1.356 . S
C566 C563 1.358 . S
C566 H622 0.930 . S
C567 N564 1.314 . S
C567 C565 1.353 . S
C567 H623 0.930 . S
C568 N569 1.314 . S
C568 C573 1.353 . S
C568 H574 0.930 . S
N569 Li552 1.990 . S
N569 C568 1.314 . S
N569 C571 1.279 . S
C570 C571 1.358 . S
C570 C572 1.356 . S
C570 H624 0.930 1_556 S
C571 N569 1.279 . S
C571 C570 1.358 . S
C571 H575 0.930 . S
C572 C570 1.356 . S
C572 C573 1.348 . S
C573 C568 1.353 . S
C573 C572 1.348 . S
C573 H625 0.929 . S
H574 C568 0.930 . S
H575 C571 0.930 . S
C576 N577 1.314 . S
C576 C578 1.353 . S
C576 H582 0.930 . S
N577 Li553 1.990 . S
N577 C576 1.314 . S
N577 C580 1.279 . S
C578 C576 1.353 . S
C578 C581 1.348 . S
C578 H626 0.929 . S
C579 C580 1.358 . S
C579 C581 1.356 . S
C579 H627 0.930 . S
C580 N577 1.279 . S
C580 C579 1.358 . S
C580 H583 0.930 . S
C581 C578 1.348 . S
C581 C579 1.356 . S
H582 C576 0.930 . S
H583 C580 0.930 . S
C584 C586 1.348 . S
C584 C587 1.356 . S
C584 O614 1.325 . S
N585 C588 1.314 . S
N585 C589 1.279 . S
C586 C584 1.348 . S
C586 C588 1.353 . S
C586 H628 0.929 . S
C587 C584 1.356 . S
C587 C589 1.358 . S
C587 H629 0.930 . S
C588 N585 1.314 . S
C588 C586 1.353 . S
C588 H630 0.930 . S
C589 N585 1.279 . S
C589 C587 1.358 . S
C589 H631 0.930 . S
C590 C591 1.348 . S
C590 C592 1.356 . S
C590 O615 1.325 . S
C591 C590 1.348 . S
C591 C593 1.353 . S
C591 H632 0.929 . S
C592 C590 1.356 . S
C592 C594 1.358 . S
C592 H633 0.930 . S
C593 C591 1.353 . S
C593 N595 1.314 . S
C593 H634 0.930 . S
C594 C592 1.358 . S
C594 N595 1.279 . S
C594 H635 0.930 . S
N595 C593 1.314 . S
N595 C594 1.279 . S
C596 C598 1.353 . S
C596 N599 1.314 . S
C596 H602 0.930 . S
C597 N599 1.279 . S
C597 C600 1.358 . S
C597 H603 0.930 . S
C598 C596 1.353 . S
C598 C601 1.348 . S
C598 H636 0.929 . S
N599 Li554 1.990 . S
N599 C596 1.314 . S
N599 C597 1.279 . S
C600 C597 1.358 . S
C600 C601 1.356 . S
C600 H637 0.930 . S
C601 C598 1.348 . S
C601 C600 1.356 . S
H602 C596 0.930 . S
H603 C597 0.930 . S
C604 N605 1.314 . S
C604 C606 1.353 . S
C604 H610 0.930 . S
N605 Li555 1.990 . S
N605 C604 1.314 . S
N605 C608 1.279 . S
C606 C604 1.353 . S
C606 C609 1.348 . S
C606 H638 0.929 . S
C607 C608 1.358 . S
C607 C609 1.356 . S
C607 H639 0.930 . S
C608 N605 1.279 . S
C608 C607 1.358 . S
C608 H611 0.930 . S
C609 C606 1.348 . S
C609 C607 1.356 . S
H610 C604 0.930 . S
H611 C608 0.930 . S
O612 Li552 1.956 . S
O612 Li553 1.970 . S
O612 Li554 1.961 . S
O612 C556 1.325 . S
O613 Li552 1.970 . S
O613 Li553 1.956 . S
O613 Li555 1.961 . S
O613 C562 1.325 . S
O614 Li552 1.961 . S
O614 Li554 1.956 . S
O614 Li555 1.970 . S
O614 C584 1.325 . S
O615 Li553 1.961 . S
O615 Li554 1.970 . S
O615 Li555 1.956 . S
O615 C590 1.325 . S
H616 C558 0.929 . S
H617 C559 0.930 . S
H618 C560 0.930 . S
H619 C561 0.930 . S
H620 C563 0.930 . S
H621 C565 0.929 . S
H622 C566 0.930 . S
H623 C567 0.930 . S
H624 C570 0.930 1_554 S
H625 C573 0.929 . S
H626 C578 0.929 . S
H627 C579 0.930 . S
H628 C586 0.929 . S
H629 C587 0.930 . S
H630 C588 0.930 . S
H631 C589 0.930 . S
H632 C591 0.929 . S
H633 C592 0.930 . S
H634 C593 0.930 . S
H635 C594 0.930 . S
H636 C598 0.929 . S
H637 C600 0.930 . S
H638 C606 0.929 . S
H639 C607 0.930 . S
Li640 N657 1.990 . S
Li640 O700 1.956 . S
Li640 O701 1.970 . S
Li640 O702 1.961 . S
Li641 N665 1.990 . S
Li641 O700 1.970 . S
Li641 O701 1.956 . S
Li641 O703 1.961 . S
Li642 N687 1.990 . S
Li642 O700 1.961 . S
Li642 O702 1.956 . S
Li642 O703 1.970 . S
Li643 N693 1.990 . S
Li643 O701 1.961 . S
Li643 O702 1.970 . S
Li643 O703 1.956 . S
C644 C646 1.348 . S
C644 C647 1.356 . S
C644 O700 1.325 . S
N645 C648 1.314 . S
N645 C649 1.279 . S
C646 C644 1.348 . S
C646 C648 1.353 . S
C646 H704 0.929 . S
C647 C644 1.356 . S
C647 C649 1.358 . S
C647 H705 0.930 . S
C648 N645 1.314 . S
C648 C646 1.353 . S
C648 H706 0.930 . S
C649 N645 1.279 . S
C649 C647 1.358 . S
C649 H707 0.930 . S
C650 C653 1.348 . S
C650 C654 1.356 . S
C650 O701 1.325 . S
C651 N652 1.279 . S
C651 C654 1.358 . S
C651 H708 0.930 . S
N652 C651 1.279 . S
N652 C655 1.314 . S
C653 C650 1.348 . S
C653 C655 1.353 . S
C653 H709 0.929 . S
C654 C650 1.356 . S
C654 C651 1.358 . S
C654 H710 0.930 . S
C655 N652 1.314 . S
C655 C653 1.353 . S
C655 H711 0.930 . S
C656 N657 1.314 . S
C656 C661 1.353 . S
C656 H662 0.930 . S
N657 Li640 1.990 . S
N657 C656 1.314 . S
N657 C659 1.279 . S
C658 C659 1.358 . S
C658 C660 1.356 . S
C658 H712 0.930 . S
C659 N657 1.279 . S
C659 C658 1.358 . S
C659 H663 0.930 . S
C660 C658 1.356 . S
C660 C661 1.348 . S
C661 C656 1.353 . S
C661 C660 1.348 . S
C661 H713 0.929 . S
H662 C656 0.930 . S
H663 C659 0.930 . S
C664 N665 1.314 . S
C664 C666 1.353 . S
C664 H670 0.930 . S
N665 Li641 1.990 . S
N665 C664 1.314 . S
N665 C668 1.279 . S
C666 C664 1.353 . S
C666 C669 1.348 . S
C666 H714 0.929 . S
C667 C668 1.358 . S
C667 C669 1.356 . S
C667 H715 0.930 . S
C668 N665 1.279 . S
C668 C667 1.358 . S
C668 H671 0.930 . S
C669 C666 1.348 . S
C669 C667 1.356 . S
H670 C664 0.930 . S
H671 C668 0.930 . S
C672 C674 1.348 . S
C672 C675 1.356 . S
C672 O702 1.325 . S
N673 C676 1.314 . S
N673 C677 1.279 . S
C674 C672 1.348 . S
C674 C676 1.353 . S
C674 H716 0.929 . S
C675 C672 1.356 . S
C675 C677 1.358 . S
C675 H717 0.930 . S
C676 N673 1.314 . S
C676 C674 1.353 . S
C676 H718 0.930 . S
C677 N673 1.279 . S
C677 C675 1.358 . S
C677 H719 0.930 . S
C678 C679 1.348 . S
C678 C680 1.356 . S
C678 O703 1.325 . S
C679 C678 1.348 . S
C679 C681 1.353 . S
C679 H720 0.929 . S
C680 C678 1.356 . S
C680 C682 1.358 . S
C680 H721 0.930 . S
C681 C679 1.353 . S
C681 N683 1.314 . S
C681 H722 0.930 . S
C682 C680 1.358 . S
C682 N683 1.279 . S
C682 H723 0.930 . S
N683 C681 1.314 . S
N683 C682 1.279 . S
C684 C686 1.353 . S
C684 N687 1.314 . S
C684 H690 0.930 . S
C685 N687 1.279 . S
C685 C688 1.358 1_554 S
C685 H691 0.930 . S
C686 C684 1.353 . S
C686 C689 1.348 1_554 S
C686 H724 0.929 . S
N687 Li642 1.990 . S
N687 C684 1.314 . S
N687 C685 1.279 . S
C688 C685 1.358 1_556 S
C688 C689 1.356 . S
C688 H725 0.930 . S
C689 C686 1.348 1_556 S
C689 C688 1.356 . S
H690 C684 0.930 . S
H691 C685 0.930 . S
C692 N693 1.314 . S
C692 C694 1.353 . S
C692 H698 0.930 . S
N693 Li643 1.990 . S
N693 C692 1.314 . S
N693 C696 1.279 . S
C694 C692 1.353 . S
C694 C697 1.348 . S
C694 H726 0.929 . S
C695 C696 1.358 . S
C695 C697 1.356 . S
C695 H727 0.930 . S
C696 N693 1.279 . S
C696 C695 1.358 . S
C696 H699 0.930 . S
C697 C694 1.348 . S
C697 C695 1.356 . S
H698 C692 0.930 . S
H699 C696 0.930 . S
O700 Li640 1.956 . S
O700 Li641 1.970 . S
O700 Li642 1.961 . S
O700 C644 1.325 . S
O701 Li640 1.970 . S
O701 Li641 1.956 . S
O701 Li643 1.961 . S
O701 C650 1.325 . S
O702 Li640 1.961 . S
O702 Li642 1.956 . S
O702 Li643 1.970 . S
O702 C672 1.325 . S
O703 Li641 1.961 . S
O703 Li642 1.970 . S
O703 Li643 1.956 . S
O703 C678 1.325 . S
H704 C646 0.929 . S
H705 C647 0.930 . S
H706 C648 0.930 . S
H707 C649 0.930 . S
H708 C651 0.930 . S
H709 C653 0.929 . S
H710 C654 0.930 . S
H711 C655 0.930 . S
H712 C658 0.930 . S
H713 C661 0.929 . S
H714 C666 0.929 . S
H715 C667 0.930 . S
H716 C674 0.929 . S
H717 C675 0.930 . S
H718 C676 0.930 . S
H719 C677 0.930 . S
H720 C679 0.929 . S
H721 C680 0.930 . S
H722 C681 0.930 . S
H723 C682 0.930 . S
H724 C686 0.929 . S
H725 C688 0.930 . S
H726 C694 0.929 . S
H727 C695 0.930 . S
Li728 N745 1.990 . S
Li728 O788 1.956 . S
Li728 O789 1.970 . S
Li728 O790 1.961 . S
Li729 N753 1.990 . S
Li729 O788 1.970 . S
Li729 O789 1.956 . S
Li729 O791 1.961 . S
Li730 N775 1.990 . S
Li730 O788 1.961 . S
Li730 O790 1.956 . S
Li730 O791 1.970 . S
Li731 N781 1.990 . S
Li731 O789 1.961 . S
Li731 O790 1.970 . S
Li731 O791 1.956 . S
C732 C734 1.348 . S
C732 C735 1.356 . S
C732 O788 1.325 . S
N733 C736 1.314 . S
N733 C737 1.279 . S
C734 C732 1.348 . S
C734 C736 1.353 . S
C734 H792 0.929 . S
C735 C732 1.356 . S
C735 C737 1.358 . S
C735 H793 0.930 . S
C736 N733 1.314 . S
C736 C734 1.353 . S
C736 H794 0.930 . S
C737 N733 1.279 . S
C737 C735 1.358 . S
C737 H795 0.930 . S
C738 C741 1.348 . S
C738 C742 1.356 . S
C738 O789 1.325 . S
C739 N740 1.279 . S
C739 C742 1.358 . S
C739 H796 0.930 . S
N740 C739 1.279 . S
N740 C743 1.314 . S
C741 C738 1.348 . S
C741 C743 1.353 . S
C741 H797 0.929 . S
C742 C738 1.356 . S
C742 C739 1.358 . S
C742 H798 0.930 . S
C743 N740 1.314 . S
C743 C741 1.353 . S
C743 H799 0.930 . S
C744 N745 1.314 . S
C744 C749 1.353 . S
C744 H750 0.930 . S
N745 Li728 1.990 . S
N745 C744 1.314 . S
N745 C747 1.279 . S
C746 C747 1.358 . S
C746 C748 1.356 . S
C746 H800 0.930 . S
C747 N745 1.279 . S
C747 C746 1.358 . S
C747 H751 0.930 . S
C748 C746 1.356 . S
C748 C749 1.348 . S
C749 C744 1.353 . S
C749 C748 1.348 . S
C749 H801 0.929 . S
H750 C744 0.930 . S
H751 C747 0.930 . S
C752 N753 1.314 . S
C752 C754 1.353 . S
C752 H758 0.930 . S
N753 Li729 1.990 . S
N753 C752 1.314 . S
N753 C756 1.279 . S
C754 C752 1.353 . S
C754 C757 1.348 . S
C754 H802 0.929 . S
C755 C756 1.358 . S
C755 C757 1.356 . S
C755 H803 0.930 . S
C756 N753 1.279 . S
C756 C755 1.358 . S
C756 H759 0.930 . S
C757 C754 1.348 . S
C757 C755 1.356 . S
H758 C752 0.930 . S
H759 C756 0.930 . S
C760 C762 1.348 . S
C760 C763 1.356 . S
C760 O790 1.325 . S
N761 C764 1.314 . S
N761 C765 1.279 . S
C762 C760 1.348 . S
C762 C764 1.353 . S
C762 H804 0.929 . S
C763 C760 1.356 . S
C763 C765 1.358 . S
C763 H805 0.930 . S
C764 N761 1.314 . S
C764 C762 1.353 . S
C764 H806 0.930 . S
C765 N761 1.279 . S
C765 C763 1.358 . S
C765 H807 0.930 . S
C766 C767 1.348 . S
C766 C768 1.356 . S
C766 O791 1.325 . S
C767 C766 1.348 . S
C767 C769 1.353 . S
C767 H808 0.929 . S
C768 C766 1.356 . S
C768 C770 1.358 . S
C768 H809 0.930 . S
C769 C767 1.353 . S
C769 N771 1.314 . S
C769 H810 0.930 . S
C770 C768 1.358 . S
C770 N771 1.279 . S
C770 H811 0.930 . S
N771 C769 1.314 . S
N771 C770 1.279 . S
C772 C774 1.353 . S
C772 N775 1.314 . S
C772 H778 0.930 . S
C773 N775 1.279 . S
C773 C776 1.358 . S
C773 H779 0.930 . S
C774 C772 1.353 . S
C774 C777 1.348 . S
C774 H812 0.929 . S
N775 Li730 1.990 . S
N775 C772 1.314 . S
N775 C773 1.279 . S
C776 C773 1.358 . S
C776 C777 1.356 . S
C776 H813 0.930 . S
C777 C774 1.348 . S
C777 C776 1.356 . S
H778 C772 0.930 . S
H779 C773 0.930 . S
C780 N781 1.314 . S
C780 C782 1.353 . S
C780 H786 0.930 . S
N781 Li731 1.990 . S
N781 C780 1.314 . S
N781 C784 1.279 . S
C782 C780 1.353 . S
C782 C785 1.348 . S
C782 H814 0.929 . S
C783 C784 1.358 . S
C783 C785 1.356 . S
C783 H815 0.930 . S
C784 N781 1.279 . S
C784 C783 1.358 . S
C784 H787 0.930 . S
C785 C782 1.348 . S
C785 C783 1.356 . S
H786 C780 0.930 . S
H787 C784 0.930 . S
O788 Li728 1.956 . S
O788 Li729 1.970 . S
O788 Li730 1.961 . S
O788 C732 1.325 . S
O789 Li728 1.970 . S
O789 Li729 1.956 . S
O789 Li731 1.961 . S
O789 C738 1.325 . S
O790 Li728 1.961 . S
O790 Li730 1.956 . S
O790 Li731 1.970 . S
O790 C760 1.325 . S
O791 Li729 1.961 . S
O791 Li730 1.970 . S
O791 Li731 1.956 . S
O791 C766 1.325 . S
H792 C734 0.929 . S
H793 C735 0.930 . S
H794 C736 0.930 . S
H795 C737 0.930 . S
H796 C739 0.930 . S
H797 C741 0.929 . S
H798 C742 0.930 . S
H799 C743 0.930 . S
H800 C746 0.930 . S
H801 C749 0.929 . S
H802 C754 0.929 . S
H803 C755 0.930 . S
H804 C762 0.929 . S
H805 C763 0.930 . S
H806 C764 0.930 . S
H807 C765 0.930 . S
H808 C767 0.929 . S
H809 C768 0.930 . S
H810 C769 0.930 . S
H811 C770 0.930 . S
H812 C774 0.929 . S
H813 C776 0.930 . S
H814 C782 0.929 . S
H815 C783 0.930 . S
H816 C822 0.930 . S
H817 C825 0.930 . S
H818 C826 0.930 . S
H819 C827 0.930 . S
H820 C830 0.930 . S
H821 C831 0.930 . S
C822 H816 0.930 . S
C822 C823 1.355 . S
C822 C824 1.415 . S
C823 C822 1.355 . S
C823 C825 1.419 . S
C824 C822 1.415 . S
C824 C829 1.425 . S
C824 C831 1.409 . S
C825 H817 0.930 . S
C825 C823 1.419 . S
C825 C826 1.362 . S
C826 H818 0.930 . S
C826 C825 1.362 . S
C826 C829 1.409 . S
C827 H819 0.930 . S
C827 C828 1.355 . S
C827 C829 1.415 . S
C828 C827 1.355 . S
C828 C830 1.419 . S
C829 C824 1.425 . S
C829 C826 1.409 . S
C829 C827 1.415 . S
C830 H820 0.930 . S
C830 C828 1.419 . S
C830 C831 1.362 . S
C831 H821 0.930 . S
C831 C824 1.409 . S
C831 C830 1.362 . S
H832 C838 0.930 . S
H833 C841 0.930 . S
H834 C842 0.930 . S
H835 C843 0.930 . S
H836 C846 0.930 . S
H837 C847 0.930 . S
C838 H832 0.930 . S
C838 C839 1.355 . S
C838 C840 1.415 . S
C839 C838 1.355 . S
C839 C841 1.419 . S
C840 C838 1.415 . S
C840 C845 1.425 . S
C840 C847 1.409 . S
C841 H833 0.930 . S
C841 C839 1.419 . S
C841 C842 1.362 . S
C842 H834 0.930 . S
C842 C841 1.362 . S
C842 C845 1.409 . S
C843 H835 0.930 . S
C843 C844 1.355 . S
C843 C845 1.415 . S
C844 C843 1.355 . S
C844 C846 1.419 . S
C845 C840 1.425 . S
C845 C842 1.409 . S
C845 C843 1.415 . S
C846 H836 0.930 . S
C846 C844 1.419 . S
C846 C847 1.362 . S
C847 H837 0.930 . S
C847 C840 1.409 . S
C847 C846 1.362 . S
H848 C854 0.930 . S
H849 C857 0.930 . S
H850 C858 0.930 . S
H851 C859 0.930 . S
H852 C862 0.930 . S
H853 C863 0.930 . S
C854 H848 0.930 . S
C854 C855 1.355 . S
C854 C856 1.415 . S
C855 C854 1.355 . S
C855 C857 1.419 . S
C856 C854 1.415 . S
C856 C861 1.425 . S
C856 C863 1.409 . S
C857 H849 0.930 . S
C857 C855 1.419 . S
C857 C858 1.362 . S
C858 H850 0.930 . S
C858 C857 1.362 . S
C858 C861 1.409 . S
C859 H851 0.930 . S
C859 C860 1.355 . S
C859 C861 1.415 . S
C860 C859 1.355 . S
C860 C862 1.419 . S
C861 C856 1.425 . S
C861 C858 1.409 . S
C861 C859 1.415 . S
C862 H852 0.930 . S
C862 C860 1.419 . S
C862 C863 1.362 . S
C863 H853 0.930 . S
C863 C856 1.409 . S
C863 C862 1.362 . S
H864 C870 0.930 . S
H865 C873 0.930 . S
H866 C874 0.930 . S
H867 C875 0.930 . S
H868 C878 0.930 . S
H869 C879 0.930 . S
C870 H864 0.930 . S
C870 C871 1.355 . S
C870 C872 1.415 . S
C871 C870 1.355 . S
C871 C873 1.419 . S
C872 C870 1.415 . S
C872 C877 1.425 . S
C872 C879 1.409 . S
C873 H865 0.930 . S
C873 C871 1.419 . S
C873 C874 1.362 . S
C874 H866 0.930 . S
C874 C873 1.362 . S
C874 C877 1.409 . S
C875 H867 0.930 . S
C875 C876 1.355 . S
C875 C877 1.415 . S
C876 C875 1.355 . S
C876 C878 1.419 . S
C877 C872 1.425 . S
C877 C874 1.409 . S
C877 C875 1.415 . S
C878 H868 0.930 . S
C878 C876 1.419 . S
C878 C879 1.362 . S
C879 H869 0.930 . S
C879 C872 1.409 . S
C879 C878 1.362 . S
H880 C886 0.930 . S
H881 C889 0.930 . S
H882 C890 0.930 . S
H883 C891 0.930 . S
H884 C894 0.930 . S
H885 C895 0.930 . S
C886 H880 0.930 . S
C886 C887 1.355 . S
C886 C888 1.415 . S
C887 C886 1.355 . S
C887 C889 1.419 . S
C888 C886 1.415 . S
C888 C893 1.425 . S
C888 C895 1.409 . S
C889 H881 0.930 . S
C889 C887 1.419 . S
C889 C890 1.362 . S
C890 H882 0.930 . S
C890 C889 1.362 . S
C890 C893 1.409 . S
C891 H883 0.930 . S
C891 C892 1.355 . S
C891 C893 1.415 . S
C892 C891 1.355 . S
C892 C894 1.419 . S
C893 C888 1.425 . S
C893 C890 1.409 . S
C893 C891 1.415 . S
C894 H884 0.930 . S
C894 C892 1.419 . S
C894 C895 1.362 . S
C895 H885 0.930 . S
C895 C888 1.409 . S
C895 C894 1.362 . S
H896 C902 0.930 . S
H897 C905 0.930 . S
H898 C906 0.930 . S
H899 C907 0.930 . S
H900 C910 0.930 . S
H901 C911 0.930 . S
C902 H896 0.930 . S
C902 C903 1.355 . S
C902 C904 1.415 . S
C903 C902 1.355 . S
C903 C905 1.419 . S
C904 C902 1.415 . S
C904 C909 1.425 . S
C904 C911 1.409 . S
C905 H897 0.930 . S
C905 C903 1.419 . S
C905 C906 1.362 . S
C906 H898 0.930 . S
C906 C905 1.362 . S
C906 C909 1.409 . S
C907 H899 0.930 . S
C907 C908 1.355 . S
C907 C909 1.415 . S
C908 C907 1.355 . S
C908 C910 1.419 . S
C909 C904 1.425 . S
C909 C906 1.409 . S
C909 C907 1.415 . S
C910 H900 0.930 . S
C910 C908 1.419 . S
C910 C911 1.362 . S
C911 H901 0.930 . S
C911 C904 1.409 . S
C911 C910 1.362 . S
H912 C918 0.930 . S
H913 C921 0.930 . S
H914 C922 0.930 . S
H915 C923 0.930 . S
H916 C926 0.930 . S
H917 C927 0.930 . S
C918 H912 0.930 . S
C918 C919 1.355 . S
C918 C920 1.415 . S
C919 C918 1.355 . S
C919 C921 1.419 . S
C920 C918 1.415 . S
C920 C925 1.425 . S
C920 C927 1.409 . S
C921 H913 0.930 . S
C921 C919 1.419 . S
C921 C922 1.362 . S
C922 H914 0.930 . S
C922 C921 1.362 . S
C922 C925 1.409 . S
C923 H915 0.930 . S
C923 C924 1.355 . S
C923 C925 1.415 . S
C924 C923 1.355 . S
C924 C926 1.419 . S
C925 C920 1.425 . S
C925 C922 1.409 . S
C925 C923 1.415 . S
C926 H916 0.930 . S
C926 C924 1.419 . S
C926 C927 1.362 . S
C927 H917 0.930 . S
C927 C920 1.409 . S
C927 C926 1.362 . S
H928 C934 0.930 . S
H929 C937 0.930 . S
H930 C938 0.930 . S
H931 C939 0.930 . S
H932 C942 0.930 . S
H933 C943 0.930 . S
C934 H928 0.930 . S
C934 C935 1.355 . S
C934 C936 1.415 . S
C935 C934 1.355 . S
C935 C937 1.419 . S
C936 C934 1.415 . S
C936 C941 1.425 . S
C936 C943 1.409 . S
C937 H929 0.930 . S
C937 C935 1.419 . S
C937 C938 1.362 . S
C938 H930 0.930 . S
C938 C937 1.362 . S
C938 C941 1.409 . S
C939 H931 0.930 . S
C939 C940 1.355 . S
C939 C941 1.415 . S
C940 C939 1.355 . S
C940 C942 1.419 . S
C941 C936 1.425 . S
C941 C938 1.409 . S
C941 C939 1.415 . S
C942 H932 0.930 . S
C942 C940 1.419 . S
C942 C943 1.362 . S
C943 H933 0.930 . S
C943 C936 1.409 . S
C943 C942 1.362 . S
H944 C950 0.930 . S
H945 C953 0.930 . S
H946 C954 0.930 . S
H947 C955 0.930 . S
H948 C958 0.930 . S
H949 C959 0.930 . S
C950 H944 0.930 . S
C950 C951 1.355 . S
C950 C952 1.415 . S
C951 C950 1.355 . S
C951 C953 1.419 . S
C952 C950 1.415 . S
C952 C957 1.425 . S
C952 C959 1.409 . S
C953 H945 0.930 . S
C953 C951 1.419 . S
C953 C954 1.362 . S
C954 H946 0.930 . S
C954 C953 1.362 . S
C954 C957 1.409 . S
C955 H947 0.930 . S
C955 C956 1.355 . S
C955 C957 1.415 . S
C956 C955 1.355 . S
C956 C958 1.419 . S
C957 C952 1.425 . S
C957 C954 1.409 . S
C957 C955 1.415 . S
C958 H948 0.930 . S
C958 C956 1.419 . S
C958 C959 1.362 . S
C959 H949 0.930 . S
C959 C952 1.409 . S
C959 C958 1.362 . S
H960 C966 0.930 . S
H961 C969 0.930 . S
H962 C970 0.930 . S
H963 C971 0.930 . S
H964 C974 0.930 . S
H965 C975 0.930 . S
C966 H960 0.930 . S
C966 C967 1.355 . S
C966 C968 1.415 . S
C967 C966 1.355 . S
C967 C969 1.419 . S
C968 C966 1.415 . S
C968 C973 1.425 . S
C968 C975 1.409 . S
C969 H961 0.930 . S
C969 C967 1.419 . S
C969 C970 1.362 . S
C970 H962 0.930 . S
C970 C969 1.362 . S
C970 C973 1.409 . S
C971 H963 0.930 . S
C971 C972 1.355 . S
C971 C973 1.415 . S
C972 C971 1.355 . S
C972 C974 1.419 . S
C973 C968 1.425 . S
C973 C970 1.409 . S
C973 C971 1.415 . S
C974 H964 0.930 . S
C974 C972 1.419 . S
C974 C975 1.362 . S
C975 H965 0.930 . S
C975 C968 1.409 . S
C975 C974 1.362 . S
H976 C982 0.930 . S
H977 C985 0.930 . S
H978 C986 0.930 . S
H979 C987 0.930 . S
H980 C990 0.930 . S
H981 C991 0.930 . S
C982 H976 0.930 . S
C982 C983 1.355 . S
C982 C984 1.415 . S
C983 C982 1.355 . S
C983 C985 1.419 . S
C984 C982 1.415 . S
C984 C989 1.425 . S
C984 C991 1.409 . S
C985 H977 0.930 . S
C985 C983 1.419 . S
C985 C986 1.362 . S
C986 H978 0.930 . S
C986 C985 1.362 . S
C986 C989 1.409 . S
C987 H979 0.930 . S
C987 C988 1.355 . S
C987 C989 1.415 . S
C988 C987 1.355 . S
C988 C990 1.419 . S
C989 C984 1.425 . S
C989 C986 1.409 . S
C989 C987 1.415 . S
C990 H980 0.930 . S
C990 C988 1.419 . S
C990 C991 1.362 . S
C991 H981 0.930 . S
C991 C984 1.409 . S
C991 C990 1.362 . S
H992 C998 0.930 . S
H993 C1001 0.930 . S
H994 C1002 0.930 . S
H995 C1003 0.930 . S
H996 C1006 0.930 . S
H997 C1007 0.930 . S
C998 H992 0.930 . S
C998 C999 1.355 . S
C998 C1000 1.415 . S
C999 C998 1.355 . S
C999 C1001 1.419 . S
C1000 C998 1.415 . S
C1000 C1005 1.425 . S
C1000 C1007 1.409 . S
C1001 H993 0.930 . S
C1001 C999 1.419 . S
C1001 C1002 1.362 . S
C1002 H994 0.930 . S
C1002 C1001 1.362 . S
C1002 C1005 1.409 . S
C1003 H995 0.930 . S
C1003 C1004 1.355 . S
C1003 C1005 1.415 . S
C1004 C1003 1.355 . S
C1004 C1006 1.419 . S
C1005 C1000 1.425 . S
C1005 C1002 1.409 . S
C1005 C1003 1.415 . S
C1006 H996 0.930 . S
C1006 C1004 1.419 . S
C1006 C1007 1.362 . S
C1007 H997 0.930 . S
C1007 C1000 1.409 . S
C1007 C1006 1.362 . S
H1008 C1014 0.930 . S
H1009 C1017 0.930 . S
H1010 C1018 0.930 . S
H1011 C1019 0.930 . S
H1012 C1022 0.930 . S
H1013 C1023 0.930 . S
C1014 H1008 0.930 . S
C1014 C1015 1.355 . S
C1014 C1016 1.415 . S
C1015 C1014 1.355 . S
C1015 C1017 1.419 . S
C1016 C1014 1.415 . S
C1016 C1021 1.425 . S
C1016 C1023 1.409 . S
C1017 H1009 0.930 . S
C1017 C1015 1.419 . S
C1017 C1018 1.362 . S
C1018 H1010 0.930 . S
C1018 C1017 1.362 . S
C1018 C1021 1.409 . S
C1019 H1011 0.930 . S
C1019 C1020 1.355 . S
C1019 C1021 1.415 . S
C1020 C1019 1.355 . S
C1020 C1022 1.419 . S
C1021 C1016 1.425 . S
C1021 C1018 1.409 . S
C1021 C1019 1.415 . S
C1022 H1012 0.930 . S
C1022 C1020 1.419 . S
C1022 C1023 1.362 . S
C1023 H1013 0.930 . S
C1023 C1016 1.409 . S
C1023 C1022 1.362 . S
H1024 C1030 0.930 . S
H1025 C1033 0.930 . S
H1026 C1034 0.930 . S
H1027 C1035 0.930 . S
H1028 C1038 0.930 . S
H1029 C1039 0.930 . S
C1030 H1024 0.930 . S
C1030 C1031 1.355 . S
C1030 C1032 1.415 . S
C1031 C1030 1.355 . S
C1031 C1033 1.419 . S
C1032 C1030 1.415 . S
C1032 C1037 1.425 . S
C1032 C1039 1.409 . S
C1033 H1025 0.930 . S
C1033 C1031 1.419 . S
C1033 C1034 1.362 . S
C1034 H1026 0.930 . S
C1034 C1033 1.362 . S
C1034 C1037 1.409 . S
C1035 H1027 0.930 . S
C1035 C1036 1.355 . S
C1035 C1037 1.415 . S
C1036 C1035 1.355 . S
C1036 C1038 1.419 . S
C1037 C1032 1.425 . S
C1037 C1034 1.409 . S
C1037 C1035 1.415 . S
C1038 H1028 0.930 . S
C1038 C1036 1.419 . S
C1038 C1039 1.362 . S
C1039 H1029 0.930 . S
C1039 C1032 1.409 . S
C1039 C1038 1.362 . S
H1040 C1046 0.930 . S
H1041 C1049 0.930 . S
H1042 C1050 0.930 . S
H1043 C1051 0.930 . S
H1044 C1054 0.930 . S
H1045 C1055 0.930 . S
C1046 H1040 0.930 . S
C1046 C1047 1.355 . S
C1046 C1048 1.415 . S
C1047 C1046 1.355 . S
C1047 C1049 1.419 . S
C1048 C1046 1.415 . S
C1048 C1053 1.425 . S
C1048 C1055 1.409 . S
C1049 H1041 0.930 . S
C1049 C1047 1.419 . S
C1049 C1050 1.362 . S
C1050 H1042 0.930 . S
C1050 C1049 1.362 . S
C1050 C1053 1.409 . S
C1051 H1043 0.930 . S
C1051 C1052 1.355 . S
C1051 C1053 1.415 . S
C1052 C1051 1.355 . S
C1052 C1054 1.419 . S
C1053 C1048 1.425 . S
C1053 C1050 1.409 . S
C1053 C1051 1.415 . S
C1054 H1044 0.930 . S
C1054 C1052 1.419 . S
C1054 C1055 1.362 . S
C1055 H1045 0.930 . S
C1055 C1048 1.409 . S
C1055 C1054 1.362 . S
H1056 C1062 0.930 . S
H1057 C1065 0.930 . S
H1058 C1066 0.930 . S
H1059 C1067 0.930 . S
H1060 C1070 0.930 . S
H1061 C1071 0.930 . S
C1062 H1056 0.930 . S
C1062 C1063 1.355 . S
C1062 C1064 1.415 . S
C1063 C1062 1.355 . S
C1063 C1065 1.419 . S
C1064 C1062 1.415 . S
C1064 C1069 1.425 . S
C1064 C1071 1.409 . S
C1065 H1057 0.930 . S
C1065 C1063 1.419 . S
C1065 C1066 1.362 . S
C1066 H1058 0.930 . S
C1066 C1065 1.362 . S
C1066 C1069 1.409 . S
C1067 H1059 0.930 . S
C1067 C1068 1.355 . S
C1067 C1069 1.415 . S
C1068 C1067 1.355 . S
C1068 C1070 1.419 . S
C1069 C1064 1.425 . S
C1069 C1066 1.409 . S
C1069 C1067 1.415 . S
C1070 H1060 0.930 . S
C1070 C1068 1.419 . S
C1070 C1071 1.362 . S
C1071 H1061 0.930 . S
C1071 C1064 1.409 . S
C1071 C1070 1.362 . S
H1072 C1078 0.930 . S
H1073 C1081 0.930 . S
H1074 C1082 0.930 . S
H1075 C1083 0.930 . S
H1076 C1086 0.930 . S
H1077 C1087 0.930 . S
C1078 H1072 0.930 . S
C1078 C1079 1.355 . S
C1078 C1080 1.415 . S
C1079 C1078 1.355 . S
C1079 C1081 1.419 . S
C1080 C1078 1.415 . S
C1080 C1085 1.425 . S
C1080 C1087 1.409 . S
C1081 H1073 0.930 . S
C1081 C1079 1.419 . S
C1081 C1082 1.362 . S
C1082 H1074 0.930 . S
C1082 C1081 1.362 . S
C1082 C1085 1.409 . S
C1083 H1075 0.930 . S
C1083 C1084 1.355 . S
C1083 C1085 1.415 . S
C1084 C1083 1.355 . S
C1084 C1086 1.419 . S
C1085 C1080 1.425 . S
C1085 C1082 1.409 . S
C1085 C1083 1.415 . S
C1086 H1076 0.930 . S
C1086 C1084 1.419 . S
C1086 C1087 1.362 . S
C1087 H1077 0.930 . S
C1087 C1080 1.409 . S
C1087 C1086 1.362 . S
H1088 C1094 0.930 . S
H1089 C1097 0.930 . S
H1090 C1098 0.930 . S
H1091 C1099 0.930 . S
H1092 C1102 0.930 . S
H1093 C1103 0.930 . S
C1094 H1088 0.930 . S
C1094 C1095 1.355 . S
C1094 C1096 1.415 . S
C1095 C1094 1.355 . S
C1095 C1097 1.419 . S
C1096 C1094 1.415 . S
C1096 C1101 1.425 . S
C1096 C1103 1.409 . S
C1097 H1089 0.930 . S
C1097 C1095 1.419 . S
C1097 C1098 1.362 . S
C1098 H1090 0.930 . S
C1098 C1097 1.362 . S
C1098 C1101 1.409 . S
C1099 H1091 0.930 . S
C1099 C1100 1.355 . S
C1099 C1101 1.415 . S
C1100 C1099 1.355 . S
C1100 C1102 1.419 . S
C1101 C1096 1.425 . S
C1101 C1098 1.409 . S
C1101 C1099 1.415 . S
C1102 H1092 0.930 . S
C1102 C1100 1.419 . S
C1102 C1103 1.362 . S
C1103 H1093 0.930 . S
C1103 C1096 1.409 . S
C1103 C1102 1.362 . S
H1104 C1110 0.930 . S
H1105 C1113 0.930 . S
H1106 C1114 0.930 . S
H1107 C1115 0.930 . S
H1108 C1118 0.930 . S
H1109 C1119 0.930 . S
C1110 H1104 0.930 . S
C1110 C1111 1.355 . S
C1110 C1112 1.415 . S
C1111 C1110 1.355 . S
C1111 C1113 1.419 . S
C1112 C1110 1.415 . S
C1112 C1117 1.425 . S
C1112 C1119 1.409 . S
C1113 H1105 0.930 . S
C1113 C1111 1.419 . S
C1113 C1114 1.362 . S
C1114 H1106 0.930 . S
C1114 C1113 1.362 . S
C1114 C1117 1.409 . S
C1115 H1107 0.930 . S
C1115 C1116 1.355 . S
C1115 C1117 1.415 . S
C1116 C1115 1.355 . S
C1116 C1118 1.419 . S
C1117 C1112 1.425 . S
C1117 C1114 1.409 . S
C1117 C1115 1.415 . S
C1118 H1108 0.930 . S
C1118 C1116 1.419 . S
C1118 C1119 1.362 . S
C1119 H1109 0.930 . S
C1119 C1112 1.409 . S
C1119 C1118 1.362 . S
H1120 C1126 0.930 . S
H1121 C1129 0.930 . S
H1122 C1130 0.930 . S
H1123 C1131 0.930 . S
H1124 C1134 0.930 . S
H1125 C1135 0.930 . S
C1126 H1120 0.930 . S
C1126 C1127 1.355 . S
C1126 C1128 1.415 . S
C1127 C1126 1.355 . S
C1127 C1129 1.419 . S
C1128 C1126 1.415 . S
C1128 C1133 1.425 . S
C1128 C1135 1.409 . S
C1129 H1121 0.930 . S
C1129 C1127 1.419 . S
C1129 C1130 1.362 . S
C1130 H1122 0.930 . S
C1130 C1129 1.362 . S
C1130 C1133 1.409 . S
C1131 H1123 0.930 . S
C1131 C1132 1.355 . S
C1131 C1133 1.415 . S
C1132 C1131 1.355 . S
C1132 C1134 1.419 . S
C1133 C1128 1.425 . S
C1133 C1130 1.409 . S
C1133 C1131 1.415 . S
C1134 H1124 0.930 . S
C1134 C1132 1.419 . S
C1134 C1135 1.362 . S
C1135 H1125 0.930 . S
C1135 C1128 1.409 . S
C1135 C1134 1.362 . S
H1136 C1142 0.930 . S
H1137 C1145 0.930 . S
H1138 C1146 0.930 . S
H1139 C1147 0.930 . S
H1140 C1150 0.930 . S
H1141 C1151 0.930 . S
C1142 H1136 0.930 . S
C1142 C1143 1.355 . S
C1142 C1144 1.415 . S
C1143 C1142 1.355 . S
C1143 C1145 1.419 . S
C1144 C1142 1.415 . S
C1144 C1149 1.425 . S
C1144 C1151 1.409 . S
C1145 H1137 0.930 . S
C1145 C1143 1.419 . S
C1145 C1146 1.362 . S
C1146 H1138 0.930 . S
C1146 C1145 1.362 . S
C1146 C1149 1.409 . S
C1147 H1139 0.930 . S
C1147 C1148 1.355 . S
C1147 C1149 1.415 . S
C1148 C1147 1.355 . S
C1148 C1150 1.419 . S
C1149 C1144 1.425 . S
C1149 C1146 1.409 . S
C1149 C1147 1.415 . S
C1150 H1140 0.930 . S
C1150 C1148 1.419 . S
C1150 C1151 1.362 . S
C1151 H1141 0.930 . S
C1151 C1144 1.409 . S
C1151 C1150 1.362 . S
H1152 C1158 0.930 . S
H1153 C1161 0.930 . S
H1154 C1162 0.930 . S
H1155 C1163 0.930 . S
H1156 C1166 0.930 . S
H1157 C1167 0.930 . S
C1158 H1152 0.930 . S
C1158 C1159 1.355 . S
C1158 C1160 1.415 . S
C1159 C1158 1.355 . S
C1159 C1161 1.419 . S
C1160 C1158 1.415 . S
C1160 C1165 1.425 . S
C1160 C1167 1.409 . S
C1161 H1153 0.930 . S
C1161 C1159 1.419 . S
C1161 C1162 1.362 . S
C1162 H1154 0.930 . S
C1162 C1161 1.362 . S
C1162 C1165 1.409 . S
C1163 H1155 0.930 . S
C1163 C1164 1.355 . S
C1163 C1165 1.415 . S
C1164 C1163 1.355 . S
C1164 C1166 1.419 . S
C1165 C1160 1.425 . S
C1165 C1162 1.409 . S
C1165 C1163 1.415 . S
C1166 H1156 0.930 . S
C1166 C1164 1.419 . S
C1166 C1167 1.362 . S
C1167 H1157 0.930 . S
C1167 C1160 1.409 . S
C1167 C1166 1.362 . S
H1168 C1174 0.930 . S
H1169 C1177 0.930 . S
H1170 C1178 0.930 . S
H1171 C1179 0.930 . S
H1172 C1182 0.930 1_556 S
H1173 C1183 0.930 . S
C1174 H1168 0.930 . S
C1174 C1175 1.355 . S
C1174 C1176 1.415 . S
C1175 C1174 1.355 . S
C1175 C1177 1.419 . S
C1176 C1174 1.415 . S
C1176 C1181 1.425 . S
C1176 C1183 1.409 . S
C1177 H1169 0.930 . S
C1177 C1175 1.419 . S
C1177 C1178 1.362 . S
C1178 H1170 0.930 . S
C1178 C1177 1.362 . S
C1178 C1181 1.409 . S
C1179 H1171 0.930 . S
C1179 C1180 1.355 . S
C1179 C1181 1.415 . S
C1180 C1179 1.355 . S
C1180 C1182 1.419 . S
C1181 C1176 1.425 . S
C1181 C1178 1.409 . S
C1181 C1179 1.415 . S
C1182 H1172 0.930 1_554 S
C1182 C1180 1.419 . S
C1182 C1183 1.362 . S
C1183 H1173 0.930 . S
C1183 C1176 1.409 . S
C1183 C1182 1.362 . S
H1184 C1190 0.930 . S
H1185 C1193 0.930 . S
H1186 C1194 0.930 . S
H1187 C1195 0.930 . S
H1188 C1198 0.930 . S
H1189 C1199 0.930 . S
C1190 H1184 0.930 . S
C1190 C1191 1.355 . S
C1190 C1192 1.415 . S
C1191 C1190 1.355 . S
C1191 C1193 1.419 . S
C1192 C1190 1.415 . S
C1192 C1197 1.425 . S
C1192 C1199 1.409 . S
C1193 H1185 0.930 . S
C1193 C1191 1.419 . S
C1193 C1194 1.362 . S
C1194 H1186 0.930 . S
C1194 C1193 1.362 . S
C1194 C1197 1.409 . S
C1195 H1187 0.930 . S
C1195 C1196 1.355 . S
C1195 C1197 1.415 . S
C1196 C1195 1.355 . S
C1196 C1198 1.419 . S
C1197 C1192 1.425 . S
C1197 C1194 1.409 . S
C1197 C1195 1.415 . S
C1198 H1188 0.930 . S
C1198 C1196 1.419 . S
C1198 C1199 1.362 . S
C1199 H1189 0.930 . S
C1199 C1192 1.409 . S
C1199 C1198 1.362 . S
C828 C757 1.652 . S
C823 C45 1.665 . S
C839 C84 1.649 . S
C844 C317 1.663 . S
C855 C126 1.596 . S
C860 C405 1.659 . S
C871 C189 1.699 . S
C876 C484 1.688 . S
C892 C581 1.654 . S
C887 C228 1.649 . S
C903 C270 1.590 . S
C908 C660 1.657 . S
C919 C69 1.644 . S
C924 C425 1.665 . S
C935 C141 1.671 . S
C940 C521 1.657 . S
C951 C174 1.642 . S
C956 C601 1.699 . S
C972 C697 1.703 . S
C967 C213 1.674 . S
C988 C777 1.665 . S
C983 C285 1.673 . S
C1004 C337 1.665 . S
C999 C30 1.608 . S
C1015 C36 1.504 . S
C1020 C433 1.493 . S
C1031 C93 1.490 . S
C1036 C513 1.480 . S
C1052 C609 1.489 . S
C1047 C117 1.485 . S
C1063 C180 1.504 . S
C1068 C689 1.503 . S
C1084 C785 1.472 . S
C1079 C237 1.500 . S
C1100 C345 1.482 . S
C1095 C261 1.490 . S
C1116 C748 1.474 . S
C1111 C78 1.468 . S
C1127 C132 1.483 . S
C1132 C308 1.479 . S
C1148 C396 1.501 . S
C1143 C165 1.498 . S
C1159 C222 1.479 . S
C1164 C493 1.478 . S
C1175 C276 1.483 . S
C1180 C572 1.482 1_554 S
C1191 C21 1.503 . S
C1196 C669 1.504 . S
