# Generated by pormake.
# Topology pyr, (3,6)-cn, num edge types: 1
# Building blocks:
#     Node 0, Type 0, BuildingBlock: PAMTOO_clean_linker_0, # of connection points: 3
#     Node 1, Type 0, BuildingBlock: PAMTOO_clean_linker_0, # of connection points: 3
#     Node 2, Type 0, BuildingBlock: PAMTOO_clean_linker_0, # of connection points: 3
#     Node 3, Type 0, BuildingBlock: PAMTOO_clean_linker_0, # of connection points: 3
#     Node 4, Type 0, BuildingBlock: PAMTOO_clean_linker_0, # of connection points: 3
#     Node 5, Type 0, BuildingBlock: PAMTOO_clean_linker_0, # of connection points: 3
#     Node 6, Type 0, BuildingBlock: PAMTOO_clean_linker_0, # of connection points: 3
#     Node 7, Type 0, BuildingBlock: PAMTOO_clean_linker_0, # of connection points: 3
#     Node 8, Type 1, BuildingBlock: PAMTUU_clean_sbu_0, # of connection points: 6
#     Node 9, Type 1, BuildingBlock: PAMTUU_clean_sbu_0, # of connection points: 6
#     Node 10, Type 1, BuildingBlock: PAMTUU_clean_sbu_0, # of connection points: 6
#     Node 11, Type 1, BuildingBlock: PAMTUU_clean_sbu_0, # of connection points: 6
#     Edge 12, Type (0, 1), BuildingBlock: KIFKEQ_clean_linker_1, # of connection points: 2
#     Edge 13, Type (0, 1), BuildingBlock: KIFKEQ_clean_linker_1, # of connection points: 2
#     Edge 14, Type (0, 1), BuildingBlock: KIFKEQ_clean_linker_1, # of connection points: 2
#     Edge 15, Type (0, 1), BuildingBlock: KIFKEQ_clean_linker_1, # of connection points: 2
#     Edge 16, Type (0, 1), BuildingBlock: KIFKEQ_clean_linker_1, # of connection points: 2
#     Edge 17, Type (0, 1), BuildingBlock: KIFKEQ_clean_linker_1, # of connection points: 2
#     Edge 18, Type (0, 1), BuildingBlock: KIFKEQ_clean_linker_1, # of connection points: 2
#     Edge 19, Type (0, 1), BuildingBlock: KIFKEQ_clean_linker_1, # of connection points: 2
#     Edge 20, Type (0, 1), BuildingBlock: KIFKEQ_clean_linker_1, # of connection points: 2
#     Edge 21, Type (0, 1), BuildingBlock: KIFKEQ_clean_linker_1, # of connection points: 2
#     Edge 22, Type (0, 1), BuildingBlock: KIFKEQ_clean_linker_1, # of connection points: 2
#     Edge 23, Type (0, 1), BuildingBlock: KIFKEQ_clean_linker_1, # of connection points: 2
#     Edge 24, Type (0, 1), BuildingBlock: KIFKEQ_clean_linker_1, # of connection points: 2
#     Edge 25, Type (0, 1), BuildingBlock: KIFKEQ_clean_linker_1, # of connection points: 2
#     Edge 26, Type (0, 1), BuildingBlock: KIFKEQ_clean_linker_1, # of connection points: 2
#     Edge 27, Type (0, 1), BuildingBlock: KIFKEQ_clean_linker_1, # of connection points: 2
#     Edge 28, Type (0, 1), BuildingBlock: KIFKEQ_clean_linker_1, # of connection points: 2
#     Edge 29, Type (0, 1), BuildingBlock: KIFKEQ_clean_linker_1, # of connection points: 2
#     Edge 30, Type (0, 1), BuildingBlock: KIFKEQ_clean_linker_1, # of connection points: 2
#     Edge 31, Type (0, 1), BuildingBlock: KIFKEQ_clean_linker_1, # of connection points: 2
#     Edge 32, Type (0, 1), BuildingBlock: KIFKEQ_clean_linker_1, # of connection points: 2
#     Edge 33, Type (0, 1), BuildingBlock: KIFKEQ_clean_linker_1, # of connection points: 2
#     Edge 34, Type (0, 1), BuildingBlock: KIFKEQ_clean_linker_1, # of connection points: 2
#     Edge 35, Type (0, 1), BuildingBlock: KIFKEQ_clean_linker_1, # of connection points: 2
# Relax obj value: 0.166
# Max RMSD: 0.236
# Mean RMSD: 0.145
data_MOF--net-pyr--node1-PAMTUU_clean_sbu_0--node2-PAMTOO_clean_linker_0--edge1-KIFKEQ_clean_linker_1
_symmetry_space_group_name_H-M    P1
_symmetry_Int_Tables_number       1
_symmetry_cell_setting            triclinic
loop_
_symmetry_equiv_pos_as_xyz
'x, y, z'
_cell_length_a     37.942671
_cell_length_b     40.62839
_cell_length_c     38.167996
_cell_angle_alpha  90.423383
_cell_angle_beta   89.796535
_cell_angle_gamma 105.63974
loop_
_atom_site_label
_atom_site_type_symbol
_atom_site_fract_x
_atom_site_fract_y
_atom_site_fract_z
_atom_type_partial_charge
H0 H 0.31831 0.31097 0.2787 0.0
H1 H 0.40184 0.25873 0.2617 0.0
H2 H 0.38316 0.32818 0.18469 0.0
H3 H 0.39896 0.27346 0.14899 0.0
C4 C 0.40331 0.2593 0.17269 0.0
O5 O 0.41797 0.28261 0.19884 0.0
H6 H 0.37597 0.24262 0.18045 0.0
C7 C 0.34133 0.30742 0.2637 0.0
C8 C 0.34928 0.32344 0.23105 0.0
C9 C 0.36008 0.28404 0.27531 0.0
C10 C 0.38767 0.27736 0.25396 0.0
C11 C 0.39581 0.29326 0.22143 0.0
C12 C 0.37732 0.31686 0.21041 0.0
H13 H 0.21261 0.84697 0.73842 0.0
H14 H 0.1691 0.77874 0.65272 0.0
H15 H 0.25537 0.76114 0.71618 0.0
H16 H 0.23995 0.77263 0.62185 0.0
C17 C 0.23291 0.74534 0.63007 0.0
O18 O 0.21366 0.74037 0.66127 0.0
H19 H 0.215 0.73067 0.60911 0.0
C20 C 0.21164 0.82401 0.72333 0.0
C21 C 0.23617 0.80473 0.73112 0.0
C22 C 0.1872 0.81485 0.69519 0.0
C23 C 0.18728 0.78584 0.675 0.0
C24 C 0.21192 0.76664 0.68251 0.0
C25 C 0.23598 0.77577 0.71086 0.0
H26 H 0.7371 0.33946 0.93769 0.0
H27 H 0.65853 0.32659 0.85371 0.0
H28 H 0.74598 0.41916 0.86197 0.0
H29 H 0.67004 0.42608 0.84434 0.0
C30 C 0.663 0.40568 0.82391 0.0
O31 O 0.68867 0.38681 0.82462 0.0
H32 H 0.63571 0.38866 0.83092 0.0
C33 C 0.72708 0.34876 0.91426 0.0
C34 C 0.74582 0.38144 0.90185 0.0
C35 C 0.69552 0.32823 0.89747 0.0
C36 C 0.68221 0.34183 0.86765 0.0
C37 C 0.70012 0.37482 0.85488 0.0
C38 C 0.73175 0.39434 0.87227 0.0
H39 H 0.87598 0.74161 0.44467 0.0
H40 H 0.87527 0.66153 0.37009 0.0
H41 H 0.96631 0.75174 0.37291 0.0
H42 H 0.94253 0.72 0.29761 0.0
C43 C 0.93203 0.69296 0.30599 0.0
O44 O 0.93909 0.691 0.3417 0.0
H45 H 0.90192 0.68573 0.30169 0.0
C46 C 0.88903 0.73165 0.42336 0.0
C47 C 0.92356 0.75108 0.41129 0.0
C48 C 0.87107 0.6994 0.40906 0.0
C49 C 0.88834 0.68634 0.38137 0.0
C50 C 0.92236 0.7052 0.36762 0.0
C51 C 0.93976 0.73766 0.38271 0.0
H52 H 0.70368 0.83652 0.8734 0.0
H53 H 0.6885 0.78417 0.97243 0.0
H54 H 0.75901 0.75942 0.89453 0.0
H55 H 0.70336 0.70345 0.93226 0.0
C56 C 0.71896 0.71202 0.95688 0.0
O57 O 0.733 0.74705 0.95806 0.0
H58 H 0.69973 0.70381 0.97916 0.0
C59 C 0.70807 0.81668 0.89033 0.0
C60 C 0.73175 0.79739 0.87928 0.0
C61 C 0.69282 0.81272 0.92415 0.0
C62 C 0.69996 0.78775 0.94625 0.0
C63 C 0.72355 0.76851 0.93541 0.0
C64 C 0.73985 0.77368 0.90224 0.0
H65 H 0.87961 0.2124 0.37434 0.0
H66 H 0.85221 0.30822 0.38523 0.0
H67 H 0.93057 0.28452 0.45445 0.0
H68 H 0.89882 0.35576 0.48403 0.0
C69 C 0.88088 0.33339 0.47015 0.0
O70 O 0.89644 0.33007 0.43799 0.0
H71 H 0.87985 0.31068 0.48673 0.0
C72 C 0.88324 0.23687 0.38741 0.0
C73 C 0.90732 0.24539 0.41594 0.0
C74 C 0.8634 0.25938 0.37586 0.0
C75 C 0.86736 0.29056 0.39361 0.0
C76 C 0.89188 0.29962 0.4216 0.0
C77 C 0.9122 0.27736 0.43234 0.0
H78 H 0.36733 0.73285 0.16084 0.0
H79 H 0.36213 0.65345 0.23653 0.0
H80 H 0.44865 0.74688 0.24224 0.0
H81 H 0.47066 0.68165 0.26132 0.0
C82 C 0.44422 0.66685 0.27286 0.0
O83 O 0.41977 0.68701 0.27273 0.0
H84 H 0.43353 0.64416 0.25563 0.0
C85 C 0.37854 0.72326 0.18343 0.0
C86 C 0.4102 0.74422 0.19961 0.0
C87 C 0.3608 0.69036 0.19608 0.0
C88 C 0.37537 0.67845 0.22606 0.0
C89 C 0.40729 0.69845 0.24266 0.0
C90 C 0.42464 0.73121 0.2291 0.0
H91 H 0.12449 0.32721 0.79133 0.0
H92 H 0.20902 0.4226 0.78089 0.0
H93 H 0.2057 0.3412 0.70889 0.0
H94 H 0.27798 0.37961 0.74265 0.0
C95 C 0.27588 0.40544 0.73509 0.0
O96 O 0.24001 0.40343 0.72577 0.0
H97 H 0.28333 0.4224 0.75842 0.0
C98 C 0.14838 0.3429 0.77813 0.0
C99 C 0.16335 0.32903 0.74885 0.0
C100 C 0.16428 0.37713 0.79019 0.0
C101 C 0.19563 0.39682 0.77229 0.0
C102 C 0.21053 0.38368 0.74336 0.0
C103 C 0.19422 0.3503 0.73185 0.0
Tb104 Tb 0.08285 0.04847 0.55976 0.0
Tb105 Tb 1.00658 0.02948 0.60489 0.0
C106 C 0.01897 0.98026 0.54314 0.0
C107 C 0.16763 0.08504 0.50495 0.0
C108 C 0.21498 0.13144 0.4602 0.0
C109 C 0.21241 0.09635 0.45812 0.0
C110 C 0.18898 0.0734 0.48033 0.0
C111 C 0.17021 0.1201 0.50752 0.0
C112 C 0.19396 0.14323 0.48534 0.0
C113 C 0.14294 0.05972 0.52718 0.0
O114 O 0.04685 0.07045 0.52903 0.0
O115 O 1.00265 0.07049 0.57059 0.0
O116 O 0.04422 0.07302 0.63216 0.0
O117 O 0.08377 0.09615 0.58766 0.0
O118 O 0.94943 1.01975 0.60761 0.0
O119 O 0.98198 1.02214 0.65447 0.0
O120 O 0.0342 0.99108 0.6185 0.0
O121 O 0.09188 1.02437 0.60819 0.0
O122 O 0.05425 0.99598 0.54356 0.0
O123 O 0.99537 0.992 0.56159 0.0
C124 C 0.01808 0.07971 0.54008 0.0
O125 O 0.14004 0.06782 0.55995 0.0
O126 O 0.11142 0.04405 0.51357 0.0
C127 C 0.06942 0.09889 0.61872 0.0
C128 C 0.92253 0.98555 0.65525 0.0
C129 C 0.87355 0.92868 0.68639 0.0
C130 C 0.87068 0.96198 0.69303 0.0
C131 C 0.89492 0.9901 0.67754 0.0
C132 C 0.92532 0.95247 0.64784 0.0
C133 C 0.90094 0.92416 0.66332 0.0
C134 C 0.94907 1.0158 0.64149 0.0
C135 C 0.06967 0.99691 0.62153 0.0
H136 H 0.22863 0.08662 0.43931 0.0
H137 H 0.18737 0.04642 0.47815 0.0
H138 H 0.15377 0.12948 0.52639 0.0
H139 H 0.19528 0.17015 0.48726 0.0
H140 H 0.8505 0.96653 0.71122 0.0
H141 H 0.89262 1.01554 0.68365 0.0
H142 H 0.94666 0.94864 0.63061 0.0
H143 H 0.90374 0.89885 0.65753 0.0
Tb144 Tb 0.58397 0.04647 0.07691 0.0
Tb145 Tb 0.5155 0.02822 1.02125 0.0
C146 C 0.58064 0.99552 1.01379 0.0
C147 C 0.65701 0.08986 0.14083 0.0
C148 C 0.69676 0.1425 0.18518 0.0
C149 C 0.71496 0.12371 0.16412 0.0
C150 C 0.69524 0.09761 0.14224 0.0
C151 C 0.63867 0.10918 0.16101 0.0
C152 C 0.65842 0.1352 0.18318 0.0
C153 C 0.63713 0.06082 0.11904 0.0
O154 O 0.59038 0.09358 0.04716 0.0
O155 O 0.55722 0.0713 0.99819 0.0
O156 O 0.50884 0.0713 0.05131 0.0
O157 O 0.54238 0.06771 0.10042 0.0
O158 O 0.49812 1.02283 0.96911 0.0
O159 O 0.4588 1.01572 1.01153 0.0
O160 O 0.49844 0.99137 0.06421 0.0
O161 O 0.55435 0.99346 0.08841 0.0
O162 O 0.60115 1.02085 1.03226 0.0
O163 O 0.54527 0.99079 1.01116 0.0
C164 C 0.58093 0.09658 1.01441 0.0
O165 O 0.60355 0.04557 0.12808 0.0
O166 O 0.64064 0.06483 0.08526 0.0
C167 C 0.5184 0.07988 0.08377 0.0
C168 C 0.44155 0.98184 0.96053 0.0
C169 C 0.40006 0.92648 0.92053 0.0
C170 C 0.38365 0.95074 0.93484 0.0
C171 C 0.4043 0.97826 0.95456 0.0
C172 C 0.45759 0.95667 0.94787 0.0
C173 C 0.43704 0.92931 0.92783 0.0
C174 C 0.46362 1.01301 0.97788 0.0
C175 C 0.51924 0.97829 0.08456 0.0
H176 H 0.74441 0.12836 0.16545 0.0
H177 H 0.70985 0.08297 0.12689 0.0
H178 H 0.60912 0.10384 0.16009 0.0
H179 H 0.64372 0.14943 0.19894 0.0
H180 H 0.35531 0.9494 0.92931 0.0
H181 H 0.39147 0.9974 0.96415 0.0
H182 H 0.48626 0.95871 0.95248 0.0
H183 H 0.45025 0.91082 0.91734 0.0
Tb184 Tb 0.55884 0.50885 0.52727 0.0
Tb185 Tb 0.56181 0.57805 0.5728 0.0
C186 C 0.52747 0.56715 0.49567 0.0
C187 C 0.59216 0.44107 0.48714 0.0
C188 C 0.65087 0.41154 0.47857 0.0
C189 C 0.61783 0.39823 0.46038 0.0
C190 C 0.58858 0.41284 0.46478 0.0
C191 C 0.62533 0.4548 0.50473 0.0
C192 C 0.65435 0.44012 0.50058 0.0
C193 C 0.56159 0.45633 0.49258 0.0
O194 O 0.60822 0.54688 0.50992 0.0
O195 O 0.61841 0.58606 0.55503 0.0
O196 O 0.57753 0.54335 0.60984 0.0
O197 O 0.59438 0.50625 0.57191 0.0
O198 O 0.57084 0.63146 0.57558 0.0
O199 O 0.55342 0.60023 0.6209 0.0
O200 O 0.50474 0.54773 0.57493 0.0
O201 O 0.51148 0.49457 0.56234 0.0
O202 O 0.52343 0.53393 0.49803 0.0
O203 O 0.546 0.58836 0.51957 0.0
C204 C 0.62931 0.57358 0.52625 0.0
O205 O 0.54968 0.45553 0.52467 0.0
O206 O 0.56582 0.48636 0.47883 0.0
C207 C 0.59272 0.51825 0.60386 0.0
C208 C 0.52678 0.64501 0.61213 0.0
C209 C 0.46518 0.66971 0.62415 0.0
C210 C 0.49919 0.6864 0.63916 0.0
C211 C 0.52979 0.67394 0.63336 0.0
C212 C 0.49313 0.62897 0.5964 0.0
C213 C 0.46259 0.64106 0.6025 0.0
C214 C 0.55789 0.63034 0.6073 0.0
C215 C 0.4925 0.51426 0.57594 0.0
H216 H 0.61437 0.37614 0.44336 0.0
H217 H 0.56316 0.40201 0.45096 0.0
H218 H 0.62873 0.47684 0.52181 0.0
H219 H 0.67965 0.45128 0.51447 0.0
H220 H 0.50187 0.70855 0.65595 0.0
H221 H 0.55558 0.6866 0.64573 0.0
H222 H 0.49036 0.60684 0.57961 0.0
H223 H 0.43691 0.62806 0.59012 0.0
Tb224 Tb 0.05458 0.56403 1.02968 0.0
Tb225 Tb 0.04896 0.49807 0.07854 0.0
C226 C 0.08042 0.50009 1.00099 0.0
C227 C 0.02311 0.63134 0.9893 0.0
C228 C 0.95783 0.65087 0.9808 0.0
C229 C 0.98062 0.64988 0.95185 0.0
C230 C 1.013 0.64014 0.9561 0.0
C231 C 1.00121 0.63375 1.01845 0.0
C232 C 0.96905 0.64362 1.01426 0.0
C233 C 0.05282 0.61465 0.99264 0.0
O234 O 0.99639 0.53639 1.02945 0.0
O235 O 1.00019 0.48324 0.04553 0.0
O236 O 0.01576 0.52688 0.10668 0.0
O237 O 0.04066 0.5793 0.08225 0.0
O238 O 0.04348 0.44539 0.08334 0.0
O239 O 0.04962 0.47783 0.1289 0.0
O240 O 0.09892 0.53602 0.09484 0.0
O241 O 0.11123 0.5703 0.04648 0.0
O242 O 0.06622 0.52553 0.99405 0.0
O243 O 0.08306 0.49067 1.03368 0.0
C244 C 0.9823 0.50307 1.03081 0.0
O245 O 0.06901 0.61735 1.02299 0.0
O246 O 0.04475 0.5834 0.98088 0.0
C247 C 0.02188 0.56046 0.10753 0.0
C248 C 0.08144 0.43601 0.12818 0.0
C249 C 0.14214 0.41418 0.15006 0.0
C250 C 0.10631 0.39467 0.15777 0.0
C251 C 0.07613 0.4056 0.14697 0.0
C252 C 0.1171 0.45534 0.12015 0.0
C253 C 0.14719 0.44461 0.13112 0.0
C254 C 0.05017 0.44795 0.1168 0.0
C255 C 0.12129 0.56031 0.07671 0.0
H256 H 0.9726 0.65506 0.9257 0.0
H257 H 0.02924 0.63792 0.93324 0.0
H258 H 1.00813 0.62667 0.04432 0.0
H259 H 0.95248 0.64477 0.03717 0.0
H260 H 0.10166 0.37121 0.17253 0.0
H261 H 0.04875 0.39042 0.15333 0.0
H262 H 0.12166 0.47874 0.10532 0.0
H263 H 0.17441 0.4599 0.12435 0.0
H264 H 0.33664 0.30489 0.33768 0.0
H265 H 0.35269 0.21576 0.28437 0.0
H266 H 0.30392 0.26859 0.38447 0.0
H267 H 0.32224 0.17999 0.33207 0.0
H268 H 0.21932 0.12328 0.38987 0.0
H269 H 0.2593 0.16086 0.34851 0.0
H270 H 0.30505 0.23078 0.43287 0.0
H271 H 0.26412 0.19309 0.47438 0.0
C272 C 0.33384 0.27766 0.33627 0.0
C273 C 0.34687 0.26324 0.30699 0.0
C274 C 0.3154 0.2569 0.36328 0.0
C275 C 0.30989 0.22131 0.36169 0.0
C276 C 0.32526 0.20724 0.33368 0.0
C277 C 0.34333 0.2279 0.30655 0.0
C278 C 0.23809 0.14657 0.39962 0.0
C279 C 0.23883 0.15519 0.43533 0.0
C280 C 0.26119 0.16804 0.37596 0.0
C281 C 0.28583 0.19859 0.38744 0.0
C282 C 0.28629 0.20748 0.42318 0.0
C283 C 0.26289 0.18599 0.44691 0.0
H284 H 0.24532 0.77271 0.79174 0.0
H285 H 0.28893 0.86442 0.73194 0.0
H286 H 0.28837 0.79635 0.83952 0.0
H287 H 0.33209 0.88775 0.779 0.0
H288 H 0.42331 0.9105 0.85676 0.0
H289 H 0.38665 0.87511 0.81094 0.0
H290 H 0.29359 0.84957 0.8807 0.0
H291 H 0.33034 0.88496 0.92673 0.0
C292 C 0.26454 0.79764 0.78873 0.0
C293 C 0.26397 0.81695 0.75851 0.0
C294 C 0.28896 0.81114 0.81592 0.0
C295 C 0.31356 0.84376 0.81278 0.0
C296 C 0.31373 0.86238 0.7819 0.0
C297 C 0.28897 0.84919 0.75513 0.0
C298 C 0.39533 0.89659 0.86264 0.0
C299 C 0.37956 0.90061 0.89521 0.0
C300 C 0.37434 0.87655 0.83636 0.0
C301 C 0.33731 0.85985 0.84229 0.0
C302 C 0.32215 0.86204 0.87557 0.0
C303 C 0.34305 0.88245 0.90176 0.0
H304 H 0.63255 0.37444 0.762 0.0
H305 H 0.6848 0.47378 0.8051 0.0
H306 H 0.61827 0.40128 0.70837 0.0
H307 H 0.67102 0.50071 0.75173 0.0
H308 H 0.5997 0.53939 0.67294 0.0
H309 H 0.61986 0.51242 0.72305 0.0
H310 H 0.63886 0.43344 0.65529 0.0
H311 H 0.61831 0.46042 0.60496 0.0
C312 C 0.64174 0.40199 0.75972 0.0
C313 C 0.65995 0.4218 0.78804 0.0
C314 C 0.63348 0.41752 0.72889 0.0
C315 C 0.64293 0.45347 0.72539 0.0
C316 C 0.66247 0.47309 0.7533 0.0
C317 C 0.67084 0.45757 0.78395 0.0
C318 C 0.60837 0.5164 0.66848 0.0
C319 C 0.60727 0.50237 0.63445 0.0
C320 C 0.62023 0.50088 0.69745 0.0
C321 C 0.63128 0.47051 0.69374 0.0
C322 C 0.63035 0.45653 0.65964 0.0
C323 C 0.61874 0.47224 0.63054 0.0
H324 H 0.99847 0.7094 0.2707 0.0
H325 H 0.903 0.6251 0.28595 0.0
H326 H 0.02024 0.67698 0.22515 0.0
H327 H 0.92419 0.5926 0.23988 0.0
H328 H 0.98406 0.53238 0.16773 0.0
H329 H 0.96488 0.5619 0.21754 0.0
H330 H 1.00978 0.65866 0.16657 0.0
H331 H 0.0293 0.62933 0.11743 0.0
C332 C 0.98234 0.68365 0.26475 0.0
C333 C 0.94889 0.67007 0.28233 0.0
C334 C 0.99458 0.66504 0.23805 0.0
C335 C 0.97393 0.63194 0.22775 0.0
C336 C 0.94128 0.61774 0.24665 0.0
C337 C 0.92902 0.63644 0.27335 0.0
C338 C 0.9898 0.55996 0.16704 0.0
C339 C 1.00845 0.57815 0.13806 0.0
C340 C 0.97863 0.57707 0.19581 0.0
C341 C 0.98577 0.61311 0.19689 0.0
C342 C 1.00419 0.63112 0.16768 0.0
C343 C 0.01522 0.61407 0.139 0.0
H344 H 0.44851 0.26236 0.11617 0.0
H345 H 0.41318 0.20585 0.21104 0.0
H346 H 0.48046 0.22026 0.09804 0.0
H347 H 0.44507 0.16332 0.19281 0.0
H348 H 0.53014 0.10635 0.15087 0.0
H349 H 0.50764 0.15267 0.17615 0.0
H350 H 0.45126 0.15934 0.07952 0.0
H351 H 0.47317 0.11366 0.05446 0.0
C352 C 0.44815 0.24118 0.13337 0.0
C353 C 0.42794 0.23683 0.16461 0.0
C354 C 0.46628 0.21706 0.123 0.0
C355 C 0.46466 0.18825 0.14377 0.0
C356 C 0.44673 0.18528 0.17634 0.0
C357 C 0.42845 0.20944 0.18668 0.0
C358 C 0.51278 0.11762 0.13517 0.0
C359 C 0.50356 0.10629 0.10061 0.0
C360 C 0.49998 0.1441 0.14962 0.0
C361 C 0.47823 0.15991 0.12956 0.0
C362 C 0.46863 0.14815 0.09534 0.0
C363 C 0.48101 0.12168 0.0811 0.0
H364 H 0.14315 0.84179 0.73703 0.0
H365 H 0.18138 0.8403 0.63049 0.0
H366 H 0.11213 0.88534 0.72114 0.0
H367 H 0.15069 0.88381 0.61477 0.0
H368 H 0.14042 0.994 0.6179 0.0
H369 H 0.16523 0.9476 0.63633 0.0
H370 H 0.05966 0.89325 0.67741 0.0
H371 H 0.03425 0.93971 0.65847 0.0
C372 C 0.14448 0.85048 0.71018 0.0
C373 C 0.16461 0.83775 0.68496 0.0
C374 C 0.12669 0.87522 0.70111 0.0
C375 C 0.12937 0.88801 0.66686 0.0
C376 C 0.14851 0.87449 0.64144 0.0
C377 C 0.16576 0.84943 0.65034 0.0
C378 C 0.12245 0.97242 0.63119 0.0
C379 C 0.0853 0.97052 0.63663 0.0
C380 C 0.13666 0.94574 0.64147 0.0
C381 C 0.11421 0.91678 0.65785 0.0
C382 C 0.07744 0.91536 0.66473 0.0
C383 C 0.06299 0.94191 0.65392 0.0
H384 H 0.76821 0.44996 0.92053 0.0
H385 H 0.80301 0.3574 0.92331 0.0
H386 H 0.82339 0.48014 0.95263 0.0
H387 H 0.85837 0.38736 0.95411 0.0
H388 H 0.9389 0.43734 0.03748 0.0
H389 H 0.88221 0.40987 1.00728 0.0
H390 H 0.88699 0.50422 0.95355 0.0
H391 H 0.94313 0.53207 0.98511 0.0
C392 C 0.78782 0.43612 0.92762 0.0
C393 C 0.78073 0.40104 0.91956 0.0
C394 C 0.81968 0.45346 0.94606 0.0
C395 C 0.84571 0.43638 0.95672 0.0
C396 C 0.83888 0.40151 0.94761 0.0
C397 C 0.807 0.38419 0.9296 0.0
C398 C 0.92779 0.45239 1.01944 0.0
C399 C 0.94594 0.48704 1.01388 0.0
C400 C 0.89521 0.43645 1.00167 0.0
C401 C 0.87968 0.45438 0.9772 0.0
C402 C 0.89749 0.48934 0.97223 0.0
C403 C 0.92997 0.50541 0.99036 0.0
H404 H 0.84545 0.62984 0.42134 0.0
H405 H 0.8136 0.72378 0.43143 0.0
H406 H 0.78844 0.59899 0.45001 0.0
H407 H 0.7572 0.69316 0.46039 0.0
H408 H 0.67701 0.63586 0.54357 0.0
H409 H 0.73469 0.66493 0.51505 0.0
H410 H 0.72217 0.5797 0.44364 0.0
H411 H 0.66481 0.55054 0.4723 0.0
C412 C 0.82624 0.64395 0.42926 0.0
C413 C 0.83473 0.67957 0.42418 0.0
C414 C 0.79345 0.62621 0.4459 0.0
C415 C 0.7681 0.6435 0.45812 0.0
C416 C 0.77623 0.67894 0.45227 0.0
C417 C 0.80879 0.69658 0.4355 0.0
C418 C 0.68663 0.62315 0.52197 0.0
C419 C 0.6659 0.59076 0.51036 0.0
C420 C 0.7197 0.64 0.50533 0.0
C421 C 0.73332 0.62491 0.4767 0.0
C422 C 0.71297 0.59217 0.46566 0.0
C423 C 0.67979 0.57545 0.4821 0.0
H424 H 0.31831 0.31642 0.16621 0.0
H425 H 0.32279 0.37205 0.26371 0.0
H426 H 0.27016 0.34075 0.14534 0.0
H427 H 0.274 0.39594 0.24302 0.0
H428 H 0.20512 0.4527 0.18024 0.0
H429 H 0.25869 0.4342 0.19766 0.0
H430 H 0.2049 0.33149 0.16316 0.0
H431 H 0.15168 0.3501 0.1452 0.0
C432 C 0.30958 0.33446 0.18287 0.0
C433 C 0.32434 0.34241 0.21659 0.0
C434 C 0.28168 0.348 0.1711 0.0
C435 C 0.26807 0.3699 0.19272 0.0
C436 C 0.28405 0.37921 0.22576 0.0
C437 C 0.31183 0.36546 0.23764 0.0
C438 C 0.20489 0.42622 0.17621 0.0
C439 C 0.17426 0.40281 0.16137 0.0
C440 C 0.23542 0.41562 0.18637 0.0
C441 C 0.23602 0.38148 0.18158 0.0
C442 C 0.20539 0.35809 0.16673 0.0
C443 C 0.17477 0.36862 0.15683 0.0
H444 H 0.72856 0.28205 0.92652 0.0
H445 H 0.62162 0.29248 0.89984 0.0
H446 H 0.70061 0.22725 0.95346 0.0
H447 H 0.59357 0.23662 0.92623 0.0
H448 H 0.55999 0.11898 0.95139 0.0
H449 H 0.58615 0.17354 0.92178 0.0
H450 H 0.6646 0.20449 1.00535 0.0
H451 H 0.63857 0.15031 1.03484 0.0
C452 C 0.69899 0.27295 0.92653 0.0
C453 C 0.67759 0.29265 0.91134 0.0
C454 C 0.68288 0.24115 0.94204 0.0
C455 C 0.64463 0.2273 0.94266 0.0
C456 C 0.62311 0.24621 0.9263 0.0
C457 C 0.63929 0.27838 0.91101 0.0
C458 C 0.58289 0.13736 0.96345 0.0
C459 C 0.59711 0.12981 0.99563 0.0
C460 C 0.59778 0.16888 0.94651 0.0
C461 C 0.62775 0.19374 0.9609 0.0
C462 C 0.64192 0.18606 0.99303 0.0
C463 C 0.62678 0.15484 1.01014 0.0
H464 H 0.92319 0.76663 0.48182 0.0
H465 H 0.96608 0.81271 0.38359 0.0
H466 H 0.94548 0.82135 0.51138 0.0
H467 H 0.98975 0.86786 0.41392 0.0
H468 H 0.05536 0.95397 0.49167 0.0
H469 H 0.03464 0.9 0.4591 0.0
H470 H 0.93196 0.8773 0.51489 0.0
H471 H 0.9525 0.93126 0.54719 0.0
C472 C 0.93717 0.78842 0.46622 0.0
C473 C 0.94177 0.78477 0.42973 0.0
C474 C 0.95014 0.82009 0.48346 0.0
C475 C 0.96902 0.84962 0.46524 0.0
C476 C 0.97532 0.84588 0.42905 0.0
C477 C 0.96181 0.81405 0.41157 0.0
C478 C 0.02827 0.93759 0.49698 0.0
C479 C 1.00576 0.94738 0.52235 0.0
C480 C 0.01627 0.90655 0.47804 0.0
C481 C 0.98154 0.8838 0.48419 0.0
C482 C 0.95902 0.8937 0.50948 0.0
C483 C 0.97077 0.92495 0.52799 0.0
H484 H 0.24412 0.68438 0.60935 0.0
H485 H 0.29859 0.78052 0.65832 0.0
H486 H 0.30064 0.66682 0.61156 0.0
H487 H 0.35514 0.76263 0.66198 0.0
H488 H 0.45844 0.73489 0.61959 0.0
H489 H 0.40236 0.75327 0.62446 0.0
H490 H 0.34173 0.64983 0.64947 0.0
H491 H 0.39755 0.63152 0.64354 0.0
C492 C 0.26823 0.70157 0.62091 0.0
C493 C 0.2673 0.73391 0.63324 0.0
C494 C 0.30057 0.69147 0.6225 0.0
C495 C 0.33258 0.71332 0.63693 0.0
C496 C 0.33122 0.74538 0.65019 0.0
C497 C 0.29887 0.75556 0.64834 0.0
C498 C 0.43315 0.71627 0.62655 0.0
C499 C 0.4322 0.68174 0.63079 0.0
C500 C 0.40101 0.72676 0.62945 0.0
C501 C 0.36736 0.70295 0.63697 0.0
C502 C 0.36692 0.6687 0.64279 0.0
C503 C 0.39891 0.65821 0.63954 0.0
H504 H 0.70156 0.80012 0.81506 0.0
H505 H 0.80498 0.81273 0.86739 0.0
H506 H 0.73369 0.82191 0.76093 0.0
H507 H 0.83726 0.83597 0.81415 0.0
H508 H 0.89216 0.8742 0.71555 0.0
H509 H 0.85559 0.83214 0.75565 0.0
H510 H 0.76514 0.87688 0.74288 0.0
H511 H 0.80072 0.91711 0.70114 0.0
C512 C 0.73121 0.80719 0.81473 0.0
C513 C 0.75087 0.80505 0.84531 0.0
C514 C 0.74965 0.81984 0.78387 0.0
C515 C 0.78812 0.83127 0.7832 0.0
C516 C 0.80768 0.82707 0.81337 0.0
C517 C 0.78922 0.81389 0.84404 0.0
C518 C 0.86404 0.87428 0.72041 0.0
C519 C 0.84957 0.89944 0.70566 0.0
C520 C 0.84321 0.85043 0.74379 0.0
C521 C 0.8076 0.85145 0.75315 0.0
C522 C 0.79232 0.87503 0.73631 0.0
C523 C 0.81296 0.89855 0.71269 0.0
H524 H 0.87792 0.23297 0.31351 0.0
H525 H 0.79294 0.26396 0.36948 0.0
H526 H 0.8357 0.21116 0.26574 0.0
H527 H 0.75059 0.24284 0.32096 0.0
H528 H 0.68011 0.15073 0.25379 0.0
H529 H 0.71949 0.18576 0.29802 0.0
H530 H 0.8006 0.22647 0.21856 0.0
H531 H 0.76129 0.19115 0.17438 0.0
C532 C 0.85024 0.23544 0.31537 0.0
C533 C 0.83858 0.24978 0.34536 0.0
C534 C 0.82614 0.22332 0.28781 0.0
C535 C 0.78974 0.22524 0.28954 0.0
C536 C 0.77839 0.24076 0.319 0.0
C537 C 0.80266 0.25306 0.34662 0.0
C538 C 0.70595 0.1678 0.24563 0.0
C539 C 0.71785 0.16788 0.21072 0.0
C540 C 0.72851 0.18793 0.27098 0.0
C541 C 0.76338 0.20857 0.26187 0.0
C542 C 0.7742 0.2103 0.22652 0.0
C543 C 0.75171 0.19011 0.20123 0.0
H544 H 0.40844 0.60716 0.30709 0.0
H545 H 0.49713 0.698 0.32127 0.0
H546 H 0.42575 0.58349 0.36121 0.0
H547 H 0.5152 0.67435 0.3749 0.0
H548 H 0.52755 0.63406 0.48397 0.0
H549 H 0.50462 0.65855 0.43376 0.0
H550 H 0.46948 0.55848 0.38587 0.0
H551 H 0.49178 0.53386 0.43672 0.0
C552 C 0.43138 0.62233 0.32206 0.0
C553 C 0.45131 0.65459 0.30961 0.0
C554 C 0.44174 0.60853 0.35302 0.0
C555 C 0.47238 0.62652 0.37286 0.0
C556 C 0.4913 0.65948 0.36101 0.0
C557 C 0.48093 0.67323 0.33005 0.0
C558 C 0.51481 0.61709 0.46287 0.0
C559 C 0.51178 0.58174 0.46484 0.0
C560 C 0.50176 0.63131 0.43366 0.0
C561 C 0.48509 0.61086 0.40501 0.0
C562 C 0.48157 0.57536 0.40723 0.0
C563 C 0.49464 0.5611 0.43654 0.0
H564 H 0.13414 0.3482 0.85359 0.0
H565 H 0.15963 0.44351 0.79756 0.0
H566 H 0.11371 0.37629 0.90394 0.0
H567 H 0.14106 0.47164 0.84774 0.0
H568 H 0.07635 0.51124 0.93019 0.0
H569 H 0.09352 0.48061 0.88098 0.0
H570 H 0.1301 0.41494 0.9525 0.0
H571 H 0.11177 0.44535 1.00212 0.0
C572 C 0.13531 0.37505 0.85175 0.0
C573 C 0.14902 0.39327 0.821 0.0
C574 C 0.12397 0.39145 0.88103 0.0
C575 C 0.12555 0.4267 0.88068 0.0
C576 C 0.13869 0.44457 0.84962 0.0
C577 C 0.14997 0.42829 0.82058 0.0
C578 C 0.08818 0.49038 0.93571 0.0
C579 C 0.09272 0.48128 0.97069 0.0
C580 C 0.09835 0.47268 0.90712 0.0
C581 C 0.11374 0.44499 0.912 0.0
C582 C 0.11813 0.43571 0.94707 0.0
C583 C 0.10784 0.45348 0.97581 0.0
H584 H 0.64176 0.83731 0.89016 0.0
H585 H 0.70051 0.84451 0.98793 0.0
H586 H 0.61511 0.88266 0.90995 0.0
H587 H 0.6729 0.8888 1.00815 0.0
H588 H 0.65209 0.99338 1.01683 0.0
H589 H 0.67788 0.94853 0.99443 0.0
H590 H 0.57215 0.89439 0.95303 0.0
H591 H 0.54646 0.93942 0.97474 0.0
C592 C 0.64867 0.84833 0.916 0.0
C593 C 0.67321 0.8373 0.93748 0.0
C594 C 0.63327 0.87414 0.9274 0.0
C595 C 0.64218 0.88952 0.96049 0.0
C596 C 0.66597 0.87785 0.98229 0.0
C597 C 0.68131 0.85206 0.97092 0.0
C598 C 0.63441 0.9721 1.00266 0.0
C599 C 0.59719 0.96997 0.99771 0.0
C600 C 0.64912 0.94625 0.99008 0.0
C601 C 0.62694 0.91775 0.97228 0.0
C602 C 0.58999 0.91612 0.96644 0.0
C603 C 0.57527 0.94192 0.97902 0.0
H604 H 0.8769 0.17735 0.42618 0.0
H605 H 0.97858 0.25623 0.43742 0.0
H606 H 0.90503 0.13606 0.45208 0.0
H607 H 1.00658 0.21482 0.46422 0.0
H608 H 0.05063 0.12042 0.48527 0.0
H609 H 0.02517 0.1599 0.45171 0.0
H610 H 0.92575 0.12985 0.51276 0.0
H611 H 0.95077 0.09067 0.54594 0.0
C612 C 0.90542 0.18578 0.43376 0.0
C613 C 0.9255 0.22009 0.4298 0.0
C614 C 0.92143 0.16218 0.44887 0.0
C615 C 0.95792 0.17227 0.46035 0.0
C616 C 0.97846 0.2063 0.45541 0.0
C617 C 0.96234 0.23004 0.44042 0.0
C618 C 0.02323 0.1221 0.49126 0.0
C619 C 1.00274 0.10246 0.51829 0.0
C620 C 1.0088 0.14482 0.47222 0.0
C621 C 0.97345 0.14785 0.47957 0.0
C622 C 0.95288 0.12778 0.5062 0.0
C623 C 0.96737 0.10548 0.52538 0.0
H624 H 0.29729 0.65006 0.22568 0.0
H625 H 0.34652 0.68244 0.12526 0.0
H626 H 0.24111 0.61853 0.19645 0.0
H627 H 0.29066 0.65063 0.09595 0.0
H628 H 0.1721 0.61912 0.05487 0.0
H629 H 0.22951 0.64926 0.08317 0.0
H630 H 0.21166 0.57083 0.16212 0.0
H631 H 0.15402 0.54142 0.13445 0.0
C632 C 0.29641 0.65013 0.19733 0.0
C633 C 0.32673 0.66914 0.17806 0.0
C634 C 0.26399 0.63192 0.1804 0.0
C635 C 0.26075 0.63186 0.14353 0.0
C636 C 0.29139 0.65042 0.12429 0.0
C637 C 0.32369 0.66871 0.14122 0.0
C638 C 0.18051 0.60816 0.07813 0.0
C639 C 0.15804 0.57774 0.09223 0.0
C640 C 0.2137 0.62546 0.09444 0.0
C641 C 0.22567 0.61285 0.12535 0.0
C642 C 0.20343 0.582 0.13893 0.0
C643 C 0.17025 0.56484 0.12275 0.0
H644 H 0.3304 0.37934 0.70916 0.0
H645 H 0.28494 0.46494 0.69685 0.0
H646 H 0.37974 0.40526 0.66894 0.0
H647 H 0.33386 0.4908 0.65528 0.0
H648 H 0.45077 0.54568 0.61667 0.0
H649 H 0.39671 0.51916 0.65145 0.0
H650 H 0.39914 0.41991 0.61181 0.0
H651 H 0.45395 0.44639 0.57811 0.0
C652 C 0.33042 0.4034 0.69709 0.0
C653 C 0.30321 0.41971 0.70584 0.0
C654 C 0.35884 0.41836 0.67379 0.0
C655 C 0.36122 0.45033 0.65837 0.0
C656 C 0.33351 0.46641 0.66671 0.0
C657 C 0.30507 0.4514 0.69023 0.0
C658 C 0.43964 0.5182 0.6151 0.0
C659 C 0.45713 0.49829 0.59453 0.0
C660 C 0.4083 0.50288 0.63504 0.0
C661 C 0.3932 0.46711 0.63498 0.0
C662 C 0.41009 0.44739 0.61342 0.0
C663 C 0.44156 0.46267 0.59371 0.0
H664 H 0.76107 0.6984 0.90346 0.0
H665 H 0.74901 0.69327 1.01584 0.0
H666 H 0.81813 0.68148 0.90796 0.0
H667 H 0.80601 0.67643 1.02056 0.0
H668 H 0.89326 0.61825 1.01227 0.0
H669 H 0.83375 0.62943 1.0054 0.0
H670 H 0.88042 0.70905 0.9311 0.0
H671 H 0.94022 0.69816 0.93824 0.0
C672 C 0.77037 0.69297 0.92903 0.0
C673 C 0.75048 0.69644 0.95927 0.0
C674 C 0.8031 0.68364 0.93166 0.0
C675 C 0.81653 0.67771 0.96461 0.0
C676 C 0.79608 0.68039 0.99478 0.0
C677 C 0.76349 0.68993 0.99214 0.0
C678 C 0.89096 0.63841 0.99474 0.0
C679 C 0.92158 0.65758 0.97607 0.0
C680 C 0.85682 0.64468 0.99071 0.0
C681 C 0.85245 0.67011 0.96776 0.0
C682 C 0.88288 0.68896 0.94864 0.0
C683 C 0.91712 0.68278 0.95278 0.0
H684 H 0.37537 0.79203 0.17882 0.0
H685 H 0.48333 0.77749 0.18821 0.0
H686 H 0.40116 0.8478 0.15283 0.0
H687 H 0.50944 0.83316 0.16112 0.0
H688 H 0.55067 0.94711 0.13507 0.0
H689 H 0.5253 0.89259 0.16408 0.0
H690 H 0.42631 0.8774 0.10329 0.0
H691 H 0.45128 0.93255 0.07538 0.0
C692 C 0.40473 0.80061 0.17511 0.0
C693 C 0.42708 0.77977 0.18556 0.0
C694 C 0.41967 0.83282 0.15987 0.0
C695 C 0.45767 0.84556 0.1541 0.0
C696 C 0.48015 0.82493 0.16523 0.0
C697 C 0.46514 0.79273 0.18084 0.0
C698 C 0.52338 0.93226 0.12795 0.0
C699 C 0.50313 0.94472 0.10279 0.0
C700 C 0.5088 0.90057 0.14452 0.0
C701 C 0.47343 0.87986 0.13643 0.0
C702 C 0.45326 0.89241 0.11112 0.0
C703 C 0.46775 0.92424 0.09477 0.0
H704 H 0.09044 0.29099 0.74099 0.0
H705 H 0.20073 0.2842 0.72404 0.0
H706 H 0.06689 0.23559 0.71106 0.0
H707 H 0.17746 0.22988 0.69384 0.0
H708 H 0.1281 0.15458 0.60548 0.0
H709 H 0.14875 0.20797 0.63852 0.0
H710 H 0.06013 0.17277 0.71193 0.0
H711 H 0.03944 0.11912 0.67879 0.0
C712 C 0.10974 0.27768 0.73136 0.0
C713 C 0.1477 0.2929 0.7347 0.0
C714 C 0.09619 0.2458 0.71396 0.0
C715 C 0.12014 0.22814 0.69912 0.0
C716 C 0.15794 0.24278 0.70382 0.0
C717 C 0.17137 0.27424 0.72136 0.0
C718 C 0.11291 0.15803 0.62866 0.0
C719 C 0.08205 0.13201 0.63927 0.0
C720 C 0.12494 0.18882 0.64787 0.0
C721 C 0.1064 0.19511 0.67832 0.0
C722 C 0.07517 0.16929 0.68866 0.0
C723 C 0.06339 0.13825 0.66965 0.0
H724 H 0.85862 0.37551 0.42411 0.0
H725 H 0.81978 0.3057 0.5092 0.0
H726 H 0.80029 0.39053 0.42377 0.0
H727 H 0.76153 0.32054 0.5089 0.0
H728 H 0.6921 0.39619 0.531 0.0
H729 H 0.74515 0.37352 0.52584 0.0
H730 H 0.73235 0.36795 0.41337 0.0
H731 H 0.67925 0.39123 0.41856 0.0
C732 C 0.83725 0.36284 0.44216 0.0
C733 C 0.84345 0.33914 0.46638 0.0
C734 C 0.80389 0.37136 0.44196 0.0
C735 C 0.77639 0.35678 0.4664 0.0
C736 C 0.78232 0.3324 0.48996 0.0
C737 C 0.81553 0.32374 0.48999 0.0
C738 C 0.70056 0.39009 0.50517 0.0
C739 C 0.68168 0.39567 0.47517 0.0
C740 C 0.73072 0.37678 0.50223 0.0
C741 C 0.74288 0.36889 0.46919 0.0
C742 C 0.7237 0.37398 0.43915 0.0
C743 C 0.69321 0.38704 0.44213 0.0
loop_
_geom_bond_atom_site_label_1
_geom_bond_atom_site_label_2
_geom_bond_distance
_geom_bond_site_symmetry_2
_ccdc_geom_bond_type
H0 C7 0.929 . S
H1 C10 0.930 . S
H2 C12 0.929 . S
H3 C4 0.969 . S
C4 H3 0.969 . S
C4 O5 1.550 . S
C4 H6 0.973 . S
O5 C4 1.550 . S
O5 C11 1.412 . S
H6 C4 0.973 . S
C7 H0 0.929 . S
C7 C8 1.400 . S
C7 C9 1.364 . S
C8 C7 1.400 . S
C8 C12 1.377 . S
C9 C7 1.364 . S
C9 C10 1.374 . S
C10 H1 0.930 . S
C10 C9 1.374 . S
C10 C11 1.383 . S
C11 O5 1.412 . S
C11 C10 1.383 . S
C11 C12 1.394 . S
C12 H2 0.929 . S
C12 C8 1.377 . S
C12 C11 1.394 . S
H13 C20 0.929 . S
H14 C23 0.930 . S
H15 C25 0.929 . S
H16 C17 0.969 . S
C17 H16 0.969 . S
C17 O18 1.550 . S
C17 H19 0.973 . S
O18 C17 1.550 . S
O18 C24 1.412 . S
H19 C17 0.973 . S
C20 H13 0.929 . S
C20 C21 1.400 . S
C20 C22 1.364 . S
C21 C20 1.400 . S
C21 C25 1.377 . S
C22 C20 1.364 . S
C22 C23 1.374 . S
C23 H14 0.930 . S
C23 C22 1.374 . S
C23 C24 1.383 . S
C24 O18 1.412 . S
C24 C23 1.383 . S
C24 C25 1.394 . S
C25 H15 0.929 . S
C25 C21 1.377 . S
C25 C24 1.394 . S
H26 C33 0.929 . S
H27 C36 0.930 . S
H28 C38 0.929 . S
H29 C30 0.969 . S
C30 H29 0.969 . S
C30 O31 1.550 . S
C30 H32 0.973 . S
O31 C30 1.550 . S
O31 C37 1.412 . S
H32 C30 0.973 . S
C33 H26 0.929 . S
C33 C34 1.400 . S
C33 C35 1.364 . S
C34 C33 1.400 . S
C34 C38 1.377 . S
C35 C33 1.364 . S
C35 C36 1.374 . S
C36 H27 0.930 . S
C36 C35 1.374 . S
C36 C37 1.383 . S
C37 O31 1.412 . S
C37 C36 1.383 . S
C37 C38 1.394 . S
C38 H28 0.929 . S
C38 C34 1.377 . S
C38 C37 1.394 . S
H39 C46 0.929 . S
H40 C49 0.930 . S
H41 C51 0.929 . S
H42 C43 0.969 . S
C43 H42 0.969 . S
C43 O44 1.550 . S
C43 H45 0.973 . S
O44 C43 1.550 . S
O44 C50 1.412 . S
H45 C43 0.973 . S
C46 H39 0.929 . S
C46 C47 1.400 . S
C46 C48 1.364 . S
C47 C46 1.400 . S
C47 C51 1.377 . S
C48 C46 1.364 . S
C48 C49 1.374 . S
C49 H40 0.930 . S
C49 C48 1.374 . S
C49 C50 1.383 . S
C50 O44 1.412 . S
C50 C49 1.383 . S
C50 C51 1.394 . S
C51 H41 0.929 . S
C51 C47 1.377 . S
C51 C50 1.394 . S
H52 C59 0.929 . S
H53 C62 0.930 . S
H54 C64 0.929 . S
H55 C56 0.969 . S
C56 H55 0.969 . S
C56 O57 1.550 . S
C56 H58 0.973 . S
O57 C56 1.550 . S
O57 C63 1.412 . S
H58 C56 0.973 . S
C59 H52 0.929 . S
C59 C60 1.400 . S
C59 C61 1.364 . S
C60 C59 1.400 . S
C60 C64 1.377 . S
C61 C59 1.364 . S
C61 C62 1.374 . S
C62 H53 0.930 . S
C62 C61 1.374 . S
C62 C63 1.383 . S
C63 O57 1.412 . S
C63 C62 1.383 . S
C63 C64 1.394 . S
C64 H54 0.929 . S
C64 C60 1.377 . S
C64 C63 1.394 . S
H65 C72 0.929 . S
H66 C75 0.930 . S
H67 C77 0.929 . S
H68 C69 0.969 . S
C69 H68 0.969 . S
C69 O70 1.550 . S
C69 H71 0.973 . S
O70 C69 1.550 . S
O70 C76 1.412 . S
H71 C69 0.973 . S
C72 H65 0.929 . S
C72 C73 1.400 . S
C72 C74 1.364 . S
C73 C72 1.400 . S
C73 C77 1.377 . S
C74 C72 1.364 . S
C74 C75 1.374 . S
C75 H66 0.930 . S
C75 C74 1.374 . S
C75 C76 1.383 . S
C76 O70 1.412 . S
C76 C75 1.383 . S
C76 C77 1.394 . S
C77 H67 0.929 . S
C77 C73 1.377 . S
C77 C76 1.394 . S
H78 C85 0.929 . S
H79 C88 0.930 . S
H80 C90 0.929 . S
H81 C82 0.969 . S
C82 H81 0.969 . S
C82 O83 1.550 . S
C82 H84 0.973 . S
O83 C82 1.550 . S
O83 C89 1.412 . S
H84 C82 0.973 . S
C85 H78 0.929 . S
C85 C86 1.400 . S
C85 C87 1.364 . S
C86 C85 1.400 . S
C86 C90 1.377 . S
C87 C85 1.364 . S
C87 C88 1.374 . S
C88 H79 0.930 . S
C88 C87 1.374 . S
C88 C89 1.383 . S
C89 O83 1.412 . S
C89 C88 1.383 . S
C89 C90 1.394 . S
C90 H80 0.929 . S
C90 C86 1.377 . S
C90 C89 1.394 . S
H91 C98 0.929 . S
H92 C101 0.930 . S
H93 C103 0.929 . S
H94 C95 0.969 . S
C95 H94 0.969 . S
C95 O96 1.550 . S
C95 H97 0.973 . S
O96 C95 1.550 . S
O96 C102 1.412 . S
H97 C95 0.973 . S
C98 H91 0.929 . S
C98 C99 1.400 . S
C98 C100 1.364 . S
C99 C98 1.400 . S
C99 C103 1.377 . S
C100 C98 1.364 . S
C100 C101 1.374 . S
C101 H92 0.930 . S
C101 C100 1.374 . S
C101 C102 1.383 . S
C102 O96 1.412 . S
C102 C101 1.383 . S
C102 C103 1.394 . S
C103 H93 0.929 . S
C103 C99 1.377 . S
C103 C102 1.394 . S
Tb104 C113 2.764 . S
Tb104 O114 2.325 . S
Tb104 O117 2.303 . S
Tb104 O121 2.322 1_545 S
Tb104 O122 2.349 1_545 S
Tb104 O125 2.415 . S
Tb104 O126 2.399 . S
Tb105 O115 2.322 . S
Tb105 O116 2.349 1_655 S
Tb105 O118 2.415 1_545 S
Tb105 O119 2.399 . S
Tb105 O120 2.325 1_645 S
Tb105 O123 2.303 1_545 S
Tb105 C134 2.764 1_545 S
C106 O122 1.261 1_655 S
C106 O123 1.257 . S
C107 C110 1.358 . S
C107 C111 1.332 . S
C107 C113 1.504 . S
C108 C109 1.373 . S
C108 C112 1.308 . S
C109 C108 1.373 . S
C109 C110 1.429 . S
C109 H136 0.932 . S
C110 C107 1.358 . S
C110 C109 1.429 . S
C110 H137 0.930 . S
C111 C107 1.332 . S
C111 C112 1.394 . S
C111 H138 0.932 . S
C112 C108 1.308 . S
C112 C111 1.394 . S
C112 H139 0.929 . S
C113 Tb104 2.764 . S
C113 C107 1.504 . S
C113 O125 1.239 . S
C113 O126 1.263 . S
O114 Tb104 2.325 . S
O114 C124 1.236 1_455 S
O115 Tb105 2.322 . S
O115 C124 1.257 . S
O116 Tb105 2.349 1_455 S
O116 C127 1.261 . S
O117 Tb104 2.303 . S
O117 C127 1.257 . S
O118 Tb105 2.415 1_565 S
O118 C134 1.239 . S
O119 Tb105 2.399 . S
O119 C134 1.263 1_545 S
O120 Tb105 2.325 1_465 S
O120 C135 1.236 . S
O121 Tb104 2.322 1_565 S
O121 C135 1.257 . S
O122 Tb104 2.349 1_565 S
O122 C106 1.261 1_455 S
O123 Tb105 2.303 1_565 S
O123 C106 1.257 . S
C124 O114 1.236 1_655 S
C124 O115 1.257 . S
O125 Tb104 2.415 . S
O125 C113 1.239 . S
O126 Tb104 2.399 . S
O126 C113 1.263 . S
C127 O116 1.261 . S
C127 O117 1.257 . S
C128 C131 1.358 . S
C128 C132 1.332 . S
C128 C134 1.504 . S
C129 C130 1.373 . S
C129 C133 1.308 . S
C130 C129 1.373 . S
C130 C131 1.429 . S
C130 H140 0.932 . S
C131 C128 1.358 . S
C131 C130 1.429 . S
C131 H141 0.930 . S
C132 C128 1.332 . S
C132 C133 1.394 . S
C132 H142 0.932 . S
C133 C129 1.308 . S
C133 C132 1.394 . S
C133 H143 0.929 . S
C134 Tb105 2.764 1_565 S
C134 O118 1.239 . S
C134 O119 1.263 1_565 S
C134 C128 1.504 . S
C135 O120 1.236 . S
C135 O121 1.257 . S
H136 C109 0.932 . S
H137 C110 0.930 . S
H138 C111 0.932 . S
H139 C112 0.929 . S
H140 C130 0.932 . S
H141 C131 0.930 . S
H142 C132 0.932 . S
H143 C133 0.929 . S
Tb144 C153 2.764 . S
Tb144 O154 2.325 . S
Tb144 O157 2.303 . S
Tb144 O161 2.322 1_545 S
Tb144 O162 2.349 1_545 S
Tb144 O165 2.415 . S
Tb144 O166 2.399 . S
Tb145 O155 2.322 . S
Tb145 O156 2.349 1_556 S
Tb145 O158 2.415 1_545 S
Tb145 O159 2.399 1_545 S
Tb145 O160 2.325 1_546 S
Tb145 O163 2.303 1_545 S
Tb145 C174 2.764 1_545 S
C146 O162 1.261 1_556 S
C146 O163 1.257 . S
C147 C150 1.358 . S
C147 C151 1.332 . S
C147 C153 1.504 . S
C148 C149 1.373 . S
C148 C152 1.308 . S
C149 C148 1.373 . S
C149 C150 1.429 . S
C149 H176 0.932 . S
C150 C147 1.358 . S
C150 C149 1.429 . S
C150 H177 0.930 . S
C151 C147 1.332 . S
C151 C152 1.394 . S
C151 H178 0.932 . S
C152 C148 1.308 . S
C152 C151 1.394 . S
C152 H179 0.929 . S
C153 Tb144 2.764 . S
C153 C147 1.504 . S
C153 O165 1.239 . S
C153 O166 1.263 . S
O154 Tb144 2.325 . S
O154 C164 1.236 1_554 S
O155 Tb145 2.322 . S
O155 C164 1.257 . S
O156 Tb145 2.349 1_554 S
O156 C167 1.261 . S
O157 Tb144 2.303 . S
O157 C167 1.257 . S
O158 Tb145 2.415 1_565 S
O158 C174 1.239 . S
O159 Tb145 2.399 1_565 S
O159 C174 1.263 . S
O160 Tb145 2.325 1_564 S
O160 C175 1.236 . S
O161 Tb144 2.322 1_565 S
O161 C175 1.257 . S
O162 Tb144 2.349 1_565 S
O162 C146 1.261 1_554 S
O163 Tb145 2.303 1_565 S
O163 C146 1.257 . S
C164 O154 1.236 1_556 S
C164 O155 1.257 . S
O165 Tb144 2.415 . S
O165 C153 1.239 . S
O166 Tb144 2.399 . S
O166 C153 1.263 . S
C167 O156 1.261 . S
C167 O157 1.257 . S
C168 C171 1.358 . S
C168 C172 1.332 . S
C168 C174 1.504 . S
C169 C170 1.373 . S
C169 C173 1.308 . S
C170 C169 1.373 . S
C170 C171 1.429 . S
C170 H180 0.932 . S
C171 C168 1.358 . S
C171 C170 1.429 . S
C171 H181 0.930 . S
C172 C168 1.332 . S
C172 C173 1.394 . S
C172 H182 0.932 . S
C173 C169 1.308 . S
C173 C172 1.394 . S
C173 H183 0.929 . S
C174 Tb145 2.764 1_565 S
C174 O158 1.239 . S
C174 O159 1.263 . S
C174 C168 1.504 . S
C175 O160 1.236 . S
C175 O161 1.257 . S
H176 C149 0.932 . S
H177 C150 0.930 . S
H178 C151 0.932 . S
H179 C152 0.929 . S
H180 C170 0.932 . S
H181 C171 0.930 . S
H182 C172 0.932 . S
H183 C173 0.929 . S
Tb184 C193 2.764 . S
Tb184 O194 2.325 . S
Tb184 O197 2.303 . S
Tb184 O201 2.322 . S
Tb184 O202 2.349 . S
Tb184 O205 2.415 . S
Tb184 O206 2.399 . S
Tb185 O195 2.322 . S
Tb185 O196 2.349 . S
Tb185 O198 2.415 . S
Tb185 O199 2.399 . S
Tb185 O200 2.325 . S
Tb185 O203 2.303 . S
Tb185 C214 2.764 . S
C186 O202 1.261 . S
C186 O203 1.257 . S
C187 C190 1.358 . S
C187 C191 1.332 . S
C187 C193 1.504 . S
C188 C189 1.373 . S
C188 C192 1.308 . S
C189 C188 1.373 . S
C189 C190 1.429 . S
C189 H216 0.932 . S
C190 C187 1.358 . S
C190 C189 1.429 . S
C190 H217 0.930 . S
C191 C187 1.332 . S
C191 C192 1.394 . S
C191 H218 0.932 . S
C192 C188 1.308 . S
C192 C191 1.394 . S
C192 H219 0.929 . S
C193 Tb184 2.764 . S
C193 C187 1.504 . S
C193 O205 1.239 . S
C193 O206 1.263 . S
O194 Tb184 2.325 . S
O194 C204 1.236 . S
O195 Tb185 2.322 . S
O195 C204 1.257 . S
O196 Tb185 2.349 . S
O196 C207 1.261 . S
O197 Tb184 2.303 . S
O197 C207 1.257 . S
O198 Tb185 2.415 . S
O198 C214 1.239 . S
O199 Tb185 2.399 . S
O199 C214 1.263 . S
O200 Tb185 2.325 . S
O200 C215 1.236 . S
O201 Tb184 2.322 . S
O201 C215 1.257 . S
O202 Tb184 2.349 . S
O202 C186 1.261 . S
O203 Tb185 2.303 . S
O203 C186 1.257 . S
C204 O194 1.236 . S
C204 O195 1.257 . S
O205 Tb184 2.415 . S
O205 C193 1.239 . S
O206 Tb184 2.399 . S
O206 C193 1.263 . S
C207 O196 1.261 . S
C207 O197 1.257 . S
C208 C211 1.358 . S
C208 C212 1.332 . S
C208 C214 1.504 . S
C209 C210 1.373 . S
C209 C213 1.308 . S
C210 C209 1.373 . S
C210 C211 1.429 . S
C210 H220 0.932 . S
C211 C208 1.358 . S
C211 C210 1.429 . S
C211 H221 0.930 . S
C212 C208 1.332 . S
C212 C213 1.394 . S
C212 H222 0.932 . S
C213 C209 1.308 . S
C213 C212 1.394 . S
C213 H223 0.929 . S
C214 Tb185 2.764 . S
C214 O198 1.239 . S
C214 O199 1.263 . S
C214 C208 1.504 . S
C215 O200 1.236 . S
C215 O201 1.257 . S
H216 C189 0.932 . S
H217 C190 0.930 . S
H218 C191 0.932 . S
H219 C192 0.929 . S
H220 C210 0.932 . S
H221 C211 0.930 . S
H222 C212 0.932 . S
H223 C213 0.929 . S
Tb224 C233 2.764 1_454 S
Tb224 O234 2.325 1_455 S
Tb224 O237 2.303 . S
Tb224 O241 2.322 . S
Tb224 O242 2.349 1_554 S
Tb224 O245 2.415 1_455 S
Tb224 O246 2.399 1_454 S
Tb225 O235 2.322 1_455 S
Tb225 O236 2.357 . S
Tb225 O238 2.415 . S
Tb225 O239 2.399 . S
Tb225 O240 2.325 . S
Tb225 O243 2.303 . S
Tb225 C254 2.764 . S
C226 O242 1.261 . S
C226 O243 1.257 1_556 S
C227 C230 1.358 . S
C227 C231 1.332 . S
C227 C233 1.504 . S
C228 C229 1.373 . S
C228 C232 1.308 . S
C229 C228 1.373 . S
C229 C230 1.429 . S
C229 H256 0.932 . S
C230 C227 1.358 . S
C230 C229 1.429 . S
C230 H257 0.930 . S
C231 C227 1.332 . S
C231 C232 1.394 . S
C231 H258 0.932 1_556 S
C232 C228 1.308 . S
C232 C231 1.394 . S
C232 H259 0.929 . S
C233 Tb224 2.764 1_656 S
C233 C227 1.504 . S
C233 O245 1.239 1_556 S
C233 O246 1.263 . S
O234 Tb224 2.325 1_655 S
O234 C244 1.236 . S
O235 Tb225 2.322 1_655 S
O235 C244 1.257 . S
O236 Tb225 2.357 . S
O236 C247 1.256 1_455 S
O237 Tb224 2.303 . S
O237 C247 1.257 1_455 S
O238 Tb225 2.415 . S
O238 C254 1.239 . S
O239 Tb225 2.399 . S
O239 C254 1.263 . S
O240 Tb225 2.325 . S
O240 C255 1.236 . S
O241 Tb224 2.322 . S
O241 C255 1.257 . S
O242 Tb224 2.349 1_556 S
O242 C226 1.261 . S
O243 Tb225 2.303 . S
O243 C226 1.257 1_554 S
C244 O234 1.236 . S
C244 O235 1.257 . S
O245 Tb224 2.415 1_655 S
O245 C233 1.239 1_554 S
O246 Tb224 2.399 1_656 S
O246 C233 1.263 . S
C247 O236 1.256 1_655 S
C247 O237 1.257 1_655 S
C248 C251 1.358 . S
C248 C252 1.332 . S
C248 C254 1.504 . S
C249 C250 1.373 . S
C249 C253 1.308 . S
C250 C249 1.373 . S
C250 C251 1.429 . S
C250 H260 0.932 . S
C251 C248 1.358 . S
C251 C250 1.429 . S
C251 H261 0.930 . S
C252 C248 1.332 . S
C252 C253 1.394 . S
C252 H262 0.932 . S
C253 C249 1.308 . S
C253 C252 1.394 . S
C253 H263 0.929 . S
C254 Tb225 2.764 . S
C254 O238 1.239 . S
C254 O239 1.263 . S
C254 C248 1.504 . S
C255 O240 1.236 . S
C255 O241 1.257 . S
H256 C229 0.932 . S
H257 C230 0.930 . S
H258 C231 0.932 1_554 S
H259 C232 0.929 . S
H260 C250 0.932 . S
H261 C251 0.930 . S
H262 C252 0.932 . S
H263 C253 0.929 . S
H264 C272 0.950 . S
H265 C277 0.950 . S
H266 C274 0.950 . S
H267 C276 0.950 . S
H268 C278 0.950 . S
H269 C280 0.950 . S
H270 C282 0.950 . S
H271 C283 0.950 . S
C272 H264 0.950 . S
C272 C273 1.386 . S
C272 C274 1.391 . S
C273 C272 1.386 . S
C273 C277 1.393 . S
C274 H266 0.950 . S
C274 C272 1.391 . S
C274 C275 1.400 . S
C275 C274 1.400 . S
C275 C276 1.398 . S
C275 C281 1.491 . S
C276 H267 0.950 . S
C276 C275 1.398 . S
C276 C277 1.391 . S
C277 H265 0.950 . S
C277 C273 1.393 . S
C277 C276 1.391 . S
C278 H268 0.950 . S
C278 C279 1.386 . S
C278 C280 1.391 . S
C279 C278 1.386 . S
C279 C283 1.393 . S
C280 H269 0.950 . S
C280 C278 1.391 . S
C280 C281 1.400 . S
C281 C275 1.491 . S
C281 C280 1.400 . S
C281 C282 1.398 . S
C282 H270 0.950 . S
C282 C281 1.398 . S
C282 C283 1.391 . S
C283 H271 0.950 . S
C283 C279 1.393 . S
C283 C282 1.391 . S
H284 C292 0.950 . S
H285 C297 0.950 . S
H286 C294 0.950 . S
H287 C296 0.950 . S
H288 C298 0.950 . S
H289 C300 0.950 . S
H290 C302 0.950 . S
H291 C303 0.950 . S
C292 H284 0.950 . S
C292 C293 1.386 . S
C292 C294 1.391 . S
C293 C292 1.386 . S
C293 C297 1.393 . S
C294 H286 0.950 . S
C294 C292 1.391 . S
C294 C295 1.400 . S
C295 C294 1.400 . S
C295 C296 1.398 . S
C295 C301 1.491 . S
C296 H287 0.950 . S
C296 C295 1.398 . S
C296 C297 1.391 . S
C297 H285 0.950 . S
C297 C293 1.393 . S
C297 C296 1.391 . S
C298 H288 0.950 . S
C298 C299 1.386 . S
C298 C300 1.391 . S
C299 C298 1.386 . S
C299 C303 1.393 . S
C300 H289 0.950 . S
C300 C298 1.391 . S
C300 C301 1.400 . S
C301 C295 1.491 . S
C301 C300 1.400 . S
C301 C302 1.398 . S
C302 H290 0.950 . S
C302 C301 1.398 . S
C302 C303 1.391 . S
C303 H291 0.950 . S
C303 C299 1.393 . S
C303 C302 1.391 . S
H304 C312 0.950 . S
H305 C317 0.950 . S
H306 C314 0.950 . S
H307 C316 0.950 . S
H308 C318 0.950 . S
H309 C320 0.950 . S
H310 C322 0.950 . S
H311 C323 0.950 . S
C312 H304 0.950 . S
C312 C313 1.386 . S
C312 C314 1.391 . S
C313 C312 1.386 . S
C313 C317 1.393 . S
C314 H306 0.950 . S
C314 C312 1.391 . S
C314 C315 1.400 . S
C315 C314 1.400 . S
C315 C316 1.398 . S
C315 C321 1.491 . S
C316 H307 0.950 . S
C316 C315 1.398 . S
C316 C317 1.391 . S
C317 H305 0.950 . S
C317 C313 1.393 . S
C317 C316 1.391 . S
C318 H308 0.950 . S
C318 C319 1.386 . S
C318 C320 1.391 . S
C319 C318 1.386 . S
C319 C323 1.393 . S
C320 H309 0.950 . S
C320 C318 1.391 . S
C320 C321 1.400 . S
C321 C315 1.491 . S
C321 C320 1.400 . S
C321 C322 1.398 . S
C322 H310 0.950 . S
C322 C321 1.398 . S
C322 C323 1.391 . S
C323 H311 0.950 . S
C323 C319 1.393 . S
C323 C322 1.391 . S
H324 C332 0.950 . S
H325 C337 0.950 . S
H326 C334 0.950 . S
H327 C336 0.950 . S
H328 C338 0.950 . S
H329 C340 0.950 . S
H330 C342 0.950 . S
H331 C343 0.950 . S
C332 H324 0.950 . S
C332 C333 1.386 . S
C332 C334 1.391 . S
C333 C332 1.386 . S
C333 C337 1.393 . S
C334 H326 0.950 . S
C334 C332 1.391 . S
C334 C335 1.400 . S
C335 C334 1.400 . S
C335 C336 1.398 . S
C335 C341 1.491 . S
C336 H327 0.950 . S
C336 C335 1.398 . S
C336 C337 1.391 . S
C337 H325 0.950 . S
C337 C333 1.393 . S
C337 C336 1.391 . S
C338 H328 0.950 . S
C338 C339 1.386 . S
C338 C340 1.391 . S
C339 C338 1.386 . S
C339 C343 1.393 . S
C340 H329 0.950 . S
C340 C338 1.391 . S
C340 C341 1.400 . S
C341 C335 1.491 . S
C341 C340 1.400 . S
C341 C342 1.398 . S
C342 H330 0.950 . S
C342 C341 1.398 . S
C342 C343 1.391 . S
C343 H331 0.950 . S
C343 C339 1.393 . S
C343 C342 1.391 . S
H344 C352 0.950 . S
H345 C357 0.950 . S
H346 C354 0.950 . S
H347 C356 0.950 . S
H348 C358 0.950 . S
H349 C360 0.950 . S
H350 C362 0.950 . S
H351 C363 0.950 . S
C352 H344 0.950 . S
C352 C353 1.386 . S
C352 C354 1.391 . S
C353 C352 1.386 . S
C353 C357 1.393 . S
C354 H346 0.950 . S
C354 C352 1.391 . S
C354 C355 1.400 . S
C355 C354 1.400 . S
C355 C356 1.398 . S
C355 C361 1.491 . S
C356 H347 0.950 . S
C356 C355 1.398 . S
C356 C357 1.391 . S
C357 H345 0.950 . S
C357 C353 1.393 . S
C357 C356 1.391 . S
C358 H348 0.950 . S
C358 C359 1.386 . S
C358 C360 1.391 . S
C359 C358 1.386 . S
C359 C363 1.393 . S
C360 H349 0.950 . S
C360 C358 1.391 . S
C360 C361 1.400 . S
C361 C355 1.491 . S
C361 C360 1.400 . S
C361 C362 1.398 . S
C362 H350 0.950 . S
C362 C361 1.398 . S
C362 C363 1.391 . S
C363 H351 0.950 . S
C363 C359 1.393 . S
C363 C362 1.391 . S
H364 C372 0.950 . S
H365 C377 0.950 . S
H366 C374 0.950 . S
H367 C376 0.950 . S
H368 C378 0.950 . S
H369 C380 0.950 . S
H370 C382 0.950 . S
H371 C383 0.950 . S
C372 H364 0.950 . S
C372 C373 1.386 . S
C372 C374 1.391 . S
C373 C372 1.386 . S
C373 C377 1.393 . S
C374 H366 0.950 . S
C374 C372 1.391 . S
C374 C375 1.400 . S
C375 C374 1.400 . S
C375 C376 1.398 . S
C375 C381 1.491 . S
C376 H367 0.950 . S
C376 C375 1.398 . S
C376 C377 1.391 . S
C377 H365 0.950 . S
C377 C373 1.393 . S
C377 C376 1.391 . S
C378 H368 0.950 . S
C378 C379 1.386 . S
C378 C380 1.391 . S
C379 C378 1.386 . S
C379 C383 1.393 . S
C380 H369 0.950 . S
C380 C378 1.391 . S
C380 C381 1.400 . S
C381 C375 1.491 . S
C381 C380 1.400 . S
C381 C382 1.398 . S
C382 H370 0.950 . S
C382 C381 1.398 . S
C382 C383 1.391 . S
C383 H371 0.950 . S
C383 C379 1.393 . S
C383 C382 1.391 . S
H384 C392 0.950 . S
H385 C397 0.950 . S
H386 C394 0.950 . S
H387 C396 0.950 . S
H388 C398 0.950 . S
H389 C400 0.950 . S
H390 C402 0.950 . S
H391 C403 0.950 . S
C392 H384 0.950 . S
C392 C393 1.386 . S
C392 C394 1.391 . S
C393 C392 1.386 . S
C393 C397 1.393 . S
C394 H386 0.950 . S
C394 C392 1.391 . S
C394 C395 1.400 . S
C395 C394 1.400 . S
C395 C396 1.398 . S
C395 C401 1.491 . S
C396 H387 0.950 . S
C396 C395 1.398 . S
C396 C397 1.391 . S
C397 H385 0.950 . S
C397 C393 1.393 . S
C397 C396 1.391 . S
C398 H388 0.950 . S
C398 C399 1.386 1_556 S
C398 C400 1.391 . S
C399 C398 1.386 1_554 S
C399 C403 1.393 . S
C400 H389 0.950 . S
C400 C398 1.391 . S
C400 C401 1.400 . S
C401 C395 1.491 . S
C401 C400 1.400 . S
C401 C402 1.398 . S
C402 H390 0.950 . S
C402 C401 1.398 . S
C402 C403 1.391 1_556 S
C403 H391 0.950 . S
C403 C399 1.393 . S
C403 C402 1.391 1_554 S
H404 C412 0.950 . S
H405 C417 0.950 . S
H406 C414 0.950 . S
H407 C416 0.950 . S
H408 C418 0.950 . S
H409 C420 0.950 . S
H410 C422 0.950 . S
H411 C423 0.950 . S
C412 H404 0.950 . S
C412 C413 1.386 . S
C412 C414 1.391 . S
C413 C412 1.386 . S
C413 C417 1.393 . S
C414 H406 0.950 . S
C414 C412 1.391 . S
C414 C415 1.400 . S
C415 C414 1.400 . S
C415 C416 1.398 . S
C415 C421 1.491 . S
C416 H407 0.950 . S
C416 C415 1.398 . S
C416 C417 1.391 . S
C417 H405 0.950 . S
C417 C413 1.393 . S
C417 C416 1.391 . S
C418 H408 0.950 . S
C418 C419 1.386 . S
C418 C420 1.391 . S
C419 C418 1.386 . S
C419 C423 1.393 . S
C420 H409 0.950 . S
C420 C418 1.391 . S
C420 C421 1.400 . S
C421 C415 1.491 . S
C421 C420 1.400 . S
C421 C422 1.398 . S
C422 H410 0.950 . S
C422 C421 1.398 . S
C422 C423 1.391 . S
C423 H411 0.950 . S
C423 C419 1.393 . S
C423 C422 1.391 . S
H424 C432 0.950 . S
H425 C437 0.950 . S
H426 C434 0.950 . S
H427 C436 0.950 . S
H428 C438 0.950 . S
H429 C440 0.950 . S
H430 C442 0.950 . S
H431 C443 0.950 . S
C432 H424 0.950 . S
C432 C433 1.386 . S
C432 C434 1.391 . S
C433 C432 1.386 . S
C433 C437 1.393 . S
C434 H426 0.950 . S
C434 C432 1.391 . S
C434 C435 1.400 . S
C435 C434 1.400 . S
C435 C436 1.398 . S
C435 C441 1.491 . S
C436 H427 0.950 . S
C436 C435 1.398 . S
C436 C437 1.391 . S
C437 H425 0.950 . S
C437 C433 1.393 . S
C437 C436 1.391 . S
C438 H428 0.950 . S
C438 C439 1.386 . S
C438 C440 1.391 . S
C439 C438 1.386 . S
C439 C443 1.393 . S
C440 H429 0.950 . S
C440 C438 1.391 . S
C440 C441 1.400 . S
C441 C435 1.491 . S
C441 C440 1.400 . S
C441 C442 1.398 . S
C442 H430 0.950 . S
C442 C441 1.398 . S
C442 C443 1.391 . S
C443 H431 0.950 . S
C443 C439 1.393 . S
C443 C442 1.391 . S
H444 C452 0.950 . S
H445 C457 0.950 . S
H446 C454 0.950 . S
H447 C456 0.950 . S
H448 C458 0.950 . S
H449 C460 0.950 . S
H450 C462 0.950 . S
H451 C463 0.950 . S
C452 H444 0.950 . S
C452 C453 1.386 . S
C452 C454 1.391 . S
C453 C452 1.386 . S
C453 C457 1.393 . S
C454 H446 0.950 . S
C454 C452 1.391 . S
C454 C455 1.400 . S
C455 C454 1.400 . S
C455 C456 1.398 . S
C455 C461 1.491 . S
C456 H447 0.950 . S
C456 C455 1.398 . S
C456 C457 1.391 . S
C457 H445 0.950 . S
C457 C453 1.393 . S
C457 C456 1.391 . S
C458 H448 0.950 . S
C458 C459 1.386 . S
C458 C460 1.391 . S
C459 C458 1.386 . S
C459 C463 1.393 . S
C460 H449 0.950 . S
C460 C458 1.391 . S
C460 C461 1.400 . S
C461 C455 1.491 . S
C461 C460 1.400 . S
C461 C462 1.398 . S
C462 H450 0.950 . S
C462 C461 1.398 . S
C462 C463 1.391 . S
C463 H451 0.950 . S
C463 C459 1.393 . S
C463 C462 1.391 . S
H464 C472 0.950 . S
H465 C477 0.950 . S
H466 C474 0.950 . S
H467 C476 0.950 . S
H468 C478 0.950 . S
H469 C480 0.950 . S
H470 C482 0.950 . S
H471 C483 0.950 . S
C472 H464 0.950 . S
C472 C473 1.386 . S
C472 C474 1.391 . S
C473 C472 1.386 . S
C473 C477 1.393 . S
C474 H466 0.950 . S
C474 C472 1.391 . S
C474 C475 1.400 . S
C475 C474 1.400 . S
C475 C476 1.398 . S
C475 C481 1.491 . S
C476 H467 0.950 . S
C476 C475 1.398 . S
C476 C477 1.391 . S
C477 H465 0.950 . S
C477 C473 1.393 . S
C477 C476 1.391 . S
C478 H468 0.950 . S
C478 C479 1.386 . S
C478 C480 1.391 . S
C479 C478 1.386 . S
C479 C483 1.393 . S
C480 H469 0.950 . S
C480 C478 1.391 . S
C480 C481 1.400 . S
C481 C475 1.491 . S
C481 C480 1.400 . S
C481 C482 1.398 . S
C482 H470 0.950 . S
C482 C481 1.398 . S
C482 C483 1.391 . S
C483 H471 0.950 . S
C483 C479 1.393 . S
C483 C482 1.391 . S
H484 C492 0.950 . S
H485 C497 0.950 . S
H486 C494 0.950 . S
H487 C496 0.950 . S
H488 C498 0.950 . S
H489 C500 0.950 . S
H490 C502 0.950 . S
H491 C503 0.950 . S
C492 H484 0.950 . S
C492 C493 1.386 . S
C492 C494 1.391 . S
C493 C492 1.386 . S
C493 C497 1.393 . S
C494 H486 0.950 . S
C494 C492 1.391 . S
C494 C495 1.400 . S
C495 C494 1.400 . S
C495 C496 1.398 . S
C495 C501 1.491 . S
C496 H487 0.950 . S
C496 C495 1.398 . S
C496 C497 1.391 . S
C497 H485 0.950 . S
C497 C493 1.393 . S
C497 C496 1.391 . S
C498 H488 0.950 . S
C498 C499 1.386 . S
C498 C500 1.391 . S
C499 C498 1.386 . S
C499 C503 1.393 . S
C500 H489 0.950 . S
C500 C498 1.391 . S
C500 C501 1.400 . S
C501 C495 1.491 . S
C501 C500 1.400 . S
C501 C502 1.398 . S
C502 H490 0.950 . S
C502 C501 1.398 . S
C502 C503 1.391 . S
C503 H491 0.950 . S
C503 C499 1.393 . S
C503 C502 1.391 . S
H504 C512 0.950 . S
H505 C517 0.950 . S
H506 C514 0.950 . S
H507 C516 0.950 . S
H508 C518 0.950 . S
H509 C520 0.950 . S
H510 C522 0.950 . S
H511 C523 0.950 . S
C512 H504 0.950 . S
C512 C513 1.386 . S
C512 C514 1.391 . S
C513 C512 1.386 . S
C513 C517 1.393 . S
C514 H506 0.950 . S
C514 C512 1.391 . S
C514 C515 1.400 . S
C515 C514 1.400 . S
C515 C516 1.398 . S
C515 C521 1.491 . S
C516 H507 0.950 . S
C516 C515 1.398 . S
C516 C517 1.391 . S
C517 H505 0.950 . S
C517 C513 1.393 . S
C517 C516 1.391 . S
C518 H508 0.950 . S
C518 C519 1.386 . S
C518 C520 1.391 . S
C519 C518 1.386 . S
C519 C523 1.393 . S
C520 H509 0.950 . S
C520 C518 1.391 . S
C520 C521 1.400 . S
C521 C515 1.491 . S
C521 C520 1.400 . S
C521 C522 1.398 . S
C522 H510 0.950 . S
C522 C521 1.398 . S
C522 C523 1.391 . S
C523 H511 0.950 . S
C523 C519 1.393 . S
C523 C522 1.391 . S
H524 C532 0.950 . S
H525 C537 0.950 . S
H526 C534 0.950 . S
H527 C536 0.950 . S
H528 C538 0.950 . S
H529 C540 0.950 . S
H530 C542 0.950 . S
H531 C543 0.950 . S
C532 H524 0.950 . S
C532 C533 1.386 . S
C532 C534 1.391 . S
C533 C532 1.386 . S
C533 C537 1.393 . S
C534 H526 0.950 . S
C534 C532 1.391 . S
C534 C535 1.400 . S
C535 C534 1.400 . S
C535 C536 1.398 . S
C535 C541 1.491 . S
C536 H527 0.950 . S
C536 C535 1.398 . S
C536 C537 1.391 . S
C537 H525 0.950 . S
C537 C533 1.393 . S
C537 C536 1.391 . S
C538 H528 0.950 . S
C538 C539 1.386 . S
C538 C540 1.391 . S
C539 C538 1.386 . S
C539 C543 1.393 . S
C540 H529 0.950 . S
C540 C538 1.391 . S
C540 C541 1.400 . S
C541 C535 1.491 . S
C541 C540 1.400 . S
C541 C542 1.398 . S
C542 H530 0.950 . S
C542 C541 1.398 . S
C542 C543 1.391 . S
C543 H531 0.950 . S
C543 C539 1.393 . S
C543 C542 1.391 . S
H544 C552 0.950 . S
H545 C557 0.950 . S
H546 C554 0.950 . S
H547 C556 0.950 . S
H548 C558 0.950 . S
H549 C560 0.950 . S
H550 C562 0.950 . S
H551 C563 0.950 . S
C552 H544 0.950 . S
C552 C553 1.386 . S
C552 C554 1.391 . S
C553 C552 1.386 . S
C553 C557 1.393 . S
C554 H546 0.950 . S
C554 C552 1.391 . S
C554 C555 1.400 . S
C555 C554 1.400 . S
C555 C556 1.398 . S
C555 C561 1.491 . S
C556 H547 0.950 . S
C556 C555 1.398 . S
C556 C557 1.391 . S
C557 H545 0.950 . S
C557 C553 1.393 . S
C557 C556 1.391 . S
C558 H548 0.950 . S
C558 C559 1.386 . S
C558 C560 1.391 . S
C559 C558 1.386 . S
C559 C563 1.393 . S
C560 H549 0.950 . S
C560 C558 1.391 . S
C560 C561 1.400 . S
C561 C555 1.491 . S
C561 C560 1.400 . S
C561 C562 1.398 . S
C562 H550 0.950 . S
C562 C561 1.398 . S
C562 C563 1.391 . S
C563 H551 0.950 . S
C563 C559 1.393 . S
C563 C562 1.391 . S
H564 C572 0.950 . S
H565 C577 0.950 . S
H566 C574 0.950 . S
H567 C576 0.950 . S
H568 C578 0.950 . S
H569 C580 0.950 . S
H570 C582 0.950 . S
H571 C583 0.950 . S
C572 H564 0.950 . S
C572 C573 1.386 . S
C572 C574 1.391 . S
C573 C572 1.386 . S
C573 C577 1.393 . S
C574 H566 0.950 . S
C574 C572 1.391 . S
C574 C575 1.400 . S
C575 C574 1.400 . S
C575 C576 1.398 . S
C575 C581 1.491 . S
C576 H567 0.950 . S
C576 C575 1.398 . S
C576 C577 1.391 . S
C577 H565 0.950 . S
C577 C573 1.393 . S
C577 C576 1.391 . S
C578 H568 0.950 . S
C578 C579 1.386 . S
C578 C580 1.391 . S
C579 C578 1.386 . S
C579 C583 1.393 . S
C580 H569 0.950 . S
C580 C578 1.391 . S
C580 C581 1.400 . S
C581 C575 1.491 . S
C581 C580 1.400 . S
C581 C582 1.398 . S
C582 H570 0.950 . S
C582 C581 1.398 . S
C582 C583 1.391 . S
C583 H571 0.950 . S
C583 C579 1.393 . S
C583 C582 1.391 . S
H584 C592 0.950 . S
H585 C597 0.950 . S
H586 C594 0.950 . S
H587 C596 0.950 . S
H588 C598 0.950 . S
H589 C600 0.950 . S
H590 C602 0.950 . S
H591 C603 0.950 . S
C592 H584 0.950 . S
C592 C593 1.386 . S
C592 C594 1.391 . S
C593 C592 1.386 . S
C593 C597 1.393 . S
C594 H586 0.950 . S
C594 C592 1.391 . S
C594 C595 1.400 . S
C595 C594 1.400 . S
C595 C596 1.398 . S
C595 C601 1.491 . S
C596 H587 0.950 . S
C596 C595 1.398 . S
C596 C597 1.391 . S
C597 H585 0.950 . S
C597 C593 1.393 . S
C597 C596 1.391 . S
C598 H588 0.950 . S
C598 C599 1.386 . S
C598 C600 1.391 . S
C599 C598 1.386 . S
C599 C603 1.393 . S
C600 H589 0.950 . S
C600 C598 1.391 . S
C600 C601 1.400 . S
C601 C595 1.491 . S
C601 C600 1.400 . S
C601 C602 1.398 . S
C602 H590 0.950 . S
C602 C601 1.398 . S
C602 C603 1.391 . S
C603 H591 0.950 . S
C603 C599 1.393 . S
C603 C602 1.391 . S
H604 C612 0.950 . S
H605 C617 0.950 . S
H606 C614 0.950 . S
H607 C616 0.950 . S
H608 C618 0.950 1_455 S
H609 C620 0.950 . S
H610 C622 0.950 . S
H611 C623 0.950 . S
C612 H604 0.950 . S
C612 C613 1.386 . S
C612 C614 1.391 . S
C613 C612 1.386 . S
C613 C617 1.393 . S
C614 H606 0.950 . S
C614 C612 1.391 . S
C614 C615 1.400 . S
C615 C614 1.400 . S
C615 C616 1.398 . S
C615 C621 1.491 . S
C616 H607 0.950 . S
C616 C615 1.398 . S
C616 C617 1.391 . S
C617 H605 0.950 . S
C617 C613 1.393 . S
C617 C616 1.391 . S
C618 H608 0.950 1_655 S
C618 C619 1.386 . S
C618 C620 1.391 . S
C619 C618 1.386 . S
C619 C623 1.393 . S
C620 H609 0.950 . S
C620 C618 1.391 . S
C620 C621 1.400 . S
C621 C615 1.491 . S
C621 C620 1.400 . S
C621 C622 1.398 . S
C622 H610 0.950 . S
C622 C621 1.398 . S
C622 C623 1.391 . S
C623 H611 0.950 . S
C623 C619 1.393 . S
C623 C622 1.391 . S
H624 C632 0.950 . S
H625 C637 0.950 . S
H626 C634 0.950 . S
H627 C636 0.950 . S
H628 C638 0.950 . S
H629 C640 0.950 . S
H630 C642 0.950 . S
H631 C643 0.950 . S
C632 H624 0.950 . S
C632 C633 1.386 . S
C632 C634 1.391 . S
C633 C632 1.386 . S
C633 C637 1.393 . S
C634 H626 0.950 . S
C634 C632 1.391 . S
C634 C635 1.400 . S
C635 C634 1.400 . S
C635 C636 1.398 . S
C635 C641 1.491 . S
C636 H627 0.950 . S
C636 C635 1.398 . S
C636 C637 1.391 . S
C637 H625 0.950 . S
C637 C633 1.393 . S
C637 C636 1.391 . S
C638 H628 0.950 . S
C638 C639 1.386 . S
C638 C640 1.391 . S
C639 C638 1.386 . S
C639 C643 1.393 . S
C640 H629 0.950 . S
C640 C638 1.391 . S
C640 C641 1.400 . S
C641 C635 1.491 . S
C641 C640 1.400 . S
C641 C642 1.398 . S
C642 H630 0.950 . S
C642 C641 1.398 . S
C642 C643 1.391 . S
C643 H631 0.950 . S
C643 C639 1.393 . S
C643 C642 1.391 . S
H644 C652 0.950 . S
H645 C657 0.950 . S
H646 C654 0.950 . S
H647 C656 0.950 . S
H648 C658 0.950 . S
H649 C660 0.950 . S
H650 C662 0.950 . S
H651 C663 0.950 . S
C652 H644 0.950 . S
C652 C653 1.386 . S
C652 C654 1.391 . S
C653 C652 1.386 . S
C653 C657 1.393 . S
C654 H646 0.950 . S
C654 C652 1.391 . S
C654 C655 1.400 . S
C655 C654 1.400 . S
C655 C656 1.398 . S
C655 C661 1.491 . S
C656 H647 0.950 . S
C656 C655 1.398 . S
C656 C657 1.391 . S
C657 H645 0.950 . S
C657 C653 1.393 . S
C657 C656 1.391 . S
C658 H648 0.950 . S
C658 C659 1.386 . S
C658 C660 1.391 . S
C659 C658 1.386 . S
C659 C663 1.393 . S
C660 H649 0.950 . S
C660 C658 1.391 . S
C660 C661 1.400 . S
C661 C655 1.491 . S
C661 C660 1.400 . S
C661 C662 1.398 . S
C662 H650 0.950 . S
C662 C661 1.398 . S
C662 C663 1.391 . S
C663 H651 0.950 . S
C663 C659 1.393 . S
C663 C662 1.391 . S
H664 C672 0.950 . S
H665 C677 0.950 . S
H666 C674 0.950 . S
H667 C676 0.950 . S
H668 C678 0.950 . S
H669 C680 0.950 . S
H670 C682 0.950 . S
H671 C683 0.950 . S
C672 H664 0.950 . S
C672 C673 1.386 . S
C672 C674 1.391 . S
C673 C672 1.386 . S
C673 C677 1.393 . S
C674 H666 0.950 . S
C674 C672 1.391 . S
C674 C675 1.400 . S
C675 C674 1.400 . S
C675 C676 1.398 . S
C675 C681 1.491 . S
C676 H667 0.950 . S
C676 C675 1.398 . S
C676 C677 1.391 . S
C677 H665 0.950 . S
C677 C673 1.393 . S
C677 C676 1.391 . S
C678 H668 0.950 . S
C678 C679 1.386 . S
C678 C680 1.391 . S
C679 C678 1.386 . S
C679 C683 1.393 . S
C680 H669 0.950 . S
C680 C678 1.391 . S
C680 C681 1.400 . S
C681 C675 1.491 . S
C681 C680 1.400 . S
C681 C682 1.398 . S
C682 H670 0.950 . S
C682 C681 1.398 . S
C682 C683 1.391 . S
C683 H671 0.950 . S
C683 C679 1.393 . S
C683 C682 1.391 . S
H684 C692 0.950 . S
H685 C697 0.950 . S
H686 C694 0.950 . S
H687 C696 0.950 . S
H688 C698 0.950 . S
H689 C700 0.950 . S
H690 C702 0.950 . S
H691 C703 0.950 . S
C692 H684 0.950 . S
C692 C693 1.386 . S
C692 C694 1.391 . S
C693 C692 1.386 . S
C693 C697 1.393 . S
C694 H686 0.950 . S
C694 C692 1.391 . S
C694 C695 1.400 . S
C695 C694 1.400 . S
C695 C696 1.398 . S
C695 C701 1.491 . S
C696 H687 0.950 . S
C696 C695 1.398 . S
C696 C697 1.391 . S
C697 H685 0.950 . S
C697 C693 1.393 . S
C697 C696 1.391 . S
C698 H688 0.950 . S
C698 C699 1.386 . S
C698 C700 1.391 . S
C699 C698 1.386 . S
C699 C703 1.393 . S
C700 H689 0.950 . S
C700 C698 1.391 . S
C700 C701 1.400 . S
C701 C695 1.491 . S
C701 C700 1.400 . S
C701 C702 1.398 . S
C702 H690 0.950 . S
C702 C701 1.398 . S
C702 C703 1.391 . S
C703 H691 0.950 . S
C703 C699 1.393 . S
C703 C702 1.391 . S
H704 C712 0.950 . S
H705 C717 0.950 . S
H706 C714 0.950 . S
H707 C716 0.950 . S
H708 C718 0.950 . S
H709 C720 0.950 . S
H710 C722 0.950 . S
H711 C723 0.950 . S
C712 H704 0.950 . S
C712 C713 1.386 . S
C712 C714 1.391 . S
C713 C712 1.386 . S
C713 C717 1.393 . S
C714 H706 0.950 . S
C714 C712 1.391 . S
C714 C715 1.400 . S
C715 C714 1.400 . S
C715 C716 1.398 . S
C715 C721 1.491 . S
C716 H707 0.950 . S
C716 C715 1.398 . S
C716 C717 1.391 . S
C717 H705 0.950 . S
C717 C713 1.393 . S
C717 C716 1.391 . S
C718 H708 0.950 . S
C718 C719 1.386 . S
C718 C720 1.391 . S
C719 C718 1.386 . S
C719 C723 1.393 . S
C720 H709 0.950 . S
C720 C718 1.391 . S
C720 C721 1.400 . S
C721 C715 1.491 . S
C721 C720 1.400 . S
C721 C722 1.398 . S
C722 H710 0.950 . S
C722 C721 1.398 . S
C722 C723 1.391 . S
C723 H711 0.950 . S
C723 C719 1.393 . S
C723 C722 1.391 . S
H724 C732 0.950 . S
H725 C737 0.950 . S
H726 C734 0.950 . S
H727 C736 0.950 . S
H728 C738 0.950 . S
H729 C740 0.950 . S
H730 C742 0.950 . S
H731 C743 0.950 . S
C732 H724 0.950 . S
C732 C733 1.386 . S
C732 C734 1.391 . S
C733 C732 1.386 . S
C733 C737 1.393 . S
C734 H726 0.950 . S
C734 C732 1.391 . S
C734 C735 1.400 . S
C735 C734 1.400 . S
C735 C736 1.398 . S
C735 C741 1.491 . S
C736 H727 0.950 . S
C736 C735 1.398 . S
C736 C737 1.391 . S
C737 H725 0.950 . S
C737 C733 1.393 . S
C737 C736 1.391 . S
C738 H728 0.950 . S
C738 C739 1.386 . S
C738 C740 1.391 . S
C739 C738 1.386 . S
C739 C743 1.393 . S
C740 H729 0.950 . S
C740 C738 1.391 . S
C740 C741 1.400 . S
C741 C735 1.491 . S
C741 C740 1.400 . S
C741 C742 1.398 . S
C742 H730 0.950 . S
C742 C741 1.398 . S
C742 C743 1.391 . S
C743 H731 0.950 . S
C743 C739 1.393 . S
C743 C742 1.391 . S
C273 C9 1.232 . S
C279 C108 1.276 . S
C293 C21 1.044 . S
C299 C169 1.082 . S
C319 C207 2.215 . S
C313 C30 2.215 . S
C333 C43 2.121 . S
C339 C247 2.206 . S
C359 C167 1.158 . S
C353 C4 1.075 . S
C379 C135 2.447 . S
C373 C22 2.366 . S
C399 C244 1.387 . S
C393 C34 1.420 . S
C419 C204 1.746 . S
C413 C48 1.753 . S
C433 C8 1.162 . S
C439 C249 1.171 . S
C459 C164 2.342 . S
C453 C35 2.324 . S
C473 C47 2.395 . S
C479 C106 2.348 . S
C493 C17 1.244 . S
C499 C209 1.321 . S
C519 C129 0.780 . S
C513 C60 0.776 . S
C533 C74 1.185 . S
C539 C148 1.207 . S
C553 C82 1.995 . S
C559 C186 1.999 . S
C573 C100 2.753 . S
C579 C226 2.692 . S
C593 C61 1.558 . S
C599 C146 1.581 . S
C619 C124 1.851 . S
C613 C73 1.780 . S
C639 C255 1.913 . S
C633 C87 1.928 . S
C659 C215 1.579 . S
C653 C95 1.588 . S
C673 C56 1.070 . S
C679 C228 1.063 . S
C699 C175 2.526 . S
C693 C86 2.523 . S
C719 C127 2.233 . S
C713 C99 2.271 . S
C733 C69 1.062 . S
C739 C188 1.220 . S
