# Generated by pormake.
# Topology eea, (3,6)-cn, num edge types: 1
# Building blocks:
#     Node 0, Type 0, BuildingBlock: QEWDON_clean_linker_0, # of connection points: 3
#     Node 1, Type 0, BuildingBlock: QEWDON_clean_linker_0, # of connection points: 3
#     Node 2, Type 0, BuildingBlock: QEWDON_clean_linker_0, # of connection points: 3
#     Node 3, Type 0, BuildingBlock: QEWDON_clean_linker_0, # of connection points: 3
#     Node 4, Type 0, BuildingBlock: QEWDON_clean_linker_0, # of connection points: 3
#     Node 5, Type 0, BuildingBlock: QEWDON_clean_linker_0, # of connection points: 3
#     Node 6, Type 0, BuildingBlock: QEWDON_clean_linker_0, # of connection points: 3
#     Node 7, Type 0, BuildingBlock: QEWDON_clean_linker_0, # of connection points: 3
#     Node 8, Type 0, BuildingBlock: QEWDON_clean_linker_0, # of connection points: 3
#     Node 9, Type 0, BuildingBlock: QEWDON_clean_linker_0, # of connection points: 3
#     Node 10, Type 0, BuildingBlock: QEWDON_clean_linker_0, # of connection points: 3
#     Node 11, Type 0, BuildingBlock: QEWDON_clean_linker_0, # of connection points: 3
#     Node 12, Type 0, BuildingBlock: QEWDON_clean_linker_0, # of connection points: 3
#     Node 13, Type 0, BuildingBlock: QEWDON_clean_linker_0, # of connection points: 3
#     Node 14, Type 0, BuildingBlock: QEWDON_clean_linker_0, # of connection points: 3
#     Node 15, Type 0, BuildingBlock: QEWDON_clean_linker_0, # of connection points: 3
#     Node 16, Type 0, BuildingBlock: QEWDON_clean_linker_0, # of connection points: 3
#     Node 17, Type 0, BuildingBlock: QEWDON_clean_linker_0, # of connection points: 3
#     Node 18, Type 1, BuildingBlock: CUWYAW_clean_sbu_0, # of connection points: 6
#     Node 19, Type 1, BuildingBlock: CUWYAW_clean_sbu_0, # of connection points: 6
#     Node 20, Type 1, BuildingBlock: CUWYAW_clean_sbu_0, # of connection points: 6
#     Node 21, Type 1, BuildingBlock: CUWYAW_clean_sbu_0, # of connection points: 6
#     Node 22, Type 1, BuildingBlock: CUWYAW_clean_sbu_0, # of connection points: 6
#     Node 23, Type 1, BuildingBlock: CUWYAW_clean_sbu_0, # of connection points: 6
#     Node 24, Type 1, BuildingBlock: CUWYAW_clean_sbu_0, # of connection points: 6
#     Node 25, Type 1, BuildingBlock: CUWYAW_clean_sbu_0, # of connection points: 6
#     Node 26, Type 1, BuildingBlock: CUWYAW_clean_sbu_0, # of connection points: 6
#     Edge 27, Type (0, 1), BuildingBlock: EZIPEK_clean_linker_0, # of connection points: 2
#     Edge 28, Type (0, 1), BuildingBlock: EZIPEK_clean_linker_0, # of connection points: 2
#     Edge 29, Type (0, 1), BuildingBlock: EZIPEK_clean_linker_0, # of connection points: 2
#     Edge 30, Type (0, 1), BuildingBlock: EZIPEK_clean_linker_0, # of connection points: 2
#     Edge 31, Type (0, 1), BuildingBlock: EZIPEK_clean_linker_0, # of connection points: 2
#     Edge 32, Type (0, 1), BuildingBlock: EZIPEK_clean_linker_0, # of connection points: 2
#     Edge 33, Type (0, 1), BuildingBlock: EZIPEK_clean_linker_0, # of connection points: 2
#     Edge 34, Type (0, 1), BuildingBlock: EZIPEK_clean_linker_0, # of connection points: 2
#     Edge 35, Type (0, 1), BuildingBlock: EZIPEK_clean_linker_0, # of connection points: 2
#     Edge 36, Type (0, 1), BuildingBlock: EZIPEK_clean_linker_0, # of connection points: 2
#     Edge 37, Type (0, 1), BuildingBlock: EZIPEK_clean_linker_0, # of connection points: 2
#     Edge 38, Type (0, 1), BuildingBlock: EZIPEK_clean_linker_0, # of connection points: 2
#     Edge 39, Type (0, 1), BuildingBlock: EZIPEK_clean_linker_0, # of connection points: 2
#     Edge 40, Type (0, 1), BuildingBlock: EZIPEK_clean_linker_0, # of connection points: 2
#     Edge 41, Type (0, 1), BuildingBlock: EZIPEK_clean_linker_0, # of connection points: 2
#     Edge 42, Type (0, 1), BuildingBlock: EZIPEK_clean_linker_0, # of connection points: 2
#     Edge 43, Type (0, 1), BuildingBlock: EZIPEK_clean_linker_0, # of connection points: 2
#     Edge 44, Type (0, 1), BuildingBlock: EZIPEK_clean_linker_0, # of connection points: 2
#     Edge 45, Type (0, 1), BuildingBlock: EZIPEK_clean_linker_0, # of connection points: 2
#     Edge 46, Type (0, 1), BuildingBlock: EZIPEK_clean_linker_0, # of connection points: 2
#     Edge 47, Type (0, 1), BuildingBlock: EZIPEK_clean_linker_0, # of connection points: 2
#     Edge 48, Type (0, 1), BuildingBlock: EZIPEK_clean_linker_0, # of connection points: 2
#     Edge 49, Type (0, 1), BuildingBlock: EZIPEK_clean_linker_0, # of connection points: 2
#     Edge 50, Type (0, 1), BuildingBlock: EZIPEK_clean_linker_0, # of connection points: 2
#     Edge 51, Type (0, 1), BuildingBlock: EZIPEK_clean_linker_0, # of connection points: 2
#     Edge 52, Type (0, 1), BuildingBlock: EZIPEK_clean_linker_0, # of connection points: 2
#     Edge 53, Type (0, 1), BuildingBlock: EZIPEK_clean_linker_0, # of connection points: 2
#     Edge 54, Type (0, 1), BuildingBlock: EZIPEK_clean_linker_0, # of connection points: 2
#     Edge 55, Type (0, 1), BuildingBlock: EZIPEK_clean_linker_0, # of connection points: 2
#     Edge 56, Type (0, 1), BuildingBlock: EZIPEK_clean_linker_0, # of connection points: 2
#     Edge 57, Type (0, 1), BuildingBlock: EZIPEK_clean_linker_0, # of connection points: 2
#     Edge 58, Type (0, 1), BuildingBlock: EZIPEK_clean_linker_0, # of connection points: 2
#     Edge 59, Type (0, 1), BuildingBlock: EZIPEK_clean_linker_0, # of connection points: 2
#     Edge 60, Type (0, 1), BuildingBlock: EZIPEK_clean_linker_0, # of connection points: 2
#     Edge 61, Type (0, 1), BuildingBlock: EZIPEK_clean_linker_0, # of connection points: 2
#     Edge 62, Type (0, 1), BuildingBlock: EZIPEK_clean_linker_0, # of connection points: 2
#     Edge 63, Type (0, 1), BuildingBlock: EZIPEK_clean_linker_0, # of connection points: 2
#     Edge 64, Type (0, 1), BuildingBlock: EZIPEK_clean_linker_0, # of connection points: 2
#     Edge 65, Type (0, 1), BuildingBlock: EZIPEK_clean_linker_0, # of connection points: 2
#     Edge 66, Type (0, 1), BuildingBlock: EZIPEK_clean_linker_0, # of connection points: 2
#     Edge 67, Type (0, 1), BuildingBlock: EZIPEK_clean_linker_0, # of connection points: 2
#     Edge 68, Type (0, 1), BuildingBlock: EZIPEK_clean_linker_0, # of connection points: 2
#     Edge 69, Type (0, 1), BuildingBlock: EZIPEK_clean_linker_0, # of connection points: 2
#     Edge 70, Type (0, 1), BuildingBlock: EZIPEK_clean_linker_0, # of connection points: 2
#     Edge 71, Type (0, 1), BuildingBlock: EZIPEK_clean_linker_0, # of connection points: 2
#     Edge 72, Type (0, 1), BuildingBlock: EZIPEK_clean_linker_0, # of connection points: 2
#     Edge 73, Type (0, 1), BuildingBlock: EZIPEK_clean_linker_0, # of connection points: 2
#     Edge 74, Type (0, 1), BuildingBlock: EZIPEK_clean_linker_0, # of connection points: 2
#     Edge 75, Type (0, 1), BuildingBlock: EZIPEK_clean_linker_0, # of connection points: 2
#     Edge 76, Type (0, 1), BuildingBlock: EZIPEK_clean_linker_0, # of connection points: 2
#     Edge 77, Type (0, 1), BuildingBlock: EZIPEK_clean_linker_0, # of connection points: 2
#     Edge 78, Type (0, 1), BuildingBlock: EZIPEK_clean_linker_0, # of connection points: 2
#     Edge 79, Type (0, 1), BuildingBlock: EZIPEK_clean_linker_0, # of connection points: 2
#     Edge 80, Type (0, 1), BuildingBlock: EZIPEK_clean_linker_0, # of connection points: 2
# Relax obj value: 0.090
# Max RMSD: 0.276
# Mean RMSD: 0.192
data_MOF--net-eea--node1-CUWYAW_clean_sbu_0--node2-QEWDON_clean_linker_0--edge1-EZIPEK_clean_linker_0
_symmetry_space_group_name_H-M    P1
_symmetry_Int_Tables_number       1
_symmetry_cell_setting            triclinic
loop_
_symmetry_equiv_pos_as_xyz
'x, y, z'
_cell_length_a     43.048288
_cell_length_b     42.714521
_cell_length_c     53.426852
_cell_angle_alpha  93.232535
_cell_angle_beta   93.168567
_cell_angle_gamma 119.90854
loop_
_atom_site_label
_atom_site_type_symbol
_atom_site_fract_x
_atom_site_fract_y
_atom_site_fract_z
_atom_type_partial_charge
H0 H 0.21918 0.12799 0.43231 0.0
C1 C 0.22142 0.107 0.42159 0.0
C2 C 0.23792 0.08962 0.43336 0.0
C3 C 0.20632 0.09603 0.39643 0.0
H4 H 0.25066 0.04684 0.42929 0.0
C5 C 0.23905 0.06104 0.41994 0.0
C6 C 0.22452 0.05013 0.39471 0.0
C7 C 0.20897 0.06831 0.38297 0.0
C8 C 0.18389 0.10992 0.38496 0.0
H9 H 0.19731 0.05959 0.36358 0.0
C10 C 0.19648 0.1474 0.38486 0.0
C11 C 0.17421 0.15925 0.3736 0.0
C12 C 0.14894 0.08482 0.37399 0.0
H13 H 0.13846 0.0559 0.37408 0.0
C14 C 0.12693 0.09663 0.36309 0.0
H15 H 0.22339 0.16713 0.39311 0.0
C16 C 0.13946 0.1336 0.36285 0.0
H17 H 0.12205 0.1423 0.35415 0.0
H18 H 0.10007 0.07704 0.35476 0.0
H19 H 0.88574 0.11033 0.4319 0.0
C20 C 0.90714 0.13216 0.42316 0.0
C21 C 0.92408 0.16775 0.43505 0.0
C22 C 0.91927 0.12432 0.40108 0.0
H23 H 0.9674 0.22301 0.4342 0.0
C24 C 0.95338 0.19586 0.42457 0.0
C25 C 0.96543 0.1885 0.40221 0.0
C26 C 0.94764 0.15294 0.39037 0.0
C27 C 0.9059 0.08608 0.39093 0.0
H28 H 0.95736 0.14726 0.37338 0.0
C29 C 0.86888 0.05955 0.38818 0.0
C30 C 0.85762 0.02351 0.37893 0.0
C31 C 0.93108 0.07577 0.38453 0.0
H32 H 0.95969 0.09519 0.38696 0.0
C33 C 0.91983 0.04016 0.37544 0.0
H34 H 0.84901 0.06682 0.39299 0.0
C35 C 0.88336 0.01418 0.37263 0.0
H36 H 0.87512 0.98662 0.36552 0.0
H37 H 0.9395 0.03264 0.37066 0.0
H38 H 0.92691 0.78679 0.44204 0.0
C39 C 0.90321 0.78459 0.43203 0.0
C40 C 0.86971 0.76642 0.44221 0.0
C41 C 0.90637 0.8021 0.40994 0.0
H42 H 0.81407 0.75303 0.43834 0.0
C43 C 0.83945 0.76553 0.43001 0.0
C44 C 0.84231 0.78246 0.40786 0.0
C45 C 0.87543 0.79974 0.39765 0.0
C46 C 0.94205 0.82756 0.40138 0.0
H47 H 0.87756 0.81356 0.38085 0.0
C48 C 0.9682 0.8176 0.39703 0.0
C49 C 1.00053 0.84225 0.38721 0.0
C50 C 0.94939 0.86264 0.39676 0.0
H51 H 0.93021 0.87135 0.40042 0.0
C52 C 0.98135 0.88691 0.38732 0.0
H53 H 0.96323 0.79087 0.40069 0.0
C54 C 1.00663 0.87675 0.3824 0.0
H55 H 0.03132 0.89605 0.37499 0.0
H56 H 0.9865 0.91371 0.38375 0.0
H57 H 0.14202 0.23697 0.58547 0.0
C58 C 0.12123 0.23907 0.59468 0.0
C59 C 0.10643 0.25901 0.58439 0.0
C60 C 0.1076 0.22 0.61578 0.0
H61 H 0.065 0.27343 0.58679 0.0
C62 C 0.07767 0.25968 0.59536 0.0
C63 C 0.06427 0.24117 0.61672 0.0
C64 C 0.08023 0.22261 0.62718 0.0
C65 C 0.11784 0.19341 0.62419 0.0
H66 H 0.06944 0.20798 0.64344 0.0
C67 C 0.15405 0.20182 0.62785 0.0
C68 C 0.16224 0.17607 0.63693 0.0
C69 C 0.09032 0.15869 0.62883 0.0
H70 H 0.06224 0.151 0.62557 0.0
C71 C 0.09849 0.1333 0.63755 0.0
H72 H 0.17563 0.22823 0.6242 0.0
C73 C 0.13417 0.14195 0.64173 0.0
H74 H 0.13998 0.12184 0.64862 0.0
H75 H 0.07704 0.10678 0.64111 0.0
H76 H 0.79377 0.91015 0.5974 0.0
C77 C 0.79263 0.88774 0.60669 0.0
C78 C 0.77418 0.85266 0.59394 0.0
C79 C 0.81084 0.89411 0.63074 0.0
H80 H 0.7614 0.79701 0.59495 0.0
C81 C 0.77446 0.82376 0.60516 0.0
C82 C 0.79188 0.8295 0.62944 0.0
C83 C 0.80893 0.86445 0.64229 0.0
C84 C 0.83462 0.93178 0.64296 0.0
H85 H 0.82215 0.86871 0.66106 0.0
C86 C 0.82491 0.95884 0.64194 0.0
C87 C 0.84835 0.99416 0.65362 0.0
C88 C 0.86826 0.94104 0.6554 0.0
H89 H 0.87715 0.9214 0.65594 0.0
C90 C 0.8913 0.97596 0.66691 0.0
H91 H 0.79926 0.95252 0.63247 0.0
C92 C 0.88142 1.00235 0.6661 0.0
H93 H 0.89972 0.0294 0.6751 0.0
H94 H 0.91704 0.98264 0.67638 0.0
H95 H 0.10062 0.88369 0.58353 0.0
C96 C 0.1234 0.90447 0.59579 0.0
C97 C 0.15786 0.92227 0.58699 0.0
C98 C 0.11828 0.9153 0.61994 0.0
H99 H 0.21299 0.96541 0.59515 0.0
C100 C 0.18682 0.95087 0.60229 0.0
C101 C 0.18227 0.96142 0.62647 0.0
C102 C 0.14817 0.94287 0.63537 0.0
C103 C 0.08169 0.90329 0.62786 0.0
H104 H 0.14442 0.9516 0.65386 0.0
C105 C 0.05658 0.86668 0.63091 0.0
C106 C 0.02331 0.8577 0.64036 0.0
C107 C 0.07263 0.93012 0.63362 0.0
H108 H 0.09127 0.95832 0.63128 0.0
C109 C 0.03973 0.92113 0.64258 0.0
H110 H 0.06308 0.84566 0.62656 0.0
C111 C 0.01532 0.88526 0.64605 0.0
H112 H 0.98992 0.87889 0.65318 0.0
H113 H 0.03321 0.94211 0.64699 0.0
H114 H 0.88212 0.46233 0.76416 0.0
C115 C 0.88463 0.44134 0.75368 0.0
C116 C 0.90067 0.42388 0.76593 0.0
C117 C 0.87017 0.43037 0.72839 0.0
H118 H 0.91355 0.38113 0.76244 0.0
C119 C 0.90217 0.3953 0.75278 0.0
C120 C 0.88845 0.38448 0.72739 0.0
C121 C 0.87314 0.40261 0.71525 0.0
C122 C 0.84806 0.44436 0.71647 0.0
H123 H 0.86205 0.39391 0.69574 0.0
C124 C 0.86035 0.48188 0.71691 0.0
C125 C 0.83825 0.4938 0.70544 0.0
C126 C 0.81357 0.41933 0.70472 0.0
H127 H 0.80324 0.39039 0.70442 0.0
C128 C 0.79174 0.4312 0.6936 0.0
H129 H 0.8869 0.50158 0.72576 0.0
C130 C 0.80397 0.46817 0.69392 0.0
H131 H 0.7867 0.4769 0.68503 0.0
H132 H 0.76522 0.41165 0.68469 0.0
H133 H 0.55283 0.44238 0.76604 0.0
C134 C 0.57346 0.46472 0.7572 0.0
C135 C 0.58943 0.50019 0.76922 0.0
C136 C 0.58546 0.45785 0.73471 0.0
H137 H 0.63133 0.55611 0.76838 0.0
C138 C 0.61785 0.52905 0.75862 0.0
C139 C 0.6298 0.52255 0.73596 0.0
C140 C 0.61268 0.48723 0.72384 0.0
C141 C 0.57282 0.42005 0.72386 0.0
H142 H 0.6222 0.48245 0.70646 0.0
C143 C 0.53629 0.39247 0.72246 0.0
C144 C 0.52551 0.35717 0.7118 0.0
C145 C 0.59813 0.41132 0.71508 0.0
H146 H 0.62653 0.43145 0.71656 0.0
C147 C 0.58735 0.37639 0.70464 0.0
H148 H 0.51631 0.39838 0.7292 0.0
C149 C 0.55126 0.34948 0.70291 0.0
H150 H 0.54336 0.32243 0.69479 0.0
H151 H 0.6071 0.37013 0.69796 0.0
H152 H 0.59462 0.11841 0.77662 0.0
C153 C 0.57091 0.11634 0.76672 0.0
C154 C 0.53747 0.09824 0.77699 0.0
C155 C 0.57401 0.13393 0.74467 0.0
H156 H 0.48198 0.0853 0.77347 0.0
C157 C 0.50726 0.09768 0.765 0.0
C158 C 0.51 0.11467 0.7429 0.0
C159 C 0.54303 0.13166 0.73249 0.0
C160 C 0.60969 0.15962 0.73618 0.0
H161 H 0.54512 0.14552 0.71572 0.0
C162 C 0.6359 0.14983 0.73148 0.0
C163 C 0.66823 0.17482 0.72179 0.0
C164 C 0.61697 0.19482 0.73201 0.0
H165 H 0.59775 0.20338 0.73592 0.0
C166 C 0.64891 0.21941 0.72271 0.0
H167 H 0.63098 0.12301 0.73478 0.0
C168 C 0.67424 0.20945 0.71746 0.0
H169 H 0.6989 0.229 0.71015 0.0
H170 H 0.65401 0.2463 0.7195 0.0
H171 H 0.8075 0.57599 0.9122 0.0
C172 C 0.78643 0.57536 0.92276 0.0
C173 C 0.76912 0.59423 0.91509 0.0
C174 C 0.77483 0.55349 0.94272 0.0
H175 H 0.72608 0.60513 0.92152 0.0
C176 C 0.74024 0.59158 0.92791 0.0
C177 C 0.72872 0.57016 0.9483 0.0
C178 C 0.74655 0.55162 0.9557 0.0
C179 C 0.78714 0.52725 0.94678 0.0
H180 H 0.73691 0.5339 0.97067 0.0
C181 C 0.82243 0.53827 0.95695 0.0
C182 C 0.83262 0.51202 0.96062 0.0
C183 C 0.76267 0.49023 0.94005 0.0
H184 H 0.73551 0.4813 0.9321 0.0
C185 C 0.77301 0.46446 0.94326 0.0
H186 H 0.8414 0.56671 0.96251 0.0
C187 C 0.80772 0.47523 0.95355 0.0
H188 H 0.81508 0.45474 0.95635 0.0
H189 H 0.75396 0.436 0.93797 0.0
H190 H 0.4595 0.23917 0.93302 0.0
C191 C 0.45818 0.21652 0.94208 0.0
C192 C 0.43981 0.18168 0.92898 0.0
C193 C 0.47601 0.22233 0.9662 0.0
H194 H 0.42693 0.12592 0.9294 0.0
C195 C 0.43989 0.15249 0.93989 0.0
C196 C 0.45693 0.15768 0.96424 0.0
C197 C 0.47379 0.19236 0.97745 0.0
C198 C 0.49962 0.25975 0.97888 0.0
H199 H 0.48663 0.19616 0.99629 0.0
C200 C 0.49011 0.28694 0.97782 0.0
C201 C 0.51337 0.32204 0.98987 0.0
C202 C 0.53287 0.26866 0.99179 0.0
H203 H 0.54166 0.24893 0.99236 0.0
C204 C 0.5557 0.30335 1.00373 0.0
H205 H 0.46478 0.28093 0.96798 0.0
C206 C 0.54602 0.32988 1.00284 0.0
H207 H 0.56419 0.35677 0.01214 0.0
H208 H 0.58114 0.30976 0.01356 0.0
H209 H 0.76174 0.20658 0.9178 0.0
C210 C 0.78529 0.22864 0.92869 0.0
C211 C 0.81833 0.24623 0.91786 0.0
C212 C 0.78222 0.24151 0.95278 0.0
H213 H 0.87292 0.29146 0.92239 0.0
C214 C 0.84812 0.27672 0.93119 0.0
C215 C 0.84552 0.28931 0.95533 0.0
C216 C 0.81297 0.27092 0.96625 0.0
C217 C 0.74647 0.22961 0.96238 0.0
H218 H 0.81082 0.28158 0.98458 0.0
C219 C 0.72107 0.19284 0.96479 0.0
C220 C 0.68841 0.18381 0.97525 0.0
C221 C 0.73813 0.25654 0.96977 0.0
H222 H 0.75671 0.28486 0.96772 0.0
C223 C 0.70589 0.24751 0.97982 0.0
H224 H 0.72682 0.17166 0.95905 0.0
C225 C 0.68129 0.21148 0.98266 0.0
H226 H 0.65636 0.20505 0.99057 0.0
H227 H 0.69997 0.26857 0.98545 0.0
H228 H 0.55228 0.79401 0.09532 0.0
C229 C 0.5545 0.77264 0.08514 0.0
C230 C 0.57117 0.75588 0.09754 0.0
C231 C 0.53911 0.76045 0.06011 0.0
H232 H 0.58405 0.71313 0.09479 0.0
C233 C 0.57228 0.7268 0.08491 0.0
C234 C 0.55778 0.7149 0.05976 0.0
C235 C 0.54204 0.73243 0.04735 0.0
C236 C 0.51623 0.77349 0.04808 0.0
H237 H 0.53045 0.72294 0.028 0.0
C238 C 0.52765 0.81077 0.04834 0.0
C239 C 0.50485 0.8218 0.03683 0.0
C240 C 0.4819 0.74778 0.03641 0.0
H241 H 0.47217 0.71897 0.03626 0.0
C242 C 0.45943 0.75879 0.02515 0.0
H243 H 0.55403 0.831 0.05715 0.0
C244 C 0.47079 0.79556 0.02533 0.0
H245 H 0.453 0.80364 0.01641 0.0
H246 H 0.43306 0.73873 0.01628 0.0
H247 H 0.2114 0.77488 0.09793 0.0
C248 C 0.23172 0.79706 0.08886 0.0
C249 C 0.24468 0.83362 0.09848 0.0
C250 C 0.24593 0.78819 0.06837 0.0
H251 H 0.29263 0.88749 0.09833 0.0
C252 C 0.27687 0.86037 0.08922 0.0
C253 C 0.29081 0.85203 0.06824 0.0
C254 C 0.27405 0.81621 0.05733 0.0
C255 C 0.23394 0.7497 0.05972 0.0
H256 H 0.28483 0.80989 0.04117 0.0
C257 C 0.19718 0.72243 0.05674 0.0
C258 C 0.18698 0.68656 0.04781 0.0
C259 C 0.25998 0.74012 0.05437 0.0
H260 H 0.28843 0.76011 0.05706 0.0
C261 C 0.2498 0.70461 0.04577 0.0
H262 H 0.17664 0.72908 0.06081 0.0
C263 C 0.21355 0.67801 0.0424 0.0
H264 H 0.20613 0.65054 0.03565 0.0
H265 H 0.27012 0.69768 0.04172 0.0
H266 H 0.26051 0.45345 0.10847 0.0
C267 C 0.23671 0.45123 0.0986 0.0
C268 C 0.20342 0.43334 0.10909 0.0
C269 C 0.23959 0.46834 0.07632 0.0
H270 H 0.1477 0.41969 0.10544 0.0
C271 C 0.17296 0.43218 0.09696 0.0
C272 C 0.17543 0.44875 0.07468 0.0
C273 C 0.20846 0.46603 0.06427 0.0
C274 C 0.27524 0.49305 0.06721 0.0
H275 H 0.21026 0.47949 0.04734 0.0
C276 C 0.30149 0.48286 0.06362 0.0
C277 C 0.33393 0.50691 0.05357 0.0
C278 C 0.28266 0.52777 0.0615 0.0
H279 H 0.26357 0.53679 0.06459 0.0
C280 C 0.31466 0.55141 0.05182 0.0
H281 H 0.29654 0.45643 0.06812 0.0
C282 C 0.33999 0.54103 0.04772 0.0
H283 H 0.36471 0.55987 0.04012 0.0
H284 H 0.31983 0.57794 0.04745 0.0
H285 H 0.47161 0.9044 0.2477 0.0
C286 C 0.45156 0.90593 0.25827 0.0
C287 C 0.43605 0.92636 0.25012 0.0
C288 C 0.43921 0.88547 0.279 0.0
H289 H 0.39466 0.94003 0.25568 0.0
C290 C 0.40798 0.92598 0.26273 0.0
C291 C 0.39583 0.906 0.28361 0.0
C292 C 0.41252 0.88704 0.29209 0.0
C293 C 0.44895 0.85765 0.28481 0.0
H294 H 0.40253 0.87095 0.30785 0.0
C295 C 0.48493 0.86612 0.29023 0.0
C296 C 0.49227 0.83898 0.29758 0.0
C297 C 0.42091 0.82175 0.28585 0.0
H298 H 0.39308 0.81438 0.28141 0.0
C299 C 0.42826 0.79499 0.29272 0.0
H300 H 0.50686 0.89357 0.28944 0.0
C301 C 0.46364 0.80355 0.29872 0.0
H302 H 0.46878 0.7824 0.30424 0.0
H303 H 0.40641 0.76755 0.29355 0.0
H304 H 0.13501 0.57826 0.26753 0.0
C305 C 0.13376 0.55575 0.27675 0.0
C306 C 0.11687 0.52113 0.26344 0.0
C307 C 0.15011 0.56153 0.30139 0.0
H308 H 0.10499 0.46573 0.26399 0.0
C309 C 0.11694 0.49214 0.27459 0.0
C310 C 0.13243 0.49726 0.29941 0.0
C311 C 0.14792 0.5317 0.31283 0.0
C312 C 0.17194 0.59884 0.31455 0.0
H313 H 0.15958 0.53541 0.33204 0.0
C314 C 0.16138 0.62514 0.31256 0.0
C315 C 0.18303 0.66029 0.32492 0.0
C316 C 0.20455 0.60863 0.32882 0.0
H317 H 0.21412 0.5896 0.33018 0.0
C318 C 0.22576 0.64338 0.34112 0.0
H319 H 0.13647 0.61842 0.30171 0.0
C320 C 0.21508 0.66908 0.33924 0.0
H321 H 0.23201 0.69605 0.3488 0.0
H322 H 0.25075 0.65051 0.35201 0.0
H323 H 0.43941 0.55154 0.25051 0.0
C324 C 0.46181 0.57083 0.26373 0.0
C325 C 0.49702 0.5874 0.25648 0.0
C326 C 0.45548 0.58163 0.28733 0.0
H327 H 0.55205 0.62696 0.26647 0.0
C328 C 0.52586 0.61312 0.27348 0.0
C329 C 0.52105 0.62199 0.29835 0.0
C330 C 0.48488 0.60766 0.30397 0.0
C331 C 0.41832 0.57036 0.29371 0.0
H332 H 0.47838 0.61755 0.32068 0.0
C333 C 0.39322 0.5343 0.29818 0.0
C334 C 0.35952 0.52602 0.30661 0.0
C335 C 0.40895 0.59736 0.29709 0.0
H336 H 0.42772 0.62513 0.29379 0.0
C337 C 0.37565 0.58908 0.30502 0.0
H338 H 0.40008 0.5132 0.29573 0.0
C339 C 0.35121 0.55381 0.30988 0.0
H340 H 0.32556 0.54807 0.31621 0.0
H341 H 0.36885 0.6102 0.30761 0.0
C342 C 0.53065 0.03582 0.08908 0.0
Eu343 Eu 0.50553 0.0187 0.04155 0.0
C344 C 0.51491 0.0217 0.11273 0.0
C345 C 0.53371 0.03921 0.1361 0.0
C346 C 0.51858 0.02606 0.15852 0.0
C347 C 0.48316 0.99601 0.15841 0.0
C348 C 0.46669 0.97644 0.13455 0.0
C349 C 0.48166 0.98969 0.11218 0.0
C350 C 0.4719 0.0468 0.01315 0.0
C351 C 0.42432 0.95422 0.02816 0.0
C352 C 0.46826 0.97744 0.93812 0.0
Eu353 Eu 0.48187 0.98652 0.98698 0.0
C354 C 0.48266 0.99806 0.91593 0.0
C355 C 0.50823 0.99433 0.9027 0.0
C356 C 0.52007 0.01175 0.88084 0.0
C357 C 0.50637 0.03302 0.8716 0.0
C358 C 0.48134 0.03736 0.88493 0.0
C359 C 0.46955 0.02003 0.90685 0.0
C360 C 0.49656 0.94519 0.01698 0.0
C361 C 0.56374 0.05486 1.00086 0.0
O362 O 0.53526 0.01361 0.074 0.0
O363 O 0.51736 0.05284 0.07687 0.0
O364 O 0.4674 0.04126 0.03668 0.0
O365 O 0.49454 0.03848 1.00653 0.0
O366 O 0.45226 0.96881 0.04515 0.0
O367 O 0.42789 0.96175 1.00434 0.0
O368 O 0.45185 0.98831 0.95334 0.0
O369 O 0.48829 0.96693 0.95019 0.0
O370 O 0.47191 0.93246 0.99809 0.0
O371 O 0.51417 0.97946 0.01799 0.0
O372 O 0.53995 0.0292 0.98374 0.0
O373 O 0.55697 0.05685 0.02463 0.0
H374 H 0.56039 0.06289 0.13707 0.0
H375 H 0.53566 0.03945 0.17576 0.0
H376 H 0.44256 0.95019 0.13255 0.0
H377 H 0.46733 0.97449 0.09441 0.0
H378 H 0.5187 0.97741 0.90899 0.0
H379 H 0.53938 0.00805 0.87082 0.0
H380 H 0.47044 0.05366 0.8781 0.0
H381 H 0.44969 0.02337 0.9164 0.0
C382 C 0.99056 0.49112 0.09136 0.0
Eu383 Eu 0.99618 0.48712 0.04296 0.0
C384 C 0.01173 0.49563 0.11555 0.0
C385 C 1.0042 0.46509 0.1284 0.0
C386 C 0.02244 0.46903 0.15188 0.0
C387 C 0.04851 0.50356 0.16299 0.0
C388 C 0.05644 0.53412 0.15022 0.0
C389 C 0.03806 0.53023 0.12675 0.0
C390 C 0.94962 0.42689 0.01158 0.0
C391 C 0.06068 0.47029 0.03241 0.0
C392 C 0.02042 0.4779 0.9423 0.0
Eu393 Eu 0.01743 0.48764 0.99064 0.0
C394 C 0.99969 0.47018 0.91766 0.0
C395 C 0.01084 0.45847 0.89675 0.0
C396 C 0.9926 0.45185 0.87289 0.0
C397 C 0.96285 0.45681 0.86955 0.0
C398 C 0.95139 0.46831 0.89049 0.0
C399 C 0.96972 0.47494 0.91448 0.0
C400 C 0.06347 0.54923 0.02079 0.0
C401 C 0.95765 0.51091 1.003 0.0
O402 O 1.00156 0.51898 0.07812 0.0
O403 O 0.97864 0.46064 0.07725 0.0
O404 O 0.93979 0.44235 0.02836 0.0
O405 O 0.98357 0.44281 0.01278 0.0
O406 O 0.04658 0.48274 0.04878 0.0
O407 O 0.05066 0.46546 1.00804 0.0
O408 O 0.00899 0.4517 0.95706 0.0
O409 O 0.03171 0.50964 0.95451 0.0
O410 O 0.0731 0.53411 1.00353 0.0
O411 O 0.02957 0.53242 0.02038 0.0
O412 O 0.96888 0.49569 0.9862 0.0
O413 O 0.96982 0.51667 0.02696 0.0
H414 H 0.98374 0.43813 0.12048 0.0
H415 H 0.01584 0.4452 0.1616 0.0
H416 H 0.07631 0.56101 0.15867 0.0
H417 H 0.04407 0.55436 0.11763 0.0
H418 H 0.03391 0.4547 0.89886 0.0
H419 H 1.00179 0.44302 0.85695 0.0
H420 H 0.92848 0.4723 0.88822 0.0
H421 H 0.96072 0.48397 0.93044 0.0
C422 C 0.48976 0.50608 0.93567 0.0
Eu423 Eu 0.51582 0.51985 0.98284 0.0
C424 C 0.50504 0.5071 0.91114 0.0
C425 C 0.51626 0.53737 0.89721 0.0
C426 C 0.53105 0.53851 0.8743 0.0
C427 C 0.53477 0.50934 0.8648 0.0
C428 C 0.52346 0.47904 0.87852 0.0
C429 C 0.50865 0.47785 0.90138 0.0
C430 C 0.55016 0.586 0.01079 0.0
C431 C 0.59767 0.54009 0.99412 0.0
C432 C 0.5584 0.52964 0.08531 0.0
Eu433 Eu 0.542 0.51974 0.03665 0.0
C434 C 0.54693 0.53822 0.10916 0.0
C435 C 0.54548 0.51892 0.12976 0.0
C436 C 0.53806 0.52853 0.15322 0.0
C437 C 0.53424 0.55946 0.15752 0.0
C438 C 0.53011 0.57478 0.13552 0.0
C439 C 0.53753 0.56519 0.11193 0.0
C440 C 0.52643 0.45946 1.00618 0.0
C441 C 0.45941 0.50305 0.02481 0.0
O442 O 0.48712 0.4811 0.94991 0.0
O443 O 0.50053 0.53714 0.94879 0.0
O444 O 0.55395 0.58124 0.98718 0.0
O445 O 0.52811 0.55599 0.0179 0.0
O446 O 0.569 0.5234 0.97772 0.0
O447 O 0.59498 0.54766 0.01809 0.0
O448 O 0.57333 0.55548 0.07031 0.0
O449 O 0.53693 0.49773 0.0731 0.0
O450 O 0.55249 0.47492 0.02407 0.0
O451 O 0.50841 0.47544 1.00615 0.0
O452 O 0.48445 0.50527 0.04155 0.0
O453 O 0.46474 0.50732 1.00075 0.0
H454 H 0.51364 0.56023 0.90404 0.0
H455 H 0.53951 0.56208 0.86393 0.0
H456 H 0.52597 0.4562 0.87146 0.0
H457 H 0.50003 0.45393 0.91138 0.0
H458 H 0.55039 0.4964 0.12779 0.0
H459 H 0.5355 0.51124 0.1679 0.0
H460 H 0.52067 0.59386 0.13582 0.0
H461 H 0.53595 0.57894 0.09588 0.0
C462 C 0.20385 0.37388 0.42414 0.0
Eu463 Eu 0.17937 0.35764 0.37652 0.0
C464 C 0.18962 0.35777 0.44794 0.0
C465 C 0.17322 0.37201 0.46338 0.0
C466 C 0.1593 0.35656 0.48555 0.0
C467 C 0.1615 0.32658 0.49277 0.0
C468 C 0.1781 0.31247 0.4776 0.0
C469 C 0.19222 0.32801 0.45553 0.0
C470 C 0.14542 0.38555 0.34834 0.0
C471 C 0.09852 0.29256 0.36257 0.0
C472 C 0.1429 0.31736 0.27285 0.0
Eu473 Eu 0.15656 0.32621 0.32175 0.0
C474 C 0.15616 0.33782 0.25042 0.0
C475 C 0.18084 0.33373 0.23633 0.0
C476 C 0.19123 0.35053 0.21407 0.0
C477 C 0.17692 0.37151 0.20526 0.0
C478 C 0.15284 0.37628 0.21947 0.0
C479 C 0.14252 0.35959 0.24179 0.0
C480 C 0.17083 0.28442 0.35157 0.0
C481 C 0.23759 0.39606 0.33602 0.0
O482 O 0.21203 0.35521 0.40832 0.0
O483 O 0.188 0.38912 0.41259 0.0
O484 O 0.14093 0.3798 0.37183 0.0
O485 O 0.16831 0.37764 0.34168 0.0
O486 O 0.12628 0.30716 0.37974 0.0
O487 O 0.10233 0.30059 0.33886 0.0
O488 O 0.12595 0.32737 0.2882 0.0
O489 O 0.16394 0.30793 0.28479 0.0
O490 O 0.14682 0.272 0.33231 0.0
O491 O 0.18839 0.31871 0.35293 0.0
O492 O 0.21445 0.3699 0.31888 0.0
O493 O 0.23035 0.39764 0.35973 0.0
H494 H 0.17105 0.39509 0.45829 0.0
H495 H 0.14673 0.36795 0.49706 0.0
H496 H 0.18025 0.28947 0.48292 0.0
H497 H 0.2051 0.3166 0.44441 0.0
H498 H 0.19163 0.31692 0.24223 0.0
H499 H 0.20982 0.34649 0.20338 0.0
H500 H 0.14148 0.39236 0.21299 0.0
H501 H 0.12329 0.36318 0.252 0.0
C502 C 0.65575 0.83562 0.4208 0.0
Eu503 Eu 0.66647 0.82303 0.37457 0.0
C504 C 0.67242 0.83672 0.44624 0.0
C505 C 0.65679 0.80643 0.46023 0.0
C506 C 0.67265 0.8074 0.48411 0.0
C507 C 0.70434 0.83871 0.49447 0.0
C508 C 0.71992 0.86905 0.4807 0.0
C509 C 0.70407 0.86815 0.45688 0.0
C510 C 0.63752 0.75639 0.34812 0.0
C511 C 0.7304 0.80762 0.36552 0.0
C512 C 0.69226 0.8171 0.27428 0.0
Eu513 Eu 0.68838 0.82546 0.32254 0.0
C514 C 0.67003 0.80808 0.24988 0.0
C515 C 0.6652 0.83449 0.23848 0.0
C516 C 0.64719 0.82667 0.21434 0.0
C517 C 0.63379 0.79241 0.20117 0.0
C518 C 0.63767 0.7657 0.21269 0.0
C519 C 0.65573 0.77349 0.2368 0.0
C520 C 0.73386 0.88635 0.35362 0.0
C521 C 0.62129 0.8379 0.33133 0.0
O522 O 0.67551 0.86116 0.40683 0.0
O523 O 0.63702 0.80399 0.40773 0.0
O524 O 0.64988 0.76349 0.3717 0.0
O525 O 0.64066 0.78472 0.33966 0.0
O526 O 0.71838 0.82262 0.3816 0.0
O527 O 0.71824 0.8003 0.34141 0.0
O528 O 0.68362 0.79108 0.28904 0.0
O529 O 0.70247 0.84848 0.28674 0.0
O530 O 0.74386 0.87144 0.33651 0.0
O531 O 0.69988 0.86933 0.35274 0.0
O532 O 0.64455 0.83921 0.31576 0.0
O533 O 0.62318 0.83086 0.35497 0.0
H534 H 0.63228 0.78194 0.45273 0.0
H535 H 0.66018 0.78378 0.49455 0.0
H536 H 0.74427 0.89351 0.48846 0.0
H537 H 0.71666 0.89216 0.44685 0.0
H538 H 0.67604 0.86148 0.24791 0.0
H539 H 0.64445 0.8476 0.20566 0.0
H540 H 0.62753 0.73912 0.20274 0.0
H541 H 0.65928 0.75269 0.24496 0.0
C542 C 0.15506 0.84242 0.26789 0.0
Eu543 Eu 0.18185 0.85618 0.31496 0.0
C544 C 0.16926 0.84439 0.24302 0.0
C545 C 0.15289 0.85107 0.22217 0.0
C546 C 0.16506 0.85171 0.19831 0.0
C547 C 0.19373 0.84549 0.19482 0.0
C548 C 0.21052 0.83931 0.21572 0.0
C549 C 0.19851 0.83895 0.23966 0.0
C550 C 0.21587 0.92212 0.3432 0.0
C551 C 0.26367 0.87681 0.32664 0.0
C552 C 0.22377 0.86559 0.41756 0.0
Eu553 Eu 0.20779 0.85586 0.36891 0.0
C554 C 0.21145 0.87373 0.44111 0.0
C555 C 0.20957 0.8543 0.46171 0.0
C556 C 0.2011 0.86342 0.4849 0.0
C557 C 0.19663 0.89399 0.48892 0.0
C558 C 0.19291 0.90931 0.46682 0.0
C559 C 0.2014 0.90023 0.44351 0.0
C560 C 0.19253 0.79581 0.33844 0.0
C561 C 0.12525 0.83857 0.35691 0.0
O562 O 0.15463 0.81787 0.28165 0.0
O563 O 0.16541 0.87321 0.28121 0.0
O564 O 0.21978 0.91768 0.31956 0.0
O565 O 0.19381 0.89198 0.35012 0.0
O566 O 0.23519 0.86012 0.31008 0.0
O567 O 0.26077 0.88414 0.35059 0.0
O568 O 0.23866 0.89159 0.40266 0.0
O569 O 0.20282 0.83366 0.40525 0.0
O570 O 0.21851 0.81131 0.35638 0.0
O571 O 0.17441 0.8117 0.33828 0.0
O572 O 0.1502 0.84073 0.37366 0.0
O573 O 0.13066 0.84312 0.33288 0.0
H574 H 0.13041 0.85543 0.2243 0.0
H575 H 0.15175 0.85654 0.18244 0.0
H576 H 0.23269 0.83451 0.21345 0.0
H577 H 0.21186 0.83408 0.25547 0.0
H578 H 0.21494 0.83207 0.45996 0.0
H579 H 0.19826 0.84607 0.49959 0.0
H580 H 0.18301 0.92801 0.46682 0.0
H581 H 0.20013 0.91401 0.4274 0.0
C582 C 0.86574 0.70993 0.75561 0.0
Eu583 Eu 0.84154 0.69213 0.70801 0.0
C584 C 0.85106 0.6946 0.77951 0.0
C585 C 0.83455 0.7094 0.79432 0.0
C586 C 0.82006 0.69452 0.81651 0.0
C587 C 0.82185 0.66459 0.82437 0.0
C588 C 0.83854 0.64994 0.80982 0.0
C589 C 0.85317 0.66487 0.78772 0.0
C590 C 0.80761 0.71942 0.67902 0.0
C591 C 0.76115 0.62648 0.69495 0.0
C592 C 0.80475 0.64905 0.60497 0.0
Eu593 Eu 0.81865 0.65925 0.65382 0.0
C594 C 0.81838 0.66918 0.58249 0.0
C595 C 0.84262 0.66419 0.56848 0.0
C596 C 0.85371 0.68109 0.54635 0.0
C597 C 0.84054 0.70304 0.5376 0.0
C598 C 0.81684 0.70862 0.5517 0.0
C599 C 0.80583 0.69185 0.5739 0.0
C600 C 0.83351 0.61845 0.68425 0.0
C601 C 0.89993 0.72851 0.66748 0.0
O602 O 0.87385 0.69059 0.74037 0.0
O603 O 0.85027 0.72502 0.74343 0.0
O604 O 0.80279 0.71385 0.70249 0.0
O605 O 0.83057 0.71139 0.67269 0.0
O606 O 0.7891 0.64151 0.71192 0.0
O607 O 0.7646 0.634 0.67113 0.0
O608 O 0.78791 0.65953 0.62005 0.0
O609 O 0.82562 0.63967 0.6172 0.0
O610 O 0.80927 0.60552 0.66513 0.0
O611 O 0.85091 0.65273 0.68524 0.0
O612 O 0.87659 0.70223 0.65053 0.0
O613 O 0.89278 0.73088 0.69111 0.0
H614 H 0.83271 0.73244 0.78872 0.0
H615 H 0.8074 0.7063 0.82755 0.0
H616 H 0.84035 0.62695 0.81563 0.0
H617 H 0.86605 0.65299 0.77707 0.0
H618 H 0.85258 0.64669 0.57438 0.0
H619 H 0.872 0.67645 0.53573 0.0
H620 H 0.80637 0.72547 0.54525 0.0
H621 H 0.787 0.69617 0.58407 0.0
C622 C 0.32306 0.16907 0.75615 0.0
Eu623 Eu 0.33435 0.15675 0.71005 0.0
C624 C 0.33935 0.16964 0.7816 0.0
C625 C 0.32365 0.1389 0.79517 0.0
C626 C 0.3393 0.13929 0.81898 0.0
C627 C 0.37084 0.17046 0.82972 0.0
C628 C 0.38644 0.20126 0.81639 0.0
C629 C 0.3708 0.20094 0.79263 0.0
C630 C 0.30147 0.09121 0.68142 0.0
C631 C 0.39709 0.1395 0.70152 0.0
C632 C 0.36038 0.14733 0.60943 0.0
Eu633 Eu 0.35711 0.15854 0.65739 0.0
C634 C 0.33806 0.1377 0.58513 0.0
C635 C 0.31945 0.15576 0.5784 0.0
C636 C 0.30101 0.14809 0.55439 0.0
C637 C 0.30068 0.1221 0.53691 0.0
C638 C 0.31824 0.10326 0.5439 0.0
C639 C 0.33684 0.11107 0.5678 0.0
C640 C 0.40276 0.21893 0.68869 0.0
C641 C 0.29227 0.17504 0.6663 0.0
O642 O 0.34319 0.19473 0.74237 0.0
O643 O 0.30422 0.13758 0.74288 0.0
O644 O 0.31194 0.09547 0.70524 0.0
O645 O 0.30835 0.12134 0.67438 0.0
O646 O 0.38552 0.15517 0.71739 0.0
O647 O 0.38471 0.13166 0.67738 0.0
O648 O 0.35094 0.1219 0.62483 0.0
O649 O 0.37138 0.17947 0.62106 0.0
O650 O 0.41265 0.20444 0.67118 0.0
O651 O 0.36883 0.20208 0.6878 0.0
O652 O 0.31407 0.17358 0.65037 0.0
O653 O 0.29457 0.16943 0.69028 0.0
H654 H 0.29929 0.11449 0.78737 0.0
H655 H 0.32681 0.11531 0.82907 0.0
H656 H 0.41067 0.22562 0.82445 0.0
H657 H 0.38344 0.22525 0.78292 0.0
H658 H 0.31973 0.17626 0.59146 0.0
H659 H 0.28753 0.16282 0.54927 0.0
H660 H 0.31823 0.08313 0.53062 0.0
H661 H 0.35095 0.09681 0.57258 0.0
C662 C 0.82373 0.178 0.60056 0.0
Eu663 Eu 0.84965 0.19177 0.64779 0.0
C664 C 0.83905 0.17842 0.57611 0.0
C665 C 0.85345 0.20958 0.5629 0.0
C666 C 0.86836 0.21006 0.54012 0.0
C667 C 0.86903 0.17935 0.53002 0.0
C668 C 0.85451 0.14816 0.54301 0.0
C669 C 0.83958 0.14763 0.56574 0.0
C670 C 0.88287 0.25757 0.67628 0.0
C671 C 0.93171 0.21274 0.6589 0.0
C672 C 0.89224 0.2009 0.75013 0.0
Eu673 Eu 0.87619 0.19124 0.70142 0.0
C674 C 0.87826 0.20748 0.77333 0.0
C675 C 0.90195 0.22456 0.7952 0.0
C676 C 0.88916 0.22949 0.81776 0.0
C677 C 0.85243 0.2175 0.81882 0.0
C678 C 0.82868 0.2008 0.79687 0.0
C679 C 0.8415 0.19579 0.77428 0.0
C680 C 0.86098 0.13139 0.67063 0.0
C681 C 0.79316 0.17306 0.68979 0.0
O682 O 0.82044 0.15293 0.61495 0.0
O683 O 0.83497 0.20923 0.61358 0.0
O684 O 0.88675 0.2534 0.65261 0.0
O685 O 0.86131 0.22717 0.68314 0.0
O686 O 0.90301 0.1959 0.64255 0.0
O687 O 0.92905 0.22002 0.68292 0.0
O688 O 0.906 0.22733 0.7355 0.0
O689 O 0.87268 0.16899 0.73746 0.0
O690 O 0.88714 0.14691 0.68847 0.0
O691 O 0.84278 0.14718 0.67076 0.0
O692 O 0.81821 0.17478 0.70623 0.0
O693 O 0.79852 0.17851 0.66585 0.0
H694 H 0.8533 0.23368 0.57019 0.0
H695 H 0.87934 0.23436 0.53033 0.0
H696 H 0.85465 0.12415 0.53549 0.0
H697 H 0.82849 0.12304 0.57519 0.0
H698 H 0.93035 0.23369 0.79491 0.0
H699 H 0.90788 0.24244 0.83448 0.0
H700 H 0.80025 0.19138 0.79731 0.0
H701 H 0.82265 0.18238 0.7577 0.0
C702 C 0.35512 0.87421 0.05984 0.0
C703 C 0.32519 0.87971 0.05874 0.0
C704 C 0.36104 0.93599 0.03889 0.0
C705 C 0.38879 0.92745 0.03664 0.0
N706 N 0.4085 0.88399 0.04096 0.0
N707 N 0.29777 0.91328 0.04349 0.0
C708 C 0.3847 0.89525 0.04597 0.0
C709 C 0.32756 0.90989 0.04716 0.0
N710 N 0.35592 0.84969 0.07485 0.0
N711 N 0.36729 0.96974 0.03459 0.0
H712 H 0.27284 0.89476 0.0492 0.0
H713 H 0.29714 0.93273 0.03289 0.0
H714 H 0.39219 0.9901 0.03016 0.0
H715 H 0.34925 0.97863 0.03816 0.0
H716 H 0.37861 0.84719 0.07828 0.0
H717 H 0.33538 0.83468 0.08607 0.0
H718 H 0.40497 0.85897 0.04523 0.0
H719 H 0.42963 0.89789 0.03006 0.0
C720 C 0.1468 0.48684 0.06905 0.0
C721 C 0.14511 0.45305 0.06411 0.0
C722 C 0.087 0.4294 0.03879 0.0
C723 C 0.09046 0.46433 0.04192 0.0
N724 N 0.12836 0.52825 0.05487 0.0
N725 N 0.11625 0.39336 0.04183 0.0
C726 C 0.12164 0.49356 0.0557 0.0
C727 C 0.11592 0.42461 0.04825 0.0
N728 N 0.17213 0.51241 0.0869 0.0
N729 N 0.0556 0.40054 0.02766 0.0
H730 H 0.13653 0.38874 0.04893 0.0
H731 H 0.09791 0.37318 0.0282 0.0
H732 H 0.03407 0.40303 0.02035 0.0
H733 H 0.04982 0.37376 0.02729 0.0
H734 H 0.17205 0.53587 0.09328 0.0
H735 H 0.19124 0.5087 0.09708 0.0
H736 H 0.15232 0.55108 0.06247 0.0
H737 H 0.11176 0.53441 0.04398 0.0
C738 C 0.52262 0.65152 0.03787 0.0
C739 C 0.55642 0.6822 0.04692 0.0
C740 C 0.58618 0.64829 0.03443 0.0
C741 C 0.55312 0.62005 0.02213 0.0
N742 N 0.49097 0.59864 1.0077 0.0
N743 N 0.62135 0.71214 0.04919 0.0
C744 C 0.52167 0.62288 0.02244 0.0
C745 C 0.58858 0.68134 0.04383 0.0
N746 N 0.49139 0.64873 0.045 0.0
N747 N 0.61477 0.64302 0.03828 0.0
H748 H 0.62422 0.73712 0.05541 0.0
H749 H 0.64539 0.71358 0.04507 0.0
H750 H 0.61305 0.61829 0.0331 0.0
H751 H 0.63857 0.66163 0.0491 0.0
H752 H 0.46637 0.62522 0.04088 0.0
H753 H 0.49084 0.66815 0.0574 0.0
H754 H 0.46829 0.60147 1.0057 0.0
H755 H 0.48947 0.57797 0.99543 0.0
C756 C 0.86896 0.35544 0.96716 0.0
C757 C 0.87438 0.32531 0.9676 0.0
C758 C 0.92875 0.36126 0.99707 0.0
C759 C 0.9241 0.39194 0.99609 0.0
N760 N 0.89129 0.41913 0.97847 0.0
N761 N 0.91194 0.30059 0.97931 0.0
C762 C 0.89454 0.38918 0.9807 0.0
C763 C 0.90523 0.32867 0.98131 0.0
N764 N 0.8387 0.35148 0.95414 0.0
N765 N 0.95387 0.36229 0.01445 0.0
H766 H 0.89455 0.27591 0.96878 0.0
H767 H 0.93595 0.30262 0.98641 0.0
H768 H 0.97022 0.38473 0.0273 0.0
H769 H 0.95626 0.33982 0.01794 0.0
H770 H 0.82993 0.37013 0.95603 0.0
H771 H 0.8211 0.32854 0.94201 0.0
H772 H 0.87413 0.42081 0.96481 0.0
H773 H 0.90699 0.44328 0.98967 0.0
C774 C 0.66547 0.52765 0.95855 0.0
C775 C 0.69547 0.56344 0.96029 0.0
C776 C 0.66099 0.58502 0.98377 0.0
C777 C 0.63302 0.54861 0.98479 0.0
N778 N 0.61332 0.48488 0.97788 0.0
N779 N 0.72405 0.62552 0.9786 0.0
C780 C 0.63671 0.51983 0.97357 0.0
C781 C 0.69395 0.59198 0.97414 0.0
N782 N 0.66361 0.50128 0.94175 0.0
N783 N 0.65542 0.61297 0.99053 0.0
H784 H 0.74862 0.63157 0.97203 0.0
H785 H 0.72539 0.64629 0.99066 0.0
H786 H 0.63096 0.60869 0.99619 0.0
H787 H 0.67352 0.6399 0.98794 0.0
H788 H 0.6407 0.47569 0.938 0.0
H789 H 0.68331 0.50615 0.92954 0.0
H790 H 0.61661 0.4631 0.97205 0.0
H791 H 0.59306 0.47833 0.98977 0.0
C792 C 0.42886 0.09511 0.98018 0.0
C793 C 0.45996 0.12791 0.97558 0.0
C794 C 0.49784 0.10927 0.99878 0.0
C795 C 0.46721 0.07487 1.00093 0.0
N796 N 0.40497 0.03199 0.98728 0.0
N797 N 0.52454 0.16065 0.97423 0.0
C798 C 0.43303 0.06684 0.9898 0.0
C799 C 0.49465 0.13332 0.98299 0.0
N800 N 0.39547 0.09124 0.97623 0.0
N801 N 0.52984 0.11958 0.01238 0.0
H802 H 0.52323 0.17779 0.96158 0.0
H803 H 0.55002 0.16356 0.97723 0.0
H804 H 0.53292 0.10355 0.02515 0.0
H805 H 0.55212 0.14562 0.01301 0.0
H806 H 0.37236 0.06915 0.98157 0.0
H807 H 0.39129 0.11162 0.96991 0.0
H808 H 0.38024 0.02412 0.97739 0.0
H809 H 0.40794 0.01042 0.99247 0.0
C810 C 0.66236 0.12852 0.99967 0.0
C811 C 0.66005 0.14575 0.97825 0.0
C812 C 0.59509 0.10316 0.97137 0.0
C813 C 0.59734 0.0848 0.99226 0.0
N814 N 0.63462 0.07475 0.0223 0.0
N815 N 0.62678 0.1432 0.93982 0.0
C816 C 0.6315 0.09586 1.00519 0.0
C817 C 0.62723 0.13065 0.96272 0.0
N818 N 0.6935 0.14419 0.01535 0.0
N819 N 0.5624 0.09664 0.96097 0.0
H820 H 0.65005 0.16342 0.9331 0.0
H821 H 0.60434 0.13102 0.92658 0.0
H822 H 0.538 0.07879 0.96761 0.0
H823 H 0.55962 0.112 0.94749 0.0
H824 H 0.69554 0.13545 0.03286 0.0
H825 H 0.71686 0.16736 0.01146 0.0
H826 H 0.65927 0.07961 0.03062 0.0
H827 H 0.61278 0.05034 0.02635 0.0
C828 C 0.86945 0.5132 0.99869 0.0
C829 C 0.86819 0.5215 0.97355 0.0
C830 C 0.93018 0.53423 0.97157 0.0
C831 C 0.92854 0.51864 0.99466 0.0
N832 N 0.89291 0.48841 0.0287 0.0
N833 N 0.89673 0.53878 0.93523 0.0
C834 C 0.89751 0.50742 1.00814 0.0
C835 C 0.89856 0.5321 0.9598 0.0
N836 N 0.84331 0.51018 0.01343 0.0
N837 N 0.96217 0.55187 0.9612 0.0
H838 H 0.87447 0.53872 0.92638 0.0
H839 H 0.91632 0.54225 0.92329 0.0
H840 H 0.98616 0.55542 0.96992 0.0
H841 H 0.9657 0.5663 0.94551 0.0
H842 H 0.84467 0.50774 0.0327 0.0
H843 H 0.82225 0.514 1.00689 0.0
H844 H 0.86881 0.47598 0.03705 0.0
H845 H 0.9113 0.48162 0.03612 0.0
C846 C 0.48862 0.3586 0.00938 0.0
C847 C 0.50491 0.35176 0.98907 0.0
C848 C 0.52075 0.41091 0.97454 0.0
C849 C 0.51126 0.42049 0.99751 0.0
N850 N 0.48295 0.40326 0.03594 0.0
N851 N 0.53455 0.36959 0.95122 0.0
C852 C 0.4935 0.39396 0.01445 0.0
C853 C 0.51973 0.37713 0.97099 0.0
N854 N 0.46903 0.3313 0.02391 0.0
N855 N 0.5309 0.43428 0.95628 0.0
H856 H 0.53265 0.34441 0.94752 0.0
H857 H 0.54989 0.38853 0.93909 0.0
H858 H 0.53164 0.45899 0.95863 0.0
H859 H 0.53557 0.4281 0.93826 0.0
H860 H 0.45404 0.33328 0.0379 0.0
H861 H 0.4654 0.30534 0.02053 0.0
H862 H 0.47379 0.3869 0.05065 0.0
H863 H 0.48438 0.42825 0.03945 0.0
C864 C 0.12868 0.65012 0.02052 0.0
C865 C 0.1487 0.65677 0.04414 0.0
C866 C 0.10353 0.59702 0.0556 0.0
C867 C 0.08734 0.58801 0.03046 0.0
N868 N 0.08013 0.60632 0.98981 0.0
N869 N 0.15446 0.63914 0.0853 0.0
C870 C 0.09827 0.61498 0.01328 0.0
C871 C 0.13539 0.6312 0.06224 0.0
N872 N 0.13932 0.67736 1.00501 0.0
N873 N 0.08867 0.57253 0.07287 0.0
H874 H 0.17673 0.66468 0.09103 0.0
H875 H 0.14912 0.62057 0.09853 0.0
H876 H 0.06583 0.54721 0.06815 0.0
H877 H 0.09739 0.57775 0.09197 0.0
H878 H 0.12516 0.67556 0.98808 0.0
H879 H 0.16162 0.70312 0.00991 0.0
H880 H 0.08831 0.62299 0.97523 0.0
H881 H 0.05647 0.58163 0.98472 0.0
C882 C 0.36047 0.47554 0.02817 0.0
C883 C 0.36315 0.49843 0.04952 0.0
C884 C 0.42855 0.52411 0.05462 0.0
C885 C 0.42594 0.49994 0.03405 0.0
N886 N 0.38825 0.44675 1.00525 0.0
N887 N 0.39792 0.53642 0.0871 0.0
C888 C 0.39148 0.47377 0.02205 0.0
C889 C 0.39664 0.51978 0.06416 0.0
N890 N 0.32884 0.45679 0.01306 0.0
N891 N 0.46122 0.55309 0.06384 0.0
H892 H 0.37483 0.53355 0.09457 0.0
H893 H 0.42109 0.54968 0.09967 0.0
H894 H 0.48527 0.55933 0.05638 0.0
H895 H 0.46401 0.57346 0.07704 0.0
H896 H 0.32644 0.44315 0.99563 0.0
H897 H 0.30546 0.45679 0.01722 0.0
H898 H 0.36352 0.42498 0.99766 0.0
H899 H 0.41021 0.44418 1.00079 0.0
C900 C 0.50647 0.87788 0.0552 0.0
C901 C 0.51568 0.86066 0.03595 0.0
C902 C 0.52746 0.9097 0.00935 0.0
C903 C 0.51131 0.9226 0.02636 0.0
N904 N 0.49008 0.92314 0.06693 0.0
N905 N 0.53832 0.86099 0.99577 0.0
C906 C 0.50293 0.90838 0.05002 0.0
C907 C 0.52798 0.87733 0.01353 0.0
N908 N 0.50053 0.86447 0.07818 0.0
N909 N 0.54207 0.92851 0.98921 0.0
H910 H 0.54062 0.8383 0.99895 0.0
H911 H 0.54355 0.86898 0.97771 0.0
H912 H 0.54223 0.95248 0.98603 0.0
H913 H 0.55666 0.9224 0.97693 0.0
H914 H 0.49591 0.87673 0.09378 0.0
H915 H 0.50281 0.84204 0.08221 0.0
H916 H 0.47938 0.91205 0.08337 0.0
H917 H 0.48963 0.94674 0.06405 0.0
C918 C 0.02941 0.21093 0.39303 0.0
C919 C 0.99949 0.21642 0.39256 0.0
C920 C 0.03499 0.2734 0.37333 0.0
C921 C 0.06292 0.26519 0.37069 0.0
N922 N 0.08286 0.22173 0.37382 0.0
N923 N 0.97183 0.2504 0.3788 0.0
C924 C 0.05896 0.23265 0.37934 0.0
C925 C 1.00166 0.24695 0.38167 0.0
N926 N 0.03024 0.18574 0.40732 0.0
N927 N 0.04091 0.30712 0.36928 0.0
H928 H 0.94716 0.23176 0.38481 0.0
H929 H 0.97084 0.27008 0.36867 0.0
H930 H 0.06556 0.32757 0.36453 0.0
H931 H 0.02286 0.31586 0.37318 0.0
H932 H 0.05298 0.18322 0.41042 0.0
H933 H 0.00967 0.17002 0.4183 0.0
H934 H 0.07945 0.19657 0.37752 0.0
H935 H 0.10394 0.23615 0.36301 0.0
C936 C 0.81626 0.82248 0.40106 0.0
C937 C 0.81254 0.7876 0.39743 0.0
C938 C 0.75357 0.76466 0.37367 0.0
C939 C 0.7593 0.80053 0.37501 0.0
N940 N 0.80032 0.86472 0.38499 0.0
N941 N 0.78013 0.72634 0.37759 0.0
C942 C 0.79182 0.82975 0.38736 0.0
C943 C 0.78187 0.75887 0.38293 0.0
N944 N 0.84271 0.84853 0.4181 0.0
N945 N 0.72066 0.73599 0.36467 0.0
H946 H 0.80004 0.72105 0.38449 0.0
H947 H 0.76038 0.70563 0.36488 0.0
H948 H 0.69918 0.73911 0.35822 0.0
H949 H 0.7137 0.70901 0.36561 0.0
H950 H 0.84421 0.87312 0.42345 0.0
H951 H 0.86103 0.84425 0.42881 0.0
H952 H 0.82523 0.88716 0.39151 0.0
H953 H 0.78406 0.87116 0.37395 0.0
C954 C 0.25493 0.01686 0.37748 0.0
C955 C 0.2229 0.01774 0.38109 0.0
C956 C 0.1878 0.95905 0.35583 0.0
C957 C 0.21915 0.9561 0.355 0.0
N958 N 0.28085 0.97851 0.37075 0.0
N959 N 0.15788 0.98447 0.37931 0.0
C960 C 0.25233 0.984 0.3674 0.0
C961 C 0.18899 0.98735 0.37183 0.0
N962 N 0.28778 0.0475 0.38304 0.0
N963 N 0.15694 0.93518 0.34109 0.0
H964 H 0.15751 1.00361 0.39211 0.0
H965 H 0.13278 0.96112 0.37504 0.0
H966 H 0.15524 0.91473 0.32848 0.0
H967 H 0.13432 0.93813 0.33946 0.0
H968 H 0.31173 0.04901 0.37857 0.0
H969 H 0.2908 0.07235 0.38978 0.0
H970 H 0.30473 0.9968 0.38161 0.0
H971 H 0.279 0.95386 0.36509 0.0
C972 C 0.58935 0.66269 0.31082 0.0
C973 C 0.55332 0.6499 0.31646 0.0
C974 C 0.57492 0.70266 0.34738 0.0
C975 C 0.60903 0.71922 0.33765 0.0
N976 N 0.64962 0.71389 0.31066 0.0
N977 N 0.5253 0.64481 0.35494 0.0
C978 C 0.61664 0.69881 0.31965 0.0
C979 C 0.5492 0.66602 0.33903 0.0
N980 N 0.59834 0.63872 0.3004 0.0
N981 N 0.56651 0.72176 0.36433 0.0
H982 H 0.51196 0.61653 0.35193 0.0
H983 H 0.52341 0.65482 0.37271 0.0
H984 H 0.58423 0.74885 0.37087 0.0
H985 H 0.5407 0.71128 0.37012 0.0
H986 H 0.62471 0.64539 0.29795 0.0
H987 H 0.57968 0.61097 0.29738 0.0
H988 H 0.65519 0.70177 0.29541 0.0
H989 H 0.67067 0.73953 0.31748 0.0
C990 C 0.36027 0.9286 0.30763 0.0
C991 C 0.36215 0.89988 0.29443 0.0
C992 C 0.30295 0.85643 0.30691 0.0
C993 C 0.29906 0.88529 0.31766 0.0
N994 N 0.32111 0.94963 0.3227 0.0
N995 N 0.33055 0.83774 0.2758 0.0
C996 C 0.327 0.9217 0.3166 0.0
C997 C 0.33206 0.86415 0.29237 0.0
N998 N 0.39026 0.96222 0.31203 0.0
N999 N 0.27949 0.82153 0.31124 0.0
H1000 H 0.35057 0.84258 0.26388 0.0
H1001 H 0.30764 0.81217 0.27188 0.0
H1002 H 0.25896 0.81504 0.32285 0.0
H1003 H 0.28297 0.79975 0.30575 0.0
H1004 H 0.39128 0.98318 0.32368 0.0
H1005 H 0.41498 0.96821 0.30575 0.0
H1006 H 0.33931 0.97653 0.32011 0.0
H1007 H 0.29636 0.94531 0.32772 0.0
C1008 C 0.16941 0.47314 0.3196 0.0
C1009 C 0.13499 0.46755 0.31113 0.0
C1010 C 0.10731 0.40603 0.3246 0.0
C1011 C 0.14104 0.41399 0.33652 0.0
N1012 N 0.20305 0.45881 0.34989 0.0
N1013 N 0.07027 0.43048 0.30992 0.0
C1014 C 0.17178 0.44868 0.33538 0.0
C1015 C 0.10358 0.43446 0.31485 0.0
N1016 N 0.19987 0.50099 0.31182 0.0
N1017 N 0.07928 0.37114 0.32154 0.0
H1018 H 0.06639 0.45098 0.30346 0.0
H1019 H 0.04679 0.40815 0.31458 0.0
H1020 H 0.08188 0.34952 0.32712 0.0
H1021 H 0.055 0.36334 0.31102 0.0
H1022 H 0.2253 0.50402 0.31557 0.0
H1023 H 0.19927 0.51853 0.29923 0.0
H1024 H 0.22529 0.48495 0.35122 0.0
H1025 H 0.20535 0.44243 0.36274 0.0
C1026 C 0.3348 0.47357 0.33408 0.0
C1027 C 0.33149 0.4886 0.3117 0.0
C1028 C 0.26691 0.4439 0.30584 0.0
C1029 C 0.27041 0.42711 0.32729 0.0
N1030 N 0.30964 0.42132 0.35833 0.0
N1031 N 0.29674 0.48157 0.27279 0.0
C1032 C 0.305 0.44054 0.34037 0.0
C1033 C 0.2983 0.47136 0.29639 0.0
N1034 N 0.36577 0.49159 0.34993 0.0
N1035 N 0.23365 0.43586 0.29553 0.0
H1036 H 0.3194 0.50149 0.26529 0.0
H1037 H 0.27403 0.46767 0.25985 0.0
H1038 H 0.20973 0.41817 0.30282 0.0
H1039 H 0.22996 0.45004 0.28153 0.0
H1040 H 0.36824 0.48428 0.36789 0.0
H1041 H 0.38827 0.5154 0.34581 0.0
H1042 H 0.33481 0.42792 0.3668 0.0
H1043 H 0.2887 0.39673 0.36298 0.0
C1044 C 0.54225 0.82773 0.28845 0.0
C1045 C 0.52953 0.84609 0.30394 0.0
C1046 C 0.582 0.86606 0.33462 0.0
C1047 C 0.59074 0.84214 0.32134 0.0
N1048 N 0.57433 0.79482 0.2875 0.0
N1049 N 0.5355 0.88031 0.34321 0.0
C1050 C 0.56986 0.8218 0.29856 0.0
C1051 C 0.54908 0.86495 0.32735 0.0
N1052 N 0.52756 0.81558 0.26411 0.0
N1053 N 0.60554 0.89055 0.35368 0.0
H1054 H 0.51176 0.88048 0.33851 0.0
H1055 H 0.54646 0.89062 0.36171 0.0
H1056 H 0.63039 0.89296 0.35897 0.0
H1057 H 0.60209 0.91088 0.36243 0.0
H1058 H 0.53798 0.80492 0.25121 0.0
H1059 H 0.50737 0.81979 0.25618 0.0
H1060 H 0.55738 0.77704 0.27224 0.0
H1061 H 0.59218 0.7873 0.29512 0.0
C1062 C 0.18811 0.71403 0.30473 0.0
C1063 C 0.17341 0.68906 0.32306 0.0
C1064 C 0.15967 0.73053 0.34704 0.0
C1065 C 0.17752 0.75685 0.32999 0.0
N1066 N 0.19804 0.77023 0.28898 0.0
N1067 N 0.13631 0.66835 0.35727 0.0
C1068 C 0.18798 0.74727 0.30749 0.0
C1069 C 0.15591 0.69556 0.34268 0.0
N1070 N 0.20403 0.70677 0.28556 0.0
N1071 N 0.14808 0.73977 0.36801 0.0
H1072 H 0.13347 0.64265 0.35436 0.0
H1073 H 0.12055 0.67006 0.37075 0.0
H1074 H 0.14877 0.76447 0.37095 0.0
H1075 H 0.13876 0.72365 0.38282 0.0
H1076 H 0.21926 0.72561 0.27336 0.0
H1077 H 0.20313 0.68197 0.28249 0.0
H1078 H 0.20337 0.76396 0.2712 0.0
H1079 H 0.19808 0.79462 0.29089 0.0
C1080 C 0.80442 0.97103 0.39445 0.0
C1081 C 0.81904 0.99446 0.37528 0.0
C1082 C 0.76773 0.95165 0.34541 0.0
C1083 C 0.75742 0.92535 0.36302 0.0
N1084 N 0.76337 0.91023 0.40504 0.0
N1085 N 0.81412 0.00924 0.33302 0.0
C1086 C 0.77452 0.93539 0.38798 0.0
C1087 C 0.80007 0.9857 0.35102 0.0
N1088 N 0.81968 0.98288 0.41871 0.0
N1089 N 0.74649 0.94378 0.32335 0.0
H1090 H 0.8368 0.03502 0.337 0.0
H1091 H 0.8043 1.00292 0.31409 0.0
H1092 H 0.72252 0.91913 0.31904 0.0
H1093 H 0.7507 0.96253 0.31043 0.0
H1094 H 0.80896 0.96851 0.4341 0.0
H1095 H 0.84172 0.00881 0.42371 0.0
H1096 H 0.77713 0.91393 0.42257 0.0
H1097 H 0.74069 0.88466 0.40106 0.0
C1098 C 0.06315 0.85485 0.39705 0.0
C1099 C 0.0296 0.83392 0.38247 0.0
C1100 C 0.05743 0.80969 0.35422 0.0
C1101 C 0.09196 0.83557 0.36624 0.0
N1102 N 0.12759 0.88841 0.39625 0.0
N1103 N 0.9949 0.79324 0.34567 0.0
C1104 C 0.09487 0.85944 0.38711 0.0
C1105 C 0.0266 0.81149 0.36074 0.0
N1106 N 0.06471 0.87088 0.42031 0.0
N1107 N 0.05394 0.78292 0.33705 0.0
H1108 H 0.97165 0.79336 0.35006 0.0
H1109 H 0.99233 0.77996 0.32806 0.0
H1110 H 0.07579 0.78034 0.3323 0.0
H1111 H 0.02911 0.76135 0.32942 0.0
H1112 H 0.08804 0.8838 0.43275 0.0
H1113 H 0.04175 0.86779 0.42811 0.0
H1114 H 0.13049 0.9085 0.40975 0.0
H1115 H 0.15148 0.89498 0.38842 0.0
C1116 C 0.19895 0.21406 0.34942 0.0
C1117 C 0.18637 0.19833 0.37209 0.0
C1118 C 0.17611 0.24803 0.3854 0.0
C1119 C 0.18482 0.26148 0.36156 0.0
N1120 N 0.21503 0.26502 0.32445 0.0
N1121 N 0.17226 0.20441 0.41432 0.0
C1122 C 0.19995 0.24704 0.3448 0.0
C1123 C 0.17829 0.21694 0.39107 0.0
N1124 N 0.20806 0.1963 0.33185 0.0
N1125 N 0.1641 0.26401 0.40204 0.0
H1126 H 0.17357 0.18158 0.41871 0.0
H1127 H 0.1687 0.21785 0.42975 0.0
H1128 H 0.16538 0.28843 0.39911 0.0
H1129 H 0.1526 0.25319 0.41834 0.0
H1130 H 0.21337 0.2037 0.31367 0.0
H1131 H 0.20918 0.17306 0.33531 0.0
H1132 H 0.22894 0.25773 0.31232 0.0
H1133 H 0.21633 0.28945 0.32102 0.0
C1134 C 0.665 0.58094 0.7152 0.0
C1135 C 0.66353 0.5509 0.72638 0.0
C1136 C 0.72257 0.56712 0.7125 0.0
C1137 C 0.72589 0.59919 0.70345 0.0
N1138 N 0.70338 0.64071 0.70189 0.0
N1139 N 0.69523 0.52128 0.74138 0.0
C1140 C 0.69789 0.60725 0.70629 0.0
C1141 C 0.69367 0.54582 0.72676 0.0
N1142 N 0.63494 0.58404 0.71265 0.0
N1143 N 0.74637 0.55617 0.70678 0.0
H1144 H 0.67506 0.50583 0.75273 0.0
H1145 H 0.71819 0.51912 0.74435 0.0
H1146 H 0.76684 0.57015 0.69544 0.0
H1147 H 0.74334 0.53127 0.71084 0.0
H1148 H 0.63341 0.60329 0.70233 0.0
H1149 H 0.61065 0.56555 0.71921 0.0
H1150 H 0.68527 0.64934 0.70588 0.0
H1151 H 0.72776 0.6611 0.69675 0.0
C1152 C 0.48493 0.15538 0.73494 0.0
C1153 C 0.48019 0.11999 0.73271 0.0
C1154 C 0.41916 0.09641 0.71228 0.0
C1155 C 0.42599 0.13245 0.71127 0.0
N1156 N 0.46862 0.19677 0.71784 0.0
N1157 N 0.44451 0.05713 0.71629 0.0
C1158 C 0.4598 0.16208 0.72157 0.0
C1159 C 0.44778 0.09053 0.72047 0.0
N1160 N 0.51283 0.18247 0.75055 0.0
N1161 N 0.38493 0.06787 0.70693 0.0
H1162 H 0.4648 0.05185 0.72224 0.0
H1163 H 0.42295 0.03559 0.7052 0.0
H1164 H 0.3631 0.07151 0.70275 0.0
H1165 H 0.37768 0.04115 0.70945 0.0
H1166 H 0.51532 0.20775 0.75492 0.0
H1167 H 0.53141 0.17856 0.76127 0.0
H1168 H 0.49425 0.21914 0.72266 0.0
H1169 H 0.45144 0.20276 0.70753 0.0
C1170 C 0.85403 0.32156 0.70455 0.0
C1171 C 0.88759 0.35232 0.71395 0.0
C1172 C 0.9182 0.31958 0.70052 0.0
C1173 C 0.88529 0.2912 0.6881 0.0
N1174 N 0.82295 0.26914 0.67391 0.0
N1175 N 0.95254 0.38309 0.7164 0.0
C1176 C 0.85353 0.29344 0.68874 0.0
C1177 C 0.92002 0.3521 0.71061 0.0
N1178 N 0.82257 0.31823 0.71167 0.0
N1179 N 0.94724 0.31491 0.70379 0.0
H1180 H 0.95499 0.40766 0.72322 0.0
H1181 H 0.97679 0.38519 0.71211 0.0
H1182 H 0.94607 0.29065 0.6979 0.0
H1183 H 0.97096 0.33346 0.7147 0.0
H1184 H 0.79771 0.2946 0.70738 0.0
H1185 H 0.8217 0.33734 0.72419 0.0
H1186 H 0.80002 0.27154 0.6721 0.0
H1187 H 0.82178 0.24889 0.66138 0.0
C1188 C 0.24566 0.99523 0.64824 0.0
C1189 C 0.21261 0.99398 0.64158 0.0
C1190 C 0.2362 0.05343 0.66528 0.0
C1191 C 0.2707 0.0568 0.6689 0.0
N1192 N 0.30996 0.03399 0.65844 0.0
N1193 N 0.18044 0.02685 0.63842 0.0
C1194 C 0.27596 0.02851 0.65894 0.0
C1195 C 0.20893 0.02447 0.64862 0.0
N1196 N 0.24801 0.96456 0.64487 0.0
N1197 N 0.2291 0.07738 0.67813 0.0
H1198 H 0.16081 0.00727 0.62503 0.0
H1199 H 0.17857 0.0502 0.64112 0.0
H1200 H 0.24783 0.09802 0.69138 0.0
H1201 H 0.20345 0.07422 0.67767 0.0
H1202 H 0.27059 0.96336 0.6515 0.0
H1203 H 0.22616 0.93947 0.63773 0.0
H1204 H 0.31555 0.01537 0.64936 0.0
H1205 H 0.33273 0.05888 0.66456 0.0
C1206 C 0.02842 0.26445 0.63975 0.0
C1207 C 0.03007 0.23578 0.62627 0.0
C1208 C 0.97047 0.19238 0.63818 0.0
C1209 C 0.967 0.2212 0.6496 0.0
N1210 N 0.98984 0.28561 0.65585 0.0
N1211 N 0.99841 0.17402 0.60707 0.0
C1212 C 0.99527 0.2576 0.64898 0.0
C1213 C 0.99972 0.20024 0.62375 0.0
N1214 N 0.05857 0.29794 0.64421 0.0
N1215 N 0.94663 0.15735 0.642 0.0
H1216 H 0.01889 0.17895 0.59556 0.0
H1217 H 0.9754 0.14863 0.60271 0.0
H1218 H 0.9261 0.15068 0.65362 0.0
H1219 H 0.94976 0.13549 0.63608 0.0
H1220 H 0.05993 0.31882 0.65615 0.0
H1221 H 0.08304 0.30396 0.63746 0.0
H1222 H 0.00821 0.3126 0.65361 0.0
H1223 H 0.96531 0.2814 0.66131 0.0
C1224 C 0.82984 0.80541 0.64823 0.0
C1225 C 0.79508 0.79997 0.64105 0.0
C1226 C 0.76838 0.73921 0.65585 0.0
C1227 C 0.80273 0.74731 0.66665 0.0
N1228 N 0.86539 0.79224 0.67768 0.0
N1229 N 0.73068 0.76351 0.64232 0.0
C1230 C 0.83327 0.78163 0.66417 0.0
C1231 C 0.76408 0.76733 0.64605 0.0
N1232 N 0.85956 0.8325 0.63914 0.0
N1233 N 0.74021 0.70444 0.65388 0.0
H1234 H 0.72644 0.7838 0.63588 0.0
H1235 H 0.70768 0.74162 0.64794 0.0
H1236 H 0.74319 0.68298 0.65934 0.0
H1237 H 0.71531 0.69644 0.64422 0.0
H1238 H 0.88504 0.83537 0.642 0.0
H1239 H 0.85807 0.84944 0.62639 0.0
H1240 H 0.88765 0.81824 0.67803 0.0
H1241 H 0.86857 0.77657 0.69072 0.0
C1242 C 0.99792 0.80373 0.66615 0.0
C1243 C 0.99532 0.81979 0.64416 0.0
C1244 C 0.93062 0.776 0.63735 0.0
C1245 C 0.93325 0.75867 0.65874 0.0
N1246 N 0.97113 0.75085 0.68971 0.0
N1247 N 0.96187 0.8149 0.60516 0.0
C1248 C 0.96749 0.77094 0.67199 0.0
C1249 C 0.96253 0.80351 0.62847 0.0
N1250 N 0.02888 0.8206 0.68205 0.0
N1251 N 0.89774 0.76849 0.62662 0.0
H1252 H 0.98496 0.83506 0.59822 0.0
H1253 H 0.93949 0.80181 0.59188 0.0
H1254 H 0.87345 0.75063 0.63339 0.0
H1255 H 0.89464 0.7831 0.61269 0.0
H1256 H 0.03097 0.81266 0.69985 0.0
H1257 H 0.05193 0.844 0.67805 0.0
H1258 H 0.99595 0.75659 0.69832 0.0
H1259 H 0.94963 0.72638 0.69403 0.0
C1260 C 0.22255 0.20515 0.66288 0.0
C1261 C 0.19981 0.18318 0.64122 0.0
C1262 C 0.23835 0.15684 0.63534 0.0
C1263 C 0.26205 0.17983 0.65644 0.0
N1264 N 0.28161 0.2324 0.68603 0.0
N1265 N 0.1918 0.14656 0.60286 0.0
C1266 C 0.2557 0.2061 0.66888 0.0
C1267 C 0.20988 0.16205 0.62606 0.0
N1268 N 0.21177 0.22366 0.67844 0.0
N1269 N 0.24101 0.12818 0.62531 0.0
H1270 H 0.17087 0.1501 0.59558 0.0
H1271 H 0.20003 0.13358 0.58997 0.0
H1272 H 0.25981 0.12154 0.63233 0.0
H1273 H 0.22199 0.10852 0.61168 0.0
H1274 H 0.22518 0.23656 0.69603 0.0
H1275 H 0.188 0.22411 0.67452 0.0
H1276 H 0.27987 0.25424 0.69398 0.0
H1277 H 0.30651 0.2344 0.69038 0.0
C1278 C 0.82386 0.03057 0.67377 0.0
C1279 C 0.83958 0.02372 0.6531 0.0
C1280 C 0.85475 0.08281 0.6387 0.0
C1281 C 0.84589 0.09241 0.66194 0.0
N1282 N 0.81866 0.07518 0.70076 0.0
N1283 N 0.86794 0.04146 0.61477 0.0
C1284 C 0.82872 0.0659 0.67901 0.0
C1285 C 0.85372 0.04903 0.63491 0.0
N1286 N 0.80485 1.00331 0.68849 0.0
N1287 N 0.86433 0.10616 0.62044 0.0
H1288 H 0.866 0.01628 0.61093 0.0
H1289 H 0.88279 0.06034 0.60247 0.0
H1290 H 0.86526 0.13095 0.62301 0.0
H1291 H 0.86844 0.09993 0.60225 0.0
H1292 H 0.79027 0.00528 0.70278 0.0
H1293 H 0.80124 0.97737 0.68498 0.0
H1294 H 0.80997 0.05887 0.71552 0.0
H1295 H 0.82001 0.10011 0.70439 0.0
C1296 C 0.46476 0.32022 0.68773 0.0
C1297 C 0.48751 0.32702 0.71 0.0
C1298 C 0.44489 0.2671 0.72255 0.0
C1299 C 0.42618 0.25781 0.69819 0.0
N1300 N 0.41468 0.2757 0.6584 0.0
N1301 N 0.4989 0.30904 0.74974 0.0
C1302 C 0.43464 0.28473 0.68119 0.0
C1303 C 0.47701 0.3013 0.72802 0.0
N1304 N 0.4725 0.34767 0.67279 0.0
N1305 N 0.432 0.24302 0.74027 0.0
H1306 H 0.52155 0.33456 0.75478 0.0
H1307 H 0.49555 0.2901 0.76232 0.0
H1308 H 0.40856 0.21797 0.73651 0.0
H1309 H 0.44255 0.24878 0.75903 0.0
H1310 H 0.45591 0.34571 0.65715 0.0
H1311 H 0.4946 0.37371 0.6772 0.0
H1312 H 0.42147 0.29239 0.64381 0.0
H1313 H 0.39127 0.25065 0.65381 0.0
C1314 C 0.73099 0.1875 0.73107 0.0
C1315 C 0.69734 0.16672 0.71657 0.0
C1316 C 0.72527 0.14369 0.68744 0.0
C1317 C 0.75982 0.16949 0.69948 0.0
N1318 N 0.79535 0.22173 0.72998 0.0
N1319 N 0.66255 0.12687 0.67948 0.0
C1320 C 0.7627 0.19272 0.72076 0.0
C1321 C 0.69436 0.14496 0.69444 0.0
N1322 N 0.73264 0.20278 0.75463 0.0
N1323 N 0.72186 0.1175 0.66978 0.0
H1324 H 0.63925 0.12659 0.68422 0.0
H1325 H 0.65993 0.11412 0.66165 0.0
H1326 H 0.74379 0.11533 0.66463 0.0
H1327 H 0.69707 0.09595 0.66207 0.0
H1328 H 0.75606 0.21551 0.76698 0.0
H1329 H 0.70968 0.19924 0.76268 0.0
H1330 H 0.79817 0.2414 0.74382 0.0
H1331 H 0.81923 0.22868 0.72201 0.0
C1332 C 0.84135 0.55091 0.72337 0.0
C1333 C 0.85017 0.53294 0.70438 0.0
C1334 C 0.86373 0.58212 0.67751 0.0
C1335 C 0.84802 0.59591 0.69423 0.0
N1336 N 0.82707 0.59792 0.73467 0.0
N1337 N 0.87317 0.53225 0.66448 0.0
C1338 C 0.83912 0.58208 0.71794 0.0
C1339 C 0.8632 0.5493 0.68198 0.0
N1340 N 0.83459 0.5376 0.74636 0.0
N1341 N 0.87891 0.60054 0.65734 0.0
H1342 H 0.87465 0.50918 0.66786 0.0
H1343 H 0.87892 0.54008 0.64644 0.0
H1344 H 0.87985 0.62483 0.65402 0.0
H1345 H 0.89317 0.59373 0.64521 0.0
H1346 H 0.83006 0.55025 0.76178 0.0
H1347 H 0.836 0.51477 0.75056 0.0
H1348 H 0.81586 0.58718 0.75106 0.0
H1349 H 0.82818 0.6223 0.7318 0.0
C1350 C 0.47584 0.98197 0.22856 0.0
C1351 C 0.44661 0.94578 0.22695 0.0
C1352 C 0.4316 0.95084 0.18298 0.0
C1353 C 0.46564 0.98287 0.18289 0.0
N1354 N 0.49985 0.03863 0.20983 0.0
N1355 N 0.39618 0.89519 0.202 0.0
C1356 C 0.48268 1.00166 0.20693 0.0
C1357 C 0.4243 0.93005 0.20398 0.0
N1358 N 0.49713 0.99769 0.25067 0.0
N1359 N 0.40407 0.94404 0.16555 0.0
H1360 H 0.38966 0.87901 0.21696 0.0
H1361 H 0.38133 0.88166 0.18487 0.0
H1362 H 0.40658 0.96308 0.15319 0.0
H1363 H 0.37778 0.92279 0.16605 0.0
H1364 H 0.52092 0.02269 0.25204 0.0
H1365 H 0.49234 0.9846 0.26713 0.0
H1366 H 0.50997 0.05386 0.22727 0.0
H1367 H 0.49885 0.05341 0.1952 0.0
C1368 C 0.06403 0.51073 0.23452 0.0
C1369 C 0.09911 0.51545 0.2376 0.0
C1370 C 0.09991 0.50945 0.19168 0.0
C1371 C 0.06613 0.50777 0.18867 0.0
N1372 N 0.01779 0.51133 0.20681 0.0
N1373 N 0.1525 0.52346 0.21973 0.0
C1374 C 0.04865 0.50964 0.21 0.0
C1375 C 0.11762 0.51587 0.21632 0.0
N1376 N 0.04505 0.5063 0.25502 0.0
N1377 N 0.11463 0.50411 0.17097 0.0
H1378 H 0.16604 0.52759 0.23749 0.0
H1379 H 0.1689 0.52813 0.20515 0.0
H1380 H 0.10281 0.50023 0.15263 0.0
H1381 H 0.13713 0.50098 0.17193 0.0
H1382 H 0.01795 0.49874 0.2538 0.0
H1383 H 0.05558 0.50734 0.27331 0.0
H1384 H 1.00597 0.51693 0.22158 0.0
H1385 H 1.00526 0.50982 0.18914 0.0
C1386 C 0.50501 0.6003 0.2111 0.0
C1387 C 0.50506 0.5794 0.23081 0.0
C1388 C 0.53818 0.55809 0.20583 0.0
C1389 C 0.53134 0.57263 0.18424 0.0
N1390 N 0.53691 0.63009 0.17623 0.0
N1391 N 0.52055 0.53662 0.24648 0.0
C1392 C 0.52225 0.60006 0.18913 0.0
C1393 C 0.52122 0.55768 0.22798 0.0
N1394 N 0.4893 0.62114 0.21348 0.0
N1395 N 0.5657 0.55084 0.20682 0.0
H1396 H 0.50851 0.53572 0.26306 0.0
H1397 H 0.52909 0.51777 0.24422 0.0
H1398 H 0.58334 0.55767 0.19279 0.0
H1399 H 0.5742 0.54343 0.22294 0.0
H1400 H 0.48576 0.63423 0.19862 0.0
H1401 H 0.47729 0.62286 0.22953 0.0
H1402 H 0.53366 0.65238 0.18033 0.0
H1403 H 0.55752 0.63533 0.16477 0.0
C1404 C 0.89551 0.41063 0.81127 0.0
C1405 C 0.91464 0.43426 0.79303 0.0
C1406 C 0.96101 0.47613 0.82625 0.0
C1407 C 0.94436 0.4503 0.84381 0.0
N1408 N 0.89754 0.39146 0.85295 0.0
N1409 N 0.96743 0.48772 0.78238 0.0
C1410 C 0.91191 0.4172 0.83635 0.0
C1411 C 0.94778 0.46672 0.80033 0.0
N1412 N 0.86135 0.3823 0.80469 0.0
N1413 N 0.98919 0.50989 0.83448 0.0
H1414 H 0.95861 0.48187 0.76322 0.0
H1415 H 0.99366 0.50938 0.78618 0.0
H1416 H 0.99957 0.51762 0.85334 0.0
H1417 H 1.00016 0.53121 0.82314 0.0
H1418 H 0.84459 0.3662 0.8176 0.0
H1419 H 0.84849 0.3768 0.78652 0.0
H1420 H 0.87634 0.36519 0.84787 0.0
H1421 H 0.90841 0.39553 0.87158 0.0
C1422 C 0.59819 0.51158 0.81672 0.0
C1423 C 0.5772 0.50627 0.79371 0.0
C1424 C 0.52837 0.503 0.81727 0.0
C1425 C 0.55002 0.51007 0.84024 0.0
N1426 N 0.60785 0.52795 0.86191 0.0
N1427 N 0.52562 0.50411 0.77184 0.0
C1428 C 0.5857 0.51648 0.83997 0.0
C1429 C 0.54326 0.50419 0.79395 0.0
N1430 N 0.62934 0.51039 0.81642 0.0
N1431 N 0.49308 0.49371 0.81773 0.0
H1432 H 0.53577 0.50498 0.75444 0.0
H1433 H 0.50265 0.50645 0.77091 0.0
H1434 H 0.48124 0.49286 0.83438 0.0
H1435 H 0.47475 0.48415 0.80173 0.0
H1436 H 0.64374 0.50995 0.83257 0.0
H1437 H 0.63953 0.50709 0.79984 0.0
H1438 H 0.63526 0.5368 0.86268 0.0
H1439 H 0.59951 0.53158 0.87926 0.0
C1440 C 0.51449 0.0434 0.80119 0.0
C1441 C 0.53378 0.08173 0.80134 0.0
C1442 C 0.54018 0.08773 0.84767 0.0
C1443 C 0.51712 0.04967 0.84741 0.0
N1444 N 0.47839 0.99147 0.82387 0.0
N1445 N 0.56142 0.14088 0.82456 0.0
C1446 C 0.50338 0.02749 0.82414 0.0
C1447 C 0.54591 0.10409 0.82456 0.0
N1448 N 0.50722 0.02222 0.77907 0.0
N1449 N 0.55716 0.10815 0.87 0.0
H1450 H 0.56638 0.15395 0.8081 0.0
H1451 H 0.56694 0.15825 0.84074 0.0
H1452 H 0.55348 0.09709 0.88725 0.0
H1453 H 0.5772 0.13536 0.87125 0.0
H1454 H 0.49651 0.99424 0.77802 0.0
H1455 H 0.51496 0.03305 0.76195 0.0
H1456 H 0.46432 0.97479 0.80745 0.0
H1457 H 0.4694 0.97875 0.8402 0.0
C1458 C 0.1531 0.31022 0.56246 0.0
C1459 C 0.11969 0.2772 0.56099 0.0
C1460 C 0.11182 0.2789 0.51518 0.0
C1461 C 0.14672 0.31005 0.51638 0.0
N1462 N 0.20255 0.3532 0.54051 0.0
N1463 N 0.06902 0.22743 0.53581 0.0
C1464 C 0.16788 0.32516 0.53988 0.0
C1465 C 0.09943 0.26086 0.5373 0.0
N1466 N 0.17022 0.32781 0.58553 0.0
N1467 N 0.09023 0.26701 0.49296 0.0
H1468 H 0.05897 0.21348 0.55153 0.0
H1469 H 0.05517 0.2122 0.51888 0.0
H1470 H 0.09865 0.27909 0.47633 0.0
H1471 H 0.06314 0.24704 0.49135 0.0
H1472 H 0.1926 0.35385 0.58805 0.0
H1473 H 0.1603 0.31759 0.60242 0.0
H1474 H 0.22082 0.36275 0.55652 0.0
H1475 H 0.21403 0.36536 0.52448 0.0
C1476 C 0.77097 0.84289 0.54664 0.0
C1477 C 0.75517 0.84663 0.56842 0.0
C1478 C 0.70648 0.84598 0.54175 0.0
C1479 C 0.72111 0.84012 0.51999 0.0
N1480 N 0.76345 0.82666 0.50152 0.0
N1481 N 0.70475 0.84506 0.58704 0.0
C1482 C 0.75225 0.83667 0.52239 0.0
C1483 C 0.72195 0.84618 0.56605 0.0
N1484 N 0.80448 0.84663 0.54909 0.0
N1485 N 0.67859 0.85268 0.5392 0.0
H1486 H 0.71531 0.84525 0.60514 0.0
H1487 H 0.67869 0.84079 0.58638 0.0
H1488 H 0.66627 0.85237 0.52175 0.0
H1489 H 0.66945 0.8613 0.55426 0.0
H1490 H 0.81922 0.84827 0.53391 0.0
H1491 H 0.81888 0.85088 0.5665 0.0
H1492 H 0.78358 0.81987 0.50228 0.0
H1493 H 0.75057 0.82219 0.48347 0.0
C1494 C 0.18148 0.89162 0.55901 0.0
C1495 C 0.16495 0.91302 0.56139 0.0
C1496 C 0.18296 0.93381 0.51991 0.0
C1497 C 0.1927 0.90679 0.51543 0.0
N1498 N 0.22697 0.88553 0.53873 0.0
N1499 N 0.14848 0.95382 0.54337 0.0
C1500 C 0.19914 0.89229 0.53719 0.0
C1501 C 0.16492 0.93362 0.54148 0.0
N1502 N 0.18073 0.87085 0.57774 0.0
N1503 N 0.19774 0.96396 0.50714 0.0
H1504 H 0.13554 0.95487 0.55909 0.0
H1505 H 0.14516 0.96686 0.52839 0.0
H1506 H 0.21884 0.96962 0.49608 0.0
H1507 H 0.19404 0.98599 0.51108 0.0
H1508 H 0.18962 0.85224 0.57583 0.0
H1509 H 0.16829 0.86992 0.59413 0.0
H1510 H 0.23516 0.87819 0.55502 0.0
H1511 H 0.2451 0.89269 0.52502 0.0
C1512 C 0.6243 0.79112 0.12965 0.0
C1513 C 0.58664 0.76774 0.12422 0.0
C1514 C 0.57941 0.76467 0.16945 0.0
C1515 C 0.6174 0.785 0.17472 0.0
N1516 N 0.67658 0.81411 0.16006 0.0
N1517 N 0.52835 0.72892 0.13831 0.0
C1518 C 0.64003 0.79746 0.15487 0.0
C1519 C 0.56412 0.7537 0.14397 0.0
N1520 N 0.64491 0.80769 0.11067 0.0
N1521 N 0.558 0.75654 0.18884 0.0
H1522 H 0.51604 0.72092 0.11991 0.0
H1523 H 0.51133 0.71442 0.15165 0.0
H1524 H 0.56835 0.76386 0.20771 0.0
H1525 H 0.53017 0.74514 0.18627 0.0
H1526 H 0.67184 0.82801 0.11368 0.0
H1527 H 0.63433 0.80325 0.09192 0.0
H1528 H 0.69435 0.82005 0.14626 0.0
H1529 H 0.68919 0.81965 0.1783 0.0
C1530 C 0.19206 0.81495 0.1259 0.0
C1531 C 0.22668 0.84171 0.12 0.0
C1532 C 0.2357 0.87499 0.16129 0.0
C1533 C 0.2051 0.84438 0.169 0.0
N1534 N 0.15389 0.78423 0.15836 0.0
N1535 N 0.26059 0.907 0.12526 0.0
C1536 C 0.18296 0.81421 0.15114 0.0
C1537 C 0.24357 0.87495 0.13574 0.0
N1538 N 0.16637 0.79327 0.10687 0.0
N1539 N 0.25706 0.90443 0.17811 0.0
H1540 H 0.25778 0.90787 0.10582 0.0
H1541 H 0.27119 0.9322 0.13558 0.0
H1542 H 0.25143 0.90632 0.1967 0.0
H1543 H 0.28161 0.92575 0.17387 0.0
H1544 H 0.1396 0.77554 0.1097 0.0
H1545 H 0.17102 0.79676 0.08798 0.0
H1546 H 0.13922 0.7601 0.14666 0.0
H1547 H 0.14633 0.78243 0.17668 0.0
C1548 C 0.213 0.44081 0.15667 0.0
C1549 C 0.20024 0.41769 0.13378 0.0
C1550 C 0.17134 0.3644 0.15769 0.0
C1551 C 0.186 0.38735 0.18061 0.0
N1552 N 0.2264 0.44664 0.20201 0.0
N1553 N 0.17324 0.35753 0.11248 0.0
C1554 C 0.20857 0.42537 0.18011 0.0
C1555 C 0.18127 0.37946 0.13433 0.0
N1556 N 0.22793 0.47746 0.15607 0.0
N1557 N 0.1466 0.32845 0.15818 0.0
H1558 H 0.18008 0.36768 0.09506 0.0
H1559 H 0.16278 0.32961 0.11188 0.0
H1560 H 0.1384 0.31636 0.17483 0.0
H1561 H 0.13191 0.31121 0.1421 0.0
H1562 H 0.23386 0.4953 0.17206 0.0
H1563 H 0.23187 0.48988 0.13936 0.0
H1564 H 0.24616 0.47389 0.20263 0.0
H1565 H 0.22373 0.43628 0.21949 0.0
C1566 C 0.7601 0.59807 0.86848 0.0
C1567 C 0.78003 0.61449 0.89226 0.0
C1568 C 0.82694 0.66437 0.87166 0.0
C1569 C 0.80652 0.64855 0.84798 0.0
N1570 N 0.75081 0.60442 0.82419 0.0
N1571 N 0.8285 0.66627 0.91729 0.0
C1572 C 0.77215 0.61664 0.84653 0.0
C1573 C 0.81227 0.64864 0.89406 0.0
N1574 N 0.73048 0.56403 0.86671 0.0
N1575 N 0.86096 0.69365 0.87263 0.0
H1576 H 0.81845 0.65541 0.934 0.0
H1577 H 0.84998 0.69282 0.92008 0.0
H1578 H 0.87234 0.70634 0.85673 0.0
H1579 H 0.8789 0.70392 0.88883 0.0
H1580 H 0.7172 0.54877 0.84968 0.0
H1581 H 0.72042 0.54983 0.88234 0.0
H1582 H 0.72403 0.58366 0.82237 0.0
H1583 H 0.759 0.61706 0.80771 0.0
C1584 C 0.38767 0.17557 0.9012 0.0
C1585 C 0.421 0.17623 0.90347 0.0
C1586 C 0.41869 0.16792 0.85738 0.0
C1587 C 0.38742 0.17118 0.85515 0.0
N1588 N 0.3444 0.18261 0.87468 0.0
N1589 N 0.4707 0.17726 0.88404 0.0
C1590 C 0.37242 0.1761 0.87701 0.0
C1591 C 0.43714 0.17339 0.88163 0.0
N1592 N 0.37017 0.17357 0.92218 0.0
N1593 N 0.43025 0.15879 0.83634 0.0
H1594 H 0.48486 0.18089 0.90145 0.0
H1595 H 0.48568 0.17958 0.8689 0.0
H1596 H 0.41756 0.15487 0.81829 0.0
H1597 H 0.4505 0.15218 0.83689 0.0
H1598 H 0.34404 0.1691 0.92153 0.0
H1599 H 0.38058 0.17324 0.9402 0.0
H1600 H 0.33496 0.19057 0.88989 0.0
H1601 H 0.33224 0.18284 0.8573 0.0
C1602 C 0.82896 0.20661 0.88682 0.0
C1603 C 0.82161 0.23519 0.89157 0.0
C1604 C 0.8323 0.25101 0.84807 0.0
C1605 C 0.83908 0.22203 0.84321 0.0
N1606 N 0.83658 0.16765 0.85591 0.0
N1607 N 0.80916 0.27995 0.87586 0.0
C1608 C 0.8351 0.19837 0.862 0.0
C1609 C 0.82098 0.25589 0.87184 0.0
N1610 N 0.83151 0.18832 0.9063 0.0
N1611 N 0.8381 0.27471 0.8303 0.0
H1612 H 0.80086 0.28424 0.89306 0.0
H1613 H 0.80468 0.29344 0.86172 0.0
H1614 H 0.84586 0.2717 0.81259 0.0
H1615 H 0.83746 0.29862 0.83354 0.0
H1616 H 0.84105 0.17025 0.90483 0.0
H1617 H 0.82619 0.1929 0.92454 0.0
H1618 H 0.83027 0.14733 0.86789 0.0
H1619 H 0.84117 0.16089 0.83796 0.0
C1620 C 0.28829 0.12954 0.46661 0.0
C1621 C 0.25278 0.10003 0.46027 0.0
C1622 C 0.24697 0.08828 0.5048 0.0
C1623 C 0.28353 0.11569 0.51075 0.0
N1624 N 0.34021 0.16089 0.49768 0.0
N1625 N 0.19844 0.04987 0.47243 0.0
C1626 C 0.30447 0.13609 0.49176 0.0
C1627 C 0.23207 0.07908 0.47917 0.0
N1628 N 0.30641 0.15145 0.44855 0.0
N1629 N 0.22645 0.0715 0.52378 0.0
H1630 H 0.18595 0.04347 0.4541 0.0
H1631 H 0.18345 0.03084 0.48459 0.0
H1632 H 0.23678 0.07706 0.54265 0.0
H1633 H 0.19876 0.05388 0.52125 0.0
H1634 H 0.33071 0.17575 0.45235 0.0
H1635 H 0.296 0.14667 0.42975 0.0
H1636 H 0.35816 0.17356 0.48438 0.0
H1637 H 0.35271 0.1674 0.51601 0.0
C1638 C 0.87952 0.17551 0.45936 0.0
C1639 C 0.91206 0.17464 0.45943 0.0
C1640 C 0.91917 0.18291 0.50576 0.0
C1641 C 0.88461 0.17951 0.50566 0.0
N1642 N 0.82994 0.16876 0.48253 0.0
N1643 N 0.96137 0.1738 0.4825 0.0
C1644 C 0.86433 0.175 0.48248 0.0
C1645 C 0.93164 0.17757 0.4826 0.0
N1646 N 0.86353 0.17755 0.43716 0.0
N1647 N 0.94036 0.19196 0.528 0.0
H1648 H 0.97162 0.17035 0.46599 0.0
H1649 H 0.97446 0.1715 0.49866 0.0
H1650 H 0.93198 0.19579 0.54529 0.0
H1651 H 0.96723 0.19865 0.52917 0.0
H1652 H 0.8419 0.18208 0.43603 0.0
H1653 H 0.8739 0.17787 0.41991 0.0
H1654 H 0.81224 0.16109 0.46633 0.0
H1655 H 0.818 0.16856 0.49903 0.0
C1656 C 0.84642 0.71203 0.46691 0.0
C1657 C 0.86609 0.7503 0.46672 0.0
C1658 C 0.87385 0.75714 0.51303 0.0
C1659 C 0.85049 0.71919 0.51316 0.0
N1660 N 0.81036 0.66085 0.49022 0.0
N1661 N 0.89455 0.80982 0.4895 0.0
C1662 C 0.83579 0.69665 0.49008 0.0
C1663 C 0.87895 0.77305 0.48977 0.0
N1664 N 0.83838 0.69037 0.44493 0.0
N1665 N 0.89175 0.77786 0.53509 0.0
H1666 H 0.8989 0.8226 0.47294 0.0
H1667 H 0.90062 0.82746 0.50564 0.0
H1668 H 0.88861 0.76712 0.55245 0.0
H1669 H 0.91199 0.80495 0.53596 0.0
H1670 H 0.82735 0.66236 0.44412 0.0
H1671 H 0.84578 0.70077 0.42765 0.0
H1672 H 0.79569 0.64403 0.47398 0.0
H1673 H 0.80161 0.64854 0.50672 0.0
loop_
_geom_bond_atom_site_label_1
_geom_bond_atom_site_label_2
_geom_bond_distance
_geom_bond_site_symmetry_2
_ccdc_geom_bond_type
H0 C1 0.949 . S
C1 H0 0.949 . S
C1 C2 1.395 . S
C1 C3 1.391 . S
C2 C1 1.395 . S
C2 C5 1.390 . S
C3 C1 1.391 . S
C3 C7 1.387 . S
C3 C8 1.491 . S
H4 C5 0.950 . S
C5 C2 1.390 . S
C5 H4 0.950 . S
C5 C6 1.378 . S
C6 C5 1.378 . S
C6 C7 1.409 . S
C7 C3 1.387 . S
C7 C6 1.409 . S
C7 H9 0.951 . S
C8 C3 1.491 . S
C8 C10 1.382 . S
C8 C12 1.404 . S
H9 C7 0.951 . S
C10 C8 1.382 . S
C10 C11 1.390 . S
C10 H15 0.949 . S
C11 C10 1.390 . S
C11 C16 1.399 . S
C12 C8 1.404 . S
C12 H13 0.950 . S
C12 C14 1.375 . S
H13 C12 0.950 . S
C14 C12 1.375 . S
C14 C16 1.382 . S
C14 H18 0.950 . S
H15 C10 0.949 . S
C16 C11 1.399 . S
C16 C14 1.382 . S
C16 H17 0.952 . S
H17 C16 0.952 . S
H18 C14 0.950 . S
H19 C20 0.949 . S
C20 H19 0.949 . S
C20 C21 1.395 . S
C20 C22 1.391 . S
C21 C20 1.395 . S
C21 C24 1.390 . S
C22 C20 1.391 . S
C22 C26 1.387 . S
C22 C27 1.491 . S
H23 C24 0.950 . S
C24 C21 1.390 . S
C24 H23 0.950 . S
C24 C25 1.378 . S
C25 C24 1.378 . S
C25 C26 1.409 . S
C26 C22 1.387 . S
C26 C25 1.409 . S
C26 H28 0.951 . S
C27 C22 1.491 . S
C27 C29 1.382 . S
C27 C31 1.404 . S
H28 C26 0.951 . S
C29 C27 1.382 . S
C29 C30 1.390 . S
C29 H34 0.949 . S
C30 C29 1.390 . S
C30 C35 1.399 1_545 S
C31 C27 1.404 . S
C31 H32 0.950 . S
C31 C33 1.375 . S
H32 C31 0.950 . S
C33 C31 1.375 . S
C33 C35 1.382 1_545 S
C33 H37 0.950 . S
H34 C29 0.949 . S
C35 C30 1.399 1_565 S
C35 C33 1.382 1_565 S
C35 H36 0.952 . S
H36 C35 0.952 . S
H37 C33 0.950 . S
H38 C39 0.949 . S
C39 H38 0.949 . S
C39 C40 1.395 . S
C39 C41 1.391 . S
C40 C39 1.395 . S
C40 C43 1.390 . S
C41 C39 1.391 . S
C41 C45 1.387 . S
C41 C46 1.491 . S
H42 C43 0.950 . S
C43 C40 1.390 . S
C43 H42 0.950 . S
C43 C44 1.378 . S
C44 C43 1.378 . S
C44 C45 1.409 . S
C45 C41 1.387 . S
C45 C44 1.409 . S
C45 H47 0.951 . S
C46 C41 1.491 . S
C46 C48 1.382 . S
C46 C50 1.404 . S
H47 C45 0.951 . S
C48 C46 1.382 . S
C48 C49 1.390 1_655 S
C48 H53 0.949 . S
C49 C48 1.390 1_455 S
C49 C54 1.399 . S
C50 C46 1.404 . S
C50 H51 0.950 . S
C50 C52 1.366 1_655 S
H51 C50 0.950 . S
C52 C50 1.366 1_455 S
C52 C54 1.393 . S
C52 H56 0.948 . S
H53 C48 0.949 . S
C54 C49 1.399 . S
C54 C52 1.393 . S
C54 H55 0.952 . S
H55 C54 0.952 . S
H56 C52 0.948 . S
H57 C58 0.949 . S
C58 H57 0.949 . S
C58 C59 1.395 . S
C58 C60 1.391 . S
C59 C58 1.395 . S
C59 C62 1.390 . S
C60 C58 1.391 . S
C60 C64 1.387 . S
C60 C65 1.491 . S
H61 C62 0.950 . S
C62 C59 1.390 . S
C62 H61 0.950 . S
C62 C63 1.378 . S
C63 C62 1.378 . S
C63 C64 1.409 . S
C64 C60 1.387 . S
C64 C63 1.409 . S
C64 H66 0.951 . S
C65 C60 1.491 . S
C65 C67 1.382 . S
C65 C69 1.404 . S
H66 C64 0.951 . S
C67 C65 1.382 . S
C67 C68 1.390 . S
C67 H72 0.949 . S
C68 C67 1.390 . S
C68 C73 1.399 . S
C69 C65 1.404 . S
C69 H70 0.950 . S
C69 C71 1.375 . S
H70 C69 0.950 . S
C71 C69 1.375 . S
C71 C73 1.382 . S
C71 H75 0.950 . S
H72 C67 0.949 . S
C73 C68 1.399 . S
C73 C71 1.382 . S
C73 H74 0.952 . S
H74 C73 0.952 . S
H75 C71 0.950 . S
H76 C77 0.949 . S
C77 H76 0.949 . S
C77 C78 1.395 . S
C77 C79 1.391 . S
C78 C77 1.395 . S
C78 C81 1.390 . S
C79 C77 1.391 . S
C79 C83 1.387 . S
C79 C84 1.491 . S
H80 C81 0.950 . S
C81 C78 1.390 . S
C81 H80 0.950 . S
C81 C82 1.378 . S
C82 C81 1.378 . S
C82 C83 1.409 . S
C83 C79 1.387 . S
C83 C82 1.409 . S
C83 H85 0.951 . S
C84 C79 1.491 . S
C84 C86 1.382 . S
C84 C88 1.404 . S
H85 C83 0.951 . S
C86 C84 1.382 . S
C86 C87 1.390 . S
C86 H91 0.949 . S
C87 C86 1.390 . S
C87 C92 1.399 1_565 S
C88 C84 1.404 . S
C88 H89 0.950 . S
C88 C90 1.375 . S
H89 C88 0.950 . S
C90 C88 1.375 . S
C90 C92 1.382 1_565 S
C90 H94 0.950 . S
H91 C86 0.949 . S
C92 C87 1.399 1_545 S
C92 C90 1.382 1_545 S
C92 H93 0.952 . S
H93 C92 0.952 . S
H94 C90 0.950 . S
H95 C96 0.949 . S
C96 H95 0.949 . S
C96 C97 1.395 . S
C96 C98 1.391 . S
C97 C96 1.395 . S
C97 C100 1.390 . S
C98 C96 1.391 . S
C98 C102 1.387 . S
C98 C103 1.491 . S
H99 C100 0.950 . S
C100 C97 1.390 . S
C100 H99 0.950 . S
C100 C101 1.378 . S
C101 C100 1.378 . S
C101 C102 1.409 . S
C102 C98 1.387 . S
C102 C101 1.409 . S
C102 H104 0.951 . S
C103 C98 1.491 . S
C103 C105 1.382 . S
C103 C107 1.404 . S
H104 C102 0.951 . S
C105 C103 1.382 . S
C105 C106 1.390 . S
C105 H110 0.949 . S
C106 C105 1.390 . S
C106 C111 1.399 . S
C107 C103 1.404 . S
C107 H108 0.950 . S
C107 C109 1.375 . S
H108 C107 0.950 . S
C109 C107 1.375 . S
C109 C111 1.382 . S
C109 H113 0.950 . S
H110 C105 0.949 . S
C111 C106 1.399 . S
C111 C109 1.382 . S
C111 H112 0.952 1_455 S
H112 C111 0.952 1_655 S
H113 C109 0.950 . S
H114 C115 0.949 . S
C115 H114 0.949 . S
C115 C116 1.395 . S
C115 C117 1.391 . S
C116 C115 1.395 . S
C116 C119 1.390 . S
C117 C115 1.391 . S
C117 C121 1.387 . S
C117 C122 1.491 . S
H118 C119 0.950 . S
C119 C116 1.390 . S
C119 H118 0.950 . S
C119 C120 1.378 . S
C120 C119 1.378 . S
C120 C121 1.409 . S
C121 C117 1.387 . S
C121 C120 1.409 . S
C121 H123 0.951 . S
C122 C117 1.491 . S
C122 C124 1.382 . S
C122 C126 1.404 . S
H123 C121 0.951 . S
C124 C122 1.382 . S
C124 C125 1.390 . S
C124 H129 0.949 . S
C125 C124 1.390 . S
C125 C130 1.399 . S
C126 C122 1.404 . S
C126 H127 0.950 . S
C126 C128 1.375 . S
H127 C126 0.950 . S
C128 C126 1.375 . S
C128 C130 1.382 . S
C128 H132 0.950 . S
H129 C124 0.949 . S
C130 C125 1.399 . S
C130 C128 1.382 . S
C130 H131 0.952 . S
H131 C130 0.952 . S
H132 C128 0.950 . S
H133 C134 0.949 . S
C134 H133 0.949 . S
C134 C135 1.395 . S
C134 C136 1.391 . S
C135 C134 1.395 . S
C135 C138 1.390 . S
C136 C134 1.391 . S
C136 C140 1.387 . S
C136 C141 1.491 . S
H137 C138 0.950 . S
C138 C135 1.390 . S
C138 H137 0.950 . S
C138 C139 1.378 . S
C139 C138 1.378 . S
C139 C140 1.409 . S
C140 C136 1.387 . S
C140 C139 1.409 . S
C140 H142 0.951 . S
C141 C136 1.491 . S
C141 C143 1.382 . S
C141 C145 1.404 . S
H142 C140 0.951 . S
C143 C141 1.382 . S
C143 C144 1.390 . S
C143 H148 0.949 . S
C144 C143 1.390 . S
C144 C149 1.399 . S
C145 C141 1.404 . S
C145 H146 0.950 . S
C145 C147 1.375 . S
H146 C145 0.950 . S
C147 C145 1.375 . S
C147 C149 1.382 . S
C147 H151 0.950 . S
H148 C143 0.949 . S
C149 C144 1.399 . S
C149 C147 1.382 . S
C149 H150 0.952 . S
H150 C149 0.952 . S
H151 C147 0.950 . S
H152 C153 0.949 . S
C153 H152 0.949 . S
C153 C154 1.395 . S
C153 C155 1.391 . S
C154 C153 1.395 . S
C154 C157 1.390 . S
C155 C153 1.391 . S
C155 C159 1.387 . S
C155 C160 1.491 . S
H156 C157 0.950 . S
C157 C154 1.390 . S
C157 H156 0.950 . S
C157 C158 1.378 . S
C158 C157 1.378 . S
C158 C159 1.409 . S
C159 C155 1.387 . S
C159 C158 1.409 . S
C159 H161 0.951 . S
C160 C155 1.491 . S
C160 C162 1.382 . S
C160 C164 1.404 . S
H161 C159 0.951 . S
C162 C160 1.382 . S
C162 C163 1.390 . S
C162 H167 0.949 . S
C163 C162 1.390 . S
C163 C168 1.399 . S
C164 C160 1.404 . S
C164 H165 0.950 . S
C164 C166 1.375 . S
H165 C164 0.950 . S
C166 C164 1.375 . S
C166 C168 1.382 . S
C166 H170 0.950 . S
H167 C162 0.949 . S
C168 C163 1.399 . S
C168 C166 1.382 . S
C168 H169 0.952 . S
H169 C168 0.952 . S
H170 C166 0.950 . S
H171 C172 0.949 . S
C172 H171 0.949 . S
C172 C173 1.395 . S
C172 C174 1.391 . S
C173 C172 1.395 . S
C173 C176 1.390 . S
C174 C172 1.391 . S
C174 C178 1.387 . S
C174 C179 1.491 . S
H175 C176 0.950 . S
C176 C173 1.390 . S
C176 H175 0.950 . S
C176 C177 1.378 . S
C177 C176 1.378 . S
C177 C178 1.409 . S
C178 C174 1.387 . S
C178 C177 1.409 . S
C178 H180 0.951 . S
C179 C174 1.491 . S
C179 C181 1.382 . S
C179 C183 1.404 . S
H180 C178 0.951 . S
C181 C179 1.382 . S
C181 C182 1.390 . S
C181 H186 0.949 . S
C182 C181 1.390 . S
C182 C187 1.399 . S
C183 C179 1.404 . S
C183 H184 0.950 . S
C183 C185 1.375 . S
H184 C183 0.950 . S
C185 C183 1.375 . S
C185 C187 1.382 . S
C185 H189 0.950 . S
H186 C181 0.949 . S
C187 C182 1.399 . S
C187 C185 1.382 . S
C187 H188 0.952 . S
H188 C187 0.952 . S
H189 C185 0.950 . S
H190 C191 0.949 . S
C191 H190 0.949 . S
C191 C192 1.395 . S
C191 C193 1.391 . S
C192 C191 1.395 . S
C192 C195 1.390 . S
C193 C191 1.391 . S
C193 C197 1.387 . S
C193 C198 1.491 . S
H194 C195 0.950 . S
C195 C192 1.390 . S
C195 H194 0.950 . S
C195 C196 1.378 . S
C196 C195 1.378 . S
C196 C197 1.409 . S
C197 C193 1.387 . S
C197 C196 1.409 . S
C197 H199 0.951 1_556 S
C198 C193 1.491 . S
C198 C200 1.382 . S
C198 C202 1.404 1_556 S
H199 C197 0.951 1_554 S
C200 C198 1.382 . S
C200 C201 1.390 1_556 S
C200 H205 0.949 . S
C201 C200 1.390 1_554 S
C201 C206 1.399 . S
C202 C198 1.404 1_554 S
C202 H203 0.950 . S
C202 C204 1.375 . S
H203 C202 0.950 . S
C204 C202 1.375 . S
C204 C206 1.382 . S
C204 H208 0.950 . S
H205 C200 0.949 . S
C206 C201 1.399 . S
C206 C204 1.382 . S
C206 H207 0.952 . S
H207 C206 0.952 . S
H208 C204 0.950 . S
H209 C210 0.949 . S
C210 H209 0.949 . S
C210 C211 1.395 . S
C210 C212 1.391 . S
C211 C210 1.395 . S
C211 C214 1.390 . S
C212 C210 1.391 . S
C212 C216 1.387 . S
C212 C217 1.491 . S
H213 C214 0.950 . S
C214 C211 1.390 . S
C214 H213 0.950 . S
C214 C215 1.378 . S
C215 C214 1.378 . S
C215 C216 1.409 . S
C216 C212 1.387 . S
C216 C215 1.409 . S
C216 H218 0.951 . S
C217 C212 1.491 . S
C217 C219 1.382 . S
C217 C221 1.404 . S
H218 C216 0.951 . S
C219 C217 1.382 . S
C219 C220 1.390 . S
C219 H224 0.949 . S
C220 C219 1.390 . S
C220 C225 1.399 . S
C221 C217 1.404 . S
C221 H222 0.950 . S
C221 C223 1.375 1_556 S
H222 C221 0.950 . S
C223 C221 1.375 1_554 S
C223 C225 1.382 1_554 S
C223 H227 0.950 . S
H224 C219 0.949 . S
C225 C220 1.399 . S
C225 C223 1.382 1_556 S
C225 H226 0.952 1_556 S
H226 C225 0.952 1_554 S
H227 C223 0.950 . S
H228 C229 0.949 . S
C229 H228 0.949 . S
C229 C230 1.395 . S
C229 C231 1.391 . S
C230 C229 1.395 . S
C230 C233 1.390 . S
C231 C229 1.391 . S
C231 C235 1.387 . S
C231 C236 1.491 . S
H232 C233 0.950 . S
C233 C230 1.390 . S
C233 H232 0.950 . S
C233 C234 1.378 . S
C234 C233 1.378 . S
C234 C235 1.409 . S
C235 C231 1.387 . S
C235 C234 1.409 . S
C235 H237 0.951 1_554 S
C236 C231 1.491 . S
C236 C238 1.382 . S
C236 C240 1.404 1_554 S
H237 C235 0.951 1_556 S
C238 C236 1.382 . S
C238 C239 1.390 . S
C238 H243 0.949 . S
C239 C238 1.390 . S
C239 C244 1.399 1_554 S
C240 C236 1.404 1_556 S
C240 H241 0.950 . S
C240 C242 1.375 . S
H241 C240 0.950 . S
C242 C240 1.375 . S
C242 C244 1.382 . S
C242 H246 0.950 . S
H243 C238 0.949 . S
C244 C239 1.399 1_556 S
C244 C242 1.382 . S
C244 H245 0.952 . S
H245 C244 0.952 . S
H246 C242 0.950 . S
H247 C248 0.949 . S
C248 H247 0.949 . S
C248 C249 1.395 . S
C248 C250 1.391 . S
C249 C248 1.395 . S
C249 C252 1.390 . S
C250 C248 1.391 . S
C250 C254 1.387 . S
C250 C255 1.491 . S
H251 C252 0.950 . S
C252 C249 1.390 . S
C252 H251 0.950 . S
C252 C253 1.378 . S
C253 C252 1.378 . S
C253 C254 1.409 . S
C254 C250 1.387 . S
C254 C253 1.409 . S
C254 H256 0.951 . S
C255 C250 1.491 . S
C255 C257 1.382 . S
C255 C259 1.404 . S
H256 C254 0.951 . S
C257 C255 1.382 . S
C257 C258 1.390 . S
C257 H262 0.949 . S
C258 C257 1.390 . S
C258 C263 1.399 1_554 S
C259 C255 1.404 . S
C259 H260 0.950 . S
C259 C261 1.375 1_554 S
H260 C259 0.950 . S
C261 C259 1.375 1_556 S
C261 C263 1.382 . S
C261 H265 0.950 . S
H262 C257 0.949 . S
C263 C258 1.399 1_556 S
C263 C261 1.382 . S
C263 H264 0.952 . S
H264 C263 0.952 . S
H265 C261 0.950 . S
H266 C267 0.949 . S
C267 H266 0.949 . S
C267 C268 1.395 . S
C267 C269 1.391 . S
C268 C267 1.395 . S
C268 C271 1.390 . S
C269 C267 1.391 . S
C269 C273 1.387 . S
C269 C274 1.491 . S
H270 C271 0.950 . S
C271 C268 1.390 . S
C271 H270 0.950 . S
C271 C272 1.378 . S
C272 C271 1.378 . S
C272 C273 1.409 . S
C273 C269 1.387 . S
C273 C272 1.409 . S
C273 H275 0.951 . S
C274 C269 1.491 . S
C274 C276 1.382 . S
C274 C278 1.404 . S
H275 C273 0.951 . S
C276 C274 1.382 . S
C276 C277 1.390 . S
C276 H281 0.949 . S
C277 C276 1.390 . S
C277 C282 1.399 . S
C278 C274 1.404 . S
C278 H279 0.950 . S
C278 C280 1.375 . S
H279 C278 0.950 . S
C280 C278 1.375 . S
C280 C282 1.382 . S
C280 H284 0.950 . S
H281 C276 0.949 . S
C282 C277 1.399 . S
C282 C280 1.382 . S
C282 H283 0.952 . S
H283 C282 0.952 . S
H284 C280 0.950 . S
H285 C286 0.949 . S
C286 H285 0.949 . S
C286 C287 1.395 . S
C286 C288 1.391 . S
C287 C286 1.395 . S
C287 C290 1.390 . S
C288 C286 1.391 . S
C288 C292 1.387 . S
C288 C293 1.491 . S
H289 C290 0.950 . S
C290 C287 1.390 . S
C290 H289 0.950 . S
C290 C291 1.378 . S
C291 C290 1.378 . S
C291 C292 1.409 . S
C292 C288 1.387 . S
C292 C291 1.409 . S
C292 H294 0.951 . S
C293 C288 1.491 . S
C293 C295 1.382 . S
C293 C297 1.404 . S
H294 C292 0.951 . S
C295 C293 1.382 . S
C295 C296 1.390 . S
C295 H300 0.949 . S
C296 C295 1.390 . S
C296 C301 1.399 . S
C297 C293 1.404 . S
C297 H298 0.950 . S
C297 C299 1.375 . S
H298 C297 0.950 . S
C299 C297 1.375 . S
C299 C301 1.382 . S
C299 H303 0.950 . S
H300 C295 0.949 . S
C301 C296 1.399 . S
C301 C299 1.382 . S
C301 H302 0.952 . S
H302 C301 0.952 . S
H303 C299 0.950 . S
H304 C305 0.949 . S
C305 H304 0.949 . S
C305 C306 1.395 . S
C305 C307 1.391 . S
C306 C305 1.395 . S
C306 C309 1.390 . S
C307 C305 1.391 . S
C307 C311 1.387 . S
C307 C312 1.491 . S
H308 C309 0.950 . S
C309 C306 1.390 . S
C309 H308 0.950 . S
C309 C310 1.378 . S
C310 C309 1.378 . S
C310 C311 1.409 . S
C311 C307 1.387 . S
C311 C310 1.409 . S
C311 H313 0.951 . S
C312 C307 1.491 . S
C312 C314 1.382 . S
C312 C316 1.404 . S
H313 C311 0.951 . S
C314 C312 1.382 . S
C314 C315 1.390 . S
C314 H319 0.949 . S
C315 C314 1.390 . S
C315 C320 1.399 . S
C316 C312 1.404 . S
C316 H317 0.950 . S
C316 C318 1.375 . S
H317 C316 0.950 . S
C318 C316 1.375 . S
C318 C320 1.382 . S
C318 H322 0.950 . S
H319 C314 0.949 . S
C320 C315 1.399 . S
C320 C318 1.382 . S
C320 H321 0.952 . S
H321 C320 0.952 . S
H322 C318 0.950 . S
H323 C324 0.949 . S
C324 H323 0.949 . S
C324 C325 1.395 . S
C324 C326 1.391 . S
C325 C324 1.395 . S
C325 C328 1.390 . S
C326 C324 1.391 . S
C326 C330 1.387 . S
C326 C331 1.491 . S
H327 C328 0.950 . S
C328 C325 1.390 . S
C328 H327 0.950 . S
C328 C329 1.378 . S
C329 C328 1.378 . S
C329 C330 1.409 . S
C330 C326 1.387 . S
C330 C329 1.409 . S
C330 H332 0.951 . S
C331 C326 1.491 . S
C331 C333 1.382 . S
C331 C335 1.404 . S
H332 C330 0.951 . S
C333 C331 1.382 . S
C333 C334 1.390 . S
C333 H338 0.949 . S
C334 C333 1.390 . S
C334 C339 1.399 . S
C335 C331 1.404 . S
C335 H336 0.950 . S
C335 C337 1.375 . S
H336 C335 0.950 . S
C337 C335 1.375 . S
C337 C339 1.382 . S
C337 H341 0.950 . S
H338 C333 0.949 . S
C339 C334 1.399 . S
C339 C337 1.382 . S
C339 H340 0.952 . S
H340 C339 0.952 . S
H341 C337 0.950 . S
C342 Eu343 2.835 1_565 S
C342 C344 1.500 . S
C342 O362 1.257 . S
C342 O363 1.260 1_565 S
Eu343 C342 2.835 1_545 S
Eu343 O362 2.473 1_545 S
Eu343 O363 2.480 . S
Eu343 O364 2.430 . S
Eu343 O365 2.670 1_554 S
Eu343 O366 2.394 1_545 S
Eu343 O371 2.355 1_545 S
Eu343 O373 2.374 . S
C344 C342 1.500 . S
C344 C345 1.393 . S
C344 C349 1.377 . S
C345 C344 1.393 . S
C345 C346 1.401 . S
C345 H374 0.908 1_565 S
C346 C345 1.401 . S
C346 C347 1.383 . S
C346 H375 0.931 1_565 S
C347 C346 1.383 . S
C347 C348 1.394 . S
C348 C347 1.394 . S
C348 C349 1.378 . S
C348 H376 0.931 . S
C349 C344 1.377 . S
C349 C348 1.378 . S
C349 H377 0.931 . S
C350 O364 1.259 . S
C350 O365 1.270 1_554 S
C351 O366 1.251 . S
C351 O367 1.251 1_554 S
C352 Eu353 2.835 1_545 S
C352 C354 1.500 . S
C352 O368 1.257 . S
C352 O369 1.260 1_545 S
Eu353 C352 2.835 1_565 S
Eu353 O365 2.355 1_565 S
Eu353 O367 2.374 . S
Eu353 O368 2.473 1_565 S
Eu353 O369 2.480 . S
Eu353 O370 2.430 . S
Eu353 O371 2.670 1_556 S
Eu353 O372 2.394 1_565 S
C354 C352 1.500 . S
C354 C355 1.377 . S
C354 C359 1.377 . S
C355 C354 1.377 . S
C355 C356 1.395 . S
C355 H378 0.931 1_545 S
C356 C355 1.395 . S
C356 C357 1.383 . S
C356 H379 0.931 . S
C357 C356 1.383 . S
C357 C358 1.394 . S
C358 C357 1.394 . S
C358 C359 1.378 . S
C358 H380 0.931 . S
C359 C354 1.377 . S
C359 C358 1.378 . S
C359 H381 0.931 . S
C360 O370 1.259 . S
C360 O371 1.270 1_556 S
C361 O372 1.251 . S
C361 O373 1.251 1_556 S
O362 C342 1.257 . S
O362 Eu343 2.473 1_565 S
O363 C342 1.260 1_545 S
O363 Eu343 2.480 . S
O364 Eu343 2.430 . S
O364 C350 1.259 . S
O365 Eu343 2.670 1_556 S
O365 C350 1.270 1_556 S
O365 Eu353 2.355 1_545 S
O366 Eu343 2.394 1_565 S
O366 C351 1.251 . S
O367 C351 1.251 1_556 S
O367 Eu353 2.374 . S
O368 C352 1.257 . S
O368 Eu353 2.473 1_545 S
O369 C352 1.260 1_565 S
O369 Eu353 2.480 . S
O370 Eu353 2.430 . S
O370 C360 1.259 . S
O371 Eu343 2.355 1_565 S
O371 Eu353 2.670 1_554 S
O371 C360 1.270 1_554 S
O372 Eu353 2.394 1_545 S
O372 C361 1.251 . S
O373 Eu343 2.374 . S
O373 C361 1.251 1_554 S
H374 C345 0.908 1_545 S
H375 C346 0.931 1_545 S
H376 C348 0.931 . S
H377 C349 0.931 . S
H378 C355 0.931 1_565 S
H379 C356 0.931 . S
H380 C358 0.931 . S
H381 C359 0.931 . S
C382 Eu383 2.835 1_455 S
C382 C384 1.500 . S
C382 O402 1.257 . S
C382 O403 1.260 1_455 S
Eu383 C382 2.835 1_655 S
Eu383 O402 2.473 1_655 S
Eu383 O403 2.480 . S
Eu383 O404 2.430 . S
Eu383 O405 2.670 1_554 S
Eu383 O406 2.394 1_655 S
Eu383 O411 2.355 1_655 S
Eu383 O413 2.374 . S
C384 C382 1.500 . S
C384 C385 1.377 . S
C384 C389 1.377 . S
C385 C384 1.377 . S
C385 C386 1.395 . S
C385 H414 0.931 1_455 S
C386 C385 1.395 . S
C386 C387 1.383 . S
C386 H415 0.931 . S
C387 C386 1.383 . S
C387 C388 1.394 . S
C388 C387 1.394 . S
C388 C389 1.378 . S
C388 H416 0.931 . S
C389 C384 1.377 . S
C389 C388 1.378 . S
C389 H417 0.931 . S
C390 O404 1.258 1_556 S
C390 O405 1.270 . S
C391 O406 1.251 . S
C391 O407 1.251 1_554 S
C392 Eu393 2.835 1_655 S
C392 C394 1.500 . S
C392 O408 1.257 . S
C392 O409 1.260 1_655 S
Eu393 C392 2.835 1_455 S
Eu393 O405 2.355 1_455 S
Eu393 O407 2.374 . S
Eu393 O408 2.473 1_455 S
Eu393 O409 2.480 . S
Eu393 O410 2.430 . S
Eu393 O411 2.670 1_556 S
Eu393 O412 2.394 1_455 S
C394 C392 1.500 . S
C394 C395 1.377 . S
C394 C399 1.377 . S
C395 C394 1.377 . S
C395 C396 1.395 . S
C395 H418 0.931 1_655 S
C396 C395 1.395 . S
C396 C397 1.383 . S
C396 H419 0.931 . S
C397 C396 1.383 . S
C397 C398 1.394 . S
C398 C397 1.394 . S
C398 C399 1.378 . S
C398 H420 0.931 . S
C399 C394 1.377 . S
C399 C398 1.378 . S
C399 H421 0.931 . S
C400 O410 1.259 1_554 S
C400 O411 1.270 . S
C401 O412 1.251 . S
C401 O413 1.251 1_556 S
O402 C382 1.257 . S
O402 Eu383 2.473 1_455 S
O403 C382 1.260 1_655 S
O403 Eu383 2.480 . S
O404 Eu383 2.430 . S
O404 C390 1.258 1_554 S
O405 Eu383 2.670 1_556 S
O405 C390 1.270 . S
O405 Eu393 2.355 1_655 S
O406 Eu383 2.394 1_455 S
O406 C391 1.251 . S
O407 C391 1.251 1_556 S
O407 Eu393 2.374 . S
O408 C392 1.257 . S
O408 Eu393 2.473 1_655 S
O409 C392 1.260 1_455 S
O409 Eu393 2.480 . S
O410 Eu393 2.430 . S
O410 C400 1.259 1_556 S
O411 Eu383 2.355 1_455 S
O411 Eu393 2.670 1_554 S
O411 C400 1.270 . S
O412 Eu393 2.394 1_655 S
O412 C401 1.251 . S
O413 Eu383 2.374 . S
O413 C401 1.251 1_554 S
H414 C385 0.931 1_655 S
H415 C386 0.931 . S
H416 C388 0.931 . S
H417 C389 0.931 . S
H418 C395 0.931 1_455 S
H419 C396 0.931 . S
H420 C398 0.931 . S
H421 C399 0.931 . S
C422 Eu423 2.835 . S
C422 C424 1.500 . S
C422 O442 1.257 . S
C422 O443 1.260 . S
Eu423 C422 2.835 . S
Eu423 O442 2.473 . S
Eu423 O443 2.480 . S
Eu423 O444 2.430 . S
Eu423 O445 2.670 1_556 S
Eu423 O446 2.394 . S
Eu423 O451 2.355 . S
Eu423 O453 2.374 1_556 S
C424 C422 1.500 . S
C424 C425 1.377 . S
C424 C429 1.377 . S
C425 C424 1.377 . S
C425 C426 1.395 . S
C425 H454 0.931 . S
C426 C425 1.395 . S
C426 C427 1.383 . S
C426 H455 0.931 . S
C427 C426 1.383 . S
C427 C428 1.394 . S
C428 C427 1.394 . S
C428 C429 1.378 . S
C428 H456 0.931 . S
C429 C424 1.377 . S
C429 C428 1.378 . S
C429 H457 0.931 . S
C430 O444 1.259 1_554 S
C430 O445 1.270 . S
C431 O446 1.251 . S
C431 O447 1.251 1_556 S
C432 Eu433 2.835 . S
C432 C434 1.500 . S
C432 O448 1.257 . S
C432 O449 1.260 . S
Eu433 C432 2.835 . S
Eu433 O445 2.355 . S
Eu433 O447 2.374 . S
Eu433 O448 2.473 . S
Eu433 O449 2.480 . S
Eu433 O450 2.430 . S
Eu433 O451 2.670 1_554 S
Eu433 O452 2.394 . S
C434 C432 1.500 . S
C434 C435 1.377 . S
C434 C439 1.377 . S
C435 C434 1.377 . S
C435 C436 1.395 . S
C435 H458 0.931 . S
C436 C435 1.395 . S
C436 C437 1.383 . S
C436 H459 0.931 . S
C437 C436 1.383 . S
C437 C438 1.394 . S
C438 C437 1.394 . S
C438 C439 1.378 . S
C438 H460 0.931 . S
C439 C434 1.377 . S
C439 C438 1.378 . S
C439 H461 0.931 . S
C440 O450 1.259 . S
C440 O451 1.270 1_554 S
C441 O452 1.251 . S
C441 O453 1.251 . S
O442 C422 1.257 . S
O442 Eu423 2.473 . S
O443 C422 1.260 . S
O443 Eu423 2.480 . S
O444 Eu423 2.430 . S
O444 C430 1.259 1_556 S
O445 Eu423 2.670 1_554 S
O445 C430 1.270 . S
O445 Eu433 2.355 . S
O446 Eu423 2.394 . S
O446 C431 1.251 . S
O447 C431 1.251 1_554 S
O447 Eu433 2.374 . S
O448 C432 1.257 . S
O448 Eu433 2.473 . S
O449 C432 1.260 . S
O449 Eu433 2.480 . S
O450 Eu433 2.430 . S
O450 C440 1.259 . S
O451 Eu423 2.355 . S
O451 Eu433 2.670 1_556 S
O451 C440 1.270 1_556 S
O452 Eu433 2.394 . S
O452 C441 1.251 . S
O453 Eu423 2.374 1_554 S
O453 C441 1.251 . S
H454 C425 0.931 . S
H455 C426 0.931 . S
H456 C428 0.931 . S
H457 C429 0.931 . S
H458 C435 0.931 . S
H459 C436 0.931 . S
H460 C438 0.931 . S
H461 C439 0.931 . S
C462 Eu463 2.835 . S
C462 C464 1.500 . S
C462 O482 1.257 . S
C462 O483 1.260 . S
Eu463 C462 2.835 . S
Eu463 O482 2.473 . S
Eu463 O483 2.480 . S
Eu463 O484 2.430 . S
Eu463 O485 2.670 . S
Eu463 O486 2.394 . S
Eu463 O491 2.355 . S
Eu463 O493 2.374 . S
C464 C462 1.500 . S
C464 C465 1.377 . S
C464 C469 1.377 . S
C465 C464 1.377 . S
C465 C466 1.395 . S
C465 H494 0.931 . S
C466 C465 1.395 . S
C466 C467 1.383 . S
C466 H495 0.931 . S
C467 C466 1.383 . S
C467 C468 1.394 . S
C468 C467 1.394 . S
C468 C469 1.378 . S
C468 H496 0.931 . S
C469 C464 1.377 . S
C469 C468 1.378 . S
C469 H497 0.931 . S
C470 O484 1.259 . S
C470 O485 1.270 . S
C471 O486 1.251 . S
C471 O487 1.251 . S
C472 Eu473 2.835 . S
C472 C474 1.500 . S
C472 O488 1.257 . S
C472 O489 1.260 . S
Eu473 C472 2.835 . S
Eu473 O485 2.355 . S
Eu473 O487 2.374 . S
Eu473 O488 2.473 . S
Eu473 O489 2.480 . S
Eu473 O490 2.430 . S
Eu473 O491 2.670 . S
Eu473 O492 2.394 . S
C474 C472 1.500 . S
C474 C475 1.377 . S
C474 C479 1.377 . S
C475 C474 1.377 . S
C475 C476 1.395 . S
C475 H498 0.931 . S
C476 C475 1.395 . S
C476 C477 1.383 . S
C476 H499 0.931 . S
C477 C476 1.383 . S
C477 C478 1.394 . S
C478 C477 1.394 . S
C478 C479 1.378 . S
C478 H500 0.931 . S
C479 C474 1.377 . S
C479 C478 1.378 . S
C479 H501 0.931 . S
C480 O490 1.259 . S
C480 O491 1.270 . S
C481 O492 1.251 . S
C481 O493 1.251 . S
O482 C462 1.257 . S
O482 Eu463 2.473 . S
O483 C462 1.260 . S
O483 Eu463 2.480 . S
O484 Eu463 2.430 . S
O484 C470 1.259 . S
O485 Eu463 2.670 . S
O485 C470 1.270 . S
O485 Eu473 2.355 . S
O486 Eu463 2.394 . S
O486 C471 1.251 . S
O487 C471 1.251 . S
O487 Eu473 2.374 . S
O488 C472 1.257 . S
O488 Eu473 2.473 . S
O489 C472 1.260 . S
O489 Eu473 2.480 . S
O490 Eu473 2.430 . S
O490 C480 1.259 . S
O491 Eu463 2.355 . S
O491 Eu473 2.670 . S
O491 C480 1.270 . S
O492 Eu473 2.394 . S
O492 C481 1.251 . S
O493 Eu463 2.374 . S
O493 C481 1.251 . S
H494 C465 0.931 . S
H495 C466 0.931 . S
H496 C468 0.931 . S
H497 C469 0.931 . S
H498 C475 0.931 . S
H499 C476 0.931 . S
H500 C478 0.931 . S
H501 C479 0.931 . S
C502 Eu503 2.835 . S
C502 C504 1.500 . S
C502 O522 1.257 . S
C502 O523 1.260 . S
Eu503 C502 2.835 . S
Eu503 O522 2.473 . S
Eu503 O523 2.480 . S
Eu503 O524 2.430 . S
Eu503 O525 2.670 . S
Eu503 O526 2.394 . S
Eu503 O531 2.355 . S
Eu503 O533 2.374 . S
C504 C502 1.500 . S
C504 C505 1.377 . S
C504 C509 1.377 . S
C505 C504 1.377 . S
C505 C506 1.395 . S
C505 H534 0.931 . S
C506 C505 1.395 . S
C506 C507 1.383 . S
C506 H535 0.931 . S
C507 C506 1.383 . S
C507 C508 1.394 . S
C508 C507 1.394 . S
C508 C509 1.378 . S
C508 H536 0.931 . S
C509 C504 1.377 . S
C509 C508 1.378 . S
C509 H537 0.931 . S
C510 O524 1.259 . S
C510 O525 1.270 . S
C511 O526 1.251 . S
C511 O527 1.251 . S
C512 Eu513 2.835 . S
C512 C514 1.500 . S
C512 O528 1.257 . S
C512 O529 1.260 . S
Eu513 C512 2.835 . S
Eu513 O525 2.355 . S
Eu513 O527 2.374 . S
Eu513 O528 2.473 . S
Eu513 O529 2.480 . S
Eu513 O530 2.430 . S
Eu513 O531 2.670 . S
Eu513 O532 2.394 . S
C514 C512 1.500 . S
C514 C515 1.377 . S
C514 C519 1.377 . S
C515 C514 1.377 . S
C515 C516 1.395 . S
C515 H538 0.931 . S
C516 C515 1.395 . S
C516 C517 1.383 . S
C516 H539 0.931 . S
C517 C516 1.383 . S
C517 C518 1.394 . S
C518 C517 1.394 . S
C518 C519 1.378 . S
C518 H540 0.931 . S
C519 C514 1.377 . S
C519 C518 1.378 . S
C519 H541 0.931 . S
C520 O530 1.259 . S
C520 O531 1.270 . S
C521 O532 1.251 . S
C521 O533 1.251 . S
O522 C502 1.257 . S
O522 Eu503 2.473 . S
O523 C502 1.260 . S
O523 Eu503 2.480 . S
O524 Eu503 2.430 . S
O524 C510 1.259 . S
O525 Eu503 2.670 . S
O525 C510 1.270 . S
O525 Eu513 2.355 . S
O526 Eu503 2.394 . S
O526 C511 1.251 . S
O527 C511 1.251 . S
O527 Eu513 2.374 . S
O528 C512 1.257 . S
O528 Eu513 2.473 . S
O529 C512 1.260 . S
O529 Eu513 2.480 . S
O530 Eu513 2.430 . S
O530 C520 1.259 . S
O531 Eu503 2.355 . S
O531 Eu513 2.670 . S
O531 C520 1.270 . S
O532 Eu513 2.394 . S
O532 C521 1.251 . S
O533 Eu503 2.374 . S
O533 C521 1.251 . S
H534 C505 0.931 . S
H535 C506 0.931 . S
H536 C508 0.931 . S
H537 C509 0.931 . S
H538 C515 0.931 . S
H539 C516 0.931 . S
H540 C518 0.931 . S
H541 C519 0.931 . S
C542 Eu543 2.835 . S
C542 C544 1.500 . S
C542 O562 1.257 . S
C542 O563 1.260 . S
Eu543 C542 2.835 . S
Eu543 O562 2.473 . S
Eu543 O563 2.480 . S
Eu543 O564 2.430 . S
Eu543 O565 2.670 . S
Eu543 O566 2.394 . S
Eu543 O571 2.355 . S
Eu543 O573 2.374 . S
C544 C542 1.500 . S
C544 C545 1.377 . S
C544 C549 1.377 . S
C545 C544 1.377 . S
C545 C546 1.395 . S
C545 H574 0.931 . S
C546 C545 1.395 . S
C546 C547 1.383 . S
C546 H575 0.931 . S
C547 C546 1.383 . S
C547 C548 1.394 . S
C548 C547 1.394 . S
C548 C549 1.378 . S
C548 H576 0.931 . S
C549 C544 1.377 . S
C549 C548 1.378 . S
C549 H577 0.931 . S
C550 O564 1.259 . S
C550 O565 1.270 . S
C551 O566 1.251 . S
C551 O567 1.251 . S
C552 Eu553 2.835 . S
C552 C554 1.500 . S
C552 O568 1.257 . S
C552 O569 1.260 . S
Eu553 C552 2.835 . S
Eu553 O565 2.355 . S
Eu553 O567 2.374 . S
Eu553 O568 2.473 . S
Eu553 O569 2.480 . S
Eu553 O570 2.430 . S
Eu553 O571 2.670 . S
Eu553 O572 2.394 . S
C554 C552 1.500 . S
C554 C555 1.377 . S
C554 C559 1.377 . S
C555 C554 1.377 . S
C555 C556 1.395 . S
C555 H578 0.931 . S
C556 C555 1.395 . S
C556 C557 1.383 . S
C556 H579 0.931 . S
C557 C556 1.383 . S
C557 C558 1.394 . S
C558 C557 1.394 . S
C558 C559 1.378 . S
C558 H580 0.931 . S
C559 C554 1.377 . S
C559 C558 1.378 . S
C559 H581 0.931 . S
C560 O570 1.259 . S
C560 O571 1.270 . S
C561 O572 1.251 . S
C561 O573 1.251 . S
O562 C542 1.257 . S
O562 Eu543 2.473 . S
O563 C542 1.260 . S
O563 Eu543 2.480 . S
O564 Eu543 2.430 . S
O564 C550 1.259 . S
O565 Eu543 2.670 . S
O565 C550 1.270 . S
O565 Eu553 2.355 . S
O566 Eu543 2.394 . S
O566 C551 1.251 . S
O567 C551 1.251 . S
O567 Eu553 2.374 . S
O568 C552 1.257 . S
O568 Eu553 2.473 . S
O569 C552 1.260 . S
O569 Eu553 2.480 . S
O570 Eu553 2.430 . S
O570 C560 1.259 . S
O571 Eu543 2.355 . S
O571 Eu553 2.670 . S
O571 C560 1.270 . S
O572 Eu553 2.394 . S
O572 C561 1.251 . S
O573 Eu543 2.374 . S
O573 C561 1.251 . S
H574 C545 0.931 . S
H575 C546 0.931 . S
H576 C548 0.931 . S
H577 C549 0.931 . S
H578 C555 0.931 . S
H579 C556 0.931 . S
H580 C558 0.931 . S
H581 C559 0.931 . S
C582 Eu583 2.835 . S
C582 C584 1.500 . S
C582 O602 1.257 . S
C582 O603 1.260 . S
Eu583 C582 2.835 . S
Eu583 O602 2.473 . S
Eu583 O603 2.480 . S
Eu583 O604 2.430 . S
Eu583 O605 2.670 . S
Eu583 O606 2.394 . S
Eu583 O611 2.355 . S
Eu583 O613 2.374 . S
C584 C582 1.500 . S
C584 C585 1.377 . S
C584 C589 1.377 . S
C585 C584 1.377 . S
C585 C586 1.395 . S
C585 H614 0.931 . S
C586 C585 1.395 . S
C586 C587 1.383 . S
C586 H615 0.931 . S
C587 C586 1.383 . S
C587 C588 1.394 . S
C588 C587 1.394 . S
C588 C589 1.378 . S
C588 H616 0.931 . S
C589 C584 1.377 . S
C589 C588 1.378 . S
C589 H617 0.931 . S
C590 O604 1.259 . S
C590 O605 1.270 . S
C591 O606 1.251 . S
C591 O607 1.251 . S
C592 Eu593 2.835 . S
C592 C594 1.500 . S
C592 O608 1.257 . S
C592 O609 1.260 . S
Eu593 C592 2.835 . S
Eu593 O605 2.355 . S
Eu593 O607 2.374 . S
Eu593 O608 2.473 . S
Eu593 O609 2.480 . S
Eu593 O610 2.430 . S
Eu593 O611 2.670 . S
Eu593 O612 2.394 . S
C594 C592 1.500 . S
C594 C595 1.377 . S
C594 C599 1.377 . S
C595 C594 1.377 . S
C595 C596 1.395 . S
C595 H618 0.931 . S
C596 C595 1.395 . S
C596 C597 1.383 . S
C596 H619 0.931 . S
C597 C596 1.383 . S
C597 C598 1.394 . S
C598 C597 1.394 . S
C598 C599 1.378 . S
C598 H620 0.931 . S
C599 C594 1.377 . S
C599 C598 1.378 . S
C599 H621 0.931 . S
C600 O610 1.259 . S
C600 O611 1.270 . S
C601 O612 1.251 . S
C601 O613 1.251 . S
O602 C582 1.257 . S
O602 Eu583 2.473 . S
O603 C582 1.260 . S
O603 Eu583 2.480 . S
O604 Eu583 2.430 . S
O604 C590 1.259 . S
O605 Eu583 2.670 . S
O605 C590 1.270 . S
O605 Eu593 2.355 . S
O606 Eu583 2.394 . S
O606 C591 1.251 . S
O607 C591 1.251 . S
O607 Eu593 2.374 . S
O608 C592 1.257 . S
O608 Eu593 2.473 . S
O609 C592 1.260 . S
O609 Eu593 2.480 . S
O610 Eu593 2.430 . S
O610 C600 1.259 . S
O611 Eu583 2.355 . S
O611 Eu593 2.670 . S
O611 C600 1.270 . S
O612 Eu593 2.394 . S
O612 C601 1.251 . S
O613 Eu583 2.374 . S
O613 C601 1.251 . S
H614 C585 0.931 . S
H615 C586 0.931 . S
H616 C588 0.931 . S
H617 C589 0.931 . S
H618 C595 0.931 . S
H619 C596 0.931 . S
H620 C598 0.931 . S
H621 C599 0.931 . S
C622 Eu623 2.835 . S
C622 C624 1.500 . S
C622 O642 1.257 . S
C622 O643 1.260 . S
Eu623 C622 2.835 . S
Eu623 O642 2.473 . S
Eu623 O643 2.480 . S
Eu623 O644 2.430 . S
Eu623 O645 2.670 . S
Eu623 O646 2.394 . S
Eu623 O651 2.355 . S
Eu623 O653 2.374 . S
C624 C622 1.500 . S
C624 C625 1.377 . S
C624 C629 1.377 . S
C625 C624 1.377 . S
C625 C626 1.395 . S
C625 H654 0.931 . S
C626 C625 1.395 . S
C626 C627 1.383 . S
C626 H655 0.931 . S
C627 C626 1.383 . S
C627 C628 1.394 . S
C628 C627 1.394 . S
C628 C629 1.378 . S
C628 H656 0.931 . S
C629 C624 1.377 . S
C629 C628 1.378 . S
C629 H657 0.931 . S
C630 O644 1.259 . S
C630 O645 1.270 . S
C631 O646 1.251 . S
C631 O647 1.251 . S
C632 Eu633 2.835 . S
C632 C634 1.500 . S
C632 O648 1.257 . S
C632 O649 1.260 . S
Eu633 C632 2.835 . S
Eu633 O645 2.355 . S
Eu633 O647 2.374 . S
Eu633 O648 2.473 . S
Eu633 O649 2.480 . S
Eu633 O650 2.430 . S
Eu633 O651 2.670 . S
Eu633 O652 2.394 . S
C634 C632 1.500 . S
C634 C635 1.377 . S
C634 C639 1.377 . S
C635 C634 1.377 . S
C635 C636 1.395 . S
C635 H658 0.931 . S
C636 C635 1.395 . S
C636 C637 1.383 . S
C636 H659 0.931 . S
C637 C636 1.383 . S
C637 C638 1.394 . S
C638 C637 1.394 . S
C638 C639 1.378 . S
C638 H660 0.931 . S
C639 C634 1.377 . S
C639 C638 1.378 . S
C639 H661 0.931 . S
C640 O650 1.259 . S
C640 O651 1.270 . S
C641 O652 1.251 . S
C641 O653 1.251 . S
O642 C622 1.257 . S
O642 Eu623 2.473 . S
O643 C622 1.260 . S
O643 Eu623 2.480 . S
O644 Eu623 2.430 . S
O644 C630 1.259 . S
O645 Eu623 2.670 . S
O645 C630 1.270 . S
O645 Eu633 2.355 . S
O646 Eu623 2.394 . S
O646 C631 1.251 . S
O647 C631 1.251 . S
O647 Eu633 2.374 . S
O648 C632 1.257 . S
O648 Eu633 2.473 . S
O649 C632 1.260 . S
O649 Eu633 2.480 . S
O650 Eu633 2.430 . S
O650 C640 1.259 . S
O651 Eu623 2.355 . S
O651 Eu633 2.670 . S
O651 C640 1.270 . S
O652 Eu633 2.394 . S
O652 C641 1.251 . S
O653 Eu623 2.374 . S
O653 C641 1.251 . S
H654 C625 0.931 . S
H655 C626 0.931 . S
H656 C628 0.931 . S
H657 C629 0.931 . S
H658 C635 0.931 . S
H659 C636 0.931 . S
H660 C638 0.931 . S
H661 C639 0.931 . S
C662 Eu663 2.835 . S
C662 C664 1.500 . S
C662 O682 1.257 . S
C662 O683 1.260 . S
Eu663 C662 2.835 . S
Eu663 O682 2.473 . S
Eu663 O683 2.480 . S
Eu663 O684 2.430 . S
Eu663 O685 2.670 . S
Eu663 O686 2.394 . S
Eu663 O691 2.355 . S
Eu663 O693 2.374 . S
C664 C662 1.500 . S
C664 C665 1.377 . S
C664 C669 1.377 . S
C665 C664 1.377 . S
C665 C666 1.395 . S
C665 H694 0.931 . S
C666 C665 1.395 . S
C666 C667 1.383 . S
C666 H695 0.931 . S
C667 C666 1.383 . S
C667 C668 1.394 . S
C668 C667 1.394 . S
C668 C669 1.378 . S
C668 H696 0.931 . S
C669 C664 1.377 . S
C669 C668 1.378 . S
C669 H697 0.931 . S
C670 O684 1.259 . S
C670 O685 1.270 . S
C671 O686 1.251 . S
C671 O687 1.251 . S
C672 Eu673 2.835 . S
C672 C674 1.500 . S
C672 O688 1.257 . S
C672 O689 1.260 . S
Eu673 C672 2.835 . S
Eu673 O685 2.355 . S
Eu673 O687 2.374 . S
Eu673 O688 2.473 . S
Eu673 O689 2.480 . S
Eu673 O690 2.430 . S
Eu673 O691 2.670 . S
Eu673 O692 2.394 . S
C674 C672 1.500 . S
C674 C675 1.377 . S
C674 C679 1.377 . S
C675 C674 1.377 . S
C675 C676 1.395 . S
C675 H698 0.931 . S
C676 C675 1.395 . S
C676 C677 1.383 . S
C676 H699 0.931 . S
C677 C676 1.383 . S
C677 C678 1.394 . S
C678 C677 1.394 . S
C678 C679 1.378 . S
C678 H700 0.931 . S
C679 C674 1.377 . S
C679 C678 1.378 . S
C679 H701 0.931 . S
C680 O690 1.259 . S
C680 O691 1.270 . S
C681 O692 1.251 . S
C681 O693 1.251 . S
O682 C662 1.257 . S
O682 Eu663 2.473 . S
O683 C662 1.260 . S
O683 Eu663 2.480 . S
O684 Eu663 2.430 . S
O684 C670 1.259 . S
O685 Eu663 2.670 . S
O685 C670 1.270 . S
O685 Eu673 2.355 . S
O686 Eu663 2.394 . S
O686 C671 1.251 . S
O687 C671 1.251 . S
O687 Eu673 2.374 . S
O688 C672 1.257 . S
O688 Eu673 2.473 . S
O689 C672 1.260 . S
O689 Eu673 2.480 . S
O690 Eu673 2.430 . S
O690 C680 1.259 . S
O691 Eu663 2.355 . S
O691 Eu673 2.670 . S
O691 C680 1.270 . S
O692 Eu673 2.394 . S
O692 C681 1.251 . S
O693 Eu663 2.374 . S
O693 C681 1.251 . S
H694 C665 0.931 . S
H695 C666 0.931 . S
H696 C668 0.931 . S
H697 C669 0.931 . S
H698 C675 0.931 . S
H699 C676 0.931 . S
H700 C678 0.931 . S
H701 C679 0.931 . S
C702 C703 1.363 . S
C702 C708 1.379 . S
C702 N710 1.356 . S
C703 C702 1.363 . S
C703 C709 1.363 . S
C704 C705 1.363 . S
C704 C709 1.379 . S
C704 N711 1.356 . S
C705 C704 1.363 . S
C705 C708 1.363 . S
N706 C708 1.356 . S
N706 H718 0.984 . S
N706 H719 0.985 . S
N707 C709 1.356 . S
N707 H712 0.984 . S
N707 H713 0.985 . S
C708 C702 1.379 . S
C708 C705 1.363 . S
C708 N706 1.356 . S
C709 C703 1.363 . S
C709 C704 1.379 . S
C709 N707 1.356 . S
N710 C702 1.356 . S
N710 H716 0.984 . S
N710 H717 0.984 . S
N711 C704 1.356 . S
N711 H714 0.984 . S
N711 H715 0.985 1_554 S
H712 N707 0.984 . S
H713 N707 0.985 . S
H714 N711 0.984 . S
H715 N711 0.985 1_556 S
H716 N710 0.984 . S
H717 N710 0.984 . S
H718 N706 0.984 . S
H719 N706 0.985 . S
C720 C721 1.363 . S
C720 C726 1.379 . S
C720 N728 1.356 . S
C721 C720 1.363 . S
C721 C727 1.363 . S
C722 C723 1.363 . S
C722 C727 1.379 . S
C722 N729 1.356 . S
C723 C722 1.363 . S
C723 C726 1.363 . S
N724 C726 1.356 . S
N724 H736 0.984 . S
N724 H737 0.985 . S
N725 C727 1.356 . S
N725 H730 0.984 . S
N725 H731 0.985 . S
C726 C720 1.379 . S
C726 C723 1.363 . S
C726 N724 1.356 . S
C727 C721 1.363 . S
C727 C722 1.379 . S
C727 N725 1.356 . S
N728 C720 1.356 . S
N728 H734 0.984 . S
N728 H735 0.984 . S
N729 C722 1.356 . S
N729 H732 0.984 . S
N729 H733 0.985 1_554 S
H730 N725 0.984 . S
H731 N725 0.985 . S
H732 N729 0.984 . S
H733 N729 0.985 1_556 S
H734 N728 0.984 . S
H735 N728 0.984 . S
H736 N724 0.984 . S
H737 N724 0.985 . S
C738 C739 1.363 . S
C738 C744 1.379 1_554 S
C738 N746 1.356 1_554 S
C739 C738 1.363 . S
C739 C745 1.363 . S
C740 C741 1.363 . S
C740 C745 1.379 . S
C740 N747 1.356 . S
C741 C740 1.363 . S
C741 C744 1.340 1_554 S
N742 C744 1.375 . S
N742 H754 0.984 . S
N742 H755 0.985 . S
N743 C745 1.356 . S
N743 H748 0.984 . S
N743 H749 0.985 . S
C744 C738 1.379 1_556 S
C744 C741 1.340 1_556 S
C744 N742 1.375 . S
C745 C739 1.363 . S
C745 C740 1.379 . S
C745 N743 1.356 . S
N746 C738 1.356 1_556 S
N746 H752 0.984 . S
N746 H753 0.984 . S
N747 C740 1.356 . S
N747 H750 0.984 . S
N747 H751 0.985 . S
H748 N743 0.984 . S
H749 N743 0.985 . S
H750 N747 0.984 . S
H751 N747 0.985 . S
H752 N746 0.984 . S
H753 N746 0.984 . S
H754 N742 0.984 . S
H755 N742 0.985 . S
C756 C757 1.363 . S
C756 C762 1.379 . S
C756 N764 1.356 . S
C757 C756 1.363 . S
C757 C763 1.363 . S
C758 C759 1.363 . S
C758 C763 1.379 . S
C758 N765 1.356 . S
C759 C758 1.363 . S
C759 C762 1.363 . S
N760 C762 1.356 . S
N760 H772 0.986 . S
N760 H773 0.984 . S
N761 C763 1.356 . S
N761 H766 0.984 . S
N761 H767 0.985 . S
C762 C756 1.379 . S
C762 C759 1.363 . S
C762 N760 1.356 . S
C763 C757 1.363 . S
C763 C758 1.379 . S
C763 N761 1.356 . S
N764 C756 1.356 . S
N764 H770 0.984 . S
N764 H771 0.984 . S
N765 C758 1.356 . S
N765 H768 0.984 . S
N765 H769 0.985 . S
H766 N761 0.984 . S
H767 N761 0.985 . S
H768 N765 0.984 . S
H769 N765 0.985 . S
H770 N764 0.984 . S
H771 N764 0.984 . S
H772 N760 0.986 . S
H773 N760 0.984 . S
C774 C775 1.363 . S
C774 C780 1.379 . S
C774 N782 1.356 . S
C775 C774 1.363 . S
C775 C781 1.363 . S
C776 C777 1.363 . S
C776 C781 1.379 . S
C776 N783 1.356 1_556 S
C777 C776 1.363 . S
C777 C780 1.363 . S
N778 C780 1.356 . S
N778 H790 0.984 . S
N778 H791 0.985 . S
N779 C781 1.356 . S
N779 H784 0.984 . S
N779 H785 0.985 . S
C780 C774 1.379 . S
C780 C777 1.363 . S
C780 N778 1.356 . S
C781 C775 1.363 . S
C781 C776 1.379 . S
C781 N779 1.356 . S
N782 C774 1.356 . S
N782 H788 0.984 . S
N782 H789 0.984 . S
N783 C776 1.356 1_554 S
N783 H786 0.984 . S
N783 H787 0.985 . S
H784 N779 0.984 . S
H785 N779 0.985 . S
H786 N783 0.984 . S
H787 N783 0.985 . S
H788 N782 0.984 . S
H789 N782 0.984 . S
H790 N778 0.984 . S
H791 N778 0.985 . S
C792 C793 1.363 . S
C792 C798 1.379 . S
C792 N800 1.356 . S
C793 C792 1.363 . S
C793 C799 1.363 1_556 S
C794 C795 1.363 1_554 S
C794 C799 1.379 . S
C794 N801 1.356 . S
C795 C794 1.363 1_556 S
C795 C798 1.363 . S
N796 C798 1.356 . S
N796 H808 0.984 . S
N796 H809 0.985 . S
N797 C799 1.356 . S
N797 H802 0.984 . S
N797 H803 0.985 . S
C798 C792 1.379 . S
C798 C795 1.363 . S
C798 N796 1.356 . S
C799 C793 1.363 1_554 S
C799 C794 1.379 . S
C799 N797 1.356 . S
N800 C792 1.356 . S
N800 H806 0.984 . S
N800 H807 0.984 . S
N801 C794 1.356 . S
N801 H804 0.984 . S
N801 H805 0.985 . S
H802 N797 0.984 . S
H803 N797 0.985 . S
H804 N801 0.984 . S
H805 N801 0.985 . S
H806 N800 0.984 . S
H807 N800 0.984 . S
H808 N796 0.984 . S
H809 N796 0.985 . S
C810 C811 1.363 . S
C810 C816 1.379 . S
C810 N818 1.356 . S
C811 C810 1.363 . S
C811 C817 1.363 . S
C812 C813 1.363 . S
C812 C817 1.379 . S
C812 N819 1.356 . S
C813 C812 1.363 . S
C813 C816 1.363 . S
N814 C816 1.356 . S
N814 H826 0.984 . S
N814 H827 0.985 . S
N815 C817 1.356 . S
N815 H820 0.984 . S
N815 H821 0.985 . S
C816 C810 1.379 . S
C816 C813 1.363 . S
C816 N814 1.356 . S
C817 C811 1.363 . S
C817 C812 1.379 . S
C817 N815 1.356 . S
N818 C810 1.356 . S
N818 H824 0.984 . S
N818 H825 0.984 . S
N819 C812 1.356 . S
N819 H822 0.984 . S
N819 H823 0.985 . S
H820 N815 0.984 . S
H821 N815 0.985 . S
H822 N819 0.984 . S
H823 N819 0.985 . S
H824 N818 0.984 . S
H825 N818 0.984 . S
H826 N814 0.984 . S
H827 N814 0.985 . S
C828 C829 1.363 . S
C828 C834 1.379 . S
C828 N836 1.377 . S
C829 C828 1.363 . S
C829 C835 1.363 . S
C830 C831 1.363 . S
C830 C835 1.379 . S
C830 N837 1.356 . S
C831 C830 1.363 . S
C831 C834 1.363 . S
N832 C834 1.356 1_554 S
N832 H844 0.984 . S
N832 H845 0.985 . S
N833 C835 1.356 . S
N833 H838 0.984 . S
N833 H839 0.985 . S
C834 C828 1.379 . S
C834 C831 1.363 . S
C834 N832 1.356 1_556 S
C835 C829 1.363 . S
C835 C830 1.379 . S
C835 N833 1.356 . S
N836 C828 1.377 . S
N836 H842 0.952 1_556 S
N836 H843 0.998 . S
N837 C830 1.356 . S
N837 H840 0.984 . S
N837 H841 0.985 . S
H838 N833 0.984 . S
H839 N833 0.985 . S
H840 N837 0.984 . S
H841 N837 0.985 . S
H842 N836 0.952 1_554 S
H843 N836 0.998 . S
H844 N832 0.984 . S
H845 N832 0.985 . S
C846 C847 1.363 . S
C846 C852 1.379 . S
C846 N854 1.356 . S
C847 C846 1.363 . S
C847 C853 1.363 1_554 S
C848 C849 1.363 1_556 S
C848 C853 1.379 . S
C848 N855 1.356 . S
C849 C848 1.363 1_554 S
C849 C852 1.363 . S
N850 C852 1.356 . S
N850 H862 0.984 . S
N850 H863 0.985 . S
N851 C853 1.356 . S
N851 H856 0.984 . S
N851 H857 0.985 . S
C852 C846 1.379 . S
C852 C849 1.363 . S
C852 N850 1.356 . S
C853 C847 1.363 1_556 S
C853 C848 1.379 . S
C853 N851 1.356 . S
N854 C846 1.356 . S
N854 H860 0.984 . S
N854 H861 0.984 . S
N855 C848 1.356 . S
N855 H858 0.984 . S
N855 H859 0.985 . S
H856 N851 0.984 . S
H857 N851 0.985 . S
H858 N855 0.984 . S
H859 N855 0.985 . S
H860 N854 0.984 . S
H861 N854 0.984 . S
H862 N850 0.984 . S
H863 N850 0.985 . S
C864 C865 1.363 1_556 S
C864 C870 1.379 . S
C864 N872 1.356 . S
C865 C864 1.363 1_554 S
C865 C871 1.363 . S
C866 C867 1.363 . S
C866 C871 1.379 . S
C866 N873 1.356 . S
C867 C866 1.363 . S
C867 C870 1.363 1_554 S
N868 C870 1.356 . S
N868 H880 0.984 . S
N868 H881 0.985 . S
N869 C871 1.356 . S
N869 H874 0.984 . S
N869 H875 0.985 . S
C870 C864 1.379 . S
C870 C867 1.363 1_556 S
C870 N868 1.356 . S
C871 C865 1.363 . S
C871 C866 1.379 . S
C871 N869 1.356 . S
N872 C864 1.356 . S
N872 H878 0.984 . S
N872 H879 0.984 . S
N873 C866 1.356 . S
N873 H876 0.984 . S
N873 H877 0.985 . S
H874 N869 0.984 . S
H875 N869 0.985 . S
H876 N873 0.984 . S
H877 N873 0.985 . S
H878 N872 0.984 . S
H879 N872 0.984 . S
H880 N868 0.984 . S
H881 N868 0.985 . S
C882 C883 1.363 . S
C882 C888 1.379 . S
C882 N890 1.356 . S
C883 C882 1.363 . S
C883 C889 1.363 . S
C884 C885 1.363 . S
C884 C889 1.379 . S
C884 N891 1.356 . S
C885 C884 1.363 . S
C885 C888 1.363 . S
N886 C888 1.356 . S
N886 H898 1.004 . S
N886 H899 0.985 . S
N887 C889 1.356 . S
N887 H892 0.984 . S
N887 H893 0.985 . S
C888 C882 1.379 . S
C888 C885 1.363 . S
C888 N886 1.356 . S
C889 C883 1.363 . S
C889 C884 1.379 . S
C889 N887 1.356 . S
N890 C882 1.356 . S
N890 H896 0.984 . S
N890 H897 0.984 . S
N891 C884 1.356 . S
N891 H894 0.984 . S
N891 H895 0.985 . S
H892 N887 0.984 . S
H893 N887 0.985 . S
H894 N891 0.984 . S
H895 N891 0.985 . S
H896 N890 0.984 . S
H897 N890 0.984 . S
H898 N886 1.004 . S
H899 N886 0.985 . S
C900 C901 1.363 . S
C900 C906 1.379 . S
C900 N908 1.356 . S
C901 C900 1.363 . S
C901 C907 1.363 1_554 S
C902 C903 1.363 1_556 S
C902 C907 1.379 . S
C902 N909 1.356 . S
C903 C902 1.363 1_554 S
C903 C906 1.363 . S
N904 C906 1.356 . S
N904 H916 0.984 . S
N904 H917 0.985 . S
N905 C907 1.356 . S
N905 H910 0.984 . S
N905 H911 0.985 . S
C906 C900 1.379 . S
C906 C903 1.363 . S
C906 N904 1.356 . S
C907 C901 1.363 1_556 S
C907 C902 1.379 . S
C907 N905 1.356 . S
N908 C900 1.356 . S
N908 H914 0.984 . S
N908 H915 0.984 . S
N909 C902 1.356 . S
N909 H912 0.984 . S
N909 H913 0.985 . S
H910 N905 0.984 . S
H911 N905 0.985 . S
H912 N909 0.984 . S
H913 N909 0.985 . S
H914 N908 0.984 . S
H915 N908 0.984 . S
H916 N904 0.984 . S
H917 N904 0.985 . S
C918 C919 1.363 . S
C918 C924 1.379 1_655 S
C918 N926 1.356 . S
C919 C918 1.363 . S
C919 C925 1.363 . S
C920 C921 1.363 1_655 S
C920 C925 1.379 . S
C920 N927 1.356 1_655 S
C921 C920 1.363 1_455 S
C921 C924 1.363 . S
N922 C924 1.356 . S
N922 H934 0.984 . S
N922 H935 0.985 . S
N923 C925 1.356 . S
N923 H928 0.984 . S
N923 H929 0.985 . S
C924 C918 1.379 1_455 S
C924 C921 1.363 . S
C924 N922 1.356 . S
C925 C919 1.363 . S
C925 C920 1.379 . S
C925 N923 1.356 . S
N926 C918 1.356 . S
N926 H932 0.984 . S
N926 H933 0.984 . S
N927 C920 1.356 1_455 S
N927 H930 0.984 . S
N927 H931 0.985 1_455 S
H928 N923 0.984 . S
H929 N923 0.985 . S
H930 N927 0.984 . S
H931 N927 0.985 1_655 S
H932 N926 0.984 . S
H933 N926 0.984 . S
H934 N922 0.984 . S
H935 N922 0.985 . S
C936 C937 1.363 . S
C936 C942 1.379 . S
C936 N944 1.356 . S
C937 C936 1.363 . S
C937 C943 1.363 . S
C938 C939 1.363 . S
C938 C943 1.379 . S
C938 N945 1.356 . S
C939 C938 1.363 . S
C939 C942 1.363 . S
N940 C942 1.356 . S
N940 H952 0.984 . S
N940 H953 0.985 . S
N941 C943 1.356 . S
N941 H946 0.984 . S
N941 H947 0.985 . S
C942 C936 1.379 . S
C942 C939 1.363 . S
C942 N940 1.356 . S
C943 C937 1.363 . S
C943 C938 1.379 . S
C943 N941 1.356 . S
N944 C936 1.356 . S
N944 H950 0.984 . S
N944 H951 0.984 . S
N945 C938 1.356 . S
N945 H948 0.984 . S
N945 H949 0.985 . S
H946 N941 0.984 . S
H947 N941 0.985 . S
H948 N945 0.984 . S
H949 N945 0.985 . S
H950 N944 0.984 . S
H951 N944 0.984 . S
H952 N940 0.984 . S
H953 N940 0.985 . S
C954 C955 1.363 . S
C954 C960 1.379 . S
C954 N962 1.356 . S
C955 C954 1.363 . S
C955 C961 1.363 . S
C956 C957 1.361 1_545 S
C956 C961 1.381 . S
C956 N963 1.355 1_545 S
C957 C956 1.361 1_565 S
C957 C960 1.363 1_565 S
N958 C960 1.356 . S
N958 H970 0.984 . S
N958 H971 0.985 1_545 S
N959 C961 1.356 . S
N959 H964 0.984 . S
N959 H965 0.985 . S
C960 C954 1.379 . S
C960 C957 1.363 1_545 S
C960 N958 1.356 . S
C961 C955 1.363 . S
C961 C956 1.381 . S
C961 N959 1.356 . S
N962 C954 1.356 . S
N962 H968 0.984 . S
N962 H969 0.984 . S
N963 C956 1.355 1_565 S
N963 H966 0.984 . S
N963 H967 0.985 . S
H964 N959 0.984 . S
H965 N959 0.985 . S
H966 N963 0.984 . S
H967 N963 0.985 . S
H968 N962 0.984 . S
H969 N962 0.984 . S
H970 N958 0.984 . S
H971 N958 0.985 1_565 S
C972 C973 1.363 . S
C972 C978 1.379 . S
C972 N980 1.356 . S
C973 C972 1.363 . S
C973 C979 1.363 . S
C974 C975 1.363 . S
C974 C979 1.379 . S
C974 N981 1.356 . S
C975 C974 1.363 . S
C975 C978 1.363 . S
N976 C978 1.356 . S
N976 H988 0.984 . S
N976 H989 0.985 . S
N977 C979 1.356 . S
N977 H982 0.984 . S
N977 H983 0.985 . S
C978 C972 1.379 . S
C978 C975 1.363 . S
C978 N976 1.356 . S
C979 C973 1.363 . S
C979 C974 1.379 . S
C979 N977 1.356 . S
N980 C972 1.356 . S
N980 H986 0.984 . S
N980 H987 0.984 . S
N981 C974 1.356 . S
N981 H984 0.984 . S
N981 H985 0.985 . S
H982 N977 0.984 . S
H983 N977 0.985 . S
H984 N981 0.984 . S
H985 N981 0.985 . S
H986 N980 0.984 . S
H987 N980 0.984 . S
H988 N976 0.984 . S
H989 N976 0.985 . S
C990 C991 1.363 . S
C990 C996 1.379 . S
C990 N998 1.356 . S
C991 C990 1.363 . S
C991 C997 1.363 . S
C992 C993 1.363 . S
C992 C997 1.379 . S
C992 N999 1.356 . S
C993 C992 1.363 . S
C993 C996 1.363 . S
N994 C996 1.356 . S
N994 H1006 0.984 . S
N994 H1007 0.985 . S
N995 C997 1.356 . S
N995 H1000 0.984 . S
N995 H1001 0.985 . S
C996 C990 1.379 . S
C996 C993 1.363 . S
C996 N994 1.356 . S
C997 C991 1.363 . S
C997 C992 1.379 . S
C997 N995 1.356 . S
N998 C990 1.356 . S
N998 H1004 0.984 . S
N998 H1005 0.984 . S
N999 C992 1.356 . S
N999 H1002 0.984 . S
N999 H1003 0.985 . S
H1000 N995 0.984 . S
H1001 N995 0.985 . S
H1002 N999 0.984 . S
H1003 N999 0.985 . S
H1004 N998 0.984 . S
H1005 N998 0.984 . S
H1006 N994 0.984 . S
H1007 N994 0.985 . S
C1008 C1009 1.363 . S
C1008 C1014 1.379 . S
C1008 N1016 1.356 . S
C1009 C1008 1.363 . S
C1009 C1015 1.363 . S
C1010 C1011 1.363 . S
C1010 C1015 1.379 . S
C1010 N1017 1.356 . S
C1011 C1010 1.363 . S
C1011 C1014 1.363 . S
N1012 C1014 1.356 . S
N1012 H1024 0.984 . S
N1012 H1025 0.985 . S
N1013 C1015 1.356 . S
N1013 H1018 0.984 . S
N1013 H1019 0.985 . S
C1014 C1008 1.379 . S
C1014 C1011 1.363 . S
C1014 N1012 1.356 . S
C1015 C1009 1.363 . S
C1015 C1010 1.379 . S
C1015 N1013 1.356 . S
N1016 C1008 1.356 . S
N1016 H1022 0.984 . S
N1016 H1023 0.984 . S
N1017 C1010 1.356 . S
N1017 H1020 0.984 . S
N1017 H1021 0.985 . S
H1018 N1013 0.984 . S
H1019 N1013 0.985 . S
H1020 N1017 0.984 . S
H1021 N1017 0.985 . S
H1022 N1016 0.984 . S
H1023 N1016 0.984 . S
H1024 N1012 0.984 . S
H1025 N1012 0.985 . S
C1026 C1027 1.363 . S
C1026 C1032 1.379 . S
C1026 N1034 1.356 . S
C1027 C1026 1.363 . S
C1027 C1033 1.363 . S
C1028 C1029 1.363 . S
C1028 C1033 1.379 . S
C1028 N1035 1.356 . S
C1029 C1028 1.363 . S
C1029 C1032 1.363 . S
N1030 C1032 1.356 . S
N1030 H1042 0.984 . S
N1030 H1043 0.985 . S
N1031 C1033 1.356 . S
N1031 H1036 0.984 . S
N1031 H1037 0.985 . S
C1032 C1026 1.379 . S
C1032 C1029 1.363 . S
C1032 N1030 1.356 . S
C1033 C1027 1.363 . S
C1033 C1028 1.379 . S
C1033 N1031 1.356 . S
N1034 C1026 1.356 . S
N1034 H1040 0.984 . S
N1034 H1041 0.984 . S
N1035 C1028 1.356 . S
N1035 H1038 0.984 . S
N1035 H1039 0.985 . S
H1036 N1031 0.984 . S
H1037 N1031 0.985 . S
H1038 N1035 0.984 . S
H1039 N1035 0.985 . S
H1040 N1034 0.984 . S
H1041 N1034 0.984 . S
H1042 N1030 0.984 . S
H1043 N1030 0.985 . S
C1044 C1045 1.363 . S
C1044 C1050 1.379 . S
C1044 N1052 1.356 . S
C1045 C1044 1.363 . S
C1045 C1051 1.363 . S
C1046 C1047 1.363 . S
C1046 C1051 1.379 . S
C1046 N1053 1.356 . S
C1047 C1046 1.363 . S
C1047 C1050 1.363 . S
N1048 C1050 1.356 . S
N1048 H1060 0.984 . S
N1048 H1061 0.985 . S
N1049 C1051 1.356 . S
N1049 H1054 0.984 . S
N1049 H1055 0.985 . S
C1050 C1044 1.379 . S
C1050 C1047 1.363 . S
C1050 N1048 1.356 . S
C1051 C1045 1.363 . S
C1051 C1046 1.379 . S
C1051 N1049 1.356 . S
N1052 C1044 1.356 . S
N1052 H1058 0.984 . S
N1052 H1059 0.984 . S
N1053 C1046 1.356 . S
N1053 H1056 0.984 . S
N1053 H1057 0.985 . S
H1054 N1049 0.984 . S
H1055 N1049 0.985 . S
H1056 N1053 0.984 . S
H1057 N1053 0.985 . S
H1058 N1052 0.984 . S
H1059 N1052 0.984 . S
H1060 N1048 0.984 . S
H1061 N1048 0.985 . S
C1062 C1063 1.363 . S
C1062 C1068 1.379 . S
C1062 N1070 1.356 . S
C1063 C1062 1.363 . S
C1063 C1069 1.363 . S
C1064 C1065 1.363 . S
C1064 C1069 1.379 . S
C1064 N1071 1.356 . S
C1065 C1064 1.363 . S
C1065 C1068 1.363 . S
N1066 C1068 1.356 . S
N1066 H1078 0.984 . S
N1066 H1079 0.985 . S
N1067 C1069 1.356 . S
N1067 H1072 0.984 . S
N1067 H1073 0.985 . S
C1068 C1062 1.379 . S
C1068 C1065 1.363 . S
C1068 N1066 1.356 . S
C1069 C1063 1.363 . S
C1069 C1064 1.379 . S
C1069 N1067 1.356 . S
N1070 C1062 1.356 . S
N1070 H1076 0.984 . S
N1070 H1077 0.984 . S
N1071 C1064 1.356 . S
N1071 H1074 0.984 . S
N1071 H1075 0.985 . S
H1072 N1067 0.984 . S
H1073 N1067 0.985 . S
H1074 N1071 0.984 . S
H1075 N1071 0.985 . S
H1076 N1070 0.984 . S
H1077 N1070 0.984 . S
H1078 N1066 0.984 . S
H1079 N1066 0.985 . S
C1080 C1081 1.363 . S
C1080 C1086 1.379 . S
C1080 N1088 1.356 . S
C1081 C1080 1.363 . S
C1081 C1087 1.363 . S
C1082 C1083 1.363 . S
C1082 C1087 1.379 . S
C1082 N1089 1.356 . S
C1083 C1082 1.363 . S
C1083 C1086 1.363 . S
N1084 C1086 1.356 . S
N1084 H1096 0.984 . S
N1084 H1097 0.985 . S
N1085 C1087 1.356 . S
N1085 H1090 1.014 . S
N1085 H1091 0.985 . S
C1086 C1080 1.379 . S
C1086 C1083 1.363 . S
C1086 N1084 1.356 . S
C1087 C1081 1.363 . S
C1087 C1082 1.379 . S
C1087 N1085 1.356 . S
N1088 C1080 1.356 . S
N1088 H1094 0.984 . S
N1088 H1095 0.984 1_565 S
N1089 C1082 1.356 . S
N1089 H1092 0.984 . S
N1089 H1093 0.985 . S
H1090 N1085 1.014 . S
H1091 N1085 0.985 . S
H1092 N1089 0.984 . S
H1093 N1089 0.985 . S
H1094 N1088 0.984 . S
H1095 N1088 0.984 1_545 S
H1096 N1084 0.984 . S
H1097 N1084 0.985 . S
C1098 C1099 1.363 . S
C1098 C1104 1.379 . S
C1098 N1106 1.356 . S
C1099 C1098 1.363 . S
C1099 C1105 1.363 . S
C1100 C1101 1.363 . S
C1100 C1105 1.379 . S
C1100 N1107 1.356 . S
C1101 C1100 1.363 . S
C1101 C1104 1.363 . S
N1102 C1104 1.356 . S
N1102 H1114 0.984 . S
N1102 H1115 0.985 . S
N1103 C1105 1.356 . S
N1103 H1108 0.984 . S
N1103 H1109 0.985 . S
C1104 C1098 1.379 . S
C1104 C1101 1.363 . S
C1104 N1102 1.356 . S
C1105 C1099 1.363 . S
C1105 C1100 1.379 . S
C1105 N1103 1.356 . S
N1106 C1098 1.356 . S
N1106 H1112 0.984 . S
N1106 H1113 0.984 . S
N1107 C1100 1.356 . S
N1107 H1110 0.984 . S
N1107 H1111 0.985 . S
H1108 N1103 0.984 . S
H1109 N1103 0.985 . S
H1110 N1107 0.984 . S
H1111 N1107 0.985 . S
H1112 N1106 0.984 . S
H1113 N1106 0.984 . S
H1114 N1102 0.984 . S
H1115 N1102 0.985 . S
C1116 C1117 1.363 . S
C1116 C1122 1.379 . S
C1116 N1124 1.356 . S
C1117 C1116 1.363 . S
C1117 C1123 1.363 . S
C1118 C1119 1.363 . S
C1118 C1123 1.379 . S
C1118 N1125 1.356 . S
C1119 C1118 1.363 . S
C1119 C1122 1.363 . S
N1120 C1122 1.356 . S
N1120 H1132 0.984 . S
N1120 H1133 0.985 . S
N1121 C1123 1.356 . S
N1121 H1126 0.984 . S
N1121 H1127 0.985 . S
C1122 C1116 1.379 . S
C1122 C1119 1.363 . S
C1122 N1120 1.356 . S
C1123 C1117 1.363 . S
C1123 C1118 1.379 . S
C1123 N1121 1.356 . S
N1124 C1116 1.356 . S
N1124 H1130 0.984 . S
N1124 H1131 0.984 . S
N1125 C1118 1.356 . S
N1125 H1128 0.984 . S
N1125 H1129 0.985 . S
H1126 N1121 0.984 . S
H1127 N1121 0.985 . S
H1128 N1125 0.984 . S
H1129 N1125 0.985 . S
H1130 N1124 0.984 . S
H1131 N1124 0.984 . S
H1132 N1120 0.984 . S
H1133 N1120 0.985 . S
C1134 C1135 1.363 . S
C1134 C1140 1.379 . S
C1134 N1142 1.356 . S
C1135 C1134 1.363 . S
C1135 C1141 1.363 . S
C1136 C1137 1.363 . S
C1136 C1141 1.379 . S
C1136 N1143 1.356 . S
C1137 C1136 1.363 . S
C1137 C1140 1.363 . S
N1138 C1140 1.356 . S
N1138 H1150 0.984 . S
N1138 H1151 0.985 . S
N1139 C1141 1.356 . S
N1139 H1144 0.984 . S
N1139 H1145 0.985 . S
C1140 C1134 1.379 . S
C1140 C1137 1.363 . S
C1140 N1138 1.356 . S
C1141 C1135 1.363 . S
C1141 C1136 1.379 . S
C1141 N1139 1.356 . S
N1142 C1134 1.356 . S
N1142 H1148 0.984 . S
N1142 H1149 0.984 . S
N1143 C1136 1.356 . S
N1143 H1146 0.984 . S
N1143 H1147 0.985 . S
H1144 N1139 0.984 . S
H1145 N1139 0.985 . S
H1146 N1143 0.984 . S
H1147 N1143 0.985 . S
H1148 N1142 0.984 . S
H1149 N1142 0.984 . S
H1150 N1138 0.984 . S
H1151 N1138 0.985 . S
C1152 C1153 1.363 . S
C1152 C1158 1.379 . S
C1152 N1160 1.356 . S
C1153 C1152 1.363 . S
C1153 C1159 1.363 . S
C1154 C1155 1.363 . S
C1154 C1159 1.379 . S
C1154 N1161 1.356 . S
C1155 C1154 1.363 . S
C1155 C1158 1.363 . S
N1156 C1158 1.356 . S
N1156 H1168 0.984 . S
N1156 H1169 0.985 . S
N1157 C1159 1.356 . S
N1157 H1162 0.984 . S
N1157 H1163 0.985 . S
C1158 C1152 1.379 . S
C1158 C1155 1.363 . S
C1158 N1156 1.356 . S
C1159 C1153 1.363 . S
C1159 C1154 1.379 . S
C1159 N1157 1.356 . S
N1160 C1152 1.356 . S
N1160 H1166 0.984 . S
N1160 H1167 0.984 . S
N1161 C1154 1.356 . S
N1161 H1164 0.984 . S
N1161 H1165 0.985 . S
H1162 N1157 0.984 . S
H1163 N1157 0.985 . S
H1164 N1161 0.984 . S
H1165 N1161 0.985 . S
H1166 N1160 0.984 . S
H1167 N1160 0.984 . S
H1168 N1156 0.984 . S
H1169 N1156 0.985 . S
C1170 C1171 1.363 . S
C1170 C1176 1.379 . S
C1170 N1178 1.356 . S
C1171 C1170 1.363 . S
C1171 C1177 1.363 . S
C1172 C1173 1.363 . S
C1172 C1177 1.379 . S
C1172 N1179 1.356 . S
C1173 C1172 1.363 . S
C1173 C1176 1.363 . S
N1174 C1176 1.356 . S
N1174 H1186 0.984 . S
N1174 H1187 0.985 . S
N1175 C1177 1.356 . S
N1175 H1180 0.984 . S
N1175 H1181 0.985 . S
C1176 C1170 1.379 . S
C1176 C1173 1.363 . S
C1176 N1174 1.356 . S
C1177 C1171 1.363 . S
C1177 C1172 1.379 . S
C1177 N1175 1.356 . S
N1178 C1170 1.356 . S
N1178 H1184 0.984 . S
N1178 H1185 0.984 . S
N1179 C1172 1.356 . S
N1179 H1182 0.984 . S
N1179 H1183 0.985 . S
H1180 N1175 0.984 . S
H1181 N1175 0.985 . S
H1182 N1179 0.984 . S
H1183 N1179 0.985 . S
H1184 N1178 0.984 . S
H1185 N1178 0.984 . S
H1186 N1174 0.984 . S
H1187 N1174 0.985 . S
C1188 C1189 1.363 . S
C1188 C1194 1.379 . S
C1188 N1196 1.356 . S
C1189 C1188 1.363 . S
C1189 C1195 1.363 . S
C1190 C1191 1.363 . S
C1190 C1195 1.379 1_545 S
C1190 N1197 1.356 . S
C1191 C1190 1.363 . S
C1191 C1194 1.363 1_545 S
N1192 C1194 1.356 1_545 S
N1192 H1204 0.984 . S
N1192 H1205 0.985 . S
N1193 C1195 1.356 . S
N1193 H1198 0.984 . S
N1193 H1199 0.985 . S
C1194 C1188 1.379 . S
C1194 C1191 1.363 1_565 S
C1194 N1192 1.356 1_565 S
C1195 C1189 1.363 . S
C1195 C1190 1.379 1_565 S
C1195 N1193 1.356 . S
N1196 C1188 1.356 . S
N1196 H1202 0.984 . S
N1196 H1203 0.984 . S
N1197 C1190 1.356 . S
N1197 H1200 0.984 . S
N1197 H1201 0.985 . S
H1198 N1193 0.984 . S
H1199 N1193 0.985 . S
H1200 N1197 0.984 . S
H1201 N1197 0.985 . S
H1202 N1196 0.984 . S
H1203 N1196 0.984 . S
H1204 N1192 0.984 . S
H1205 N1192 0.985 . S
C1206 C1207 1.363 . S
C1206 C1212 1.379 . S
C1206 N1214 1.356 . S
C1207 C1206 1.363 . S
C1207 C1213 1.363 . S
C1208 C1209 1.363 . S
C1208 C1213 1.379 1_655 S
C1208 N1215 1.356 . S
C1209 C1208 1.363 . S
C1209 C1212 1.363 1_655 S
N1210 C1212 1.356 . S
N1210 H1222 0.984 . S
N1210 H1223 0.985 1_455 S
N1211 C1213 1.356 . S
N1211 H1216 0.984 . S
N1211 H1217 0.985 1_455 S
C1212 C1206 1.379 . S
C1212 C1209 1.363 1_455 S
C1212 N1210 1.356 . S
C1213 C1207 1.363 . S
C1213 C1208 1.379 1_455 S
C1213 N1211 1.356 . S
N1214 C1206 1.356 . S
N1214 H1220 0.984 . S
N1214 H1221 0.984 . S
N1215 C1208 1.356 . S
N1215 H1218 0.984 . S
N1215 H1219 0.985 . S
H1216 N1211 0.984 . S
H1217 N1211 0.985 1_655 S
H1218 N1215 0.984 . S
H1219 N1215 0.985 . S
H1220 N1214 0.984 . S
H1221 N1214 0.984 . S
H1222 N1210 0.984 . S
H1223 N1210 0.985 1_655 S
C1224 C1225 1.363 . S
C1224 C1230 1.379 . S
C1224 N1232 1.356 . S
C1225 C1224 1.363 . S
C1225 C1231 1.363 . S
C1226 C1227 1.363 . S
C1226 C1231 1.379 . S
C1226 N1233 1.356 . S
C1227 C1226 1.363 . S
C1227 C1230 1.363 . S
N1228 C1230 1.356 . S
N1228 H1240 0.984 . S
N1228 H1241 0.985 . S
N1229 C1231 1.356 . S
N1229 H1234 0.984 . S
N1229 H1235 0.985 . S
C1230 C1224 1.379 . S
C1230 C1227 1.363 . S
C1230 N1228 1.356 . S
C1231 C1225 1.363 . S
C1231 C1226 1.379 . S
C1231 N1229 1.356 . S
N1232 C1224 1.356 . S
N1232 H1238 0.984 . S
N1232 H1239 0.984 . S
N1233 C1226 1.356 . S
N1233 H1236 0.984 . S
N1233 H1237 0.985 . S
H1234 N1229 0.984 . S
H1235 N1229 0.985 . S
H1236 N1233 0.984 . S
H1237 N1233 0.985 . S
H1238 N1232 0.984 . S
H1239 N1232 0.984 . S
H1240 N1228 0.984 . S
H1241 N1228 0.985 . S
C1242 C1243 1.363 . S
C1242 C1248 1.379 . S
C1242 N1250 1.356 . S
C1243 C1242 1.363 . S
C1243 C1249 1.363 . S
C1244 C1245 1.363 . S
C1244 C1249 1.379 . S
C1244 N1251 1.356 . S
C1245 C1244 1.363 . S
C1245 C1248 1.363 . S
N1246 C1248 1.356 . S
N1246 H1258 0.984 . S
N1246 H1259 0.985 . S
N1247 C1249 1.356 . S
N1247 H1252 0.984 1_655 S
N1247 H1253 0.985 . S
C1248 C1242 1.379 . S
C1248 C1245 1.363 . S
C1248 N1246 1.356 . S
C1249 C1243 1.363 . S
C1249 C1244 1.379 . S
C1249 N1247 1.356 . S
N1250 C1242 1.356 . S
N1250 H1256 0.984 . S
N1250 H1257 0.984 1_655 S
N1251 C1244 1.356 . S
N1251 H1254 0.984 . S
N1251 H1255 0.985 . S
H1252 N1247 0.984 1_455 S
H1253 N1247 0.985 . S
H1254 N1251 0.984 . S
H1255 N1251 0.985 . S
H1256 N1250 0.984 . S
H1257 N1250 0.984 1_455 S
H1258 N1246 0.984 . S
H1259 N1246 0.985 . S
C1260 C1261 1.363 . S
C1260 C1266 1.379 . S
C1260 N1268 1.356 . S
C1261 C1260 1.363 . S
C1261 C1267 1.363 . S
C1262 C1263 1.363 . S
C1262 C1267 1.379 . S
C1262 N1269 1.356 . S
C1263 C1262 1.363 . S
C1263 C1266 1.363 . S
N1264 C1266 1.356 . S
N1264 H1276 0.984 . S
N1264 H1277 0.985 . S
N1265 C1267 1.356 . S
N1265 H1270 0.984 . S
N1265 H1271 0.985 . S
C1266 C1260 1.379 . S
C1266 C1263 1.363 . S
C1266 N1264 1.356 . S
C1267 C1261 1.363 . S
C1267 C1262 1.379 . S
C1267 N1265 1.356 . S
N1268 C1260 1.356 . S
N1268 H1274 0.984 . S
N1268 H1275 0.984 . S
N1269 C1262 1.356 . S
N1269 H1272 0.984 . S
N1269 H1273 0.985 . S
H1270 N1265 0.984 . S
H1271 N1265 0.985 . S
H1272 N1269 0.984 . S
H1273 N1269 0.985 . S
H1274 N1268 0.984 . S
H1275 N1268 0.984 . S
H1276 N1264 0.984 . S
H1277 N1264 0.985 . S
C1278 C1279 1.363 . S
C1278 C1284 1.379 . S
C1278 N1286 1.356 . S
C1279 C1278 1.363 . S
C1279 C1285 1.363 . S
C1280 C1281 1.363 . S
C1280 C1285 1.379 . S
C1280 N1287 1.356 . S
C1281 C1280 1.363 . S
C1281 C1284 1.363 . S
N1282 C1284 1.356 . S
N1282 H1294 0.984 . S
N1282 H1295 0.985 . S
N1283 C1285 1.356 . S
N1283 H1288 0.984 1_545 S
N1283 H1289 0.985 . S
C1284 C1278 1.379 . S
C1284 C1281 1.363 . S
C1284 N1282 1.356 . S
C1285 C1279 1.363 . S
C1285 C1280 1.379 . S
C1285 N1283 1.356 . S
N1286 C1278 1.356 . S
N1286 H1292 0.984 . S
N1286 H1293 0.984 . S
N1287 C1280 1.356 . S
N1287 H1290 0.984 . S
N1287 H1291 0.985 . S
H1288 N1283 0.984 1_565 S
H1289 N1283 0.985 . S
H1290 N1287 0.984 . S
H1291 N1287 0.985 . S
H1292 N1286 0.984 . S
H1293 N1286 0.984 . S
H1294 N1282 0.984 . S
H1295 N1282 0.985 . S
C1296 C1297 1.363 . S
C1296 C1302 1.379 . S
C1296 N1304 1.356 . S
C1297 C1296 1.363 . S
C1297 C1303 1.363 . S
C1298 C1299 1.363 . S
C1298 C1303 1.379 . S
C1298 N1305 1.356 . S
C1299 C1298 1.363 . S
C1299 C1302 1.363 . S
N1300 C1302 1.356 . S
N1300 H1312 0.984 . S
N1300 H1313 0.985 . S
N1301 C1303 1.356 . S
N1301 H1306 0.984 . S
N1301 H1307 0.985 . S
C1302 C1296 1.379 . S
C1302 C1299 1.363 . S
C1302 N1300 1.356 . S
C1303 C1297 1.363 . S
C1303 C1298 1.379 . S
C1303 N1301 1.356 . S
N1304 C1296 1.356 . S
N1304 H1310 0.984 . S
N1304 H1311 0.984 . S
N1305 C1298 1.356 . S
N1305 H1308 0.984 . S
N1305 H1309 0.985 . S
H1306 N1301 0.984 . S
H1307 N1301 0.985 . S
H1308 N1305 0.984 . S
H1309 N1305 0.985 . S
H1310 N1304 0.984 . S
H1311 N1304 0.984 . S
H1312 N1300 0.984 . S
H1313 N1300 0.985 . S
C1314 C1315 1.363 . S
C1314 C1320 1.379 . S
C1314 N1322 1.356 . S
C1315 C1314 1.363 . S
C1315 C1321 1.363 . S
C1316 C1317 1.363 . S
C1316 C1321 1.379 . S
C1316 N1323 1.356 . S
C1317 C1316 1.363 . S
C1317 C1320 1.363 . S
N1318 C1320 1.356 . S
N1318 H1330 0.984 . S
N1318 H1331 0.985 . S
N1319 C1321 1.356 . S
N1319 H1324 0.984 . S
N1319 H1325 0.985 . S
C1320 C1314 1.379 . S
C1320 C1317 1.363 . S
C1320 N1318 1.356 . S
C1321 C1315 1.363 . S
C1321 C1316 1.379 . S
C1321 N1319 1.356 . S
N1322 C1314 1.356 . S
N1322 H1328 0.984 . S
N1322 H1329 0.984 . S
N1323 C1316 1.356 . S
N1323 H1326 0.984 . S
N1323 H1327 0.985 . S
H1324 N1319 0.984 . S
H1325 N1319 0.985 . S
H1326 N1323 0.984 . S
H1327 N1323 0.985 . S
H1328 N1322 0.984 . S
H1329 N1322 0.984 . S
H1330 N1318 0.984 . S
H1331 N1318 0.985 . S
C1332 C1333 1.363 . S
C1332 C1338 1.379 . S
C1332 N1340 1.356 . S
C1333 C1332 1.363 . S
C1333 C1339 1.363 . S
C1334 C1335 1.363 . S
C1334 C1339 1.379 . S
C1334 N1341 1.356 . S
C1335 C1334 1.363 . S
C1335 C1338 1.363 . S
N1336 C1338 1.356 . S
N1336 H1348 0.984 . S
N1336 H1349 0.985 . S
N1337 C1339 1.356 . S
N1337 H1342 0.984 . S
N1337 H1343 0.985 . S
C1338 C1332 1.379 . S
C1338 C1335 1.363 . S
C1338 N1336 1.356 . S
C1339 C1333 1.363 . S
C1339 C1334 1.379 . S
C1339 N1337 1.356 . S
N1340 C1332 1.356 . S
N1340 H1346 0.984 . S
N1340 H1347 0.984 . S
N1341 C1334 1.356 . S
N1341 H1344 0.984 . S
N1341 H1345 0.985 . S
H1342 N1337 0.984 . S
H1343 N1337 0.985 . S
H1344 N1341 0.984 . S
H1345 N1341 0.985 . S
H1346 N1340 0.984 . S
H1347 N1340 0.984 . S
H1348 N1336 0.984 . S
H1349 N1336 0.985 . S
C1350 C1351 1.363 . S
C1350 C1356 1.379 . S
C1350 N1358 1.356 . S
C1351 C1350 1.363 . S
C1351 C1357 1.363 . S
C1352 C1353 1.363 . S
C1352 C1357 1.379 . S
C1352 N1359 1.356 . S
C1353 C1352 1.363 . S
C1353 C1356 1.363 . S
N1354 C1356 1.356 . S
N1354 H1366 0.984 1_565 S
N1354 H1367 0.985 . S
N1355 C1357 1.356 . S
N1355 H1360 0.984 . S
N1355 H1361 0.985 . S
C1356 C1350 1.379 . S
C1356 C1353 1.363 . S
C1356 N1354 1.356 . S
C1357 C1351 1.363 . S
C1357 C1352 1.379 . S
C1357 N1355 1.356 . S
N1358 C1350 1.356 . S
N1358 H1364 0.984 . S
N1358 H1365 0.984 . S
N1359 C1352 1.356 . S
N1359 H1362 0.984 . S
N1359 H1363 0.985 . S
H1360 N1355 0.984 . S
H1361 N1355 0.985 . S
H1362 N1359 0.984 . S
H1363 N1359 0.985 . S
H1364 N1358 0.984 . S
H1365 N1358 0.984 . S
H1366 N1354 0.984 1_545 S
H1367 N1354 0.985 . S
C1368 C1369 1.363 . S
C1368 C1374 1.379 . S
C1368 N1376 1.356 . S
C1369 C1368 1.363 . S
C1369 C1375 1.363 . S
C1370 C1371 1.363 . S
C1370 C1375 1.379 . S
C1370 N1377 1.356 . S
C1371 C1370 1.363 . S
C1371 C1374 1.363 . S
N1372 C1374 1.356 . S
N1372 H1384 0.984 1_455 S
N1372 H1385 0.985 . S
N1373 C1375 1.356 . S
N1373 H1378 0.984 . S
N1373 H1379 0.985 . S
C1374 C1368 1.379 . S
C1374 C1371 1.363 . S
C1374 N1372 1.356 . S
C1375 C1369 1.363 . S
C1375 C1370 1.379 . S
C1375 N1373 1.356 . S
N1376 C1368 1.356 . S
N1376 H1382 0.984 1_455 S
N1376 H1383 0.984 . S
N1377 C1370 1.356 . S
N1377 H1380 0.984 . S
N1377 H1381 0.985 . S
H1378 N1373 0.984 . S
H1379 N1373 0.985 . S
H1380 N1377 0.984 . S
H1381 N1377 0.985 . S
H1382 N1376 0.984 1_655 S
H1383 N1376 0.984 . S
H1384 N1372 0.984 1_655 S
H1385 N1372 0.985 . S
C1386 C1387 1.363 . S
C1386 C1392 1.379 . S
C1386 N1394 1.356 . S
C1387 C1386 1.363 . S
C1387 C1393 1.363 . S
C1388 C1389 1.363 . S
C1388 C1393 1.379 . S
C1388 N1395 1.356 . S
C1389 C1388 1.363 . S
C1389 C1392 1.363 . S
N1390 C1392 1.356 . S
N1390 H1402 0.984 . S
N1390 H1403 0.985 . S
N1391 C1393 1.356 . S
N1391 H1396 0.984 . S
N1391 H1397 0.985 . S
C1392 C1386 1.379 . S
C1392 C1389 1.363 . S
C1392 N1390 1.356 . S
C1393 C1387 1.363 . S
C1393 C1388 1.379 . S
C1393 N1391 1.356 . S
N1394 C1386 1.356 . S
N1394 H1400 0.984 . S
N1394 H1401 0.984 . S
N1395 C1388 1.356 . S
N1395 H1398 0.984 . S
N1395 H1399 0.985 . S
H1396 N1391 0.984 . S
H1397 N1391 0.985 . S
H1398 N1395 0.984 . S
H1399 N1395 0.985 . S
H1400 N1394 0.984 . S
H1401 N1394 0.984 . S
H1402 N1390 0.984 . S
H1403 N1390 0.985 . S
C1404 C1405 1.363 . S
C1404 C1410 1.379 . S
C1404 N1412 1.356 . S
C1405 C1404 1.363 . S
C1405 C1411 1.363 . S
C1406 C1407 1.363 . S
C1406 C1411 1.379 . S
C1406 N1413 1.356 . S
C1407 C1406 1.363 . S
C1407 C1410 1.363 . S
N1408 C1410 1.356 . S
N1408 H1420 0.984 . S
N1408 H1421 0.985 . S
N1409 C1411 1.356 . S
N1409 H1414 0.984 . S
N1409 H1415 0.985 . S
C1410 C1404 1.379 . S
C1410 C1407 1.363 . S
C1410 N1408 1.356 . S
C1411 C1405 1.363 . S
C1411 C1406 1.379 . S
C1411 N1409 1.356 . S
N1412 C1404 1.356 . S
N1412 H1418 0.984 . S
N1412 H1419 0.984 . S
N1413 C1406 1.356 . S
N1413 H1416 0.984 . S
N1413 H1417 0.985 . S
H1414 N1409 0.984 . S
H1415 N1409 0.985 . S
H1416 N1413 0.984 . S
H1417 N1413 0.985 . S
H1418 N1412 0.984 . S
H1419 N1412 0.984 . S
H1420 N1408 0.984 . S
H1421 N1408 0.985 . S
C1422 C1423 1.363 . S
C1422 C1428 1.379 . S
C1422 N1430 1.356 . S
C1423 C1422 1.363 . S
C1423 C1429 1.363 . S
C1424 C1425 1.363 . S
C1424 C1429 1.379 . S
C1424 N1431 1.356 . S
C1425 C1424 1.363 . S
C1425 C1428 1.363 . S
N1426 C1428 1.356 . S
N1426 H1438 0.984 . S
N1426 H1439 0.985 . S
N1427 C1429 1.356 . S
N1427 H1432 0.984 . S
N1427 H1433 0.985 . S
C1428 C1422 1.379 . S
C1428 C1425 1.363 . S
C1428 N1426 1.356 . S
C1429 C1423 1.363 . S
C1429 C1424 1.379 . S
C1429 N1427 1.356 . S
N1430 C1422 1.356 . S
N1430 H1436 0.984 . S
N1430 H1437 0.984 . S
N1431 C1424 1.356 . S
N1431 H1434 0.984 . S
N1431 H1435 0.985 . S
H1432 N1427 0.984 . S
H1433 N1427 0.985 . S
H1434 N1431 0.984 . S
H1435 N1431 0.985 . S
H1436 N1430 0.984 . S
H1437 N1430 0.984 . S
H1438 N1426 0.984 . S
H1439 N1426 0.985 . S
C1440 C1441 1.363 . S
C1440 C1446 1.379 . S
C1440 N1448 1.356 . S
C1441 C1440 1.363 . S
C1441 C1447 1.363 . S
C1442 C1443 1.363 . S
C1442 C1447 1.379 . S
C1442 N1449 1.356 . S
C1443 C1442 1.363 . S
C1443 C1446 1.363 . S
N1444 C1446 1.356 . S
N1444 H1456 0.974 1_545 S
N1444 H1457 0.985 . S
N1445 C1447 1.356 . S
N1445 H1450 0.984 . S
N1445 H1451 0.985 . S
C1446 C1440 1.379 . S
C1446 C1443 1.363 . S
C1446 N1444 1.356 . S
C1447 C1441 1.363 . S
C1447 C1442 1.379 . S
C1447 N1445 1.356 . S
N1448 C1440 1.356 . S
N1448 H1454 0.984 . S
N1448 H1455 0.984 . S
N1449 C1442 1.356 . S
N1449 H1452 0.984 . S
N1449 H1453 0.985 . S
H1450 N1445 0.984 . S
H1451 N1445 0.985 . S
H1452 N1449 0.984 . S
H1453 N1449 0.985 . S
H1454 N1448 0.984 . S
H1455 N1448 0.984 . S
H1456 N1444 0.974 1_565 S
H1457 N1444 0.985 . S
C1458 C1459 1.363 . S
C1458 C1464 1.379 . S
C1458 N1466 1.356 . S
C1459 C1458 1.363 . S
C1459 C1465 1.363 . S
C1460 C1461 1.363 . S
C1460 C1465 1.379 . S
C1460 N1467 1.356 . S
C1461 C1460 1.363 . S
C1461 C1464 1.363 . S
N1462 C1464 1.356 . S
N1462 H1474 0.984 . S
N1462 H1475 0.985 . S
N1463 C1465 1.356 . S
N1463 H1468 0.984 . S
N1463 H1469 0.985 . S
C1464 C1458 1.379 . S
C1464 C1461 1.363 . S
C1464 N1462 1.356 . S
C1465 C1459 1.363 . S
C1465 C1460 1.379 . S
C1465 N1463 1.356 . S
N1466 C1458 1.356 . S
N1466 H1472 0.984 . S
N1466 H1473 0.984 . S
N1467 C1460 1.356 . S
N1467 H1470 0.984 . S
N1467 H1471 0.985 . S
H1468 N1463 0.984 . S
H1469 N1463 0.985 . S
H1470 N1467 0.984 . S
H1471 N1467 0.985 . S
H1472 N1466 0.984 . S
H1473 N1466 0.984 . S
H1474 N1462 0.984 . S
H1475 N1462 0.985 . S
C1476 C1477 1.363 . S
C1476 C1482 1.379 . S
C1476 N1484 1.356 . S
C1477 C1476 1.363 . S
C1477 C1483 1.363 . S
C1478 C1479 1.363 . S
C1478 C1483 1.379 . S
C1478 N1485 1.356 . S
C1479 C1478 1.363 . S
C1479 C1482 1.363 . S
N1480 C1482 1.356 . S
N1480 H1492 0.984 . S
N1480 H1493 0.985 . S
N1481 C1483 1.356 . S
N1481 H1486 0.984 . S
N1481 H1487 0.985 . S
C1482 C1476 1.379 . S
C1482 C1479 1.363 . S
C1482 N1480 1.356 . S
C1483 C1477 1.363 . S
C1483 C1478 1.379 . S
C1483 N1481 1.356 . S
N1484 C1476 1.356 . S
N1484 H1490 0.984 . S
N1484 H1491 0.984 . S
N1485 C1478 1.356 . S
N1485 H1488 0.984 . S
N1485 H1489 0.985 . S
H1486 N1481 0.984 . S
H1487 N1481 0.985 . S
H1488 N1485 0.984 . S
H1489 N1485 0.985 . S
H1490 N1484 0.984 . S
H1491 N1484 0.984 . S
H1492 N1480 0.984 . S
H1493 N1480 0.985 . S
C1494 C1495 1.363 . S
C1494 C1500 1.379 . S
C1494 N1502 1.356 . S
C1495 C1494 1.363 . S
C1495 C1501 1.363 . S
C1496 C1497 1.363 . S
C1496 C1501 1.379 . S
C1496 N1503 1.356 . S
C1497 C1496 1.363 . S
C1497 C1500 1.363 . S
N1498 C1500 1.356 . S
N1498 H1510 0.984 . S
N1498 H1511 0.985 . S
N1499 C1501 1.356 . S
N1499 H1504 0.984 . S
N1499 H1505 0.985 . S
C1500 C1494 1.379 . S
C1500 C1497 1.363 . S
C1500 N1498 1.356 . S
C1501 C1495 1.363 . S
C1501 C1496 1.379 . S
C1501 N1499 1.356 . S
N1502 C1494 1.356 . S
N1502 H1508 0.984 . S
N1502 H1509 0.984 . S
N1503 C1496 1.356 . S
N1503 H1506 0.984 . S
N1503 H1507 0.985 . S
H1504 N1499 0.984 . S
H1505 N1499 0.985 . S
H1506 N1503 0.984 . S
H1507 N1503 0.985 . S
H1508 N1502 0.984 . S
H1509 N1502 0.984 . S
H1510 N1498 0.984 . S
H1511 N1498 0.985 . S
C1512 C1513 1.363 . S
C1512 C1518 1.379 . S
C1512 N1520 1.356 . S
C1513 C1512 1.363 . S
C1513 C1519 1.363 . S
C1514 C1515 1.363 . S
C1514 C1519 1.379 . S
C1514 N1521 1.356 . S
C1515 C1514 1.363 . S
C1515 C1518 1.363 . S
N1516 C1518 1.356 . S
N1516 H1528 0.984 . S
N1516 H1529 0.985 . S
N1517 C1519 1.356 . S
N1517 H1522 0.984 . S
N1517 H1523 0.985 . S
C1518 C1512 1.379 . S
C1518 C1515 1.363 . S
C1518 N1516 1.356 . S
C1519 C1513 1.363 . S
C1519 C1514 1.379 . S
C1519 N1517 1.356 . S
N1520 C1512 1.356 . S
N1520 H1526 0.984 . S
N1520 H1527 0.984 . S
N1521 C1514 1.356 . S
N1521 H1524 0.984 . S
N1521 H1525 0.985 . S
H1522 N1517 0.984 . S
H1523 N1517 0.985 . S
H1524 N1521 0.984 . S
H1525 N1521 0.985 . S
H1526 N1520 0.984 . S
H1527 N1520 0.984 . S
H1528 N1516 0.984 . S
H1529 N1516 0.985 . S
C1530 C1531 1.363 . S
C1530 C1536 1.379 . S
C1530 N1538 1.356 . S
C1531 C1530 1.363 . S
C1531 C1537 1.363 . S
C1532 C1533 1.363 . S
C1532 C1537 1.379 . S
C1532 N1539 1.356 . S
C1533 C1532 1.363 . S
C1533 C1536 1.363 . S
N1534 C1536 1.356 . S
N1534 H1546 0.984 . S
N1534 H1547 0.985 . S
N1535 C1537 1.356 . S
N1535 H1540 0.984 . S
N1535 H1541 0.985 . S
C1536 C1530 1.379 . S
C1536 C1533 1.363 . S
C1536 N1534 1.356 . S
C1537 C1531 1.363 . S
C1537 C1532 1.379 . S
C1537 N1535 1.356 . S
N1538 C1530 1.356 . S
N1538 H1544 0.984 . S
N1538 H1545 0.984 . S
N1539 C1532 1.356 . S
N1539 H1542 0.984 . S
N1539 H1543 0.985 . S
H1540 N1535 0.984 . S
H1541 N1535 0.985 . S
H1542 N1539 0.984 . S
H1543 N1539 0.985 . S
H1544 N1538 0.984 . S
H1545 N1538 0.984 . S
H1546 N1534 0.984 . S
H1547 N1534 0.985 . S
C1548 C1549 1.363 . S
C1548 C1554 1.379 . S
C1548 N1556 1.356 . S
C1549 C1548 1.363 . S
C1549 C1555 1.363 . S
C1550 C1551 1.363 . S
C1550 C1555 1.379 . S
C1550 N1557 1.356 . S
C1551 C1550 1.363 . S
C1551 C1554 1.363 . S
N1552 C1554 1.356 . S
N1552 H1564 0.984 . S
N1552 H1565 0.985 . S
N1553 C1555 1.356 . S
N1553 H1558 0.984 . S
N1553 H1559 0.985 . S
C1554 C1548 1.379 . S
C1554 C1551 1.363 . S
C1554 N1552 1.356 . S
C1555 C1549 1.363 . S
C1555 C1550 1.379 . S
C1555 N1553 1.356 . S
N1556 C1548 1.356 . S
N1556 H1562 0.984 . S
N1556 H1563 0.984 . S
N1557 C1550 1.356 . S
N1557 H1560 0.984 . S
N1557 H1561 0.985 . S
H1558 N1553 0.984 . S
H1559 N1553 0.985 . S
H1560 N1557 0.984 . S
H1561 N1557 0.985 . S
H1562 N1556 0.984 . S
H1563 N1556 0.984 . S
H1564 N1552 0.984 . S
H1565 N1552 0.985 . S
C1566 C1567 1.363 . S
C1566 C1572 1.379 . S
C1566 N1574 1.356 . S
C1567 C1566 1.363 . S
C1567 C1573 1.363 . S
C1568 C1569 1.363 . S
C1568 C1573 1.379 . S
C1568 N1575 1.356 . S
C1569 C1568 1.363 . S
C1569 C1572 1.363 . S
N1570 C1572 1.356 . S
N1570 H1582 0.984 . S
N1570 H1583 0.985 . S
N1571 C1573 1.356 . S
N1571 H1576 0.984 . S
N1571 H1577 0.985 . S
C1572 C1566 1.379 . S
C1572 C1569 1.363 . S
C1572 N1570 1.356 . S
C1573 C1567 1.363 . S
C1573 C1568 1.379 . S
C1573 N1571 1.356 . S
N1574 C1566 1.356 . S
N1574 H1580 0.984 . S
N1574 H1581 0.984 . S
N1575 C1568 1.356 . S
N1575 H1578 0.984 . S
N1575 H1579 0.985 . S
H1576 N1571 0.984 . S
H1577 N1571 0.985 . S
H1578 N1575 0.984 . S
H1579 N1575 0.985 . S
H1580 N1574 0.984 . S
H1581 N1574 0.984 . S
H1582 N1570 0.984 . S
H1583 N1570 0.985 . S
C1584 C1585 1.363 . S
C1584 C1590 1.379 . S
C1584 N1592 1.356 . S
C1585 C1584 1.363 . S
C1585 C1591 1.363 . S
C1586 C1587 1.363 . S
C1586 C1591 1.379 . S
C1586 N1593 1.356 . S
C1587 C1586 1.363 . S
C1587 C1590 1.363 . S
N1588 C1590 1.356 . S
N1588 H1600 0.984 . S
N1588 H1601 0.985 . S
N1589 C1591 1.356 . S
N1589 H1594 0.984 . S
N1589 H1595 0.985 . S
C1590 C1584 1.379 . S
C1590 C1587 1.363 . S
C1590 N1588 1.356 . S
C1591 C1585 1.363 . S
C1591 C1586 1.379 . S
C1591 N1589 1.356 . S
N1592 C1584 1.356 . S
N1592 H1598 0.984 . S
N1592 H1599 0.984 . S
N1593 C1586 1.356 . S
N1593 H1596 0.984 . S
N1593 H1597 0.985 . S
H1594 N1589 0.984 . S
H1595 N1589 0.985 . S
H1596 N1593 0.984 . S
H1597 N1593 0.985 . S
H1598 N1592 0.984 . S
H1599 N1592 0.984 . S
H1600 N1588 0.984 . S
H1601 N1588 0.985 . S
C1602 C1603 1.363 . S
C1602 C1608 1.379 . S
C1602 N1610 1.356 . S
C1603 C1602 1.363 . S
C1603 C1609 1.363 . S
C1604 C1605 1.363 . S
C1604 C1609 1.379 . S
C1604 N1611 1.356 . S
C1605 C1604 1.363 . S
C1605 C1608 1.363 . S
N1606 C1608 1.356 . S
N1606 H1618 0.984 . S
N1606 H1619 0.985 . S
N1607 C1609 1.356 . S
N1607 H1612 0.984 . S
N1607 H1613 0.985 . S
C1608 C1602 1.379 . S
C1608 C1605 1.363 . S
C1608 N1606 1.356 . S
C1609 C1603 1.363 . S
C1609 C1604 1.379 . S
C1609 N1607 1.356 . S
N1610 C1602 1.356 . S
N1610 H1616 0.984 . S
N1610 H1617 0.984 . S
N1611 C1604 1.356 . S
N1611 H1614 0.984 . S
N1611 H1615 0.985 . S
H1612 N1607 0.984 . S
H1613 N1607 0.985 . S
H1614 N1611 0.984 . S
H1615 N1611 0.985 . S
H1616 N1610 0.984 . S
H1617 N1610 0.984 . S
H1618 N1606 0.984 . S
H1619 N1606 0.985 . S
C1620 C1621 1.363 . S
C1620 C1626 1.379 . S
C1620 N1628 1.356 . S
C1621 C1620 1.363 . S
C1621 C1627 1.363 . S
C1622 C1623 1.363 . S
C1622 C1627 1.379 . S
C1622 N1629 1.356 . S
C1623 C1622 1.363 . S
C1623 C1626 1.363 . S
N1624 C1626 1.356 . S
N1624 H1636 0.984 . S
N1624 H1637 0.985 . S
N1625 C1627 1.356 . S
N1625 H1630 0.984 . S
N1625 H1631 0.985 . S
C1626 C1620 1.379 . S
C1626 C1623 1.363 . S
C1626 N1624 1.356 . S
C1627 C1621 1.363 . S
C1627 C1622 1.379 . S
C1627 N1625 1.356 . S
N1628 C1620 1.356 . S
N1628 H1634 0.984 . S
N1628 H1635 0.984 . S
N1629 C1622 1.356 . S
N1629 H1632 0.984 . S
N1629 H1633 0.985 . S
H1630 N1625 0.984 . S
H1631 N1625 0.985 . S
H1632 N1629 0.984 . S
H1633 N1629 0.985 . S
H1634 N1628 0.984 . S
H1635 N1628 0.984 . S
H1636 N1624 0.984 . S
H1637 N1624 0.985 . S
C1638 C1639 1.363 . S
C1638 C1644 1.379 . S
C1638 N1646 1.356 . S
C1639 C1638 1.363 . S
C1639 C1645 1.363 . S
C1640 C1641 1.363 . S
C1640 C1645 1.379 . S
C1640 N1647 1.356 . S
C1641 C1640 1.363 . S
C1641 C1644 1.363 . S
N1642 C1644 1.356 . S
N1642 H1654 0.984 . S
N1642 H1655 0.985 . S
N1643 C1645 1.356 . S
N1643 H1648 0.984 . S
N1643 H1649 0.985 . S
C1644 C1638 1.379 . S
C1644 C1641 1.363 . S
C1644 N1642 1.356 . S
C1645 C1639 1.363 . S
C1645 C1640 1.379 . S
C1645 N1643 1.356 . S
N1646 C1638 1.356 . S
N1646 H1652 0.984 . S
N1646 H1653 0.984 . S
N1647 C1640 1.356 . S
N1647 H1650 0.984 . S
N1647 H1651 0.985 . S
H1648 N1643 0.984 . S
H1649 N1643 0.985 . S
H1650 N1647 0.984 . S
H1651 N1647 0.985 . S
H1652 N1646 0.984 . S
H1653 N1646 0.984 . S
H1654 N1642 0.984 . S
H1655 N1642 0.985 . S
C1656 C1657 1.363 . S
C1656 C1662 1.379 . S
C1656 N1664 1.356 . S
C1657 C1656 1.363 . S
C1657 C1663 1.363 . S
C1658 C1659 1.363 . S
C1658 C1663 1.379 . S
C1658 N1665 1.356 . S
C1659 C1658 1.363 . S
C1659 C1662 1.363 . S
N1660 C1662 1.356 . S
N1660 H1672 0.984 . S
N1660 H1673 0.985 . S
N1661 C1663 1.356 . S
N1661 H1666 0.984 . S
N1661 H1667 0.985 . S
C1662 C1656 1.379 . S
C1662 C1659 1.363 . S
C1662 N1660 1.356 . S
C1663 C1657 1.363 . S
C1663 C1658 1.379 . S
C1663 N1661 1.356 . S
N1664 C1656 1.356 . S
N1664 H1670 0.984 . S
N1664 H1671 0.984 . S
N1665 C1658 1.356 . S
N1665 H1668 0.984 . S
N1665 H1669 0.985 . S
H1666 N1661 0.984 . S
H1667 N1661 0.985 . S
H1668 N1665 0.984 . S
H1669 N1665 0.985 . S
H1670 N1664 0.984 . S
H1671 N1664 0.984 . S
H1672 N1660 0.984 . S
H1673 N1660 0.985 . S
C703 C253 1.696 . S
C705 C351 1.705 . S
C721 C272 1.787 . S
C723 C391 1.787 . S
C739 C234 1.602 . S
C741 C430 1.560 . S
C757 C215 1.500 . S
C759 C390 1.443 . S
C777 C431 1.582 . S
C775 C177 1.583 . S
C793 C196 1.437 . S
C795 C350 1.411 1_556 S
C813 C361 1.640 . S
C811 C220 1.508 . S
C831 C401 1.593 . S
C829 C182 1.527 . S
C847 C201 1.609 . S
C849 C440 1.714 . S
C865 C258 1.453 . S
C867 C400 1.554 . S
C883 C277 1.332 . S
C885 C441 1.450 . S
C903 C360 1.581 1_554 S
C901 C239 1.420 . S
C921 C471 1.705 . S
C919 C25 1.696 . S
C937 C44 1.786 . S
C939 C511 1.786 . S
C955 C6 1.602 . S
C957 C550 1.561 . S
C973 C329 1.501 . S
C975 C510 1.443 . S
C991 C291 1.583 . S
C993 C551 1.582 . S
C1009 C310 1.437 . S
C1011 C470 1.411 . S
C1027 C334 1.508 . S
C1029 C481 1.640 . S
C1045 C296 1.527 . S
C1047 C521 1.593 . S
C1065 C560 1.715 . S
C1063 C315 1.609 . S
C1081 C30 1.453 1_565 S
C1083 C520 1.553 . S
C1101 C561 1.450 . S
C1099 C49 1.331 . S
C1117 C11 1.420 . S
C1119 C480 1.582 . S
C1137 C591 1.705 . S
C1135 C139 1.696 . S
C1153 C158 1.786 . S
C1155 C631 1.786 . S
C1173 C670 1.560 . S
C1171 C120 1.602 . S
C1191 C630 1.443 . S
C1189 C101 1.501 . S
C1209 C671 1.582 . S
C1207 C63 1.583 . S
C1225 C82 1.437 . S
C1227 C590 1.411 . S
C1243 C106 1.508 1_655 S
C1245 C601 1.640 . S
C1261 C68 1.527 . S
C1263 C641 1.593 . S
C1281 C680 1.714 . S
C1279 C87 1.609 1_545 S
C1297 C144 1.453 . S
C1299 C640 1.554 . S
C1315 C163 1.331 . S
C1317 C681 1.450 . S
C1333 C125 1.420 . S
C1335 C600 1.581 . S
C1351 C287 1.684 . S
C1353 C347 1.678 . S
C1371 C387 2.029 . S
C1369 C306 2.026 . S
C1387 C325 1.625 . S
C1389 C437 1.659 . S
C1405 C116 1.790 . S
C1407 C397 1.817 . S
C1423 C135 1.787 . S
C1425 C427 1.798 . S
C1443 C357 1.410 . S
C1441 C154 1.385 . S
C1459 C59 1.683 . S
C1461 C467 1.678 . S
C1477 C78 2.026 . S
C1479 C507 2.030 . S
C1495 C97 1.625 . S
C1497 C557 1.659 . S
C1513 C230 1.790 . S
C1515 C517 1.817 . S
C1533 C547 1.798 . S
C1531 C249 1.787 . S
C1549 C268 1.385 . S
C1551 C477 1.410 . S
C1567 C173 1.684 . S
C1569 C587 1.678 . S
C1585 C192 2.026 . S
C1587 C627 2.029 . S
C1605 C677 1.659 . S
C1603 C211 1.625 . S
C1621 C2 1.790 . S
C1623 C637 1.817 . S
C1639 C21 1.787 . S
C1641 C667 1.798 . S
C1657 C40 1.385 . S
C1659 C597 1.410 . S
