# Generated by pormake.
# Topology zzz, (3,6)-cn, num edge types: 1
# Building blocks:
#     Node 0, Type 0, BuildingBlock: PAMTOO_clean_linker_0, # of connection points: 3
#     Node 1, Type 0, BuildingBlock: PAMTOO_clean_linker_0, # of connection points: 3
#     Node 2, Type 0, BuildingBlock: PAMTOO_clean_linker_0, # of connection points: 3
#     Node 3, Type 0, BuildingBlock: PAMTOO_clean_linker_0, # of connection points: 3
#     Node 4, Type 0, BuildingBlock: PAMTOO_clean_linker_0, # of connection points: 3
#     Node 5, Type 0, BuildingBlock: PAMTOO_clean_linker_0, # of connection points: 3
#     Node 6, Type 0, BuildingBlock: PAMTOO_clean_linker_0, # of connection points: 3
#     Node 7, Type 0, BuildingBlock: PAMTOO_clean_linker_0, # of connection points: 3
#     Node 8, Type 1, BuildingBlock: FUNLAD_clean_sbu_0, # of connection points: 6
#     Node 9, Type 1, BuildingBlock: FUNLAD_clean_sbu_0, # of connection points: 6
#     Node 10, Type 1, BuildingBlock: FUNLAD_clean_sbu_0, # of connection points: 6
#     Node 11, Type 1, BuildingBlock: FUNLAD_clean_sbu_0, # of connection points: 6
#     Edge 12, Type (0, 1), BuildingBlock: AJUNOK_clean_linker_0, # of connection points: 2
#     Edge 13, Type (0, 1), BuildingBlock: AJUNOK_clean_linker_0, # of connection points: 2
#     Edge 14, Type (0, 1), BuildingBlock: AJUNOK_clean_linker_0, # of connection points: 2
#     Edge 15, Type (0, 1), BuildingBlock: AJUNOK_clean_linker_0, # of connection points: 2
#     Edge 16, Type (0, 1), BuildingBlock: AJUNOK_clean_linker_0, # of connection points: 2
#     Edge 17, Type (0, 1), BuildingBlock: AJUNOK_clean_linker_0, # of connection points: 2
#     Edge 18, Type (0, 1), BuildingBlock: AJUNOK_clean_linker_0, # of connection points: 2
#     Edge 19, Type (0, 1), BuildingBlock: AJUNOK_clean_linker_0, # of connection points: 2
#     Edge 20, Type (0, 1), BuildingBlock: AJUNOK_clean_linker_0, # of connection points: 2
#     Edge 21, Type (0, 1), BuildingBlock: AJUNOK_clean_linker_0, # of connection points: 2
#     Edge 22, Type (0, 1), BuildingBlock: AJUNOK_clean_linker_0, # of connection points: 2
#     Edge 23, Type (0, 1), BuildingBlock: AJUNOK_clean_linker_0, # of connection points: 2
#     Edge 24, Type (0, 1), BuildingBlock: AJUNOK_clean_linker_0, # of connection points: 2
#     Edge 25, Type (0, 1), BuildingBlock: AJUNOK_clean_linker_0, # of connection points: 2
#     Edge 26, Type (0, 1), BuildingBlock: AJUNOK_clean_linker_0, # of connection points: 2
#     Edge 27, Type (0, 1), BuildingBlock: AJUNOK_clean_linker_0, # of connection points: 2
#     Edge 28, Type (0, 1), BuildingBlock: AJUNOK_clean_linker_0, # of connection points: 2
#     Edge 29, Type (0, 1), BuildingBlock: AJUNOK_clean_linker_0, # of connection points: 2
#     Edge 30, Type (0, 1), BuildingBlock: AJUNOK_clean_linker_0, # of connection points: 2
#     Edge 31, Type (0, 1), BuildingBlock: AJUNOK_clean_linker_0, # of connection points: 2
#     Edge 32, Type (0, 1), BuildingBlock: AJUNOK_clean_linker_0, # of connection points: 2
#     Edge 33, Type (0, 1), BuildingBlock: AJUNOK_clean_linker_0, # of connection points: 2
#     Edge 34, Type (0, 1), BuildingBlock: AJUNOK_clean_linker_0, # of connection points: 2
#     Edge 35, Type (0, 1), BuildingBlock: AJUNOK_clean_linker_0, # of connection points: 2
# Relax obj value: 0.110
# Max RMSD: 0.175
# Mean RMSD: 0.092
data_MOF--net-zzz--node1-FUNLAD_clean_sbu_0--node2-PAMTOO_clean_linker_0--edge1-AJUNOK_clean_linker_0
_symmetry_space_group_name_H-M    P1
_symmetry_Int_Tables_number       1
_symmetry_cell_setting            triclinic
loop_
_symmetry_equiv_pos_as_xyz
'x, y, z'
_cell_length_a     37.977134
_cell_length_b     43.82587
_cell_length_c     13.002925
_cell_angle_alpha  83.41233
_cell_angle_beta   82.718469
_cell_angle_gamma 89.492179
loop_
_atom_site_label
_atom_site_type_symbol
_atom_site_fract_x
_atom_site_fract_y
_atom_site_fract_z
_atom_type_partial_charge
H0 H 0.92013 0.47648 0.39298 0.0
H1 H 0.84934 0.48792 0.1594 0.0
H2 H 0.8164 0.5146 0.46512 0.0
H3 H 0.75565 0.48062 0.36318 0.0
C4 C 0.77022 0.48438 0.28297 0.0
O5 O 0.79581 0.50675 0.28125 0.0
H6 H 0.78269 0.46219 0.2649 0.0
C7 C 0.89412 0.48253 0.37072 0.0
C8 C 0.86939 0.49583 0.4408 0.0
C9 C 0.88788 0.48069 0.26832 0.0
C10 C 0.85452 0.48885 0.23897 0.0
C11 C 0.82808 0.49969 0.3111 0.0
C12 C 0.83585 0.5042 0.41168 0.0
H13 H 0.98613 0.86895 0.18939 0.0
H14 H 0.01717 0.79806 0.99537 0.0
H15 H 0.97431 0.77424 0.31703 0.0
H16 H 0.02172 0.72616 0.2335 0.0
C17 C 0.02229 0.73449 0.14922 0.0
O18 O 0.99302 0.75269 0.13573 0.0
H19 H 0.04731 0.74795 0.125 0.0
C20 C 0.98701 0.84472 0.17824 0.0
C21 C 0.97814 0.82288 0.26428 0.0
C22 C 1.00406 0.8361 0.08499 0.0
C23 C 1.0051 0.80502 0.06904 0.0
C24 C 0.99216 0.78268 0.15126 0.0
C25 C 0.98023 0.79153 0.2507 0.0
H26 H 0.66523 0.01769 0.21864 0.0
H27 H 0.7581 0.0124 0.99617 0.0
H28 H 0.76568 0.99455 0.32651 0.0
H29 H 0.83197 0.02992 0.19086 0.0
C30 C 0.82726 0.02245 0.11485 0.0
O31 O 0.80229 0.99881 0.13411 0.0
H32 H 0.81661 0.04262 0.06866 0.0
C33 C 0.69368 0.01428 0.20226 0.0
C34 C 0.7131 1.00579 0.28476 0.0
C35 C 0.70949 0.01686 0.09903 0.0
C36 C 0.74594 0.01121 0.07654 0.0
C37 C 0.7668 1.00394 0.15807 0.0
C38 C 0.75014 1.00092 0.26318 0.0
H39 H 0.53579 0.60973 0.22184 0.0
H40 H 0.52233 0.69359 0.02442 0.0
H41 H 0.56333 0.69622 0.31758 0.0
H42 H 0.51168 0.75107 0.24643 0.0
C43 C 0.51806 0.7494 0.16138 0.0
O44 O 0.54647 0.72965 0.14681 0.0
H45 H 0.49428 0.74008 0.13334 0.0
C46 C 0.53744 0.63461 0.20737 0.0
C47 C 0.55114 0.65094 0.27965 0.0
C48 C 0.52652 0.64963 0.11609 0.0
C49 C 0.52993 0.6817 0.09596 0.0
C50 C 0.54293 0.69868 0.1686 0.0
C51 C 0.55323 0.68325 0.26146 0.0
H52 H 0.16284 0.52819 0.16545 0.0
H53 H 0.25009 0.5374 0.33992 0.0
H54 H 0.26612 0.49559 0.05418 0.0
H55 H 0.31036 0.46307 0.22889 0.0
C56 C 0.30161 0.48074 0.2814 0.0
O57 O 0.29525 0.50787 0.22073 0.0
H58 H 0.2769 0.47169 0.33058 0.0
C59 C 0.19091 0.52602 0.17316 0.0
C60 C 0.21328 0.51278 0.09676 0.0
C61 C 0.20355 0.53407 0.26276 0.0
C62 C 0.2398 0.53069 0.27204 0.0
C63 C 0.26215 0.51586 0.19947 0.0
C64 C 0.249 0.50715 0.11043 0.0
H65 H 0.06241 0.14391 0.32994 0.0
H66 H 0.03914 0.22073 0.50394 0.0
H67 H 0.10979 0.2318 0.21458 0.0
H68 H 0.12994 0.27334 0.37332 0.0
C69 C 0.10481 0.26947 0.42715 0.0
O70 O 0.07898 0.25983 0.3719 0.0
H71 H 0.10952 0.25151 0.49178 0.0
C72 C 0.06545 0.16813 0.33783 0.0
C73 C 0.08844 0.18611 0.26337 0.0
C74 C 0.04753 0.18013 0.4243 0.0
C75 C 0.05214 0.21122 0.43576 0.0
C76 C 0.07449 0.22994 0.35986 0.0
C77 C 0.09252 0.21742 0.27285 0.0
H78 H 0.40736 1.00094 0.30449 0.0
H79 H 0.31235 0.99579 0.5232 0.0
H80 H 0.30587 0.0141 0.19218 0.0
H81 H 0.24535 0.04607 0.33559 0.0
C82 C 0.24893 0.03108 0.40844 0.0
O83 O 0.2682 1.00533 0.38262 0.0
H84 H 0.26421 0.0448 0.45487 0.0
C85 C 0.37858 1.00204 0.31968 0.0
C86 C 0.35903 0.00834 0.23628 0.0
C87 C 0.3622 0.99735 0.42218 0.0
C88 C 0.32511 0.99916 0.44332 0.0
C89 C 0.30436 1.00524 0.36082 0.0
C90 C 0.32151 0.0098 0.25635 0.0
H91 H 0.54478 0.40244 0.30168 0.0
H92 H 0.5586 0.31794 0.49495 0.0
H93 H 0.51596 0.31663 0.20342 0.0
H94 H 0.48311 0.26817 0.37813 0.0
C95 C 0.50494 0.26769 0.42777 0.0
O96 O 0.53437 0.28241 0.37019 0.0
H97 H 0.49547 0.28004 0.4962 0.0
C98 C 0.54284 0.37756 0.3151 0.0
C99 C 0.52879 0.36163 0.24243 0.0
C100 C 0.55407 0.36211 0.40523 0.0
C101 C 0.55073 0.33004 0.42411 0.0
C102 C 0.53694 0.31349 0.35163 0.0
C103 C 0.52626 0.32933 0.25992 0.0
C104 C 0.04756 0.95227 0.8641 0.0
N105 N 1.01254 0.97347 0.58373 0.0
C106 C 0.03838 0.9519 0.57392 0.0
C107 C 0.03196 0.92415 0.53917 0.0
C108 C 1.00029 0.919 0.49903 0.0
C109 C 0.97491 0.94296 0.50034 0.0
C110 C 0.98111 0.9697 0.54659 0.0
Zn111 Zn 0.02466 1.00183 0.69176 0.0
C112 C 0.96684 0.00622 0.86849 0.0
N113 N 0.06494 0.04172 0.93452 0.0
C114 C 0.09984 0.0431 0.94875 0.0
C115 C 0.04164 0.06333 0.96784 0.0
C116 C 0.05331 0.08827 0.01176 0.0
C117 C 0.08951 0.09159 0.02018 0.0
C118 C 0.11281 0.06812 0.99109 0.0
Zn119 Zn 0.04823 0.01563 0.82805 0.0
O120 O 0.03499 0.9607 0.78036 0.0
C121 C 0.10617 0.01225 0.65029 0.0
O122 O 0.05888 0.97271 0.914 0.0
H123 H 1.01429 0.06267 0.95344 0.0
H124 H 0.06291 0.95408 0.60604 0.0
H125 H 0.11816 0.02595 0.92111 0.0
O126 O 0.07891 1.00584 0.60916 0.0
O127 O 0.10166 0.01715 0.74548 0.0
H128 H 0.96037 0.98659 0.55666 0.0
O129 O 0.03661 0.05786 0.74161 0.0
O130 O 1.01291 0.04365 0.60878 0.0
O131 O 0.99425 0.0134 0.90827 0.0
O132 O 0.97099 0.99957 0.77458 0.0
C133 C 0.02253 0.06493 0.65852 0.0
H134 H 0.05123 0.90643 0.55261 0.0
H135 H 0.95 0.94084 0.46964 0.0
H136 H 0.03422 0.10542 0.03557 0.0
H137 H 0.14096 0.06973 0.99621 0.0
C138 C 0.48359 0.99605 0.64148 0.0
N139 N 0.53267 0.07865 0.68487 0.0
C140 C 0.53518 0.0859 0.57947 0.0
C141 C 0.53314 0.11646 0.53567 0.0
C142 C 0.52841 0.1401 0.60047 0.0
C143 C 0.52604 0.132 0.70911 0.0
C144 C 0.52835 0.10105 0.74977 0.0
Zn145 Zn 0.53473 0.03249 0.74227 0.0
C146 C 0.47847 0.01266 0.91393 0.0
N147 N 0.53864 0.93481 0.83903 0.0
C148 C 0.53382 0.91136 0.78178 0.0
C149 C 0.54256 0.92887 0.94212 0.0
C150 C 0.54193 0.89874 0.99113 0.0
C151 C 0.53643 0.87401 0.93501 0.0
C152 C 0.53237 0.88074 0.82851 0.0
Zn153 Zn 0.53716 0.98101 0.77875 0.0
O154 O 0.49593 0.02254 0.64823 0.0
C155 C 0.5936 1.0007 0.60736 0.0
O156 O 0.49783 0.97233 0.68443 0.0
H157 H 0.54556 0.94759 0.98767 0.0
H158 H 0.5385 0.06787 0.52889 0.0
H159 H 0.53025 0.91639 0.70037 0.0
O160 O 0.57836 0.02602 0.62416 0.0
O161 O 0.58025 0.97578 0.65692 0.0
H162 H 0.52624 0.09491 0.83331 0.0
O163 O 0.57662 0.99129 0.87016 0.0
O164 O 0.57338 0.0415 0.8381 0.0
O165 O 0.4941 0.98745 0.89845 0.0
O166 O 0.4913 0.03748 0.86268 0.0
C167 C 0.58828 0.01784 0.87891 0.0
H168 H 0.53522 0.12153 0.45161 0.0
H169 H 0.52159 0.14929 0.76242 0.0
H170 H 0.54537 0.89493 0.07301 0.0
H171 H 0.52703 0.8627 0.78224 0.0
C172 C 0.56561 0.45975 0.6482 0.0
N173 N 0.46673 0.50212 0.67187 0.0
C174 C 0.47303 0.50619 0.56569 0.0
C175 C 0.44565 0.50392 0.50515 0.0
C176 C 0.41116 0.49639 0.55309 0.0
C177 C 0.40528 0.49182 0.6631 0.0
C178 C 0.43352 0.49508 0.72128 0.0
Zn179 Zn 0.51132 0.50505 0.74707 0.0
C180 C 0.51909 0.45883 0.91516 0.0
N181 N 0.61363 0.50972 0.851 0.0
C182 C 0.6466 0.50038 0.8131 0.0
C183 C 0.60745 0.51816 0.94939 0.0
C184 C 0.63442 0.51778 0.01263 0.0
C185 C 0.66828 0.50708 0.97808 0.0
C186 C 0.67432 0.49856 0.87596 0.0
Zn187 Zn 0.56869 0.50724 0.77429 0.0
O188 O 0.53441 0.47063 0.6589 0.0
C189 C 0.56127 0.55381 0.60697 0.0
O190 O 0.59022 0.47187 0.68792 0.0
H191 H 0.58114 0.5241 0.98217 0.0
H192 H 0.49961 0.51079 0.52684 0.0
H193 H 0.65115 0.49309 0.73586 0.0
O194 O 0.53048 0.54199 0.63205 0.0
O195 O 0.58716 0.54232 0.65148 0.0
H196 H 0.42904 0.49137 0.80561 0.0
O197 O 0.54521 0.54304 0.8552 0.0
O198 O 0.48863 0.53902 0.83784 0.0
O199 O 0.5494 0.47182 0.89451 0.0
O200 O 0.49373 0.46888 0.86567 0.0
C201 C 0.5136 0.5527 0.87082 0.0
H202 H 0.45165 0.50786 0.42101 0.0
H203 H 0.37942 0.48506 0.70397 0.0
H204 H 0.62828 0.52491 0.0899 0.0
H205 H 0.6996 0.48933 0.8462 0.0
C206 C 0.08477 0.52857 0.5816 0.0
N207 N 0.05188 0.43843 0.69328 0.0
C208 C 0.04683 0.43572 0.5929 0.0
C209 C 0.05381 0.408 0.55101 0.0
C210 C 0.06647 0.3829 0.61259 0.0
C211 C 0.0706 0.38605 0.71669 0.0
C212 C 0.06309 0.41416 0.75569 0.0
Zn213 Zn 0.04531 0.4807 0.74646 0.0
C214 C 0.10566 0.49871 0.84507 0.0
N215 N 0.03507 0.57231 0.82803 0.0
C216 C 0.0238 0.59809 0.77302 0.0
C217 C 0.04276 0.57282 0.92728 0.0
C218 C 0.03937 0.59975 0.97493 0.0
C219 C 0.02775 0.62671 0.92071 0.0
C220 C 0.01989 0.62571 0.81822 0.0
Zn221 Zn 0.04031 0.53036 0.77076 0.0
O222 O 0.07719 0.50048 0.61146 0.0
C223 C 0.97947 0.51207 0.67438 0.0
O224 O 0.06996 0.54945 0.63164 0.0
H225 H 0.05143 0.55214 0.97039 0.0
H226 H 0.03813 0.45532 0.54435 0.0
H227 H 0.01755 0.59718 0.69454 0.0
O228 O 0.99767 0.48752 0.6774 0.0
O229 O 0.9915 0.53592 0.7057 0.0
H230 H 0.06685 0.41675 0.83531 0.0
O231 O 1.01139 0.51039 0.91001 0.0
O232 O 1.01413 0.46186 0.88164 0.0
O233 O 0.08905 0.5239 0.83363 0.0
O234 O 0.09248 0.47451 0.81988 0.0
C235 C 1.00296 0.48244 0.93844 0.0
H236 H 0.05037 0.40647 0.47031 0.0
H237 H 0.07977 0.36704 0.76714 0.0
H238 H 0.046 0.5995 0.05363 0.0
H239 H 1.01028 0.64587 0.77419 0.0
C240 C 0.20706 0.02298 0.57957 0.0
C241 C 0.21255 0.02275 0.47035 0.0
C242 C 0.17291 0.01915 0.63679 0.0
C243 C 0.14253 0.01463 0.58778 0.0
H244 H 0.22927 0.02707 0.62096 0.0
H245 H 0.1703 0.02019 0.72023 0.0
S246 S 0.14283 0.01045 0.30345 0.0
N247 N 0.18489 0.0164 0.31596 0.0
N248 N 0.12104 0.00898 0.42222 0.0
C249 C 0.14794 0.01332 0.47876 0.0
C250 C 0.18275 0.01733 0.42063 0.0
C251 C 0.49675 0.21003 0.4338 0.0
C252 C 0.51355 0.23488 0.46765 0.0
C253 C 0.50209 0.17961 0.47619 0.0
C254 C 0.52439 0.17271 0.55449 0.0
H255 H 0.47876 0.21414 0.37545 0.0
H256 H 0.48789 0.1614 0.44903 0.0
S257 S 0.57647 0.22952 0.66477 0.0
N258 N 0.5545 0.25058 0.58072 0.0
N259 N 0.56501 0.1935 0.6595 0.0
C260 C 0.54202 0.19737 0.58715 0.0
C261 C 0.53655 0.22836 0.54383 0.0
C262 C 0.36409 0.47477 0.32888 0.0
C263 C 0.32935 0.48547 0.35226 0.0
C264 C 0.38993 0.47794 0.3951 0.0
C265 C 0.38237 0.49245 0.48687 0.0
H266 H 0.37128 0.46348 0.25937 0.0
H267 H 0.41605 0.46866 0.37428 0.0
S268 S 0.29529 0.52518 0.58152 0.0
N269 N 0.28849 0.51086 0.47365 0.0
N270 N 0.33737 0.5184 0.59537 0.0
C271 C 0.34769 0.50352 0.51053 0.0
C272 C 0.32122 0.49979 0.44371 0.0
C273 C 0.06099 0.31254 0.46859 0.0
C274 C 0.09455 0.29885 0.47433 0.0
C275 C 0.05211 0.33968 0.51356 0.0
C276 C 0.07617 0.35391 0.56715 0.0
H277 H 0.04135 0.3024 0.42917 0.0
H278 H 0.02607 0.34947 0.50717 0.0
S279 S 0.16737 0.3276 0.60288 0.0
N280 N 0.15182 0.30176 0.537 0.0
N281 N 0.13512 0.35267 0.6215 0.0
C282 C 0.10964 0.34043 0.57375 0.0
C283 C 0.11877 0.31297 0.52744 0.0
C284 C 0.89444 0.01577 0.09659 0.0
C285 C 0.86234 0.01335 0.05424 0.0
C286 C 0.92766 0.01257 0.03694 0.0
C287 C 0.93065 0.00682 0.93148 0.0
H288 H 0.89398 0.02124 0.17589 0.0
H289 H 0.9513 0.01539 0.07367 0.0
S290 S 0.85448 0.99706 0.78433 0.0
N291 N 0.83562 1.00384 0.90108 0.0
N292 N 0.89774 0.99753 0.78906 0.0
C293 C 0.89864 1.00328 0.88913 0.0
C294 C 0.86472 0.00664 0.95022 0.0
C295 C 0.51053 0.80698 0.14563 0.0
C296 C 0.52574 0.78119 0.10242 0.0
C297 C 0.51419 0.83656 0.09106 0.0
C298 C 0.53315 0.84188 0.99006 0.0
H299 H 0.49513 0.80422 0.2222 0.0
H300 H 0.50137 0.85539 0.12799 0.0
S301 S 0.57746 0.78192 0.83996 0.0
N302 N 0.55942 0.76268 0.95044 0.0
N303 N 0.56756 0.81836 0.84927 0.0
C304 C 0.54835 0.8162 0.94537 0.0
C305 C 0.5443 0.78592 0.00092 0.0
C306 C 0.7085 0.48725 0.23166 0.0
C307 C 0.74488 0.49319 0.2034 0.0
C308 C 0.68438 0.49171 0.15835 0.0
C309 C 0.69539 0.50265 0.05289 0.0
H310 H 0.69863 0.47853 0.31126 0.0
H311 H 0.65682 0.4859 0.18472 0.0
S312 S 0.78822 0.5222 0.93867 0.0
N313 N 0.79119 0.5102 0.06239 0.0
N314 N 0.74569 0.52008 0.92497 0.0
C315 C 0.73185 0.50897 0.0235 0.0
C316 C 0.75657 0.50393 0.09846 0.0
C317 C 1.00631 0.67967 0.1321 0.0
C318 C 0.02201 0.70767 0.08609 0.0
C319 C 1.00737 0.65395 0.07682 0.0
C320 C 0.0239 0.6553 0.973 0.0
H321 H 0.99375 0.67746 0.21221 0.0
H322 H 0.99547 0.63269 0.11621 0.0
S323 S 0.06655 0.72415 0.81492 0.0
N324 N 0.05245 0.73601 0.92902 0.0
N325 N 0.05499 0.68757 0.82521 0.0
C326 C 0.0384 0.68359 0.92474 0.0
C327 C 0.03727 0.7098 0.98121 0.0
C328 C 1.00583 0.13636 0.479 0.0
C329 C 0.02939 0.15773 0.50706 0.0
C330 C 1.0018 0.10675 0.53259 0.0
C331 C 0.02067 0.09779 0.6172 0.0
H332 H 0.99366 0.14142 0.40799 0.0
H333 H 0.98571 0.09025 0.50316 0.0
S334 S 0.07975 0.14772 0.73399 0.0
N335 N 0.06744 0.16969 0.63322 0.0
N336 N 0.05912 0.11459 0.73715 0.0
C337 C 0.04061 0.12037 0.65416 0.0
C338 C 0.04494 0.15035 0.59864 0.0
C339 C 0.39567 0.01895 0.54738 0.0
C340 C 0.38594 0.99299 0.50371 0.0
C341 C 0.42715 0.01941 0.59262 0.0
C342 C 0.44999 0.99384 0.59623 0.0
H343 H 0.38024 0.03982 0.53947 0.0
H344 H 0.43403 0.04033 0.62266 0.0
S345 S 0.43446 0.91931 0.50019 0.0
N346 N 0.40006 0.94052 0.47169 0.0
N347 N 0.45897 0.94096 0.55963 0.0
C348 C 0.4393 0.96701 0.55893 0.0
C349 C 0.40733 0.96669 0.51193 0.0
C350 C 0.54299 0.38247 0.57612 0.0
C351 C 0.56543 0.38084 0.48267 0.0
C352 C 0.54536 0.40723 0.63392 0.0
C353 C 0.57056 0.43086 0.60093 0.0
H354 H 0.5214 0.36613 0.59948 0.0
H355 H 0.52583 0.40892 0.70143 0.0
S356 S 0.639 0.43431 0.37103 0.0
N357 N 0.61628 0.40266 0.3662 0.0
N358 N 0.62109 0.44914 0.47667 0.0
C359 C 0.59543 0.42788 0.51368 0.0
C360 C 0.59276 0.40281 0.45398 0.0
C361 C 0.14719 0.55757 0.34051 0.0
C362 C 0.17736 0.53915 0.35372 0.0
C363 C 0.11742 0.55572 0.41715 0.0
C364 C 0.11709 0.53517 0.50816 0.0
H365 H 0.14583 0.57214 0.26796 0.0
H366 H 0.09396 0.56892 0.40243 0.0
S367 S 0.19064 0.48528 0.58764 0.0
N368 N 0.2058 0.50204 0.4705 0.0
N369 N 0.15043 0.49915 0.61409 0.0
C370 C 0.14798 0.51863 0.52598 0.0
C371 C 0.17808 0.52052 0.44889 0.0
C372 C 0.04753 0.87919 0.05023 0.0
C373 C 0.02328 0.86041 0.01219 0.0
C374 C 0.05731 0.90829 -0.00133 0.0
C375 C 0.04339 0.91941 0.9068 0.0
H376 H 0.05679 0.87229 0.12488 0.0
H377 H 0.07417 0.92274 0.03416 0.0
S378 S 0.98266 0.87666 0.76871 0.0
N379 N 0.9887 0.8531 0.87325 0.0
N380 N 1.00683 0.90738 0.77422 0.0
C381 C 0.02162 0.89939 0.86324 0.0
C382 C 1.01171 0.86989 0.91633 0.0
C383 C 0.67655 0.99574 0.97152 0.0
C384 C 0.6854 0.02137 0.0184 0.0
C385 C 0.64523 0.99516 0.92563 0.0
C386 C 0.62176 0.0203 0.92432 0.0
H387 H 0.6925 0.97514 0.9774 0.0
H388 H 0.63897 0.97446 0.89327 0.0
S389 S 0.63525 0.09415 0.02737 0.0
N390 N 0.67005 0.0733 0.05463 0.0
N391 N 0.61139 0.07261 0.96564 0.0
C392 C 0.63166 0.04692 0.9644 0.0
C393 C 0.66346 0.04736 0.01208 0.0
C394 C 0.48992 0.60675 0.07302 0.0
C395 C 0.515 0.63056 0.03941 0.0
C396 C 0.48651 0.58256 0.01277 0.0
C397 C 0.50826 0.58157 0.91778 0.0
H398 H 0.47481 0.60564 0.14985 0.0
H399 H 0.46913 0.5634 0.04471 0.0
S400 S 0.57403 0.64028 0.78822 0.0
N401 N 0.55869 0.65324 0.89954 0.0
N402 N 0.55236 0.60789 0.78671 0.0
C403 C 0.53091 0.6066 0.87914 0.0
C404 C 0.53422 0.6312 0.93981 0.0
C405 C 0.94945 0.49404 0.19087 0.0
C406 C 0.91866 0.47647 0.18987 0.0
C407 C 0.97809 0.49355 0.11326 0.0
C408 C 0.97706 0.47563 0.03121 0.0
H409 H 0.95084 0.50959 0.24934 0.0
H410 H 1.00047 0.50865 0.1144 0.0
S411 S 0.90393 0.42397 0.99534 0.0
N412 N 0.8897 0.43911 0.10369 0.0
N413 N 0.9439 0.43865 0.95494 0.0
C414 C 0.94735 0.45672 0.03128 0.0
C415 C 0.91791 0.45722 0.11098 0.0
C416 C 0.08926 0.17348 0.08415 0.0
C417 C 0.10557 0.17052 0.17555 0.0
C418 C 0.08737 0.14842 0.0272 0.0
C419 C 0.1018 0.11967 0.0598 0.0
H420 H 0.07371 0.1937 0.06472 0.0
H421 H 0.07152 0.15076 0.96327 0.0
S422 S 0.15481 0.10299 0.28005 0.0
N423 N 0.14273 0.13918 0.2839 0.0
N424 N 0.13857 0.09172 0.17856 0.0
C425 C 0.12276 0.11798 0.14186 0.0
C426 C 0.12507 0.14369 0.19882 0.0
C427 C 0.39966 0.03898 0.09696 0.0
C428 C 0.3803 0.0116 0.13126 0.0
C429 C 0.43069 0.03949 0.0244 0.0
C430 C 0.44415 0.01243 0.9852 0.0
H431 H 0.39221 0.0597 0.13229 0.0
H432 H 0.44518 0.06092 0.00311 0.0
S433 S 0.40144 0.93527 0.04394 0.0
N434 N 0.37543 0.95738 0.11502 0.0
N435 N 0.43335 0.95794 0.9798 0.0
C436 C 0.42381 0.98528 0.0147 0.0
C437 C 0.39205 0.98497 0.08717 0.0
C438 C 0.49248 0.40243 0.15588 0.0
C439 C 0.51929 0.38002 0.14699 0.0
C440 C 0.49048 0.42695 0.07672 0.0
C441 C 0.5158 0.43011 0.98756 0.0
H442 H 0.47449 0.40216 0.22767 0.0
H443 H 0.47077 0.44463 0.08891 0.0
S444 S 0.58878 0.37606 0.92209 0.0
N445 N 0.56941 0.36122 0.03776 0.0
N446 N 0.56625 0.40738 0.89018 0.0
C447 C 0.54118 0.40679 0.97488 0.0
C448 C 0.54277 0.38167 0.05429 0.0
C449 C 0.17563 0.47711 0.02275 0.0
C450 C 0.19681 0.50384 0.00779 0.0
C451 C 0.14768 0.47419 0.96316 0.0
C452 C 0.13977 0.49825 0.88865 0.0
H453 H 0.17855 0.45969 0.08728 0.0
H454 H 0.13038 0.45427 0.9819 0.0
S455 S 0.19133 0.57039 0.80797 0.0
N456 N 0.21115 0.55265 0.90381 0.0
N457 N 0.1586 0.54747 0.79228 0.0
C458 C 0.16293 0.52369 0.86636 0.0
C459 C 0.19153 0.5264 0.92586 0.0
C460 C 0.95257 0.852 0.40812 0.0
C461 C 0.98071 0.8346 0.36491 0.0
C462 C 0.95904 0.878 0.45728 0.0
C463 C 0.99396 0.88871 0.4593 0.0
H464 H 0.92564 0.84717 0.39528 0.0
H465 H 0.9363 0.89059 0.48847 0.0
S466 S 0.07661 0.84895 0.35796 0.0
N467 N 0.04398 0.82637 0.34071 0.0
N468 N 0.05709 0.87801 0.41146 0.0
C469 C 0.02223 0.86999 0.42072 0.0
C470 C 0.01526 0.84202 0.38072 0.0
C471 C 0.67235 0.97475 0.42281 0.0
C472 C 0.69193 1.0021 0.39006 0.0
C473 C 0.64129 0.97408 0.49542 0.0
C474 C 0.62804 1.00095 0.5364 0.0
H475 H 0.67961 0.95423 0.38607 0.0
H476 H 0.6266 0.9527 0.51528 0.0
S477 S 0.67156 0.07786 0.48291 0.0
N478 N 0.69731 0.05602 0.4101 0.0
N479 N 0.63944 0.05516 0.54558 0.0
C480 C 0.64867 0.02802 0.50869 0.0
C481 C 0.68041 0.02849 0.43606 0.0
C482 C 0.53586 0.62931 0.46437 0.0
C483 C 0.56102 0.63282 0.37505 0.0
C484 C 0.53753 0.60444 0.54168 0.0
C485 C 0.56473 0.5824 0.5335 0.0
H486 H 0.51307 0.64436 0.47028 0.0
H487 H 0.5163 0.60162 0.60616 0.0
S488 S 0.63868 0.58271 0.31867 0.0
N489 N 0.61505 0.61326 0.28508 0.0
N490 N 0.61883 0.56705 0.43277 0.0
C491 C 0.59157 0.58693 0.4486 0.0
C492 C 0.58952 0.61201 0.36871 0.0
C493 C 0.89424 0.48079 0.60484 0.0
C494 C 0.8833 0.50466 0.53438 0.0
C495 C 0.92428 0.48417 0.65502 0.0
C496 C 0.94405 0.51172 0.6381 0.0
H497 H 0.88227 0.45819 0.61091 0.0
H498 H 0.93339 0.46437 0.70216 0.0
S499 S 0.922 0.58303 0.47785 0.0
N500 N 0.89126 0.55809 0.46235 0.0
N501 N 0.94716 0.56481 0.55962 0.0
C502 C 0.93067 0.53699 0.57889 0.0
C503 C 0.90021 0.53341 0.52683 0.0
loop_
_geom_bond_atom_site_label_1
_geom_bond_atom_site_label_2
_geom_bond_distance
_geom_bond_site_symmetry_2
_ccdc_geom_bond_type
H0 C7 0.929 . S
H1 C10 0.930 . S
H2 C12 0.929 . S
H3 C4 0.969 . S
C4 H3 0.969 . S
C4 O5 1.550 . S
C4 H6 0.973 . S
O5 C4 1.550 . S
O5 C11 1.412 . S
H6 C4 0.973 . S
C7 H0 0.929 . S
C7 C8 1.400 . S
C7 C9 1.364 . S
C8 C7 1.400 . S
C8 C12 1.377 . S
C9 C7 1.364 . S
C9 C10 1.374 . S
C10 H1 0.930 . S
C10 C9 1.374 . S
C10 C11 1.383 . S
C11 O5 1.412 . S
C11 C10 1.383 . S
C11 C12 1.394 . S
C12 H2 0.929 . S
C12 C8 1.377 . S
C12 C11 1.394 . S
H13 C20 0.929 . S
H14 C23 0.930 . S
H15 C25 0.929 . S
H16 C17 0.969 1_455 S
C17 H16 0.969 1_655 S
C17 O18 1.550 1_556 S
C17 H19 0.973 . S
O18 C17 1.550 1_554 S
O18 C24 1.412 . S
H19 C17 0.973 . S
C20 H13 0.929 . S
C20 C21 1.400 . S
C20 C22 1.364 1_554 S
C21 C20 1.400 . S
C21 C25 1.377 . S
C22 C20 1.364 1_556 S
C22 C23 1.374 . S
C23 H14 0.930 . S
C23 C22 1.374 . S
C23 C24 1.383 1_556 S
C24 O18 1.412 . S
C24 C23 1.383 1_554 S
C24 C25 1.394 . S
C25 H15 0.929 . S
C25 C21 1.377 . S
C25 C24 1.394 . S
H26 C33 0.929 1_565 S
H27 C36 0.932 1_556 S
H28 C38 0.930 1_565 S
H29 C30 0.969 . S
C30 H29 0.969 . S
C30 O31 1.550 1_545 S
C30 H32 0.973 1_544 S
O31 C30 1.550 1_565 S
O31 C37 1.404 1_565 S
H32 C30 0.973 1_566 S
C33 H26 0.929 1_545 S
C33 C34 1.398 . S
C33 C35 1.364 . S
C34 C33 1.398 . S
C34 C38 1.377 . S
C35 C33 1.364 . S
C35 C36 1.374 1_545 S
C36 H27 0.932 1_554 S
C36 C35 1.374 1_565 S
C36 C37 1.379 1_565 S
C37 O31 1.404 1_545 S
C37 C36 1.379 1_545 S
C37 C38 1.397 . S
C38 H28 0.930 1_545 S
C38 C34 1.377 . S
C38 C37 1.397 . S
H39 C46 0.929 . S
H40 C49 0.930 1_556 S
H41 C51 0.929 . S
H42 C43 0.969 . S
C43 H42 0.969 . S
C43 O44 1.550 . S
C43 H45 0.973 1_554 S
O44 C43 1.550 . S
O44 C50 1.412 . S
H45 C43 0.973 1_556 S
C46 H39 0.929 . S
C46 C47 1.400 . S
C46 C48 1.364 . S
C47 C46 1.400 . S
C47 C51 1.377 . S
C48 C46 1.364 . S
C48 C49 1.374 . S
C49 H40 0.930 1_554 S
C49 C48 1.374 . S
C49 C50 1.383 . S
C50 O44 1.412 . S
C50 C49 1.383 . S
C50 C51 1.394 . S
C51 H41 0.929 . S
C51 C47 1.377 . S
C51 C50 1.394 . S
H52 C59 0.929 . S
H53 C62 0.930 . S
H54 C64 0.929 . S
H55 C56 0.969 . S
C56 H55 0.969 . S
C56 O57 1.550 . S
C56 H58 0.973 . S
O57 C56 1.550 . S
O57 C63 1.412 . S
H58 C56 0.973 . S
C59 H52 0.929 . S
C59 C60 1.400 . S
C59 C61 1.364 . S
C60 C59 1.400 . S
C60 C64 1.377 . S
C61 C59 1.364 . S
C61 C62 1.374 . S
C62 H53 0.930 . S
C62 C61 1.374 . S
C62 C63 1.383 . S
C63 O57 1.412 . S
C63 C62 1.383 . S
C63 C64 1.394 . S
C64 H54 0.929 . S
C64 C60 1.377 . S
C64 C63 1.394 . S
H65 C72 0.929 . S
H66 C75 0.930 . S
H67 C77 0.929 . S
H68 C69 0.969 . S
C69 H68 0.969 . S
C69 O70 1.550 . S
C69 H71 0.973 . S
O70 C69 1.550 . S
O70 C76 1.412 . S
H71 C69 0.973 . S
C72 H65 0.929 . S
C72 C73 1.400 . S
C72 C74 1.364 . S
C73 C72 1.400 . S
C73 C77 1.377 . S
C74 C72 1.364 . S
C74 C75 1.374 . S
C75 H66 0.930 . S
C75 C74 1.374 . S
C75 C76 1.383 . S
C76 O70 1.412 . S
C76 C75 1.383 . S
C76 C77 1.394 . S
C77 H67 0.929 . S
C77 C73 1.377 . S
C77 C76 1.394 . S
H78 C85 0.928 1_565 S
H79 C88 0.934 . S
H80 C90 0.927 1_565 S
H81 C82 0.969 . S
C82 H81 0.969 . S
C82 O83 1.550 1_545 S
C82 H84 0.973 1_545 S
O83 C82 1.550 1_565 S
O83 C89 1.402 1_565 S
H84 C82 0.973 1_565 S
C85 H78 0.928 1_545 S
C85 C86 1.401 . S
C85 C87 1.363 . S
C86 C85 1.401 . S
C86 C90 1.377 . S
C87 C85 1.363 . S
C87 C88 1.374 1_545 S
C88 H79 0.934 . S
C88 C87 1.374 1_565 S
C88 C89 1.386 1_565 S
C89 O83 1.402 1_545 S
C89 C88 1.386 1_545 S
C89 C90 1.391 . S
C90 H80 0.927 1_545 S
C90 C86 1.377 . S
C90 C89 1.391 . S
H91 C98 0.929 . S
H92 C101 0.930 . S
H93 C103 0.929 . S
H94 C95 0.969 . S
C95 H94 0.969 . S
C95 O96 1.550 . S
C95 H97 0.973 . S
O96 C95 1.550 . S
O96 C102 1.412 . S
H97 C95 0.973 . S
C98 H91 0.929 . S
C98 C99 1.400 . S
C98 C100 1.364 . S
C99 C98 1.400 . S
C99 C103 1.377 . S
C100 C98 1.364 . S
C100 C101 1.374 . S
C101 H92 0.930 . S
C101 C100 1.374 . S
C101 C102 1.383 . S
C102 O96 1.412 . S
C102 C101 1.383 . S
C102 C103 1.394 . S
C103 H93 0.929 . S
C103 C99 1.377 . S
C103 C102 1.394 . S
C104 O120 1.251 . S
C104 O122 1.254 . S
N105 C106 1.333 . S
N105 C110 1.307 1_455 S
N105 Zn111 2.020 . S
C106 N105 1.333 . S
C106 C107 1.379 . S
C106 H124 0.952 . S
C107 C106 1.379 . S
C107 C108 1.390 1_455 S
C107 H134 0.949 . S
C108 C107 1.390 1_655 S
C108 C109 1.357 . S
C109 C108 1.357 . S
C109 C110 1.370 . S
C109 H135 0.950 . S
C110 N105 1.307 1_655 S
C110 C109 1.370 . S
C110 H128 0.948 1_565 S
Zn111 N105 2.020 . S
Zn111 O120 2.039 . S
Zn111 O126 2.034 . S
Zn111 O130 2.025 1_565 S
Zn111 O132 2.024 1_455 S
C112 O131 1.246 . S
C112 O132 1.249 1_545 S
N113 C114 1.307 1_556 S
N113 C115 1.332 1_556 S
N113 Zn119 2.020 . S
C114 N113 1.307 1_554 S
C114 C118 1.370 . S
C114 H125 0.948 1_545 S
C115 N113 1.332 1_554 S
C115 C116 1.386 . S
C115 H123 0.946 1_554 S
C116 C115 1.386 . S
C116 C117 1.390 . S
C116 H136 0.949 . S
C117 C116 1.390 . S
C117 C118 1.357 . S
C118 C114 1.370 . S
C118 C117 1.357 . S
C118 H137 0.950 . S
Zn119 N113 2.020 . S
Zn119 O122 2.025 1_545 S
Zn119 O127 2.024 . S
Zn119 O129 2.039 . S
Zn119 O131 2.034 1_455 S
O120 C104 1.251 . S
O120 Zn111 2.039 . S
C121 O126 1.246 . S
C121 O127 1.249 1_565 S
O122 C104 1.254 . S
O122 Zn119 2.025 1_565 S
H123 C115 0.946 1_556 S
H124 C106 0.952 . S
H125 C114 0.948 1_565 S
O126 Zn111 2.034 . S
O126 C121 1.246 . S
O127 Zn119 2.024 . S
O127 C121 1.249 1_545 S
H128 C110 0.948 1_545 S
O129 Zn119 2.039 . S
O129 C133 1.251 . S
O130 Zn111 2.025 1_545 S
O130 C133 1.254 . S
O131 C112 1.246 . S
O131 Zn119 2.034 1_655 S
O132 Zn111 2.024 1_655 S
O132 C112 1.249 1_565 S
C133 O129 1.251 . S
C133 O130 1.254 . S
H134 C107 0.949 . S
H135 C109 0.950 . S
H136 C116 0.949 . S
H137 C118 0.950 . S
C138 O154 1.251 1_565 S
C138 O156 1.254 . S
N139 C140 1.333 . S
N139 C144 1.307 . S
N139 Zn145 2.020 . S
C140 N139 1.333 . S
C140 C141 1.379 . S
C140 H158 0.952 . S
C141 C140 1.379 . S
C141 C142 1.390 . S
C141 H168 0.949 . S
C142 C141 1.390 . S
C142 C143 1.357 . S
C143 C142 1.357 . S
C143 C144 1.370 . S
C143 H169 0.950 . S
C144 N139 1.307 . S
C144 C143 1.370 . S
C144 H162 0.948 . S
Zn145 N139 2.020 . S
Zn145 O154 2.039 . S
Zn145 O160 2.034 . S
Zn145 O164 2.025 . S
Zn145 O166 2.024 . S
C146 O165 1.246 1_545 S
C146 O166 1.249 . S
N147 C148 1.307 . S
N147 C149 1.333 . S
N147 Zn153 2.020 . S
C148 N147 1.307 . S
C148 C152 1.370 . S
C148 H159 0.948 . S
C149 N147 1.333 . S
C149 C150 1.379 . S
C149 H157 0.952 . S
C150 C149 1.379 . S
C150 C151 1.390 . S
C150 H170 0.949 1_556 S
C151 C150 1.390 . S
C151 C152 1.357 . S
C152 C148 1.370 . S
C152 C151 1.357 . S
C152 H171 0.950 . S
Zn153 N147 2.020 . S
Zn153 O156 2.025 . S
Zn153 O161 2.024 . S
Zn153 O163 2.039 . S
Zn153 O165 2.034 . S
O154 C138 1.251 1_545 S
O154 Zn145 2.039 . S
C155 O160 1.246 1_565 S
C155 O161 1.249 . S
O156 C138 1.254 . S
O156 Zn153 2.025 . S
H157 C149 0.952 . S
H158 C140 0.952 . S
H159 C148 0.948 . S
O160 Zn145 2.034 . S
O160 C155 1.246 1_545 S
O161 Zn153 2.024 . S
O161 C155 1.249 . S
H162 C144 0.948 . S
O163 Zn153 2.039 . S
O163 C167 1.251 1_565 S
O164 Zn145 2.025 . S
O164 C167 1.254 . S
O165 C146 1.246 1_565 S
O165 Zn153 2.034 . S
O166 Zn145 2.024 . S
O166 C146 1.249 . S
C167 O163 1.251 1_545 S
C167 O164 1.254 . S
H168 C141 0.949 . S
H169 C143 0.950 . S
H170 C150 0.949 1_554 S
H171 C152 0.950 . S
C172 O188 1.251 . S
C172 O190 1.254 . S
N173 C174 1.333 . S
N173 C178 1.307 . S
N173 Zn179 2.020 . S
C174 N173 1.333 . S
C174 C175 1.379 . S
C174 H192 0.952 . S
C175 C174 1.379 . S
C175 C176 1.390 . S
C175 H202 0.949 . S
C176 C175 1.390 . S
C176 C177 1.357 . S
C177 C176 1.357 . S
C177 C178 1.370 . S
C177 H203 0.950 . S
C178 N173 1.307 . S
C178 C177 1.370 . S
C178 H196 0.948 . S
Zn179 N173 2.020 . S
Zn179 O188 2.039 . S
Zn179 O194 2.034 . S
Zn179 O198 2.025 . S
Zn179 O200 2.024 . S
C180 O199 1.246 . S
C180 O200 1.249 . S
N181 C182 1.307 . S
N181 C183 1.333 . S
N181 Zn187 2.020 . S
C182 N181 1.307 . S
C182 C186 1.370 . S
C182 H193 0.948 . S
C183 N181 1.333 . S
C183 C184 1.379 . S
C183 H191 0.952 . S
C184 C183 1.379 . S
C184 C185 1.390 . S
C184 H204 0.949 . S
C185 C184 1.390 . S
C185 C186 1.357 . S
C186 C182 1.370 . S
C186 C185 1.357 . S
C186 H205 0.950 . S
Zn187 N181 2.020 . S
Zn187 O190 2.025 . S
Zn187 O195 2.024 . S
Zn187 O197 2.039 . S
Zn187 O199 2.034 . S
O188 C172 1.251 . S
O188 Zn179 2.039 . S
C189 O194 1.246 . S
C189 O195 1.249 . S
O190 C172 1.254 . S
O190 Zn187 2.025 . S
H191 C183 0.952 . S
H192 C174 0.952 . S
H193 C182 0.948 . S
O194 Zn179 2.034 . S
O194 C189 1.246 . S
O195 Zn187 2.024 . S
O195 C189 1.249 . S
H196 C178 0.948 . S
O197 Zn187 2.039 . S
O197 C201 1.251 . S
O198 Zn179 2.025 . S
O198 C201 1.254 . S
O199 C180 1.246 . S
O199 Zn187 2.034 . S
O200 Zn179 2.024 . S
O200 C180 1.249 . S
C201 O197 1.251 . S
C201 O198 1.254 . S
H202 C175 0.949 . S
H203 C177 0.950 . S
H204 C184 0.949 . S
H205 C186 0.950 . S
C206 O222 1.251 . S
C206 O224 1.254 . S
N207 C208 1.333 . S
N207 C212 1.307 . S
N207 Zn213 2.020 . S
C208 N207 1.333 . S
C208 C209 1.379 . S
C208 H226 0.952 . S
C209 C208 1.379 . S
C209 C210 1.390 . S
C209 H236 0.949 . S
C210 C209 1.390 . S
C210 C211 1.357 . S
C211 C210 1.357 . S
C211 C212 1.370 . S
C211 H237 0.950 . S
C212 N207 1.307 . S
C212 C211 1.370 . S
C212 H230 0.948 . S
Zn213 N207 2.020 . S
Zn213 O222 2.039 . S
Zn213 O228 2.034 1_455 S
Zn213 O232 2.025 1_455 S
Zn213 O234 2.024 . S
C214 O233 1.246 . S
C214 O234 1.249 . S
N215 C216 1.307 . S
N215 C217 1.333 . S
N215 Zn221 2.020 . S
C216 N215 1.307 . S
C216 C220 1.370 . S
C216 H227 0.948 . S
C217 N215 1.333 . S
C217 C218 1.378 1_455 S
C217 H225 0.952 1_455 S
C218 C217 1.378 1_655 S
C218 C219 1.383 1_655 S
C218 H238 0.958 . S
C219 C218 1.383 1_455 S
C219 C220 1.357 . S
C220 C216 1.370 . S
C220 C219 1.357 . S
C220 H239 0.950 . S
Zn221 N215 2.020 . S
Zn221 O224 2.025 . S
Zn221 O229 2.024 1_455 S
Zn221 O231 2.039 1_455 S
Zn221 O233 2.034 . S
O222 C206 1.251 . S
O222 Zn213 2.039 . S
C223 O228 1.246 . S
C223 O229 1.249 . S
O224 C206 1.254 . S
O224 Zn221 2.025 . S
H225 C217 0.952 1_655 S
H226 C208 0.952 . S
H227 C216 0.948 . S
O228 Zn213 2.034 1_655 S
O228 C223 1.246 . S
O229 Zn221 2.024 1_655 S
O229 C223 1.249 . S
H230 C212 0.948 . S
O231 Zn221 2.039 1_655 S
O231 C235 1.251 . S
O232 Zn213 2.025 1_655 S
O232 C235 1.254 . S
O233 C214 1.246 . S
O233 Zn221 2.034 . S
O234 Zn213 2.024 . S
O234 C214 1.249 . S
C235 O231 1.251 . S
C235 O232 1.254 . S
H236 C209 0.949 . S
H237 C211 0.950 . S
H238 C218 0.958 . S
H239 C220 0.950 . S
C240 C241 1.354 1_545 S
C240 C242 1.419 . S
C240 H244 0.930 . S
C241 C240 1.354 1_565 S
C241 C250 1.444 . S
C242 C240 1.419 . S
C242 C243 1.363 1_545 S
C242 H245 0.929 . S
C243 C242 1.363 1_565 S
C243 C249 1.428 . S
H244 C240 0.930 . S
H245 C242 0.929 . S
S246 N247 1.613 . S
S246 N248 1.610 . S
N247 S246 1.613 . S
N247 C250 1.350 . S
N248 S246 1.610 . S
N248 C249 1.351 . S
C249 C243 1.428 . S
C249 N248 1.351 . S
C249 C250 1.434 . S
C250 C241 1.444 . S
C250 N247 1.350 . S
C250 C249 1.434 . S
C251 C252 1.369 . S
C251 C253 1.419 . S
C251 H255 0.930 . S
C252 C251 1.369 . S
C252 C261 1.429 . S
C253 C251 1.419 . S
C253 C254 1.363 . S
C253 H256 0.929 . S
C254 C253 1.363 . S
C254 C260 1.428 . S
H255 C251 0.930 . S
H256 C253 0.929 . S
S257 N258 1.613 . S
S257 N259 1.610 . S
N258 S257 1.613 . S
N258 C261 1.350 . S
N259 S257 1.610 . S
N259 C260 1.351 . S
C260 C254 1.428 . S
C260 N259 1.351 . S
C260 C261 1.434 . S
C261 C252 1.429 . S
C261 N258 1.350 . S
C261 C260 1.434 . S
C262 C263 1.369 . S
C262 C264 1.419 . S
C262 H266 0.930 . S
C263 C262 1.369 . S
C263 C272 1.429 . S
C264 C262 1.419 . S
C264 C265 1.363 . S
C264 H267 0.929 . S
C265 C264 1.363 . S
C265 C271 1.428 . S
H266 C262 0.930 . S
H267 C264 0.929 . S
S268 N269 1.613 . S
S268 N270 1.610 . S
N269 S268 1.613 . S
N269 C272 1.350 . S
N270 S268 1.610 . S
N270 C271 1.351 . S
C271 C265 1.428 . S
C271 N270 1.351 . S
C271 C272 1.434 . S
C272 C263 1.429 . S
C272 N269 1.350 . S
C272 C271 1.434 . S
C273 C274 1.369 . S
C273 C275 1.419 . S
C273 H277 0.930 . S
C274 C273 1.369 . S
C274 C283 1.429 . S
C275 C273 1.419 . S
C275 C276 1.363 . S
C275 H278 0.929 1_455 S
C276 C275 1.363 . S
C276 C282 1.428 . S
H277 C273 0.930 . S
H278 C275 0.929 1_655 S
S279 N280 1.613 . S
S279 N281 1.610 . S
N280 S279 1.613 . S
N280 C283 1.350 . S
N281 S279 1.610 . S
N281 C282 1.351 . S
C282 C276 1.428 . S
C282 N281 1.351 . S
C282 C283 1.434 . S
C283 C274 1.429 . S
C283 N280 1.350 . S
C283 C282 1.434 . S
C284 C285 1.385 1_554 S
C284 C286 1.419 1_554 S
C284 H288 0.930 . S
C285 C284 1.385 1_556 S
C285 C294 1.412 1_545 S
C286 C284 1.419 1_556 S
C286 C287 1.363 . S
C286 H289 0.929 1_556 S
C287 C286 1.363 . S
C287 C293 1.428 1_545 S
H288 C284 0.930 . S
H289 C286 0.929 1_554 S
S290 N291 1.613 . S
S290 N292 1.610 . S
N291 S290 1.613 . S
N291 C294 1.350 . S
N292 S290 1.610 . S
N292 C293 1.351 . S
C293 C287 1.428 1_565 S
C293 N292 1.351 . S
C293 C294 1.434 . S
C294 C285 1.412 1_565 S
C294 N291 1.350 . S
C294 C293 1.434 . S
C295 C296 1.369 . S
C295 C297 1.419 . S
C295 H299 0.930 . S
C296 C295 1.369 . S
C296 C305 1.429 1_554 S
C297 C295 1.419 . S
C297 C298 1.363 1_554 S
C297 H300 0.929 . S
C298 C297 1.363 1_556 S
C298 C304 1.428 . S
H299 C295 0.930 . S
H300 C297 0.929 . S
S301 N302 1.613 . S
S301 N303 1.610 . S
N302 S301 1.613 . S
N302 C305 1.350 . S
N303 S301 1.610 . S
N303 C304 1.351 . S
C304 C298 1.428 . S
C304 N303 1.351 . S
C304 C305 1.434 . S
C305 C296 1.429 1_556 S
C305 N302 1.350 . S
C305 C304 1.434 . S
C306 C307 1.369 . S
C306 C308 1.419 . S
C306 H310 0.930 . S
C307 C306 1.369 . S
C307 C316 1.429 1_554 S
C308 C306 1.419 . S
C308 C309 1.363 1_554 S
C308 H311 0.929 . S
C309 C308 1.363 1_556 S
C309 C315 1.428 . S
H310 C306 0.930 . S
H311 C308 0.929 . S
S312 N313 1.613 . S
S312 N314 1.610 . S
N313 S312 1.613 . S
N313 C316 1.350 . S
N314 S312 1.610 . S
N314 C315 1.351 . S
C315 C309 1.428 . S
C315 N314 1.351 . S
C315 C316 1.434 . S
C316 C307 1.429 1_556 S
C316 N313 1.350 . S
C316 C315 1.434 . S
C317 C318 1.369 . S
C317 C319 1.419 . S
C317 H321 0.930 1_556 S
C318 C317 1.369 . S
C318 C327 1.429 1_655 S
C319 C317 1.419 . S
C319 C320 1.363 1_655 S
C319 H322 0.929 . S
C320 C319 1.363 1_455 S
C320 C326 1.428 . S
H321 C317 0.930 1_554 S
H322 C319 0.929 . S
S323 N324 1.613 . S
S323 N325 1.610 . S
N324 S323 1.613 . S
N324 C327 1.350 . S
N325 S323 1.610 . S
N325 C326 1.351 . S
C326 C320 1.428 . S
C326 N325 1.351 . S
C326 C327 1.434 . S
C327 C318 1.429 1_455 S
C327 N324 1.350 . S
C327 C326 1.434 . S
C328 C329 1.369 . S
C328 C330 1.419 . S
C328 H332 0.930 . S
C329 C328 1.369 . S
C329 C338 1.429 . S
C330 C328 1.419 . S
C330 C331 1.363 . S
C330 H333 0.929 1_455 S
C331 C330 1.363 . S
C331 C337 1.428 . S
H332 C328 0.930 . S
H333 C330 0.929 1_655 S
S334 N335 1.613 . S
S334 N336 1.610 . S
N335 S334 1.613 . S
N335 C338 1.350 . S
N336 S334 1.610 . S
N336 C337 1.351 . S
C337 C331 1.428 . S
C337 N336 1.351 . S
C337 C338 1.434 . S
C338 C329 1.429 . S
C338 N335 1.350 . S
C338 C337 1.434 . S
C339 C340 1.339 1_545 S
C339 C341 1.419 . S
C339 H343 0.930 . S
C340 C339 1.339 1_565 S
C340 C349 1.460 . S
C341 C339 1.419 . S
C341 C342 1.363 1_545 S
C341 H344 0.929 . S
C342 C341 1.363 1_565 S
C342 C348 1.428 . S
H343 C339 0.930 . S
H344 C341 0.929 . S
S345 N346 1.613 . S
S345 N347 1.610 . S
N346 S345 1.613 . S
N346 C349 1.350 . S
N347 S345 1.610 . S
N347 C348 1.351 . S
C348 C342 1.428 . S
C348 N347 1.351 . S
C348 C349 1.434 . S
C349 C340 1.460 . S
C349 N346 1.350 . S
C349 C348 1.434 . S
C350 C351 1.369 . S
C350 C352 1.419 . S
C350 H354 0.930 . S
C351 C350 1.369 . S
C351 C360 1.429 . S
C352 C350 1.419 . S
C352 C353 1.363 . S
C352 H355 0.929 . S
C353 C352 1.363 . S
C353 C359 1.428 . S
H354 C350 0.930 . S
H355 C352 0.929 . S
S356 N357 1.613 . S
S356 N358 1.610 . S
N357 S356 1.613 . S
N357 C360 1.350 . S
N358 S356 1.610 . S
N358 C359 1.351 . S
C359 C353 1.428 . S
C359 N358 1.351 . S
C359 C360 1.434 . S
C360 C351 1.429 . S
C360 N357 1.350 . S
C360 C359 1.434 . S
C361 C362 1.369 . S
C361 C363 1.419 . S
C361 H365 0.930 . S
C362 C361 1.369 . S
C362 C371 1.429 . S
C363 C361 1.419 . S
C363 C364 1.363 . S
C363 H366 0.929 . S
C364 C363 1.363 . S
C364 C370 1.428 . S
H365 C361 0.930 . S
H366 C363 0.929 . S
S367 N368 1.613 . S
S367 N369 1.610 . S
N368 S367 1.613 . S
N368 C371 1.350 . S
N369 S367 1.610 . S
N369 C370 1.351 . S
C370 C364 1.428 . S
C370 N369 1.351 . S
C370 C371 1.434 . S
C371 C362 1.429 . S
C371 N368 1.350 . S
C371 C370 1.434 . S
C372 C373 1.349 1_455 S
C372 C374 1.434 . S
C372 H376 0.937 1_556 S
C373 C372 1.349 1_655 S
C373 C382 1.429 . S
C374 C372 1.434 . S
C374 C375 1.363 . S
C374 H377 0.929 1_556 S
C375 C374 1.363 . S
C375 C381 1.428 1_455 S
H376 C372 0.937 1_554 S
H377 C374 0.929 1_554 S
S378 N379 1.613 . S
S378 N380 1.610 . S
N379 S378 1.613 . S
N379 C382 1.350 . S
N380 S378 1.610 . S
N380 C381 1.351 . S
C381 C375 1.428 1_655 S
C381 N380 1.351 . S
C381 C382 1.434 . S
C382 C373 1.429 . S
C382 N379 1.350 . S
C382 C381 1.434 . S
C383 C384 1.340 1_566 S
C383 C385 1.419 . S
C383 H387 0.930 . S
C384 C383 1.340 1_544 S
C384 C393 1.459 . S
C385 C383 1.419 . S
C385 C386 1.363 1_565 S
C385 H388 0.929 . S
C386 C385 1.363 1_545 S
C386 C392 1.428 . S
H387 C383 0.930 . S
H388 C385 0.929 . S
S389 N390 1.613 . S
S389 N391 1.607 1_554 S
N390 S389 1.613 . S
N390 C393 1.350 . S
N391 S389 1.607 1_556 S
N391 C392 1.352 . S
C392 C386 1.428 . S
C392 N391 1.352 . S
C392 C393 1.434 1_556 S
C393 C384 1.459 . S
C393 N390 1.350 . S
C393 C392 1.434 1_554 S
C394 C395 1.369 . S
C394 C396 1.419 . S
C394 H398 0.930 . S
C395 C394 1.369 . S
C395 C404 1.429 1_554 S
C396 C394 1.419 . S
C396 C397 1.363 1_554 S
C396 H399 0.929 . S
C397 C396 1.363 1_556 S
C397 C403 1.428 . S
H398 C394 0.930 . S
H399 C396 0.929 . S
S400 N401 1.613 . S
S400 N402 1.610 . S
N401 S400 1.613 . S
N401 C404 1.350 . S
N402 S400 1.610 . S
N402 C403 1.351 . S
C403 C397 1.428 . S
C403 N402 1.351 . S
C403 C404 1.434 . S
C404 C395 1.429 1_556 S
C404 N401 1.350 . S
C404 C403 1.434 . S
C405 C406 1.369 . S
C405 C407 1.419 . S
C405 H409 0.930 . S
C406 C405 1.369 . S
C406 C415 1.429 . S
C407 C405 1.419 . S
C407 C408 1.363 1_554 S
C407 H410 0.929 . S
C408 C407 1.363 1_556 S
C408 C414 1.428 . S
H409 C405 0.930 . S
H410 C407 0.929 . S
S411 N412 1.613 . S
S411 N413 1.610 . S
N412 S411 1.613 . S
N412 C415 1.350 1_556 S
N413 S411 1.610 . S
N413 C414 1.351 . S
C414 C408 1.428 . S
C414 N413 1.351 . S
C414 C415 1.434 1_556 S
C415 C406 1.429 . S
C415 N412 1.350 1_554 S
C415 C414 1.434 1_554 S
C416 C417 1.369 . S
C416 C418 1.419 . S
C416 H420 0.930 . S
C417 C416 1.369 . S
C417 C426 1.429 . S
C418 C416 1.419 . S
C418 C419 1.363 . S
C418 H421 0.929 . S
C419 C418 1.363 . S
C419 C425 1.428 . S
H420 C416 0.930 . S
H421 C418 0.929 . S
S422 N423 1.613 . S
S422 N424 1.610 . S
N423 S422 1.613 . S
N423 C426 1.350 . S
N424 S422 1.610 . S
N424 C425 1.351 . S
C425 C419 1.428 . S
C425 N424 1.351 . S
C425 C426 1.434 . S
C426 C417 1.429 . S
C426 N423 1.350 . S
C426 C425 1.434 . S
C427 C428 1.383 . S
C427 C429 1.419 . S
C427 H431 0.930 . S
C428 C427 1.383 . S
C428 C437 1.414 1_545 S
C429 C427 1.419 . S
C429 C430 1.363 . S
C429 H432 0.929 1_554 S
C430 C429 1.363 . S
C430 C436 1.428 1_545 S
H431 C427 0.930 . S
H432 C429 0.929 1_556 S
S433 N434 1.613 . S
S433 N435 1.610 . S
N434 S433 1.613 . S
N434 C437 1.350 . S
N435 S433 1.610 . S
N435 C436 1.351 . S
C436 C430 1.428 1_565 S
C436 N435 1.351 . S
C436 C437 1.434 . S
C437 C428 1.414 1_565 S
C437 N434 1.350 . S
C437 C436 1.434 . S
C438 C439 1.369 . S
C438 C440 1.419 . S
C438 H442 0.930 . S
C439 C438 1.369 . S
C439 C448 1.429 . S
C440 C438 1.419 . S
C440 C441 1.363 . S
C440 H443 0.929 . S
C441 C440 1.363 . S
C441 C447 1.428 1_554 S
H442 C438 0.930 . S
H443 C440 0.929 . S
S444 N445 1.613 1_556 S
S444 N446 1.610 . S
N445 S444 1.613 1_554 S
N445 C448 1.350 . S
N446 S444 1.610 . S
N446 C447 1.351 . S
C447 C441 1.428 1_556 S
C447 N446 1.351 . S
C447 C448 1.434 1_556 S
C448 C439 1.429 . S
C448 N445 1.350 . S
C448 C447 1.434 1_554 S
C449 C450 1.369 . S
C449 C451 1.419 . S
C449 H453 0.930 . S
C450 C449 1.369 . S
C450 C459 1.429 . S
C451 C449 1.419 . S
C451 C452 1.363 1_554 S
C451 H454 0.929 . S
C452 C451 1.363 1_556 S
C452 C458 1.428 . S
H453 C449 0.930 . S
H454 C451 0.929 . S
S455 N456 1.613 . S
S455 N457 1.610 . S
N456 S455 1.613 . S
N456 C459 1.350 1_556 S
N457 S455 1.610 . S
N457 C458 1.351 . S
C458 C452 1.428 . S
C458 N457 1.351 . S
C458 C459 1.434 1_556 S
C459 C450 1.429 . S
C459 N456 1.350 1_554 S
C459 C458 1.434 1_554 S
C460 C461 1.369 . S
C460 C462 1.419 . S
C460 H464 0.930 . S
C461 C460 1.369 . S
C461 C470 1.429 1_655 S
C462 C460 1.419 . S
C462 C463 1.363 . S
C462 H465 0.929 . S
C463 C462 1.363 . S
C463 C469 1.428 1_655 S
H464 C460 0.930 . S
H465 C462 0.929 . S
S466 N467 1.613 . S
S466 N468 1.610 . S
N467 S466 1.613 . S
N467 C470 1.350 . S
N468 S466 1.610 . S
N468 C469 1.351 . S
C469 C463 1.428 1_455 S
C469 N468 1.351 . S
C469 C470 1.434 . S
C470 C461 1.429 1_455 S
C470 N467 1.350 . S
C470 C469 1.434 . S
C471 C472 1.375 . S
C471 C473 1.419 . S
C471 H475 0.930 . S
C472 C471 1.375 . S
C472 C481 1.422 1_565 S
C473 C471 1.419 . S
C473 C474 1.363 . S
C473 H476 0.929 . S
C474 C473 1.363 . S
C474 C480 1.428 1_565 S
H475 C471 0.930 . S
H476 C473 0.929 . S
S477 N478 1.613 . S
S477 N479 1.610 . S
N478 S477 1.613 . S
N478 C481 1.350 . S
N479 S477 1.610 . S
N479 C480 1.351 . S
C480 C474 1.428 1_545 S
C480 N479 1.351 . S
C480 C481 1.434 . S
C481 C472 1.422 1_545 S
C481 N478 1.350 . S
C481 C480 1.434 . S
C482 C483 1.369 . S
C482 C484 1.419 . S
C482 H486 0.930 . S
C483 C482 1.369 . S
C483 C492 1.429 . S
C484 C482 1.419 . S
C484 C485 1.363 . S
C484 H487 0.929 . S
C485 C484 1.363 . S
C485 C491 1.428 . S
H486 C482 0.930 . S
H487 C484 0.929 . S
S488 N489 1.613 . S
S488 N490 1.610 . S
N489 S488 1.613 . S
N489 C492 1.350 . S
N490 S488 1.610 . S
N490 C491 1.351 . S
C491 C485 1.428 . S
C491 N490 1.351 . S
C491 C492 1.434 . S
C492 C483 1.429 . S
C492 N489 1.350 . S
C492 C491 1.434 . S
C493 C494 1.369 . S
C493 C495 1.419 . S
C493 H497 0.930 . S
C494 C493 1.369 . S
C494 C503 1.429 . S
C495 C493 1.419 . S
C495 C496 1.363 . S
C495 H498 0.929 . S
C496 C495 1.363 . S
C496 C502 1.428 . S
H497 C493 0.930 . S
H498 C495 0.929 . S
S499 N500 1.613 . S
S499 N501 1.610 . S
N500 S499 1.613 . S
N500 C503 1.350 . S
N501 S499 1.610 . S
N501 C502 1.351 . S
C502 C496 1.428 . S
C502 N501 1.351 . S
C502 C503 1.434 . S
C503 C494 1.429 . S
C503 N500 1.350 . S
C503 C502 1.434 . S
C241 C82 1.769 1_565 S
C243 C121 1.874 . S
C254 C142 1.533 . S
C252 C95 1.450 . S
C265 C176 1.470 . S
C263 C56 1.308 . S
C276 C210 1.554 . S
C274 C69 1.498 . S
C287 C112 1.875 . S
C285 C30 1.761 1_556 S
C296 C43 1.427 . S
C298 C151 1.537 . S
C307 C4 1.296 . S
C309 C185 1.472 . S
C318 C17 1.438 . S
C320 C219 1.556 . S
C331 C133 0.870 . S
C329 C74 0.830 . S
C342 C138 1.278 . S
C340 C87 1.246 1_565 S
C353 C172 1.191 . S
C351 C100 1.168 . S
C362 C61 0.628 . S
C364 C206 0.624 . S
C373 C22 0.841 . S
C375 C104 0.873 . S
C386 C167 1.279 . S
C384 C35 1.240 . S
C397 C201 1.187 . S
C395 C48 1.173 . S
C406 C9 0.625 . S
C408 C235 0.629 . S
C417 C73 1.339 . S
C419 C117 1.385 . S
C428 C86 1.714 . S
C430 C146 1.765 1_554 S
C441 C180 1.544 1_554 S
C439 C99 1.520 . S
C452 C214 1.608 . S
C450 C60 1.565 . S
C461 C21 1.344 . S
C463 C108 1.385 . S
C474 C155 1.764 . S
C472 C34 1.719 1_565 S
C485 C189 1.546 . S
C483 C47 1.516 . S
C494 C8 1.567 . S
C496 C223 1.609 . S
