# Generated by pormake.
# Topology zzz, (3,6)-cn, num edge types: 1
# Building blocks:
#     Node 0, Type 0, BuildingBlock: QEWDON_clean_linker_0, # of connection points: 3
#     Node 1, Type 0, BuildingBlock: QEWDON_clean_linker_0, # of connection points: 3
#     Node 2, Type 0, BuildingBlock: QEWDON_clean_linker_0, # of connection points: 3
#     Node 3, Type 0, BuildingBlock: QEWDON_clean_linker_0, # of connection points: 3
#     Node 4, Type 0, BuildingBlock: QEWDON_clean_linker_0, # of connection points: 3
#     Node 5, Type 0, BuildingBlock: QEWDON_clean_linker_0, # of connection points: 3
#     Node 6, Type 0, BuildingBlock: QEWDON_clean_linker_0, # of connection points: 3
#     Node 7, Type 0, BuildingBlock: QEWDON_clean_linker_0, # of connection points: 3
#     Node 8, Type 1, BuildingBlock: PAMTOO_clean_sbu_0, # of connection points: 6
#     Node 9, Type 1, BuildingBlock: PAMTOO_clean_sbu_0, # of connection points: 6
#     Node 10, Type 1, BuildingBlock: PAMTOO_clean_sbu_0, # of connection points: 6
#     Node 11, Type 1, BuildingBlock: PAMTOO_clean_sbu_0, # of connection points: 6
#     Edge 12, Type (0, 1), BuildingBlock: AJUNOK_clean_linker_0, # of connection points: 2
#     Edge 13, Type (0, 1), BuildingBlock: AJUNOK_clean_linker_0, # of connection points: 2
#     Edge 14, Type (0, 1), BuildingBlock: AJUNOK_clean_linker_0, # of connection points: 2
#     Edge 15, Type (0, 1), BuildingBlock: AJUNOK_clean_linker_0, # of connection points: 2
#     Edge 16, Type (0, 1), BuildingBlock: AJUNOK_clean_linker_0, # of connection points: 2
#     Edge 17, Type (0, 1), BuildingBlock: AJUNOK_clean_linker_0, # of connection points: 2
#     Edge 18, Type (0, 1), BuildingBlock: AJUNOK_clean_linker_0, # of connection points: 2
#     Edge 19, Type (0, 1), BuildingBlock: AJUNOK_clean_linker_0, # of connection points: 2
#     Edge 20, Type (0, 1), BuildingBlock: AJUNOK_clean_linker_0, # of connection points: 2
#     Edge 21, Type (0, 1), BuildingBlock: AJUNOK_clean_linker_0, # of connection points: 2
#     Edge 22, Type (0, 1), BuildingBlock: AJUNOK_clean_linker_0, # of connection points: 2
#     Edge 23, Type (0, 1), BuildingBlock: AJUNOK_clean_linker_0, # of connection points: 2
#     Edge 24, Type (0, 1), BuildingBlock: AJUNOK_clean_linker_0, # of connection points: 2
#     Edge 25, Type (0, 1), BuildingBlock: AJUNOK_clean_linker_0, # of connection points: 2
#     Edge 26, Type (0, 1), BuildingBlock: AJUNOK_clean_linker_0, # of connection points: 2
#     Edge 27, Type (0, 1), BuildingBlock: AJUNOK_clean_linker_0, # of connection points: 2
#     Edge 28, Type (0, 1), BuildingBlock: AJUNOK_clean_linker_0, # of connection points: 2
#     Edge 29, Type (0, 1), BuildingBlock: AJUNOK_clean_linker_0, # of connection points: 2
#     Edge 30, Type (0, 1), BuildingBlock: AJUNOK_clean_linker_0, # of connection points: 2
#     Edge 31, Type (0, 1), BuildingBlock: AJUNOK_clean_linker_0, # of connection points: 2
#     Edge 32, Type (0, 1), BuildingBlock: AJUNOK_clean_linker_0, # of connection points: 2
#     Edge 33, Type (0, 1), BuildingBlock: AJUNOK_clean_linker_0, # of connection points: 2
#     Edge 34, Type (0, 1), BuildingBlock: AJUNOK_clean_linker_0, # of connection points: 2
#     Edge 35, Type (0, 1), BuildingBlock: AJUNOK_clean_linker_0, # of connection points: 2
# Relax obj value: 0.204
# Max RMSD: 0.259
# Mean RMSD: 0.095
data_MOF--net-zzz--node1-PAMTOO_clean_sbu_0--node2-QEWDON_clean_linker_0--edge1-AJUNOK_clean_linker_0
_symmetry_space_group_name_H-M    P1
_symmetry_Int_Tables_number       1
_symmetry_cell_setting            triclinic
loop_
_symmetry_equiv_pos_as_xyz
'x, y, z'
_cell_length_a     46.268879
_cell_length_b     38.806177
_cell_length_c     11.595915
_cell_angle_alpha  92.208149
_cell_angle_beta   76.323542
_cell_angle_gamma 86.328152
loop_
_atom_site_label
_atom_site_type_symbol
_atom_site_fract_x
_atom_site_fract_y
_atom_site_fract_z
_atom_type_partial_charge
H0 H 0.81208 0.46605 0.57454 0.0
C1 C 0.82856 0.47869 0.60975 0.0
C2 C 0.85745 0.46257 0.59256 0.0
C3 C 0.82069 0.51117 0.67192 0.0
H4 H 0.90058 0.46709 0.63213 0.0
C5 C 0.87784 0.47827 0.64674 0.0
C6 C 0.8702 0.50935 0.71527 0.0
C7 C 0.84171 0.52616 0.72647 0.0
C8 C 0.79065 0.5292 0.67801 0.0
H9 H 0.8364 0.55116 0.77429 0.0
C10 C 0.77672 0.5267 0.58129 0.0
C11 C 0.74789 0.54269 0.58981 0.0
C12 C 0.7753 0.54838 0.78225 0.0
H13 H 0.78483 0.55035 0.85881 0.0
C14 C 0.74704 0.56456 0.79049 0.0
H15 H 0.78804 0.512 0.50015 0.0
C16 C 0.73344 0.56176 0.6956 0.0
H17 H 0.71145 0.5746 0.70509 0.0
H18 H 0.73545 0.57912 0.87156 0.0
H19 H 0.07762 0.73369 0.41201 0.0
C20 C 0.06914 0.75534 0.47517 0.0
C21 C 0.08539 0.78488 0.46734 0.0
C22 C 0.0421 0.75427 0.56303 0.0
H23 H 0.08689 0.83644 0.54064 0.0
C24 C 0.07499 0.81307 0.54852 0.0
C25 C 0.04829 0.81322 0.63384 0.0
C26 C 1.03159 0.78409 0.64074 0.0
C27 C 1.02465 0.72261 0.57317 0.0
H28 H 1.01042 0.78508 0.7056 0.0
C29 C 1.02558 0.69969 0.47375 0.0
C30 C 1.00882 0.67018 0.48493 0.0
C31 C 1.00683 0.71493 0.6842 0.0
H32 H 1.00627 0.73061 0.76398 0.0
C33 C 0.98943 0.68668 0.6948 0.0
H34 H 0.03934 0.70452 0.38756 0.0
C35 C 0.99002 0.66482 0.59609 0.0
H36 H 0.97564 0.64365 0.60734 0.0
H37 H 0.9754 0.68165 0.78045 0.0
H38 H 0.79266 0.03271 0.28491 0.0
C39 C 0.77452 0.03094 0.36226 0.0
C40 C 0.74591 0.0434 0.35611 0.0
C41 C 0.77918 1.01463 0.46407 0.0
H42 H 0.69917 0.04784 0.44078 0.0
C43 C 0.72135 0.03925 0.44952 0.0
C44 C 0.72411 0.02122 0.54782 0.0
C45 C 0.75319 1.00946 0.55701 0.0
C46 C 0.81067 1.00108 0.4672 0.0
H47 H 0.75515 0.99651 0.63591 0.0
C48 C 0.83704 1.0139 0.39475 0.0
C49 C 0.86617 0.99934 0.39453 0.0
C50 C 0.81471 0.97378 0.5398 0.0
H51 H 0.79597 0.962 0.59356 0.0
C52 C 0.84316 0.9601 0.5422 0.0
H53 H 0.83523 0.03535 0.33954 0.0
C54 C 0.8685 0.97255 0.47062 0.0
H55 H 0.8901 0.96041 0.47269 0.0
H56 H 0.84558 0.93904 0.59858 0.0
H57 H 0.53671 0.74057 0.17913 0.0
C58 C 0.5353 0.72849 0.26282 0.0
C59 C 0.52277 0.69645 0.27961 0.0
C60 C 0.54856 0.74317 0.34924 0.0
H61 H 0.51403 0.6542 0.39324 0.0
C62 C 0.52258 0.67964 0.3839 0.0
C63 C 0.53699 0.69218 0.46789 0.0
C64 C 0.54984 0.7242 0.45117 0.0
C65 C 0.56494 0.77532 0.32419 0.0
H66 H 0.56117 0.73394 0.51605 0.0
C67 C 0.55325 0.80475 0.27515 0.0
C68 C 0.57004 0.8342 0.25001 0.0
C69 C 0.59367 0.77577 0.34468 0.0
H70 H 0.60367 0.75362 0.37896 0.0
C71 C 0.61046 0.80413 0.31718 0.0
H72 H 0.53114 0.80497 0.25881 0.0
C73 C 0.59895 0.83285 0.26977 0.0
H74 H 0.61302 0.85404 0.24705 0.0
H75 H 0.63275 0.80371 0.3316 0.0
H76 H 0.26489 0.57269 0.20925 0.0
C77 C 0.24902 0.56265 0.16382 0.0
C78 C 0.22267 0.58295 0.16789 0.0
C79 C 0.25479 0.5299 0.10242 0.0
H80 H 0.18102 0.58596 0.11566 0.0
C81 C 0.202 0.57084 0.10851 0.0
C82 C 0.20696 0.53879 0.04507 0.0
C83 C 0.23325 0.51796 0.04341 0.0
C84 C 0.28373 0.50929 0.09767 0.0
H85 H 0.23684 0.49286 0.99619 0.0
C86 C 0.29826 0.51146 0.19269 0.0
C87 C 0.32693 0.49488 0.18255 0.0
C88 C 0.29819 0.48917 0.99416 0.0
H89 H 0.28834 0.48735 0.91846 0.0
C90 C 0.32621 0.47212 0.98477 0.0
H91 H 0.28768 0.52662 0.27369 0.0
C92 C 0.34056 0.4751 0.07747 0.0
H93 H 0.36244 0.46186 0.06696 0.0
H94 H 0.33713 0.45698 0.90409 0.0
H95 H 1.0061 0.30913 0.40936 0.0
C96 C 1.01514 0.28697 0.34926 0.0
C97 C 1.00165 0.25576 0.37023 0.0
C98 C 0.03955 0.28938 0.25005 0.0
H99 H 1.00202 0.20255 0.31047 0.0
C100 C 1.01227 0.22685 0.29302 0.0
C101 C 1.03579 0.22823 0.19402 0.0
C102 C 0.04984 0.25929 0.17284 0.0
C103 C 0.05335 0.32335 0.22554 0.0
H104 H 0.06849 0.25972 0.09657 0.0
C105 C 0.05204 0.34896 0.31783 0.0
C106 C 0.06296 0.38176 0.29302 0.0
C107 C 0.06685 0.33126 0.10824 0.0
H108 H 0.06763 0.31333 0.03366 0.0
C109 C 0.07877 0.36311 0.08414 0.0
H110 H 0.0425 0.34374 0.40941 0.0
C111 C 0.07683 0.38823 0.17552 0.0
H112 H 0.08529 0.41316 0.15373 0.0
H113 H 0.08892 0.36871 0.99339 0.0
H114 H 0.29196 0.97216 0.5123 0.0
C115 C 0.3088 0.98564 0.45353 0.0
C116 C 0.33872 0.98041 0.45957 0.0
C117 C 0.30109 1.00645 0.36624 0.0
H118 H 0.38404 0.99169 0.38654 0.0
C119 C 0.36094 0.99667 0.38216 0.0
C120 C 0.35475 1.01605 0.29155 0.0
C121 C 0.32468 0.0211 0.28344 0.0
C122 C 0.26928 1.00919 0.35252 0.0
H123 H 0.31987 0.03588 0.21203 0.0
C124 C 0.24363 1.01154 0.45098 0.0
C125 C 0.21418 1.01363 0.4321 0.0
C126 C 0.26453 1.00796 0.23704 0.0
H127 H 0.28311 1.005 0.15968 0.0
C128 C 0.23582 1.00938 0.21862 0.0
H129 H 0.24649 1.01255 0.54104 0.0
C130 C 0.21101 1.01217 0.3145 0.0
H131 H 0.18905 1.01301 0.29646 0.0
H132 H 0.23276 1.00811 0.12887 0.0
H133 H 0.55408 0.29118 0.55302 0.0
C134 C 0.54582 0.30559 0.48783 0.0
C135 C 0.54586 0.34187 0.49303 0.0
C136 C 0.53612 0.28823 0.39551 0.0
H137 H 0.53629 0.38891 0.4134 0.0
C138 C 0.53582 0.36093 0.40893 0.0
C139 C 0.52612 0.34495 0.31729 0.0
C140 C 0.52615 0.30861 0.31037 0.0
C141 C 0.53826 0.24918 0.38226 0.0
H142 H 0.51849 0.29655 0.23849 0.0
C143 C 0.53495 0.22762 0.48094 0.0
C144 C 0.53778 0.19103 0.4628 0.0
C145 C 0.54467 0.23298 0.26711 0.0
H146 H 0.54871 0.24791 0.18877 0.0
C147 C 0.54668 0.19711 0.24999 0.0
H148 H 0.53033 0.23898 0.57074 0.0
C149 C 0.5431 0.17635 0.34668 0.0
H150 H 0.54471 0.14854 0.33072 0.0
H151 H 0.55136 0.18527 0.1608 0.0
Dy152 Dy 1.02387 0.03249 0.8136 0.0
Dy153 Dy 0.05498 1.00825 0.02542 0.0
C154 C 0.09568 1.01768 0.76686 0.0
O155 O 1.0352 0.97596 0.76963 0.0
O156 O 0.04128 0.95929 0.95126 0.0
O157 O 1.02575 0.05801 0.64981 0.0
O158 O 0.98558 0.03514 0.73664 0.0
O159 O 1.00683 0.0243 0.11901 0.0
O160 O 0.98649 1.01689 0.95942 0.0
O161 O 0.05945 0.06555 0.01811 0.0
O162 O 1.02127 0.08026 0.93096 0.0
O163 O 0.0537 0.98283 0.18893 0.0
O164 O 0.09329 1.00705 0.10223 0.0
C165 C 0.03753 0.95188 0.84428 0.0
O166 O 0.07343 0.03765 0.74684 0.0
O167 O 0.09096 0.99753 0.8569 0.0
C168 C 0.98037 0.0873 0.64348 0.0
C169 C 0.95809 0.15511 0.62003 0.0
C170 C 0.95533 0.14225 0.73314 0.0
C171 C 0.96653 0.10855 0.74498 0.0
C172 C 0.98072 0.09906 0.53065 0.0
C173 C 0.96966 0.13272 0.51891 0.0
C174 C 0.99769 0.05497 0.65359 0.0
C175 C 0.9833 0.02062 0.0749 0.0
C176 C 0.04115 0.08909 0.98871 0.0
C177 C 0.09975 0.95495 0.19486 0.0
C178 C 0.12426 0.88811 0.21969 0.0
C179 C 0.11308 0.91096 0.31992 0.0
C180 C 0.10092 0.94411 0.30751 0.0
C181 C 0.11299 0.93326 0.09378 0.0
C182 C 0.12527 0.90008 0.10622 0.0
C183 C 0.08167 0.9868 0.18506 0.0
H184 H 0.9461 0.15896 0.81178 0.0
H185 H 0.9659 0.09979 0.83307 0.0
H186 H 0.9913 0.08302 0.45145 0.0
H187 H 0.97252 0.14215 0.43045 0.0
H188 H 0.11144 0.90225 0.40876 0.0
H189 H 0.09076 0.96045 0.38645 0.0
H190 H 0.11235 0.94123 0.00584 0.0
H191 H 0.13394 0.88301 0.02794 0.0
Dy192 Dy 0.53155 0.99285 0.78174 0.0
Dy193 Dy 0.54335 0.04192 0.99445 0.0
C194 C 0.5302 0.07549 0.7709 0.0
O195 O 0.58191 0.98717 0.75701 0.0
O196 O 0.58451 0.03983 0.84439 0.0
O197 O 0.51567 0.99006 0.6214 0.0
O198 O 0.53386 0.9436 0.68418 0.0
O199 O 0.55716 0.98686 0.02545 0.0
O200 O 0.52625 0.95857 0.93526 0.0
O201 O 0.49439 0.03551 0.06198 0.0
O202 O 0.48508 1.00939 0.89359 0.0
O203 O 0.55104 0.04804 0.17105 0.0
O204 O 0.55752 0.09013 0.05355 0.0
C205 C 0.59791 1.01245 0.77903 0.0
O206 O 0.54143 0.04579 0.71438 0.0
O207 O 0.5216 0.07752 0.88714 0.0
C208 C 0.49265 0.93937 0.59657 0.0
C209 C 0.43495 0.9235 0.58425 0.0
C210 C 0.45522 0.93374 0.48308 0.0
C211 C 0.4839 0.94152 0.48917 0.0
C212 C 0.47341 0.92606 0.69457 0.0
C213 C 0.44482 0.91784 0.68779 0.0
C214 C 0.51925 0.95641 0.61025 0.0
C215 C 0.54286 0.95928 0.01235 0.0
C216 C 0.47567 0.02346 0.00301 0.0
C217 C 0.59512 0.07632 0.15033 0.0
C218 C 0.65669 0.07407 0.14251 0.0
C219 C 0.64623 0.05548 0.05664 0.0
C220 C 0.61583 0.05539 0.06419 0.0
C221 C 0.60526 0.09658 0.2327 0.0
C222 C 0.63579 0.09511 0.22988 0.0
C223 C 0.56346 0.07703 0.14785 0.0
H224 H 0.44806 0.93863 0.40235 0.0
H225 H 0.4984 0.95178 0.41269 0.0
H226 H 0.4797 0.92412 0.77846 0.0
H227 H 0.42975 0.90908 0.76536 0.0
H228 H 0.66135 0.04017 0.98487 0.0
H229 H 0.60851 0.03844 0.0032 0.0
H230 H 0.58968 0.11275 0.30047 0.0
H231 H 0.64287 0.10966 0.29836 0.0
Dy232 Dy 0.5673 0.52143 0.92864 0.0
Dy233 Dy 0.49919 0.51317 0.86263 0.0
C234 C 0.52495 0.46129 0.02835 0.0
O235 O 0.57361 0.47307 0.81174 0.0
O236 O 0.53506 0.48492 0.72137 0.0
O237 O 0.58467 0.52809 0.08222 0.0
O238 O 0.61564 0.52647 0.90543 0.0
O239 O 0.51897 0.5544 0.74645 0.0
O240 O 0.56379 0.56291 0.79907 0.0
O241 O 0.49529 0.56505 0.95746 0.0
O242 O 0.52901 0.54833 0.06154 0.0
O243 O 0.47315 0.4792 0.78398 0.0
O244 O 0.45251 0.52807 0.86972 0.0
C245 C 0.55769 0.46479 0.73621 0.0
O246 O 0.55226 0.46989 0.98555 0.0
O247 O 0.50154 0.48132 0.01958 0.0
C248 C 0.63582 0.53577 0.08479 0.0
C249 C 0.67717 0.53901 0.23087 0.0
C250 C 0.64834 0.55568 0.2677 0.0
C251 C 0.628 0.55405 0.19602 0.0
C252 C 0.66513 0.52067 0.04407 0.0
C253 C 0.68562 0.52219 0.11658 0.0
C254 C 0.61214 0.52915 0.0212 0.0
C255 C 0.54285 0.57174 0.74274 0.0
C256 C 0.51077 0.57219 0.03486 0.0
C257 C 0.43264 0.50431 0.71237 0.0
C258 C 0.39699 0.50477 0.543 0.0
C259 C 0.42621 0.48884 0.51416 0.0
C260 C 0.44378 0.48857 0.5976 0.0
C261 C 0.40375 0.52093 0.74044 0.0
C262 C 0.38622 0.52138 0.65671 0.0
C263 C 0.44934 0.50055 0.807 0.0
H264 H 0.64117 0.5693 0.35403 0.0
H265 H 0.60569 0.56623 0.22974 0.0
H266 H 0.67173 0.50621 0.95905 0.0
H267 H 0.70751 0.50878 0.08547 0.0
H268 H 0.43527 0.47568 0.42783 0.0
H269 H 0.46584 0.47526 0.57287 0.0
H270 H 0.39444 0.53305 0.8283 0.0
H271 H 0.36417 0.53467 0.6814 0.0
Dy272 Dy 0.04493 0.56347 0.79559 0.0
Dy273 Dy 1.03157 0.49636 0.95783 0.0
C274 C 0.04695 0.48817 0.67732 0.0
O275 O 0.99959 0.55044 0.78062 0.0
O276 O 0.98593 0.51864 0.94558 0.0
O277 O 0.05416 0.58811 0.62905 0.0
O278 O 0.04924 0.61868 0.79273 0.0
O279 O 1.03607 0.54095 0.07788 0.0
O280 O 1.01803 0.58254 0.97554 0.0
O281 O 0.08171 0.49682 0.91335 0.0
O282 O 0.08581 0.5533 0.86368 0.0
O283 O 1.01518 0.47396 0.12556 0.0
O284 O 1.03466 0.44065 0.96873 0.0
C285 C 0.97919 0.53547 0.85724 0.0
O286 O 0.0621 0.51585 0.67421 0.0
O287 O 1.02834 0.48086 0.77533 0.0
C288 C 0.08197 0.63692 0.61951 0.0
C289 C 0.13716 0.65779 0.49272 0.0
C290 C 0.11436 0.65153 0.43441 0.0
C291 C 0.08706 0.64132 0.49737 0.0
C292 C 0.10317 0.64707 0.68062 0.0
C293 C 0.13046 0.65785 0.61763 0.0
C294 C 0.05602 0.6185 0.67716 0.0
C295 C 1.02408 0.57227 0.07401 0.0
C296 C 0.09741 0.52405 0.89291 0.0
C297 C 0.99292 0.42259 0.10557 0.0
C298 C 0.93779 0.39791 0.21615 0.0
C299 C 0.93938 0.42466 0.13617 0.0
C300 C 0.96664 0.43655 0.08071 0.0
C301 C 0.99218 0.39301 0.17118 0.0
C302 C 0.96483 0.38022 0.22414 0.0
C303 C 1.01949 0.44231 0.07916 0.0
H304 H 0.1185 0.65059 0.33846 0.0
H305 H 0.07089 0.634 0.44871 0.0
H306 H 0.09958 0.6445 0.77553 0.0
H307 H 0.14734 0.66305 0.66535 0.0
H308 H 0.91978 0.43951 0.12584 0.0
H309 H 0.96687 0.45896 0.02786 0.0
H310 H 1.01239 0.38134 0.18859 0.0
H311 H 0.9649 0.3586 0.28035 0.0
C312 C 0.1785 0.99215 0.61362 0.0
C313 C 0.18594 1.01764 0.53035 0.0
C314 C 0.14962 0.99257 0.69069 0.0
C315 C 0.12674 1.01834 0.68751 0.0
H316 H 0.1947 0.97092 0.61588 0.0
H317 H 0.14499 0.97191 0.75104 0.0
S318 S 0.13581 0.09298 0.49365 0.0
N319 N 0.16862 0.07083 0.45635 0.0
N320 N 0.11495 0.07155 0.59838 0.0
C321 C 0.13443 0.04465 0.60754 0.0
C322 C 0.16374 0.04431 0.53011 0.0
C323 C 0.50875 0.15805 0.63021 0.0
C324 C 0.53639 0.16675 0.5607 0.0
C325 C 0.5068 0.12925 0.70215 0.0
C326 C 0.53234 0.10773 0.70464 0.0
H327 H 0.4884 0.17259 0.62458 0.0
H328 H 0.48506 0.12287 0.75173 0.0
S329 S 0.61016 0.12171 0.55119 0.0
N330 N 0.59001 0.15332 0.5088 0.0
N331 N 0.58622 0.09907 0.64056 0.0
C332 C 0.5601 0.11709 0.63982 0.0
C333 C 0.56215 0.14658 0.56871 0.0
C334 C 0.37352 0.50727 0.24829 0.0
C335 C 0.34352 0.499 0.27819 0.0
C336 C 0.39033 0.50958 0.3343 0.0
C337 C 0.37799 0.50368 0.4545 0.0
H338 H 0.38418 0.512 0.15716 0.0
H339 H 0.41326 0.51611 0.30615 0.0
S340 S 0.30071 0.4798 0.57907 0.0
N341 N 0.30232 0.48428 0.43666 0.0
N342 N 0.33386 0.48825 0.59803 0.0
C343 C 0.34791 0.49558 0.4859 0.0
C344 C 0.33074 0.49335 0.39808 0.0
C345 C 0.08236 0.42925 0.40268 0.0
C346 C 0.05846 0.41001 0.38813 0.0
C347 C 0.07841 0.45574 0.49293 0.0
C348 C 0.05042 0.46391 0.57172 0.0
H349 H 0.10443 0.42324 0.34558 0.0
H350 H 0.09759 0.469 0.50372 0.0
S351 S 0.97971 0.42538 0.55856 0.0
N352 N 1.00519 0.40396 0.45147 0.0
N353 N 0.99776 0.45329 0.6205 0.0
C354 C 1.0261 0.44602 0.55413 0.0
C355 C 1.03011 0.41919 0.46267 0.0
C356 C 0.92047 1.01367 0.3567 0.0
C357 C 0.89461 1.01004 0.31334 0.0
C358 C 0.94859 1.01812 0.28043 0.0
C359 C 0.95252 0.01902 0.15619 0.0
H360 H 0.91914 1.01224 0.45089 0.0
H361 H 0.96757 0.01993 0.31939 0.0
S362 S 0.89176 1.01304 0.99661 0.0
N363 N 0.87485 1.0093 0.13733 0.0
N364 N 0.92704 1.01802 0.99467 0.0
C365 C 0.92656 1.01687 0.11209 0.0
C366 C 0.8979 1.0124 0.19008 0.0
C367 C 0.54677 0.86471 0.0998 0.0
C368 C 0.55879 0.86643 0.20066 0.0
C369 C 0.54086 0.89479 0.04142 0.0
C370 C 0.54695 0.9279 0.08071 0.0
H371 H 0.54311 0.8398 0.06252 0.0
H372 H 0.53246 0.89186 0.96227 0.0
S373 S 0.57462 0.94717 0.35018 0.0
N374 N 0.57321 0.90476 0.34493 0.0
N375 N 0.5631 0.96055 0.23414 0.0
C376 C 0.55756 0.93007 0.18484 0.0
C377 C 0.56316 0.89964 0.24494 0.0
C378 C 0.70176 0.53081 0.52101 0.0
C379 C 0.73179 0.53887 0.49232 0.0
C380 C 0.68482 0.53014 0.43541 0.0
C381 C 0.69699 0.53754 0.31643 0.0
H382 H 0.69104 0.52527 0.61132 0.0
H383 H 0.66179 0.52397 0.46326 0.0
S384 S 0.77485 0.55935 0.19304 0.0
N385 N 0.77329 0.55361 0.33481 0.0
N386 N 0.74141 0.5524 0.17369 0.0
C387 C 0.72729 0.54459 0.28514 0.0
C388 C 0.74466 0.54524 0.3729 0.0
C389 C 1.01277 0.6562 0.26671 0.0
C390 C 1.01131 0.64471 0.38167 0.0
C391 C 1.01615 0.6327 0.16817 0.0
C392 C 1.01862 0.59671 0.18011 0.0
H393 H 1.01117 0.68361 0.25256 0.0
H394 H 1.01745 0.6429 0.08158 0.0
S395 S 1.01543 0.55269 0.46047 0.0
N396 N 1.01166 0.59431 0.50058 0.0
N397 N 1.01862 0.55064 0.31582 0.0
C398 C 1.01681 0.58481 0.29422 0.0
C399 C 1.01294 0.60863 0.3947 0.0
C400 C 0.98838 0.24085 0.57759 0.0
C401 C 0.97823 0.25012 0.47729 0.0
C402 C 0.97768 0.21223 0.64006 0.0
C403 C 0.95631 0.19279 0.60444 0.0
H404 H 1.00826 0.25139 0.59407 0.0
H405 H 0.98951 0.20231 0.70343 0.0
S406 S 0.9147 0.21583 0.37914 0.0
N407 N 0.93942 0.24511 0.37028 0.0
N408 N 0.91943 0.19101 0.48685 0.0
C409 C 0.94162 0.20663 0.52195 0.0
C410 C 0.95228 0.23598 0.45964 0.0
C411 C 0.3587 0.96809 0.63254 0.0
C412 C 0.34952 0.95489 0.53361 0.0
C413 C 0.38504 0.95444 0.65888 0.0
C414 C 0.40268 0.92696 0.58802 0.0
H415 H 0.34824 0.99229 0.67775 0.0
H416 H 0.39359 0.96848 0.72446 0.0
S417 S 0.3839 0.87797 0.3391 0.0
N418 N 0.35646 0.9086 0.38076 0.0
N419 N 0.40609 0.88296 0.4302 0.0
C420 C 0.39121 0.91028 0.50106 0.0
C421 C 0.36426 0.92399 0.47504 0.0
C422 C 0.53235 0.37686 0.68045 0.0
C423 C 0.55519 0.36241 0.58556 0.0
C424 C 0.53424 0.40954 0.73217 0.0
C425 C 0.55932 0.42845 0.69273 0.0
H426 H 0.51143 0.36479 0.70499 0.0
H427 H 0.51522 0.42094 0.7992 0.0
S428 S 0.62733 0.39931 0.46245 0.0
N429 N 0.60516 0.36746 0.46437 0.0
N430 N 0.60917 0.42853 0.56616 0.0
C431 C 0.58375 0.41267 0.60813 0.0
C432 C 0.58164 0.37954 0.55389 0.0
C433 C 0.20987 0.60864 0.37295 0.0
C434 C 0.21334 0.61359 0.25143 0.0
C435 C 0.18787 0.62837 0.45734 0.0
C436 C 0.16867 0.6534 0.4224 0.0
H437 H 0.22098 0.58631 0.40194 0.0
H438 H 0.18315 0.62014 0.54716 0.0
S439 S 0.17829 0.6859 0.12058 0.0
N440 N 0.20293 0.65221 0.10382 0.0
N441 N 0.16185 0.68999 0.26387 0.0
C442 C 0.1766 0.6635 0.30461 0.0
C443 C 0.19887 0.64322 0.21831 0.0
C444 C 0.09896 0.79947 0.26046 0.0
C445 C 0.10909 0.79142 0.36185 0.0
C446 C 0.10766 0.82917 0.20058 0.0
C447 C 0.1276 0.85055 0.23752 0.0
H448 H 0.08001 0.7872 0.24206 0.0
H449 H 0.0952 0.83806 0.13831 0.0
S450 S 0.17017 0.83087 0.46277 0.0
N451 N 0.14733 0.79956 0.46983 0.0
N452 N 0.16405 0.85535 0.35621 0.0
C453 C 0.14291 0.83795 0.32004 0.0
C454 C 0.13405 0.80765 0.38068 0.0
C455 C 0.72694 0.08831 0.24406 0.0
C456 C 0.73884 0.05416 0.24525 0.0
C457 C 0.70216 0.09538 0.19657 0.0
C458 C 0.68833 0.06841 0.15094 0.0
H459 H 0.73397 0.10878 0.29502 0.0
H460 H 0.69205 0.12162 0.20672 0.0
S461 S 0.71723 0.9758 0.10611 0.0
N462 N 0.74054 0.99485 0.17098 0.0
N463 N 0.69279 1.00689 0.08928 0.0
C464 C 0.70332 0.03499 0.13466 0.0
C465 C 0.72923 0.02832 0.17881 0.0
C466 C 0.48972 0.66133 0.18933 0.0
C467 C 0.5179 0.67432 0.18058 0.0
C468 C 0.48704 0.629 0.13501 0.0
C469 C 0.51257 0.6084 0.07435 0.0
H470 H 0.47006 0.67473 0.24735 0.0
H471 H 0.46524 0.61895 0.14863 0.0
S472 S 0.59082 0.63256 0.01455 0.0
N473 N 0.57111 0.666 0.094 0.0
N474 N 0.56638 0.60475 0.99807 0.0
C475 C 0.54047 0.62232 0.05751 0.0
C476 C 0.54303 0.65557 0.10854 0.0
C477 C 0.89182 0.40936 0.52571 0.0
C478 C 0.86852 0.43202 0.5071 0.0
C479 C 0.91253 0.39227 0.42971 0.0
C480 C 0.90986 0.39617 0.31217 0.0
H481 H 0.89644 0.40833 0.61291 0.0
H482 H 0.93251 0.38009 0.44818 0.0
S483 S 0.84278 0.43396 0.22669 0.0
N484 N 0.83766 0.44603 0.36858 0.0
N485 N 0.87444 0.40946 0.19181 0.0
C486 C 0.88211 0.41015 0.29799 0.0
C487 C 0.86188 0.42941 0.39458 0.0
C488 C 0.06436 0.17097 0.12778 0.0
C489 C 0.04292 0.19666 0.11286 0.0
C490 C 0.06433 0.1366 0.08354 0.0
C491 C 0.04253 0.12643 0.02442 0.0
H492 H 0.08001 0.17696 0.18054 0.0
H493 H 0.0808 0.1176 0.10047 0.0
S494 S 0.98178 0.18494 0.96291 0.0
N495 N 1.00008 0.21028 0.03295 0.0
N496 N 0.99948 0.14618 0.95086 0.0
C497 C 1.02175 0.15251 0.00511 0.0
C498 C 1.0221 0.18741 0.049 0.0
C499 C 0.40072 0.04877 0.22686 0.0
C500 C 0.38142 0.02482 0.19855 0.0
C501 C 0.43061 0.04908 0.16066 0.0
C502 C 0.44281 0.02518 0.06359 0.0
H503 H 0.39318 0.06604 0.3054 0.0
H504 H 0.44457 0.06746 0.18875 0.0
S505 S 0.40199 0.9556 0.9597 0.0
N506 N 0.37692 0.97612 0.0698 0.0
N507 N 0.43262 0.97632 0.94546 0.0
C508 C 0.42339 1.00171 0.03278 0.0
C509 C 0.39295 1.00161 0.10008 0.0
C510 C 0.49751 0.39527 0.25665 0.0
C511 C 0.51984 0.36772 0.22437 0.0
C512 C 0.49798 0.42466 0.18871 0.0
C513 C 0.52127 0.42793 0.08783 0.0
H514 H 0.48087 0.39522 0.3399 0.0
H515 H 0.48127 0.44593 0.22026 0.0
S516 S 0.58284 0.36121 0.95771 0.0
N517 N 0.56382 0.34411 0.07804 0.0
N518 N 0.5653 0.39927 0.95189 0.0
C519 C 0.54245 0.39947 0.05024 0.0
C520 C 0.54154 0.36937 0.11795 0.0
C521 C 0.16526 0.502 0.02083 0.0
C522 C 0.18369 0.52889 0.98239 0.0
C523 C 0.13818 0.49909 0.98578 0.0
C524 C 0.12841 0.52322 0.9122 0.0
H525 H 0.17078 0.48456 0.08448 0.0
H526 H 0.12401 0.47908 0.0225 0.0
S527 S 0.17041 0.5962 0.7793 0.0
N528 N 0.19165 0.57799 0.85918 0.0
N529 N 0.14123 0.57302 0.79418 0.0
C530 C 0.14777 0.54879 0.86759 0.0
C531 C 0.17523 0.55145 0.90232 0.0
C532 C 1.02058 0.87151 0.67907 0.0
C533 C 0.039 0.84522 0.71145 0.0
C534 C 1.01948 0.90584 0.7251 0.0
C535 C 0.03672 0.91502 0.80528 0.0
H536 H 1.0085 0.86596 0.61188 0.0
H537 H 1.00573 0.92551 0.69489 0.0
S538 S 0.08933 0.85563 0.91244 0.0
N539 N 0.07501 0.83058 0.82584 0.0
N540 N 0.07285 0.89468 0.91362 0.0
C541 C 0.05437 0.88861 0.84112 0.0
C542 C 0.05554 0.85385 0.79386 0.0
C543 C 0.67793 0.0416 0.70329 0.0
C544 C 0.69516 1.01404 0.6314 0.0
C545 C 0.64699 0.04041 0.75076 0.0
C546 C 0.63138 1.01156 0.72931 0.0
H547 H 0.68815 0.0653 0.7169 0.0
H548 H 0.63508 0.06309 0.80177 0.0
S549 S 0.66604 0.93249 0.54488 0.0
N550 N 0.69415 0.95707 0.53963 0.0
N551 N 0.63639 0.95429 0.63084 0.0
C552 C 0.64853 0.98336 0.65991 0.0
C553 C 0.68015 0.98473 0.61091 0.0
C554 C 0.51461 0.65521 0.63132 0.0
C555 C 0.54043 0.66835 0.56276 0.0
C556 C 0.51603 0.6245 0.69018 0.0
C557 C 0.54337 0.60549 0.68462 0.0
H558 H 0.49285 0.66755 0.63255 0.0
H559 H 0.49526 0.61513 0.73832 0.0
S560 S 0.61796 0.63088 0.52948 0.0
N561 N 0.59451 0.66139 0.50029 0.0
N562 N 0.5973 0.60416 0.61516 0.0
C563 C 0.56964 0.61971 0.62445 0.0
C564 C 0.56814 0.65098 0.56265 0.0
C565 C 0.91813 0.5375 0.68638 0.0
C566 C 0.8939 0.52431 0.76471 0.0
C567 C 0.94473 0.5429 0.72034 0.0
C568 C 0.94872 0.53461 0.83337 0.0
H569 H 0.91708 0.54189 0.59567 0.0
H570 H 0.96284 0.55203 0.65457 0.0
S571 S 0.89007 0.50422 0.07741 0.0
N572 N 0.8741 0.50658 0.96441 0.0
N573 N 0.92419 0.51649 0.02881 0.0
C574 C 0.92385 0.52348 0.91529 0.0
C575 C 0.89651 0.51834 0.88074 0.0
loop_
_geom_bond_atom_site_label_1
_geom_bond_atom_site_label_2
_geom_bond_distance
_geom_bond_site_symmetry_2
_ccdc_geom_bond_type
H0 C1 0.949 . S
C1 H0 0.949 . S
C1 C2 1.395 . S
C1 C3 1.391 . S
C2 C1 1.395 . S
C2 C5 1.390 . S
C3 C1 1.391 . S
C3 C7 1.387 . S
C3 C8 1.491 . S
H4 C5 0.950 . S
C5 C2 1.390 . S
C5 H4 0.950 . S
C5 C6 1.378 . S
C6 C5 1.378 . S
C6 C7 1.409 . S
C7 C3 1.387 . S
C7 C6 1.409 . S
C7 H9 0.951 . S
C8 C3 1.491 . S
C8 C10 1.382 . S
C8 C12 1.404 . S
H9 C7 0.951 . S
C10 C8 1.382 . S
C10 C11 1.390 . S
C10 H15 0.949 . S
C11 C10 1.390 . S
C11 C16 1.399 . S
C12 C8 1.404 . S
C12 H13 0.950 . S
C12 C14 1.375 . S
H13 C12 0.950 . S
C14 C12 1.375 . S
C14 C16 1.382 . S
C14 H18 0.950 . S
H15 C10 0.949 . S
C16 C11 1.399 . S
C16 C14 1.382 . S
C16 H17 0.952 . S
H17 C16 0.952 . S
H18 C14 0.950 . S
H19 C20 0.949 . S
C20 H19 0.949 . S
C20 C21 1.401 . S
C20 C22 1.391 . S
C21 C20 1.401 . S
C21 C24 1.383 1_655 S
C22 C20 1.391 . S
C22 C26 1.387 . S
C22 C27 1.491 . S
H23 C24 0.950 . S
C24 C21 1.383 1_455 S
C24 H23 0.950 . S
C24 C25 1.381 1_455 S
C25 C24 1.381 1_655 S
C25 C26 1.420 . S
C26 C22 1.387 . S
C26 C25 1.420 . S
C26 H28 0.951 . S
C27 C22 1.491 . S
C27 C29 1.382 . S
C27 C31 1.404 . S
H28 C26 0.951 . S
C29 C27 1.382 . S
C29 C30 1.390 . S
C29 H34 0.949 1_655 S
C30 C29 1.390 . S
C30 C35 1.399 . S
C31 C27 1.404 . S
C31 H32 0.950 . S
C31 C33 1.375 . S
H32 C31 0.950 . S
C33 C31 1.375 . S
C33 C35 1.382 . S
C33 H37 0.950 . S
H34 C29 0.949 1_455 S
C35 C30 1.399 . S
C35 C33 1.382 . S
C35 H36 0.952 . S
H36 C35 0.952 . S
H37 C33 0.950 . S
H38 C39 0.949 . S
C39 H38 0.949 . S
C39 C40 1.395 . S
C39 C41 1.391 . S
C40 C39 1.395 . S
C40 C43 1.390 1_565 S
C41 C39 1.391 . S
C41 C45 1.387 . S
C41 C46 1.491 . S
H42 C43 0.950 . S
C43 C40 1.390 1_545 S
C43 H42 0.950 . S
C43 C44 1.376 1_545 S
C44 C43 1.376 1_565 S
C44 C45 1.411 . S
C45 C41 1.387 . S
C45 C44 1.411 . S
C45 H47 0.951 . S
C46 C41 1.491 . S
C46 C48 1.382 . S
C46 C50 1.404 . S
H47 C45 0.951 . S
C48 C46 1.382 . S
C48 C49 1.390 . S
C48 H53 0.949 1_565 S
C49 C48 1.390 . S
C49 C54 1.399 . S
C50 C46 1.404 . S
C50 H51 0.950 . S
C50 C52 1.375 . S
H51 C50 0.950 . S
C52 C50 1.375 . S
C52 C54 1.382 . S
C52 H56 0.950 . S
H53 C48 0.949 1_545 S
C54 C49 1.399 . S
C54 C52 1.382 . S
C54 H55 0.952 . S
H55 C54 0.952 . S
H56 C52 0.950 . S
H57 C58 0.949 . S
C58 H57 0.949 . S
C58 C59 1.395 . S
C58 C60 1.391 . S
C59 C58 1.395 . S
C59 C62 1.390 . S
C60 C58 1.391 . S
C60 C64 1.387 . S
C60 C65 1.491 . S
H61 C62 0.950 . S
C62 C59 1.390 . S
C62 H61 0.950 . S
C62 C63 1.378 . S
C63 C62 1.378 . S
C63 C64 1.409 . S
C64 C60 1.387 . S
C64 C63 1.409 . S
C64 H66 0.951 . S
C65 C60 1.491 . S
C65 C67 1.382 . S
C65 C69 1.404 . S
H66 C64 0.951 . S
C67 C65 1.382 . S
C67 C68 1.390 . S
C67 H72 0.949 . S
C68 C67 1.390 . S
C68 C73 1.399 . S
C69 C65 1.404 . S
C69 H70 0.950 . S
C69 C71 1.375 . S
H70 C69 0.950 . S
C71 C69 1.375 . S
C71 C73 1.382 . S
C71 H75 0.950 . S
H72 C67 0.949 . S
C73 C68 1.399 . S
C73 C71 1.382 . S
C73 H74 0.952 . S
H74 C73 0.952 . S
H75 C71 0.950 . S
H76 C77 0.949 . S
C77 H76 0.949 . S
C77 C78 1.395 . S
C77 C79 1.391 1_554 S
C78 C77 1.395 . S
C78 C81 1.390 1_554 S
C79 C77 1.391 1_556 S
C79 C83 1.387 . S
C79 C84 1.491 . S
H80 C81 0.950 . S
C81 C78 1.390 1_556 S
C81 H80 0.950 . S
C81 C82 1.378 . S
C82 C81 1.378 . S
C82 C83 1.409 . S
C83 C79 1.387 . S
C83 C82 1.409 . S
C83 H85 0.951 . S
C84 C79 1.491 . S
C84 C86 1.382 1_556 S
C84 C88 1.404 . S
H85 C83 0.951 . S
C86 C84 1.382 1_554 S
C86 C87 1.390 . S
C86 H91 0.949 . S
C87 C86 1.390 . S
C87 C92 1.399 1_554 S
C88 C84 1.404 . S
C88 H89 0.950 . S
C88 C90 1.375 . S
H89 C88 0.950 . S
C90 C88 1.375 . S
C90 C92 1.382 . S
C90 H94 0.950 . S
H91 C86 0.949 . S
C92 C87 1.399 1_556 S
C92 C90 1.382 . S
C92 H93 0.952 . S
H93 C92 0.952 . S
H94 C90 0.950 . S
H95 C96 0.949 . S
C96 H95 0.949 . S
C96 C97 1.395 . S
C96 C98 1.383 1_455 S
C97 C96 1.395 . S
C97 C100 1.390 . S
C98 C96 1.383 1_655 S
C98 C102 1.393 1_655 S
C98 C103 1.495 . S
H99 C100 0.950 . S
C100 C97 1.390 . S
C100 H99 0.950 . S
C100 C101 1.378 . S
C101 C100 1.378 . S
C101 C102 1.409 . S
C102 C98 1.393 1_455 S
C102 C101 1.409 . S
C102 H104 0.949 1_454 S
C103 C98 1.495 . S
C103 C105 1.382 1_655 S
C103 C107 1.404 . S
H104 C102 0.949 1_656 S
C105 C103 1.382 1_455 S
C105 C106 1.386 1_455 S
C105 H110 0.949 . S
C106 C105 1.386 1_655 S
C106 C111 1.422 . S
C107 C103 1.404 . S
C107 H108 0.950 . S
C107 C109 1.375 . S
H108 C107 0.950 . S
C109 C107 1.375 . S
C109 C111 1.382 . S
C109 H113 0.950 . S
H110 C105 0.949 . S
C111 C106 1.422 . S
C111 C109 1.382 . S
C111 H112 0.952 . S
H112 C111 0.952 . S
H113 C109 0.950 . S
H114 C115 0.949 . S
C115 H114 0.949 . S
C115 C116 1.394 . S
C115 C117 1.391 . S
C116 C115 1.394 . S
C116 C119 1.391 1_565 S
C117 C115 1.391 . S
C117 C121 1.387 . S
C117 C122 1.491 . S
H118 C119 0.950 . S
C119 C116 1.391 1_545 S
C119 H118 0.950 . S
C119 C120 1.377 1_545 S
C120 C119 1.377 1_565 S
C120 C121 1.412 . S
C121 C117 1.387 . S
C121 C120 1.412 . S
C121 H123 0.951 . S
C122 C117 1.491 . S
C122 C124 1.382 . S
C122 C126 1.404 . S
H123 C121 0.951 . S
C124 C122 1.382 . S
C124 C125 1.390 . S
C124 H129 0.949 1_565 S
C125 C124 1.390 . S
C125 C130 1.399 . S
C126 C122 1.404 . S
C126 H127 0.950 . S
C126 C128 1.375 . S
H127 C126 0.950 . S
C128 C126 1.375 . S
C128 C130 1.382 . S
C128 H132 0.950 . S
H129 C124 0.949 1_545 S
C130 C125 1.399 . S
C130 C128 1.382 . S
C130 H131 0.952 . S
H131 C130 0.952 . S
H132 C128 0.950 . S
H133 C134 0.949 . S
C134 H133 0.949 . S
C134 C135 1.395 . S
C134 C136 1.391 . S
C135 C134 1.395 . S
C135 C138 1.390 . S
C136 C134 1.391 . S
C136 C140 1.387 . S
C136 C141 1.491 . S
H137 C138 0.950 . S
C138 C135 1.390 . S
C138 H137 0.950 . S
C138 C139 1.378 . S
C139 C138 1.378 . S
C139 C140 1.409 . S
C140 C136 1.387 . S
C140 C139 1.409 . S
C140 H142 0.951 . S
C141 C136 1.491 . S
C141 C143 1.382 . S
C141 C145 1.404 . S
H142 C140 0.951 . S
C143 C141 1.382 . S
C143 C144 1.390 . S
C143 H148 0.949 . S
C144 C143 1.390 . S
C144 C149 1.399 . S
C145 C141 1.404 . S
C145 H146 0.950 . S
C145 C147 1.375 . S
H146 C145 0.950 . S
C147 C145 1.375 . S
C147 C149 1.382 . S
C147 H151 0.950 . S
H148 C143 0.949 . S
C149 C144 1.399 . S
C149 C147 1.382 . S
C149 H150 0.952 . S
H150 C149 0.952 . S
H151 C147 0.950 . S
Dy152 O155 2.307 1_545 S
Dy152 O157 2.395 1_655 S
Dy152 O158 2.379 . S
Dy152 O160 2.339 . S
Dy152 O162 2.298 . S
Dy152 O166 2.275 1_655 S
Dy152 C174 2.738 . S
Dy153 O156 2.298 1_554 S
Dy153 O159 2.275 1_454 S
Dy153 O161 2.307 1_565 S
Dy153 O163 2.395 1_455 S
Dy153 O164 2.379 . S
Dy153 O167 2.339 1_554 S
Dy153 C183 2.738 . S
C154 O166 1.254 1_565 S
C154 O167 1.257 . S
O155 Dy152 2.307 1_565 S
O155 C165 1.266 . S
O156 Dy153 2.298 1_556 S
O156 C165 1.236 1_455 S
O157 Dy152 2.395 1_455 S
O157 C174 1.255 1_455 S
O158 Dy152 2.379 . S
O158 C174 1.249 . S
O159 Dy153 2.275 1_656 S
O159 C175 1.254 1_565 S
O160 Dy152 2.339 . S
O160 C175 1.257 . S
O161 Dy153 2.307 1_545 S
O161 C176 1.266 1_554 S
O162 Dy152 2.298 . S
O162 C176 1.236 1_655 S
O163 Dy153 2.395 1_655 S
O163 C183 1.255 1_655 S
O164 Dy153 2.379 . S
O164 C183 1.249 . S
C165 O155 1.266 . S
C165 O156 1.236 1_655 S
O166 Dy152 2.275 1_455 S
O166 C154 1.254 1_545 S
O167 Dy153 2.339 1_556 S
O167 C154 1.257 . S
C168 C171 1.344 1_655 S
C168 C172 1.328 . S
C168 C174 1.516 . S
C169 C170 1.304 1_655 S
C169 C173 1.323 . S
C170 C169 1.304 1_455 S
C170 C171 1.371 . S
C170 H184 0.930 . S
C171 C168 1.344 1_455 S
C171 C170 1.371 . S
C171 H185 0.931 . S
C172 C168 1.328 . S
C172 C173 1.433 . S
C172 H186 0.931 . S
C173 C169 1.323 . S
C173 C172 1.433 . S
C173 H187 0.933 . S
C174 Dy152 2.738 . S
C174 O157 1.255 1_655 S
C174 O158 1.249 . S
C174 C168 1.516 . S
C175 O159 1.254 1_545 S
C175 O160 1.257 . S
C176 O161 1.266 1_556 S
C176 O162 1.236 1_455 S
C177 C180 1.344 1_455 S
C177 C181 1.328 . S
C177 C183 1.516 . S
C178 C179 1.304 1_455 S
C178 C182 1.323 . S
C179 C178 1.304 1_655 S
C179 C180 1.371 . S
C179 H188 0.930 . S
C180 C177 1.344 1_655 S
C180 C179 1.371 . S
C180 H189 0.931 . S
C181 C177 1.328 . S
C181 C182 1.433 . S
C181 H190 0.931 . S
C182 C178 1.323 . S
C182 C181 1.433 . S
C182 H191 0.933 . S
C183 Dy153 2.738 . S
C183 O163 1.255 1_455 S
C183 O164 1.249 . S
C183 C177 1.516 . S
H184 C170 0.930 . S
H185 C171 0.931 . S
H186 C172 0.931 . S
H187 C173 0.933 . S
H188 C179 0.930 . S
H189 C180 0.931 . S
H190 C181 0.931 . S
H191 C182 0.933 . S
Dy192 O195 2.307 . S
Dy192 O197 2.395 1_565 S
Dy192 O198 2.379 . S
Dy192 O200 2.339 . S
Dy192 O202 2.298 . S
Dy192 O206 2.275 1_565 S
Dy192 C214 2.738 . S
Dy193 O196 2.298 1_554 S
Dy193 O199 2.275 1_544 S
Dy193 O201 2.307 . S
Dy193 O203 2.395 1_545 S
Dy193 O204 2.379 . S
Dy193 O207 2.339 1_554 S
Dy193 C223 2.738 . S
C194 O206 1.254 . S
C194 O207 1.257 . S
O195 Dy192 2.307 . S
O195 C205 1.266 . S
O196 Dy193 2.298 1_556 S
O196 C205 1.236 1_545 S
O197 Dy192 2.395 1_545 S
O197 C214 1.255 1_545 S
O198 Dy192 2.379 . S
O198 C214 1.249 . S
O199 Dy193 2.275 1_566 S
O199 C215 1.254 . S
O200 Dy192 2.339 . S
O200 C215 1.257 . S
O201 Dy193 2.307 . S
O201 C216 1.266 1_554 S
O202 Dy192 2.298 . S
O202 C216 1.236 1_565 S
O203 Dy193 2.395 1_565 S
O203 C223 1.255 1_565 S
O204 Dy193 2.379 . S
O204 C223 1.249 . S
C205 O195 1.266 . S
C205 O196 1.236 1_565 S
O206 Dy192 2.275 1_545 S
O206 C194 1.254 . S
O207 Dy193 2.339 1_556 S
O207 C194 1.257 . S
C208 C211 1.344 1_565 S
C208 C212 1.328 . S
C208 C214 1.516 . S
C209 C210 1.304 1_565 S
C209 C213 1.323 . S
C210 C209 1.304 1_545 S
C210 C211 1.371 . S
C210 H224 0.930 . S
C211 C208 1.344 1_545 S
C211 C210 1.371 . S
C211 H225 0.931 . S
C212 C208 1.328 . S
C212 C213 1.433 . S
C212 H226 0.931 . S
C213 C209 1.323 . S
C213 C212 1.433 . S
C213 H227 0.933 . S
C214 Dy192 2.738 . S
C214 O197 1.255 1_565 S
C214 O198 1.249 . S
C214 C208 1.516 . S
C215 O199 1.254 . S
C215 O200 1.257 . S
C216 O201 1.266 1_556 S
C216 O202 1.236 1_545 S
C217 C220 1.344 1_545 S
C217 C221 1.328 . S
C217 C223 1.516 . S
C218 C219 1.304 1_545 S
C218 C222 1.323 . S
C219 C218 1.304 1_565 S
C219 C220 1.371 . S
C219 H228 0.930 . S
C220 C217 1.344 1_565 S
C220 C219 1.371 . S
C220 H229 0.931 . S
C221 C217 1.328 . S
C221 C222 1.433 . S
C221 H230 0.931 . S
C222 C218 1.323 . S
C222 C221 1.433 . S
C222 H231 0.933 . S
C223 Dy193 2.738 . S
C223 O203 1.255 1_545 S
C223 O204 1.249 . S
C223 C217 1.516 . S
H224 C210 0.930 . S
H225 C211 0.931 . S
H226 C212 0.931 . S
H227 C213 0.933 . S
H228 C219 0.930 . S
H229 C220 0.931 . S
H230 C221 0.931 . S
H231 C222 0.933 . S
Dy232 O235 2.307 . S
Dy232 O237 2.395 1_556 S
Dy232 O238 2.379 . S
Dy232 O240 2.339 . S
Dy232 O242 2.298 . S
Dy232 O246 2.275 . S
Dy232 C254 2.738 . S
Dy233 O236 2.298 . S
Dy233 O239 2.275 . S
Dy233 O241 2.307 1_556 S
Dy233 O243 2.395 . S
Dy233 O244 2.379 . S
Dy233 O247 2.339 1_556 S
Dy233 C263 2.738 . S
C234 O246 1.254 1_554 S
C234 O247 1.257 . S
O235 Dy232 2.307 . S
O235 C245 1.266 . S
O236 Dy233 2.298 . S
O236 C245 1.236 . S
O237 Dy232 2.395 1_554 S
O237 C254 1.255 1_554 S
O238 Dy232 2.379 . S
O238 C254 1.249 . S
O239 Dy233 2.275 . S
O239 C255 1.254 . S
O240 Dy232 2.339 . S
O240 C255 1.257 . S
O241 Dy233 2.307 1_554 S
O241 C256 1.266 . S
O242 Dy232 2.298 . S
O242 C256 1.236 1_556 S
O243 Dy233 2.395 . S
O243 C263 1.255 . S
O244 Dy233 2.379 . S
O244 C263 1.249 . S
C245 O235 1.266 . S
C245 O236 1.236 . S
O246 Dy232 2.275 . S
O246 C234 1.254 1_556 S
O247 Dy233 2.339 1_554 S
O247 C234 1.257 . S
C248 C251 1.344 . S
C248 C252 1.328 . S
C248 C254 1.516 1_554 S
C249 C250 1.304 . S
C249 C253 1.323 . S
C250 C249 1.304 . S
C250 C251 1.371 . S
C250 H264 0.930 . S
C251 C248 1.344 . S
C251 C250 1.371 . S
C251 H265 0.931 . S
C252 C248 1.328 . S
C252 C253 1.433 . S
C252 H266 0.931 1_554 S
C253 C249 1.323 . S
C253 C252 1.433 . S
C253 H267 0.933 . S
C254 Dy232 2.738 . S
C254 O237 1.255 1_556 S
C254 O238 1.249 . S
C254 C248 1.516 1_556 S
C255 O239 1.254 . S
C255 O240 1.257 . S
C256 O241 1.266 . S
C256 O242 1.236 1_554 S
C257 C260 1.344 . S
C257 C261 1.328 . S
C257 C263 1.516 . S
C258 C259 1.304 . S
C258 C262 1.323 . S
C259 C258 1.304 . S
C259 C260 1.371 . S
C259 H268 0.930 . S
C260 C257 1.344 . S
C260 C259 1.371 . S
C260 H269 0.931 . S
C261 C257 1.328 . S
C261 C262 1.433 . S
C261 H270 0.931 . S
C262 C258 1.323 . S
C262 C261 1.433 . S
C262 H271 0.933 . S
C263 Dy233 2.738 . S
C263 O243 1.255 . S
C263 O244 1.249 . S
C263 C257 1.516 . S
H264 C250 0.930 . S
H265 C251 0.931 . S
H266 C252 0.931 1_556 S
H267 C253 0.933 . S
H268 C259 0.930 . S
H269 C260 0.931 . S
H270 C261 0.931 . S
H271 C262 0.933 . S
Dy272 O275 2.307 1_455 S
Dy272 O277 2.395 . S
Dy272 O278 2.379 . S
Dy272 O280 2.339 . S
Dy272 O282 2.298 . S
Dy272 O286 2.275 . S
Dy272 C294 2.738 . S
Dy273 O276 2.298 1_554 S
Dy273 O279 2.275 1_554 S
Dy273 O281 2.307 1_654 S
Dy273 O283 2.395 . S
Dy273 O284 2.379 . S
Dy273 O287 2.339 1_554 S
Dy273 C303 2.738 . S
C274 O286 1.254 . S
C274 O287 1.257 1_455 S
O275 Dy272 2.307 1_655 S
O275 C285 1.266 . S
O276 Dy273 2.298 1_556 S
O276 C285 1.236 . S
O277 Dy272 2.395 . S
O277 C294 1.255 . S
O278 Dy272 2.379 . S
O278 C294 1.249 . S
O279 Dy273 2.275 1_556 S
O279 C295 1.254 1_655 S
O280 Dy272 2.339 . S
O280 C295 1.257 . S
O281 Dy273 2.307 1_456 S
O281 C296 1.266 . S
O282 Dy272 2.298 . S
O282 C296 1.236 . S
O283 Dy273 2.395 . S
O283 C303 1.255 . S
O284 Dy273 2.379 . S
O284 C303 1.249 . S
C285 O275 1.266 . S
C285 O276 1.236 . S
O286 Dy272 2.275 . S
O286 C274 1.254 . S
O287 Dy273 2.339 1_556 S
O287 C274 1.257 1_655 S
C288 C291 1.344 . S
C288 C292 1.328 . S
C288 C294 1.516 . S
C289 C290 1.304 . S
C289 C293 1.323 . S
C290 C289 1.304 . S
C290 C291 1.371 . S
C290 H304 0.930 . S
C291 C288 1.344 . S
C291 C290 1.371 . S
C291 H305 0.931 . S
C292 C288 1.328 . S
C292 C293 1.433 . S
C292 H306 0.931 . S
C293 C289 1.323 . S
C293 C292 1.433 . S
C293 H307 0.933 . S
C294 Dy272 2.738 . S
C294 O277 1.255 . S
C294 O278 1.249 . S
C294 C288 1.516 . S
C295 O279 1.254 1_455 S
C295 O280 1.257 . S
C296 O281 1.266 . S
C296 O282 1.236 . S
C297 C300 1.344 . S
C297 C301 1.328 . S
C297 C303 1.516 . S
C298 C299 1.304 . S
C298 C302 1.323 . S
C299 C298 1.304 . S
C299 C300 1.371 . S
C299 H308 0.930 . S
C300 C297 1.344 . S
C300 C299 1.371 . S
C300 H309 0.931 . S
C301 C297 1.328 . S
C301 C302 1.433 . S
C301 H310 0.931 . S
C302 C298 1.323 . S
C302 C301 1.433 . S
C302 H311 0.933 . S
C303 Dy273 2.738 . S
C303 O283 1.255 . S
C303 O284 1.249 . S
C303 C297 1.516 . S
H304 C290 0.930 . S
H305 C291 0.931 . S
H306 C292 0.931 . S
H307 C293 0.933 . S
H308 C299 0.930 . S
H309 C300 0.931 . S
H310 C301 0.931 . S
H311 C302 0.933 . S
C312 C313 1.341 1_565 S
C312 C314 1.419 . S
C312 H316 0.930 . S
C313 C312 1.341 1_545 S
C313 C322 1.454 . S
C314 C312 1.419 . S
C314 C315 1.363 1_565 S
C314 H317 0.929 . S
C315 C314 1.363 1_545 S
C315 C321 1.428 . S
H316 C312 0.930 . S
H317 C314 0.929 . S
S318 N319 1.613 . S
S318 N320 1.610 . S
N319 S318 1.613 . S
N319 C322 1.350 . S
N320 S318 1.610 . S
N320 C321 1.351 . S
C321 C315 1.428 . S
C321 N320 1.351 . S
C321 C322 1.434 . S
C322 C313 1.454 . S
C322 N319 1.350 . S
C322 C321 1.434 . S
C323 C324 1.369 . S
C323 C325 1.419 . S
C323 H327 0.930 . S
C324 C323 1.369 . S
C324 C333 1.429 . S
C325 C323 1.419 . S
C325 C326 1.363 . S
C325 H328 0.929 . S
C326 C325 1.363 . S
C326 C332 1.428 . S
H327 C323 0.930 . S
H328 C325 0.929 . S
S329 N330 1.613 . S
S329 N331 1.610 . S
N330 S329 1.613 . S
N330 C333 1.350 . S
N331 S329 1.610 . S
N331 C332 1.351 . S
C332 C326 1.428 . S
C332 N331 1.351 . S
C332 C333 1.434 . S
C333 C324 1.429 . S
C333 N330 1.350 . S
C333 C332 1.434 . S
C334 C335 1.369 . S
C334 C336 1.419 . S
C334 H338 0.930 . S
C335 C334 1.369 . S
C335 C344 1.429 . S
C336 C334 1.419 . S
C336 C337 1.363 . S
C336 H339 0.929 . S
C337 C336 1.363 . S
C337 C343 1.428 . S
H338 C334 0.930 . S
H339 C336 0.929 . S
S340 N341 1.613 . S
S340 N342 1.610 . S
N341 S340 1.613 . S
N341 C344 1.350 . S
N342 S340 1.610 . S
N342 C343 1.351 . S
C343 C337 1.428 . S
C343 N342 1.351 . S
C343 C344 1.434 . S
C344 C335 1.429 . S
C344 N341 1.350 . S
C344 C343 1.434 . S
C345 C346 1.369 . S
C345 C347 1.419 . S
C345 H349 0.930 1_455 S
C346 C345 1.369 . S
C346 C355 1.429 . S
C347 C345 1.419 . S
C347 C348 1.363 . S
C347 H350 0.929 1_455 S
C348 C347 1.363 . S
C348 C354 1.428 . S
H349 C345 0.930 1_655 S
H350 C347 0.929 1_655 S
S351 N352 1.613 . S
S351 N353 1.610 . S
N352 S351 1.613 . S
N352 C355 1.350 . S
N353 S351 1.610 . S
N353 C354 1.351 . S
C354 C348 1.428 . S
C354 N353 1.351 . S
C354 C355 1.434 . S
C355 C346 1.429 . S
C355 N352 1.350 . S
C355 C354 1.434 . S
C356 C357 1.363 1_545 S
C356 C358 1.419 . S
C356 H360 0.930 . S
C357 C356 1.363 1_565 S
C357 C366 1.433 . S
C358 C356 1.419 . S
C358 C359 1.363 1_545 S
C358 H361 0.929 . S
C359 C358 1.363 1_565 S
C359 C365 1.428 . S
H360 C356 0.930 . S
H361 C358 0.929 . S
S362 N363 1.613 1_556 S
S362 N364 1.610 . S
N363 S362 1.613 1_554 S
N363 C366 1.350 . S
N364 S362 1.610 . S
N364 C365 1.351 1_556 S
C365 C359 1.428 . S
C365 N364 1.351 1_554 S
C365 C366 1.434 . S
C366 C357 1.433 . S
C366 N363 1.350 . S
C366 C365 1.434 . S
C367 C368 1.369 1_556 S
C367 C369 1.419 . S
C367 H371 0.930 . S
C368 C367 1.369 1_554 S
C368 C377 1.429 . S
C369 C367 1.419 . S
C369 C370 1.359 1_556 S
C369 H372 0.929 . S
C370 C369 1.359 1_554 S
C370 C376 1.438 . S
H371 C367 0.930 . S
H372 C369 0.929 . S
S373 N374 1.613 . S
S373 N375 1.610 . S
N374 S373 1.613 . S
N374 C377 1.350 . S
N375 S373 1.610 . S
N375 C376 1.351 . S
C376 C370 1.438 . S
C376 N375 1.351 . S
C376 C377 1.434 . S
C377 C368 1.429 . S
C377 N374 1.350 . S
C377 C376 1.434 . S
C378 C379 1.369 . S
C378 C380 1.419 . S
C378 H382 0.930 . S
C379 C378 1.369 . S
C379 C388 1.429 . S
C380 C378 1.419 . S
C380 C381 1.363 . S
C380 H383 0.929 . S
C381 C380 1.363 . S
C381 C387 1.428 . S
H382 C378 0.930 . S
H383 C380 0.929 . S
S384 N385 1.613 . S
S384 N386 1.610 . S
N385 S384 1.613 . S
N385 C388 1.350 . S
N386 S384 1.610 . S
N386 C387 1.351 . S
C387 C381 1.428 . S
C387 N386 1.351 . S
C387 C388 1.434 . S
C388 C379 1.429 . S
C388 N385 1.350 . S
C388 C387 1.434 . S
C389 C390 1.362 1_455 S
C389 C391 1.419 . S
C389 H393 0.930 . S
C390 C389 1.362 1_655 S
C390 C399 1.442 . S
C391 C389 1.419 . S
C391 C392 1.348 1_455 S
C391 H394 0.929 . S
C392 C391 1.348 1_655 S
C392 C398 1.437 . S
H393 C389 0.930 . S
H394 C391 0.929 . S
S395 N396 1.613 . S
S395 N397 1.610 . S
N396 S395 1.613 . S
N396 C399 1.350 . S
N397 S395 1.610 . S
N397 C398 1.351 . S
C398 C392 1.437 . S
C398 N397 1.351 . S
C398 C399 1.434 . S
C399 C390 1.442 . S
C399 N396 1.350 . S
C399 C398 1.434 . S
C400 C401 1.369 . S
C400 C402 1.419 . S
C400 H404 0.930 . S
C401 C400 1.369 . S
C401 C410 1.429 1_455 S
C402 C400 1.419 . S
C402 C403 1.363 1_455 S
C402 H405 0.929 . S
C403 C402 1.363 1_655 S
C403 C409 1.428 . S
H404 C400 0.930 . S
H405 C402 0.929 . S
S406 N407 1.613 . S
S406 N408 1.610 . S
N407 S406 1.613 . S
N407 C410 1.350 . S
N408 S406 1.610 . S
N408 C409 1.351 . S
C409 C403 1.428 . S
C409 N408 1.351 . S
C409 C410 1.434 . S
C410 C401 1.429 1_655 S
C410 N407 1.350 . S
C410 C409 1.434 . S
C411 C412 1.369 1_545 S
C411 C413 1.419 . S
C411 H415 0.930 . S
C412 C411 1.369 1_565 S
C412 C421 1.429 . S
C413 C411 1.419 . S
C413 C414 1.363 1_545 S
C413 H416 0.929 . S
C414 C413 1.363 1_565 S
C414 C420 1.428 . S
H415 C411 0.930 . S
H416 C413 0.929 . S
S417 N418 1.613 . S
S417 N419 1.610 . S
N418 S417 1.613 . S
N418 C421 1.350 . S
N419 S417 1.610 . S
N419 C420 1.351 . S
C420 C414 1.428 . S
C420 N419 1.351 . S
C420 C421 1.434 . S
C421 C412 1.429 . S
C421 N418 1.350 . S
C421 C420 1.434 . S
C422 C423 1.369 . S
C422 C424 1.419 . S
C422 H426 0.930 . S
C423 C422 1.369 . S
C423 C432 1.429 . S
C424 C422 1.419 . S
C424 C425 1.363 . S
C424 H427 0.929 . S
C425 C424 1.363 . S
C425 C431 1.428 . S
H426 C422 0.930 . S
H427 C424 0.929 . S
S428 N429 1.613 . S
S428 N430 1.610 . S
N429 S428 1.613 . S
N429 C432 1.350 . S
N430 S428 1.610 . S
N430 C431 1.351 . S
C431 C425 1.428 . S
C431 N430 1.351 . S
C431 C432 1.434 . S
C432 C423 1.429 . S
C432 N429 1.350 . S
C432 C431 1.434 . S
C433 C434 1.369 . S
C433 C435 1.419 . S
C433 H437 0.930 . S
C434 C433 1.369 . S
C434 C443 1.429 . S
C435 C433 1.419 . S
C435 C436 1.363 . S
C435 H438 0.929 . S
C436 C435 1.363 . S
C436 C442 1.428 . S
H437 C433 0.930 . S
H438 C435 0.929 . S
S439 N440 1.613 . S
S439 N441 1.610 1_556 S
N440 S439 1.613 . S
N440 C443 1.350 1_556 S
N441 S439 1.610 1_554 S
N441 C442 1.351 . S
C442 C436 1.428 . S
C442 N441 1.351 . S
C442 C443 1.434 . S
C443 C434 1.429 . S
C443 N440 1.350 1_554 S
C443 C442 1.434 . S
C444 C445 1.369 1_455 S
C444 C446 1.419 . S
C444 H448 0.930 . S
C445 C444 1.369 1_655 S
C445 C454 1.429 1_655 S
C446 C444 1.419 . S
C446 C447 1.363 . S
C446 H449 0.929 . S
C447 C446 1.363 . S
C447 C453 1.428 . S
H448 C444 0.930 . S
H449 C446 0.929 . S
S450 N451 1.613 1_455 S
S450 N452 1.610 . S
N451 S450 1.613 1_655 S
N451 C454 1.350 1_655 S
N452 S450 1.610 . S
N452 C453 1.351 . S
C453 C447 1.428 . S
C453 N452 1.351 . S
C453 C454 1.434 . S
C454 C445 1.429 1_455 S
C454 N451 1.350 1_455 S
C454 C453 1.434 . S
C455 C456 1.369 . S
C455 C457 1.419 . S
C455 H459 0.930 . S
C456 C455 1.369 . S
C456 C465 1.429 . S
C457 C455 1.419 . S
C457 C458 1.363 . S
C457 H460 0.929 . S
C458 C457 1.363 . S
C458 C464 1.428 . S
H459 C455 0.930 . S
H460 C457 0.929 . S
S461 N462 1.613 1_545 S
S461 N463 1.610 . S
N462 S461 1.613 1_565 S
N462 C465 1.350 1_565 S
N463 S461 1.610 . S
N463 C464 1.351 . S
C464 C458 1.428 . S
C464 N463 1.351 . S
C464 C465 1.434 . S
C465 C456 1.429 . S
C465 N462 1.350 1_545 S
C465 C464 1.434 . S
C466 C467 1.369 . S
C466 C468 1.419 . S
C466 H470 0.930 . S
C467 C466 1.369 . S
C467 C476 1.429 . S
C468 C466 1.419 . S
C468 C469 1.363 . S
C468 H471 0.929 . S
C469 C468 1.363 . S
C469 C475 1.428 . S
H470 C466 0.930 . S
H471 C468 0.929 . S
S472 N473 1.613 . S
S472 N474 1.610 . S
N473 S472 1.613 . S
N473 C476 1.350 . S
N474 S472 1.610 . S
N474 C475 1.351 . S
C475 C469 1.428 . S
C475 N474 1.351 . S
C475 C476 1.434 . S
C476 C467 1.429 . S
C476 N473 1.350 . S
C476 C475 1.434 . S
C477 C478 1.369 . S
C477 C479 1.419 . S
C477 H481 0.930 . S
C478 C477 1.369 . S
C478 C487 1.429 . S
C479 C477 1.419 . S
C479 C480 1.363 . S
C479 H482 0.929 . S
C480 C479 1.363 . S
C480 C486 1.428 . S
H481 C477 0.930 . S
H482 C479 0.929 . S
S483 N484 1.613 . S
S483 N485 1.610 . S
N484 S483 1.613 . S
N484 C487 1.350 . S
N485 S483 1.610 . S
N485 C486 1.351 . S
C486 C480 1.428 . S
C486 N485 1.351 . S
C486 C487 1.434 . S
C487 C478 1.429 . S
C487 N484 1.350 . S
C487 C486 1.434 . S
C488 C489 1.369 1_554 S
C488 C490 1.419 . S
C488 H492 0.930 . S
C489 C488 1.369 1_556 S
C489 C498 1.429 1_455 S
C490 C488 1.419 . S
C490 C491 1.363 1_554 S
C490 H493 0.929 . S
C491 C490 1.363 1_556 S
C491 C497 1.428 1_455 S
H492 C488 0.930 . S
H493 C490 0.929 . S
S494 N495 1.613 . S
S494 N496 1.610 . S
N495 S494 1.613 . S
N495 C498 1.350 . S
N496 S494 1.610 . S
N496 C497 1.351 . S
C497 C491 1.428 1_655 S
C497 N496 1.351 . S
C497 C498 1.434 . S
C498 C489 1.429 1_655 S
C498 N495 1.350 . S
C498 C497 1.434 . S
C499 C500 1.369 . S
C499 C501 1.419 . S
C499 H503 0.930 . S
C500 C499 1.369 . S
C500 C509 1.429 1_544 S
C501 C499 1.419 . S
C501 C502 1.363 . S
C501 H504 0.929 . S
C502 C501 1.363 . S
C502 C508 1.428 1_544 S
H503 C499 0.930 . S
H504 C501 0.929 . S
S505 N506 1.613 . S
S505 N507 1.610 . S
N506 S505 1.613 . S
N506 C509 1.350 . S
N507 S505 1.610 . S
N507 C508 1.351 . S
C508 C502 1.428 1_566 S
C508 N507 1.351 . S
C508 C509 1.434 . S
C509 C500 1.429 1_566 S
C509 N506 1.350 . S
C509 C508 1.434 . S
C510 C511 1.369 . S
C510 C512 1.419 . S
C510 H514 0.930 . S
C511 C510 1.369 . S
C511 C520 1.429 . S
C512 C510 1.419 . S
C512 C513 1.363 . S
C512 H515 0.929 . S
C513 C512 1.363 . S
C513 C519 1.428 . S
H514 C510 0.930 . S
H515 C512 0.929 . S
S516 N517 1.613 . S
S516 N518 1.610 . S
N517 S516 1.613 . S
N517 C520 1.350 . S
N518 S516 1.610 . S
N518 C519 1.351 . S
C519 C513 1.428 . S
C519 N518 1.351 . S
C519 C520 1.434 . S
C520 C511 1.429 . S
C520 N517 1.350 . S
C520 C519 1.434 . S
C521 C522 1.369 . S
C521 C523 1.419 . S
C521 H525 0.930 . S
C522 C521 1.369 . S
C522 C531 1.429 . S
C523 C521 1.419 . S
C523 C524 1.363 . S
C523 H526 0.929 . S
C524 C523 1.363 . S
C524 C530 1.428 . S
H525 C521 0.930 . S
H526 C523 0.929 . S
S527 N528 1.613 . S
S527 N529 1.610 . S
N528 S527 1.613 . S
N528 C531 1.350 1_554 S
N529 S527 1.610 . S
N529 C530 1.351 1_554 S
C530 C524 1.428 . S
C530 N529 1.351 1_556 S
C530 C531 1.434 . S
C531 C522 1.429 . S
C531 N528 1.350 1_556 S
C531 C530 1.434 . S
C532 C533 1.365 . S
C532 C534 1.418 . S
C532 H536 0.940 1_655 S
C533 C532 1.365 . S
C533 C542 1.429 . S
C534 C532 1.418 . S
C534 C535 1.363 . S
C534 H537 0.929 . S
C535 C534 1.363 . S
C535 C541 1.428 . S
H536 C532 0.940 1_455 S
H537 C534 0.929 . S
S538 N539 1.613 . S
S538 N540 1.610 . S
N539 S538 1.613 . S
N539 C542 1.350 1_554 S
N540 S538 1.610 . S
N540 C541 1.351 1_554 S
C541 C535 1.428 . S
C541 N540 1.351 1_556 S
C541 C542 1.434 . S
C542 C533 1.429 . S
C542 N539 1.350 1_556 S
C542 C541 1.434 . S
C543 C544 1.369 1_545 S
C543 C545 1.419 . S
C543 H547 0.930 . S
C544 C543 1.369 1_565 S
C544 C553 1.429 . S
C545 C543 1.419 . S
C545 C546 1.363 1_545 S
C545 H548 0.929 . S
C546 C545 1.363 1_565 S
C546 C552 1.428 . S
H547 C543 0.930 . S
H548 C545 0.929 . S
S549 N550 1.613 . S
S549 N551 1.610 . S
N550 S549 1.613 . S
N550 C553 1.350 . S
N551 S549 1.610 . S
N551 C552 1.351 . S
C552 C546 1.428 . S
C552 N551 1.351 . S
C552 C553 1.434 . S
C553 C544 1.429 . S
C553 N550 1.350 . S
C553 C552 1.434 . S
C554 C555 1.369 . S
C554 C556 1.419 . S
C554 H558 0.930 . S
C555 C554 1.369 . S
C555 C564 1.429 . S
C556 C554 1.419 . S
C556 C557 1.363 . S
C556 H559 0.929 . S
C557 C556 1.363 . S
C557 C563 1.428 . S
H558 C554 0.930 . S
H559 C556 0.929 . S
S560 N561 1.613 . S
S560 N562 1.610 . S
N561 S560 1.613 . S
N561 C564 1.350 . S
N562 S560 1.610 . S
N562 C563 1.351 . S
C563 C557 1.428 . S
C563 N562 1.351 . S
C563 C564 1.434 . S
C564 C555 1.429 . S
C564 N561 1.350 . S
C564 C563 1.434 . S
C565 C566 1.369 . S
C565 C567 1.419 . S
C565 H569 0.930 . S
C566 C565 1.369 . S
C566 C575 1.429 1_556 S
C567 C565 1.419 . S
C567 C568 1.363 . S
C567 H570 0.929 . S
C568 C567 1.363 . S
C568 C574 1.428 . S
H569 C565 0.930 . S
H570 C567 0.929 . S
S571 N572 1.613 . S
S571 N573 1.610 . S
N572 S571 1.613 . S
N572 C575 1.350 . S
N573 S571 1.610 . S
N573 C574 1.351 1_554 S
C574 C568 1.428 . S
C574 N573 1.351 1_556 S
C574 C575 1.434 1_556 S
C575 C566 1.429 1_554 S
C575 N572 1.350 . S
C575 C574 1.434 1_554 S
C313 C125 2.142 1_545 S
C315 C154 2.185 1_545 S
C326 C194 2.066 . S
C324 C144 1.946 . S
C337 C258 2.024 . S
C335 C87 2.088 . S
C348 C274 1.936 . S
C346 C106 1.890 1_455 S
C359 C175 2.184 1_564 S
C357 C49 2.142 . S
C368 C68 2.031 . S
C370 C215 2.063 1_554 S
C379 C11 2.154 . S
C381 C249 2.025 . S
C390 C30 1.907 . S
C392 C295 1.936 1_654 S
C403 C169 0.644 . S
C401 C97 0.659 . S
C414 C209 0.979 . S
C412 C116 0.942 . S
C425 C245 1.146 . S
C423 C135 1.124 . S
C434 C78 0.885 . S
C436 C289 0.874 . S
C445 C21 0.649 . S
C447 C178 0.650 . S
C458 C218 0.975 . S
C456 C40 0.941 1_545 S
C469 C256 1.138 . S
C467 C59 1.135 . S
C478 C2 0.896 . S
C480 C298 0.867 . S
C489 C101 1.895 1_556 S
C491 C176 2.168 . S
C500 C120 2.042 1_545 S
C502 C216 2.239 1_554 S
C513 C234 1.732 . S
C511 C139 1.716 . S
C524 C296 2.651 . S
C522 C82 2.323 . S
C533 C25 1.892 . S
C535 C165 2.176 . S
C546 C205 2.242 . S
C544 C44 2.037 . S
C557 C255 1.728 . S
C555 C63 1.722 . S
C566 C6 2.336 . S
C568 C285 2.650 . S
