# Generated by pormake.
# Topology ftw, (4,12)-cn, num edge types: 1
# Building blocks:
#     Node 0, Type 0, BuildingBlock: MIFKUJ_clean_linker_1, # of connection points: 4
#     Node 1, Type 0, BuildingBlock: MIFKUJ_clean_linker_1, # of connection points: 4
#     Node 2, Type 0, BuildingBlock: MIFKUJ_clean_linker_1, # of connection points: 4
#     Node 3, Type 1, BuildingBlock: QEWDON_clean_sbu_0, # of connection points: 12
#     Edge 4, Type (0, 1), BuildingBlock: FUNLAD_clean_linker_1, # of connection points: 2
#     Edge 5, Type (0, 1), BuildingBlock: FUNLAD_clean_linker_1, # of connection points: 2
#     Edge 6, Type (0, 1), BuildingBlock: FUNLAD_clean_linker_1, # of connection points: 2
#     Edge 7, Type (0, 1), BuildingBlock: FUNLAD_clean_linker_1, # of connection points: 2
#     Edge 8, Type (0, 1), BuildingBlock: FUNLAD_clean_linker_1, # of connection points: 2
#     Edge 9, Type (0, 1), BuildingBlock: FUNLAD_clean_linker_1, # of connection points: 2
#     Edge 10, Type (0, 1), BuildingBlock: FUNLAD_clean_linker_1, # of connection points: 2
#     Edge 11, Type (0, 1), BuildingBlock: FUNLAD_clean_linker_1, # of connection points: 2
#     Edge 12, Type (0, 1), BuildingBlock: FUNLAD_clean_linker_1, # of connection points: 2
#     Edge 13, Type (0, 1), BuildingBlock: FUNLAD_clean_linker_1, # of connection points: 2
#     Edge 14, Type (0, 1), BuildingBlock: FUNLAD_clean_linker_1, # of connection points: 2
#     Edge 15, Type (0, 1), BuildingBlock: FUNLAD_clean_linker_1, # of connection points: 2
# Relax obj value: 0.070
# Max RMSD: 0.195
# Mean RMSD: 0.143
data_MOF--net-ftw--node1-QEWDON_clean_sbu_0--node2-MIFKUJ_clean_linker_1--edge1-FUNLAD_clean_linker_1
_symmetry_space_group_name_H-M    P1
_symmetry_Int_Tables_number       1
_symmetry_cell_setting            triclinic
loop_
_symmetry_equiv_pos_as_xyz
'x, y, z'
_cell_length_a     27.714216
_cell_length_b     30.879208
_cell_length_c     29.425677
_cell_angle_alpha  90.065803
_cell_angle_beta   90.241161
_cell_angle_gamma 90.732202
loop_
_atom_site_label
_atom_site_type_symbol
_atom_site_fract_x
_atom_site_fract_y
_atom_site_fract_z
_atom_type_partial_charge
H0 H 0.07472 0.5356 0.60559 0.0
H1 H 0.08425 0.59187 0.6633 0.0
H2 H 0.946 0.64412 0.62457 0.0
H3 H 0.93649 0.58719 0.56762 0.0
H4 H 0.00745 0.47432 0.60639 0.0
H5 H 0.05463 0.58726 0.49867 0.0
H6 H 0.05178 0.65337 0.45313 0.0
H7 H 0.90648 0.62014 0.41065 0.0
H8 H 0.90943 0.55445 0.45677 0.0
H9 H 0.90787 0.42604 0.43785 0.0
H10 H 0.90233 0.36774 0.38188 0.0
H11 H 0.03717 0.31668 0.43159 0.0
H12 H 0.04278 0.37545 0.48665 0.0
H13 H 0.97034 0.48852 0.44241 0.0
H14 H 0.91686 0.38188 0.55183 0.0
H15 H 0.91191 0.31874 0.60195 0.0
H16 H 0.05998 0.34074 0.64322 0.0
H17 H 0.06464 0.40382 0.59301 0.0
C18 C 0.00494 0.55705 0.58204 0.0
C19 C 0.04659 0.55938 0.60931 0.0
C20 C 0.05194 0.59159 0.64243 0.0
C21 C 0.01571 0.62227 0.64956 0.0
C22 C 0.97455 0.62086 0.62112 0.0
C23 C 0.96924 0.58849 0.58782 0.0
C24 C -0.00282 0.51914 0.55127 0.0
C25 C 0.00014 0.47747 0.57029 0.0
C26 C 0.98537 0.52317 0.50459 0.0
C27 C 0.98226 0.56577 0.48117 0.0
C28 C 0.02193 0.59454 0.48004 0.0
C29 C 0.02045 0.63214 0.45334 0.0
C30 C 0.97917 0.64159 0.42714 0.0
C31 C 0.93892 0.61362 0.43002 0.0
C32 C 0.94056 0.57604 0.45639 0.0
C33 C 0.97565 0.40528 0.46678 0.0
C34 C 0.93616 0.40217 0.43684 0.0
C35 C 0.93307 0.36875 0.40475 0.0
C36 C 0.96948 0.33762 0.40135 0.0
C37 C 0.00854 0.34008 0.4322 0.0
C38 C 0.01156 0.37359 0.46443 0.0
C39 C 0.98116 0.44364 0.49746 0.0
C40 C 0.97773 0.48537 0.47848 0.0
C41 C -0.00822 0.43979 0.54437 0.0
C42 C -0.00888 0.39761 0.56867 0.0
C43 C 0.94849 0.37264 0.57109 0.0
C44 C 0.94551 0.3369 0.60034 0.0
C45 C 0.98529 0.32545 0.62758 0.0
C46 C 0.02866 0.34904 0.62302 0.0
C47 C 0.03141 0.38501 0.59428 0.0
H48 H 0.3909 0.05605 0.48557 0.0
H49 H 0.33191 0.05707 0.42365 0.0
H50 H 0.39734 0.94385 0.365 0.0
H51 H 0.4563 0.94299 0.42733 0.0
H52 H 0.40299 0.99205 0.54807 0.0
H53 H 0.50137 0.064 0.43306 0.0
H54 H 0.54802 0.07501 0.36325 0.0
H55 H 0.62487 0.95672 0.39017 0.0
H56 H 0.5791 0.94661 0.45972 0.0
H57 H 0.60068 0.94848 0.59988 0.0
H58 H 0.6537 0.95403 0.66581 0.0
H59 H 0.57029 0.06117 0.7162 0.0
H60 H 0.51726 0.05526 0.6498 0.0
H61 H 0.58073 0.00226 0.53224 0.0
H62 H 0.49028 0.93392 0.65002 0.0
H63 H 0.45043 0.92535 0.72374 0.0
H64 H 0.35781 0.03268 0.69166 0.0
H65 H 0.39788 0.04139 0.61872 0.0
C66 C 0.42819 -0.00048 0.4612 0.0
C67 C 0.39262 0.03144 0.45937 0.0
C68 C 0.35884 0.03194 0.42395 0.0
C69 C 0.35907 0.00013 0.38978 0.0
C70 C 0.39513 0.96833 0.3912 0.0
C71 C 0.42939 0.96811 0.42658 0.0
C72 C 0.46182 -0.00192 0.50089 0.0
C73 C 0.44188 0.99475 0.54462 0.0
C74 C 0.51266 -0.0001 0.49639 0.0
C75 C 0.53684 0.00451 0.45168 0.0
C76 C 0.52798 0.04028 0.42357 0.0
C77 C 0.55485 0.04667 0.38386 0.0
C78 C 0.59136 0.0177 0.37172 0.0
C79 C 0.59863 0.98089 0.39906 0.0
C80 C 0.57195 0.97464 0.43874 0.0
C81 C 0.55458 0.00115 0.61983 0.0
C82 C 0.59402 0.9734 0.62495 0.0
C83 C 0.62467 0.97688 0.66287 0.0
C84 C 0.61688 0.00867 0.69646 0.0
C85 C 0.57745 0.03644 0.69105 0.0
C86 C 0.5469 0.03294 0.65314 0.0
C87 C 0.52184 -0.00272 0.57951 0.0
C88 C 0.54187 -0.00068 0.53572 0.0
C89 C 0.47102 0.99386 0.58389 0.0
C90 C 0.44721 0.98843 0.62878 0.0
C91 C 0.46154 0.95573 0.65899 0.0
C92 C 0.43858 0.95066 0.70096 0.0
C93 C 0.4002 0.97748 0.7131 0.0
C94 C 0.38609 0.01036 0.68289 0.0
C95 C 0.40927 0.01564 0.64117 0.0
H96 H 0.58061 0.55471 0.95461 0.0
H97 H 0.64897 0.60429 0.94532 0.0
H98 H 0.6268 0.65269 0.08165 0.0
H99 H 0.5586 0.60286 0.09049 0.0
H100 H 0.56718 0.48946 1.01463 0.0
H101 H 0.48851 0.62312 0.97958 0.0
H102 H 0.45708 0.69684 0.98295 0.0
H103 H 0.40372 0.67207 0.11821 0.0
H104 H 0.43639 0.59914 0.11543 0.0
H105 H 0.40547 0.4774 0.13255 0.0
H106 H 0.34002 0.42741 0.15396 0.0
H107 H 0.34334 0.37102 1.01951 0.0
H108 H 0.40816 0.42122 0.99831 0.0
H109 H 0.40617 0.53849 0.0645 0.0
H110 H 0.49301 0.41148 0.10596 0.0
H111 H 0.51876 0.33664 0.10566 0.0
H112 H 0.55531 0.34784 0.96332 0.0
H113 H 0.52918 0.42324 0.96409 0.0
C114 C 0.56418 0.57549 0.02299 0.0
C115 C 0.59066 0.57603 0.98244 0.0
C116 C 0.63003 0.60441 0.97732 0.0
C117 C 0.6438 0.63244 1.01306 0.0
C118 C 0.61713 0.63155 0.05354 0.0
C119 C 0.57793 0.60329 0.05857 0.0
C120 C 0.52322 0.54484 0.02913 0.0
C121 C 0.53168 0.50027 0.02467 0.0
C122 C 0.47733 0.55892 0.04346 0.0
C123 C 0.46474 0.60543 0.04723 0.0
C124 C 0.4715 0.63403 1.01055 0.0
C125 C 0.45361 0.67623 1.01252 0.0
C126 C 0.42821 0.69012 0.05105 0.0
C127 C 0.42327 0.66209 0.08822 0.0
C128 C 0.44169 0.62036 0.08653 0.0
C129 C 0.41152 0.45294 0.06387 0.0
C130 C 0.39174 0.45442 0.10766 0.0
C131 C 0.3545 0.42593 0.11985 0.0
C132 C 0.33576 0.39613 0.0882 0.0
C133 C 0.35586 0.39453 0.04434 0.0
C134 C 0.39338 0.42279 0.0323 0.0
C135 C 0.45064 0.48355 0.05116 0.0
C136 C 0.44167 0.52795 0.0541 0.0
C137 C 0.49612 0.46939 0.03607 0.0
C138 C 0.5087 0.42286 0.03493 0.0
C139 C 0.50549 0.39751 0.07441 0.0
C140 C 0.52015 0.35437 0.07405 0.0
C141 C 0.53849 0.33574 0.03405 0.0
C142 C 0.54097 0.36113 0.99449 0.0
C143 C 0.52627 0.40423 0.99491 0.0
Zn144 Zn 0.06516 0.08167 0.99195 0.0
Zn145 Zn 0.03906 0.07679 0.09944 0.0
O146 O 0.04011 0.04266 0.04139 0.0
H147 H 0.02915 0.01333 0.03601 0.0
C148 C 0.90754 0.1286 0.90703 0.0
O149 O 0.92674 0.09009 0.90358 0.0
Zn150 Zn 0.93509 0.91042 0.10792 0.0
Zn151 Zn 0.94149 0.95025 1.00735 0.0
O152 O 0.96248 0.96145 0.07397 0.0
H153 H 0.97032 0.98907 0.08774 0.0
Zn154 Zn 0.8601 0.09275 0.99134 0.0
O155 O 0.90739 0.07056 0.03883 0.0
Zn156 Zn 0.87046 0.05978 0.09692 0.0
H157 H 0.93863 0.05883 0.03185 0.0
Zn158 Zn 0.07358 0.88984 0.98858 0.0
O159 O 0.03168 0.90265 0.04378 0.0
H160 H 0.00273 0.88604 0.04967 0.0
Zn161 Zn 0.07541 0.922 0.09454 0.0
C162 C 0.01657 0.85513 0.90989 0.0
O163 O -0.00705 0.89138 0.91476 0.0
O164 O 0.08344 0.14243 1.01553 0.0
O165 O 0.06787 0.13689 0.0897 0.0
O166 O 0.92589 0.88647 0.99382 0.0
O167 O 0.9117 0.86306 0.06405 0.0
O168 O 0.79239 0.10079 1.01813 0.0
O169 O 0.79944 0.07592 0.08895 0.0
C170 C 0.08815 0.00603 0.1425 0.0
O171 O 0.14593 0.89182 1.00432 0.0
O172 O 0.14587 0.91426 0.0765 0.0
O173 O 0.89074 0.98671 0.97102 0.0
C174 C 0.08311 0.15838 0.05546 0.0
O175 O 0.10955 0.0542 0.94344 0.0
C176 C 0.85971 0.96929 0.14009 0.0
O177 O 0.88058 0.1371 0.94065 0.0
C178 C 0.91175 0.85712 0.02105 0.0
O179 O 0.05112 0.84674 0.93698 0.0
C180 C 0.94573 0.10148 0.14732 0.0
O181 O 0.07956 0.04623 0.14631 0.0
O182 O 0.06696 0.98469 0.11101 0.0
C183 C 0.77438 0.09239 0.05699 0.0
O184 O 0.87636 0.93112 0.1423 0.0
O185 O 0.87984 0.99663 0.11365 0.0
C186 C 0.02254 0.87285 0.16974 0.0
O187 O 0.90003 0.0975 0.1466 0.0
O188 O 0.96945 0.08077 0.1177 0.0
C189 C 0.16816 0.90243 0.04077 0.0
O190 O 0.06078 0.88585 0.14976 0.0
O191 O 0.98029 0.88175 0.15493 0.0
C192 C 0.9007 0.99238 0.92924 0.0
O193 O 0.9436 0.9817 0.91457 0.0
C194 C 0.14368 0.02926 0.95472 0.0
O195 O 0.15076 0.02005 0.9978 0.0
H196 H 0.93131 0.30287 0.34559 0.0
C197 C 0.96486 0.30384 0.36493 0.0
H198 H 0.03335 0.2742 0.37143 0.0
H199 H 0.95574 0.09944 0.2796 0.0
H200 H 0.96241 0.07689 0.35842 0.0
H201 H 0.98218 0.12993 0.41868 0.0
H202 H -0.00447 0.20582 0.40058 0.0
C203 C -0.00074 0.27534 0.35337 0.0
C204 C -0.00927 0.24281 0.31632 0.0
C205 C 0.98349 0.19852 0.32737 0.0
C206 C 0.97155 0.16795 0.29266 0.0
C207 C 0.9643 0.12401 0.30475 0.0
C208 C 0.96818 0.11063 0.34979 0.0
C209 C 0.97933 0.1405 0.38372 0.0
C210 C 0.98691 0.18396 0.37286 0.0
H211 H 0.0088 0.13553 0.1787 0.0
C212 C 0.96996 0.1307 0.18064 0.0
H213 H 0.90587 0.14575 0.21558 0.0
H214 H 0.01056 0.32342 0.28228 0.0
H215 H 0.00583 0.34544 0.20318 0.0
H216 H 0.98228 0.29306 0.14351 0.0
H217 H 0.9643 0.21809 0.1623 0.0
C218 C 0.9445 0.15151 0.21275 0.0
C219 C 0.96672 0.18159 0.24691 0.0
C220 C 0.97681 0.22537 0.23543 0.0
C221 C -0.01076 0.2559 0.27009 0.0
C222 C -0.0001 0.29919 0.25749 0.0
C223 C -0.00249 0.31221 0.21221 0.0
C224 C 0.98436 0.28268 0.17858 0.0
C225 C 0.97406 0.23974 0.18984 0.0
H226 H 0.60725 0.04926 0.30545 0.0
C227 C 0.62114 0.02681 0.33061 0.0
H228 H 0.68185 0.99059 0.35056 0.0
H229 H 0.72803 -0.00118 0.13129 0.0
H230 H 0.64984 0.96425 0.11835 0.0
H231 H 0.59276 0.95344 0.18158 0.0
H232 H 0.61279 0.97797 0.25763 0.0
C233 C 0.66523 0.01 0.32424 0.0
C234 C 0.69596 0.02064 0.28417 0.0
C235 C 0.68388 0.00482 0.24019 0.0
C236 C 0.71774 0.00896 0.20416 0.0
C237 C 0.7043 0.99466 0.16013 0.0
C238 C 0.6595 0.97511 0.15222 0.0
C239 C 0.6273 0.96917 0.18779 0.0
C240 C 0.6392 0.98364 0.23135 0.0
H241 H 0.79873 0.95247 0.18402 0.0
C242 C 0.81778 0.97973 0.16863 0.0
H243 H 0.82468 0.04774 0.16722 0.0
H244 H 0.7267 0.06151 0.36168 0.0
H245 H 0.80376 0.09826 0.37331 0.0
H246 H 0.86347 0.10276 0.31162 0.0
H247 H 0.84694 0.07041 0.238 0.0
C248 C 0.8041 0.02006 0.17923 0.0
C249 C 0.76443 0.0266 0.21268 0.0
C250 C 0.77476 0.04597 0.25535 0.0
C251 C 0.74043 0.04301 0.2911 0.0
C252 C 0.75179 0.06225 0.33359 0.0
C253 C 0.79578 0.08357 0.34067 0.0
C254 C 0.82945 0.08608 0.30592 0.0
C255 C 0.81942 0.06736 0.26377 0.0
H256 H 0.94105 0.6889 0.38371 0.0
C257 C 0.97657 0.67942 0.39568 0.0
H258 H 0.05157 0.68932 0.38625 0.0
H259 H 0.02551 0.76057 0.18634 0.0
H260 H 0.05998 0.69024 0.1722 0.0
H261 H 0.07237 0.6385 0.23482 0.0
H262 H 0.04996 0.65671 0.31193 0.0
C263 C 0.01541 0.69983 0.37792 0.0
C264 C 0.01014 0.73256 0.34084 0.0
C265 C 0.02458 0.72193 0.29601 0.0
C266 C 0.0182 0.75213 0.25996 0.0
C267 C 0.03086 0.73962 0.21527 0.0
C268 C 0.05039 0.69913 0.20657 0.0
C269 C 0.0573 0.66998 0.2418 0.0
C270 C 0.0444 0.68095 0.28599 0.0
H271 H 0.0648 0.83733 0.2211 0.0
C272 C 0.02829 0.84442 0.2099 0.0
H273 H 0.95406 0.83233 0.2212 0.0
H274 H 0.9822 0.76478 0.42313 0.0
H275 H 0.94826 0.8355 0.43749 0.0
H276 H 0.93692 0.88769 0.37505 0.0
H277 H 0.95959 0.86954 0.29782 0.0
C278 C -0.00912 0.82508 0.23112 0.0
C279 C -0.0016 0.79347 0.2689 0.0
C280 C 0.9844 0.80423 0.31378 0.0
C281 C -0.0095 0.7739 0.34979 0.0
C282 C 0.9774 0.78614 0.3944 0.0
C283 C 0.95814 0.82674 0.40316 0.0
C284 C 0.95179 0.85614 0.36801 0.0
C285 C 0.96483 0.84527 0.32381 0.0
H286 H 0.30364 0.03313 0.3485 0.0
C287 C 0.32187 0.00241 0.35295 0.0
H288 H 0.32261 0.93693 0.33136 0.0
H289 H 0.10852 0.94665 0.25218 0.0
H290 H 0.09892 0.89466 0.31321 0.0
H291 H 0.16668 0.87849 0.36485 0.0
H292 H 0.24452 0.91426 0.35577 0.0
C293 C 0.30787 0.96895 0.32623 0.0
C294 C 0.2688 0.97431 0.2913 0.0
C295 C 0.22374 0.95241 0.29634 0.0
C296 C 0.18459 0.96155 0.26627 0.0
C297 C 0.13958 0.94052 0.27343 0.0
C298 C 0.13352 0.91068 0.30848 0.0
C299 C 0.17168 0.90158 0.33756 0.0
C300 C 0.21623 0.92229 0.33191 0.0
H301 H 0.13411 0.95197 0.16644 0.0
C302 C 0.12479 0.98557 0.17229 0.0
H303 H 0.14031 0.04277 0.20904 0.0
H304 H 0.35289 0.01464 0.26579 0.0
H305 H 0.36378 0.06358 0.20216 0.0
H306 H 0.29594 0.08013 0.15083 0.0
H307 H 0.21674 0.04793 0.16279 0.0
C308 C 0.1485 0.00871 0.20449 0.0
C309 C 0.19073 0.99225 0.23084 0.0
C310 C 0.23682 0.0116 0.22378 0.0
C311 C 0.27588 0.0024 0.25372 0.0
C312 C 0.32165 0.02147 0.24497 0.0
C313 C 0.32851 0.04936 0.20833 0.0
C314 C 0.29031 0.0587 0.17943 0.0
C315 C 0.24497 0.04012 0.18684 0.0
H316 H 0.05741 0.65427 0.70483 0.0
C317 C 0.02273 0.65429 0.68733 0.0
H318 H 0.95321 0.68212 0.68783 0.0
H319 H 0.95871 0.74554 0.89147 0.0
H320 H 0.89438 0.69156 0.89289 0.0
H321 H 0.8774 0.64565 0.82592 0.0
H322 H 0.92441 0.6535 0.75704 0.0
C323 C -0.01082 0.68212 0.70238 0.0
C324 C -0.00124 0.71112 0.74244 0.0
C325 C 0.9707 0.70629 0.7825 0.0
C326 C 0.98056 0.73273 0.82131 0.0
C327 C 0.95248 0.72666 0.86097 0.0
C328 C 0.91555 0.69567 0.86231 0.0
C329 C 0.90598 0.66984 0.82459 0.0
C330 C 0.9332 0.6748 0.78516 0.0
H331 H 0.97224 0.8333 0.85143 0.0
C332 C 0.00362 0.82553 0.87201 0.0
H333 H 0.06272 0.78362 0.88002 0.0
H334 H 0.05459 0.73422 0.66936 0.0
H335 H 0.11882 0.78813 0.6684 0.0
H336 H 0.13835 0.83119 0.73683 0.0
H337 H 0.09334 0.82088 0.80656 0.0
C338 C 0.03009 0.79087 0.86106 0.0
C339 C 0.01849 0.76395 0.82016 0.0
C340 C 0.04611 0.76923 0.78005 0.0
C341 C 0.0357 0.74345 0.74092 0.0
C342 C 0.06217 0.75143 0.70064 0.0
C343 C 0.09889 0.78264 0.69947 0.0
C344 C 0.10985 0.80694 0.73797 0.0
C345 C 0.08377 0.8006 0.77781 0.0
H346 H 0.39773 0.95795 0.7857 0.0
C347 C 0.37674 0.97172 0.75808 0.0
H348 H 0.30782 0.99342 0.73804 0.0
H349 H 0.18568 0.91888 0.89808 0.0
H350 H 0.1709 0.86189 0.84234 0.0
H351 H 0.21927 0.85825 0.7722 0.0
H352 H 0.28252 0.91159 0.75722 0.0
C353 C 0.33074 0.98282 0.76577 0.0
C354 C 0.30837 0.97995 0.81155 0.0
C355 C 0.27178 0.94847 0.8198 0.0
C356 C 0.2439 0.95054 0.86016 0.0
C357 C 0.20739 0.91892 0.86758 0.0
C358 C 0.19876 0.88601 0.83603 0.0
C359 C 0.22599 0.88397 0.79653 0.0
C360 C 0.26206 0.91481 0.78826 0.0
H361 H 0.16865 0.02208 0.88431 0.0
C362 C 0.17667 0.0136 0.91939 0.0
H363 H 0.22747 0.98492 0.96377 0.0
H364 H 0.37825 0.04379 0.80811 0.0
H365 H 0.39584 0.09744 0.86616 0.0
H366 H 0.34888 0.09936 0.93715 0.0
H367 H 0.28365 0.04765 0.95027 0.0
C368 C 0.21746 0.99232 0.92892 0.0
C369 C 0.25264 0.98411 0.89202 0.0
C370 C 0.29197 0.01319 0.88578 0.0
C371 C 0.31956 0.01153 0.84519 0.0
C372 C 0.35673 0.0428 0.83863 0.0
C373 C 0.36713 0.07396 0.87166 0.0
C374 C 0.34065 0.07508 0.91161 0.0
C375 C 0.30331 0.04527 0.91868 0.0
H376 H 0.01641 0.27533 0.67248 0.0
C377 C 0.98276 0.29018 0.66203 0.0
H378 H 0.90795 0.29395 0.67562 0.0
H379 H 0.88689 0.11252 0.77272 0.0
H380 H 0.84462 0.09826 0.70191 0.0
H381 H 0.84688 0.15135 0.63934 0.0
H382 H 0.89125 0.21919 0.64733 0.0
C383 C 0.94207 0.27917 0.68436 0.0
C384 C 0.94202 0.24675 0.72208 0.0
C385 C 0.91634 0.20703 0.71679 0.0
C386 C 0.91541 0.1762 0.75277 0.0
C387 C 0.88909 0.13699 0.74651 0.0
C388 C 0.86464 0.12836 0.70599 0.0
C389 C 0.86585 0.15828 0.6708 0.0
C390 C 0.8914 0.19714 0.67589 0.0
H391 H 0.89773 0.19278 0.87549 0.0
C392 C 0.91418 0.16131 0.87086 0.0
H393 H 0.95253 0.12098 0.82608 0.0
H394 H -0.01018 0.32179 0.74622 0.0
H395 H 0.03379 0.33517 0.81621 0.0
H396 H 0.03723 0.27951 0.87615 0.0
H397 H -0.00417 0.21045 0.86676 0.0
C398 C 0.93778 0.15292 0.83201 0.0
C399 C 0.94002 0.18511 0.79418 0.0
C400 C 0.96624 0.22461 0.79932 0.0
C401 C 0.9663 0.25587 0.76372 0.0
C402 C -0.00971 0.29607 0.7711 0.0
C403 C 0.01542 0.30435 0.81133 0.0
C404 C 0.0172 0.27309 0.84515 0.0
C405 C -0.00701 0.23365 0.83941 0.0
H406 H 0.63409 0.03293 0.76585 0.0
C407 C 0.64777 0.01332 0.73813 0.0
H408 H 0.70706 0.9757 0.7168 0.0
H409 H 0.81825 0.08323 0.88049 0.0
H410 H 0.81008 0.1462 0.83175 0.0
H411 H 0.7615 0.14219 0.76141 0.0
H412 H 0.72004 0.07554 0.73976 0.0
C413 C 0.69156 0.99539 0.74336 0.0
C414 C 0.71957 -0.0009 0.78681 0.0
C415 C 0.74433 0.0381 0.79851 0.0
C416 C 0.77392 0.04001 0.83826 0.0
C417 C 0.79684 0.07972 0.8499 0.0
C418 C 0.7921 0.11613 0.82243 0.0
C419 C 0.76461 0.1139 0.78288 0.0
C420 C 0.74094 0.07545 0.77088 0.0
H421 H 0.87542 0.00962 0.86073 0.0
C422 C 0.86342 0.0042 0.89542 0.0
H423 H 0.8031 0.99442 0.93779 0.0
H424 H 0.67474 0.92038 0.77611 0.0
H425 H 0.68384 0.85731 0.82434 0.0
H426 H 0.73722 0.85976 0.89154 0.0
H427 H 0.7813 0.92535 0.91146 0.0
C428 C 0.81577 0.00237 0.90388 0.0
C429 C 0.78005 0.00257 0.86553 0.0
C430 C 0.75408 0.96399 0.85459 0.0
C431 C 0.72385 0.96231 0.81531 0.0
C432 C 0.69858 0.92329 0.8052 0.0
C433 C 0.70339 0.88686 0.83264 0.0
C434 C 0.73335 0.88828 0.87056 0.0
C435 C 0.75849 0.92624 0.88158 0.0
H436 H 0.29459 0.35698 0.13813 0.0
C437 C 0.29685 0.36582 0.10242 0.0
H438 H 0.26354 0.35949 0.03789 0.0
H439 H 0.19764 0.17138 0.12117 0.0
H440 H 0.28267 0.1538 0.11885 0.0
H441 H 0.34395 0.20989 0.10142 0.0
H442 H 0.32071 0.28383 0.08648 0.0
C443 C 0.2646 0.34887 0.07304 0.0
C444 C 0.22853 0.31583 0.08746 0.0
C445 C 0.24311 0.27275 0.09625 0.0
C446 C 0.2078 0.24021 0.10537 0.0
C447 C 0.22302 0.19729 0.11367 0.0
C448 C 0.2717 0.18675 0.11251 0.0
C449 C 0.30619 0.21835 0.10276 0.0
C450 C 0.2923 0.26083 0.0945 0.0
H451 H 0.11544 0.21945 0.03169 0.0
C452 C 0.10576 0.2012 0.06201 0.0
H453 H 0.11557 0.19589 0.13314 0.0
H454 H 0.18914 0.39599 0.07659 0.0
H455 H 0.10386 0.41332 0.07993 0.0
H456 H 0.04271 0.3563 0.09487 0.0
H457 H 0.06656 0.28149 0.1064 0.0
C458 C 0.1219 0.21493 0.10266 0.0
C459 C 0.15818 0.25058 0.1042 0.0
C460 C 0.1438 0.29394 0.09793 0.0
C461 C 0.17906 0.32669 0.08947 0.0
C462 C 0.16373 0.3698 0.08291 0.0
C463 C 0.11496 0.38017 0.08485 0.0
C464 C 0.08051 0.34806 0.09322 0.0
C465 C 0.09457 0.30533 0.09963 0.0
H466 H 0.36706 0.73016 0.07037 0.0
C467 C 0.40078 0.73087 0.05156 0.0
H468 H 0.44768 0.76917 1.01145 0.0
H469 H 0.27202 0.88177 0.94155 0.0
H470 H 0.31693 0.86777 0.87238 0.0
H471 H 0.39109 0.82439 0.87443 0.0
H472 H 0.42135 0.79557 0.94561 0.0
C473 C 0.41414 0.76768 0.03028 0.0
C474 C 0.38048 0.80518 0.02967 0.0
C475 C 0.36374 0.82181 0.98773 0.0
C476 C 0.32032 0.84583 0.98637 0.0
C477 C 0.30418 0.86239 0.94416 0.0
C478 C 0.32971 0.85477 0.90433 0.0
C479 C 0.3715 0.83038 0.90551 0.0
C480 C 0.3884 0.81386 0.9466 0.0
H481 H 0.24183 0.91765 0.06598 0.0
C482 C 0.22079 0.89709 0.04315 0.0
H483 H 0.21961 0.84348 0.99912 0.0
H484 H 0.41579 0.79627 0.11549 0.0
H485 H 0.37297 0.81154 0.18581 0.0
H486 H 0.29081 0.84136 0.18371 0.0
H487 H 0.25218 0.85796 0.11245 0.0
C488 C 0.24138 0.86368 0.02178 0.0
C489 C 0.29304 0.85175 0.02655 0.0
C490 C 0.31306 0.83965 0.06924 0.0
C491 C 0.35847 0.81882 0.07058 0.0
C492 C 0.38012 0.81004 0.11314 0.0
C493 C 0.35609 0.81877 0.1535 0.0
C494 C 0.30997 0.83577 0.1523 0.0
C495 C 0.28835 0.84576 0.11081 0.0
H496 H 0.58385 0.2846 1.00489 0.0
C497 C 0.55994 0.29185 0.03308 0.0
H498 H 0.5311 0.26698 0.09471 0.0
H499 H 0.64143 0.10433 0.98691 0.0
H500 H 0.57036 0.10288 0.93817 0.0
H501 H 0.50566 0.15621 0.94825 0.0
H502 H 0.51169 0.21139 1.00721 0.0
C503 C 0.5545 0.26181 0.06585 0.0
C504 C 0.5866 0.22357 0.06644 0.0
C505 C 0.58214 0.19118 0.03258 0.0
C506 C 0.61938 0.16046 0.02689 0.0
C507 C 0.61435 0.12874 0.99235 0.0
C508 C 0.57368 0.12744 0.96432 0.0
C509 C 0.53726 0.15747 0.96999 0.0
C510 C 0.54123 0.18906 1.00371 0.0
H511 H 0.70926 0.09871 0.09981 0.0
C512 C 0.72535 0.10757 0.06743 0.0
H513 H 0.72029 0.14661 1.0088 0.0
H514 H 0.60106 0.27632 0.14007 0.0
H515 H 0.671 0.27754 0.18985 0.0
H516 H 0.73811 0.22722 0.1777 0.0
H517 H 0.73551 0.17527 0.11652 0.0
C518 C 0.70438 0.13768 0.04122 0.0
C519 C 0.66102 0.1623 0.055 0.0
C520 C 0.66369 0.19277 0.09127 0.0
C521 C 0.62575 0.22279 0.0975 0.0
C522 C 0.62912 0.2531 0.13359 0.0
C523 C 0.66906 0.25418 0.16242 0.0
C524 C 0.70676 0.22579 0.15564 0.0
C525 C 0.70453 0.19569 0.12037 0.0
H526 H 0.68928 0.68642 0.03807 0.0
C527 C 0.68487 0.66365 1.01003 0.0
H528 H 0.71642 0.64292 0.94804 0.0
H529 H 0.79386 0.84249 1.00993 0.0
H530 H 0.71302 0.86543 0.99043 0.0
H531 H 0.65187 0.81263 0.96314 0.0
H532 H 0.67118 0.73633 0.95596 0.0
C533 C 0.71713 0.66578 0.97599 0.0
C534 C 0.75682 0.69865 0.97824 0.0
C535 C 0.74561 0.74328 0.98022 0.0
C536 C 0.78123 0.77379 0.99455 0.0
C537 C 0.76839 0.8179 0.9986 0.0
C538 C 0.72207 0.83153 0.98754 0.0
C539 C 0.68763 0.80181 0.97223 0.0
C540 C 0.69905 0.75814 0.96857 0.0
H541 H 0.88957 0.81418 0.96459 0.0
C542 C 0.88965 0.81771 1.00138 0.0
H543 H 0.86109 0.79433 0.06322 0.0
H544 H 0.79245 0.61694 0.96804 0.0
H545 H 0.87566 0.59528 0.97924 0.0
H546 H 0.93818 0.64878 1.00194 0.0
H547 H 0.91778 0.72436 1.01386 0.0
C548 C 0.86317 0.79034 0.0266 0.0
C549 C 0.82847 0.7597 1.00499 0.0
C550 C 0.84119 0.71607 0.99746 0.0
C551 C 0.8052 0.68535 0.98404 0.0
C552 C 0.81843 0.64162 0.97806 0.0
C553 C 0.86604 0.6288 0.98433 0.0
C554 C 0.90126 0.65893 0.99714 0.0
C555 C 0.88913 0.7021 1.00391 0.0
loop_
_geom_bond_atom_site_label_1
_geom_bond_atom_site_label_2
_geom_bond_distance
_geom_bond_site_symmetry_2
_ccdc_geom_bond_type
H0 C19 0.949 . S
H1 C20 0.950 . S
H2 C22 0.950 . S
H3 C23 0.950 . S
H4 C25 0.950 . S
H5 C28 0.950 . S
H6 C29 0.950 . S
H7 C31 0.951 . S
H8 C32 0.949 . S
H9 C34 0.949 . S
H10 C35 0.950 . S
H11 C37 0.950 . S
H12 C38 0.950 . S
H13 C40 0.950 . S
H14 C43 0.950 . S
H15 C44 0.950 . S
H16 C46 0.951 . S
H17 C47 0.949 . S
C18 C19 1.376 . S
C18 C23 1.386 1_455 S
C18 C24 1.483 . S
C19 H0 0.949 . S
C19 C18 1.376 . S
C19 C20 1.397 . S
C20 H1 0.950 . S
C20 C19 1.397 . S
C20 C21 1.391 . S
C21 C20 1.391 . S
C21 C22 1.405 1_455 S
C22 H2 0.950 . S
C22 C21 1.405 1_655 S
C22 C23 1.367 . S
C23 H3 0.950 . S
C23 C18 1.386 1_655 S
C23 C22 1.367 . S
C24 C18 1.483 . S
C24 C25 1.382 . S
C24 C26 1.403 1_455 S
C25 H4 0.950 . S
C25 C24 1.382 . S
C25 C41 1.411 . S
C26 C24 1.403 1_655 S
C26 C27 1.489 . S
C26 C40 1.411 . S
C27 C26 1.489 . S
C27 C28 1.383 1_655 S
C27 C32 1.382 . S
C28 H5 0.950 . S
C28 C27 1.383 1_455 S
C28 C29 1.395 . S
C29 H6 0.950 . S
C29 C28 1.395 . S
C29 C30 1.288 1_455 S
C30 C29 1.288 1_655 S
C30 C31 1.392 . S
C31 H7 0.951 . S
C31 C30 1.392 . S
C31 C32 1.392 . S
C32 H8 0.949 . S
C32 C27 1.382 . S
C32 C31 1.392 . S
C33 C34 1.376 . S
C33 C38 1.386 1_655 S
C33 C39 1.483 . S
C34 H9 0.949 . S
C34 C33 1.376 . S
C34 C35 1.397 . S
C35 H10 0.950 . S
C35 C34 1.397 . S
C35 C36 1.391 . S
C36 C35 1.391 . S
C36 C37 1.405 1_655 S
C37 H11 0.950 . S
C37 C36 1.405 1_455 S
C37 C38 1.367 . S
C38 H12 0.950 . S
C38 C33 1.386 1_455 S
C38 C37 1.367 . S
C39 C33 1.483 . S
C39 C40 1.382 . S
C39 C41 1.403 1_655 S
C40 H13 0.950 . S
C40 C26 1.411 . S
C40 C39 1.382 . S
C41 C25 1.411 . S
C41 C39 1.403 1_455 S
C41 C42 1.489 . S
C42 C41 1.489 . S
C42 C43 1.383 1_455 S
C42 C47 1.382 . S
C43 H14 0.950 . S
C43 C42 1.383 1_655 S
C43 C44 1.395 . S
C44 H15 0.950 . S
C44 C43 1.395 . S
C44 C45 1.288 1_655 S
C45 C44 1.288 1_455 S
C45 C46 1.392 . S
C46 H16 0.951 . S
C46 C45 1.392 . S
C46 C47 1.392 . S
C47 H17 0.949 . S
C47 C42 1.382 . S
C47 C46 1.392 . S
H48 C67 0.949 . S
H49 C68 0.950 . S
H50 C70 0.950 . S
H51 C71 0.950 . S
H52 C73 0.950 . S
H53 C76 0.950 . S
H54 C77 0.950 . S
H55 C79 0.951 . S
H56 C80 0.949 . S
H57 C82 0.949 . S
H58 C83 0.950 . S
H59 C85 0.950 . S
H60 C86 0.950 . S
H61 C88 0.950 . S
H62 C91 0.950 . S
H63 C92 0.950 . S
H64 C94 0.951 . S
H65 C95 0.949 . S
C66 C67 1.376 . S
C66 C71 1.386 1_545 S
C66 C72 1.483 . S
C67 H48 0.949 . S
C67 C66 1.376 . S
C67 C68 1.397 . S
C68 H49 0.950 . S
C68 C67 1.397 . S
C68 C69 1.391 . S
C69 C68 1.391 . S
C69 C70 1.405 1_545 S
C70 H50 0.950 . S
C70 C69 1.405 1_565 S
C70 C71 1.367 . S
C71 H51 0.950 . S
C71 C66 1.386 1_565 S
C71 C70 1.367 . S
C72 C66 1.483 . S
C72 C73 1.382 . S
C72 C74 1.403 1_545 S
C73 H52 0.950 . S
C73 C72 1.382 . S
C73 C89 1.411 . S
C74 C72 1.403 1_565 S
C74 C75 1.489 . S
C74 C88 1.411 . S
C75 C74 1.489 . S
C75 C76 1.383 1_565 S
C75 C80 1.382 . S
C76 H53 0.950 . S
C76 C75 1.383 1_545 S
C76 C77 1.395 . S
C77 H54 0.950 . S
C77 C76 1.395 . S
C77 C78 1.288 1_545 S
C78 C77 1.288 1_565 S
C78 C79 1.392 . S
C79 H55 0.951 . S
C79 C78 1.392 . S
C79 C80 1.392 . S
C80 H56 0.949 . S
C80 C75 1.382 . S
C80 C79 1.392 . S
C81 C82 1.376 . S
C81 C86 1.386 1_565 S
C81 C87 1.483 . S
C82 H57 0.949 . S
C82 C81 1.376 . S
C82 C83 1.397 . S
C83 H58 0.950 . S
C83 C82 1.397 . S
C83 C84 1.391 . S
C84 C83 1.391 . S
C84 C85 1.405 1_565 S
C85 H59 0.950 . S
C85 C84 1.405 1_545 S
C85 C86 1.367 . S
C86 H60 0.950 . S
C86 C81 1.386 1_545 S
C86 C85 1.367 . S
C87 C81 1.483 . S
C87 C88 1.382 . S
C87 C89 1.403 1_565 S
C88 H61 0.950 . S
C88 C74 1.411 . S
C88 C87 1.382 . S
C89 C73 1.411 . S
C89 C87 1.403 1_545 S
C89 C90 1.489 . S
C90 C89 1.489 . S
C90 C91 1.383 1_545 S
C90 C95 1.382 . S
C91 H62 0.950 . S
C91 C90 1.383 1_565 S
C91 C92 1.395 . S
C92 H63 0.950 . S
C92 C91 1.395 . S
C92 C93 1.288 1_565 S
C93 C92 1.288 1_545 S
C93 C94 1.392 . S
C94 H64 0.951 . S
C94 C93 1.392 . S
C94 C95 1.392 . S
C95 H65 0.949 . S
C95 C90 1.382 . S
C95 C94 1.392 . S
H96 C115 0.949 . S
H97 C116 0.950 . S
H98 C118 0.950 . S
H99 C119 0.950 . S
H100 C121 0.950 . S
H101 C124 0.950 . S
H102 C125 0.950 . S
H103 C127 0.951 . S
H104 C128 0.949 . S
H105 C130 0.949 . S
H106 C131 0.950 . S
H107 C133 0.950 . S
H108 C134 0.950 . S
H109 C136 0.950 . S
H110 C139 0.950 . S
H111 C140 0.950 . S
H112 C142 0.951 . S
H113 C143 0.949 . S
C114 C115 1.376 1_554 S
C114 C119 1.386 . S
C114 C120 1.483 . S
C115 H96 0.949 . S
C115 C114 1.376 1_556 S
C115 C116 1.397 . S
C116 H97 0.950 . S
C116 C115 1.397 . S
C116 C117 1.391 1_556 S
C117 C116 1.391 1_554 S
C117 C118 1.405 . S
C118 H98 0.950 . S
C118 C117 1.405 . S
C118 C119 1.367 . S
C119 H99 0.950 . S
C119 C114 1.386 . S
C119 C118 1.367 . S
C120 C114 1.483 . S
C120 C121 1.382 . S
C120 C122 1.403 . S
C121 H100 0.950 . S
C121 C120 1.382 . S
C121 C137 1.411 . S
C122 C120 1.403 . S
C122 C123 1.489 . S
C122 C136 1.411 . S
C123 C122 1.489 . S
C123 C124 1.383 1_554 S
C123 C128 1.382 . S
C124 H101 0.950 . S
C124 C123 1.383 1_556 S
C124 C125 1.395 . S
C125 H102 0.950 . S
C125 C124 1.395 . S
C125 C126 1.288 1_556 S
C126 C125 1.288 1_554 S
C126 C127 1.392 . S
C127 H103 0.951 . S
C127 C126 1.392 . S
C127 C128 1.392 . S
C128 H104 0.949 . S
C128 C123 1.382 . S
C128 C127 1.392 . S
C129 C130 1.376 . S
C129 C134 1.386 1_554 S
C129 C135 1.483 . S
C130 H105 0.949 . S
C130 C129 1.376 . S
C130 C131 1.397 . S
C131 H106 0.950 . S
C131 C130 1.397 . S
C131 C132 1.391 . S
C132 C131 1.391 . S
C132 C133 1.405 1_554 S
C133 H107 0.950 . S
C133 C132 1.405 1_556 S
C133 C134 1.367 . S
C134 H108 0.950 . S
C134 C129 1.386 1_556 S
C134 C133 1.367 . S
C135 C129 1.483 . S
C135 C136 1.382 . S
C135 C137 1.403 . S
C136 H109 0.950 . S
C136 C122 1.411 . S
C136 C135 1.382 . S
C137 C121 1.411 . S
C137 C135 1.403 . S
C137 C138 1.489 . S
C138 C137 1.489 . S
C138 C139 1.383 . S
C138 C143 1.382 1_554 S
C139 H110 0.950 . S
C139 C138 1.383 . S
C139 C140 1.395 . S
C140 H111 0.950 . S
C140 C139 1.395 . S
C140 C141 1.288 . S
C141 C140 1.288 . S
C141 C142 1.392 1_554 S
C142 H112 0.951 . S
C142 C141 1.392 1_556 S
C142 C143 1.392 . S
C143 H113 0.949 . S
C143 C138 1.382 1_556 S
C143 C142 1.392 . S
Zn144 O146 1.933 1_556 S
Zn144 O164 1.985 . S
Zn144 O175 1.955 . S
Zn145 O146 1.911 . S
Zn145 O165 1.970 . S
Zn145 O181 1.945 . S
Zn145 O188 1.981 . S
O146 Zn144 1.933 1_554 S
O146 Zn145 1.911 . S
O146 H147 0.841 . S
H147 O146 0.841 . S
C148 O149 1.246 . S
C148 O177 1.276 1_455 S
O149 C148 1.246 . S
Zn150 O152 1.911 . S
Zn150 O167 1.970 . S
Zn150 O184 1.945 . S
Zn150 O191 1.981 . S
Zn151 O152 1.933 1_556 S
Zn151 O166 1.985 . S
Zn151 O173 1.955 . S
O152 Zn150 1.911 . S
O152 Zn151 1.933 1_554 S
O152 H153 0.841 . S
H153 O152 0.841 . S
Zn154 O155 1.933 1_556 S
Zn154 O168 1.985 . S
Zn154 O177 1.955 . S
O155 Zn154 1.933 1_554 S
O155 Zn156 1.911 . S
O155 H157 0.841 . S
Zn156 O155 1.911 . S
Zn156 O169 1.970 . S
Zn156 O185 1.981 . S
Zn156 O187 1.945 . S
H157 O155 0.841 . S
Zn158 O159 1.933 1_556 S
Zn158 O171 1.985 . S
Zn158 O179 1.955 . S
O159 Zn158 1.933 1_554 S
O159 H160 0.841 . S
O159 Zn161 1.911 . S
H160 O159 0.841 . S
Zn161 O159 1.911 . S
Zn161 O172 1.970 . S
Zn161 O182 1.981 . S
Zn161 O190 1.945 . S
C162 O163 1.246 . S
C162 O179 1.276 1_655 S
O163 C162 1.246 . S
O164 Zn144 1.985 . S
O164 C174 1.245 1_556 S
O165 Zn145 1.970 . S
O165 C174 1.263 . S
O166 Zn151 1.985 . S
O166 C178 1.245 1_556 S
O167 Zn150 1.970 . S
O167 C178 1.263 . S
O168 Zn154 1.985 . S
O168 C183 1.245 1_556 S
O169 Zn156 1.970 . S
O169 C183 1.263 . S
C170 O181 1.263 . S
C170 O182 1.244 1_545 S
O171 Zn158 1.985 . S
O171 C189 1.245 1_556 S
O172 Zn161 1.970 . S
O172 C189 1.263 . S
O173 Zn151 1.955 . S
O173 C192 1.276 1_565 S
C174 O164 1.245 1_554 S
C174 O165 1.263 . S
O175 Zn144 1.955 . S
O175 C194 1.276 1_545 S
C176 O184 1.262 1_545 S
C176 O185 1.245 . S
O177 C148 1.276 1_655 S
O177 Zn154 1.955 . S
C178 O166 1.245 1_554 S
C178 O167 1.263 . S
O179 Zn158 1.955 . S
O179 C162 1.276 1_455 S
C180 O187 1.261 1_455 S
C180 O188 1.245 . S
O181 Zn145 1.945 . S
O181 C170 1.263 . S
O182 Zn161 1.981 . S
O182 C170 1.244 1_565 S
C183 O168 1.245 1_554 S
C183 O169 1.263 . S
O184 Zn150 1.945 . S
O184 C176 1.262 1_565 S
O185 Zn156 1.981 . S
O185 C176 1.245 . S
C186 O190 1.262 . S
C186 O191 1.245 1_455 S
O187 Zn156 1.945 . S
O187 C180 1.261 1_655 S
O188 Zn145 1.981 . S
O188 C180 1.245 . S
C189 O171 1.245 1_554 S
C189 O172 1.263 . S
O190 Zn161 1.945 . S
O190 C186 1.262 . S
O191 Zn150 1.981 . S
O191 C186 1.245 1_655 S
C192 O173 1.276 1_545 S
C192 O193 1.246 . S
O193 C192 1.246 . S
C194 O175 1.276 1_565 S
C194 O195 1.246 . S
O195 C194 1.246 . S
H196 C197 0.951 . S
C197 H196 0.951 . S
C197 C203 1.265 1_655 S
H198 C203 0.950 . S
H199 C207 0.949 . S
H200 C208 0.950 . S
H201 C209 0.951 . S
H202 C210 0.951 . S
C203 C197 1.265 1_455 S
C203 H198 0.950 . S
C203 C204 1.478 . S
C204 C203 1.478 . S
C204 C205 1.397 . S
C204 C221 1.394 1_455 S
C205 C204 1.397 . S
C205 C206 1.438 . S
C205 C210 1.429 . S
C206 C205 1.438 . S
C206 C207 1.428 . S
C206 C219 1.394 1_455 S
C207 H199 0.949 . S
C207 C206 1.428 . S
C207 C208 1.345 . S
C208 H200 0.950 . S
C208 C207 1.345 . S
C208 C209 1.424 . S
C209 H201 0.951 . S
C209 C208 1.424 . S
C209 C210 1.347 . S
C210 H202 0.951 . S
C210 C205 1.429 . S
C210 C209 1.347 . S
H211 C212 0.951 . S
C212 H211 0.951 . S
C212 C218 1.265 1_455 S
H213 C218 0.950 . S
H214 C222 0.949 . S
H215 C223 0.950 . S
H216 C224 0.951 . S
H217 C225 0.951 . S
C218 C212 1.265 1_655 S
C218 H213 0.950 . S
C218 C219 1.478 . S
C219 C206 1.394 1_655 S
C219 C218 1.478 . S
C219 C220 1.397 . S
C220 C219 1.397 . S
C220 C221 1.438 . S
C220 C225 1.429 . S
C221 C204 1.394 1_655 S
C221 C220 1.438 . S
C221 C222 1.428 . S
C222 H214 0.949 . S
C222 C221 1.428 . S
C222 C223 1.345 . S
C223 H215 0.950 . S
C223 C222 1.345 . S
C223 C224 1.424 . S
C224 H216 0.951 . S
C224 C223 1.424 . S
C224 C225 1.347 . S
C225 H217 0.951 . S
C225 C220 1.429 . S
C225 C224 1.347 . S
H226 C227 0.951 . S
C227 H226 0.951 . S
C227 C233 1.265 1_545 S
H228 C233 0.950 . S
H229 C237 0.949 . S
H230 C238 0.950 . S
H231 C239 0.951 . S
H232 C240 0.951 . S
C233 C227 1.265 1_565 S
C233 H228 0.950 . S
C233 C234 1.478 . S
C234 C233 1.478 . S
C234 C235 1.397 . S
C234 C251 1.394 1_565 S
C235 C234 1.397 . S
C235 C236 1.438 1_565 S
C235 C240 1.429 . S
C236 C235 1.438 1_545 S
C236 C237 1.428 . S
C236 C249 1.394 . S
C237 H229 0.949 . S
C237 C236 1.428 . S
C237 C238 1.345 1_545 S
C238 H230 0.950 . S
C238 C237 1.345 1_565 S
C238 C239 1.424 . S
C239 H231 0.951 . S
C239 C238 1.424 . S
C239 C240 1.347 . S
C240 H232 0.951 . S
C240 C235 1.429 . S
C240 C239 1.347 . S
H241 C242 0.951 1_565 S
C242 H241 0.951 1_545 S
C242 C248 1.265 . S
H243 C248 0.950 . S
H244 C252 0.950 . S
H245 C253 0.950 . S
H246 C254 0.951 . S
H247 C255 0.951 . S
C248 C242 1.265 . S
C248 H243 0.950 . S
C248 C249 1.478 . S
C249 C236 1.394 . S
C249 C248 1.478 . S
C249 C250 1.397 . S
C250 C249 1.397 . S
C250 C251 1.438 . S
C250 C255 1.429 . S
C251 C234 1.394 1_545 S
C251 C250 1.438 . S
C251 C252 1.428 . S
C252 H244 0.950 . S
C252 C251 1.428 . S
C252 C253 1.345 . S
C253 H245 0.950 . S
C253 C252 1.345 . S
C253 C254 1.424 . S
C254 H246 0.951 . S
C254 C253 1.424 . S
C254 C255 1.347 . S
C255 H247 0.951 . S
C255 C250 1.429 . S
C255 C254 1.347 . S
H256 C257 0.951 . S
C257 H256 0.951 . S
C257 C263 1.265 1_655 S
H258 C263 0.950 . S
H259 C267 0.949 . S
H260 C268 0.950 . S
H261 C269 0.951 . S
H262 C270 0.951 . S
C263 C257 1.265 1_455 S
C263 H258 0.950 . S
C263 C264 1.478 . S
C264 C263 1.478 . S
C264 C265 1.397 . S
C264 C281 1.394 1_455 S
C265 C264 1.397 . S
C265 C266 1.438 . S
C265 C270 1.429 . S
C266 C265 1.438 . S
C266 C267 1.428 . S
C266 C279 1.394 1_455 S
C267 H259 0.949 . S
C267 C266 1.428 . S
C267 C268 1.345 . S
C268 H260 0.950 . S
C268 C267 1.345 . S
C268 C269 1.424 . S
C269 H261 0.951 . S
C269 C268 1.424 . S
C269 C270 1.347 . S
C270 H262 0.951 . S
C270 C265 1.429 . S
C270 C269 1.347 . S
H271 C272 0.951 1_455 S
C272 H271 0.951 1_655 S
C272 C278 1.265 . S
H273 C278 0.950 . S
H274 C282 0.949 . S
H275 C283 0.950 . S
H276 C284 0.951 . S
H277 C285 0.951 . S
C278 C272 1.265 . S
C278 H273 0.950 . S
C278 C279 1.478 . S
C279 C266 1.394 1_655 S
C279 C278 1.478 . S
C279 C280 1.397 . S
C280 C279 1.397 . S
C280 C281 1.438 . S
C280 C285 1.429 . S
C281 C264 1.394 1_655 S
C281 C280 1.438 . S
C281 C282 1.428 . S
C282 H274 0.949 . S
C282 C281 1.428 . S
C282 C283 1.345 . S
C283 H275 0.950 . S
C283 C282 1.345 . S
C283 C284 1.424 . S
C284 H276 0.951 . S
C284 C283 1.424 . S
C284 C285 1.347 . S
C285 H277 0.951 . S
C285 C280 1.429 . S
C285 C284 1.347 . S
H286 C287 0.951 . S
C287 H286 0.951 . S
C287 C293 1.265 1_545 S
H288 C293 0.950 . S
H289 C297 0.949 . S
H290 C298 0.950 . S
H291 C299 0.951 . S
H292 C300 0.951 . S
C293 C287 1.265 1_565 S
C293 H288 0.950 . S
C293 C294 1.478 . S
C294 C293 1.478 . S
C294 C295 1.397 . S
C294 C311 1.394 1_565 S
C295 C294 1.397 . S
C295 C296 1.438 . S
C295 C300 1.429 . S
C296 C295 1.438 . S
C296 C297 1.428 . S
C296 C309 1.394 1_565 S
C297 H289 0.949 . S
C297 C296 1.428 . S
C297 C298 1.345 . S
C298 H290 0.950 . S
C298 C297 1.345 . S
C298 C299 1.424 . S
C299 H291 0.951 . S
C299 C298 1.424 . S
C299 C300 1.347 . S
C300 H292 0.951 . S
C300 C295 1.429 . S
C300 C299 1.347 . S
H301 C302 0.951 . S
C302 H301 0.951 . S
C302 C308 1.265 1_565 S
H303 C308 0.950 . S
H304 C312 0.949 . S
H305 C313 0.950 . S
H306 C314 0.951 . S
H307 C315 0.951 . S
C308 C302 1.265 1_545 S
C308 H303 0.950 . S
C308 C309 1.478 . S
C309 C296 1.394 1_545 S
C309 C308 1.478 . S
C309 C310 1.397 . S
C310 C309 1.397 . S
C310 C311 1.438 . S
C310 C315 1.429 . S
C311 C294 1.394 1_545 S
C311 C310 1.438 . S
C311 C312 1.428 . S
C312 H304 0.949 . S
C312 C311 1.428 . S
C312 C313 1.345 . S
C313 H305 0.950 . S
C313 C312 1.345 . S
C313 C314 1.424 . S
C314 H306 0.951 . S
C314 C313 1.424 . S
C314 C315 1.347 . S
C315 H307 0.951 . S
C315 C310 1.429 . S
C315 C314 1.347 . S
H316 C317 0.951 . S
C317 H316 0.951 . S
C317 C323 1.265 1_455 S
H318 C323 0.950 . S
H319 C327 0.949 . S
H320 C328 0.950 . S
H321 C329 0.951 . S
H322 C330 0.951 . S
C323 C317 1.265 1_655 S
C323 H318 0.950 . S
C323 C324 1.478 . S
C324 C323 1.478 . S
C324 C325 1.397 . S
C324 C341 1.394 1_655 S
C325 C324 1.397 . S
C325 C326 1.438 . S
C325 C330 1.429 . S
C326 C325 1.438 . S
C326 C327 1.428 . S
C326 C339 1.390 1_655 S
C327 H319 0.949 . S
C327 C326 1.428 . S
C327 C328 1.345 . S
C328 H320 0.950 . S
C328 C327 1.345 . S
C328 C329 1.424 . S
C329 H321 0.951 . S
C329 C328 1.424 . S
C329 C330 1.347 . S
C330 H322 0.951 . S
C330 C325 1.429 . S
C330 C329 1.347 . S
H331 C332 0.951 . S
C332 H331 0.951 . S
C332 C338 1.265 1_655 S
H333 C338 0.950 . S
H334 C342 0.949 . S
H335 C343 0.950 . S
H336 C344 0.951 . S
H337 C345 0.951 . S
C338 C332 1.265 1_455 S
C338 H333 0.950 . S
C338 C339 1.479 . S
C339 C326 1.390 1_455 S
C339 C338 1.479 . S
C339 C340 1.400 . S
C340 C339 1.400 . S
C340 C341 1.438 . S
C340 C345 1.429 . S
C341 C324 1.394 1_455 S
C341 C340 1.438 . S
C341 C342 1.428 . S
C342 H334 0.949 . S
C342 C341 1.428 . S
C342 C343 1.345 . S
C343 H335 0.950 . S
C343 C342 1.345 . S
C343 C344 1.424 . S
C344 H336 0.951 . S
C344 C343 1.424 . S
C344 C345 1.347 . S
C345 H337 0.951 . S
C345 C340 1.429 . S
C345 C344 1.347 . S
H346 C347 0.951 . S
C347 H346 0.951 . S
C347 C353 1.265 . S
H348 C353 0.950 1_545 S
H349 C357 0.949 . S
H350 C358 0.950 . S
H351 C359 0.951 . S
H352 C360 0.951 . S
C353 C347 1.265 . S
C353 H348 0.950 1_565 S
C353 C354 1.478 . S
C354 C353 1.478 . S
C354 C355 1.397 . S
C354 C371 1.394 1_565 S
C355 C354 1.397 . S
C355 C356 1.438 . S
C355 C360 1.429 . S
C356 C355 1.438 . S
C356 C357 1.428 . S
C356 C369 1.394 . S
C357 H349 0.949 . S
C357 C356 1.428 . S
C357 C358 1.345 . S
C358 H350 0.950 . S
C358 C357 1.345 . S
C358 C359 1.424 . S
C359 H351 0.951 . S
C359 C358 1.424 . S
C359 C360 1.347 . S
C360 H352 0.951 . S
C360 C355 1.429 . S
C360 C359 1.347 . S
H361 C362 0.951 . S
C362 H361 0.951 . S
C362 C368 1.265 . S
H363 C368 0.950 . S
H364 C372 0.949 . S
H365 C373 0.950 . S
H366 C374 0.951 . S
H367 C375 0.951 . S
C368 C362 1.265 . S
C368 H363 0.950 . S
C368 C369 1.478 . S
C369 C356 1.394 . S
C369 C368 1.478 . S
C369 C370 1.397 1_565 S
C370 C369 1.397 1_545 S
C370 C371 1.438 . S
C370 C375 1.429 . S
C371 C354 1.394 1_545 S
C371 C370 1.438 . S
C371 C372 1.428 . S
C372 H364 0.949 . S
C372 C371 1.428 . S
C372 C373 1.345 . S
C373 H365 0.950 . S
C373 C372 1.345 . S
C373 C374 1.424 . S
C374 H366 0.951 . S
C374 C373 1.424 . S
C374 C375 1.347 . S
C375 H367 0.951 . S
C375 C370 1.429 . S
C375 C374 1.347 . S
H376 C377 0.951 . S
C377 H376 0.951 . S
C377 C383 1.265 1_455 S
H378 C383 0.950 . S
H379 C387 0.949 . S
H380 C388 0.950 . S
H381 C389 0.951 . S
H382 C390 0.951 . S
C383 C377 1.265 1_655 S
C383 H378 0.950 . S
C383 C384 1.478 . S
C384 C383 1.478 . S
C384 C385 1.397 . S
C384 C401 1.394 1_655 S
C385 C384 1.397 . S
C385 C386 1.438 . S
C385 C390 1.429 . S
C386 C385 1.438 . S
C386 C387 1.428 . S
C386 C399 1.394 1_655 S
C387 H379 0.949 . S
C387 C386 1.428 . S
C387 C388 1.345 . S
C388 H380 0.950 . S
C388 C387 1.345 . S
C388 C389 1.424 . S
C389 H381 0.951 . S
C389 C388 1.424 . S
C389 C390 1.347 . S
C390 H382 0.951 . S
C390 C385 1.429 . S
C390 C389 1.347 . S
H391 C392 0.951 1_655 S
C392 H391 0.951 1_455 S
C392 C398 1.265 . S
H393 C398 0.950 . S
H394 C402 0.949 . S
H395 C403 0.950 . S
H396 C404 0.951 . S
H397 C405 0.951 . S
C398 C392 1.265 . S
C398 H393 0.950 . S
C398 C399 1.478 . S
C399 C386 1.394 1_455 S
C399 C398 1.478 . S
C399 C400 1.397 . S
C400 C399 1.397 . S
C400 C401 1.438 . S
C400 C405 1.429 . S
C401 C384 1.394 1_455 S
C401 C400 1.438 . S
C401 C402 1.428 . S
C402 H394 0.949 . S
C402 C401 1.428 . S
C402 C403 1.345 . S
C403 H395 0.950 . S
C403 C402 1.345 . S
C403 C404 1.424 . S
C404 H396 0.951 . S
C404 C403 1.424 . S
C404 C405 1.347 . S
C405 H397 0.951 . S
C405 C400 1.429 . S
C405 C404 1.347 . S
H406 C407 0.951 . S
C407 H406 0.951 . S
C407 C413 1.265 . S
H408 C413 0.950 . S
H409 C417 0.949 . S
H410 C418 0.950 . S
H411 C419 0.951 . S
H412 C420 0.951 . S
C413 C407 1.265 . S
C413 H408 0.950 . S
C413 C414 1.478 . S
C414 C413 1.478 . S
C414 C415 1.397 . S
C414 C431 1.394 1_545 S
C415 C414 1.397 . S
C415 C416 1.438 . S
C415 C420 1.429 . S
C416 C415 1.438 . S
C416 C417 1.428 . S
C416 C429 1.394 . S
C417 H409 0.949 . S
C417 C416 1.428 . S
C417 C418 1.345 . S
C418 H410 0.950 . S
C418 C417 1.345 . S
C418 C419 1.424 . S
C419 H411 0.951 . S
C419 C418 1.424 . S
C419 C420 1.347 . S
C420 H412 0.951 . S
C420 C415 1.429 . S
C420 C419 1.347 . S
H421 C422 0.951 . S
C422 H421 0.951 . S
C422 C428 1.265 . S
H423 C428 0.950 . S
H424 C432 0.949 . S
H425 C433 0.950 . S
H426 C434 0.951 . S
H427 C435 0.951 . S
C428 C422 1.265 . S
C428 H423 0.950 . S
C428 C429 1.478 . S
C429 C416 1.394 . S
C429 C428 1.478 . S
C429 C430 1.397 1_545 S
C430 C429 1.397 1_565 S
C430 C431 1.438 . S
C430 C435 1.429 . S
C431 C414 1.394 1_565 S
C431 C430 1.438 . S
C431 C432 1.428 . S
C432 H424 0.949 . S
C432 C431 1.428 . S
C432 C433 1.345 . S
C433 H425 0.950 . S
C433 C432 1.345 . S
C433 C434 1.424 . S
C434 H426 0.951 . S
C434 C433 1.424 . S
C434 C435 1.347 . S
C435 H427 0.951 . S
C435 C430 1.429 . S
C435 C434 1.347 . S
H436 C437 0.951 . S
C437 H436 0.951 . S
C437 C443 1.265 . S
H438 C443 0.950 . S
H439 C447 0.949 . S
H440 C448 0.950 . S
H441 C449 0.951 . S
H442 C450 0.951 . S
C443 C437 1.265 . S
C443 H438 0.950 . S
C443 C444 1.478 . S
C444 C443 1.478 . S
C444 C445 1.397 . S
C444 C461 1.394 1_554 S
C445 C444 1.397 . S
C445 C446 1.438 . S
C445 C450 1.429 . S
C446 C445 1.438 . S
C446 C447 1.428 . S
C446 C459 1.394 . S
C447 H439 0.949 . S
C447 C446 1.428 . S
C447 C448 1.345 . S
C448 H440 0.950 . S
C448 C447 1.345 . S
C448 C449 1.424 . S
C449 H441 0.951 . S
C449 C448 1.424 . S
C449 C450 1.347 . S
C450 H442 0.951 . S
C450 C445 1.429 . S
C450 C449 1.347 . S
H451 C452 0.951 . S
C452 H451 0.951 . S
C452 C458 1.265 . S
H453 C458 0.950 . S
H454 C462 0.949 . S
H455 C463 0.950 . S
H456 C464 0.951 . S
H457 C465 0.951 . S
C458 C452 1.265 . S
C458 H453 0.950 . S
C458 C459 1.478 . S
C459 C446 1.394 . S
C459 C458 1.478 . S
C459 C460 1.397 1_554 S
C460 C459 1.397 1_556 S
C460 C461 1.438 . S
C460 C465 1.429 . S
C461 C444 1.394 1_556 S
C461 C460 1.438 . S
C461 C462 1.428 . S
C462 H454 0.949 . S
C462 C461 1.428 . S
C462 C463 1.345 . S
C463 H455 0.950 . S
C463 C462 1.345 . S
C463 C464 1.424 . S
C464 H456 0.951 . S
C464 C463 1.424 . S
C464 C465 1.347 . S
C465 H457 0.951 . S
C465 C460 1.429 . S
C465 C464 1.347 . S
H466 C467 0.951 . S
C467 H466 0.951 . S
C467 C473 1.265 . S
H468 C473 0.950 . S
H469 C477 0.949 . S
H470 C478 0.950 . S
H471 C479 0.951 . S
H472 C480 0.951 . S
C473 C467 1.265 . S
C473 H468 0.950 . S
C473 C474 1.478 . S
C474 C473 1.478 . S
C474 C475 1.397 1_554 S
C474 C491 1.394 . S
C475 C474 1.397 1_556 S
C475 C476 1.438 . S
C475 C480 1.429 . S
C476 C475 1.438 . S
C476 C477 1.428 . S
C476 C489 1.394 1_556 S
C477 H469 0.949 . S
C477 C476 1.428 . S
C477 C478 1.345 . S
C478 H470 0.950 . S
C478 C477 1.345 . S
C478 C479 1.424 . S
C479 H471 0.951 . S
C479 C478 1.424 . S
C479 C480 1.347 . S
C480 H472 0.951 . S
C480 C475 1.429 . S
C480 C479 1.347 . S
H481 C482 0.951 . S
C482 H481 0.951 . S
C482 C488 1.265 . S
H483 C488 0.950 . S
H484 C492 0.949 . S
H485 C493 0.950 . S
H486 C494 0.951 . S
H487 C495 0.951 . S
C488 C482 1.265 . S
C488 H483 0.950 . S
C488 C489 1.478 . S
C489 C476 1.394 1_554 S
C489 C488 1.478 . S
C489 C490 1.397 . S
C490 C489 1.397 . S
C490 C491 1.438 . S
C490 C495 1.429 . S
C491 C474 1.394 . S
C491 C490 1.438 . S
C491 C492 1.428 . S
C492 H484 0.949 . S
C492 C491 1.428 . S
C492 C493 1.345 . S
C493 H485 0.950 . S
C493 C492 1.345 . S
C493 C494 1.424 . S
C494 H486 0.951 . S
C494 C493 1.424 . S
C494 C495 1.347 . S
C495 H487 0.951 . S
C495 C490 1.429 . S
C495 C494 1.347 . S
H496 C497 0.951 . S
C497 H496 0.951 . S
C497 C503 1.265 . S
H498 C503 0.950 . S
H499 C507 0.949 . S
H500 C508 0.950 . S
H501 C509 0.951 . S
H502 C510 0.951 . S
C503 C497 1.265 . S
C503 H498 0.950 . S
C503 C504 1.478 . S
C504 C503 1.478 . S
C504 C505 1.397 1_554 S
C504 C521 1.394 . S
C505 C504 1.397 1_556 S
C505 C506 1.438 . S
C505 C510 1.429 . S
C506 C505 1.438 . S
C506 C507 1.428 . S
C506 C519 1.394 1_556 S
C507 H499 0.949 . S
C507 C506 1.428 . S
C507 C508 1.345 . S
C508 H500 0.950 . S
C508 C507 1.345 . S
C508 C509 1.424 . S
C509 H501 0.951 . S
C509 C508 1.424 . S
C509 C510 1.347 . S
C510 H502 0.951 . S
C510 C505 1.429 . S
C510 C509 1.347 . S
H511 C512 0.951 . S
C512 H511 0.951 . S
C512 C518 1.265 . S
H513 C518 0.950 . S
H514 C522 0.949 . S
H515 C523 0.950 . S
H516 C524 0.951 . S
H517 C525 0.951 . S
C518 C512 1.265 . S
C518 H513 0.950 . S
C518 C519 1.478 . S
C519 C506 1.394 1_554 S
C519 C518 1.478 . S
C519 C520 1.397 . S
C520 C519 1.397 . S
C520 C521 1.438 . S
C520 C525 1.429 . S
C521 C504 1.394 . S
C521 C520 1.438 . S
C521 C522 1.428 . S
C522 H514 0.949 . S
C522 C521 1.428 . S
C522 C523 1.345 . S
C523 H515 0.950 . S
C523 C522 1.345 . S
C523 C524 1.424 . S
C524 H516 0.951 . S
C524 C523 1.424 . S
C524 C525 1.347 . S
C525 H517 0.951 . S
C525 C520 1.429 . S
C525 C524 1.347 . S
H526 C527 0.951 . S
C527 H526 0.951 . S
C527 C533 1.265 . S
H528 C533 0.950 . S
H529 C537 0.949 . S
H530 C538 0.950 . S
H531 C539 0.951 . S
H532 C540 0.951 . S
C533 C527 1.265 . S
C533 H528 0.950 . S
C533 C534 1.478 . S
C534 C533 1.478 . S
C534 C535 1.397 . S
C534 C551 1.394 1_554 S
C535 C534 1.397 . S
C535 C536 1.438 . S
C535 C540 1.429 . S
C536 C535 1.438 . S
C536 C537 1.428 . S
C536 C549 1.394 . S
C537 H529 0.949 . S
C537 C536 1.428 . S
C537 C538 1.345 . S
C538 H530 0.950 . S
C538 C537 1.345 . S
C538 C539 1.424 . S
C539 H531 0.951 . S
C539 C538 1.424 . S
C539 C540 1.347 . S
C540 H532 0.951 . S
C540 C535 1.429 . S
C540 C539 1.347 . S
H541 C542 0.951 . S
C542 H541 0.951 . S
C542 C548 1.265 . S
H543 C548 0.950 . S
H544 C552 0.949 . S
H545 C553 0.950 . S
H546 C554 0.951 . S
H547 C555 0.951 . S
C548 C542 1.265 . S
C548 H543 0.950 . S
C548 C549 1.478 . S
C549 C536 1.394 . S
C549 C548 1.478 . S
C549 C550 1.397 1_554 S
C550 C549 1.397 1_556 S
C550 C551 1.438 . S
C550 C555 1.429 . S
C551 C534 1.394 1_556 S
C551 C550 1.438 . S
C551 C552 1.428 . S
C552 H544 0.949 . S
C552 C551 1.428 . S
C552 C553 1.345 . S
C553 H545 0.950 . S
C553 C552 1.345 . S
C553 C554 1.424 . S
C554 H546 0.951 . S
C554 C553 1.424 . S
C554 C555 1.347 . S
C555 H547 0.951 . S
C555 C550 1.429 . S
C555 C554 1.347 . S
C212 C180 1.990 . S
C197 C36 2.057 . S
C242 C176 1.280 . S
C227 C78 1.410 1_545 S
C272 C186 1.975 1_655 S
C257 C30 2.008 . S
C302 C170 1.341 1_565 S
C287 C69 1.401 . S
C317 C21 2.173 . S
C332 C162 2.112 . S
C362 C194 1.470 . S
C347 C93 1.548 1_565 S
C377 C45 2.141 . S
C392 C148 2.041 . S
C407 C84 1.552 1_545 S
C422 C192 1.477 . S
C437 C132 0.985 . S
C452 C174 0.934 . S
C467 C126 0.992 . S
C482 C189 1.052 . S
C512 C183 1.054 . S
C497 C141 0.993 . S
C542 C178 0.942 . S
C527 C117 0.995 . S
