# Generated by pormake.
# Topology bwt, (3,3)-cn, num edge types: 1
# Building blocks:
#     Node 0, Type 0, BuildingBlock: WUSLED_clean_sbu_0, # of connection points: 3
#     Node 1, Type 0, BuildingBlock: WUSLED_clean_sbu_0, # of connection points: 3
#     Node 2, Type 0, BuildingBlock: WUSLED_clean_sbu_0, # of connection points: 3
#     Node 3, Type 0, BuildingBlock: WUSLED_clean_sbu_0, # of connection points: 3
#     Node 4, Type 0, BuildingBlock: WUSLED_clean_sbu_0, # of connection points: 3
#     Node 5, Type 0, BuildingBlock: WUSLED_clean_sbu_0, # of connection points: 3
#     Node 6, Type 0, BuildingBlock: WUSLED_clean_sbu_0, # of connection points: 3
#     Node 7, Type 0, BuildingBlock: WUSLED_clean_sbu_0, # of connection points: 3
#     Node 8, Type 0, BuildingBlock: WUSLED_clean_sbu_0, # of connection points: 3
#     Node 9, Type 0, BuildingBlock: WUSLED_clean_sbu_0, # of connection points: 3
#     Node 10, Type 0, BuildingBlock: WUSLED_clean_sbu_0, # of connection points: 3
#     Node 11, Type 0, BuildingBlock: WUSLED_clean_sbu_0, # of connection points: 3
#     Node 12, Type 0, BuildingBlock: WUSLED_clean_sbu_0, # of connection points: 3
#     Node 13, Type 0, BuildingBlock: WUSLED_clean_sbu_0, # of connection points: 3
#     Node 14, Type 0, BuildingBlock: WUSLED_clean_sbu_0, # of connection points: 3
#     Node 15, Type 0, BuildingBlock: WUSLED_clean_sbu_0, # of connection points: 3
#     Node 16, Type 0, BuildingBlock: WUSLED_clean_sbu_0, # of connection points: 3
#     Node 17, Type 0, BuildingBlock: WUSLED_clean_sbu_0, # of connection points: 3
#     Node 18, Type 0, BuildingBlock: WUSLED_clean_sbu_0, # of connection points: 3
#     Node 19, Type 0, BuildingBlock: WUSLED_clean_sbu_0, # of connection points: 3
#     Node 20, Type 0, BuildingBlock: WUSLED_clean_sbu_0, # of connection points: 3
#     Node 21, Type 0, BuildingBlock: WUSLED_clean_sbu_0, # of connection points: 3
#     Node 22, Type 0, BuildingBlock: WUSLED_clean_sbu_0, # of connection points: 3
#     Node 23, Type 0, BuildingBlock: WUSLED_clean_sbu_0, # of connection points: 3
#     Node 24, Type 1, BuildingBlock: BETDAH_clean_linker_0, # of connection points: 3
#     Node 25, Type 1, BuildingBlock: BETDAH_clean_linker_0, # of connection points: 3
#     Node 26, Type 1, BuildingBlock: BETDAH_clean_linker_0, # of connection points: 3
#     Node 27, Type 1, BuildingBlock: BETDAH_clean_linker_0, # of connection points: 3
#     Node 28, Type 1, BuildingBlock: BETDAH_clean_linker_0, # of connection points: 3
#     Node 29, Type 1, BuildingBlock: BETDAH_clean_linker_0, # of connection points: 3
#     Node 30, Type 1, BuildingBlock: BETDAH_clean_linker_0, # of connection points: 3
#     Node 31, Type 1, BuildingBlock: BETDAH_clean_linker_0, # of connection points: 3
#     Node 32, Type 1, BuildingBlock: BETDAH_clean_linker_0, # of connection points: 3
#     Node 33, Type 1, BuildingBlock: BETDAH_clean_linker_0, # of connection points: 3
#     Node 34, Type 1, BuildingBlock: BETDAH_clean_linker_0, # of connection points: 3
#     Node 35, Type 1, BuildingBlock: BETDAH_clean_linker_0, # of connection points: 3
#     Node 36, Type 1, BuildingBlock: BETDAH_clean_linker_0, # of connection points: 3
#     Node 37, Type 1, BuildingBlock: BETDAH_clean_linker_0, # of connection points: 3
#     Node 38, Type 1, BuildingBlock: BETDAH_clean_linker_0, # of connection points: 3
#     Node 39, Type 1, BuildingBlock: BETDAH_clean_linker_0, # of connection points: 3
#     Node 40, Type 1, BuildingBlock: BETDAH_clean_linker_0, # of connection points: 3
#     Node 41, Type 1, BuildingBlock: BETDAH_clean_linker_0, # of connection points: 3
#     Node 42, Type 1, BuildingBlock: BETDAH_clean_linker_0, # of connection points: 3
#     Node 43, Type 1, BuildingBlock: BETDAH_clean_linker_0, # of connection points: 3
#     Node 44, Type 1, BuildingBlock: BETDAH_clean_linker_0, # of connection points: 3
#     Node 45, Type 1, BuildingBlock: BETDAH_clean_linker_0, # of connection points: 3
#     Node 46, Type 1, BuildingBlock: BETDAH_clean_linker_0, # of connection points: 3
#     Node 47, Type 1, BuildingBlock: BETDAH_clean_linker_0, # of connection points: 3
#     Edge 48, Type (0, 1), BuildingBlock: XUDNAN_clean_linker_2, # of connection points: 2
#     Edge 49, Type (0, 1), BuildingBlock: XUDNAN_clean_linker_2, # of connection points: 2
#     Edge 50, Type (0, 1), BuildingBlock: XUDNAN_clean_linker_2, # of connection points: 2
#     Edge 51, Type (0, 1), BuildingBlock: XUDNAN_clean_linker_2, # of connection points: 2
#     Edge 52, Type (0, 1), BuildingBlock: XUDNAN_clean_linker_2, # of connection points: 2
#     Edge 53, Type (0, 1), BuildingBlock: XUDNAN_clean_linker_2, # of connection points: 2
#     Edge 54, Type (0, 1), BuildingBlock: XUDNAN_clean_linker_2, # of connection points: 2
#     Edge 55, Type (0, 1), BuildingBlock: XUDNAN_clean_linker_2, # of connection points: 2
#     Edge 56, Type (0, 1), BuildingBlock: XUDNAN_clean_linker_2, # of connection points: 2
#     Edge 57, Type (0, 1), BuildingBlock: XUDNAN_clean_linker_2, # of connection points: 2
#     Edge 58, Type (0, 1), BuildingBlock: XUDNAN_clean_linker_2, # of connection points: 2
#     Edge 59, Type (0, 1), BuildingBlock: XUDNAN_clean_linker_2, # of connection points: 2
#     Edge 60, Type (0, 1), BuildingBlock: XUDNAN_clean_linker_2, # of connection points: 2
#     Edge 61, Type (0, 1), BuildingBlock: XUDNAN_clean_linker_2, # of connection points: 2
#     Edge 62, Type (0, 1), BuildingBlock: XUDNAN_clean_linker_2, # of connection points: 2
#     Edge 63, Type (0, 1), BuildingBlock: XUDNAN_clean_linker_2, # of connection points: 2
#     Edge 64, Type (0, 1), BuildingBlock: XUDNAN_clean_linker_2, # of connection points: 2
#     Edge 65, Type (0, 1), BuildingBlock: XUDNAN_clean_linker_2, # of connection points: 2
#     Edge 66, Type (0, 1), BuildingBlock: XUDNAN_clean_linker_2, # of connection points: 2
#     Edge 67, Type (0, 1), BuildingBlock: XUDNAN_clean_linker_2, # of connection points: 2
#     Edge 68, Type (0, 1), BuildingBlock: XUDNAN_clean_linker_2, # of connection points: 2
#     Edge 69, Type (0, 1), BuildingBlock: XUDNAN_clean_linker_2, # of connection points: 2
#     Edge 70, Type (0, 1), BuildingBlock: XUDNAN_clean_linker_2, # of connection points: 2
#     Edge 71, Type (0, 1), BuildingBlock: XUDNAN_clean_linker_2, # of connection points: 2
#     Edge 72, Type (0, 1), BuildingBlock: XUDNAN_clean_linker_2, # of connection points: 2
#     Edge 73, Type (0, 1), BuildingBlock: XUDNAN_clean_linker_2, # of connection points: 2
#     Edge 74, Type (0, 1), BuildingBlock: XUDNAN_clean_linker_2, # of connection points: 2
#     Edge 75, Type (0, 1), BuildingBlock: XUDNAN_clean_linker_2, # of connection points: 2
#     Edge 76, Type (0, 1), BuildingBlock: XUDNAN_clean_linker_2, # of connection points: 2
#     Edge 77, Type (0, 1), BuildingBlock: XUDNAN_clean_linker_2, # of connection points: 2
#     Edge 78, Type (0, 1), BuildingBlock: XUDNAN_clean_linker_2, # of connection points: 2
#     Edge 79, Type (0, 1), BuildingBlock: XUDNAN_clean_linker_2, # of connection points: 2
#     Edge 80, Type (0, 1), BuildingBlock: XUDNAN_clean_linker_2, # of connection points: 2
#     Edge 81, Type (0, 1), BuildingBlock: XUDNAN_clean_linker_2, # of connection points: 2
#     Edge 82, Type (0, 1), BuildingBlock: XUDNAN_clean_linker_2, # of connection points: 2
#     Edge 83, Type (0, 1), BuildingBlock: XUDNAN_clean_linker_2, # of connection points: 2
#     Edge 84, Type (0, 1), BuildingBlock: XUDNAN_clean_linker_2, # of connection points: 2
#     Edge 85, Type (0, 1), BuildingBlock: XUDNAN_clean_linker_2, # of connection points: 2
#     Edge 86, Type (0, 1), BuildingBlock: XUDNAN_clean_linker_2, # of connection points: 2
#     Edge 87, Type (0, 1), BuildingBlock: XUDNAN_clean_linker_2, # of connection points: 2
#     Edge 88, Type (0, 1), BuildingBlock: XUDNAN_clean_linker_2, # of connection points: 2
#     Edge 89, Type (0, 1), BuildingBlock: XUDNAN_clean_linker_2, # of connection points: 2
#     Edge 90, Type (0, 1), BuildingBlock: XUDNAN_clean_linker_2, # of connection points: 2
#     Edge 91, Type (0, 1), BuildingBlock: XUDNAN_clean_linker_2, # of connection points: 2
#     Edge 92, Type (0, 1), BuildingBlock: XUDNAN_clean_linker_2, # of connection points: 2
#     Edge 93, Type (0, 1), BuildingBlock: XUDNAN_clean_linker_2, # of connection points: 2
#     Edge 94, Type (0, 1), BuildingBlock: XUDNAN_clean_linker_2, # of connection points: 2
#     Edge 95, Type (0, 1), BuildingBlock: XUDNAN_clean_linker_2, # of connection points: 2
#     Edge 96, Type (0, 1), BuildingBlock: XUDNAN_clean_linker_2, # of connection points: 2
#     Edge 97, Type (0, 1), BuildingBlock: XUDNAN_clean_linker_2, # of connection points: 2
#     Edge 98, Type (0, 1), BuildingBlock: XUDNAN_clean_linker_2, # of connection points: 2
#     Edge 99, Type (0, 1), BuildingBlock: XUDNAN_clean_linker_2, # of connection points: 2
#     Edge 100, Type (0, 1), BuildingBlock: XUDNAN_clean_linker_2, # of connection points: 2
#     Edge 101, Type (0, 1), BuildingBlock: XUDNAN_clean_linker_2, # of connection points: 2
#     Edge 102, Type (0, 1), BuildingBlock: XUDNAN_clean_linker_2, # of connection points: 2
#     Edge 103, Type (0, 1), BuildingBlock: XUDNAN_clean_linker_2, # of connection points: 2
#     Edge 104, Type (0, 1), BuildingBlock: XUDNAN_clean_linker_2, # of connection points: 2
#     Edge 105, Type (0, 1), BuildingBlock: XUDNAN_clean_linker_2, # of connection points: 2
#     Edge 106, Type (0, 1), BuildingBlock: XUDNAN_clean_linker_2, # of connection points: 2
#     Edge 107, Type (0, 1), BuildingBlock: XUDNAN_clean_linker_2, # of connection points: 2
#     Edge 108, Type (0, 1), BuildingBlock: XUDNAN_clean_linker_2, # of connection points: 2
#     Edge 109, Type (0, 1), BuildingBlock: XUDNAN_clean_linker_2, # of connection points: 2
#     Edge 110, Type (0, 1), BuildingBlock: XUDNAN_clean_linker_2, # of connection points: 2
#     Edge 111, Type (0, 1), BuildingBlock: XUDNAN_clean_linker_2, # of connection points: 2
#     Edge 112, Type (0, 1), BuildingBlock: XUDNAN_clean_linker_2, # of connection points: 2
#     Edge 113, Type (0, 1), BuildingBlock: XUDNAN_clean_linker_2, # of connection points: 2
#     Edge 114, Type (0, 1), BuildingBlock: XUDNAN_clean_linker_2, # of connection points: 2
#     Edge 115, Type (0, 1), BuildingBlock: XUDNAN_clean_linker_2, # of connection points: 2
#     Edge 116, Type (0, 1), BuildingBlock: XUDNAN_clean_linker_2, # of connection points: 2
#     Edge 117, Type (0, 1), BuildingBlock: XUDNAN_clean_linker_2, # of connection points: 2
#     Edge 118, Type (0, 1), BuildingBlock: XUDNAN_clean_linker_2, # of connection points: 2
#     Edge 119, Type (0, 1), BuildingBlock: XUDNAN_clean_linker_2, # of connection points: 2
# Relax obj value: 0.119
# Max RMSD: 0.173
# Mean RMSD: 0.085
data_MOF--net-bwt--node1-WUSLED_clean_sbu_0--node2-BETDAH_clean_linker_0--edge1-XUDNAN_clean_linker_2
_symmetry_space_group_name_H-M    P1
_symmetry_Int_Tables_number       1
_symmetry_cell_setting            triclinic
loop_
_symmetry_equiv_pos_as_xyz
'x, y, z'
_cell_length_a     69.003621
_cell_length_b     69.028262
_cell_length_c     68.976954
_cell_angle_alpha  95.1222
_cell_angle_beta   95.148807
_cell_angle_gamma 95.145558
loop_
_atom_site_label
_atom_site_type_symbol
_atom_site_fract_x
_atom_site_fract_y
_atom_site_fract_z
_atom_type_partial_charge
C0 C 0.35047 0.64181 0.35003 0.0
C1 C 0.35752 0.64398 0.33181 0.0
C2 C 0.39066 0.6414 0.34612 0.0
C3 C 0.3776 0.64394 0.32989 0.0
C4 C 0.3836 0.64026 0.36447 0.0
C5 C 0.36373 0.64055 0.36642 0.0
U6 U 0.31363 0.62329 0.38101 0.0
O7 O 0.28623 0.63305 0.39041 0.0
O8 O 0.28633 0.60366 0.37523 0.0
C9 C 0.27575 0.61699 0.38241 0.0
C10 C 0.32943 0.63822 0.35191 0.0
C11 C 0.25755 0.61957 0.37046 0.0
C12 C 0.23754 0.63883 0.35035 0.0
C13 C 0.25542 0.63635 0.36066 0.0
C14 C 0.22394 0.60756 0.35906 0.0
C15 C 0.22152 0.62453 0.34958 0.0
C16 C 0.24175 0.60516 0.36943 0.0
C17 C 0.33724 0.6056 0.42803 0.0
C18 C 0.31977 0.58711 0.45049 0.0
C19 C 0.35426 0.59779 0.45817 0.0
C20 C 0.35435 0.60658 0.44074 0.0
C21 C 0.33699 0.58786 0.46324 0.0
C22 C 0.3199 0.59592 0.43299 0.0
C23 C 0.33803 0.6143 0.40947 0.0
O24 O 0.32318 0.61961 0.35139 0.0
O25 O 0.32309 0.64895 0.36626 0.0
O26 O 0.33166 0.63164 0.409 0.0
O27 O 0.3321 0.60242 0.39368 0.0
H28 H 0.34748 0.64489 0.319 0.0
H29 H 0.38279 0.64493 0.31562 0.0
H30 H 0.39342 0.63855 0.3772 0.0
H31 H 0.3586 0.63888 0.38063 0.0
H32 H 0.23615 0.65215 0.34338 0.0
H33 H 0.26745 0.64767 0.3612 0.0
H34 H 0.21207 0.59608 0.35846 0.0
H35 H 0.24314 0.59208 0.37683 0.0
H36 H 0.30627 0.5795 0.45389 0.0
H37 H 0.36766 0.59912 0.46786 0.0
H38 H 0.36784 0.61411 0.43714 0.0
H39 H 0.30655 0.59504 0.42327 0.0
C40 C 0.14061 0.35439 0.74075 0.0
C41 C 0.12993 0.3627 0.75517 0.0
C42 C 0.09947 0.34808 0.73707 0.0
C43 C 0.10955 0.35954 0.75338 0.0
C44 C 0.11023 0.34006 0.72245 0.0
C45 C 0.13067 0.34316 0.72432 0.0
U46 U 0.18648 0.38046 0.76811 0.0
O47 O 0.21471 0.36994 0.77759 0.0
O48 O 0.21364 0.39366 0.75841 0.0
C49 C 0.22448 0.38156 0.76701 0.0
C50 C 0.16206 0.35749 0.74296 0.0
C51 C 0.2384 0.3725 0.75498 0.0
C52 C 0.24692 0.35839 0.72373 0.0
C53 C 0.23288 0.36492 0.73551 0.0
C54 C 0.27189 0.36598 0.75105 0.0
C55 C 0.26667 0.35927 0.73125 0.0
C56 C 0.25786 0.37257 0.76278 0.0
C57 C 0.1813 0.41814 0.8107 0.0
C58 C 0.20518 0.44553 0.82297 0.0
C59 C 0.18179 0.43295 0.84406 0.0
C60 C 0.17366 0.41901 0.82888 0.0
C61 C 0.1976 0.44638 0.84123 0.0
C62 C 0.1972 0.43146 0.80787 0.0
C63 C 0.17263 0.40325 0.79492 0.0
O64 O 0.16938 0.37487 0.73932 0.0
O65 O 0.17043 0.35166 0.75902 0.0
O66 O 0.17613 0.38517 0.79734 0.0
O67 O 0.17428 0.4078 0.777 0.0
H68 H 0.13739 0.37156 0.76789 0.0
H69 H 0.10168 0.36614 0.76473 0.0
H70 H 0.10286 0.33104 0.70981 0.0
H71 H 0.13872 0.33669 0.71304 0.0
H72 H 0.24243 0.35311 0.70859 0.0
H73 H 0.21786 0.36462 0.72928 0.0
H74 H 0.28698 0.36709 0.75724 0.0
H75 H 0.26236 0.37837 0.77779 0.0
H76 H 0.21756 0.45549 0.82048 0.0
H77 H 0.17563 0.43334 0.85798 0.0
H78 H 0.16142 0.40886 0.83135 0.0
H79 H 0.20351 0.43096 0.79403 0.0
C80 C 0.7348 0.0372 0.62657 0.0
C81 C 0.74769 0.04542 0.6142 0.0
C82 C 0.77552 0.04181 0.63743 0.0
C83 C 0.76781 0.04781 0.61963 0.0
C84 C 0.7626 0.03359 0.64983 0.0
C85 C 0.74239 0.03137 0.64445 0.0
U86 U 0.69561 0.02307 0.58527 0.0
O87 O 0.66845 0.00313 0.58232 0.0
O88 O 0.66746 0.03396 0.57685 0.0
C89 C 0.65746 0.01701 0.57789 0.0
C90 C 0.71372 0.03337 0.62015 0.0
C91 C 0.63882 0.01741 0.58668 0.0
C92 C 0.61705 0.03336 0.60743 0.0
C93 C 0.63584 0.03174 0.60161 0.0
C94 C 0.60431 0.00587 0.58407 0.0
C95 C 0.60101 0.02076 0.5983 0.0
C96 C 0.62302 0.00423 0.57834 0.0
C97 C 0.71147 0.01178 0.53481 0.0
C98 C 0.68748 0.00651 0.50639 0.0
C99 C 0.71934 0.99461 0.50474 0.0
C100 C 0.72474 0.00225 0.52411 0.0
C101 C 0.70054 0.9964 0.49572 0.0
C102 C 0.69286 0.01403 0.5258 0.0
C103 C 0.71659 0.01793 0.55572 0.0
O104 O 0.70643 0.04597 0.60897 0.0
O105 O 0.70785 0.01509 0.61375 0.0
O106 O 0.71263 0.00432 0.56732 0.0
O107 O 0.71139 0.03507 0.562 0.0
H108 H 0.74225 0.04969 0.60014 0.0
H109 H 0.77738 0.05387 0.6096 0.0
H110 H 0.76812 0.0289 0.66366 0.0
H111 H 0.73271 0.0248 0.6541 0.0
H112 H 0.61494 0.04502 0.61839 0.0
H113 H 0.64785 0.04209 0.60822 0.0
H114 H 0.59231 0.99576 0.57701 0.0
H115 H 0.62502 0.99307 0.5668 0.0
H116 H 0.67299 0.00837 0.49984 0.0
H117 H 0.72966 0.98664 0.4971 0.0
H118 H 0.73909 1.00022 0.53092 0.0
H119 H 0.68234 0.02123 0.5339 0.0
C120 C 0.74803 0.97986 0.26892 0.0
C121 C 0.7391 0.99619 0.27602 0.0
C122 C 0.70972 0.97539 0.28054 0.0
C123 C 0.72016 0.994 0.28171 0.0
C124 C 0.71893 0.95898 0.27405 0.0
C125 C 0.73785 0.96118 0.26831 0.0
U126 U 0.7767 0.97912 0.22498 0.0
O127 O 0.80012 0.99945 0.21655 0.0
O128 O 0.80508 0.96873 0.21919 0.0
C129 C 0.8128 0.9863 0.21654 0.0
C130 C 0.7672 0.98265 0.26093 0.0
C131 C 0.83234 0.99237 0.2269 0.0
C132 C 0.85471 0.01441 0.24993 0.0
C133 C 0.83576 0.0085 0.24115 0.0
C134 C 0.86693 0.98789 0.23071 0.0
C135 C 0.87057 0.00427 0.24467 0.0
C136 C 0.84806 0.98208 0.22188 0.0
C137 C 0.746 0.965 0.17525 0.0
C138 C 0.73847 0.977 0.1436 0.0
C139 C 0.74176 0.94258 0.1455 0.0
C140 C 0.74566 0.94602 0.16583 0.0
C141 C 0.738 0.95802 0.13417 0.0
C142 C 0.74236 0.98044 0.16388 0.0
C143 C 0.74853 0.96843 0.19688 0.0
O144 O 0.77394 0.96683 0.25307 0.0
O145 O 0.76938 0.99757 0.25045 0.0
O146 O 0.75306 0.98663 0.20438 0.0
O147 O 0.75806 0.95589 0.20631 0.0
H148 H 0.74665 0.01074 0.27689 0.0
H149 H 0.71374 0.00695 0.28702 0.0
H150 H 0.71131 0.94445 0.2728 0.0
H151 H 0.74426 0.94823 0.26294 0.0
H152 H 0.85699 0.02715 0.26053 0.0
H153 H 0.82386 0.01668 0.24534 0.0
H154 H 0.87868 0.97945 0.22661 0.0
H155 H 0.84575 0.96956 0.21098 0.0
H156 H 0.73524 0.98916 0.13537 0.0
H157 H 0.74162 0.92781 0.13866 0.0
H158 H 0.74812 0.93376 0.17419 0.0
H159 H 0.74212 0.99517 0.17065 0.0
C160 C 0.36131 0.3494 0.62183 0.0
C161 C 0.37819 0.36208 0.62088 0.0
C162 C 0.35871 0.38975 0.61962 0.0
C163 C 0.37691 0.38203 0.61981 0.0
C164 C 0.34178 0.37695 0.62044 0.0
C165 C 0.34307 0.35689 0.62143 0.0
U166 U 0.39315 0.30852 0.61916 0.0
O167 O 0.398 0.2844 0.63719 0.0
O168 O 0.38832 0.27803 0.60583 0.0
C169 C 0.39237 0.27089 0.6226 0.0
C170 C 0.36303 0.32849 0.62341 0.0
C171 C 0.37938 0.25391 0.62677 0.0
C172 C 0.35743 0.23759 0.64728 0.0
C173 C 0.36808 0.25458 0.64275 0.0
C174 C 0.36886 0.21925 0.61969 0.0
C175 C 0.35792 0.21965 0.63594 0.0
C176 C 0.3795 0.23617 0.61521 0.0
C177 C 0.44495 0.32207 0.60605 0.0
C178 C 0.46574 0.29976 0.59084 0.0
C179 C 0.47947 0.33194 0.60519 0.0
C180 C 0.46114 0.33598 0.61067 0.0
C181 C 0.48191 0.31388 0.59501 0.0
C182 C 0.44742 0.30378 0.5964 0.0
C183 C 0.42551 0.32724 0.61048 0.0
O184 O 0.36555 0.31837 0.60693 0.0
O185 O 0.37498 0.3247 0.63825 0.0
O186 O 0.42139 0.32586 0.62857 0.0
O187 O 0.41099 0.32028 0.59737 0.0
H188 H 0.39242 0.35657 0.62122 0.0
H189 H 0.39027 0.39147 0.6195 0.0
H190 H 0.32754 0.38242 0.62021 0.0
H191 H 0.32989 0.3473 0.62214 0.0
H192 H 0.34924 0.2384 0.65996 0.0
H193 H 0.36778 0.26809 0.65195 0.0
H194 H 0.36925 0.20582 0.61039 0.0
H195 H 0.38813 0.23532 0.60285 0.0
H196 H 0.46727 0.28564 0.58324 0.0
H197 H 0.49158 0.34319 0.60832 0.0
H198 H 0.45951 0.35016 0.61813 0.0
H199 H 0.43511 0.29275 0.59285 0.0
C200 C 0.28154 0.74693 0.99141 0.0
C201 C 0.26267 0.7412 0.99625 0.0
C202 C 0.2667 0.70716 0.98609 0.0
C203 C 0.25527 0.7215 0.99352 0.0
C204 C 0.28515 0.71323 0.98032 0.0
C205 C 0.29249 0.73288 0.98299 0.0
U206 U 0.28215 0.80322 0.99811 0.0
O207 O 0.30559 0.82517 0.99253 0.0
O208 O 0.29801 0.82267 0.02252 0.0
C209 C 0.30801 0.8328 0.01086 0.0
C210 C 0.29088 0.76696 0.9965 0.0
C211 C 0.30763 0.85411 0.01416 0.0
C212 C 0.31765 0.88447 0.03461 0.0
C213 C 0.31829 0.86434 0.03077 0.0
C214 C 0.29577 0.88446 0.00509 0.0
C215 C 0.30638 0.8948 0.02181 0.0
C216 C 0.29629 0.86429 0.00137 0.0
C217 C 0.22743 0.79856 0.98051 0.0
C218 C 0.1923 0.79747 0.97327 0.0
C219 C 0.20808 0.76747 0.97094 0.0
C220 C 0.22625 0.77821 0.97631 0.0
C221 C 0.19085 0.77698 0.96962 0.0
C222 C 0.21042 0.80813 0.97873 0.0
C223 C 0.24607 0.81 0.98755 0.0
O224 O 0.29274 0.77786 0.98197 0.0
O225 O 0.28571 0.77642 0.01232 0.0
O226 O 0.25977 0.80975 0.97548 0.0
O227 O 0.25261 0.8081 0.0057 0.0
H228 H 0.25393 0.75182 0.00278 0.0
H229 H 0.24084 0.71746 0.99775 0.0
H230 H 0.29445 0.70276 0.97464 0.0
H231 H 0.3071 0.737 0.9792 0.0
H232 H 0.32574 0.89188 0.04777 0.0
H233 H 0.32697 0.85669 0.04092 0.0
H234 H 0.28719 0.89195 0.99475 0.0
H235 H 0.28781 0.85666 0.98852 0.0
H236 H 0.17939 0.80529 0.97204 0.0
H237 H 0.20749 0.75171 0.96838 0.0
H238 H 0.23932 0.77064 0.97751 0.0
H239 H 0.21112 0.82386 0.98183 0.0
C240 C 0.72454 0.12234 0.33527 0.0
C241 C 0.743 0.11731 0.34219 0.0
C242 C 0.73174 0.08277 0.33472 0.0
C243 C 0.74659 0.09767 0.34184 0.0
C244 C 0.71322 0.08794 0.32802 0.0
C245 C 0.70968 0.10757 0.32828 0.0
U246 U 0.73675 0.17641 0.35294 0.0
O247 O 0.7166 0.19833 0.36029 0.0
O248 O 0.73479 0.20176 0.33601 0.0
C249 C 0.7222 0.20943 0.34691 0.0
C250 C 0.72052 0.14287 0.33528 0.0
C251 C 0.72621 0.2304 0.35318 0.0
C252 C 0.71446 0.26249 0.35543 0.0
C253 C 0.71109 0.24238 0.35038 0.0
C254 C 0.74821 0.25892 0.36639 0.0
C255 C 0.73305 0.27103 0.36343 0.0
C256 C 0.7448 0.2387 0.36132 0.0
C257 C 0.78167 0.1912 0.39048 0.0
C258 C 0.78834 0.22081 0.41284 0.0
C259 C 0.81369 0.19914 0.40842 0.0
C260 C 0.80087 0.1868 0.39495 0.0
C261 C 0.80752 0.21617 0.41772 0.0
C262 C 0.77551 0.20843 0.39928 0.0
C263 C 0.76819 0.17701 0.37745 0.0
O264 O 0.71508 0.1508 0.35169 0.0
O265 O 0.73337 0.15433 0.32756 0.0
O266 O 0.76883 0.17809 0.35858 0.0
O267 O 0.75033 0.17404 0.38253 0.0
H268 H 0.75461 0.12857 0.34779 0.0
H269 H 0.76093 0.09412 0.34728 0.0
H270 H 0.70156 0.07682 0.32223 0.0
H271 H 0.69535 0.11122 0.3229 0.0
H272 H 0.70256 0.27141 0.35265 0.0
H273 H 0.69669 0.2362 0.34401 0.0
H274 H 0.76264 0.26504 0.37268 0.0
H275 H 0.75665 0.22962 0.36358 0.0
H276 H 0.78323 0.23393 0.4196 0.0
H277 H 0.82824 0.19496 0.41204 0.0
H278 H 0.80584 0.17352 0.38835 0.0
H279 H 0.76072 0.21211 0.39596 0.0
C280 C 0.65157 0.75601 0.97204 0.0
C281 C 0.63961 0.7714 0.97192 0.0
C282 C 0.66645 0.79321 0.96307 0.0
C283 C 0.64699 0.78985 0.9675 0.0
C284 C 0.67841 0.77773 0.96342 0.0
C285 C 0.67101 0.75929 0.96788 0.0
U286 U 0.60875 0.72163 0.98246 0.0
O287 O 0.59893 0.6914 0.9707 0.0
O288 O 0.60671 0.69837 0.00229 0.0
C289 C 0.60156 0.68461 0.98785 0.0
C290 C 0.64366 0.73643 0.97597 0.0
C291 C 0.6119 0.66692 0.98838 0.0
C292 C 0.63682 0.6468 0.97766 0.0
C293 C 0.62804 0.66432 0.97774 0.0
C294 C 0.61372 0.63458 0.99922 0.0
C295 C 0.62967 0.63169 0.98833 0.0
C296 C 0.60492 0.65202 0.99921 0.0
C297 C 0.55902 0.73948 0.98569 0.0
C298 C 0.53236 0.71702 0.99349 0.0
C299 C 0.52563 0.74799 0.98163 0.0
C300 C 0.54562 0.75268 0.98052 0.0
C301 C 0.51877 0.73001 0.98795 0.0
C302 C 0.55231 0.72169 0.9923 0.0
C303 C 0.5798 0.74374 0.98307 0.0
O304 O 0.6382 0.73512 0.99363 0.0
O305 O 0.6309 0.7273 0.96212 0.0
O306 O 0.58519 0.7353 0.96686 0.0
O307 O 0.59204 0.74232 0.99851 0.0
H308 H 0.6245 0.76907 0.97503 0.0
H309 H 0.6373 0.80135 0.9671 0.0
H310 H 0.69352 0.77989 0.96032 0.0
H311 H 0.68044 0.74755 0.96793 0.0
H312 H 0.64923 0.64509 0.96931 0.0
H313 H 0.6337 0.67572 0.96934 0.0
H314 H 0.60771 0.62317 0.0074 0.0
H315 H 0.59242 0.65376 0.00745 0.0
H316 H 0.52754 0.70294 0.99812 0.0
H317 H 0.51553 0.75835 0.97742 0.0
H318 H 0.55059 0.76644 0.97532 0.0
H319 H 0.56247 0.71123 0.99615 0.0
C320 C 0.63142 0.35302 0.35308 0.0
C321 C 0.62224 0.36433 0.36679 0.0
C322 C 0.63121 0.34329 0.39189 0.0
C323 C 0.62208 0.35948 0.38598 0.0
C324 C 0.64044 0.33198 0.37815 0.0
C325 C 0.64053 0.33681 0.35883 0.0
U326 U 0.62076 0.3903 0.31876 0.0
O327 O 0.63711 0.40302 0.29616 0.0
O328 O 0.60738 0.38854 0.28844 0.0
C329 C 0.62319 0.39689 0.28211 0.0
C330 C 0.63173 0.35865 0.33304 0.0
C331 C 0.62953 0.38765 0.26393 0.0
C332 C 0.63111 0.35946 0.24045 0.0
C333 C 0.62586 0.36746 0.25842 0.0
C334 C 0.6441 0.39163 0.23357 0.0
C335 C 0.64022 0.37149 0.22778 0.0
C336 C 0.63878 0.39959 0.25142 0.0
C337 C 0.60016 0.43558 0.34268 0.0
C338 C 0.58706 0.46131 0.32521 0.0
C339 C 0.59352 0.46578 0.36053 0.0
C340 C 0.60003 0.4472 0.36036 0.0
C341 C 0.58697 0.47309 0.34296 0.0
C342 C 0.59365 0.4427 0.32507 0.0
C343 C 0.60741 0.41625 0.34304 0.0
O344 O 0.61438 0.35943 0.3237 0.0
O345 O 0.64401 0.37395 0.33131 0.0
O346 O 0.62607 0.41574 0.34083 0.0
O347 O 0.59627 0.40161 0.33304 0.0
H348 H 0.61526 0.37699 0.36264 0.0
H349 H 0.61502 0.36856 0.3963 0.0
H350 H 0.64744 0.31934 0.38233 0.0
H351 H 0.64775 0.32798 0.34846 0.0
H352 H 0.62809 0.34388 0.2365 0.0
H353 H 0.61878 0.35793 0.26787 0.0
H354 H 0.65081 0.40136 0.22406 0.0
H355 H 0.64164 0.41521 0.25535 0.0
H356 H 0.58195 0.46642 0.31144 0.0
H357 H 0.59402 0.47457 0.37441 0.0
H358 H 0.60513 0.44194 0.37408 0.0
H359 H 0.5937 0.43391 0.31126 0.0
C360 C 0.02767 0.2847 0.74851 0.0
C361 C 0.04213 0.28721 0.73568 0.0
C362 C 0.01797 0.27849 0.70752 0.0
C363 C 0.03738 0.28416 0.71547 0.0
C364 C 0.00357 0.27535 0.72047 0.0
C365 C 0.00838 0.27838 0.74076 0.0
U366 U 0.02729 0.27711 0.80346 0.0
O367 O 0.02521 0.29889 0.82844 0.0
O368 O 0.05192 0.28417 0.82622 0.0
C369 C 0.042 0.29531 0.83732 0.0
C370 C 0.03297 0.29021 0.76964 0.0
C371 C 0.04146 0.29051 0.85773 0.0
C372 C 0.03707 0.3004 0.8917 0.0
C373 C 0.03839 0.30498 0.87244 0.0
C374 C 0.04235 0.26688 0.88187 0.0
C375 C 0.03888 0.28123 0.89663 0.0
C376 C 0.04348 0.27142 0.86264 0.0
C377 C 0.99598 0.22806 0.78953 0.0
C378 C 0.97684 0.19656 0.78386 0.0
C379 C 0.98945 0.21178 0.7566 0.0
C380 C 0.99782 0.22783 0.76942 0.0
C381 C 0.97928 0.19577 0.7638 0.0
C382 C 0.98514 0.21256 0.7966 0.0
C383 C 0.00623 0.24357 0.80362 0.0
O384 O 0.01885 0.29524 0.78009 0.0
O385 O 0.04504 0.27944 0.77858 0.0
O386 O 0.99874 0.26043 0.8045 0.0
O387 O 0.02538 0.24527 0.80404 0.0
H388 H 0.0571 0.29216 0.74132 0.0
H389 H 0.04888 0.28693 0.70609 0.0
H390 H 0.98854 0.27066 0.71494 0.0
H391 H 0.99693 0.27623 0.75034 0.0
H392 H 0.03412 0.31178 0.90258 0.0
H393 H 0.0367 0.31977 0.86897 0.0
H394 H 0.04416 0.25206 0.88513 0.0
H395 H 0.0458 0.25992 0.85158 0.0
H396 H 0.96885 0.18457 0.78978 0.0
H397 H 0.99167 0.2115 0.74123 0.0
H398 H 0.00619 0.23974 0.76376 0.0
H399 H 0.98354 0.21259 0.81209 0.0
C400 C 0.3576 0.73114 0.16683 0.0
C401 C 0.36298 0.74322 0.15249 0.0
C402 C 0.34557 0.71966 0.12693 0.0
C403 C 0.35699 0.73754 0.1327 0.0
C404 C 0.34044 0.70757 0.14143 0.0
C405 C 0.34638 0.71329 0.16118 0.0
U406 U 0.3889 0.76324 0.20818 0.0
O407 O 0.38099 0.7757 0.23655 0.0
O408 O 0.4036 0.75529 0.23554 0.0
C409 C 0.39304 0.76575 0.24657 0.0
C410 C 0.36362 0.73683 0.1877 0.0
C411 C 0.38521 0.75623 0.26281 0.0
C412 C 0.36476 0.73076 0.27558 0.0
C413 C 0.37135 0.73981 0.25964 0.0
C414 C 0.38565 0.75465 0.29781 0.0
C415 C 0.37206 0.73796 0.29485 0.0
C416 C 0.39215 0.76365 0.28195 0.0
C417 C 0.42641 0.80374 0.1993 0.0
C418 C 0.45215 0.81705 0.22462 0.0
C419 C 0.44197 0.8367 0.19885 0.0
C420 C 0.42835 0.82128 0.19052 0.0
C421 C 0.45396 0.83476 0.21604 0.0
C422 C 0.43843 0.80175 0.21641 0.0
C423 C 0.41115 0.78805 0.19123 0.0
O424 O 0.38147 0.73341 0.1938 0.0
O425 O 0.35906 0.75404 0.19459 0.0
O426 O 0.3933 0.7911 0.1951 0.0
O427 O 0.41535 0.77015 0.1936 0.0
H428 H 0.37171 0.75706 0.15661 0.0
H429 H 0.36106 0.74729 0.12196 0.0
H430 H 0.33199 0.69355 0.13753 0.0
H431 H 0.34223 0.70372 0.17205 0.0
H432 H 0.35437 0.71787 0.27283 0.0
H433 H 0.36584 0.73391 0.24489 0.0
H434 H 0.3913 0.76076 0.31245 0.0
H435 H 0.40278 0.77638 0.28464 0.0
H436 H 0.46094 0.81523 0.23803 0.0
H437 H 0.44309 0.85017 0.1919 0.0
H438 H 0.41912 0.82315 0.17739 0.0
H439 H 0.43701 0.78847 0.22365 0.0
C440 C 0.99935 0.64597 0.7445 0.0
C441 C 0.99315 0.63556 0.75975 0.0
C442 C 0.00344 0.66384 0.78321 0.0
C443 C 0.99509 0.64442 0.77888 0.0
C444 C 0.00953 0.6743 0.76784 0.0
C445 C 0.00751 0.66539 0.74861 0.0
U446 U 0.99079 0.59899 0.71221 0.0
O447 O 0.97362 0.59022 0.68394 0.0
O448 O 0.00522 0.58753 0.68698 0.0
C449 C 0.98912 0.58638 0.67503 0.0
C450 C 0.99787 0.63616 0.72458 0.0
C451 C 0.99104 0.59455 0.65618 0.0
C452 C 0.98138 0.61624 0.63191 0.0
C453 C 0.98001 0.60957 0.65033 0.0
C454 C 0.00515 0.59338 0.62511 0.0
C455 C 0.9939 0.60815 0.61909 0.0
C456 C 0.00365 0.58659 0.64345 0.0
C457 C 0.98111 0.55253 0.73658 0.0
C458 C 0.97639 0.52104 0.71726 0.0
C459 C 0.97307 0.52306 0.75206 0.0
C460 C 0.97733 0.54333 0.75332 0.0
C461 C 0.97252 0.51168 0.73401 0.0
C462 C 0.98063 0.5413 0.71854 0.0
C463 C 0.98532 0.57381 0.73797 0.0
O464 O 0.01178 0.62481 0.72131 0.0
O465 O 0.98033 0.62793 0.7179 0.0
O466 O 0.97125 0.58315 0.7302 0.0
O467 O 0.00271 0.58005 0.73334 0.0
H468 H 0.98686 0.6205 0.75684 0.0
H469 H 0.98991 0.63605 0.79028 0.0
H470 H 0.01618 0.68922 0.77071 0.0
H471 H 0.0125 0.67357 0.737 0.0
H472 H 0.97272 0.62781 0.62772 0.0
H473 H 0.97021 0.61605 0.65989 0.0
H474 H 0.01479 0.58676 0.61547 0.0
H475 H 0.0122 0.57493 0.64762 0.0
H476 H 0.97633 0.51268 0.70319 0.0
H477 H 0.9699 0.51633 0.76517 0.0
H478 H 0.97758 0.55185 0.76733 0.0
H479 H 0.98354 0.54823 0.70547 0.0
C480 C 0.63393 0.36532 0.65591 0.0
C481 C 0.61811 0.37126 0.64448 0.0
C482 C 0.59532 0.35487 0.66416 0.0
C483 C 0.59897 0.3663 0.64873 0.0
C484 C 0.61133 0.34977 0.67611 0.0
C485 C 0.63046 0.35511 0.6721 0.0
U486 U 0.66933 0.38506 0.6217 0.0
O487 O 0.69942 0.39943 0.62763 0.0
O488 O 0.69347 0.37182 0.60868 0.0
C489 C 0.70683 0.3851 0.61782 0.0
C490 C 0.65393 0.36871 0.6504 0.0
C491 C 0.72455 0.37795 0.62726 0.0
C492 C 0.75846 0.38495 0.64095 0.0
C493 C 0.74071 0.39141 0.63409 0.0
C494 C 0.74411 0.3514 0.63468 0.0
C495 C 0.76046 0.36486 0.64095 0.0
C496 C 0.72631 0.35786 0.62795 0.0
C497 C 0.65194 0.41009 0.57794 0.0
C498 C 0.64168 0.41866 0.54545 0.0
C499 C 0.67588 0.42392 0.55798 0.0
C500 C 0.67132 0.41657 0.57541 0.0
C501 C 0.66117 0.42476 0.54265 0.0
C502 C 0.63712 0.41136 0.56296 0.0
C503 C 0.6474 0.40081 0.59558 0.0
O504 O 0.65713 0.35886 0.63398 0.0
O505 O 0.66134 0.38707 0.65196 0.0
O506 O 0.65503 0.41034 0.61227 0.0
O507 O 0.64939 0.38201 0.59464 0.0
H508 H 0.62056 0.37931 0.63199 0.0
H509 H 0.58704 0.37075 0.6394 0.0
H510 H 0.60909 0.34146 0.68845 0.0
H511 H 0.64252 0.35093 0.68144 0.0
H512 H 0.77084 0.39568 0.64548 0.0
H513 H 0.7398 0.40694 0.63353 0.0
H514 H 0.74517 0.33584 0.63471 0.0
H515 H 0.71412 0.34709 0.62281 0.0
H516 H 0.63004 0.41886 0.53387 0.0
H517 H 0.69099 0.42874 0.55643 0.0
H518 H 0.68299 0.4156 0.58679 0.0
H519 H 0.62211 0.40626 0.56462 0.0
C520 C 0.84147 0.64141 0.25555 0.0
C521 C 0.85444 0.63315 0.24344 0.0
C522 C 0.88208 0.65125 0.26369 0.0
C523 C 0.87459 0.63804 0.24746 0.0
C524 C 0.86894 0.65945 0.27578 0.0
C525 C 0.8488 0.65455 0.27173 0.0
U526 U 0.79813 0.611 0.22648 0.0
O527 O 0.77133 0.59692 0.23629 0.0
O528 O 0.76941 0.61915 0.21548 0.0
C529 C 0.76 0.60794 0.22673 0.0
C530 C 0.82031 0.63621 0.25158 0.0
C531 C 0.74522 0.61677 0.2379 0.0
C532 C 0.71665 0.61211 0.25572 0.0
C533 C 0.73136 0.6044 0.24573 0.0
C534 C 0.72935 0.64483 0.25022 0.0
C535 C 0.71542 0.63239 0.258 0.0
C536 C 0.74421 0.63709 0.24032 0.0
C537 C 0.80412 0.57288 0.18567 0.0
C538 C 0.77642 0.54964 0.17287 0.0
C539 C 0.80346 0.55557 0.15335 0.0
C540 C 0.81295 0.56894 0.16842 0.0
C541 C 0.78503 0.54589 0.15538 0.0
C542 C 0.78582 0.56309 0.18782 0.0
C543 C 0.81331 0.58808 0.20084 0.0
O544 O 0.81246 0.64071 0.23469 0.0
O545 O 0.81413 0.61858 0.25558 0.0
O546 O 0.81178 0.58412 0.21897 0.0
O547 O 0.80955 0.60596 0.19784 0.0
H548 H 0.84897 0.62294 0.23088 0.0
H549 H 0.88428 0.63166 0.23772 0.0
H550 H 0.87423 0.66945 0.28854 0.0
H551 H 0.83895 0.66097 0.28127 0.0
H552 H 0.70595 0.60213 0.26127 0.0
H553 H 0.73177 0.58869 0.2439 0.0
H554 H 0.7288 0.66052 0.25185 0.0
H555 H 0.75475 0.647 0.23446 0.0
H556 H 0.76209 0.54269 0.17473 0.0
H557 H 0.81046 0.55291 0.14005 0.0
H558 H 0.827 0.57647 0.16647 0.0
H559 H 0.77859 0.56615 0.20091 0.0
C560 C 0.25533 0.01166 0.35089 0.0
C561 C 0.23956 0.00747 0.36183 0.0
C562 C 0.21681 0.01575 0.33543 0.0
C563 C 0.22046 0.00944 0.35416 0.0
C564 C 0.23275 0.01996 0.32458 0.0
C565 C 0.25183 0.01791 0.33225 0.0
U566 U 0.29185 0.00709 0.39428 0.0
O567 O 0.31737 0.99031 0.39742 0.0
O568 O 0.32117 0.02235 0.40281 0.0
C569 C 0.32976 0.00612 0.40116 0.0
C570 C 0.2755 0.01016 0.35903 0.0
C571 C 0.34769 0.0068 0.39089 0.0
C572 C 0.36966 0.99117 0.3701 0.0
C573 C 0.35151 0.99122 0.37766 0.0
C574 C 0.38019 0.02255 0.38828 0.0
C575 C 0.38435 0.00665 0.37565 0.0
C576 C 0.36211 0.02256 0.39587 0.0
C577 C 0.27598 0.00515 0.44492 0.0
C578 C 0.29976 0.99975 0.47158 0.0
C579 C 0.2699 0.01383 0.47854 0.0
C580 C 0.26395 0.01254 0.45852 0.0
C581 C 0.28803 0.00774 0.48531 0.0
C582 C 0.29383 0.99857 0.45156 0.0
C583 C 0.27069 0.00595 0.42392 0.0
O584 O 0.28338 0.02528 0.37094 0.0
O585 O 0.27884 0.9933 0.36552 0.0
O586 O 0.27335 0.99029 0.41252 0.0
O587 O 0.27708 0.02232 0.41723 0.0
H588 H 0.24204 0.00271 0.37632 0.0
H589 H 0.20855 0.00584 0.36282 0.0
H590 H 0.23052 0.02515 0.31026 0.0
H591 H 0.26387 0.02139 0.32369 0.0
H592 H 0.37245 0.97861 0.36055 0.0
H593 H 0.34076 0.97877 0.3736 0.0
H594 H 0.39106 0.03485 0.3926 0.0
H595 H 0.35959 0.03471 0.40612 0.0
H596 H 0.31368 0.99472 0.47628 0.0
H597 H 0.26065 0.02036 0.48865 0.0
H598 H 0.25022 0.01788 0.45362 0.0
H599 H 0.30341 0.99296 0.44125 0.0
C600 C 0.24643 0.05636 0.72629 0.0
C601 C 0.26164 0.0451 0.73181 0.0
C602 C 0.28375 0.06356 0.71302 0.0
C603 C 0.28007 0.04864 0.7252 0.0
C604 C 0.26861 0.07503 0.70782 0.0
C605 C 0.25012 0.07137 0.71429 0.0
U606 U 0.2141 0.0515 0.7677 0.0
O607 O 0.18573 0.06243 0.77246 0.0
O608 O 0.18864 0.03091 0.7709 0.0
C609 C 0.17672 0.04473 0.77183 0.0
C610 C 0.22683 0.05293 0.73315 0.0
C611 C 0.15773 0.04104 0.75966 0.0
C612 C 0.13392 0.01994 0.73713 0.0
C613 C 0.15264 0.02372 0.74717 0.0
C614 C 0.12523 0.05085 0.75156 0.0
C615 C 0.1199 0.03336 0.73941 0.0
C616 C 0.14386 0.05457 0.76162 0.0
C617 C 0.2381 0.05776 0.81995 0.0
C618 C 0.21869 0.05669 0.84757 0.0
C619 C 0.25407 0.05907 0.85289 0.0
C620 C 0.25518 0.05906 0.83276 0.0
C621 C 0.2358 0.05778 0.86053 0.0
C622 C 0.21984 0.05665 0.82743 0.0
C623 C 0.23948 0.05731 0.79882 0.0
O624 O 0.22311 0.03649 0.74102 0.0
O625 O 0.2206 0.06808 0.74281 0.0
O626 O 0.23185 0.07158 0.79037 0.0
O627 O 0.23485 0.04012 0.7889 0.0
H628 H 0.25935 0.03355 0.74125 0.0
H629 H 0.29147 0.03971 0.7297 0.0
H630 H 0.27088 0.08658 0.6984 0.0
H631 H 0.23866 0.08028 0.70988 0.0
H632 H 0.13026 0.00627 0.72802 0.0
H633 H 0.16294 0.0129 0.74541 0.0
H634 H 0.11496 0.0617 0.75338 0.0
H635 H 0.14734 0.06798 0.77122 0.0
H636 H 0.20442 0.05588 0.85299 0.0
H637 H 0.26751 0.0596 0.86241 0.0
H638 H 0.26939 0.05986 0.82718 0.0
H639 H 0.20649 0.05567 0.81768 0.0
C640 C 0.64532 0.6392 0.37567 0.0
C641 C 0.6351 0.62087 0.36934 0.0
C642 C 0.66515 0.60521 0.37439 0.0
C643 C 0.64498 0.60404 0.36853 0.0
C644 C 0.67509 0.62351 0.3815 0.0
C645 C 0.66527 0.64034 0.38202 0.0
U646 U 0.60196 0.66812 0.38507 0.0
O647 O 0.60164 0.69827 0.39844 0.0
O648 O 0.58854 0.68993 0.36831 0.0
C649 C 0.59427 0.70428 0.38205 0.0
C650 C 0.6356 0.65732 0.3757 0.0
C651 C 0.60514 0.72163 0.3758 0.0
C652 C 0.62755 0.73659 0.3549 0.0
C653 C 0.61678 0.72005 0.36014 0.0
C654 C 0.61534 0.75646 0.38098 0.0
C655 C 0.62708 0.755 0.36533 0.0
C656 C 0.60445 0.73995 0.3861 0.0
C657 C 0.55725 0.64345 0.40516 0.0
C658 C 0.53479 0.65894 0.42536 0.0
C659 C 0.52455 0.62774 0.40663 0.0
C660 C 0.54285 0.62785 0.39941 0.0
C661 C 0.52041 0.64318 0.41986 0.0
C662 C 0.55301 0.65912 0.41801 0.0
C663 C 0.57668 0.64292 0.39797 0.0
O664 O 0.62027 0.6572 0.36289 0.0
O665 O 0.63318 0.66568 0.39307 0.0
O666 O 0.59128 0.6529 0.4092 0.0
O667 O 0.57741 0.64498 0.37928 0.0
H668 H 0.6196 0.61961 0.3646 0.0
H669 H 0.63691 0.5902 0.36288 0.0
H670 H 0.69052 0.62488 0.38653 0.0
H671 H 0.67334 0.65432 0.38718 0.0
H672 H 0.6362 0.73493 0.34262 0.0
H673 H 0.61766 0.70603 0.35203 0.0
H674 H 0.61487 0.77029 0.38959 0.0
H675 H 0.59569 0.74144 0.39833 0.0
H676 H 0.53189 0.67124 0.43519 0.0
H677 H 0.51376 0.6154 0.40212 0.0
H678 H 0.54581 0.61567 0.38947 0.0
H679 H 0.5638 0.67147 0.42247 0.0
C680 C 0.72107 0.2609 0.00777 0.0
C681 C 0.72137 0.2702 0.02681 0.0
C682 C 0.71274 0.30026 0.01376 0.0
C683 C 0.71724 0.28962 0.02975 0.0
C684 C 0.71176 0.29073 0.99473 0.0
C685 C 0.71584 0.27126 0.99179 0.0
U686 U 0.76192 0.22857 0.01157 0.0
O687 O 0.7642 0.19932 0.02118 0.0
O688 O 0.77066 0.205 0.99148 0.0
C689 C 0.76845 0.1919 0.00404 0.0
C690 C 0.72756 0.2411 0.00441 0.0
C691 C 0.75719 0.1733 0.99644 0.0
C692 C 0.72629 0.1539 0.98599 0.0
C693 C 0.73692 0.17209 0.99156 0.0
C694 C 0.75622 0.13812 0.98967 0.0
C695 C 0.7358 0.13665 0.98526 0.0
C696 C 0.76679 0.15628 0.9952 0.0
C697 C 0.81155 0.25489 0.03425 0.0
C698 C 0.83763 0.26247 0.06072 0.0
C699 C 0.84554 0.25398 0.02772 0.0
C700 C 0.82564 0.25158 0.02114 0.0
C701 C 0.85179 0.2597 0.04756 0.0
C702 C 0.81775 0.26018 0.05411 0.0
C703 C 0.79056 0.25425 0.02742 0.0
O704 O 0.73988 0.23915 0.99103 0.0
O705 O 0.73248 0.23248 0.02014 0.0
O706 O 0.77838 0.24482 0.03773 0.0
O707 O 0.78571 0.25108 0.00844 0.0
H708 H 0.7252 0.26267 0.03951 0.0
H709 H 0.71767 0.29634 0.04461 0.0
H710 H 0.70849 0.29849 0.98206 0.0
H711 H 0.71539 0.26444 0.97696 0.0
H712 H 0.71062 0.1533 0.9825 0.0
H713 H 0.72929 0.18515 0.99247 0.0
H714 H 0.76399 0.12517 0.98961 0.0
H715 H 0.78243 0.15697 0.99904 0.0
H716 H 0.84191 0.26661 0.07613 0.0
H717 H 0.85603 0.252 0.01712 0.0
H718 H 0.82138 0.24758 0.0057 0.0
H719 H 0.80719 0.2629 0.0645 0.0
C720 C 0.25548 0.84276 0.6444 0.0
C721 C 0.24386 0.85523 0.63464 0.0
C722 C 0.26148 0.88351 0.65433 0.0
C723 C 0.24686 0.87546 0.63954 0.0
C724 C 0.27324 0.87089 0.66386 0.0
C725 C 0.27024 0.85069 0.65892 0.0
U726 U 0.22543 0.79801 0.61747 0.0
O727 O 0.23411 0.77074 0.60352 0.0
O728 O 0.21588 0.7698 0.62802 0.0
C729 C 0.22586 0.75992 0.61586 0.0
C730 C 0.25188 0.82146 0.64001 0.0
C731 C 0.23745 0.74507 0.62405 0.0
C732 C 0.26752 0.72927 0.62747 0.0
C733 C 0.25751 0.74496 0.62195 0.0
C734 C 0.23786 0.71406 0.63822 0.0
C735 C 0.2577 0.71348 0.63529 0.0
C736 C 0.22782 0.72967 0.63256 0.0
C737 C 0.18162 0.80192 0.58179 0.0
C738 C 0.16566 0.79619 0.54859 0.0
C739 C 0.15499 0.77615 0.57346 0.0
C740 C 0.16904 0.7866 0.58722 0.0
C741 C 0.15334 0.78062 0.55394 0.0
C742 C 0.17961 0.8068 0.56244 0.0
C743 C 0.19783 0.81176 0.59565 0.0
O744 O 0.23584 0.81354 0.64624 0.0
O745 O 0.25445 0.81467 0.62209 0.0
O746 O 0.21539 0.80994 0.59017 0.0
O747 O 0.19667 0.80937 0.61424 0.0
H748 H 0.23231 0.8493 0.62344 0.0
H749 H 0.23741 0.88473 0.63209 0.0
H750 H 0.28478 0.87664 0.67512 0.0
H751 H 0.27934 0.84124 0.66657 0.0
H752 H 0.28287 0.72931 0.62526 0.0
H753 H 0.26537 0.75667 0.61551 0.0
H754 H 0.22986 0.70202 0.64404 0.0
H755 H 0.21233 0.72939 0.63421 0.0
H756 H 0.16462 0.80003 0.53367 0.0
H757 H 0.1459 0.76405 0.57795 0.0
H758 H 0.17036 0.78229 0.60196 0.0
H759 H 0.1892 0.8185 0.5579 0.0
C760 C 0.34266 0.27268 0.0105 0.0
C761 C 0.35301 0.25684 0.01508 0.0
C762 C 0.3224 0.23639 0.01532 0.0
C763 C 0.34298 0.23887 0.0175 0.0
C764 C 0.31212 0.25229 0.01047 0.0
C765 C 0.32219 0.2703 0.00809 0.0
U766 U 0.39052 0.30359 0.00981 0.0
O767 O 0.39937 0.32695 0.99182 0.0
O768 O 0.40071 0.3331 0.02375 0.0
C769 C 0.40227 0.34032 0.0069 0.0
C770 C 0.35322 0.29174 0.00869 0.0
C771 C 0.39339 0.35872 0.00472 0.0
C772 C 0.36988 0.37778 0.98867 0.0
C773 C 0.37758 0.35993 0.9907 0.0
C774 C 0.39338 0.39331 0.0149 0.0
C775 C 0.37774 0.39472 0.0007 0.0
C776 C 0.40115 0.37552 0.01682 0.0
C777 C 0.43829 0.28141 0.01593 0.0
C778 C 0.46837 0.3008 0.01136 0.0
C779 C 0.46965 0.27037 0.02625 0.0
C780 C 0.44921 0.26757 0.02428 0.0
C781 C 0.47944 0.28702 0.01982 0.0
C782 C 0.44798 0.29806 0.00951 0.0
C783 C 0.41685 0.2789 0.01458 0.0
O784 O 0.36381 0.29968 0.0247 0.0
O785 O 0.36247 0.29276 0.9929 0.0
O786 O 0.40798 0.28132 0.99741 0.0
O787 O 0.40917 0.28782 0.02924 0.0
H788 H 0.36885 0.25848 0.01704 0.0
H789 H 0.35137 0.22707 0.02154 0.0
H790 H 0.29629 0.2508 0.00847 0.0
H791 H 0.31401 0.2824 0.0045 0.0
H792 H 0.35799 0.37836 0.97743 0.0
H793 H 0.37128 0.34715 0.9812 0.0
H794 H 0.39956 0.40595 0.02467 0.0
H795 H 0.41329 0.37488 0.02778 0.0
H796 H 0.47548 0.31391 0.00655 0.0
H797 H 0.47781 0.25945 0.03271 0.0
H798 H 0.44194 0.2547 0.02939 0.0
H799 H 0.43975 0.30903 0.00324 0.0
C800 C 0.36692 0.62603 0.65838 0.0
C801 C 0.37303 0.61155 0.64537 0.0
C802 C 0.36435 0.62987 0.61779 0.0
C803 C 0.37185 0.61346 0.62536 0.0
C804 C 0.35874 0.64459 0.63109 0.0
C805 C 0.35988 0.64262 0.65118 0.0
U806 U 0.38429 0.596 0.69686 0.0
O807 O 0.4001 0.60277 0.7262 0.0
O808 O 0.37173 0.58496 0.7224 0.0
C809 C 0.38584 0.59426 0.73482 0.0
C810 C 0.36856 0.62369 0.67939 0.0
C811 C 0.38 0.60542 0.75235 0.0
C812 C 0.35516 0.61602 0.77281 0.0
C813 C 0.36024 0.60667 0.75539 0.0
C814 C 0.38945 0.62335 0.7843 0.0
C815 C 0.36971 0.6243 0.78758 0.0
C816 C 0.39451 0.61394 0.76695 0.0
C817 C 0.40838 0.55171 0.6751 0.0
C818 C 0.42247 0.52722 0.6936 0.0
C819 C 0.41952 0.52317 0.65814 0.0
C820 C 0.41128 0.54084 0.65767 0.0
C821 C 0.42493 0.51599 0.67609 0.0
C822 C 0.41419 0.54498 0.69311 0.0
C823 C 0.39869 0.56963 0.67396 0.0
O824 O 0.3582 0.60819 0.68413 0.0
O825 O 0.3866 0.62581 0.68778 0.0
O826 O 0.40887 0.58586 0.68186 0.0
O827 O 0.38035 0.56838 0.67783 0.0
H828 H 0.37876 0.59871 0.65071 0.0
H829 H 0.37702 0.60206 0.61594 0.0
H830 H 0.35309 0.65751 0.62608 0.0
H831 H 0.35522 0.65402 0.66105 0.0
H832 H 0.33982 0.61626 0.7749 0.0
H833 H 0.34866 0.60015 0.7445 0.0
H834 H 0.40105 0.62984 0.79518 0.0
H835 H 0.40984 0.6131 0.76505 0.0
H836 H 0.42623 0.52194 0.70764 0.0
H837 H 0.42138 0.51494 0.64441 0.0
H838 H 0.40685 0.54589 0.64366 0.0
H839 H 0.41195 0.55324 0.7067 0.0
C840 C 0.04748 0.72643 0.26342 0.0
C841 C 0.05705 0.71054 0.2693 0.0
C842 C 0.0488 0.71766 0.30264 0.0
C843 C 0.05778 0.70623 0.28879 0.0
C844 C 0.03915 0.7335 0.29663 0.0
C845 C 0.03861 0.73793 0.27727 0.0
U846 U 0.05172 0.76613 0.23001 0.0
O847 O 0.06628 0.76906 0.20307 0.0
O848 O 0.03469 0.77142 0.20295 0.0
C849 C 0.04971 0.77053 0.19254 0.0
C850 C 0.04779 0.73178 0.24323 0.0
C851 C 0.04622 0.75858 0.17351 0.0
C852 C 0.0253 0.73596 0.14977 0.0
C853 C 0.02953 0.74516 0.16877 0.0
C854 C 0.05483 0.75268 0.14026 0.0
C855 C 0.03772 0.73991 0.13523 0.0
C856 C 0.05898 0.76197 0.1592 0.0
C857 C 0.05866 0.8183 0.25402 0.0
C858 C 0.06282 0.84596 0.23486 0.0
C859 C 0.05554 0.85101 0.26858 0.0
C860 C 0.05536 0.83096 0.27012 0.0
C861 C 0.05907 0.85874 0.25087 0.0
C862 C 0.06254 0.82588 0.23641 0.0
C863 C 0.05686 0.79716 0.25544 0.0
O864 O 0.03284 0.74076 0.23672 0.0
O865 O 0.06469 0.73989 0.23905 0.0
O866 O 0.07137 0.78781 0.24952 0.0
O867 O 0.03956 0.78816 0.24914 0.0
H868 H 0.06422 0.70166 0.2589 0.0
H869 H 0.06567 0.69419 0.29312 0.0
H870 H 0.03188 0.74244 0.30688 0.0
H871 H 0.03135 0.75045 0.27319 0.0
H872 H 0.01212 0.72603 0.14634 0.0
H873 H 0.01946 0.74218 0.17955 0.0
H874 H 0.06457 0.7562 0.12933 0.0
H875 H 0.07185 0.77235 0.16249 0.0
H876 H 0.06578 0.85145 0.22109 0.0
H877 H 0.05224 0.86034 0.28108 0.0
H878 H 0.05217 0.82529 0.28376 0.0
H879 H 0.06502 0.81624 0.22378 0.0
C880 C 0.64967 0.24328 0.85102 0.0
C881 C 0.64288 0.2277 0.86121 0.0
C882 C 0.65372 0.2468 0.89229 0.0
C883 C 0.645 0.22941 0.88165 0.0
C884 C 0.6602 0.26249 0.88204 0.0
C885 C 0.65824 0.26071 0.86156 0.0
U886 U 0.62273 0.22117 0.80282 0.0
O887 O 0.61561 0.23347 0.77506 0.0
O888 O 0.63352 0.20869 0.77574 0.0
C889 C 0.62582 0.22152 0.76518 0.0
C890 C 0.64777 0.24149 0.82948 0.0
C891 C 0.63791 0.2299 0.75084 0.0
C892 C 0.65396 0.25762 0.73707 0.0
C893 C 0.64487 0.2498 0.75242 0.0
C894 C 0.64993 0.22563 0.71885 0.0
C895 C 0.65622 0.24569 0.71991 0.0
C896 C 0.6409 0.21786 0.73414 0.0
C897 C 0.57744 0.18611 0.80196 0.0
C898 C 0.56533 0.16451 0.77285 0.0
C899 C 0.54343 0.17247 0.7973 0.0
C900 C 0.5588 0.18412 0.80857 0.0
C901 C 0.5465 0.16261 0.77924 0.0
C902 C 0.58057 0.17626 0.784 0.0
C903 C 0.59331 0.19914 0.81334 0.0
O904 O 0.65081 0.22432 0.82104 0.0
O905 O 0.63247 0.24872 0.82118 0.0
O906 O 0.59267 0.21782 0.8113 0.0
O907 O 0.61095 0.19347 0.81266 0.0
H908 H 0.63598 0.21419 0.85336 0.0
H909 H 0.63964 0.21717 0.88915 0.0
H910 H 0.6671 0.27602 0.88985 0.0
H911 H 0.6635 0.2729 0.85396 0.0
H912 H 0.65882 0.27309 0.73847 0.0
H913 H 0.64277 0.25938 0.76521 0.0
H914 H 0.65107 0.21603 0.70579 0.0
H915 H 0.63551 0.20251 0.73256 0.0
H916 H 0.56837 0.15684 0.75924 0.0
H917 H 0.5291 0.17151 0.80257 0.0
H918 H 0.55607 0.19177 0.82231 0.0
H919 H 0.59481 0.1777 0.77852 0.0
C920 C 0.02392 0.33981 0.28303 0.0
C921 C 0.02146 0.3543 0.27024 0.0
C922 C 0.02355 0.33077 0.24225 0.0
C923 C 0.02125 0.34984 0.2501 0.0
C924 C 0.02649 0.31633 0.25512 0.0
C925 C 0.02659 0.32082 0.2754 0.0
U926 U 0.02071 0.37927 0.32257 0.0
O927 O 0.00306 0.382 0.34747 0.0
O928 O 0.0351 0.38637 0.35251 0.0
C929 C 0.01844 0.38533 0.36042 0.0
C930 C 0.02335 0.34487 0.30416 0.0
C931 C 0.01757 0.37457 0.37784 0.0
C932 C 0.01691 0.34446 0.39369 0.0
C933 C 0.0191 0.35438 0.37701 0.0
C934 C 0.01198 0.37488 0.41211 0.0
C935 C 0.01301 0.35458 0.41135 0.0
C936 C 0.01425 0.38475 0.39552 0.0
C937 C 0.01768 0.42959 0.30237 0.0
C938 C 0.01839 0.46115 0.32126 0.0
C939 C 0.01249 0.45855 0.2859 0.0
C940 C 0.01393 0.43849 0.28516 0.0
C941 C 0.01472 0.47016 0.30394 0.0
C942 C 0.01981 0.44096 0.32048 0.0
C943 C 0.01947 0.40851 0.30076 0.0
O944 O 0.03865 0.3561 0.3128 0.0
O945 O 0.00669 0.35081 0.30897 0.0
O946 O 0.00388 0.39732 0.30389 0.0
O947 O 0.03585 0.403 0.30873 0.0
H948 H 0.01953 0.36909 0.27586 0.0
H949 H 0.01932 0.36137 0.24064 0.0
H950 H 0.02824 0.3015 0.24949 0.0
H951 H 0.02855 0.30947 0.28506 0.0
H952 H 0.01761 0.32879 0.3926 0.0
H953 H 0.02159 0.34628 0.36341 0.0
H954 H 0.00925 0.38315 0.42553 0.0
H955 H 0.01306 0.40035 0.39643 0.0
H956 H 0.02009 0.46968 0.33537 0.0
H957 H 0.01006 0.46503 0.27226 0.0
H958 H 0.01232 0.42992 0.27105 0.0
H959 H 0.02266 0.43426 0.33393 0.0
H960 H 0.31546 0.59479 0.5956 0.0
H961 H 0.34074 0.54241 0.60829 0.0
H962 H 0.3293 0.58333 0.65547 0.0
C963 C 0.3211 0.58569 0.6063 0.0
C964 C 0.32117 0.59154 0.62639 0.0
C965 C 0.32857 0.56829 0.59965 0.0
C966 C 0.33534 0.55602 0.61337 0.0
C967 C 0.33524 0.5613 0.63354 0.0
C968 C 0.32861 0.5792 0.6399 0.0
N969 N 0.34168 0.5489 0.64772 0.0
C970 C 0.34615 0.52991 0.64288 0.0
H971 H 0.28793 0.4877 0.95318 0.0
H972 H 0.26481 0.54306 0.96427 0.0
H973 H 0.31301 0.5279 0.002 0.0
C974 C 0.28795 0.50143 0.96213 0.0
C975 C 0.302 0.5061 0.97824 0.0
C976 C 0.27447 0.51465 0.95697 0.0
C977 C 0.27519 0.53283 0.96814 0.0
C978 C 0.28913 0.53756 0.98446 0.0
C979 C 0.30239 0.52417 0.98937 0.0
N980 N 0.29033 0.55553 0.99641 0.0
C981 C 0.27939 0.57095 0.99267 0.0
H982 H 0.67773 0.89205 0.37877 0.0
H983 H 0.70838 0.94104 0.35689 0.0
H984 H 0.70461 0.88419 0.32501 0.0
C985 C 0.68566 0.89814 0.3675 0.0
C986 C 0.69 0.88573 0.35151 0.0
C987 C 0.69231 0.91811 0.36956 0.0
C988 C 0.70332 0.92565 0.35532 0.0
C989 C 0.70784 0.91345 0.33923 0.0
C990 C 0.70117 0.89354 0.33746 0.0
N991 N 0.71916 0.92079 0.32476 0.0
C992 C 0.72559 0.94049 0.32499 0.0
H993 H 0.70391 0.99986 0.00642 0.0
H994 H 0.7045 0.94144 0.97927 0.0
H995 H 0.69661 0.98895 0.94377 0.0
C996 C 0.70289 0.98968 0.99337 0.0
C997 C 0.70005 0.9967 0.97498 0.0
C998 C 0.70475 0.9698 0.99505 0.0
C999 C 0.70298 0.95676 0.97801 0.0
C1000 C 0.69987 0.96359 0.95943 0.0
C1001 C 0.69878 0.98362 0.95804 0.0
N1002 N 0.69788 0.95071 0.94195 0.0
C1003 C 0.69666 0.93048 0.94184 0.0
H1004 H 0.62145 0.29471 0.60501 0.0
H1005 H 0.62407 0.31269 0.54728 0.0
H1006 H 0.67665 0.301 0.58081 0.0
C1007 C 0.6299 0.29875 0.59322 0.0
C1008 C 0.65018 0.29776 0.59521 0.0
C1009 C 0.62029 0.30405 0.57597 0.0
C1010 C 0.63134 0.30831 0.56045 0.0
C1011 C 0.6517 0.30717 0.56209 0.0
C1012 C 0.66099 0.30187 0.57951 0.0
N1013 N 0.66323 0.31119 0.54655 0.0
C1014 C 0.6556 0.31531 0.52815 0.0
H1015 H 0.06378 0.72258 1.00032 0.0
H1016 H 0.04548 0.707 0.93934 0.0
H1017 H 0.00568 0.69511 0.98221 0.0
C1018 C 0.05266 0.71621 0.9889 0.0
C1019 C 0.0342 0.70908 0.99386 0.0
C1020 C 0.05694 0.71534 0.96931 0.0
C1021 C 0.04237 0.70742 0.95448 0.0
C1022 C 0.02379 0.7003 0.95918 0.0
C1023 C 0.01994 0.70095 0.9788 0.0
N1024 N 0.00855 0.69253 0.94461 0.0
C1025 C 0.00975 0.69312 0.92467 0.0
H1026 H 0.93029 0.28853 0.48768 0.0
H1027 H 0.91106 0.25832 0.53534 0.0
H1028 H 0.97003 0.28559 0.53899 0.0
C1029 C 0.93319 0.2839 0.50219 0.0
C1030 C 0.95184 0.28855 0.51238 0.0
C1031 C 0.91837 0.27304 0.51029 0.0
C1032 C 0.92228 0.267 0.52898 0.0
C1033 C 0.94069 0.27154 0.53951 0.0
C1034 C 0.95564 0.28226 0.53113 0.0
N1035 N 0.94346 0.2644 0.55814 0.0
C1036 C 0.9591 0.26977 0.57231 0.0
H1037 H 0.38971 0.68109 0.92504 0.0
H1038 H 0.36501 0.69198 0.97954 0.0
H1039 H 0.32763 0.67029 0.92751 0.0
C1040 C 0.37709 0.68113 0.93332 0.0
C1041 C 0.35842 0.67504 0.92374 0.0
C1042 C 0.37963 0.68728 0.95346 0.0
C1043 C 0.36318 0.68708 0.96409 0.0
C1044 C 0.3444 0.68097 0.95472 0.0
C1045 C 0.34213 0.67512 0.9346 0.0
N1046 N 0.32748 0.68054 0.96504 0.0
C1047 C 0.32782 0.68455 0.98519 0.0
H1048 H 0.60376 0.60926 0.32232 0.0
H1049 H 0.54758 0.61997 0.34058 0.0
H1050 H 0.58562 0.66734 0.32428 0.0
C1051 C 0.59298 0.6193 0.32529 0.0
C1052 C 0.59687 0.63905 0.32222 0.0
C1053 C 0.57532 0.61223 0.33198 0.0
C1054 C 0.56131 0.62532 0.33564 0.0
C1055 C 0.56501 0.64524 0.33284 0.0
C1056 C 0.58282 0.65198 0.32628 0.0
N1057 N 0.55116 0.65886 0.33645 0.0
C1058 C 0.53183 0.65347 0.33946 0.0
H1059 H 0.99179 0.06624 0.70754 0.0
H1060 H 0.93179 0.05712 0.68373 0.0
H1061 H 0.96892 0.01032 0.67783 0.0
C1062 C 0.97963 0.05661 0.7 0.0
C1063 C 0.98255 0.03738 0.69341 0.0
C1064 C 0.96142 0.06379 0.69654 0.0
C1065 C 0.94588 0.05156 0.68618 0.0
C1066 C 0.9485 0.03216 0.67942 0.0
C1067 C 0.96691 0.02524 0.68296 0.0
N1068 N 0.9329 0.01926 0.66926 0.0
C1069 C 0.91411 0.02465 0.66528 0.0
H1070 H 0.48642 0.95321 0.30215 0.0
H1071 H 0.54545 0.95945 0.28641 0.0
H1072 H 0.52541 0.00374 0.32534 0.0
C1073 C 0.50051 0.9617 0.30291 0.0
C1074 C 0.50397 0.97938 0.31501 0.0
C1075 C 0.51529 0.95445 0.29237 0.0
C1076 C 0.53396 0.9649 0.29445 0.0
C1077 C 0.53757 0.98268 0.30647 0.0
C1078 C 0.5225 0.9899 0.31636 0.0
N1079 N 0.55609 0.99381 0.30892 0.0
C1080 C 0.57343 0.98653 0.30441 0.0
H1081 H 0.89771 0.38262 0.69309 0.0
H1082 H 0.95177 0.35881 0.70782 0.0
H1083 H 0.90189 0.32076 0.68153 0.0
C1084 C 0.90605 0.37008 0.69359 0.0
C1085 C 0.8972 0.35139 0.68622 0.0
C1086 C 0.92564 0.37279 0.70165 0.0
C1087 C 0.93656 0.35663 0.70199 0.0
C1088 C 0.92805 0.33784 0.69459 0.0
C1089 C 0.90841 0.33534 0.68685 0.0
N1090 N 0.93888 0.32127 0.6948 0.0
C1091 C 0.9583 0.32247 0.70256 0.0
H1092 H 0.71324 0.40473 0.41919 0.0
H1093 H 0.70666 0.46328 0.40455 0.0
H1094 H 0.73077 0.4225 0.36477 0.0
C1095 C 0.71498 0.41593 0.40926 0.0
C1096 C 0.72293 0.41144 0.3916 0.0
C1097 C 0.70916 0.43461 0.4142 0.0
C1098 C 0.71109 0.44885 0.40092 0.0
C1099 C 0.71895 0.44443 0.38305 0.0
C1100 C 0.72491 0.42583 0.37862 0.0
N1101 N 0.72098 0.45815 0.36903 0.0
C1102 C 0.71616 0.47726 0.37138 0.0
H1103 H 0.69827 0.52354 0.03694 0.0
H1104 H 0.70186 0.46157 0.03345 0.0
H1105 H 0.66617 0.48607 0.98941 0.0
C1106 C 0.6942 0.50907 0.02947 0.0
C1107 C 0.68144 0.50686 0.01222 0.0
C1108 C 0.70167 0.49281 0.03723 0.0
C1109 C 0.69609 0.47409 0.02755 0.0
C1110 C 0.6833 0.47162 0.01024 0.0
C1111 C 0.67615 0.48805 0.00265 0.0
N1112 N 0.67726 0.45289 1.00014 0.0
C1113 C 0.68337 0.43549 0.00608 0.0
H1114 H 0.31635 0.08149 0.61674 0.0
H1115 H 0.2857 0.02944 0.63312 0.0
H1116 H 0.28634 0.08381 0.66874 0.0
C1117 C 0.30813 0.07414 0.62709 0.0
C1118 C 0.30271 0.08503 0.64359 0.0
C1119 C 0.30174 0.05416 0.62305 0.0
C1120 C 0.29051 0.04487 0.63614 0.0
C1121 C 0.28513 0.05553 0.6528 0.0
C1122 C 0.29088 0.0756 0.65614 0.0
N1123 N 0.27367 0.04656 0.66623 0.0
C1124 C 0.27184 0.02653 0.66755 0.0
H1125 H 0.26611 0.0208 0.99547 0.0
H1126 H 0.26579 0.08258 0.00971 0.0
H1127 H 0.2923 0.04772 0.05151 0.0
C1128 C 0.26945 0.03358 0.00597 0.0
C1129 C 0.27976 0.03195 0.02414 0.0
C1130 C 0.26438 0.05177 0.00071 0.0
C1131 C 0.26966 0.06854 0.01384 0.0
C1132 C 0.27961 0.06703 0.03231 0.0
C1133 C 0.28451 0.04875 0.03734 0.0
N1134 N 0.28505 0.08357 0.0461 0.0
C1135 C 0.28443 0.10273 0.04159 0.0
H1136 H 0.39009 0.66717 0.40918 0.0
H1137 H 0.37564 0.65345 0.46593 0.0
H1138 H 0.33716 0.68489 0.43053 0.0
C1139 C 0.38015 0.66752 0.42045 0.0
C1140 C 0.36312 0.67699 0.41757 0.0
C1141 C 0.38502 0.65927 0.43791 0.0
C1142 C 0.37205 0.65989 0.45248 0.0
C1143 C 0.35464 0.669 0.44975 0.0
C1144 C 0.35029 0.67746 0.4323 0.0
N1145 N 0.34157 0.67051 0.4645 0.0
C1146 C 0.34462 0.66309 0.4825 0.0
H1147 H 0.98864 0.26961 0.02712 0.0
H1148 H 0.0056 0.28525 0.08829 0.0
H1149 H 0.04949 0.28267 0.04771 0.0
C1150 C 0.99997 0.27345 0.03914 0.0
C1151 C 0.01961 0.27528 0.0352 0.0
C1152 C 0.99478 0.27724 0.05822 0.0
C1153 C 0.00959 0.28276 0.07352 0.0
C1154 C 0.0294 0.28483 0.06985 0.0
C1155 C 0.03428 0.28115 0.05061 0.0
N1156 N 0.04458 0.29058 0.08521 0.0
C1157 C 0.0409 0.29634 0.10429 0.0
H1158 H 0.04998 0.67694 0.51646 0.0
H1159 H 0.05285 0.6836 0.45538 0.0
H1160 H 0.01118 0.64027 0.47323 0.0
C1161 C 0.04478 0.67265 0.50126 0.0
C1162 C 0.02948 0.65767 0.49668 0.0
C1163 C 0.05329 0.6822 0.48649 0.0
C1164 C 0.04645 0.67627 0.46684 0.0
C1165 C 0.03126 0.66108 0.46202 0.0
C1166 C 0.02287 0.65193 0.47699 0.0
N1167 N 0.02404 0.65473 0.44232 0.0
C1168 C 0.02949 0.66437 0.42652 0.0
H1169 H 0.61234 0.31969 0.08975 0.0
H1170 H 0.63237 0.29248 0.03781 0.0
H1171 H 0.67288 0.30902 0.0888 0.0
C1172 C 0.62404 0.31392 0.08226 0.0
C1173 C 0.64304 0.3153 0.0919 0.0
C1174 C 0.62012 0.30576 0.06274 0.0
C1175 C 0.63543 0.29898 0.05278 0.0
C1176 C 0.65451 0.30024 0.06215 0.0
C1177 C 0.65818 0.30837 0.08163 0.0
N1178 N 0.67025 0.29338 0.05242 0.0
C1179 C 0.66804 0.28447 0.03335 0.0
H1180 H 0.39371 0.38606 0.68117 0.0
H1181 H 0.44869 0.3632 0.6747 0.0
H1182 H 0.39744 0.32417 0.68032 0.0
C1183 C 0.40223 0.37361 0.67995 0.0
C1184 C 0.39314 0.35483 0.68097 0.0
C1185 C 0.42217 0.37666 0.67762 0.0
C1186 C 0.43332 0.3607 0.67657 0.0
C1187 C 0.42441 0.34162 0.67742 0.0
C1188 C 0.40435 0.33883 0.67981 0.0
N1189 N 0.43508 0.32498 0.6755 0.0
C1190 C 0.45498 0.326 0.67327 0.0
H1191 H 0.00596 0.98966 0.26338 0.0
H1192 H 0.06562 0.00551 0.28626 0.0
H1193 H 0.02183 0.04434 0.29875 0.0
C1194 C 0.01703 1.00021 0.27146 0.0
C1195 C 0.01153 0.01764 0.2805 0.0
C1196 C 0.03648 0.99575 0.27356 0.0
C1197 C 0.05063 0.00904 0.2847 0.0
C1198 C 0.04545 0.02671 0.29373 0.0
C1199 C 0.02585 0.0308 0.29173 0.0
N1200 N 0.05962 0.04052 0.30491 0.0
C1201 C 0.0795 0.03821 0.30652 0.0
H1202 H 0.49835 0.0736 0.67041 0.0
H1203 H 0.43765 0.07422 0.67945 0.0
H1204 H 0.45466 0.03729 0.6316 0.0
C1205 C 0.4832 0.06827 0.66603 0.0
C1206 C 0.47849 0.05448 0.64968 0.0
C1207 C 0.4686 0.07533 0.67689 0.0
C1208 C 0.44892 0.06867 0.67115 0.0
C1209 C 0.44388 0.05513 0.65455 0.0
C1210 C 0.4587 0.04802 0.64408 0.0
N1211 N 0.42415 0.04837 0.64786 0.0
C1212 C 0.40803 0.05464 0.65644 0.0
H1213 H 0.07994 0.59853 0.30755 0.0
H1214 H 0.02682 0.62413 0.29149 0.0
H1215 H 0.0824 0.65757 0.29225 0.0
C1216 C 0.0724 0.61091 0.30356 0.0
C1217 C 0.08354 0.6284 0.30107 0.0
C1218 C 0.05186 0.60901 0.29995 0.0
C1219 C 0.0426 0.62515 0.29396 0.0
C1220 C 0.05367 0.6425 0.29076 0.0
C1221 C 0.07402 0.64402 0.2944 0.0
N1222 N 0.04487 0.65855 0.28349 0.0
C1223 C 0.02489 0.6601 0.28198 0.0
H1224 H 0.18498 0.615 0.36094 0.0
H1225 H 0.21436 0.64046 0.31477 0.0
H1226 H 0.18231 0.64505 0.2977 0.0
H1227 H 0.14555 0.58807 0.32961 0.0
H1228 H 0.12762 0.59201 0.34664 0.0
H1229 H 0.15289 0.59143 0.35554 0.0
H1230 H 0.15295 0.62568 0.37432 0.0
H1231 H 0.12768 0.62638 0.36547 0.0
H1232 H 0.14567 0.64574 0.36123 0.0
H1233 H 0.14688 0.64643 0.28546 0.0
H1234 H 0.11088 0.64391 0.27875 0.0
H1235 H 0.10496 0.61686 0.3326 0.0
C1236 C 0.18474 0.62139 0.34715 0.0
C1237 C 0.20226 0.62737 0.33922 0.0
C1238 C 0.20119 0.636 0.3213 0.0
C1239 C 0.18305 0.63857 0.31144 0.0
C1240 C 0.1661 0.63242 0.31965 0.0
C1241 C 0.1668 0.62397 0.33709 0.0
C1242 C 0.14648 0.61834 0.34269 0.0
C1243 C 0.14294 0.59614 0.34367 0.0
C1244 C 0.143 0.62972 0.36208 0.0
C1245 C 0.13422 0.62482 0.32561 0.0
C1246 C 0.14578 0.63301 0.31252 0.0
C1247 C 0.13769 0.64008 0.29562 0.0
C1248 C 0.11725 0.63867 0.29198 0.0
C1249 C 0.10515 0.63017 0.30514 0.0
C1250 C 0.11384 0.62323 0.32217 0.0
H1251 H 0.29913 0.33936 0.73835 0.0
H1252 H 0.26957 0.3712 0.69494 0.0
H1253 H 0.29731 0.36921 0.67502 0.0
H1254 H 0.3451 0.3625 0.73735 0.0
H1255 H 0.35841 0.34143 0.73996 0.0
H1256 H 0.33499 0.3423 0.74935 0.0
H1257 H 0.32225 0.3097 0.72871 0.0
H1258 H 0.34572 0.30867 0.71929 0.0
H1259 H 0.32386 0.3075 0.70267 0.0
H1260 H 0.33004 0.36997 0.66353 0.0
H1261 H 0.36505 0.37043 0.6592 0.0
H1262 H 0.37361 0.33581 0.70802 0.0
C1263 C 0.29832 0.34548 0.72442 0.0
C1264 C 0.28209 0.35531 0.71813 0.0
C1265 C 0.28163 0.36327 0.69989 0.0
C1266 C 0.29737 0.36228 0.68849 0.0
C1267 C 0.31336 0.35301 0.69537 0.0
C1268 C 0.31387 0.34443 0.71272 0.0
C1269 C 0.3335 0.33669 0.71741 0.0
C1270 C 0.34359 0.34631 0.73718 0.0
C1271 C 0.33119 0.31431 0.71699 0.0
C1272 C 0.34425 0.34317 0.70048 0.0
C1273 C 0.33224 0.35246 0.68792 0.0
C1274 C 0.33936 0.36201 0.67272 0.0
C1275 C 0.35925 0.36212 0.6703 0.0
C1276 C 0.37181 0.35243 0.68268 0.0
C1277 C 0.36413 0.34259 0.69783 0.0
H1278 H 0.58707 0.02841 0.63415 0.0
H1279 H 0.56918 0.02062 0.57179 0.0
H1280 H 0.53556 0.02677 0.57817 0.0
H1281 H 0.54184 0.00545 0.64922 0.0
H1282 H 0.54234 0.02238 0.67077 0.0
H1283 H 0.56489 0.01661 0.66136 0.0
H1284 H 0.57472 0.05344 0.65931 0.0
H1285 H 0.55221 0.05931 0.66868 0.0
H1286 H 0.55841 0.06745 0.6457 0.0
H1287 H 0.5044 0.03572 0.59112 0.0
H1288 H 0.47771 0.04621 0.60982 0.0
H1289 H 0.51533 0.04659 0.6639 0.0
C1290 C 0.57605 0.02796 0.62187 0.0
C1291 C 0.58072 0.02392 0.60248 0.0
C1292 C 0.56587 0.02338 0.58678 0.0
C1293 C 0.54675 0.02694 0.59024 0.0
C1294 C 0.54263 0.0309 0.6095 0.0
C1295 C 0.55681 0.03132 0.62507 0.0
C1296 C 0.54854 0.0362 0.64434 0.0
C1297 C 0.54945 0.01914 0.65717 0.0
C1298 C 0.5591 0.05523 0.65513 0.0
C1299 C 0.52763 0.03882 0.63711 0.0
C1300 C 0.52452 0.03567 0.61699 0.0
C1301 C 0.50657 0.03798 0.60692 0.0
C1302 C 0.49144 0.04382 0.61771 0.0
C1303 C 0.49428 0.04721 0.63839 0.0
C1304 C 0.51264 0.04438 0.64812 0.0
H1305 H 0.90433 0.00471 0.22647 0.0
H1306 H 0.88287 0.0181 0.28292 0.0
H1307 H 0.91685 0.02691 0.29769 0.0
H1308 H 0.94407 0.98111 0.24406 0.0
H1309 H 0.9602 0.98995 0.22694 0.0
H1310 H 0.9342 0.98716 0.22051 0.0
H1311 H 0.93538 0.02353 0.21352 0.0
H1312 H 0.96144 0.02644 0.22001 0.0
H1313 H 0.94603 0.0423 0.23227 0.0
H1314 H 0.95357 0.03146 0.30681 0.0
H1315 H 0.98944 0.02997 0.30954 0.0
H1316 H 0.98634 0.01299 0.2472 0.0
C1317 C 0.9067 0.00956 0.24194 0.0
C1318 C 0.89087 0.0107 0.25351 0.0
C1319 C 0.89471 0.01736 0.27366 0.0
C1320 C 0.91398 0.02236 0.2822 0.0
C1321 C 0.92924 0.02072 0.27039 0.0
C1322 C 0.92577 0.01449 0.25067 0.0
C1323 C 0.94464 0.01261 0.2414 0.0
C1324 C 0.94584 0.99145 0.23273 0.0
C1325 C 0.94701 0.02708 0.22588 0.0
C1326 C 0.95931 0.0182 0.25907 0.0
C1327 C 0.95022 0.02313 0.27563 0.0
C1328 C 0.96084 0.02786 0.29389 0.0
C1329 C 0.9812 0.02707 0.2953 0.0
C1330 C 0.99063 0.02139 0.27858 0.0
C1331 C 0.97951 0.01736 0.26023 0.0
H1332 H 0.37027 0.18283 0.63452 0.0
H1333 H 0.32124 0.21496 0.64851 0.0
H1334 H 0.3029 0.18424 0.65517 0.0
H1335 H 0.34247 0.14216 0.60863 0.0
H1336 H 0.35806 0.12444 0.61715 0.0
H1337 H 0.36812 0.14916 0.61564 0.0
H1338 H 0.38122 0.15203 0.65237 0.0
H1339 H 0.37128 0.12721 0.65379 0.0
H1340 H 0.36458 0.14665 0.67032 0.0
H1341 H 0.2889 0.14964 0.6576 0.0
H1342 H 0.28014 0.11397 0.65498 0.0
H1343 H 0.33835 0.10448 0.63941 0.0
C1344 C 0.3557 0.18346 0.63906 0.0
C1345 C 0.34721 0.20137 0.64099 0.0
C1346 C 0.32818 0.20151 0.64718 0.0
C1347 C 0.31762 0.18411 0.65094 0.0
C1348 C 0.32635 0.16671 0.6486 0.0
C1349 C 0.34499 0.16627 0.64288 0.0
C1350 C 0.35062 0.14554 0.64032 0.0
C1351 C 0.35507 0.14001 0.61918 0.0
C1352 C 0.36795 0.1427 0.65509 0.0
C1353 C 0.33201 0.13433 0.64494 0.0
C1354 C 0.31827 0.1468 0.64993 0.0
C1355 C 0.29963 0.13975 0.65395 0.0
C1356 C 0.29482 0.11945 0.65251 0.0
C1357 C 0.30855 0.10642 0.64698 0.0
C1358 C 0.32749 0.11406 0.64352 0.0
H1359 H 0.27481 0.91594 0.0157 0.0
H1360 H 0.33651 0.92235 0.03675 0.0
H1361 H 0.33554 0.958 0.04268 0.0
H1362 H 0.2766 0.95743 0.98923 0.0
H1363 H 0.25285 0.96406 0.99466 0.0
H1364 H 0.25795 0.93891 0.99395 0.0
H1365 H 0.24801 0.93747 0.02919 0.0
H1366 H 0.24295 0.96268 0.03004 0.0
H1367 H 0.25989 0.95495 0.04856 0.0
H1368 H 0.32837 0.99314 0.04439 0.0
H1369 H 0.31591 0.02513 0.0403 0.0
H1370 H 0.25915 0.99573 0.01747 0.0
C1371 C 0.28815 0.92479 0.02155 0.0
C1372 C 0.30572 0.91625 0.02584 0.0
C1373 C 0.32277 0.92844 0.03367 0.0
C1374 C 0.32239 0.94874 0.03703 0.0
C1375 C 0.30486 0.95664 0.03249 0.0
C1376 C 0.28807 0.94505 0.02487 0.0
C1377 C 0.27141 0.95724 0.02015 0.0
C1378 C 0.26429 0.95423 0.99819 0.0
C1379 C 0.25457 0.95282 0.03274 0.0
C1380 C 0.28158 0.97754 0.02591 0.0
C1381 C 0.30079 0.97689 0.03324 0.0
C1382 C 0.31329 0.99384 0.03886 0.0
C1383 C 0.30605 0.01194 0.03659 0.0
C1384 C 0.28655 0.01291 0.02864 0.0
C1385 C 0.27414 0.99544 0.02355 0.0
H1386 H 0.70897 0.2952 0.38093 0.0
H1387 H 0.76471 0.29555 0.35633 0.0
H1388 H 0.76898 0.33166 0.36186 0.0
H1389 H 0.69345 0.3363 0.35916 0.0
H1390 H 0.68167 0.34557 0.37985 0.0
H1391 H 0.6836 0.31972 0.37539 0.0
H1392 H 0.70079 0.31948 0.41021 0.0
H1393 H 0.6988 0.34529 0.41489 0.0
H1394 H 0.72236 0.33602 0.41805 0.0
H1395 H 0.76586 0.36805 0.36811 0.0
H1396 H 0.75637 0.40139 0.37607 0.0
H1397 H 0.70243 0.37656 0.3958 0.0
C1398 C 0.72213 0.30283 0.37676 0.0
C1399 C 0.73651 0.29255 0.36818 0.0
C1400 C 0.75361 0.30311 0.36315 0.0
C1401 C 0.7561 0.32361 0.36612 0.0
C1402 C 0.74141 0.3333 0.37424 0.0
C1403 C 0.72483 0.32321 0.37961 0.0
C1404 C 0.71091 0.33697 0.38746 0.0
C1405 C 0.69124 0.33447 0.37469 0.0
C1406 C 0.70806 0.33427 0.40894 0.0
C1407 C 0.72212 0.35641 0.38554 0.0
C1408 C 0.73968 0.35406 0.37788 0.0
C1409 C 0.7522 0.37004 0.37423 0.0
C1410 C 0.74663 0.38889 0.37866 0.0
C1411 C 0.72873 0.39154 0.38665 0.0
C1412 C 0.71637 0.37502 0.39004 0.0
H1413 H 0.63811 0.61027 0.01908 0.0
H1414 H 0.64093 0.61035 0.9565 0.0
H1415 H 0.65431 0.57825 0.95558 0.0
H1416 H 0.68251 0.5878 0.02932 0.0
H1417 H 0.67282 0.57374 0.04768 0.0
H1418 H 0.66377 0.59679 0.04332 0.0
H1419 H 0.62842 0.57979 0.03709 0.0
H1420 H 0.63736 0.55667 0.04137 0.0
H1421 H 0.62298 0.55923 0.01877 0.0
H1422 H 0.66659 0.54557 0.96152 0.0
H1423 H 0.67837 0.51582 0.97415 0.0
H1424 H 0.66698 0.53729 0.03269 0.0
C1425 C 0.64147 0.60351 0.00516 0.0
C1426 C 0.63847 0.61281 0.98785 0.0
C1427 C 0.64333 0.6036 0.96998 0.0
C1428 C 0.6508 0.58532 0.96929 0.0
C1429 C 0.65339 0.57648 0.98661 0.0
C1430 C 0.64897 0.58534 0.00423 0.0
C1431 C 0.65316 0.57286 0.02078 0.0
C1432 C 0.66901 0.58343 0.03618 0.0
C1433 C 0.63436 0.56678 0.03004 0.0
C1434 C 0.66058 0.55555 0.00973 0.0
C1435 C 0.66055 0.55784 0.99003 0.0
C1436 C 0.6667 0.54364 0.97692 0.0
C1437 C 0.67324 0.52675 0.9842 0.0
C1438 C 0.67365 0.52428 0.0044 0.0
C1439 C 0.66708 0.53887 0.01722 0.0
H1440 H 0.61808 0.34443 0.20111 0.0
H1441 H 0.67366 0.38036 0.21036 0.0
H1442 H 0.68101 0.3689 0.17713 0.0
H1443 H 0.63548 0.30324 0.17225 0.0
H1444 H 0.61304 0.29867 0.15633 0.0
H1445 H 0.61269 0.30883 0.18127 0.0
H1446 H 0.59558 0.33803 0.16905 0.0
H1447 H 0.59602 0.32804 0.1441 0.0
H1448 H 0.60683 0.35256 0.15187 0.0
H1449 H 0.68145 0.35512 0.14222 0.0
H1450 H 0.67518 0.33957 0.10835 0.0
H1451 H 0.61986 0.31162 0.12219 0.0
C1452 C 0.63197 0.34959 0.19631 0.0
C1453 C 0.64528 0.36333 0.20837 0.0
C1454 C 0.66313 0.37 0.20133 0.0
C1455 C 0.66749 0.3635 0.18251 0.0
C1456 C 0.65391 0.35022 0.1709 0.0
C1457 C 0.63656 0.34324 0.17755 0.0
C1458 C 0.62417 0.32957 0.16187 0.0
C1459 C 0.62117 0.30885 0.16832 0.0
C1460 C 0.60449 0.33753 0.1564 0.0
C1461 C 0.63713 0.33022 0.14528 0.0
C1462 C 0.65425 0.34214 0.15082 0.0
C1463 C 0.6682 0.34554 0.13779 0.0
C1464 C 0.66455 0.33654 0.11859 0.0
C1465 C 0.64707 0.32425 0.11253 0.0
C1466 C 0.6333 0.32103 0.12622 0.0
H1467 H 0.05111 0.30316 0.93192 0.0
H1468 H 0.02038 0.24752 0.9072 0.0
H1469 H 0.01541 0.23877 0.9403 0.0
H1470 H 0.07449 0.28577 0.97607 0.0
H1471 H 0.07115 0.30751 0.99142 0.0
H1472 H 0.074 0.30889 0.96584 0.0
H1473 H 0.04128 0.32444 0.96139 0.0
H1474 H 0.03841 0.32323 0.98695 0.0
H1475 H 0.01941 0.312 0.96871 0.0
H1476 H 0.0115 0.23681 0.97555 0.0
H1477 H 0.00804 0.24234 0.01089 0.0
H1478 H 0.04075 0.29928 0.01331 0.0
C1479 C 0.04339 0.28911 0.93344 0.0
C1480 C 0.03637 0.27595 0.91683 0.0
C1481 C 0.02636 0.25769 0.91959 0.0
C1482 C 0.02336 0.25259 0.93838 0.0
C1483 C 0.03044 0.26588 0.95436 0.0
C1484 C 0.0402 0.28378 0.95214 0.0
C1485 C 0.04529 0.29581 0.97175 0.0
C1486 C 0.06756 0.29972 0.97655 0.0
C1487 C 0.03551 0.315 0.97222 0.0
C1488 C 0.03646 0.28202 0.98527 0.0
C1489 C 0.02814 0.26476 0.97489 0.0
C1490 C 0.01815 0.25016 0.98387 0.0
C1491 C 0.01624 0.25342 0.00391 0.0
C1492 C 0.02428 0.27113 0.01478 0.0
C1493 C 0.03484 0.28545 0.00539 0.0
H1494 H 0.39569 0.73004 0.32645 0.0
H1495 H 0.33513 0.72313 0.30175 0.0
H1496 H 0.32562 0.70756 0.33099 0.0
H1497 H 0.39451 0.68466 0.34785 0.0
H1498 H 0.41086 0.69436 0.369 0.0
H1499 H 0.41262 0.70476 0.34611 0.0
H1500 H 0.40813 0.73901 0.36297 0.0
H1501 H 0.40634 0.72877 0.38593 0.0
H1502 H 0.38704 0.74214 0.37616 0.0
H1503 H 0.32301 0.69329 0.36392 0.0
H1504 H 0.32796 0.67946 0.39573 0.0
H1505 H 0.39014 0.69735 0.39834 0.0
C1506 C 0.38038 0.72542 0.32722 0.0
C1507 C 0.36612 0.72796 0.3119 0.0
C1508 C 0.34632 0.72125 0.31329 0.0
C1509 C 0.34077 0.71252 0.32989 0.0
C1510 C 0.35523 0.71055 0.34488 0.0
C1511 C 0.37464 0.71673 0.34357 0.0
C1512 C 0.3875 0.71272 0.36137 0.0
C1513 C 0.40226 0.69828 0.35576 0.0
C1514 C 0.39786 0.7318 0.37225 0.0
C1515 C 0.37231 0.70349 0.37306 0.0
C1516 C 0.35377 0.70231 0.36342 0.0
C1517 C 0.33751 0.6941 0.37154 0.0
C1518 C 0.34044 0.6864 0.38968 0.0
C1519 C 0.35949 0.68687 0.39941 0.0
C1520 C 0.37544 0.6961 0.3911 0.0
H1521 H 0.02693 0.61717 0.60116 0.0
H1522 H 0.96365 0.61448 0.59264 0.0
H1523 H 0.96571 0.62553 0.55968 0.0
H1524 H 0.03641 0.66043 0.57749 0.0
H1525 H 0.05754 0.65236 0.56678 0.0
H1526 H 0.05096 0.64365 0.58937 0.0
H1527 H 0.04982 0.60787 0.57391 0.0
H1528 H 0.05637 0.61648 0.55125 0.0
H1529 H 0.03448 0.60019 0.5515 0.0
H1530 H 0.97482 0.63703 0.52769 0.0
H1531 H 0.99034 0.64998 0.49991 0.0
H1532 H 0.04759 0.64505 0.52957 0.0
C1533 C 0.0135 0.61874 0.59228 0.0
C1534 C 0.99512 0.61493 0.5994 0.0
C1535 C 0.97789 0.61747 0.5875 0.0
C1536 C 0.97891 0.62361 0.56874 0.0
C1537 C 0.99728 0.62718 0.56215 0.0
C1538 C 0.01427 0.62495 0.57361 0.0
C1539 C 0.0322 0.63037 0.56338 0.0
C1540 C 0.04502 0.64773 0.57495 0.0
C1541 C 0.0439 0.61267 0.5598 0.0
C1542 C 0.02266 0.63611 0.54441 0.0
C1543 C 0.00251 0.63402 0.54389 0.0
C1544 C 0.99058 0.63866 0.52791 0.0
C1545 C 0.99951 0.64588 0.51216 0.0
C1546 C 0.02015 0.64851 0.51261 0.0
C1547 C 0.03178 0.64333 0.52889 0.0
H1548 H 0.78725 0.37899 0.67201 0.0
H1549 H 0.7777 0.3357 0.62161 0.0
H1550 H 0.81101 0.32607 0.6288 0.0
H1551 H 0.83612 0.39469 0.66616 0.0
H1552 H 0.84423 0.3979 0.69192 0.0
H1553 H 0.81913 0.40034 0.68375 0.0
H1554 H 0.80761 0.37393 0.70579 0.0
H1555 H 0.8327 0.37149 0.71413 0.0
H1556 H 0.81688 0.35032 0.70343 0.0
H1557 H 0.84638 0.3233 0.63974 0.0
H1558 H 0.88059 0.32659 0.65441 0.0
H1559 H 0.86648 0.37057 0.69864 0.0
C1560 C 0.79212 0.36737 0.66259 0.0
C1561 C 0.77986 0.35804 0.64629 0.0
C1562 C 0.78673 0.34285 0.63435 0.0
C1563 C 0.80566 0.33734 0.63826 0.0
C1564 C 0.81748 0.34704 0.65427 0.0
C1565 C 0.8109 0.36159 0.66637 0.0
C1566 C 0.82668 0.37009 0.6823 0.0
C1567 C 0.83184 0.39205 0.68093 0.0
C1568 C 0.8206 0.36622 0.70261 0.0
C1569 C 0.8433 0.35837 0.67699 0.0
C1570 C 0.8377 0.34513 0.66081 0.0
C1571 C 0.85085 0.33338 0.65262 0.0
C1572 C 0.87026 0.33529 0.66115 0.0
C1573 C 0.87635 0.34878 0.67778 0.0
C1574 C 0.86249 0.36025 0.68584 0.0
H1575 H 0.70193 0.62199 0.292 0.0
H1576 H 0.69198 0.66003 0.24611 0.0
H1577 H 0.66246 0.66997 0.26066 0.0
H1578 H 0.65405 0.60376 0.29279 0.0
H1579 H 0.65518 0.60269 0.31889 0.0
H1580 H 0.67695 0.6011 0.30662 0.0
H1581 H 0.69421 0.63047 0.32973 0.0
H1582 H 0.67229 0.63206 0.34184 0.0
H1583 H 0.68311 0.65317 0.33178 0.0
H1584 H 0.63138 0.67169 0.27738 0.0
H1585 H 0.60204 0.6652 0.29474 0.0
H1586 H 0.63334 0.62707 0.33028 0.0
C1587 C 0.69373 0.63269 0.28521 0.0
C1588 C 0.69922 0.64027 0.26796 0.0
C1589 C 0.68815 0.65424 0.2595 0.0
C1590 C 0.67136 0.65994 0.26764 0.0
C1591 C 0.66604 0.65174 0.28439 0.0
C1592 C 0.67705 0.63856 0.29318 0.0
C1593 C 0.66748 0.63064 0.31009 0.0
C1594 C 0.66316 0.60823 0.30688 0.0
C1595 C 0.68005 0.637 0.32951 0.0
C1596 C 0.6489 0.64071 0.30889 0.0
C1597 C 0.64838 0.65303 0.29418 0.0
C1598 C 0.63182 0.66243 0.28924 0.0
C1599 C 0.61522 0.65872 0.29926 0.0
C1600 C 0.6153 0.64563 0.31398 0.0
C1601 C 0.63267 0.63712 0.31916 0.0
H1602 H 0.39468 0.99357 0.33939 0.0
H1603 H 0.41923 0.01703 0.39784 0.0
H1604 H 0.45243 0.0142 0.38812 0.0
H1605 H 0.42829 0.95801 0.33268 0.0
H1606 H 0.42979 0.96075 0.30709 0.0
H1607 H 0.40789 0.9658 0.31817 0.0
H1608 H 0.41053 0.00059 0.30664 0.0
H1609 H 0.43243 0.99561 0.29549 0.0
H1610 H 0.43276 0.01653 0.31318 0.0
H1611 H 0.48281 0.00707 0.37284 0.0
H1612 H 0.50844 0.99638 0.35282 0.0
H1613 H 0.46439 0.97792 0.30408 0.0
C1614 C 0.40704 0.99816 0.35013 0.0
C1615 C 0.40432 0.00568 0.36935 0.0
C1616 C 0.42091 0.0116 0.38293 0.0
C1617 C 0.43985 0.00994 0.37759 0.0
C1618 C 0.44199 0.00237 0.3586 0.0
C1619 C 0.42608 0.99663 0.34505 0.0
C1620 C 0.43245 0.98843 0.32577 0.0
C1621 C 0.42411 0.96698 0.32064 0.0
C1622 C 0.4267 0.00105 0.3093 0.0
C1623 C 0.45441 0.99018 0.33074 0.0
C1624 C 0.45959 0.99834 0.34972 0.0
C1625 C 0.47896 0.00088 0.35787 0.0
C1626 C 0.49344 0.99487 0.34632 0.0
C1627 C 0.48851 0.98643 0.32679 0.0
C1628 C 0.46868 0.98421 0.31896 0.0
H1629 H 0.08565 0.04088 0.75453 0.0
H1630 H 0.10831 0.0164 0.70198 0.0
H1631 H 0.0747 0.01098 0.68539 0.0
H1632 H 0.03943 0.0095 0.74975 0.0
H1633 H 0.02602 0.02911 0.75872 0.0
H1634 H 0.05152 0.02894 0.76701 0.0
H1635 H 0.05881 0.0635 0.75579 0.0
H1636 H 0.03337 0.06379 0.74756 0.0
H1637 H 0.05165 0.06765 0.73083 0.0
H1638 H 0.03862 0.01099 0.67369 0.0
H1639 H 0.00397 0.01766 0.6678 0.0
H1640 H 0.00562 0.04233 0.72804 0.0
C1641 C 0.08361 0.03432 0.73954 0.0
C1642 C 0.09967 0.0291 0.72956 0.0
C1643 C 0.09623 0.02032 0.71003 0.0
C1644 C 0.07719 0.01721 0.70046 0.0
C1645 C 0.06173 0.02284 0.71068 0.0
C1646 C 0.06478 0.03119 0.72981 0.0
C1647 C 0.04602 0.03717 0.73722 0.0
C1648 C 0.04042 0.02548 0.75418 0.0
C1649 C 0.04756 0.05934 0.74319 0.0
C1650 C 0.03197 0.03144 0.71909 0.0
C1651 C 0.04117 0.02293 0.70398 0.0
C1652 C 0.03123 0.01742 0.6855 0.0
C1653 C 0.01155 0.02116 0.6823 0.0
C1654 C 0.00216 0.03051 0.69745 0.0
C1655 C 0.01244 0.03519 0.71616 0.0
H1656 H 0.61736 0.79287 0.36583 0.0
H1657 H 0.66424 0.75696 0.3537 0.0
H1658 H 0.68456 0.78616 0.34639 0.0
H1659 H 0.62549 0.82679 0.3293 0.0
H1660 H 0.62018 0.8476 0.34493 0.0
H1661 H 0.60871 0.82362 0.34761 0.0
H1662 H 0.62199 0.82729 0.38426 0.0
H1663 H 0.63347 0.85126 0.38169 0.0
H1664 H 0.64787 0.83296 0.39098 0.0
H1665 H 0.70048 0.81965 0.34208 0.0
H1666 H 0.71097 0.85487 0.34215 0.0
H1667 H 0.65396 0.86878 0.35787 0.0
C1668 C 0.63189 0.79108 0.36165 0.0
C1669 C 0.6391 0.77251 0.36025 0.0
C1670 C 0.65818 0.77091 0.35453 0.0
C1671 C 0.6699 0.78744 0.35044 0.0
C1672 C 0.66237 0.80551 0.35214 0.0
C1673 C 0.64381 0.80742 0.35764 0.0
C1674 C 0.63951 0.82859 0.35933 0.0
C1675 C 0.62246 0.83183 0.3444 0.0
C1676 C 0.63548 0.83542 0.38031 0.0
C1677 C 0.65867 0.83834 0.35423 0.0
C1678 C 0.67161 0.82478 0.34993 0.0
C1679 C 0.69041 0.83039 0.34528 0.0
C1680 C 0.69621 0.85041 0.34525 0.0
C1681 C 0.68328 0.86455 0.35 0.0
C1682 C 0.66421 0.85832 0.3543 0.0
H1683 H 0.74547 0.10402 0.96367 0.0
H1684 H 0.70092 0.12476 0.99871 0.0
H1685 H 0.68423 0.09139 0.99579 0.0
H1686 H 0.71305 0.06559 0.93157 0.0
H1687 H 0.73175 0.04896 0.93146 0.0
H1688 H 0.73846 0.07497 0.93356 0.0
H1689 H 0.76051 0.07239 0.96549 0.0
H1690 H 0.75387 0.04645 0.96351 0.0
H1691 H 0.7501 0.06135 0.98542 0.0
H1692 H 0.67527 0.05537 0.99353 0.0
H1693 H 0.67425 0.01931 0.99118 0.0
H1694 H 0.72425 0.02167 0.95741 0.0
C1695 C 0.73201 0.10161 0.97045 0.0
C1696 C 0.72447 0.11709 0.98134 0.0
C1697 C 0.70682 0.11328 0.98998 0.0
C1698 C 0.69725 0.09433 0.98847 0.0
C1699 C 0.70539 0.07934 0.97811 0.0
C1700 C 0.72228 0.08278 0.96908 0.0
C1701 C 0.72893 0.06388 0.96027 0.0
C1702 C 0.72798 0.06332 0.93788 0.0
C1703 C 0.74957 0.06085 0.96922 0.0
C1704 C 0.71359 0.0492 0.96645 0.0
C1705 C 0.70002 0.05845 0.97654 0.0
C1706 C 0.68552 0.04797 0.98527 0.0
C1707 C 0.68506 0.02755 0.9839 0.0
C1708 C 0.69896 0.01785 0.97384 0.0
C1709 C 0.71314 0.02879 0.96469 0.0
H1710 H 0.2806 0.69434 0.61129 0.0
H1711 H 0.25676 0.69238 0.66723 0.0
H1712 H 0.27212 0.66187 0.6722 0.0
H1713 H 0.27311 0.64284 0.59761 0.0
H1714 H 0.29512 0.64229 0.5854 0.0
H1715 H 0.28264 0.6641 0.58681 0.0
H1716 H 0.31433 0.68393 0.60263 0.0
H1717 H 0.32695 0.66225 0.60162 0.0
H1718 H 0.32652 0.67685 0.62469 0.0
H1719 H 0.28815 0.63023 0.66964 0.0
H1720 H 0.30363 0.60056 0.66026 0.0
H1721 H 0.31951 0.62533 0.60731 0.0
C1722 C 0.27892 0.68771 0.62477 0.0
C1723 C 0.26769 0.69582 0.63899 0.0
C1724 C 0.26533 0.68638 0.65616 0.0
C1725 C 0.27403 0.66911 0.65912 0.0
C1726 C 0.28497 0.66146 0.64473 0.0
C1727 C 0.28737 0.67047 0.62788 0.0
C1728 C 0.2991 0.65897 0.61429 0.0
C1729 C 0.28675 0.65162 0.59489 0.0
C1730 C 0.31788 0.67122 0.61063 0.0
C1731 C 0.30327 0.64219 0.62627 0.0
C1732 C 0.29477 0.64372 0.64363 0.0
C1733 C 0.29519 0.62905 0.65624 0.0
C1734 C 0.30424 0.61223 0.6508 0.0
C1735 C 0.31303 0.61022 0.63296 0.0
C1736 C 0.31277 0.6258 0.62087 0.0
H1737 H 0.33932 0.40176 0.99277 0.0
H1738 H 0.39828 0.43094 0.00313 0.0
H1739 H 0.38522 0.46267 0.99961 0.0
H1740 H 0.32257 0.43132 0.95552 0.0
H1741 H 0.29827 0.43139 0.96316 0.0
H1742 H 0.31221 0.41102 0.96721 0.0
H1743 H 0.30778 0.41563 0.00421 0.0
H1744 H 0.29387 0.43605 1.00028 0.0
H1745 H 0.31518 0.43906 0.01782 0.0
H1746 H 0.36581 0.49123 0.99473 0.0
H1747 H 0.34143 0.51443 0.98766 0.0
H1748 H 0.29535 0.4665 0.9796 0.0
C1749 C 0.34954 0.41478 0.99415 0.0
C1750 C 0.36984 0.41381 0.99837 0.0
C1751 C 0.38263 0.4313 1.00028 0.0
C1752 C 0.37537 0.4494 0.99819 0.0
C1753 C 0.3553 0.44979 0.99408 0.0
C1754 C 0.34256 0.43295 0.99199 0.0
C1755 C 0.32167 0.43735 0.98719 0.0
C1756 C 0.31319 0.42717 0.96708 0.0
C1757 C 0.30887 0.43169 0.00334 0.0
C1758 C 0.32466 0.45929 0.98684 0.0
C1759 C 0.34415 0.46621 0.99097 0.0
C1760 C 0.35049 0.486 0.99151 0.0
C1761 C 0.33655 0.49907 0.98759 0.0
C1762 C 0.31652 0.49226 0.9831 0.0
C1763 C 0.31058 0.4721 0.98282 0.0
H1764 H 0.38753 0.622 0.82447 0.0
H1765 H 0.33979 0.64732 0.79367 0.0
H1766 H 0.33094 0.66219 0.82519 0.0
H1767 H 0.36325 0.61125 0.86667 0.0
H1768 H 0.38488 0.6176 0.88351 0.0
H1769 H 0.38708 0.60854 0.85858 0.0
H1770 H 0.41002 0.63945 0.85447 0.0
H1771 H 0.40794 0.64857 0.8794 0.0
H1772 H 0.4019 0.66328 0.85982 0.0
H1773 H 0.32761 0.67468 0.86032 0.0
H1774 H 0.33069 0.68442 0.89595 0.0
H1775 H 0.38091 0.65125 0.90332 0.0
C1776 C 0.37531 0.63082 0.82426 0.0
C1777 C 0.36437 0.63346 0.80651 0.0
C1778 C 0.34827 0.64484 0.80705 0.0
C1779 C 0.34317 0.65343 0.82489 0.0
C1780 C 0.35432 0.65054 0.84207 0.0
C1781 C 0.37009 0.63954 0.84188 0.0
C1782 C 0.3799 0.63886 0.8623 0.0
C1783 C 0.37869 0.61781 0.8681 0.0
C1784 C 0.4012 0.64809 0.8641 0.0
C1785 C 0.36727 0.6513 0.87404 0.0
C1786 C 0.35253 0.65783 0.86216 0.0
C1787 C 0.33908 0.66961 0.86976 0.0
C1788 C 0.34088 0.67498 0.89002 0.0
C1789 C 0.35606 0.66864 0.90242 0.0
C1790 C 0.36929 0.65653 0.89423 0.0
H1791 H 0.06126 0.72417 0.10918 0.0
H1792 H 0.00192 0.73858 0.11445 0.0
H1793 H 0.99356 0.72912 0.07911 0.0
H1794 H 0.0668 0.74336 0.06498 0.0
H1795 H 0.0808 0.72465 0.05512 0.0
H1796 H 0.08152 0.73017 0.08117 0.0
H1797 H 0.07055 0.69391 0.08496 0.0
H1798 H 0.06995 0.68823 0.05888 0.0
H1799 H 0.04853 0.68222 0.07115 0.0
H1800 H 0.99293 0.72235 0.04272 0.0
H1801 H 0.99958 0.71723 0.00824 0.0
H1802 H 0.05885 0.70538 0.02682 0.0
C1803 C 0.04642 0.72502 0.10294 0.0
C1804 C 0.03221 0.73201 0.11456 0.0
C1805 C 0.01295 0.73296 0.10588 0.0
C1806 C 0.00809 0.7277 0.08581 0.0
C1807 C 0.02258 0.72129 0.07468 0.0
C1808 C 0.04129 0.71968 0.08298 0.0
C1809 C 0.05443 0.7134 0.06762 0.0
C1810 C 0.07191 0.72882 0.06721 0.0
C1811 C 0.06126 0.69324 0.07085 0.0
C1812 C 0.04037 0.71242 0.04933 0.0
C1813 C 0.02206 0.71691 0.05371 0.0
C1814 C 0.00709 0.71837 0.03912 0.0
C1815 C 0.011 0.71532 0.01953 0.0
C1816 C 0.02973 0.71077 0.01466 0.0
C1817 C 0.04442 0.70898 0.0299 0.0
H1818 H 0.64792 0.28025 0.70577 0.0
H1819 H 0.68008 0.22997 0.69404 0.0
H1820 H 0.68676 0.24108 0.66206 0.0
H1821 H 0.62404 0.28093 0.66152 0.0
H1822 H 0.62623 0.30704 0.66047 0.0
H1823 H 0.62716 0.29725 0.68374 0.0
H1824 H 0.6599 0.31785 0.69354 0.0
H1825 H 0.66109 0.32665 0.66972 0.0
H1826 H 0.68059 0.314 0.67994 0.0
H1827 H 0.68514 0.25458 0.62931 0.0
H1828 H 0.67517 0.26933 0.599 0.0
H1829 H 0.64527 0.31137 0.63259 0.0
C1830 C 0.65704 0.27197 0.69686 0.0
C1831 C 0.66341 0.25419 0.70245 0.0
C1832 C 0.67484 0.24353 0.69002 0.0
C1833 C 0.67887 0.24981 0.67188 0.0
C1834 C 0.67171 0.267 0.66649 0.0
C1835 C 0.66131 0.27812 0.67878 0.0
C1836 C 0.65388 0.29513 0.66891 0.0
C1837 C 0.63151 0.29505 0.66864 0.0
C1838 C 0.66447 0.31456 0.67865 0.0
C1839 C 0.66007 0.29075 0.64862 0.0
C1840 C 0.67095 0.2749 0.64765 0.0
C1841 C 0.67702 0.26729 0.63001 0.0
C1842 C 0.67135 0.27577 0.61287 0.0
C1843 C 0.65949 0.29147 0.61352 0.0
C1844 C 0.65439 0.2994 0.63173 0.0
H1845 H 0.98371 0.35943 0.43492 0.0
H1846 H 0.03275 0.3255 0.42656 0.0
H1847 H 0.02496 0.30742 0.45482 0.0
H1848 H 0.98757 0.36244 0.48866 0.0
H1849 H 0.9614 0.35999 0.4892 0.0
H1850 H 0.97212 0.37143 0.46968 0.0
H1851 H 0.95075 0.34679 0.4441 0.0
H1852 H 0.9399 0.33542 0.46351 0.0
H1853 H 0.95152 0.32094 0.44573 0.0
H1854 H 0.01018 0.29163 0.48292 0.0
H1855 H 0.98819 0.27782 0.50587 0.0
H1856 H 0.94923 0.32243 0.4954 0.0
C1857 C 0.99311 0.34851 0.43929 0.0
C1858 C 0.00898 0.34402 0.42867 0.0
C1859 C 0.02051 0.32917 0.43449 0.0
C1860 C 0.01629 0.31896 0.45061 0.0
C1861 C 0.0005 0.32378 0.46076 0.0
C1862 C 0.98906 0.33817 0.45521 0.0
C1863 C 0.97195 0.33956 0.46736 0.0
C1864 C 0.97335 0.35954 0.47944 0.0
C1865 C 0.95238 0.33542 0.4544 0.0
C1866 C 0.97523 0.32339 0.48034 0.0
C1867 C 0.99193 0.31462 0.47661 0.0
C1868 C 0.99722 0.29856 0.48612 0.0
C1869 C 0.98475 0.29089 0.49923 0.0
C1870 C 0.96714 0.29917 0.50246 0.0
C1871 C 0.96272 0.31595 0.49332 0.0
H1872 H 0.30866 0.58776 0.48888 0.0
H1873 H 0.36557 0.56802 0.4804 0.0
H1874 H 0.36736 0.55644 0.51321 0.0
H1875 H 0.31816 0.60615 0.53711 0.0
H1876 H 0.29462 0.59801 0.54428 0.0
H1877 H 0.29711 0.60245 0.5193 0.0
H1878 H 0.28144 0.567 0.50839 0.0
H1879 H 0.27957 0.56265 0.53358 0.0
H1880 H 0.29231 0.5467 0.51818 0.0
H1881 H 0.36524 0.55142 0.54821 0.0
H1882 H 0.35935 0.55347 0.58297 0.0
H1883 H 0.30275 0.57415 0.56831 0.0
C1884 C 0.3212 0.58041 0.49364 0.0
C1885 C 0.33699 0.57885 0.48204 0.0
C1886 C 0.3534 0.56964 0.4891 0.0
C1887 C 0.35447 0.56281 0.50764 0.0
C1888 C 0.33887 0.56497 0.51887 0.0
C1889 C 0.32245 0.57337 0.51209 0.0
C1890 C 0.30841 0.57532 0.52767 0.0
C1891 C 0.30436 0.59675 0.53234 0.0
C1892 C 0.2893 0.56213 0.52159 0.0
C1893 C 0.32011 0.56787 0.54461 0.0
C1894 C 0.33744 0.56156 0.5391 0.0
C1895 C 0.35148 0.55579 0.55262 0.0
C1896 C 0.34795 0.55691 0.57236 0.0
C1897 C 0.33053 0.56387 0.57844 0.0
C1898 C 0.31623 0.56881 0.56419 0.0
H1899 H 0.2081 0.43975 0.87903 0.0
H1900 H 0.20794 0.48545 0.83978 0.0
H1901 H 0.2249 0.50904 0.86636 0.0
H1902 H 0.20142 0.47056 0.92397 0.0
H1903 H 0.21769 0.4577 0.93894 0.0
H1904 H 0.20375 0.44505 0.91744 0.0
H1905 H 0.23573 0.43478 0.9043 0.0
H1906 H 0.24974 0.44739 0.9257 0.0
H1907 H 0.25523 0.4533 0.90173 0.0
H1908 H 0.24387 0.52702 0.89667 0.0
H1909 H 0.26474 0.53738 0.9276 0.0
H1910 H 0.25233 0.47979 0.94675 0.0
C1911 C 0.21123 0.45483 0.87617 0.0
C1912 C 0.2066 0.46085 0.85743 0.0
C1913 C 0.21142 0.48057 0.85406 0.0
C1914 C 0.22092 0.49408 0.86909 0.0
C1915 C 0.22549 0.48761 0.88737 0.0
C1916 C 0.22082 0.46844 0.89094 0.0
C1917 C 0.22865 0.46479 0.91135 0.0
C1918 C 0.21187 0.4592 0.92365 0.0
C1919 C 0.2432 0.44915 0.91072 0.0
C1920 C 0.23882 0.48479 0.91857 0.0
C1921 C 0.23662 0.49785 0.90466 0.0
C1922 C 0.2455 0.51698 0.90776 0.0
C1923 C 0.25725 0.52277 0.92538 0.0
C1924 C 0.26013 0.50939 0.93954 0.0
C1925 C 0.25044 0.49031 0.93616 0.0
H1926 H 0.72206 0.99331 0.46403 0.0
H1927 H 0.66487 0.9767 0.48249 0.0
H1928 H 0.65529 0.95777 0.45056 0.0
H1929 H 0.70575 0.99546 0.4114 0.0
H1930 H 0.72721 0.9852 0.4036 0.0
H1931 H 0.7286 0.99995 0.42671 0.0
H1932 H 0.7422 0.97168 0.44442 0.0
H1933 H 0.74082 0.95689 0.42143 0.0
H1934 H 0.72853 0.94791 0.4413 0.0
H1935 H 0.65306 0.93781 0.41817 0.0
H1936 H 0.65846 0.91831 0.38768 0.0
H1937 H 0.71761 0.94665 0.39115 0.0
C1938 C 0.70743 0.9859 0.46129 0.0
C1939 C 0.69419 0.98664 0.47578 0.0
C1940 C 0.67517 0.97673 0.47153 0.0
C1941 C 0.66959 0.96585 0.45344 0.0
C1942 C 0.68315 0.96508 0.43968 0.0
C1943 C 0.70165 0.97493 0.44333 0.0
C1944 C 0.71399 0.97044 0.42672 0.0
C1945 C 0.71919 0.98886 0.41651 0.0
C1946 C 0.73247 0.96117 0.4339 0.0
C1947 C 0.69981 0.95589 0.41357 0.0
C1948 C 0.68199 0.95327 0.42112 0.0
C1949 C 0.66689 0.93987 0.41201 0.0
C1950 C 0.67016 0.92874 0.3948 0.0
C1951 C 0.68846 0.93091 0.38701 0.0
C1952 C 0.70333 0.94488 0.39648 0.0
H1953 H 0.75012 0.98053 0.10593 0.0
H1954 H 0.71395 0.92763 0.11388 0.0
H1955 H 0.70336 0.92326 0.07844 0.0
H1956 H 0.71657 0.99844 0.07265 0.0
H1957 H 0.73465 0.00859 0.05809 0.0
H1958 H 0.74106 0.00627 0.08358 0.0
H1959 H 0.76944 0.986 0.0747 0.0
H1960 H 0.76317 0.98833 0.04915 0.0
H1961 H 0.7644 0.96445 0.05756 0.0
H1962 H 0.6946 0.92633 0.04244 0.0
H1963 H 0.68857 0.9366 0.00913 0.0
H1964 H 0.73043 0.98752 0.02527 0.0
C1965 C 0.74008 0.96794 0.10022 0.0
C1966 C 0.73289 0.95441 0.11269 0.0
C1967 C 0.71989 0.93804 0.10458 0.0
C1968 C 0.71372 0.93548 0.08448 0.0
C1969 C 0.72078 0.94935 0.07269 0.0
C1970 C 0.73377 0.9652 0.08028 0.0
C1971 C 0.73839 0.97861 0.06479 0.0
C1972 C 0.7323 0.99919 0.0701 0.0
C1973 C 0.76014 0.97938 0.06135 0.0
C1974 C 0.72559 0.96813 0.04739 0.0
C1975 C 0.71568 0.95117 0.05213 0.0
C1976 C 0.70244 0.93948 0.03852 0.0
C1977 C 0.69915 0.94539 0.01964 0.0
C1978 C 0.70896 0.9629 0.01463 0.0
C1979 C 0.72252 0.97418 0.0287 0.0
H1980 H 0.51777 0.32115 0.61603 0.0
H1981 H 0.48949 0.29809 0.55891 0.0
H1982 H 0.52182 0.2932 0.54737 0.0
H1983 H 0.55818 0.34777 0.59922 0.0
H1984 H 0.57592 0.34228 0.61818 0.0
H1985 H 0.55078 0.34332 0.62298 0.0
H1986 H 0.54818 0.30785 0.63301 0.0
H1987 H 0.5739 0.30774 0.63019 0.0
H1988 H 0.55658 0.28874 0.61737 0.0
H1989 H 0.55771 0.29155 0.54209 0.0
H1990 H 0.59371 0.29198 0.54398 0.0
H1991 H 0.59793 0.31745 0.60427 0.0
C1992 C 0.51839 0.31518 0.60106 0.0
C1993 C 0.50117 0.31009 0.58832 0.0
C1994 C 0.50253 0.30193 0.56895 0.0
C1995 C 0.52082 0.29921 0.56224 0.0
C1996 C 0.53755 0.30465 0.57513 0.0
C1997 C 0.53645 0.31234 0.59416 0.0
C1998 C 0.55651 0.31699 0.60512 0.0
C1999 C 0.56055 0.33892 0.61177 0.0
C2000 C 0.55895 0.3046 0.62246 0.0
C2001 C 0.56914 0.31095 0.58928 0.0
C2002 C 0.558 0.3038 0.57208 0.0
C2003 C 0.56657 0.29716 0.5555 0.0
C2004 C 0.58704 0.29762 0.55666 0.0
C2005 C 0.59871 0.30471 0.57428 0.0
C2006 C 0.58949 0.31166 0.59066 0.0
H2007 H 0.1574 0.78337 0.98673 0.0
H2008 H 0.18022 0.74471 0.94306 0.0
H2009 H 0.14789 0.72544 0.93693 0.0
H2010 H 0.12799 0.74734 0.0066 0.0
H2011 H 0.10842 0.76244 0.01047 0.0
H2012 H 0.13307 0.77354 0.01073 0.0
H2013 H 0.1218 0.79497 0.98364 0.0
H2014 H 0.09708 0.78397 0.98334 0.0
H2015 H 0.10892 0.78344 0.96107 0.0
H2016 H 0.11312 0.70972 0.9366 0.0
H2017 H 0.07931 0.69857 0.94263 0.0
H2018 H 0.07943 0.7486 0.98551 0.0
C2019 C 0.15557 0.77107 0.9756 0.0
C2020 C 0.17135 0.76562 0.96531 0.0
C2021 C 0.16839 0.74909 0.95124 0.0
C2022 C 0.15005 0.73814 0.94756 0.0
C2023 C 0.13483 0.74396 0.95801 0.0
C2024 C 0.13742 0.76007 0.97172 0.0
C2025 C 0.11898 0.76297 0.98146 0.0
C2026 C 0.12232 0.76147 0.00362 0.0
C2027 C 0.11124 0.78249 0.97711 0.0
C2028 C 0.10563 0.7458 0.9713 0.0
C2029 C 0.11495 0.73504 0.95775 0.0
C2030 C 0.10564 0.71815 0.94705 0.0
C2031 C 0.08639 0.71199 0.9505 0.0
C2032 C 0.07671 0.72268 0.96457 0.0
C2033 C 0.08647 0.73996 0.97482 0.0
H2034 H 0.84679 0.2268 0.41747 0.0
H2035 H 0.79849 0.23254 0.45309 0.0
H2036 H 0.82131 0.24978 0.48009 0.0
H2037 H 0.88063 0.21587 0.4548 0.0
H2038 H 0.90142 0.22924 0.44643 0.0
H2039 H 0.88104 0.21933 0.42923 0.0
H2040 H 0.87738 0.25374 0.41788 0.0
H2041 H 0.89784 0.26376 0.43502 0.0
H2042 H 0.87466 0.27382 0.43569 0.0
H2043 H 0.84994 0.26359 0.50428 0.0
H2044 H 0.88193 0.27415 0.52316 0.0
H2045 H 0.9113 0.25877 0.47172 0.0
C2046 C 0.84096 0.23185 0.43088 0.0
C2047 C 0.82084 0.22835 0.43315 0.0
C2048 C 0.8138 0.23531 0.4509 0.0
C2049 C 0.82666 0.24502 0.46636 0.0
C2050 C 0.84649 0.24779 0.46378 0.0
C2051 C 0.85357 0.24156 0.44641 0.0
C2052 C 0.87561 0.24548 0.44765 0.0
C2053 C 0.88523 0.22634 0.44434 0.0
C2054 C 0.88173 0.26007 0.4332 0.0
C2055 C 0.87988 0.25445 0.46859 0.0
C2056 C 0.86291 0.25578 0.47764 0.0
C2057 C 0.86331 0.26281 0.49728 0.0
C2058 C 0.88153 0.26864 0.50791 0.0
C2059 C 0.89908 0.26739 0.49888 0.0
C2060 C 0.89813 0.26027 0.47894 0.0
H2061 H 0.48978 0.73472 0.95947 0.0
H2062 H 0.49976 0.71194 0.01576 0.0
H2063 H 0.46469 0.7001 0.01404 0.0
H2064 H 0.44105 0.75034 0.96635 0.0
H2065 H 0.43211 0.7433 0.94112 0.0
H2066 H 0.45764 0.75126 0.94762 0.0
H2067 H 0.46687 0.71895 0.93032 0.0
H2068 H 0.44141 0.71084 0.9239 0.0
H2069 H 0.45681 0.69593 0.93744 0.0
H2070 H 0.42893 0.6889 0.00506 0.0
H2071 H 0.39539 0.67915 0.98951 0.0
H2072 H 0.4089 0.71012 0.93954 0.0
C2073 C 0.48452 0.72766 0.97166 0.0
C2074 C 0.49749 0.72432 0.98779 0.0
C2075 C 0.4901 0.71454 0.0032 0.0
C2076 C 0.4702 0.70787 0.0024 0.0
C2077 C 0.45788 0.71115 0.98613 0.0
C2078 C 0.46475 0.7209 0.97109 0.0
C2079 C 0.44874 0.72169 0.95477 0.0
C2080 C 0.44464 0.74291 0.95233 0.0
C2081 C 0.45376 0.71122 0.93547 0.0
C2082 C 0.43186 0.71053 0.96281 0.0
C2083 C 0.43736 0.7047 0.98098 0.0
C2084 C 0.4244 0.69358 0.99094 0.0
C2085 C 0.40535 0.68818 0.98202 0.0
C2086 C 0.39949 0.69385 0.96329 0.0
C2087 C 0.41295 0.70536 0.95376 0.0
H2088 H 0.59477 0.50037 0.31738 0.0
H2089 H 0.56525 0.49139 0.36931 0.0
H2090 H 0.55701 0.52555 0.37106 0.0
H2091 H 0.61574 0.54799 0.3325 0.0
H2092 H 0.6126 0.55672 0.30867 0.0
H2093 H 0.61506 0.53124 0.31079 0.0
H2094 H 0.58219 0.52178 0.28927 0.0
H2095 H 0.57968 0.54725 0.28697 0.0
H2096 H 0.56048 0.53225 0.29615 0.0
H2097 H 0.55438 0.56162 0.36856 0.0
H2098 H 0.55721 0.59621 0.36165 0.0
H2099 H 0.58612 0.5805 0.30993 0.0
C2100 C 0.58618 0.5054 0.32887 0.0
C2101 C 0.58068 0.49316 0.34321 0.0
C2102 C 0.56985 0.50055 0.35828 0.0
C2103 C 0.56497 0.51989 0.35932 0.0
C2104 C 0.57086 0.53163 0.34509 0.0
C2105 C 0.5811 0.5246 0.33007 0.0
C2106 C 0.58643 0.54036 0.31706 0.0
C2107 C 0.60878 0.5443 0.31728 0.0
C2108 C 0.5766 0.5351 0.29612 0.0
C2109 C 0.57783 0.55743 0.32725 0.0
C2110 C 0.56891 0.55216 0.34339 0.0
C2111 C 0.56105 0.56584 0.35576 0.0
C2112 C 0.56261 0.58546 0.35165 0.0
C2113 C 0.5719 0.5912 0.33526 0.0
C2114 C 0.57916 0.57678 0.32273 0.0
H2115 H 0.98428 0.15851 0.77157 0.0
H2116 H 0.95991 0.19211 0.72676 0.0
H2117 H 0.95008 0.16145 0.70518 0.0
H2118 H 0.00456 0.12505 0.73997 0.0
H2119 H 0.9995 0.10451 0.75377 0.0
H2120 H 0.00306 0.12889 0.76597 0.0
H2121 H 0.96931 0.1237 0.77952 0.0
H2122 H 0.96565 0.09927 0.76734 0.0
H2123 H 0.94778 0.11626 0.76281 0.0
H2124 H 0.94416 0.12677 0.68816 0.0
H2125 H 0.94466 0.09176 0.6766 0.0
H2126 H 0.97308 0.08177 0.73298 0.0
C2127 C 0.9765 0.15942 0.75738 0.0
C2128 C 0.97261 0.17763 0.7509 0.0
C2129 C 0.96299 0.17826 0.73198 0.0
C2130 C 0.95726 0.16094 0.71971 0.0
C2131 C 0.96134 0.14319 0.7266 0.0
C2132 C 0.97082 0.14239 0.74499 0.0
C2133 C 0.97467 0.12175 0.74861 0.0
C2134 C 0.99676 0.11996 0.75229 0.0
C2135 C 0.96369 0.11484 0.76558 0.0
C2136 C 0.96614 0.11102 0.72928 0.0
C2137 C 0.95829 0.12352 0.7168 0.0
C2138 C 0.95014 0.11685 0.69787 0.0
C2139 C 0.9504 0.09697 0.69146 0.0
C2140 C 0.95896 0.08416 0.7039 0.0
C2141 C 0.96654 0.09128 0.72313 0.0
H2142 H 0.44667 0.87296 0.22297 0.0
H2143 H 0.49195 0.83393 0.23125 0.0
H2144 H 0.51378 0.8611 0.24963 0.0
H2145 H 0.4793 0.91719 0.21789 0.0
H2146 H 0.46451 0.93293 0.23116 0.0
H2147 H 0.4533 0.91089 0.21707 0.0
H2148 H 0.4385 0.89957 0.2479 0.0
H2149 H 0.44974 0.92148 0.26209 0.0
H2150 H 0.45446 0.89791 0.26974 0.0
H2151 H 0.52978 0.89208 0.26908 0.0
H2152 H 0.53826 0.92404 0.28862 0.0
H2153 H 0.48249 0.94264 0.26727 0.0
C2154 C 0.46135 0.87025 0.22824 0.0
C2155 C 0.46768 0.85138 0.22559 0.0
C2156 C 0.4868 0.84828 0.23318 0.0
C2157 C 0.49933 0.86364 0.24353 0.0
C2158 C 0.49251 0.882 0.24616 0.0
C2159 C 0.47397 0.88537 0.23869 0.0
C2160 C 0.46968 0.90607 0.24463 0.0
C2161 C 0.46652 0.91744 0.22661 0.0
C2162 C 0.45206 0.90625 0.25682 0.0
C2163 C 0.48853 0.91371 0.25693 0.0
C2164 C 0.50162 0.89971 0.25749 0.0
C2165 C 0.51973 0.90322 0.26858 0.0
C2166 C 0.52445 0.92144 0.27956 0.0
C2167 C 0.51104 0.93583 0.27949 0.0
C2168 C 0.493 0.9319 0.26775 0.0
H2169 H 0.94899 0.48847 0.70523 0.0
H2170 H 0.9853 0.48625 0.75959 0.0
H2171 H 0.97712 0.45049 0.75736 0.0
H2172 H 0.91125 0.45196 0.71331 0.0
H2173 H 0.90753 0.44173 0.68813 0.0
H2174 H 0.9162 0.46715 0.69403 0.0
H2175 H 0.94635 0.46225 0.67491 0.0
H2176 H 0.93773 0.43683 0.66888 0.0
H2177 H 0.96193 0.44362 0.68104 0.0
H2178 H 0.96497 0.41502 0.74916 0.0
H2179 H 0.94964 0.38233 0.73565 0.0
H2180 H 0.92214 0.40776 0.68613 0.0
C2181 C 0.95538 0.48046 0.71658 0.0
C2182 C 0.96778 0.49017 0.7326 0.0
C2183 C 0.97557 0.47916 0.74731 0.0
C2184 C 0.97111 0.45884 0.74611 0.0
C2185 C 0.95884 0.44977 0.73012 0.0
C2186 C 0.9511 0.46021 0.7156 0.0
C2187 C 0.93828 0.44695 0.69996 0.0
C2188 C 0.91706 0.45227 0.6988 0.0
C2189 C 0.94657 0.44745 0.68002 0.0
C2190 C 0.93999 0.42741 0.70796 0.0
C2191 C 0.95192 0.42934 0.72535 0.0
C2192 C 0.95566 0.41331 0.73551 0.0
C2193 C 0.94698 0.3948 0.72766 0.0
C2194 C 0.93472 0.39248 0.70982 0.0
C2195 C 0.93124 0.40907 0.6999 0.0
H2196 H 0.69243 0.41524 0.52329 0.0
H2197 H 0.64138 0.44757 0.51833 0.0
H2198 H 0.64936 0.45593 0.48561 0.0
H2199 H 0.72447 0.44815 0.49875 0.0
H2200 H 0.73578 0.42829 0.48703 0.0
H2201 H 0.72657 0.42598 0.51043 0.0
H2202 H 0.70508 0.39427 0.49605 0.0
H2203 H 0.71421 0.3965 0.47265 0.0
H2204 H 0.68826 0.39488 0.4746 0.0
H2205 H 0.66202 0.4588 0.45229 0.0
H2206 H 0.67782 0.45537 0.4215 0.0
H2207 H 0.72136 0.42274 0.44972 0.0
C2208 C 0.68314 0.42447 0.51558 0.0
C2209 C 0.66634 0.43085 0.52347 0.0
C2210 C 0.65427 0.4424 0.51254 0.0
C2211 C 0.65876 0.44734 0.49401 0.0
C2212 C 0.67541 0.44069 0.48666 0.0
C2213 C 0.68742 0.42956 0.49718 0.0
C2214 C 0.70389 0.42335 0.48574 0.0
C2215 C 0.72386 0.43197 0.49611 0.0
C2216 C 0.70279 0.40093 0.48205 0.0
C2217 C 0.69917 0.43253 0.46702 0.0
C2218 C 0.68275 0.44253 0.46776 0.0
C2219 C 0.67505 0.45123 0.45165 0.0
C2220 C 0.68419 0.4493 0.43425 0.0
C2221 C 0.70081 0.43873 0.43313 0.0
C2222 C 0.70857 0.43072 0.44997 0.0
H2223 H 0.78028 0.55255 0.11684 0.0
H2224 H 0.76464 0.51019 0.15702 0.0
H2225 H 0.74364 0.49026 0.13024 0.0
H2226 H 0.73414 0.55155 0.09211 0.0
H2227 H 0.74238 0.55402 0.0683 0.0
H2228 H 0.75799 0.56369 0.08993 0.0
H2229 H 0.78544 0.54322 0.07881 0.0
H2230 H 0.76995 0.53359 0.05702 0.0
H2231 H 0.78029 0.51716 0.07308 0.0
H2232 H 0.72205 0.47662 0.09981 0.0
H2233 H 0.70145 0.47051 0.06827 0.0
H2234 H 0.73182 0.52151 0.04794 0.0
C2235 C 0.77288 0.5388 0.11987 0.0
C2236 C 0.77417 0.53284 0.13896 0.0
C2237 C 0.7638 0.51504 0.14249 0.0
C2238 C 0.75193 0.50358 0.12736 0.0
C2239 C 0.75066 0.5101 0.10878 0.0
C2240 C 0.76094 0.52725 0.10497 0.0
C2241 C 0.75596 0.53176 0.08414 0.0
C2242 C 0.74709 0.55142 0.0836 0.0
C2243 C 0.77398 0.5314 0.07258 0.0
C2244 C 0.7409 0.51475 0.07698 0.0
C2245 C 0.73818 0.50229 0.09131 0.0
C2246 C 0.72426 0.48611 0.08838 0.0
C2247 C 0.71268 0.48272 0.07039 0.0
C2248 C 0.71502 0.49551 0.05562 0.0
C2249 C 0.72956 0.51153 0.05896 0.0
H2250 H 0.26697 0.00333 0.51694 0.0
H2251 H 0.32525 0.02042 0.50149 0.0
H2252 H 0.33645 0.02949 0.53629 0.0
H2253 H 0.26523 0.04244 0.55094 0.0
H2254 H 0.25185 0.02925 0.56772 0.0
H2255 H 0.2493 0.02069 0.54216 0.0
H2256 H 0.25945 0.98693 0.55063 0.0
H2257 H 0.26208 0.99545 0.5763 0.0
H2258 H 0.28223 0.9856 0.56521 0.0
H2259 H 0.34018 0.04122 0.57192 0.0
H2260 H 0.33592 0.05472 0.60554 0.0
H2261 H 0.27517 0.03067 0.59768 0.0
C2262 C 0.28217 0.00866 0.52089 0.0
C2263 C 0.29524 0.01102 0.50643 0.0
C2264 C 0.31503 0.01808 0.51227 0.0
C2265 C 0.32154 0.02334 0.53204 0.0
C2266 C 0.30814 0.02131 0.54585 0.0
C2267 C 0.2889 0.01401 0.54055 0.0
C2268 C 0.27699 0.0151 0.55795 0.0
C2269 C 0.25984 0.02762 0.55448 0.0
C2270 C 0.26977 0.99454 0.5628 0.0
C2271 C 0.29231 0.02503 0.57363 0.0
C2272 C 0.31028 0.02817 0.56646 0.0
C2273 C 0.32627 0.03854 0.5778 0.0
C2274 C 0.32371 0.04623 0.59681 0.0
C2275 C 0.30527 0.04361 0.60421 0.0
C2276 C 0.28955 0.03248 0.59258 0.0
H2277 H 0.25923 0.07876 0.89106 0.0
H2278 H 0.21014 0.03415 0.87818 0.0
H2279 H 0.20972 0.03064 0.91341 0.0
H2280 H 0.28415 0.05559 0.92718 0.0
H2281 H 0.29305 0.07763 0.94259 0.0
H2282 H 0.2879 0.07847 0.91667 0.0
H2283 H 0.26437 0.10507 0.92306 0.0
H2284 H 0.26944 0.10427 0.94906 0.0
H2285 H 0.24458 0.1004 0.93792 0.0
H2286 H 0.217 0.02914 0.94931 0.0
H2287 H 0.23136 0.03006 0.98358 0.0
H2288 H 0.27559 0.07567 0.97334 0.0
C2289 C 0.24826 0.0684 0.89566 0.0
C2290 C 0.23465 0.0568 0.88183 0.0
C2291 C 0.22049 0.04344 0.88848 0.0
C2292 C 0.22018 0.0413 0.90847 0.0
C2293 C 0.23401 0.05272 0.92165 0.0
C2294 C 0.24772 0.0661 0.91555 0.0
C2295 C 0.2618 0.0756 0.93257 0.0
C2296 C 0.28297 0.07157 0.92957 0.0
C2297 C 0.25993 0.09764 0.93584 0.0
C2298 C 0.25426 0.065 0.94909 0.0
C2299 C 0.23809 0.052 0.94251 0.0
C2300 C 0.22943 0.03949 0.95472 0.0
C2301 C 0.23769 0.04007 0.9741 0.0
C2302 C 0.2544 0.05307 0.98105 0.0
C2303 C 0.26253 0.06593 0.96847 0.0
H2304 H 0.48445 0.63361 0.39957 0.0
H2305 H 0.51271 0.65307 0.45763 0.0
H2306 H 0.48032 0.65483 0.47006 0.0
H2307 H 0.44739 0.66537 0.4019 0.0
H2308 H 0.42939 0.64831 0.3874 0.0
H2309 H 0.45497 0.64731 0.38452 0.0
H2310 H 0.45139 0.61034 0.39186 0.0
H2311 H 0.42587 0.61218 0.39473 0.0
H2312 H 0.44164 0.60426 0.41414 0.0
H2313 H 0.44488 0.6582 0.47505 0.0
H2314 H 0.40997 0.6638 0.47183 0.0
H2315 H 0.40488 0.63908 0.41128 0.0
C2316 C 0.48383 0.63771 0.41502 0.0
C2317 C 0.50107 0.64307 0.42767 0.0
C2318 C 0.49965 0.64899 0.44766 0.0
C2319 C 0.48134 0.64987 0.45489 0.0
C2320 C 0.4646 0.64465 0.44196 0.0
C2321 C 0.46572 0.63866 0.42246 0.0
C2322 C 0.44573 0.63568 0.41116 0.0
C2323 C 0.44427 0.64998 0.3953 0.0
C2324 C 0.44086 0.61434 0.40245 0.0
C2325 C 0.43312 0.64081 0.42731 0.0
C2326 C 0.44422 0.64607 0.44498 0.0
C2327 C 0.43597 0.65367 0.4614 0.0
C2328 C 0.41604 0.65665 0.45947 0.0
C2329 C 0.40458 0.65195 0.44126 0.0
C2330 C 0.41318 0.64303 0.42535 0.0
H2331 H 0.88195 0.23935 0.03591 0.0
H2332 H 0.86968 0.28946 0.07391 0.0
H2333 H 0.90499 0.29753 0.08328 0.0
H2334 H 0.92474 0.22671 0.0662 0.0
H2335 H 0.93752 0.22027 0.04525 0.0
H2336 H 0.91119 0.21711 0.04328 0.0
H2337 H 0.90987 0.23848 0.01423 0.0
H2338 H 0.93616 0.24174 0.01613 0.0
H2339 H 0.92244 0.26277 0.01735 0.0
H2340 H 0.94166 0.30192 0.08623 0.0
H2341 H 0.97689 0.30244 0.0822 0.0
H2342 H 0.96524 0.24958 0.04219 0.0
C2343 C 0.88665 0.25194 0.04631 0.0
C2344 C 0.87298 0.26369 0.05425 0.0
C2345 C 0.8798 0.27999 0.0679 0.0
C2346 C 0.89986 0.28476 0.07326 0.0
C2347 C 0.91292 0.27306 0.06491 0.0
C2348 C 0.9066 0.25695 0.05177 0.0
C2349 C 0.92366 0.2475 0.04395 0.0
C2350 C 0.92431 0.22666 0.05004 0.0
C2351 C 0.92299 0.24764 0.02159 0.0
C2352 C 0.94055 0.26114 0.05433 0.0
C2353 C 0.93407 0.27565 0.06652 0.0
C2354 C 0.94694 0.29047 0.07693 0.0
C2355 C 0.96693 0.29059 0.07462 0.0
C2356 C 0.97385 0.27603 0.06191 0.0
C2357 C 0.96042 0.26098 0.05192 0.0
H2358 H 0.11523 0.76748 0.55715 0.0
H2359 H 0.16059 0.76542 0.51758 0.0
H2360 H 0.13882 0.7419 0.49441 0.0
H2361 H 0.09923 0.71789 0.55089 0.0
H2362 H 0.07366 0.72092 0.55195 0.0
H2363 H 0.09191 0.7392 0.56432 0.0
H2364 H 0.07669 0.76583 0.54537 0.0
H2365 H 0.05826 0.74762 0.53302 0.0
H2366 H 0.07333 0.7626 0.51901 0.0
H2367 H 0.11349 0.71572 0.4775 0.0
H2368 H 0.08618 0.69015 0.46756 0.0
H2369 H 0.05687 0.71061 0.51755 0.0
C2370 C 0.12046 0.76229 0.54348 0.0
C2371 C 0.13956 0.76829 0.53912 0.0
C2372 C 0.14591 0.7612 0.52108 0.0
C2373 C 0.13368 0.74779 0.50787 0.0
C2374 C 0.11508 0.74182 0.51284 0.0
C2375 C 0.10842 0.74904 0.53011 0.0
C2376 C 0.08821 0.73962 0.53244 0.0
C2377 C 0.08827 0.72876 0.551 0.0
C2378 C 0.07324 0.75483 0.53245 0.0
C2379 C 0.0848 0.72553 0.51411 0.0
C2380 C 0.10039 0.72706 0.50292 0.0
C2381 C 0.10103 0.71464 0.48596 0.0
C2382 C 0.08538 0.7002 0.48037 0.0
C2383 C 0.06928 0.6983 0.49172 0.0
C2384 C 0.06898 0.71144 0.50862 0.0
H2385 H 0.50406 0.28223 0.05212 0.0
H2386 H 0.50365 0.29944 0.99311 0.0
H2387 H 0.53965 0.30609 0.9976 0.0
H2388 H 0.54186 0.31824 0.07391 0.0
H2389 H 0.5527 0.30234 0.09024 0.0
H2390 H 0.52696 0.29842 0.08223 0.0
H2391 H 0.5309 0.26275 0.06913 0.0
H2392 H 0.55663 0.26651 0.07723 0.0
H2393 H 0.54863 0.25817 0.05203 0.0
H2394 H 0.57562 0.31112 0.00865 0.0
H2395 H 0.60904 0.31432 0.02556 0.0
H2396 H 0.58585 0.29365 0.07727 0.0
C2397 C 0.51157 0.28716 0.04006 0.0
C2398 C 0.50109 0.2903 0.02225 0.0
C2399 C 0.5114 0.2971 0.00693 0.0
C2400 C 0.53183 0.30083 0.00931 0.0
C2401 C 0.5417 0.29773 0.02711 0.0
C2402 C 0.53193 0.29104 0.04222 0.0
C2403 C 0.54595 0.28924 0.06 0.0
C2404 C 0.5416 0.30287 0.07763 0.0
C2405 C 0.5455 0.2679 0.06488 0.0
C2406 C 0.56514 0.296 0.05255 0.0
C2407 C 0.56238 0.30078 0.03353 0.0
C2408 C 0.57796 0.30737 0.02353 0.0
C2409 C 0.59688 0.30907 0.03321 0.0
C2410 C 0.60003 0.30424 0.05272 0.0
C2411 C 0.58388 0.29767 0.06245 0.0
H2412 H 0.40918 0.48322 0.65337 0.0
H2413 H 0.4546 0.50368 0.70013 0.0
H2414 H 0.46292 0.46966 0.7021 0.0
H2415 H 0.39247 0.44244 0.67417 0.0
H2416 H 0.38637 0.42747 0.65133 0.0
H2417 H 0.38665 0.45362 0.65207 0.0
H2418 H 0.41117 0.45369 0.6255 0.0
H2419 H 0.41122 0.42752 0.62512 0.0
H2420 H 0.43387 0.44305 0.62991 0.0
H2421 H 0.46324 0.43269 0.70143 0.0
H2422 H 0.45398 0.39693 0.69958 0.0
H2423 H 0.40885 0.40177 0.65294 0.0
C2424 C 0.42137 0.4807 0.66355 0.0
C2425 C 0.43144 0.49611 0.6764 0.0
C2426 C 0.44672 0.49205 0.69012 0.0
C2427 C 0.45166 0.47282 0.69121 0.0
C2428 C 0.44123 0.4579 0.67841 0.0
C2429 C 0.42642 0.46173 0.66484 0.0
C2430 C 0.41571 0.44318 0.65442 0.0
C2431 C 0.39401 0.44157 0.65822 0.0
C2432 C 0.41814 0.44178 0.63243 0.0
C2433 C 0.42647 0.4282 0.66444 0.0
C2434 C 0.44134 0.43685 0.67809 0.0
C2435 C 0.4519 0.42578 0.69051 0.0
C2436 C 0.44662 0.40552 0.68934 0.0
C2437 C 0.4308 0.39675 0.67605 0.0
C2438 C 0.42116 0.40816 0.66304 0.0
H2439 H 0.07199 0.88996 0.27793 0.0
H2440 H 0.04233 0.8752 0.21956 0.0
H2441 H 0.03696 0.90981 0.2175 0.0
H2442 H 0.03964 0.92209 0.2938 0.0
H2443 H 0.05777 0.93909 0.30834 0.0
H2444 H 0.06204 0.91382 0.30408 0.0
H2445 H 0.09455 0.92395 0.28985 0.0
H2446 H 0.09037 0.94932 0.29409 0.0
H2447 H 0.09441 0.9392 0.26995 0.0
H2448 H 0.03113 0.94499 0.2233 0.0
H2449 H 0.02559 0.9783 0.23652 0.0
H2450 H 0.05838 0.97001 0.29131 0.0
C2451 C 0.06459 0.89403 0.2646 0.0
C2452 C 0.05769 0.87984 0.24887 0.0
C2453 C 0.04811 0.88582 0.23167 0.0
C2454 C 0.04492 0.90545 0.23038 0.0
C2455 C 0.05149 0.91896 0.24635 0.0
C2456 C 0.06125 0.91354 0.2631 0.0
C2457 C 0.06537 0.93057 0.2788 0.0
C2458 C 0.05562 0.92612 0.29734 0.0
C2459 C 0.08749 0.93608 0.28344 0.0
C2460 C 0.05578 0.94622 0.26852 0.0
C2461 C 0.04809 0.93931 0.24973 0.0
C2462 C 0.03735 0.95067 0.23788 0.0
C2463 C 0.03418 0.96949 0.24553 0.0
C2464 C 0.04166 0.97672 0.26487 0.0
C2465 C 0.05287 0.96501 0.27633 0.0
H2466 H 0.53935 0.15906 0.73926 0.0
H2467 H 0.51705 0.13822 0.79131 0.0
H2468 H 0.49155 0.11638 0.77054 0.0
H2469 H 0.49249 0.15608 0.70885 0.0
H2470 H 0.50309 0.14761 0.68707 0.0
H2471 H 0.51774 0.1635 0.70608 0.0
H2472 H 0.54324 0.13817 0.70823 0.0
H2473 H 0.52873 0.12228 0.68924 0.0
H2474 H 0.53537 0.11342 0.71248 0.0
H2475 H 0.47043 0.09446 0.74379 0.0
H2476 H 0.45685 0.0736 0.71367 0.0
H2477 H 0.49387 0.10838 0.67963 0.0
C2478 C 0.52907 0.15 0.74637 0.0
C2479 C 0.53025 0.15041 0.76696 0.0
C2480 C 0.51631 0.13843 0.77559 0.0
C2481 C 0.50178 0.12593 0.7639 0.0
C2482 C 0.50134 0.12563 0.74362 0.0
C2483 C 0.51465 0.13739 0.73497 0.0
C2484 C 0.51222 0.13324 0.71294 0.0
C2485 C 0.50601 0.15118 0.70316 0.0
C2486 C 0.531 0.12636 0.70529 0.0
C2487 C 0.49583 0.1169 0.71054 0.0
C2488 C 0.48948 0.1129 0.72834 0.0
C2489 C 0.47513 0.09765 0.72976 0.0
C2490 C 0.46744 0.08593 0.71261 0.0
C2491 C 0.47434 0.08942 0.69439 0.0
C2492 C 0.48835 0.1054 0.69338 0.0
H2493 H 0.03877 0.49923 0.32635 0.0
H2494 H 0.98928 0.48967 0.28194 0.0
H2495 H 0.99105 0.52507 0.27888 0.0
H2496 H 0.02585 0.54766 0.34877 0.0
H2497 H 0.05122 0.55716 0.35317 0.0
H2498 H 0.04432 0.53142 0.35386 0.0
H2499 H 0.06813 0.52343 0.32794 0.0
H2500 H 0.07493 0.54906 0.327 0.0
H2501 H 0.06565 0.53389 0.30491 0.0
H2502 H 0.00138 0.56027 0.27683 0.0
H2503 H 0.01844 0.59307 0.27707 0.0
H2504 H 0.0595 0.58081 0.32499 0.0
C2505 C 0.02789 0.50465 0.31647 0.0
C2506 C 0.01395 0.49165 0.30432 0.0
C2507 C 1.00026 0.49931 0.29122 0.0
C2508 C 0.00104 0.51942 0.28948 0.0
C2509 C 0.01538 0.53176 0.30118 0.0
C2510 C 0.02837 0.52474 0.31465 0.0
C2511 C 0.04327 0.54096 0.32439 0.0
C2512 C 0.04102 0.54451 0.34635 0.0
C2513 C 0.06422 0.53656 0.32083 0.0
C2514 C 0.03717 0.55796 0.31361 0.0
C2515 C 0.02094 0.55238 0.30043 0.0
C2516 C 0.01375 0.565 0.2875 0.0
C2517 C 0.02354 0.58374 0.28785 0.0
C2518 C 0.04035 0.58983 0.30116 0.0
C2519 C 0.04684 0.57677 0.3145 0.0
H2520 H 0.41813 0.66608 0.33167 0.0
H2521 H 0.40983 0.6106 0.35617 0.0
H2522 H 0.44511 0.60692 0.35581 0.0
H2523 H 0.45676 0.65344 0.30083 0.0
H2524 H 0.46994 0.67738 0.30574 0.0
H2525 H 0.44376 0.67453 0.30601 0.0
H2526 H 0.4474 0.69205 0.34111 0.0
H2527 H 0.4736 0.6947 0.3412 0.0
H2528 H 0.46244 0.68263 0.36012 0.0
H2529 H 0.48166 0.61116 0.35664 0.0
H2530 H 0.51673 0.62114 0.35442 0.0
H2531 H 0.50146 0.67387 0.32957 0.0
C2532 C 0.42376 0.6531 0.33676 0.0
C2533 C 0.41139 0.63866 0.34405 0.0
C2534 C 0.41919 0.62185 0.35062 0.0
C2535 C 0.43916 0.61965 0.35049 0.0
C2536 C 0.45116 0.63453 0.34399 0.0
C2537 C 0.44375 0.65085 0.33707 0.0
C2538 C 0.45994 0.66509 0.33171 0.0
C2539 C 0.45745 0.66776 0.30977 0.0
C2540 C 0.4609 0.68478 0.34429 0.0
C2541 C 0.4776 0.65431 0.33688 0.0
C2542 C 0.47221 0.63676 0.34406 0.0
C2543 C 0.48603 0.62466 0.35066 0.0
C2544 C 0.50587 0.63044 0.3494 0.0
C2545 C 0.51154 0.64807 0.3416 0.0
C2546 C 0.49731 0.66021 0.33542 0.0
H2547 H 0.07303 0.34901 0.70488 0.0
H2548 H 0.07711 0.3383 0.76611 0.0
H2549 H 0.04125 0.33151 0.76403 0.0
H2550 H 0.02718 0.37243 0.70638 0.0
H2551 H 0.01814 0.36256 0.68183 0.0
H2552 H 0.04408 0.36763 0.68848 0.0
H2553 H 0.04846 0.33229 0.67623 0.0
H2554 H 0.02253 0.32611 0.67052 0.0
H2555 H 0.03628 0.3124 0.68691 0.0
H2556 H 0.00529 0.32381 0.75495 0.0
H2557 H 0.97112 0.31772 0.73966 0.0
H2558 H 0.99016 0.33406 0.6847 0.0
C2559 C 0.06637 0.34507 0.7178 0.0
C2560 C 0.07787 0.34412 0.73566 0.0
C2561 C 0.06858 0.3393 0.75234 0.0
C2562 C 0.04824 0.3353 0.75127 0.0
C2563 C 0.03737 0.33609 0.73341 0.0
C2564 C 0.04604 0.34109 0.71701 0.0
C2565 C 0.03088 0.34137 0.69974 0.0
C2566 C 0.03002 0.36224 0.69376 0.0
C2567 C 0.03475 0.32719 0.68233 0.0
C2568 C 0.01251 0.33457 0.70871 0.0
C2569 C 0.01655 0.3319 0.72823 0.0
C2570 C 0.00193 0.32586 0.73969 0.0
C2571 C 0.98264 0.3224 0.73094 0.0
C2572 C 0.97829 0.32519 0.71107 0.0
C2573 C 0.9933 0.33148 0.69985 0.0
H2574 H 0.79788 0.01443 0.65204 0.0
H2575 H 0.80175 0.0732 0.63406 0.0
H2576 H 0.83775 0.07547 0.64022 0.0
H2577 H 0.83848 0.02301 0.69088 0.0
H2578 H 0.84666 0.9992 0.68562 0.0
H2579 H 0.82116 0.00268 0.68091 0.0
H2580 H 0.82163 0.9886 0.64487 0.0
H2581 H 0.84715 0.98521 0.64942 0.0
H2582 H 0.83912 0.99947 0.63012 0.0
H2583 H 0.87332 0.07085 0.64684 0.0
H2584 H 0.90612 0.05961 0.65394 0.0
H2585 H 0.87924 0.00397 0.66762 0.0
C2586 C 0.80629 0.02791 0.64976 0.0
C2587 C 0.79702 0.04366 0.6426 0.0
C2588 C 0.80856 0.06091 0.63941 0.0
C2589 C 0.829 0.06236 0.64294 0.0
C2590 C 0.83769 0.04646 0.64968 0.0
C2591 C 0.82672 0.02958 0.65314 0.0
C2592 C 0.83973 0.01434 0.65967 0.0
C2593 C 0.8363 0.00953 0.68051 0.0
C2594 C 0.83673 0.99582 0.64515 0.0
C2595 C 0.85973 0.0252 0.65913 0.0
C2596 C 0.85821 0.04375 0.65341 0.0
C2597 C 0.87469 0.05641 0.65144 0.0
C2598 C 0.8932 0.04994 0.65545 0.0
C2599 C 0.89497 0.03104 0.66128 0.0
C2600 C 0.8781 0.01853 0.6632 0.0
H2601 H 0.68095 0.99944 0.27285 0.0
H2602 H 0.69172 0.9462 0.29938 0.0
H2603 H 0.65756 0.94261 0.30741 0.0
H2604 H 0.65026 0.01734 0.30881 0.0
H2605 H 0.63469 0.02791 0.29107 0.0
H2606 H 0.65993 0.02575 0.28729 0.0
H2607 H 0.64888 0.0065 0.25342 0.0
H2608 H 0.62362 0.00832 0.25736 0.0
H2609 H 0.63216 0.98468 0.25199 0.0
H2610 H 0.62196 0.94495 0.31263 0.0
H2611 H 0.58824 0.95396 0.31572 0.0
H2612 H 0.60131 0.00596 0.28664 0.0
C2613 C 0.67624 0.98709 0.2805 0.0
C2614 C 0.68915 0.97316 0.28555 0.0
C2615 C 0.68216 0.95704 0.29524 0.0
C2616 C 0.66277 0.95489 0.29992 0.0
C2617 C 0.6505 0.96896 0.29478 0.0
C2618 C 0.65701 0.9848 0.28539 0.0
C2619 C 0.64108 0.99814 0.28185 0.0
C2620 C 0.64684 0.01849 0.29292 0.0
C2621 C 0.63615 0.99948 0.25985 0.0
C2622 C 0.62448 0.98724 0.29055 0.0
C2623 C 0.63017 0.97041 0.29792 0.0
C2624 C 0.61734 0.95806 0.30688 0.0
C2625 C 0.59828 0.96321 0.30852 0.0
C2626 C 0.59241 0.98047 0.30125 0.0
C2627 C 0.60556 0.99256 0.2921 0.0
H2628 H 0.33665 0.41394 0.64049 0.0
H2629 H 0.37867 0.414 0.59728 0.0
H2630 H 0.37954 0.44986 0.59825 0.0
H2631 H 0.3101 0.45374 0.62184 0.0
H2632 H 0.30594 0.46366 0.64601 0.0
H2633 H 0.30773 0.43784 0.64103 0.0
H2634 H 0.33563 0.43959 0.66927 0.0
H2635 H 0.33351 0.46532 0.67424 0.0
H2636 H 0.35675 0.45701 0.66946 0.0
H2637 H 0.37792 0.48587 0.60574 0.0
H2638 H 0.37155 0.51957 0.6173 0.0
H2639 H 0.33004 0.49629 0.6549 0.0
C2640 C 0.3457 0.42145 0.63091 0.0
C2641 C 0.35766 0.41112 0.61887 0.0
C2642 C 0.36956 0.42158 0.60681 0.0
C2643 C 0.37007 0.44195 0.60716 0.0
C2644 C 0.35851 0.45172 0.61955 0.0
C2645 C 0.34636 0.44183 0.63105 0.0
C2646 C 0.33576 0.45592 0.64342 0.0
C2647 C 0.31357 0.45259 0.63773 0.0
C2648 C 0.34073 0.45435 0.66538 0.0
C2649 C 0.34427 0.47528 0.63748 0.0
C2650 C 0.35737 0.47252 0.62368 0.0
C2651 C 0.36752 0.48822 0.61634 0.0
C2652 C 0.3639 0.50724 0.62301 0.0
C2653 C 0.35033 0.51029 0.63685 0.0
C2654 C 0.34046 0.49418 0.64424 0.0
H2655 H 0.27376 0.67641 0.96001 0.0
H2656 H 0.24683 0.6896 0.01359 0.0
H2657 H 0.24174 0.65456 0.0174 0.0
H2658 H 0.24511 0.62745 0.94424 0.0
H2659 H 0.26646 0.61736 0.9359 0.0
H2660 H 0.26359 0.64293 0.93455 0.0
H2661 H 0.29719 0.65177 0.95421 0.0
H2662 H 0.30024 0.62648 0.95627 0.0
H2663 H 0.30175 0.64328 0.97804 0.0
H2664 H 0.24455 0.61912 0.01879 0.0
H2665 H 0.25599 0.58609 0.01788 0.0
H2666 H 0.28283 0.59579 0.96476 0.0
C2667 C 0.26636 0.67195 0.97231 0.0
C2668 C 0.26053 0.68593 0.98636 0.0
C2669 C 0.25098 0.67933 0.00227 0.0
C2670 C 0.2481 0.65937 0.00465 0.0
C2671 C 0.25478 0.64609 0.991 0.0
C2672 C 0.26364 0.65209 0.97507 0.0
C2673 C 0.27191 0.63522 0.96404 0.0
C2674 C 0.26112 0.63046 0.94346 0.0
C2675 C 0.29409 0.63945 0.96313 0.0
C2676 C 0.26729 0.61908 0.97691 0.0
C2677 C 0.2569 0.62553 0.99207 0.0
C2678 C 0.25229 0.61376 0.00675 0.0
C2679 C 0.25881 0.59508 0.00615 0.0
C2680 C 0.26991 0.58854 0.99109 0.0
C2681 C 0.27391 0.60046 0.97612 0.0
H2682 H 0.70809 0.05197 0.34487 0.0
H2683 H 0.76378 0.0664 0.32236 0.0
H2684 H 0.76922 0.0314 0.31918 0.0
H2685 H 0.72371 0.01115 0.37203 0.0
H2686 H 0.70028 0.99711 0.36628 0.0
H2687 H 0.70186 0.02343 0.3687 0.0
H2688 H 0.68334 0.02203 0.3347 0.0
H2689 H 0.68259 0.99585 0.3306 0.0
H2690 H 0.69344 0.0111 0.31376 0.0
H2691 H 0.76783 0.99463 0.31695 0.0
H2692 H 0.75905 0.95878 0.31497 0.0
H2693 H 0.70394 0.96863 0.33784 0.0
C2694 C 0.7215 0.04778 0.33941 0.0
C2695 C 0.73555 0.0619 0.33392 0.0
C2696 C 0.75295 0.05585 0.32692 0.0
C2697 C 0.75615 0.03601 0.32502 0.0
C2698 C 0.7419 0.02245 0.33038 0.0
C2699 C 0.72497 0.02809 0.33755 0.0
C2700 C 0.71154 0.01058 0.34144 0.0
C2701 C 0.70922 0.01058 0.36341 0.0
C2702 C 0.69155 0.00981 0.3294 0.0
C2703 C 0.72318 0.9942 0.3345 0.0
C2704 C 0.74088 0.00132 0.32865 0.0
C2705 C 0.75411 0.98888 0.32167 0.0
C2706 C 0.74902 0.96863 0.32053 0.0
C2707 C 0.73093 0.96123 0.3263 0.0
C2708 C 0.71792 0.97409 0.33343 0.0
H2709 H 0.66014 0.82956 0.97969 0.0
H2710 H 0.68973 0.80079 0.93391 0.0
H2711 H 0.70154 0.83296 0.92412 0.0
H2712 H 0.64378 0.86739 0.95225 0.0
H2713 H 0.64739 0.88594 0.97271 0.0
H2714 H 0.64206 0.86068 0.97675 0.0
H2715 H 0.6735 0.86276 0.00071 0.0
H2716 H 0.67894 0.88803 0.99674 0.0
H2717 H 0.69671 0.87089 0.9926 0.0
H2718 H 0.70915 0.86828 0.91848 0.0
H2719 H 0.71222 0.90432 0.91785 0.0
H2720 H 0.67744 0.90992 0.96693 0.0
C2721 C 0.66908 0.83001 0.96758 0.0
C2722 C 0.67405 0.81262 0.95761 0.0
C2723 C 0.68596 0.81389 0.94197 0.0
C2724 C 0.69266 0.8321 0.93622 0.0
C2725 C 0.68737 0.84892 0.94628 0.0
C2726 C 0.6759 0.84805 0.96167 0.0
C2727 C 0.67202 0.8683 0.96984 0.0
C2728 C 0.65001 0.87071 0.96776 0.0
C2729 C 0.68082 0.87275 0.99124 0.0
C2730 C 0.68289 0.88068 0.95648 0.0
C2731 C 0.69171 0.86923 0.94303 0.0
C2732 C 0.70237 0.87738 0.92899 0.0
C2733 C 0.70403 0.89777 0.9287 0.0
C2734 C 0.69506 0.90959 0.94233 0.0
C2735 C 0.68442 0.90102 0.9564 0.0
H2736 H 0.66216 0.33545 0.41692 0.0
H2737 H 0.59974 0.34036 0.41304 0.0
H2738 H 0.59923 0.33358 0.44757 0.0
H2739 H 0.66284 0.29641 0.44861 0.0
H2740 H 0.68549 0.30638 0.46247 0.0
H2741 H 0.68073 0.31108 0.43731 0.0
H2742 H 0.68664 0.34844 0.44773 0.0
H2743 H 0.69125 0.34371 0.47289 0.0
H2744 H 0.67258 0.35913 0.46594 0.0
H2745 H 0.60545 0.32657 0.48244 0.0
H2746 H 0.61809 0.31986 0.51557 0.0
H2747 H 0.67658 0.31993 0.49728 0.0
C2748 C 0.64839 0.33488 0.42333 0.0
C2749 C 0.63096 0.33836 0.41235 0.0
C2750 C 0.61324 0.33782 0.42127 0.0
C2751 C 0.61281 0.33394 0.44083 0.0
C2752 C 0.63025 0.33076 0.45132 0.0
C2753 C 0.64773 0.33123 0.44294 0.0
C2754 C 0.66446 0.32784 0.45767 0.0
C2755 C 0.67393 0.30933 0.45112 0.0
C2756 C 0.67963 0.34585 0.46126 0.0
C2757 C 0.65359 0.32512 0.47553 0.0
C2758 C 0.63388 0.32692 0.47155 0.0
C2759 C 0.62085 0.32511 0.48574 0.0
C2760 C 0.62815 0.32131 0.50452 0.0
C2761 C 0.64824 0.31939 0.50883 0.0
C2762 C 0.66112 0.32134 0.49422 0.0
H2763 H 0.98461 0.28822 0.68694 0.0
H2764 H 0.03957 0.26393 0.67888 0.0
H2765 H 0.0318 0.26185 0.64312 0.0
H2766 H 0.95642 0.25747 0.64827 0.0
H2767 H 0.9413 0.27614 0.6412 0.0
H2768 H 0.95184 0.27683 0.66611 0.0
H2769 H 0.96682 0.31173 0.66381 0.0
H2770 H 0.95784 0.31135 0.63853 0.0
H2771 H 0.98366 0.31664 0.64591 0.0
H2772 H 0.01743 0.26124 0.60794 0.0
H2773 H 0.99656 0.26056 0.57655 0.0
H2774 H 0.95102 0.28456 0.60767 0.0
C2775 C 0.99501 0.28238 0.67772 0.0
C2776 C 0.01282 0.2764 0.68588 0.0
C2777 C 0.026 0.26895 0.67311 0.0
C2778 C 0.0217 0.26767 0.65273 0.0
C2779 C 0.00413 0.27385 0.64523 0.0
C2780 C 0.99094 0.28096 0.65735 0.0
C2781 C 0.97266 0.28577 0.6456 0.0
C2782 C 0.95449 0.2733 0.65059 0.0
C2783 C 0.97013 0.30769 0.64864 0.0
C2784 C 0.97753 0.28005 0.62503 0.0
C2785 C 0.99583 0.27338 0.62506 0.0
C2786 C 0.00317 0.26663 0.60774 0.0
C2787 C 0.99133 0.26638 0.59001 0.0
C2788 C 0.97249 0.27286 0.58985 0.0
C2789 C 0.96561 0.27995 0.60749 0.0
H2790 H 0.36627 0.72406 0.09494 0.0
H2791 H 0.30988 0.70147 0.11131 0.0
H2792 H 0.29924 0.69022 0.07673 0.0
H2793 H 0.3475 0.74158 0.04935 0.0
H2794 H 0.36806 0.73502 0.03668 0.0
H2795 H 0.37117 0.74151 0.06274 0.0
H2796 H 0.38516 0.70849 0.06771 0.0
H2797 H 0.38199 0.70187 0.04169 0.0
H2798 H 0.37096 0.68599 0.05789 0.0
H2799 H 0.29499 0.68049 0.04047 0.0
H2800 H 0.29744 0.67377 0.00494 0.0
H2801 H 0.35588 0.70377 0.01194 0.0
C2802 C 0.35159 0.71698 0.09125 0.0
C2803 C 0.33897 0.71357 0.10593 0.0
C2804 C 0.31997 0.70398 0.10043 0.0
C2805 C 0.31372 0.69764 0.08079 0.0
C2806 C 0.32659 0.70108 0.06676 0.0
C2807 C 0.34509 0.71062 0.07171 0.0
C2808 C 0.35611 0.71234 0.05379 0.0
C2809 C 0.36099 0.73389 0.05045 0.0
C2810 C 0.37465 0.70153 0.05537 0.0
C2811 C 0.34098 0.70214 0.03804 0.0
C2812 C 0.32404 0.69575 0.04583 0.0
C2813 C 0.30813 0.68555 0.03421 0.0
C2814 C 0.30961 0.68182 0.0141 0.0
C2815 C 0.32675 0.68839 0.00592 0.0
C2816 C 0.34261 0.69867 0.01796 0.0
H2817 H 0.0148 0.64698 0.81636 0.0
H2818 H 0.99702 0.70125 0.79655 0.0
H2819 H 0.99899 0.71558 0.8309 0.0
H2820 H 0.98667 0.64666 0.85647 0.0
H2821 H 0.00454 0.63641 0.87217 0.0
H2822 H 0.00354 0.63117 0.84606 0.0
H2823 H 0.04009 0.64417 0.8471 0.0
H2824 H 0.04122 0.64944 0.87326 0.0
H2825 H 0.04822 0.66849 0.85827 0.0
H2826 H 0.00067 0.72313 0.8676 0.0
H2827 H 0.00201 0.72316 0.9037 0.0
H2828 H 0.01793 0.66377 0.89916 0.0
C2829 C 0.01134 0.6619 0.8192 0.0
C2830 C 0.00574 0.67298 0.80374 0.0
C2831 C 0.0016 0.69255 0.80812 0.0
C2832 C 0.0026 0.70079 0.8276 0.0
C2833 C 0.00785 0.6893 0.84248 0.0
C2834 C 0.01221 0.6703 0.83848 0.0
C2835 C 0.01657 0.66069 0.85706 0.0
C2836 C 0.00196 0.64267 0.85799 0.0
C2837 C 0.03779 0.65539 0.85903 0.0
C2838 C 0.01359 0.67712 0.87218 0.0
C2839 C 0.00873 0.69358 0.86351 0.0
C2840 C 0.00464 0.7104 0.87454 0.0
C2841 C 0.00541 0.71031 0.89494 0.0
C2842 C 0.01016 0.69351 0.9039 0.0
C2843 C 0.01443 0.67681 0.89248 0.0
H2844 H 0.56184 0.37397 0.6611 0.0
H2845 H 0.58274 0.3184 0.67339 0.0
H2846 H 0.54903 0.30506 0.6768 0.0
H2847 H 0.52401 0.37312 0.69441 0.0
H2848 H 0.50712 0.38413 0.67829 0.0
H2849 H 0.53307 0.38954 0.67765 0.0
H2850 H 0.52909 0.37876 0.64071 0.0
H2851 H 0.50321 0.37231 0.64091 0.0
H2852 H 0.51859 0.35443 0.63196 0.0
H2853 H 0.51304 0.29734 0.67806 0.0
H2854 H 0.47712 0.2965 0.67876 0.0
H2855 H 0.4794 0.35649 0.66451 0.0
C2856 C 0.55934 0.35899 0.66447 0.0
C2857 C 0.57502 0.34729 0.66707 0.0
C2858 C 0.57108 0.32781 0.67171 0.0
C2859 C 0.55194 0.32002 0.67352 0.0
C2860 C 0.53683 0.33182 0.67052 0.0
C2861 C 0.5403 0.35093 0.66626 0.0
C2862 C 0.52142 0.36051 0.66384 0.0
C2863 C 0.52141 0.37785 0.67948 0.0
C2864 C 0.51785 0.36688 0.64313 0.0
C2865 C 0.50678 0.34371 0.66717 0.0
C2866 C 0.51601 0.32731 0.67104 0.0
C2867 C 0.50564 0.31007 0.67504 0.0
C2868 C 0.48532 0.3097 0.67538 0.0
C2869 C 0.47571 0.3264 0.67172 0.0
C2870 C 0.48649 0.34354 0.66737 0.0
H2871 H 0.91135 0.6269 0.26118 0.0
H2872 H 0.9013 0.68743 0.27582 0.0
H2873 H 0.93689 0.69611 0.28289 0.0
H2874 H 0.95181 0.62537 0.29765 0.0
H2875 H 0.96487 0.61002 0.28195 0.0
H2876 H 0.93856 0.60846 0.27856 0.0
H2877 H 0.93999 0.61532 0.24235 0.0
H2878 H 0.96629 0.61686 0.24562 0.0
H2879 H 0.95426 0.63691 0.23669 0.0
H2880 H 0.97365 0.69833 0.28784 0.0
H2881 H 0.009 0.69372 0.29003 0.0
H2882 H 0.99497 0.63203 0.27154 0.0
C2883 C 0.91661 0.64201 0.26575 0.0
C2884 C 0.9035 0.65647 0.26798 0.0
C2885 C 0.91102 0.67604 0.27427 0.0
C2886 C 0.93122 0.68113 0.27822 0.0
C2887 C 0.94371 0.66651 0.27583 0.0
C2888 C 0.9367 0.64735 0.26974 0.0
C2889 C 0.95323 0.63446 0.26808 0.0
C2890 C 0.95204 0.61865 0.28242 0.0
C2891 C 0.95345 0.62536 0.24693 0.0
C2892 C 0.97064 0.64939 0.27406 0.0
C2893 C 0.96484 0.6678 0.27855 0.0
C2894 C 0.97835 0.68399 0.28437 0.0
C2895 C 0.99832 0.68128 0.28556 0.0
C2896 C 0.00439 0.66259 0.2809 0.0
C2897 C 0.99049 0.64646 0.27515 0.0
H2898 H 0.18713 0.03023 0.35473 0.0
H2899 H 0.20045 0.00619 0.29765 0.0
H2900 H 0.16693 0.01019 0.28396 0.0
H2901 H 0.13797 0.00686 0.35138 0.0
H2902 H 0.12852 0.02738 0.3641 0.0
H2903 H 0.15372 0.02304 0.36929 0.0
H2904 H 0.16465 0.05812 0.36135 0.0
H2905 H 0.13948 0.06254 0.35606 0.0
H2906 H 0.15647 0.06588 0.33797 0.0
H2907 H 0.1319 0.01652 0.27648 0.0
H2908 H 0.0975 0.02431 0.276 0.0
H2909 H 0.10669 0.04343 0.33796 0.0
C2910 C 0.18298 0.02564 0.33938 0.0
C2911 C 0.19651 0.01796 0.32726 0.0
C2912 C 0.1905 0.0124 0.30718 0.0
C2913 C 0.17144 0.01452 0.29929 0.0
C2914 C 0.15853 0.02217 0.31165 0.0
C2915 C 0.16401 0.02759 0.33127 0.0
C2916 C 0.14724 0.03524 0.34143 0.0
C2917 C 0.14153 0.02236 0.3575 0.0
C2918 C 0.15227 0.05672 0.34968 0.0
C2919 C 0.13145 0.03322 0.32445 0.0
C2920 C 0.1383 0.0257 0.30738 0.0
C2921 C 0.12639 0.02243 0.28974 0.0
C2922 C 0.10695 0.0269 0.28958 0.0
C2923 C 0.09973 0.03447 0.30691 0.0
C2924 C 0.11206 0.03772 0.32453 0.0
H2925 H 0.30609 0.03553 0.69914 0.0
H2926 H 0.305 0.0984 0.70884 0.0
H2927 H 0.33641 0.10312 0.69436 0.0
H2928 H 0.35703 0.03445 0.71127 0.0
H2929 H 0.35942 0.01495 0.6927 0.0
H2930 H 0.33654 0.01663 0.70308 0.0
H2931 H 0.3183 0.01754 0.66836 0.0
H2932 H 0.34124 0.01493 0.65828 0.0
H2933 H 0.32756 0.03507 0.65273 0.0
H2934 H 0.36848 0.10077 0.67937 0.0
H2935 H 0.39863 0.09141 0.6653 0.0
H2936 H 0.37844 0.03024 0.66588 0.0
C2937 C 0.31251 0.05031 0.69844 0.0
C2938 C 0.30306 0.0666 0.70516 0.0
C2939 C 0.31189 0.08569 0.70368 0.0
C2940 C 0.32973 0.08852 0.69549 0.0
C2941 C 0.33855 0.0721 0.68889 0.0
C2942 C 0.3302 0.05337 0.69027 0.0
C2943 C 0.34265 0.03814 0.68234 0.0
C2944 C 0.34931 0.02529 0.69831 0.0
C2945 C 0.33177 0.02568 0.66437 0.0
C2946 C 0.35959 0.05119 0.67667 0.0
C2947 C 0.3569 0.07075 0.68038 0.0
C2948 C 0.37073 0.08552 0.67639 0.0
C2949 C 0.38775 0.08012 0.66847 0.0
C2950 C 0.39066 0.0602 0.6647 0.0
C2951 C 0.37644 0.04559 0.66876 0.0
H2952 H 0.65312 0.56787 0.38251 0.0
H2953 H 0.70157 0.60254 0.36223 0.0
H2954 H 0.72012 0.57365 0.36033 0.0
H2955 H 0.68154 0.53831 0.41175 0.0
H2956 H 0.66538 0.51625 0.40515 0.0
H2957 H 0.65585 0.53971 0.40522 0.0
H2958 H 0.64151 0.53134 0.3691 0.0
H2959 H 0.65086 0.50779 0.36895 0.0
H2960 H 0.65737 0.524 0.35097 0.0
H2961 H 0.73355 0.54128 0.36075 0.0
H2962 H 0.7404 0.50679 0.36213 0.0
H2963 H 0.68309 0.49273 0.38114 0.0
C2964 C 0.66757 0.56936 0.37752 0.0
C2965 C 0.67598 0.58756 0.37276 0.0
C2966 C 0.69499 0.58888 0.3664 0.0
C2967 C 0.7056 0.57252 0.36515 0.0
C2968 C 0.69697 0.55489 0.37016 0.0
C2969 C 0.67834 0.55313 0.37608 0.0
C2970 C 0.67238 0.53238 0.38034 0.0
C2971 C 0.66856 0.53163 0.4019 0.0
C2972 C 0.65447 0.52335 0.36651 0.0
C2973 C 0.69061 0.52277 0.37593 0.0
C2974 C 0.70463 0.53608 0.37015 0.0
C2975 C 0.72271 0.53073 0.36526 0.0
C2976 C 0.7265 0.51121 0.36613 0.0
C2977 C 0.71228 0.49742 0.37182 0.0
C2978 C 0.69417 0.5032 0.37686 0.0
H2979 H 0.68631 0.32051 0.99358 0.0
H2980 H 0.73306 0.32799 0.04085 0.0
H2981 H 0.72934 0.36325 0.04525 0.0
H2982 H 0.70004 0.36445 0.97261 0.0
H2983 H 0.6752 0.36927 0.96591 0.0
H2984 H 0.68105 0.34455 0.96748 0.0
H2985 H 0.65486 0.33997 0.99241 0.0
H2986 H 0.64938 0.36481 0.9906 0.0
H2987 H 0.65649 0.35678 0.01413 0.0
H2988 H 0.72198 0.39808 0.04316 0.0
H2989 H 0.71104 0.42979 0.03491 0.0
H2990 H 0.66939 0.39975 0.98883 0.0
C2991 C 0.69572 0.32953 0.00487 0.0
C2992 C 0.70987 0.32138 0.01692 0.0
C2993 C 0.72184 0.33375 0.03165 0.0
C2994 C 0.71993 0.35385 0.0342 0.0
C2995 C 0.70596 0.36139 0.02193 0.0
C2996 C 0.69402 0.34961 0.00758 0.0
C2997 C 0.68062 0.36146 0.99589 0.0
C2998 C 0.68446 0.35983 0.9742 0.0
C2999 C 0.65907 0.35539 0.9984 0.0
C3000 C 0.6871 0.38179 0.0057 0.0
C3001 C 0.70168 0.38144 0.02075 0.0
C3002 C 0.71045 0.39853 0.03153 0.0
C3003 C 0.70418 0.41645 0.02676 0.0
C3004 C 0.68935 0.41702 0.01137 0.0
C3005 C 0.68067 0.39954 0.00078 0.0
H3006 H 0.26072 0.91342 0.63049 0.0
H3007 H 0.26796 0.90201 0.69147 0.0
H3008 H 0.27184 0.93749 0.7014 0.0
H3009 H 0.29555 0.95632 0.63482 0.0
H3010 H 0.28113 0.96885 0.61776 0.0
H3011 H 0.27942 0.94254 0.61541 0.0
H3012 H 0.24192 0.94126 0.61686 0.0
H3013 H 0.24356 0.96757 0.61923 0.0
H3014 H 0.23243 0.95414 0.63728 0.0
H3015 H 0.27428 0.97418 0.70481 0.0
H3016 H 0.27541 0.00967 0.70121 0.0
H3017 H 0.26624 0.99723 0.63821 0.0
C3018 C 0.26304 0.91837 0.64593 0.0
C3019 C 0.2641 0.90491 0.6602 0.0
C3020 C 0.26739 0.91203 0.68026 0.0
C3021 C 0.26949 0.93215 0.68606 0.0
C3022 C 0.26832 0.945 0.67163 0.0
C3023 C 0.26522 0.93842 0.65198 0.0
C3024 C 0.26444 0.95532 0.63942 0.0
C3025 C 0.28113 0.95578 0.62607 0.0
C3026 C 0.24439 0.95452 0.6275 0.0
C3027 C 0.26741 0.97242 0.6551 0.0
C3028 C 0.26967 0.96615 0.67359 0.0
C3029 C 0.27254 0.97926 0.69042 0.0
C3030 C 0.27315 0.99932 0.68827 0.0
C3031 C 0.27086 0.0059 0.66949 0.0
C3032 C 0.26798 0.99238 0.65272 0.0
H3033 H 0.33165 0.19938 0.00425 0.0
H3034 H 0.28951 0.23055 0.0345 0.0
H3035 H 0.27334 0.19916 0.04215 0.0
H3036 H 0.29827 0.15634 0.98447 0.0
H3037 H 0.31672 0.13978 0.98823 0.0
H3038 H 0.32366 0.16454 0.98335 0.0
H3039 H 0.34726 0.16963 0.01521 0.0
H3040 H 0.34039 0.14494 0.02019 0.0
H3041 H 0.33795 0.16499 0.03813 0.0
H3042 H 0.2635 0.16458 0.04895 0.0
H3043 H 0.26084 0.12936 0.05417 0.0
H3044 H 0.30968 0.12105 0.02007 0.0
C3045 C 0.31895 0.19963 0.01238 0.0
C3046 C 0.31182 0.21746 0.01871 0.0
C3047 C 0.29506 0.21709 0.0292 0.0
C3048 C 0.28582 0.19933 0.03369 0.0
C3049 C 0.29346 0.18206 0.02752 0.0
C3050 C 0.30959 0.18207 0.01701 0.0
C3051 C 0.31559 0.16164 0.01302 0.0
C3052 C 0.31343 0.1552 0.99095 0.0
C3053 C 0.33654 0.16023 0.02219 0.0
C3054 C 0.30063 0.15019 0.02337 0.0
C3055 C 0.28784 0.16219 0.03148 0.0
C3056 C 0.27327 0.15501 0.04248 0.0
C3057 C 0.27186 0.13509 0.04539 0.0
C3058 C 0.28498 0.12278 0.03737 0.0
C3059 C 0.29938 0.13031 0.02612 0.0
H3060 H 0.36577 0.66312 0.59771 0.0
H3061 H 0.35701 0.59967 0.58831 0.0
H3062 H 0.35284 0.60157 0.55294 0.0
H3063 H 0.32813 0.67075 0.56082 0.0
H3064 H 0.34102 0.69224 0.55325 0.0
H3065 H 0.34524 0.68627 0.57806 0.0
H3066 H 0.3823 0.68655 0.57487 0.0
H3067 H 0.37843 0.69277 0.5501 0.0
H3068 H 0.39067 0.67152 0.55519 0.0
H3069 H 0.3489 0.61004 0.51846 0.0
H3070 H 0.34343 0.62494 0.48727 0.0
H3071 H 0.35279 0.68262 0.51871 0.0
C3072 C 0.36277 0.64954 0.58837 0.0
C3073 C 0.3619 0.6312 0.59617 0.0
C3074 C 0.35821 0.61394 0.58303 0.0
C3075 C 0.35562 0.61482 0.56278 0.0
C3076 C 0.35638 0.63308 0.55571 0.0
C3077 C 0.3597 0.65014 0.56808 0.0
C3078 C 0.35895 0.66791 0.5567 0.0
C3079 C 0.34234 0.68 0.56255 0.0
C3080 C 0.37877 0.68042 0.55938 0.0
C3081 C 0.35464 0.65812 0.536 0.0
C3082 C 0.3534 0.638 0.53579 0.0
C3083 C 0.34961 0.62574 0.51843 0.0
C3084 C 0.34666 0.63425 0.50084 0.0
C3085 C 0.34776 0.65474 0.5008 0.0
C3086 C 0.35187 0.66686 0.51852 0.0
H3087 H 0.04268 0.68169 0.31623 0.0
H3088 H 0.0555 0.74335 0.33571 0.0
H3089 H 0.05356 0.736 0.36991 0.0
H3090 H 0.0078 0.67138 0.34844 0.0
H3091 H 0.01491 0.6475 0.35275 0.0
H3092 H 0.01905 0.65733 0.33 0.0
H3093 H 0.05582 0.65268 0.33554 0.0
H3094 H 0.05188 0.64263 0.35824 0.0
H3095 H 0.06982 0.66323 0.3579 0.0
H3096 H 0.04816 0.72231 0.40154 0.0
H3097 H 0.03987 0.703 0.42876 0.0
H3098 H 0.03075 0.6502 0.38876 0.0
C3099 C 0.04548 0.69358 0.32767 0.0
C3100 C 0.04921 0.71307 0.32327 0.0
C3101 C 0.05241 0.72831 0.33872 0.0
C3102 C 0.05147 0.72427 0.35818 0.0
C3103 C 0.04739 0.70491 0.36194 0.0
C3104 C 0.04455 0.68979 0.34714 0.0
C3105 C 0.0394 0.67037 0.35499 0.0
C3106 C 0.01908 0.66111 0.34601 0.0
C3107 C 0.05517 0.65641 0.35146 0.0
C3108 C 0.03942 0.67701 0.37653 0.0
C3109 C 0.04423 0.69698 0.38022 0.0
C3110 C 0.04459 0.70666 0.39889 0.0
C3111 C 0.03987 0.69563 0.41422 0.0
C3112 C 0.0349 0.67527 0.41068 0.0
C3113 C 0.03472 0.6658 0.3917 0.0
H3114 H 0.64595 0.27734 0.91778 0.0
H3115 H 0.66729 0.22004 0.91581 0.0
H3116 H 0.67211 0.22298 0.95195 0.0
H3117 H 0.6788 0.30038 0.95778 0.0
H3118 H 0.66038 0.31433 0.96758 0.0
H3119 H 0.65874 0.30686 0.94185 0.0
H3120 H 0.62363 0.29076 0.94453 0.0
H3121 H 0.62611 0.29772 0.97051 0.0
H3122 H 0.62012 0.27243 0.96129 0.0
H3123 H 0.67531 0.23251 0.98827 0.0
H3124 H 0.6773 0.24837 0.02219 0.0
H3125 H 0.65426 0.29953 1.0005 0.0
C3126 C 0.65167 0.26543 0.92497 0.0
C3127 C 0.65626 0.24846 0.91401 0.0
C3128 C 0.66349 0.23309 0.92394 0.0
C3129 C 0.66632 0.23465 0.94444 0.0
C3130 C 0.66169 0.25161 0.9548 0.0
C3131 C 0.65444 0.26669 0.94541 0.0
C3132 C 0.65076 0.28341 0.95994 0.0
C3133 C 0.66294 0.30235 0.95659 0.0
C3134 C 0.62885 0.28624 0.95901 0.0
C3135 C 0.65773 0.2757 0.97896 0.0
C3136 C 0.66369 0.25717 0.97569 0.0
C3137 C 0.67062 0.24696 0.99101 0.0
C3138 C 0.6717 0.25603 0.01016 0.0
C3139 C 0.66599 0.27505 0.01369 0.0
C3140 C 0.65876 0.28495 0.998 0.0
H3141 H 0.04753 0.30914 0.22087 0.0
H3142 H 0.99698 0.34208 0.21483 0.0
H3143 H 0.99587 0.33639 0.17893 0.0
H3144 H 0.07042 0.32641 0.18059 0.0
H3145 H 0.07915 0.30341 0.17283 0.0
H3146 H 0.07561 0.30927 0.19816 0.0
H3147 H 0.05261 0.27737 0.19752 0.0
H3148 H 0.05618 0.27135 0.17221 0.0
H3149 H 0.03181 0.2726 0.1794 0.0
H3150 H 0.00072 0.32824 0.14383 0.0
H3151 H 0.01105 0.3174 0.11147 0.0
H3152 H 0.05823 0.28948 0.13977 0.0
C3153 C 0.03607 0.31491 0.21198 0.0
C3154 C 0.02239 0.32614 0.22067 0.0
C3155 C 0.00777 0.33366 0.20851 0.0
C3156 C 0.00696 0.33043 0.1881 0.0
C3157 C 0.02083 0.3196 0.18 0.0
C3158 C 0.03507 0.31186 0.19151 0.0
C3159 C 0.04848 0.30113 0.17898 0.0
C3160 C 0.06967 0.31063 0.18288 0.0
C3161 C 0.04719 0.27932 0.18222 0.0
C3162 C 0.03961 0.30418 0.15867 0.0
C3163 C 0.02364 0.31485 0.15964 0.0
C3164 C 0.01315 0.31981 0.14287 0.0
C3165 C 0.0191 0.31364 0.12461 0.0
C3166 C 0.03533 0.30269 0.12333 0.0
C3167 C 0.04573 0.29787 0.14051 0.0
loop_
_geom_bond_atom_site_label_1
_geom_bond_atom_site_label_2
_geom_bond_distance
_geom_bond_site_symmetry_2
_ccdc_geom_bond_type
C0 C1 1.264 . S
C0 C5 1.479 . S
C0 C10 1.465 . S
C1 C0 1.264 . S
C1 C3 1.339 . S
C1 H28 0.931 . S
C2 C3 1.395 . S
C2 C4 1.320 . S
C3 C1 1.339 . S
C3 C2 1.395 . S
C3 H29 0.929 . S
C4 C2 1.320 . S
C4 C5 1.405 . S
C4 H30 0.930 . S
C5 C0 1.479 . S
C5 C4 1.405 . S
C5 H31 0.931 . S
U6 O7 2.454 . S
U6 O8 2.458 . S
U6 C9 2.984 . S
U6 C10 2.847 . S
U6 C23 2.882 . S
U6 O24 2.441 . S
U6 O25 2.420 . S
U6 O26 2.455 . S
U6 O27 2.449 . S
O7 U6 2.454 . S
O7 C9 1.353 . S
O8 U6 2.458 . S
O8 C9 1.286 . S
C9 U6 2.984 . S
C9 O7 1.353 . S
C9 O8 1.286 . S
C9 C11 1.363 . S
C10 C0 1.465 . S
C10 U6 2.847 . S
C10 O24 1.249 . S
C10 O25 1.202 . S
C11 C9 1.363 . S
C11 C13 1.408 . S
C11 C16 1.342 . S
C12 C13 1.310 . S
C12 C15 1.461 . S
C12 H32 0.932 . S
C13 C11 1.408 . S
C13 C12 1.310 . S
C13 H33 0.930 . S
C14 C15 1.474 . S
C14 C16 1.285 . S
C14 H34 0.929 . S
C15 C12 1.461 . S
C15 C14 1.474 . S
C16 C11 1.342 . S
C16 C14 1.285 . S
C16 H35 0.930 . S
C17 C20 1.424 . S
C17 C22 1.245 . S
C17 C23 1.428 . S
C18 C21 1.260 . S
C18 C22 1.477 . S
C18 H36 0.932 . S
C19 C20 1.384 . S
C19 C21 1.479 . S
C19 H37 0.929 . S
C20 C17 1.424 . S
C20 C19 1.384 . S
C20 H38 0.928 . S
C21 C18 1.260 . S
C21 C19 1.479 . S
C22 C17 1.245 . S
C22 C18 1.477 . S
C22 H39 0.932 . S
C23 U6 2.882 . S
C23 C17 1.428 . S
C23 O26 1.301 . S
C23 O27 1.282 . S
O24 U6 2.441 . S
O24 C10 1.249 . S
O25 U6 2.420 . S
O25 C10 1.202 . S
O26 U6 2.455 . S
O26 C23 1.301 . S
O27 U6 2.449 . S
O27 C23 1.282 . S
H28 C1 0.931 . S
H29 C3 0.929 . S
H30 C4 0.930 . S
H31 C5 0.931 . S
H32 C12 0.932 . S
H33 C13 0.930 . S
H34 C14 0.929 . S
H35 C16 0.930 . S
H36 C18 0.932 . S
H37 C19 0.929 . S
H38 C20 0.928 . S
H39 C22 0.932 . S
C40 C41 1.264 . S
C40 C45 1.479 . S
C40 C50 1.465 . S
C41 C40 1.264 . S
C41 C43 1.339 . S
C41 H68 0.931 . S
C42 C43 1.395 . S
C42 C44 1.320 . S
C43 C41 1.339 . S
C43 C42 1.395 . S
C43 H69 0.929 . S
C44 C42 1.320 . S
C44 C45 1.405 . S
C44 H70 0.930 . S
C45 C40 1.479 . S
C45 C44 1.405 . S
C45 H71 0.931 . S
U46 O47 2.454 . S
U46 O48 2.458 . S
U46 C49 2.984 . S
U46 C50 2.847 . S
U46 C63 2.882 . S
U46 O64 2.441 . S
U46 O65 2.420 . S
U46 O66 2.455 . S
U46 O67 2.449 . S
O47 U46 2.454 . S
O47 C49 1.353 . S
O48 U46 2.458 . S
O48 C49 1.286 . S
C49 U46 2.984 . S
C49 O47 1.353 . S
C49 O48 1.286 . S
C49 C51 1.363 . S
C50 C40 1.465 . S
C50 U46 2.847 . S
C50 O64 1.249 . S
C50 O65 1.202 . S
C51 C49 1.363 . S
C51 C53 1.408 . S
C51 C56 1.342 . S
C52 C53 1.310 . S
C52 C55 1.461 . S
C52 H72 0.932 . S
C53 C51 1.408 . S
C53 C52 1.310 . S
C53 H73 0.930 . S
C54 C55 1.474 . S
C54 C56 1.285 . S
C54 H74 0.929 . S
C55 C52 1.461 . S
C55 C54 1.474 . S
C56 C51 1.342 . S
C56 C54 1.285 . S
C56 H75 0.930 . S
C57 C60 1.424 . S
C57 C62 1.245 . S
C57 C63 1.428 . S
C58 C61 1.260 . S
C58 C62 1.477 . S
C58 H76 0.932 . S
C59 C60 1.384 . S
C59 C61 1.479 . S
C59 H77 0.929 . S
C60 C57 1.424 . S
C60 C59 1.384 . S
C60 H78 0.928 . S
C61 C58 1.260 . S
C61 C59 1.479 . S
C62 C57 1.245 . S
C62 C58 1.477 . S
C62 H79 0.932 . S
C63 U46 2.882 . S
C63 C57 1.428 . S
C63 O66 1.301 . S
C63 O67 1.282 . S
O64 U46 2.441 . S
O64 C50 1.249 . S
O65 U46 2.420 . S
O65 C50 1.202 . S
O66 U46 2.455 . S
O66 C63 1.301 . S
O67 U46 2.449 . S
O67 C63 1.282 . S
H68 C41 0.931 . S
H69 C43 0.929 . S
H70 C44 0.930 . S
H71 C45 0.931 . S
H72 C52 0.932 . S
H73 C53 0.930 . S
H74 C54 0.929 . S
H75 C56 0.930 . S
H76 C58 0.932 . S
H77 C59 0.929 . S
H78 C60 0.928 . S
H79 C62 0.932 . S
C80 C81 1.264 . S
C80 C85 1.479 . S
C80 C90 1.465 . S
C81 C80 1.264 . S
C81 C83 1.339 . S
C81 H108 0.931 . S
C82 C83 1.395 . S
C82 C84 1.320 . S
C83 C81 1.339 . S
C83 C82 1.395 . S
C83 H109 0.929 . S
C84 C82 1.320 . S
C84 C85 1.405 . S
C84 H110 0.925 1_565 S
C85 C80 1.479 . S
C85 C84 1.405 . S
C85 H111 0.931 . S
U86 O87 2.454 . S
U86 O88 2.458 . S
U86 C89 2.984 . S
U86 C90 2.847 . S
U86 C103 2.882 . S
U86 O104 2.441 . S
U86 O105 2.420 . S
U86 O106 2.455 . S
U86 O107 2.449 . S
O87 U86 2.454 . S
O87 C89 1.353 . S
O88 U86 2.458 . S
O88 C89 1.286 . S
C89 U86 2.984 . S
C89 O87 1.353 . S
C89 O88 1.286 . S
C89 C91 1.363 . S
C90 C80 1.465 . S
C90 U86 2.847 . S
C90 O104 1.249 . S
C90 O105 1.202 . S
C91 C89 1.363 . S
C91 C93 1.408 . S
C91 C96 1.342 . S
C92 C93 1.310 . S
C92 C95 1.461 . S
C92 H112 0.932 . S
C93 C91 1.408 . S
C93 C92 1.310 . S
C93 H113 0.930 . S
C94 C95 1.473 1_545 S
C94 C96 1.284 1_545 S
C94 H114 0.932 . S
C95 C92 1.461 . S
C95 C94 1.473 1_565 S
C96 C91 1.342 . S
C96 C94 1.284 1_565 S
C96 H115 0.935 . S
C97 C100 1.424 . S
C97 C102 1.245 . S
C97 C103 1.428 . S
C98 C101 1.260 . S
C98 C102 1.477 . S
C98 H116 0.932 . S
C99 C100 1.384 . S
C99 C101 1.479 . S
C99 H117 0.929 . S
C100 C97 1.424 . S
C100 C99 1.384 . S
C100 H118 0.928 . S
C101 C98 1.260 . S
C101 C99 1.479 . S
C102 C97 1.245 . S
C102 C98 1.477 . S
C102 H119 0.932 . S
C103 U86 2.882 . S
C103 C97 1.428 . S
C103 O106 1.301 . S
C103 O107 1.282 . S
O104 U86 2.441 . S
O104 C90 1.249 . S
O105 U86 2.420 . S
O105 C90 1.202 . S
O106 U86 2.455 . S
O106 C103 1.301 . S
O107 U86 2.449 . S
O107 C103 1.282 . S
H108 C81 0.931 . S
H109 C83 0.929 . S
H110 C84 0.925 1_545 S
H111 C85 0.931 . S
H112 C92 0.932 . S
H113 C93 0.930 . S
H114 C94 0.932 . S
H115 C96 0.935 . S
H116 C98 0.932 . S
H117 C99 0.929 . S
H118 C100 0.928 . S
H119 C102 0.932 . S
C120 C121 1.264 . S
C120 C125 1.479 . S
C120 C130 1.465 . S
C121 C120 1.264 . S
C121 C123 1.339 . S
C121 H148 0.931 . S
C122 C123 1.395 . S
C122 C124 1.320 . S
C123 C121 1.339 . S
C123 C122 1.395 . S
C123 H149 0.929 . S
C124 C122 1.320 . S
C124 C125 1.405 . S
C124 H150 0.930 . S
C125 C120 1.479 . S
C125 C124 1.405 . S
C125 H151 0.931 . S
U126 O127 2.454 . S
U126 O128 2.458 . S
U126 C129 2.984 . S
U126 C130 2.847 . S
U126 C143 2.882 . S
U126 O144 2.441 . S
U126 O145 2.420 . S
U126 O146 2.455 . S
U126 O147 2.449 . S
O127 U126 2.454 . S
O127 C129 1.353 . S
O128 U126 2.458 . S
O128 C129 1.286 . S
C129 U126 2.984 . S
C129 O127 1.353 . S
C129 O128 1.286 . S
C129 C131 1.363 . S
C130 C120 1.465 . S
C130 U126 2.847 . S
C130 O144 1.249 . S
C130 O145 1.202 . S
C131 C129 1.363 . S
C131 C133 1.408 . S
C131 C136 1.342 . S
C132 C133 1.310 . S
C132 C135 1.461 . S
C132 H152 0.932 . S
C133 C131 1.408 . S
C133 C132 1.310 . S
C133 H153 0.930 . S
C134 C135 1.474 . S
C134 C136 1.285 . S
C134 H154 0.929 . S
C135 C132 1.461 . S
C135 C134 1.474 . S
C136 C131 1.342 . S
C136 C134 1.285 . S
C136 H155 0.930 . S
C137 C140 1.424 . S
C137 C142 1.245 . S
C137 C143 1.428 1_565 S
C138 C141 1.260 . S
C138 C142 1.477 . S
C138 H156 0.932 . S
C139 C140 1.384 . S
C139 C141 1.479 . S
C139 H157 0.929 . S
C140 C137 1.424 . S
C140 C139 1.384 . S
C140 H158 0.928 . S
C141 C138 1.260 . S
C141 C139 1.479 . S
C142 C137 1.245 . S
C142 C138 1.477 . S
C142 H159 0.932 . S
C143 U126 2.882 . S
C143 C137 1.428 1_545 S
C143 O146 1.301 . S
C143 O147 1.282 . S
O144 U126 2.441 . S
O144 C130 1.249 . S
O145 U126 2.420 . S
O145 C130 1.202 . S
O146 U126 2.455 . S
O146 C143 1.301 . S
O147 U126 2.449 . S
O147 C143 1.282 . S
H148 C121 0.931 . S
H149 C123 0.929 . S
H150 C124 0.930 . S
H151 C125 0.931 . S
H152 C132 0.932 . S
H153 C133 0.930 . S
H154 C134 0.929 . S
H155 C136 0.930 . S
H156 C138 0.932 . S
H157 C139 0.929 . S
H158 C140 0.928 . S
H159 C142 0.932 . S
C160 C161 1.264 . S
C160 C165 1.479 . S
C160 C170 1.465 . S
C161 C160 1.264 . S
C161 C163 1.339 . S
C161 H188 0.931 . S
C162 C163 1.395 . S
C162 C164 1.320 . S
C163 C161 1.339 . S
C163 C162 1.395 . S
C163 H189 0.929 . S
C164 C162 1.320 . S
C164 C165 1.405 . S
C164 H190 0.930 . S
C165 C160 1.479 . S
C165 C164 1.405 . S
C165 H191 0.931 . S
U166 O167 2.454 . S
U166 O168 2.458 . S
U166 C169 2.984 . S
U166 C170 2.847 . S
U166 C183 2.882 . S
U166 O184 2.441 . S
U166 O185 2.420 . S
U166 O186 2.455 . S
U166 O187 2.449 . S
O167 U166 2.454 . S
O167 C169 1.353 . S
O168 U166 2.458 . S
O168 C169 1.286 . S
C169 U166 2.984 . S
C169 O167 1.353 . S
C169 O168 1.286 . S
C169 C171 1.363 . S
C170 C160 1.465 . S
C170 U166 2.847 . S
C170 O184 1.249 . S
C170 O185 1.202 . S
C171 C169 1.363 . S
C171 C173 1.408 . S
C171 C176 1.342 . S
C172 C173 1.310 . S
C172 C175 1.461 . S
C172 H192 0.932 . S
C173 C171 1.408 . S
C173 C172 1.310 . S
C173 H193 0.930 . S
C174 C175 1.474 . S
C174 C176 1.285 . S
C174 H194 0.929 . S
C175 C172 1.461 . S
C175 C174 1.474 . S
C176 C171 1.342 . S
C176 C174 1.285 . S
C176 H195 0.930 . S
C177 C180 1.424 . S
C177 C182 1.245 . S
C177 C183 1.428 . S
C178 C181 1.260 . S
C178 C182 1.477 . S
C178 H196 0.932 . S
C179 C180 1.384 . S
C179 C181 1.479 . S
C179 H197 0.929 . S
C180 C177 1.424 . S
C180 C179 1.384 . S
C180 H198 0.928 . S
C181 C178 1.260 . S
C181 C179 1.479 . S
C182 C177 1.245 . S
C182 C178 1.477 . S
C182 H199 0.932 . S
C183 U166 2.882 . S
C183 C177 1.428 . S
C183 O186 1.301 . S
C183 O187 1.282 . S
O184 U166 2.441 . S
O184 C170 1.249 . S
O185 U166 2.420 . S
O185 C170 1.202 . S
O186 U166 2.455 . S
O186 C183 1.301 . S
O187 U166 2.449 . S
O187 C183 1.282 . S
H188 C161 0.931 . S
H189 C163 0.929 . S
H190 C164 0.930 . S
H191 C165 0.931 . S
H192 C172 0.932 . S
H193 C173 0.930 . S
H194 C174 0.929 . S
H195 C176 0.930 . S
H196 C178 0.932 . S
H197 C179 0.929 . S
H198 C180 0.928 . S
H199 C182 0.932 . S
C200 C201 1.264 . S
C200 C205 1.479 . S
C200 C210 1.465 . S
C201 C200 1.264 . S
C201 C203 1.339 . S
C201 H228 0.931 . S
C202 C203 1.395 . S
C202 C204 1.320 . S
C203 C201 1.339 . S
C203 C202 1.395 . S
C203 H229 0.929 . S
C204 C202 1.320 . S
C204 C205 1.405 . S
C204 H230 0.930 . S
C205 C200 1.479 . S
C205 C204 1.405 . S
C205 H231 0.931 . S
U206 O207 2.454 . S
U206 O208 2.458 . S
U206 C209 2.984 . S
U206 C210 2.847 . S
U206 C223 2.882 . S
U206 O224 2.441 . S
U206 O225 2.420 . S
U206 O226 2.455 . S
U206 O227 2.449 . S
O207 U206 2.454 . S
O207 C209 1.353 . S
O208 U206 2.458 . S
O208 C209 1.286 . S
C209 U206 2.984 . S
C209 O207 1.353 . S
C209 O208 1.286 . S
C209 C211 1.363 . S
C210 C200 1.465 . S
C210 U206 2.847 . S
C210 O224 1.249 . S
C210 O225 1.202 . S
C211 C209 1.363 . S
C211 C213 1.408 . S
C211 C216 1.342 . S
C212 C213 1.310 . S
C212 C215 1.461 . S
C212 H232 0.932 . S
C213 C211 1.408 . S
C213 C212 1.310 . S
C213 H233 0.930 . S
C214 C215 1.474 . S
C214 C216 1.285 . S
C214 H234 0.929 . S
C215 C212 1.461 . S
C215 C214 1.474 . S
C216 C211 1.342 . S
C216 C214 1.285 . S
C216 H235 0.930 . S
C217 C220 1.424 . S
C217 C222 1.245 . S
C217 C223 1.428 1_556 S
C218 C221 1.260 . S
C218 C222 1.477 . S
C218 H236 0.932 . S
C219 C220 1.384 . S
C219 C221 1.479 . S
C219 H237 0.929 . S
C220 C217 1.424 . S
C220 C219 1.384 . S
C220 H238 0.928 . S
C221 C218 1.260 . S
C221 C219 1.479 . S
C222 C217 1.245 . S
C222 C218 1.477 . S
C222 H239 0.932 . S
C223 U206 2.882 . S
C223 C217 1.428 1_554 S
C223 O226 1.301 . S
C223 O227 1.282 . S
O224 U206 2.441 . S
O224 C210 1.249 . S
O225 U206 2.420 . S
O225 C210 1.202 . S
O226 U206 2.455 . S
O226 C223 1.301 . S
O227 U206 2.449 . S
O227 C223 1.282 . S
H228 C201 0.931 . S
H229 C203 0.929 . S
H230 C204 0.930 . S
H231 C205 0.931 . S
H232 C212 0.932 . S
H233 C213 0.930 . S
H234 C214 0.929 . S
H235 C216 0.930 . S
H236 C218 0.932 . S
H237 C219 0.929 . S
H238 C220 0.928 . S
H239 C222 0.932 . S
C240 C241 1.264 . S
C240 C245 1.479 . S
C240 C250 1.465 . S
C241 C240 1.264 . S
C241 C243 1.339 . S
C241 H268 0.931 . S
C242 C243 1.395 . S
C242 C244 1.320 . S
C243 C241 1.339 . S
C243 C242 1.395 . S
C243 H269 0.929 . S
C244 C242 1.320 . S
C244 C245 1.405 . S
C244 H270 0.930 . S
C245 C240 1.479 . S
C245 C244 1.405 . S
C245 H271 0.931 . S
U246 O247 2.454 . S
U246 O248 2.458 . S
U246 C249 2.984 . S
U246 C250 2.847 . S
U246 C263 2.882 . S
U246 O264 2.441 . S
U246 O265 2.420 . S
U246 O266 2.455 . S
U246 O267 2.449 . S
O247 U246 2.454 . S
O247 C249 1.353 . S
O248 U246 2.458 . S
O248 C249 1.286 . S
C249 U246 2.984 . S
C249 O247 1.353 . S
C249 O248 1.286 . S
C249 C251 1.363 . S
C250 C240 1.465 . S
C250 U246 2.847 . S
C250 O264 1.249 . S
C250 O265 1.202 . S
C251 C249 1.363 . S
C251 C253 1.408 . S
C251 C256 1.342 . S
C252 C253 1.310 . S
C252 C255 1.461 . S
C252 H272 0.932 . S
C253 C251 1.408 . S
C253 C252 1.310 . S
C253 H273 0.930 . S
C254 C255 1.474 . S
C254 C256 1.285 . S
C254 H274 0.929 . S
C255 C252 1.461 . S
C255 C254 1.474 . S
C256 C251 1.342 . S
C256 C254 1.285 . S
C256 H275 0.930 . S
C257 C260 1.424 . S
C257 C262 1.245 . S
C257 C263 1.428 . S
C258 C261 1.260 . S
C258 C262 1.477 . S
C258 H276 0.932 . S
C259 C260 1.384 . S
C259 C261 1.479 . S
C259 H277 0.929 . S
C260 C257 1.424 . S
C260 C259 1.384 . S
C260 H278 0.928 . S
C261 C258 1.260 . S
C261 C259 1.479 . S
C262 C257 1.245 . S
C262 C258 1.477 . S
C262 H279 0.932 . S
C263 U246 2.882 . S
C263 C257 1.428 . S
C263 O266 1.301 . S
C263 O267 1.282 . S
O264 U246 2.441 . S
O264 C250 1.249 . S
O265 U246 2.420 . S
O265 C250 1.202 . S
O266 U246 2.455 . S
O266 C263 1.301 . S
O267 U246 2.449 . S
O267 C263 1.282 . S
H268 C241 0.931 . S
H269 C243 0.929 . S
H270 C244 0.930 . S
H271 C245 0.931 . S
H272 C252 0.932 . S
H273 C253 0.930 . S
H274 C254 0.929 . S
H275 C256 0.930 . S
H276 C258 0.932 . S
H277 C259 0.929 . S
H278 C260 0.928 . S
H279 C262 0.932 . S
C280 C281 1.264 . S
C280 C285 1.479 . S
C280 C290 1.465 . S
C281 C280 1.264 . S
C281 C283 1.339 . S
C281 H308 0.931 . S
C282 C283 1.395 . S
C282 C284 1.320 . S
C283 C281 1.339 . S
C283 C282 1.395 . S
C283 H309 0.929 . S
C284 C282 1.320 . S
C284 C285 1.405 . S
C284 H310 0.925 1_556 S
C285 C280 1.479 . S
C285 C284 1.405 . S
C285 H311 0.931 . S
U286 O287 2.454 . S
U286 O288 2.458 . S
U286 C289 2.984 . S
U286 C290 2.847 . S
U286 C303 2.882 . S
U286 O304 2.441 . S
U286 O305 2.420 . S
U286 O306 2.455 . S
U286 O307 2.449 . S
O287 U286 2.454 . S
O287 C289 1.353 . S
O288 U286 2.458 . S
O288 C289 1.286 . S
C289 U286 2.984 . S
C289 O287 1.353 . S
C289 O288 1.286 . S
C289 C291 1.363 . S
C290 C280 1.465 . S
C290 U286 2.847 . S
C290 O304 1.249 . S
C290 O305 1.202 . S
C291 C289 1.363 . S
C291 C293 1.408 . S
C291 C296 1.342 . S
C292 C293 1.310 . S
C292 C295 1.461 . S
C292 H312 0.932 . S
C293 C291 1.408 . S
C293 C292 1.310 . S
C293 H313 0.930 . S
C294 C295 1.473 1_554 S
C294 C296 1.284 1_554 S
C294 H314 0.932 . S
C295 C292 1.461 . S
C295 C294 1.473 1_556 S
C296 C291 1.342 . S
C296 C294 1.284 1_556 S
C296 H315 0.935 . S
C297 C300 1.424 . S
C297 C302 1.245 . S
C297 C303 1.428 . S
C298 C301 1.260 . S
C298 C302 1.477 . S
C298 H316 0.932 . S
C299 C300 1.384 . S
C299 C301 1.479 . S
C299 H317 0.929 . S
C300 C297 1.424 . S
C300 C299 1.384 . S
C300 H318 0.928 . S
C301 C298 1.260 . S
C301 C299 1.479 . S
C302 C297 1.245 . S
C302 C298 1.477 . S
C302 H319 0.932 . S
C303 U286 2.882 . S
C303 C297 1.428 . S
C303 O306 1.301 . S
C303 O307 1.282 . S
O304 U286 2.441 . S
O304 C290 1.249 . S
O305 U286 2.420 . S
O305 C290 1.202 . S
O306 U286 2.455 . S
O306 C303 1.301 . S
O307 U286 2.449 . S
O307 C303 1.282 . S
H308 C281 0.931 . S
H309 C283 0.929 . S
H310 C284 0.925 1_554 S
H311 C285 0.931 . S
H312 C292 0.932 . S
H313 C293 0.930 . S
H314 C294 0.932 . S
H315 C296 0.935 . S
H316 C298 0.932 . S
H317 C299 0.929 . S
H318 C300 0.928 . S
H319 C302 0.932 . S
C320 C321 1.264 . S
C320 C325 1.479 . S
C320 C330 1.465 . S
C321 C320 1.264 . S
C321 C323 1.339 . S
C321 H348 0.931 . S
C322 C323 1.395 . S
C322 C324 1.320 . S
C323 C321 1.339 . S
C323 C322 1.395 . S
C323 H349 0.929 . S
C324 C322 1.320 . S
C324 C325 1.405 . S
C324 H350 0.930 . S
C325 C320 1.479 . S
C325 C324 1.405 . S
C325 H351 0.931 . S
U326 O327 2.454 . S
U326 O328 2.458 . S
U326 C329 2.984 . S
U326 C330 2.847 . S
U326 C343 2.882 . S
U326 O344 2.441 . S
U326 O345 2.420 . S
U326 O346 2.455 . S
U326 O347 2.449 . S
O327 U326 2.454 . S
O327 C329 1.353 . S
O328 U326 2.458 . S
O328 C329 1.286 . S
C329 U326 2.984 . S
C329 O327 1.353 . S
C329 O328 1.286 . S
C329 C331 1.363 . S
C330 C320 1.465 . S
C330 U326 2.847 . S
C330 O344 1.249 . S
C330 O345 1.202 . S
C331 C329 1.363 . S
C331 C333 1.408 . S
C331 C336 1.342 . S
C332 C333 1.310 . S
C332 C335 1.461 . S
C332 H352 0.932 . S
C333 C331 1.408 . S
C333 C332 1.310 . S
C333 H353 0.930 . S
C334 C335 1.474 . S
C334 C336 1.285 . S
C334 H354 0.929 . S
C335 C332 1.461 . S
C335 C334 1.474 . S
C336 C331 1.342 . S
C336 C334 1.285 . S
C336 H355 0.930 . S
C337 C340 1.424 . S
C337 C342 1.245 . S
C337 C343 1.428 . S
C338 C341 1.260 . S
C338 C342 1.477 . S
C338 H356 0.932 . S
C339 C340 1.384 . S
C339 C341 1.479 . S
C339 H357 0.929 . S
C340 C337 1.424 . S
C340 C339 1.384 . S
C340 H358 0.928 . S
C341 C338 1.260 . S
C341 C339 1.479 . S
C342 C337 1.245 . S
C342 C338 1.477 . S
C342 H359 0.932 . S
C343 U326 2.882 . S
C343 C337 1.428 . S
C343 O346 1.301 . S
C343 O347 1.282 . S
O344 U326 2.441 . S
O344 C330 1.249 . S
O345 U326 2.420 . S
O345 C330 1.202 . S
O346 U326 2.455 . S
O346 C343 1.301 . S
O347 U326 2.449 . S
O347 C343 1.282 . S
H348 C321 0.931 . S
H349 C323 0.929 . S
H350 C324 0.930 . S
H351 C325 0.931 . S
H352 C332 0.932 . S
H353 C333 0.930 . S
H354 C334 0.929 . S
H355 C336 0.930 . S
H356 C338 0.932 . S
H357 C339 0.929 . S
H358 C340 0.928 . S
H359 C342 0.932 . S
C360 C361 1.264 . S
C360 C365 1.479 . S
C360 C370 1.465 . S
C361 C360 1.264 . S
C361 C363 1.339 . S
C361 H388 0.931 . S
C362 C363 1.395 . S
C362 C364 1.320 . S
C363 C361 1.339 . S
C363 C362 1.395 . S
C363 H389 0.929 . S
C364 C362 1.320 . S
C364 C365 1.405 . S
C364 H390 0.930 . S
C365 C360 1.479 . S
C365 C364 1.405 . S
C365 H391 0.931 . S
U366 O367 2.454 . S
U366 O368 2.458 . S
U366 C369 2.984 . S
U366 C370 2.847 . S
U366 C383 2.882 . S
U366 O384 2.441 . S
U366 O385 2.420 . S
U366 O386 2.455 . S
U366 O387 2.449 . S
O367 U366 2.454 . S
O367 C369 1.353 . S
O368 U366 2.458 . S
O368 C369 1.286 . S
C369 U366 2.984 . S
C369 O367 1.353 . S
C369 O368 1.286 . S
C369 C371 1.363 . S
C370 C360 1.465 . S
C370 U366 2.847 . S
C370 O384 1.249 . S
C370 O385 1.202 . S
C371 C369 1.363 . S
C371 C373 1.408 . S
C371 C376 1.342 . S
C372 C373 1.310 . S
C372 C375 1.461 . S
C372 H392 0.932 . S
C373 C371 1.408 . S
C373 C372 1.310 . S
C373 H393 0.930 . S
C374 C375 1.474 . S
C374 C376 1.285 . S
C374 H394 0.929 . S
C375 C372 1.461 . S
C375 C374 1.474 . S
C376 C371 1.342 . S
C376 C374 1.285 . S
C376 H395 0.930 . S
C377 C380 1.424 . S
C377 C382 1.245 . S
C377 C383 1.428 1_655 S
C378 C381 1.260 . S
C378 C382 1.477 . S
C378 H396 0.932 . S
C379 C380 1.384 . S
C379 C381 1.479 . S
C379 H397 0.929 . S
C380 C377 1.424 . S
C380 C379 1.384 . S
C380 H398 0.928 . S
C381 C378 1.260 . S
C381 C379 1.479 . S
C382 C377 1.245 . S
C382 C378 1.477 . S
C382 H399 0.932 . S
C383 U366 2.882 . S
C383 C377 1.428 1_455 S
C383 O386 1.301 . S
C383 O387 1.282 . S
O384 U366 2.441 . S
O384 C370 1.249 . S
O385 U366 2.420 . S
O385 C370 1.202 . S
O386 U366 2.455 . S
O386 C383 1.301 . S
O387 U366 2.449 . S
O387 C383 1.282 . S
H388 C361 0.931 . S
H389 C363 0.929 . S
H390 C364 0.930 . S
H391 C365 0.931 . S
H392 C372 0.932 . S
H393 C373 0.930 . S
H394 C374 0.929 . S
H395 C376 0.930 . S
H396 C378 0.932 . S
H397 C379 0.929 . S
H398 C380 0.928 . S
H399 C382 0.932 . S
C400 C401 1.264 . S
C400 C405 1.479 . S
C400 C410 1.465 . S
C401 C400 1.264 . S
C401 C403 1.339 . S
C401 H428 0.931 . S
C402 C403 1.395 . S
C402 C404 1.320 . S
C403 C401 1.339 . S
C403 C402 1.395 . S
C403 H429 0.929 . S
C404 C402 1.320 . S
C404 C405 1.405 . S
C404 H430 0.930 . S
C405 C400 1.479 . S
C405 C404 1.405 . S
C405 H431 0.931 . S
U406 O407 2.454 . S
U406 O408 2.458 . S
U406 C409 2.984 . S
U406 C410 2.847 . S
U406 C423 2.882 . S
U406 O424 2.441 . S
U406 O425 2.420 . S
U406 O426 2.455 . S
U406 O427 2.449 . S
O407 U406 2.454 . S
O407 C409 1.353 . S
O408 U406 2.458 . S
O408 C409 1.286 . S
C409 U406 2.984 . S
C409 O407 1.353 . S
C409 O408 1.286 . S
C409 C411 1.363 . S
C410 C400 1.465 . S
C410 U406 2.847 . S
C410 O424 1.249 . S
C410 O425 1.202 . S
C411 C409 1.363 . S
C411 C413 1.408 . S
C411 C416 1.342 . S
C412 C413 1.310 . S
C412 C415 1.461 . S
C412 H432 0.932 . S
C413 C411 1.408 . S
C413 C412 1.310 . S
C413 H433 0.930 . S
C414 C415 1.474 . S
C414 C416 1.285 . S
C414 H434 0.929 . S
C415 C412 1.461 . S
C415 C414 1.474 . S
C416 C411 1.342 . S
C416 C414 1.285 . S
C416 H435 0.930 . S
C417 C420 1.424 . S
C417 C422 1.245 . S
C417 C423 1.428 . S
C418 C421 1.260 . S
C418 C422 1.477 . S
C418 H436 0.932 . S
C419 C420 1.384 . S
C419 C421 1.479 . S
C419 H437 0.929 . S
C420 C417 1.424 . S
C420 C419 1.384 . S
C420 H438 0.928 . S
C421 C418 1.260 . S
C421 C419 1.479 . S
C422 C417 1.245 . S
C422 C418 1.477 . S
C422 H439 0.932 . S
C423 U406 2.882 . S
C423 C417 1.428 . S
C423 O426 1.301 . S
C423 O427 1.282 . S
O424 U406 2.441 . S
O424 C410 1.249 . S
O425 U406 2.420 . S
O425 C410 1.202 . S
O426 U406 2.455 . S
O426 C423 1.301 . S
O427 U406 2.449 . S
O427 C423 1.282 . S
H428 C401 0.931 . S
H429 C403 0.929 . S
H430 C404 0.930 . S
H431 C405 0.931 . S
H432 C412 0.932 . S
H433 C413 0.930 . S
H434 C414 0.929 . S
H435 C416 0.930 . S
H436 C418 0.932 . S
H437 C419 0.929 . S
H438 C420 0.928 . S
H439 C422 0.932 . S
C440 C441 1.264 . S
C440 C445 1.479 . S
C440 C450 1.465 . S
C441 C440 1.264 . S
C441 C443 1.339 . S
C441 H468 0.931 . S
C442 C443 1.395 . S
C442 C444 1.320 . S
C443 C441 1.339 . S
C443 C442 1.395 . S
C443 H469 0.929 . S
C444 C442 1.320 . S
C444 C445 1.405 . S
C444 H470 0.925 1_655 S
C445 C440 1.479 . S
C445 C444 1.405 . S
C445 H471 0.931 . S
U446 O447 2.454 . S
U446 O448 2.458 . S
U446 C449 2.984 . S
U446 C450 2.847 . S
U446 C463 2.882 . S
U446 O464 2.441 . S
U446 O465 2.420 . S
U446 O466 2.455 . S
U446 O467 2.449 . S
O447 U446 2.454 . S
O447 C449 1.353 . S
O448 U446 2.458 . S
O448 C449 1.286 . S
C449 U446 2.984 . S
C449 O447 1.353 . S
C449 O448 1.286 . S
C449 C451 1.363 . S
C450 C440 1.465 . S
C450 U446 2.847 . S
C450 O464 1.249 . S
C450 O465 1.202 . S
C451 C449 1.363 . S
C451 C453 1.408 . S
C451 C456 1.342 . S
C452 C453 1.310 . S
C452 C455 1.461 . S
C452 H472 0.932 . S
C453 C451 1.408 . S
C453 C452 1.310 . S
C453 H473 0.930 . S
C454 C455 1.473 1_455 S
C454 C456 1.284 1_455 S
C454 H474 0.932 . S
C455 C452 1.461 . S
C455 C454 1.473 1_655 S
C456 C451 1.342 . S
C456 C454 1.284 1_655 S
C456 H475 0.935 . S
C457 C460 1.424 . S
C457 C462 1.245 . S
C457 C463 1.428 . S
C458 C461 1.260 . S
C458 C462 1.477 . S
C458 H476 0.932 . S
C459 C460 1.384 . S
C459 C461 1.479 . S
C459 H477 0.929 . S
C460 C457 1.424 . S
C460 C459 1.384 . S
C460 H478 0.928 . S
C461 C458 1.260 . S
C461 C459 1.479 . S
C462 C457 1.245 . S
C462 C458 1.477 . S
C462 H479 0.932 . S
C463 U446 2.882 . S
C463 C457 1.428 . S
C463 O466 1.301 . S
C463 O467 1.282 . S
O464 U446 2.441 . S
O464 C450 1.249 . S
O465 U446 2.420 . S
O465 C450 1.202 . S
O466 U446 2.455 . S
O466 C463 1.301 . S
O467 U446 2.449 . S
O467 C463 1.282 . S
H468 C441 0.931 . S
H469 C443 0.929 . S
H470 C444 0.925 1_455 S
H471 C445 0.931 . S
H472 C452 0.932 . S
H473 C453 0.930 . S
H474 C454 0.932 . S
H475 C456 0.935 . S
H476 C458 0.932 . S
H477 C459 0.929 . S
H478 C460 0.928 . S
H479 C462 0.932 . S
C480 C481 1.264 . S
C480 C485 1.479 . S
C480 C490 1.465 . S
C481 C480 1.264 . S
C481 C483 1.339 . S
C481 H508 0.931 . S
C482 C483 1.395 . S
C482 C484 1.320 . S
C483 C481 1.339 . S
C483 C482 1.395 . S
C483 H509 0.929 . S
C484 C482 1.320 . S
C484 C485 1.405 . S
C484 H510 0.930 . S
C485 C480 1.479 . S
C485 C484 1.405 . S
C485 H511 0.931 . S
U486 O487 2.454 . S
U486 O488 2.458 . S
U486 C489 2.984 . S
U486 C490 2.847 . S
U486 C503 2.882 . S
U486 O504 2.441 . S
U486 O505 2.420 . S
U486 O506 2.455 . S
U486 O507 2.449 . S
O487 U486 2.454 . S
O487 C489 1.353 . S
O488 U486 2.458 . S
O488 C489 1.286 . S
C489 U486 2.984 . S
C489 O487 1.353 . S
C489 O488 1.286 . S
C489 C491 1.363 . S
C490 C480 1.465 . S
C490 U486 2.847 . S
C490 O504 1.249 . S
C490 O505 1.202 . S
C491 C489 1.363 . S
C491 C493 1.408 . S
C491 C496 1.342 . S
C492 C493 1.310 . S
C492 C495 1.461 . S
C492 H512 0.932 . S
C493 C491 1.408 . S
C493 C492 1.310 . S
C493 H513 0.930 . S
C494 C495 1.474 . S
C494 C496 1.285 . S
C494 H514 0.929 . S
C495 C492 1.461 . S
C495 C494 1.474 . S
C496 C491 1.342 . S
C496 C494 1.285 . S
C496 H515 0.930 . S
C497 C500 1.424 . S
C497 C502 1.245 . S
C497 C503 1.428 . S
C498 C501 1.260 . S
C498 C502 1.477 . S
C498 H516 0.932 . S
C499 C500 1.384 . S
C499 C501 1.479 . S
C499 H517 0.929 . S
C500 C497 1.424 . S
C500 C499 1.384 . S
C500 H518 0.928 . S
C501 C498 1.260 . S
C501 C499 1.479 . S
C502 C497 1.245 . S
C502 C498 1.477 . S
C502 H519 0.932 . S
C503 U486 2.882 . S
C503 C497 1.428 . S
C503 O506 1.301 . S
C503 O507 1.282 . S
O504 U486 2.441 . S
O504 C490 1.249 . S
O505 U486 2.420 . S
O505 C490 1.202 . S
O506 U486 2.455 . S
O506 C503 1.301 . S
O507 U486 2.449 . S
O507 C503 1.282 . S
H508 C481 0.931 . S
H509 C483 0.929 . S
H510 C484 0.930 . S
H511 C485 0.931 . S
H512 C492 0.932 . S
H513 C493 0.930 . S
H514 C494 0.929 . S
H515 C496 0.930 . S
H516 C498 0.932 . S
H517 C499 0.929 . S
H518 C500 0.928 . S
H519 C502 0.932 . S
C520 C521 1.264 . S
C520 C525 1.479 . S
C520 C530 1.465 . S
C521 C520 1.264 . S
C521 C523 1.339 . S
C521 H548 0.931 . S
C522 C523 1.395 . S
C522 C524 1.320 . S
C523 C521 1.339 . S
C523 C522 1.395 . S
C523 H549 0.929 . S
C524 C522 1.320 . S
C524 C525 1.405 . S
C524 H550 0.930 . S
C525 C520 1.479 . S
C525 C524 1.405 . S
C525 H551 0.931 . S
U526 O527 2.454 . S
U526 O528 2.458 . S
U526 C529 2.984 . S
U526 C530 2.847 . S
U526 C543 2.882 . S
U526 O544 2.441 . S
U526 O545 2.420 . S
U526 O546 2.455 . S
U526 O547 2.449 . S
O527 U526 2.454 . S
O527 C529 1.353 . S
O528 U526 2.458 . S
O528 C529 1.286 . S
C529 U526 2.984 . S
C529 O527 1.353 . S
C529 O528 1.286 . S
C529 C531 1.363 . S
C530 C520 1.465 . S
C530 U526 2.847 . S
C530 O544 1.249 . S
C530 O545 1.202 . S
C531 C529 1.363 . S
C531 C533 1.408 . S
C531 C536 1.342 . S
C532 C533 1.310 . S
C532 C535 1.461 . S
C532 H552 0.932 . S
C533 C531 1.408 . S
C533 C532 1.310 . S
C533 H553 0.930 . S
C534 C535 1.474 . S
C534 C536 1.285 . S
C534 H554 0.929 . S
C535 C532 1.461 . S
C535 C534 1.474 . S
C536 C531 1.342 . S
C536 C534 1.285 . S
C536 H555 0.930 . S
C537 C540 1.424 . S
C537 C542 1.245 . S
C537 C543 1.428 . S
C538 C541 1.260 . S
C538 C542 1.477 . S
C538 H556 0.932 . S
C539 C540 1.384 . S
C539 C541 1.479 . S
C539 H557 0.929 . S
C540 C537 1.424 . S
C540 C539 1.384 . S
C540 H558 0.928 . S
C541 C538 1.260 . S
C541 C539 1.479 . S
C542 C537 1.245 . S
C542 C538 1.477 . S
C542 H559 0.932 . S
C543 U526 2.882 . S
C543 C537 1.428 . S
C543 O546 1.301 . S
C543 O547 1.282 . S
O544 U526 2.441 . S
O544 C530 1.249 . S
O545 U526 2.420 . S
O545 C530 1.202 . S
O546 U526 2.455 . S
O546 C543 1.301 . S
O547 U526 2.449 . S
O547 C543 1.282 . S
H548 C521 0.931 . S
H549 C523 0.929 . S
H550 C524 0.930 . S
H551 C525 0.931 . S
H552 C532 0.932 . S
H553 C533 0.930 . S
H554 C534 0.929 . S
H555 C536 0.930 . S
H556 C538 0.932 . S
H557 C539 0.929 . S
H558 C540 0.928 . S
H559 C542 0.932 . S
C560 C561 1.264 . S
C560 C565 1.479 . S
C560 C570 1.465 . S
C561 C560 1.264 . S
C561 C563 1.339 . S
C561 H588 0.931 . S
C562 C563 1.395 . S
C562 C564 1.320 . S
C563 C561 1.339 . S
C563 C562 1.395 . S
C563 H589 0.929 . S
C564 C562 1.320 . S
C564 C565 1.405 . S
C564 H590 0.920 1_565 S
C565 C560 1.479 . S
C565 C564 1.405 . S
C565 H591 0.931 . S
U566 O567 2.454 . S
U566 O568 2.458 . S
U566 C569 2.984 . S
U566 C570 2.847 . S
U566 C583 2.882 . S
U566 O584 2.441 . S
U566 O585 2.420 . S
U566 O586 2.455 . S
U566 O587 2.449 . S
O567 U566 2.454 . S
O567 C569 1.353 . S
O568 U566 2.458 . S
O568 C569 1.286 . S
C569 U566 2.984 . S
C569 O567 1.353 . S
C569 O568 1.286 . S
C569 C571 1.363 . S
C570 C560 1.465 . S
C570 U566 2.847 . S
C570 O584 1.249 . S
C570 O585 1.202 . S
C571 C569 1.363 . S
C571 C573 1.408 . S
C571 C576 1.342 . S
C572 C573 1.310 . S
C572 C575 1.460 . S
C572 H592 0.932 . S
C573 C571 1.408 . S
C573 C572 1.310 . S
C573 H593 0.930 . S
C574 C575 1.475 1_545 S
C574 C576 1.286 1_545 S
C574 H594 0.930 . S
C575 C572 1.460 . S
C575 C574 1.475 1_565 S
C576 C571 1.342 . S
C576 C574 1.286 1_565 S
C576 H595 0.929 . S
C577 C580 1.424 . S
C577 C582 1.245 . S
C577 C583 1.428 . S
C578 C581 1.260 . S
C578 C582 1.477 . S
C578 H596 0.932 . S
C579 C580 1.384 . S
C579 C581 1.479 . S
C579 H597 0.929 . S
C580 C577 1.424 . S
C580 C579 1.384 . S
C580 H598 0.928 . S
C581 C578 1.260 . S
C581 C579 1.479 . S
C582 C577 1.245 . S
C582 C578 1.477 . S
C582 H599 0.932 . S
C583 U566 2.882 . S
C583 C577 1.428 . S
C583 O586 1.301 . S
C583 O587 1.282 . S
O584 U566 2.441 . S
O584 C570 1.249 . S
O585 U566 2.420 . S
O585 C570 1.202 . S
O586 U566 2.455 . S
O586 C583 1.301 . S
O587 U566 2.449 . S
O587 C583 1.282 . S
H588 C561 0.931 . S
H589 C563 0.929 . S
H590 C564 0.920 1_545 S
H591 C565 0.931 . S
H592 C572 0.932 . S
H593 C573 0.930 . S
H594 C574 0.930 . S
H595 C576 0.929 . S
H596 C578 0.932 . S
H597 C579 0.929 . S
H598 C580 0.928 . S
H599 C582 0.932 . S
C600 C601 1.264 . S
C600 C605 1.479 1_545 S
C600 C610 1.465 . S
C601 C600 1.264 . S
C601 C603 1.339 1_545 S
C601 H628 0.931 . S
C602 C603 1.395 . S
C602 C604 1.320 . S
C603 C601 1.339 1_565 S
C603 C602 1.395 . S
C603 H629 0.929 1_565 S
C604 C602 1.320 . S
C604 C605 1.405 . S
C604 H630 0.930 . S
C605 C600 1.479 1_565 S
C605 C604 1.405 . S
C605 H631 0.931 . S
U606 O607 2.454 1_545 S
U606 O608 2.458 . S
U606 C609 2.988 . S
U606 C610 2.847 . S
U606 C623 2.882 . S
U606 O624 2.441 . S
U606 O625 2.420 . S
U606 O626 2.455 . S
U606 O627 2.449 . S
O607 U606 2.454 1_565 S
O607 C609 1.350 1_565 S
O608 U606 2.458 . S
O608 C609 1.290 . S
C609 U606 2.988 . S
C609 O607 1.350 1_545 S
C609 O608 1.290 . S
C609 C611 1.361 1_545 S
C610 C600 1.465 . S
C610 U606 2.847 . S
C610 O624 1.249 . S
C610 O625 1.202 . S
C611 C609 1.361 1_565 S
C611 C613 1.408 . S
C611 C616 1.342 . S
C612 C613 1.310 . S
C612 C615 1.461 . S
C612 H632 0.932 . S
C613 C611 1.408 . S
C613 C612 1.310 . S
C613 H633 0.930 . S
C614 C615 1.474 . S
C614 C616 1.285 . S
C614 H634 0.929 . S
C615 C612 1.461 . S
C615 C614 1.474 . S
C616 C611 1.342 . S
C616 C614 1.285 . S
C616 H635 0.932 . S
C617 C620 1.424 . S
C617 C622 1.245 . S
C617 C623 1.428 . S
C618 C621 1.260 . S
C618 C622 1.477 . S
C618 H636 0.932 . S
C619 C620 1.384 . S
C619 C621 1.479 . S
C619 H637 0.929 . S
C620 C617 1.424 . S
C620 C619 1.384 . S
C620 H638 0.928 . S
C621 C618 1.260 . S
C621 C619 1.479 . S
C622 C617 1.245 . S
C622 C618 1.477 . S
C622 H639 0.932 . S
C623 U606 2.882 . S
C623 C617 1.428 . S
C623 O626 1.301 . S
C623 O627 1.282 . S
O624 U606 2.441 . S
O624 C610 1.249 . S
O625 U606 2.420 . S
O625 C610 1.202 . S
O626 U606 2.455 . S
O626 C623 1.301 . S
O627 U606 2.449 . S
O627 C623 1.282 . S
H628 C601 0.931 . S
H629 C603 0.929 1_545 S
H630 C604 0.930 . S
H631 C605 0.931 . S
H632 C612 0.932 . S
H633 C613 0.930 . S
H634 C614 0.929 . S
H635 C616 0.932 . S
H636 C618 0.932 . S
H637 C619 0.929 . S
H638 C620 0.928 . S
H639 C622 0.932 . S
C640 C641 1.264 . S
C640 C645 1.479 . S
C640 C650 1.465 . S
C641 C640 1.264 . S
C641 C643 1.339 . S
C641 H668 0.931 . S
C642 C643 1.395 . S
C642 C644 1.320 . S
C643 C641 1.339 . S
C643 C642 1.395 . S
C643 H669 0.929 . S
C644 C642 1.320 . S
C644 C645 1.405 . S
C644 H670 0.930 . S
C645 C640 1.479 . S
C645 C644 1.405 . S
C645 H671 0.931 . S
U646 O647 2.454 . S
U646 O648 2.458 . S
U646 C649 2.984 . S
U646 C650 2.847 . S
U646 C663 2.882 . S
U646 O664 2.441 . S
U646 O665 2.420 . S
U646 O666 2.455 . S
U646 O667 2.449 . S
O647 U646 2.454 . S
O647 C649 1.353 . S
O648 U646 2.458 . S
O648 C649 1.286 . S
C649 U646 2.984 . S
C649 O647 1.353 . S
C649 O648 1.286 . S
C649 C651 1.363 . S
C650 C640 1.465 . S
C650 U646 2.847 . S
C650 O664 1.249 . S
C650 O665 1.202 . S
C651 C649 1.363 . S
C651 C653 1.408 . S
C651 C656 1.342 . S
C652 C653 1.310 . S
C652 C655 1.461 . S
C652 H672 0.932 . S
C653 C651 1.408 . S
C653 C652 1.310 . S
C653 H673 0.930 . S
C654 C655 1.474 . S
C654 C656 1.285 . S
C654 H674 0.929 . S
C655 C652 1.461 . S
C655 C654 1.474 . S
C656 C651 1.342 . S
C656 C654 1.285 . S
C656 H675 0.930 . S
C657 C660 1.424 . S
C657 C662 1.245 . S
C657 C663 1.428 . S
C658 C661 1.260 . S
C658 C662 1.477 . S
C658 H676 0.932 . S
C659 C660 1.384 . S
C659 C661 1.479 . S
C659 H677 0.929 . S
C660 C657 1.424 . S
C660 C659 1.384 . S
C660 H678 0.928 . S
C661 C658 1.260 . S
C661 C659 1.479 . S
C662 C657 1.245 . S
C662 C658 1.477 . S
C662 H679 0.932 . S
C663 U646 2.882 . S
C663 C657 1.428 . S
C663 O666 1.301 . S
C663 O667 1.282 . S
O664 U646 2.441 . S
O664 C650 1.249 . S
O665 U646 2.420 . S
O665 C650 1.202 . S
O666 U646 2.455 . S
O666 C663 1.301 . S
O667 U646 2.449 . S
O667 C663 1.282 . S
H668 C641 0.931 . S
H669 C643 0.929 . S
H670 C644 0.930 . S
H671 C645 0.931 . S
H672 C652 0.932 . S
H673 C653 0.930 . S
H674 C654 0.929 . S
H675 C656 0.930 . S
H676 C658 0.932 . S
H677 C659 0.929 . S
H678 C660 0.928 . S
H679 C662 0.932 . S
C680 C681 1.264 . S
C680 C685 1.479 1_554 S
C680 C690 1.465 . S
C681 C680 1.264 . S
C681 C683 1.339 1_554 S
C681 H708 0.931 . S
C682 C683 1.395 . S
C682 C684 1.320 . S
C683 C681 1.339 1_556 S
C683 C682 1.395 . S
C683 H709 0.929 1_556 S
C684 C682 1.320 . S
C684 C685 1.405 . S
C684 H710 0.930 . S
C685 C680 1.479 1_556 S
C685 C684 1.405 . S
C685 H711 0.931 . S
U686 O687 2.454 1_554 S
U686 O688 2.458 . S
U686 C689 2.988 . S
U686 C690 2.847 . S
U686 C703 2.882 . S
U686 O704 2.441 . S
U686 O705 2.420 . S
U686 O706 2.455 . S
U686 O707 2.449 . S
O687 U686 2.454 1_556 S
O687 C689 1.350 1_556 S
O688 U686 2.458 . S
O688 C689 1.290 . S
C689 U686 2.988 . S
C689 O687 1.350 1_554 S
C689 O688 1.290 . S
C689 C691 1.361 1_554 S
C690 C680 1.465 . S
C690 U686 2.847 . S
C690 O704 1.249 . S
C690 O705 1.202 . S
C691 C689 1.361 1_556 S
C691 C693 1.408 . S
C691 C696 1.342 . S
C692 C693 1.310 . S
C692 C695 1.461 . S
C692 H712 0.932 . S
C693 C691 1.408 . S
C693 C692 1.310 . S
C693 H713 0.930 . S
C694 C695 1.474 . S
C694 C696 1.285 . S
C694 H714 0.929 . S
C695 C692 1.461 . S
C695 C694 1.474 . S
C696 C691 1.342 . S
C696 C694 1.285 . S
C696 H715 0.932 . S
C697 C700 1.424 . S
C697 C702 1.245 . S
C697 C703 1.428 . S
C698 C701 1.260 . S
C698 C702 1.477 . S
C698 H716 0.932 . S
C699 C700 1.384 . S
C699 C701 1.479 . S
C699 H717 0.929 . S
C700 C697 1.424 . S
C700 C699 1.384 . S
C700 H718 0.928 . S
C701 C698 1.260 . S
C701 C699 1.479 . S
C702 C697 1.245 . S
C702 C698 1.477 . S
C702 H719 0.932 . S
C703 U686 2.882 . S
C703 C697 1.428 . S
C703 O706 1.301 . S
C703 O707 1.282 . S
O704 U686 2.441 . S
O704 C690 1.249 . S
O705 U686 2.420 . S
O705 C690 1.202 . S
O706 U686 2.455 . S
O706 C703 1.301 . S
O707 U686 2.449 . S
O707 C703 1.282 . S
H708 C681 0.931 . S
H709 C683 0.929 1_554 S
H710 C684 0.930 . S
H711 C685 0.931 . S
H712 C692 0.932 . S
H713 C693 0.930 . S
H714 C694 0.929 . S
H715 C696 0.932 . S
H716 C698 0.932 . S
H717 C699 0.929 . S
H718 C700 0.928 . S
H719 C702 0.932 . S
C720 C721 1.264 . S
C720 C725 1.479 . S
C720 C730 1.465 . S
C721 C720 1.264 . S
C721 C723 1.339 . S
C721 H748 0.931 . S
C722 C723 1.395 . S
C722 C724 1.320 . S
C723 C721 1.339 . S
C723 C722 1.395 . S
C723 H749 0.929 . S
C724 C722 1.320 . S
C724 C725 1.405 . S
C724 H750 0.930 . S
C725 C720 1.479 . S
C725 C724 1.405 . S
C725 H751 0.931 . S
U726 O727 2.454 . S
U726 O728 2.458 . S
U726 C729 2.984 . S
U726 C730 2.847 . S
U726 C743 2.882 . S
U726 O744 2.441 . S
U726 O745 2.420 . S
U726 O746 2.455 . S
U726 O747 2.449 . S
O727 U726 2.454 . S
O727 C729 1.353 . S
O728 U726 2.458 . S
O728 C729 1.286 . S
C729 U726 2.984 . S
C729 O727 1.353 . S
C729 O728 1.286 . S
C729 C731 1.363 . S
C730 C720 1.465 . S
C730 U726 2.847 . S
C730 O744 1.249 . S
C730 O745 1.202 . S
C731 C729 1.363 . S
C731 C733 1.408 . S
C731 C736 1.342 . S
C732 C733 1.310 . S
C732 C735 1.461 . S
C732 H752 0.932 . S
C733 C731 1.408 . S
C733 C732 1.310 . S
C733 H753 0.930 . S
C734 C735 1.474 . S
C734 C736 1.285 . S
C734 H754 0.929 . S
C735 C732 1.461 . S
C735 C734 1.474 . S
C736 C731 1.342 . S
C736 C734 1.285 . S
C736 H755 0.930 . S
C737 C740 1.424 . S
C737 C742 1.245 . S
C737 C743 1.428 . S
C738 C741 1.260 . S
C738 C742 1.477 . S
C738 H756 0.932 . S
C739 C740 1.384 . S
C739 C741 1.479 . S
C739 H757 0.929 . S
C740 C737 1.424 . S
C740 C739 1.384 . S
C740 H758 0.928 . S
C741 C738 1.260 . S
C741 C739 1.479 . S
C742 C737 1.245 . S
C742 C738 1.477 . S
C742 H759 0.932 . S
C743 U726 2.882 . S
C743 C737 1.428 . S
C743 O746 1.301 . S
C743 O747 1.282 . S
O744 U726 2.441 . S
O744 C730 1.249 . S
O745 U726 2.420 . S
O745 C730 1.202 . S
O746 U726 2.455 . S
O746 C743 1.301 . S
O747 U726 2.449 . S
O747 C743 1.282 . S
H748 C721 0.931 . S
H749 C723 0.929 . S
H750 C724 0.930 . S
H751 C725 0.931 . S
H752 C732 0.932 . S
H753 C733 0.930 . S
H754 C734 0.929 . S
H755 C736 0.930 . S
H756 C738 0.932 . S
H757 C739 0.929 . S
H758 C740 0.928 . S
H759 C742 0.932 . S
C760 C761 1.264 . S
C760 C765 1.479 . S
C760 C770 1.465 . S
C761 C760 1.264 . S
C761 C763 1.339 . S
C761 H788 0.931 . S
C762 C763 1.395 . S
C762 C764 1.320 . S
C763 C761 1.339 . S
C763 C762 1.395 . S
C763 H789 0.929 . S
C764 C762 1.320 . S
C764 C765 1.405 . S
C764 H790 0.920 1_556 S
C765 C760 1.479 . S
C765 C764 1.405 . S
C765 H791 0.931 . S
U766 O767 2.454 . S
U766 O768 2.458 . S
U766 C769 2.984 . S
U766 C770 2.847 . S
U766 C783 2.882 . S
U766 O784 2.441 . S
U766 O785 2.420 . S
U766 O786 2.455 . S
U766 O787 2.449 . S
O767 U766 2.454 . S
O767 C769 1.353 . S
O768 U766 2.458 . S
O768 C769 1.286 . S
C769 U766 2.984 . S
C769 O767 1.353 . S
C769 O768 1.286 . S
C769 C771 1.363 . S
C770 C760 1.465 . S
C770 U766 2.847 . S
C770 O784 1.249 . S
C770 O785 1.202 . S
C771 C769 1.363 . S
C771 C773 1.408 . S
C771 C776 1.342 . S
C772 C773 1.310 . S
C772 C775 1.460 . S
C772 H792 0.932 . S
C773 C771 1.408 . S
C773 C772 1.310 . S
C773 H793 0.930 . S
C774 C775 1.475 1_554 S
C774 C776 1.286 1_554 S
C774 H794 0.930 . S
C775 C772 1.460 . S
C775 C774 1.475 1_556 S
C776 C771 1.342 . S
C776 C774 1.286 1_556 S
C776 H795 0.929 . S
C777 C780 1.424 . S
C777 C782 1.245 . S
C777 C783 1.428 . S
C778 C781 1.260 . S
C778 C782 1.477 . S
C778 H796 0.932 . S
C779 C780 1.384 . S
C779 C781 1.479 . S
C779 H797 0.929 . S
C780 C777 1.424 . S
C780 C779 1.384 . S
C780 H798 0.928 . S
C781 C778 1.260 . S
C781 C779 1.479 . S
C782 C777 1.245 . S
C782 C778 1.477 . S
C782 H799 0.932 . S
C783 U766 2.882 . S
C783 C777 1.428 . S
C783 O786 1.301 . S
C783 O787 1.282 . S
O784 U766 2.441 . S
O784 C770 1.249 . S
O785 U766 2.420 . S
O785 C770 1.202 . S
O786 U766 2.455 . S
O786 C783 1.301 . S
O787 U766 2.449 . S
O787 C783 1.282 . S
H788 C761 0.931 . S
H789 C763 0.929 . S
H790 C764 0.920 1_554 S
H791 C765 0.931 . S
H792 C772 0.932 . S
H793 C773 0.930 . S
H794 C774 0.930 . S
H795 C776 0.929 . S
H796 C778 0.932 . S
H797 C779 0.929 . S
H798 C780 0.928 . S
H799 C782 0.932 . S
C800 C801 1.264 . S
C800 C805 1.479 . S
C800 C810 1.465 . S
C801 C800 1.264 . S
C801 C803 1.339 . S
C801 H828 0.931 . S
C802 C803 1.395 . S
C802 C804 1.320 . S
C803 C801 1.339 . S
C803 C802 1.395 . S
C803 H829 0.929 . S
C804 C802 1.320 . S
C804 C805 1.405 . S
C804 H830 0.930 . S
C805 C800 1.479 . S
C805 C804 1.405 . S
C805 H831 0.931 . S
U806 O807 2.454 . S
U806 O808 2.458 . S
U806 C809 2.984 . S
U806 C810 2.847 . S
U806 C823 2.882 . S
U806 O824 2.441 . S
U806 O825 2.420 . S
U806 O826 2.455 . S
U806 O827 2.449 . S
O807 U806 2.454 . S
O807 C809 1.353 . S
O808 U806 2.458 . S
O808 C809 1.286 . S
C809 U806 2.984 . S
C809 O807 1.353 . S
C809 O808 1.286 . S
C809 C811 1.363 . S
C810 C800 1.465 . S
C810 U806 2.847 . S
C810 O824 1.249 . S
C810 O825 1.202 . S
C811 C809 1.363 . S
C811 C813 1.408 . S
C811 C816 1.342 . S
C812 C813 1.310 . S
C812 C815 1.461 . S
C812 H832 0.932 . S
C813 C811 1.408 . S
C813 C812 1.310 . S
C813 H833 0.930 . S
C814 C815 1.474 . S
C814 C816 1.285 . S
C814 H834 0.929 . S
C815 C812 1.461 . S
C815 C814 1.474 . S
C816 C811 1.342 . S
C816 C814 1.285 . S
C816 H835 0.930 . S
C817 C820 1.424 . S
C817 C822 1.245 . S
C817 C823 1.428 . S
C818 C821 1.260 . S
C818 C822 1.477 . S
C818 H836 0.932 . S
C819 C820 1.384 . S
C819 C821 1.479 . S
C819 H837 0.929 . S
C820 C817 1.424 . S
C820 C819 1.384 . S
C820 H838 0.928 . S
C821 C818 1.260 . S
C821 C819 1.479 . S
C822 C817 1.245 . S
C822 C818 1.477 . S
C822 H839 0.932 . S
C823 U806 2.882 . S
C823 C817 1.428 . S
C823 O826 1.301 . S
C823 O827 1.282 . S
O824 U806 2.441 . S
O824 C810 1.249 . S
O825 U806 2.420 . S
O825 C810 1.202 . S
O826 U806 2.455 . S
O826 C823 1.301 . S
O827 U806 2.449 . S
O827 C823 1.282 . S
H828 C801 0.931 . S
H829 C803 0.929 . S
H830 C804 0.930 . S
H831 C805 0.931 . S
H832 C812 0.932 . S
H833 C813 0.930 . S
H834 C814 0.929 . S
H835 C816 0.930 . S
H836 C818 0.932 . S
H837 C819 0.929 . S
H838 C820 0.928 . S
H839 C822 0.932 . S
C840 C841 1.264 . S
C840 C845 1.479 1_455 S
C840 C850 1.465 . S
C841 C840 1.264 . S
C841 C843 1.339 1_455 S
C841 H868 0.931 . S
C842 C843 1.395 . S
C842 C844 1.320 . S
C843 C841 1.339 1_655 S
C843 C842 1.395 . S
C843 H869 0.929 1_655 S
C844 C842 1.320 . S
C844 C845 1.405 . S
C844 H870 0.930 . S
C845 C840 1.479 1_655 S
C845 C844 1.405 . S
C845 H871 0.931 . S
U846 O847 2.454 1_455 S
U846 O848 2.458 . S
U846 C849 2.988 . S
U846 C850 2.847 . S
U846 C863 2.882 . S
U846 O864 2.441 . S
U846 O865 2.420 . S
U846 O866 2.455 . S
U846 O867 2.449 . S
O847 U846 2.454 1_655 S
O847 C849 1.350 1_655 S
O848 U846 2.458 . S
O848 C849 1.290 . S
C849 U846 2.988 . S
C849 O847 1.350 1_455 S
C849 O848 1.290 . S
C849 C851 1.361 1_455 S
C850 C840 1.465 . S
C850 U846 2.847 . S
C850 O864 1.249 . S
C850 O865 1.202 . S
C851 C849 1.361 1_655 S
C851 C853 1.408 . S
C851 C856 1.342 . S
C852 C853 1.310 . S
C852 C855 1.461 . S
C852 H872 0.932 . S
C853 C851 1.408 . S
C853 C852 1.310 . S
C853 H873 0.930 . S
C854 C855 1.474 . S
C854 C856 1.285 . S
C854 H874 0.929 . S
C855 C852 1.461 . S
C855 C854 1.474 . S
C856 C851 1.342 . S
C856 C854 1.285 . S
C856 H875 0.932 . S
C857 C860 1.424 . S
C857 C862 1.245 . S
C857 C863 1.428 . S
C858 C861 1.260 . S
C858 C862 1.477 . S
C858 H876 0.932 . S
C859 C860 1.384 . S
C859 C861 1.479 . S
C859 H877 0.929 . S
C860 C857 1.424 . S
C860 C859 1.384 . S
C860 H878 0.928 . S
C861 C858 1.260 . S
C861 C859 1.479 . S
C862 C857 1.245 . S
C862 C858 1.477 . S
C862 H879 0.932 . S
C863 U846 2.882 . S
C863 C857 1.428 . S
C863 O866 1.301 . S
C863 O867 1.282 . S
O864 U846 2.441 . S
O864 C850 1.249 . S
O865 U846 2.420 . S
O865 C850 1.202 . S
O866 U846 2.455 . S
O866 C863 1.301 . S
O867 U846 2.449 . S
O867 C863 1.282 . S
H868 C841 0.931 . S
H869 C843 0.929 1_455 S
H870 C844 0.930 . S
H871 C845 0.931 . S
H872 C852 0.932 . S
H873 C853 0.930 . S
H874 C854 0.929 . S
H875 C856 0.932 . S
H876 C858 0.932 . S
H877 C859 0.929 . S
H878 C860 0.928 . S
H879 C862 0.932 . S
C880 C881 1.264 . S
C880 C885 1.479 . S
C880 C890 1.465 . S
C881 C880 1.264 . S
C881 C883 1.339 . S
C881 H908 0.931 . S
C882 C883 1.395 . S
C882 C884 1.320 . S
C883 C881 1.339 . S
C883 C882 1.395 . S
C883 H909 0.929 . S
C884 C882 1.320 . S
C884 C885 1.405 . S
C884 H910 0.930 . S
C885 C880 1.479 . S
C885 C884 1.405 . S
C885 H911 0.931 . S
U886 O887 2.454 . S
U886 O888 2.458 . S
U886 C889 2.984 . S
U886 C890 2.847 . S
U886 C903 2.882 . S
U886 O904 2.441 . S
U886 O905 2.420 . S
U886 O906 2.455 . S
U886 O907 2.449 . S
O887 U886 2.454 . S
O887 C889 1.353 . S
O888 U886 2.458 . S
O888 C889 1.286 . S
C889 U886 2.984 . S
C889 O887 1.353 . S
C889 O888 1.286 . S
C889 C891 1.363 . S
C890 C880 1.465 . S
C890 U886 2.847 . S
C890 O904 1.249 . S
C890 O905 1.202 . S
C891 C889 1.363 . S
C891 C893 1.408 . S
C891 C896 1.342 . S
C892 C893 1.310 . S
C892 C895 1.461 . S
C892 H912 0.932 . S
C893 C891 1.408 . S
C893 C892 1.310 . S
C893 H913 0.930 . S
C894 C895 1.474 . S
C894 C896 1.285 . S
C894 H914 0.929 . S
C895 C892 1.461 . S
C895 C894 1.474 . S
C896 C891 1.342 . S
C896 C894 1.285 . S
C896 H915 0.930 . S
C897 C900 1.424 . S
C897 C902 1.245 . S
C897 C903 1.428 . S
C898 C901 1.260 . S
C898 C902 1.477 . S
C898 H916 0.932 . S
C899 C900 1.384 . S
C899 C901 1.479 . S
C899 H917 0.929 . S
C900 C897 1.424 . S
C900 C899 1.384 . S
C900 H918 0.928 . S
C901 C898 1.260 . S
C901 C899 1.479 . S
C902 C897 1.245 . S
C902 C898 1.477 . S
C902 H919 0.932 . S
C903 U886 2.882 . S
C903 C897 1.428 . S
C903 O906 1.301 . S
C903 O907 1.282 . S
O904 U886 2.441 . S
O904 C890 1.249 . S
O905 U886 2.420 . S
O905 C890 1.202 . S
O906 U886 2.455 . S
O906 C903 1.301 . S
O907 U886 2.449 . S
O907 C903 1.282 . S
H908 C881 0.931 . S
H909 C883 0.929 . S
H910 C884 0.930 . S
H911 C885 0.931 . S
H912 C892 0.932 . S
H913 C893 0.930 . S
H914 C894 0.929 . S
H915 C896 0.930 . S
H916 C898 0.932 . S
H917 C899 0.929 . S
H918 C900 0.928 . S
H919 C902 0.932 . S
C920 C921 1.264 . S
C920 C925 1.479 . S
C920 C930 1.465 . S
C921 C920 1.264 . S
C921 C923 1.339 . S
C921 H948 0.931 . S
C922 C923 1.395 . S
C922 C924 1.320 . S
C923 C921 1.339 . S
C923 C922 1.395 . S
C923 H949 0.929 . S
C924 C922 1.320 . S
C924 C925 1.405 . S
C924 H950 0.920 1_655 S
C925 C920 1.479 . S
C925 C924 1.405 . S
C925 H951 0.931 . S
U926 O927 2.454 . S
U926 O928 2.458 . S
U926 C929 2.984 . S
U926 C930 2.847 . S
U926 C943 2.882 . S
U926 O944 2.441 . S
U926 O945 2.420 . S
U926 O946 2.455 . S
U926 O947 2.449 . S
O927 U926 2.454 . S
O927 C929 1.353 . S
O928 U926 2.458 . S
O928 C929 1.286 . S
C929 U926 2.984 . S
C929 O927 1.353 . S
C929 O928 1.286 . S
C929 C931 1.363 . S
C930 C920 1.465 . S
C930 U926 2.847 . S
C930 O944 1.249 . S
C930 O945 1.202 . S
C931 C929 1.363 . S
C931 C933 1.408 . S
C931 C936 1.342 . S
C932 C933 1.310 . S
C932 C935 1.460 . S
C932 H952 0.932 . S
C933 C931 1.408 . S
C933 C932 1.310 . S
C933 H953 0.930 . S
C934 C935 1.475 1_455 S
C934 C936 1.286 1_455 S
C934 H954 0.930 . S
C935 C932 1.460 . S
C935 C934 1.475 1_655 S
C936 C931 1.342 . S
C936 C934 1.286 1_655 S
C936 H955 0.929 . S
C937 C940 1.424 . S
C937 C942 1.245 . S
C937 C943 1.428 . S
C938 C941 1.260 . S
C938 C942 1.477 . S
C938 H956 0.932 . S
C939 C940 1.384 . S
C939 C941 1.479 . S
C939 H957 0.929 . S
C940 C937 1.424 . S
C940 C939 1.384 . S
C940 H958 0.928 . S
C941 C938 1.260 . S
C941 C939 1.479 . S
C942 C937 1.245 . S
C942 C938 1.477 . S
C942 H959 0.932 . S
C943 U926 2.882 . S
C943 C937 1.428 . S
C943 O946 1.301 . S
C943 O947 1.282 . S
O944 U926 2.441 . S
O944 C930 1.249 . S
O945 U926 2.420 . S
O945 C930 1.202 . S
O946 U926 2.455 . S
O946 C943 1.301 . S
O947 U926 2.449 . S
O947 C943 1.282 . S
H948 C921 0.931 . S
H949 C923 0.929 . S
H950 C924 0.920 1_455 S
H951 C925 0.931 . S
H952 C932 0.932 . S
H953 C933 0.930 . S
H954 C934 0.930 . S
H955 C936 0.929 . S
H956 C938 0.932 . S
H957 C939 0.929 . S
H958 C940 0.928 . S
H959 C942 0.932 . S
H960 C963 0.929 . S
H961 C966 0.929 . S
H962 C968 0.930 . S
C963 H960 0.929 . S
C963 C964 1.398 . S
C963 C965 1.396 . S
C964 C963 1.398 . S
C964 C968 1.407 . S
C965 C963 1.396 . S
C965 C966 1.394 . S
C966 H961 0.929 . S
C966 C965 1.394 . S
C966 C967 1.382 . S
C967 C966 1.382 . S
C967 C968 1.392 . S
C967 N969 1.420 . S
C968 H962 0.930 . S
C968 C964 1.407 . S
C968 C967 1.392 . S
N969 C967 1.420 . S
N969 C970 1.244 . S
C970 N969 1.244 . S
H971 C974 0.929 . S
H972 C977 0.929 . S
H973 C979 0.930 . S
C974 H971 0.929 . S
C974 C975 1.398 1_556 S
C974 C976 1.396 . S
C975 C974 1.398 1_554 S
C975 C979 1.407 . S
C976 C974 1.396 . S
C976 C977 1.394 . S
C977 H972 0.929 . S
C977 C976 1.394 . S
C977 C978 1.382 1_556 S
C978 C977 1.382 1_554 S
C978 C979 1.392 . S
C978 N980 1.420 . S
C979 H973 0.930 . S
C979 C975 1.407 . S
C979 C978 1.392 . S
N980 C978 1.420 . S
N980 C981 1.244 . S
C981 N980 1.244 . S
H982 C985 0.929 . S
H983 C988 0.929 . S
H984 C990 0.930 . S
C985 H982 0.929 . S
C985 C986 1.398 . S
C985 C987 1.396 . S
C986 C985 1.398 . S
C986 C990 1.407 . S
C987 C985 1.396 . S
C987 C988 1.394 1_565 S
C988 H983 0.929 . S
C988 C987 1.394 1_545 S
C988 C989 1.382 . S
C989 C988 1.382 . S
C989 C990 1.392 1_545 S
C989 N991 1.420 . S
C990 H984 0.930 . S
C990 C986 1.407 . S
C990 C989 1.392 1_565 S
N991 C989 1.420 . S
N991 C992 1.244 . S
C992 N991 1.244 . S
H993 C996 0.929 . S
H994 C999 0.929 . S
H995 C1001 0.930 . S
C996 H993 0.929 . S
C996 C997 1.398 1_554 S
C996 C998 1.396 . S
C997 C996 1.398 1_556 S
C997 C1001 1.407 . S
C998 C996 1.396 . S
C998 C999 1.394 . S
C999 H994 0.929 . S
C999 C998 1.394 . S
C999 C1000 1.382 1_554 S
C1000 C999 1.382 1_556 S
C1000 C1001 1.392 . S
C1000 N1002 1.420 . S
C1001 H995 0.930 . S
C1001 C997 1.407 . S
C1001 C1000 1.392 . S
N1002 C1000 1.420 . S
N1002 C1003 1.244 . S
C1003 N1002 1.244 . S
H1004 C1007 0.929 . S
H1005 C1010 0.929 . S
H1006 C1012 0.930 . S
C1007 H1004 0.929 . S
C1007 C1008 1.398 . S
C1007 C1009 1.396 . S
C1008 C1007 1.398 . S
C1008 C1012 1.407 . S
C1009 C1007 1.396 . S
C1009 C1010 1.394 . S
C1010 H1005 0.929 . S
C1010 C1009 1.394 . S
C1010 C1011 1.382 . S
C1011 C1010 1.382 . S
C1011 C1012 1.392 . S
C1011 N1013 1.420 . S
C1012 H1006 0.930 . S
C1012 C1008 1.407 . S
C1012 C1011 1.392 . S
N1013 C1011 1.420 . S
N1013 C1014 1.244 . S
C1014 N1013 1.244 . S
H1015 C1018 0.929 . S
H1016 C1021 0.929 . S
H1017 C1023 0.930 . S
C1018 H1015 0.929 . S
C1018 C1019 1.398 1_455 S
C1018 C1020 1.396 . S
C1019 C1018 1.398 1_655 S
C1019 C1023 1.407 . S
C1020 C1018 1.396 . S
C1020 C1021 1.394 . S
C1021 H1016 0.929 . S
C1021 C1020 1.394 . S
C1021 C1022 1.382 1_455 S
C1022 C1021 1.382 1_655 S
C1022 C1023 1.392 . S
C1022 N1024 1.420 . S
C1023 H1017 0.930 . S
C1023 C1019 1.407 . S
C1023 C1022 1.392 . S
N1024 C1022 1.420 . S
N1024 C1025 1.244 . S
C1025 N1024 1.244 . S
H1026 C1029 0.929 . S
H1027 C1032 0.929 . S
H1028 C1034 0.930 . S
C1029 H1026 0.929 . S
C1029 C1030 1.398 1_655 S
C1029 C1031 1.396 . S
C1030 C1029 1.398 1_455 S
C1030 C1034 1.407 . S
C1031 C1029 1.396 . S
C1031 C1032 1.394 . S
C1032 H1027 0.929 . S
C1032 C1031 1.394 . S
C1032 C1033 1.382 1_655 S
C1033 C1032 1.382 1_455 S
C1033 C1034 1.392 . S
C1033 N1035 1.420 . S
C1034 H1028 0.930 . S
C1034 C1030 1.407 . S
C1034 C1033 1.392 . S
N1035 C1033 1.420 . S
N1035 C1036 1.244 . S
C1036 N1035 1.244 . S
H1037 C1040 0.929 . S
H1038 C1043 0.929 . S
H1039 C1045 0.930 . S
C1040 H1037 0.929 . S
C1040 C1041 1.398 . S
C1040 C1042 1.396 . S
C1041 C1040 1.398 . S
C1041 C1045 1.407 . S
C1042 C1040 1.396 . S
C1042 C1043 1.394 1_556 S
C1043 H1038 0.929 . S
C1043 C1042 1.394 1_554 S
C1043 C1044 1.382 . S
C1044 C1043 1.382 . S
C1044 C1045 1.392 1_554 S
C1044 N1046 1.420 . S
C1045 H1039 0.930 . S
C1045 C1041 1.407 . S
C1045 C1044 1.392 1_556 S
N1046 C1044 1.420 . S
N1046 C1047 1.244 . S
C1047 N1046 1.244 . S
H1048 C1051 0.929 . S
H1049 C1054 0.929 . S
H1050 C1056 0.930 . S
C1051 H1048 0.929 . S
C1051 C1052 1.398 . S
C1051 C1053 1.396 . S
C1052 C1051 1.398 . S
C1052 C1056 1.407 . S
C1053 C1051 1.396 . S
C1053 C1054 1.394 . S
C1054 H1049 0.929 . S
C1054 C1053 1.394 . S
C1054 C1055 1.382 . S
C1055 C1054 1.382 . S
C1055 C1056 1.392 . S
C1055 N1057 1.420 . S
C1056 H1050 0.930 . S
C1056 C1052 1.407 . S
C1056 C1055 1.392 . S
N1057 C1055 1.420 . S
N1057 C1058 1.244 . S
C1058 N1057 1.244 . S
H1059 C1062 0.929 . S
H1060 C1065 0.929 . S
H1061 C1067 0.930 . S
C1062 H1059 0.929 . S
C1062 C1063 1.398 1_545 S
C1062 C1064 1.396 . S
C1063 C1062 1.398 1_565 S
C1063 C1067 1.407 . S
C1064 C1062 1.396 . S
C1064 C1065 1.394 . S
C1065 H1060 0.929 . S
C1065 C1064 1.394 . S
C1065 C1066 1.382 1_545 S
C1066 C1065 1.382 1_565 S
C1066 C1067 1.392 . S
C1066 N1068 1.420 . S
C1067 H1061 0.930 . S
C1067 C1063 1.407 . S
C1067 C1066 1.392 . S
N1068 C1066 1.420 . S
N1068 C1069 1.244 . S
C1069 N1068 1.244 . S
H1070 C1073 0.929 . S
H1071 C1076 0.929 . S
H1072 C1078 0.930 . S
C1073 H1070 0.929 . S
C1073 C1074 1.398 1_565 S
C1073 C1075 1.396 . S
C1074 C1073 1.398 1_545 S
C1074 C1078 1.407 . S
C1075 C1073 1.396 . S
C1075 C1076 1.394 . S
C1076 H1071 0.929 . S
C1076 C1075 1.394 . S
C1076 C1077 1.382 1_565 S
C1077 C1076 1.382 1_545 S
C1077 C1078 1.392 . S
C1077 N1079 1.420 . S
C1078 H1072 0.930 . S
C1078 C1074 1.407 . S
C1078 C1077 1.392 . S
N1079 C1077 1.420 . S
N1079 C1080 1.244 . S
C1080 N1079 1.244 . S
H1081 C1084 0.929 . S
H1082 C1087 0.929 . S
H1083 C1089 0.930 . S
C1084 H1081 0.929 . S
C1084 C1085 1.398 . S
C1084 C1086 1.396 . S
C1085 C1084 1.398 . S
C1085 C1089 1.407 . S
C1086 C1084 1.396 . S
C1086 C1087 1.394 1_655 S
C1087 H1082 0.929 . S
C1087 C1086 1.394 1_455 S
C1087 C1088 1.382 . S
C1088 C1087 1.382 . S
C1088 C1089 1.392 1_455 S
C1088 N1090 1.420 . S
C1089 H1083 0.930 . S
C1089 C1085 1.407 . S
C1089 C1088 1.392 1_655 S
N1090 C1088 1.420 . S
N1090 C1091 1.244 . S
C1091 N1090 1.244 . S
H1092 C1095 0.929 . S
H1093 C1098 0.929 . S
H1094 C1100 0.930 . S
C1095 H1092 0.929 . S
C1095 C1096 1.398 . S
C1095 C1097 1.396 . S
C1096 C1095 1.398 . S
C1096 C1100 1.407 . S
C1097 C1095 1.396 . S
C1097 C1098 1.394 . S
C1098 H1093 0.929 . S
C1098 C1097 1.394 . S
C1098 C1099 1.382 . S
C1099 C1098 1.382 . S
C1099 C1100 1.392 . S
C1099 N1101 1.420 . S
C1100 H1094 0.930 . S
C1100 C1096 1.407 . S
C1100 C1099 1.392 . S
N1101 C1099 1.420 . S
N1101 C1102 1.244 . S
C1102 N1101 1.244 . S
H1103 C1106 0.929 . S
H1104 C1109 0.929 . S
H1105 C1111 0.930 . S
C1106 H1103 0.929 . S
C1106 C1107 1.398 1_554 S
C1106 C1108 1.396 . S
C1107 C1106 1.398 1_556 S
C1107 C1111 1.407 . S
C1108 C1106 1.396 . S
C1108 C1109 1.394 . S
C1109 H1104 0.929 . S
C1109 C1108 1.394 . S
C1109 C1110 1.382 1_554 S
C1110 C1109 1.382 1_556 S
C1110 C1111 1.392 . S
C1110 N1112 1.420 . S
C1111 H1105 0.930 . S
C1111 C1107 1.407 . S
C1111 C1110 1.392 . S
N1112 C1110 1.420 . S
N1112 C1113 1.244 . S
C1113 N1112 1.244 . S
H1114 C1117 0.929 . S
H1115 C1120 0.929 . S
H1116 C1122 0.930 . S
C1117 H1114 0.929 . S
C1117 C1118 1.398 . S
C1117 C1119 1.396 . S
C1118 C1117 1.398 . S
C1118 C1122 1.407 . S
C1119 C1117 1.396 . S
C1119 C1120 1.394 1_545 S
C1120 H1115 0.929 . S
C1120 C1119 1.394 1_565 S
C1120 C1121 1.382 . S
C1121 C1120 1.382 . S
C1121 C1122 1.392 1_565 S
C1121 N1123 1.420 . S
C1122 H1116 0.930 . S
C1122 C1118 1.407 . S
C1122 C1121 1.392 1_545 S
N1123 C1121 1.420 . S
N1123 C1124 1.244 . S
C1124 N1123 1.244 . S
H1125 C1128 0.929 . S
H1126 C1131 0.929 . S
H1127 C1133 0.930 . S
C1128 H1125 0.929 . S
C1128 C1129 1.398 1_556 S
C1128 C1130 1.396 . S
C1129 C1128 1.398 1_554 S
C1129 C1133 1.407 . S
C1130 C1128 1.396 . S
C1130 C1131 1.394 . S
C1131 H1126 0.929 . S
C1131 C1130 1.394 . S
C1131 C1132 1.382 1_556 S
C1132 C1131 1.382 1_554 S
C1132 C1133 1.392 . S
C1132 N1134 1.420 . S
C1133 H1127 0.930 . S
C1133 C1129 1.407 . S
C1133 C1132 1.392 . S
N1134 C1132 1.420 . S
N1134 C1135 1.244 . S
C1135 N1134 1.244 . S
H1136 C1139 0.929 . S
H1137 C1142 0.929 . S
H1138 C1144 0.930 . S
C1139 H1136 0.929 . S
C1139 C1140 1.398 . S
C1139 C1141 1.396 . S
C1140 C1139 1.398 . S
C1140 C1144 1.407 . S
C1141 C1139 1.396 . S
C1141 C1142 1.394 . S
C1142 H1137 0.929 . S
C1142 C1141 1.394 . S
C1142 C1143 1.382 . S
C1143 C1142 1.382 . S
C1143 C1144 1.392 . S
C1143 N1145 1.420 . S
C1144 H1138 0.930 . S
C1144 C1140 1.407 . S
C1144 C1143 1.392 . S
N1145 C1143 1.420 . S
N1145 C1146 1.244 . S
C1146 N1145 1.244 . S
H1147 C1150 0.929 . S
H1148 C1153 0.929 . S
H1149 C1155 0.930 . S
C1150 H1147 0.929 . S
C1150 C1151 1.398 1_655 S
C1150 C1152 1.396 . S
C1151 C1150 1.398 1_455 S
C1151 C1155 1.407 . S
C1152 C1150 1.396 . S
C1152 C1153 1.394 . S
C1153 H1148 0.929 . S
C1153 C1152 1.394 . S
C1153 C1154 1.382 1_655 S
C1154 C1153 1.382 1_455 S
C1154 C1155 1.392 . S
C1154 N1156 1.420 . S
C1155 H1149 0.930 . S
C1155 C1151 1.407 . S
C1155 C1154 1.392 . S
N1156 C1154 1.420 . S
N1156 C1157 1.244 . S
C1157 N1156 1.244 . S
H1158 C1161 0.929 . S
H1159 C1164 0.929 . S
H1160 C1166 0.930 . S
C1161 H1158 0.929 . S
C1161 C1162 1.398 1_455 S
C1161 C1163 1.396 . S
C1162 C1161 1.398 1_655 S
C1162 C1166 1.407 . S
C1163 C1161 1.396 . S
C1163 C1164 1.394 . S
C1164 H1159 0.929 . S
C1164 C1163 1.394 . S
C1164 C1165 1.382 1_455 S
C1165 C1164 1.382 1_655 S
C1165 C1166 1.392 . S
C1165 N1167 1.420 . S
C1166 H1160 0.930 . S
C1166 C1162 1.407 . S
C1166 C1165 1.392 . S
N1167 C1165 1.420 . S
N1167 C1168 1.244 . S
C1168 N1167 1.244 . S
H1169 C1172 0.929 . S
H1170 C1175 0.929 . S
H1171 C1177 0.930 . S
C1172 H1169 0.929 . S
C1172 C1173 1.398 . S
C1172 C1174 1.396 . S
C1173 C1172 1.398 . S
C1173 C1177 1.407 . S
C1174 C1172 1.396 . S
C1174 C1175 1.394 1_554 S
C1175 H1170 0.929 . S
C1175 C1174 1.394 1_556 S
C1175 C1176 1.382 . S
C1176 C1175 1.382 . S
C1176 C1177 1.392 1_556 S
C1176 N1178 1.420 . S
C1177 H1171 0.930 . S
C1177 C1173 1.407 . S
C1177 C1176 1.392 1_554 S
N1178 C1176 1.420 . S
N1178 C1179 1.244 . S
C1179 N1178 1.244 . S
H1180 C1183 0.929 . S
H1181 C1186 0.929 . S
H1182 C1188 0.930 . S
C1183 H1180 0.929 . S
C1183 C1184 1.398 . S
C1183 C1185 1.396 . S
C1184 C1183 1.398 . S
C1184 C1188 1.407 . S
C1185 C1183 1.396 . S
C1185 C1186 1.394 . S
C1186 H1181 0.929 . S
C1186 C1185 1.394 . S
C1186 C1187 1.382 . S
C1187 C1186 1.382 . S
C1187 C1188 1.392 . S
C1187 N1189 1.420 . S
C1188 H1182 0.930 . S
C1188 C1184 1.407 . S
C1188 C1187 1.392 . S
N1189 C1187 1.420 . S
N1189 C1190 1.244 . S
C1190 N1189 1.244 . S
H1191 C1194 0.929 . S
H1192 C1197 0.929 . S
H1193 C1199 0.930 . S
C1194 H1191 0.929 . S
C1194 C1195 1.398 1_565 S
C1194 C1196 1.396 . S
C1195 C1194 1.398 1_545 S
C1195 C1199 1.407 . S
C1196 C1194 1.396 . S
C1196 C1197 1.394 . S
C1197 H1192 0.929 . S
C1197 C1196 1.394 . S
C1197 C1198 1.382 1_565 S
C1198 C1197 1.382 1_545 S
C1198 C1199 1.392 . S
C1198 N1200 1.420 . S
C1199 H1193 0.930 . S
C1199 C1195 1.407 . S
C1199 C1198 1.392 . S
N1200 C1198 1.420 . S
N1200 C1201 1.244 . S
C1201 N1200 1.244 . S
H1202 C1205 0.929 . S
H1203 C1208 0.929 . S
H1204 C1210 0.930 . S
C1205 H1202 0.929 . S
C1205 C1206 1.398 1_545 S
C1205 C1207 1.396 . S
C1206 C1205 1.398 1_565 S
C1206 C1210 1.407 . S
C1207 C1205 1.396 . S
C1207 C1208 1.394 . S
C1208 H1203 0.929 . S
C1208 C1207 1.394 . S
C1208 C1209 1.382 1_545 S
C1209 C1208 1.382 1_565 S
C1209 C1210 1.392 . S
C1209 N1211 1.420 . S
C1210 H1204 0.930 . S
C1210 C1206 1.407 . S
C1210 C1209 1.392 . S
N1211 C1209 1.420 . S
N1211 C1212 1.244 . S
C1212 N1211 1.244 . S
H1213 C1216 0.929 . S
H1214 C1219 0.929 . S
H1215 C1221 0.930 . S
C1216 H1213 0.929 . S
C1216 C1217 1.398 . S
C1216 C1218 1.396 . S
C1217 C1216 1.398 . S
C1217 C1221 1.407 . S
C1218 C1216 1.396 . S
C1218 C1219 1.394 1_455 S
C1219 H1214 0.929 . S
C1219 C1218 1.394 1_655 S
C1219 C1220 1.382 . S
C1220 C1219 1.382 . S
C1220 C1221 1.392 1_655 S
C1220 N1222 1.420 . S
C1221 H1215 0.930 . S
C1221 C1217 1.407 . S
C1221 C1220 1.392 1_455 S
N1222 C1220 1.420 . S
N1222 C1223 1.244 . S
C1223 N1222 1.244 . S
H1224 C1236 0.930 . S
H1225 C1238 0.930 . S
H1226 C1239 0.930 . S
H1227 C1243 0.959 . S
H1228 C1243 0.959 . S
H1229 C1243 0.961 . S
H1230 C1244 0.960 . S
H1231 C1244 0.961 . S
H1232 C1244 0.959 . S
H1233 C1247 0.929 . S
H1234 C1248 0.931 . S
H1235 C1250 0.930 . S
C1236 H1224 0.930 . S
C1236 C1237 1.399 . S
C1236 C1241 1.399 . S
C1237 C1236 1.399 . S
C1237 C1238 1.376 . S
C1238 H1225 0.930 . S
C1238 C1237 1.376 . S
C1238 C1239 1.388 . S
C1239 H1226 0.930 . S
C1239 C1238 1.388 . S
C1239 C1240 1.390 . S
C1240 C1239 1.390 . S
C1240 C1241 1.394 . S
C1240 C1246 1.465 . S
C1241 C1236 1.399 . S
C1241 C1240 1.394 . S
C1241 C1242 1.516 . S
C1242 C1241 1.516 . S
C1242 C1243 1.502 . S
C1242 C1244 1.561 . S
C1242 C1245 1.526 . S
C1243 H1227 0.959 . S
C1243 H1228 0.959 . S
C1243 H1229 0.961 . S
C1243 C1242 1.502 . S
C1244 H1230 0.960 . S
C1244 H1231 0.961 . S
C1244 H1232 0.959 . S
C1244 C1242 1.561 . S
C1245 C1242 1.526 . S
C1245 C1246 1.396 . S
C1245 C1250 1.390 . S
C1246 C1240 1.465 . S
C1246 C1245 1.396 . S
C1246 C1247 1.399 . S
C1247 H1233 0.929 . S
C1247 C1246 1.399 . S
C1247 C1248 1.385 . S
C1248 H1234 0.931 . S
C1248 C1247 1.385 . S
C1248 C1249 1.389 . S
C1249 C1248 1.389 . S
C1249 C1250 1.387 . S
C1250 H1235 0.930 . S
C1250 C1245 1.390 . S
C1250 C1249 1.387 . S
H1251 C1263 0.930 . S
H1252 C1265 0.930 . S
H1253 C1266 0.930 . S
H1254 C1270 0.959 . S
H1255 C1270 0.959 . S
H1256 C1270 0.961 . S
H1257 C1271 0.960 . S
H1258 C1271 0.961 . S
H1259 C1271 0.959 . S
H1260 C1274 0.929 . S
H1261 C1275 0.931 . S
H1262 C1277 0.930 . S
C1263 H1251 0.930 . S
C1263 C1264 1.399 . S
C1263 C1268 1.399 . S
C1264 C1263 1.399 . S
C1264 C1265 1.376 . S
C1265 H1252 0.930 . S
C1265 C1264 1.376 . S
C1265 C1266 1.388 . S
C1266 H1253 0.930 . S
C1266 C1265 1.388 . S
C1266 C1267 1.390 . S
C1267 C1266 1.390 . S
C1267 C1268 1.394 . S
C1267 C1273 1.465 . S
C1268 C1263 1.399 . S
C1268 C1267 1.394 . S
C1268 C1269 1.516 . S
C1269 C1268 1.516 . S
C1269 C1270 1.502 . S
C1269 C1271 1.561 . S
C1269 C1272 1.526 . S
C1270 H1254 0.959 . S
C1270 H1255 0.959 . S
C1270 H1256 0.961 . S
C1270 C1269 1.502 . S
C1271 H1257 0.960 . S
C1271 H1258 0.961 . S
C1271 H1259 0.959 . S
C1271 C1269 1.561 . S
C1272 C1269 1.526 . S
C1272 C1273 1.396 . S
C1272 C1277 1.390 . S
C1273 C1267 1.465 . S
C1273 C1272 1.396 . S
C1273 C1274 1.399 . S
C1274 H1260 0.929 . S
C1274 C1273 1.399 . S
C1274 C1275 1.385 . S
C1275 H1261 0.931 . S
C1275 C1274 1.385 . S
C1275 C1276 1.389 . S
C1276 C1275 1.389 . S
C1276 C1277 1.387 . S
C1277 H1262 0.930 . S
C1277 C1272 1.390 . S
C1277 C1276 1.387 . S
H1278 C1290 0.930 . S
H1279 C1292 0.930 . S
H1280 C1293 0.930 . S
H1281 C1297 0.959 . S
H1282 C1297 0.959 . S
H1283 C1297 0.961 . S
H1284 C1298 0.960 . S
H1285 C1298 0.961 . S
H1286 C1298 0.959 . S
H1287 C1301 0.929 . S
H1288 C1302 0.931 . S
H1289 C1304 0.930 . S
C1290 H1278 0.930 . S
C1290 C1291 1.399 1_565 S
C1290 C1295 1.399 . S
C1291 C1290 1.399 1_545 S
C1291 C1292 1.376 . S
C1292 H1279 0.930 . S
C1292 C1291 1.376 . S
C1292 C1293 1.388 . S
C1293 H1280 0.930 . S
C1293 C1292 1.388 . S
C1293 C1294 1.390 . S
C1294 C1293 1.390 . S
C1294 C1295 1.394 1_545 S
C1294 C1300 1.465 1_545 S
C1295 C1290 1.399 . S
C1295 C1294 1.394 1_565 S
C1295 C1296 1.516 . S
C1296 C1295 1.516 . S
C1296 C1297 1.502 . S
C1296 C1298 1.561 . S
C1296 C1299 1.526 . S
C1297 H1281 0.959 . S
C1297 H1282 0.959 . S
C1297 H1283 0.961 . S
C1297 C1296 1.502 . S
C1298 H1284 0.960 . S
C1298 H1285 0.961 . S
C1298 H1286 0.959 . S
C1298 C1296 1.561 . S
C1299 C1296 1.526 . S
C1299 C1300 1.396 . S
C1299 C1304 1.390 . S
C1300 C1294 1.465 1_565 S
C1300 C1299 1.396 . S
C1300 C1301 1.399 1_565 S
C1301 H1287 0.929 . S
C1301 C1300 1.399 1_545 S
C1301 C1302 1.385 . S
C1302 H1288 0.931 . S
C1302 C1301 1.385 . S
C1302 C1303 1.389 1_545 S
C1303 C1302 1.389 1_565 S
C1303 C1304 1.387 . S
C1304 H1289 0.930 . S
C1304 C1299 1.390 . S
C1304 C1303 1.387 . S
H1305 C1317 0.930 . S
H1306 C1319 0.930 . S
H1307 C1320 0.930 . S
H1308 C1324 0.959 . S
H1309 C1324 0.959 . S
H1310 C1324 0.961 . S
H1311 C1325 0.960 . S
H1312 C1325 0.961 . S
H1313 C1325 0.959 . S
H1314 C1328 0.929 . S
H1315 C1329 0.931 . S
H1316 C1331 0.930 . S
C1317 H1305 0.930 . S
C1317 C1318 1.399 . S
C1317 C1322 1.399 . S
C1318 C1317 1.399 . S
C1318 C1319 1.376 1_545 S
C1319 H1306 0.930 . S
C1319 C1318 1.376 1_565 S
C1319 C1320 1.388 . S
C1320 H1307 0.930 . S
C1320 C1319 1.388 . S
C1320 C1321 1.390 1_565 S
C1321 C1320 1.390 1_545 S
C1321 C1322 1.394 . S
C1321 C1327 1.465 . S
C1322 C1317 1.399 . S
C1322 C1321 1.394 . S
C1322 C1323 1.516 . S
C1323 C1322 1.516 . S
C1323 C1324 1.502 . S
C1323 C1325 1.561 . S
C1323 C1326 1.526 . S
C1324 H1308 0.959 . S
C1324 H1309 0.959 . S
C1324 H1310 0.961 . S
C1324 C1323 1.502 . S
C1325 H1311 0.960 . S
C1325 H1312 0.961 . S
C1325 H1313 0.959 . S
C1325 C1323 1.561 . S
C1326 C1323 1.526 . S
C1326 C1327 1.396 . S
C1326 C1331 1.390 1_655 S
C1327 C1321 1.465 . S
C1327 C1326 1.396 . S
C1327 C1328 1.399 1_545 S
C1328 H1314 0.929 . S
C1328 C1327 1.399 1_565 S
C1328 C1329 1.385 1_655 S
C1329 H1315 0.931 . S
C1329 C1328 1.385 1_455 S
C1329 C1330 1.389 1_565 S
C1330 C1329 1.389 1_545 S
C1330 C1331 1.387 . S
C1331 H1316 0.930 . S
C1331 C1326 1.390 1_455 S
C1331 C1330 1.387 . S
H1332 C1344 0.930 . S
H1333 C1346 0.930 . S
H1334 C1347 0.930 . S
H1335 C1351 0.959 . S
H1336 C1351 0.959 . S
H1337 C1351 0.961 . S
H1338 C1352 0.960 . S
H1339 C1352 0.961 . S
H1340 C1352 0.959 . S
H1341 C1355 0.929 . S
H1342 C1356 0.931 . S
H1343 C1358 0.930 . S
C1344 H1332 0.930 . S
C1344 C1345 1.399 . S
C1344 C1349 1.399 . S
C1345 C1344 1.399 . S
C1345 C1346 1.376 . S
C1346 H1333 0.930 . S
C1346 C1345 1.376 . S
C1346 C1347 1.388 . S
C1347 H1334 0.930 . S
C1347 C1346 1.388 . S
C1347 C1348 1.390 . S
C1348 C1347 1.390 . S
C1348 C1349 1.394 . S
C1348 C1354 1.465 . S
C1349 C1344 1.399 . S
C1349 C1348 1.394 . S
C1349 C1350 1.516 . S
C1350 C1349 1.516 . S
C1350 C1351 1.502 . S
C1350 C1352 1.561 . S
C1350 C1353 1.526 . S
C1351 H1335 0.959 . S
C1351 H1336 0.959 . S
C1351 H1337 0.961 . S
C1351 C1350 1.502 . S
C1352 H1338 0.960 . S
C1352 H1339 0.961 . S
C1352 H1340 0.959 . S
C1352 C1350 1.561 . S
C1353 C1350 1.526 . S
C1353 C1354 1.396 . S
C1353 C1358 1.390 . S
C1354 C1348 1.465 . S
C1354 C1353 1.396 . S
C1354 C1355 1.399 . S
C1355 H1341 0.929 . S
C1355 C1354 1.399 . S
C1355 C1356 1.385 . S
C1356 H1342 0.931 . S
C1356 C1355 1.385 . S
C1356 C1357 1.389 . S
C1357 C1356 1.389 . S
C1357 C1358 1.387 . S
C1358 H1343 0.930 . S
C1358 C1353 1.390 . S
C1358 C1357 1.387 . S
H1359 C1371 0.930 . S
H1360 C1373 0.930 . S
H1361 C1374 0.930 . S
H1362 C1378 0.959 . S
H1363 C1378 0.959 . S
H1364 C1378 0.961 . S
H1365 C1379 0.960 . S
H1366 C1379 0.961 . S
H1367 C1379 0.959 . S
H1368 C1382 0.936 . S
H1369 C1383 0.931 . S
H1370 C1385 0.930 . S
C1371 H1359 0.930 . S
C1371 C1372 1.399 . S
C1371 C1376 1.399 . S
C1372 C1371 1.399 . S
C1372 C1373 1.376 1_554 S
C1373 H1360 0.930 . S
C1373 C1372 1.376 1_556 S
C1373 C1374 1.388 . S
C1374 H1361 0.930 . S
C1374 C1373 1.388 . S
C1374 C1375 1.390 1_556 S
C1375 C1374 1.390 1_554 S
C1375 C1376 1.394 . S
C1375 C1381 1.465 . S
C1376 C1371 1.399 . S
C1376 C1375 1.394 . S
C1376 C1377 1.516 . S
C1377 C1376 1.516 . S
C1377 C1378 1.502 . S
C1377 C1379 1.561 . S
C1377 C1380 1.526 . S
C1378 H1362 0.959 . S
C1378 H1363 0.959 . S
C1378 H1364 0.961 . S
C1378 C1377 1.502 . S
C1379 H1365 0.960 . S
C1379 H1366 0.961 . S
C1379 H1367 0.959 . S
C1379 C1377 1.561 . S
C1380 C1377 1.526 . S
C1380 C1381 1.396 . S
C1380 C1385 1.390 1_565 S
C1381 C1375 1.465 . S
C1381 C1380 1.396 . S
C1381 C1382 1.417 1_554 S
C1382 H1368 0.936 . S
C1382 C1381 1.417 1_556 S
C1382 C1383 1.360 1_565 S
C1383 H1369 0.931 . S
C1383 C1382 1.360 1_545 S
C1383 C1384 1.389 1_556 S
C1384 C1383 1.389 1_554 S
C1384 C1385 1.387 . S
C1385 H1370 0.930 . S
C1385 C1380 1.390 1_545 S
C1385 C1384 1.387 . S
H1386 C1398 0.930 . S
H1387 C1400 0.930 . S
H1388 C1401 0.930 . S
H1389 C1405 0.959 . S
H1390 C1405 0.959 . S
H1391 C1405 0.961 . S
H1392 C1406 0.960 . S
H1393 C1406 0.961 . S
H1394 C1406 0.959 . S
H1395 C1409 0.929 . S
H1396 C1410 0.931 . S
H1397 C1412 0.930 . S
C1398 H1386 0.930 . S
C1398 C1399 1.399 . S
C1398 C1403 1.399 . S
C1399 C1398 1.399 . S
C1399 C1400 1.376 . S
C1400 H1387 0.930 . S
C1400 C1399 1.376 . S
C1400 C1401 1.388 . S
C1401 H1388 0.930 . S
C1401 C1400 1.388 . S
C1401 C1402 1.390 . S
C1402 C1401 1.390 . S
C1402 C1403 1.394 . S
C1402 C1408 1.465 . S
C1403 C1398 1.399 . S
C1403 C1402 1.394 . S
C1403 C1404 1.516 . S
C1404 C1403 1.516 . S
C1404 C1405 1.502 . S
C1404 C1406 1.561 . S
C1404 C1407 1.526 . S
C1405 H1389 0.959 . S
C1405 H1390 0.959 . S
C1405 H1391 0.961 . S
C1405 C1404 1.502 . S
C1406 H1392 0.960 . S
C1406 H1393 0.961 . S
C1406 H1394 0.959 . S
C1406 C1404 1.561 . S
C1407 C1404 1.526 . S
C1407 C1408 1.396 . S
C1407 C1412 1.390 . S
C1408 C1402 1.465 . S
C1408 C1407 1.396 . S
C1408 C1409 1.399 . S
C1409 H1395 0.929 . S
C1409 C1408 1.399 . S
C1409 C1410 1.385 . S
C1410 H1396 0.931 . S
C1410 C1409 1.385 . S
C1410 C1411 1.389 . S
C1411 C1410 1.389 . S
C1411 C1412 1.387 . S
C1412 H1397 0.930 . S
C1412 C1407 1.390 . S
C1412 C1411 1.387 . S
H1413 C1425 0.930 . S
H1414 C1427 0.930 . S
H1415 C1428 0.930 . S
H1416 C1432 0.959 . S
H1417 C1432 0.959 . S
H1418 C1432 0.961 . S
H1419 C1433 0.960 . S
H1420 C1433 0.961 . S
H1421 C1433 0.959 . S
H1422 C1436 0.929 . S
H1423 C1437 0.931 . S
H1424 C1439 0.930 1_554 S
C1425 H1413 0.930 . S
C1425 C1426 1.399 1_554 S
C1425 C1430 1.399 . S
C1426 C1425 1.399 1_556 S
C1426 C1427 1.376 . S
C1427 H1414 0.930 . S
C1427 C1426 1.376 . S
C1427 C1428 1.388 . S
C1428 H1415 0.930 . S
C1428 C1427 1.388 . S
C1428 C1429 1.390 . S
C1429 C1428 1.390 . S
C1429 C1430 1.394 1_556 S
C1429 C1435 1.465 . S
C1430 C1425 1.399 . S
C1430 C1429 1.394 1_554 S
C1430 C1431 1.516 . S
C1431 C1430 1.516 . S
C1431 C1432 1.502 . S
C1431 C1433 1.561 . S
C1431 C1434 1.526 1_554 S
C1432 H1416 0.959 . S
C1432 H1417 0.959 . S
C1432 H1418 0.961 . S
C1432 C1431 1.502 . S
C1433 H1419 0.960 . S
C1433 H1420 0.961 . S
C1433 H1421 0.959 . S
C1433 C1431 1.561 . S
C1434 C1431 1.526 1_556 S
C1434 C1435 1.396 . S
C1434 C1439 1.390 . S
C1435 C1429 1.465 . S
C1435 C1434 1.396 . S
C1435 C1436 1.399 . S
C1436 H1422 0.929 . S
C1436 C1435 1.399 . S
C1436 C1437 1.385 . S
C1437 H1423 0.931 . S
C1437 C1436 1.385 . S
C1437 C1438 1.389 . S
C1438 C1437 1.389 . S
C1438 C1439 1.387 . S
C1439 H1424 0.930 1_556 S
C1439 C1434 1.390 . S
C1439 C1438 1.387 . S
H1440 C1452 0.930 . S
H1441 C1454 0.930 . S
H1442 C1455 0.930 . S
H1443 C1459 0.959 . S
H1444 C1459 0.959 . S
H1445 C1459 0.961 . S
H1446 C1460 0.960 . S
H1447 C1460 0.961 . S
H1448 C1460 0.959 . S
H1449 C1463 0.929 . S
H1450 C1464 0.931 . S
H1451 C1466 0.930 . S
C1452 H1440 0.930 . S
C1452 C1453 1.399 . S
C1452 C1457 1.399 . S
C1453 C1452 1.399 . S
C1453 C1454 1.376 . S
C1454 H1441 0.930 . S
C1454 C1453 1.376 . S
C1454 C1455 1.388 . S
C1455 H1442 0.930 . S
C1455 C1454 1.388 . S
C1455 C1456 1.390 . S
C1456 C1455 1.390 . S
C1456 C1457 1.394 . S
C1456 C1462 1.465 . S
C1457 C1452 1.399 . S
C1457 C1456 1.394 . S
C1457 C1458 1.516 . S
C1458 C1457 1.516 . S
C1458 C1459 1.502 . S
C1458 C1460 1.561 . S
C1458 C1461 1.526 . S
C1459 H1443 0.959 . S
C1459 H1444 0.959 . S
C1459 H1445 0.961 . S
C1459 C1458 1.502 . S
C1460 H1446 0.960 . S
C1460 H1447 0.961 . S
C1460 H1448 0.959 . S
C1460 C1458 1.561 . S
C1461 C1458 1.526 . S
C1461 C1462 1.396 . S
C1461 C1466 1.390 . S
C1462 C1456 1.465 . S
C1462 C1461 1.396 . S
C1462 C1463 1.399 . S
C1463 H1449 0.929 . S
C1463 C1462 1.399 . S
C1463 C1464 1.385 . S
C1464 H1450 0.931 . S
C1464 C1463 1.385 . S
C1464 C1465 1.389 . S
C1465 C1464 1.389 . S
C1465 C1466 1.387 . S
C1466 H1451 0.930 . S
C1466 C1461 1.390 . S
C1466 C1465 1.387 . S
H1467 C1479 0.930 . S
H1468 C1481 0.930 1_655 S
H1469 C1482 0.921 1_655 S
H1470 C1486 0.959 . S
H1471 C1486 0.959 . S
H1472 C1486 0.961 . S
H1473 C1487 0.960 . S
H1474 C1487 0.961 . S
H1475 C1487 0.959 1_655 S
H1476 C1490 0.929 1_655 S
H1477 C1491 0.941 . S
H1478 C1493 0.930 . S
C1479 H1467 0.930 . S
C1479 C1480 1.399 . S
C1479 C1484 1.399 . S
C1480 C1479 1.399 . S
C1480 C1481 1.376 . S
C1481 H1468 0.930 1_455 S
C1481 C1480 1.376 . S
C1481 C1482 1.393 . S
C1482 H1469 0.921 1_455 S
C1482 C1481 1.393 . S
C1482 C1483 1.395 . S
C1483 C1482 1.395 . S
C1483 C1484 1.394 . S
C1483 C1489 1.465 . S
C1484 C1479 1.399 . S
C1484 C1483 1.394 . S
C1484 C1485 1.516 . S
C1485 C1484 1.516 . S
C1485 C1486 1.502 . S
C1485 C1487 1.561 . S
C1485 C1488 1.526 . S
C1486 H1470 0.959 . S
C1486 H1471 0.959 . S
C1486 H1472 0.961 . S
C1486 C1485 1.502 . S
C1487 H1473 0.960 . S
C1487 H1474 0.961 . S
C1487 H1475 0.959 1_455 S
C1487 C1485 1.561 . S
C1488 C1485 1.526 . S
C1488 C1489 1.396 . S
C1488 C1493 1.390 1_556 S
C1489 C1483 1.465 . S
C1489 C1488 1.396 . S
C1489 C1490 1.399 . S
C1490 H1476 0.929 1_455 S
C1490 C1489 1.399 . S
C1490 C1491 1.385 1_556 S
C1491 H1477 0.941 . S
C1491 C1490 1.385 1_554 S
C1491 C1492 1.389 . S
C1492 C1491 1.389 . S
C1492 C1493 1.387 . S
C1493 H1478 0.930 . S
C1493 C1488 1.390 1_554 S
C1493 C1492 1.387 . S
H1494 C1506 0.930 . S
H1495 C1508 0.930 . S
H1496 C1509 0.930 . S
H1497 C1513 0.959 . S
H1498 C1513 0.959 . S
H1499 C1513 0.961 . S
H1500 C1514 0.960 . S
H1501 C1514 0.961 . S
H1502 C1514 0.959 . S
H1503 C1517 0.929 . S
H1504 C1518 0.931 . S
H1505 C1520 0.930 . S
C1506 H1494 0.930 . S
C1506 C1507 1.399 . S
C1506 C1511 1.399 . S
C1507 C1506 1.399 . S
C1507 C1508 1.376 . S
C1508 H1495 0.930 . S
C1508 C1507 1.376 . S
C1508 C1509 1.388 . S
C1509 H1496 0.930 . S
C1509 C1508 1.388 . S
C1509 C1510 1.390 . S
C1510 C1509 1.390 . S
C1510 C1511 1.394 . S
C1510 C1516 1.465 . S
C1511 C1506 1.399 . S
C1511 C1510 1.394 . S
C1511 C1512 1.516 . S
C1512 C1511 1.516 . S
C1512 C1513 1.502 . S
C1512 C1514 1.561 . S
C1512 C1515 1.526 . S
C1513 H1497 0.959 . S
C1513 H1498 0.959 . S
C1513 H1499 0.961 . S
C1513 C1512 1.502 . S
C1514 H1500 0.960 . S
C1514 H1501 0.961 . S
C1514 H1502 0.959 . S
C1514 C1512 1.561 . S
C1515 C1512 1.526 . S
C1515 C1516 1.396 . S
C1515 C1520 1.390 . S
C1516 C1510 1.465 . S
C1516 C1515 1.396 . S
C1516 C1517 1.399 . S
C1517 H1503 0.929 . S
C1517 C1516 1.399 . S
C1517 C1518 1.385 . S
C1518 H1504 0.931 . S
C1518 C1517 1.385 . S
C1518 C1519 1.389 . S
C1519 C1518 1.389 . S
C1519 C1520 1.387 . S
C1520 H1505 0.930 . S
C1520 C1515 1.390 . S
C1520 C1519 1.387 . S
H1521 C1533 0.927 1_455 S
H1522 C1535 0.930 . S
H1523 C1536 0.930 . S
H1524 C1540 0.959 . S
H1525 C1540 0.959 . S
H1526 C1540 0.961 . S
H1527 C1541 0.960 . S
H1528 C1541 0.961 . S
H1529 C1541 0.959 . S
H1530 C1544 0.929 . S
H1531 C1545 0.931 . S
H1532 C1547 0.930 . S
C1533 H1521 0.927 1_655 S
C1533 C1534 1.400 . S
C1533 C1538 1.400 . S
C1534 C1533 1.400 . S
C1534 C1535 1.376 . S
C1535 H1522 0.930 . S
C1535 C1534 1.376 . S
C1535 C1536 1.388 . S
C1536 H1523 0.930 . S
C1536 C1535 1.388 . S
C1536 C1537 1.390 . S
C1537 C1536 1.390 . S
C1537 C1538 1.394 . S
C1537 C1543 1.465 . S
C1538 C1533 1.400 . S
C1538 C1537 1.394 . S
C1538 C1539 1.516 . S
C1539 C1538 1.516 . S
C1539 C1540 1.502 1_655 S
C1539 C1541 1.561 . S
C1539 C1542 1.526 . S
C1540 H1524 0.959 . S
C1540 H1525 0.959 . S
C1540 H1526 0.961 . S
C1540 C1539 1.502 1_455 S
C1541 H1527 0.960 . S
C1541 H1528 0.961 . S
C1541 H1529 0.959 . S
C1541 C1539 1.561 . S
C1542 C1539 1.526 . S
C1542 C1543 1.396 . S
C1542 C1547 1.390 . S
C1543 C1537 1.465 . S
C1543 C1542 1.396 . S
C1543 C1544 1.399 . S
C1544 H1530 0.929 . S
C1544 C1543 1.399 . S
C1544 C1545 1.385 . S
C1545 H1531 0.931 . S
C1545 C1544 1.385 . S
C1545 C1546 1.389 . S
C1546 C1545 1.389 . S
C1546 C1547 1.387 . S
C1547 H1532 0.930 . S
C1547 C1542 1.390 . S
C1547 C1546 1.387 . S
H1548 C1560 0.930 . S
H1549 C1562 0.930 . S
H1550 C1563 0.930 . S
H1551 C1567 0.959 . S
H1552 C1567 0.959 . S
H1553 C1567 0.961 . S
H1554 C1568 0.960 . S
H1555 C1568 0.961 . S
H1556 C1568 0.959 . S
H1557 C1571 0.929 . S
H1558 C1572 0.931 . S
H1559 C1574 0.930 . S
C1560 H1548 0.930 . S
C1560 C1561 1.399 . S
C1560 C1565 1.399 . S
C1561 C1560 1.399 . S
C1561 C1562 1.376 . S
C1562 H1549 0.930 . S
C1562 C1561 1.376 . S
C1562 C1563 1.388 . S
C1563 H1550 0.930 . S
C1563 C1562 1.388 . S
C1563 C1564 1.390 . S
C1564 C1563 1.390 . S
C1564 C1565 1.394 . S
C1564 C1570 1.465 . S
C1565 C1560 1.399 . S
C1565 C1564 1.394 . S
C1565 C1566 1.516 . S
C1566 C1565 1.516 . S
C1566 C1567 1.502 . S
C1566 C1568 1.561 . S
C1566 C1569 1.526 . S
C1567 H1551 0.959 . S
C1567 H1552 0.959 . S
C1567 H1553 0.961 . S
C1567 C1566 1.502 . S
C1568 H1554 0.960 . S
C1568 H1555 0.961 . S
C1568 H1556 0.959 . S
C1568 C1566 1.561 . S
C1569 C1566 1.526 . S
C1569 C1570 1.396 . S
C1569 C1574 1.390 . S
C1570 C1564 1.465 . S
C1570 C1569 1.396 . S
C1570 C1571 1.399 . S
C1571 H1557 0.929 . S
C1571 C1570 1.399 . S
C1571 C1572 1.385 . S
C1572 H1558 0.931 . S
C1572 C1571 1.385 . S
C1572 C1573 1.389 . S
C1573 C1572 1.389 . S
C1573 C1574 1.387 . S
C1574 H1559 0.930 . S
C1574 C1569 1.390 . S
C1574 C1573 1.387 . S
H1575 C1587 0.930 . S
H1576 C1589 0.930 . S
H1577 C1590 0.930 . S
H1578 C1594 0.959 . S
H1579 C1594 0.959 . S
H1580 C1594 0.961 . S
H1581 C1595 0.960 . S
H1582 C1595 0.961 . S
H1583 C1595 0.959 . S
H1584 C1598 0.929 . S
H1585 C1599 0.931 . S
H1586 C1601 0.930 . S
C1587 H1575 0.930 . S
C1587 C1588 1.399 . S
C1587 C1592 1.399 . S
C1588 C1587 1.399 . S
C1588 C1589 1.376 . S
C1589 H1576 0.930 . S
C1589 C1588 1.376 . S
C1589 C1590 1.388 . S
C1590 H1577 0.930 . S
C1590 C1589 1.388 . S
C1590 C1591 1.390 . S
C1591 C1590 1.390 . S
C1591 C1592 1.394 . S
C1591 C1597 1.465 . S
C1592 C1587 1.399 . S
C1592 C1591 1.394 . S
C1592 C1593 1.516 . S
C1593 C1592 1.516 . S
C1593 C1594 1.502 . S
C1593 C1595 1.561 . S
C1593 C1596 1.526 . S
C1594 H1578 0.959 . S
C1594 H1579 0.959 . S
C1594 H1580 0.961 . S
C1594 C1593 1.502 . S
C1595 H1581 0.960 . S
C1595 H1582 0.961 . S
C1595 H1583 0.959 . S
C1595 C1593 1.561 . S
C1596 C1593 1.526 . S
C1596 C1597 1.396 . S
C1596 C1601 1.390 . S
C1597 C1591 1.465 . S
C1597 C1596 1.396 . S
C1597 C1598 1.399 . S
C1598 H1584 0.929 . S
C1598 C1597 1.399 . S
C1598 C1599 1.385 . S
C1599 H1585 0.931 . S
C1599 C1598 1.385 . S
C1599 C1600 1.389 . S
C1600 C1599 1.389 . S
C1600 C1601 1.387 . S
C1601 H1586 0.930 . S
C1601 C1596 1.390 . S
C1601 C1600 1.387 . S
H1602 C1614 0.930 . S
H1603 C1616 0.930 . S
H1604 C1617 0.930 . S
H1605 C1621 0.959 . S
H1606 C1621 0.959 . S
H1607 C1621 0.961 . S
H1608 C1622 0.960 . S
H1609 C1622 0.961 . S
H1610 C1622 0.959 . S
H1611 C1625 0.931 1_565 S
H1612 C1626 0.941 . S
H1613 C1628 0.930 . S
C1614 H1602 0.930 . S
C1614 C1615 1.396 1_545 S
C1614 C1619 1.399 . S
C1615 C1614 1.396 1_565 S
C1615 C1616 1.379 . S
C1616 H1603 0.930 . S
C1616 C1615 1.379 . S
C1616 C1617 1.388 . S
C1617 H1604 0.930 . S
C1617 C1616 1.388 . S
C1617 C1618 1.390 1_565 S
C1618 C1617 1.390 1_545 S
C1618 C1619 1.394 . S
C1618 C1624 1.465 . S
C1619 C1614 1.399 . S
C1619 C1618 1.394 . S
C1619 C1620 1.516 . S
C1620 C1619 1.516 . S
C1620 C1621 1.502 . S
C1620 C1622 1.561 . S
C1620 C1623 1.526 . S
C1621 H1605 0.959 . S
C1621 H1606 0.959 . S
C1621 H1607 0.961 . S
C1621 C1620 1.502 . S
C1622 H1608 0.960 . S
C1622 H1609 0.961 . S
C1622 H1610 0.959 . S
C1622 C1620 1.561 . S
C1623 C1620 1.526 . S
C1623 C1624 1.396 . S
C1623 C1628 1.390 . S
C1624 C1618 1.465 . S
C1624 C1623 1.396 . S
C1624 C1625 1.397 . S
C1625 H1611 0.931 1_545 S
C1625 C1624 1.397 . S
C1625 C1626 1.384 . S
C1626 H1612 0.941 . S
C1626 C1625 1.384 . S
C1626 C1627 1.389 . S
C1627 C1626 1.389 . S
C1627 C1628 1.387 . S
C1628 H1613 0.930 . S
C1628 C1623 1.390 . S
C1628 C1627 1.387 . S
H1629 C1641 0.930 . S
H1630 C1643 0.930 . S
H1631 C1644 0.930 . S
H1632 C1648 0.959 . S
H1633 C1648 0.959 . S
H1634 C1648 0.961 . S
H1635 C1649 0.960 . S
H1636 C1649 0.961 . S
H1637 C1649 0.959 . S
H1638 C1652 0.929 . S
H1639 C1653 0.931 . S
H1640 C1655 0.930 . S
C1641 H1629 0.930 . S
C1641 C1642 1.399 . S
C1641 C1646 1.399 . S
C1642 C1641 1.399 . S
C1642 C1643 1.376 1_565 S
C1643 H1630 0.930 . S
C1643 C1642 1.376 1_545 S
C1643 C1644 1.388 . S
C1644 H1631 0.930 . S
C1644 C1643 1.388 . S
C1644 C1645 1.390 1_545 S
C1645 C1644 1.390 1_565 S
C1645 C1646 1.394 . S
C1645 C1651 1.465 . S
C1646 C1641 1.399 . S
C1646 C1645 1.394 . S
C1646 C1647 1.516 . S
C1647 C1646 1.516 . S
C1647 C1648 1.502 . S
C1647 C1649 1.561 . S
C1647 C1650 1.526 . S
C1648 H1632 0.959 . S
C1648 H1633 0.959 . S
C1648 H1634 0.961 . S
C1648 C1647 1.502 . S
C1649 H1635 0.960 . S
C1649 H1636 0.961 . S
C1649 H1637 0.959 . S
C1649 C1647 1.561 . S
C1650 C1647 1.526 . S
C1650 C1651 1.396 . S
C1650 C1655 1.390 1_455 S
C1651 C1645 1.465 . S
C1651 C1650 1.396 . S
C1651 C1652 1.399 1_565 S
C1652 H1638 0.929 . S
C1652 C1651 1.399 1_545 S
C1652 C1653 1.385 1_455 S
C1653 H1639 0.931 . S
C1653 C1652 1.385 1_655 S
C1653 C1654 1.389 1_545 S
C1654 C1653 1.389 1_565 S
C1654 C1655 1.387 . S
C1655 H1640 0.930 . S
C1655 C1650 1.390 1_655 S
C1655 C1654 1.387 . S
H1656 C1668 0.930 . S
H1657 C1670 0.930 . S
H1658 C1671 0.930 . S
H1659 C1675 0.959 . S
H1660 C1675 0.959 . S
H1661 C1675 0.961 . S
H1662 C1676 0.960 . S
H1663 C1676 0.961 . S
H1664 C1676 0.959 . S
H1665 C1679 0.929 . S
H1666 C1680 0.931 . S
H1667 C1682 0.930 . S
C1668 H1656 0.930 . S
C1668 C1669 1.399 . S
C1668 C1673 1.399 . S
C1669 C1668 1.399 . S
C1669 C1670 1.376 . S
C1670 H1657 0.930 . S
C1670 C1669 1.376 . S
C1670 C1671 1.388 . S
C1671 H1658 0.930 . S
C1671 C1670 1.388 . S
C1671 C1672 1.390 . S
C1672 C1671 1.390 . S
C1672 C1673 1.394 . S
C1672 C1678 1.465 . S
C1673 C1668 1.399 . S
C1673 C1672 1.394 . S
C1673 C1674 1.516 . S
C1674 C1673 1.516 . S
C1674 C1675 1.502 . S
C1674 C1676 1.561 . S
C1674 C1677 1.526 . S
C1675 H1659 0.959 . S
C1675 H1660 0.959 . S
C1675 H1661 0.961 . S
C1675 C1674 1.502 . S
C1676 H1662 0.960 . S
C1676 H1663 0.961 . S
C1676 H1664 0.959 . S
C1676 C1674 1.561 . S
C1677 C1674 1.526 . S
C1677 C1678 1.396 . S
C1677 C1682 1.390 . S
C1678 C1672 1.465 . S
C1678 C1677 1.396 . S
C1678 C1679 1.399 . S
C1679 H1665 0.929 . S
C1679 C1678 1.399 . S
C1679 C1680 1.385 . S
C1680 H1666 0.931 . S
C1680 C1679 1.385 . S
C1680 C1681 1.389 . S
C1681 C1680 1.389 . S
C1681 C1682 1.387 . S
C1682 H1667 0.930 . S
C1682 C1677 1.390 . S
C1682 C1681 1.387 . S
H1683 C1695 0.930 . S
H1684 C1697 0.930 . S
H1685 C1698 0.930 . S
H1686 C1702 0.959 . S
H1687 C1702 0.959 . S
H1688 C1702 0.961 . S
H1689 C1703 0.960 . S
H1690 C1703 0.961 . S
H1691 C1703 0.959 . S
H1692 C1706 0.929 . S
H1693 C1707 0.931 . S
H1694 C1709 0.930 . S
C1695 H1683 0.930 . S
C1695 C1696 1.399 . S
C1695 C1700 1.399 . S
C1696 C1695 1.399 . S
C1696 C1697 1.376 1_556 S
C1697 H1684 0.930 . S
C1697 C1696 1.376 1_554 S
C1697 C1698 1.388 . S
C1698 H1685 0.930 . S
C1698 C1697 1.388 . S
C1698 C1699 1.390 1_554 S
C1699 C1698 1.390 1_556 S
C1699 C1700 1.394 . S
C1699 C1705 1.465 . S
C1700 C1695 1.399 . S
C1700 C1699 1.394 . S
C1700 C1701 1.516 . S
C1701 C1700 1.516 . S
C1701 C1702 1.502 . S
C1701 C1703 1.561 . S
C1701 C1704 1.526 . S
C1702 H1686 0.959 . S
C1702 H1687 0.959 . S
C1702 H1688 0.961 . S
C1702 C1701 1.502 . S
C1703 H1689 0.960 . S
C1703 H1690 0.961 . S
C1703 H1691 0.959 . S
C1703 C1701 1.561 . S
C1704 C1701 1.526 . S
C1704 C1705 1.396 . S
C1704 C1709 1.390 1_545 S
C1705 C1699 1.465 . S
C1705 C1704 1.396 . S
C1705 C1706 1.399 1_556 S
C1706 H1692 0.929 . S
C1706 C1705 1.399 1_554 S
C1706 C1707 1.385 1_545 S
C1707 H1693 0.931 . S
C1707 C1706 1.385 1_565 S
C1707 C1708 1.389 1_554 S
C1708 C1707 1.389 1_556 S
C1708 C1709 1.387 . S
C1709 H1694 0.930 . S
C1709 C1704 1.390 1_565 S
C1709 C1708 1.387 . S
H1710 C1722 0.930 . S
H1711 C1724 0.930 . S
H1712 C1725 0.930 . S
H1713 C1729 0.959 . S
H1714 C1729 0.959 . S
H1715 C1729 0.961 . S
H1716 C1730 0.960 . S
H1717 C1730 0.961 . S
H1718 C1730 0.959 . S
H1719 C1733 0.929 . S
H1720 C1734 0.931 . S
H1721 C1736 0.930 . S
C1722 H1710 0.930 . S
C1722 C1723 1.399 . S
C1722 C1727 1.399 . S
C1723 C1722 1.399 . S
C1723 C1724 1.376 . S
C1724 H1711 0.930 . S
C1724 C1723 1.376 . S
C1724 C1725 1.388 . S
C1725 H1712 0.930 . S
C1725 C1724 1.388 . S
C1725 C1726 1.390 . S
C1726 C1725 1.390 . S
C1726 C1727 1.394 . S
C1726 C1732 1.465 . S
C1727 C1722 1.399 . S
C1727 C1726 1.394 . S
C1727 C1728 1.516 . S
C1728 C1727 1.516 . S
C1728 C1729 1.502 . S
C1728 C1730 1.561 . S
C1728 C1731 1.526 . S
C1729 H1713 0.959 . S
C1729 H1714 0.959 . S
C1729 H1715 0.961 . S
C1729 C1728 1.502 . S
C1730 H1716 0.960 . S
C1730 H1717 0.961 . S
C1730 H1718 0.959 . S
C1730 C1728 1.561 . S
C1731 C1728 1.526 . S
C1731 C1732 1.396 . S
C1731 C1736 1.390 . S
C1732 C1726 1.465 . S
C1732 C1731 1.396 . S
C1732 C1733 1.399 . S
C1733 H1719 0.929 . S
C1733 C1732 1.399 . S
C1733 C1734 1.385 . S
C1734 H1720 0.931 . S
C1734 C1733 1.385 . S
C1734 C1735 1.389 . S
C1735 C1734 1.389 . S
C1735 C1736 1.387 . S
C1736 H1721 0.930 . S
C1736 C1731 1.390 . S
C1736 C1735 1.387 . S
H1737 C1749 0.930 . S
H1738 C1751 0.930 . S
H1739 C1752 0.930 . S
H1740 C1756 0.959 . S
H1741 C1756 0.959 . S
H1742 C1756 0.961 . S
H1743 C1757 0.960 . S
H1744 C1757 0.961 . S
H1745 C1757 0.959 . S
H1746 C1760 0.929 . S
H1747 C1761 0.931 . S
H1748 C1763 0.930 . S
C1749 H1737 0.930 . S
C1749 C1750 1.399 1_554 S
C1749 C1754 1.399 . S
C1750 C1749 1.399 1_556 S
C1750 C1751 1.376 . S
C1751 H1738 0.930 . S
C1751 C1750 1.376 . S
C1751 C1752 1.388 . S
C1752 H1739 0.930 . S
C1752 C1751 1.388 . S
C1752 C1753 1.390 . S
C1753 C1752 1.390 . S
C1753 C1754 1.394 1_556 S
C1753 C1759 1.465 1_556 S
C1754 C1749 1.399 . S
C1754 C1753 1.394 1_554 S
C1754 C1755 1.516 . S
C1755 C1754 1.516 . S
C1755 C1756 1.502 . S
C1755 C1757 1.561 . S
C1755 C1758 1.526 . S
C1756 H1740 0.959 . S
C1756 H1741 0.959 . S
C1756 H1742 0.961 . S
C1756 C1755 1.502 . S
C1757 H1743 0.960 . S
C1757 H1744 0.961 . S
C1757 H1745 0.959 . S
C1757 C1755 1.561 . S
C1758 C1755 1.526 . S
C1758 C1759 1.396 . S
C1758 C1763 1.390 . S
C1759 C1753 1.465 1_554 S
C1759 C1758 1.396 . S
C1759 C1760 1.399 1_554 S
C1760 H1746 0.929 . S
C1760 C1759 1.399 1_556 S
C1760 C1761 1.385 . S
C1761 H1747 0.931 . S
C1761 C1760 1.385 . S
C1761 C1762 1.389 1_556 S
C1762 C1761 1.389 1_554 S
C1762 C1763 1.387 . S
C1763 H1748 0.930 . S
C1763 C1758 1.390 . S
C1763 C1762 1.387 . S
H1764 C1776 0.930 . S
H1765 C1778 0.930 . S
H1766 C1779 0.930 . S
H1767 C1783 0.959 . S
H1768 C1783 0.959 . S
H1769 C1783 0.961 . S
H1770 C1784 0.960 . S
H1771 C1784 0.961 . S
H1772 C1784 0.959 . S
H1773 C1787 0.929 . S
H1774 C1788 0.931 . S
H1775 C1790 0.930 . S
C1776 H1764 0.930 . S
C1776 C1777 1.399 . S
C1776 C1781 1.399 . S
C1777 C1776 1.399 . S
C1777 C1778 1.376 . S
C1778 H1765 0.930 . S
C1778 C1777 1.376 . S
C1778 C1779 1.388 . S
C1779 H1766 0.930 . S
C1779 C1778 1.388 . S
C1779 C1780 1.390 . S
C1780 C1779 1.390 . S
C1780 C1781 1.394 . S
C1780 C1786 1.465 . S
C1781 C1776 1.399 . S
C1781 C1780 1.394 . S
C1781 C1782 1.516 . S
C1782 C1781 1.516 . S
C1782 C1783 1.502 . S
C1782 C1784 1.561 . S
C1782 C1785 1.526 . S
C1783 H1767 0.959 . S
C1783 H1768 0.959 . S
C1783 H1769 0.961 . S
C1783 C1782 1.502 . S
C1784 H1770 0.960 . S
C1784 H1771 0.961 . S
C1784 H1772 0.959 . S
C1784 C1782 1.561 . S
C1785 C1782 1.526 . S
C1785 C1786 1.396 . S
C1785 C1790 1.390 . S
C1786 C1780 1.465 . S
C1786 C1785 1.396 . S
C1786 C1787 1.399 . S
C1787 H1773 0.929 . S
C1787 C1786 1.399 . S
C1787 C1788 1.385 . S
C1788 H1774 0.931 . S
C1788 C1787 1.385 . S
C1788 C1789 1.389 . S
C1789 C1788 1.389 . S
C1789 C1790 1.387 . S
C1790 H1775 0.930 . S
C1790 C1785 1.390 . S
C1790 C1789 1.387 . S
H1791 C1803 0.930 . S
H1792 C1805 0.930 . S
H1793 C1806 0.930 . S
H1794 C1810 0.959 . S
H1795 C1810 0.959 . S
H1796 C1810 0.961 . S
H1797 C1811 0.960 . S
H1798 C1811 0.961 . S
H1799 C1811 0.959 . S
H1800 C1814 0.929 . S
H1801 C1815 0.931 . S
H1802 C1817 0.930 . S
C1803 H1791 0.930 . S
C1803 C1804 1.399 . S
C1803 C1808 1.399 . S
C1804 C1803 1.399 . S
C1804 C1805 1.376 . S
C1805 H1792 0.930 . S
C1805 C1804 1.376 . S
C1805 C1806 1.388 . S
C1806 H1793 0.930 . S
C1806 C1805 1.388 . S
C1806 C1807 1.390 . S
C1807 C1806 1.390 . S
C1807 C1808 1.394 . S
C1807 C1813 1.465 . S
C1808 C1803 1.399 . S
C1808 C1807 1.394 . S
C1808 C1809 1.516 . S
C1809 C1808 1.516 . S
C1809 C1810 1.502 1_655 S
C1809 C1811 1.561 . S
C1809 C1812 1.526 . S
C1810 H1794 0.959 . S
C1810 H1795 0.959 . S
C1810 H1796 0.961 . S
C1810 C1809 1.502 1_455 S
C1811 H1797 0.960 . S
C1811 H1798 0.961 . S
C1811 H1799 0.959 . S
C1811 C1809 1.561 . S
C1812 C1809 1.526 . S
C1812 C1813 1.396 . S
C1812 C1817 1.390 1_554 S
C1813 C1807 1.465 . S
C1813 C1812 1.396 . S
C1813 C1814 1.399 . S
C1814 H1800 0.929 . S
C1814 C1813 1.399 . S
C1814 C1815 1.385 1_554 S
C1815 H1801 0.931 . S
C1815 C1814 1.385 1_556 S
C1815 C1816 1.389 . S
C1816 C1815 1.389 . S
C1816 C1817 1.387 . S
C1817 H1802 0.930 . S
C1817 C1812 1.390 1_556 S
C1817 C1816 1.387 . S
H1818 C1830 0.930 . S
H1819 C1832 0.930 . S
H1820 C1833 0.930 . S
H1821 C1837 0.959 . S
H1822 C1837 0.959 . S
H1823 C1837 0.961 . S
H1824 C1838 0.960 . S
H1825 C1838 0.961 . S
H1826 C1838 0.959 . S
H1827 C1841 0.929 . S
H1828 C1842 0.931 . S
H1829 C1844 0.930 . S
C1830 H1818 0.930 . S
C1830 C1831 1.399 . S
C1830 C1835 1.399 . S
C1831 C1830 1.399 . S
C1831 C1832 1.376 . S
C1832 H1819 0.930 . S
C1832 C1831 1.376 . S
C1832 C1833 1.388 . S
C1833 H1820 0.930 . S
C1833 C1832 1.388 . S
C1833 C1834 1.390 . S
C1834 C1833 1.390 . S
C1834 C1835 1.394 . S
C1834 C1840 1.465 . S
C1835 C1830 1.399 . S
C1835 C1834 1.394 . S
C1835 C1836 1.516 . S
C1836 C1835 1.516 . S
C1836 C1837 1.502 . S
C1836 C1838 1.561 . S
C1836 C1839 1.526 . S
C1837 H1821 0.959 . S
C1837 H1822 0.959 . S
C1837 H1823 0.961 . S
C1837 C1836 1.502 . S
C1838 H1824 0.960 . S
C1838 H1825 0.961 . S
C1838 H1826 0.959 . S
C1838 C1836 1.561 . S
C1839 C1836 1.526 . S
C1839 C1840 1.396 . S
C1839 C1844 1.390 . S
C1840 C1834 1.465 . S
C1840 C1839 1.396 . S
C1840 C1841 1.399 . S
C1841 H1827 0.929 . S
C1841 C1840 1.399 . S
C1841 C1842 1.385 . S
C1842 H1828 0.931 . S
C1842 C1841 1.385 . S
C1842 C1843 1.389 . S
C1843 C1842 1.389 . S
C1843 C1844 1.387 . S
C1844 H1829 0.930 . S
C1844 C1839 1.390 . S
C1844 C1843 1.387 . S
H1845 C1857 0.930 . S
H1846 C1859 0.930 . S
H1847 C1860 0.932 1_655 S
H1848 C1864 0.959 . S
H1849 C1864 0.959 . S
H1850 C1864 0.961 . S
H1851 C1865 0.960 . S
H1852 C1865 0.961 . S
H1853 C1865 0.959 . S
H1854 C1868 0.929 . S
H1855 C1869 0.931 . S
H1856 C1871 0.930 . S
C1857 H1845 0.930 . S
C1857 C1858 1.398 1_455 S
C1857 C1862 1.399 . S
C1858 C1857 1.398 1_655 S
C1858 C1859 1.376 . S
C1859 H1846 0.930 . S
C1859 C1858 1.376 . S
C1859 C1860 1.388 1_655 S
C1860 H1847 0.932 1_455 S
C1860 C1859 1.388 1_455 S
C1860 C1861 1.390 . S
C1861 C1860 1.390 . S
C1861 C1862 1.394 . S
C1861 C1867 1.465 . S
C1862 C1857 1.399 . S
C1862 C1861 1.394 . S
C1862 C1863 1.516 . S
C1863 C1862 1.516 . S
C1863 C1864 1.502 . S
C1863 C1865 1.561 1_455 S
C1863 C1866 1.526 . S
C1864 H1848 0.959 . S
C1864 H1849 0.959 . S
C1864 H1850 0.961 . S
C1864 C1863 1.502 . S
C1865 H1851 0.960 . S
C1865 H1852 0.961 . S
C1865 H1853 0.959 . S
C1865 C1863 1.561 1_655 S
C1866 C1863 1.526 . S
C1866 C1867 1.396 . S
C1866 C1871 1.390 . S
C1867 C1861 1.465 . S
C1867 C1866 1.396 . S
C1867 C1868 1.399 . S
C1868 H1854 0.929 . S
C1868 C1867 1.399 . S
C1868 C1869 1.385 . S
C1869 H1855 0.931 . S
C1869 C1868 1.385 . S
C1869 C1870 1.389 . S
C1870 C1869 1.389 . S
C1870 C1871 1.387 . S
C1871 H1856 0.930 . S
C1871 C1866 1.390 . S
C1871 C1870 1.387 . S
H1872 C1884 0.930 . S
H1873 C1886 0.930 . S
H1874 C1887 0.930 . S
H1875 C1891 0.959 . S
H1876 C1891 0.959 . S
H1877 C1891 0.961 . S
H1878 C1892 0.960 . S
H1879 C1892 0.961 . S
H1880 C1892 0.959 . S
H1881 C1895 0.929 . S
H1882 C1896 0.931 . S
H1883 C1898 0.930 . S
C1884 H1872 0.930 . S
C1884 C1885 1.399 . S
C1884 C1889 1.399 . S
C1885 C1884 1.399 . S
C1885 C1886 1.376 . S
C1886 H1873 0.930 . S
C1886 C1885 1.376 . S
C1886 C1887 1.388 . S
C1887 H1874 0.930 . S
C1887 C1886 1.388 . S
C1887 C1888 1.390 . S
C1888 C1887 1.390 . S
C1888 C1889 1.394 . S
C1888 C1894 1.465 . S
C1889 C1884 1.399 . S
C1889 C1888 1.394 . S
C1889 C1890 1.516 . S
C1890 C1889 1.516 . S
C1890 C1891 1.502 . S
C1890 C1892 1.561 . S
C1890 C1893 1.526 . S
C1891 H1875 0.959 . S
C1891 H1876 0.959 . S
C1891 H1877 0.961 . S
C1891 C1890 1.502 . S
C1892 H1878 0.960 . S
C1892 H1879 0.961 . S
C1892 H1880 0.959 . S
C1892 C1890 1.561 . S
C1893 C1890 1.526 . S
C1893 C1894 1.396 . S
C1893 C1898 1.390 . S
C1894 C1888 1.465 . S
C1894 C1893 1.396 . S
C1894 C1895 1.399 . S
C1895 H1881 0.929 . S
C1895 C1894 1.399 . S
C1895 C1896 1.385 . S
C1896 H1882 0.931 . S
C1896 C1895 1.385 . S
C1896 C1897 1.389 . S
C1897 C1896 1.389 . S
C1897 C1898 1.387 . S
C1898 H1883 0.930 . S
C1898 C1893 1.390 . S
C1898 C1897 1.387 . S
H1899 C1911 0.930 . S
H1900 C1913 0.930 . S
H1901 C1914 0.930 . S
H1902 C1918 0.959 . S
H1903 C1918 0.959 . S
H1904 C1918 0.961 . S
H1905 C1919 0.960 . S
H1906 C1919 0.961 1_554 S
H1907 C1919 0.959 . S
H1908 C1922 0.929 . S
H1909 C1923 0.931 . S
H1910 C1925 0.930 . S
C1911 H1899 0.930 . S
C1911 C1912 1.399 . S
C1911 C1916 1.399 . S
C1912 C1911 1.399 . S
C1912 C1913 1.376 . S
C1913 H1900 0.930 . S
C1913 C1912 1.376 . S
C1913 C1914 1.388 . S
C1914 H1901 0.930 . S
C1914 C1913 1.388 . S
C1914 C1915 1.390 . S
C1915 C1914 1.390 . S
C1915 C1916 1.394 . S
C1915 C1921 1.465 . S
C1916 C1911 1.399 . S
C1916 C1915 1.394 . S
C1916 C1917 1.516 . S
C1917 C1916 1.516 . S
C1917 C1918 1.502 . S
C1917 C1919 1.561 . S
C1917 C1920 1.526 . S
C1918 H1902 0.959 . S
C1918 H1903 0.959 . S
C1918 H1904 0.961 . S
C1918 C1917 1.502 . S
C1919 H1905 0.960 . S
C1919 H1906 0.961 1_556 S
C1919 H1907 0.959 . S
C1919 C1917 1.561 . S
C1920 C1917 1.526 . S
C1920 C1921 1.396 . S
C1920 C1925 1.390 . S
C1921 C1915 1.465 . S
C1921 C1920 1.396 . S
C1921 C1922 1.399 . S
C1922 H1908 0.929 . S
C1922 C1921 1.399 . S
C1922 C1923 1.385 . S
C1923 H1909 0.931 . S
C1923 C1922 1.385 . S
C1923 C1924 1.389 . S
C1924 C1923 1.389 . S
C1924 C1925 1.387 . S
C1925 H1910 0.930 . S
C1925 C1920 1.390 . S
C1925 C1924 1.387 . S
H1926 C1938 0.930 . S
H1927 C1940 0.930 . S
H1928 C1941 0.930 . S
H1929 C1945 0.959 . S
H1930 C1945 0.959 . S
H1931 C1945 0.961 . S
H1932 C1946 0.960 . S
H1933 C1946 0.961 . S
H1934 C1946 0.959 . S
H1935 C1949 0.929 . S
H1936 C1950 0.931 . S
H1937 C1952 0.930 . S
C1938 H1926 0.930 . S
C1938 C1939 1.399 1_545 S
C1938 C1943 1.399 . S
C1939 C1938 1.399 1_565 S
C1939 C1940 1.376 . S
C1940 H1927 0.930 . S
C1940 C1939 1.376 . S
C1940 C1941 1.388 . S
C1941 H1928 0.930 . S
C1941 C1940 1.388 . S
C1941 C1942 1.390 . S
C1942 C1941 1.390 . S
C1942 C1943 1.394 1_565 S
C1942 C1948 1.465 . S
C1943 C1938 1.399 . S
C1943 C1942 1.394 1_545 S
C1943 C1944 1.516 . S
C1944 C1943 1.516 . S
C1944 C1945 1.502 . S
C1944 C1946 1.561 . S
C1944 C1947 1.526 . S
C1945 H1929 0.959 . S
C1945 H1930 0.959 . S
C1945 H1931 0.961 . S
C1945 C1944 1.502 . S
C1946 H1932 0.960 . S
C1946 H1933 0.961 . S
C1946 H1934 0.959 . S
C1946 C1944 1.561 . S
C1947 C1944 1.526 . S
C1947 C1948 1.396 1_545 S
C1947 C1952 1.390 . S
C1948 C1942 1.465 . S
C1948 C1947 1.396 1_565 S
C1948 C1949 1.399 . S
C1949 H1935 0.929 . S
C1949 C1948 1.399 . S
C1949 C1950 1.385 . S
C1950 H1936 0.931 . S
C1950 C1949 1.385 . S
C1950 C1951 1.389 . S
C1951 C1950 1.389 . S
C1951 C1952 1.387 1_565 S
C1952 H1937 0.930 . S
C1952 C1947 1.390 . S
C1952 C1951 1.387 1_545 S
H1953 C1965 0.930 . S
H1954 C1967 0.947 . S
H1955 C1968 0.930 . S
H1956 C1972 0.959 . S
H1957 C1972 0.959 . S
H1958 C1972 0.961 . S
H1959 C1973 0.960 . S
H1960 C1973 0.961 . S
H1961 C1973 0.959 . S
H1962 C1976 0.929 . S
H1963 C1977 0.931 . S
H1964 C1979 0.930 . S
C1965 H1953 0.930 . S
C1965 C1966 1.399 . S
C1965 C1970 1.399 . S
C1966 C1965 1.399 . S
C1966 C1967 1.376 . S
C1967 H1954 0.947 . S
C1967 C1966 1.376 . S
C1967 C1968 1.388 . S
C1968 H1955 0.930 . S
C1968 C1967 1.388 . S
C1968 C1969 1.390 . S
C1969 C1968 1.390 . S
C1969 C1970 1.394 . S
C1969 C1975 1.465 . S
C1970 C1965 1.399 . S
C1970 C1969 1.394 . S
C1970 C1971 1.516 . S
C1971 C1970 1.516 . S
C1971 C1972 1.502 . S
C1971 C1973 1.561 . S
C1971 C1974 1.526 . S
C1972 H1956 0.959 . S
C1972 H1957 0.959 . S
C1972 H1958 0.961 . S
C1972 C1971 1.502 . S
C1973 H1959 0.960 . S
C1973 H1960 0.961 . S
C1973 H1961 0.959 . S
C1973 C1971 1.561 . S
C1974 C1971 1.526 . S
C1974 C1975 1.396 . S
C1974 C1979 1.390 . S
C1975 C1969 1.465 . S
C1975 C1974 1.396 . S
C1975 C1976 1.399 . S
C1976 H1962 0.929 . S
C1976 C1975 1.399 . S
C1976 C1977 1.385 . S
C1977 H1963 0.931 . S
C1977 C1976 1.385 . S
C1977 C1978 1.389 . S
C1978 C1977 1.389 . S
C1978 C1979 1.387 . S
C1979 H1964 0.930 . S
C1979 C1974 1.390 . S
C1979 C1978 1.387 . S
H1980 C1992 0.930 . S
H1981 C1994 0.930 . S
H1982 C1995 0.930 . S
H1983 C1999 0.959 . S
H1984 C1999 0.959 . S
H1985 C1999 0.961 . S
H1986 C2000 0.960 . S
H1987 C2000 0.961 . S
H1988 C2000 0.959 . S
H1989 C2003 0.929 . S
H1990 C2004 0.931 . S
H1991 C2006 0.930 . S
C1992 H1980 0.930 . S
C1992 C1993 1.399 . S
C1992 C1997 1.399 . S
C1993 C1992 1.399 . S
C1993 C1994 1.376 . S
C1994 H1981 0.930 . S
C1994 C1993 1.376 . S
C1994 C1995 1.388 . S
C1995 H1982 0.930 . S
C1995 C1994 1.388 . S
C1995 C1996 1.390 . S
C1996 C1995 1.390 . S
C1996 C1997 1.394 . S
C1996 C2002 1.465 . S
C1997 C1992 1.399 . S
C1997 C1996 1.394 . S
C1997 C1998 1.516 . S
C1998 C1997 1.516 . S
C1998 C1999 1.502 . S
C1998 C2000 1.561 . S
C1998 C2001 1.526 . S
C1999 H1983 0.959 . S
C1999 H1984 0.959 . S
C1999 H1985 0.961 . S
C1999 C1998 1.502 . S
C2000 H1986 0.960 . S
C2000 H1987 0.961 . S
C2000 H1988 0.959 . S
C2000 C1998 1.561 . S
C2001 C1998 1.526 . S
C2001 C2002 1.396 . S
C2001 C2006 1.390 . S
C2002 C1996 1.465 . S
C2002 C2001 1.396 . S
C2002 C2003 1.399 . S
C2003 H1989 0.929 . S
C2003 C2002 1.399 . S
C2003 C2004 1.385 . S
C2004 H1990 0.931 . S
C2004 C2003 1.385 . S
C2004 C2005 1.389 . S
C2005 C2004 1.389 . S
C2005 C2006 1.387 . S
C2006 H1991 0.930 . S
C2006 C2001 1.390 . S
C2006 C2005 1.387 . S
H2007 C2019 0.930 . S
H2008 C2021 0.930 . S
H2009 C2022 0.930 . S
H2010 C2026 0.959 . S
H2011 C2026 0.959 . S
H2012 C2026 0.961 . S
H2013 C2027 0.960 . S
H2014 C2027 0.961 . S
H2015 C2027 0.959 . S
H2016 C2030 0.929 . S
H2017 C2031 0.931 . S
H2018 C2033 0.930 . S
C2019 H2007 0.930 . S
C2019 C2020 1.399 . S
C2019 C2024 1.399 . S
C2020 C2019 1.399 . S
C2020 C2021 1.376 . S
C2021 H2008 0.930 . S
C2021 C2020 1.376 . S
C2021 C2022 1.388 . S
C2022 H2009 0.930 . S
C2022 C2021 1.388 . S
C2022 C2023 1.390 . S
C2023 C2022 1.390 . S
C2023 C2024 1.394 . S
C2023 C2029 1.465 . S
C2024 C2019 1.399 . S
C2024 C2023 1.394 . S
C2024 C2025 1.516 . S
C2025 C2024 1.516 . S
C2025 C2026 1.502 . S
C2025 C2027 1.561 . S
C2025 C2028 1.526 . S
C2026 H2010 0.959 . S
C2026 H2011 0.959 . S
C2026 H2012 0.961 . S
C2026 C2025 1.502 . S
C2027 H2013 0.960 . S
C2027 H2014 0.961 . S
C2027 H2015 0.959 . S
C2027 C2025 1.561 . S
C2028 C2025 1.526 . S
C2028 C2029 1.396 . S
C2028 C2033 1.390 . S
C2029 C2023 1.465 . S
C2029 C2028 1.396 . S
C2029 C2030 1.399 . S
C2030 H2016 0.929 . S
C2030 C2029 1.399 . S
C2030 C2031 1.385 . S
C2031 H2017 0.931 . S
C2031 C2030 1.385 . S
C2031 C2032 1.389 . S
C2032 C2031 1.389 . S
C2032 C2033 1.387 . S
C2033 H2018 0.930 . S
C2033 C2028 1.390 . S
C2033 C2032 1.387 . S
H2034 C2046 0.930 . S
H2035 C2048 0.930 . S
H2036 C2049 0.930 . S
H2037 C2053 0.959 . S
H2038 C2053 0.964 . S
H2039 C2053 0.961 . S
H2040 C2054 0.960 . S
H2041 C2054 0.961 . S
H2042 C2054 0.959 . S
H2043 C2057 0.929 . S
H2044 C2058 0.931 . S
H2045 C2060 0.930 . S
C2046 H2034 0.930 . S
C2046 C2047 1.399 . S
C2046 C2051 1.399 . S
C2047 C2046 1.399 . S
C2047 C2048 1.376 . S
C2048 H2035 0.930 . S
C2048 C2047 1.376 . S
C2048 C2049 1.388 . S
C2049 H2036 0.930 . S
C2049 C2048 1.388 . S
C2049 C2050 1.390 . S
C2050 C2049 1.390 . S
C2050 C2051 1.394 . S
C2050 C2056 1.465 . S
C2051 C2046 1.399 . S
C2051 C2050 1.394 . S
C2051 C2052 1.516 . S
C2052 C2051 1.516 . S
C2052 C2053 1.502 . S
C2052 C2054 1.561 . S
C2052 C2055 1.526 . S
C2053 H2037 0.959 . S
C2053 H2038 0.964 . S
C2053 H2039 0.961 . S
C2053 C2052 1.502 . S
C2054 H2040 0.960 . S
C2054 H2041 0.961 . S
C2054 H2042 0.959 . S
C2054 C2052 1.561 . S
C2055 C2052 1.526 . S
C2055 C2056 1.396 . S
C2055 C2060 1.390 . S
C2056 C2050 1.465 . S
C2056 C2055 1.396 . S
C2056 C2057 1.399 . S
C2057 H2043 0.929 . S
C2057 C2056 1.399 . S
C2057 C2058 1.385 . S
C2058 H2044 0.931 . S
C2058 C2057 1.385 . S
C2058 C2059 1.389 . S
C2059 C2058 1.389 . S
C2059 C2060 1.387 . S
C2060 H2045 0.930 . S
C2060 C2055 1.390 . S
C2060 C2059 1.387 . S
H2061 C2073 0.930 . S
H2062 C2075 0.930 . S
H2063 C2076 0.930 . S
H2064 C2080 0.959 . S
H2065 C2080 0.959 . S
H2066 C2080 0.961 . S
H2067 C2081 0.960 . S
H2068 C2081 0.961 . S
H2069 C2081 0.959 . S
H2070 C2084 0.929 . S
H2071 C2085 0.931 . S
H2072 C2087 0.930 . S
C2073 H2061 0.930 . S
C2073 C2074 1.399 1_556 S
C2073 C2078 1.399 . S
C2074 C2073 1.399 1_554 S
C2074 C2075 1.376 . S
C2075 H2062 0.930 . S
C2075 C2074 1.376 . S
C2075 C2076 1.388 . S
C2076 H2063 0.930 . S
C2076 C2075 1.388 . S
C2076 C2077 1.390 . S
C2077 C2076 1.390 . S
C2077 C2078 1.394 1_554 S
C2077 C2083 1.465 . S
C2078 C2073 1.399 . S
C2078 C2077 1.394 1_556 S
C2078 C2079 1.516 . S
C2079 C2078 1.516 . S
C2079 C2080 1.502 . S
C2079 C2081 1.561 . S
C2079 C2082 1.526 . S
C2080 H2064 0.959 . S
C2080 H2065 0.959 . S
C2080 H2066 0.961 . S
C2080 C2079 1.502 . S
C2081 H2067 0.960 . S
C2081 H2068 0.961 . S
C2081 H2069 0.959 . S
C2081 C2079 1.561 . S
C2082 C2079 1.526 . S
C2082 C2083 1.396 1_556 S
C2082 C2087 1.390 . S
C2083 C2077 1.465 . S
C2083 C2082 1.396 1_554 S
C2083 C2084 1.399 . S
C2084 H2070 0.929 . S
C2084 C2083 1.399 . S
C2084 C2085 1.385 . S
C2085 H2071 0.931 . S
C2085 C2084 1.385 . S
C2085 C2086 1.371 1_554 S
C2086 C2085 1.371 1_556 S
C2086 C2087 1.402 . S
C2087 H2072 0.930 . S
C2087 C2082 1.390 . S
C2087 C2086 1.402 . S
H2088 C2100 0.930 . S
H2089 C2102 0.930 . S
H2090 C2103 0.930 . S
H2091 C2107 0.959 . S
H2092 C2107 0.959 . S
H2093 C2107 0.961 . S
H2094 C2108 0.960 . S
H2095 C2108 0.961 . S
H2096 C2108 0.959 . S
H2097 C2111 0.929 . S
H2098 C2112 0.931 . S
H2099 C2114 0.930 . S
C2100 H2088 0.930 . S
C2100 C2101 1.399 . S
C2100 C2105 1.399 . S
C2101 C2100 1.399 . S
C2101 C2102 1.376 . S
C2102 H2089 0.930 . S
C2102 C2101 1.376 . S
C2102 C2103 1.388 . S
C2103 H2090 0.930 . S
C2103 C2102 1.388 . S
C2103 C2104 1.390 . S
C2104 C2103 1.390 . S
C2104 C2105 1.394 . S
C2104 C2110 1.465 . S
C2105 C2100 1.399 . S
C2105 C2104 1.394 . S
C2105 C2106 1.516 . S
C2106 C2105 1.516 . S
C2106 C2107 1.502 . S
C2106 C2108 1.561 . S
C2106 C2109 1.526 . S
C2107 H2091 0.959 . S
C2107 H2092 0.959 . S
C2107 H2093 0.961 . S
C2107 C2106 1.502 . S
C2108 H2094 0.960 . S
C2108 H2095 0.961 . S
C2108 H2096 0.959 . S
C2108 C2106 1.561 . S
C2109 C2106 1.526 . S
C2109 C2110 1.396 . S
C2109 C2114 1.390 . S
C2110 C2104 1.465 . S
C2110 C2109 1.396 . S
C2110 C2111 1.399 . S
C2111 H2097 0.929 . S
C2111 C2110 1.399 . S
C2111 C2112 1.385 . S
C2112 H2098 0.931 . S
C2112 C2111 1.385 . S
C2112 C2113 1.389 . S
C2113 C2112 1.389 . S
C2113 C2114 1.387 . S
C2114 H2099 0.930 . S
C2114 C2109 1.390 . S
C2114 C2113 1.387 . S
H2115 C2127 0.930 . S
H2116 C2129 0.930 . S
H2117 C2130 0.930 . S
H2118 C2134 0.959 . S
H2119 C2134 0.959 . S
H2120 C2134 0.961 . S
H2121 C2135 0.960 . S
H2122 C2135 0.961 . S
H2123 C2135 0.959 . S
H2124 C2138 0.929 . S
H2125 C2139 0.931 . S
H2126 C2141 0.930 . S
C2127 H2115 0.930 . S
C2127 C2128 1.399 . S
C2127 C2132 1.399 . S
C2128 C2127 1.399 . S
C2128 C2129 1.376 . S
C2129 H2116 0.930 . S
C2129 C2128 1.376 . S
C2129 C2130 1.388 . S
C2130 H2117 0.930 . S
C2130 C2129 1.388 . S
C2130 C2131 1.390 . S
C2131 C2130 1.390 . S
C2131 C2132 1.394 . S
C2131 C2137 1.465 . S
C2132 C2127 1.399 . S
C2132 C2131 1.394 . S
C2132 C2133 1.516 . S
C2133 C2132 1.516 . S
C2133 C2134 1.502 . S
C2133 C2135 1.561 . S
C2133 C2136 1.526 . S
C2134 H2118 0.959 . S
C2134 H2119 0.959 . S
C2134 H2120 0.961 . S
C2134 C2133 1.502 . S
C2135 H2121 0.960 . S
C2135 H2122 0.961 . S
C2135 H2123 0.959 . S
C2135 C2133 1.561 . S
C2136 C2133 1.526 . S
C2136 C2137 1.396 . S
C2136 C2141 1.390 . S
C2137 C2131 1.465 . S
C2137 C2136 1.396 . S
C2137 C2138 1.399 . S
C2138 H2124 0.929 . S
C2138 C2137 1.399 . S
C2138 C2139 1.385 . S
C2139 H2125 0.931 . S
C2139 C2138 1.385 . S
C2139 C2140 1.389 . S
C2140 C2139 1.389 . S
C2140 C2141 1.387 . S
C2141 H2126 0.930 . S
C2141 C2136 1.390 . S
C2141 C2140 1.387 . S
H2142 C2154 0.930 . S
H2143 C2156 0.930 . S
H2144 C2157 0.930 . S
H2145 C2161 0.959 . S
H2146 C2161 0.959 . S
H2147 C2161 0.961 . S
H2148 C2162 0.960 . S
H2149 C2162 0.961 . S
H2150 C2162 0.959 . S
H2151 C2165 0.929 . S
H2152 C2166 0.931 . S
H2153 C2168 0.930 . S
C2154 H2142 0.930 . S
C2154 C2155 1.399 . S
C2154 C2159 1.399 . S
C2155 C2154 1.399 . S
C2155 C2156 1.376 . S
C2156 H2143 0.930 . S
C2156 C2155 1.376 . S
C2156 C2157 1.388 . S
C2157 H2144 0.930 . S
C2157 C2156 1.388 . S
C2157 C2158 1.390 . S
C2158 C2157 1.390 . S
C2158 C2159 1.394 . S
C2158 C2164 1.465 . S
C2159 C2154 1.399 . S
C2159 C2158 1.394 . S
C2159 C2160 1.516 . S
C2160 C2159 1.516 . S
C2160 C2161 1.502 . S
C2160 C2162 1.561 . S
C2160 C2163 1.526 . S
C2161 H2145 0.959 . S
C2161 H2146 0.959 . S
C2161 H2147 0.961 . S
C2161 C2160 1.502 . S
C2162 H2148 0.960 . S
C2162 H2149 0.961 . S
C2162 H2150 0.959 . S
C2162 C2160 1.561 . S
C2163 C2160 1.526 . S
C2163 C2164 1.396 . S
C2163 C2168 1.390 . S
C2164 C2158 1.465 . S
C2164 C2163 1.396 . S
C2164 C2165 1.399 . S
C2165 H2151 0.929 . S
C2165 C2164 1.399 . S
C2165 C2166 1.385 . S
C2166 H2152 0.931 . S
C2166 C2165 1.385 . S
C2166 C2167 1.389 . S
C2167 C2166 1.389 . S
C2167 C2168 1.387 . S
C2168 H2153 0.930 . S
C2168 C2163 1.390 . S
C2168 C2167 1.387 . S
H2169 C2181 0.930 . S
H2170 C2183 0.930 . S
H2171 C2184 0.930 . S
H2172 C2188 0.959 . S
H2173 C2188 0.959 . S
H2174 C2188 0.961 . S
H2175 C2189 0.960 . S
H2176 C2189 0.961 . S
H2177 C2189 0.959 . S
H2178 C2192 0.929 . S
H2179 C2193 0.931 . S
H2180 C2195 0.930 . S
C2181 H2169 0.930 . S
C2181 C2182 1.399 1_655 S
C2181 C2186 1.399 . S
C2182 C2181 1.399 1_455 S
C2182 C2183 1.376 . S
C2183 H2170 0.930 . S
C2183 C2182 1.376 . S
C2183 C2184 1.388 . S
C2184 H2171 0.930 . S
C2184 C2183 1.388 . S
C2184 C2185 1.390 . S
C2185 C2184 1.390 . S
C2185 C2186 1.394 1_455 S
C2185 C2191 1.465 . S
C2186 C2181 1.399 . S
C2186 C2185 1.394 1_655 S
C2186 C2187 1.516 . S
C2187 C2186 1.516 . S
C2187 C2188 1.502 . S
C2187 C2189 1.561 1_655 S
C2187 C2190 1.526 . S
C2188 H2172 0.959 . S
C2188 H2173 0.959 . S
C2188 H2174 0.961 . S
C2188 C2187 1.502 . S
C2189 H2175 0.960 . S
C2189 H2176 0.961 . S
C2189 H2177 0.959 . S
C2189 C2187 1.561 1_455 S
C2190 C2187 1.526 . S
C2190 C2191 1.396 1_655 S
C2190 C2195 1.390 . S
C2191 C2185 1.465 . S
C2191 C2190 1.396 1_455 S
C2191 C2192 1.399 . S
C2192 H2178 0.929 . S
C2192 C2191 1.399 . S
C2192 C2193 1.385 . S
C2193 H2179 0.931 . S
C2193 C2192 1.385 . S
C2193 C2194 1.389 1_455 S
C2194 C2193 1.389 1_655 S
C2194 C2195 1.387 . S
C2195 H2180 0.930 . S
C2195 C2190 1.390 . S
C2195 C2194 1.387 . S
H2196 C2208 0.930 . S
H2197 C2210 0.930 . S
H2198 C2211 0.930 . S
H2199 C2215 0.959 . S
H2200 C2215 0.959 . S
H2201 C2215 0.961 . S
H2202 C2216 0.960 . S
H2203 C2216 0.961 . S
H2204 C2216 0.959 . S
H2205 C2219 0.929 . S
H2206 C2220 0.931 . S
H2207 C2222 0.930 . S
C2208 H2196 0.930 . S
C2208 C2209 1.399 . S
C2208 C2213 1.399 . S
C2209 C2208 1.399 . S
C2209 C2210 1.376 . S
C2210 H2197 0.930 . S
C2210 C2209 1.376 . S
C2210 C2211 1.388 . S
C2211 H2198 0.930 . S
C2211 C2210 1.388 . S
C2211 C2212 1.390 . S
C2212 C2211 1.390 . S
C2212 C2213 1.394 . S
C2212 C2218 1.465 . S
C2213 C2208 1.399 . S
C2213 C2212 1.394 . S
C2213 C2214 1.516 . S
C2214 C2213 1.516 . S
C2214 C2215 1.502 . S
C2214 C2216 1.561 . S
C2214 C2217 1.526 . S
C2215 H2199 0.959 . S
C2215 H2200 0.959 . S
C2215 H2201 0.961 . S
C2215 C2214 1.502 . S
C2216 H2202 0.960 . S
C2216 H2203 0.961 . S
C2216 H2204 0.959 . S
C2216 C2214 1.561 . S
C2217 C2214 1.526 . S
C2217 C2218 1.396 . S
C2217 C2222 1.390 . S
C2218 C2212 1.465 . S
C2218 C2217 1.396 . S
C2218 C2219 1.399 . S
C2219 H2205 0.929 . S
C2219 C2218 1.399 . S
C2219 C2220 1.385 . S
C2220 H2206 0.931 . S
C2220 C2219 1.385 . S
C2220 C2221 1.389 . S
C2221 C2220 1.389 . S
C2221 C2222 1.387 . S
C2222 H2207 0.930 . S
C2222 C2217 1.390 . S
C2222 C2221 1.387 . S
H2223 C2235 0.930 . S
H2224 C2237 0.930 . S
H2225 C2238 0.930 . S
H2226 C2242 0.959 . S
H2227 C2242 0.959 1_556 S
H2228 C2242 0.961 . S
H2229 C2243 0.960 . S
H2230 C2243 0.961 . S
H2231 C2243 0.959 . S
H2232 C2246 0.929 . S
H2233 C2247 0.931 . S
H2234 C2249 0.930 . S
C2235 H2223 0.930 . S
C2235 C2236 1.399 . S
C2235 C2240 1.399 . S
C2236 C2235 1.399 . S
C2236 C2237 1.376 . S
C2237 H2224 0.930 . S
C2237 C2236 1.376 . S
C2237 C2238 1.388 . S
C2238 H2225 0.930 . S
C2238 C2237 1.388 . S
C2238 C2239 1.390 . S
C2239 C2238 1.390 . S
C2239 C2240 1.394 . S
C2239 C2245 1.465 . S
C2240 C2235 1.399 . S
C2240 C2239 1.394 . S
C2240 C2241 1.516 . S
C2241 C2240 1.516 . S
C2241 C2242 1.502 . S
C2241 C2243 1.561 . S
C2241 C2244 1.526 . S
C2242 H2226 0.959 . S
C2242 H2227 0.959 1_554 S
C2242 H2228 0.961 . S
C2242 C2241 1.502 . S
C2243 H2229 0.960 . S
C2243 H2230 0.961 . S
C2243 H2231 0.959 . S
C2243 C2241 1.561 . S
C2244 C2241 1.526 . S
C2244 C2245 1.396 . S
C2244 C2249 1.390 . S
C2245 C2239 1.465 . S
C2245 C2244 1.396 . S
C2245 C2246 1.399 . S
C2246 H2232 0.929 . S
C2246 C2245 1.399 . S
C2246 C2247 1.385 . S
C2247 H2233 0.931 . S
C2247 C2246 1.385 . S
C2247 C2248 1.389 . S
C2248 C2247 1.389 . S
C2248 C2249 1.387 . S
C2249 H2234 0.930 . S
C2249 C2244 1.390 . S
C2249 C2248 1.387 . S
H2250 C2262 0.930 . S
H2251 C2264 0.930 . S
H2252 C2265 0.930 . S
H2253 C2269 0.959 . S
H2254 C2269 0.959 . S
H2255 C2269 0.961 . S
H2256 C2270 0.960 . S
H2257 C2270 0.961 . S
H2258 C2270 0.959 . S
H2259 C2273 0.929 . S
H2260 C2274 0.931 . S
H2261 C2276 0.930 . S
C2262 H2250 0.930 . S
C2262 C2263 1.399 1_565 S
C2262 C2267 1.399 . S
C2263 C2262 1.399 1_545 S
C2263 C2264 1.376 . S
C2264 H2251 0.930 . S
C2264 C2263 1.376 . S
C2264 C2265 1.388 . S
C2265 H2252 0.930 . S
C2265 C2264 1.388 . S
C2265 C2266 1.390 . S
C2266 C2265 1.390 . S
C2266 C2267 1.394 1_545 S
C2266 C2272 1.465 . S
C2267 C2262 1.399 . S
C2267 C2266 1.394 1_565 S
C2267 C2268 1.516 . S
C2268 C2267 1.516 . S
C2268 C2269 1.502 . S
C2268 C2270 1.561 . S
C2268 C2271 1.526 . S
C2269 H2253 0.959 . S
C2269 H2254 0.959 . S
C2269 H2255 0.961 . S
C2269 C2268 1.502 . S
C2270 H2256 0.960 . S
C2270 H2257 0.961 . S
C2270 H2258 0.959 . S
C2270 C2268 1.561 . S
C2271 C2268 1.526 . S
C2271 C2272 1.396 1_565 S
C2271 C2276 1.390 . S
C2272 C2266 1.465 . S
C2272 C2271 1.396 1_545 S
C2272 C2273 1.399 . S
C2273 H2259 0.929 . S
C2273 C2272 1.399 . S
C2273 C2274 1.385 . S
C2274 H2260 0.931 . S
C2274 C2273 1.385 . S
C2274 C2275 1.389 . S
C2275 C2274 1.389 . S
C2275 C2276 1.387 1_545 S
C2276 H2261 0.930 . S
C2276 C2271 1.390 . S
C2276 C2275 1.387 1_565 S
H2277 C2289 0.930 . S
H2278 C2291 0.930 . S
H2279 C2292 0.930 . S
H2280 C2296 0.959 . S
H2281 C2296 0.959 . S
H2282 C2296 0.961 . S
H2283 C2297 0.960 . S
H2284 C2297 0.961 . S
H2285 C2297 0.959 . S
H2286 C2300 0.929 . S
H2287 C2301 0.931 . S
H2288 C2303 0.930 . S
C2289 H2277 0.930 . S
C2289 C2290 1.399 . S
C2289 C2294 1.399 . S
C2290 C2289 1.399 . S
C2290 C2291 1.376 . S
C2291 H2278 0.930 . S
C2291 C2290 1.376 . S
C2291 C2292 1.388 . S
C2292 H2279 0.930 . S
C2292 C2291 1.388 . S
C2292 C2293 1.390 . S
C2293 C2292 1.390 . S
C2293 C2294 1.394 . S
C2293 C2299 1.465 . S
C2294 C2289 1.399 . S
C2294 C2293 1.394 . S
C2294 C2295 1.516 . S
C2295 C2294 1.516 . S
C2295 C2296 1.502 . S
C2295 C2297 1.561 . S
C2295 C2298 1.526 . S
C2296 H2280 0.959 . S
C2296 H2281 0.959 . S
C2296 H2282 0.961 . S
C2296 C2295 1.502 . S
C2297 H2283 0.960 . S
C2297 H2284 0.961 . S
C2297 H2285 0.959 . S
C2297 C2295 1.561 . S
C2298 C2295 1.526 . S
C2298 C2299 1.396 . S
C2298 C2303 1.390 . S
C2299 C2293 1.465 . S
C2299 C2298 1.396 . S
C2299 C2300 1.399 . S
C2300 H2286 0.929 . S
C2300 C2299 1.399 . S
C2300 C2301 1.385 . S
C2301 H2287 0.931 . S
C2301 C2300 1.385 . S
C2301 C2302 1.389 . S
C2302 C2301 1.389 . S
C2302 C2303 1.387 . S
C2303 H2288 0.930 . S
C2303 C2298 1.390 . S
C2303 C2302 1.387 . S
H2304 C2316 0.930 . S
H2305 C2318 0.930 . S
H2306 C2319 0.930 . S
H2307 C2323 0.959 . S
H2308 C2323 0.959 . S
H2309 C2323 0.961 . S
H2310 C2324 0.960 . S
H2311 C2324 0.961 . S
H2312 C2324 0.959 . S
H2313 C2327 0.929 . S
H2314 C2328 0.931 . S
H2315 C2330 0.930 . S
C2316 H2304 0.930 . S
C2316 C2317 1.399 . S
C2316 C2321 1.399 . S
C2317 C2316 1.399 . S
C2317 C2318 1.376 . S
C2318 H2305 0.930 . S
C2318 C2317 1.376 . S
C2318 C2319 1.388 . S
C2319 H2306 0.930 . S
C2319 C2318 1.388 . S
C2319 C2320 1.390 . S
C2320 C2319 1.390 . S
C2320 C2321 1.394 . S
C2320 C2326 1.465 . S
C2321 C2316 1.399 . S
C2321 C2320 1.394 . S
C2321 C2322 1.516 . S
C2322 C2321 1.516 . S
C2322 C2323 1.502 . S
C2322 C2324 1.561 . S
C2322 C2325 1.526 . S
C2323 H2307 0.959 . S
C2323 H2308 0.959 . S
C2323 H2309 0.961 . S
C2323 C2322 1.502 . S
C2324 H2310 0.960 . S
C2324 H2311 0.961 . S
C2324 H2312 0.959 . S
C2324 C2322 1.561 . S
C2325 C2322 1.526 . S
C2325 C2326 1.396 . S
C2325 C2330 1.390 . S
C2326 C2320 1.465 . S
C2326 C2325 1.396 . S
C2326 C2327 1.399 . S
C2327 H2313 0.929 . S
C2327 C2326 1.399 . S
C2327 C2328 1.385 . S
C2328 H2314 0.931 . S
C2328 C2327 1.385 . S
C2328 C2329 1.389 . S
C2329 C2328 1.389 . S
C2329 C2330 1.387 . S
C2330 H2315 0.930 . S
C2330 C2325 1.390 . S
C2330 C2329 1.387 . S
H2331 C2343 0.930 . S
H2332 C2345 0.930 . S
H2333 C2346 0.930 . S
H2334 C2350 0.959 . S
H2335 C2350 0.959 . S
H2336 C2350 0.961 1_556 S
H2337 C2351 0.918 1_556 S
H2338 C2351 0.961 . S
H2339 C2351 0.959 . S
H2340 C2354 0.929 . S
H2341 C2355 0.931 . S
H2342 C2357 0.930 . S
C2343 H2331 0.930 . S
C2343 C2344 1.399 . S
C2343 C2348 1.399 . S
C2344 C2343 1.399 . S
C2344 C2345 1.376 . S
C2345 H2332 0.930 . S
C2345 C2344 1.376 . S
C2345 C2346 1.388 . S
C2346 H2333 0.930 . S
C2346 C2345 1.388 . S
C2346 C2347 1.390 . S
C2347 C2346 1.390 . S
C2347 C2348 1.394 . S
C2347 C2353 1.465 . S
C2348 C2343 1.399 . S
C2348 C2347 1.394 . S
C2348 C2349 1.516 . S
C2349 C2348 1.516 . S
C2349 C2350 1.502 . S
C2349 C2351 1.561 . S
C2349 C2352 1.526 . S
C2350 H2334 0.959 . S
C2350 H2335 0.959 . S
C2350 H2336 0.961 1_554 S
C2350 C2349 1.502 . S
C2351 H2337 0.918 1_554 S
C2351 H2338 0.961 . S
C2351 H2339 0.959 . S
C2351 C2349 1.561 . S
C2352 C2349 1.526 . S
C2352 C2353 1.396 . S
C2352 C2357 1.390 . S
C2353 C2347 1.465 . S
C2353 C2352 1.396 . S
C2353 C2354 1.399 . S
C2354 H2340 0.929 . S
C2354 C2353 1.399 . S
C2354 C2355 1.385 . S
C2355 H2341 0.931 . S
C2355 C2354 1.385 . S
C2355 C2356 1.389 . S
C2356 C2355 1.389 . S
C2356 C2357 1.387 . S
C2357 H2342 0.930 . S
C2357 C2352 1.390 . S
C2357 C2356 1.387 . S
H2358 C2370 0.930 . S
H2359 C2372 0.930 . S
H2360 C2373 0.930 . S
H2361 C2377 0.959 . S
H2362 C2377 0.959 . S
H2363 C2377 0.961 . S
H2364 C2378 0.960 . S
H2365 C2378 0.961 . S
H2366 C2378 0.959 . S
H2367 C2381 0.929 . S
H2368 C2382 0.931 . S
H2369 C2384 0.930 . S
C2370 H2358 0.930 . S
C2370 C2371 1.399 . S
C2370 C2375 1.399 . S
C2371 C2370 1.399 . S
C2371 C2372 1.376 . S
C2372 H2359 0.930 . S
C2372 C2371 1.376 . S
C2372 C2373 1.388 . S
C2373 H2360 0.930 . S
C2373 C2372 1.388 . S
C2373 C2374 1.390 . S
C2374 C2373 1.390 . S
C2374 C2375 1.394 . S
C2374 C2380 1.465 . S
C2375 C2370 1.399 . S
C2375 C2374 1.394 . S
C2375 C2376 1.516 . S
C2376 C2375 1.516 . S
C2376 C2377 1.502 . S
C2376 C2378 1.561 . S
C2376 C2379 1.526 . S
C2377 H2361 0.959 . S
C2377 H2362 0.959 . S
C2377 H2363 0.961 . S
C2377 C2376 1.502 . S
C2378 H2364 0.960 . S
C2378 H2365 0.961 . S
C2378 H2366 0.959 . S
C2378 C2376 1.561 . S
C2379 C2376 1.526 . S
C2379 C2380 1.396 . S
C2379 C2384 1.390 . S
C2380 C2374 1.465 . S
C2380 C2379 1.396 . S
C2380 C2381 1.399 . S
C2381 H2367 0.929 . S
C2381 C2380 1.399 . S
C2381 C2382 1.385 . S
C2382 H2368 0.931 . S
C2382 C2381 1.385 . S
C2382 C2383 1.389 . S
C2383 C2382 1.389 . S
C2383 C2384 1.387 . S
C2384 H2369 0.930 . S
C2384 C2379 1.390 . S
C2384 C2383 1.387 . S
H2385 C2397 0.930 . S
H2386 C2399 0.930 . S
H2387 C2400 0.930 . S
H2388 C2404 0.959 . S
H2389 C2404 0.959 . S
H2390 C2404 0.961 . S
H2391 C2405 0.960 . S
H2392 C2405 0.961 . S
H2393 C2405 0.959 . S
H2394 C2408 0.929 . S
H2395 C2409 0.931 . S
H2396 C2411 0.930 . S
C2397 H2385 0.930 . S
C2397 C2398 1.399 1_554 S
C2397 C2402 1.399 . S
C2398 C2397 1.399 1_556 S
C2398 C2399 1.376 . S
C2399 H2386 0.930 . S
C2399 C2398 1.376 . S
C2399 C2400 1.388 . S
C2400 H2387 0.930 . S
C2400 C2399 1.388 . S
C2400 C2401 1.390 . S
C2401 C2400 1.390 . S
C2401 C2402 1.394 1_556 S
C2401 C2407 1.465 . S
C2402 C2397 1.399 . S
C2402 C2401 1.394 1_554 S
C2402 C2403 1.516 . S
C2403 C2402 1.516 . S
C2403 C2404 1.502 . S
C2403 C2405 1.561 . S
C2403 C2406 1.526 . S
C2404 H2388 0.959 . S
C2404 H2389 0.959 . S
C2404 H2390 0.961 . S
C2404 C2403 1.502 . S
C2405 H2391 0.960 . S
C2405 H2392 0.961 . S
C2405 H2393 0.959 . S
C2405 C2403 1.561 . S
C2406 C2403 1.526 . S
C2406 C2407 1.396 1_554 S
C2406 C2411 1.390 . S
C2407 C2401 1.465 . S
C2407 C2406 1.396 1_556 S
C2407 C2408 1.399 . S
C2408 H2394 0.929 . S
C2408 C2407 1.399 . S
C2408 C2409 1.385 . S
C2409 H2395 0.931 . S
C2409 C2408 1.385 . S
C2409 C2410 1.392 1_556 S
C2410 C2409 1.392 1_554 S
C2410 C2411 1.384 . S
C2411 H2396 0.930 . S
C2411 C2406 1.390 . S
C2411 C2410 1.384 . S
H2412 C2424 0.930 . S
H2413 C2426 0.930 . S
H2414 C2427 0.930 . S
H2415 C2431 0.959 . S
H2416 C2431 0.959 . S
H2417 C2431 0.961 . S
H2418 C2432 0.960 . S
H2419 C2432 0.961 . S
H2420 C2432 0.959 . S
H2421 C2435 0.929 . S
H2422 C2436 0.931 . S
H2423 C2438 0.930 . S
C2424 H2412 0.930 . S
C2424 C2425 1.399 . S
C2424 C2429 1.399 . S
C2425 C2424 1.399 . S
C2425 C2426 1.376 . S
C2426 H2413 0.930 . S
C2426 C2425 1.376 . S
C2426 C2427 1.388 . S
C2427 H2414 0.930 . S
C2427 C2426 1.388 . S
C2427 C2428 1.390 . S
C2428 C2427 1.390 . S
C2428 C2429 1.394 . S
C2428 C2434 1.465 . S
C2429 C2424 1.399 . S
C2429 C2428 1.394 . S
C2429 C2430 1.516 . S
C2430 C2429 1.516 . S
C2430 C2431 1.502 . S
C2430 C2432 1.561 . S
C2430 C2433 1.526 . S
C2431 H2415 0.959 . S
C2431 H2416 0.959 . S
C2431 H2417 0.961 . S
C2431 C2430 1.502 . S
C2432 H2418 0.960 . S
C2432 H2419 0.961 . S
C2432 H2420 0.959 . S
C2432 C2430 1.561 . S
C2433 C2430 1.526 . S
C2433 C2434 1.396 . S
C2433 C2438 1.390 . S
C2434 C2428 1.465 . S
C2434 C2433 1.396 . S
C2434 C2435 1.399 . S
C2435 H2421 0.929 . S
C2435 C2434 1.399 . S
C2435 C2436 1.385 . S
C2436 H2422 0.931 . S
C2436 C2435 1.385 . S
C2436 C2437 1.389 . S
C2437 C2436 1.389 . S
C2437 C2438 1.387 . S
C2438 H2423 0.930 . S
C2438 C2433 1.390 . S
C2438 C2437 1.387 . S
H2439 C2451 0.930 . S
H2440 C2453 0.930 . S
H2441 C2454 0.930 . S
H2442 C2458 0.959 . S
H2443 C2458 0.959 . S
H2444 C2458 0.961 . S
H2445 C2459 0.960 . S
H2446 C2459 0.961 . S
H2447 C2459 0.959 . S
H2448 C2462 0.929 . S
H2449 C2463 0.931 . S
H2450 C2465 0.930 . S
C2451 H2439 0.930 . S
C2451 C2452 1.399 . S
C2451 C2456 1.399 . S
C2452 C2451 1.399 . S
C2452 C2453 1.376 . S
C2453 H2440 0.930 . S
C2453 C2452 1.376 . S
C2453 C2454 1.388 . S
C2454 H2441 0.930 . S
C2454 C2453 1.388 . S
C2454 C2455 1.390 . S
C2455 C2454 1.390 . S
C2455 C2456 1.394 . S
C2455 C2461 1.465 . S
C2456 C2451 1.399 . S
C2456 C2455 1.394 . S
C2456 C2457 1.516 . S
C2457 C2456 1.516 . S
C2457 C2458 1.502 . S
C2457 C2459 1.561 . S
C2457 C2460 1.526 . S
C2458 H2442 0.959 . S
C2458 H2443 0.959 . S
C2458 H2444 0.961 . S
C2458 C2457 1.502 . S
C2459 H2445 0.960 . S
C2459 H2446 0.961 . S
C2459 H2447 0.959 . S
C2459 C2457 1.561 . S
C2460 C2457 1.526 . S
C2460 C2461 1.396 . S
C2460 C2465 1.390 . S
C2461 C2455 1.465 . S
C2461 C2460 1.396 . S
C2461 C2462 1.399 . S
C2462 H2448 0.929 . S
C2462 C2461 1.399 . S
C2462 C2463 1.385 . S
C2463 H2449 0.931 . S
C2463 C2462 1.385 . S
C2463 C2464 1.389 . S
C2464 C2463 1.389 . S
C2464 C2465 1.387 . S
C2465 H2450 0.930 . S
C2465 C2460 1.390 . S
C2465 C2464 1.387 . S
H2466 C2478 0.930 . S
H2467 C2480 0.930 . S
H2468 C2481 0.930 . S
H2469 C2485 0.959 . S
H2470 C2485 0.959 . S
H2471 C2485 0.961 . S
H2472 C2486 0.960 . S
H2473 C2486 0.961 . S
H2474 C2486 0.959 . S
H2475 C2489 0.929 . S
H2476 C2490 0.931 . S
H2477 C2492 0.930 . S
C2478 H2466 0.930 . S
C2478 C2479 1.399 . S
C2478 C2483 1.399 . S
C2479 C2478 1.399 . S
C2479 C2480 1.376 . S
C2480 H2467 0.930 . S
C2480 C2479 1.376 . S
C2480 C2481 1.388 . S
C2481 H2468 0.930 . S
C2481 C2480 1.388 . S
C2481 C2482 1.390 . S
C2482 C2481 1.390 . S
C2482 C2483 1.394 . S
C2482 C2488 1.465 . S
C2483 C2478 1.399 . S
C2483 C2482 1.394 . S
C2483 C2484 1.516 . S
C2484 C2483 1.516 . S
C2484 C2485 1.502 . S
C2484 C2486 1.561 . S
C2484 C2487 1.526 . S
C2485 H2469 0.959 . S
C2485 H2470 0.959 . S
C2485 H2471 0.961 . S
C2485 C2484 1.502 . S
C2486 H2472 0.960 . S
C2486 H2473 0.961 . S
C2486 H2474 0.959 . S
C2486 C2484 1.561 . S
C2487 C2484 1.526 . S
C2487 C2488 1.396 . S
C2487 C2492 1.390 . S
C2488 C2482 1.465 . S
C2488 C2487 1.396 . S
C2488 C2489 1.399 . S
C2489 H2475 0.929 . S
C2489 C2488 1.399 . S
C2489 C2490 1.385 . S
C2490 H2476 0.931 . S
C2490 C2489 1.385 . S
C2490 C2491 1.389 . S
C2491 C2490 1.389 . S
C2491 C2492 1.387 . S
C2492 H2477 0.930 . S
C2492 C2487 1.390 . S
C2492 C2491 1.387 . S
H2493 C2505 0.930 . S
H2494 C2507 0.930 . S
H2495 C2508 0.930 . S
H2496 C2512 0.959 . S
H2497 C2512 0.959 . S
H2498 C2512 0.961 . S
H2499 C2513 0.960 . S
H2500 C2513 0.961 . S
H2501 C2513 0.959 . S
H2502 C2516 0.929 . S
H2503 C2517 0.931 . S
H2504 C2519 0.930 . S
C2505 H2493 0.930 . S
C2505 C2506 1.399 1_455 S
C2505 C2510 1.399 . S
C2506 C2505 1.399 1_655 S
C2506 C2507 1.376 . S
C2507 H2494 0.930 . S
C2507 C2506 1.376 . S
C2507 C2508 1.388 . S
C2508 H2495 0.930 . S
C2508 C2507 1.388 . S
C2508 C2509 1.390 . S
C2509 C2508 1.390 . S
C2509 C2510 1.394 1_655 S
C2509 C2515 1.465 . S
C2510 C2505 1.399 . S
C2510 C2509 1.394 1_455 S
C2510 C2511 1.516 . S
C2511 C2510 1.516 . S
C2511 C2512 1.502 . S
C2511 C2513 1.561 . S
C2511 C2514 1.526 . S
C2512 H2496 0.959 . S
C2512 H2497 0.959 . S
C2512 H2498 0.961 . S
C2512 C2511 1.502 . S
C2513 H2499 0.960 . S
C2513 H2500 0.961 . S
C2513 H2501 0.959 . S
C2513 C2511 1.561 . S
C2514 C2511 1.526 . S
C2514 C2515 1.396 1_455 S
C2514 C2519 1.390 . S
C2515 C2509 1.465 . S
C2515 C2514 1.396 1_655 S
C2515 C2516 1.399 . S
C2516 H2502 0.929 . S
C2516 C2515 1.399 . S
C2516 C2517 1.385 . S
C2517 H2503 0.931 . S
C2517 C2516 1.385 . S
C2517 C2518 1.367 1_655 S
C2518 C2517 1.367 1_455 S
C2518 C2519 1.408 . S
C2519 H2504 0.930 . S
C2519 C2514 1.390 . S
C2519 C2518 1.408 . S
H2520 C2532 0.930 . S
H2521 C2534 0.930 . S
H2522 C2535 0.930 . S
H2523 C2539 0.959 . S
H2524 C2539 0.959 . S
H2525 C2539 0.961 . S
H2526 C2540 0.960 . S
H2527 C2540 0.961 . S
H2528 C2540 0.959 . S
H2529 C2543 0.929 . S
H2530 C2544 0.931 . S
H2531 C2546 0.930 . S
C2532 H2520 0.930 . S
C2532 C2533 1.399 . S
C2532 C2537 1.399 . S
C2533 C2532 1.399 . S
C2533 C2534 1.376 . S
C2534 H2521 0.930 . S
C2534 C2533 1.376 . S
C2534 C2535 1.388 . S
C2535 H2522 0.930 . S
C2535 C2534 1.388 . S
C2535 C2536 1.390 . S
C2536 C2535 1.390 . S
C2536 C2537 1.394 . S
C2536 C2542 1.465 . S
C2537 C2532 1.399 . S
C2537 C2536 1.394 . S
C2537 C2538 1.516 . S
C2538 C2537 1.516 . S
C2538 C2539 1.502 . S
C2538 C2540 1.561 . S
C2538 C2541 1.526 . S
C2539 H2523 0.959 . S
C2539 H2524 0.959 . S
C2539 H2525 0.961 . S
C2539 C2538 1.502 . S
C2540 H2526 0.960 . S
C2540 H2527 0.961 . S
C2540 H2528 0.959 . S
C2540 C2538 1.561 . S
C2541 C2538 1.526 . S
C2541 C2542 1.396 . S
C2541 C2546 1.390 . S
C2542 C2536 1.465 . S
C2542 C2541 1.396 . S
C2542 C2543 1.399 . S
C2543 H2529 0.929 . S
C2543 C2542 1.399 . S
C2543 C2544 1.385 . S
C2544 H2530 0.931 . S
C2544 C2543 1.385 . S
C2544 C2545 1.389 . S
C2545 C2544 1.389 . S
C2545 C2546 1.387 . S
C2546 H2531 0.930 . S
C2546 C2541 1.390 . S
C2546 C2545 1.387 . S
H2547 C2559 0.930 . S
H2548 C2561 0.930 . S
H2549 C2562 0.930 . S
H2550 C2566 0.959 . S
H2551 C2566 0.959 . S
H2552 C2566 0.961 . S
H2553 C2567 0.960 . S
H2554 C2567 0.961 . S
H2555 C2567 0.959 . S
H2556 C2570 0.929 . S
H2557 C2571 0.931 . S
H2558 C2573 0.930 . S
C2559 H2547 0.930 . S
C2559 C2560 1.399 . S
C2559 C2564 1.399 . S
C2560 C2559 1.399 . S
C2560 C2561 1.376 . S
C2561 H2548 0.930 . S
C2561 C2560 1.376 . S
C2561 C2562 1.388 . S
C2562 H2549 0.930 . S
C2562 C2561 1.388 . S
C2562 C2563 1.390 . S
C2563 C2562 1.390 . S
C2563 C2564 1.394 . S
C2563 C2569 1.465 . S
C2564 C2559 1.399 . S
C2564 C2563 1.394 . S
C2564 C2565 1.516 . S
C2565 C2564 1.516 . S
C2565 C2566 1.502 . S
C2565 C2567 1.561 . S
C2565 C2568 1.526 . S
C2566 H2550 0.959 . S
C2566 H2551 0.959 . S
C2566 H2552 0.961 . S
C2566 C2565 1.502 . S
C2567 H2553 0.960 . S
C2567 H2554 0.961 . S
C2567 H2555 0.959 . S
C2567 C2565 1.561 . S
C2568 C2565 1.526 . S
C2568 C2569 1.396 . S
C2568 C2573 1.390 . S
C2569 C2563 1.465 . S
C2569 C2568 1.396 . S
C2569 C2570 1.399 . S
C2570 H2556 0.929 . S
C2570 C2569 1.399 . S
C2570 C2571 1.385 . S
C2571 H2557 0.931 . S
C2571 C2570 1.385 . S
C2571 C2572 1.389 . S
C2572 C2571 1.389 . S
C2572 C2573 1.387 . S
C2573 H2558 0.930 . S
C2573 C2568 1.390 . S
C2573 C2572 1.387 . S
H2574 C2586 0.930 . S
H2575 C2588 0.930 . S
H2576 C2589 0.930 . S
H2577 C2593 0.959 . S
H2578 C2593 0.959 . S
H2579 C2593 0.961 . S
H2580 C2594 0.960 . S
H2581 C2594 0.961 . S
H2582 C2594 0.959 . S
H2583 C2597 0.929 . S
H2584 C2598 0.931 1_545 S
H2585 C2600 0.930 . S
C2586 H2574 0.930 . S
C2586 C2587 1.399 . S
C2586 C2591 1.399 . S
C2587 C2586 1.399 . S
C2587 C2588 1.376 1_565 S
C2588 H2575 0.930 . S
C2588 C2587 1.376 1_545 S
C2588 C2589 1.388 . S
C2589 H2576 0.930 . S
C2589 C2588 1.388 . S
C2589 C2590 1.390 1_545 S
C2590 C2589 1.390 1_565 S
C2590 C2591 1.394 . S
C2590 C2596 1.465 . S
C2591 C2586 1.399 . S
C2591 C2590 1.394 . S
C2591 C2592 1.516 . S
C2592 C2591 1.516 . S
C2592 C2593 1.502 . S
C2592 C2594 1.561 . S
C2592 C2595 1.526 . S
C2593 H2577 0.959 . S
C2593 H2578 0.959 . S
C2593 H2579 0.961 . S
C2593 C2592 1.502 . S
C2594 H2580 0.960 . S
C2594 H2581 0.961 . S
C2594 H2582 0.959 . S
C2594 C2592 1.561 . S
C2595 C2592 1.526 . S
C2595 C2596 1.396 . S
C2595 C2600 1.390 . S
C2596 C2590 1.465 . S
C2596 C2595 1.396 . S
C2596 C2597 1.399 1_565 S
C2597 H2583 0.929 . S
C2597 C2596 1.399 1_545 S
C2597 C2598 1.385 1_545 S
C2598 H2584 0.931 1_565 S
C2598 C2597 1.385 1_565 S
C2598 C2599 1.389 . S
C2599 C2598 1.389 . S
C2599 C2600 1.387 . S
C2600 H2585 0.930 . S
C2600 C2595 1.390 . S
C2600 C2599 1.387 . S
H2601 C2613 0.930 1_565 S
H2602 C2615 0.930 . S
H2603 C2616 0.930 . S
H2604 C2620 0.959 . S
H2605 C2620 0.959 1_565 S
H2606 C2620 0.961 1_565 S
H2607 C2621 0.960 . S
H2608 C2621 0.961 . S
H2609 C2621 0.959 . S
H2610 C2624 0.929 . S
H2611 C2625 0.931 . S
H2612 C2627 0.930 1_565 S
C2613 H2601 0.930 1_545 S
C2613 C2614 1.399 . S
C2613 C2618 1.399 . S
C2614 C2613 1.399 . S
C2614 C2615 1.376 . S
C2615 H2602 0.930 . S
C2615 C2614 1.376 . S
C2615 C2616 1.388 . S
C2616 H2603 0.930 . S
C2616 C2615 1.388 . S
C2616 C2617 1.390 . S
C2617 C2616 1.390 . S
C2617 C2618 1.394 . S
C2617 C2623 1.465 . S
C2618 C2613 1.399 . S
C2618 C2617 1.394 . S
C2618 C2619 1.516 1_545 S
C2619 C2618 1.516 1_565 S
C2619 C2620 1.502 1_565 S
C2619 C2621 1.561 . S
C2619 C2622 1.526 1_565 S
C2620 H2604 0.959 . S
C2620 H2605 0.959 1_545 S
C2620 H2606 0.961 1_545 S
C2620 C2619 1.502 1_545 S
C2621 H2607 0.960 . S
C2621 H2608 0.961 . S
C2621 H2609 0.959 . S
C2621 C2619 1.561 . S
C2622 C2619 1.526 1_545 S
C2622 C2623 1.396 . S
C2622 C2627 1.390 . S
C2623 C2617 1.465 . S
C2623 C2622 1.396 . S
C2623 C2624 1.399 . S
C2624 H2610 0.929 . S
C2624 C2623 1.399 . S
C2624 C2625 1.385 . S
C2625 H2611 0.931 . S
C2625 C2624 1.385 . S
C2625 C2626 1.389 . S
C2626 C2625 1.389 . S
C2626 C2627 1.387 . S
C2627 H2612 0.930 1_545 S
C2627 C2622 1.390 . S
C2627 C2626 1.387 . S
H2628 C2640 0.930 . S
H2629 C2642 0.930 . S
H2630 C2643 0.930 . S
H2631 C2647 0.959 . S
H2632 C2647 0.959 . S
H2633 C2647 0.961 . S
H2634 C2648 0.960 . S
H2635 C2648 0.961 . S
H2636 C2648 0.959 . S
H2637 C2651 0.929 . S
H2638 C2652 0.931 . S
H2639 C2654 0.930 . S
C2640 H2628 0.930 . S
C2640 C2641 1.399 . S
C2640 C2645 1.399 . S
C2641 C2640 1.399 . S
C2641 C2642 1.376 . S
C2642 H2629 0.930 . S
C2642 C2641 1.376 . S
C2642 C2643 1.388 . S
C2643 H2630 0.930 . S
C2643 C2642 1.388 . S
C2643 C2644 1.390 . S
C2644 C2643 1.390 . S
C2644 C2645 1.394 . S
C2644 C2650 1.465 . S
C2645 C2640 1.399 . S
C2645 C2644 1.394 . S
C2645 C2646 1.516 . S
C2646 C2645 1.516 . S
C2646 C2647 1.502 . S
C2646 C2648 1.561 . S
C2646 C2649 1.526 . S
C2647 H2631 0.959 . S
C2647 H2632 0.959 . S
C2647 H2633 0.961 . S
C2647 C2646 1.502 . S
C2648 H2634 0.960 . S
C2648 H2635 0.961 . S
C2648 H2636 0.959 . S
C2648 C2646 1.561 . S
C2649 C2646 1.526 . S
C2649 C2650 1.396 . S
C2649 C2654 1.390 . S
C2650 C2644 1.465 . S
C2650 C2649 1.396 . S
C2650 C2651 1.399 . S
C2651 H2637 0.929 . S
C2651 C2650 1.399 . S
C2651 C2652 1.385 . S
C2652 H2638 0.931 . S
C2652 C2651 1.385 . S
C2652 C2653 1.389 . S
C2653 C2652 1.389 . S
C2653 C2654 1.387 . S
C2654 H2639 0.930 . S
C2654 C2649 1.390 . S
C2654 C2653 1.387 . S
H2655 C2667 0.930 1_556 S
H2656 C2669 0.930 . S
H2657 C2670 0.930 . S
H2658 C2674 0.996 . S
H2659 C2674 0.947 1_556 S
H2660 C2674 0.951 1_556 S
H2661 C2675 0.960 . S
H2662 C2675 0.961 . S
H2663 C2675 0.959 . S
H2664 C2678 0.929 . S
H2665 C2679 0.931 . S
H2666 C2681 0.930 1_556 S
C2667 H2655 0.930 1_554 S
C2667 C2668 1.399 . S
C2667 C2672 1.399 . S
C2668 C2667 1.399 . S
C2668 C2669 1.376 . S
C2669 H2656 0.930 . S
C2669 C2668 1.376 . S
C2669 C2670 1.388 . S
C2670 H2657 0.930 . S
C2670 C2669 1.388 . S
C2670 C2671 1.390 . S
C2671 C2670 1.390 . S
C2671 C2672 1.394 . S
C2671 C2677 1.465 . S
C2672 C2667 1.399 . S
C2672 C2671 1.394 . S
C2672 C2673 1.516 1_554 S
C2673 C2672 1.516 1_556 S
C2673 C2674 1.490 1_556 S
C2673 C2675 1.561 . S
C2673 C2676 1.526 1_556 S
C2674 H2658 0.996 . S
C2674 H2659 0.947 1_554 S
C2674 H2660 0.951 1_554 S
C2674 C2673 1.490 1_554 S
C2675 H2661 0.960 . S
C2675 H2662 0.961 . S
C2675 H2663 0.959 . S
C2675 C2673 1.561 . S
C2676 C2673 1.526 1_554 S
C2676 C2677 1.396 . S
C2676 C2681 1.390 . S
C2677 C2671 1.465 . S
C2677 C2676 1.396 . S
C2677 C2678 1.399 . S
C2678 H2664 0.929 . S
C2678 C2677 1.399 . S
C2678 C2679 1.385 . S
C2679 H2665 0.931 . S
C2679 C2678 1.385 . S
C2679 C2680 1.389 . S
C2680 C2679 1.389 . S
C2680 C2681 1.387 . S
C2681 H2666 0.930 1_554 S
C2681 C2676 1.390 . S
C2681 C2680 1.387 . S
H2682 C2694 0.930 . S
H2683 C2696 0.930 . S
H2684 C2697 0.930 . S
H2685 C2701 0.959 . S
H2686 C2701 0.959 . S
H2687 C2701 0.961 . S
H2688 C2702 0.960 . S
H2689 C2702 0.961 . S
H2690 C2702 0.959 . S
H2691 C2705 0.929 . S
H2692 C2706 0.931 . S
H2693 C2708 0.930 . S
C2694 H2682 0.930 . S
C2694 C2695 1.399 . S
C2694 C2699 1.399 . S
C2695 C2694 1.399 . S
C2695 C2696 1.376 . S
C2696 H2683 0.930 . S
C2696 C2695 1.376 . S
C2696 C2697 1.388 . S
C2697 H2684 0.930 . S
C2697 C2696 1.388 . S
C2697 C2698 1.390 . S
C2698 C2697 1.390 . S
C2698 C2699 1.394 . S
C2698 C2704 1.465 . S
C2699 C2694 1.399 . S
C2699 C2698 1.394 . S
C2699 C2700 1.516 . S
C2700 C2699 1.516 . S
C2700 C2701 1.502 . S
C2700 C2702 1.561 . S
C2700 C2703 1.526 . S
C2701 H2685 0.959 . S
C2701 H2686 0.959 . S
C2701 H2687 0.961 . S
C2701 C2700 1.502 . S
C2702 H2688 0.960 . S
C2702 H2689 0.961 . S
C2702 H2690 0.959 . S
C2702 C2700 1.561 . S
C2703 C2700 1.526 . S
C2703 C2704 1.396 . S
C2703 C2708 1.390 . S
C2704 C2698 1.465 . S
C2704 C2703 1.396 . S
C2704 C2705 1.399 . S
C2705 H2691 0.929 . S
C2705 C2704 1.399 . S
C2705 C2706 1.385 . S
C2706 H2692 0.931 . S
C2706 C2705 1.385 . S
C2706 C2707 1.389 . S
C2707 C2706 1.389 . S
C2707 C2708 1.387 . S
C2708 H2693 0.930 . S
C2708 C2703 1.390 . S
C2708 C2707 1.387 . S
H2709 C2721 0.930 . S
H2710 C2723 0.930 . S
H2711 C2724 0.930 . S
H2712 C2728 0.959 . S
H2713 C2728 0.959 . S
H2714 C2728 0.961 . S
H2715 C2729 0.960 . S
H2716 C2729 0.961 . S
H2717 C2729 0.959 . S
H2718 C2732 0.929 . S
H2719 C2733 0.931 . S
H2720 C2735 0.930 1_554 S
C2721 H2709 0.930 . S
C2721 C2722 1.399 1_554 S
C2721 C2726 1.399 . S
C2722 C2721 1.399 1_556 S
C2722 C2723 1.376 . S
C2723 H2710 0.930 . S
C2723 C2722 1.376 . S
C2723 C2724 1.388 . S
C2724 H2711 0.930 . S
C2724 C2723 1.388 . S
C2724 C2725 1.390 . S
C2725 C2724 1.390 . S
C2725 C2726 1.394 1_556 S
C2725 C2731 1.465 . S
C2726 C2721 1.399 . S
C2726 C2725 1.394 1_554 S
C2726 C2727 1.516 . S
C2727 C2726 1.516 . S
C2727 C2728 1.502 . S
C2727 C2729 1.561 . S
C2727 C2730 1.526 1_554 S
C2728 H2712 0.959 . S
C2728 H2713 0.959 . S
C2728 H2714 0.961 . S
C2728 C2727 1.502 . S
C2729 H2715 0.960 . S
C2729 H2716 0.961 . S
C2729 H2717 0.959 . S
C2729 C2727 1.561 . S
C2730 C2727 1.526 1_556 S
C2730 C2731 1.396 . S
C2730 C2735 1.390 . S
C2731 C2725 1.465 . S
C2731 C2730 1.396 . S
C2731 C2732 1.399 . S
C2732 H2718 0.929 . S
C2732 C2731 1.399 . S
C2732 C2733 1.385 . S
C2733 H2719 0.931 . S
C2733 C2732 1.385 . S
C2733 C2734 1.389 . S
C2734 C2733 1.389 . S
C2734 C2735 1.387 . S
C2735 H2720 0.930 1_556 S
C2735 C2730 1.390 . S
C2735 C2734 1.387 . S
H2736 C2748 0.930 . S
H2737 C2750 0.930 . S
H2738 C2751 0.930 . S
H2739 C2755 0.959 . S
H2740 C2755 0.959 . S
H2741 C2755 0.961 . S
H2742 C2756 0.960 . S
H2743 C2756 0.961 . S
H2744 C2756 0.959 . S
H2745 C2759 0.929 . S
H2746 C2760 0.931 . S
H2747 C2762 0.930 . S
C2748 H2736 0.930 . S
C2748 C2749 1.399 . S
C2748 C2753 1.399 . S
C2749 C2748 1.399 . S
C2749 C2750 1.376 . S
C2750 H2737 0.930 . S
C2750 C2749 1.376 . S
C2750 C2751 1.388 . S
C2751 H2738 0.930 . S
C2751 C2750 1.388 . S
C2751 C2752 1.390 . S
C2752 C2751 1.390 . S
C2752 C2753 1.394 . S
C2752 C2758 1.465 . S
C2753 C2748 1.399 . S
C2753 C2752 1.394 . S
C2753 C2754 1.516 . S
C2754 C2753 1.516 . S
C2754 C2755 1.502 . S
C2754 C2756 1.561 . S
C2754 C2757 1.526 . S
C2755 H2739 0.959 . S
C2755 H2740 0.959 . S
C2755 H2741 0.961 . S
C2755 C2754 1.502 . S
C2756 H2742 0.960 . S
C2756 H2743 0.961 . S
C2756 H2744 0.959 . S
C2756 C2754 1.561 . S
C2757 C2754 1.526 . S
C2757 C2758 1.396 . S
C2757 C2762 1.390 . S
C2758 C2752 1.465 . S
C2758 C2757 1.396 . S
C2758 C2759 1.399 . S
C2759 H2745 0.929 . S
C2759 C2758 1.399 . S
C2759 C2760 1.385 . S
C2760 H2746 0.931 . S
C2760 C2759 1.385 . S
C2760 C2761 1.389 . S
C2761 C2760 1.389 . S
C2761 C2762 1.387 . S
C2762 H2747 0.930 . S
C2762 C2757 1.390 . S
C2762 C2761 1.387 . S
H2763 C2775 0.930 . S
H2764 C2777 0.930 . S
H2765 C2778 0.930 . S
H2766 C2782 0.959 . S
H2767 C2782 0.959 . S
H2768 C2782 0.961 . S
H2769 C2783 0.960 . S
H2770 C2783 0.961 . S
H2771 C2783 0.959 . S
H2772 C2786 0.929 . S
H2773 C2787 0.931 . S
H2774 C2789 0.923 1_655 S
C2775 H2763 0.930 . S
C2775 C2776 1.399 . S
C2775 C2780 1.399 . S
C2776 C2775 1.399 . S
C2776 C2777 1.376 . S
C2777 H2764 0.930 . S
C2777 C2776 1.376 . S
C2777 C2778 1.388 . S
C2778 H2765 0.930 . S
C2778 C2777 1.388 . S
C2778 C2779 1.390 . S
C2779 C2778 1.390 . S
C2779 C2780 1.394 . S
C2779 C2785 1.465 . S
C2780 C2775 1.399 . S
C2780 C2779 1.394 . S
C2780 C2781 1.516 . S
C2781 C2780 1.516 . S
C2781 C2782 1.502 1_455 S
C2781 C2783 1.561 . S
C2781 C2784 1.526 . S
C2782 H2766 0.959 . S
C2782 H2767 0.959 . S
C2782 H2768 0.961 . S
C2782 C2781 1.502 1_655 S
C2783 H2769 0.960 . S
C2783 H2770 0.961 . S
C2783 H2771 0.959 . S
C2783 C2781 1.561 . S
C2784 C2781 1.526 . S
C2784 C2785 1.396 . S
C2784 C2789 1.390 . S
C2785 C2779 1.465 . S
C2785 C2784 1.396 . S
C2785 C2786 1.399 . S
C2786 H2772 0.929 . S
C2786 C2785 1.399 . S
C2786 C2787 1.385 . S
C2787 H2773 0.931 . S
C2787 C2786 1.385 . S
C2787 C2788 1.389 . S
C2788 C2787 1.389 . S
C2788 C2789 1.387 . S
C2789 H2774 0.923 1_455 S
C2789 C2784 1.390 . S
C2789 C2788 1.387 . S
H2790 C2802 0.930 . S
H2791 C2804 0.930 . S
H2792 C2805 0.930 . S
H2793 C2809 0.959 . S
H2794 C2809 0.959 . S
H2795 C2809 0.961 . S
H2796 C2810 0.960 . S
H2797 C2810 0.961 . S
H2798 C2810 0.959 . S
H2799 C2813 0.929 . S
H2800 C2814 0.931 . S
H2801 C2816 0.930 . S
C2802 H2790 0.930 . S
C2802 C2803 1.399 . S
C2802 C2807 1.399 . S
C2803 C2802 1.399 . S
C2803 C2804 1.376 . S
C2804 H2791 0.930 . S
C2804 C2803 1.376 . S
C2804 C2805 1.388 . S
C2805 H2792 0.930 . S
C2805 C2804 1.388 . S
C2805 C2806 1.390 . S
C2806 C2805 1.390 . S
C2806 C2807 1.394 . S
C2806 C2812 1.465 . S
C2807 C2802 1.399 . S
C2807 C2806 1.394 . S
C2807 C2808 1.516 . S
C2808 C2807 1.516 . S
C2808 C2809 1.502 . S
C2808 C2810 1.561 . S
C2808 C2811 1.526 . S
C2809 H2793 0.959 . S
C2809 H2794 0.959 . S
C2809 H2795 0.961 . S
C2809 C2808 1.502 . S
C2810 H2796 0.960 . S
C2810 H2797 0.961 . S
C2810 H2798 0.959 . S
C2810 C2808 1.561 . S
C2811 C2808 1.526 . S
C2811 C2812 1.396 . S
C2811 C2816 1.390 . S
C2812 C2806 1.465 . S
C2812 C2811 1.396 . S
C2812 C2813 1.399 . S
C2813 H2799 0.929 . S
C2813 C2812 1.399 . S
C2813 C2814 1.385 . S
C2814 H2800 0.931 . S
C2814 C2813 1.385 . S
C2814 C2815 1.389 . S
C2815 C2814 1.389 . S
C2815 C2816 1.387 . S
C2816 H2801 0.930 . S
C2816 C2811 1.390 . S
C2816 C2815 1.387 . S
H2817 C2829 0.930 . S
H2818 C2831 0.938 . S
H2819 C2832 0.930 . S
H2820 C2836 0.959 . S
H2821 C2836 0.959 . S
H2822 C2836 0.961 . S
H2823 C2837 0.960 . S
H2824 C2837 0.961 . S
H2825 C2837 0.959 . S
H2826 C2840 0.929 . S
H2827 C2841 0.931 . S
H2828 C2843 0.930 . S
C2829 H2817 0.930 . S
C2829 C2830 1.405 . S
C2829 C2834 1.399 . S
C2830 C2829 1.405 . S
C2830 C2831 1.380 1_655 S
C2831 H2818 0.938 . S
C2831 C2830 1.380 1_455 S
C2831 C2832 1.381 1_455 S
C2832 H2819 0.930 . S
C2832 C2831 1.381 1_655 S
C2832 C2833 1.390 . S
C2833 C2832 1.390 . S
C2833 C2834 1.394 . S
C2833 C2839 1.465 . S
C2834 C2829 1.399 . S
C2834 C2833 1.394 . S
C2834 C2835 1.516 . S
C2835 C2834 1.516 . S
C2835 C2836 1.502 . S
C2835 C2837 1.561 1_655 S
C2835 C2838 1.526 . S
C2836 H2820 0.959 . S
C2836 H2821 0.959 . S
C2836 H2822 0.961 . S
C2836 C2835 1.502 . S
C2837 H2823 0.960 . S
C2837 H2824 0.961 . S
C2837 H2825 0.959 . S
C2837 C2835 1.561 1_455 S
C2838 C2835 1.526 . S
C2838 C2839 1.396 . S
C2838 C2843 1.390 . S
C2839 C2833 1.465 . S
C2839 C2838 1.396 . S
C2839 C2840 1.399 . S
C2840 H2826 0.929 . S
C2840 C2839 1.399 . S
C2840 C2841 1.385 . S
C2841 H2827 0.931 . S
C2841 C2840 1.385 . S
C2841 C2842 1.389 . S
C2842 C2841 1.389 . S
C2842 C2843 1.387 . S
C2843 H2828 0.930 . S
C2843 C2838 1.390 . S
C2843 C2842 1.387 . S
H2844 C2856 0.930 . S
H2845 C2858 0.930 . S
H2846 C2859 0.930 . S
H2847 C2863 0.959 . S
H2848 C2863 0.959 . S
H2849 C2863 0.961 . S
H2850 C2864 0.960 . S
H2851 C2864 0.961 . S
H2852 C2864 0.959 . S
H2853 C2867 0.929 . S
H2854 C2868 0.931 . S
H2855 C2870 0.930 . S
C2856 H2844 0.930 . S
C2856 C2857 1.399 . S
C2856 C2861 1.399 . S
C2857 C2856 1.399 . S
C2857 C2858 1.376 . S
C2858 H2845 0.930 . S
C2858 C2857 1.376 . S
C2858 C2859 1.388 . S
C2859 H2846 0.930 . S
C2859 C2858 1.388 . S
C2859 C2860 1.390 . S
C2860 C2859 1.390 . S
C2860 C2861 1.394 . S
C2860 C2866 1.465 . S
C2861 C2856 1.399 . S
C2861 C2860 1.394 . S
C2861 C2862 1.516 . S
C2862 C2861 1.516 . S
C2862 C2863 1.502 . S
C2862 C2864 1.561 . S
C2862 C2865 1.526 . S
C2863 H2847 0.959 . S
C2863 H2848 0.959 . S
C2863 H2849 0.961 . S
C2863 C2862 1.502 . S
C2864 H2850 0.960 . S
C2864 H2851 0.961 . S
C2864 H2852 0.959 . S
C2864 C2862 1.561 . S
C2865 C2862 1.526 . S
C2865 C2866 1.396 . S
C2865 C2870 1.390 . S
C2866 C2860 1.465 . S
C2866 C2865 1.396 . S
C2866 C2867 1.399 . S
C2867 H2853 0.929 . S
C2867 C2866 1.399 . S
C2867 C2868 1.385 . S
C2868 H2854 0.931 . S
C2868 C2867 1.385 . S
C2868 C2869 1.389 . S
C2869 C2868 1.389 . S
C2869 C2870 1.387 . S
C2870 H2855 0.930 . S
C2870 C2865 1.390 . S
C2870 C2869 1.387 . S
H2871 C2883 0.930 . S
H2872 C2885 0.930 . S
H2873 C2886 0.930 . S
H2874 C2890 0.959 . S
H2875 C2890 0.959 . S
H2876 C2890 0.961 . S
H2877 C2891 0.960 . S
H2878 C2891 0.961 . S
H2879 C2891 0.959 . S
H2880 C2894 0.929 . S
H2881 C2895 0.931 . S
H2882 C2897 0.930 . S
C2883 H2871 0.930 . S
C2883 C2884 1.399 . S
C2883 C2888 1.399 . S
C2884 C2883 1.399 . S
C2884 C2885 1.376 . S
C2885 H2872 0.930 . S
C2885 C2884 1.376 . S
C2885 C2886 1.388 . S
C2886 H2873 0.930 . S
C2886 C2885 1.388 . S
C2886 C2887 1.390 . S
C2887 C2886 1.390 . S
C2887 C2888 1.394 . S
C2887 C2893 1.465 . S
C2888 C2883 1.399 . S
C2888 C2887 1.394 . S
C2888 C2889 1.516 . S
C2889 C2888 1.516 . S
C2889 C2890 1.502 . S
C2889 C2891 1.561 . S
C2889 C2892 1.526 . S
C2890 H2874 0.959 . S
C2890 H2875 0.959 . S
C2890 H2876 0.961 . S
C2890 C2889 1.502 . S
C2891 H2877 0.960 . S
C2891 H2878 0.961 . S
C2891 H2879 0.959 . S
C2891 C2889 1.561 . S
C2892 C2889 1.526 . S
C2892 C2893 1.396 . S
C2892 C2897 1.390 . S
C2893 C2887 1.465 . S
C2893 C2892 1.396 . S
C2893 C2894 1.399 . S
C2894 H2880 0.929 . S
C2894 C2893 1.399 . S
C2894 C2895 1.385 . S
C2895 H2881 0.931 . S
C2895 C2894 1.385 . S
C2895 C2896 1.389 . S
C2896 C2895 1.389 . S
C2896 C2897 1.387 . S
C2897 H2882 0.930 . S
C2897 C2892 1.390 . S
C2897 C2896 1.387 . S
H2898 C2910 0.930 . S
H2899 C2912 0.930 . S
H2900 C2913 0.930 . S
H2901 C2917 0.959 . S
H2902 C2917 0.959 . S
H2903 C2917 0.961 . S
H2904 C2918 0.960 . S
H2905 C2918 0.961 . S
H2906 C2918 0.959 . S
H2907 C2921 0.929 1_565 S
H2908 C2922 0.931 . S
H2909 C2924 0.930 . S
C2910 H2898 0.930 . S
C2910 C2911 1.399 . S
C2910 C2915 1.399 . S
C2911 C2910 1.399 . S
C2911 C2912 1.376 1_545 S
C2912 H2899 0.930 . S
C2912 C2911 1.376 1_565 S
C2912 C2913 1.388 . S
C2913 H2900 0.930 . S
C2913 C2912 1.388 . S
C2913 C2914 1.390 1_565 S
C2914 C2913 1.390 1_545 S
C2914 C2915 1.394 . S
C2914 C2920 1.465 . S
C2915 C2910 1.399 . S
C2915 C2914 1.394 . S
C2915 C2916 1.516 . S
C2916 C2915 1.516 . S
C2916 C2917 1.502 . S
C2916 C2918 1.561 . S
C2916 C2919 1.526 . S
C2917 H2901 0.959 . S
C2917 H2902 0.959 . S
C2917 H2903 0.961 . S
C2917 C2916 1.502 . S
C2918 H2904 0.960 . S
C2918 H2905 0.961 . S
C2918 H2906 0.959 . S
C2918 C2916 1.561 . S
C2919 C2916 1.526 . S
C2919 C2920 1.396 . S
C2919 C2924 1.390 . S
C2920 C2914 1.465 . S
C2920 C2919 1.396 . S
C2920 C2921 1.399 . S
C2921 H2907 0.929 1_545 S
C2921 C2920 1.399 . S
C2921 C2922 1.385 . S
C2922 H2908 0.931 . S
C2922 C2921 1.385 . S
C2922 C2923 1.389 . S
C2923 C2922 1.389 . S
C2923 C2924 1.387 . S
C2924 H2909 0.930 . S
C2924 C2919 1.390 . S
C2924 C2923 1.387 . S
H2925 C2937 0.930 . S
H2926 C2939 0.930 . S
H2927 C2940 0.930 . S
H2928 C2944 0.959 . S
H2929 C2944 0.959 . S
H2930 C2944 0.961 . S
H2931 C2945 0.960 . S
H2932 C2945 0.961 . S
H2933 C2945 0.959 . S
H2934 C2948 0.929 . S
H2935 C2949 0.931 . S
H2936 C2951 0.930 . S
C2937 H2925 0.930 . S
C2937 C2938 1.399 . S
C2937 C2942 1.399 . S
C2938 C2937 1.399 . S
C2938 C2939 1.376 1_565 S
C2939 H2926 0.930 . S
C2939 C2938 1.376 1_545 S
C2939 C2940 1.388 . S
C2940 H2927 0.930 . S
C2940 C2939 1.388 . S
C2940 C2941 1.390 1_545 S
C2941 C2940 1.390 1_565 S
C2941 C2942 1.394 . S
C2941 C2947 1.464 . S
C2942 C2937 1.399 . S
C2942 C2941 1.394 . S
C2942 C2943 1.516 . S
C2943 C2942 1.516 . S
C2943 C2944 1.502 . S
C2943 C2945 1.561 . S
C2943 C2946 1.526 . S
C2944 H2928 0.959 . S
C2944 H2929 0.959 . S
C2944 H2930 0.961 . S
C2944 C2943 1.502 . S
C2945 H2931 0.960 . S
C2945 H2932 0.961 . S
C2945 H2933 0.959 . S
C2945 C2943 1.561 . S
C2946 C2943 1.526 . S
C2946 C2947 1.445 . S
C2946 C2951 1.390 . S
C2947 C2941 1.464 . S
C2947 C2946 1.445 . S
C2947 C2948 1.361 1_565 S
C2948 H2934 0.929 . S
C2948 C2947 1.361 1_545 S
C2948 C2949 1.385 . S
C2949 H2935 0.931 . S
C2949 C2948 1.385 . S
C2949 C2950 1.389 1_545 S
C2950 C2949 1.389 1_565 S
C2950 C2951 1.387 . S
C2951 H2936 0.930 . S
C2951 C2946 1.390 . S
C2951 C2950 1.387 . S
H2952 C2964 0.930 . S
H2953 C2966 0.930 . S
H2954 C2967 0.930 . S
H2955 C2971 0.959 . S
H2956 C2971 0.959 . S
H2957 C2971 0.961 . S
H2958 C2972 0.960 . S
H2959 C2972 0.961 . S
H2960 C2972 0.959 . S
H2961 C2975 0.929 . S
H2962 C2976 0.931 . S
H2963 C2978 0.930 . S
C2964 H2952 0.930 . S
C2964 C2965 1.399 . S
C2964 C2969 1.399 . S
C2965 C2964 1.399 . S
C2965 C2966 1.376 . S
C2966 H2953 0.930 . S
C2966 C2965 1.376 . S
C2966 C2967 1.388 . S
C2967 H2954 0.930 . S
C2967 C2966 1.388 . S
C2967 C2968 1.390 . S
C2968 C2967 1.390 . S
C2968 C2969 1.394 . S
C2968 C2974 1.465 . S
C2969 C2964 1.399 . S
C2969 C2968 1.394 . S
C2969 C2970 1.516 . S
C2970 C2969 1.516 . S
C2970 C2971 1.502 . S
C2970 C2972 1.561 . S
C2970 C2973 1.526 . S
C2971 H2955 0.959 . S
C2971 H2956 0.959 . S
C2971 H2957 0.961 . S
C2971 C2970 1.502 . S
C2972 H2958 0.960 . S
C2972 H2959 0.961 . S
C2972 H2960 0.959 . S
C2972 C2970 1.561 . S
C2973 C2970 1.526 . S
C2973 C2974 1.396 . S
C2973 C2978 1.390 . S
C2974 C2968 1.465 . S
C2974 C2973 1.396 . S
C2974 C2975 1.399 . S
C2975 H2961 0.929 . S
C2975 C2974 1.399 . S
C2975 C2976 1.385 . S
C2976 H2962 0.931 . S
C2976 C2975 1.385 . S
C2976 C2977 1.389 . S
C2977 C2976 1.389 . S
C2977 C2978 1.387 . S
C2978 H2963 0.930 . S
C2978 C2973 1.390 . S
C2978 C2977 1.387 . S
H2979 C2991 0.930 . S
H2980 C2993 0.930 . S
H2981 C2994 0.930 . S
H2982 C2998 0.959 . S
H2983 C2998 0.959 . S
H2984 C2998 0.961 . S
H2985 C2999 0.960 . S
H2986 C2999 0.961 . S
H2987 C2999 0.959 . S
H2988 C3002 0.929 . S
H2989 C3003 0.931 . S
H2990 C3005 0.930 . S
C2991 H2979 0.930 . S
C2991 C2992 1.399 . S
C2991 C2996 1.399 . S
C2992 C2991 1.399 . S
C2992 C2993 1.376 . S
C2993 H2980 0.930 . S
C2993 C2992 1.376 . S
C2993 C2994 1.388 . S
C2994 H2981 0.930 . S
C2994 C2993 1.388 . S
C2994 C2995 1.390 . S
C2995 C2994 1.390 . S
C2995 C2996 1.394 . S
C2995 C3001 1.465 . S
C2996 C2991 1.399 . S
C2996 C2995 1.394 . S
C2996 C2997 1.516 . S
C2997 C2996 1.516 . S
C2997 C2998 1.502 . S
C2997 C2999 1.561 1_556 S
C2997 C3000 1.526 . S
C2998 H2982 0.959 . S
C2998 H2983 0.959 . S
C2998 H2984 0.961 . S
C2998 C2997 1.502 . S
C2999 H2985 0.960 . S
C2999 H2986 0.961 . S
C2999 H2987 0.959 . S
C2999 C2997 1.561 1_554 S
C3000 C2997 1.526 . S
C3000 C3001 1.396 . S
C3000 C3005 1.390 . S
C3001 C2995 1.465 . S
C3001 C3000 1.396 . S
C3001 C3002 1.399 . S
C3002 H2988 0.929 . S
C3002 C3001 1.399 . S
C3002 C3003 1.385 . S
C3003 H2989 0.931 . S
C3003 C3002 1.385 . S
C3003 C3004 1.389 . S
C3004 C3003 1.389 . S
C3004 C3005 1.387 . S
C3005 H2990 0.930 . S
C3005 C3000 1.390 . S
C3005 C3004 1.387 . S
H3006 C3018 0.930 . S
H3007 C3020 0.930 . S
H3008 C3021 0.930 . S
H3009 C3025 0.959 . S
H3010 C3025 0.959 . S
H3011 C3025 0.961 . S
H3012 C3026 0.960 . S
H3013 C3026 0.961 . S
H3014 C3026 0.959 . S
H3015 C3029 0.929 . S
H3016 C3030 0.931 . S
H3017 C3032 0.930 . S
C3018 H3006 0.930 . S
C3018 C3019 1.399 . S
C3018 C3023 1.399 . S
C3019 C3018 1.399 . S
C3019 C3020 1.376 . S
C3020 H3007 0.930 . S
C3020 C3019 1.376 . S
C3020 C3021 1.388 . S
C3021 H3008 0.930 . S
C3021 C3020 1.388 . S
C3021 C3022 1.390 . S
C3022 C3021 1.390 . S
C3022 C3023 1.394 . S
C3022 C3028 1.465 . S
C3023 C3018 1.399 . S
C3023 C3022 1.394 . S
C3023 C3024 1.516 . S
C3024 C3023 1.516 . S
C3024 C3025 1.502 . S
C3024 C3026 1.561 . S
C3024 C3027 1.526 . S
C3025 H3009 0.959 . S
C3025 H3010 0.959 . S
C3025 H3011 0.961 . S
C3025 C3024 1.502 . S
C3026 H3012 0.960 . S
C3026 H3013 0.961 . S
C3026 H3014 0.959 . S
C3026 C3024 1.561 . S
C3027 C3024 1.526 . S
C3027 C3028 1.396 . S
C3027 C3032 1.390 . S
C3028 C3022 1.465 . S
C3028 C3027 1.396 . S
C3028 C3029 1.399 . S
C3029 H3015 0.929 . S
C3029 C3028 1.399 . S
C3029 C3030 1.385 . S
C3030 H3016 0.931 . S
C3030 C3029 1.385 . S
C3030 C3031 1.389 . S
C3031 C3030 1.389 . S
C3031 C3032 1.387 . S
C3032 H3017 0.930 . S
C3032 C3027 1.390 . S
C3032 C3031 1.387 . S
H3033 C3045 0.930 . S
H3034 C3047 0.930 . S
H3035 C3048 0.930 . S
H3036 C3052 0.959 . S
H3037 C3052 0.959 . S
H3038 C3052 0.961 . S
H3039 C3053 0.960 . S
H3040 C3053 0.961 . S
H3041 C3053 0.959 . S
H3042 C3056 0.929 . S
H3043 C3057 0.931 . S
H3044 C3059 0.892 1_556 S
C3045 H3033 0.930 . S
C3045 C3046 1.399 1_556 S
C3045 C3050 1.399 . S
C3046 C3045 1.399 1_554 S
C3046 C3047 1.376 . S
C3047 H3034 0.930 . S
C3047 C3046 1.376 . S
C3047 C3048 1.388 . S
C3048 H3035 0.930 . S
C3048 C3047 1.388 . S
C3048 C3049 1.390 . S
C3049 C3048 1.390 . S
C3049 C3050 1.394 1_554 S
C3049 C3055 1.465 . S
C3050 C3045 1.399 . S
C3050 C3049 1.394 1_556 S
C3050 C3051 1.516 . S
C3051 C3050 1.516 . S
C3051 C3052 1.502 . S
C3051 C3053 1.561 . S
C3051 C3054 1.526 1_556 S
C3052 H3036 0.959 . S
C3052 H3037 0.959 . S
C3052 H3038 0.961 . S
C3052 C3051 1.502 . S
C3053 H3039 0.960 . S
C3053 H3040 0.961 . S
C3053 H3041 0.959 . S
C3053 C3051 1.561 . S
C3054 C3051 1.526 1_554 S
C3054 C3055 1.396 . S
C3054 C3059 1.387 . S
C3055 C3049 1.465 . S
C3055 C3054 1.396 . S
C3055 C3056 1.399 . S
C3056 H3042 0.929 . S
C3056 C3055 1.399 . S
C3056 C3057 1.385 . S
C3057 H3043 0.931 . S
C3057 C3056 1.385 . S
C3057 C3058 1.389 . S
C3058 C3057 1.389 . S
C3058 C3059 1.429 . S
C3059 H3044 0.892 1_554 S
C3059 C3054 1.387 . S
C3059 C3058 1.429 . S
H3060 C3072 0.930 . S
H3061 C3074 0.930 . S
H3062 C3075 0.930 . S
H3063 C3079 0.959 . S
H3064 C3079 0.959 . S
H3065 C3079 0.961 . S
H3066 C3080 0.960 . S
H3067 C3080 0.961 . S
H3068 C3080 0.959 . S
H3069 C3083 0.929 . S
H3070 C3084 0.931 . S
H3071 C3086 0.930 . S
C3072 H3060 0.930 . S
C3072 C3073 1.399 . S
C3072 C3077 1.399 . S
C3073 C3072 1.399 . S
C3073 C3074 1.376 . S
C3074 H3061 0.930 . S
C3074 C3073 1.376 . S
C3074 C3075 1.388 . S
C3075 H3062 0.930 . S
C3075 C3074 1.388 . S
C3075 C3076 1.390 . S
C3076 C3075 1.390 . S
C3076 C3077 1.394 . S
C3076 C3082 1.465 . S
C3077 C3072 1.399 . S
C3077 C3076 1.394 . S
C3077 C3078 1.516 . S
C3078 C3077 1.516 . S
C3078 C3079 1.502 . S
C3078 C3080 1.561 . S
C3078 C3081 1.526 . S
C3079 H3063 0.959 . S
C3079 H3064 0.959 . S
C3079 H3065 0.961 . S
C3079 C3078 1.502 . S
C3080 H3066 0.960 . S
C3080 H3067 0.961 . S
C3080 H3068 0.959 . S
C3080 C3078 1.561 . S
C3081 C3078 1.526 . S
C3081 C3082 1.396 . S
C3081 C3086 1.390 . S
C3082 C3076 1.465 . S
C3082 C3081 1.396 . S
C3082 C3083 1.399 . S
C3083 H3069 0.929 . S
C3083 C3082 1.399 . S
C3083 C3084 1.385 . S
C3084 H3070 0.931 . S
C3084 C3083 1.385 . S
C3084 C3085 1.389 . S
C3085 C3084 1.389 . S
C3085 C3086 1.387 . S
C3086 H3071 0.930 . S
C3086 C3081 1.390 . S
C3086 C3085 1.387 . S
H3087 C3099 0.930 . S
H3088 C3101 0.930 . S
H3089 C3102 0.930 . S
H3090 C3106 0.959 . S
H3091 C3106 0.959 . S
H3092 C3106 0.961 . S
H3093 C3107 0.960 . S
H3094 C3107 0.961 . S
H3095 C3107 0.959 . S
H3096 C3110 0.929 . S
H3097 C3111 0.931 . S
H3098 C3113 0.918 1_455 S
C3099 H3087 0.930 . S
C3099 C3100 1.399 . S
C3099 C3104 1.399 . S
C3100 C3099 1.399 . S
C3100 C3101 1.376 . S
C3101 H3088 0.930 . S
C3101 C3100 1.376 . S
C3101 C3102 1.388 . S
C3102 H3089 0.930 . S
C3102 C3101 1.388 . S
C3102 C3103 1.390 . S
C3103 C3102 1.390 . S
C3103 C3104 1.394 . S
C3103 C3109 1.465 . S
C3104 C3099 1.399 . S
C3104 C3103 1.394 . S
C3104 C3105 1.521 . S
C3105 C3104 1.521 . S
C3105 C3106 1.508 . S
C3105 C3107 1.544 1_655 S
C3105 C3108 1.532 . S
C3106 H3090 0.959 . S
C3106 H3091 0.959 . S
C3106 H3092 0.961 . S
C3106 C3105 1.508 . S
C3107 H3093 0.960 . S
C3107 H3094 0.961 . S
C3107 H3095 0.959 . S
C3107 C3105 1.544 1_455 S
C3108 C3105 1.532 . S
C3108 C3109 1.396 . S
C3108 C3113 1.390 . S
C3109 C3103 1.465 . S
C3109 C3108 1.396 . S
C3109 C3110 1.399 . S
C3110 H3096 0.929 . S
C3110 C3109 1.399 . S
C3110 C3111 1.385 . S
C3111 H3097 0.931 . S
C3111 C3110 1.385 . S
C3111 C3112 1.389 . S
C3112 C3111 1.389 . S
C3112 C3113 1.387 . S
C3113 H3098 0.918 1_655 S
C3113 C3108 1.390 . S
C3113 C3112 1.387 . S
H3114 C3126 0.930 . S
H3115 C3128 0.930 . S
H3116 C3129 0.930 . S
H3117 C3133 0.959 . S
H3118 C3133 0.959 . S
H3119 C3133 0.961 . S
H3120 C3134 0.960 . S
H3121 C3134 0.961 . S
H3122 C3134 0.959 . S
H3123 C3137 0.929 . S
H3124 C3138 0.931 . S
H3125 C3140 0.930 . S
C3126 H3114 0.930 . S
C3126 C3127 1.399 . S
C3126 C3131 1.399 . S
C3127 C3126 1.399 . S
C3127 C3128 1.376 . S
C3128 H3115 0.930 . S
C3128 C3127 1.376 . S
C3128 C3129 1.388 . S
C3129 H3116 0.930 . S
C3129 C3128 1.388 . S
C3129 C3130 1.390 . S
C3130 C3129 1.390 . S
C3130 C3131 1.394 . S
C3130 C3136 1.465 . S
C3131 C3126 1.399 . S
C3131 C3130 1.394 . S
C3131 C3132 1.516 . S
C3132 C3131 1.516 . S
C3132 C3133 1.502 . S
C3132 C3134 1.561 . S
C3132 C3135 1.526 . S
C3133 H3117 0.959 . S
C3133 H3118 0.959 . S
C3133 H3119 0.961 . S
C3133 C3132 1.502 . S
C3134 H3120 0.960 . S
C3134 H3121 0.961 . S
C3134 H3122 0.959 . S
C3134 C3132 1.561 . S
C3135 C3132 1.526 . S
C3135 C3136 1.396 . S
C3135 C3140 1.390 . S
C3136 C3130 1.465 . S
C3136 C3135 1.396 . S
C3136 C3137 1.399 . S
C3137 H3123 0.929 . S
C3137 C3136 1.399 . S
C3137 C3138 1.385 . S
C3138 H3124 0.931 . S
C3138 C3137 1.385 . S
C3138 C3139 1.389 . S
C3139 C3138 1.389 . S
C3139 C3140 1.387 . S
C3140 H3125 0.930 . S
C3140 C3135 1.390 . S
C3140 C3139 1.387 . S
H3141 C3153 0.930 . S
H3142 C3155 0.930 . S
H3143 C3156 0.930 . S
H3144 C3160 0.959 . S
H3145 C3160 0.959 . S
H3146 C3160 0.961 . S
H3147 C3161 0.960 . S
H3148 C3161 0.961 . S
H3149 C3161 0.959 1_655 S
H3150 C3164 0.933 . S
H3151 C3165 0.931 . S
H3152 C3167 0.930 . S
C3153 H3141 0.930 . S
C3153 C3154 1.399 1_455 S
C3153 C3158 1.399 . S
C3154 C3153 1.399 1_655 S
C3154 C3155 1.376 . S
C3155 H3142 0.930 . S
C3155 C3154 1.376 . S
C3155 C3156 1.388 . S
C3156 H3143 0.930 . S
C3156 C3155 1.388 . S
C3156 C3157 1.360 1_655 S
C3157 C3156 1.360 1_455 S
C3157 C3158 1.417 . S
C3157 C3163 1.483 . S
C3158 C3153 1.399 . S
C3158 C3157 1.417 . S
C3158 C3159 1.516 . S
C3159 C3158 1.516 . S
C3159 C3160 1.502 . S
C3159 C3161 1.561 . S
C3159 C3162 1.526 . S
C3160 H3144 0.959 . S
C3160 H3145 0.959 . S
C3160 H3146 0.961 . S
C3160 C3159 1.502 . S
C3161 H3147 0.960 . S
C3161 H3148 0.961 . S
C3161 H3149 0.959 1_455 S
C3161 C3159 1.561 . S
C3162 C3159 1.526 . S
C3162 C3163 1.396 . S
C3162 C3167 1.390 . S
C3163 C3157 1.483 . S
C3163 C3162 1.396 . S
C3163 C3164 1.398 1_455 S
C3164 H3150 0.933 . S
C3164 C3163 1.398 1_655 S
C3164 C3165 1.383 1_655 S
C3165 H3151 0.931 . S
C3165 C3164 1.383 1_455 S
C3165 C3166 1.389 . S
C3166 C3165 1.389 . S
C3166 C3167 1.387 . S
C3167 H3152 0.930 . S
C3167 C3162 1.390 . S
C3167 C3166 1.387 . S
C1249 C1217 1.727 . S
C1237 C15 1.819 . S
C1276 C1184 1.501 . S
C1264 C55 1.442 . S
C1303 C1206 0.699 . S
C1291 C95 0.859 1_545 S
C1330 C1195 1.451 . S
C1318 C135 1.504 . S
C1357 C1118 1.734 . S
C1345 C175 1.822 . S
C1372 C215 1.523 . S
C1384 C1129 1.456 . S
C1411 C1096 1.514 . S
C1399 C255 1.428 . S
C1426 C295 0.806 . S
C1438 C1107 0.907 . S
C1465 C1173 1.731 . S
C1453 C335 1.805 . S
C1480 C375 1.470 . S
C1492 C1151 1.478 . S
C1507 C415 1.502 . S
C1519 C1140 1.531 . S
C1546 C1162 0.788 . S
C1534 C455 0.831 . S
C1573 C1085 1.736 . S
C1561 C495 1.807 . S
C1588 C535 1.411 . S
C1600 C1052 1.501 . S
C1627 C1074 0.838 . S
C1615 C575 0.822 . S
C1642 C615 1.468 . S
C1654 C1063 1.442 . S
C1681 C986 1.741 . S
C1669 C655 1.819 . S
C1708 C997 1.441 . S
C1696 C695 1.468 . S
C1723 C735 1.496 . S
C1735 C964 1.535 . S
C1750 C775 0.838 . S
C1762 C975 0.775 . S
C1777 C815 1.807 . S
C1789 C1041 1.730 . S
C1804 C855 1.480 . S
C1816 C1019 1.501 . S
C1843 C1008 1.528 . S
C1831 C895 1.465 . S
C1858 C935 0.853 . S
C1870 C1030 0.726 . S
C1897 C965 1.663 . S
C1885 C21 1.677 . S
C1924 C976 1.689 . S
C1912 C61 1.728 . S
C1939 C101 0.759 . S
C1951 C987 0.771 . S
C1966 C141 0.899 . S
C1978 C998 0.861 . S
C2005 C1009 1.618 . S
C1993 C181 1.684 . S
C2020 C221 0.915 . S
C2032 C1020 0.896 . S
C2059 C1031 1.716 . S
C2047 C261 1.722 . S
C2086 C1042 0.833 . S
C2074 C301 0.838 1_554 S
C2113 C1053 1.655 . S
C2101 C341 1.674 . S
C2128 C381 0.925 . S
C2140 C1064 0.917 . S
C2155 C421 1.750 . S
C2167 C1075 1.651 . S
C2182 C461 0.812 1_455 S
C2194 C1086 0.816 . S
C2209 C501 1.665 . S
C2221 C1097 1.606 . S
C2236 C541 1.557 . S
C2248 C1108 1.711 . S
C2263 C581 0.837 1_545 S
C2275 C1119 0.772 . S
C2290 C621 0.950 . S
C2302 C1130 0.883 . S
C2317 C661 1.611 . S
C2329 C1141 1.663 . S
C2356 C1152 0.951 . S
C2344 C701 0.861 . S
C2383 C1163 1.645 . S
C2371 C741 1.603 . S
C2410 C1174 0.829 . S
C2398 C781 0.765 . S
C2437 C1185 1.650 . S
C2425 C821 1.607 . S
C2452 C861 0.915 . S
C2464 C1196 0.921 . S
C2479 C901 1.664 . S
C2491 C1207 1.652 . S
C2506 C941 0.768 . S
C2518 C1218 0.837 . S
C2533 C2 1.650 . S
C2545 C1058 1.649 . S
C2572 C1091 1.758 . S
C2560 C42 1.792 . S
C2587 C82 1.531 . S
C2599 C1069 1.462 . S
C2626 C1080 1.566 . S
C2614 C122 1.567 . S
C2641 C162 1.648 . S
C2653 C970 1.611 . S
C2668 C202 1.567 . S
C2680 C981 1.566 . S
C2695 C242 1.796 . S
C2707 C992 1.734 . S
C2722 C282 1.505 . S
C2734 C1003 1.508 . S
C2761 C1014 1.628 . S
C2749 C322 1.640 . S
C2788 C1036 1.576 . S
C2776 C362 1.512 . S
C2803 C402 1.778 . S
C2815 C1047 1.761 . S
C2830 C442 1.532 . S
C2842 C1025 1.463 . S
C2869 C1190 1.650 . S
C2857 C482 1.647 . S
C2896 C1223 1.769 . S
C2884 C522 1.731 . S
C2911 C562 1.545 1_545 S
C2923 C1201 1.453 . S
C2950 C1212 1.554 . S
C2938 C602 1.525 . S
C2965 C642 1.646 . S
C2977 C1102 1.650 . S
C2992 C682 1.503 . S
C3004 C1113 1.571 . S
C3019 C722 1.727 . S
C3031 C1124 1.764 . S
C3058 C1135 1.513 . S
C3046 C762 1.555 1_554 S
C3085 C1146 1.623 . S
C3073 C802 1.614 . S
C3112 C1168 1.572 . S
C3100 C842 1.505 . S
C3127 C882 1.688 . S
C3139 C1179 1.716 . S
C3166 C1157 1.447 . S
C3154 C922 1.545 . S
