# Generated by pormake.
# Topology csq, (4,8)-cn, num edge types: 1
# Building blocks:
#     Node 0, Type 0, BuildingBlock: GIZVER_clean_linker_0, # of connection points: 4
#     Node 1, Type 0, BuildingBlock: GIZVER_clean_linker_0, # of connection points: 4
#     Node 2, Type 0, BuildingBlock: GIZVER_clean_linker_0, # of connection points: 4
#     Node 3, Type 0, BuildingBlock: GIZVER_clean_linker_0, # of connection points: 4
#     Node 4, Type 0, BuildingBlock: GIZVER_clean_linker_0, # of connection points: 4
#     Node 5, Type 0, BuildingBlock: GIZVER_clean_linker_0, # of connection points: 4
#     Node 6, Type 1, BuildingBlock: TAGTUT_clean_sbu_3, # of connection points: 8
#     Node 7, Type 1, BuildingBlock: TAGTUT_clean_sbu_3, # of connection points: 8
#     Node 8, Type 1, BuildingBlock: TAGTUT_clean_sbu_3, # of connection points: 8
#     Edge 9, Type (0, 1), BuildingBlock: ZUJKAS_clean_linker_0, # of connection points: 2
#     Edge 10, Type (0, 1), BuildingBlock: ZUJKAS_clean_linker_0, # of connection points: 2
#     Edge 11, Type (0, 1), BuildingBlock: ZUJKAS_clean_linker_0, # of connection points: 2
#     Edge 12, Type (0, 1), BuildingBlock: ZUJKAS_clean_linker_0, # of connection points: 2
#     Edge 13, Type (0, 1), BuildingBlock: ZUJKAS_clean_linker_0, # of connection points: 2
#     Edge 14, Type (0, 1), BuildingBlock: ZUJKAS_clean_linker_0, # of connection points: 2
#     Edge 15, Type (0, 1), BuildingBlock: ZUJKAS_clean_linker_0, # of connection points: 2
#     Edge 16, Type (0, 1), BuildingBlock: ZUJKAS_clean_linker_0, # of connection points: 2
#     Edge 17, Type (0, 1), BuildingBlock: ZUJKAS_clean_linker_0, # of connection points: 2
#     Edge 18, Type (0, 1), BuildingBlock: ZUJKAS_clean_linker_0, # of connection points: 2
#     Edge 19, Type (0, 1), BuildingBlock: ZUJKAS_clean_linker_0, # of connection points: 2
#     Edge 20, Type (0, 1), BuildingBlock: ZUJKAS_clean_linker_0, # of connection points: 2
#     Edge 21, Type (0, 1), BuildingBlock: ZUJKAS_clean_linker_0, # of connection points: 2
#     Edge 22, Type (0, 1), BuildingBlock: ZUJKAS_clean_linker_0, # of connection points: 2
#     Edge 23, Type (0, 1), BuildingBlock: ZUJKAS_clean_linker_0, # of connection points: 2
#     Edge 24, Type (0, 1), BuildingBlock: ZUJKAS_clean_linker_0, # of connection points: 2
#     Edge 25, Type (0, 1), BuildingBlock: ZUJKAS_clean_linker_0, # of connection points: 2
#     Edge 26, Type (0, 1), BuildingBlock: ZUJKAS_clean_linker_0, # of connection points: 2
#     Edge 27, Type (0, 1), BuildingBlock: ZUJKAS_clean_linker_0, # of connection points: 2
#     Edge 28, Type (0, 1), BuildingBlock: ZUJKAS_clean_linker_0, # of connection points: 2
#     Edge 29, Type (0, 1), BuildingBlock: ZUJKAS_clean_linker_0, # of connection points: 2
#     Edge 30, Type (0, 1), BuildingBlock: ZUJKAS_clean_linker_0, # of connection points: 2
#     Edge 31, Type (0, 1), BuildingBlock: ZUJKAS_clean_linker_0, # of connection points: 2
#     Edge 32, Type (0, 1), BuildingBlock: ZUJKAS_clean_linker_0, # of connection points: 2
# Relax obj value: 0.037
# Max RMSD: 0.117
# Mean RMSD: 0.082
data_MOF--net-csq--node1-TAGTUT_clean_sbu_3--node2-GIZVER_clean_linker_0--edge1-ZUJKAS_clean_linker_0
_symmetry_space_group_name_H-M    P1
_symmetry_Int_Tables_number       1
_symmetry_cell_setting            triclinic
loop_
_symmetry_equiv_pos_as_xyz
'x, y, z'
_cell_length_a     70.144862
_cell_length_b     69.219513
_cell_length_c     22.686965
_cell_angle_alpha  92.613106
_cell_angle_beta   92.485915
_cell_angle_gamma 119.94352
loop_
_atom_site_label
_atom_site_type_symbol
_atom_site_fract_x
_atom_site_fract_y
_atom_site_fract_z
_atom_type_partial_charge
H0 H 0.23391 0.50385 0.03331 0.0
H1 H 0.23468 0.53248 0.2071 0.0
H2 H 0.17313 0.48539 0.11178 0.0
H3 H 0.26628 0.54131 0.07981 0.0
H4 H 0.26807 0.54772 0.1576 0.0
H5 H 0.27437 0.51304 0.03983 0.0
H6 H 0.30711 0.49063 0.15939 0.0
H7 H 0.27729 0.52699 0.22847 0.0
C8 C 0.2253 0.50468 0.071 0.0
C9 C 0.20219 0.49222 0.06798 0.0
C10 C 0.23723 0.51886 0.12183 0.0
C11 C 0.22571 0.52085 0.169 0.0
C12 C 0.20256 0.50905 0.16498 0.0
C13 C 0.19104 0.4943 0.11529 0.0
C14 C 0.26195 0.53365 0.12283 0.0
C15 C 0.27357 0.52058 0.13306 0.0
C16 C 0.27886 0.5111 0.08457 0.0
C17 C 0.29079 0.50001 0.09377 0.0
C18 C 0.29683 0.49803 0.1518 0.0
C19 C 0.29215 0.50772 0.20031 0.0
C20 C 0.28041 0.51894 0.19104 0.0
H21 H 0.80262 0.26438 0.00251 0.0
H22 H 0.80614 0.25496 0.18866 0.0
H23 H 0.84538 0.32004 0.12616 0.0
H24 H 0.78882 0.22712 0.03465 0.0
H25 H 0.79375 0.2233 0.10979 0.0
H26 H 0.75581 0.2292 0.00239 0.0
H27 H 0.70135 0.19782 0.11127 0.0
H28 H 0.76627 0.21532 0.18043 0.0
C29 C 0.80884 0.27122 0.04767 0.0
C30 C 0.82468 0.29397 0.05888 0.0
C31 C 0.80212 0.25699 0.09434 0.0
C32 C 0.81083 0.26587 0.1527 0.0
C33 C 0.82658 0.28858 0.16398 0.0
C34 C 0.83316 0.30246 0.11716 0.0
C35 C 0.78771 0.23207 0.08118 0.0
C36 C 0.76394 0.22434 0.09142 0.0
C37 C 0.74958 0.22362 0.04497 0.0
C38 C 0.72693 0.21421 0.05203 0.0
C39 C 0.71899 0.20641 0.10676 0.0
C40 C 0.73293 0.20654 0.15301 0.0
C41 C 0.75551 0.21578 0.14545 0.0
H42 H 0.5609 0.81354 0.97552 0.0
H43 H 0.55231 0.8028 0.16037 0.0
H44 H 0.52329 0.83638 0.0704 0.0
H45 H 0.5846 0.80364 0.03431 0.0
H46 H 0.58227 0.80115 0.11192 0.0
H47 H 0.55903 0.77211 0.96239 0.0
H48 H 0.53264 0.70694 0.02761 0.0
H49 H 0.55851 0.76492 0.15027 0.0
C50 C 0.55361 0.81467 0.01577 0.0
C51 C 0.54092 0.8252 0.01651 0.0
C52 C 0.55742 0.80615 0.06746 0.0
C53 C 0.54876 0.80865 0.12008 0.0
C54 C 0.53641 0.81952 0.12158 0.0
C55 C 0.53213 0.82724 0.06924 0.0
C56 C 0.57249 0.79645 0.06844 0.0
C57 C 0.55968 0.7713 0.05749 0.0
C58 C 0.55458 0.76154 -0.00095 0.0
C59 C 0.54459 0.73828 0.98789 0.0
C60 C 0.53957 0.72484 0.03579 0.0
C61 C 0.54454 0.7342 0.09434 0.0
C62 C 0.55419 0.75748 0.10514 0.0
H63 H 0.7519 0.55198 0.96372 0.0
H64 H 0.77276 0.58312 0.14141 0.0
H65 H 0.70401 0.53834 0.09097 0.0
H66 H 0.7888 0.58766 0.9905 0.0
H67 H 0.79902 0.59521 0.06665 0.0
H68 H 0.80172 0.56685 0.93614 0.0
H69 H 0.82644 0.52963 0.02561 0.0
H70 H 0.79926 0.56308 0.12516 0.0
C71 C 0.74801 0.554 0.00851 0.0
C72 C 0.72597 0.54295 0.02287 0.0
C73 C 0.76502 0.56828 0.05122 0.0
C74 C 0.7598 0.57163 0.10873 0.0
C75 C 0.73778 0.56046 0.12365 0.0
C76 C 0.72112 0.54598 0.08064 0.0
C77 C 0.78851 0.58079 0.03406 0.0
C78 C 0.79814 0.56557 0.03059 0.0
C79 C 0.80411 0.56016 0.97626 0.0
C80 C 0.81398 0.54679 0.97424 0.0
C81 C 0.81755 0.53873 0.02656 0.0
C82 C 0.81258 0.5447 0.08111 0.0
C83 C 0.80267 0.55797 0.0829 0.0
H84 H 0.25825 0.79335 0.97457 0.0
H85 H 0.27794 0.7939 0.15758 0.0
H86 H 0.30184 0.8556 0.07443 0.0
H87 H 0.25516 0.75918 0.01834 0.0
H88 H 0.26117 0.75952 0.09572 0.0
H89 H 0.22057 0.75636 0.98047 0.0
H90 H 0.16659 0.726 0.09107 0.0
H91 H 0.23325 0.75303 0.16588 0.0
C92 C 0.26675 0.80249 0.01636 0.0
C93 C 0.27935 0.82594 0.01972 0.0
C94 C 0.2658 0.79084 0.0666 0.0
C95 C 0.27797 0.80283 0.1195 0.0
C96 C 0.29103 0.8262 0.12264 0.0
C97 C 0.29111 0.83761 0.07309 0.0
C98 C 0.25365 0.76565 0.06266 0.0
C99 C 0.22958 0.75629 0.07243 0.0
C100 C 0.2146 0.75216 0.024 0.0
C101 C 0.19188 0.74135 0.03056 0.0
C102 C 0.18423 0.73546 0.08677 0.0
C103 C 0.19893 0.73947 0.13608 0.0
C104 C 0.22171 0.75015 0.1286 0.0
H105 H 0.5132 0.29095 0.07817 0.0
H106 H 0.48766 0.28489 0.24899 0.0
H107 H 0.45719 0.29919 0.10141 0.0
H108 H 0.53422 0.29082 0.16787 0.0
H109 H 0.52391 0.28983 0.23892 0.0
H110 H 0.51321 0.25446 0.09711 0.0
H111 H 0.50103 0.19661 0.1877 0.0
H112 H 0.5111 0.25566 0.28698 0.0
C113 C 0.50073 0.29035 0.10582 0.0
C114 C 0.48482 0.29522 0.08244 0.0
C115 C 0.50106 0.28555 0.16553 0.0
C116 C 0.48601 0.28671 0.20219 0.0
C117 C 0.4705 0.29234 0.1801 0.0
C118 C 0.46921 0.2951 0.11929 0.0
C119 C 0.51919 0.28215 0.19263 0.0
C120 C 0.51232 0.25767 0.19181 0.0
C121 C 0.51065 0.24607 0.13765 0.0
C122 C 0.50634 0.22397 0.13571 0.0
C123 C 0.50356 0.21342 0.18852 0.0
C124 C 0.50516 0.22462 0.24301 0.0
C125 C 0.50935 0.24675 0.24473 0.0
C126 C 0.03807 0.50045 0.53168 0.0
C127 C 0.0297 0.47118 0.74138 0.0
C128 C 0.96528 0.46674 0.7246 0.0
Mg129 Mg 0.01588 0.52612 0.46642 0.0
Mg130 Mg 0.00711 0.56135 0.54637 0.0
O131 O 1.00071 0.53169 0.53276 0.0
Mg132 Mg 0.00831 0.51778 0.59785 0.0
O133 O 0.01624 0.50217 0.65817 0.0
Mg134 Mg 1.0 0.47072 0.61991 0.0
Mg135 Mg 0.01298 0.5054 0.73893 0.0
C136 C 0.98014 0.53899 0.65766 0.0
O137 O 0.03319 0.55118 0.64949 0.0
O138 O 0.99571 0.53715 0.40619 0.0
O139 O 0.03014 0.5419 0.74454 0.0
O140 O 0.04553 0.56226 0.47455 0.0
O141 O 0.99037 0.56094 0.465 0.0
O142 O 0.04174 0.5847 0.54017 0.0
O143 O 0.98334 0.48338 0.55445 0.0
O144 O 0.98691 0.48991 0.45932 0.0
C145 C 0.97776 0.47662 0.49979 0.0
C146 C 0.98762 0.55006 0.41515 0.0
O147 O 0.9829 0.52193 0.65153 0.0
O148 O 0.01953 0.46242 0.69024 0.0
O149 O 0.98986 0.55607 0.62698 0.0
O150 O 0.9712 0.45979 0.67973 0.0
O151 O 0.02955 0.48792 0.76763 0.0
O152 O 0.9784 0.48538 0.75362 0.0
O153 O 0.03308 0.51583 0.53845 0.0
O154 O 0.02846 0.48267 0.55931 0.0
C155 C 0.05313 0.58128 0.50322 0.0
C156 C 0.03743 0.55643 0.70564 0.0
C157 C 0.50121 0.04701 0.52022 0.0
C158 C 0.56687 0.035 0.45725 0.0
C159 C 0.52656 0.96947 0.52382 0.0
Mg160 Mg 0.4688 0.02422 0.62682 0.0
Mg161 Mg 0.48699 0.0101 0.74458 0.0
O162 O 0.48134 0.00636 0.662 0.0
Mg163 Mg 0.50668 0.01489 0.61248 0.0
O164 O 0.53086 0.02341 0.55889 0.0
Mg165 Mg 0.51277 0.00789 0.48295 0.0
Mg166 Mg 0.55308 0.01683 0.58098 0.0
C167 C 0.51151 0.98333 0.71125 0.0
O168 O 0.53328 0.04009 0.68248 0.0
O169 O 0.43901 0.00428 0.68554 0.0
O170 O 0.5623 0.03521 0.66794 0.0
O171 O 0.48633 0.05307 0.69919 0.0
O172 O 0.45299 0.99492 0.76323 0.0
O173 O 0.50323 0.04511 0.77152 0.0
O174 O 0.48226 0.99097 0.53832 0.0
O175 O 0.45383 0.99637 0.55249 0.0
C176 C 0.46267 0.98688 0.52369 0.0
C177 C 0.43672 0.99451 0.73398 0.0
O178 O 0.51205 0.98797 0.65676 0.0
O179 O 0.54649 0.02724 0.43914 0.0
O180 O 0.5045 0.99157 0.75103 0.0
O181 O 0.51721 0.97733 0.49097 0.0
O182 O 0.57274 0.03254 0.50937 0.0
O183 O 0.5404 0.98133 0.56707 0.0
O184 O 0.49988 0.0411 0.57341 0.0
O185 O 0.50696 0.03779 0.47978 0.0
C186 C 0.4989 0.05878 0.74679 0.0
C187 C 0.553 0.0443 0.69675 0.0
C188 C 0.51697 0.55312 0.68352 0.0
C189 C 0.44925 0.48212 0.75751 0.0
C190 C 0.48295 0.4474 0.69628 0.0
Mg191 Mg 0.54614 0.55627 0.57314 0.0
Mg192 Mg 0.52331 0.52043 0.45541 0.0
O193 O 0.53012 0.52449 0.53768 0.0
Mg194 Mg 0.506 0.51067 0.59281 0.0
O195 O 0.48344 0.49821 0.6517 0.0
Mg196 Mg 0.50235 0.5032 0.7259 0.0
Mg197 Mg 0.4596 0.46907 0.63459 0.0
C198 C 0.49529 0.47008 0.49299 0.0
O199 O 0.47839 0.50812 0.52838 0.0
O200 O 0.57385 0.56204 0.51024 0.0
O201 O 0.44966 0.4747 0.54751 0.0
O202 O 0.53036 0.56828 0.50324 0.0
O203 O 0.55724 0.53597 0.43358 0.0
O204 O 0.51087 0.54223 0.42993 0.0
O205 O 0.53081 0.51156 0.66323 0.0
O206 O 0.5605 0.54337 0.64343 0.0
C207 C 0.55132 0.52612 0.67328 0.0
C208 C 0.57457 0.55234 0.4612 0.0
O209 O 0.49687 0.47651 0.54799 0.0
O210 O 0.46999 0.49369 0.7747 0.0
O211 O 0.50243 0.48384 0.4521 0.0
O212 O 0.49462 0.46654 0.72457 0.0
O213 O 0.44222 0.47153 0.70635 0.0
O214 O 0.46879 0.4443 0.65418 0.0
O215 O 0.51648 0.54571 0.63053 0.0
O216 O 0.51118 0.54005 0.72567 0.0
C217 C 0.51777 0.56165 0.45548 0.0
C218 C 0.45835 0.49202 0.51735 0.0
H219 H 0.20318 0.50541 0.28504 0.0
H220 H 0.1774 0.50734 0.35238 0.0
H221 H 0.14781 0.52476 0.2091 0.0
H222 H 0.17319 0.52267 0.14216 0.0
H223 H 0.16527 0.54209 0.38197 0.0
H224 H 0.0976 0.46445 0.26229 0.0
H225 H 0.12637 0.47354 0.25566 0.0
H226 H 0.11355 0.48645 0.21586 0.0
C227 C 0.19143 0.51006 0.26853 0.0
C228 C 0.18987 0.51356 0.20846 0.0
C229 C 0.17674 0.51114 0.3068 0.0
C230 C 0.1605 0.51581 0.28527 0.0
C231 C 0.16 0.52078 0.22626 0.0
H232 H 0.065 0.53692 0.47149 0.0
H233 H 0.09535 0.5417 0.41262 0.0
C234 C 0.17448 0.51959 0.18817 0.0
C235 C 0.14287 0.51379 0.3225 0.0
H236 H 0.0872 0.48322 0.33223 0.0
C237 C 0.1482 0.52921 0.37141 0.0
C238 C 0.12067 0.49681 0.30871 0.0
C239 C 0.11414 0.47923 0.2581 0.0
C240 C 0.13175 0.52827 0.40651 0.0
C241 C 0.10946 0.51164 0.39166 0.0
C242 C 0.10426 0.49609 0.34316 0.0
C243 C 0.09128 0.5092 0.42737 0.0
C244 C 0.13837 0.54477 0.45974 0.0
C245 C 0.07854 0.48915 0.45367 0.0
C246 C 0.06108 0.48627 0.48653 0.0
C247 C 0.0559 0.50339 0.49381 0.0
C248 C 0.06851 0.52341 0.46673 0.0
C249 C 0.08602 0.52626 0.43361 0.0
H250 H 0.15632 0.55294 0.47286 0.0
H251 H 0.13454 0.55801 0.44903 0.0
H252 H 0.12906 0.53644 0.49804 0.0
H253 H 0.08221 0.47572 0.4491 0.0
H254 H 0.05177 0.47062 0.50666 0.0
H255 H 0.7376 0.17236 0.19135 0.0
H256 H 0.71192 0.14271 0.2502 0.0
H257 H 0.67799 0.17925 0.28235 0.0
H258 H 0.7037 0.20901 0.22388 0.0
H259 H 0.68206 0.15518 0.38143 0.0
H260 H 0.64772 0.10355 0.16731 0.0
H261 H 0.6769 0.11551 0.18457 0.0
H262 H 0.66581 0.13348 0.17141 0.0
C263 C 0.72526 0.17451 0.21308 0.0
C264 C 0.72255 0.19292 0.20303 0.0
C265 C 0.71044 0.15744 0.24599 0.0
C266 C 0.69283 0.15864 0.26938 0.0
C267 C 0.6914 0.17799 0.26424 0.0
H268 H 0.56407 0.05634 0.36076 0.0
H269 H 0.59501 0.0856 0.31262 0.0
C270 C 0.70613 0.195 0.23116 0.0
C271 C 0.67463 0.13892 0.29366 0.0
H272 H 0.63124 0.08656 0.25327 0.0
C273 C 0.67102 0.14012 0.35363 0.0
C274 C 0.66001 0.11952 0.25674 0.0
C275 C 0.66259 0.11786 0.1913 0.0
C276 C 0.65327 0.12224 0.37796 0.0
C277 C 0.63893 0.10263 0.34134 0.0
C278 C 0.64239 0.10155 0.2812 0.0
C279 C 0.62016 0.08319 0.365 0.0
C280 C 0.6497 0.12464 0.4424 0.0
C281 C 0.62409 0.07153 0.40824 0.0
C282 C 0.60655 0.05485 0.43557 0.0
C283 C 0.58468 0.04943 0.42001 0.0
C284 C 0.58069 0.06009 0.37373 0.0
C285 C 0.59833 0.07688 0.34641 0.0
H286 H 0.65892 0.14238 0.46063 0.0
H287 H 0.6319 0.11774 0.44868 0.0
H288 H 0.65557 0.11515 0.46833 0.0
H289 H 0.6408 0.07583 0.42221 0.0
H290 H 0.61022 0.04678 0.47052 0.0
H291 H 0.52113 0.72858 0.19258 0.0
H292 H 0.51317 0.70072 0.26589 0.0
H293 H 0.55265 0.67847 0.17675 0.0
H294 H 0.56056 0.70601 0.10414 0.0
H295 H 0.49272 0.65168 0.23733 0.0
H296 H 0.57599 0.69007 0.35448 0.0
H297 H 0.56709 0.70581 0.31119 0.0
H298 H 0.57593 0.68827 0.27521 0.0
C299 C 0.52834 0.71794 0.18945 0.0
C300 C 0.54143 0.7194 0.1428 0.0
C301 C 0.52368 0.70198 0.23094 0.0
C302 C 0.53241 0.6876 0.22684 0.0
C303 C 0.54591 0.6895 0.18109 0.0
H304 H 0.50217 0.55959 0.34065 0.0
H305 H 0.50245 0.59012 0.28959 0.0
C306 C 0.55037 0.7052 0.13958 0.0
C307 C 0.52706 0.67 0.26866 0.0
H308 H 0.55139 0.65154 0.36714 0.0
C309 C 0.50543 0.65176 0.26648 0.0
C310 C 0.54363 0.67019 0.30683 0.0
C311 C 0.56694 0.68972 0.31265 0.0
C312 C 0.50018 0.63326 0.29969 0.0
C313 C 0.51705 0.63294 0.33547 0.0
C314 C 0.53845 0.65165 0.33946 0.0
C315 C 0.51332 0.61323 0.36774 0.0
C316 C 0.47666 0.6142 0.29592 0.0
C317 C 0.51901 0.61585 0.42881 0.0
C318 C 0.51902 0.5985 0.45797 0.0
C319 C 0.51344 0.5781 0.42668 0.0
C320 C 0.50646 0.575 0.36618 0.0
C321 C 0.50654 0.59246 0.33692 0.0
H322 H 0.46488 0.61972 0.28179 0.0
H323 H 0.47475 0.60097 0.26265 0.0
H324 H 0.47222 0.60679 0.33911 0.0
H325 H 0.52427 0.63167 0.45359 0.0
H326 H 0.52434 0.60147 0.50467 0.0
H327 H 0.83884 0.57539 0.17019 0.0
H328 H 0.86553 0.57226 0.23597 0.0
H329 H 0.83593 0.50244 0.17749 0.0
H330 H 0.80906 0.50543 0.11165 0.0
H331 H 0.86543 0.54114 0.32508 0.0
H332 H 0.89899 0.53676 0.10974 0.0
H333 H 0.87891 0.54562 0.11665 0.0
H334 H 0.87055 0.51656 0.11764 0.0
C335 C 0.83729 0.55911 0.17358 0.0
C336 C 0.82212 0.5407 0.13535 0.0
C337 C 0.85266 0.55739 0.21082 0.0
C338 C 0.85293 0.53727 0.21022 0.0
C339 C 0.83608 0.51817 0.17773 0.0
H340 H 0.96078 0.51658 0.33114 0.0
H341 H 0.9277 0.51259 0.27778 0.0
C342 C 0.82071 0.51987 0.14051 0.0
C343 C 0.87266 0.53732 0.23559 0.0
H344 H 0.91925 0.53766 0.19607 0.0
C345 C 0.87714 0.5402 0.29707 0.0
C346 C 0.88786 0.53618 0.19855 0.0
C347 C 0.88403 0.53376 0.13193 0.0
C348 C 0.89659 0.54205 0.32271 0.0
C349 C 0.91209 0.54155 0.2856 0.0
C350 C 0.90735 0.53813 0.22417 0.0
C351 C 0.93358 0.54515 0.31003 0.0
C352 C 0.90034 0.54445 0.3893 0.0
C353 C 0.94842 0.56532 0.34245 0.0
C354 C 0.96725 0.56766 0.37272 0.0
C355 C 0.97165 0.54994 0.37051 0.0
C356 C 0.95786 0.53054 0.33343 0.0
C357 C 0.93887 0.52816 0.30341 0.0
H358 H 0.88462 0.53836 0.41089 0.0
H359 H 0.90844 0.53509 0.40455 0.0
H360 H 0.91125 0.56238 0.40423 0.0
H361 H 0.94492 0.57887 0.34655 0.0
H362 H 0.97774 0.58289 0.40048 0.0
H363 H 0.31945 0.81556 0.17801 0.0
H364 H 0.35112 0.83996 0.24763 0.0
H365 H 0.33128 0.88976 0.25006 0.0
H366 H 0.29957 0.86545 0.18044 0.0
H367 H 0.375 0.90437 0.21649 0.0
H368 H 0.35838 0.86118 0.42537 0.0
H369 H 0.35499 0.84466 0.35799 0.0
H370 H 0.33668 0.85533 0.36938 0.0
C371 C 0.32142 0.83138 0.195 0.0
C372 C 0.3071 0.83867 0.17384 0.0
C373 C 0.33955 0.84532 0.23458 0.0
C374 C 0.34347 0.86661 0.25384 0.0
C375 C 0.32849 0.87337 0.23547 0.0
H376 H 0.42865 0.98481 0.45697 0.0
H377 H 0.40297 0.9547 0.38507 0.0
C378 C 0.31042 0.8595 0.19587 0.0
C379 C 0.36425 0.88281 0.28816 0.0
H380 H 0.39211 0.89496 0.42404 0.0
C381 C 0.37884 0.90224 0.26173 0.0
C382 C 0.36933 0.87973 0.34667 0.0
C383 C 0.35402 0.85919 0.37694 0.0
C384 C 0.39802 0.91916 0.29319 0.0
C385 C 0.40252 0.91663 0.35268 0.0
C386 C 0.38856 0.89672 0.37823 0.0
C387 C 0.41968 0.93564 0.39136 0.0
C388 C 0.41303 0.93989 0.26314 0.0
C389 C 0.43767 0.93489 0.41829 0.0
C390 C 0.45254 0.95224 0.45932 0.0
C391 C 0.44924 0.97022 0.47458 0.0
C392 C 0.43155 0.97112 0.44617 0.0
C393 C 0.41693 0.95401 0.4049 0.0
H394 H 0.41099 0.93662 0.21421 0.0
H395 H 0.40888 0.95307 0.27438 0.0
H396 H 0.43059 0.9464 0.27829 0.0
H397 H 0.4399 0.92071 0.40852 0.0
H398 H 0.46593 0.95109 0.48112 0.0
H399 H 0.45484 0.27649 0.28822 0.0
H400 H 0.44541 0.29563 0.36521 0.0
H401 H 0.45046 0.34365 0.24328 0.0
H402 H 0.46108 0.32596 0.16835 0.0
H403 H 0.47716 0.34021 0.40013 0.0
H404 H 0.39819 0.33513 0.33472 0.0
H405 H 0.40498 0.31439 0.30842 0.0
H406 H 0.4144 0.33994 0.27229 0.0
C407 C 0.45358 0.2909 0.27743 0.0
C408 C 0.45903 0.29968 0.22177 0.0
C409 C 0.44791 0.30163 0.32135 0.0
C410 C 0.44696 0.32087 0.30969 0.0
C411 C 0.45048 0.32846 0.25284 0.0
H412 H 0.4813 0.44906 0.38188 0.0
H413 H 0.46523 0.40931 0.35327 0.0
C414 C 0.45656 0.31813 0.20959 0.0
C415 C 0.4471 0.33601 0.35805 0.0
H416 H 0.42715 0.3713 0.3831 0.0
C417 C 0.4658 0.34655 0.39833 0.0
C418 C 0.43221 0.34412 0.35562 0.0
C419 C 0.4112 0.33261 0.31576 0.0
C420 C 0.47153 0.36672 0.43059 0.0
C421 C 0.45781 0.37616 0.42314 0.0
C422 C 0.4378 0.3642 0.38809 0.0
C423 C 0.4657 0.39981 0.4427 0.0
C424 C 0.49327 0.37882 0.46756 0.0
C425 C 0.47113 0.40764 0.50258 0.0
C426 C 0.48075 0.43048 0.51898 0.0
C427 C 0.48471 0.44583 0.47593 0.0
C428 C 0.47862 0.43777 0.41619 0.0
C429 C 0.46923 0.41501 0.3998 0.0
H430 H 0.50332 0.37064 0.46175 0.0
H431 H 0.50307 0.3964 0.45593 0.0
H432 H 0.49014 0.37906 0.51503 0.0
H433 H 0.46834 0.39617 0.53647 0.0
H434 H 0.48557 0.43615 0.56519 0.0
H435 H 0.50309 0.81594 0.95321 0.0
H436 H 0.49853 0.83898 0.88135 0.0
H437 H 0.5689 0.88452 0.89785 0.0
H438 H 0.57345 0.86074 0.96708 0.0
H439 H 0.50552 0.87806 0.90615 0.0
H440 H 0.55846 0.88562 0.72562 0.0
H441 H 0.55167 0.86501 0.77899 0.0
H442 H 0.5741 0.89326 0.79577 0.0
C443 C 0.5176 0.83044 0.93963 0.0
C444 C 0.53862 0.83647 0.96495 0.0
C445 C 0.51502 0.84369 0.89885 0.0
C446 C 0.53338 0.8635 0.88341 0.0
C447 C 0.55451 0.86905 0.90727 0.0
H448 H 0.52813 0.9817 0.82006 0.0
H449 H 0.53419 0.95234 0.85554 0.0
C450 C 0.55712 0.85552 0.94714 0.0
C451 C 0.53007 0.87971 0.84933 0.0
H452 H 0.54945 0.91507 0.73825 0.0
C453 C 0.51493 0.88581 0.86884 0.0
C454 C 0.54206 0.88982 0.80004 0.0
C455 C 0.55729 0.88288 0.77352 0.0
C456 C 0.51201 0.90214 0.8422 0.0
C457 C 0.5252 0.91345 0.79596 0.0
C458 C 0.53967 0.90676 0.7745 0.0
C459 C 0.52453 0.9327 0.77138 0.0
C460 C 0.49473 0.90707 0.86406 0.0
C461 C 0.51849 0.93226 0.71119 0.0
C462 C 0.51536 0.94936 0.69038 0.0
C463 C 0.51812 0.96707 0.72963 0.0
C464 C 0.52548 0.96809 0.78893 0.0
C465 C 0.52886 0.95125 0.80936 0.0
H466 H 0.48161 0.89254 0.88473 0.0
H467 H 0.50259 0.92136 0.89821 0.0
H468 H 0.4869 0.91148 0.82753 0.0
H469 H 0.51527 0.91823 0.68088 0.0
H470 H 0.50969 0.94811 0.64446 0.0
H471 H 0.72129 0.55744 0.91678 0.0
H472 H 0.68708 0.54324 0.85429 0.0
H473 H 0.65441 0.48781 0.96278 0.0
H474 H 0.68866 0.50216 0.02616 0.0
H475 H 0.65579 0.50347 0.78964 0.0
H476 H 0.62192 0.52254 0.98777 0.0
H477 H 0.65076 0.53126 0.98579 0.0
H478 H 0.63096 0.50257 0.99499 0.0
C479 C 0.70706 0.5418 0.92611 0.0
C480 C 0.70751 0.53103 0.97668 0.0
C481 C 0.68747 0.53375 0.89054 0.0
C482 C 0.6681 0.5148 0.90489 0.0
C483 C 0.66907 0.50275 0.95184 0.0
H484 H 0.54051 0.48811 0.73042 0.0
H485 H 0.56587 0.48024 0.78879 0.0
C486 C 0.68863 0.51088 0.98773 0.0
C487 C 0.64672 0.5096 0.87501 0.0
H488 H 0.60108 0.51395 0.89727 0.0
C489 C 0.64356 0.50523 0.8133 0.0
C490 C 0.63085 0.51205 0.90609 0.0
C491 C 0.63374 0.51751 0.97224 0.0
C492 C 0.62553 0.50439 0.78155 0.0
C493 C 0.61041 0.50806 0.81235 0.0
C494 C 0.61273 0.511 0.87419 0.0
C495 C 0.59451 0.51265 0.78055 0.0
C496 C 0.62334 0.50084 0.71497 0.0
C497 C 0.60223 0.53365 0.7586 0.0
C498 C 0.5879 0.53827 0.72604 0.0
C499 C 0.56552 0.52191 0.71458 0.0
C500 C 0.55762 0.50108 0.73863 0.0
C501 C 0.57206 0.49649 0.77161 0.0
H502 H 0.6336 0.49392 0.6987 0.0
H503 H 0.60585 0.48934 0.69875 0.0
H504 H 0.62877 0.5171 0.69579 0.0
H505 H 0.61951 0.54637 0.76582 0.0
H506 H 0.59456 0.55452 0.70856 0.0
H507 H 0.19311 0.71819 0.93278 0.0
H508 H 0.16332 0.69618 0.85759 0.0
H509 H 0.12438 0.72203 0.93366 0.0
H510 H 0.1542 0.74361 0.01112 0.0
H511 H 0.10222 0.68002 0.92765 0.0
H512 H 0.13443 0.69969 0.70956 0.0
H513 H 0.15352 0.69525 0.75338 0.0
H514 H 0.14906 0.71808 0.77489 0.0
C515 C 0.17856 0.71989 0.93221 0.0
C516 C 0.17593 0.73257 0.9778 0.0
C517 C 0.16151 0.70738 0.88872 0.0
C518 C 0.14161 0.70762 0.88909 0.0
C519 C 0.1396 0.72163 0.93218 0.0
H520 H 0.04214 0.59311 0.65211 0.0
H521 H 0.06406 0.63245 0.69066 0.0
C522 C 0.15658 0.73392 0.97643 0.0
C523 C 0.12195 0.69009 0.8524 0.0
H524 H 0.10797 0.65918 0.71986 0.0
C525 C 0.10323 0.67594 0.88159 0.0
C526 C 0.12272 0.68483 0.7918 0.0
C527 C 0.14096 0.70051 0.75567 0.0
C528 C 0.08659 0.65554 0.85396 0.0
C529 C 0.0891 0.64882 0.79643 0.0
C530 C 0.10642 0.66403 0.76476 0.0
C531 C 0.07572 0.62527 0.77205 0.0
C532 C 0.067 0.64094 0.88785 0.0
C533 C 0.07552 0.60833 0.80424 0.0
C534 C 0.06316 0.58603 0.78234 0.0
C535 C 0.05106 0.58021 0.72717 0.0
C536 C 0.05164 0.59719 0.69421 0.0
C537 C 0.06396 0.6196 0.71642 0.0
H538 H 0.0631 0.65127 0.9185 0.0
H539 H 0.05213 0.62995 0.85769 0.0
H540 H 0.07097 0.63031 0.91505 0.0
H541 H 0.08505 0.61238 0.8464 0.0
H542 H 0.06322 0.57335 0.80849 0.0
H543 H 0.47761 0.18076 0.09555 0.0
H544 H 0.48149 0.15953 0.01284 0.0
H545 H 0.53871 0.21935 0.9652 0.0
H546 H 0.5355 0.24058 0.04982 0.0
H547 H 0.48228 0.16271 0.89348 0.0
H548 H 0.56293 0.17763 0.99306 0.0
H549 H 0.54531 0.18468 0.03316 0.0
H550 H 0.56144 0.20208 0.97752 0.0
C551 C 0.49096 0.18942 0.06729 0.0
C552 C 0.50645 0.21222 0.07967 0.0
C553 C 0.49308 0.17732 0.01987 0.0
C554 C 0.51066 0.1878 0.98376 0.0
C555 C 0.52531 0.21089 0.99341 0.0
H556 H 0.50436 0.09576 0.69469 0.0
H557 H 0.51208 0.13126 0.7444 0.0
C558 C 0.52328 0.22303 0.04126 0.0
C559 C 0.51407 0.17395 0.93865 0.0
H560 H 0.54759 0.15275 0.90829 0.0
C561 C 0.4967 0.16075 0.89593 0.0
C562 C 0.53286 0.17137 0.94265 0.0
C563 C 0.55167 0.18453 0.98925 0.0
C564 C 0.49702 0.14413 0.85908 0.0
C565 C 0.51561 0.1412 0.86391 0.0
C566 C 0.53348 0.15519 0.90457 0.0
C567 C 0.51553 0.12199 0.83236 0.0
C568 C 0.4768 0.12893 0.8183 0.0
C569 C 0.5166 0.10576 0.865 0.0
C570 C 0.51264 0.08564 0.83663 0.0
C571 C 0.50728 0.0814 0.77531 0.0
C572 C 0.50795 0.09839 0.74222 0.0
C573 C 0.51229 0.11865 0.77051 0.0
H574 H 0.4623 0.13047 0.82931 0.0
H575 H 0.48025 0.13342 0.77209 0.0
H576 H 0.47235 0.11118 0.82043 0.0
H577 H 0.51927 0.10812 0.91282 0.0
H578 H 0.5124 0.07291 0.86316 0.0
H579 H 0.29279 0.46173 0.07766 0.0
H580 H 0.31863 0.45691 0.01887 0.0
H581 H 0.33604 0.5184 0.93887 0.0
H582 H 0.31122 0.52407 0.00059 0.0
H583 H 0.32627 0.45306 0.90952 0.0
H584 H 0.39499 0.53317 0.0133 0.0
H585 H 0.36738 0.52085 0.03691 0.0
H586 H 0.37464 0.53684 0.97283 0.0
C587 C 0.30187 0.47406 0.04681 0.0
C588 C 0.30037 0.49354 0.0448 0.0
C589 C 0.31665 0.47129 0.01323 0.0
C590 C 0.32996 0.48777 0.97629 0.0
C591 C 0.32658 0.50592 0.96891 0.0
H592 H 0.40868 0.47401 0.71935 0.0
H593 H 0.38067 0.47471 0.77639 0.0
C594 C 0.31202 0.5089 0.00329 0.0
C595 C 0.34813 0.48649 0.94849 0.0
H596 H 0.40368 0.51574 0.93436 0.0
C597 C 0.3432 0.46675 0.91518 0.0
C598 C 0.37039 0.50401 0.9576 0.0
C599 C 0.37724 0.52479 0.99766 0.0
C600 C 0.35974 0.46433 0.88918 0.0
C601 C 0.38173 0.48248 0.89463 0.0
C602 C 0.38681 0.50193 0.92956 0.0
C603 C 0.3993 0.48218 0.86105 0.0
C604 C 0.35344 0.44217 0.85681 0.0
C605 C 0.41974 0.48727 0.88921 0.0
C606 C 0.43626 0.48739 0.85614 0.0
C607 C 0.43244 0.48224 0.79461 0.0
C608 C 0.41206 0.47751 0.76686 0.0
C609 C 0.39586 0.47776 0.79951 0.0
H610 H 0.33894 0.42821 0.87522 0.0
H611 H 0.34878 0.44243 0.8096 0.0
H612 H 0.36726 0.43867 0.85927 0.0
H613 H 0.42285 0.49106 0.93668 0.0
H614 H 0.45184 0.49127 0.87864 0.0
H615 H 0.86792 0.32047 0.04215 0.0
H616 H 0.88422 0.34814 0.96973 0.0
H617 H 0.8193 0.32893 0.89283 0.0
H618 H 0.80271 0.30113 0.96661 0.0
H619 H 0.87954 0.34231 0.84486 0.0
H620 H 0.84956 0.39788 0.93412 0.0
H621 H 0.84956 0.37628 0.97586 0.0
H622 H 0.82952 0.36892 0.91464 0.0
C623 C 0.85708 0.32209 0.00978 0.0
C624 C 0.83405 0.30888 0.01038 0.0
C625 C 0.86642 0.33785 0.96832 0.0
C626 C 0.85297 0.34081 0.92652 0.0
C627 C 0.82993 0.32711 0.92538 0.0
H628 H 0.92929 0.43203 0.66257 0.0
H629 H 0.89736 0.40156 0.70352 0.0
C630 C 0.82051 0.31115 0.96704 0.0
C631 C 0.86362 0.35862 0.88536 0.0
H632 H 0.87493 0.41156 0.86115 0.0
C633 C 0.87824 0.3573 0.84742 0.0
C634 C 0.86202 0.37821 0.88957 0.0
C635 C 0.84694 0.38064 0.93088 0.0
C636 C 0.89213 0.37542 0.81564 0.0
C637 C 0.89097 0.39529 0.82086 0.0
C638 C 0.87566 0.39628 0.85694 0.0
C639 C 0.90715 0.41579 0.79407 0.0
C640 C 0.9089 0.37359 0.7798 0.0
C641 C 0.92231 0.43472 0.83077 0.0
C642 C 0.94041 0.45239 0.80734 0.0
C643 C 0.9437 0.45127 0.7469 0.0
C644 C 0.92741 0.43321 0.70951 0.0
C645 C 0.90919 0.41572 0.73285 0.0
H646 H 0.91067 0.35904 0.79052 0.0
H647 H 0.90357 0.37146 0.73203 0.0
H648 H 0.92533 0.38897 0.78756 0.0
H649 H 0.92095 0.43519 0.87814 0.0
H650 H 0.95261 0.46609 0.83726 0.0
H651 H 0.84375 0.5796 0.91101 0.0
H652 H 0.86982 0.57648 0.84833 0.0
H653 H 0.83526 0.50508 0.86034 0.0
H654 H 0.80906 0.50812 0.92226 0.0
H655 H 0.89561 0.55992 0.89845 0.0
H656 H 0.85103 0.51083 0.68752 0.0
H657 H 0.84062 0.5249 0.73376 0.0
H658 H 0.83778 0.49875 0.75301 0.0
C659 C 0.84108 0.56314 0.8978 0.0
C660 C 0.82437 0.54409 0.92132 0.0
C661 C 0.85612 0.56139 0.86256 0.0
C662 C 0.85451 0.54055 0.84974 0.0
C663 C 0.83667 0.52128 0.8689 0.0
H664 H 0.94609 0.50262 0.70366 0.0
H665 H 0.91572 0.5019 0.75544 0.0
C666 C 0.82169 0.52303 0.90424 0.0
C667 C 0.87311 0.53937 0.8245 0.0
H668 H 0.88699 0.51644 0.7094 0.0
C669 C 0.89375 0.55053 0.85689 0.0
C670 C 0.87055 0.52673 0.77097 0.0
C671 C 0.84886 0.51474 0.73394 0.0
C672 C 0.91191 0.54947 0.83719 0.0
C673 C 0.9095 0.53723 0.78305 0.0
C674 C 0.88878 0.52574 0.75105 0.0
C675 C 0.92868 0.5376 0.75674 0.0
C676 C 0.93348 0.56129 0.87487 0.0
C677 C 0.94614 0.55791 0.74121 0.0
C678 C 0.96343 0.55839 0.71197 0.0
C679 C 0.96363 0.53852 0.69715 0.0
C680 C 0.94653 0.51823 0.71472 0.0
C681 C 0.92909 0.51777 0.7439 0.0
H682 H 0.93093 0.5639 0.92191 0.0
H683 H 0.94231 0.55172 0.87262 0.0
H684 H 0.94419 0.57796 0.85851 0.0
H685 H 0.94603 0.57337 0.7499 0.0
H686 H 0.97632 0.57433 0.69925 0.0
H687 H 0.26663 0.8561 0.99449 0.0
H688 H 0.28281 0.88484 0.92381 0.0
H689 H 0.32051 0.85522 0.86183 0.0
H690 H 0.30333 0.82594 0.92979 0.0
H691 H 0.32261 0.91456 0.93387 0.0
H692 H 0.31012 0.87469 0.70999 0.0
H693 H 0.29409 0.85934 0.76908 0.0
H694 H 0.32059 0.86187 0.75833 0.0
C695 C 0.2775 0.85517 0.96343 0.0
C696 C 0.28351 0.83868 0.96666 0.0
C697 C 0.28691 0.87168 0.92342 0.0
C698 C 0.30286 0.87227 0.88681 0.0
C699 C 0.3078 0.85491 0.88783 0.0
H700 H 0.42703 0.97732 0.84122 0.0
H701 H 0.39138 0.95018 0.87235 0.0
C702 C 0.29802 0.83814 0.92692 0.0
C703 C 0.31706 0.89272 0.85601 0.0
H704 H 0.34555 0.90994 0.73254 0.0
C705 C 0.32709 0.91353 0.88915 0.0
C706 C 0.32276 0.89184 0.79718 0.0
C707 C 0.31107 0.87072 0.75655 0.0
C708 C 0.34388 0.93289 0.86718 0.0
C709 C 0.35147 0.93135 0.81137 0.0
C710 C 0.34014 0.91108 0.77596 0.0
C711 C 0.37276 0.9495 0.79286 0.0
C712 C 0.35379 0.95466 0.90504 0.0
C713 C 0.37439 0.9581 0.73715 0.0
C714 C 0.39507 0.97367 0.71865 0.0
C715 C 0.41444 0.98066 0.75537 0.0
C716 C 0.41255 0.97241 0.81166 0.0
C717 C 0.39204 0.95695 0.82989 0.0
H718 H 0.34123 0.95526 0.93208 0.0
H719 H 0.36714 0.95602 0.93609 0.0
H720 H 0.36076 0.96928 0.87786 0.0
H721 H 0.35975 0.95244 0.70758 0.0
H722 H 0.39594 0.97953 0.67486 0.0
H723 H 0.45195 0.28187 0.99412 0.0
H724 H 0.45218 0.30246 0.90888 0.0
H725 H 0.52065 0.35098 0.95602 0.0
H726 H 0.52059 0.33003 0.0399 0.0
H727 H 0.45739 0.3424 0.91845 0.0
H728 H 0.52235 0.34692 0.78107 0.0
H729 H 0.51162 0.32767 0.83813 0.0
H730 H 0.53284 0.35633 0.85657 0.0
C731 C 0.46725 0.29649 0.98491 0.0
C732 C 0.4863 0.30423 0.0234 0.0
C733 C 0.46735 0.30834 0.93636 0.0
C734 C 0.48647 0.32828 0.92539 0.0
C735 C 0.50583 0.33539 0.96218 0.0
H736 H 0.51533 0.44909 0.7716 0.0
H737 H 0.51564 0.41813 0.81812 0.0
C738 C 0.5058 0.32338 0.01032 0.0
C739 C 0.48537 0.34303 0.88087 0.0
H740 H 0.51221 0.37526 0.7688 0.0
C741 C 0.46912 0.34919 0.88497 0.0
C742 C 0.5007 0.35208 0.83713 0.0
C743 C 0.5177 0.34521 0.82754 0.0
C744 C 0.46835 0.3647 0.84853 0.0
C745 C 0.48416 0.37434 0.80643 0.0
C746 C 0.50009 0.36785 0.80111 0.0
C747 C 0.48532 0.39246 0.77122 0.0
C748 C 0.45118 0.37145 0.85707 0.0
C749 C 0.46854 0.38826 0.72772 0.0
C750 C 0.46835 0.406 0.70058 0.0
C751 C 0.48484 0.42827 0.71694 0.0
C752 C 0.50224 0.43221 0.7582 0.0
C753 C 0.5025 0.41451 0.78483 0.0
H754 H 0.4421 0.36478 0.89699 0.0
H755 H 0.45901 0.38996 0.86105 0.0
H756 H 0.43907 0.36499 0.81788 0.0
H757 H 0.45521 0.37133 0.7162 0.0
H758 H 0.45475 0.40232 0.66887 0.0
H759 H 0.173 0.4476 0.04921 0.0
H760 H 0.14234 0.43017 0.97254 0.0
H761 H 0.16905 0.49285 0.89127 0.0
H762 H 0.20011 0.50967 0.96567 0.0
H763 H 0.11387 0.44196 0.97085 0.0
H764 H 0.14198 0.45275 0.7468 0.0
H765 H 0.16001 0.4556 0.80999 0.0
H766 H 0.15773 0.47922 0.78839 0.0
C767 C 0.17287 0.45716 0.01284 0.0
C768 C 0.18891 0.47986 0.01275 0.0
C769 C 0.15529 0.44729 0.96931 0.0
C770 C 0.15325 0.46011 0.92576 0.0
C771 C 0.17038 0.4823 0.92301 0.0
H772 H 0.05262 0.48488 0.84966 0.0
H773 H 0.07934 0.47553 0.89012 0.0
C774 C 0.18819 0.49201 0.96579 0.0
C775 C 0.13163 0.45226 0.89214 0.0
H776 H 0.1094 0.45731 0.76095 0.0
C777 C 0.11282 0.44466 0.92439 0.0
C778 C 0.12979 0.45518 0.83121 0.0
C779 C 0.14847 0.46088 0.79218 0.0
C780 C 0.09305 0.44212 0.89908 0.0
C781 C 0.09222 0.44802 0.84058 0.0
C782 C 0.11019 0.45335 0.80639 0.0
C783 C 0.07431 0.45173 0.81728 0.0
C784 C 0.07352 0.43401 0.93623 0.0
C785 C 0.0627 0.4417 0.76227 0.0
C786 C 0.04742 0.44723 0.73846 0.0
C787 C 0.04368 0.46306 0.76909 0.0
C788 C 0.05496 0.47257 0.82484 0.0
C789 C 0.07017 0.46709 0.84838 0.0
H790 H 0.07351 0.42219 0.96779 0.0
H791 H 0.07464 0.44847 0.96268 0.0
H792 H 0.05766 0.42556 0.90845 0.0
H793 H 0.06577 0.42994 0.73729 0.0
H794 H 0.03911 0.43965 0.69529 0.0
H795 H 0.69032 0.21872 0.04348 0.0
H796 H 0.65713 0.195 0.97774 0.0
H797 H 0.69279 0.16999 0.8805 0.0
H798 H 0.72585 0.19332 0.94636 0.0
H799 H 0.65645 0.17488 0.81256 0.0
H800 H 0.63344 0.12647 0.01294 0.0
H801 H 0.64161 0.15564 0.02144 0.0
H802 H 0.66151 0.14767 0.00347 0.0
C803 C 0.69131 0.20886 0.00654 0.0
C804 C 0.71056 0.20759 0.00061 0.0
C805 C 0.67235 0.1953 0.9692 0.0
C806 C 0.67251 0.1805 0.92521 0.0
C807 C 0.69241 0.18131 0.91442 0.0
H808 H 0.59071 0.05188 0.75832 0.0
H809 H 0.61719 0.08589 0.81854 0.0
C810 C 0.71136 0.19479 0.95187 0.0
C811 C 0.65158 0.16158 0.89796 0.0
H812 H 0.61018 0.1098 0.92623 0.0
C813 C 0.64605 0.16081 0.83746 0.0
C814 C 0.63831 0.14319 0.93076 0.0
C815 C 0.64394 0.14305 0.9957 0.0
C816 C 0.62776 0.1418 0.80851 0.0
C817 C 0.61486 0.12321 0.84105 0.0
C818 C 0.62006 0.12422 0.90179 0.0
C819 C 0.59742 0.10178 0.81131 0.0
C820 C 0.62286 0.14119 0.74283 0.0
C821 C 0.57723 0.09922 0.78948 0.0
C822 C 0.56197 0.07972 0.75542 0.0
C823 C 0.56679 0.06259 0.74249 0.0
C824 C 0.58655 0.06478 0.76734 0.0
C825 C 0.60169 0.08419 0.80166 0.0
H826 H 0.63546 0.15638 0.7232 0.0
H827 H 0.62208 0.12624 0.71998 0.0
H828 H 0.60651 0.13982 0.73443 0.0
H829 H 0.57364 0.11261 0.79694 0.0
H830 H 0.54705 0.07869 0.73631 0.0
H831 H 0.50885 0.70032 0.9369 0.0
H832 H 0.5088 0.677 0.85311 0.0
H833 H 0.57366 0.72912 0.81665 0.0
H834 H 0.57426 0.75216 0.90271 0.0
H835 H 0.51486 0.67683 0.73462 0.0
H836 H 0.58558 0.68071 0.86806 0.0
H837 H 0.56994 0.69274 0.89663 0.0
H838 H 0.58944 0.70652 0.84259 0.0
C839 C 0.52291 0.70702 0.91023 0.0
C840 C 0.5418 0.72776 0.92734 0.0
C841 C 0.52281 0.69374 0.86205 0.0
C842 C 0.54153 0.70105 0.8298 0.0
C843 C 0.55929 0.72294 0.84198 0.0
H844 H 0.52876 0.58594 0.60591 0.0
H845 H 0.53831 0.62485 0.62841 0.0
C846 C 0.5595 0.73619 0.8908 0.0
C847 C 0.54347 0.6843 0.79137 0.0
H848 H 0.56814 0.65248 0.79245 0.0
C849 C 0.52684 0.67179 0.74607 0.0
C850 C 0.55909 0.67773 0.80679 0.0
C851 C 0.57697 0.68997 0.85633 0.0
C852 C 0.52436 0.65191 0.71904 0.0
C853 C 0.53914 0.64467 0.7373 0.0
C854 C 0.55685 0.65816 0.77884 0.0
C855 C 0.53443 0.62161 0.72218 0.0
C856 C 0.50496 0.63792 0.67472 0.0
C857 C 0.52965 0.60711 0.76756 0.0
C858 C 0.52439 0.58504 0.755 0.0
C859 C 0.52381 0.57694 0.69663 0.0
C860 C 0.52903 0.59163 0.65125 0.0
C861 C 0.53436 0.61383 0.66395 0.0
H862 H 0.49365 0.64475 0.67037 0.0
H863 H 0.51103 0.63732 0.6307 0.0
H864 H 0.49546 0.62051 0.6878 0.0
H865 H 0.52962 0.6128 0.81284 0.0
H866 H 0.5205 0.57427 0.7911 0.0
H867 H 0.47015 0.20266 0.31003 0.0
H868 H 0.46574 0.17512 0.38097 0.0
H869 H 0.53285 0.19092 0.36202 0.0
H870 H 0.53727 0.21858 0.29266 0.0
H871 H 0.46698 0.1386 0.35218 0.0
H872 H 0.53047 0.18423 0.53588 0.0
H873 H 0.52237 0.19842 0.48431 0.0
H874 H 0.54273 0.19086 0.46661 0.0
C875 C 0.48419 0.20091 0.32334 0.0
C876 C 0.50419 0.21303 0.29706 0.0
C877 C 0.48164 0.18504 0.36338 0.0
C878 C 0.49905 0.18105 0.37772 0.0
C879 C 0.51935 0.19403 0.35341 0.0
H880 H 0.50055 0.06147 0.41076 0.0
H881 H 0.49702 0.09324 0.38454 0.0
C882 C 0.5219 0.20986 0.31364 0.0
C883 C 0.49529 0.16139 0.41071 0.0
H884 H 0.51938 0.1449 0.51612 0.0
C885 C 0.47818 0.14008 0.38891 0.0
C886 C 0.50957 0.16311 0.45936 0.0
C887 C 0.52714 0.18544 0.48826 0.0
C888 C 0.47595 0.12054 0.41148 0.0
C889 C 0.49153 0.12222 0.45625 0.0
C890 C 0.50764 0.14351 0.48108 0.0
C891 C 0.49265 0.10225 0.47345 0.0
C892 C 0.45715 0.09822 0.3861 0.0
C893 C 0.49183 0.09682 0.53265 0.0
C894 C 0.49397 0.07851 0.54807 0.0
C895 C 0.49725 0.06547 0.50466 0.0
C896 C 0.49794 0.07097 0.44551 0.0
C897 C 0.49577 0.08913 0.43023 0.0
H898 H 0.44287 0.09972 0.36924 0.0
H899 H 0.46268 0.09203 0.34827 0.0
H900 H 0.45158 0.08564 0.41955 0.0
H901 H 0.48963 0.1068 0.56693 0.0
H902 H 0.49346 0.07484 0.59401 0.0
H903 H 0.28557 0.47322 0.26496 0.0
H904 H 0.31418 0.47318 0.33044 0.0
H905 H 0.35431 0.54466 0.32507 0.0
H906 H 0.32553 0.54472 0.26029 0.0
H907 H 0.35401 0.48782 0.2763 0.0
H908 H 0.36854 0.53431 0.49532 0.0
H909 H 0.3426 0.52229 0.45106 0.0
H910 H 0.36586 0.54787 0.43233 0.0
C911 C 0.29991 0.48905 0.28082 0.0
C912 C 0.30338 0.50898 0.25803 0.0
C913 C 0.31635 0.489 0.31763 0.0
C914 C 0.33642 0.50889 0.33222 0.0
C915 C 0.33885 0.52918 0.31501 0.0
H916 H 0.46444 0.5307 0.47266 0.0
H917 H 0.43622 0.53607 0.42091 0.0
C918 C 0.32232 0.52923 0.27833 0.0
C919 C 0.35594 0.50773 0.35464 0.0
H920 H 0.39534 0.52471 0.4693 0.0
C921 C 0.36299 0.4958 0.31867 0.0
C922 C 0.36788 0.51857 0.40918 0.0
C923 C 0.36082 0.53137 0.44957 0.0
C924 C 0.38151 0.49417 0.33609 0.0
C925 C 0.39311 0.50448 0.39136 0.0
C926 C 0.38642 0.51688 0.42681 0.0
C927 C 0.4111 0.50108 0.41527 0.0
C928 C 0.38857 0.48152 0.29504 0.0
C929 C 0.40647 0.47955 0.42757 0.0
C930 C 0.42249 0.47641 0.45683 0.0
C931 C 0.44346 0.49476 0.47473 0.0
C932 C 0.4485 0.51618 0.45922 0.0
C933 C 0.43236 0.51933 0.43012 0.0
H934 H 0.38234 0.48049 0.24846 0.0
H935 H 0.40683 0.48951 0.29713 0.0
H936 H 0.38173 0.46421 0.30847 0.0
H937 H 0.3901 0.46528 0.41705 0.0
H938 H 0.41807 0.4597 0.46799 0.0
H939 H 0.80855 0.29298 0.2648 0.0
H940 H 0.82913 0.31807 0.35342 0.0
H941 H 0.89039 0.33191 0.28225 0.0
H942 H 0.86997 0.30674 0.19507 0.0
H943 H 0.89243 0.33246 0.40596 0.0
H944 H 0.85815 0.38413 0.32053 0.0
H945 H 0.83884 0.35665 0.34089 0.0
H946 H 0.85468 0.35976 0.27827 0.0
C947 C 0.82636 0.30077 0.26949 0.0
C948 C 0.83779 0.29823 0.22328 0.0
C949 C 0.83809 0.31519 0.31971 0.0
C950 C 0.8613 0.32721 0.32373 0.0
C951 C 0.87252 0.32287 0.28008 0.0
H952 H 0.96373 0.45627 0.38821 0.0
H953 H 0.93363 0.41857 0.35872 0.0
C954 C 0.86087 0.30854 0.23024 0.0
C955 C 0.87422 0.34676 0.36705 0.0
H956 H 0.88831 0.40153 0.39016 0.0
C957 C 0.8912 0.34743 0.40391 0.0
C958 C 0.87269 0.36633 0.36366 0.0
C959 C 0.85523 0.3669 0.32357 0.0
C960 C 0.90751 0.36751 0.43443 0.0
C961 C 0.90664 0.38726 0.42807 0.0
C962 C 0.88884 0.38627 0.3947 0.0
C963 C 0.92548 0.4096 0.44804 0.0
C964 C 0.92642 0.36788 0.46974 0.0
C965 C 0.93095 0.41697 0.5082 0.0
C966 C 0.94827 0.43863 0.52534 0.0
C967 C 0.96029 0.45323 0.48255 0.0
C968 C 0.95486 0.44555 0.42241 0.0
C969 C 0.93763 0.424 0.40542 0.0
H970 H 0.92549 0.35136 0.46673 0.0
H971 H 0.94237 0.38054 0.45387 0.0
H972 H 0.92631 0.37275 0.51695 0.0
H973 H 0.9216 0.40617 0.54172 0.0
H974 H 0.95194 0.44406 0.57193 0.0
H975 H 0.49701 0.81572 0.14755 0.0
H976 H 0.49025 0.83343 0.23388 0.0
H977 H 0.55609 0.85584 0.30944 0.0
H978 H 0.56288 0.83801 0.2237 0.0
H979 H 0.52321 0.844 0.39556 0.0
H980 H 0.52295 0.90242 0.23554 0.0
H981 H 0.50293 0.87349 0.2169 0.0
H982 H 0.53186 0.88267 0.21749 0.0
C983 C 0.50984 0.82397 0.18327 0.0
C984 C 0.53054 0.82572 0.17863 0.0
C985 C 0.50596 0.83404 0.2325 0.0
C986 C 0.52282 0.84626 0.27741 0.0
C987 C 0.54287 0.84648 0.27521 0.0
H988 H 0.55398 0.9525 0.54417 0.0
H989 H 0.55073 0.91884 0.49342 0.0
C990 C 0.54671 0.83625 0.22621 0.0
C991 C 0.52075 0.86134 0.32176 0.0
H992 H 0.51678 0.90845 0.33365 0.0
C993 C 0.52165 0.85803 0.38223 0.0
C994 C 0.51908 0.87981 0.30412 0.0
C995 C 0.51935 0.88502 0.24009 0.0
C996 C 0.52054 0.87259 0.42556 0.0
C997 C 0.51874 0.89095 0.40767 0.0
C998 C 0.51787 0.89418 0.34722 0.0
C999 C 0.51846 0.90776 0.44996 0.0
C1000 C 0.52109 0.86814 0.48985 0.0
C1001 C 0.50116 0.91234 0.4438 0.0
C1002 C 0.50315 0.93167 0.47178 0.0
C1003 C 0.52245 0.94676 0.50682 0.0
C1004 C 0.53891 0.94114 0.51752 0.0
C1005 C 0.53702 0.92184 0.48876 0.0
H1006 H 0.5166 0.85052 0.49519 0.0
H1007 H 0.53805 0.87915 0.51065 0.0
H1008 H 0.5097 0.87184 0.51393 0.0
H1009 H 0.48669 0.90169 0.41413 0.0
H1010 H 0.49009 0.93543 0.46317 0.0
H1011 H 0.71005 0.53062 0.19701 0.0
H1012 H 0.69061 0.53803 0.27354 0.0
H1013 H 0.73059 0.60887 0.25643 0.0
H1014 H 0.74974 0.60144 0.17823 0.0
H1015 H 0.69963 0.5633 0.38097 0.0
H1016 H 0.66853 0.59522 0.20161 0.0
H1017 H 0.68388 0.58126 0.18671 0.0
H1018 H 0.69789 0.60966 0.21841 0.0
C1019 C 0.7151 0.54782 0.2107 0.0
C1020 C 0.73115 0.56543 0.18108 0.0
C1021 C 0.70401 0.55204 0.25453 0.0
C1022 C 0.70876 0.57396 0.26964 0.0
C1023 C 0.72637 0.59179 0.24455 0.0
H1024 H 0.61629 0.58275 0.51088 0.0
H1025 H 0.65168 0.59249 0.47065 0.0
C1026 C 0.73747 0.58755 0.20039 0.0
C1027 C 0.69328 0.57742 0.30522 0.0
H1028 H 0.65183 0.58964 0.2908 0.0
C1029 C 0.68946 0.5695 0.3619 0.0
C1030 C 0.67986 0.58529 0.27982 0.0
C1031 C 0.68254 0.59321 0.21818 0.0
C1032 C 0.67192 0.56823 0.39264 0.0
C1033 C 0.65803 0.5753 0.36617 0.0
C1034 C 0.66259 0.58433 0.31098 0.0
C1035 C 0.63697 0.57059 0.39066 0.0
C1036 C 0.66749 0.55799 0.45137 0.0
C1037 C 0.61703 0.55553 0.35837 0.0
C1038 C 0.5969 0.55003 0.38089 0.0
C1039 C 0.59618 0.55952 0.43634 0.0
C1040 C 0.61622 0.57508 0.46812 0.0
C1041 C 0.63646 0.58056 0.44541 0.0
H1042 H 0.67799 0.55058 0.4619 0.0
H1043 H 0.67089 0.57107 0.487 0.0
H1044 H 0.6499 0.54477 0.45148 0.0
H1045 H 0.61704 0.54767 0.31596 0.0
H1046 H 0.58188 0.53808 0.35493 0.0
H1047 H 0.21167 0.71629 0.20727 0.0
H1048 H 0.19171 0.69365 0.28732 0.0
H1049 H 0.14512 0.7168 0.27088 0.0
H1050 H 0.16513 0.73977 0.19149 0.0
H1051 H 0.17304 0.70369 0.40278 0.0
H1052 H 0.11259 0.64573 0.22124 0.0
H1053 H 0.14058 0.66622 0.20831 0.0
H1054 H 0.12075 0.67485 0.22077 0.0
C1055 C 0.19764 0.71721 0.22205 0.0
C1056 C 0.18987 0.72969 0.19254 0.0
C1057 C 0.18622 0.70419 0.2677 0.0
C1058 C 0.16688 0.70345 0.2846 0.0
C1059 C 0.15999 0.71711 0.25828 0.0
H1060 H 0.07037 0.62629 0.53149 0.0
H1061 H 0.10068 0.65706 0.48578 0.0
C1062 C 0.17139 0.73013 0.21277 0.0
C1063 C 0.1523 0.68626 0.32349 0.0
H1064 H 0.10424 0.63625 0.31865 0.0
C1065 C 0.15799 0.68893 0.38462 0.0
C1066 C 0.13282 0.66695 0.29942 0.0
C1067 C 0.12626 0.66304 0.23382 0.0
C1068 C 0.14444 0.67277 0.42247 0.0
C1069 C 0.1248 0.6536 0.39833 0.0
C1070 C 0.11931 0.65095 0.33712 0.0
C1071 C 0.10947 0.63582 0.43492 0.0
C1072 C 0.15135 0.67611 0.48768 0.0
C1073 C 0.10466 0.61373 0.42267 0.0
C1074 C 0.08732 0.59614 0.4484 0.0
C1075 C 0.07427 0.60022 0.48676 0.0
C1076 C 0.08008 0.62253 0.50222 0.0
C1077 C 0.09747 0.64018 0.47624 0.0
H1078 H 0.16902 0.68898 0.49727 0.0
H1079 H 0.1413 0.68168 0.51186 0.0
H1080 H 0.14846 0.66019 0.50497 0.0
H1081 H 0.11371 0.60999 0.39097 0.0
H1082 H 0.08348 0.57922 0.4358 0.0
loop_
_geom_bond_atom_site_label_1
_geom_bond_atom_site_label_2
_geom_bond_distance
_geom_bond_site_symmetry_2
_ccdc_geom_bond_type
H0 C8 0.930 . S
H1 C11 0.930 . S
H2 C13 0.930 . S
H3 C14 0.970 . S
H4 C14 0.970 . S
H5 C16 0.930 . S
H6 C18 0.930 . S
H7 C20 0.930 . S
C8 H0 0.930 . S
C8 C9 1.382 . S
C8 C10 1.426 . S
C9 C8 1.382 . S
C9 C13 1.389 . S
C10 C8 1.426 . S
C10 C11 1.375 . S
C10 C14 1.532 . S
C11 H1 0.930 . S
C11 C10 1.375 . S
C11 C12 1.416 . S
C12 C11 1.416 . S
C12 C13 1.371 . S
C13 H2 0.930 . S
C13 C9 1.389 . S
C13 C12 1.371 . S
C14 H3 0.970 . S
C14 H4 0.970 . S
C14 C10 1.532 . S
C14 C15 1.499 . S
C15 C14 1.499 . S
C15 C16 1.370 . S
C15 C20 1.415 . S
C16 H5 0.930 . S
C16 C15 1.370 . S
C16 C17 1.407 . S
C17 C16 1.407 . S
C17 C18 1.365 . S
C18 H6 0.930 . S
C18 C17 1.365 . S
C18 C19 1.393 . S
C19 C18 1.393 . S
C19 C20 1.387 . S
C20 H7 0.930 . S
C20 C15 1.415 . S
C20 C19 1.387 . S
H21 C29 0.930 . S
H22 C32 0.930 . S
H23 C34 0.930 . S
H24 C35 0.970 . S
H25 C35 0.970 . S
H26 C37 0.930 . S
H27 C39 0.930 . S
H28 C41 0.930 . S
C29 H21 0.930 . S
C29 C30 1.382 . S
C29 C31 1.426 . S
C30 C29 1.382 . S
C30 C34 1.389 . S
C31 C29 1.426 . S
C31 C32 1.375 . S
C31 C35 1.532 . S
C32 H22 0.930 . S
C32 C31 1.375 . S
C32 C33 1.416 . S
C33 C32 1.416 . S
C33 C34 1.371 . S
C34 H23 0.930 . S
C34 C30 1.389 . S
C34 C33 1.371 . S
C35 H24 0.970 . S
C35 H25 0.970 . S
C35 C31 1.532 . S
C35 C36 1.499 . S
C36 C35 1.499 . S
C36 C37 1.370 . S
C36 C41 1.415 . S
C37 H26 0.930 . S
C37 C36 1.370 . S
C37 C38 1.407 . S
C38 C37 1.407 . S
C38 C39 1.365 . S
C39 H27 0.930 . S
C39 C38 1.365 . S
C39 C40 1.393 . S
C40 C39 1.393 . S
C40 C41 1.387 . S
C41 H28 0.930 . S
C41 C36 1.415 . S
C41 C40 1.387 . S
H42 C50 0.930 . S
H43 C53 0.930 . S
H44 C55 0.930 . S
H45 C56 0.970 . S
H46 C56 0.970 . S
H47 C58 0.930 . S
H48 C60 0.930 . S
H49 C62 0.930 . S
C50 H42 0.930 . S
C50 C51 1.382 . S
C50 C52 1.426 1_556 S
C51 C50 1.382 . S
C51 C55 1.389 1_556 S
C52 C50 1.426 1_554 S
C52 C53 1.375 . S
C52 C56 1.532 . S
C53 H43 0.930 . S
C53 C52 1.375 . S
C53 C54 1.416 . S
C54 C53 1.416 . S
C54 C55 1.371 . S
C55 H44 0.930 . S
C55 C51 1.389 1_554 S
C55 C54 1.371 . S
C56 H45 0.970 . S
C56 H46 0.970 . S
C56 C52 1.532 . S
C56 C57 1.499 . S
C57 C56 1.499 . S
C57 C58 1.370 1_554 S
C57 C62 1.415 . S
C58 H47 0.930 . S
C58 C57 1.370 1_556 S
C58 C59 1.407 . S
C59 C58 1.407 . S
C59 C60 1.365 1_556 S
C60 H48 0.930 . S
C60 C59 1.365 1_554 S
C60 C61 1.393 . S
C61 C60 1.393 . S
C61 C62 1.387 . S
C62 H49 0.930 . S
C62 C57 1.415 . S
C62 C61 1.387 . S
H63 C71 0.930 . S
H64 C74 0.930 . S
H65 C76 0.930 . S
H66 C77 0.970 1_556 S
H67 C77 0.970 . S
H68 C79 0.930 . S
H69 C81 0.930 . S
H70 C83 0.930 . S
C71 H63 0.930 . S
C71 C72 1.382 . S
C71 C73 1.426 1_556 S
C72 C71 1.382 . S
C72 C76 1.389 1_556 S
C73 C71 1.426 1_554 S
C73 C74 1.375 . S
C73 C77 1.532 . S
C74 H64 0.930 . S
C74 C73 1.375 . S
C74 C75 1.416 . S
C75 C74 1.416 . S
C75 C76 1.371 . S
C76 H65 0.930 . S
C76 C72 1.389 1_554 S
C76 C75 1.371 . S
C77 H66 0.970 1_554 S
C77 H67 0.970 . S
C77 C73 1.532 . S
C77 C78 1.499 . S
C78 C77 1.499 . S
C78 C79 1.370 1_554 S
C78 C83 1.415 . S
C79 H68 0.930 . S
C79 C78 1.370 1_556 S
C79 C80 1.407 . S
C80 C79 1.407 . S
C80 C81 1.365 1_556 S
C81 H69 0.930 . S
C81 C80 1.365 1_554 S
C81 C82 1.393 . S
C82 C81 1.393 . S
C82 C83 1.387 . S
C83 H70 0.930 . S
C83 C78 1.415 . S
C83 C82 1.387 . S
H84 C92 0.930 . S
H85 C95 0.930 . S
H86 C97 0.930 . S
H87 C98 0.970 . S
H88 C98 0.970 . S
H89 C100 0.930 . S
H90 C102 0.930 . S
H91 C104 0.930 . S
C92 H84 0.930 . S
C92 C93 1.382 . S
C92 C94 1.426 . S
C93 C92 1.382 . S
C93 C97 1.389 . S
C94 C92 1.426 . S
C94 C95 1.375 . S
C94 C98 1.532 . S
C95 H85 0.930 . S
C95 C94 1.375 . S
C95 C96 1.416 . S
C96 C95 1.416 . S
C96 C97 1.371 . S
C97 H86 0.930 . S
C97 C93 1.389 . S
C97 C96 1.371 . S
C98 H87 0.970 . S
C98 H88 0.970 . S
C98 C94 1.532 . S
C98 C99 1.499 . S
C99 C98 1.499 . S
C99 C100 1.370 . S
C99 C104 1.415 . S
C100 H89 0.930 . S
C100 C99 1.370 . S
C100 C101 1.407 . S
C101 C100 1.407 . S
C101 C102 1.365 . S
C102 H90 0.930 . S
C102 C101 1.365 . S
C102 C103 1.393 . S
C103 C102 1.393 . S
C103 C104 1.387 . S
C104 H91 0.930 . S
C104 C99 1.415 . S
C104 C103 1.387 . S
H105 C113 0.930 . S
H106 C116 0.930 . S
H107 C118 0.930 . S
H108 C119 0.970 . S
H109 C119 0.970 . S
H110 C121 0.930 . S
H111 C123 0.930 . S
H112 C125 0.930 . S
C113 H105 0.930 . S
C113 C114 1.382 . S
C113 C115 1.426 . S
C114 C113 1.382 . S
C114 C118 1.389 . S
C115 C113 1.426 . S
C115 C116 1.375 . S
C115 C119 1.532 . S
C116 H106 0.930 . S
C116 C115 1.375 . S
C116 C117 1.416 . S
C117 C116 1.416 . S
C117 C118 1.371 . S
C118 H107 0.930 . S
C118 C114 1.389 . S
C118 C117 1.371 . S
C119 H108 0.970 . S
C119 H109 0.970 . S
C119 C115 1.532 . S
C119 C120 1.499 . S
C120 C119 1.499 . S
C120 C121 1.370 . S
C120 C125 1.415 . S
C121 H110 0.930 . S
C121 C120 1.370 . S
C121 C122 1.407 . S
C122 C121 1.407 . S
C122 C123 1.365 . S
C123 H111 0.930 . S
C123 C122 1.365 . S
C123 C124 1.393 . S
C124 C123 1.393 . S
C124 C125 1.387 . S
C125 H112 0.930 . S
C125 C120 1.415 . S
C125 C124 1.387 . S
C126 O153 1.312 . S
C126 O154 1.208 . S
C127 O148 1.331 . S
C127 O151 1.244 . S
C128 O150 1.264 . S
C128 O152 1.273 . S
Mg129 O131 1.936 1_455 S
Mg129 O138 2.081 1_455 S
Mg129 O140 2.023 . S
Mg129 O144 2.031 1_455 S
Mg129 O153 2.291 . S
Mg130 O131 1.963 . S
Mg130 O141 1.942 . S
Mg130 O142 1.955 1_655 S
Mg130 O149 1.986 . S
O131 Mg129 1.936 1_655 S
O131 Mg130 1.963 . S
O131 Mg132 1.915 1_655 S
Mg132 O131 1.915 1_455 S
Mg132 O133 1.915 . S
Mg132 O137 2.013 . S
Mg132 O143 2.114 1_455 S
Mg132 O147 2.013 1_455 S
Mg132 O153 2.114 . S
O133 Mg132 1.915 . S
O133 Mg134 1.936 . S
O133 Mg135 1.963 . S
Mg134 O133 1.936 . S
Mg134 O143 2.291 1_455 S
Mg134 O148 2.081 . S
Mg134 O150 2.023 1_455 S
Mg134 O154 2.031 . S
Mg135 O133 1.963 . S
Mg135 O139 1.986 . S
Mg135 O151 1.942 . S
Mg135 O152 1.955 1_455 S
C136 O147 1.191 . S
C136 O149 1.307 . S
O137 Mg132 2.013 . S
O137 C156 1.191 . S
O138 Mg129 2.081 1_655 S
O138 C146 1.331 . S
O139 Mg135 1.986 . S
O139 C156 1.307 . S
O140 Mg129 2.023 . S
O140 C155 1.264 . S
O141 Mg130 1.942 . S
O141 C146 1.244 . S
O142 Mg130 1.955 1_455 S
O142 C155 1.273 . S
O143 Mg132 2.114 1_655 S
O143 Mg134 2.291 1_655 S
O143 C145 1.312 . S
O144 Mg129 2.031 1_655 S
O144 C145 1.208 . S
C145 O143 1.312 . S
C145 O144 1.208 . S
C146 O138 1.331 . S
C146 O141 1.244 . S
O147 Mg132 2.013 1_655 S
O147 C136 1.191 . S
O148 C127 1.331 . S
O148 Mg134 2.081 . S
O149 Mg130 1.986 . S
O149 C136 1.307 . S
O150 C128 1.264 . S
O150 Mg134 2.023 1_655 S
O151 C127 1.244 . S
O151 Mg135 1.942 . S
O152 C128 1.273 . S
O152 Mg135 1.955 1_655 S
O153 C126 1.312 . S
O153 Mg129 2.291 . S
O153 Mg132 2.114 . S
O154 C126 1.208 . S
O154 Mg134 2.031 . S
C155 O140 1.264 . S
C155 O142 1.273 . S
C156 O137 1.191 . S
C156 O139 1.307 . S
C157 O184 1.312 . S
C157 O185 1.208 . S
C158 O179 1.331 . S
C158 O182 1.244 . S
C159 O181 1.264 . S
C159 O183 1.273 . S
Mg160 O162 1.936 . S
Mg160 O169 2.081 1_545 S
Mg160 O171 2.023 . S
Mg160 O175 2.031 1_545 S
Mg160 O184 2.291 . S
Mg161 O162 1.963 . S
Mg161 O172 1.942 1_545 S
Mg161 O173 1.955 . S
Mg161 O180 1.986 1_545 S
O162 Mg160 1.936 . S
O162 Mg161 1.963 . S
O162 Mg163 1.915 . S
Mg163 O162 1.915 . S
Mg163 O164 1.915 . S
Mg163 O168 2.013 . S
Mg163 O174 2.114 1_545 S
Mg163 O178 2.013 1_545 S
Mg163 O184 2.114 . S
O164 Mg163 1.915 . S
O164 Mg165 1.936 . S
O164 Mg166 1.963 . S
Mg165 O164 1.936 . S
Mg165 O174 2.291 1_545 S
Mg165 O179 2.081 . S
Mg165 O181 2.023 1_545 S
Mg165 O185 2.031 . S
Mg166 O164 1.963 . S
Mg166 O170 1.986 . S
Mg166 O182 1.942 . S
Mg166 O183 1.955 1_545 S
C167 O178 1.191 . S
C167 O180 1.307 . S
O168 Mg163 2.013 . S
O168 C187 1.191 . S
O169 Mg160 2.081 1_565 S
O169 C177 1.331 . S
O170 Mg166 1.986 . S
O170 C187 1.307 . S
O171 Mg160 2.023 . S
O171 C186 1.264 . S
O172 Mg161 1.942 1_565 S
O172 C177 1.244 . S
O173 Mg161 1.955 . S
O173 C186 1.273 . S
O174 Mg163 2.114 1_565 S
O174 Mg165 2.291 1_565 S
O174 C176 1.312 . S
O175 Mg160 2.031 1_565 S
O175 C176 1.208 . S
C176 O174 1.312 . S
C176 O175 1.208 . S
C177 O169 1.331 . S
C177 O172 1.244 . S
O178 Mg163 2.013 1_565 S
O178 C167 1.191 . S
O179 C158 1.331 . S
O179 Mg165 2.081 . S
O180 Mg161 1.986 1_565 S
O180 C167 1.307 . S
O181 C159 1.264 . S
O181 Mg165 2.023 1_565 S
O182 C158 1.244 . S
O182 Mg166 1.942 . S
O183 C159 1.273 . S
O183 Mg166 1.955 1_565 S
O184 C157 1.312 . S
O184 Mg160 2.291 . S
O184 Mg163 2.114 . S
O185 C157 1.208 . S
O185 Mg165 2.031 . S
C186 O171 1.264 . S
C186 O173 1.273 . S
C187 O168 1.191 . S
C187 O170 1.307 . S
C188 O215 1.312 . S
C188 O216 1.208 . S
C189 O210 1.331 . S
C189 O213 1.244 . S
C190 O212 1.264 . S
C190 O214 1.273 . S
Mg191 O193 1.936 . S
Mg191 O200 2.081 . S
Mg191 O202 2.023 . S
Mg191 O206 2.031 . S
Mg191 O215 2.291 . S
Mg192 O193 1.963 . S
Mg192 O203 1.942 . S
Mg192 O204 1.955 . S
Mg192 O211 1.986 . S
O193 Mg191 1.936 . S
O193 Mg192 1.963 . S
O193 Mg194 1.915 . S
Mg194 O193 1.915 . S
Mg194 O195 1.915 . S
Mg194 O199 2.013 . S
Mg194 O205 2.114 . S
Mg194 O209 2.013 . S
Mg194 O215 2.114 . S
O195 Mg194 1.915 . S
O195 Mg196 1.936 . S
O195 Mg197 1.963 . S
Mg196 O195 1.936 . S
Mg196 O205 2.291 . S
Mg196 O210 2.081 . S
Mg196 O212 2.023 . S
Mg196 O216 2.031 . S
Mg197 O195 1.963 . S
Mg197 O201 1.986 . S
Mg197 O213 1.942 . S
Mg197 O214 1.955 . S
C198 O209 1.191 . S
C198 O211 1.307 . S
O199 Mg194 2.013 . S
O199 C218 1.191 . S
O200 Mg191 2.081 . S
O200 C208 1.331 . S
O201 Mg197 1.986 . S
O201 C218 1.307 . S
O202 Mg191 2.023 . S
O202 C217 1.264 . S
O203 Mg192 1.942 . S
O203 C208 1.244 . S
O204 Mg192 1.955 . S
O204 C217 1.273 . S
O205 Mg194 2.114 . S
O205 Mg196 2.291 . S
O205 C207 1.312 . S
O206 Mg191 2.031 . S
O206 C207 1.208 . S
C207 O205 1.312 . S
C207 O206 1.208 . S
C208 O200 1.331 . S
C208 O203 1.244 . S
O209 Mg194 2.013 . S
O209 C198 1.191 . S
O210 C189 1.331 . S
O210 Mg196 2.081 . S
O211 Mg192 1.986 . S
O211 C198 1.307 . S
O212 C190 1.264 . S
O212 Mg196 2.023 . S
O213 C189 1.244 . S
O213 Mg197 1.942 . S
O214 C190 1.273 . S
O214 Mg197 1.955 . S
O215 C188 1.312 . S
O215 Mg191 2.291 . S
O215 Mg194 2.114 . S
O216 C188 1.208 . S
O216 Mg196 2.031 . S
C217 O202 1.264 . S
C217 O204 1.273 . S
C218 O199 1.191 . S
C218 O201 1.307 . S
H219 C227 0.929 . S
H220 C229 0.930 . S
H221 C231 0.930 . S
H222 C234 0.929 . S
H223 C237 0.930 . S
H224 C239 0.960 . S
H225 C239 0.960 . S
H226 C239 0.960 . S
C227 H219 0.929 . S
C227 C228 1.377 . S
C227 C229 1.384 . S
C228 C227 1.377 . S
C228 C234 1.390 . S
C229 H220 0.930 . S
C229 C227 1.384 . S
C229 C230 1.372 . S
C230 C229 1.372 . S
C230 C231 1.400 . S
C230 C235 1.490 . S
C231 H221 0.930 . S
C231 C230 1.400 . S
C231 C234 1.386 . S
H232 C248 0.930 . S
H233 C249 0.931 . S
C234 H222 0.929 . S
C234 C228 1.390 . S
C234 C231 1.386 . S
C235 C230 1.490 . S
C235 C237 1.395 . S
C235 C238 1.403 . S
H236 C242 0.930 . S
C237 H223 0.930 . S
C237 C235 1.395 . S
C237 C240 1.403 . S
C238 C235 1.403 . S
C238 C239 1.524 . S
C238 C242 1.400 . S
C239 H224 0.960 . S
C239 H225 0.960 . S
C239 H226 0.960 . S
C239 C238 1.524 . S
C240 C237 1.403 . S
C240 C241 1.392 . S
C240 C244 1.495 . S
C241 C240 1.392 . S
C241 C242 1.385 . S
C241 C243 1.478 . S
C242 H236 0.930 . S
C242 C238 1.400 . S
C242 C241 1.385 . S
C243 C241 1.478 . S
C243 C245 1.381 . S
C243 C249 1.383 . S
C244 C240 1.495 . S
C244 H250 0.959 . S
C244 H251 0.961 . S
C244 H252 0.960 . S
C245 C243 1.381 . S
C245 C246 1.394 . S
C245 H253 0.930 . S
C246 C245 1.394 . S
C246 C247 1.383 . S
C246 H254 0.929 . S
C247 C246 1.383 . S
C247 C248 1.377 . S
C248 H232 0.930 . S
C248 C247 1.377 . S
C248 C249 1.379 . S
C249 H233 0.931 . S
C249 C243 1.383 . S
C249 C248 1.379 . S
H250 C244 0.959 . S
H251 C244 0.961 . S
H252 C244 0.960 . S
H253 C245 0.930 . S
H254 C246 0.929 . S
H255 C263 0.929 . S
H256 C265 0.930 . S
H257 C267 0.930 . S
H258 C270 0.929 . S
H259 C273 0.930 . S
H260 C275 0.960 . S
H261 C275 0.960 . S
H262 C275 0.960 . S
C263 H255 0.929 . S
C263 C264 1.377 . S
C263 C265 1.384 . S
C264 C263 1.377 . S
C264 C270 1.390 . S
C265 H256 0.930 . S
C265 C263 1.384 . S
C265 C266 1.372 . S
C266 C265 1.372 . S
C266 C267 1.400 . S
C266 C271 1.490 . S
C267 H257 0.930 . S
C267 C266 1.400 . S
C267 C270 1.386 . S
H268 C284 0.930 . S
H269 C285 0.931 . S
C270 H258 0.929 . S
C270 C264 1.390 . S
C270 C267 1.386 . S
C271 C266 1.490 . S
C271 C273 1.395 . S
C271 C274 1.403 . S
H272 C278 0.930 . S
C273 H259 0.930 . S
C273 C271 1.395 . S
C273 C276 1.403 . S
C274 C271 1.403 . S
C274 C275 1.524 . S
C274 C278 1.400 . S
C275 H260 0.960 . S
C275 H261 0.960 . S
C275 H262 0.960 . S
C275 C274 1.524 . S
C276 C273 1.403 . S
C276 C277 1.392 . S
C276 C280 1.495 . S
C277 C276 1.392 . S
C277 C278 1.385 . S
C277 C279 1.478 . S
C278 H272 0.930 . S
C278 C274 1.400 . S
C278 C277 1.385 . S
C279 C277 1.478 . S
C279 C281 1.381 . S
C279 C285 1.383 . S
C280 C276 1.495 . S
C280 H286 0.959 . S
C280 H287 0.961 . S
C280 H288 0.960 . S
C281 C279 1.381 . S
C281 C282 1.394 . S
C281 H289 0.930 . S
C282 C281 1.394 . S
C282 C283 1.383 . S
C282 H290 0.929 . S
C283 C282 1.383 . S
C283 C284 1.377 . S
C284 H268 0.930 . S
C284 C283 1.377 . S
C284 C285 1.379 . S
C285 H269 0.931 . S
C285 C279 1.383 . S
C285 C284 1.379 . S
H286 C280 0.959 . S
H287 C280 0.961 . S
H288 C280 0.960 . S
H289 C281 0.930 . S
H290 C282 0.929 . S
H291 C299 0.929 . S
H292 C301 0.930 . S
H293 C303 0.930 . S
H294 C306 0.929 . S
H295 C309 0.930 . S
H296 C311 0.960 . S
H297 C311 0.960 . S
H298 C311 0.960 . S
C299 H291 0.929 . S
C299 C300 1.377 . S
C299 C301 1.384 . S
C300 C299 1.377 . S
C300 C306 1.390 . S
C301 H292 0.930 . S
C301 C299 1.384 . S
C301 C302 1.372 . S
C302 C301 1.372 . S
C302 C303 1.400 . S
C302 C307 1.490 . S
C303 H293 0.930 . S
C303 C302 1.400 . S
C303 C306 1.386 . S
H304 C320 0.930 . S
H305 C321 0.931 . S
C306 H294 0.929 . S
C306 C300 1.390 . S
C306 C303 1.386 . S
C307 C302 1.490 . S
C307 C309 1.395 . S
C307 C310 1.403 . S
H308 C314 0.930 . S
C309 H295 0.930 . S
C309 C307 1.395 . S
C309 C312 1.403 . S
C310 C307 1.403 . S
C310 C311 1.524 . S
C310 C314 1.400 . S
C311 H296 0.960 . S
C311 H297 0.960 . S
C311 H298 0.960 . S
C311 C310 1.524 . S
C312 C309 1.403 . S
C312 C313 1.392 . S
C312 C316 1.495 . S
C313 C312 1.392 . S
C313 C314 1.385 . S
C313 C315 1.478 . S
C314 H308 0.930 . S
C314 C310 1.400 . S
C314 C313 1.385 . S
C315 C313 1.478 . S
C315 C317 1.381 . S
C315 C321 1.383 . S
C316 C312 1.495 . S
C316 H322 0.959 . S
C316 H323 0.961 . S
C316 H324 0.960 . S
C317 C315 1.381 . S
C317 C318 1.394 . S
C317 H325 0.930 . S
C318 C317 1.394 . S
C318 C319 1.383 . S
C318 H326 0.929 . S
C319 C318 1.383 . S
C319 C320 1.377 . S
C320 H304 0.930 . S
C320 C319 1.377 . S
C320 C321 1.379 . S
C321 H305 0.931 . S
C321 C315 1.383 . S
C321 C320 1.379 . S
H322 C316 0.959 . S
H323 C316 0.961 . S
H324 C316 0.960 . S
H325 C317 0.930 . S
H326 C318 0.929 . S
H327 C335 0.929 . S
H328 C337 0.930 . S
H329 C339 0.930 . S
H330 C342 0.929 . S
H331 C345 0.930 . S
H332 C347 0.960 . S
H333 C347 0.960 . S
H334 C347 0.960 . S
C335 H327 0.929 . S
C335 C336 1.377 . S
C335 C337 1.384 . S
C336 C335 1.377 . S
C336 C342 1.390 . S
C337 H328 0.930 . S
C337 C335 1.384 . S
C337 C338 1.372 . S
C338 C337 1.372 . S
C338 C339 1.400 . S
C338 C343 1.490 . S
C339 H329 0.930 . S
C339 C338 1.400 . S
C339 C342 1.386 . S
H340 C356 0.930 . S
H341 C357 0.931 . S
C342 H330 0.929 . S
C342 C336 1.390 . S
C342 C339 1.386 . S
C343 C338 1.490 . S
C343 C345 1.395 . S
C343 C346 1.403 . S
H344 C350 0.930 . S
C345 H331 0.930 . S
C345 C343 1.395 . S
C345 C348 1.403 . S
C346 C343 1.403 . S
C346 C347 1.524 . S
C346 C350 1.400 . S
C347 H332 0.960 . S
C347 H333 0.960 . S
C347 H334 0.960 . S
C347 C346 1.524 . S
C348 C345 1.403 . S
C348 C349 1.392 . S
C348 C352 1.495 . S
C349 C348 1.392 . S
C349 C350 1.385 . S
C349 C351 1.478 . S
C350 H344 0.930 . S
C350 C346 1.400 . S
C350 C349 1.385 . S
C351 C349 1.478 . S
C351 C353 1.381 . S
C351 C357 1.383 . S
C352 C348 1.495 . S
C352 H358 0.959 . S
C352 H359 0.961 . S
C352 H360 0.960 . S
C353 C351 1.381 . S
C353 C354 1.394 . S
C353 H361 0.930 . S
C354 C353 1.394 . S
C354 C355 1.383 . S
C354 H362 0.929 . S
C355 C354 1.383 . S
C355 C356 1.377 . S
C356 H340 0.930 . S
C356 C355 1.377 . S
C356 C357 1.379 . S
C357 H341 0.931 . S
C357 C351 1.383 . S
C357 C356 1.379 . S
H358 C352 0.959 . S
H359 C352 0.961 . S
H360 C352 0.960 . S
H361 C353 0.930 . S
H362 C354 0.929 . S
H363 C371 0.929 . S
H364 C373 0.930 . S
H365 C375 0.930 . S
H366 C378 0.929 . S
H367 C381 0.930 . S
H368 C383 0.960 . S
H369 C383 0.960 . S
H370 C383 0.960 . S
C371 H363 0.929 . S
C371 C372 1.377 . S
C371 C373 1.384 . S
C372 C371 1.377 . S
C372 C378 1.390 . S
C373 H364 0.930 . S
C373 C371 1.384 . S
C373 C374 1.372 . S
C374 C373 1.372 . S
C374 C375 1.400 . S
C374 C379 1.490 . S
C375 H365 0.930 . S
C375 C374 1.400 . S
C375 C378 1.386 . S
H376 C392 0.930 . S
H377 C393 0.931 . S
C378 H366 0.929 . S
C378 C372 1.390 . S
C378 C375 1.386 . S
C379 C374 1.490 . S
C379 C381 1.395 . S
C379 C382 1.403 . S
H380 C386 0.930 . S
C381 H367 0.930 . S
C381 C379 1.395 . S
C381 C384 1.403 . S
C382 C379 1.403 . S
C382 C383 1.524 . S
C382 C386 1.400 . S
C383 H368 0.960 . S
C383 H369 0.960 . S
C383 H370 0.960 . S
C383 C382 1.524 . S
C384 C381 1.403 . S
C384 C385 1.392 . S
C384 C388 1.495 . S
C385 C384 1.392 . S
C385 C386 1.385 . S
C385 C387 1.478 . S
C386 H380 0.930 . S
C386 C382 1.400 . S
C386 C385 1.385 . S
C387 C385 1.478 . S
C387 C389 1.381 . S
C387 C393 1.383 . S
C388 C384 1.495 . S
C388 H394 0.959 . S
C388 H395 0.961 . S
C388 H396 0.960 . S
C389 C387 1.381 . S
C389 C390 1.394 . S
C389 H397 0.930 . S
C390 C389 1.394 . S
C390 C391 1.383 . S
C390 H398 0.929 . S
C391 C390 1.383 . S
C391 C392 1.377 . S
C392 H376 0.930 . S
C392 C391 1.377 . S
C392 C393 1.379 . S
C393 H377 0.931 . S
C393 C387 1.383 . S
C393 C392 1.379 . S
H394 C388 0.959 . S
H395 C388 0.961 . S
H396 C388 0.960 . S
H397 C389 0.930 . S
H398 C390 0.929 . S
H399 C407 0.929 . S
H400 C409 0.930 . S
H401 C411 0.930 . S
H402 C414 0.929 . S
H403 C417 0.930 . S
H404 C419 0.960 . S
H405 C419 0.960 . S
H406 C419 0.960 . S
C407 H399 0.929 . S
C407 C408 1.377 . S
C407 C409 1.384 . S
C408 C407 1.377 . S
C408 C414 1.390 . S
C409 H400 0.930 . S
C409 C407 1.384 . S
C409 C410 1.372 . S
C410 C409 1.372 . S
C410 C411 1.400 . S
C410 C415 1.490 . S
C411 H401 0.930 . S
C411 C410 1.400 . S
C411 C414 1.386 . S
H412 C428 0.930 . S
H413 C429 0.931 . S
C414 H402 0.929 . S
C414 C408 1.390 . S
C414 C411 1.386 . S
C415 C410 1.490 . S
C415 C417 1.395 . S
C415 C418 1.403 . S
H416 C422 0.930 . S
C417 H403 0.930 . S
C417 C415 1.395 . S
C417 C420 1.403 . S
C418 C415 1.403 . S
C418 C419 1.524 . S
C418 C422 1.400 . S
C419 H404 0.960 . S
C419 H405 0.960 . S
C419 H406 0.960 . S
C419 C418 1.524 . S
C420 C417 1.403 . S
C420 C421 1.392 . S
C420 C424 1.495 . S
C421 C420 1.392 . S
C421 C422 1.385 . S
C421 C423 1.478 . S
C422 H416 0.930 . S
C422 C418 1.400 . S
C422 C421 1.385 . S
C423 C421 1.478 . S
C423 C425 1.381 . S
C423 C429 1.383 . S
C424 C420 1.495 . S
C424 H430 0.959 . S
C424 H431 0.961 . S
C424 H432 0.960 . S
C425 C423 1.381 . S
C425 C426 1.394 . S
C425 H433 0.930 . S
C426 C425 1.394 . S
C426 C427 1.383 . S
C426 H434 0.929 . S
C427 C426 1.383 . S
C427 C428 1.377 . S
C428 H412 0.930 . S
C428 C427 1.377 . S
C428 C429 1.379 . S
C429 H413 0.931 . S
C429 C423 1.383 . S
C429 C428 1.379 . S
H430 C424 0.959 . S
H431 C424 0.961 . S
H432 C424 0.960 . S
H433 C425 0.930 . S
H434 C426 0.929 . S
H435 C443 0.929 . S
H436 C445 0.930 . S
H437 C447 0.930 . S
H438 C450 0.929 . S
H439 C453 0.930 . S
H440 C455 0.960 . S
H441 C455 0.960 . S
H442 C455 0.960 . S
C443 H435 0.929 . S
C443 C444 1.377 . S
C443 C445 1.384 . S
C444 C443 1.377 . S
C444 C450 1.390 . S
C445 H436 0.930 . S
C445 C443 1.384 . S
C445 C446 1.372 . S
C446 C445 1.372 . S
C446 C447 1.400 . S
C446 C451 1.490 . S
C447 H437 0.930 . S
C447 C446 1.400 . S
C447 C450 1.386 . S
H448 C464 0.930 . S
H449 C465 0.931 . S
C450 H438 0.929 . S
C450 C444 1.390 . S
C450 C447 1.386 . S
C451 C446 1.490 . S
C451 C453 1.395 . S
C451 C454 1.403 . S
H452 C458 0.930 . S
C453 H439 0.930 . S
C453 C451 1.395 . S
C453 C456 1.403 . S
C454 C451 1.403 . S
C454 C455 1.524 . S
C454 C458 1.400 . S
C455 H440 0.960 . S
C455 H441 0.960 . S
C455 H442 0.960 . S
C455 C454 1.524 . S
C456 C453 1.403 . S
C456 C457 1.392 . S
C456 C460 1.495 . S
C457 C456 1.392 . S
C457 C458 1.385 . S
C457 C459 1.478 . S
C458 H452 0.930 . S
C458 C454 1.400 . S
C458 C457 1.385 . S
C459 C457 1.478 . S
C459 C461 1.381 . S
C459 C465 1.383 . S
C460 C456 1.495 . S
C460 H466 0.959 . S
C460 H467 0.961 . S
C460 H468 0.960 . S
C461 C459 1.381 . S
C461 C462 1.394 . S
C461 H469 0.930 . S
C462 C461 1.394 . S
C462 C463 1.383 . S
C462 H470 0.929 . S
C463 C462 1.383 . S
C463 C464 1.377 . S
C464 H448 0.930 . S
C464 C463 1.377 . S
C464 C465 1.379 . S
C465 H449 0.931 . S
C465 C459 1.383 . S
C465 C464 1.379 . S
H466 C460 0.959 . S
H467 C460 0.961 . S
H468 C460 0.960 . S
H469 C461 0.930 . S
H470 C462 0.929 . S
H471 C479 0.929 . S
H472 C481 0.930 . S
H473 C483 0.930 . S
H474 C486 0.929 . S
H475 C489 0.930 . S
H476 C491 0.960 . S
H477 C491 0.960 . S
H478 C491 0.960 . S
C479 H471 0.929 . S
C479 C480 1.377 . S
C479 C481 1.384 . S
C480 C479 1.377 . S
C480 C486 1.390 . S
C481 H472 0.930 . S
C481 C479 1.384 . S
C481 C482 1.372 . S
C482 C481 1.372 . S
C482 C483 1.400 . S
C482 C487 1.490 . S
C483 H473 0.930 . S
C483 C482 1.400 . S
C483 C486 1.386 . S
H484 C500 0.930 . S
H485 C501 0.931 . S
C486 H474 0.929 . S
C486 C480 1.390 . S
C486 C483 1.386 . S
C487 C482 1.490 . S
C487 C489 1.395 . S
C487 C490 1.403 . S
H488 C494 0.930 . S
C489 H475 0.930 . S
C489 C487 1.395 . S
C489 C492 1.403 . S
C490 C487 1.403 . S
C490 C491 1.524 . S
C490 C494 1.400 . S
C491 H476 0.960 . S
C491 H477 0.960 . S
C491 H478 0.960 . S
C491 C490 1.524 . S
C492 C489 1.403 . S
C492 C493 1.392 . S
C492 C496 1.495 . S
C493 C492 1.392 . S
C493 C494 1.385 . S
C493 C495 1.478 . S
C494 H488 0.930 . S
C494 C490 1.400 . S
C494 C493 1.385 . S
C495 C493 1.478 . S
C495 C497 1.381 . S
C495 C501 1.383 . S
C496 C492 1.495 . S
C496 H502 0.959 . S
C496 H503 0.961 . S
C496 H504 0.960 . S
C497 C495 1.381 . S
C497 C498 1.394 . S
C497 H505 0.930 . S
C498 C497 1.394 . S
C498 C499 1.383 . S
C498 H506 0.929 . S
C499 C498 1.383 . S
C499 C500 1.377 . S
C500 H484 0.930 . S
C500 C499 1.377 . S
C500 C501 1.379 . S
C501 H485 0.931 . S
C501 C495 1.383 . S
C501 C500 1.379 . S
H502 C496 0.959 . S
H503 C496 0.961 . S
H504 C496 0.960 . S
H505 C497 0.930 . S
H506 C498 0.929 . S
H507 C515 0.929 . S
H508 C517 0.932 . S
H509 C519 0.930 . S
H510 C522 0.929 . S
H511 C525 0.930 . S
H512 C527 0.960 . S
H513 C527 0.960 . S
H514 C527 0.960 . S
C515 H507 0.929 . S
C515 C516 1.381 . S
C515 C517 1.384 1_554 S
C516 C515 1.381 . S
C516 C522 1.382 1_554 S
C517 H508 0.932 . S
C517 C515 1.384 1_556 S
C517 C518 1.372 . S
C518 C517 1.372 . S
C518 C519 1.400 . S
C518 C523 1.490 . S
C519 H509 0.930 . S
C519 C518 1.400 . S
C519 C522 1.386 . S
H520 C536 0.930 . S
H521 C537 0.931 . S
C522 H510 0.929 . S
C522 C516 1.382 1_556 S
C522 C519 1.386 . S
C523 C518 1.490 . S
C523 C525 1.395 . S
C523 C526 1.403 . S
H524 C530 0.930 . S
C525 H511 0.930 . S
C525 C523 1.395 . S
C525 C528 1.403 . S
C526 C523 1.403 . S
C526 C527 1.524 . S
C526 C530 1.400 . S
C527 H512 0.960 . S
C527 H513 0.960 . S
C527 H514 0.960 . S
C527 C526 1.524 . S
C528 C525 1.403 . S
C528 C529 1.392 . S
C528 C532 1.495 . S
C529 C528 1.392 . S
C529 C530 1.385 . S
C529 C531 1.478 . S
C530 H524 0.930 . S
C530 C526 1.400 . S
C530 C529 1.385 . S
C531 C529 1.478 . S
C531 C533 1.381 . S
C531 C537 1.383 . S
C532 C528 1.495 . S
C532 H538 0.959 . S
C532 H539 0.961 . S
C532 H540 0.960 . S
C533 C531 1.381 . S
C533 C534 1.394 . S
C533 H541 0.930 . S
C534 C533 1.394 . S
C534 C535 1.383 . S
C534 H542 0.929 . S
C535 C534 1.383 . S
C535 C536 1.377 . S
C536 H520 0.930 . S
C536 C535 1.377 . S
C536 C537 1.379 . S
C537 H521 0.931 . S
C537 C531 1.383 . S
C537 C536 1.379 . S
H538 C532 0.959 . S
H539 C532 0.961 . S
H540 C532 0.960 . S
H541 C533 0.930 . S
H542 C534 0.929 . S
H543 C551 0.929 . S
H544 C553 0.930 . S
H545 C555 0.925 1_556 S
H546 C558 0.929 . S
H547 C561 0.930 . S
H548 C563 0.960 . S
H549 C563 0.960 . S
H550 C563 0.960 . S
C551 H543 0.929 . S
C551 C552 1.377 . S
C551 C553 1.384 . S
C552 C551 1.377 . S
C552 C558 1.390 . S
C553 H544 0.930 . S
C553 C551 1.384 . S
C553 C554 1.372 1_554 S
C554 C553 1.372 1_556 S
C554 C555 1.400 1_556 S
C554 C559 1.490 . S
C555 H545 0.925 1_554 S
C555 C554 1.400 1_554 S
C555 C558 1.386 . S
H556 C572 0.930 . S
H557 C573 0.931 . S
C558 H546 0.929 . S
C558 C552 1.390 . S
C558 C555 1.386 . S
C559 C554 1.490 . S
C559 C561 1.395 . S
C559 C562 1.403 . S
H560 C566 0.930 . S
C561 H547 0.930 . S
C561 C559 1.395 . S
C561 C564 1.403 . S
C562 C559 1.403 . S
C562 C563 1.524 1_556 S
C562 C566 1.400 . S
C563 H548 0.960 . S
C563 H549 0.960 . S
C563 H550 0.960 . S
C563 C562 1.524 1_554 S
C564 C561 1.403 . S
C564 C565 1.392 . S
C564 C568 1.495 . S
C565 C564 1.392 . S
C565 C566 1.385 . S
C565 C567 1.478 . S
C566 H560 0.930 . S
C566 C562 1.400 . S
C566 C565 1.385 . S
C567 C565 1.478 . S
C567 C569 1.381 . S
C567 C573 1.383 . S
C568 C564 1.495 . S
C568 H574 0.959 . S
C568 H575 0.961 . S
C568 H576 0.960 . S
C569 C567 1.381 . S
C569 C570 1.394 . S
C569 H577 0.930 . S
C570 C569 1.394 . S
C570 C571 1.383 . S
C570 H578 0.929 . S
C571 C570 1.383 . S
C571 C572 1.377 . S
C572 H556 0.930 . S
C572 C571 1.377 . S
C572 C573 1.379 . S
C573 H557 0.931 . S
C573 C567 1.383 . S
C573 C572 1.379 . S
H574 C568 0.959 . S
H575 C568 0.961 . S
H576 C568 0.960 . S
H577 C569 0.930 . S
H578 C570 0.929 . S
H579 C587 0.929 . S
H580 C589 0.930 . S
H581 C591 0.930 1_556 S
H582 C594 0.929 . S
H583 C597 0.930 . S
H584 C599 0.960 . S
H585 C599 0.960 . S
H586 C599 0.960 . S
C587 H579 0.929 . S
C587 C588 1.377 . S
C587 C589 1.384 . S
C588 C587 1.377 . S
C588 C594 1.390 . S
C589 H580 0.930 . S
C589 C587 1.384 . S
C589 C590 1.372 . S
C590 C589 1.372 . S
C590 C591 1.400 . S
C590 C595 1.490 1_554 S
C591 H581 0.930 1_554 S
C591 C590 1.400 . S
C591 C594 1.386 . S
H592 C608 0.930 . S
H593 C609 0.931 . S
C594 H582 0.929 . S
C594 C588 1.390 . S
C594 C591 1.386 . S
C595 C590 1.490 1_556 S
C595 C597 1.395 . S
C595 C598 1.403 . S
H596 C602 0.930 . S
C597 H583 0.930 . S
C597 C595 1.395 . S
C597 C600 1.403 . S
C598 C595 1.403 . S
C598 C599 1.524 1_556 S
C598 C602 1.400 . S
C599 H584 0.960 . S
C599 H585 0.960 . S
C599 H586 0.960 . S
C599 C598 1.524 1_554 S
C600 C597 1.403 . S
C600 C601 1.392 . S
C600 C604 1.495 . S
C601 C600 1.392 . S
C601 C602 1.385 . S
C601 C603 1.478 . S
C602 H596 0.930 . S
C602 C598 1.400 . S
C602 C601 1.385 . S
C603 C601 1.478 . S
C603 C605 1.381 . S
C603 C609 1.383 . S
C604 C600 1.495 . S
C604 H610 0.959 . S
C604 H611 0.961 . S
C604 H612 0.960 . S
C605 C603 1.381 . S
C605 C606 1.394 . S
C605 H613 0.930 . S
C606 C605 1.394 . S
C606 C607 1.383 . S
C606 H614 0.929 . S
C607 C606 1.383 . S
C607 C608 1.377 . S
C608 H592 0.930 . S
C608 C607 1.377 . S
C608 C609 1.379 . S
C609 H593 0.931 . S
C609 C603 1.383 . S
C609 C608 1.379 . S
H610 C604 0.959 . S
H611 C604 0.961 . S
H612 C604 0.960 . S
H613 C605 0.930 . S
H614 C606 0.929 . S
H615 C623 0.929 . S
H616 C625 0.930 1_554 S
H617 C627 0.930 . S
H618 C630 0.929 . S
H619 C633 0.930 . S
H620 C635 0.960 . S
H621 C635 0.960 . S
H622 C635 0.960 . S
C623 H615 0.929 . S
C623 C624 1.377 1_554 S
C623 C625 1.384 1_554 S
C624 C623 1.377 1_556 S
C624 C630 1.390 . S
C625 H616 0.930 1_556 S
C625 C623 1.384 1_556 S
C625 C626 1.372 . S
C626 C625 1.372 . S
C626 C627 1.400 . S
C626 C631 1.490 . S
C627 H617 0.930 . S
C627 C626 1.400 . S
C627 C630 1.386 . S
H628 C644 0.930 . S
H629 C645 0.931 . S
C630 H618 0.929 . S
C630 C624 1.390 . S
C630 C627 1.386 . S
C631 C626 1.490 . S
C631 C633 1.395 . S
C631 C634 1.403 . S
H632 C638 0.930 . S
C633 H619 0.930 . S
C633 C631 1.395 . S
C633 C636 1.403 . S
C634 C631 1.403 . S
C634 C635 1.524 . S
C634 C638 1.400 . S
C635 H620 0.960 . S
C635 H621 0.960 . S
C635 H622 0.960 . S
C635 C634 1.524 . S
C636 C633 1.403 . S
C636 C637 1.392 . S
C636 C640 1.495 . S
C637 C636 1.392 . S
C637 C638 1.385 . S
C637 C639 1.478 . S
C638 H632 0.930 . S
C638 C634 1.400 . S
C638 C637 1.385 . S
C639 C637 1.478 . S
C639 C641 1.381 . S
C639 C645 1.383 . S
C640 C636 1.495 . S
C640 H646 0.959 . S
C640 H647 0.961 . S
C640 H648 0.960 . S
C641 C639 1.381 . S
C641 C642 1.394 . S
C641 H649 0.930 . S
C642 C641 1.394 . S
C642 C643 1.383 . S
C642 H650 0.929 . S
C643 C642 1.383 . S
C643 C644 1.377 . S
C644 H628 0.930 . S
C644 C643 1.377 . S
C644 C645 1.379 . S
C645 H629 0.931 . S
C645 C639 1.383 . S
C645 C644 1.379 . S
H646 C640 0.959 . S
H647 C640 0.961 . S
H648 C640 0.960 . S
H649 C641 0.930 . S
H650 C642 0.929 . S
H651 C659 0.929 . S
H652 C661 0.930 . S
H653 C663 0.930 . S
H654 C666 0.929 . S
H655 C669 0.930 . S
H656 C671 0.960 . S
H657 C671 0.960 . S
H658 C671 0.960 . S
C659 H651 0.929 . S
C659 C660 1.377 . S
C659 C661 1.384 . S
C660 C659 1.377 . S
C660 C666 1.390 . S
C661 H652 0.930 . S
C661 C659 1.384 . S
C661 C662 1.372 . S
C662 C661 1.372 . S
C662 C663 1.400 . S
C662 C667 1.490 . S
C663 H653 0.930 . S
C663 C662 1.400 . S
C663 C666 1.386 . S
H664 C680 0.930 . S
H665 C681 0.931 . S
C666 H654 0.929 . S
C666 C660 1.390 . S
C666 C663 1.386 . S
C667 C662 1.490 . S
C667 C669 1.395 . S
C667 C670 1.403 . S
H668 C674 0.930 . S
C669 H655 0.930 . S
C669 C667 1.395 . S
C669 C672 1.403 . S
C670 C667 1.403 . S
C670 C671 1.524 . S
C670 C674 1.400 . S
C671 H656 0.960 . S
C671 H657 0.960 . S
C671 H658 0.960 . S
C671 C670 1.524 . S
C672 C669 1.403 . S
C672 C673 1.392 . S
C672 C676 1.495 . S
C673 C672 1.392 . S
C673 C674 1.385 . S
C673 C675 1.478 . S
C674 H668 0.930 . S
C674 C670 1.400 . S
C674 C673 1.385 . S
C675 C673 1.478 . S
C675 C677 1.381 . S
C675 C681 1.383 . S
C676 C672 1.495 . S
C676 H682 0.959 . S
C676 H683 0.961 . S
C676 H684 0.960 . S
C677 C675 1.381 . S
C677 C678 1.394 . S
C677 H685 0.930 . S
C678 C677 1.394 . S
C678 C679 1.383 . S
C678 H686 0.929 . S
C679 C678 1.383 . S
C679 C680 1.377 . S
C680 H664 0.930 . S
C680 C679 1.377 . S
C680 C681 1.379 . S
C681 H665 0.931 . S
C681 C675 1.383 . S
C681 C680 1.379 . S
H682 C676 0.959 . S
H683 C676 0.961 . S
H684 C676 0.960 . S
H685 C677 0.930 . S
H686 C678 0.929 . S
H687 C695 0.929 1_554 S
H688 C697 0.930 . S
H689 C699 0.930 . S
H690 C702 0.929 . S
H691 C705 0.930 . S
H692 C707 0.960 . S
H693 C707 0.960 . S
H694 C707 0.960 . S
C695 H687 0.929 1_556 S
C695 C696 1.377 1_556 S
C695 C697 1.384 . S
C696 C695 1.377 1_554 S
C696 C702 1.390 1_554 S
C697 H688 0.930 . S
C697 C695 1.384 . S
C697 C698 1.372 . S
C698 C697 1.372 . S
C698 C699 1.400 . S
C698 C703 1.490 . S
C699 H689 0.930 . S
C699 C698 1.400 . S
C699 C702 1.386 . S
H700 C716 0.930 . S
H701 C717 0.931 . S
C702 H690 0.929 . S
C702 C696 1.390 1_556 S
C702 C699 1.386 . S
C703 C698 1.490 . S
C703 C705 1.395 . S
C703 C706 1.403 . S
H704 C710 0.930 . S
C705 H691 0.930 . S
C705 C703 1.395 . S
C705 C708 1.403 . S
C706 C703 1.403 . S
C706 C707 1.524 . S
C706 C710 1.400 . S
C707 H692 0.960 . S
C707 H693 0.960 . S
C707 H694 0.960 . S
C707 C706 1.524 . S
C708 C705 1.403 . S
C708 C709 1.392 . S
C708 C712 1.495 . S
C709 C708 1.392 . S
C709 C710 1.385 . S
C709 C711 1.478 . S
C710 H704 0.930 . S
C710 C706 1.400 . S
C710 C709 1.385 . S
C711 C709 1.478 . S
C711 C713 1.381 . S
C711 C717 1.383 . S
C712 C708 1.495 . S
C712 H718 0.959 . S
C712 H719 0.961 . S
C712 H720 0.960 . S
C713 C711 1.381 . S
C713 C714 1.394 . S
C713 H721 0.930 . S
C714 C713 1.394 . S
C714 C715 1.383 . S
C714 H722 0.929 . S
C715 C714 1.383 . S
C715 C716 1.377 . S
C716 H700 0.930 . S
C716 C715 1.377 . S
C716 C717 1.379 . S
C717 H701 0.931 . S
C717 C711 1.383 . S
C717 C716 1.379 . S
H718 C712 0.959 . S
H719 C712 0.961 . S
H720 C712 0.960 . S
H721 C713 0.930 . S
H722 C714 0.929 . S
H723 C731 0.929 1_556 S
H724 C733 0.930 . S
H725 C735 0.930 . S
H726 C738 0.929 . S
H727 C741 0.930 . S
H728 C743 0.960 . S
H729 C743 0.960 . S
H730 C743 0.960 . S
C731 H723 0.929 1_554 S
C731 C732 1.377 . S
C731 C733 1.384 1_554 S
C732 C731 1.377 . S
C732 C738 1.390 . S
C733 H724 0.930 . S
C733 C731 1.384 1_556 S
C733 C734 1.372 . S
C734 C733 1.372 . S
C734 C735 1.400 1_556 S
C734 C739 1.490 . S
C735 H725 0.930 . S
C735 C734 1.400 1_554 S
C735 C738 1.386 . S
H736 C752 0.930 . S
H737 C753 0.931 . S
C738 H726 0.929 . S
C738 C732 1.390 . S
C738 C735 1.386 . S
C739 C734 1.490 . S
C739 C741 1.395 . S
C739 C742 1.403 . S
H740 C746 0.930 . S
C741 H727 0.930 . S
C741 C739 1.395 . S
C741 C744 1.403 . S
C742 C739 1.403 . S
C742 C743 1.524 1_556 S
C742 C746 1.400 . S
C743 H728 0.960 . S
C743 H729 0.960 . S
C743 H730 0.960 . S
C743 C742 1.524 1_554 S
C744 C741 1.403 . S
C744 C745 1.392 . S
C744 C748 1.495 . S
C745 C744 1.392 . S
C745 C746 1.385 . S
C745 C747 1.478 . S
C746 H740 0.930 . S
C746 C742 1.400 . S
C746 C745 1.385 . S
C747 C745 1.478 . S
C747 C749 1.381 . S
C747 C753 1.383 . S
C748 C744 1.495 . S
C748 H754 0.959 . S
C748 H755 0.961 . S
C748 H756 0.960 . S
C749 C747 1.381 . S
C749 C750 1.394 . S
C749 H757 0.930 . S
C750 C749 1.394 . S
C750 C751 1.383 . S
C750 H758 0.929 . S
C751 C750 1.383 . S
C751 C752 1.377 . S
C752 H736 0.930 . S
C752 C751 1.377 . S
C752 C753 1.379 . S
C753 H737 0.931 . S
C753 C747 1.383 . S
C753 C752 1.379 . S
H754 C748 0.959 . S
H755 C748 0.961 . S
H756 C748 0.960 . S
H757 C749 0.930 . S
H758 C750 0.929 . S
H759 C767 0.929 . S
H760 C769 0.930 . S
H761 C771 0.930 . S
H762 C774 0.929 . S
H763 C777 0.930 . S
H764 C779 0.960 . S
H765 C779 0.960 . S
H766 C779 0.960 . S
C767 H759 0.929 . S
C767 C768 1.377 . S
C767 C769 1.384 1_554 S
C768 C767 1.377 . S
C768 C774 1.390 . S
C769 H760 0.930 . S
C769 C767 1.384 1_556 S
C769 C770 1.372 . S
C770 C769 1.372 . S
C770 C771 1.400 1_556 S
C770 C775 1.490 . S
C771 H761 0.930 . S
C771 C770 1.400 1_554 S
C771 C774 1.386 . S
H772 C788 0.930 . S
H773 C789 0.931 . S
C774 H762 0.929 . S
C774 C768 1.390 . S
C774 C771 1.386 . S
C775 C770 1.490 . S
C775 C777 1.395 . S
C775 C778 1.403 . S
H776 C782 0.930 . S
C777 H763 0.930 . S
C777 C775 1.395 . S
C777 C780 1.403 . S
C778 C775 1.403 . S
C778 C779 1.524 . S
C778 C782 1.400 . S
C779 H764 0.960 . S
C779 H765 0.960 . S
C779 H766 0.960 . S
C779 C778 1.524 . S
C780 C777 1.403 . S
C780 C781 1.392 . S
C780 C784 1.495 . S
C781 C780 1.392 . S
C781 C782 1.385 . S
C781 C783 1.478 . S
C782 H776 0.930 . S
C782 C778 1.400 . S
C782 C781 1.385 . S
C783 C781 1.478 . S
C783 C785 1.381 . S
C783 C789 1.383 . S
C784 C780 1.495 . S
C784 H790 0.959 . S
C784 H791 0.961 . S
C784 H792 0.960 . S
C785 C783 1.381 . S
C785 C786 1.394 . S
C785 H793 0.930 . S
C786 C785 1.394 . S
C786 C787 1.383 . S
C786 H794 0.929 . S
C787 C786 1.383 . S
C787 C788 1.377 . S
C788 H772 0.930 . S
C788 C787 1.377 . S
C788 C789 1.379 . S
C789 H773 0.931 . S
C789 C783 1.383 . S
C789 C788 1.379 . S
H790 C784 0.959 . S
H791 C784 0.961 . S
H792 C784 0.960 . S
H793 C785 0.930 . S
H794 C786 0.929 . S
H795 C803 0.929 . S
H796 C805 0.930 . S
H797 C807 0.930 . S
H798 C810 0.929 . S
H799 C813 0.930 . S
H800 C815 0.960 . S
H801 C815 0.960 . S
H802 C815 0.960 . S
C803 H795 0.929 . S
C803 C804 1.377 1_554 S
C803 C805 1.384 1_554 S
C804 C803 1.377 1_556 S
C804 C810 1.390 . S
C805 H796 0.930 . S
C805 C803 1.384 1_556 S
C805 C806 1.372 . S
C806 C805 1.372 . S
C806 C807 1.400 . S
C806 C811 1.490 . S
C807 H797 0.930 . S
C807 C806 1.400 . S
C807 C810 1.386 . S
H808 C824 0.930 . S
H809 C825 0.931 . S
C810 H798 0.929 . S
C810 C804 1.390 . S
C810 C807 1.386 . S
C811 C806 1.490 . S
C811 C813 1.395 . S
C811 C814 1.403 . S
H812 C818 0.930 . S
C813 H799 0.930 . S
C813 C811 1.395 . S
C813 C816 1.403 . S
C814 C811 1.403 . S
C814 C815 1.524 . S
C814 C818 1.400 . S
C815 H800 0.960 . S
C815 H801 0.960 . S
C815 H802 0.960 . S
C815 C814 1.524 . S
C816 C813 1.403 . S
C816 C817 1.392 . S
C816 C820 1.495 . S
C817 C816 1.392 . S
C817 C818 1.385 . S
C817 C819 1.478 . S
C818 H812 0.930 . S
C818 C814 1.400 . S
C818 C817 1.385 . S
C819 C817 1.478 . S
C819 C821 1.381 . S
C819 C825 1.383 . S
C820 C816 1.495 . S
C820 H826 0.959 . S
C820 H827 0.961 . S
C820 H828 0.960 . S
C821 C819 1.381 . S
C821 C822 1.394 . S
C821 H829 0.930 . S
C822 C821 1.394 . S
C822 C823 1.383 . S
C822 H830 0.929 . S
C823 C822 1.383 . S
C823 C824 1.377 . S
C824 H808 0.930 . S
C824 C823 1.377 . S
C824 C825 1.379 . S
C825 H809 0.931 . S
C825 C819 1.383 . S
C825 C824 1.379 . S
H826 C820 0.959 . S
H827 C820 0.961 . S
H828 C820 0.960 . S
H829 C821 0.930 . S
H830 C822 0.929 . S
H831 C839 0.929 . S
H832 C841 0.930 . S
H833 C843 0.930 . S
H834 C846 0.929 . S
H835 C849 0.930 . S
H836 C851 0.960 . S
H837 C851 0.960 . S
H838 C851 0.960 . S
C839 H831 0.929 . S
C839 C840 1.377 . S
C839 C841 1.384 . S
C840 C839 1.377 . S
C840 C846 1.390 . S
C841 H832 0.930 . S
C841 C839 1.384 . S
C841 C842 1.372 . S
C842 C841 1.372 . S
C842 C843 1.400 . S
C842 C847 1.490 . S
C843 H833 0.930 . S
C843 C842 1.400 . S
C843 C846 1.386 . S
H844 C860 0.930 . S
H845 C861 0.931 . S
C846 H834 0.929 . S
C846 C840 1.390 . S
C846 C843 1.386 . S
C847 C842 1.490 . S
C847 C849 1.395 . S
C847 C850 1.403 . S
H848 C854 0.930 . S
C849 H835 0.930 . S
C849 C847 1.395 . S
C849 C852 1.403 . S
C850 C847 1.403 . S
C850 C851 1.524 . S
C850 C854 1.400 . S
C851 H836 0.960 . S
C851 H837 0.960 . S
C851 H838 0.960 . S
C851 C850 1.524 . S
C852 C849 1.403 . S
C852 C853 1.392 . S
C852 C856 1.495 . S
C853 C852 1.392 . S
C853 C854 1.385 . S
C853 C855 1.478 . S
C854 H848 0.930 . S
C854 C850 1.400 . S
C854 C853 1.385 . S
C855 C853 1.478 . S
C855 C857 1.381 . S
C855 C861 1.383 . S
C856 C852 1.495 . S
C856 H862 0.959 . S
C856 H863 0.961 . S
C856 H864 0.960 . S
C857 C855 1.381 . S
C857 C858 1.394 . S
C857 H865 0.930 . S
C858 C857 1.394 . S
C858 C859 1.383 . S
C858 H866 0.929 . S
C859 C858 1.383 . S
C859 C860 1.377 . S
C860 H844 0.930 . S
C860 C859 1.377 . S
C860 C861 1.379 . S
C861 H845 0.931 . S
C861 C855 1.383 . S
C861 C860 1.379 . S
H862 C856 0.959 . S
H863 C856 0.961 . S
H864 C856 0.960 . S
H865 C857 0.930 . S
H866 C858 0.929 . S
H867 C875 0.929 . S
H868 C877 0.930 . S
H869 C879 0.930 . S
H870 C882 0.929 . S
H871 C885 0.930 . S
H872 C887 0.960 . S
H873 C887 0.960 . S
H874 C887 0.960 . S
C875 H867 0.929 . S
C875 C876 1.377 . S
C875 C877 1.384 . S
C876 C875 1.377 . S
C876 C882 1.390 . S
C877 H868 0.930 . S
C877 C875 1.384 . S
C877 C878 1.372 . S
C878 C877 1.372 . S
C878 C879 1.400 . S
C878 C883 1.490 . S
C879 H869 0.930 . S
C879 C878 1.400 . S
C879 C882 1.386 . S
H880 C896 0.930 . S
H881 C897 0.931 . S
C882 H870 0.929 . S
C882 C876 1.390 . S
C882 C879 1.386 . S
C883 C878 1.490 . S
C883 C885 1.395 . S
C883 C886 1.403 . S
H884 C890 0.930 . S
C885 H871 0.930 . S
C885 C883 1.395 . S
C885 C888 1.403 . S
C886 C883 1.403 . S
C886 C887 1.524 . S
C886 C890 1.400 . S
C887 H872 0.960 . S
C887 H873 0.960 . S
C887 H874 0.960 . S
C887 C886 1.524 . S
C888 C885 1.403 . S
C888 C889 1.392 . S
C888 C892 1.495 . S
C889 C888 1.392 . S
C889 C890 1.385 . S
C889 C891 1.478 . S
C890 H884 0.930 . S
C890 C886 1.400 . S
C890 C889 1.385 . S
C891 C889 1.478 . S
C891 C893 1.381 . S
C891 C897 1.383 . S
C892 C888 1.495 . S
C892 H898 0.959 . S
C892 H899 0.961 . S
C892 H900 0.960 . S
C893 C891 1.381 . S
C893 C894 1.394 . S
C893 H901 0.930 . S
C894 C893 1.394 . S
C894 C895 1.383 . S
C894 H902 0.929 . S
C895 C894 1.383 . S
C895 C896 1.377 . S
C896 H880 0.930 . S
C896 C895 1.377 . S
C896 C897 1.379 . S
C897 H881 0.931 . S
C897 C891 1.383 . S
C897 C896 1.379 . S
H898 C892 0.959 . S
H899 C892 0.961 . S
H900 C892 0.960 . S
H901 C893 0.930 . S
H902 C894 0.929 . S
H903 C911 0.929 . S
H904 C913 0.930 . S
H905 C915 0.930 . S
H906 C918 0.929 . S
H907 C921 0.930 . S
H908 C923 0.960 . S
H909 C923 0.960 . S
H910 C923 0.960 . S
C911 H903 0.929 . S
C911 C912 1.377 . S
C911 C913 1.384 . S
C912 C911 1.377 . S
C912 C918 1.390 . S
C913 H904 0.930 . S
C913 C911 1.384 . S
C913 C914 1.372 . S
C914 C913 1.372 . S
C914 C915 1.400 . S
C914 C919 1.490 . S
C915 H905 0.930 . S
C915 C914 1.400 . S
C915 C918 1.386 . S
H916 C932 0.930 . S
H917 C933 0.931 . S
C918 H906 0.929 . S
C918 C912 1.390 . S
C918 C915 1.386 . S
C919 C914 1.490 . S
C919 C921 1.395 . S
C919 C922 1.403 . S
H920 C926 0.930 . S
C921 H907 0.930 . S
C921 C919 1.395 . S
C921 C924 1.403 . S
C922 C919 1.403 . S
C922 C923 1.524 . S
C922 C926 1.400 . S
C923 H908 0.960 . S
C923 H909 0.960 . S
C923 H910 0.960 . S
C923 C922 1.524 . S
C924 C921 1.403 . S
C924 C925 1.392 . S
C924 C928 1.495 . S
C925 C924 1.392 . S
C925 C926 1.385 . S
C925 C927 1.478 . S
C926 H920 0.930 . S
C926 C922 1.400 . S
C926 C925 1.385 . S
C927 C925 1.478 . S
C927 C929 1.381 . S
C927 C933 1.383 . S
C928 C924 1.495 . S
C928 H934 0.959 . S
C928 H935 0.961 . S
C928 H936 0.960 . S
C929 C927 1.381 . S
C929 C930 1.394 . S
C929 H937 0.930 . S
C930 C929 1.394 . S
C930 C931 1.383 . S
C930 H938 0.929 . S
C931 C930 1.383 . S
C931 C932 1.377 . S
C932 H916 0.930 . S
C932 C931 1.377 . S
C932 C933 1.379 . S
C933 H917 0.931 . S
C933 C927 1.383 . S
C933 C932 1.379 . S
H934 C928 0.959 . S
H935 C928 0.961 . S
H936 C928 0.960 . S
H937 C929 0.930 . S
H938 C930 0.929 . S
H939 C947 0.929 . S
H940 C949 0.930 . S
H941 C951 0.930 . S
H942 C954 0.929 . S
H943 C957 0.930 . S
H944 C959 0.960 . S
H945 C959 0.960 . S
H946 C959 0.960 . S
C947 H939 0.929 . S
C947 C948 1.377 . S
C947 C949 1.384 . S
C948 C947 1.377 . S
C948 C954 1.390 . S
C949 H940 0.930 . S
C949 C947 1.384 . S
C949 C950 1.372 . S
C950 C949 1.372 . S
C950 C951 1.400 . S
C950 C955 1.490 . S
C951 H941 0.930 . S
C951 C950 1.400 . S
C951 C954 1.386 . S
H952 C968 0.930 . S
H953 C969 0.931 . S
C954 H942 0.929 . S
C954 C948 1.390 . S
C954 C951 1.386 . S
C955 C950 1.490 . S
C955 C957 1.395 . S
C955 C958 1.403 . S
H956 C962 0.930 . S
C957 H943 0.930 . S
C957 C955 1.395 . S
C957 C960 1.403 . S
C958 C955 1.403 . S
C958 C959 1.524 . S
C958 C962 1.400 . S
C959 H944 0.960 . S
C959 H945 0.960 . S
C959 H946 0.960 . S
C959 C958 1.524 . S
C960 C957 1.403 . S
C960 C961 1.392 . S
C960 C964 1.495 . S
C961 C960 1.392 . S
C961 C962 1.385 . S
C961 C963 1.478 . S
C962 H956 0.930 . S
C962 C958 1.400 . S
C962 C961 1.385 . S
C963 C961 1.478 . S
C963 C965 1.381 . S
C963 C969 1.383 . S
C964 C960 1.495 . S
C964 H970 0.959 . S
C964 H971 0.961 . S
C964 H972 0.960 . S
C965 C963 1.381 . S
C965 C966 1.394 . S
C965 H973 0.930 . S
C966 C965 1.394 . S
C966 C967 1.383 . S
C966 H974 0.929 . S
C967 C966 1.383 . S
C967 C968 1.377 . S
C968 H952 0.930 . S
C968 C967 1.377 . S
C968 C969 1.379 . S
C969 H953 0.931 . S
C969 C963 1.383 . S
C969 C968 1.379 . S
H970 C964 0.959 . S
H971 C964 0.961 . S
H972 C964 0.960 . S
H973 C965 0.930 . S
H974 C966 0.929 . S
H975 C983 0.929 . S
H976 C985 0.930 . S
H977 C987 0.930 . S
H978 C990 0.929 . S
H979 C993 0.930 . S
H980 C995 0.960 . S
H981 C995 0.960 . S
H982 C995 0.960 . S
C983 H975 0.929 . S
C983 C984 1.377 . S
C983 C985 1.384 . S
C984 C983 1.377 . S
C984 C990 1.390 . S
C985 H976 0.930 . S
C985 C983 1.384 . S
C985 C986 1.372 . S
C986 C985 1.372 . S
C986 C987 1.400 . S
C986 C991 1.490 . S
C987 H977 0.930 . S
C987 C986 1.400 . S
C987 C990 1.386 . S
H988 C1004 0.930 . S
H989 C1005 0.931 . S
C990 H978 0.929 . S
C990 C984 1.390 . S
C990 C987 1.386 . S
C991 C986 1.490 . S
C991 C993 1.395 . S
C991 C994 1.403 . S
H992 C998 0.930 . S
C993 H979 0.930 . S
C993 C991 1.395 . S
C993 C996 1.403 . S
C994 C991 1.403 . S
C994 C995 1.524 . S
C994 C998 1.400 . S
C995 H980 0.960 . S
C995 H981 0.960 . S
C995 H982 0.960 . S
C995 C994 1.524 . S
C996 C993 1.403 . S
C996 C997 1.392 . S
C996 C1000 1.495 . S
C997 C996 1.392 . S
C997 C998 1.385 . S
C997 C999 1.478 . S
C998 H992 0.930 . S
C998 C994 1.400 . S
C998 C997 1.385 . S
C999 C997 1.478 . S
C999 C1001 1.381 . S
C999 C1005 1.383 . S
C1000 C996 1.495 . S
C1000 H1006 0.959 . S
C1000 H1007 0.961 . S
C1000 H1008 0.960 . S
C1001 C999 1.381 . S
C1001 C1002 1.394 . S
C1001 H1009 0.930 . S
C1002 C1001 1.394 . S
C1002 C1003 1.383 . S
C1002 H1010 0.929 . S
C1003 C1002 1.383 . S
C1003 C1004 1.377 . S
C1004 H988 0.930 . S
C1004 C1003 1.377 . S
C1004 C1005 1.379 . S
C1005 H989 0.931 . S
C1005 C999 1.383 . S
C1005 C1004 1.379 . S
H1006 C1000 0.959 . S
H1007 C1000 0.961 . S
H1008 C1000 0.960 . S
H1009 C1001 0.930 . S
H1010 C1002 0.929 . S
H1011 C1019 0.929 . S
H1012 C1021 0.930 . S
H1013 C1023 0.930 . S
H1014 C1026 0.929 . S
H1015 C1029 0.930 . S
H1016 C1031 0.960 . S
H1017 C1031 0.960 . S
H1018 C1031 0.960 . S
C1019 H1011 0.929 . S
C1019 C1020 1.377 . S
C1019 C1021 1.384 . S
C1020 C1019 1.377 . S
C1020 C1026 1.390 . S
C1021 H1012 0.930 . S
C1021 C1019 1.384 . S
C1021 C1022 1.372 . S
C1022 C1021 1.372 . S
C1022 C1023 1.400 . S
C1022 C1027 1.490 . S
C1023 H1013 0.930 . S
C1023 C1022 1.400 . S
C1023 C1026 1.386 . S
H1024 C1040 0.930 . S
H1025 C1041 0.931 . S
C1026 H1014 0.929 . S
C1026 C1020 1.390 . S
C1026 C1023 1.386 . S
C1027 C1022 1.490 . S
C1027 C1029 1.395 . S
C1027 C1030 1.403 . S
H1028 C1034 0.930 . S
C1029 H1015 0.930 . S
C1029 C1027 1.395 . S
C1029 C1032 1.403 . S
C1030 C1027 1.403 . S
C1030 C1031 1.524 . S
C1030 C1034 1.400 . S
C1031 H1016 0.960 . S
C1031 H1017 0.960 . S
C1031 H1018 0.960 . S
C1031 C1030 1.524 . S
C1032 C1029 1.403 . S
C1032 C1033 1.392 . S
C1032 C1036 1.495 . S
C1033 C1032 1.392 . S
C1033 C1034 1.385 . S
C1033 C1035 1.478 . S
C1034 H1028 0.930 . S
C1034 C1030 1.400 . S
C1034 C1033 1.385 . S
C1035 C1033 1.478 . S
C1035 C1037 1.381 . S
C1035 C1041 1.383 . S
C1036 C1032 1.495 . S
C1036 H1042 0.959 . S
C1036 H1043 0.961 . S
C1036 H1044 0.960 . S
C1037 C1035 1.381 . S
C1037 C1038 1.394 . S
C1037 H1045 0.930 . S
C1038 C1037 1.394 . S
C1038 C1039 1.383 . S
C1038 H1046 0.929 . S
C1039 C1038 1.383 . S
C1039 C1040 1.377 . S
C1040 H1024 0.930 . S
C1040 C1039 1.377 . S
C1040 C1041 1.379 . S
C1041 H1025 0.931 . S
C1041 C1035 1.383 . S
C1041 C1040 1.379 . S
H1042 C1036 0.959 . S
H1043 C1036 0.961 . S
H1044 C1036 0.960 . S
H1045 C1037 0.930 . S
H1046 C1038 0.929 . S
H1047 C1055 0.929 . S
H1048 C1057 0.930 . S
H1049 C1059 0.930 . S
H1050 C1062 0.929 . S
H1051 C1065 0.930 . S
H1052 C1067 0.960 . S
H1053 C1067 0.960 . S
H1054 C1067 0.960 . S
C1055 H1047 0.929 . S
C1055 C1056 1.377 . S
C1055 C1057 1.384 . S
C1056 C1055 1.377 . S
C1056 C1062 1.390 . S
C1057 H1048 0.930 . S
C1057 C1055 1.384 . S
C1057 C1058 1.372 . S
C1058 C1057 1.372 . S
C1058 C1059 1.400 . S
C1058 C1063 1.490 . S
C1059 H1049 0.930 . S
C1059 C1058 1.400 . S
C1059 C1062 1.386 . S
H1060 C1076 0.930 . S
H1061 C1077 0.931 . S
C1062 H1050 0.929 . S
C1062 C1056 1.390 . S
C1062 C1059 1.386 . S
C1063 C1058 1.490 . S
C1063 C1065 1.395 . S
C1063 C1066 1.403 . S
H1064 C1070 0.930 . S
C1065 H1051 0.930 . S
C1065 C1063 1.395 . S
C1065 C1068 1.403 . S
C1066 C1063 1.403 . S
C1066 C1067 1.524 . S
C1066 C1070 1.400 . S
C1067 H1052 0.960 . S
C1067 H1053 0.960 . S
C1067 H1054 0.960 . S
C1067 C1066 1.524 . S
C1068 C1065 1.403 . S
C1068 C1069 1.392 . S
C1068 C1072 1.495 . S
C1069 C1068 1.392 . S
C1069 C1070 1.385 . S
C1069 C1071 1.478 . S
C1070 H1064 0.930 . S
C1070 C1066 1.400 . S
C1070 C1069 1.385 . S
C1071 C1069 1.478 . S
C1071 C1073 1.381 . S
C1071 C1077 1.383 . S
C1072 C1068 1.495 . S
C1072 H1078 0.959 . S
C1072 H1079 0.961 . S
C1072 H1080 0.960 . S
C1073 C1071 1.381 . S
C1073 C1074 1.394 . S
C1073 H1081 0.930 . S
C1074 C1073 1.394 . S
C1074 C1075 1.383 . S
C1074 H1082 0.929 . S
C1075 C1074 1.383 . S
C1075 C1076 1.377 . S
C1076 H1060 0.930 . S
C1076 C1075 1.377 . S
C1076 C1077 1.379 . S
C1077 H1061 0.931 . S
C1077 C1071 1.383 . S
C1077 C1076 1.379 . S
H1078 C1072 0.959 . S
H1079 C1072 0.961 . S
H1080 C1072 0.960 . S
H1081 C1073 0.930 . S
H1082 C1074 0.929 . S
C228 C12 1.641 . S
C247 C126 1.752 . S
C264 C40 1.568 . S
C283 C158 1.586 . S
C319 C217 1.998 . S
C300 C61 1.990 . S
C355 C146 1.453 . S
C336 C82 1.466 . S
C372 C96 1.529 . S
C391 C176 1.602 . S
C427 C198 1.240 . S
C408 C117 1.128 . S
C463 C167 1.709 . S
C444 C51 1.685 . S
C480 C72 1.253 . S
C499 C207 1.222 . S
C535 C156 1.560 . S
C516 C101 1.491 . S
C552 C122 1.489 . S
C571 C186 1.557 . S
C588 C17 1.843 . S
C607 C189 1.913 . S
C643 C128 1.662 . S
C624 C30 1.645 1_556 S
C679 C136 1.631 . S
C660 C80 1.625 . S
C715 C177 1.560 . S
C696 C93 1.510 . S
C751 C190 1.997 . S
C732 C114 1.942 . S
C787 C127 1.475 . S
C768 C9 1.454 . S
C823 C187 1.559 . S
C804 C38 1.528 1_556 S
C840 C59 1.182 . S
C859 C188 1.237 . S
C895 C157 1.609 . S
C876 C124 1.588 . S
C931 C218 1.204 . S
C912 C19 1.150 . S
C967 C145 1.530 . S
C948 C33 1.552 . S
C1003 C159 1.602 . S
C984 C54 1.561 . S
C1020 C75 1.883 . S
C1039 C208 1.919 . S
C1056 C103 1.592 . S
C1075 C155 1.673 . S
