# Generated by pormake.
# Topology zzz, (3,6)-cn, num edge types: 1
# Building blocks:
#     Node 0, Type 0, BuildingBlock: CUQRIR_clean_linker_1, # of connection points: 3
#     Node 1, Type 0, BuildingBlock: CUQRIR_clean_linker_1, # of connection points: 3
#     Node 2, Type 0, BuildingBlock: CUQRIR_clean_linker_1, # of connection points: 3
#     Node 3, Type 0, BuildingBlock: CUQRIR_clean_linker_1, # of connection points: 3
#     Node 4, Type 0, BuildingBlock: CUQRIR_clean_linker_1, # of connection points: 3
#     Node 5, Type 0, BuildingBlock: CUQRIR_clean_linker_1, # of connection points: 3
#     Node 6, Type 0, BuildingBlock: CUQRIR_clean_linker_1, # of connection points: 3
#     Node 7, Type 0, BuildingBlock: CUQRIR_clean_linker_1, # of connection points: 3
#     Node 8, Type 1, BuildingBlock: INOVEN_clean_sbu_0, # of connection points: 6
#     Node 9, Type 1, BuildingBlock: INOVEN_clean_sbu_0, # of connection points: 6
#     Node 10, Type 1, BuildingBlock: INOVEN_clean_sbu_0, # of connection points: 6
#     Node 11, Type 1, BuildingBlock: INOVEN_clean_sbu_0, # of connection points: 6
#     Edge 12, Type (0, 1), BuildingBlock: MIFKUJ_clean_linker_0, # of connection points: 2
#     Edge 13, Type (0, 1), BuildingBlock: MIFKUJ_clean_linker_0, # of connection points: 2
#     Edge 14, Type (0, 1), BuildingBlock: MIFKUJ_clean_linker_0, # of connection points: 2
#     Edge 15, Type (0, 1), BuildingBlock: MIFKUJ_clean_linker_0, # of connection points: 2
#     Edge 16, Type (0, 1), BuildingBlock: MIFKUJ_clean_linker_0, # of connection points: 2
#     Edge 17, Type (0, 1), BuildingBlock: MIFKUJ_clean_linker_0, # of connection points: 2
#     Edge 18, Type (0, 1), BuildingBlock: MIFKUJ_clean_linker_0, # of connection points: 2
#     Edge 19, Type (0, 1), BuildingBlock: MIFKUJ_clean_linker_0, # of connection points: 2
#     Edge 20, Type (0, 1), BuildingBlock: MIFKUJ_clean_linker_0, # of connection points: 2
#     Edge 21, Type (0, 1), BuildingBlock: MIFKUJ_clean_linker_0, # of connection points: 2
#     Edge 22, Type (0, 1), BuildingBlock: MIFKUJ_clean_linker_0, # of connection points: 2
#     Edge 23, Type (0, 1), BuildingBlock: MIFKUJ_clean_linker_0, # of connection points: 2
#     Edge 24, Type (0, 1), BuildingBlock: MIFKUJ_clean_linker_0, # of connection points: 2
#     Edge 25, Type (0, 1), BuildingBlock: MIFKUJ_clean_linker_0, # of connection points: 2
#     Edge 26, Type (0, 1), BuildingBlock: MIFKUJ_clean_linker_0, # of connection points: 2
#     Edge 27, Type (0, 1), BuildingBlock: MIFKUJ_clean_linker_0, # of connection points: 2
#     Edge 28, Type (0, 1), BuildingBlock: MIFKUJ_clean_linker_0, # of connection points: 2
#     Edge 29, Type (0, 1), BuildingBlock: MIFKUJ_clean_linker_0, # of connection points: 2
#     Edge 30, Type (0, 1), BuildingBlock: MIFKUJ_clean_linker_0, # of connection points: 2
#     Edge 31, Type (0, 1), BuildingBlock: MIFKUJ_clean_linker_0, # of connection points: 2
#     Edge 32, Type (0, 1), BuildingBlock: MIFKUJ_clean_linker_0, # of connection points: 2
#     Edge 33, Type (0, 1), BuildingBlock: MIFKUJ_clean_linker_0, # of connection points: 2
#     Edge 34, Type (0, 1), BuildingBlock: MIFKUJ_clean_linker_0, # of connection points: 2
#     Edge 35, Type (0, 1), BuildingBlock: MIFKUJ_clean_linker_0, # of connection points: 2
# Relax obj value: 0.236
# Max RMSD: 0.173
# Mean RMSD: 0.156
data_MOF--net-zzz--node1-INOVEN_clean_sbu_0--node2-CUQRIR_clean_linker_1--edge1-MIFKUJ_clean_linker_0
_symmetry_space_group_name_H-M    P1
_symmetry_Int_Tables_number       1
_symmetry_cell_setting            triclinic
loop_
_symmetry_equiv_pos_as_xyz
'x, y, z'
_cell_length_a     64.86106
_cell_length_b     64.845158
_cell_length_c     15.728881
_cell_angle_alpha  90.072088
_cell_angle_beta   90.165704
_cell_angle_gamma 89.870783
loop_
_atom_site_label
_atom_site_type_symbol
_atom_site_fract_x
_atom_site_fract_y
_atom_site_fract_z
_atom_type_partial_charge
C0 C 0.7459 0.52118 0.28525 0.0
N1 N 0.76579 0.51444 0.28705 0.0
N2 N 0.73543 0.51285 0.21782 0.0
C3 C 0.73655 0.53502 0.3512 0.0
C4 C 0.74994 0.50101 0.1789 0.0
N5 N 0.76805 0.5018 0.22136 0.0
C6 C 0.7472 0.49033 0.09451 0.0
H7 H 0.74483 0.53351 0.41273 0.0
H8 H 0.71999 0.5314 0.36008 0.0
H9 H 0.73787 0.55125 0.32966 0.0
H10 H 0.73552 0.49833 0.05473 0.0
H11 H 0.7421 0.47424 0.10559 0.0
H12 H 0.76197 0.48975 0.05915 0.0
C13 C 1.00926 0.74841 0.32956 0.0
N14 N 0.99785 0.76501 0.3543 0.0
N15 N 0.99762 0.73494 0.2834 0.0
C16 C 0.03185 0.74582 0.34661 0.0
C17 C 0.97893 0.74423 0.27964 0.0
N18 N 0.979 0.76239 0.3223 0.0
C19 C 0.96129 0.73665 0.22586 0.0
H20 H 0.04061 0.75373 0.29572 0.0
H21 H 0.03617 0.72925 0.34637 0.0
H22 H 0.03607 0.75295 0.40842 0.0
H23 H 0.9593 0.7198 0.23423 0.0
H24 H 0.96486 0.7395 0.15793 0.0
H25 H 0.9467 0.74466 0.24238 0.0
C26 C 0.78277 0.02487 0.29837 0.0
N27 N 0.76565 0.03671 0.31034 0.0
N28 N 0.79673 0.03485 0.24873 0.0
C29 C 0.78547 1.00337 0.33145 0.0
C30 C 0.78739 0.05301 0.23068 0.0
N31 N 0.76877 0.0542 0.26844 0.0
C32 C 0.79577 0.06893 0.17068 0.0
H33 H 0.80205 0.99979 0.34111 0.0
H34 H 0.77917 0.99236 0.28403 0.0
H35 H 0.77695 1.00135 0.39196 0.0
H36 H 0.7909 0.06497 0.10499 0.0
H37 H 0.81287 0.06915 0.17289 0.0
H38 H 0.78967 0.08447 0.18636 0.0
C39 C 0.51474 0.79068 0.34031 0.0
N40 N 0.52617 0.77327 0.3514 0.0
N41 N 0.52593 0.80557 0.3005 0.0
C42 C 0.4923 0.79252 0.36133 0.0
C43 C 0.54442 0.79641 0.28699 0.0
N44 N 0.54459 0.77693 0.3177 0.0
C45 C 0.56167 0.80599 0.23713 0.0
H46 H 0.48317 0.78502 0.3102 0.0
H47 H 0.48758 0.80895 0.366 0.0
H48 H 0.48893 0.78446 0.42188 0.0
H49 H 0.56389 0.82226 0.25689 0.0
H50 H 0.55751 0.80595 0.16865 0.0
H51 H 0.57635 0.79742 0.24606 0.0
C52 C 0.27692 0.51151 0.09313 0.0
N53 N 0.25892 0.50125 0.07941 0.0
N54 N 0.28921 0.50099 0.14874 0.0
C55 C 0.28151 0.53258 0.05917 0.0
C56 C 0.27798 0.48408 0.1681 0.0
N57 N 0.25976 0.48419 0.12612 0.0
C58 C 0.28471 0.46766 0.22974 0.0
H59 H 0.2978 0.53694 0.07087 0.0
H60 H 0.27123 0.54395 0.09066 0.0
H61 H 0.27817 0.53308 0.98998 0.0
H62 H 0.28026 0.47242 0.29496 0.0
H63 H 0.30171 0.46572 0.22829 0.0
H64 H 0.27717 0.45272 0.21507 0.0
C65 C 0.02049 0.29238 0.04068 0.0
N66 N 0.02018 0.2723 0.06697 0.0
N67 N 0.02092 0.30555 0.10865 0.0
C68 C 0.01975 0.29908 0.94968 0.0
C69 C 0.02093 0.29277 0.17646 0.0
N70 N 0.02041 0.27282 0.15149 0.0
C71 C 0.01983 0.29978 0.26803 0.0
H72 H 0.02566 0.31503 0.94273 0.0
H73 H 1.00351 0.29866 0.92737 0.0
H74 H 0.02884 0.28833 0.90952 0.0
H75 H 1.00549 0.29386 0.29749 0.0
H76 H 0.02035 0.31675 0.27518 0.0
H77 H 0.03308 0.29337 0.304 0.0
C78 C 0.25353 1.01229 0.11953 0.0
N79 N 0.27105 1.00136 0.10384 0.0
N80 N 0.24069 1.00159 0.1717 0.0
C81 C 0.24863 0.03301 0.0822 0.0
C82 C 0.25118 0.98391 0.1879 0.0
N83 N 0.26947 0.98375 0.14671 0.0
C84 C 0.24439 0.9677 0.25021 0.0
H85 H 0.25473 0.04516 0.1251 0.0
H86 H 0.23171 0.03518 0.07616 0.0
H87 H 0.256 0.03479 0.01906 0.0
H88 H 0.23575 0.95558 0.21538 0.0
H89 H 0.23412 0.97436 0.29948 0.0
H90 H 0.25783 0.96037 0.28189 0.0
C91 C 0.51937 0.25297 0.0973 0.0
N92 N 0.52695 0.27254 0.09948 0.0
N93 N 0.52729 0.24147 0.16221 0.0
C94 C 0.50471 0.24493 0.03138 0.0
C95 C 0.5397 0.2548 0.20431 0.0
N96 N 0.53951 0.27351 0.16647 0.0
C97 C 0.55105 0.24982 0.28534 0.0
H98 H 0.48872 0.2485 0.05152 0.0
H99 H 0.50625 0.22796 0.0246 0.0
H100 H 0.50747 0.25251 0.96924 0.0
H101 H 0.56688 0.24464 0.26926 0.0
H102 H 0.54331 0.23726 0.3208 0.0
H103 H 0.55223 0.26363 0.32679 0.0
Gd104 Gd 0.0297 1.0121 0.79982 0.0
Gd105 Gd 1.01018 0.02216 0.62658 0.0
C106 C 0.01529 0.9743 0.6713 0.0
C107 C 0.03753 0.99805 0.9495 0.0
C108 C 0.02575 0.98351 1.00089 0.0
C109 C 0.03542 0.972 0.0648 0.0
C110 C 1.00484 0.98016 0.98208 0.0
C111 C 1.0035 0.95338 0.08838 0.0
C112 C 0.99369 0.96538 0.02643 0.0
C113 C 0.02436 0.95684 0.10801 0.0
C114 C 0.05694 0.0224 0.67592 0.0
C115 C 0.01803 0.05947 0.76311 0.0
C116 C 1.00483 0.03684 0.4779 0.0
C117 C 0.9962 0.05756 0.46286 0.0
C118 C 0.97598 0.05997 0.43173 0.0
C119 C 1.00638 0.07471 0.49774 0.0
C120 C 0.9756 0.09551 0.48093 0.0
C121 C 0.99609 0.09326 0.508 0.0
C122 C 0.9658 0.07895 0.43984 0.0
C123 C 0.97942 0.01945 0.74518 0.0
O124 O 0.01964 0.98022 0.75056 0.0
O125 O 0.01263 0.9879 0.60959 0.0
O126 O 0.04578 0.99027 0.88075 0.0
O127 O 0.0284 0.01574 0.93615 0.0
O128 O 0.05893 0.02764 0.75515 0.0
O129 O 0.04108 1.01135 0.66728 0.0
O130 O 0.01668 0.05415 0.68184 0.0
O131 O 0.02053 0.04535 0.82289 0.0
O132 O 0.99192 0.02355 0.51091 0.0
O133 O 0.02304 0.03641 0.51459 0.0
O134 O 0.97635 0.02311 0.66527 0.0
O135 O 0.9985 0.01714 0.75627 0.0
H136 H 0.05159 0.97428 0.07929 0.0
H137 H 0.99734 0.9885 0.93107 0.0
H138 H 0.97774 0.96257 0.00934 0.0
H139 H 0.03217 0.94745 0.15513 0.0
H140 H 0.96774 0.04695 0.40509 0.0
H141 H 0.02198 0.07362 0.52213 0.0
H142 H 1.00424 0.10588 0.538 0.0
H143 H 0.95012 0.08049 0.41679 0.0
Gd144 Gd 0.52326 0.02925 0.78925 0.0
Gd145 Gd 0.51035 1.00743 0.60973 0.0
C146 C 0.55902 0.01823 0.65107 0.0
C147 C 0.53357 0.03607 0.94487 0.0
C148 C 0.54731 0.05025 0.98987 0.0
C149 C 0.55917 0.06461 0.94489 0.0
C150 C 0.54924 0.04884 0.07828 0.0
C151 C 0.57641 0.07459 0.07592 0.0
C152 C 0.56368 0.06096 0.12113 0.0
C153 C 0.57364 0.07675 0.98772 0.0
C154 C 0.5187 0.0574 0.6604 0.0
C155 C 0.47487 0.01853 0.74881 0.0
C156 C 0.49912 0.99946 0.45616 0.0
C157 C 0.48398 0.98474 0.42287 0.0
C158 C 0.48102 0.98226 0.33512 0.0
C159 C 0.47203 0.97331 0.4799 0.0
C160 C 0.45288 0.9584 0.36214 0.0
C161 C 0.45663 0.96024 0.44983 0.0
C162 C 0.46554 0.9691 0.30478 0.0
C163 C 0.51276 0.97923 0.73963 0.0
O164 O 0.55465 0.02368 0.73057 0.0
O165 O 0.54468 0.01295 0.59443 0.0
O166 O 0.51741 0.04457 0.90872 0.0
O167 O 0.5427 0.02216 0.89709 0.0
O168 O 0.52283 0.06243 0.73855 0.0
O169 O 0.51705 0.03812 0.65814 0.0
O170 O 0.47906 0.01477 0.66742 0.0
O171 O 0.4895 0.02198 0.80624 0.0
O172 O 0.51541 0.99107 0.49175 0.0
O173 O 0.49136 0.01478 0.50066 0.0
O174 O 0.5077 0.97474 0.66193 0.0
O175 O 0.51641 0.9983 0.74153 0.0
H176 H 0.55775 0.06588 0.87643 0.0
H177 H 0.54006 0.03791 0.11381 0.0
H178 H 0.56545 0.05911 0.1892 0.0
H179 H 0.5834 0.08696 0.95127 0.0
H180 H 0.49026 0.99089 0.29034 0.0
H181 H 0.47425 0.97491 0.54788 0.0
H182 H 0.44725 0.95198 0.49531 0.0
H183 H 0.46287 0.96803 0.23691 0.0
Gd184 Gd 0.50114 0.52692 0.79314 0.0
Gd185 Gd 0.51834 0.51464 0.60527 0.0
C186 C 0.50941 0.56247 0.65277 0.0
C187 C 0.5013 0.53885 0.94932 0.0
C188 C 0.51611 0.55174 0.99552 0.0
C189 C 0.51182 0.55881 0.07765 0.0
C190 C 0.53416 0.55813 0.95473 0.0
C191 C 0.54312 0.57966 0.07587 0.0
C192 C 0.54778 0.57152 0.99519 0.0
C193 C 0.52514 0.5728 0.1174 0.0
C194 C 0.4696 0.51975 0.67951 0.0
C195 C 0.51015 0.47826 0.7462 0.0
C196 C 0.5223 0.50625 0.44618 0.0
C197 C 0.53816 0.49632 0.39379 0.0
C198 C 0.5592 0.49827 0.41375 0.0
C199 C 0.53211 0.48348 0.32688 0.0
C200 C 0.56766 0.47226 0.30798 0.0
C201 C 0.5467 0.47156 0.28421 0.0
C202 C 0.57386 0.48644 0.37069 0.0
C203 C 0.5498 0.52045 0.72076 0.0
O204 O 0.51029 0.55764 0.73476 0.0
O205 O 0.50864 0.54804 0.5931 0.0
O206 O 0.49098 0.54846 0.88945 0.0
O207 O 0.50825 0.52077 0.92521 0.0
O208 O 0.4668 0.52413 0.75939 0.0
O209 O 0.48876 0.51905 0.66806 0.0
O210 O 0.51358 0.48299 0.6649 0.0
O211 O 0.50617 0.49244 0.80533 0.0
O212 O 0.52726 0.52413 0.47934 0.0
O213 O 0.51255 0.49409 0.49924 0.0
O214 O 0.55267 0.51519 0.64197 0.0
O215 O 0.53067 0.52256 0.72999 0.0
H216 H 0.4978 0.55419 0.1096 0.0
H217 H 0.53738 0.55328 0.89026 0.0
H218 H 0.56155 0.57612 0.96149 0.0
H219 H 0.52074 0.579 0.17865 0.0
H220 H 0.56422 0.50823 0.46508 0.0
H221 H 0.51595 0.48182 0.31063 0.0
H222 H 0.54123 0.46061 0.23734 0.0
H223 H 0.58988 0.48751 0.38981 0.0
Gd224 Gd 1.00937 0.5142 0.7435 0.0
Gd225 Gd 0.02009 0.53426 0.57177 0.0
C226 C 0.97155 0.52692 0.62401 0.0
C227 C 1.00664 0.50081 0.89731 0.0
C228 C 0.99422 0.4856 0.94338 0.0
C229 C 0.99129 0.46551 0.912 0.0
C230 C 0.98397 0.49181 0.0172 0.0
C231 C 0.9657 0.45909 0.02146 0.0
C232 C 0.96979 0.47876 0.05568 0.0
C233 C 0.97725 0.45229 0.95122 0.0
C234 C 1.01053 0.48806 0.60793 0.0
C235 C 0.057 0.52596 0.70234 0.0
C236 C 0.02909 0.53587 0.41297 0.0
C237 C 0.04369 0.52303 0.36367 0.0
C238 C 0.06492 0.52707 0.36771 0.0
C239 C 0.03693 0.50504 0.32206 0.0
C240 C 0.07239 0.49341 0.30659 0.0
C241 C 0.05117 0.49039 0.29328 0.0
C242 C 0.07908 0.51245 0.33944 0.0
C243 C 0.01355 0.56497 0.68934 0.0
O244 O 0.97719 0.52357 0.70393 0.0
O245 O 0.98537 0.52942 0.56272 0.0
O246 O 0.0199 0.49357 0.84213 0.0
O247 O 0.99668 0.51716 0.87006 0.0
O248 O 0.99735 0.48681 0.66947 0.0
O249 O 0.02299 0.50263 0.62279 0.0
O250 O 0.05218 0.52696 0.62066 0.0
O251 O 0.04248 0.52444 0.7608 0.0
O252 O 0.03732 0.54828 0.46967 0.0
O253 O 0.01272 0.52629 0.44153 0.0
O254 O 0.01813 0.56824 0.61021 0.0
O255 O 0.01236 0.54575 0.69949 0.0
H256 H 0.99916 0.46028 0.85526 0.0
H257 H 0.98612 0.5072 0.04257 0.0
H258 H 0.961 0.48479 0.10861 0.0
H259 H 0.9747 0.43716 0.92399 0.0
H260 H 0.07072 0.54104 0.39697 0.0
H261 H 0.02063 0.50166 0.3164 0.0
H262 H 0.04547 0.47622 0.26558 0.0
H263 H 0.09534 0.51586 0.34604 0.0
H264 H 0.20471 0.98135 0.15431 0.0
H265 H 0.17241 0.98809 0.2306 0.0
H266 H 0.2 0.04137 0.34908 0.0
H267 H 0.23237 0.03447 0.27229 0.0
H268 H 0.18122 0.01651 0.46559 0.0
H269 H 0.16247 0.04665 0.19816 0.0
H270 H 0.15788 0.04757 0.04255 0.0
H271 H 0.11527 0.99712 0.05664 0.0
H272 H 0.11986 0.99567 0.21227 0.0
H273 H 0.09085 0.04722 0.68157 0.0
H274 H 0.1207 0.04703 0.58688 0.0
H275 H 0.09262 0.99883 0.43716 0.0
H276 H 0.06226 0.99973 0.52979 0.0
H277 H 0.11188 0.02278 0.33424 0.0
H278 H 0.13202 0.99014 0.5951 0.0
H279 H 0.13673 0.9873 0.75032 0.0
H280 H 0.1769 0.03984 0.74807 0.0
H281 H 0.17221 0.04316 0.59292 0.0
C282 C 0.20366 0.99473 0.19536 0.0
C283 C 0.22093 1.0075 0.20689 0.0
C284 C 0.18521 0.9986 0.23901 0.0
C285 C 0.18359 0.01533 0.29564 0.0
C286 C 0.20076 0.02839 0.30576 0.0
C287 C 0.21919 0.02459 0.26139 0.0
C288 C 0.16445 0.01841 0.34762 0.0
C289 C 0.1661 0.01826 0.43673 0.0
C290 C 0.14455 0.02001 0.31051 0.0
C291 C 0.14166 0.02093 0.21691 0.0
C292 C 0.15225 0.03564 0.16805 0.0
C293 C 0.14963 0.03627 0.07982 0.0
C294 C 0.13634 0.02238 0.0397 0.0
C295 C 0.12559 1.00786 0.08778 0.0
C296 C 0.12818 1.00714 0.17603 0.0
C297 C 0.09095 0.03672 0.62796 0.0
C298 C 0.07423 0.02337 0.61374 0.0
C299 C 0.10815 0.03648 0.57402 0.0
C300 C 0.10938 0.0225 0.50558 0.0
C301 C 0.09228 1.0097 0.48948 0.0
C302 C 0.07489 1.01019 0.54267 0.0
C303 C 0.12861 0.02086 0.45251 0.0
C304 C 0.12699 0.02118 0.36322 0.0
C305 C 0.14856 0.01912 0.48938 0.0
C306 C 0.15159 0.01702 0.58253 0.0
C307 C 0.14176 1.00116 0.62779 0.0
C308 C 0.14444 0.99946 0.71575 0.0
C309 C 0.15706 0.01342 0.75907 0.0
C310 C 0.1671 0.02906 0.71445 0.0
C311 C 0.16445 0.03085 0.6265 0.0
H312 H 0.15909 1.01209 0.82718 0.0
H313 H 0.13434 0.02289 0.97138 0.0
H314 H 0.55292 0.20899 0.14568 0.0
H315 H 0.54932 0.17497 0.21338 0.0
H316 H 0.48978 0.19306 0.3097 0.0
H317 H 0.49339 0.22692 0.2405 0.0
H318 H 0.51685 0.1786 0.43553 0.0
H319 H 0.49372 0.15689 0.15734 0.0
H320 H 0.49672 0.15196 0.00242 0.0
H321 H 0.55078 0.11469 0.03913 0.0
H322 H 0.54837 0.11967 0.19424 0.0
H323 H 0.49128 0.08884 0.65331 0.0
H324 H 0.49024 0.1174 0.55209 0.0
H325 H 0.54087 0.09012 0.41398 0.0
H326 H 0.54072 0.06063 0.51237 0.0
H327 H 0.51924 0.109 0.30476 0.0
H328 H 0.54626 0.13114 0.57027 0.0
H329 H 0.5475 0.13609 0.7257 0.0
H330 H 0.49259 0.17309 0.71418 0.0
H331 H 0.49084 0.16812 0.55875 0.0
C332 C 0.53879 0.20533 0.17885 0.0
C333 C 0.52323 0.22035 0.18642 0.0
C334 C 0.53676 0.18595 0.21793 0.0
C335 C 0.51922 0.18129 0.26668 0.0
C336 C 0.50341 0.19616 0.27223 0.0
C337 C 0.50534 0.21542 0.23209 0.0
C338 C 0.51815 0.16177 0.3178 0.0
C339 C 0.51701 0.16339 0.40672 0.0
C340 C 0.51947 0.14182 0.28094 0.0
C341 C 0.52098 0.13887 0.18755 0.0
C342 C 0.50639 0.14783 0.13242 0.0
C343 C 0.50796 0.14498 0.04452 0.0
C344 C 0.52397 0.13306 0.01096 0.0
C345 C 0.53842 0.12393 0.06524 0.0
C346 C 0.53695 0.12677 0.15316 0.0
C347 C 0.5018 0.08869 0.59993 0.0
C348 C 0.51593 0.07245 0.59023 0.0
C349 C 0.50145 0.10522 0.54258 0.0
C350 C 0.51598 0.10655 0.47637 0.0
C351 C 0.52955 0.08975 0.4644 0.0
C352 C 0.52943 0.07281 0.5205 0.0
C353 C 0.51751 0.12579 0.42288 0.0
C354 C 0.51896 0.12418 0.33375 0.0
C355 C 0.5172 0.14585 0.45955 0.0
C356 C 0.51831 0.14909 0.55293 0.0
C357 C 0.53438 0.14024 0.60094 0.0
C358 C 0.53518 0.14305 0.68904 0.0
C359 C 0.5201 0.15485 0.72982 0.0
C360 C 0.50424 0.16393 0.68252 0.0
C361 C 0.50334 0.16113 0.5944 0.0
H362 H 0.52073 0.15699 0.79805 0.0
H363 H 0.52515 0.13086 0.94291 0.0
H364 H 0.32756 0.50029 0.08158 0.0
H365 H 0.36034 0.50482 0.1592 0.0
H366 H 0.32644 0.5186 0.38796 0.0
H367 H 0.29389 0.51409 0.3099 0.0
H368 H 0.35977 0.54342 0.37554 0.0
H369 H 0.34632 0.47059 0.34874 0.0
H370 H 0.3395 0.43845 0.26977 0.0
H371 H 0.39732 0.44447 0.13988 0.0
H372 H 0.40432 0.47687 0.21712 0.0
H373 H 0.42849 0.52174 0.70842 0.0
H374 H 0.40014 0.51943 0.60661 0.0
H375 H 0.44354 0.50938 0.4036 0.0
H376 H 0.47226 0.51174 0.50647 0.0
H377 H 0.40809 0.48405 0.38889 0.0
H378 H 0.42331 0.55478 0.42655 0.0
H379 H 0.43092 0.58586 0.51002 0.0
H380 H 0.37001 0.58459 0.61632 0.0
H381 H 0.36236 0.55275 0.53636 0.0
C382 C 0.32724 0.50478 0.14787 0.0
C383 C 0.30827 0.50714 0.18962 0.0
C384 C 0.34594 0.50716 0.19257 0.0
C385 C 0.34602 0.51185 0.28015 0.0
C386 C 0.32696 0.51502 0.32071 0.0
C387 C 0.30834 0.51254 0.27615 0.0
C388 C 0.36572 0.51261 0.3308 0.0
C389 C 0.37021 0.53036 0.37875 0.0
C390 C 0.37983 0.49584 0.3338 0.0
C391 C 0.37574 0.47627 0.28799 0.0
C392 C 0.35751 0.46515 0.30287 0.0
C393 C 0.35362 0.44687 0.25848 0.0
C394 C 0.36794 0.43944 0.19968 0.0
C395 C 0.38622 0.45026 0.18533 0.0
C396 C 0.39016 0.46858 0.22939 0.0
C397 C 0.43209 0.51891 0.64222 0.0
C398 C 0.45271 0.517 0.61572 0.0
C399 C 0.41579 0.51762 0.58383 0.0
C400 C 0.41955 0.51444 0.49684 0.0
C401 C 0.44014 0.51186 0.47021 0.0
C402 C 0.45657 0.51325 0.52901 0.0
C403 C 0.40189 0.51472 0.43466 0.0
C404 C 0.39776 0.49719 0.38482 0.0
C405 C 0.38811 0.53172 0.42963 0.0
C406 C 0.39233 0.55124 0.47593 0.0
C407 C 0.41157 0.56101 0.4682 0.0
C408 C 0.41589 0.5788 0.51495 0.0
C409 C 0.40092 0.58732 0.56819 0.0
C410 C 0.3816 0.57799 0.57499 0.0
C411 C 0.37728 0.56 0.52918 0.0
H412 H 0.4043 0.60114 0.60424 0.0
H413 H 0.36491 0.42529 0.16538 0.0
H414 H 0.98691 0.32635 0.15331 0.0
H415 H 0.98616 0.36055 0.21716 0.0
H416 H 0.0497 0.36964 0.14542 0.0
H417 H 0.05066 0.33433 0.08831 0.0
H418 H 0.04798 0.38205 0.29115 0.0
H419 H 1.00297 0.39969 0.06294 0.0
H420 H 0.97386 0.39444 0.96408 0.0
H421 H 0.93144 0.39607 0.17297 0.0
H422 H 0.96029 0.40117 0.27323 0.0
H423 H 0.04277 0.48131 0.49658 0.0
H424 H 0.04584 0.45389 0.3895 0.0
H425 H 0.9855 0.43155 0.45681 0.0
H426 H 0.98246 0.45879 0.56352 0.0
H427 H 0.9882 0.42978 0.29399 0.0
H428 H 0.0366 0.40864 0.52017 0.0
H429 H 0.06703 0.41476 0.61137 0.0
H430 H 0.10477 0.42268 0.38999 0.0
H431 H 0.07451 0.41691 0.29755 0.0
C432 C 1.0004 0.33605 0.14771 0.0
C433 C 0.0187 0.32777 0.11406 0.0
C434 C 1.00005 0.35577 0.18471 0.0
C435 C 0.0178 0.36832 0.18604 0.0
C436 C 0.03572 0.36056 0.14625 0.0
C437 C 0.03621 0.34048 0.11161 0.0
C438 C 0.01813 0.38838 0.23588 0.0
C439 C 0.035 0.39261 0.28991 0.0
C440 C 1.00134 0.40255 0.23613 0.0
C441 C 0.98384 0.40056 0.17569 0.0
C442 C 0.98744 0.39887 0.08782 0.0
C443 C 0.97099 0.39586 0.03158 0.0
C444 C 0.95085 0.39462 0.0624 0.0
C445 C 0.94707 0.39679 0.14935 0.0
C446 C 0.96346 0.39985 0.20587 0.0
C447 C 0.03011 0.47062 0.48806 0.0
C448 C 0.01237 0.47227 0.53889 0.0
C449 C 0.03189 0.45484 0.42672 0.0
C450 C 0.01595 0.44035 0.41418 0.0
C451 C 0.99808 0.44238 0.46409 0.0
C452 C 0.99637 0.458 0.52565 0.0
C453 C 0.01769 0.42292 0.35063 0.0
C454 C 1.00123 0.41926 0.29399 0.0
C455 C 0.03505 0.40958 0.34643 0.0
C456 C 0.05329 0.41246 0.4021 0.0
C457 C 0.05139 0.41172 0.49105 0.0
C458 C 0.0686 0.41517 0.5429 0.0
C459 C 0.0878 0.4192 0.50648 0.0
C460 C 0.08987 0.41965 0.4181 0.0
C461 C 0.07271 0.41626 0.36596 0.0
H462 H 0.10109 0.42191 0.54674 0.0
H463 H 0.93815 0.3922 0.01879 0.0
H464 H 0.80288 0.02281 0.08735 0.0
H465 H 0.83611 0.01663 0.01764 0.0
H466 H 0.86737 0.02578 0.25719 0.0
H467 H 0.83386 0.03219 0.32631 0.0
H468 H 0.88657 0.04691 0.13637 0.0
H469 H 0.86489 0.97749 0.163 0.0
H470 H 0.84152 0.94765 0.15341 0.0
H471 H 0.83882 0.9542 0.88199 0.0
H472 H 0.86195 0.98429 0.89001 0.0
H473 H 0.98197 0.02202 0.92072 0.0
H474 H 0.95328 0.0207 0.02297 0.0
H475 H 0.91026 0.01386 0.81524 0.0
H476 H 0.93871 0.01456 0.71431 0.0
H477 H 0.9 0.98851 0.94023 0.0
H478 H 0.91954 0.06073 0.92032 0.0
H479 H 0.94406 0.0896 0.93355 0.0
H480 H 0.95196 0.07641 0.19917 0.0
H481 H 0.92775 0.04723 0.18712 0.0
C482 C 0.81685 0.02291 0.12524 0.0
C483 C 0.81584 0.0275 0.21237 0.0
C484 C 0.83588 0.01945 0.08551 0.0
C485 C 0.85445 0.02051 0.13194 0.0
C486 C 0.85338 0.02478 0.21969 0.0
C487 C 0.83426 0.02819 0.25949 0.0
C488 C 0.87482 0.01816 0.08751 0.0
C489 C 0.88963 0.03392 0.09476 0.0
C490 C 0.879 1.00134 0.0325 0.0
C491 C 0.86504 0.98326 0.02722 0.0
C492 C 0.85918 0.97268 0.10131 0.0
C493 C 0.846 0.9557 0.09615 0.0
C494 C 0.83865 0.94906 0.01716 0.0
C495 C 0.84451 0.95937 0.94314 0.0
C496 C 0.85768 0.97638 0.94795 0.0
C497 C 0.96642 0.01983 0.89733 0.0
C498 C 0.96266 0.0181 0.80949 0.0
C499 C 0.94997 0.01933 0.95569 0.0
C500 C 0.92942 0.01729 0.92717 0.0
C501 C 0.92584 0.01536 0.8394 0.0
C502 C 0.94218 0.01585 0.78152 0.0
C503 C 0.91141 0.01754 0.98701 0.0
C504 C 0.89703 1.00137 0.98267 0.0
C505 C 0.90775 0.03389 0.04513 0.0
C506 C 0.92202 0.05165 0.05259 0.0
C507 C 0.92661 0.0639 0.98141 0.0
C508 C 0.94045 0.08032 0.98869 0.0
C509 C 0.94961 0.08479 0.06707 0.0
C510 C 0.94489 0.0729 0.13843 0.0
C511 C 0.93111 0.05642 0.13141 0.0
H512 H 0.96034 0.09749 0.07254 0.0
H513 H 0.82845 0.9359 0.01329 0.0
H514 H 0.5356 0.84412 0.35134 0.0
H515 H 0.53051 0.87615 0.26996 0.0
H516 H 0.49742 0.84199 0.07797 0.0
H517 H 0.50254 0.8101 0.16 0.0
H518 H 0.52847 0.86401 0.01016 0.0
H519 H 0.47316 0.87794 0.20459 0.0
H520 H 0.45668 0.88322 0.34403 0.0
H521 H 0.49748 0.93375 0.3961 0.0
H522 H 0.51434 0.92868 0.25728 0.0
H523 H 0.49642 0.94112 0.73369 0.0
H524 H 0.49645 0.9144 0.8418 0.0
H525 H 0.52797 0.9552 0.01519 0.0
H526 H 0.52743 0.98262 0.90609 0.0
H527 H 0.49929 0.93139 0.09953 0.0
H528 H 0.5547 0.91781 0.90825 0.0
H529 H 0.57139 0.9132 0.76882 0.0
H530 H 0.53146 0.86214 0.71377 0.0
H531 H 0.51433 0.86663 0.85243 0.0
C532 C 0.52666 0.84369 0.29314 0.0
C533 C 0.51917 0.82475 0.26246 0.0
C534 C 0.52379 0.86197 0.24644 0.0
C535 C 0.51351 0.86166 0.1675 0.0
C536 C 0.50535 0.84277 0.13861 0.0
C537 C 0.50808 0.82456 0.18569 0.0
C538 C 0.51311 0.88034 0.11102 0.0
C539 C 0.5218 0.87863 0.02961 0.0
C540 C 0.50521 0.8998 0.137 0.0
C541 C 0.49524 0.90271 0.22098 0.0
C542 C 0.4788 0.89001 0.24619 0.0
C543 C 0.46936 0.893 0.32507 0.0
C544 C 0.47613 0.90871 0.37915 0.0
C545 C 0.49232 0.92152 0.35434 0.0
C546 C 0.5018 0.91862 0.27548 0.0
C547 C 0.50331 0.94457 0.79489 0.0
C548 C 0.51218 0.96399 0.81066 0.0
C549 C 0.50336 0.92916 0.85688 0.0
C550 C 0.51264 0.93244 0.93649 0.0
C551 C 0.52084 0.95214 0.95415 0.0
C552 C 0.52059 0.96781 0.89173 0.0
C553 C 0.51433 0.91485 0.99837 0.0
C554 C 0.506 0.91677 0.08053 0.0
C555 C 0.52274 0.89553 0.97371 0.0
C556 C 0.53313 0.89266 0.89052 0.0
C557 C 0.5494 0.90568 0.8662 0.0
C558 C 0.55894 0.90308 0.78733 0.0
C559 C 0.55246 0.88741 0.73241 0.0
C560 C 0.53646 0.87428 0.75636 0.0
C561 C 0.52684 0.87683 0.83513 0.0
H562 H 0.55987 0.88543 0.67136 0.0
H563 H 0.46874 0.91106 0.44001 0.0
H564 H 0.71289 0.54839 0.20432 0.0
H565 H 0.67795 0.55209 0.14595 0.0
H566 H 0.6758 0.48637 0.10217 0.0
H567 H 0.70914 0.48258 0.17075 0.0
H568 H 0.66232 0.54947 0.00871 0.0
H569 H 0.63116 0.46598 0.068 0.0
H570 H 0.63319 0.43969 0.18093 0.0
H571 H 0.64449 0.48692 0.36672 0.0
H572 H 0.64248 0.51351 0.25502 0.0
H573 H 0.59056 0.52615 0.69305 0.0
H574 H 0.61874 0.52712 0.79602 0.0
H575 H 0.57535 0.51837 1.00014 0.0
H576 H 0.54717 0.51625 0.89554 0.0
H577 H 0.60715 0.49712 0.03705 0.0
H578 H 0.5998 0.56642 0.96676 0.0
H579 H 0.59494 0.59733 0.87784 0.0
H580 H 0.65347 0.58647 0.75866 0.0
H581 H 0.65856 0.55532 0.84623 0.0
C582 C 0.70457 0.5347 0.18527 0.0
C583 C 0.71396 0.51519 0.19199 0.0
C584 C 0.68462 0.53681 0.15033 0.0
C585 C 0.67365 0.51952 0.11951 0.0
C586 C 0.68313 0.50004 0.12741 0.0
C587 C 0.7026 0.49788 0.16521 0.0
C588 C 0.6531 0.5218 0.07438 0.0
C589 C 0.65031 0.53801 0.01587 0.0
C590 C 0.63662 0.50755 0.08486 0.0
C591 C 0.63691 0.49172 0.15291 0.0
C592 C 0.63395 0.47078 0.13301 0.0
C593 C 0.63521 0.45581 0.19674 0.0
C594 C 0.63919 0.46163 0.28075 0.0
C595 C 0.64161 0.48243 0.30147 0.0
C596 C 0.64046 0.49745 0.23796 0.0
C597 C 0.58697 0.52455 0.75994 0.0
C598 C 0.56647 0.52175 0.78622 0.0
C599 C 0.60315 0.52526 0.81917 0.0
C600 C 0.59936 0.52336 0.9069 0.0
C601 C 0.57886 0.52013 0.93327 0.0
C602 C 0.56264 0.51922 0.87352 0.0
C603 C 0.61698 0.5242 0.96951 0.0
C604 C 0.61915 0.50863 0.03107 0.0
C605 C 0.63232 0.53973 0.96567 0.0
C606 C 0.62947 0.55843 0.91255 0.0
C607 C 0.61156 0.57053 0.92109 0.0
C608 C 0.60878 0.58812 0.87104 0.0
C609 C 0.62387 0.59383 0.81245 0.0
C610 C 0.64179 0.58201 0.80402 0.0
C611 C 0.64465 0.5644 0.85396 0.0
H612 H 0.62169 0.60745 0.77372 0.0
H613 H 0.64028 0.45001 0.32992 0.0
H614 H 0.98896 0.6953 0.31979 0.0
H615 H 0.99326 0.66529 0.22554 0.0
H616 H 0.02273 0.70412 0.03981 0.0
H617 H 0.01835 0.73404 0.13481 0.0
H618 H 0.99279 0.68122 0.96723 0.0
H619 H 0.04977 0.66716 0.15483 0.0
H620 H 0.06671 0.66124 0.29323 0.0
H621 H 0.02774 0.60891 0.33744 0.0
H622 H 1.01035 0.61471 0.1998 0.0
H623 H 0.02333 0.60544 0.67224 0.0
H624 H 0.02221 0.63283 0.77834 0.0
H625 H 0.99938 0.58971 0.96405 0.0
H626 H 1.00136 0.56185 0.85767 0.0
H627 H 0.0251 0.61416 0.04064 0.0
H628 H 0.96761 0.62756 0.85943 0.0
H629 H 0.9491 0.63304 0.72414 0.0
H630 H 0.98653 0.68608 0.67237 0.0
H631 H 1.00545 0.68075 0.80688 0.0
C632 C 0.99691 0.6972 0.25988 0.0
C633 C 1.00373 0.71686 0.23528 0.0
C634 C 0.9993 0.68008 0.20571 0.0
C635 C 1.00846 0.68223 0.1251 0.0
C636 C 0.01568 0.70189 0.10144 0.0
C637 C 0.0134 0.71897 0.156 0.0
C638 C 1.00933 0.6644 0.06357 0.0
C639 C 1.00016 0.66668 0.98301 0.0
C640 C 0.01817 0.64501 0.08458 0.0
C641 C 0.02861 0.64151 0.16735 0.0
C642 C 0.04468 0.6545 0.19438 0.0
C643 C 0.05439 0.65115 0.27264 0.0
C644 C 0.04826 0.63475 0.3242 0.0
C645 C 0.03245 0.62163 0.2975 0.0
C646 C 0.02267 0.62494 0.21934 0.0
C647 C 0.018 0.60173 0.73558 0.0
C648 C 0.01226 0.58142 0.75599 0.0
C649 C 0.01724 0.61753 0.7965 0.0
C650 C 1.01022 0.61371 0.87961 0.0
C651 C 1.00474 0.59329 0.90063 0.0
C652 C 1.00578 0.57733 0.83962 0.0
C653 C 1.00877 0.63105 0.94365 0.0
C654 C 0.01773 0.62869 0.02474 0.0
C655 C 0.99947 0.65033 0.92371 0.0
C656 C 0.98807 0.65364 0.8429 0.0
C657 C 0.97199 0.64031 0.81893 0.0
C658 C 0.96141 0.6434 0.74242 0.0
C659 C 0.96667 0.65987 0.6896 0.0
C660 C 0.98248 0.67331 0.7133 0.0
C661 C 0.99313 0.67028 0.78972 0.0
H662 H 0.95846 0.66223 0.63038 0.0
H663 H 0.0558 0.63217 0.38475 0.0
H664 H 0.98597 0.25058 0.13479 0.0
H665 H 0.97225 0.22589 0.23673 0.0
H666 H 0.02545 0.23552 0.39809 0.0
H667 H 0.04018 0.25837 0.29041 0.0
H668 H 0.01841 0.19896 0.3995 0.0
H669 H 0.97433 0.25412 0.45127 0.0
H670 H 0.95143 0.2837 0.4228 0.0
H671 H 0.90711 0.24338 0.30657 0.0
H672 H 0.92987 0.21357 0.33293 0.0
H673 H 0.97518 0.12028 0.62119 0.0
H674 H 0.97418 0.15786 0.6146 0.0
H675 H 0.95292 0.15456 0.355 0.0
H676 H 0.95468 0.11705 0.35989 0.0
H677 H 0.94343 0.19444 0.45873 0.0
H678 H 1.00111 0.14667 0.35729 0.0
H679 H 0.02726 0.11958 0.38229 0.0
H680 H 0.04706 0.15062 0.60959 0.0
H681 H 0.02082 0.17769 0.58635 0.0
C682 C 0.99492 0.24686 0.19093 0.0
C683 C 0.01404 0.25623 0.20536 0.0
C684 C 0.98682 0.23332 0.25052 0.0
C685 C 0.99737 0.22951 0.32706 0.0
C686 C 0.01681 0.23849 0.34031 0.0
C687 C 0.02523 0.25149 0.27912 0.0
C688 C 0.98903 0.21442 0.38837 0.0
C689 C 1.00213 0.19853 0.41516 0.0
C690 C 0.96781 0.21376 0.40983 0.0
C691 C 0.95388 0.23157 0.39402 0.0
C692 C 0.95975 0.25155 0.4192 0.0
C693 C 0.94679 0.26837 0.40345 0.0
C694 C 0.92783 0.26542 0.36289 0.0
C695 C 0.92179 0.24564 0.33809 0.0
C696 C 0.93471 0.22876 0.35361 0.0
C697 C 0.96932 0.12758 0.56405 0.0
C698 C 0.96577 0.11592 0.48986 0.0
C699 C 0.96857 0.14903 0.56081 0.0
C700 C 0.96388 0.15881 0.48387 0.0
C701 C 0.95659 0.14715 0.4149 0.0
C702 C 0.95763 0.12568 0.41765 0.0
C703 C 0.97278 0.1791 0.46558 0.0
C704 C 0.95982 0.19575 0.44657 0.0
C705 C 0.99427 0.18093 0.45354 0.0
C706 C 1.00883 0.16389 0.47106 0.0
C707 C 1.01084 0.14749 0.41327 0.0
C708 C 0.02574 0.13223 0.42683 0.0
C709 C 0.03869 0.13327 0.49793 0.0
C710 C 0.03683 0.14965 0.55527 0.0
C711 C 0.02195 0.16494 0.54201 0.0
H712 H 0.0502 0.12142 0.50842 0.0
H713 H 0.91782 0.27847 0.35072 0.0
H714 H 0.30783 0.99202 0.19986 0.0
H715 H 0.33689 0.96807 0.20789 0.0
H716 H 0.29712 0.91791 0.13366 0.0
H717 H 0.26804 0.94245 0.1199 0.0
H718 H 0.32817 0.91725 0.30233 0.0
H719 H 0.32339 0.91397 0.01458 0.0
H720 H 0.31664 0.92312 0.86533 0.0
H721 H 0.36803 0.96462 0.86815 0.0
H722 H 0.37459 0.95635 0.01881 0.0
H723 H 0.4494 0.93032 0.23113 0.0
H724 H 0.41749 0.91426 0.17808 0.0
H725 H 0.3829 0.94715 0.36967 0.0
H726 H 0.41432 0.96232 0.42346 0.0
H727 H 0.38657 0.92969 0.10624 0.0
H728 H 0.34237 0.92789 0.43625 0.0
H729 H 0.34922 0.91469 0.58024 0.0
H730 H 0.39566 0.87397 0.48171 0.0
H731 H 0.38888 0.88662 0.33665 0.0
C732 C 0.30539 0.97595 0.1841 0.0
C733 C 0.28593 0.96905 0.15795 0.0
C734 C 0.3219 0.96231 0.18875 0.0
C735 C 0.31915 0.94136 0.16974 0.0
C736 C 0.29953 0.93411 0.14709 0.0
C737 C 0.283 0.948 0.14013 0.0
C738 C 0.33719 0.92765 0.17843 0.0
C739 C 0.34098 0.91933 0.25904 0.0
C740 C 0.35346 0.9291 0.11927 0.0
C741 C 0.34938 0.9347 0.02892 0.0
C742 C 0.33304 0.92537 0.98419 0.0
C743 C 0.32926 0.93036 0.89911 0.0
C744 C 0.34188 0.9445 0.85738 0.0
C745 C 0.35826 0.9537 0.90073 0.0
C746 C 0.36199 0.94889 0.98607 0.0
C747 C 0.43495 0.93365 0.26266 0.0
C748 C 0.43432 0.94731 0.33212 0.0
C749 C 0.41677 0.92445 0.2326 0.0
C750 C 0.39775 0.92892 0.27138 0.0
C751 C 0.39735 0.94257 0.34081 0.0
C752 C 0.41537 0.95145 0.37127 0.0
C753 C 0.37781 0.92204 0.23431 0.0
C754 C 0.37381 0.92648 0.14847 0.0
C755 C 0.36125 0.91612 0.28757 0.0
C756 C 0.36499 0.90815 0.37501 0.0
C757 C 0.35384 0.9159 0.44481 0.0
C758 C 0.35778 0.90858 0.52684 0.0
C759 C 0.37284 0.89348 0.54011 0.0
C760 C 0.38399 0.88567 0.47135 0.0
C761 C 0.38011 0.89292 0.38918 0.0
H762 H 0.37589 0.88786 0.60369 0.0
H763 H 0.33897 0.9483 0.79144 0.0
H764 H 0.52044 0.30899 0.20422 0.0
H765 H 0.5367 0.34197 0.23549 0.0
H766 H 0.59649 0.31248 0.23606 0.0
H767 H 0.58003 0.27957 0.19834 0.0
H768 H 0.55607 0.35862 0.3478 0.0
H769 H 0.63351 0.34645 0.17723 0.0
H770 H 0.64862 0.32533 0.06234 0.0
H771 H 0.58925 0.32045 0.9427 0.0
H772 H 0.57388 0.34177 0.05674 0.0
H773 H 0.59588 0.45154 0.40487 0.0
H774 H 0.60689 0.41632 0.38018 0.0
H775 H 0.58061 0.4182 0.12848 0.0
H776 H 0.57071 0.45415 0.15017 0.0
H777 H 0.61147 0.38464 0.15909 0.0
H778 H 0.54074 0.40654 0.25565 0.0
H779 H 0.51998 0.43159 0.33759 0.0
H780 H 0.5575 0.4206 0.55816 0.0
H781 H 0.57846 0.39537 0.47689 0.0
C782 C 0.53705 0.30965 0.21109 0.0
C783 C 0.54909 0.29202 0.1976 0.0
C784 C 0.54636 0.32843 0.22933 0.0
C785 C 0.56792 0.32993 0.23619 0.0
C786 C 0.5799 0.31191 0.22868 0.0
C787 C 0.57054 0.2931 0.20842 0.0
C788 C 0.5774 0.3506 0.24773 0.0
C789 C 0.56844 0.36402 0.30725 0.0
C790 C 0.59341 0.35804 0.19449 0.0
C791 C 0.60252 0.34537 0.12585 0.0
C792 C 0.62371 0.34086 0.12634 0.0
C793 C 0.63231 0.32888 0.06146 0.0
C794 C 0.61987 0.32147 0.99551 0.0
C795 C 0.59882 0.32611 0.99406 0.0
C796 C 0.59016 0.33811 0.05875 0.0
C797 C 0.59357 0.44506 0.34211 0.0
C798 C 0.58163 0.45539 0.28054 0.0
C799 C 0.59994 0.42481 0.32816 0.0
C800 C 0.59387 0.41453 0.25386 0.0
C801 C 0.58522 0.42586 0.18675 0.0
C802 C 0.57928 0.44632 0.1998 0.0
C803 C 0.58986 0.39218 0.25772 0.0
C804 C 0.59973 0.3787 0.20143 0.0
C805 C 0.57393 0.38478 0.31056 0.0
C806 C 0.56093 0.39901 0.361 0.0
C807 C 0.54438 0.40933 0.32194 0.0
C808 C 0.53265 0.42356 0.36804 0.0
C809 C 0.5374 0.42761 0.45314 0.0
C810 C 0.5538 0.41731 0.49243 0.0
C811 C 0.56552 0.40298 0.44662 0.0
H812 H 0.52842 0.43877 0.48853 0.0
H813 H 0.62655 0.31219 0.94538 0.0
H814 H 0.23999 0.47772 0.27261 0.0
H815 H 0.20693 0.4605 0.28995 0.0
H816 H 0.20776 0.44282 0.025 0.0
H817 H 0.24072 0.46097 0.00781 0.0
H818 H 0.17419 0.46051 0.05382 0.0
H819 H 0.20618 0.40535 0.19498 0.0
H820 H 0.23017 0.38734 0.29155 0.0
H821 H 0.20126 0.41598 0.50681 0.0
H822 H 0.17731 0.43444 0.41173 0.0
H823 H 0.07241 0.46412 0.1783 0.0
H824 H 0.10086 0.44114 0.14009 0.0
H825 H 0.13561 0.46299 0.35643 0.0
H826 H 0.10663 0.48405 0.3999 0.0
H827 H 0.14883 0.42581 0.31412 0.0
H828 H 0.13564 0.49271 0.14183 0.0
H829 H 0.109 0.51036 0.05594 0.0
H830 H 0.10153 0.45593 0.90306 0.0
H831 H 0.12831 0.43812 0.98758 0.0
C832 C 0.23342 0.46946 0.2192 0.0
C833 C 0.24276 0.47042 0.13923 0.0
C834 C 0.21457 0.45949 0.22897 0.0
C835 C 0.20489 0.44994 0.15912 0.0
C836 C 0.21494 0.44989 0.08 0.0
C837 C 0.23371 0.46017 0.07009 0.0
C838 C 0.183 0.44348 0.1663 0.0
C839 C 0.16876 0.45217 0.10916 0.0
C840 C 0.17563 0.43246 0.23781 0.0
C841 C 0.18987 0.42126 0.29591 0.0
C842 C 0.20497 0.40788 0.26288 0.0
C843 C 0.21857 0.39758 0.31742 0.0
C844 C 0.21722 0.40049 0.40525 0.0
C845 C 0.20225 0.41369 0.43876 0.0
C846 C 0.18861 0.42403 0.38454 0.0
C847 C 0.08583 0.46352 0.21928 0.0
C848 C 0.0877 0.47681 0.28964 0.0
C849 C 0.10217 0.45046 0.19695 0.0
C850 C 0.12081 0.45114 0.24277 0.0
C851 C 0.12161 0.46247 0.31869 0.0
C852 C 0.10515 0.47495 0.34242 0.0
C853 C 0.14061 0.44412 0.20527 0.0
C854 C 0.15445 0.43298 0.25642 0.0
C855 C 0.14773 0.45263 0.12795 0.0
C856 C 0.13385 0.46417 0.07066 0.0
C857 C 0.12855 0.48471 0.08883 0.0
C858 C 0.11338 0.49468 0.04071 0.0
C859 C 0.10351 0.48422 0.97435 0.0
C860 C 0.10915 0.46397 0.95464 0.0
C861 C 0.12442 0.45399 0.00208 0.0
H862 H 0.09142 0.49174 0.93835 0.0
H863 H 0.22778 0.39252 0.44734 0.0
H864 H 0.95385 0.78215 0.43352 0.0
H865 H 0.94295 0.81828 0.41644 0.0
H866 H 0.96169 0.81624 0.15381 0.0
H867 H 0.97392 0.781 0.1729 0.0
H868 H 0.98411 0.83963 0.33636 0.0
H869 H 0.92804 0.83201 0.10526 0.0
H870 H 0.89291 0.82013 0.06972 0.0
H871 H 0.86911 0.85132 0.28977 0.0
H872 H 0.90419 0.86319 0.32678 0.0
H873 H 0.01312 0.91371 0.06189 0.0
H874 H 0.9961 0.88334 0.12008 0.0
H875 H 0.95287 0.9224 0.2531 0.0
H876 H 0.96956 0.95308 0.19111 0.0
H877 H 0.93492 0.88531 0.18421 0.0
H878 H 0.99084 0.90542 0.36065 0.0
H879 H 0.0262 0.91766 0.38935 0.0
H880 H 0.05086 0.86209 0.28115 0.0
H881 H 0.01569 0.84982 0.24994 0.0
C882 C 0.95496 0.78934 0.37171 0.0
C883 C 0.9653 0.77932 0.30518 0.0
C884 C 0.94841 0.80976 0.36162 0.0
C885 C 0.95139 0.81978 0.2837 0.0
C886 C 0.95885 0.80861 0.2139 0.0
C887 C 0.96592 0.78852 0.22477 0.0
C888 C 0.95386 0.84228 0.28121 0.0
C889 C 0.97324 0.84982 0.30496 0.0
C890 C 0.93952 0.85543 0.24126 0.0
C891 C 0.91863 0.84827 0.21908 0.0
C892 C 0.91531 0.83618 0.14627 0.0
C893 C 0.89543 0.82949 0.12581 0.0
C894 C 0.87879 0.83492 0.17758 0.0
C895 C 0.882 0.84708 0.24984 0.0
C896 C 0.90187 0.85378 0.27059 0.0
C897 C 0.99995 0.91575 0.1033 0.0
C898 C 0.99281 0.9355 0.12394 0.0
C899 C 0.99017 0.8985 0.13602 0.0
C900 C 0.97348 0.90074 0.19189 0.0
C901 C 0.96576 0.92046 0.21018 0.0
C902 C 0.97536 0.93785 0.17573 0.0
C903 C 0.96566 0.88228 0.23564 0.0
C904 C 0.94548 0.87552 0.21946 0.0
C905 C 0.97939 0.86968 0.28258 0.0
C906 C 1.0006 0.87659 0.30422 0.0
C907 C 1.00383 0.89579 0.34352 0.0
C908 C 0.02382 0.90279 0.35968 0.0
C909 C 0.04075 0.89065 0.33721 0.0
C910 C 0.03772 0.87148 0.29862 0.0
C911 C 0.01775 0.86448 0.28186 0.0
H912 H 0.05622 0.89612 0.34962 0.0
H913 H 0.8634 0.82975 0.16161 0.0
H914 H 0.74092 0.04885 0.14638 0.0
H915 H 0.70982 0.06947 0.12292 0.0
H916 H 0.72895 0.11153 0.321 0.0
H917 H 0.76031 0.09057 0.34371 0.0
H918 H 0.69111 0.09648 0.34817 0.0
H919 H 0.72283 0.1308 0.12077 0.0
H920 H 0.74459 0.13453 0.99348 0.0
H921 H 0.70377 0.09512 0.85257 0.0
H922 H 0.6819 0.09093 0.97913 0.0
H923 H 0.59037 0.11461 0.06497 0.0
H924 H 0.62339 0.12787 0.11941 0.0
H925 H 0.63615 0.06856 0.23251 0.0
H926 H 0.60398 0.05539 0.17594 0.0
H927 H 0.65936 0.11289 0.06913 0.0
H928 H 0.66737 0.07179 0.40289 0.0
H929 H 0.64647 0.0666 0.53112 0.0
H930 H 0.60739 0.11727 0.46058 0.0
H931 H 0.62869 0.12361 0.33393 0.0
C932 C 0.73866 0.06288 0.18262 0.0
C933 C 0.75269 0.06837 0.24628 0.0
C934 C 0.72106 0.07472 0.16917 0.0
C935 C 0.71723 0.09224 0.21936 0.0
C936 C 0.73177 0.09822 0.28094 0.0
C937 C 0.74955 0.08637 0.29388 0.0
C938 C 0.69659 0.10191 0.21534 0.0
C939 C 0.6841 0.10047 0.2877 0.0
C940 C 0.68778 0.10789 0.13687 0.0
C941 C 0.70065 0.11064 0.05963 0.0
C942 C 0.7185 0.12291 0.0627 0.0
C943 C 0.73087 0.12509 0.99063 0.0
C944 C 0.72555 0.1151 0.91495 0.0
C945 C 0.70783 0.10292 0.91115 0.0
C946 C 0.6954 0.1007 0.983 0.0
C947 C 0.60008 0.10466 0.10322 0.0
C948 C 0.59444 0.08406 0.11825 0.0
C949 C 0.61882 0.11225 0.13459 0.0
C950 C 0.63203 0.09936 0.1817 0.0
C951 C 0.62595 0.07906 0.19911 0.0
C952 C 0.60745 0.07151 0.16727 0.0
C953 C 0.65358 0.10534 0.20028 0.0
C954 C 0.66629 0.10978 0.13063 0.0
C955 C 0.66255 0.10183 0.28122 0.0
C956 C 0.64972 0.0982 0.35823 0.0
C957 C 0.65451 0.08207 0.41494 0.0
C958 C 0.64257 0.0789 0.48755 0.0
C959 C 0.62554 0.09148 0.50371 0.0
C960 C 0.62056 0.10747 0.4478 0.0
C961 C 0.63263 0.11092 0.37571 0.0
H962 H 0.61622 0.08887 0.55964 0.0
H963 H 0.73517 0.11678 0.85929 0.0
H964 H 0.56526 0.75247 0.42711 0.0
H965 H 0.57832 0.71811 0.39138 0.0
H966 H 0.56863 0.73065 0.12537 0.0
H967 H 0.5553 0.76478 0.16112 0.0
H968 H 0.54398 0.70157 0.17749 0.0
H969 H 0.61716 0.71486 0.21592 0.0
H970 H 0.64728 0.72748 0.29659 0.0
H971 H 0.63364 0.68537 0.49919 0.0
H972 H 0.60332 0.67266 0.42008 0.0
H973 H 0.56165 0.61074 0.98701 0.0
H974 H 0.57448 0.64306 0.0424 0.0
H975 H 0.5638 0.62227 0.29853 0.0
H976 H 0.55176 0.58898 0.24387 0.0
H977 H 0.5999 0.65373 0.26575 0.0
H978 H 0.52632 0.64287 0.23999 0.0
H979 H 0.49559 0.6294 0.16584 0.0
H980 H 0.50872 0.6678 0.95052 0.0
H981 H 0.53982 0.68112 0.02272 0.0
C982 C 0.5669 0.74814 0.36096 0.0
C983 C 0.5591 0.76097 0.29675 0.0
C984 C 0.57425 0.7285 0.34064 0.0
C985 C 0.57388 0.72159 0.25613 0.0
C986 C 0.56883 0.73558 0.19122 0.0
C987 C 0.5614 0.75514 0.21146 0.0
C988 C 0.57392 0.6992 0.23723 0.0
C989 C 0.55649 0.6913 0.19546 0.0
C990 C 0.58953 0.68548 0.26541 0.0
C991 C 0.60795 0.69286 0.31219 0.0
C992 C 0.62055 0.70835 0.27781 0.0
C993 C 0.63766 0.71551 0.32323 0.0
C994 C 0.64236 0.70724 0.40298 0.0
C995 C 0.63 0.69174 0.43735 0.0
C996 C 0.61289 0.68452 0.39215 0.0
C997 C 0.5629 0.61239 0.05529 0.0
C998 C 0.55524 0.59723 0.11083 0.0
C999 C 0.57027 0.63102 0.08683 0.0
C1000 C 0.56987 0.63505 0.17428 0.0
C1001 C 0.56426 0.61935 0.23073 0.0
C1002 C 0.55703 0.6005 0.19918 0.0
C1003 C 0.57055 0.65671 0.20273 0.0
C1004 C 0.58768 0.66428 0.24736 0.0
C1005 C 0.55451 0.67029 0.17886 0.0
C1006 C 0.53548 0.66282 0.13635 0.0
C1007 C 0.52273 0.64831 0.17657 0.0
C1008 C 0.50525 0.64072 0.13495 0.0
C1009 C 0.50022 0.64772 0.0535 0.0
C1010 C 0.51264 0.66238 0.0136 0.0
C1011 C 0.5302 0.66995 0.05482 0.0
H1012 H 0.48668 0.64182 0.02136 0.0
H1013 H 0.6556 0.71282 0.4381 0.0
H1014 H 0.77381 0.46075 0.20984 0.0
H1015 H 0.80614 0.44284 0.17332 0.0
H1016 H 0.83657 0.50172 0.14967 0.0
H1017 H 0.80415 0.51934 0.18171 0.0
H1018 H 0.84626 0.47832 0.02233 0.0
H1019 H 0.84074 0.47005 0.32466 0.0
H1020 H 0.82626 0.45843 0.46139 0.0
H1021 H 0.83073 0.39543 0.37937 0.0
H1022 H 0.84526 0.40671 0.24232 0.0
H1023 H 0.95026 0.45549 0.18322 0.0
H1024 H 0.91399 0.4507 0.21558 0.0
H1025 H 0.9028 0.43015 0.95882 0.0
H1026 H 0.9385 0.43708 0.92314 0.0
H1027 H 0.8806 0.4279 0.21332 0.0
H1028 H 0.86365 0.45692 0.87732 0.0
H1029 H 0.88168 0.47252 0.7554 0.0
H1030 H 0.92504 0.50107 0.92539 0.0
H1031 H 0.90703 0.48588 0.0483 0.0
C1032 C 0.78749 0.46968 0.19614 0.0
C1033 C 0.7868 0.4913 0.1992 0.0
C1034 C 0.80589 0.45952 0.17604 0.0
C1035 C 0.8238 0.47094 0.15945 0.0
C1036 C 0.82295 0.49259 0.16217 0.0
C1037 C 0.80457 0.50266 0.18131 0.0
C1038 C 0.84354 0.4607 0.1378 0.0
C1039 C 0.85361 0.46709 0.06367 0.0
C1040 C 0.85316 0.44603 0.19165 0.0
C1041 C 0.84386 0.43927 0.27297 0.0
C1042 C 0.83848 0.45375 0.33566 0.0
C1043 C 0.83031 0.44723 0.41322 0.0
C1044 C 0.82748 0.42623 0.42888 0.0
C1045 C 0.83288 0.41171 0.36709 0.0
C1046 C 0.84111 0.41816 0.28953 0.0
C1047 C 0.94017 0.44961 0.1339 0.0
C1048 C 0.94706 0.44778 0.04955 0.0
C1049 C 0.91944 0.4465 0.153 0.0
C1050 C 0.90553 0.44092 0.08857 0.0
C1051 C 0.9132 0.43513 0.00872 0.0
C1052 C 0.93377 0.43899 0.9886 0.0
C1053 C 0.88341 0.44597 0.09928 0.0
C1054 C 0.87288 0.43862 0.17086 0.0
C1055 C 0.87355 0.46037 0.04483 0.0
C1056 C 0.88416 0.47006 0.97168 0.0
C1057 C 0.87698 0.4666 0.88855 0.0
C1058 C 0.88719 0.47538 0.81932 0.0
C1059 C 0.90455 0.48773 0.83257 0.0
C1060 C 0.91162 0.49147 0.91517 0.0
C1061 C 0.9014 0.48281 0.98464 0.0
H1062 H 0.91249 0.49441 0.77886 0.0
H1063 H 0.82116 0.42121 0.48898 0.0
H1064 H 0.04907 0.24265 0.07573 0.0
H1065 H 0.04826 0.20819 0.01252 0.0
H1066 H 0.99039 0.22292 0.89055 0.0
H1067 H 0.99196 0.25793 0.95138 0.0
H1068 H 0.02662 0.17836 0.03914 0.0
H1069 H 0.97833 0.18761 0.73196 0.0
H1070 H 0.97264 0.21199 0.61397 0.0
H1071 H 0.03238 0.23842 0.65716 0.0
H1072 H 0.03842 0.21421 0.77562 0.0
H1073 H 1.00207 0.07638 0.90926 0.0
H1074 H 1.00025 0.11266 0.95098 0.0
H1075 H 0.03063 0.12976 0.7181 0.0
H1076 H 0.03078 0.0936 0.67312 0.0
H1077 H 1.00748 0.15856 0.74521 0.0
H1078 H 0.05427 0.12571 0.94244 0.0
H1079 H 0.06523 0.10069 0.05182 0.0
H1080 H 0.01711 0.12192 0.21746 0.0
H1081 H 1.00573 0.14689 0.10873 0.0
C1082 C 0.03649 0.2387 0.03338 0.0
C1083 C 0.02082 0.25322 0.01748 0.0
C1084 C 0.03585 0.21881 0.99771 0.0
C1085 C 0.01926 0.21241 0.94577 0.0
C1086 C 1.00369 0.22717 0.92835 0.0
C1087 C 1.00455 0.24733 0.96316 0.0
C1088 C 0.01792 0.19006 0.91598 0.0
C1089 C 0.02248 0.17422 0.97451 0.0
C1090 C 0.01253 0.184 0.83177 0.0
C1091 C 1.0087 0.19927 0.76341 0.0
C1092 C 0.99021 0.19869 0.71653 0.0
C1093 C 0.98694 0.21244 0.64944 0.0
C1094 C 1.00214 0.22673 0.62798 0.0
C1095 C 0.02059 0.22739 0.67403 0.0
C1096 C 0.02391 0.21372 0.74145 0.0
C1097 C 1.00835 0.08788 0.86676 0.0
C1098 C 0.01682 0.08187 0.78811 0.0
C1099 C 1.0075 0.10881 0.89116 0.0
C1100 C 0.01596 0.12447 0.83958 0.0
C1101 C 0.02402 0.11839 0.76003 0.0
C1102 C 0.02422 0.09753 0.7343 0.0
C1103 C 0.0166 0.14696 0.86806 0.0
C1104 C 1.01172 0.16277 0.80967 0.0
C1105 C 0.02226 0.15309 0.95187 0.0
C1106 C 0.02903 0.13801 0.01709 0.0
C1107 C 0.04596 0.12494 0.002 0.0
C1108 C 0.05225 0.11079 0.06391 0.0
C1109 C 0.04184 0.10968 0.14145 0.0
C1110 C 0.02514 0.12277 0.15735 0.0
C1111 C 0.01877 0.13692 0.09562 0.0
H1112 H 0.04675 0.09872 0.1893 0.0
H1113 H 0.99963 0.23727 0.57561 0.0
H1114 H 0.29442 0.03618 0.11189 0.0
H1115 H 0.32799 0.04171 0.0422 0.0
H1116 H 0.32188 0.98338 0.91347 0.0
H1117 H 0.28813 0.97828 0.97985 0.0
H1118 H 0.36105 0.99347 0.0314 0.0
H1119 H 0.31893 0.01402 0.78749 0.0
H1120 H 0.2923 0.03555 0.71878 0.0
H1121 H 0.32649 0.09014 0.78163 0.0
H1122 H 0.35318 0.06891 0.85189 0.0
H1123 H 0.43913 1.01037 0.65797 0.0
H1124 H 0.40359 1.00948 0.71152 0.0
H1125 H 0.42536 0.02606 0.96152 0.0
H1126 H 0.46065 0.02675 0.90935 0.0
H1127 H 0.37785 0.03748 0.78347 0.0
H1128 H 0.39541 1.00119 0.11447 0.0
H1129 H 0.42061 0.97775 0.18185 0.0
H1130 H 0.43466 0.95117 0.93865 0.0
H1131 H 0.40926 0.97409 0.87006 0.0
C1132 C 0.29993 0.02494 0.06632 0.0
C1133 C 0.28859 1.00682 0.05109 0.0
C1134 C 0.31922 0.02798 0.02731 0.0
C1135 C 0.32757 0.01286 0.97308 0.0
C1136 C 0.31586 0.9952 0.95529 0.0
C1137 C 0.29651 0.99236 0.99286 0.0
C1138 C 0.34899 0.01467 0.93895 0.0
C1139 C 0.3648 1.00315 0.97744 0.0
C1140 C 0.35384 0.0272 0.8683 0.0
C1141 C 0.33789 0.03991 0.82582 0.0
C1142 C 0.32064 0.03063 0.78748 0.0
C1143 C 0.30557 0.04277 0.74805 0.0
C1144 C 0.30766 0.06421 0.7461 0.0
C1145 C 0.32487 0.07354 0.78334 0.0
C1146 C 0.33997 0.06146 0.82291 0.0
C1147 C 0.43637 0.01387 0.72431 0.0
C1148 C 0.45296 0.0185 0.77911 0.0
C1149 C 0.41597 0.01342 0.75489 0.0
C1150 C 0.41166 0.01747 0.84106 0.0
C1151 C 0.42816 0.02254 0.8952 0.0
C1152 C 0.44845 0.02297 0.86489 0.0
C1153 C 0.39009 0.01597 0.87512 0.0
C1154 C 0.37426 0.02774 0.83742 0.0
C1155 C 0.38517 1.00344 0.94623 0.0
C1156 C 0.40069 0.9897 0.98685 0.0
C1157 C 0.40389 0.99036 0.07533 0.0
C1158 C 0.41817 0.97712 0.11379 0.0
C1159 C 0.42934 0.9631 0.06444 0.0
C1160 C 0.42612 0.96216 0.97669 0.0
C1161 C 0.41181 0.97531 0.93796 0.0
H1162 H 0.44047 0.95293 0.09411 0.0
H1163 H 0.29598 0.07359 0.71552 0.0
H1164 H 0.55592 0.29483 0.01869 0.0
H1165 H 0.55136 0.3281 0.94947 0.0
H1166 H 0.48538 0.32219 0.97344 0.0
H1167 H 0.49025 0.28944 0.04949 0.0
H1168 H 0.53958 0.34579 0.82972 0.0
H1169 H 0.46053 0.36732 0.97863 0.0
H1170 H 0.44064 0.3603 0.10902 0.0
H1171 H 0.49669 0.34682 0.24409 0.0
H1172 H 0.51688 0.35402 0.11456 0.0
H1173 H 0.51269 0.44294 0.64707 0.0
H1174 H 0.51415 0.40696 0.69424 0.0
H1175 H 0.5122 0.42715 0.95554 0.0
H1176 H 0.51003 0.46286 0.90885 0.0
H1177 H 0.49052 0.39625 0.95224 0.0
H1178 H 0.55706 0.40801 0.84971 0.0
H1179 H 0.58668 0.41626 0.75825 0.0
H1180 H 0.56954 0.36765 0.58659 0.0
H1181 H 0.53943 0.35952 0.67558 0.0
C1182 C 0.54042 0.30058 0.00863 0.0
C1183 C 0.52349 0.28957 0.04072 0.0
C1184 C 0.53777 0.31975 0.96884 0.0
C1185 C 0.51804 0.32851 0.95817 0.0
C1186 C 0.50091 0.31655 0.98354 0.0
C1187 C 0.50362 0.29748 0.02543 0.0
C1188 C 0.51582 0.35024 0.92342 0.0
C1189 C 0.52873 0.35671 0.85665 0.0
C1190 C 0.50224 0.36514 0.9591 0.0
C1191 C 0.49016 0.36088 0.03685 0.0
C1192 C 0.46858 0.36288 0.03622 0.0
C1193 C 0.45727 0.35887 0.1099 0.0
C1194 C 0.46739 0.35302 0.18467 0.0
C1195 C 0.48887 0.35125 0.18605 0.0
C1196 C 0.50024 0.35527 0.11259 0.0
C1197 C 0.51252 0.43974 0.71461 0.0
C1198 C 0.51114 0.45604 0.7738 0.0
C1199 C 0.51349 0.41903 0.74178 0.0
C1200 C 0.51343 0.41395 0.82905 0.0
C1201 C 0.51209 0.43028 0.88793 0.0
C1202 C 0.51092 0.4509 0.86088 0.0
C1203 C 0.51453 0.39183 0.85952 0.0
C1204 C 0.50128 0.38528 0.92497 0.0
C1205 C 0.52888 0.37727 0.82685 0.0
C1206 C 0.54578 0.38335 0.76876 0.0
C1207 C 0.55933 0.39937 0.79149 0.0
C1208 C 0.57628 0.40396 0.74029 0.0
C1209 C 0.58002 0.39247 0.66677 0.0
C1210 C 0.56664 0.37655 0.64357 0.0
C1211 C 0.54956 0.37202 0.69412 0.0
H1212 H 0.59328 0.39592 0.6277 0.0
H1213 H 0.4586 0.34991 0.2416 0.0
H1214 H 0.25378 0.50569 0.90916 0.0
H1215 H 0.22119 0.51266 0.83307 0.0
H1216 H 0.18963 0.51742 0.07339 0.0
H1217 H 0.22223 0.51129 0.14826 0.0
H1218 H 0.18608 0.49234 0.82235 0.0
H1219 H 0.14888 0.54862 0.06489 0.0
H1220 H 0.15946 0.57608 0.16448 0.0
H1221 H 0.21367 0.58736 0.01568 0.0
H1222 H 0.20328 0.56017 0.91461 0.0
H1223 H 0.0718 0.53005 0.86445 0.0
H1224 H 0.10727 0.52886 0.91414 0.0
H1225 H 0.12843 0.52167 0.65617 0.0
H1226 H 0.09258 0.52275 0.6056 0.0
H1227 H 0.13937 0.54978 0.90149 0.0
H1228 H 0.1768 0.49538 0.65604 0.0
H1229 H 0.16692 0.4687 0.55168 0.0
H1230 H 0.1131 0.45444 0.69847 0.0
H1231 H 0.12276 0.48094 0.80362 0.0
C1232 C 0.23994 0.50884 0.94527 0.0
C1233 C 0.24059 0.50831 0.03458 0.0
C1234 C 0.22123 0.51253 0.90191 0.0
C1235 C 0.20274 0.51583 0.94694 0.0
C1236 C 0.20356 0.51543 0.03644 0.0
C1237 C 0.22222 0.5119 0.07948 0.0
C1238 C 0.18253 0.51925 0.90127 0.0
C1239 C 0.17602 0.5051 0.83874 0.0
C1240 C 0.16908 0.53573 0.92255 0.0
C1241 C 0.17537 0.55224 0.9826 0.0
C1242 C 0.16301 0.55703 0.05324 0.0
C1243 C 0.16899 0.57253 0.10998 0.0
C1244 C 0.18725 0.58342 0.09654 0.0
C1245 C 0.19956 0.57886 0.02618 0.0
C1246 C 0.19365 0.56339 0.9692 0.0
C1247 C 0.08391 0.52817 0.81781 0.0
C1248 C 0.07911 0.52624 0.7308 0.0
C1249 C 0.10437 0.5275 0.84658 0.0
C1250 C 0.12083 0.5245 0.78985 0.0
C1251 C 0.11617 0.52333 0.70225 0.0
C1252 C 0.09559 0.52412 0.67314 0.0
C1253 C 0.14255 0.52256 0.82396 0.0
C1254 C 0.14941 0.53703 0.88451 0.0
C1255 C 0.15631 0.50645 0.80009 0.0
C1256 C 0.15043 0.49027 0.73764 0.0
C1257 C 0.1629 0.4865 0.66625 0.0
C1258 C 0.15733 0.47142 0.6068 0.0
C1259 C 0.13936 0.45992 0.61828 0.0
C1260 C 0.127 0.46339 0.68949 0.0
C1261 C 0.13253 0.47842 0.74909 0.0
H1262 H 0.13504 0.44831 0.57207 0.0
H1263 H 0.19186 0.5954 0.14057 0.0
H1264 H 0.02484 0.79447 0.30097 0.0
H1265 H 0.0308 0.82844 0.36715 0.0
H1266 H 0.98983 0.81223 0.57147 0.0
H1267 H 0.98545 0.77778 0.50912 0.0
H1268 H 0.97833 0.84877 0.50381 0.0
H1269 H 0.03994 0.81791 0.60334 0.0
H1270 H 0.07306 0.79938 0.595 0.0
H1271 H 0.09865 0.84862 0.44705 0.0
H1272 H 0.06564 0.86734 0.45371 0.0
H1273 H 0.03178 0.94038 0.75506 0.0
H1274 H 0.03054 0.90395 0.7111 0.0
H1275 H 0.99366 0.92083 0.49373 0.0
H1276 H 0.99531 0.95689 0.53561 0.0
H1277 H 0.04428 0.8831 0.57674 0.0
H1278 H 0.96134 0.88154 0.43519 0.0
H1279 H 0.92782 0.89853 0.45716 0.0
H1280 H 0.94417 0.91144 0.71657 0.0
H1281 H 0.97774 0.89426 0.69624 0.0
C1282 C 0.01765 0.798 0.36131 0.0
C1283 C 1.00448 0.78352 0.39943 0.0
C1284 C 0.02079 0.81758 0.39865 0.0
C1285 C 1.0103 0.8234 0.47351 0.0
C1286 C 0.99788 0.80849 0.5132 0.0
C1287 C 0.99539 0.78875 0.47761 0.0
C1288 C 1.0113 0.84514 0.5084 0.0
C1289 C 0.99281 0.85624 0.51931 0.0
C1290 C 0.03007 0.855 0.53089 0.0
C1291 C 0.05007 0.84385 0.52723 0.0
C1292 C 0.05252 0.82468 0.56795 0.0
C1293 C 0.07133 0.81416 0.56387 0.0
C1294 C 0.08791 0.82275 0.52001 0.0
C1295 C 0.08576 0.84192 0.48058 0.0
C1296 C 0.06697 0.85249 0.48445 0.0
C1297 C 0.02335 0.93629 0.69799 0.0
C1298 C 0.01367 0.95176 0.64906 0.0
C1299 C 0.02276 0.91539 0.67242 0.0
C1300 C 1.01207 0.90926 0.59831 0.0
C1301 C 1.00211 0.92475 0.5507 0.0
C1302 C 1.00304 0.94557 0.57509 0.0
C1303 C 1.01133 0.88689 0.57032 0.0
C1304 C 0.02983 0.87566 0.56069 0.0
C1305 C 0.99253 0.87673 0.55029 0.0
C1306 C 0.97224 0.88685 0.56362 0.0
C1307 C 0.95781 0.88796 0.49685 0.0
C1308 C 0.93878 0.89764 0.50907 0.0
C1309 C 0.93389 0.90616 0.58813 0.0
C1310 C 0.94801 0.90492 0.65522 0.0
C1311 C 0.96707 0.89524 0.6433 0.0
H1312 H 0.91915 0.91366 0.59749 0.0
H1313 H 0.10247 0.81459 0.51696 0.0
H1314 H 0.74835 0.05839 0.43751 0.0
H1315 H 0.71375 0.05427 0.49684 0.0
H1316 H 0.70467 1.00019 0.34141 0.0
H1317 H 0.73921 1.00499 0.27939 0.0
H1318 H 0.67077 0.02369 0.33699 0.0
H1319 H 0.71384 0.99793 0.56401 0.0
H1320 H 0.74214 0.99946 0.66891 0.0
H1321 H 0.71476 0.05306 0.78323 0.0
H1322 H 0.68642 0.052 0.6783 0.0
H1323 H 0.57752 0.99312 0.53381 0.0
H1324 H 0.61315 0.99392 0.48362 0.0
H1325 H 0.62573 0.04544 0.64957 0.0
H1326 H 0.59038 0.04371 0.70402 0.0
H1327 H 0.658 0.02279 0.64773 0.0
H1328 H 0.61417 0.04816 0.42546 0.0
H1329 H 0.58425 0.04507 0.32984 0.0
H1330 H 0.61253 0.99329 0.20555 0.0
H1331 H 0.64232 0.99555 0.30287 0.0
C1332 C 0.73904 0.04548 0.41687 0.0
C1333 C 0.74661 0.03187 0.35465 0.0
C1334 C 0.71922 0.04307 0.45101 0.0
C1335 C 0.70643 0.02672 0.4249 0.0
C1336 C 0.71412 0.01289 0.36327 0.0
C1337 C 0.73399 0.01542 0.32864 0.0
C1338 C 0.68502 0.0244 0.46077 0.0
C1339 C 0.66805 0.02318 0.40496 0.0
C1340 C 0.68112 0.02438 0.54958 0.0
C1341 C 0.69811 0.02497 0.61288 0.0
C1342 C 0.71393 1.01011 0.61118 0.0
C1343 C 0.72996 1.01089 0.67069 0.0
C1344 C 0.73027 0.02637 0.73258 0.0
C1345 C 0.71451 0.04108 0.73522 0.0
C1346 C 0.69845 0.04039 0.6758 0.0
C1347 C 0.58791 1.00456 0.55999 0.0
C1348 C 0.581 0.01843 0.62264 0.0
C1349 C 0.60835 1.0051 0.53078 0.0
C1350 C 0.62229 0.02012 0.56063 0.0
C1351 C 0.61547 0.03372 0.62473 0.0
C1352 C 0.59517 0.03277 0.65583 0.0
C1353 C 0.64371 0.02192 0.52411 0.0
C1354 C 0.66068 0.02322 0.57972 0.0
C1355 C 0.64756 0.02222 0.43512 0.0
C1356 C 0.63043 0.0219 0.3722 0.0
C1357 C 0.61404 0.03609 0.37791 0.0
C1358 C 0.59698 0.03434 0.32399 0.0
C1359 C 0.5964 0.01887 0.26211 0.0
C1360 C 0.61295 1.00519 0.25381 0.0
C1361 C 0.6299 1.00665 0.30861 0.0
H1362 H 0.58322 0.01763 0.22004 0.0
H1363 H 0.7427 0.02694 0.77859 0.0
H1364 H 0.51942 0.76283 0.51541 0.0
H1365 H 0.51466 0.7279 0.57272 0.0
H1366 H 0.51589 0.70323 0.31788 0.0
H1367 H 0.51964 0.73828 0.26129 0.0
H1368 H 0.48827 0.68331 0.40236 0.0
H1369 H 0.56293 0.69261 0.47435 0.0
H1370 H 0.59186 0.71261 0.53612 0.0
H1371 H 0.558 0.72003 0.76836 0.0
H1372 H 0.52904 0.70007 0.70771 0.0
H1373 H 0.50918 0.57819 0.49044 0.0
H1374 H 0.50959 0.61413 0.44538 0.0
H1375 H 0.50947 0.63371 0.70746 0.0
H1376 H 0.50956 0.59757 0.75321 0.0
H1377 H 0.53512 0.6568 0.62688 0.0
H1378 H 0.46424 0.64156 0.57035 0.0
H1379 H 0.43417 0.62275 0.51435 0.0
H1380 H 0.45878 0.62655 0.26158 0.0
H1381 H 0.48871 0.64606 0.31622 0.0
C1382 C 0.51813 0.74995 0.4719 0.0
C1383 C 0.51965 0.75332 0.38392 0.0
C1384 C 0.5159 0.72986 0.50464 0.0
C1385 C 0.51547 0.71254 0.45025 0.0
C1386 C 0.51625 0.71609 0.36191 0.0
C1387 C 0.51826 0.73617 0.3293 0.0
C1388 C 0.5138 0.69083 0.48446 0.0
C1389 C 0.49874 0.67753 0.4507 0.0
C1390 C 0.52678 0.68307 0.54994 0.0
C1391 C 0.54378 0.69541 0.58588 0.0
C1392 C 0.56164 0.69886 0.53801 0.0
C1393 C 0.57804 0.71003 0.57294 0.0
C1394 C 0.57667 0.71776 0.65572 0.0
C1395 C 0.55899 0.71415 0.70406 0.0
C1396 C 0.54263 0.70287 0.66956 0.0
C1397 C 0.50915 0.59006 0.5389 0.0
C1398 C 0.50928 0.58474 0.62583 0.0
C1399 C 0.5092 0.61079 0.51279 0.0
C1400 C 0.50917 0.62697 0.57256 0.0
C1401 C 0.50941 0.6217 0.65952 0.0
C1402 C 0.50942 0.60092 0.68578 0.0
C1403 C 0.50972 0.64921 0.54414 0.0
C1404 C 0.52459 0.66258 0.57878 0.0
C1405 C 0.49635 0.65712 0.48033 0.0
C1406 C 0.47879 0.64496 0.44739 0.0
C1407 C 0.46329 0.63823 0.50294 0.0
C1408 C 0.44624 0.62752 0.47141 0.0
C1409 C 0.44467 0.62319 0.38456 0.0
C1410 C 0.46005 0.62982 0.32889 0.0
C1411 C 0.47698 0.64083 0.35999 0.0
H1412 H 0.43148 0.6148 0.36038 0.0
H1413 H 0.58936 0.72643 0.68261 0.0
H1414 H 0.78062 0.48926 0.40862 0.0
H1415 H 0.81306 0.49319 0.48748 0.0
H1416 H 0.82234 0.55241 0.36883 0.0
H1417 H 0.7891 0.54888 0.29525 0.0
H1418 H 0.84854 0.49251 0.43621 0.0
H1419 H 0.85839 0.58142 0.46907 0.0
H1420 H 0.83699 0.61207 0.49884 0.0
H1421 H 0.79252 0.57414 0.62589 0.0
H1422 H 0.81378 0.54332 0.5979 0.0
H1423 H 0.9543 0.52107 0.46643 0.0
H1424 H 0.91778 0.51976 0.42743 0.0
H1425 H 0.90096 0.53143 0.68788 0.0
H1426 H 0.93763 0.53227 0.72803 0.0
H1427 H 0.87756 0.55525 0.56994 0.0
H1428 H 0.89691 0.48646 0.61976 0.0
H1429 H 0.91541 0.45338 0.61053 0.0
H1430 H 0.89745 0.44727 0.34896 0.0
H1431 H 0.87978 0.4809 0.35497 0.0
C1432 C 0.78921 0.50348 0.40264 0.0
C1433 C 0.78211 0.51898 0.34757 0.0
C1434 C 0.80801 0.5056 0.44642 0.0
C1435 C 0.82056 0.5231 0.43477 0.0
C1436 C 0.81303 0.53893 0.38146 0.0
C1437 C 0.79393 0.53699 0.33934 0.0
C1438 C 0.84207 0.52383 0.4723 0.0
C1439 C 0.8548 0.50632 0.46476 0.0
C1440 C 0.85041 0.54156 0.51289 0.0
C1441 C 0.8376 0.56003 0.53061 0.0
C1442 C 0.84409 0.57963 0.50364 0.0
C1443 C 0.83197 0.59703 0.52015 0.0
C1444 C 0.81337 0.59504 0.56398 0.0
C1445 C 0.80689 0.57565 0.59165 0.0
C1446 C 0.81895 0.55821 0.57538 0.0
C1447 C 0.9429 0.52347 0.51566 0.0
C1448 C 0.94908 0.52685 0.60057 0.0
C1449 C 0.92193 0.52264 0.49314 0.0
C1450 C 0.90645 0.5255 0.55445 0.0
C1451 C 0.91252 0.52926 0.6391 0.0
C1452 C 0.93355 0.52967 0.66207 0.0
C1453 C 0.88405 0.52419 0.52988 0.0
C1454 C 0.87123 0.54155 0.5402 0.0
C1455 C 0.87544 0.50613 0.49343 0.0
C1456 C 0.88725 0.48648 0.48759 0.0
C1457 C 0.89732 0.47837 0.55958 0.0
C1458 C 0.90768 0.45948 0.55487 0.0
C1459 C 0.90781 0.44834 0.47884 0.0
C1460 C 0.89762 0.45609 0.40732 0.0
C1461 C 0.88749 0.47511 0.4113 0.0
H1462 H 0.91568 0.43362 0.4755 0.0
H1463 H 0.80401 0.60853 0.57665 0.0
loop_
_geom_bond_atom_site_label_1
_geom_bond_atom_site_label_2
_geom_bond_distance
_geom_bond_site_symmetry_2
_ccdc_geom_bond_type
C0 N1 1.317 . S
C0 N2 1.348 . S
C0 C3 1.485 . S
N1 C0 1.317 . S
N1 N5 1.370 . S
N2 C0 1.348 . S
N2 C4 1.346 . S
C3 C0 1.485 . S
C3 H7 0.960 . S
C3 H8 0.961 . S
C3 H9 0.960 . S
C4 N2 1.346 . S
C4 N5 1.307 . S
C4 C6 1.486 . S
N5 N1 1.370 . S
N5 C4 1.307 . S
C6 C4 1.486 . S
C6 H10 0.960 . S
C6 H11 0.960 . S
C6 H12 0.959 . S
H7 C3 0.960 . S
H8 C3 0.961 . S
H9 C3 0.960 . S
H10 C6 0.960 . S
H11 C6 0.960 . S
H12 C6 0.959 . S
C13 N14 1.317 . S
C13 N15 1.348 . S
C13 C16 1.485 . S
N14 C13 1.317 . S
N14 N18 1.372 . S
N15 C13 1.348 . S
N15 C17 1.347 . S
C16 C13 1.485 . S
C16 H20 0.960 1_655 S
C16 H21 0.961 . S
C16 H22 0.960 . S
C17 N15 1.347 . S
C17 N18 1.307 . S
C17 C19 1.486 1_655 S
N18 N14 1.372 . S
N18 C17 1.307 . S
C19 C17 1.486 1_455 S
C19 H23 0.945 1_455 S
C19 H24 0.972 . S
C19 H25 0.962 . S
H20 C16 0.960 1_455 S
H21 C16 0.961 . S
H22 C16 0.960 . S
H23 C19 0.945 1_655 S
H24 C19 0.972 . S
H25 C19 0.962 . S
C26 N27 1.317 . S
C26 N28 1.348 . S
C26 C29 1.485 . S
N27 C26 1.317 . S
N27 N31 1.370 . S
N28 C26 1.348 . S
N28 C30 1.346 . S
C29 C26 1.485 . S
C29 H33 0.960 1_565 S
C29 H34 0.961 . S
C29 H35 0.960 . S
C30 N28 1.346 . S
C30 N31 1.307 . S
C30 C32 1.487 . S
N31 N27 1.370 . S
N31 C30 1.307 . S
C32 C30 1.487 . S
C32 H36 0.977 . S
C32 H37 0.946 1_565 S
C32 H38 0.955 1_565 S
H33 C29 0.960 1_545 S
H34 C29 0.961 . S
H35 C29 0.960 . S
H36 C32 0.977 . S
H37 C32 0.946 1_545 S
H38 C32 0.955 1_545 S
C39 N40 1.317 . S
C39 N41 1.348 . S
C39 C42 1.485 . S
N40 C39 1.317 . S
N40 N44 1.370 . S
N41 C39 1.348 . S
N41 C43 1.346 . S
C42 C39 1.485 . S
C42 H46 0.960 . S
C42 H47 0.961 . S
C42 H48 0.960 . S
C43 N41 1.346 . S
C43 N44 1.307 . S
C43 C45 1.486 . S
N44 N40 1.370 . S
N44 C43 1.307 . S
C45 C43 1.486 . S
C45 H49 0.960 . S
C45 H50 0.960 . S
C45 H51 0.959 . S
H46 C42 0.960 . S
H47 C42 0.961 . S
H48 C42 0.960 . S
H49 C45 0.960 . S
H50 C45 0.960 . S
H51 C45 0.959 . S
C52 N53 1.317 . S
C52 N54 1.348 1_556 S
C52 C55 1.485 . S
N53 C52 1.317 . S
N53 N57 1.370 1_556 S
N54 C52 1.348 1_554 S
N54 C56 1.346 . S
C55 C52 1.485 . S
C55 H59 0.960 . S
C55 H60 0.961 . S
C55 H61 0.960 . S
C56 N54 1.346 . S
C56 N57 1.307 . S
C56 C58 1.486 . S
N57 N53 1.370 1_554 S
N57 C56 1.307 . S
C58 C56 1.486 . S
C58 H62 0.960 . S
C58 H63 0.960 . S
C58 H64 0.959 . S
H59 C55 0.960 . S
H60 C55 0.961 . S
H61 C55 0.960 . S
H62 C58 0.960 . S
H63 C58 0.960 . S
H64 C58 0.959 . S
C65 N66 1.317 . S
C65 N67 1.348 1_556 S
C65 C68 1.485 . S
N66 C65 1.317 . S
N66 N70 1.370 1_556 S
N67 C65 1.348 1_554 S
N67 C69 1.346 . S
C68 C65 1.485 . S
C68 H72 0.960 . S
C68 H73 0.961 1_455 S
C68 H74 0.972 . S
C69 N67 1.346 . S
C69 N70 1.307 . S
C69 C71 1.486 . S
N70 N66 1.370 1_554 S
N70 C69 1.307 . S
C71 C69 1.486 . S
C71 H75 0.960 1_455 S
C71 H76 0.960 . S
C71 H77 0.959 . S
H72 C68 0.960 . S
H73 C68 0.961 1_655 S
H74 C68 0.972 . S
H75 C71 0.960 1_655 S
H76 C71 0.960 . S
H77 C71 0.959 . S
C78 N79 1.317 . S
C78 N80 1.348 1_556 S
C78 C81 1.485 . S
N79 C78 1.317 . S
N79 N83 1.370 1_556 S
N80 C78 1.348 1_554 S
N80 C82 1.346 . S
C81 C78 1.485 . S
C81 H85 0.960 . S
C81 H86 0.961 1_545 S
C81 H87 0.953 1_545 S
C82 N80 1.346 . S
C82 N83 1.307 . S
C82 C84 1.486 . S
N83 N79 1.370 1_554 S
N83 C82 1.307 . S
C84 C82 1.486 . S
C84 H88 0.960 1_545 S
C84 H89 0.960 . S
C84 H90 0.959 . S
H85 C81 0.960 . S
H86 C81 0.961 1_565 S
H87 C81 0.953 1_565 S
H88 C84 0.960 1_565 S
H89 C84 0.960 . S
H90 C84 0.959 . S
C91 N92 1.317 . S
C91 N93 1.348 1_556 S
C91 C94 1.485 . S
N92 C91 1.317 . S
N92 N96 1.370 1_556 S
N93 C91 1.348 1_554 S
N93 C95 1.346 . S
C94 C91 1.485 . S
C94 H98 0.960 . S
C94 H99 0.961 . S
C94 H100 0.960 . S
C95 N93 1.346 . S
C95 N96 1.307 . S
C95 C97 1.486 . S
N96 N92 1.370 1_554 S
N96 C95 1.307 . S
C97 C95 1.486 . S
C97 H101 0.960 . S
C97 H102 0.960 . S
C97 H103 0.959 . S
H98 C94 0.960 . S
H99 C94 0.961 . S
H100 C94 0.960 . S
H101 C97 0.960 . S
H102 C97 0.960 . S
H103 C97 0.959 . S
Gd104 C107 2.818 . S
Gd104 O124 2.377 . S
Gd104 O126 2.448 . S
Gd104 O127 2.506 . S
Gd104 O128 2.435 . S
Gd104 O129 2.717 1_565 S
Gd104 O131 2.395 1_565 S
Gd104 O135 2.327 1_455 S
Gd105 C116 2.818 . S
Gd105 O125 2.395 1_545 S
Gd105 O129 2.327 1_655 S
Gd105 O130 2.377 . S
Gd105 O132 2.448 . S
Gd105 O133 2.506 1_655 S
Gd105 O134 2.435 . S
Gd105 O135 2.717 1_545 S
C106 O124 1.240 1_655 S
C106 O125 1.240 . S
C107 Gd104 2.818 . S
C107 C108 1.510 . S
C107 O126 1.249 . S
C107 O127 1.252 . S
C108 C107 1.510 . S
C108 C109 1.404 . S
C108 C110 1.352 . S
C109 C108 1.404 . S
C109 C113 1.389 . S
C109 H136 0.930 . S
C110 C108 1.352 . S
C110 C112 1.374 . S
C110 H137 0.931 1_455 S
C111 C112 1.359 1_554 S
C111 C113 1.364 1_554 S
C112 C110 1.374 . S
C112 C111 1.359 1_556 S
C112 H138 0.931 1_456 S
C113 C109 1.389 . S
C113 C111 1.364 1_556 S
C113 H139 0.931 . S
C114 O128 1.256 1_545 S
C114 O129 1.257 . S
C115 O130 1.240 1_455 S
C115 O131 1.240 . S
C116 Gd105 2.818 . S
C116 C117 1.510 . S
C116 O132 1.249 . S
C116 O133 1.252 1_655 S
C117 C116 1.510 . S
C117 C118 1.404 . S
C117 C119 1.352 1_655 S
C118 C117 1.404 . S
C118 C122 1.389 . S
C118 H140 0.930 . S
C119 C117 1.352 1_455 S
C119 C121 1.378 . S
C119 H141 0.931 . S
C120 C121 1.311 1_655 S
C120 C122 1.364 . S
C121 C119 1.378 . S
C121 C120 1.311 1_455 S
C121 H142 0.976 . S
C122 C118 1.389 . S
C122 C120 1.364 . S
C122 H143 0.931 . S
C123 O134 1.256 . S
C123 O135 1.257 1_545 S
O124 Gd104 2.377 . S
O124 C106 1.240 1_455 S
O125 Gd105 2.395 1_565 S
O125 C106 1.240 . S
O126 Gd104 2.448 . S
O126 C107 1.249 . S
O127 Gd104 2.506 . S
O127 C107 1.252 . S
O128 Gd104 2.435 . S
O128 C114 1.256 1_565 S
O129 Gd104 2.717 1_545 S
O129 Gd105 2.327 1_455 S
O129 C114 1.257 . S
O130 Gd105 2.377 . S
O130 C115 1.240 1_655 S
O131 Gd104 2.395 1_545 S
O131 C115 1.240 . S
O132 Gd105 2.448 . S
O132 C116 1.249 . S
O133 Gd105 2.506 1_455 S
O133 C116 1.252 1_455 S
O134 Gd105 2.435 . S
O134 C123 1.256 . S
O135 Gd104 2.327 1_655 S
O135 Gd105 2.717 1_565 S
O135 C123 1.257 1_565 S
H136 C109 0.930 . S
H137 C110 0.931 1_655 S
H138 C112 0.931 1_654 S
H139 C113 0.931 . S
H140 C118 0.930 . S
H141 C119 0.931 . S
H142 C121 0.976 . S
H143 C122 0.931 . S
Gd144 C147 2.818 . S
Gd144 O164 2.377 . S
Gd144 O166 2.448 . S
Gd144 O167 2.506 . S
Gd144 O168 2.435 . S
Gd144 O169 2.717 . S
Gd144 O171 2.395 . S
Gd144 O175 2.327 1_545 S
Gd145 C156 2.818 . S
Gd145 O165 2.395 . S
Gd145 O169 2.327 1_565 S
Gd145 O170 2.377 . S
Gd145 O172 2.448 . S
Gd145 O173 2.506 1_565 S
Gd145 O174 2.435 . S
Gd145 O175 2.717 . S
C146 O164 1.240 1_565 S
C146 O165 1.240 . S
C147 Gd144 2.818 . S
C147 C148 1.510 . S
C147 O166 1.249 . S
C147 O167 1.252 . S
C148 C147 1.510 . S
C148 C149 1.404 . S
C148 C150 1.352 . S
C149 C148 1.404 . S
C149 C153 1.389 . S
C149 H176 0.930 . S
C150 C148 1.352 . S
C150 C152 1.374 . S
C150 H177 0.931 1_545 S
C151 C152 1.359 1_554 S
C151 C153 1.364 1_554 S
C152 C150 1.374 . S
C152 C151 1.359 1_556 S
C152 H178 0.931 1_546 S
C153 C149 1.389 . S
C153 C151 1.364 1_556 S
C153 H179 0.931 . S
C154 O168 1.256 . S
C154 O169 1.257 . S
C155 O170 1.240 1_545 S
C155 O171 1.240 . S
C156 Gd145 2.818 . S
C156 C157 1.510 . S
C156 O172 1.249 . S
C156 O173 1.252 1_565 S
C157 C156 1.510 . S
C157 C158 1.404 . S
C157 C159 1.352 1_565 S
C158 C157 1.404 . S
C158 C162 1.389 . S
C158 H180 0.930 . S
C159 C157 1.352 1_545 S
C159 C161 1.374 . S
C159 H181 0.931 . S
C160 C161 1.362 1_565 S
C160 C162 1.364 . S
C161 C159 1.374 . S
C161 C160 1.362 1_545 S
C161 H182 0.928 . S
C162 C158 1.389 . S
C162 C160 1.364 . S
C162 H183 0.931 . S
C163 O174 1.256 . S
C163 O175 1.257 . S
O164 Gd144 2.377 . S
O164 C146 1.240 1_545 S
O165 Gd145 2.395 . S
O165 C146 1.240 . S
O166 Gd144 2.448 . S
O166 C147 1.249 . S
O167 Gd144 2.506 . S
O167 C147 1.252 . S
O168 Gd144 2.435 . S
O168 C154 1.256 . S
O169 Gd144 2.717 . S
O169 Gd145 2.327 1_545 S
O169 C154 1.257 . S
O170 Gd145 2.377 . S
O170 C155 1.240 1_565 S
O171 Gd144 2.395 . S
O171 C155 1.240 . S
O172 Gd145 2.448 . S
O172 C156 1.249 . S
O173 Gd145 2.506 1_545 S
O173 C156 1.252 1_545 S
O174 Gd145 2.435 . S
O174 C163 1.256 . S
O175 Gd144 2.327 1_565 S
O175 Gd145 2.717 . S
O175 C163 1.257 . S
H176 C149 0.930 . S
H177 C150 0.931 1_565 S
H178 C152 0.931 1_564 S
H179 C153 0.931 . S
H180 C158 0.930 . S
H181 C159 0.931 . S
H182 C161 0.928 . S
H183 C162 0.931 . S
Gd184 C187 2.818 . S
Gd184 O204 2.377 . S
Gd184 O206 2.448 . S
Gd184 O207 2.506 . S
Gd184 O208 2.435 . S
Gd184 O209 2.717 . S
Gd184 O211 2.395 . S
Gd184 O215 2.327 . S
Gd185 C196 2.818 . S
Gd185 O205 2.395 . S
Gd185 O209 2.327 . S
Gd185 O210 2.377 . S
Gd185 O212 2.448 . S
Gd185 O213 2.506 . S
Gd185 O214 2.435 . S
Gd185 O215 2.717 . S
C186 O204 1.240 . S
C186 O205 1.240 . S
C187 Gd184 2.818 . S
C187 C188 1.510 . S
C187 O206 1.249 . S
C187 O207 1.252 . S
C188 C187 1.510 . S
C188 C189 1.404 . S
C188 C190 1.352 . S
C189 C188 1.404 . S
C189 C193 1.389 . S
C189 H216 0.930 . S
C190 C188 1.352 . S
C190 C192 1.374 . S
C190 H217 0.931 . S
C191 C192 1.359 1_554 S
C191 C193 1.364 1_554 S
C192 C190 1.374 . S
C192 C191 1.359 1_556 S
C192 H218 0.931 1_556 S
C193 C189 1.389 . S
C193 C191 1.364 1_556 S
C193 H219 0.931 . S
C194 O208 1.256 . S
C194 O209 1.257 . S
C195 O210 1.240 . S
C195 O211 1.240 . S
C196 Gd185 2.818 . S
C196 C197 1.510 . S
C196 O212 1.249 . S
C196 O213 1.252 . S
C197 C196 1.510 . S
C197 C198 1.404 . S
C197 C199 1.352 . S
C198 C197 1.404 . S
C198 C202 1.389 . S
C198 H220 0.930 . S
C199 C197 1.352 . S
C199 C201 1.374 . S
C199 H221 0.931 . S
C200 C201 1.359 . S
C200 C202 1.364 . S
C201 C199 1.374 . S
C201 C200 1.359 . S
C201 H222 0.931 . S
C202 C198 1.389 . S
C202 C200 1.364 . S
C202 H223 0.931 . S
C203 O214 1.256 . S
C203 O215 1.257 . S
O204 Gd184 2.377 . S
O204 C186 1.240 . S
O205 Gd185 2.395 . S
O205 C186 1.240 . S
O206 Gd184 2.448 . S
O206 C187 1.249 . S
O207 Gd184 2.506 . S
O207 C187 1.252 . S
O208 Gd184 2.435 . S
O208 C194 1.256 . S
O209 Gd184 2.717 . S
O209 Gd185 2.327 . S
O209 C194 1.257 . S
O210 Gd185 2.377 . S
O210 C195 1.240 . S
O211 Gd184 2.395 . S
O211 C195 1.240 . S
O212 Gd185 2.448 . S
O212 C196 1.249 . S
O213 Gd185 2.506 . S
O213 C196 1.252 . S
O214 Gd185 2.435 . S
O214 C203 1.256 . S
O215 Gd184 2.327 . S
O215 Gd185 2.717 . S
O215 C203 1.257 . S
H216 C189 0.930 . S
H217 C190 0.931 . S
H218 C192 0.931 1_554 S
H219 C193 0.931 . S
H220 C198 0.930 . S
H221 C199 0.931 . S
H222 C201 0.931 . S
H223 C202 0.931 . S
Gd224 C227 2.818 . S
Gd224 O244 2.377 . S
Gd224 O246 2.448 . S
Gd224 O247 2.506 . S
Gd224 O248 2.435 . S
Gd224 O249 2.717 1_655 S
Gd224 O251 2.395 1_655 S
Gd224 O255 2.331 . S
Gd225 C236 2.818 . S
Gd225 O245 2.395 1_455 S
Gd225 O249 2.327 . S
Gd225 O250 2.377 . S
Gd225 O252 2.448 . S
Gd225 O253 2.506 . S
Gd225 O254 2.435 . S
Gd225 O255 2.709 1_455 S
C226 O244 1.240 . S
C226 O245 1.240 . S
C227 Gd224 2.818 . S
C227 C228 1.510 . S
C227 O246 1.249 . S
C227 O247 1.252 . S
C228 C227 1.510 . S
C228 C229 1.404 . S
C228 C230 1.352 . S
C229 C228 1.404 . S
C229 C233 1.389 . S
C229 H256 0.930 . S
C230 C228 1.352 . S
C230 C232 1.374 . S
C230 H257 0.931 . S
C231 C232 1.359 1_554 S
C231 C233 1.364 1_554 S
C232 C230 1.374 . S
C232 C231 1.359 1_556 S
C232 H258 0.931 1_556 S
C233 C229 1.389 . S
C233 C231 1.364 1_556 S
C233 H259 0.931 . S
C234 O248 1.256 1_455 S
C234 O249 1.257 . S
C235 O250 1.240 . S
C235 O251 1.240 . S
C236 Gd225 2.818 . S
C236 C237 1.510 . S
C236 O252 1.249 . S
C236 O253 1.252 . S
C237 C236 1.510 . S
C237 C238 1.404 . S
C237 C239 1.352 . S
C238 C237 1.404 . S
C238 C242 1.389 . S
C238 H260 0.930 . S
C239 C237 1.352 . S
C239 C241 1.374 . S
C239 H261 0.931 . S
C240 C241 1.359 . S
C240 C242 1.364 . S
C241 C239 1.374 . S
C241 C240 1.359 . S
C241 H262 0.931 . S
C242 C238 1.389 . S
C242 C240 1.364 . S
C242 H263 0.931 . S
C243 O254 1.256 . S
C243 O255 1.251 1_455 S
O244 Gd224 2.377 . S
O244 C226 1.240 . S
O245 Gd225 2.395 1_655 S
O245 C226 1.240 . S
O246 Gd224 2.448 . S
O246 C227 1.249 . S
O247 Gd224 2.506 . S
O247 C227 1.252 . S
O248 Gd224 2.435 . S
O248 C234 1.256 1_655 S
O249 Gd224 2.717 1_455 S
O249 Gd225 2.327 . S
O249 C234 1.257 . S
O250 Gd225 2.377 . S
O250 C235 1.240 . S
O251 Gd224 2.395 1_455 S
O251 C235 1.240 . S
O252 Gd225 2.448 . S
O252 C236 1.249 . S
O253 Gd225 2.506 . S
O253 C236 1.252 . S
O254 Gd225 2.435 . S
O254 C243 1.256 . S
O255 Gd224 2.331 . S
O255 Gd225 2.709 1_655 S
O255 C243 1.251 1_655 S
H256 C229 0.930 . S
H257 C230 0.931 . S
H258 C232 0.931 1_554 S
H259 C233 0.931 . S
H260 C238 0.930 . S
H261 C239 0.931 . S
H262 C241 0.931 . S
H263 C242 0.931 . S
H264 C282 0.951 . S
H265 C284 0.951 . S
H266 C286 0.950 . S
H267 C287 0.950 . S
H268 C289 0.950 . S
H269 C292 0.950 . S
H270 C293 0.950 1_556 S
H271 C295 0.950 . S
H272 C296 0.950 . S
H273 C297 0.951 . S
H274 C299 0.951 . S
H275 C301 0.950 . S
H276 C302 0.950 . S
H277 C304 0.953 . S
H278 C307 0.950 . S
H279 C308 0.950 . S
H280 C310 0.950 . S
H281 C311 0.950 . S
C282 H264 0.951 . S
C282 C283 1.366 1_565 S
C282 C284 1.388 . S
C283 C282 1.366 1_545 S
C283 C287 1.385 . S
C284 H265 0.951 . S
C284 C282 1.388 . S
C284 C285 1.366 1_565 S
C285 C284 1.366 1_545 S
C285 C286 1.414 . S
C285 C288 1.499 . S
C286 H266 0.950 . S
C286 C285 1.414 . S
C286 C287 1.374 . S
C287 H267 0.950 . S
C287 C283 1.385 . S
C287 C286 1.374 . S
C288 C285 1.499 . S
C288 C289 1.373 . S
C288 C290 1.389 . S
C289 H268 0.950 . S
C289 C288 1.373 . S
C289 C305 1.377 . S
C290 C288 1.389 . S
C290 C291 1.524 . S
C290 C304 1.377 . S
C291 C290 1.524 . S
C291 C292 1.397 . S
C291 C296 1.363 1_545 S
C292 H269 0.950 . S
C292 C291 1.397 . S
C292 C293 1.334 . S
C293 H270 0.950 1_554 S
C293 C292 1.334 . S
C293 C294 1.287 1_554 S
C294 C293 1.287 1_556 S
C294 C295 1.524 1_546 S
C294 H313 0.913 . S
C295 H271 0.950 . S
C295 C294 1.524 1_564 S
C295 C296 1.415 . S
C296 H272 0.950 . S
C296 C291 1.363 1_565 S
C296 C295 1.415 . S
C297 H273 0.951 . S
C297 C298 1.366 . S
C297 C299 1.388 . S
C298 C297 1.366 . S
C298 C302 1.385 1_545 S
C299 H274 0.951 . S
C299 C297 1.388 . S
C299 C300 1.366 . S
C300 C299 1.366 . S
C300 C301 1.414 1_545 S
C300 C303 1.499 . S
C301 H275 0.950 . S
C301 C300 1.414 1_565 S
C301 C302 1.374 . S
C302 H276 0.950 . S
C302 C298 1.385 1_565 S
C302 C301 1.374 . S
C303 C300 1.499 . S
C303 C304 1.373 . S
C303 C305 1.389 . S
C304 H277 0.953 . S
C304 C290 1.377 . S
C304 C303 1.373 . S
C305 C289 1.377 . S
C305 C303 1.389 . S
C305 C306 1.524 . S
C306 C305 1.524 . S
C306 C307 1.397 1_545 S
C306 C311 1.363 . S
C307 H278 0.950 . S
C307 C306 1.397 1_565 S
C307 C308 1.334 . S
C308 H279 0.950 . S
C308 C307 1.334 . S
C308 C309 1.287 1_565 S
C309 C308 1.287 1_545 S
C309 C310 1.524 . S
C309 H312 0.999 . S
C310 H280 0.950 . S
C310 C309 1.524 . S
C310 C311 1.415 . S
C311 H281 0.950 . S
C311 C306 1.363 . S
C311 C310 1.415 . S
H312 C309 0.999 . S
H313 C294 0.913 . S
H314 C332 0.951 . S
H315 C334 0.951 . S
H316 C336 0.950 . S
H317 C337 0.950 . S
H318 C339 0.950 . S
H319 C342 0.950 . S
H320 C343 0.950 1_556 S
H321 C345 0.950 . S
H322 C346 0.950 . S
H323 C347 0.951 . S
H324 C349 0.951 . S
H325 C351 0.950 . S
H326 C352 0.950 . S
H327 C354 0.950 . S
H328 C357 0.950 . S
H329 C358 0.950 . S
H330 C360 0.950 . S
H331 C361 0.950 . S
C332 H314 0.951 . S
C332 C333 1.366 . S
C332 C334 1.388 . S
C333 C332 1.366 . S
C333 C337 1.385 . S
C334 H315 0.951 . S
C334 C332 1.388 . S
C334 C335 1.366 . S
C335 C334 1.366 . S
C335 C336 1.414 . S
C335 C338 1.499 . S
C336 H316 0.950 . S
C336 C335 1.414 . S
C336 C337 1.374 . S
C337 H317 0.950 . S
C337 C333 1.385 . S
C337 C336 1.374 . S
C338 C335 1.499 . S
C338 C339 1.373 . S
C338 C340 1.389 . S
C339 H318 0.950 . S
C339 C338 1.373 . S
C339 C355 1.377 . S
C340 C338 1.389 . S
C340 C341 1.524 . S
C340 C354 1.377 . S
C341 C340 1.524 . S
C341 C342 1.397 . S
C341 C346 1.363 . S
C342 H319 0.950 . S
C342 C341 1.397 . S
C342 C343 1.334 . S
C343 H320 0.950 1_554 S
C343 C342 1.334 . S
C343 C344 1.287 1_554 S
C344 C343 1.287 1_556 S
C344 C345 1.524 1_556 S
C344 H363 0.913 . S
C345 H321 0.950 . S
C345 C344 1.524 1_554 S
C345 C346 1.415 . S
C346 H322 0.950 . S
C346 C341 1.363 . S
C346 C345 1.415 . S
C347 H323 0.951 . S
C347 C348 1.366 . S
C347 C349 1.388 . S
C348 C347 1.366 . S
C348 C352 1.385 . S
C349 H324 0.951 . S
C349 C347 1.388 . S
C349 C350 1.366 . S
C350 C349 1.366 . S
C350 C351 1.414 . S
C350 C353 1.499 . S
C351 H325 0.950 . S
C351 C350 1.414 . S
C351 C352 1.374 . S
C352 H326 0.950 . S
C352 C348 1.385 . S
C352 C351 1.374 . S
C353 C350 1.499 . S
C353 C354 1.373 . S
C353 C355 1.389 . S
C354 H327 0.950 . S
C354 C340 1.377 . S
C354 C353 1.373 . S
C355 C339 1.377 . S
C355 C353 1.389 . S
C355 C356 1.524 . S
C356 C355 1.524 . S
C356 C357 1.397 . S
C356 C361 1.363 . S
C357 H328 0.950 . S
C357 C356 1.397 . S
C357 C358 1.334 . S
C358 H329 0.950 . S
C358 C357 1.334 . S
C358 C359 1.287 . S
C359 C358 1.287 . S
C359 C360 1.524 . S
C359 H362 0.999 . S
C360 H330 0.950 . S
C360 C359 1.524 . S
C360 C361 1.415 . S
C361 H331 0.950 . S
C361 C356 1.363 . S
C361 C360 1.415 . S
H362 C359 0.999 . S
H363 C344 0.913 . S
H364 C382 0.951 . S
H365 C384 0.951 . S
H366 C386 0.950 . S
H367 C387 0.950 . S
H368 C389 0.950 . S
H369 C392 0.950 . S
H370 C393 0.950 . S
H371 C395 0.950 . S
H372 C396 0.950 . S
H373 C397 0.951 . S
H374 C399 0.951 . S
H375 C401 0.950 . S
H376 C402 0.950 . S
H377 C404 0.950 . S
H378 C407 0.950 . S
H379 C408 0.950 . S
H380 C410 0.950 . S
H381 C411 0.950 . S
C382 H364 0.951 . S
C382 C383 1.366 . S
C382 C384 1.388 . S
C383 C382 1.366 . S
C383 C387 1.385 . S
C384 H365 0.951 . S
C384 C382 1.388 . S
C384 C385 1.366 . S
C385 C384 1.366 . S
C385 C386 1.414 . S
C385 C388 1.499 . S
C386 H366 0.950 . S
C386 C385 1.414 . S
C386 C387 1.374 . S
C387 H367 0.950 . S
C387 C383 1.385 . S
C387 C386 1.374 . S
C388 C385 1.499 . S
C388 C389 1.373 . S
C388 C390 1.389 . S
C389 H368 0.950 . S
C389 C388 1.373 . S
C389 C405 1.377 . S
C390 C388 1.389 . S
C390 C391 1.524 . S
C390 C404 1.377 . S
C391 C390 1.524 . S
C391 C392 1.397 . S
C391 C396 1.363 . S
C392 H369 0.950 . S
C392 C391 1.397 . S
C392 C393 1.334 . S
C393 H370 0.950 . S
C393 C392 1.334 . S
C393 C394 1.287 . S
C394 C393 1.287 . S
C394 C395 1.524 . S
C394 H413 0.913 . S
C395 H371 0.950 . S
C395 C394 1.524 . S
C395 C396 1.415 . S
C396 H372 0.950 . S
C396 C391 1.363 . S
C396 C395 1.415 . S
C397 H373 0.951 . S
C397 C398 1.366 . S
C397 C399 1.388 . S
C398 C397 1.366 . S
C398 C402 1.385 . S
C399 H374 0.951 . S
C399 C397 1.388 . S
C399 C400 1.366 . S
C400 C399 1.366 . S
C400 C401 1.414 . S
C400 C403 1.499 . S
C401 H375 0.950 . S
C401 C400 1.414 . S
C401 C402 1.374 . S
C402 H376 0.950 . S
C402 C398 1.385 . S
C402 C401 1.374 . S
C403 C400 1.499 . S
C403 C404 1.373 . S
C403 C405 1.389 . S
C404 H377 0.950 . S
C404 C390 1.377 . S
C404 C403 1.373 . S
C405 C389 1.377 . S
C405 C403 1.389 . S
C405 C406 1.524 . S
C406 C405 1.524 . S
C406 C407 1.397 . S
C406 C411 1.363 . S
C407 H378 0.950 . S
C407 C406 1.397 . S
C407 C408 1.334 . S
C408 H379 0.950 . S
C408 C407 1.334 . S
C408 C409 1.287 . S
C409 C408 1.287 . S
C409 C410 1.524 . S
C409 H412 0.999 . S
C410 H380 0.950 . S
C410 C409 1.524 . S
C410 C411 1.415 . S
C411 H381 0.950 . S
C411 C406 1.363 . S
C411 C410 1.415 . S
H412 C409 0.999 . S
H413 C394 0.913 . S
H414 C432 0.951 . S
H415 C434 0.951 . S
H416 C436 0.950 . S
H417 C437 0.950 . S
H418 C439 0.950 . S
H419 C442 0.950 . S
H420 C443 0.950 . S
H421 C445 0.950 . S
H422 C446 0.950 . S
H423 C447 0.951 . S
H424 C449 0.951 . S
H425 C451 0.950 . S
H426 C452 0.950 . S
H427 C454 0.950 . S
H428 C457 0.950 . S
H429 C458 0.950 . S
H430 C460 0.950 . S
H431 C461 0.950 . S
C432 H414 0.951 . S
C432 C433 1.366 1_655 S
C432 C434 1.388 . S
C433 C432 1.366 1_455 S
C433 C437 1.385 . S
C434 H415 0.951 . S
C434 C432 1.388 . S
C434 C435 1.366 1_655 S
C435 C434 1.366 1_455 S
C435 C436 1.414 . S
C435 C438 1.499 . S
C436 H416 0.950 . S
C436 C435 1.414 . S
C436 C437 1.374 . S
C437 H417 0.950 . S
C437 C433 1.385 . S
C437 C436 1.374 . S
C438 C435 1.499 . S
C438 C439 1.373 . S
C438 C440 1.389 1_455 S
C439 H418 0.950 . S
C439 C438 1.373 . S
C439 C455 1.377 . S
C440 C438 1.389 1_655 S
C440 C441 1.524 . S
C440 C454 1.377 . S
C441 C440 1.524 . S
C441 C442 1.397 . S
C441 C446 1.363 . S
C442 H419 0.950 . S
C442 C441 1.397 . S
C442 C443 1.334 . S
C443 H420 0.950 . S
C443 C442 1.334 . S
C443 C444 1.287 . S
C444 C443 1.287 . S
C444 C445 1.524 . S
C444 H463 0.913 . S
C445 H421 0.950 . S
C445 C444 1.524 . S
C445 C446 1.415 . S
C446 H422 0.950 . S
C446 C441 1.363 . S
C446 C445 1.415 . S
C447 H423 0.951 . S
C447 C448 1.366 . S
C447 C449 1.388 . S
C448 C447 1.366 . S
C448 C452 1.385 1_455 S
C449 H424 0.951 . S
C449 C447 1.388 . S
C449 C450 1.366 . S
C450 C449 1.366 . S
C450 C451 1.414 1_455 S
C450 C453 1.499 . S
C451 H425 0.950 . S
C451 C450 1.414 1_655 S
C451 C452 1.374 . S
C452 H426 0.950 . S
C452 C448 1.385 1_655 S
C452 C451 1.374 . S
C453 C450 1.499 . S
C453 C454 1.373 1_455 S
C453 C455 1.389 . S
C454 H427 0.950 . S
C454 C440 1.377 . S
C454 C453 1.373 1_655 S
C455 C439 1.377 . S
C455 C453 1.389 . S
C455 C456 1.524 . S
C456 C455 1.524 . S
C456 C457 1.397 . S
C456 C461 1.363 . S
C457 H428 0.950 . S
C457 C456 1.397 . S
C457 C458 1.334 . S
C458 H429 0.950 . S
C458 C457 1.334 . S
C458 C459 1.287 . S
C459 C458 1.287 . S
C459 C460 1.524 . S
C459 H462 0.999 . S
C460 H430 0.950 . S
C460 C459 1.524 . S
C460 C461 1.415 . S
C461 H431 0.950 . S
C461 C456 1.363 . S
C461 C460 1.415 . S
H462 C459 0.999 . S
H463 C444 0.913 . S
H464 C482 0.951 . S
H465 C484 0.951 . S
H466 C486 0.950 . S
H467 C487 0.950 . S
H468 C489 0.950 . S
H469 C492 0.950 . S
H470 C493 0.950 . S
H471 C495 0.950 . S
H472 C496 0.950 . S
H473 C497 0.951 . S
H474 C499 0.951 1_554 S
H475 C501 0.950 . S
H476 C502 0.950 . S
H477 C504 0.950 . S
H478 C507 0.950 . S
H479 C508 0.950 . S
H480 C510 0.950 . S
H481 C511 0.950 . S
C482 H464 0.951 . S
C482 C483 1.396 . S
C482 C484 1.388 . S
C483 C482 1.396 . S
C483 C487 1.356 1_565 S
C484 H465 0.951 . S
C484 C482 1.388 . S
C484 C485 1.366 . S
C485 C484 1.366 . S
C485 C486 1.414 1_565 S
C485 C488 1.500 . S
C486 H466 0.950 . S
C486 C485 1.414 1_545 S
C486 C487 1.374 . S
C487 H467 0.950 . S
C487 C483 1.356 1_545 S
C487 C486 1.374 . S
C488 C485 1.500 . S
C488 C489 1.337 1_565 S
C488 C490 1.424 . S
C489 H468 0.950 . S
C489 C488 1.337 1_545 S
C489 C505 1.377 . S
C490 C488 1.424 . S
C490 C491 1.524 . S
C490 C504 1.377 . S
C491 C490 1.524 . S
C491 C492 1.397 . S
C491 C496 1.363 . S
C492 H469 0.950 . S
C492 C491 1.397 . S
C492 C493 1.334 . S
C493 H470 0.950 . S
C493 C492 1.334 . S
C493 C494 1.287 . S
C494 C493 1.287 . S
C494 C495 1.524 . S
C494 H513 0.913 . S
C495 H471 0.950 . S
C495 C494 1.524 . S
C495 C496 1.415 . S
C496 H472 0.950 . S
C496 C491 1.363 . S
C496 C495 1.415 . S
C497 H473 0.951 . S
C497 C498 1.366 . S
C497 C499 1.388 . S
C498 C497 1.366 . S
C498 C502 1.385 1_545 S
C499 H474 0.951 1_556 S
C499 C497 1.388 . S
C499 C500 1.366 . S
C500 C499 1.366 . S
C500 C501 1.414 1_545 S
C500 C503 1.501 1_556 S
C501 H475 0.950 . S
C501 C500 1.414 1_565 S
C501 C502 1.374 . S
C502 H476 0.950 . S
C502 C498 1.385 1_565 S
C502 C501 1.374 . S
C503 C500 1.501 1_554 S
C503 C504 1.329 1_545 S
C503 C505 1.432 . S
C504 H477 0.950 . S
C504 C490 1.377 . S
C504 C503 1.329 1_565 S
C505 C489 1.377 . S
C505 C503 1.432 . S
C505 C506 1.524 . S
C506 C505 1.524 . S
C506 C507 1.397 1_554 S
C506 C511 1.363 . S
C507 H478 0.950 . S
C507 C506 1.397 1_556 S
C507 C508 1.334 . S
C508 H479 0.950 . S
C508 C507 1.334 . S
C508 C509 1.287 . S
C509 C508 1.287 . S
C509 C510 1.524 1_556 S
C509 H512 0.999 . S
C510 H480 0.950 . S
C510 C509 1.524 1_554 S
C510 C511 1.415 . S
C511 H481 0.950 . S
C511 C506 1.363 . S
C511 C510 1.415 . S
H512 C509 0.999 . S
H513 C494 0.913 . S
H514 C532 0.951 . S
H515 C534 0.951 . S
H516 C536 0.950 . S
H517 C537 0.950 . S
H518 C539 0.950 . S
H519 C542 0.950 . S
H520 C543 0.950 . S
H521 C545 0.950 . S
H522 C546 0.950 . S
H523 C547 0.951 . S
H524 C549 0.951 . S
H525 C551 0.950 1_554 S
H526 C552 0.950 . S
H527 C554 0.950 . S
H528 C557 0.950 . S
H529 C558 0.950 . S
H530 C560 0.950 . S
H531 C561 0.950 . S
C532 H514 0.951 . S
C532 C533 1.366 . S
C532 C534 1.388 . S
C533 C532 1.366 . S
C533 C537 1.385 . S
C534 H515 0.951 . S
C534 C532 1.388 . S
C534 C535 1.366 . S
C535 C534 1.366 . S
C535 C536 1.414 . S
C535 C538 1.499 . S
C536 H516 0.950 . S
C536 C535 1.414 . S
C536 C537 1.374 . S
C537 H517 0.950 . S
C537 C533 1.385 . S
C537 C536 1.374 . S
C538 C535 1.499 . S
C538 C539 1.373 . S
C538 C540 1.389 . S
C539 H518 0.950 . S
C539 C538 1.373 . S
C539 C555 1.377 . S
C540 C538 1.389 . S
C540 C541 1.524 . S
C540 C554 1.377 . S
C541 C540 1.524 . S
C541 C542 1.397 . S
C541 C546 1.363 . S
C542 H519 0.950 . S
C542 C541 1.397 . S
C542 C543 1.334 . S
C543 H520 0.950 . S
C543 C542 1.334 . S
C543 C544 1.287 . S
C544 C543 1.287 . S
C544 C545 1.524 . S
C544 H563 0.913 . S
C545 H521 0.950 . S
C545 C544 1.524 . S
C545 C546 1.415 . S
C546 H522 0.950 . S
C546 C541 1.363 . S
C546 C545 1.415 . S
C547 H523 0.951 . S
C547 C548 1.366 . S
C547 C549 1.388 . S
C548 C547 1.366 . S
C548 C552 1.385 . S
C549 H524 0.951 . S
C549 C547 1.388 . S
C549 C550 1.366 . S
C550 C549 1.366 . S
C550 C551 1.414 . S
C550 C553 1.499 1_556 S
C551 H525 0.950 1_556 S
C551 C550 1.414 . S
C551 C552 1.374 . S
C552 H526 0.950 . S
C552 C548 1.385 . S
C552 C551 1.374 . S
C553 C550 1.499 1_554 S
C553 C554 1.373 . S
C553 C555 1.389 . S
C554 H527 0.950 . S
C554 C540 1.377 . S
C554 C553 1.373 . S
C555 C539 1.377 . S
C555 C553 1.389 . S
C555 C556 1.524 1_554 S
C556 C555 1.524 1_556 S
C556 C557 1.397 . S
C556 C561 1.363 . S
C557 H528 0.950 . S
C557 C556 1.397 . S
C557 C558 1.334 . S
C558 H529 0.950 . S
C558 C557 1.334 . S
C558 C559 1.287 . S
C559 C558 1.287 . S
C559 C560 1.524 . S
C559 H562 0.999 . S
C560 H530 0.950 . S
C560 C559 1.524 . S
C560 C561 1.415 . S
C561 H531 0.950 . S
C561 C556 1.363 . S
C561 C560 1.415 . S
H562 C559 0.999 . S
H563 C544 0.913 . S
H564 C582 0.951 . S
H565 C584 0.951 . S
H566 C586 0.950 . S
H567 C587 0.950 . S
H568 C589 0.950 . S
H569 C592 0.950 . S
H570 C593 0.950 . S
H571 C595 0.950 . S
H572 C596 0.950 . S
H573 C597 0.951 . S
H574 C599 0.951 . S
H575 C601 0.950 1_554 S
H576 C602 0.950 . S
H577 C604 0.950 . S
H578 C607 0.950 . S
H579 C608 0.950 . S
H580 C610 0.950 . S
H581 C611 0.950 . S
C582 H564 0.951 . S
C582 C583 1.366 . S
C582 C584 1.388 . S
C583 C582 1.366 . S
C583 C587 1.385 . S
C584 H565 0.951 . S
C584 C582 1.388 . S
C584 C585 1.366 . S
C585 C584 1.366 . S
C585 C586 1.414 . S
C585 C588 1.499 . S
C586 H566 0.950 . S
C586 C585 1.414 . S
C586 C587 1.374 . S
C587 H567 0.950 . S
C587 C583 1.385 . S
C587 C586 1.374 . S
C588 C585 1.499 . S
C588 C589 1.373 . S
C588 C590 1.389 . S
C589 H568 0.950 . S
C589 C588 1.373 . S
C589 C605 1.377 . S
C590 C588 1.389 . S
C590 C591 1.524 . S
C590 C604 1.377 . S
C591 C590 1.524 . S
C591 C592 1.397 . S
C591 C596 1.363 . S
C592 H569 0.950 . S
C592 C591 1.397 . S
C592 C593 1.334 . S
C593 H570 0.950 . S
C593 C592 1.334 . S
C593 C594 1.287 . S
C594 C593 1.287 . S
C594 C595 1.524 . S
C594 H613 0.913 . S
C595 H571 0.950 . S
C595 C594 1.524 . S
C595 C596 1.415 . S
C596 H572 0.950 . S
C596 C591 1.363 . S
C596 C595 1.415 . S
C597 H573 0.951 . S
C597 C598 1.366 . S
C597 C599 1.388 . S
C598 C597 1.366 . S
C598 C602 1.385 . S
C599 H574 0.951 . S
C599 C597 1.388 . S
C599 C600 1.366 . S
C600 C599 1.366 . S
C600 C601 1.414 . S
C600 C603 1.499 1_556 S
C601 H575 0.950 1_556 S
C601 C600 1.414 . S
C601 C602 1.374 . S
C602 H576 0.950 . S
C602 C598 1.385 . S
C602 C601 1.374 . S
C603 C600 1.499 1_554 S
C603 C604 1.373 . S
C603 C605 1.389 . S
C604 H577 0.950 . S
C604 C590 1.377 . S
C604 C603 1.373 . S
C605 C589 1.377 . S
C605 C603 1.389 . S
C605 C606 1.524 1_554 S
C606 C605 1.524 1_556 S
C606 C607 1.397 . S
C606 C611 1.363 . S
C607 H578 0.950 . S
C607 C606 1.397 . S
C607 C608 1.334 . S
C608 H579 0.950 . S
C608 C607 1.334 . S
C608 C609 1.287 . S
C609 C608 1.287 . S
C609 C610 1.524 . S
C609 H612 0.999 . S
C610 H580 0.950 . S
C610 C609 1.524 . S
C610 C611 1.415 . S
C611 H581 0.950 . S
C611 C606 1.363 . S
C611 C610 1.415 . S
H612 C609 0.999 . S
H613 C594 0.913 . S
H614 C632 0.951 . S
H615 C634 0.951 . S
H616 C636 0.950 . S
H617 C637 0.950 . S
H618 C639 0.950 . S
H619 C642 0.950 . S
H620 C643 0.950 . S
H621 C645 0.950 . S
H622 C646 0.950 . S
H623 C647 0.951 . S
H624 C649 0.951 . S
H625 C651 0.950 1_554 S
H626 C652 0.950 . S
H627 C654 0.950 . S
H628 C657 0.950 . S
H629 C658 0.950 . S
H630 C660 0.950 . S
H631 C661 0.956 . S
C632 H614 0.951 . S
C632 C633 1.370 . S
C632 C634 1.388 . S
C633 C632 1.370 . S
C633 C637 1.380 1_655 S
C634 H615 0.951 . S
C634 C632 1.388 . S
C634 C635 1.366 1_655 S
C635 C634 1.366 1_455 S
C635 C636 1.414 . S
C635 C638 1.499 . S
C636 H616 0.950 . S
C636 C635 1.414 . S
C636 C637 1.374 . S
C637 H617 0.950 . S
C637 C633 1.380 1_455 S
C637 C636 1.374 . S
C638 C635 1.499 . S
C638 C639 1.373 1_455 S
C638 C640 1.389 . S
C639 H618 0.950 . S
C639 C638 1.373 1_655 S
C639 C655 1.377 . S
C640 C638 1.389 . S
C640 C641 1.524 . S
C640 C654 1.377 . S
C641 C640 1.524 . S
C641 C642 1.397 . S
C641 C646 1.363 . S
C642 H619 0.950 . S
C642 C641 1.397 . S
C642 C643 1.334 . S
C643 H620 0.950 . S
C643 C642 1.334 . S
C643 C644 1.287 . S
C644 C643 1.287 . S
C644 C645 1.524 . S
C644 H663 0.913 . S
C645 H621 0.950 . S
C645 C644 1.524 . S
C645 C646 1.415 . S
C646 H622 0.950 . S
C646 C641 1.363 . S
C646 C645 1.415 . S
C647 H623 0.951 . S
C647 C648 1.366 . S
C647 C649 1.388 . S
C648 C647 1.366 . S
C648 C652 1.385 1_455 S
C649 H624 0.951 . S
C649 C647 1.388 . S
C649 C650 1.374 . S
C650 C649 1.374 . S
C650 C651 1.407 1_455 S
C650 C653 1.498 1_456 S
C651 H625 0.950 1_556 S
C651 C650 1.407 1_655 S
C651 C652 1.374 . S
C652 H626 0.950 . S
C652 C648 1.385 1_655 S
C652 C651 1.374 . S
C653 C650 1.498 1_654 S
C653 C654 1.370 1_655 S
C653 C655 1.392 . S
C654 H627 0.950 . S
C654 C640 1.377 . S
C654 C653 1.370 1_455 S
C655 C639 1.377 . S
C655 C653 1.392 . S
C655 C656 1.524 1_554 S
C656 C655 1.524 1_556 S
C656 C657 1.397 . S
C656 C661 1.363 . S
C657 H628 0.950 . S
C657 C656 1.397 . S
C657 C658 1.334 . S
C658 H629 0.950 . S
C658 C657 1.334 . S
C658 C659 1.287 . S
C659 C658 1.287 . S
C659 C660 1.524 . S
C659 H662 0.999 . S
C660 H630 0.950 . S
C660 C659 1.524 . S
C660 C661 1.415 . S
C661 H631 0.956 . S
C661 C656 1.363 . S
C661 C660 1.415 . S
H662 C659 0.999 . S
H663 C644 0.913 . S
H664 C682 0.955 1_556 S
H665 C684 0.951 . S
H666 C686 0.950 . S
H667 C687 0.950 . S
H668 C689 0.950 . S
H669 C692 0.950 . S
H670 C693 0.950 . S
H671 C695 0.950 . S
H672 C696 0.950 . S
H673 C697 0.951 . S
H674 C699 0.925 1_455 S
H675 C701 0.950 . S
H676 C702 0.950 . S
H677 C704 0.950 . S
H678 C707 0.950 . S
H679 C708 0.950 . S
H680 C710 0.950 . S
H681 C711 0.950 . S
C682 H664 0.955 1_554 S
C682 C683 1.360 1_655 S
C682 C684 1.390 . S
C683 C682 1.360 1_455 S
C683 C687 1.385 . S
C684 H665 0.951 . S
C684 C682 1.390 . S
C684 C685 1.366 1_655 S
C685 C684 1.366 1_455 S
C685 C686 1.414 . S
C685 C688 1.499 1_455 S
C686 H666 0.950 . S
C686 C685 1.414 . S
C686 C687 1.374 . S
C687 H667 0.950 . S
C687 C683 1.385 . S
C687 C686 1.374 . S
C688 C685 1.499 1_655 S
C688 C689 1.373 1_655 S
C688 C690 1.389 . S
C689 H668 0.950 . S
C689 C688 1.373 1_455 S
C689 C705 1.377 . S
C690 C688 1.389 . S
C690 C691 1.524 . S
C690 C704 1.377 . S
C691 C690 1.524 . S
C691 C692 1.397 . S
C691 C696 1.363 . S
C692 H669 0.950 . S
C692 C691 1.397 . S
C692 C693 1.334 . S
C693 H670 0.950 . S
C693 C692 1.334 . S
C693 C694 1.287 . S
C694 C693 1.287 . S
C694 C695 1.524 . S
C694 H713 0.913 . S
C695 H671 0.950 . S
C695 C694 1.524 . S
C695 C696 1.415 . S
C696 H672 0.950 . S
C696 C691 1.363 . S
C696 C695 1.415 . S
C697 H673 0.951 . S
C697 C698 1.366 . S
C697 C699 1.388 . S
C698 C697 1.366 . S
C698 C702 1.385 . S
C699 H674 0.925 1_655 S
C699 C697 1.388 . S
C699 C700 1.366 . S
C700 C699 1.366 . S
C700 C701 1.414 . S
C700 C703 1.499 . S
C701 H675 0.950 . S
C701 C700 1.414 . S
C701 C702 1.374 . S
C702 H676 0.950 . S
C702 C698 1.385 . S
C702 C701 1.374 . S
C703 C700 1.499 . S
C703 C704 1.373 . S
C703 C705 1.389 1_655 S
C704 H677 0.950 . S
C704 C690 1.377 . S
C704 C703 1.373 . S
C705 C689 1.377 . S
C705 C703 1.389 1_455 S
C705 C706 1.524 . S
C706 C705 1.524 . S
C706 C707 1.397 . S
C706 C711 1.363 . S
C707 H678 0.950 . S
C707 C706 1.397 . S
C707 C708 1.334 . S
C708 H679 0.950 . S
C708 C707 1.334 . S
C708 C709 1.287 . S
C709 C708 1.287 . S
C709 C710 1.524 . S
C709 H712 0.999 . S
C710 H680 0.950 . S
C710 C709 1.524 . S
C710 C711 1.415 . S
C711 H681 0.950 . S
C711 C706 1.363 . S
C711 C710 1.415 . S
H712 C709 0.999 . S
H713 C694 0.913 . S
H714 C732 0.951 . S
H715 C734 0.951 . S
H716 C736 0.950 . S
H717 C737 0.950 . S
H718 C739 0.950 . S
H719 C742 0.949 . S
H720 C743 0.950 . S
H721 C745 0.950 . S
H722 C746 0.950 . S
H723 C747 0.951 . S
H724 C749 0.951 . S
H725 C751 0.921 1_545 S
H726 C752 0.950 1_545 S
H727 C754 0.950 . S
H728 C757 0.972 . S
H729 C758 0.945 1_545 S
H730 C760 0.950 . S
H731 C761 0.950 . S
C732 H714 0.951 . S
C732 C733 1.366 . S
C732 C734 1.388 . S
C733 C732 1.366 . S
C733 C737 1.385 1_545 S
C734 H715 0.951 . S
C734 C732 1.388 . S
C734 C735 1.366 . S
C735 C734 1.366 . S
C735 C736 1.414 1_545 S
C735 C738 1.499 1_545 S
C736 H716 0.950 . S
C736 C735 1.414 1_565 S
C736 C737 1.374 . S
C737 H717 0.950 . S
C737 C733 1.385 1_565 S
C737 C736 1.374 . S
C738 C735 1.499 1_565 S
C738 C739 1.373 . S
C738 C740 1.389 . S
C739 H718 0.950 . S
C739 C738 1.373 . S
C739 C755 1.377 . S
C740 C738 1.389 . S
C740 C741 1.522 1_565 S
C740 C754 1.377 . S
C741 C740 1.522 1_545 S
C741 C742 1.381 1_545 S
C741 C746 1.378 . S
C742 H719 0.949 . S
C742 C741 1.381 1_565 S
C742 C743 1.335 1_554 S
C743 H720 0.950 . S
C743 C742 1.335 1_556 S
C743 C744 1.272 1_565 S
C744 C743 1.272 1_545 S
C744 C745 1.540 . S
C744 H763 0.915 . S
C745 H721 0.950 . S
C745 C744 1.540 . S
C745 C746 1.415 1_556 S
C746 H722 0.950 . S
C746 C741 1.378 . S
C746 C745 1.415 1_554 S
C747 H723 0.951 . S
C747 C748 1.366 . S
C747 C749 1.388 . S
C748 C747 1.366 . S
C748 C752 1.385 . S
C749 H724 0.951 . S
C749 C747 1.388 . S
C749 C750 1.366 . S
C750 C749 1.366 . S
C750 C751 1.437 . S
C750 C753 1.499 . S
C751 H725 0.921 1_565 S
C751 C750 1.437 . S
C751 C752 1.381 . S
C752 H726 0.950 1_565 S
C752 C748 1.385 . S
C752 C751 1.381 . S
C753 C750 1.499 . S
C753 C754 1.373 . S
C753 C755 1.389 . S
C754 H727 0.950 . S
C754 C740 1.377 . S
C754 C753 1.373 . S
C755 C739 1.377 . S
C755 C753 1.389 . S
C755 C756 1.524 . S
C756 C755 1.524 . S
C756 C757 1.376 1_565 S
C756 C761 1.363 . S
C757 H728 0.972 . S
C757 C756 1.376 1_545 S
C757 C758 1.333 1_545 S
C758 H729 0.945 1_565 S
C758 C757 1.333 1_565 S
C758 C759 1.292 . S
C759 C758 1.292 . S
C759 C760 1.524 . S
C759 H762 0.999 . S
C760 H730 0.950 . S
C760 C759 1.524 . S
C760 C761 1.415 . S
C761 H731 0.950 . S
C761 C756 1.363 . S
C761 C760 1.415 . S
H762 C759 0.999 . S
H763 C744 0.915 . S
H764 C782 0.951 1_556 S
H765 C784 0.951 . S
H766 C786 0.950 . S
H767 C787 0.950 . S
H768 C789 0.950 . S
H769 C792 0.950 . S
H770 C793 0.950 . S
H771 C795 0.950 . S
H772 C796 0.950 . S
H773 C797 0.951 . S
H774 C799 0.951 . S
H775 C801 0.950 . S
H776 C802 0.950 . S
H777 C804 0.950 . S
H778 C807 0.950 . S
H779 C808 0.950 . S
H780 C810 0.950 . S
H781 C811 0.950 . S
C782 H764 0.951 1_554 S
C782 C783 1.366 . S
C782 C784 1.388 . S
C783 C782 1.366 . S
C783 C787 1.385 . S
C784 H765 0.951 . S
C784 C782 1.388 . S
C784 C785 1.366 . S
C785 C784 1.366 . S
C785 C786 1.414 . S
C785 C788 1.499 . S
C786 H766 0.950 . S
C786 C785 1.414 . S
C786 C787 1.374 . S
C787 H767 0.950 . S
C787 C783 1.385 . S
C787 C786 1.374 . S
C788 C785 1.499 . S
C788 C789 1.373 . S
C788 C790 1.389 . S
C789 H768 0.950 . S
C789 C788 1.373 . S
C789 C805 1.377 . S
C790 C788 1.389 . S
C790 C791 1.524 . S
C790 C804 1.377 . S
C791 C790 1.524 . S
C791 C792 1.397 . S
C791 C796 1.363 . S
C792 H769 0.950 . S
C792 C791 1.397 . S
C792 C793 1.334 1_554 S
C793 H770 0.950 . S
C793 C792 1.334 1_556 S
C793 C794 1.287 . S
C794 C793 1.287 . S
C794 C795 1.524 . S
C794 H813 0.913 . S
C795 H771 0.950 . S
C795 C794 1.524 . S
C795 C796 1.415 1_556 S
C796 H772 0.950 . S
C796 C791 1.363 . S
C796 C795 1.415 1_554 S
C797 H773 0.951 . S
C797 C798 1.366 . S
C797 C799 1.388 . S
C798 C797 1.366 . S
C798 C802 1.385 . S
C799 H774 0.951 . S
C799 C797 1.388 . S
C799 C800 1.366 . S
C800 C799 1.366 . S
C800 C801 1.414 . S
C800 C803 1.499 . S
C801 H775 0.950 . S
C801 C800 1.414 . S
C801 C802 1.374 . S
C802 H776 0.950 . S
C802 C798 1.385 . S
C802 C801 1.374 . S
C803 C800 1.499 . S
C803 C804 1.373 . S
C803 C805 1.389 . S
C804 H777 0.950 . S
C804 C790 1.377 . S
C804 C803 1.373 . S
C805 C789 1.377 . S
C805 C803 1.389 . S
C805 C806 1.524 . S
C806 C805 1.524 . S
C806 C807 1.397 . S
C806 C811 1.363 . S
C807 H778 0.950 . S
C807 C806 1.397 . S
C807 C808 1.334 . S
C808 H779 0.950 . S
C808 C807 1.334 . S
C808 C809 1.287 . S
C809 C808 1.287 . S
C809 C810 1.524 . S
C809 H812 0.999 . S
C810 H780 0.950 . S
C810 C809 1.524 . S
C810 C811 1.415 . S
C811 H781 0.950 . S
C811 C806 1.363 . S
C811 C810 1.415 . S
H812 C809 0.999 . S
H813 C794 0.913 . S
H814 C832 0.951 . S
H815 C834 0.951 . S
H816 C836 0.950 . S
H817 C837 0.950 . S
H818 C839 0.950 . S
H819 C842 0.950 . S
H820 C843 0.950 . S
H821 C845 0.950 . S
H822 C846 0.950 . S
H823 C847 0.951 . S
H824 C849 0.951 . S
H825 C851 0.950 . S
H826 C852 0.950 . S
H827 C854 0.950 . S
H828 C857 0.950 . S
H829 C858 0.950 . S
H830 C860 0.950 . S
H831 C861 0.950 . S
C832 H814 0.951 . S
C832 C833 1.366 . S
C832 C834 1.388 . S
C833 C832 1.366 . S
C833 C837 1.385 . S
C834 H815 0.951 . S
C834 C832 1.388 . S
C834 C835 1.366 . S
C835 C834 1.366 . S
C835 C836 1.414 . S
C835 C838 1.499 . S
C836 H816 0.950 . S
C836 C835 1.414 . S
C836 C837 1.374 . S
C837 H817 0.950 . S
C837 C833 1.385 . S
C837 C836 1.374 . S
C838 C835 1.499 . S
C838 C839 1.373 . S
C838 C840 1.389 . S
C839 H818 0.950 . S
C839 C838 1.373 . S
C839 C855 1.377 . S
C840 C838 1.389 . S
C840 C841 1.524 . S
C840 C854 1.377 . S
C841 C840 1.524 . S
C841 C842 1.397 . S
C841 C846 1.363 . S
C842 H819 0.950 . S
C842 C841 1.397 . S
C842 C843 1.334 . S
C843 H820 0.950 . S
C843 C842 1.334 . S
C843 C844 1.287 . S
C844 C843 1.287 . S
C844 C845 1.524 . S
C844 H863 0.913 . S
C845 H821 0.950 . S
C845 C844 1.524 . S
C845 C846 1.415 . S
C846 H822 0.950 . S
C846 C841 1.363 . S
C846 C845 1.415 . S
C847 H823 0.951 . S
C847 C848 1.366 . S
C847 C849 1.388 . S
C848 C847 1.366 . S
C848 C852 1.385 . S
C849 H824 0.951 . S
C849 C847 1.388 . S
C849 C850 1.366 . S
C850 C849 1.366 . S
C850 C851 1.414 . S
C850 C853 1.499 . S
C851 H825 0.950 . S
C851 C850 1.414 . S
C851 C852 1.374 . S
C852 H826 0.950 . S
C852 C848 1.385 . S
C852 C851 1.374 . S
C853 C850 1.499 . S
C853 C854 1.373 . S
C853 C855 1.389 . S
C854 H827 0.950 . S
C854 C840 1.377 . S
C854 C853 1.373 . S
C855 C839 1.377 . S
C855 C853 1.389 . S
C855 C856 1.524 . S
C856 C855 1.524 . S
C856 C857 1.397 . S
C856 C861 1.363 . S
C857 H828 0.950 . S
C857 C856 1.397 . S
C857 C858 1.334 . S
C858 H829 0.950 . S
C858 C857 1.334 . S
C858 C859 1.287 . S
C859 C858 1.287 . S
C859 C860 1.524 . S
C859 H862 0.999 . S
C860 H830 0.950 . S
C860 C859 1.524 . S
C860 C861 1.415 . S
C861 H831 0.950 . S
C861 C856 1.363 . S
C861 C860 1.415 . S
H862 C859 0.999 . S
H863 C844 0.913 . S
H864 C882 0.951 . S
H865 C884 0.951 . S
H866 C886 0.950 . S
H867 C887 0.950 . S
H868 C889 0.950 . S
H869 C892 0.950 1_455 S
H870 C893 0.950 . S
H871 C895 0.950 . S
H872 C896 0.950 . S
H873 C897 0.951 . S
H874 C899 0.951 . S
H875 C901 0.950 1_655 S
H876 C902 0.950 1_655 S
H877 C904 0.950 1_655 S
H878 C907 0.950 . S
H879 C908 0.950 . S
H880 C910 0.950 . S
H881 C911 0.950 . S
C882 H864 0.951 . S
C882 C883 1.366 . S
C882 C884 1.388 . S
C883 C882 1.366 . S
C883 C887 1.385 1_655 S
C884 H865 0.951 . S
C884 C882 1.388 . S
C884 C885 1.366 1_655 S
C885 C884 1.366 1_455 S
C885 C886 1.414 . S
C885 C888 1.499 . S
C886 H866 0.950 . S
C886 C885 1.414 . S
C886 C887 1.374 . S
C887 H867 0.950 . S
C887 C883 1.385 1_455 S
C887 C886 1.374 . S
C888 C885 1.499 . S
C888 C889 1.373 . S
C888 C890 1.398 . S
C889 H868 0.950 . S
C889 C888 1.373 . S
C889 C905 1.377 . S
C890 C888 1.398 . S
C890 C891 1.514 1_455 S
C890 C904 1.379 . S
C891 C890 1.514 1_655 S
C891 C892 1.397 . S
C891 C896 1.363 . S
C892 H869 0.950 1_655 S
C892 C891 1.397 . S
C892 C893 1.334 . S
C893 H870 0.950 . S
C893 C892 1.334 . S
C893 C894 1.287 . S
C894 C893 1.287 . S
C894 C895 1.524 . S
C894 H913 0.913 1_554 S
C895 H871 0.950 . S
C895 C894 1.524 . S
C895 C896 1.415 . S
C896 H872 0.950 . S
C896 C891 1.363 . S
C896 C895 1.415 . S
C897 H873 0.951 . S
C897 C898 1.366 . S
C897 C899 1.388 . S
C898 C897 1.366 . S
C898 C902 1.385 . S
C899 H874 0.951 . S
C899 C897 1.388 . S
C899 C900 1.366 . S
C900 C899 1.366 . S
C900 C901 1.414 . S
C900 C903 1.499 . S
C901 H875 0.950 1_455 S
C901 C900 1.414 . S
C901 C902 1.374 . S
C902 H876 0.950 1_455 S
C902 C898 1.385 . S
C902 C901 1.374 . S
C903 C900 1.499 . S
C903 C904 1.373 . S
C903 C905 1.389 . S
C904 H877 0.950 1_455 S
C904 C890 1.379 . S
C904 C903 1.373 . S
C905 C889 1.377 . S
C905 C903 1.389 . S
C905 C906 1.524 . S
C906 C905 1.524 . S
C906 C907 1.397 . S
C906 C911 1.363 . S
C907 H878 0.950 . S
C907 C906 1.397 . S
C907 C908 1.334 . S
C908 H879 0.950 . S
C908 C907 1.334 . S
C908 C909 1.287 . S
C909 C908 1.287 . S
C909 C910 1.524 . S
C909 H912 0.999 . S
C910 H880 0.950 . S
C910 C909 1.524 . S
C910 C911 1.415 . S
C911 H881 0.950 . S
C911 C906 1.363 . S
C911 C910 1.415 . S
H912 C909 0.999 . S
H913 C894 0.913 1_556 S
H914 C932 0.951 . S
H915 C934 0.951 . S
H916 C936 0.950 . S
H917 C937 0.950 . S
H918 C939 0.950 . S
H919 C942 0.950 . S
H920 C943 0.950 1_545 S
H921 C945 0.950 . S
H922 C946 0.950 . S
H923 C947 0.951 . S
H924 C949 0.951 . S
H925 C951 0.950 1_565 S
H926 C952 0.950 1_566 S
H927 C954 0.962 . S
H928 C957 0.950 . S
H929 C958 0.950 . S
H930 C960 0.950 . S
H931 C961 0.950 . S
C932 H914 0.951 . S
C932 C933 1.366 . S
C932 C934 1.388 . S
C933 C932 1.366 . S
C933 C937 1.385 1_565 S
C934 H915 0.951 . S
C934 C932 1.388 . S
C934 C935 1.366 1_565 S
C935 C934 1.366 1_545 S
C935 C936 1.414 . S
C935 C938 1.499 . S
C936 H916 0.950 . S
C936 C935 1.414 . S
C936 C937 1.374 . S
C937 H917 0.950 . S
C937 C933 1.385 1_545 S
C937 C936 1.374 . S
C938 C935 1.499 . S
C938 C939 1.373 . S
C938 C940 1.389 . S
C939 H918 0.950 . S
C939 C938 1.373 . S
C939 C955 1.377 . S
C940 C938 1.389 . S
C940 C941 1.524 1_545 S
C940 C954 1.377 . S
C941 C940 1.524 1_565 S
C941 C942 1.397 1_565 S
C941 C946 1.363 . S
C942 H919 0.950 . S
C942 C941 1.397 1_545 S
C942 C943 1.334 1_545 S
C943 H920 0.950 1_565 S
C943 C942 1.334 1_565 S
C943 C944 1.287 1_554 S
C944 C943 1.287 1_556 S
C944 C945 1.524 . S
C944 H963 0.913 . S
C945 H921 0.950 . S
C945 C944 1.524 . S
C945 C946 1.415 1_556 S
C946 H922 0.950 . S
C946 C941 1.363 . S
C946 C945 1.415 1_554 S
C947 H923 0.951 . S
C947 C948 1.366 . S
C947 C949 1.388 . S
C948 C947 1.366 . S
C948 C952 1.385 . S
C949 H924 0.951 . S
C949 C947 1.388 . S
C949 C950 1.366 . S
C950 C949 1.366 . S
C950 C951 1.414 . S
C950 C953 1.499 . S
C951 H925 0.950 1_545 S
C951 C950 1.414 . S
C951 C952 1.374 . S
C952 H926 0.950 1_544 S
C952 C948 1.385 . S
C952 C951 1.374 . S
C953 C950 1.499 . S
C953 C954 1.373 . S
C953 C955 1.389 . S
C954 H927 0.962 . S
C954 C940 1.377 . S
C954 C953 1.373 . S
C955 C939 1.377 . S
C955 C953 1.389 . S
C955 C956 1.524 . S
C956 C955 1.524 . S
C956 C957 1.397 . S
C956 C961 1.363 . S
C957 H928 0.950 . S
C957 C956 1.397 . S
C957 C958 1.334 . S
C958 H929 0.950 . S
C958 C957 1.334 . S
C958 C959 1.287 . S
C959 C958 1.287 . S
C959 C960 1.524 . S
C959 H962 0.999 . S
C960 H930 0.950 . S
C960 C959 1.524 . S
C960 C961 1.415 . S
C961 H931 0.950 . S
C961 C956 1.363 . S
C961 C960 1.415 . S
H962 C959 0.999 . S
H963 C944 0.913 . S
H964 C982 0.951 . S
H965 C984 0.951 . S
H966 C986 0.950 . S
H967 C987 0.950 . S
H968 C989 0.950 . S
H969 C992 0.950 . S
H970 C993 0.950 . S
H971 C995 0.950 . S
H972 C996 0.950 . S
H973 C997 0.951 . S
H974 C999 0.951 . S
H975 C1001 0.950 . S
H976 C1002 0.950 . S
H977 C1004 0.950 . S
H978 C1007 0.950 . S
H979 C1008 0.950 . S
H980 C1010 0.950 . S
H981 C1011 0.950 . S
C982 H964 0.951 . S
C982 C983 1.366 . S
C982 C984 1.388 . S
C983 C982 1.366 . S
C983 C987 1.385 . S
C984 H965 0.951 . S
C984 C982 1.388 . S
C984 C985 1.366 . S
C985 C984 1.366 . S
C985 C986 1.414 . S
C985 C988 1.499 . S
C986 H966 0.950 . S
C986 C985 1.414 . S
C986 C987 1.374 . S
C987 H967 0.950 . S
C987 C983 1.385 . S
C987 C986 1.374 . S
C988 C985 1.499 . S
C988 C989 1.373 . S
C988 C990 1.389 . S
C989 H968 0.950 . S
C989 C988 1.373 . S
C989 C1005 1.377 . S
C990 C988 1.389 . S
C990 C991 1.524 . S
C990 C1004 1.377 . S
C991 C990 1.524 . S
C991 C992 1.397 . S
C991 C996 1.363 . S
C992 H969 0.950 . S
C992 C991 1.397 . S
C992 C993 1.334 . S
C993 H970 0.950 . S
C993 C992 1.334 . S
C993 C994 1.287 . S
C994 C993 1.287 . S
C994 C995 1.524 . S
C994 H1013 0.913 . S
C995 H971 0.950 . S
C995 C994 1.524 . S
C995 C996 1.415 . S
C996 H972 0.950 . S
C996 C991 1.363 . S
C996 C995 1.415 . S
C997 H973 0.951 . S
C997 C998 1.366 1_556 S
C997 C999 1.388 1_556 S
C998 C997 1.366 1_554 S
C998 C1002 1.385 . S
C999 H974 0.951 . S
C999 C997 1.388 1_554 S
C999 C1000 1.366 . S
C1000 C999 1.366 . S
C1000 C1001 1.414 . S
C1000 C1003 1.499 . S
C1001 H975 0.950 . S
C1001 C1000 1.414 . S
C1001 C1002 1.374 . S
C1002 H976 0.950 . S
C1002 C998 1.385 . S
C1002 C1001 1.374 . S
C1003 C1000 1.499 . S
C1003 C1004 1.373 . S
C1003 C1005 1.389 . S
C1004 H977 0.950 . S
C1004 C990 1.377 . S
C1004 C1003 1.373 . S
C1005 C989 1.377 . S
C1005 C1003 1.389 . S
C1005 C1006 1.524 . S
C1006 C1005 1.524 . S
C1006 C1007 1.397 . S
C1006 C1011 1.363 . S
C1007 H978 0.950 . S
C1007 C1006 1.397 . S
C1007 C1008 1.334 . S
C1008 H979 0.950 . S
C1008 C1007 1.334 . S
C1008 C1009 1.287 . S
C1009 C1008 1.287 . S
C1009 C1010 1.524 . S
C1009 H1012 0.999 . S
C1010 H980 0.950 . S
C1010 C1009 1.524 . S
C1010 C1011 1.415 . S
C1011 H981 0.950 . S
C1011 C1006 1.363 . S
C1011 C1010 1.415 . S
H1012 C1009 0.999 . S
H1013 C994 0.913 . S
H1014 C1032 0.951 . S
H1015 C1034 0.951 . S
H1016 C1036 0.950 . S
H1017 C1037 0.950 . S
H1018 C1039 0.950 . S
H1019 C1042 0.950 . S
H1020 C1043 0.950 . S
H1021 C1045 0.950 . S
H1022 C1046 0.950 . S
H1023 C1047 0.951 . S
H1024 C1049 0.951 . S
H1025 C1051 0.950 1_556 S
H1026 C1052 0.950 . S
H1027 C1054 0.950 . S
H1028 C1057 0.950 . S
H1029 C1058 0.950 1_556 S
H1030 C1060 0.950 . S
H1031 C1061 0.950 . S
C1032 H1014 0.951 . S
C1032 C1033 1.366 . S
C1032 C1034 1.388 . S
C1033 C1032 1.366 . S
C1033 C1037 1.385 . S
C1034 H1015 0.951 . S
C1034 C1032 1.388 . S
C1034 C1035 1.366 . S
C1035 C1034 1.366 . S
C1035 C1036 1.414 . S
C1035 C1038 1.499 . S
C1036 H1016 0.950 . S
C1036 C1035 1.414 . S
C1036 C1037 1.374 . S
C1037 H1017 0.950 . S
C1037 C1033 1.385 . S
C1037 C1036 1.374 . S
C1038 C1035 1.499 . S
C1038 C1039 1.373 . S
C1038 C1040 1.389 . S
C1039 H1018 0.950 . S
C1039 C1038 1.373 . S
C1039 C1055 1.377 . S
C1040 C1038 1.389 . S
C1040 C1041 1.524 . S
C1040 C1054 1.377 . S
C1041 C1040 1.524 . S
C1041 C1042 1.397 . S
C1041 C1046 1.363 . S
C1042 H1019 0.950 . S
C1042 C1041 1.397 . S
C1042 C1043 1.334 . S
C1043 H1020 0.950 . S
C1043 C1042 1.334 . S
C1043 C1044 1.287 . S
C1044 C1043 1.287 . S
C1044 C1045 1.524 . S
C1044 H1063 0.913 . S
C1045 H1021 0.950 . S
C1045 C1044 1.524 . S
C1045 C1046 1.415 . S
C1046 H1022 0.950 . S
C1046 C1041 1.363 . S
C1046 C1045 1.415 . S
C1047 H1023 0.951 . S
C1047 C1048 1.366 . S
C1047 C1049 1.388 . S
C1048 C1047 1.366 . S
C1048 C1052 1.385 1_554 S
C1049 H1024 0.951 . S
C1049 C1047 1.388 . S
C1049 C1050 1.366 . S
C1050 C1049 1.366 . S
C1050 C1051 1.414 . S
C1050 C1053 1.499 . S
C1051 H1025 0.950 1_554 S
C1051 C1050 1.414 . S
C1051 C1052 1.374 1_554 S
C1052 H1026 0.950 . S
C1052 C1048 1.385 1_556 S
C1052 C1051 1.374 1_556 S
C1053 C1050 1.499 . S
C1053 C1054 1.373 . S
C1053 C1055 1.389 . S
C1054 H1027 0.950 . S
C1054 C1040 1.377 . S
C1054 C1053 1.373 . S
C1055 C1039 1.377 . S
C1055 C1053 1.389 . S
C1055 C1056 1.524 . S
C1056 C1055 1.524 . S
C1056 C1057 1.397 . S
C1056 C1061 1.363 . S
C1057 H1028 0.950 . S
C1057 C1056 1.397 . S
C1057 C1058 1.334 . S
C1058 H1029 0.950 1_554 S
C1058 C1057 1.334 . S
C1058 C1059 1.287 . S
C1059 C1058 1.287 . S
C1059 C1060 1.524 . S
C1059 H1062 0.999 . S
C1060 H1030 0.950 . S
C1060 C1059 1.524 . S
C1060 C1061 1.415 . S
C1061 H1031 0.950 . S
C1061 C1056 1.363 . S
C1061 C1060 1.415 . S
H1062 C1059 0.999 . S
H1063 C1044 0.913 . S
H1064 C1082 0.951 . S
H1065 C1084 0.951 . S
H1066 C1086 0.951 . S
H1067 C1087 0.958 1_554 S
H1068 C1089 0.950 . S
H1069 C1092 0.950 . S
H1070 C1093 0.950 . S
H1071 C1095 0.950 1_455 S
H1072 C1096 0.950 . S
H1073 C1097 0.951 1_655 S
H1074 C1099 0.951 1_655 S
H1075 C1101 0.950 . S
H1076 C1102 0.950 . S
H1077 C1104 0.950 . S
H1078 C1107 0.950 . S
H1079 C1108 0.950 . S
H1080 C1110 0.950 . S
H1081 C1111 0.950 . S
C1082 H1064 0.951 . S
C1082 C1083 1.366 . S
C1082 C1084 1.388 . S
C1083 C1082 1.366 . S
C1083 C1087 1.377 1_455 S
C1084 H1065 0.951 . S
C1084 C1082 1.388 . S
C1084 C1085 1.366 . S
C1085 C1084 1.366 . S
C1085 C1086 1.413 1_455 S
C1085 C1088 1.499 . S
C1086 H1066 0.951 . S
C1086 C1085 1.413 1_655 S
C1086 C1087 1.374 . S
C1087 H1067 0.958 1_556 S
C1087 C1083 1.377 1_655 S
C1087 C1086 1.374 . S
C1088 C1085 1.499 . S
C1088 C1089 1.373 . S
C1088 C1090 1.389 . S
C1089 H1068 0.950 . S
C1089 C1088 1.373 . S
C1089 C1105 1.377 . S
C1090 C1088 1.389 . S
C1090 C1091 1.524 1_455 S
C1090 C1104 1.377 . S
C1091 C1090 1.524 1_655 S
C1091 C1092 1.397 . S
C1091 C1096 1.363 1_655 S
C1092 H1069 0.950 . S
C1092 C1091 1.397 . S
C1092 C1093 1.334 . S
C1093 H1070 0.950 . S
C1093 C1092 1.334 . S
C1093 C1094 1.287 . S
C1094 C1093 1.287 . S
C1094 C1095 1.524 . S
C1094 H1113 0.913 . S
C1095 H1071 0.950 1_655 S
C1095 C1094 1.524 . S
C1095 C1096 1.415 1_655 S
C1096 H1072 0.950 . S
C1096 C1091 1.363 1_455 S
C1096 C1095 1.415 1_455 S
C1097 H1073 0.951 1_455 S
C1097 C1098 1.366 . S
C1097 C1099 1.388 . S
C1098 C1097 1.366 . S
C1098 C1102 1.385 . S
C1099 H1074 0.951 1_455 S
C1099 C1097 1.388 . S
C1099 C1100 1.366 . S
C1100 C1099 1.366 . S
C1100 C1101 1.414 . S
C1100 C1103 1.499 . S
C1101 H1075 0.950 . S
C1101 C1100 1.414 . S
C1101 C1102 1.374 . S
C1102 H1076 0.950 . S
C1102 C1098 1.385 . S
C1102 C1101 1.374 . S
C1103 C1100 1.499 . S
C1103 C1104 1.373 . S
C1103 C1105 1.389 . S
C1104 H1077 0.950 . S
C1104 C1090 1.377 . S
C1104 C1103 1.373 . S
C1105 C1089 1.377 . S
C1105 C1103 1.389 . S
C1105 C1106 1.524 . S
C1106 C1105 1.524 . S
C1106 C1107 1.397 . S
C1106 C1111 1.363 1_556 S
C1107 H1078 0.950 . S
C1107 C1106 1.397 . S
C1107 C1108 1.334 1_556 S
C1108 H1079 0.950 . S
C1108 C1107 1.334 1_554 S
C1108 C1109 1.287 . S
C1109 C1108 1.287 . S
C1109 C1110 1.524 . S
C1109 H1112 0.999 . S
C1110 H1080 0.950 . S
C1110 C1109 1.524 . S
C1110 C1111 1.415 . S
C1111 H1081 0.950 . S
C1111 C1106 1.363 1_554 S
C1111 C1110 1.415 . S
H1112 C1109 0.999 . S
H1113 C1094 0.913 . S
H1114 C1132 0.951 1_554 S
H1115 C1134 0.951 . S
H1116 C1136 0.950 . S
H1117 C1137 0.950 . S
H1118 C1139 0.950 . S
H1119 C1142 0.950 . S
H1120 C1143 0.950 . S
H1121 C1145 0.950 . S
H1122 C1146 0.950 . S
H1123 C1147 0.947 . S
H1124 C1149 0.986 . S
H1125 C1151 0.950 . S
H1126 C1152 0.950 . S
H1127 C1154 0.950 . S
H1128 C1157 0.950 . S
H1129 C1158 0.950 . S
H1130 C1160 0.950 . S
H1131 C1161 0.950 . S
C1132 H1114 0.951 1_556 S
C1132 C1133 1.366 . S
C1132 C1134 1.388 . S
C1133 C1132 1.366 . S
C1133 C1137 1.385 1_545 S
C1134 H1115 0.951 . S
C1134 C1132 1.388 . S
C1134 C1135 1.366 . S
C1135 C1134 1.366 . S
C1135 C1136 1.414 1_545 S
C1135 C1138 1.499 . S
C1136 H1116 0.950 . S
C1136 C1135 1.414 1_565 S
C1136 C1137 1.374 . S
C1137 H1117 0.950 . S
C1137 C1133 1.385 1_565 S
C1137 C1136 1.374 . S
C1138 C1135 1.499 . S
C1138 C1139 1.373 1_545 S
C1138 C1140 1.389 . S
C1139 H1118 0.950 . S
C1139 C1138 1.373 1_565 S
C1139 C1155 1.377 . S
C1140 C1138 1.389 . S
C1140 C1141 1.524 . S
C1140 C1154 1.377 . S
C1141 C1140 1.524 . S
C1141 C1142 1.397 . S
C1141 C1146 1.363 . S
C1142 H1119 0.950 . S
C1142 C1141 1.397 . S
C1142 C1143 1.334 . S
C1143 H1120 0.950 . S
C1143 C1142 1.334 . S
C1143 C1144 1.287 . S
C1144 C1143 1.287 . S
C1144 C1145 1.524 . S
C1144 H1163 0.913 . S
C1145 H1121 0.950 . S
C1145 C1144 1.524 . S
C1145 C1146 1.415 . S
C1146 H1122 0.950 . S
C1146 C1141 1.363 . S
C1146 C1145 1.415 . S
C1147 H1123 0.947 . S
C1147 C1148 1.370 1_565 S
C1147 C1149 1.387 . S
C1148 C1147 1.370 1_545 S
C1148 C1152 1.385 . S
C1149 H1124 0.986 . S
C1149 C1147 1.387 . S
C1149 C1150 1.335 1_565 S
C1150 C1149 1.335 1_545 S
C1150 C1151 1.414 . S
C1150 C1153 1.499 . S
C1151 H1125 0.950 . S
C1151 C1150 1.414 . S
C1151 C1152 1.374 . S
C1152 H1126 0.950 . S
C1152 C1148 1.385 . S
C1152 C1151 1.374 . S
C1153 C1150 1.499 . S
C1153 C1154 1.373 . S
C1153 C1155 1.389 1_545 S
C1154 H1127 0.950 . S
C1154 C1140 1.377 . S
C1154 C1153 1.373 . S
C1155 C1139 1.377 . S
C1155 C1153 1.389 1_565 S
C1155 C1156 1.524 . S
C1156 C1155 1.524 . S
C1156 C1157 1.397 . S
C1156 C1161 1.363 . S
C1157 H1128 0.950 . S
C1157 C1156 1.397 . S
C1157 C1158 1.334 . S
C1158 H1129 0.950 . S
C1158 C1157 1.334 . S
C1158 C1159 1.287 . S
C1159 C1158 1.287 . S
C1159 C1160 1.524 . S
C1159 H1162 0.999 . S
C1160 H1130 0.950 . S
C1160 C1159 1.524 . S
C1160 C1161 1.415 . S
C1161 H1131 0.950 . S
C1161 C1156 1.363 . S
C1161 C1160 1.415 . S
H1162 C1159 0.999 . S
H1163 C1144 0.913 . S
H1164 C1182 0.951 1_554 S
H1165 C1184 0.951 1_554 S
H1166 C1186 0.950 . S
H1167 C1187 0.950 . S
H1168 C1189 0.950 . S
H1169 C1192 0.947 1_556 S
H1170 C1193 0.950 . S
H1171 C1195 0.950 . S
H1172 C1196 0.950 . S
H1173 C1197 0.951 . S
H1174 C1199 0.951 . S
H1175 C1201 0.950 . S
H1176 C1202 0.950 . S
H1177 C1204 0.950 . S
H1178 C1207 0.950 . S
H1179 C1208 0.950 . S
H1180 C1210 0.950 . S
H1181 C1211 0.950 . S
C1182 H1164 0.951 1_556 S
C1182 C1183 1.366 . S
C1182 C1184 1.388 . S
C1183 C1182 1.366 . S
C1183 C1187 1.385 . S
C1184 H1165 0.951 1_556 S
C1184 C1182 1.388 . S
C1184 C1185 1.366 . S
C1185 C1184 1.366 . S
C1185 C1186 1.414 . S
C1185 C1188 1.499 . S
C1186 H1166 0.950 . S
C1186 C1185 1.414 . S
C1186 C1187 1.374 . S
C1187 H1167 0.950 . S
C1187 C1183 1.385 . S
C1187 C1186 1.374 . S
C1188 C1185 1.499 . S
C1188 C1189 1.373 . S
C1188 C1190 1.389 . S
C1189 H1168 0.950 . S
C1189 C1188 1.373 . S
C1189 C1205 1.377 . S
C1190 C1188 1.389 . S
C1190 C1191 1.524 1_556 S
C1190 C1204 1.377 . S
C1191 C1190 1.524 1_554 S
C1191 C1192 1.397 . S
C1191 C1196 1.363 . S
C1192 H1169 0.947 1_554 S
C1192 C1191 1.397 . S
C1192 C1193 1.336 . S
C1193 H1170 0.950 . S
C1193 C1192 1.336 . S
C1193 C1194 1.287 . S
C1194 C1193 1.287 . S
C1194 C1195 1.524 . S
C1194 H1213 0.913 . S
C1195 H1171 0.950 . S
C1195 C1194 1.524 . S
C1195 C1196 1.415 . S
C1196 H1172 0.950 . S
C1196 C1191 1.363 . S
C1196 C1195 1.415 . S
C1197 H1173 0.951 . S
C1197 C1198 1.366 . S
C1197 C1199 1.388 . S
C1198 C1197 1.366 . S
C1198 C1202 1.385 . S
C1199 H1174 0.951 . S
C1199 C1197 1.388 . S
C1199 C1200 1.366 . S
C1200 C1199 1.366 . S
C1200 C1201 1.414 . S
C1200 C1203 1.499 . S
C1201 H1175 0.950 . S
C1201 C1200 1.414 . S
C1201 C1202 1.374 . S
C1202 H1176 0.950 . S
C1202 C1198 1.385 . S
C1202 C1201 1.374 . S
C1203 C1200 1.499 . S
C1203 C1204 1.373 . S
C1203 C1205 1.389 . S
C1204 H1177 0.950 . S
C1204 C1190 1.377 . S
C1204 C1203 1.373 . S
C1205 C1189 1.377 . S
C1205 C1203 1.389 . S
C1205 C1206 1.524 . S
C1206 C1205 1.524 . S
C1206 C1207 1.397 . S
C1206 C1211 1.363 . S
C1207 H1178 0.950 . S
C1207 C1206 1.397 . S
C1207 C1208 1.334 . S
C1208 H1179 0.950 . S
C1208 C1207 1.334 . S
C1208 C1209 1.287 . S
C1209 C1208 1.287 . S
C1209 C1210 1.524 . S
C1209 H1212 0.999 . S
C1210 H1180 0.950 . S
C1210 C1209 1.524 . S
C1210 C1211 1.415 . S
C1211 H1181 0.950 . S
C1211 C1206 1.363 . S
C1211 C1210 1.415 . S
H1212 C1209 0.999 . S
H1213 C1194 0.913 . S
H1214 C1232 0.951 . S
H1215 C1234 0.951 . S
H1216 C1236 0.950 1_554 S
H1217 C1237 0.950 1_554 S
H1218 C1239 0.950 . S
H1219 C1242 0.950 . S
H1220 C1243 0.950 . S
H1221 C1245 0.950 . S
H1222 C1246 0.950 . S
H1223 C1247 0.951 . S
H1224 C1249 0.951 . S
H1225 C1251 0.950 . S
H1226 C1252 0.950 . S
H1227 C1254 0.950 . S
H1228 C1257 0.950 . S
H1229 C1258 0.950 . S
H1230 C1260 0.950 . S
H1231 C1261 0.950 . S
C1232 H1214 0.951 . S
C1232 C1233 1.366 . S
C1232 C1234 1.388 . S
C1233 C1232 1.366 . S
C1233 C1237 1.385 . S
C1234 H1215 0.951 . S
C1234 C1232 1.388 . S
C1234 C1235 1.366 . S
C1235 C1234 1.366 . S
C1235 C1236 1.414 . S
C1235 C1238 1.499 . S
C1236 H1216 0.950 1_556 S
C1236 C1235 1.414 . S
C1236 C1237 1.374 . S
C1237 H1217 0.950 1_556 S
C1237 C1233 1.385 . S
C1237 C1236 1.374 . S
C1238 C1235 1.499 . S
C1238 C1239 1.373 . S
C1238 C1240 1.389 . S
C1239 H1218 0.950 . S
C1239 C1238 1.373 . S
C1239 C1255 1.377 . S
C1240 C1238 1.389 . S
C1240 C1241 1.524 . S
C1240 C1254 1.377 . S
C1241 C1240 1.524 . S
C1241 C1242 1.397 . S
C1241 C1246 1.363 . S
C1242 H1219 0.950 . S
C1242 C1241 1.397 . S
C1242 C1243 1.334 . S
C1243 H1220 0.950 . S
C1243 C1242 1.334 . S
C1243 C1244 1.287 . S
C1244 C1243 1.287 . S
C1244 C1245 1.524 . S
C1244 H1263 0.913 . S
C1245 H1221 0.950 . S
C1245 C1244 1.524 . S
C1245 C1246 1.415 . S
C1246 H1222 0.950 . S
C1246 C1241 1.363 . S
C1246 C1245 1.415 . S
C1247 H1223 0.951 . S
C1247 C1248 1.366 . S
C1247 C1249 1.388 . S
C1248 C1247 1.366 . S
C1248 C1252 1.385 . S
C1249 H1224 0.951 . S
C1249 C1247 1.388 . S
C1249 C1250 1.366 . S
C1250 C1249 1.366 . S
C1250 C1251 1.414 . S
C1250 C1253 1.499 . S
C1251 H1225 0.950 . S
C1251 C1250 1.414 . S
C1251 C1252 1.374 . S
C1252 H1226 0.950 . S
C1252 C1248 1.385 . S
C1252 C1251 1.374 . S
C1253 C1250 1.499 . S
C1253 C1254 1.373 . S
C1253 C1255 1.389 . S
C1254 H1227 0.950 . S
C1254 C1240 1.377 . S
C1254 C1253 1.373 . S
C1255 C1239 1.377 . S
C1255 C1253 1.389 . S
C1255 C1256 1.524 . S
C1256 C1255 1.524 . S
C1256 C1257 1.397 . S
C1256 C1261 1.363 1_556 S
C1257 H1228 0.950 . S
C1257 C1256 1.397 . S
C1257 C1258 1.334 . S
C1258 H1229 0.950 . S
C1258 C1257 1.334 . S
C1258 C1259 1.287 . S
C1259 C1258 1.287 . S
C1259 C1260 1.524 1_556 S
C1259 H1262 0.999 . S
C1260 H1230 0.950 . S
C1260 C1259 1.524 1_554 S
C1260 C1261 1.415 . S
C1261 H1231 0.950 . S
C1261 C1256 1.363 1_554 S
C1261 C1260 1.415 . S
H1262 C1259 0.999 . S
H1263 C1244 0.913 . S
H1264 C1282 0.951 . S
H1265 C1284 0.951 . S
H1266 C1286 0.950 . S
H1267 C1287 0.950 . S
H1268 C1289 0.950 . S
H1269 C1292 0.950 . S
H1270 C1293 0.950 . S
H1271 C1295 0.950 . S
H1272 C1296 0.950 . S
H1273 C1297 0.951 . S
H1274 C1299 0.951 . S
H1275 C1301 0.947 1_455 S
H1276 C1302 0.942 1_455 S
H1277 C1304 0.950 . S
H1278 C1307 0.950 . S
H1279 C1308 0.950 . S
H1280 C1310 0.950 . S
H1281 C1311 0.950 . S
C1282 H1264 0.951 . S
C1282 C1283 1.366 1_455 S
C1282 C1284 1.388 . S
C1283 C1282 1.366 1_655 S
C1283 C1287 1.385 . S
C1284 H1265 0.951 . S
C1284 C1282 1.388 . S
C1284 C1285 1.366 1_455 S
C1285 C1284 1.366 1_655 S
C1285 C1286 1.414 . S
C1285 C1288 1.499 . S
C1286 H1266 0.950 . S
C1286 C1285 1.414 . S
C1286 C1287 1.374 . S
C1287 H1267 0.950 . S
C1287 C1283 1.385 . S
C1287 C1286 1.374 . S
C1288 C1285 1.499 . S
C1288 C1289 1.373 . S
C1288 C1290 1.389 1_655 S
C1289 H1268 0.950 . S
C1289 C1288 1.373 . S
C1289 C1305 1.377 . S
C1290 C1288 1.389 1_455 S
C1290 C1291 1.524 . S
C1290 C1304 1.377 . S
C1291 C1290 1.524 . S
C1291 C1292 1.397 . S
C1291 C1296 1.363 . S
C1292 H1269 0.950 . S
C1292 C1291 1.397 . S
C1292 C1293 1.334 . S
C1293 H1270 0.950 . S
C1293 C1292 1.334 . S
C1293 C1294 1.287 . S
C1294 C1293 1.287 . S
C1294 C1295 1.524 . S
C1294 H1313 0.913 . S
C1295 H1271 0.950 . S
C1295 C1294 1.524 . S
C1295 C1296 1.415 . S
C1296 H1272 0.950 . S
C1296 C1291 1.363 . S
C1296 C1295 1.415 . S
C1297 H1273 0.951 . S
C1297 C1298 1.366 . S
C1297 C1299 1.388 . S
C1298 C1297 1.366 . S
C1298 C1302 1.394 . S
C1299 H1274 0.951 . S
C1299 C1297 1.388 . S
C1299 C1300 1.366 . S
C1300 C1299 1.366 . S
C1300 C1301 1.418 . S
C1300 C1303 1.499 . S
C1301 H1275 0.947 1_655 S
C1301 C1300 1.418 . S
C1301 C1302 1.374 . S
C1302 H1276 0.942 1_655 S
C1302 C1298 1.394 . S
C1302 C1301 1.374 . S
C1303 C1300 1.499 . S
C1303 C1304 1.373 1_655 S
C1303 C1305 1.389 . S
C1304 H1277 0.950 . S
C1304 C1290 1.377 . S
C1304 C1303 1.373 1_455 S
C1305 C1289 1.377 . S
C1305 C1303 1.389 . S
C1305 C1306 1.524 . S
C1306 C1305 1.524 . S
C1306 C1307 1.397 . S
C1306 C1311 1.363 . S
C1307 H1278 0.950 . S
C1307 C1306 1.397 . S
C1307 C1308 1.334 . S
C1308 H1279 0.950 . S
C1308 C1307 1.334 . S
C1308 C1309 1.287 . S
C1309 C1308 1.287 . S
C1309 C1310 1.524 . S
C1309 H1312 0.999 . S
C1310 H1280 0.950 . S
C1310 C1309 1.524 . S
C1310 C1311 1.415 . S
C1311 H1281 0.950 . S
C1311 C1306 1.363 . S
C1311 C1310 1.415 . S
H1312 C1309 0.999 . S
H1313 C1294 0.913 . S
H1314 C1332 0.951 . S
H1315 C1334 0.951 . S
H1316 C1336 0.950 . S
H1317 C1337 0.950 . S
H1318 C1339 0.950 . S
H1319 C1342 0.950 . S
H1320 C1343 0.950 . S
H1321 C1345 0.950 . S
H1322 C1346 0.950 . S
H1323 C1347 0.951 . S
H1324 C1349 0.951 . S
H1325 C1351 0.950 . S
H1326 C1352 0.950 . S
H1327 C1354 0.950 . S
H1328 C1357 0.950 . S
H1329 C1358 0.950 . S
H1330 C1360 0.950 . S
H1331 C1361 0.950 1_565 S
C1332 H1314 0.951 . S
C1332 C1333 1.366 1_545 S
C1332 C1334 1.388 . S
C1333 C1332 1.366 1_565 S
C1333 C1337 1.385 . S
C1334 H1315 0.951 . S
C1334 C1332 1.388 . S
C1334 C1335 1.366 1_545 S
C1335 C1334 1.366 1_565 S
C1335 C1336 1.414 . S
C1335 C1338 1.499 . S
C1336 H1316 0.950 . S
C1336 C1335 1.414 . S
C1336 C1337 1.374 . S
C1337 H1317 0.950 . S
C1337 C1333 1.385 . S
C1337 C1336 1.374 . S
C1338 C1335 1.499 . S
C1338 C1339 1.373 1_565 S
C1338 C1340 1.389 . S
C1339 H1318 0.950 . S
C1339 C1338 1.373 1_545 S
C1339 C1355 1.377 . S
C1340 C1338 1.389 . S
C1340 C1341 1.524 . S
C1340 C1354 1.377 . S
C1341 C1340 1.524 . S
C1341 C1342 1.397 . S
C1341 C1346 1.363 . S
C1342 H1319 0.950 . S
C1342 C1341 1.397 . S
C1342 C1343 1.334 . S
C1343 H1320 0.950 . S
C1343 C1342 1.334 . S
C1343 C1344 1.287 . S
C1344 C1343 1.287 . S
C1344 C1345 1.524 . S
C1344 H1363 0.913 . S
C1345 H1321 0.950 . S
C1345 C1344 1.524 . S
C1345 C1346 1.415 . S
C1346 H1322 0.950 . S
C1346 C1341 1.363 . S
C1346 C1345 1.415 . S
C1347 H1323 0.951 . S
C1347 C1348 1.366 . S
C1347 C1349 1.388 . S
C1348 C1347 1.366 . S
C1348 C1352 1.385 1_565 S
C1349 H1324 0.951 . S
C1349 C1347 1.388 . S
C1349 C1350 1.366 . S
C1350 C1349 1.366 . S
C1350 C1351 1.414 1_565 S
C1350 C1353 1.499 . S
C1351 H1325 0.950 . S
C1351 C1350 1.414 1_545 S
C1351 C1352 1.374 . S
C1352 H1326 0.950 . S
C1352 C1348 1.385 1_545 S
C1352 C1351 1.374 . S
C1353 C1350 1.499 . S
C1353 C1354 1.373 . S
C1353 C1355 1.389 1_565 S
C1354 H1327 0.950 . S
C1354 C1340 1.377 . S
C1354 C1353 1.373 . S
C1355 C1339 1.377 . S
C1355 C1353 1.389 1_545 S
C1355 C1356 1.524 . S
C1356 C1355 1.524 . S
C1356 C1357 1.397 . S
C1356 C1361 1.363 . S
C1357 H1328 0.950 . S
C1357 C1356 1.397 . S
C1357 C1358 1.334 . S
C1358 H1329 0.950 . S
C1358 C1357 1.334 . S
C1358 C1359 1.287 . S
C1359 C1358 1.287 . S
C1359 C1360 1.524 . S
C1359 H1362 0.999 . S
C1360 H1330 0.950 . S
C1360 C1359 1.524 . S
C1360 C1361 1.415 . S
C1361 H1331 0.950 1_545 S
C1361 C1356 1.363 . S
C1361 C1360 1.415 . S
H1362 C1359 0.999 . S
H1363 C1344 0.913 . S
H1364 C1382 0.951 . S
H1365 C1384 0.951 . S
H1366 C1386 0.950 . S
H1367 C1387 0.950 . S
H1368 C1389 0.950 . S
H1369 C1392 0.950 . S
H1370 C1393 0.950 . S
H1371 C1395 0.950 . S
H1372 C1396 0.950 . S
H1373 C1397 0.951 . S
H1374 C1399 0.951 . S
H1375 C1401 0.950 . S
H1376 C1402 0.950 . S
H1377 C1404 0.950 . S
H1378 C1407 0.950 . S
H1379 C1408 0.950 . S
H1380 C1410 0.950 . S
H1381 C1411 0.950 . S
C1382 H1364 0.951 . S
C1382 C1383 1.366 . S
C1382 C1384 1.388 . S
C1383 C1382 1.366 . S
C1383 C1387 1.385 . S
C1384 H1365 0.951 . S
C1384 C1382 1.388 . S
C1384 C1385 1.366 . S
C1385 C1384 1.366 . S
C1385 C1386 1.414 . S
C1385 C1388 1.499 . S
C1386 H1366 0.950 . S
C1386 C1385 1.414 . S
C1386 C1387 1.374 . S
C1387 H1367 0.950 . S
C1387 C1383 1.385 . S
C1387 C1386 1.374 . S
C1388 C1385 1.499 . S
C1388 C1389 1.373 . S
C1388 C1390 1.389 . S
C1389 H1368 0.950 . S
C1389 C1388 1.373 . S
C1389 C1405 1.377 . S
C1390 C1388 1.389 . S
C1390 C1391 1.524 . S
C1390 C1404 1.377 . S
C1391 C1390 1.524 . S
C1391 C1392 1.397 . S
C1391 C1396 1.363 . S
C1392 H1369 0.950 . S
C1392 C1391 1.397 . S
C1392 C1393 1.334 . S
C1393 H1370 0.950 . S
C1393 C1392 1.334 . S
C1393 C1394 1.287 . S
C1394 C1393 1.287 . S
C1394 C1395 1.524 . S
C1394 H1413 0.913 . S
C1395 H1371 0.950 . S
C1395 C1394 1.524 . S
C1395 C1396 1.415 . S
C1396 H1372 0.950 . S
C1396 C1391 1.363 . S
C1396 C1395 1.415 . S
C1397 H1373 0.951 . S
C1397 C1398 1.366 . S
C1397 C1399 1.388 . S
C1398 C1397 1.366 . S
C1398 C1402 1.385 . S
C1399 H1374 0.951 . S
C1399 C1397 1.388 . S
C1399 C1400 1.366 . S
C1400 C1399 1.366 . S
C1400 C1401 1.414 . S
C1400 C1403 1.499 . S
C1401 H1375 0.950 . S
C1401 C1400 1.414 . S
C1401 C1402 1.374 . S
C1402 H1376 0.950 . S
C1402 C1398 1.385 . S
C1402 C1401 1.374 . S
C1403 C1400 1.499 . S
C1403 C1404 1.373 . S
C1403 C1405 1.389 . S
C1404 H1377 0.950 . S
C1404 C1390 1.377 . S
C1404 C1403 1.373 . S
C1405 C1389 1.377 . S
C1405 C1403 1.389 . S
C1405 C1406 1.524 . S
C1406 C1405 1.524 . S
C1406 C1407 1.397 . S
C1406 C1411 1.363 . S
C1407 H1378 0.950 . S
C1407 C1406 1.397 . S
C1407 C1408 1.334 . S
C1408 H1379 0.950 . S
C1408 C1407 1.334 . S
C1408 C1409 1.287 . S
C1409 C1408 1.287 . S
C1409 C1410 1.524 . S
C1409 H1412 0.999 . S
C1410 H1380 0.950 . S
C1410 C1409 1.524 . S
C1410 C1411 1.415 . S
C1411 H1381 0.950 . S
C1411 C1406 1.363 . S
C1411 C1410 1.415 . S
H1412 C1409 0.999 . S
H1413 C1394 0.913 . S
H1414 C1432 0.951 . S
H1415 C1434 0.951 . S
H1416 C1436 0.950 . S
H1417 C1437 0.950 . S
H1418 C1439 0.950 . S
H1419 C1442 0.950 . S
H1420 C1443 0.950 . S
H1421 C1445 0.950 . S
H1422 C1446 0.950 . S
H1423 C1447 0.951 . S
H1424 C1449 0.951 . S
H1425 C1451 0.950 . S
H1426 C1452 0.950 . S
H1427 C1454 0.950 . S
H1428 C1457 0.950 . S
H1429 C1458 0.950 . S
H1430 C1460 0.950 . S
H1431 C1461 0.950 . S
C1432 H1414 0.951 . S
C1432 C1433 1.366 . S
C1432 C1434 1.388 . S
C1433 C1432 1.366 . S
C1433 C1437 1.385 . S
C1434 H1415 0.951 . S
C1434 C1432 1.388 . S
C1434 C1435 1.366 . S
C1435 C1434 1.366 . S
C1435 C1436 1.414 . S
C1435 C1438 1.499 . S
C1436 H1416 0.950 . S
C1436 C1435 1.414 . S
C1436 C1437 1.374 . S
C1437 H1417 0.950 . S
C1437 C1433 1.385 . S
C1437 C1436 1.374 . S
C1438 C1435 1.499 . S
C1438 C1439 1.373 . S
C1438 C1440 1.389 . S
C1439 H1418 0.950 . S
C1439 C1438 1.373 . S
C1439 C1455 1.377 . S
C1440 C1438 1.389 . S
C1440 C1441 1.524 . S
C1440 C1454 1.377 . S
C1441 C1440 1.524 . S
C1441 C1442 1.397 . S
C1441 C1446 1.363 . S
C1442 H1419 0.950 . S
C1442 C1441 1.397 . S
C1442 C1443 1.334 . S
C1443 H1420 0.950 . S
C1443 C1442 1.334 . S
C1443 C1444 1.287 . S
C1444 C1443 1.287 . S
C1444 C1445 1.524 . S
C1444 H1463 0.913 . S
C1445 H1421 0.950 . S
C1445 C1444 1.524 . S
C1445 C1446 1.415 . S
C1446 H1422 0.950 . S
C1446 C1441 1.363 . S
C1446 C1445 1.415 . S
C1447 H1423 0.951 . S
C1447 C1448 1.366 . S
C1447 C1449 1.388 . S
C1448 C1447 1.366 . S
C1448 C1452 1.385 . S
C1449 H1424 0.951 . S
C1449 C1447 1.388 . S
C1449 C1450 1.366 . S
C1450 C1449 1.366 . S
C1450 C1451 1.414 . S
C1450 C1453 1.499 . S
C1451 H1425 0.950 . S
C1451 C1450 1.414 . S
C1451 C1452 1.374 . S
C1452 H1426 0.950 . S
C1452 C1448 1.385 . S
C1452 C1451 1.374 . S
C1453 C1450 1.499 . S
C1453 C1454 1.373 . S
C1453 C1455 1.389 . S
C1454 H1427 0.950 . S
C1454 C1440 1.377 . S
C1454 C1453 1.373 . S
C1455 C1439 1.377 . S
C1455 C1453 1.389 . S
C1455 C1456 1.524 . S
C1456 C1455 1.524 . S
C1456 C1457 1.397 . S
C1456 C1461 1.363 . S
C1457 H1428 0.950 . S
C1457 C1456 1.397 . S
C1457 C1458 1.334 . S
C1458 H1429 0.950 . S
C1458 C1457 1.334 . S
C1458 C1459 1.287 . S
C1459 C1458 1.287 . S
C1459 C1460 1.524 . S
C1459 H1462 0.999 . S
C1460 H1430 0.950 . S
C1460 C1459 1.524 . S
C1460 C1461 1.415 . S
C1461 H1431 0.950 . S
C1461 C1456 1.363 . S
C1461 C1460 1.415 . S
H1462 C1459 0.999 . S
H1463 C1444 0.913 . S
C283 N80 1.798 . S
C298 C114 1.838 . S
C348 C154 1.839 . S
C333 N93 1.799 . S
C398 C194 1.839 . S
C383 N54 1.799 . S
C448 C234 1.837 . S
C433 N67 1.798 . S
C498 C123 1.839 . S
C483 N28 1.802 . S
C533 N41 1.798 . S
C548 C163 1.837 . S
C583 N2 1.799 . S
C598 C203 1.837 . S
C633 N15 1.800 . S
C648 C243 1.839 . S
C698 C120 0.321 . S
C683 N70 0.260 . S
C748 C160 0.319 . S
C733 N83 0.258 . S
C798 C200 0.320 . S
C783 N96 0.259 . S
C833 N57 0.259 . S
C848 C240 0.319 . S
C883 N18 0.263 . S
C898 C111 0.318 . S
C948 C151 0.318 . S
C933 N31 0.250 . S
C998 C191 0.317 . S
C983 N44 0.249 . S
C1033 N5 0.250 . S
C1048 C231 0.320 . S
C1083 N66 1.968 . S
C1098 C115 2.037 . S
C1133 N79 1.968 . S
C1148 C155 2.038 . S
C1198 C195 2.039 . S
C1183 N92 1.969 . S
C1248 C235 2.037 . S
C1233 N53 1.968 . S
C1283 N14 1.966 . S
C1298 C106 2.038 . S
C1348 C146 2.039 . S
C1333 N27 1.966 . S
C1398 C186 2.038 . S
C1383 N40 1.966 . S
C1433 N1 1.965 . S
C1448 C226 2.038 . S
