# Generated by pormake.
# Topology pyr, (3,6)-cn, num edge types: 1
# Building blocks:
#     Node 0, Type 0, BuildingBlock: BETDIP_clean_linker_0, # of connection points: 3
#     Node 1, Type 0, BuildingBlock: BETDIP_clean_linker_0, # of connection points: 3
#     Node 2, Type 0, BuildingBlock: BETDIP_clean_linker_0, # of connection points: 3
#     Node 3, Type 0, BuildingBlock: BETDIP_clean_linker_0, # of connection points: 3
#     Node 4, Type 0, BuildingBlock: BETDIP_clean_linker_0, # of connection points: 3
#     Node 5, Type 0, BuildingBlock: BETDIP_clean_linker_0, # of connection points: 3
#     Node 6, Type 0, BuildingBlock: BETDIP_clean_linker_0, # of connection points: 3
#     Node 7, Type 0, BuildingBlock: BETDIP_clean_linker_0, # of connection points: 3
#     Node 8, Type 1, BuildingBlock: BETDAH_clean_sbu_0, # of connection points: 6
#     Node 9, Type 1, BuildingBlock: BETDAH_clean_sbu_0, # of connection points: 6
#     Node 10, Type 1, BuildingBlock: BETDAH_clean_sbu_0, # of connection points: 6
#     Node 11, Type 1, BuildingBlock: BETDAH_clean_sbu_0, # of connection points: 6
#     Edge 12, Type (0, 1), BuildingBlock: XIVTED_clean_linker_0, # of connection points: 2
#     Edge 13, Type (0, 1), BuildingBlock: XIVTED_clean_linker_0, # of connection points: 2
#     Edge 14, Type (0, 1), BuildingBlock: XIVTED_clean_linker_0, # of connection points: 2
#     Edge 15, Type (0, 1), BuildingBlock: XIVTED_clean_linker_0, # of connection points: 2
#     Edge 16, Type (0, 1), BuildingBlock: XIVTED_clean_linker_0, # of connection points: 2
#     Edge 17, Type (0, 1), BuildingBlock: XIVTED_clean_linker_0, # of connection points: 2
#     Edge 18, Type (0, 1), BuildingBlock: XIVTED_clean_linker_0, # of connection points: 2
#     Edge 19, Type (0, 1), BuildingBlock: XIVTED_clean_linker_0, # of connection points: 2
#     Edge 20, Type (0, 1), BuildingBlock: XIVTED_clean_linker_0, # of connection points: 2
#     Edge 21, Type (0, 1), BuildingBlock: XIVTED_clean_linker_0, # of connection points: 2
#     Edge 22, Type (0, 1), BuildingBlock: XIVTED_clean_linker_0, # of connection points: 2
#     Edge 23, Type (0, 1), BuildingBlock: XIVTED_clean_linker_0, # of connection points: 2
#     Edge 24, Type (0, 1), BuildingBlock: XIVTED_clean_linker_0, # of connection points: 2
#     Edge 25, Type (0, 1), BuildingBlock: XIVTED_clean_linker_0, # of connection points: 2
#     Edge 26, Type (0, 1), BuildingBlock: XIVTED_clean_linker_0, # of connection points: 2
#     Edge 27, Type (0, 1), BuildingBlock: XIVTED_clean_linker_0, # of connection points: 2
#     Edge 28, Type (0, 1), BuildingBlock: XIVTED_clean_linker_0, # of connection points: 2
#     Edge 29, Type (0, 1), BuildingBlock: XIVTED_clean_linker_0, # of connection points: 2
#     Edge 30, Type (0, 1), BuildingBlock: XIVTED_clean_linker_0, # of connection points: 2
#     Edge 31, Type (0, 1), BuildingBlock: XIVTED_clean_linker_0, # of connection points: 2
#     Edge 32, Type (0, 1), BuildingBlock: XIVTED_clean_linker_0, # of connection points: 2
#     Edge 33, Type (0, 1), BuildingBlock: XIVTED_clean_linker_0, # of connection points: 2
#     Edge 34, Type (0, 1), BuildingBlock: XIVTED_clean_linker_0, # of connection points: 2
#     Edge 35, Type (0, 1), BuildingBlock: XIVTED_clean_linker_0, # of connection points: 2
# Relax obj value: 0.129
# Max RMSD: 0.169
# Mean RMSD: 0.137
data_MOF--net-pyr--node1-BETDAH_clean_sbu_0--node2-BETDIP_clean_linker_0--edge1-XIVTED_clean_linker_0
_symmetry_space_group_name_H-M    P1
_symmetry_Int_Tables_number       1
_symmetry_cell_setting            triclinic
loop_
_symmetry_equiv_pos_as_xyz
'x, y, z'
_cell_length_a     37.896378
_cell_length_b     40.437961
_cell_length_c     38.139827
_cell_angle_alpha  93.341953
_cell_angle_beta   86.253543
_cell_angle_gamma 106.36015
loop_
_atom_site_label
_atom_site_type_symbol
_atom_site_fract_x
_atom_site_fract_y
_atom_site_fract_z
_atom_type_partial_charge
H0 H 0.33076 0.31894 0.22473 0.0
H1 H 0.40152 0.28977 0.14341 0.0
H2 H 0.35964 0.22392 0.22988 0.0
H3 H 0.3675 0.37566 0.20507 0.0
C4 C 0.35854 0.36695 0.17876 0.0
C5 C 0.34607 0.30137 0.21422 0.0
C6 C 0.34258 0.27072 0.23139 0.0
C7 C 0.3674 0.30848 0.18253 0.0
C8 C 0.38593 0.28488 0.16834 0.0
C9 C 0.38423 0.25497 0.18614 0.0
C10 C 0.36268 0.24814 0.21759 0.0
N11 N 0.36748 0.33742 0.16301 0.0
H12 H 0.21987 0.88402 0.66229 0.0
H13 H 0.22428 0.81568 0.57248 0.0
H14 H 0.3096 0.83825 0.64647 0.0
H15 H 0.2006 0.85908 0.54929 0.0
C16 C 0.18089 0.86302 0.56998 0.0
C17 C 0.23359 0.86721 0.6473 0.0
C18 C 0.26693 0.86356 0.65807 0.0
C19 C 0.21861 0.85079 0.61618 0.0
C20 C 0.23622 0.82915 0.59615 0.0
C21 C 0.26931 0.82486 0.60696 0.0
C22 C 0.28453 0.84228 0.63772 0.0
N23 N 0.18638 0.85754 0.60534 0.0
H24 H 0.71027 0.40952 0.85177 0.0
H25 H 0.61849 0.31835 0.84112 0.0
H26 H 0.70035 0.32322 0.91633 0.0
H27 H 0.61695 0.34282 0.78419 0.0
C28 C 0.62601 0.37068 0.78819 0.0
C29 C 0.69567 0.38378 0.85974 0.0
C30 C 0.71037 0.36849 0.88583 0.0
C31 C 0.66288 0.36625 0.84274 0.0
C32 C 0.64378 0.3321 0.85327 0.0
C33 C 0.65738 0.3158 0.87982 0.0
C34 C 0.6905 0.3347 0.89541 0.0
N35 N 0.65015 0.38466 0.81656 0.0
H36 H 0.80976 0.64192 0.34669 0.0
H37 H 0.88588 0.74193 0.33054 0.0
H38 H 0.80732 0.72613 0.41932 0.0
H39 H 0.82191 0.63297 0.2899 0.0
C40 C 0.85053 0.64679 0.28424 0.0
C41 C 0.82016 0.66895 0.35422 0.0
C42 C 0.80459 0.68175 0.38474 0.0
C43 C 0.84972 0.69058 0.33453 0.0
C44 C 0.86356 0.72536 0.34598 0.0
C45 C 0.84829 0.73892 0.37643 0.0
C46 C 0.81909 0.71652 0.39562 0.0
N47 N 0.86666 0.67806 0.30379 0.0
H48 H 0.64177 0.77462 0.92187 0.0
H49 H 0.70385 0.73814 0.8375 0.0
H50 H 0.6662 0.8272 0.82459 0.0
H51 H 0.67452 0.68498 0.86558 0.0
C52 C 0.6844 0.69626 0.89093 0.0
C53 C 0.65342 0.77643 0.89509 0.0
C54 C 0.65059 0.80304 0.87425 0.0
C55 C 0.67156 0.75227 0.88167 0.0
C56 C 0.68817 0.75559 0.84751 0.0
C57 C 0.68647 0.78258 0.82676 0.0
C58 C 0.66672 0.80563 0.83997 0.0
N59 N 0.676 0.72694 0.90401 0.0
H60 H 0.8519 0.24849 0.3416 0.0
H61 H 0.8594 0.31023 0.43764 0.0
H62 H 0.7541 0.24592 0.40653 0.0
H63 H 0.94695 0.31704 0.41071 0.0
C64 C 0.92464 0.29365 0.40706 0.0
C65 C 0.8386 0.25612 0.3655 0.0
C66 C 0.80035 0.2434 0.37172 0.0
C67 C 0.85996 0.2793 0.38972 0.0
C68 C 0.84293 0.291 0.41987 0.0
C69 C 0.80451 0.27954 0.42581 0.0
C70 C 0.78373 0.25486 0.4022 0.0
N71 N 0.89826 0.29291 0.38211 0.0
H72 H 0.32922 0.65462 0.22696 0.0
H73 H 0.42019 0.74748 0.22888 0.0
H74 H 0.33646 0.73421 0.15418 0.0
H75 H 0.36862 0.63192 0.25619 0.0
C76 C 0.38553 0.65247 0.27245 0.0
C77 C 0.34382 0.67928 0.21643 0.0
C78 C 0.32807 0.69205 0.18891 0.0
C79 C 0.37736 0.69897 0.23133 0.0
C80 C 0.39503 0.73205 0.21755 0.0
C81 C 0.38042 0.74558 0.18982 0.0
C82 C 0.34721 0.72486 0.17604 0.0
N83 N 0.39319 0.68741 0.26074 0.0
H84 H 0.1107 0.33168 0.71888 0.0
H85 H 0.21259 0.41215 0.72343 0.0
H86 H 0.1961 0.33504 0.63842 0.0
H87 H 0.19211 0.4003 0.78745 0.0
C88 C 0.16528 0.40422 0.7844 0.0
C89 C 0.13814 0.3436 0.70786 0.0
C90 C 0.15131 0.3291 0.67706 0.0
C91 C 0.16005 0.3735 0.72468 0.0
C92 C 0.19578 0.3892 0.71035 0.0
C93 C 0.20937 0.37566 0.67893 0.0
C94 C 0.18654 0.34571 0.66266 0.0
N95 N 0.14483 0.38818 0.75491 0.0
Ho96 Ho 1.00224 0.05672 0.48192 0.0
Ho97 Ho 0.96093 0.03185 0.55056 0.0
C98 C 0.02253 0.10413 0.55225 0.0
C99 C 0.02663 0.0804 0.42104 0.0
C100 C 0.06088 0.10482 0.40733 0.0
C101 C 0.06923 0.14039 0.41599 0.0
C102 C 0.10207 0.1629 0.40306 0.0
C103 C 0.12725 0.15023 0.38149 0.0
C104 C 0.11888 0.11471 0.37288 0.0
C105 C 0.08595 0.09229 0.38551 0.0
C106 C 0.03987 0.02903 0.52422 0.0
C107 C 0.94376 0.98103 0.48074 0.0
C108 C 0.92668 1.00124 0.60556 0.0
C109 C 0.90289 0.96746 0.61656 0.0
C110 C 0.9167 0.93918 0.6208 0.0
C111 C 0.89356 0.90863 0.63432 0.0
C112 C 0.85632 0.90592 0.64372 0.0
C113 C 0.84258 0.934 0.63849 0.0
C114 C 0.86558 0.96435 0.62522 0.0
C115 C 0.93906 0.08045 0.51932 0.0
O116 O 0.01939 0.10405 0.51785 0.0
O117 O 1.0074 0.07607 0.57025 0.0
O118 O 0.03 0.05126 0.43157 0.0
O119 O 1.00457 0.0932 0.44206 0.0
O120 O 0.05467 0.0553 0.50501 0.0
O121 O 1.00593 1.01821 0.51923 0.0
O122 O 0.93646 0.98561 0.51481 0.0
O123 O 0.96711 1.00521 0.46224 0.0
O124 O 0.91207 1.01735 0.58435 0.0
O125 O 0.9618 1.00479 0.59791 0.0
O126 O 0.94185 0.07975 0.55283 0.0
O127 O 0.94726 0.05492 0.50411 0.0
H128 H 0.05051 0.15091 0.43279 0.0
H129 H 0.10791 0.19016 0.41015 0.0
H130 H 0.13748 0.10432 0.35579 0.0
H131 H 0.08008 0.06505 0.37821 0.0
H132 H 0.94541 0.94087 0.61444 0.0
H133 H 0.90492 0.8874 0.63801 0.0
H134 H 0.81436 0.93323 0.64621 0.0
H135 H 0.85431 0.98588 0.6227 0.0
Ho136 Ho 0.55044 0.03752 0.04623 0.0
Ho137 Ho 0.48411 1.02023 1.01534 0.0
C138 C 0.48611 0.06616 0.08303 0.0
C139 C 0.61165 0.06594 0.07655 0.0
C140 C 0.6246 0.07887 0.11177 0.0
C141 C 0.62309 0.1116 0.12512 0.0
C142 C 0.63849 0.12484 0.157 0.0
C143 C 0.65576 0.1057 0.17621 0.0
C144 C 0.65642 0.07262 0.16326 0.0
C145 C 0.64115 0.05942 0.13129 0.0
C146 C 0.50684 0.97429 0.06862 0.0
C147 C 0.54893 0.99192 0.97831 0.0
C148 C 0.42207 0.99081 0.98682 0.0
C149 C 0.40751 0.98075 0.952 0.0
C150 C 0.37359 0.95577 0.94938 0.0
C151 C 0.3585 0.94614 0.91671 0.0
C152 C 0.37707 0.96147 0.88605 0.0
C153 C 0.41137 0.98638 0.8888 0.0
C154 C 0.42653 0.99593 0.92158 0.0
C155 C 0.52751 0.08346 0.99272 0.0
O156 O 0.52191 0.07269 0.07718 0.0
O157 O 0.46419 0.04007 0.06615 0.0
O158 O 0.59786 0.03274 0.07203 0.0
O159 O 0.59334 0.08319 0.06088 0.0
O160 O 0.5414 0.9818 0.05914 0.0
O161 O 0.49614 1.00119 0.06571 0.0
O162 O 0.51307 0.98561 0.98379 0.0
O163 O 0.57087 1.01752 0.9958 0.0
O164 O 0.43383 0.02378 0.99429 0.0
O165 O 0.44382 0.9739 0.99724 0.0
O166 O 0.49272 0.07556 1.00125 0.0
O167 O 0.53834 0.05666 0.9959 0.0
H168 H 0.61087 0.12742 0.11058 0.0
H169 H 0.63803 0.15065 0.16591 0.0
H170 H 0.66915 0.05707 0.17762 0.0
H171 H 0.64295 0.03422 0.12151 0.0
H172 H 0.35872 0.94371 0.97267 0.0
H173 H 0.33244 0.92639 0.91545 0.0
H174 H 0.42622 0.99884 0.86572 0.0
H175 H 0.45285 1.01527 0.92325 0.0
Ho176 Ho 0.51536 0.49532 0.5118 0.0
Ho177 Ho 0.50946 0.55324 0.56088 0.0
C178 C 0.5421 0.49688 0.59377 0.0
C179 C 0.54151 0.45094 0.47534 0.0
C180 C 0.56849 0.43263 0.48276 0.0
C181 C 0.59661 0.44746 0.50589 0.0
C182 C 0.62298 0.43056 0.51185 0.0
C183 C 0.62169 0.3985 0.49484 0.0
C184 C 0.59285 0.38331 0.47245 0.0
C185 C 0.56649 0.40028 0.46646 0.0
C186 C 0.44836 0.48518 0.54518 0.0
C187 C 0.48305 0.55172 0.47835 0.0
C188 C 0.48425 0.59794 0.59792 0.0
C189 C 0.46297 0.62172 0.59031 0.0
C190 C 0.4691 0.63922 0.55874 0.0
C191 C 0.44677 0.65988 0.55114 0.0
C192 C 0.41771 0.66297 0.5748 0.0
C193 C 0.41179 0.64544 0.60636 0.0
C194 C 0.43426 0.62506 0.61404 0.0
C195 C 0.57647 0.56261 0.52765 0.0
O196 O 0.54325 0.48487 0.56053 0.0
O197 O 0.52754 0.52288 0.60164 0.0
O198 O 0.51026 0.44239 0.49379 0.0
O199 O 0.55465 0.4843 0.47265 0.0
O200 O 0.45364 0.47548 0.51262 0.0
O201 O 0.47903 0.49844 0.55866 0.0
O202 O 0.48404 0.56566 0.51106 0.0
O203 O 0.49524 0.52416 0.47136 0.0
O204 O 0.51813 0.60464 0.58471 0.0
O205 O 0.46644 0.56529 0.59469 0.0
O206 O 0.57137 0.57193 0.56035 0.0
O207 O 0.54573 0.55011 0.51419 0.0
H208 H 0.59859 0.47239 0.51892 0.0
H209 H 0.6446 0.44275 0.5295 0.0
H210 H 0.59136 0.35885 0.45857 0.0
H211 H 0.54493 0.38842 0.44863 0.0
H212 H 0.49084 0.63664 0.5398 0.0
H213 H 0.45182 0.67298 0.52656 0.0
H214 H 0.38999 0.64778 0.62535 0.0
H215 H 0.42895 0.61154 0.63839 0.0
Ho216 Ho 0.01843 0.49642 0.05417 0.0
Ho217 Ho 0.01898 0.56239 0.02389 0.0
C218 C 0.0883 0.56524 0.06892 0.0
C219 C 0.03547 0.4432 0.07448 0.0
C220 C 0.07027 0.43682 0.08313 0.0
C221 C 0.10331 0.45115 0.06361 0.0
C222 C 0.13616 0.44521 0.07247 0.0
C223 C 0.13669 0.42532 0.10134 0.0
C224 C 0.10367 0.41132 0.12102 0.0
C225 C 0.07073 0.41691 0.11188 0.0
C226 C 0.97733 0.532 0.09244 0.0
C227 C 0.94965 0.49316 1.00815 0.0
C228 C 1.0011 0.61597 1.0059 0.0
C229 C 0.96675 0.62242 0.99572 0.0
C230 C 0.93459 0.61442 1.01789 0.0
C231 C 0.90231 0.6205 1.00758 0.0
C232 C 0.90143 0.63428 0.97479 0.0
C233 C 0.93354 0.6421 0.95261 0.0
C234 C 0.96592 0.63638 0.96307 0.0
C235 C 0.05964 0.52681 0.9846 0.0
O236 O 0.0761 0.531 0.06662 0.0
O237 O 0.06891 0.58415 0.05643 0.0
O238 O 0.02353 0.46436 0.09612 0.0
O239 O 0.03222 0.44865 0.04156 0.0
O240 O 0.96772 0.49872 0.08742 0.0
O241 O 1.00877 0.54459 0.07781 0.0
O242 O 0.96185 0.52743 1.01015 0.0
O243 O 0.9689 0.47435 0.02113 0.0
O244 O 0.01548 0.59693 0.9837 0.0
O245 O 1.00228 0.60835 0.03857 0.0
O246 O 0.06828 0.5602 0.9884 0.0
O247 O 0.02869 0.51419 1.00021 0.0
H248 H 0.10381 0.46711 0.04164 0.0
H249 H 0.16128 0.45665 0.05712 0.0
H250 H 0.10325 0.39571 0.14327 0.0
H251 H 0.04561 0.40579 0.12737 0.0
H252 H 0.93423 0.60335 0.04315 0.0
H253 H 0.87787 0.61393 0.02505 0.0
H254 H 0.93375 0.65308 0.92733 0.0
H255 H 0.99036 0.64279 0.94557 0.0
H256 H 0.34672 0.23551 0.29013 0.0
H257 H 0.13536 0.21168 0.35111 0.0
H258 H 0.27397 0.28105 0.23959 0.0
H259 H 0.19694 0.1426 0.37798 0.0
H260 H 0.19087 0.24732 0.32106 0.0
H261 H 0.29646 0.21092 0.33289 0.0
C262 C 0.3204 0.24067 0.28817 0.0
C263 C 0.31461 0.26015 0.26087 0.0
C264 C 0.19231 0.22455 0.33386 0.0
C265 C 0.25728 0.23251 0.31002 0.0
C266 C 0.16073 0.20434 0.35116 0.0
C267 C 0.16152 0.17397 0.36666 0.0
C268 C 0.22493 0.21442 0.33224 0.0
C269 C 0.19506 0.16552 0.36578 0.0
C270 C 0.29181 0.22672 0.31267 0.0
C271 C 0.28008 0.26658 0.26025 0.0
N272 N 0.22542 0.18553 0.34863 0.0
N273 N 0.2527 0.25258 0.28425 0.0
H274 H 0.33967 0.89554 0.66847 0.0
H275 H 0.30473 0.94814 0.87034 0.0
H276 H 0.2319 0.87311 0.72154 0.0
H277 H 0.41212 0.95107 0.82285 0.0
H278 H 0.27774 0.92722 0.81407 0.0
H279 H 0.36678 0.92251 0.72301 0.0
C280 C 0.3217 0.89622 0.69162 0.0
C281 C 0.28346 0.88172 0.69052 0.0
C282 C 0.30723 0.93255 0.81594 0.0
C283 C 0.31432 0.91301 0.7529 0.0
C284 C 0.32265 0.94434 0.84809 0.0
C285 C 0.36073 0.95104 0.85144 0.0
C286 C 0.33002 0.92752 0.78683 0.0
C287 C 0.38269 0.94646 0.82147 0.0
C288 C 0.3372 0.91178 0.72269 0.0
C289 C 0.26147 0.88413 0.7211 0.0
N290 N 0.36698 0.93483 0.79045 0.0
N291 N 0.27724 0.89934 0.75109 0.0
H292 H 0.63007 0.44188 0.78843 0.0
H293 H 0.561 0.4351 0.59024 0.0
H294 H 0.59794 0.34863 0.72371 0.0
H295 H 0.55604 0.51847 0.66426 0.0
H296 H 0.58176 0.40649 0.6367 0.0
H297 H 0.61061 0.4731 0.74252 0.0
C298 C 0.61923 0.42787 0.76462 0.0
C299 C 0.61591 0.39217 0.76043 0.0
C300 C 0.57626 0.43108 0.64296 0.0
C301 C 0.5936 0.42839 0.70677 0.0
C302 C 0.56436 0.44769 0.61615 0.0
C303 C 0.55633 0.47964 0.62267 0.0
C304 C 0.58114 0.44633 0.67722 0.0
C305 C 0.56157 0.49399 0.65741 0.0
C306 C 0.6079 0.44581 0.73828 0.0
C307 C 0.60124 0.37595 0.7286 0.0
N308 N 0.57366 0.47753 0.68295 0.0
N309 N 0.59107 0.39393 0.70339 0.0
H310 H 0.92187 0.67349 0.25558 0.0
H311 H 0.90957 0.50755 0.12506 0.0
H312 H 0.82511 0.58713 0.24631 0.0
H313 H 1.00177 0.59874 0.12007 0.0
H314 H 0.87934 0.53661 0.17055 0.0
H315 H 0.95286 0.64709 0.20749 0.0
C316 C 0.90714 0.64904 0.24345 0.0
C317 C 0.8708 0.63245 0.25504 0.0
C318 C 0.90613 0.55045 0.15953 0.0
C319 C 0.9061 0.60205 0.20012 0.0
C320 C 0.92344 0.5338 0.13348 0.0
C321 C 0.95831 0.55065 0.11875 0.0
C322 C 0.92382 0.58431 0.1714 0.0
C323 C 0.97486 0.58476 0.1307 0.0
C324 C 0.92481 0.634 0.21595 0.0
C325 C 0.85311 0.60083 0.23828 0.0
N326 N 0.9576 0.60039 0.15645 0.0
N327 N 0.87087 0.5867 0.21192 0.0
H328 H 0.37359 0.22141 0.1221 0.0
H329 H 0.51964 0.11611 0.13155 0.0
H330 H 0.43386 0.22874 0.2156 0.0
H331 H 0.41778 0.07482 0.07936 0.0
H332 H 0.49582 0.16308 0.15779 0.0
H333 H 0.39809 0.17383 0.09929 0.0
C334 C 0.39245 0.21328 0.13751 0.0
C335 C 0.40193 0.22892 0.17061 0.0
C336 C 0.47867 0.14343 0.14088 0.0
C337 C 0.42985 0.1748 0.14492 0.0
C338 C 0.49213 0.11664 0.12603 0.0
C339 C 0.47057 0.09145 0.10339 0.0
C340 C 0.44393 0.14545 0.13218 0.0
C341 C 0.43523 0.0935 0.09689 0.0
C342 C 0.40607 0.18601 0.12472 0.0
C343 C 0.42604 0.21722 0.1899 0.0
N344 N 0.42322 0.12031 0.11079 0.0
N345 N 0.43942 0.19092 0.17667 0.0
H346 H 0.12025 0.87066 0.60926 0.0
H347 H 0.11286 0.03544 0.51045 0.0
H348 H 0.18749 0.90486 0.51548 0.0
H349 H 0.0151 0.9709 0.56218 0.0
H350 H 0.14585 0.99344 0.52153 0.0
H351 H 0.08518 0.91184 0.60017 0.0
C352 C 0.1274 0.88667 0.58663 0.0
C353 C 0.15676 0.88456 0.56304 0.0
C354 C 0.11723 0.98861 0.5306 0.0
C355 C 0.11762 0.93194 0.55312 0.0
C356 C 0.09849 1.01267 0.5246 0.0
C357 C 0.06118 1.00647 0.5353 0.0
C358 C 0.09871 0.95847 0.54795 0.0
C359 C 0.04387 0.97651 0.55347 0.0
C360 C 0.10745 0.91009 0.58152 0.0
C361 C 0.16494 0.90573 0.53414 0.0
N362 N 0.06283 0.95352 0.5593 0.0
N363 N 0.14576 0.92891 0.53021 0.0
H364 H 0.7639 0.34153 0.91019 0.0
H365 H 0.89992 0.52241 0.98018 0.0
H366 H 0.74066 0.43917 0.90181 0.0
H367 H 0.91693 0.42325 0.99484 0.0
H368 H 0.84292 0.49327 0.95062 0.0
H369 H 0.82006 0.37133 0.93979 0.0
C370 C 0.77014 0.3692 0.91467 0.0
C371 C 0.74635 0.38735 0.90331 0.0
C372 C 0.85905 0.47782 0.96031 0.0
C373 C 0.81265 0.42243 0.93745 0.0
C374 C 0.89183 0.49452 0.97734 0.0
C375 C 0.91388 0.47555 0.99041 0.0
C376 C 0.84767 0.44155 0.95586 0.0
C377 C 0.90129 0.43931 0.98553 0.0
C378 C 0.80275 0.38636 0.93155 0.0
C379 C 0.75761 0.42359 0.9095 0.0
N380 N 0.86946 0.42374 0.9688 0.0
N381 N 0.78953 0.43968 0.92601 0.0
H382 H 0.74254 0.63485 0.35994 0.0
H383 H 0.64371 0.59727 0.55202 0.0
H384 H 0.79368 0.67748 0.45652 0.0
H385 H 0.58968 0.55751 0.45614 0.0
H386 H 0.70059 0.62262 0.51736 0.0
H387 H 0.68837 0.60208 0.39439 0.0
C388 C 0.7426 0.63703 0.38837 0.0
C389 C 0.77271 0.65926 0.40527 0.0
C390 C 0.6764 0.60819 0.50382 0.0
C391 C 0.71049 0.62199 0.44498 0.0
C392 C 0.6439 0.59365 0.52365 0.0
C393 C 0.61183 0.57541 0.50696 0.0
C394 C 0.67697 0.60459 0.4669 0.0
C395 C 0.61375 0.57144 0.4701 0.0
C396 C 0.71153 0.61846 0.40805 0.0
C397 C 0.77095 0.6612 0.44226 0.0
N398 N 0.64566 0.58608 0.45131 0.0
N399 N 0.74042 0.64301 0.46076 0.0
H400 H 0.32297 0.40989 0.21254 0.0
H401 H 0.18829 0.40534 0.05812 0.0
H402 H 0.32743 0.35241 0.11427 0.0
H403 H 0.16437 0.43165 0.16658 0.0
H404 H 0.245 0.39403 0.07521 0.0
H405 H 0.2706 0.42678 0.19275 0.0
C406 C 0.31311 0.40114 0.18663 0.0
C407 C 0.32932 0.37961 0.16509 0.0
C408 C 0.22734 0.40234 0.09521 0.0
C409 C 0.26952 0.39873 0.14228 0.0
C410 C 0.19513 0.40895 0.08548 0.0
C411 C 0.17156 0.41926 0.11103 0.0
C412 C 0.23627 0.40657 0.13066 0.0
C413 C 0.18157 0.42334 0.14613 0.0
C414 C 0.28315 0.41062 0.17544 0.0
C415 C 0.31555 0.36891 0.13177 0.0
N416 N 0.2132 0.41706 0.1549 0.0
N417 N 0.28635 0.37856 0.12138 0.0
H418 H 0.68783 0.26402 0.89667 0.0
H419 H 0.49889 0.13499 0.97484 0.0
H420 H 0.58203 0.28335 0.89307 0.0
H421 H 0.60178 0.10888 0.96797 0.0
H422 H 0.52905 0.1889 0.94588 0.0
H423 H 0.6577 0.20832 0.92252 0.0
C424 C 0.6582 0.25676 0.9012 0.0
C425 C 0.63787 0.2794 0.89251 0.0
C426 C 0.54522 0.17152 0.9505 0.0
C427 C 0.6025 0.21405 0.92287 0.0
C428 C 0.52792 0.14039 0.96722 0.0
C429 C 0.54744 0.11659 0.97411 0.0
C430 C 0.58298 0.17998 0.94036 0.0
C431 C 0.58521 0.12591 0.96336 0.0
C432 C 0.64091 0.22455 0.91603 0.0
C433 C 0.59929 0.26733 0.89885 0.0
N434 N 0.60156 0.15661 0.94731 0.0
N435 N 0.58318 0.23602 0.91371 0.0
H436 H 0.91947 0.78252 0.37098 0.0
H437 H 0.88113 0.93082 0.50076 0.0
H438 H 0.80945 0.78138 0.40986 0.0
H439 H 0.97007 0.95232 0.42135 0.0
H440 H 0.85742 0.87296 0.47335 0.0
H441 H 0.94161 0.8422 0.39392 0.0
C442 C 0.89981 0.79463 0.38401 0.0
C443 C 0.86241 0.77618 0.38865 0.0
C444 C 0.88199 0.89047 0.46182 0.0
C445 C 0.8881 0.84457 0.41597 0.0
C446 C 0.89556 0.92349 0.47747 0.0
C447 C 0.92751 0.94664 0.46324 0.0
C448 C 0.90097 0.88009 0.43221 0.0
C449 C 0.94514 0.93552 0.43306 0.0
C450 C 0.91262 0.82875 0.39731 0.0
C451 C 0.83867 0.79369 0.40641 0.0
N452 N 0.9319 0.90299 0.41881 0.0
N453 N 0.85194 0.82656 0.41968 0.0
H454 H 0.23987 0.75658 0.58959 0.0
H455 H 0.43923 0.72826 0.55019 0.0
H456 H 0.3408 0.83887 0.58231 0.0
H457 H 0.34267 0.64822 0.58278 0.0
H458 H 0.40068 0.76713 0.54579 0.0
H459 H 0.27442 0.71508 0.57062 0.0
C460 C 0.26913 0.76594 0.583 0.0
C461 C 0.28771 0.80099 0.58782 0.0
C462 C 0.38786 0.74091 0.55344 0.0
C463 C 0.3273 0.75399 0.5667 0.0
C464 C 0.40982 0.71869 0.5558 0.0
C465 C 0.39417 0.68519 0.56744 0.0
C466 C 0.35001 0.72948 0.56266 0.0
C467 C 0.35592 0.67413 0.57446 0.0
C468 C 0.28886 0.74231 0.57249 0.0
C469 C 0.32564 0.81191 0.57925 0.0
N470 N 0.33518 0.69632 0.5723 0.0
N471 N 0.3443 0.78844 0.56949 0.0
H472 H 0.6671 0.80023 0.76382 0.0
H473 H 0.87471 0.87039 0.69544 0.0
H474 H 0.75792 0.78148 0.81421 0.0
H475 H 0.7832 0.87323 0.6351 0.0
H476 H 0.83224 0.83014 0.73443 0.0
H477 H 0.70825 0.82026 0.71254 0.0
C478 C 0.69557 0.79988 0.76385 0.0
C479 C 0.70918 0.78948 0.79341 0.0
C480 C 0.82148 0.83907 0.7123 0.0
C481 C 0.7565 0.81256 0.73506 0.0
C482 C 0.84582 0.86189 0.68981 0.0
C483 C 0.83241 0.8758 0.66236 0.0
C484 C 0.78344 0.83042 0.70754 0.0
C485 C 0.7946 0.86391 0.65655 0.0
C486 C 0.71904 0.81116 0.73455 0.0
C487 C 0.7462 0.78914 0.79194 0.0
N488 N 0.77135 0.84243 0.67935 0.0
N489 N 0.76869 0.80103 0.76351 0.0
H490 H 0.73375 0.24584 0.34999 0.0
H491 H 0.72209 0.10125 0.19717 0.0
H492 H 0.81439 0.18869 0.33272 0.0
H493 H 0.63322 0.14573 0.2286 0.0
H494 H 0.75569 0.13139 0.24746 0.0
H495 H 0.69632 0.20846 0.30614 0.0
C496 C 0.74342 0.22512 0.33731 0.0
C497 C 0.77724 0.22029 0.34527 0.0
C498 C 0.7287 0.13432 0.2435 0.0
C499 C 0.73468 0.17774 0.29421 0.0
C500 C 0.70936 0.11693 0.21492 0.0
C501 C 0.67486 0.12118 0.20846 0.0
C502 C 0.71357 0.15631 0.26564 0.0
C503 C 0.66004 0.14224 0.23212 0.0
C504 C 0.72205 0.20386 0.31208 0.0
C505 C 0.7887 0.19356 0.32717 0.0
N506 N 0.6796 0.15922 0.25948 0.0
N507 N 0.76751 0.17335 0.30235 0.0
H508 H 0.42129 0.69021 0.33188 0.0
H509 H 0.46441 0.52419 0.41139 0.0
H510 H 0.3879 0.58738 0.28531 0.0
H511 H 0.46893 0.6163 0.47564 0.0
H512 H 0.44243 0.5496 0.36326 0.0
H513 H 0.44451 0.66715 0.38191 0.0
C514 C 0.41902 0.66292 0.33181 0.0
C515 C 0.40244 0.64096 0.30364 0.0
C516 C 0.44817 0.56444 0.38781 0.0
C517 C 0.42956 0.61401 0.36157 0.0
C518 C 0.46089 0.5498 0.41564 0.0
C519 C 0.46873 0.56765 0.44843 0.0
C520 C 0.44344 0.5979 0.39171 0.0
C521 C 0.46328 0.60105 0.45134 0.0
C522 C 0.4322 0.64963 0.36067 0.0
C523 C 0.40034 0.60565 0.30594 0.0
N524 N 0.45136 0.61495 0.42365 0.0
N525 N 0.41369 0.5936 0.33375 0.0
H526 H 0.17866 0.40651 0.85388 0.0
H527 H 0.08184 0.54919 0.91838 0.0
H528 H 0.11402 0.44071 0.78241 0.0
H529 H 0.07217 0.46309 0.98328 0.0
H530 H 0.10579 0.5183 0.86909 0.0
H531 H 0.1518 0.43526 0.90301 0.0
C532 C 0.15879 0.42007 0.84857 0.0
C533 C 0.14832 0.42102 0.8141 0.0
C534 C 0.0984 0.50624 0.89417 0.0
C535 C 0.11846 0.45477 0.86993 0.0
C536 C 0.08497 0.52387 0.92233 0.0
C537 C 0.07495 0.50862 0.955 0.0
C538 C 0.10301 0.47359 0.89901 0.0
C539 C 0.07937 0.47567 0.95856 0.0
C540 C 0.14346 0.43633 0.87657 0.0
C541 C 0.12257 0.43907 0.80863 0.0
N542 N 0.09354 0.45943 0.93108 0.0
N543 N 0.10889 0.45565 0.83618 0.0
H544 H 0.66729 0.84197 0.93474 0.0
H545 H 0.51455 0.94079 0.93116 0.0
H546 H 0.5973 0.82642 0.84705 0.0
H547 H 0.61859 0.98551 0.9787 0.0
H548 H 0.53898 0.89458 0.90401 0.0
H549 H 0.64323 0.88984 0.95703 0.0
C550 C 0.64651 0.84843 0.92045 0.0
C551 C 0.63408 0.83024 0.88916 0.0
C552 C 0.55647 0.91481 0.92007 0.0
C553 C 0.60659 0.88487 0.91433 0.0
C554 C 0.54264 0.94118 0.93547 0.0
C555 C 0.56456 0.96705 0.95722 0.0
C556 C 0.59208 0.91397 0.92722 0.0
C557 C 0.60072 0.96622 0.96204 0.0
C558 C 0.63309 0.8759 0.93294 0.0
C559 C 0.60751 0.83991 0.87131 0.0
N560 N 0.61314 0.93985 0.9476 0.0
N561 N 0.59439 0.86648 0.88428 0.0
H562 H 0.95625 0.28954 0.46781 0.0
H563 H 0.92426 0.08549 0.45076 0.0
H564 H 0.89674 0.22606 0.38408 0.0
H565 H 0.94717 0.14473 0.54852 0.0
H566 H 0.92025 0.13758 0.42293 0.0
H567 H 0.95964 0.23721 0.49526 0.0
C568 C 0.94369 0.26455 0.45541 0.0
C569 C 0.9256 0.26202 0.42412 0.0
C570 C 0.92601 0.13905 0.45051 0.0
C571 C 0.92986 0.20231 0.45476 0.0
C572 C 0.92837 0.10945 0.46628 0.0
C573 C 0.93588 0.11094 0.5019 0.0
C574 C 0.93171 0.17028 0.47049 0.0
C575 C 0.94105 0.14249 0.521 0.0
C576 C 0.94558 0.23477 0.47102 0.0
C577 C 0.91013 0.22913 0.40872 0.0
N578 N 0.93907 0.17097 0.50502 0.0
N579 N 0.91275 0.20052 0.42414 0.0
H580 H 0.27306 0.71748 0.16622 0.0
H581 H 0.13831 0.53591 0.09651 0.0
H582 H 0.29793 0.62077 0.17555 0.0
H583 H 0.12079 0.63501 0.08258 0.0
H584 H 0.19523 0.56511 0.12632 0.0
H585 H 0.21681 0.68687 0.13741 0.0
C586 C 0.26706 0.68977 0.16213 0.0
C587 C 0.29144 0.67216 0.17328 0.0
C588 C 0.179 0.58051 0.11673 0.0
C589 C 0.22503 0.6361 0.13996 0.0
C590 C 0.14628 0.56379 0.09955 0.0
C591 C 0.12413 0.58275 0.08661 0.0
C592 C 0.19013 0.61676 0.12146 0.0
C593 C 0.13652 0.61895 0.09176 0.0
C594 C 0.23443 0.67215 0.14566 0.0
C595 C 0.28052 0.63587 0.16775 0.0
N596 N 0.16824 0.6345 0.10861 0.0
N597 N 0.24852 0.61926 0.1515 0.0
H598 H 0.25707 0.34519 0.64023 0.0
H599 H 0.4295 0.50392 0.61283 0.0
H600 H 0.24839 0.44524 0.67954 0.0
H601 H 0.38752 0.43452 0.52548 0.0
H602 H 0.37159 0.47917 0.64709 0.0
H603 H 0.31401 0.37341 0.60771 0.0
C604 C 0.26672 0.37306 0.64204 0.0
C605 C 0.24674 0.39268 0.66224 0.0
C606 C 0.37514 0.46966 0.62033 0.0
C607 C 0.31363 0.42499 0.62605 0.0
C608 C 0.40804 0.48379 0.60072 0.0
C609 C 0.4132 0.47162 0.56603 0.0
C610 C 0.34786 0.44231 0.60556 0.0
C611 C 0.38469 0.4449 0.55199 0.0
C612 C 0.29955 0.38906 0.62357 0.0
C613 C 0.26243 0.42875 0.66458 0.0
N614 N 0.3535 0.43083 0.57194 0.0
N615 N 0.29497 0.44372 0.64678 0.0
H616 H 0.71696 0.71699 0.95408 0.0
H617 H 0.87027 0.61782 0.91115 0.0
H618 H 0.71651 0.64802 0.86337 0.0
H619 H 0.85482 0.66511 1.01318 0.0
H620 H 0.81491 0.63018 0.89258 0.0
H621 H 0.76797 0.69942 0.97613 0.0
C622 C 0.72741 0.69793 0.93896 0.0
C623 C 0.7127 0.68397 0.90678 0.0
C624 C 0.82348 0.6377 0.91911 0.0
C625 C 0.77115 0.6641 0.93159 0.0
C626 C 0.8552 0.63084 0.92962 0.0
C627 C 0.8672 0.6406 0.96368 0.0
C628 C 0.80381 0.65482 0.94268 0.0
C629 C 0.84637 0.65699 0.98673 0.0
C630 C 0.75649 0.68791 0.95156 0.0
C631 C 0.72717 0.65937 0.8883 0.0
N632 N 0.81584 0.66385 0.97572 0.0
N633 N 0.75582 0.65043 0.90079 0.0
H634 H 0.34829 0.79452 0.16798 0.0
H635 H 0.53599 0.92353 0.08764 0.0
H636 H 0.45533 0.77903 0.17614 0.0
H637 H 0.43281 0.94909 0.09404 0.0
H638 H 0.50637 0.87036 0.11804 0.0
H639 H 0.37749 0.84937 0.14 0.0
C640 C 0.37798 0.80239 0.16394 0.0
C641 C 0.39898 0.78115 0.17466 0.0
C642 C 0.49001 0.88746 0.113 0.0
C643 C 0.43322 0.84545 0.14186 0.0
C644 C 0.507 0.91814 0.09543 0.0
C645 C 0.48724 0.94156 0.08801 0.0
C646 C 0.45232 0.87903 0.12339 0.0
C647 C 0.44954 0.93233 0.09905 0.0
C648 C 0.39472 0.83413 0.14793 0.0
C649 C 0.43755 0.79398 0.16883 0.0
N650 N 0.43347 0.90201 0.11587 0.0
N651 N 0.45312 0.82474 0.15279 0.0
H652 H 0.11086 0.26924 0.70795 0.0
H653 H 0.05735 0.16626 0.52365 0.0
H654 H 0.14104 0.31402 0.6066 0.0
H655 H 0.03091 0.11781 0.62357 0.0
H656 H 0.08641 0.2208 0.55424 0.0
H657 H 0.07889 0.21438 0.6784 0.0
C658 C 0.11045 0.26769 0.67953 0.0
C659 C 0.12895 0.29636 0.6598 0.0
C660 C 0.07434 0.19828 0.56957 0.0
C661 C 0.09268 0.23341 0.6257 0.0
C662 C 0.05773 0.16696 0.55206 0.0
C663 C 0.04164 0.13713 0.57095 0.0
C664 C 0.07496 0.20016 0.60645 0.0
C665 C 0.04303 0.13999 0.60781 0.0
C666 C 0.09243 0.23625 0.66265 0.0
C667 C 0.12773 0.29258 0.62297 0.0
N668 N 0.05933 0.17089 0.62432 0.0
N669 N 0.11008 0.26182 0.60723 0.0
H670 H 0.74468 0.2505 0.46976 0.0
H671 H 0.69586 0.42964 0.49462 0.0
H672 H 0.81872 0.3487 0.44162 0.0
H673 H 0.616 0.33003 0.50246 0.0
H674 H 0.74518 0.40149 0.49185 0.0
H675 H 0.70244 0.2806 0.49885 0.0
C676 C 0.75248 0.27844 0.47045 0.0
C677 C 0.78488 0.29707 0.45249 0.0
C678 C 0.71689 0.38582 0.49473 0.0
C679 C 0.73665 0.33158 0.48552 0.0
C680 C 0.68868 0.40189 0.49649 0.0
C681 C 0.6517 0.3821 0.49823 0.0
C682 C 0.70809 0.34969 0.49464 0.0
C683 C 0.64411 0.34621 0.50031 0.0
C684 C 0.72832 0.29558 0.48698 0.0
C685 C 0.79399 0.33323 0.45492 0.0
N686 N 0.67205 0.33112 0.49805 0.0
N687 N 0.76965 0.34929 0.47047 0.0
loop_
_geom_bond_atom_site_label_1
_geom_bond_atom_site_label_2
_geom_bond_distance
_geom_bond_site_symmetry_2
_ccdc_geom_bond_type
H0 C5 0.930 . S
H1 C8 0.930 . S
H2 C10 0.930 . S
H3 C4 1.016 . S
C4 H3 1.016 . S
C4 N11 1.286 . S
C5 H0 0.930 . S
C5 C6 1.397 . S
C5 C7 1.361 . S
C6 C5 1.397 . S
C6 C10 1.390 . S
C7 C5 1.361 . S
C7 C8 1.393 . S
C7 N11 1.413 . S
C8 H1 0.930 . S
C8 C7 1.393 . S
C8 C9 1.399 . S
C9 C8 1.399 . S
C9 C10 1.381 . S
C10 H2 0.930 . S
C10 C6 1.390 . S
C10 C9 1.381 . S
N11 C4 1.286 . S
N11 C7 1.413 . S
H12 C17 0.930 . S
H13 C20 0.930 . S
H14 C22 0.930 . S
H15 C16 1.016 . S
C16 H15 1.016 . S
C16 N23 1.286 . S
C17 H12 0.930 . S
C17 C18 1.397 . S
C17 C19 1.361 . S
C18 C17 1.397 . S
C18 C22 1.390 . S
C19 C17 1.361 . S
C19 C20 1.393 . S
C19 N23 1.413 . S
C20 H13 0.930 . S
C20 C19 1.393 . S
C20 C21 1.399 . S
C21 C20 1.399 . S
C21 C22 1.381 . S
C22 H14 0.930 . S
C22 C18 1.390 . S
C22 C21 1.381 . S
N23 C16 1.286 . S
N23 C19 1.413 . S
H24 C29 0.930 . S
H25 C32 0.930 . S
H26 C34 0.930 . S
H27 C28 1.016 . S
C28 H27 1.016 . S
C28 N35 1.286 . S
C29 H24 0.930 . S
C29 C30 1.397 . S
C29 C31 1.361 . S
C30 C29 1.397 . S
C30 C34 1.390 . S
C31 C29 1.361 . S
C31 C32 1.393 . S
C31 N35 1.413 . S
C32 H25 0.930 . S
C32 C31 1.393 . S
C32 C33 1.399 . S
C33 C32 1.399 . S
C33 C34 1.381 . S
C34 H26 0.930 . S
C34 C30 1.390 . S
C34 C33 1.381 . S
N35 C28 1.286 . S
N35 C31 1.413 . S
H36 C41 0.930 . S
H37 C44 0.930 . S
H38 C46 0.930 . S
H39 C40 1.016 . S
C40 H39 1.016 . S
C40 N47 1.286 . S
C41 H36 0.930 . S
C41 C42 1.397 . S
C41 C43 1.361 . S
C42 C41 1.397 . S
C42 C46 1.390 . S
C43 C41 1.361 . S
C43 C44 1.393 . S
C43 N47 1.413 . S
C44 H37 0.930 . S
C44 C43 1.393 . S
C44 C45 1.399 . S
C45 C44 1.399 . S
C45 C46 1.381 . S
C46 H38 0.930 . S
C46 C42 1.390 . S
C46 C45 1.381 . S
N47 C40 1.286 . S
N47 C43 1.413 . S
H48 C53 0.930 . S
H49 C56 0.930 . S
H50 C58 0.930 . S
H51 C52 1.016 . S
C52 H51 1.016 . S
C52 N59 1.286 . S
C53 H48 0.930 . S
C53 C54 1.397 . S
C53 C55 1.361 . S
C54 C53 1.397 . S
C54 C58 1.390 . S
C55 C53 1.361 . S
C55 C56 1.393 . S
C55 N59 1.413 . S
C56 H49 0.930 . S
C56 C55 1.393 . S
C56 C57 1.399 . S
C57 C56 1.399 . S
C57 C58 1.381 . S
C58 H50 0.930 . S
C58 C54 1.390 . S
C58 C57 1.381 . S
N59 C52 1.286 . S
N59 C55 1.413 . S
H60 C65 0.930 . S
H61 C68 0.930 . S
H62 C70 0.930 . S
H63 C64 1.016 . S
C64 H63 1.016 . S
C64 N71 1.286 . S
C65 H60 0.930 . S
C65 C66 1.397 . S
C65 C67 1.361 . S
C66 C65 1.397 . S
C66 C70 1.390 . S
C67 C65 1.361 . S
C67 C68 1.393 . S
C67 N71 1.413 . S
C68 H61 0.930 . S
C68 C67 1.393 . S
C68 C69 1.399 . S
C69 C68 1.399 . S
C69 C70 1.381 . S
C70 H62 0.930 . S
C70 C66 1.390 . S
C70 C69 1.381 . S
N71 C64 1.286 . S
N71 C67 1.413 . S
H72 C77 0.930 . S
H73 C80 0.930 . S
H74 C82 0.930 . S
H75 C76 1.016 . S
C76 H75 1.016 . S
C76 N83 1.286 . S
C77 H72 0.930 . S
C77 C78 1.397 . S
C77 C79 1.361 . S
C78 C77 1.397 . S
C78 C82 1.390 . S
C79 C77 1.361 . S
C79 C80 1.393 . S
C79 N83 1.413 . S
C80 H73 0.930 . S
C80 C79 1.393 . S
C80 C81 1.399 . S
C81 C80 1.399 . S
C81 C82 1.381 . S
C82 H74 0.930 . S
C82 C78 1.390 . S
C82 C81 1.381 . S
N83 C76 1.286 . S
N83 C79 1.413 . S
H84 C89 0.930 . S
H85 C92 0.930 . S
H86 C94 0.930 . S
H87 C88 1.016 . S
C88 H87 1.016 . S
C88 N95 1.286 . S
C89 H84 0.930 . S
C89 C90 1.397 . S
C89 C91 1.361 . S
C90 C89 1.397 . S
C90 C94 1.390 . S
C91 C89 1.361 . S
C91 C92 1.393 . S
C91 N95 1.413 . S
C92 H85 0.930 . S
C92 C91 1.393 . S
C92 C93 1.399 . S
C93 C92 1.399 . S
C93 C94 1.381 . S
C94 H86 0.930 . S
C94 C90 1.390 . S
C94 C93 1.381 . S
N95 C88 1.286 . S
N95 C91 1.413 . S
Ho96 C99 2.811 . S
Ho96 O116 2.322 . S
Ho96 O118 2.378 . S
Ho96 O119 2.524 . S
Ho96 O120 2.381 1_545 S
Ho96 O121 2.669 1_545 S
Ho96 O123 2.346 1_445 S
Ho96 O127 2.305 1_455 S
Ho97 C108 2.811 . S
Ho97 O117 2.345 1_665 S
Ho97 O121 2.305 1_655 S
Ho97 O122 2.322 . S
Ho97 O124 2.378 . S
Ho97 O125 2.524 . S
Ho97 O126 2.380 1_565 S
Ho97 O127 2.669 1_565 S
C98 O116 1.259 . S
C98 O117 1.268 . S
C99 Ho96 2.811 . S
C99 C100 1.488 . S
C99 O118 1.215 . S
C99 O119 1.289 . S
C100 C99 1.488 . S
C100 C101 1.348 . S
C100 C105 1.413 . S
C101 C100 1.348 . S
C101 C102 1.442 . S
C101 H128 0.930 . S
C102 C101 1.442 . S
C102 C103 1.381 . S
C102 H129 0.931 . S
C103 C102 1.381 . S
C103 C104 1.321 . S
C104 C103 1.321 . S
C104 C105 1.403 . S
C104 H130 0.934 . S
C105 C100 1.413 . S
C105 C104 1.403 . S
C105 H131 0.930 . S
C106 O120 1.275 . S
C106 O121 1.256 . S
C107 O122 1.259 . S
C107 O123 1.268 . S
C108 Ho97 2.811 . S
C108 C109 1.488 . S
C108 O124 1.215 . S
C108 O125 1.289 . S
C109 C108 1.488 . S
C109 C110 1.348 . S
C109 C114 1.413 . S
C110 C109 1.348 . S
C110 C111 1.442 . S
C110 H132 0.930 . S
C111 C110 1.442 . S
C111 C112 1.381 . S
C111 H133 0.931 . S
C112 C111 1.381 . S
C112 C113 1.321 . S
C113 C112 1.321 . S
C113 C114 1.403 . S
C113 H134 0.934 . S
C114 C109 1.413 . S
C114 C113 1.403 . S
C114 H135 0.930 . S
C115 O126 1.275 . S
C115 O127 1.256 . S
O116 Ho96 2.322 . S
O116 C98 1.259 . S
O117 Ho97 2.345 1_445 S
O117 C98 1.268 . S
O118 Ho96 2.378 . S
O118 C99 1.215 . S
O119 Ho96 2.524 . S
O119 C99 1.289 . S
O120 Ho96 2.381 1_565 S
O120 C106 1.275 . S
O121 Ho96 2.669 1_565 S
O121 Ho97 2.305 1_455 S
O121 C106 1.256 . S
O122 Ho97 2.322 . S
O122 C107 1.259 . S
O123 Ho96 2.346 1_665 S
O123 C107 1.268 . S
O124 Ho97 2.378 . S
O124 C108 1.215 . S
O125 Ho97 2.524 . S
O125 C108 1.289 . S
O126 Ho97 2.380 1_545 S
O126 C115 1.275 . S
O127 Ho96 2.305 1_655 S
O127 Ho97 2.669 1_545 S
O127 C115 1.256 . S
H128 C101 0.930 . S
H129 C102 0.931 . S
H130 C104 0.934 . S
H131 C105 0.930 . S
H132 C110 0.930 . S
H133 C111 0.931 . S
H134 C113 0.934 . S
H135 C114 0.930 . S
Ho136 C139 2.811 . S
Ho136 O156 2.322 . S
Ho136 O158 2.378 . S
Ho136 O159 2.524 . S
Ho136 O160 2.381 1_545 S
Ho136 O161 2.669 1_545 S
Ho136 O163 2.346 1_544 S
Ho136 O167 2.302 1_554 S
Ho137 C148 2.811 1_545 S
Ho137 O157 2.346 1_556 S
Ho137 O161 2.305 1_546 S
Ho137 O162 2.322 1_545 S
Ho137 O164 2.378 1_545 S
Ho137 O165 2.524 1_545 S
Ho137 O166 2.381 . S
Ho137 O167 2.670 . S
C138 O156 1.259 . S
C138 O157 1.268 . S
C139 Ho136 2.811 . S
C139 C140 1.488 . S
C139 O158 1.215 . S
C139 O159 1.289 . S
C140 C139 1.488 . S
C140 C141 1.348 . S
C140 C145 1.413 . S
C141 C140 1.348 . S
C141 C142 1.442 . S
C141 H168 0.930 . S
C142 C141 1.442 . S
C142 C143 1.381 . S
C142 H169 0.931 . S
C143 C142 1.381 . S
C143 C144 1.321 . S
C144 C143 1.321 . S
C144 C145 1.403 . S
C144 H170 0.934 . S
C145 C140 1.413 . S
C145 C144 1.403 . S
C145 H171 0.930 . S
C146 O160 1.275 . S
C146 O161 1.256 . S
C147 O162 1.259 . S
C147 O163 1.268 . S
C148 Ho137 2.811 1_565 S
C148 C149 1.488 . S
C148 O164 1.215 . S
C148 O165 1.289 . S
C149 C148 1.488 . S
C149 C150 1.348 . S
C149 C154 1.413 . S
C150 C149 1.348 . S
C150 C151 1.442 . S
C150 H172 0.930 . S
C151 C150 1.442 . S
C151 C152 1.381 . S
C151 H173 0.931 . S
C152 C151 1.381 . S
C152 C153 1.321 . S
C153 C152 1.321 . S
C153 C154 1.403 . S
C153 H174 0.934 . S
C154 C149 1.413 . S
C154 C153 1.403 . S
C154 H175 0.930 . S
C155 O166 1.275 . S
C155 O167 1.259 . S
O156 Ho136 2.322 . S
O156 C138 1.259 . S
O157 Ho137 2.346 1_554 S
O157 C138 1.268 . S
O158 Ho136 2.378 . S
O158 C139 1.215 . S
O159 Ho136 2.524 . S
O159 C139 1.289 . S
O160 Ho136 2.381 1_565 S
O160 C146 1.275 . S
O161 Ho136 2.669 1_565 S
O161 Ho137 2.305 1_564 S
O161 C146 1.256 . S
O162 Ho137 2.322 1_565 S
O162 C147 1.259 . S
O163 Ho136 2.346 1_566 S
O163 C147 1.268 . S
O164 Ho137 2.378 1_565 S
O164 C148 1.215 . S
O165 Ho137 2.524 1_565 S
O165 C148 1.289 . S
O166 Ho137 2.381 . S
O166 C155 1.275 . S
O167 Ho136 2.302 1_556 S
O167 Ho137 2.670 . S
O167 C155 1.259 . S
H168 C141 0.930 . S
H169 C142 0.931 . S
H170 C144 0.934 . S
H171 C145 0.930 . S
H172 C150 0.930 . S
H173 C151 0.931 . S
H174 C153 0.934 . S
H175 C154 0.930 . S
Ho176 C179 2.811 . S
Ho176 O196 2.322 . S
Ho176 O198 2.378 . S
Ho176 O199 2.524 . S
Ho176 O200 2.381 . S
Ho176 O201 2.669 . S
Ho176 O203 2.346 . S
Ho176 O207 2.305 . S
Ho177 C188 2.811 . S
Ho177 O197 2.346 . S
Ho177 O201 2.305 . S
Ho177 O202 2.322 . S
Ho177 O204 2.378 . S
Ho177 O205 2.524 . S
Ho177 O206 2.381 . S
Ho177 O207 2.669 . S
C178 O196 1.259 . S
C178 O197 1.268 . S
C179 Ho176 2.811 . S
C179 C180 1.488 . S
C179 O198 1.215 . S
C179 O199 1.289 . S
C180 C179 1.488 . S
C180 C181 1.348 . S
C180 C185 1.413 . S
C181 C180 1.348 . S
C181 C182 1.442 . S
C181 H208 0.930 . S
C182 C181 1.442 . S
C182 C183 1.381 . S
C182 H209 0.931 . S
C183 C182 1.381 . S
C183 C184 1.321 . S
C184 C183 1.321 . S
C184 C185 1.403 . S
C184 H210 0.934 . S
C185 C180 1.413 . S
C185 C184 1.403 . S
C185 H211 0.930 . S
C186 O200 1.275 . S
C186 O201 1.256 . S
C187 O202 1.259 . S
C187 O203 1.268 . S
C188 Ho177 2.811 . S
C188 C189 1.488 . S
C188 O204 1.215 . S
C188 O205 1.289 . S
C189 C188 1.488 . S
C189 C190 1.348 . S
C189 C194 1.413 . S
C190 C189 1.348 . S
C190 C191 1.442 . S
C190 H212 0.930 . S
C191 C190 1.442 . S
C191 C192 1.381 . S
C191 H213 0.931 . S
C192 C191 1.381 . S
C192 C193 1.321 . S
C193 C192 1.321 . S
C193 C194 1.403 . S
C193 H214 0.934 . S
C194 C189 1.413 . S
C194 C193 1.403 . S
C194 H215 0.930 . S
C195 O206 1.275 . S
C195 O207 1.256 . S
O196 Ho176 2.322 . S
O196 C178 1.259 . S
O197 Ho177 2.346 . S
O197 C178 1.268 . S
O198 Ho176 2.378 . S
O198 C179 1.215 . S
O199 Ho176 2.524 . S
O199 C179 1.289 . S
O200 Ho176 2.381 . S
O200 C186 1.275 . S
O201 Ho176 2.669 . S
O201 Ho177 2.305 . S
O201 C186 1.256 . S
O202 Ho177 2.322 . S
O202 C187 1.259 . S
O203 Ho176 2.346 . S
O203 C187 1.268 . S
O204 Ho177 2.378 . S
O204 C188 1.215 . S
O205 Ho177 2.524 . S
O205 C188 1.289 . S
O206 Ho177 2.381 . S
O206 C195 1.275 . S
O207 Ho176 2.305 . S
O207 Ho177 2.669 . S
O207 C195 1.256 . S
H208 C181 0.930 . S
H209 C182 0.931 . S
H210 C184 0.934 . S
H211 C185 0.930 . S
H212 C190 0.930 . S
H213 C191 0.931 . S
H214 C193 0.934 . S
H215 C194 0.930 . S
Ho216 C219 2.811 . S
Ho216 O236 2.322 . S
Ho216 O238 2.378 . S
Ho216 O239 2.524 . S
Ho216 O240 2.381 1_455 S
Ho216 O241 2.669 1_455 S
Ho216 O243 2.346 1_454 S
Ho216 O247 2.305 1_554 S
Ho217 C228 2.811 1_455 S
Ho217 O237 2.346 1_556 S
Ho217 O241 2.305 1_456 S
Ho217 O242 2.322 1_455 S
Ho217 O244 2.378 1_455 S
Ho217 O245 2.524 1_455 S
Ho217 O246 2.381 . S
Ho217 O247 2.669 . S
C218 O236 1.259 . S
C218 O237 1.268 . S
C219 Ho216 2.811 . S
C219 C220 1.488 . S
C219 O238 1.215 . S
C219 O239 1.289 . S
C220 C219 1.488 . S
C220 C221 1.348 . S
C220 C225 1.413 . S
C221 C220 1.348 . S
C221 C222 1.442 . S
C221 H248 0.930 . S
C222 C221 1.442 . S
C222 C223 1.381 . S
C222 H249 0.931 . S
C223 C222 1.381 . S
C223 C224 1.321 . S
C224 C223 1.321 . S
C224 C225 1.403 . S
C224 H250 0.934 . S
C225 C220 1.413 . S
C225 C224 1.403 . S
C225 H251 0.930 . S
C226 O240 1.275 . S
C226 O241 1.256 . S
C227 O242 1.259 . S
C227 O243 1.268 . S
C228 Ho217 2.811 1_655 S
C228 C229 1.488 . S
C228 O244 1.215 . S
C228 O245 1.289 . S
C229 C228 1.488 . S
C229 C230 1.348 . S
C229 C234 1.413 . S
C230 C229 1.348 . S
C230 C231 1.442 . S
C230 H252 0.930 . S
C231 C230 1.442 . S
C231 C232 1.381 . S
C231 H253 0.931 . S
C232 C231 1.381 . S
C232 C233 1.321 . S
C233 C232 1.321 . S
C233 C234 1.403 . S
C233 H254 0.934 . S
C234 C229 1.413 . S
C234 C233 1.403 . S
C234 H255 0.930 . S
C235 O246 1.275 . S
C235 O247 1.256 . S
O236 Ho216 2.322 . S
O236 C218 1.259 . S
O237 Ho217 2.346 1_554 S
O237 C218 1.268 . S
O238 Ho216 2.378 . S
O238 C219 1.215 . S
O239 Ho216 2.524 . S
O239 C219 1.289 . S
O240 Ho216 2.381 1_655 S
O240 C226 1.275 . S
O241 Ho216 2.669 1_655 S
O241 Ho217 2.305 1_654 S
O241 C226 1.256 . S
O242 Ho217 2.322 1_655 S
O242 C227 1.259 . S
O243 Ho216 2.346 1_656 S
O243 C227 1.268 . S
O244 Ho217 2.378 1_655 S
O244 C228 1.215 . S
O245 Ho217 2.524 1_655 S
O245 C228 1.289 . S
O246 Ho217 2.381 . S
O246 C235 1.275 . S
O247 Ho216 2.305 1_556 S
O247 Ho217 2.669 . S
O247 C235 1.256 . S
H248 C221 0.930 . S
H249 C222 0.931 . S
H250 C224 0.934 . S
H251 C225 0.930 . S
H252 C230 0.930 . S
H253 C231 0.931 . S
H254 C233 0.934 . S
H255 C234 0.930 . S
H256 C262 0.930 . S
H257 C266 0.930 . S
H258 C271 0.929 . S
H259 C269 0.929 . S
H260 C264 0.929 . S
H261 C270 0.929 . S
C262 H256 0.930 . S
C262 C263 1.367 . S
C262 C270 1.378 . S
C263 C262 1.367 . S
C263 C271 1.433 . S
C264 H260 0.929 . S
C264 C266 1.378 . S
C264 C268 1.350 . S
C265 C268 1.463 . S
C265 C270 1.350 . S
C265 N273 1.427 . S
C266 H257 0.930 . S
C266 C264 1.378 . S
C266 C267 1.367 . S
C267 C266 1.367 . S
C267 C269 1.433 . S
C268 C264 1.350 . S
C268 C265 1.463 . S
C268 N272 1.427 . S
C269 H259 0.929 . S
C269 C267 1.433 . S
C269 N272 1.384 . S
C270 H261 0.929 . S
C270 C262 1.378 . S
C270 C265 1.350 . S
C271 H258 0.929 . S
C271 C263 1.433 . S
C271 N273 1.384 . S
N272 C268 1.427 . S
N272 C269 1.384 . S
N273 C265 1.427 . S
N273 C271 1.384 . S
H274 C280 0.930 . S
H275 C284 0.930 . S
H276 C289 0.929 . S
H277 C287 0.929 . S
H278 C282 0.929 . S
H279 C288 0.929 . S
C280 H274 0.930 . S
C280 C281 1.367 . S
C280 C288 1.378 . S
C281 C280 1.367 . S
C281 C289 1.433 . S
C282 H278 0.929 . S
C282 C284 1.378 . S
C282 C286 1.350 . S
C283 C286 1.463 . S
C283 C288 1.350 . S
C283 N291 1.427 . S
C284 H275 0.930 . S
C284 C282 1.378 . S
C284 C285 1.367 . S
C285 C284 1.367 . S
C285 C287 1.433 . S
C286 C282 1.350 . S
C286 C283 1.463 . S
C286 N290 1.427 . S
C287 H277 0.929 . S
C287 C285 1.433 . S
C287 N290 1.384 . S
C288 H279 0.929 . S
C288 C280 1.378 . S
C288 C283 1.350 . S
C289 H276 0.929 . S
C289 C281 1.433 . S
C289 N291 1.384 . S
N290 C286 1.427 . S
N290 C287 1.384 . S
N291 C283 1.427 . S
N291 C289 1.384 . S
H292 C298 0.930 . S
H293 C302 0.930 . S
H294 C307 0.929 . S
H295 C305 0.929 . S
H296 C300 0.929 . S
H297 C306 0.929 . S
C298 H292 0.930 . S
C298 C299 1.367 . S
C298 C306 1.378 . S
C299 C298 1.367 . S
C299 C307 1.433 . S
C300 H296 0.929 . S
C300 C302 1.378 . S
C300 C304 1.350 . S
C301 C304 1.463 . S
C301 C306 1.350 . S
C301 N309 1.427 . S
C302 H293 0.930 . S
C302 C300 1.378 . S
C302 C303 1.367 . S
C303 C302 1.367 . S
C303 C305 1.433 . S
C304 C300 1.350 . S
C304 C301 1.463 . S
C304 N308 1.427 . S
C305 H295 0.929 . S
C305 C303 1.433 . S
C305 N308 1.384 . S
C306 H297 0.929 . S
C306 C298 1.378 . S
C306 C301 1.350 . S
C307 H294 0.929 . S
C307 C299 1.433 . S
C307 N309 1.384 . S
N308 C304 1.427 . S
N308 C305 1.384 . S
N309 C301 1.427 . S
N309 C307 1.384 . S
H310 C316 0.930 . S
H311 C320 0.930 . S
H312 C325 0.929 . S
H313 C323 0.940 . S
H314 C318 0.929 . S
H315 C324 0.929 . S
C316 H310 0.930 . S
C316 C317 1.367 . S
C316 C324 1.378 . S
C317 C316 1.367 . S
C317 C325 1.433 . S
C318 H314 0.929 . S
C318 C320 1.378 . S
C318 C322 1.350 . S
C319 C322 1.463 . S
C319 C324 1.350 . S
C319 N327 1.427 . S
C320 H311 0.930 . S
C320 C318 1.378 . S
C320 C321 1.367 . S
C321 C320 1.367 . S
C321 C323 1.433 . S
C322 C318 1.350 . S
C322 C319 1.463 . S
C322 N326 1.427 . S
C323 H313 0.940 . S
C323 C321 1.433 . S
C323 N326 1.384 . S
C324 H315 0.929 . S
C324 C316 1.378 . S
C324 C319 1.350 . S
C325 H312 0.929 . S
C325 C317 1.433 . S
C325 N327 1.384 . S
N326 C322 1.427 . S
N326 C323 1.384 . S
N327 C319 1.427 . S
N327 C325 1.384 . S
H328 C334 0.930 . S
H329 C338 0.930 . S
H330 C343 0.929 . S
H331 C341 0.929 . S
H332 C336 0.929 . S
H333 C342 0.929 . S
C334 H328 0.930 . S
C334 C335 1.367 . S
C334 C342 1.378 . S
C335 C334 1.367 . S
C335 C343 1.433 . S
C336 H332 0.929 . S
C336 C338 1.378 . S
C336 C340 1.350 . S
C337 C340 1.463 . S
C337 C342 1.350 . S
C337 N345 1.427 . S
C338 H329 0.930 . S
C338 C336 1.378 . S
C338 C339 1.367 . S
C339 C338 1.367 . S
C339 C341 1.433 . S
C340 C336 1.350 . S
C340 C337 1.463 . S
C340 N344 1.427 . S
C341 H331 0.929 . S
C341 C339 1.433 . S
C341 N344 1.384 . S
C342 H333 0.929 . S
C342 C334 1.378 . S
C342 C337 1.350 . S
C343 H330 0.929 . S
C343 C335 1.433 . S
C343 N345 1.384 . S
N344 C340 1.427 . S
N344 C341 1.384 . S
N345 C337 1.427 . S
N345 C343 1.384 . S
H346 C352 0.930 . S
H347 C356 0.930 . S
H348 C361 0.929 . S
H349 C359 0.929 . S
H350 C354 0.929 . S
H351 C360 0.929 . S
C352 H346 0.930 . S
C352 C353 1.367 . S
C352 C360 1.378 . S
C353 C352 1.367 . S
C353 C361 1.433 . S
C354 H350 0.929 . S
C354 C356 1.378 . S
C354 C358 1.350 . S
C355 C358 1.463 . S
C355 C360 1.350 . S
C355 N363 1.427 . S
C356 H347 0.930 . S
C356 C354 1.378 . S
C356 C357 1.367 . S
C357 C356 1.367 . S
C357 C359 1.433 . S
C358 C354 1.350 . S
C358 C355 1.463 . S
C358 N362 1.427 . S
C359 H349 0.929 . S
C359 C357 1.433 . S
C359 N362 1.384 . S
C360 H351 0.929 . S
C360 C352 1.378 . S
C360 C355 1.350 . S
C361 H348 0.929 . S
C361 C353 1.433 . S
C361 N363 1.384 . S
N362 C358 1.427 . S
N362 C359 1.384 . S
N363 C355 1.427 . S
N363 C361 1.384 . S
H364 C370 0.930 . S
H365 C374 0.930 . S
H366 C379 0.929 . S
H367 C377 0.929 . S
H368 C372 0.929 . S
H369 C378 0.929 . S
C370 H364 0.930 . S
C370 C371 1.367 . S
C370 C378 1.378 . S
C371 C370 1.367 . S
C371 C379 1.433 . S
C372 H368 0.929 . S
C372 C374 1.378 . S
C372 C376 1.350 . S
C373 C376 1.463 . S
C373 C378 1.350 . S
C373 N381 1.427 . S
C374 H365 0.930 . S
C374 C372 1.378 . S
C374 C375 1.367 . S
C375 C374 1.367 . S
C375 C377 1.433 . S
C376 C372 1.350 . S
C376 C373 1.463 . S
C376 N380 1.427 . S
C377 H367 0.929 . S
C377 C375 1.433 . S
C377 N380 1.384 . S
C378 H369 0.929 . S
C378 C370 1.378 . S
C378 C373 1.350 . S
C379 H366 0.929 . S
C379 C371 1.433 . S
C379 N381 1.384 . S
N380 C376 1.427 . S
N380 C377 1.384 . S
N381 C373 1.427 . S
N381 C379 1.384 . S
H382 C388 0.930 . S
H383 C392 0.930 . S
H384 C397 0.929 . S
H385 C395 0.929 . S
H386 C390 0.929 . S
H387 C396 0.929 . S
C388 H382 0.930 . S
C388 C389 1.367 . S
C388 C396 1.378 . S
C389 C388 1.367 . S
C389 C397 1.433 . S
C390 H386 0.929 . S
C390 C392 1.378 . S
C390 C394 1.350 . S
C391 C394 1.463 . S
C391 C396 1.350 . S
C391 N399 1.427 . S
C392 H383 0.930 . S
C392 C390 1.378 . S
C392 C393 1.367 . S
C393 C392 1.367 . S
C393 C395 1.433 . S
C394 C390 1.350 . S
C394 C391 1.463 . S
C394 N398 1.427 . S
C395 H385 0.929 . S
C395 C393 1.433 . S
C395 N398 1.384 . S
C396 H387 0.929 . S
C396 C388 1.378 . S
C396 C391 1.350 . S
C397 H384 0.929 . S
C397 C389 1.433 . S
C397 N399 1.384 . S
N398 C394 1.427 . S
N398 C395 1.384 . S
N399 C391 1.427 . S
N399 C397 1.384 . S
H400 C406 0.930 . S
H401 C410 0.930 . S
H402 C415 0.929 . S
H403 C413 0.929 . S
H404 C408 0.929 . S
H405 C414 0.929 . S
C406 H400 0.930 . S
C406 C407 1.367 . S
C406 C414 1.378 . S
C407 C406 1.367 . S
C407 C415 1.433 . S
C408 H404 0.929 . S
C408 C410 1.378 . S
C408 C412 1.350 . S
C409 C412 1.463 . S
C409 C414 1.350 . S
C409 N417 1.427 . S
C410 H401 0.930 . S
C410 C408 1.378 . S
C410 C411 1.367 . S
C411 C410 1.367 . S
C411 C413 1.433 . S
C412 C408 1.350 . S
C412 C409 1.463 . S
C412 N416 1.427 . S
C413 H403 0.929 . S
C413 C411 1.433 . S
C413 N416 1.384 . S
C414 H405 0.929 . S
C414 C406 1.378 . S
C414 C409 1.350 . S
C415 H402 0.929 . S
C415 C407 1.433 . S
C415 N417 1.384 . S
N416 C412 1.427 . S
N416 C413 1.384 . S
N417 C409 1.427 . S
N417 C415 1.384 . S
H418 C424 0.930 . S
H419 C428 0.930 . S
H420 C433 0.929 . S
H421 C431 0.929 . S
H422 C426 0.929 . S
H423 C432 0.929 . S
C424 H418 0.930 . S
C424 C425 1.367 . S
C424 C432 1.378 . S
C425 C424 1.367 . S
C425 C433 1.433 . S
C426 H422 0.929 . S
C426 C428 1.378 . S
C426 C430 1.350 . S
C427 C430 1.463 . S
C427 C432 1.350 . S
C427 N435 1.427 . S
C428 H419 0.930 . S
C428 C426 1.378 . S
C428 C429 1.367 . S
C429 C428 1.367 . S
C429 C431 1.433 . S
C430 C426 1.350 . S
C430 C427 1.463 . S
C430 N434 1.427 . S
C431 H421 0.929 . S
C431 C429 1.433 . S
C431 N434 1.384 . S
C432 H423 0.929 . S
C432 C424 1.378 . S
C432 C427 1.350 . S
C433 H420 0.929 . S
C433 C425 1.433 . S
C433 N435 1.384 . S
N434 C430 1.427 . S
N434 C431 1.384 . S
N435 C427 1.427 . S
N435 C433 1.384 . S
H436 C442 0.930 . S
H437 C446 0.930 . S
H438 C451 0.929 . S
H439 C449 0.929 . S
H440 C444 0.929 . S
H441 C450 0.929 . S
C442 H436 0.930 . S
C442 C443 1.367 . S
C442 C450 1.378 . S
C443 C442 1.367 . S
C443 C451 1.433 . S
C444 H440 0.929 . S
C444 C446 1.378 . S
C444 C448 1.350 . S
C445 C448 1.463 . S
C445 C450 1.350 . S
C445 N453 1.427 . S
C446 H437 0.930 . S
C446 C444 1.378 . S
C446 C447 1.367 . S
C447 C446 1.367 . S
C447 C449 1.433 . S
C448 C444 1.350 . S
C448 C445 1.463 . S
C448 N452 1.427 . S
C449 H439 0.929 . S
C449 C447 1.433 . S
C449 N452 1.384 . S
C450 H441 0.929 . S
C450 C442 1.378 . S
C450 C445 1.350 . S
C451 H438 0.929 . S
C451 C443 1.433 . S
C451 N453 1.384 . S
N452 C448 1.427 . S
N452 C449 1.384 . S
N453 C445 1.427 . S
N453 C451 1.384 . S
H454 C460 0.930 . S
H455 C464 0.930 . S
H456 C469 0.929 . S
H457 C467 0.929 . S
H458 C462 0.929 . S
H459 C468 0.929 . S
C460 H454 0.930 . S
C460 C461 1.367 . S
C460 C468 1.378 . S
C461 C460 1.367 . S
C461 C469 1.433 . S
C462 H458 0.929 . S
C462 C464 1.378 . S
C462 C466 1.350 . S
C463 C466 1.463 . S
C463 C468 1.350 . S
C463 N471 1.427 . S
C464 H455 0.930 . S
C464 C462 1.378 . S
C464 C465 1.367 . S
C465 C464 1.367 . S
C465 C467 1.433 . S
C466 C462 1.350 . S
C466 C463 1.463 . S
C466 N470 1.427 . S
C467 H457 0.929 . S
C467 C465 1.433 . S
C467 N470 1.384 . S
C468 H459 0.929 . S
C468 C460 1.378 . S
C468 C463 1.350 . S
C469 H456 0.929 . S
C469 C461 1.433 . S
C469 N471 1.384 . S
N470 C466 1.427 . S
N470 C467 1.384 . S
N471 C463 1.427 . S
N471 C469 1.384 . S
H472 C478 0.930 . S
H473 C482 0.930 . S
H474 C487 0.929 . S
H475 C485 0.929 . S
H476 C480 0.929 . S
H477 C486 0.929 . S
C478 H472 0.930 . S
C478 C479 1.367 . S
C478 C486 1.378 . S
C479 C478 1.367 . S
C479 C487 1.433 . S
C480 H476 0.929 . S
C480 C482 1.378 . S
C480 C484 1.350 . S
C481 C484 1.463 . S
C481 C486 1.350 . S
C481 N489 1.427 . S
C482 H473 0.930 . S
C482 C480 1.378 . S
C482 C483 1.367 . S
C483 C482 1.367 . S
C483 C485 1.433 . S
C484 C480 1.350 . S
C484 C481 1.463 . S
C484 N488 1.427 . S
C485 H475 0.929 . S
C485 C483 1.433 . S
C485 N488 1.384 . S
C486 H477 0.929 . S
C486 C478 1.378 . S
C486 C481 1.350 . S
C487 H474 0.929 . S
C487 C479 1.433 . S
C487 N489 1.384 . S
N488 C484 1.427 . S
N488 C485 1.384 . S
N489 C481 1.427 . S
N489 C487 1.384 . S
H490 C496 0.930 . S
H491 C500 0.930 . S
H492 C505 0.929 . S
H493 C503 0.929 . S
H494 C498 0.929 . S
H495 C504 0.929 . S
C496 H490 0.930 . S
C496 C497 1.367 . S
C496 C504 1.378 . S
C497 C496 1.367 . S
C497 C505 1.433 . S
C498 H494 0.929 . S
C498 C500 1.378 . S
C498 C502 1.350 . S
C499 C502 1.463 . S
C499 C504 1.350 . S
C499 N507 1.427 . S
C500 H491 0.930 . S
C500 C498 1.378 . S
C500 C501 1.367 . S
C501 C500 1.367 . S
C501 C503 1.433 . S
C502 C498 1.350 . S
C502 C499 1.463 . S
C502 N506 1.427 . S
C503 H493 0.929 . S
C503 C501 1.433 . S
C503 N506 1.384 . S
C504 H495 0.929 . S
C504 C496 1.378 . S
C504 C499 1.350 . S
C505 H492 0.929 . S
C505 C497 1.433 . S
C505 N507 1.384 . S
N506 C502 1.427 . S
N506 C503 1.384 . S
N507 C499 1.427 . S
N507 C505 1.384 . S
H508 C514 0.930 . S
H509 C518 0.930 . S
H510 C523 0.929 . S
H511 C521 0.929 . S
H512 C516 0.929 . S
H513 C522 0.929 . S
C514 H508 0.930 . S
C514 C515 1.367 . S
C514 C522 1.378 . S
C515 C514 1.367 . S
C515 C523 1.433 . S
C516 H512 0.929 . S
C516 C518 1.378 . S
C516 C520 1.350 . S
C517 C520 1.463 . S
C517 C522 1.350 . S
C517 N525 1.427 . S
C518 H509 0.930 . S
C518 C516 1.378 . S
C518 C519 1.367 . S
C519 C518 1.367 . S
C519 C521 1.433 . S
C520 C516 1.350 . S
C520 C517 1.463 . S
C520 N524 1.427 . S
C521 H511 0.929 . S
C521 C519 1.433 . S
C521 N524 1.384 . S
C522 H513 0.929 . S
C522 C514 1.378 . S
C522 C517 1.350 . S
C523 H510 0.929 . S
C523 C515 1.433 . S
C523 N525 1.384 . S
N524 C520 1.427 . S
N524 C521 1.384 . S
N525 C517 1.427 . S
N525 C523 1.384 . S
H526 C532 0.930 . S
H527 C536 0.930 . S
H528 C541 0.929 . S
H529 C539 0.929 . S
H530 C534 0.929 . S
H531 C540 0.929 . S
C532 H526 0.930 . S
C532 C533 1.367 . S
C532 C540 1.378 . S
C533 C532 1.367 . S
C533 C541 1.433 . S
C534 H530 0.929 . S
C534 C536 1.378 . S
C534 C538 1.350 . S
C535 C538 1.463 . S
C535 C540 1.350 . S
C535 N543 1.427 . S
C536 H527 0.930 . S
C536 C534 1.378 . S
C536 C537 1.367 . S
C537 C536 1.367 . S
C537 C539 1.433 . S
C538 C534 1.350 . S
C538 C535 1.463 . S
C538 N542 1.427 . S
C539 H529 0.929 . S
C539 C537 1.433 . S
C539 N542 1.384 . S
C540 H531 0.929 . S
C540 C532 1.378 . S
C540 C535 1.350 . S
C541 H528 0.929 . S
C541 C533 1.433 . S
C541 N543 1.384 . S
N542 C538 1.427 . S
N542 C539 1.384 . S
N543 C535 1.427 . S
N543 C541 1.384 . S
H544 C550 0.930 . S
H545 C554 0.930 . S
H546 C559 0.929 . S
H547 C557 0.929 . S
H548 C552 0.929 . S
H549 C558 0.929 . S
C550 H544 0.930 . S
C550 C551 1.367 . S
C550 C558 1.378 . S
C551 C550 1.367 . S
C551 C559 1.433 . S
C552 H548 0.929 . S
C552 C554 1.378 . S
C552 C556 1.350 . S
C553 C556 1.463 . S
C553 C558 1.350 . S
C553 N561 1.427 . S
C554 H545 0.930 . S
C554 C552 1.378 . S
C554 C555 1.367 . S
C555 C554 1.367 . S
C555 C557 1.433 . S
C556 C552 1.350 . S
C556 C553 1.463 . S
C556 N560 1.427 . S
C557 H547 0.929 . S
C557 C555 1.433 . S
C557 N560 1.384 . S
C558 H549 0.929 . S
C558 C550 1.378 . S
C558 C553 1.350 . S
C559 H546 0.929 . S
C559 C551 1.433 . S
C559 N561 1.384 . S
N560 C556 1.427 . S
N560 C557 1.384 . S
N561 C553 1.427 . S
N561 C559 1.384 . S
H562 C568 0.930 . S
H563 C572 0.930 . S
H564 C577 0.929 . S
H565 C575 0.929 . S
H566 C570 0.929 . S
H567 C576 0.929 . S
C568 H562 0.930 . S
C568 C569 1.367 . S
C568 C576 1.378 . S
C569 C568 1.367 . S
C569 C577 1.433 . S
C570 H566 0.929 . S
C570 C572 1.378 . S
C570 C574 1.350 . S
C571 C574 1.463 . S
C571 C576 1.350 . S
C571 N579 1.427 . S
C572 H563 0.930 . S
C572 C570 1.378 . S
C572 C573 1.367 . S
C573 C572 1.367 . S
C573 C575 1.433 . S
C574 C570 1.350 . S
C574 C571 1.463 . S
C574 N578 1.427 . S
C575 H565 0.929 . S
C575 C573 1.433 . S
C575 N578 1.384 . S
C576 H567 0.929 . S
C576 C568 1.378 . S
C576 C571 1.350 . S
C577 H564 0.929 . S
C577 C569 1.433 . S
C577 N579 1.384 . S
N578 C574 1.427 . S
N578 C575 1.384 . S
N579 C571 1.427 . S
N579 C577 1.384 . S
H580 C586 0.930 . S
H581 C590 0.930 . S
H582 C595 0.929 . S
H583 C593 0.929 . S
H584 C588 0.929 . S
H585 C594 0.929 . S
C586 H580 0.930 . S
C586 C587 1.367 . S
C586 C594 1.378 . S
C587 C586 1.367 . S
C587 C595 1.433 . S
C588 H584 0.929 . S
C588 C590 1.378 . S
C588 C592 1.350 . S
C589 C592 1.463 . S
C589 C594 1.350 . S
C589 N597 1.427 . S
C590 H581 0.930 . S
C590 C588 1.378 . S
C590 C591 1.367 . S
C591 C590 1.367 . S
C591 C593 1.433 . S
C592 C588 1.350 . S
C592 C589 1.463 . S
C592 N596 1.427 . S
C593 H583 0.929 . S
C593 C591 1.433 . S
C593 N596 1.384 . S
C594 H585 0.929 . S
C594 C586 1.378 . S
C594 C589 1.350 . S
C595 H582 0.929 . S
C595 C587 1.433 . S
C595 N597 1.384 . S
N596 C592 1.427 . S
N596 C593 1.384 . S
N597 C589 1.427 . S
N597 C595 1.384 . S
H598 C604 0.930 . S
H599 C608 0.930 . S
H600 C613 0.929 . S
H601 C611 0.929 . S
H602 C606 0.929 . S
H603 C612 0.929 . S
C604 H598 0.930 . S
C604 C605 1.367 . S
C604 C612 1.378 . S
C605 C604 1.367 . S
C605 C613 1.433 . S
C606 H602 0.929 . S
C606 C608 1.378 . S
C606 C610 1.350 . S
C607 C610 1.463 . S
C607 C612 1.350 . S
C607 N615 1.427 . S
C608 H599 0.930 . S
C608 C606 1.378 . S
C608 C609 1.367 . S
C609 C608 1.367 . S
C609 C611 1.433 . S
C610 C606 1.350 . S
C610 C607 1.463 . S
C610 N614 1.427 . S
C611 H601 0.929 . S
C611 C609 1.433 . S
C611 N614 1.384 . S
C612 H603 0.929 . S
C612 C604 1.378 . S
C612 C607 1.350 . S
C613 H600 0.929 . S
C613 C605 1.433 . S
C613 N615 1.384 . S
N614 C610 1.427 . S
N614 C611 1.384 . S
N615 C607 1.427 . S
N615 C613 1.384 . S
H616 C622 0.930 . S
H617 C626 0.930 . S
H618 C631 0.929 . S
H619 C629 0.929 . S
H620 C624 0.929 . S
H621 C630 0.929 . S
C622 H616 0.930 . S
C622 C623 1.367 . S
C622 C630 1.378 . S
C623 C622 1.367 . S
C623 C631 1.433 . S
C624 H620 0.929 . S
C624 C626 1.378 . S
C624 C628 1.350 . S
C625 C628 1.463 . S
C625 C630 1.350 . S
C625 N633 1.427 . S
C626 H617 0.930 . S
C626 C624 1.378 . S
C626 C627 1.367 . S
C627 C626 1.367 . S
C627 C629 1.433 . S
C628 C624 1.350 . S
C628 C625 1.463 . S
C628 N632 1.427 . S
C629 H619 0.929 . S
C629 C627 1.433 . S
C629 N632 1.384 . S
C630 H621 0.929 . S
C630 C622 1.378 . S
C630 C625 1.350 . S
C631 H618 0.929 . S
C631 C623 1.433 . S
C631 N633 1.384 . S
N632 C628 1.427 . S
N632 C629 1.384 . S
N633 C625 1.427 . S
N633 C631 1.384 . S
H634 C640 0.930 . S
H635 C644 0.930 . S
H636 C649 0.929 . S
H637 C647 0.929 . S
H638 C642 0.929 . S
H639 C648 0.929 . S
C640 H634 0.930 . S
C640 C641 1.367 . S
C640 C648 1.378 . S
C641 C640 1.367 . S
C641 C649 1.433 . S
C642 H638 0.929 . S
C642 C644 1.378 . S
C642 C646 1.350 . S
C643 C646 1.463 . S
C643 C648 1.350 . S
C643 N651 1.427 . S
C644 H635 0.930 . S
C644 C642 1.378 . S
C644 C645 1.367 . S
C645 C644 1.367 . S
C645 C647 1.433 . S
C646 C642 1.350 . S
C646 C643 1.463 . S
C646 N650 1.427 . S
C647 H637 0.929 . S
C647 C645 1.433 . S
C647 N650 1.384 . S
C648 H639 0.929 . S
C648 C640 1.378 . S
C648 C643 1.350 . S
C649 H636 0.929 . S
C649 C641 1.433 . S
C649 N651 1.384 . S
N650 C646 1.427 . S
N650 C647 1.384 . S
N651 C643 1.427 . S
N651 C649 1.384 . S
H652 C658 0.930 . S
H653 C662 0.930 . S
H654 C667 0.929 . S
H655 C665 0.929 . S
H656 C660 0.929 . S
H657 C666 0.929 . S
C658 H652 0.930 . S
C658 C659 1.367 . S
C658 C666 1.378 . S
C659 C658 1.367 . S
C659 C667 1.433 . S
C660 H656 0.929 . S
C660 C662 1.378 . S
C660 C664 1.350 . S
C661 C664 1.463 . S
C661 C666 1.350 . S
C661 N669 1.427 . S
C662 H653 0.930 . S
C662 C660 1.378 . S
C662 C663 1.367 . S
C663 C662 1.367 . S
C663 C665 1.433 . S
C664 C660 1.350 . S
C664 C661 1.463 . S
C664 N668 1.427 . S
C665 H655 0.929 . S
C665 C663 1.433 . S
C665 N668 1.384 . S
C666 H657 0.929 . S
C666 C658 1.378 . S
C666 C661 1.350 . S
C667 H654 0.929 . S
C667 C659 1.433 . S
C667 N669 1.384 . S
N668 C664 1.427 . S
N668 C665 1.384 . S
N669 C661 1.427 . S
N669 C667 1.384 . S
H670 C676 0.930 . S
H671 C680 0.930 . S
H672 C685 0.929 . S
H673 C683 0.929 . S
H674 C678 0.929 . S
H675 C684 0.929 . S
C676 H670 0.930 . S
C676 C677 1.367 . S
C676 C684 1.378 . S
C677 C676 1.367 . S
C677 C685 1.433 . S
C678 H674 0.929 . S
C678 C680 1.378 . S
C678 C682 1.350 . S
C679 C682 1.463 . S
C679 C684 1.350 . S
C679 N687 1.427 . S
C680 H671 0.930 . S
C680 C678 1.378 . S
C680 C681 1.367 . S
C681 C680 1.367 . S
C681 C683 1.433 . S
C682 C678 1.350 . S
C682 C679 1.463 . S
C682 N686 1.427 . S
C683 H673 0.929 . S
C683 C681 1.433 . S
C683 N686 1.384 . S
C684 H675 0.929 . S
C684 C676 1.378 . S
C684 C679 1.350 . S
C685 H672 0.929 . S
C685 C677 1.433 . S
C685 N687 1.384 . S
N686 C682 1.427 . S
N686 C683 1.384 . S
N687 C679 1.427 . S
N687 C685 1.384 . S
C263 C6 1.064 . S
C267 C103 1.079 . S
C281 C18 1.259 . S
C285 C152 1.246 . S
C303 C178 2.575 . S
C299 C28 2.622 . S
C317 C40 1.797 . S
C321 C226 1.764 . S
C339 C138 2.347 . S
C335 C9 2.236 . S
C357 C106 0.836 . S
C353 C16 0.856 . S
C375 C227 1.896 . S
C371 C30 1.924 . S
C393 C195 1.293 . S
C389 C42 1.319 . S
C407 C4 1.484 . S
C411 C223 1.510 . S
C429 C155 2.517 . S
C425 C33 2.586 . S
C443 C45 2.078 . S
C447 C107 2.066 . S
C461 C21 1.018 . S
C465 C192 1.047 . S
C483 C112 1.093 . S
C479 C57 1.087 . S
C497 C66 1.278 . S
C501 C143 1.256 . S
C515 C76 2.671 . S
C519 C187 2.620 . S
C533 C88 1.731 . S
C537 C235 1.698 . S
C551 C54 2.222 . S
C555 C147 2.331 . S
C573 C115 0.951 . S
C569 C64 0.980 . S
C591 C218 1.806 . S
C587 C78 1.842 . S
C609 C186 1.340 . S
C605 C93 1.355 . S
C623 C52 1.444 . S
C627 C232 1.513 . S
C645 C146 2.499 . S
C641 C81 2.571 . S
C663 C98 2.048 . S
C659 C90 2.054 . S
C677 C69 1.030 . S
C681 C183 1.051 . S
