# Generated by pormake.
# Topology apo, (3,6)-cn, num edge types: 1
# Building blocks:
#     Node 0, Type 0, BuildingBlock: CUQRIR_clean_linker_1, # of connection points: 3
#     Node 1, Type 0, BuildingBlock: CUQRIR_clean_linker_1, # of connection points: 3
#     Node 2, Type 0, BuildingBlock: CUQRIR_clean_linker_1, # of connection points: 3
#     Node 3, Type 0, BuildingBlock: CUQRIR_clean_linker_1, # of connection points: 3
#     Node 4, Type 0, BuildingBlock: CUQRIR_clean_linker_1, # of connection points: 3
#     Node 5, Type 0, BuildingBlock: CUQRIR_clean_linker_1, # of connection points: 3
#     Node 6, Type 0, BuildingBlock: CUQRIR_clean_linker_1, # of connection points: 3
#     Node 7, Type 0, BuildingBlock: CUQRIR_clean_linker_1, # of connection points: 3
#     Node 8, Type 1, BuildingBlock: MIDCAF_clean_sbu_0, # of connection points: 6
#     Node 9, Type 1, BuildingBlock: MIDCAF_clean_sbu_0, # of connection points: 6
#     Node 10, Type 1, BuildingBlock: MIDCAF_clean_sbu_0, # of connection points: 6
#     Node 11, Type 1, BuildingBlock: MIDCAF_clean_sbu_0, # of connection points: 6
#     Edge 12, Type (0, 1), BuildingBlock: UVAHIK_clean_linker_0, # of connection points: 2
#     Edge 13, Type (0, 1), BuildingBlock: UVAHIK_clean_linker_0, # of connection points: 2
#     Edge 14, Type (0, 1), BuildingBlock: UVAHIK_clean_linker_0, # of connection points: 2
#     Edge 15, Type (0, 1), BuildingBlock: UVAHIK_clean_linker_0, # of connection points: 2
#     Edge 16, Type (0, 1), BuildingBlock: UVAHIK_clean_linker_0, # of connection points: 2
#     Edge 17, Type (0, 1), BuildingBlock: UVAHIK_clean_linker_0, # of connection points: 2
#     Edge 18, Type (0, 1), BuildingBlock: UVAHIK_clean_linker_0, # of connection points: 2
#     Edge 19, Type (0, 1), BuildingBlock: UVAHIK_clean_linker_0, # of connection points: 2
#     Edge 20, Type (0, 1), BuildingBlock: UVAHIK_clean_linker_0, # of connection points: 2
#     Edge 21, Type (0, 1), BuildingBlock: UVAHIK_clean_linker_0, # of connection points: 2
#     Edge 22, Type (0, 1), BuildingBlock: UVAHIK_clean_linker_0, # of connection points: 2
#     Edge 23, Type (0, 1), BuildingBlock: UVAHIK_clean_linker_0, # of connection points: 2
#     Edge 24, Type (0, 1), BuildingBlock: UVAHIK_clean_linker_0, # of connection points: 2
#     Edge 25, Type (0, 1), BuildingBlock: UVAHIK_clean_linker_0, # of connection points: 2
#     Edge 26, Type (0, 1), BuildingBlock: UVAHIK_clean_linker_0, # of connection points: 2
#     Edge 27, Type (0, 1), BuildingBlock: UVAHIK_clean_linker_0, # of connection points: 2
#     Edge 28, Type (0, 1), BuildingBlock: UVAHIK_clean_linker_0, # of connection points: 2
#     Edge 29, Type (0, 1), BuildingBlock: UVAHIK_clean_linker_0, # of connection points: 2
#     Edge 30, Type (0, 1), BuildingBlock: UVAHIK_clean_linker_0, # of connection points: 2
#     Edge 31, Type (0, 1), BuildingBlock: UVAHIK_clean_linker_0, # of connection points: 2
#     Edge 32, Type (0, 1), BuildingBlock: UVAHIK_clean_linker_0, # of connection points: 2
#     Edge 33, Type (0, 1), BuildingBlock: UVAHIK_clean_linker_0, # of connection points: 2
#     Edge 34, Type (0, 1), BuildingBlock: UVAHIK_clean_linker_0, # of connection points: 2
#     Edge 35, Type (0, 1), BuildingBlock: UVAHIK_clean_linker_0, # of connection points: 2
# Relax obj value: 0.009
# Max RMSD: 0.063
# Mean RMSD: 0.062
data_MOF--net-apo--node1-MIDCAF_clean_sbu_0--node2-CUQRIR_clean_linker_1--edge1-UVAHIK_clean_linker_0
_symmetry_space_group_name_H-M    P1
_symmetry_Int_Tables_number       1
_symmetry_cell_setting            triclinic
loop_
_symmetry_equiv_pos_as_xyz
'x, y, z'
_cell_length_a     44.867311
_cell_length_b     51.193123
_cell_length_c     41.277604
_cell_angle_alpha  90.066894
_cell_angle_beta   90.023583
_cell_angle_gamma 90.145282
loop_
_atom_site_label
_atom_site_type_symbol
_atom_site_fract_x
_atom_site_fract_y
_atom_site_fract_z
_atom_type_partial_charge
C0 C 0.29633 0.29617 0.40569 0.0
N1 N 0.32 0.31188 0.41191 0.0
N2 N 0.28957 0.2965 0.3737 0.0
C3 C 0.28019 0.28022 0.43076 0.0
C4 C 0.3101 0.31276 0.36062 0.0
N5 N 0.32889 0.32188 0.38378 0.0
C6 C 0.31159 0.31978 0.32524 0.0
H7 H 0.29637 0.27149 0.44795 0.0
H8 H 0.2665 0.26455 0.41961 0.0
H9 H 0.26521 0.29323 0.44475 0.0
H10 H 0.28957 0.31776 0.31334 0.0
H11 H 0.3273 0.30636 0.3129 0.0
H12 H 0.31967 0.34011 0.32201 0.0
C13 C 0.19521 0.21028 0.90223 0.0
N14 N 0.17627 0.19061 0.90997 0.0
N15 N 0.2059 0.20711 0.87175 0.0
C16 C 0.20478 0.23158 0.92512 0.0
C17 C 0.19283 0.18476 0.8613 0.0
N18 N 0.17499 0.17468 0.88458 0.0
C19 C 0.19598 0.17371 0.82769 0.0
H20 H 0.18894 0.24811 0.92311 0.0
H21 H 0.22744 0.23879 0.91905 0.0
H22 H 0.20455 0.22456 0.95054 0.0
H23 H 0.21416 0.15905 0.82771 0.0
H24 H 0.20164 0.18924 0.80999 0.0
H25 H 0.17513 0.16381 0.81994 0.0
C26 C 0.80037 0.19809 0.6323 0.0
N27 N 0.82344 0.18183 0.62604 0.0
N28 N 0.79524 0.19954 0.66462 0.0
C29 C 0.7832 0.21276 0.60689 0.0
C30 C 0.81618 0.1838 0.6778 0.0
N31 N 0.83352 0.17326 0.65439 0.0
C32 C 0.81989 0.17886 0.71351 0.0
H33 H 0.76972 0.22873 0.61748 0.0
H34 H 0.76793 0.199 0.59434 0.0
H35 H 0.79871 0.2209 0.58853 0.0
H36 H 0.79949 0.18377 0.72732 0.0
H37 H 0.83841 0.19118 0.72276 0.0
H38 H 0.82574 0.15811 0.71788 0.0
C39 C 0.70165 0.28985 0.13118 0.0
N40 N 0.68131 0.30856 0.12425 0.0
N41 N 0.71027 0.29145 0.16259 0.0
C42 C 0.71437 0.27106 0.10684 0.0
C43 C 0.69437 0.31171 0.17454 0.0
N44 N 0.67701 0.32234 0.15117 0.0
C45 C 0.69363 0.31934 0.2098 0.0
H46 H 0.70032 0.2532 0.10631 0.0
H47 H 0.73742 0.26539 0.11352 0.0
H48 H 0.71443 0.27973 0.08222 0.0
H49 H 0.71023 0.33506 0.21413 0.0
H50 H 0.69931 0.30251 0.22552 0.0
H51 H 0.6713 0.32671 0.21675 0.0
C52 C 0.69919 0.70461 0.62465 0.0
N53 N 0.67712 0.68705 0.61905 0.0
N54 N 0.70453 0.70684 0.65686 0.0
C55 C 0.71509 0.71988 0.59878 0.0
C56 C 0.68474 0.69029 0.67066 0.0
N57 N 0.66787 0.67851 0.64773 0.0
C58 C 0.68174 0.68558 0.70647 0.0
H59 H 0.73182 0.70706 0.58703 0.0
H60 H 0.72681 0.73715 0.60888 0.0
H61 H 0.69907 0.72628 0.57991 0.0
H62 H 0.70076 0.69383 0.72028 0.0
H63 H 0.67998 0.66431 0.71129 0.0
H64 H 0.6609 0.69485 0.71517 0.0
C65 C 0.79194 0.79961 0.1247 0.0
N66 N 0.81551 0.81537 0.11831 0.0
N67 N 0.78643 0.79888 0.15698 0.0
C68 C 0.77476 0.78466 0.09946 0.0
C69 C 0.80766 0.81452 0.17 0.0
N70 N 0.82551 0.82431 0.14654 0.0
C71 C 0.81123 0.82002 0.20561 0.0
H72 H 0.76075 0.79849 0.08552 0.0
H73 H 0.76003 0.76964 0.11035 0.0
H74 H 0.79038 0.77524 0.08222 0.0
H75 H 0.82953 0.80775 0.21526 0.0
H76 H 0.79069 0.8155 0.2194 0.0
H77 H 0.81739 0.8408 0.20954 0.0
C78 C 0.20109 0.79361 0.39936 0.0
N79 N 0.17747 0.80923 0.40577 0.0
N80 N 0.20725 0.79361 0.36724 0.0
C81 C 0.21783 0.77816 0.42437 0.0
C82 C 0.18642 0.80953 0.35427 0.0
N83 N 0.16803 0.8188 0.37762 0.0
C84 C 0.18429 0.81618 0.31881 0.0
H85 H 0.2336 0.79135 0.43713 0.0
H86 H 0.23078 0.76206 0.41326 0.0
H87 H 0.20218 0.77004 0.4426 0.0
H88 H 0.16785 0.80294 0.30717 0.0
H89 H 0.20594 0.81363 0.30632 0.0
H90 H 0.17669 0.83661 0.31549 0.0
C91 C 0.30464 0.70594 0.8932 0.0
N92 N 0.32667 0.68908 0.90135 0.0
N93 N 0.30095 0.70659 0.86062 0.0
C94 C 0.28661 0.72164 0.91694 0.0
C95 C 0.32161 0.68973 0.84921 0.0
N96 N 0.33745 0.6793 0.8739 0.0
C97 C 0.32601 0.68292 0.81406 0.0
H98 H 0.26745 0.70965 0.92526 0.0
H99 H 0.27768 0.73963 0.90568 0.0
H100 H 0.30025 0.72701 0.93837 0.0
H101 H 0.34761 0.69108 0.80575 0.0
H102 H 0.30808 0.69086 0.79848 0.0
H103 H 0.32703 0.66139 0.81115 0.0
Zn104 Zn 0.03194 0.10234 0.31924 0.0
Zn105 Zn 0.97318 0.10295 0.21364 0.0
Zn106 Zn 0.00164 0.10272 0.26724 0.0
C107 C 0.02241 0.13276 0.2013 0.0
C108 C 0.98494 0.05129 0.22495 0.0
O109 O 0.97445 0.12272 0.30539 0.0
O110 O 0.00702 0.12615 0.34529 0.0
C111 C 0.0687 0.12612 0.27568 0.0
O112 O 0.02865 0.12375 0.22969 0.0
O113 O 0.99717 0.12846 0.18892 0.0
O114 O 0.97706 0.06573 0.20177 0.0
O115 O 0.9936 0.06149 0.25198 0.0
O116 O 0.07038 0.1158 0.30333 0.0
O117 O 0.04443 0.12417 0.25907 0.0
O118 O 0.00955 0.06108 0.28138 0.0
O119 O 0.02976 0.06497 0.32996 0.0
C120 C 0.01996 0.05063 0.30748 0.0
O121 O 0.95861 0.12309 0.27588 0.0
O122 O 0.93427 0.11464 0.23049 0.0
C123 C 0.9814 0.13073 0.33408 0.0
C124 C 0.93474 0.1244 0.25856 0.0
Zn125 Zn 0.53323 0.39488 0.71334 0.0
Zn126 Zn 0.47679 0.39167 0.82147 0.0
Zn127 Zn 0.50443 0.39241 0.76679 0.0
C128 C 0.48785 0.44356 0.80991 0.0
C129 C 0.43788 0.37008 0.77648 0.0
O130 O 0.54752 0.3716 0.77338 0.0
O131 O 0.57213 0.38174 0.72876 0.0
C132 C 0.52089 0.44577 0.72742 0.0
O133 O 0.49632 0.43335 0.78285 0.0
O134 O 0.4802 0.42908 0.83319 0.0
O135 O 0.43793 0.37925 0.80485 0.0
O136 O 0.46135 0.37181 0.7586 0.0
O137 O 0.52976 0.4325 0.70357 0.0
O138 O 0.51186 0.43421 0.7534 0.0
O139 O 0.47687 0.37207 0.72906 0.0
O140 O 0.50823 0.37064 0.68786 0.0
C141 C 0.48328 0.36476 0.69996 0.0
O142 O 0.53257 0.37167 0.80344 0.0
O143 O 0.50222 0.36663 0.84517 0.0
C144 C 0.57139 0.37062 0.75602 0.0
C145 C 0.52719 0.36269 0.83206 0.0
Zn146 Zn 0.03179 0.88788 0.81818 0.0
Zn147 Zn 0.97451 0.89515 0.71343 0.0
Zn148 Zn 0.00307 0.89116 0.76574 0.0
C149 C 0.98991 0.9453 0.72738 0.0
C150 C 0.93478 0.87293 0.75565 0.0
O151 O 0.04519 0.86933 0.75589 0.0
O152 O 0.07022 0.87518 0.80145 0.0
C153 C 0.02238 0.94038 0.81071 0.0
O154 O 0.99756 0.93348 0.75368 0.0
O155 O 0.98118 0.93231 0.70321 0.0
O156 O 0.93454 0.885 0.72904 0.0
O157 O 0.95896 0.87176 0.77248 0.0
O158 O 0.03023 0.92457 0.83249 0.0
O159 O 0.01282 0.93167 0.78324 0.0
O160 O 0.97451 0.8703 0.80216 0.0
O161 O 0.00634 0.86293 0.84186 0.0
C162 C 0.98057 0.86027 0.83006 0.0
O163 O 0.02905 0.87073 0.72681 0.0
O164 O 0.9963 0.86947 0.68691 0.0
C165 C 0.0691 0.86648 0.77289 0.0
C166 C 0.0215 0.86333 0.69804 0.0
Zn167 Zn 0.52551 0.59975 0.20815 0.0
Zn168 Zn 0.46755 0.60518 0.31673 0.0
Zn169 Zn 0.49731 0.60298 0.26416 0.0
C170 C 0.5188 0.63402 0.32853 0.0
C171 C 0.47881 0.55293 0.30871 0.0
O172 O 0.46874 0.62026 0.2252 0.0
O173 O 0.49526 0.61626 0.18022 0.0
C174 C 0.56147 0.62925 0.25023 0.0
O175 O 0.52503 0.62522 0.30002 0.0
O176 O 0.49357 0.62948 0.34081 0.0
O177 O 0.46859 0.56833 0.32979 0.0
O178 O 0.48982 0.56212 0.28214 0.0
O179 O 0.56113 0.61972 0.222 0.0
O180 O 0.53942 0.62536 0.26967 0.0
O181 O 0.50667 0.56105 0.25341 0.0
O182 O 0.52868 0.56155 0.20533 0.0
C183 C 0.5188 0.54902 0.2293 0.0
O184 O 0.45426 0.62364 0.255 0.0
O185 O 0.42932 0.61868 0.30078 0.0
C186 C 0.47172 0.62337 0.19434 0.0
C187 C 0.43049 0.62701 0.27209 0.0
C188 C 0.12217 0.83258 0.34947 0.0
C189 C 0.14407 0.83714 0.37316 0.0
C190 C 0.10164 0.85204 0.34155 0.0
C191 C 0.05891 0.90602 0.36493 0.0
H192 H 0.08396 0.94515 0.28923 0.0
C193 C 0.02241 0.01151 0.34287 0.0
C194 C 0.02251 0.02205 0.31148 0.0
C195 C 0.03042 0.98558 0.34817 0.0
C196 C 0.07599 0.93416 0.30988 0.0
H197 H 0.16068 0.86475 0.40854 0.0
H198 H 0.12385 0.89863 0.39553 0.0
H199 H 0.11054 0.90558 0.30448 0.0
H200 H 0.03023 0.01342 0.26087 0.0
H201 H 0.0424 0.9675 0.2697 0.0
H202 H 0.02424 0.93424 0.37048 0.0
C203 C 0.12296 0.88009 0.38287 0.0
C204 C 0.09147 0.91162 0.31872 0.0
C205 C 0.14384 0.86078 0.39038 0.0
C206 C 0.02914 0.00566 0.28521 0.0
C207 C 0.03677 0.97947 0.29044 0.0
C208 C 0.04302 0.92831 0.35578 0.0
C209 C 0.10227 0.87606 0.35783 0.0
C210 C 0.08349 0.89783 0.34672 0.0
C211 C 0.03855 0.96933 0.32215 0.0
C212 C 0.05192 0.94318 0.32868 0.0
H213 H 0.12165 0.81427 0.33634 0.0
H214 H 0.08579 0.84862 0.32219 0.0
H215 H 0.05238 0.89547 0.38653 0.0
H216 H 0.01749 0.02371 0.36365 0.0
H217 H 0.0319 0.97886 0.37297 0.0
C218 C 0.35294 0.63408 0.88438 0.0
C219 C 0.35903 0.6587 0.87119 0.0
C220 C 0.37228 0.61321 0.87878 0.0
C221 C 0.43073 0.59119 0.82145 0.0
H222 H 0.44028 0.53641 0.88522 0.0
C223 C 0.47063 0.48688 0.78945 0.0
C224 C 0.48439 0.47201 0.81371 0.0
C225 C 0.46112 0.51238 0.79604 0.0
C226 C 0.43845 0.55169 0.86722 0.0
H227 H 0.39034 0.68149 0.84327 0.0
H228 H 0.42479 0.64519 0.83393 0.0
H229 H 0.41317 0.57563 0.89945 0.0
H230 H 0.50142 0.4726 0.86276 0.0
H231 H 0.48627 0.51738 0.87385 0.0
H232 H 0.45653 0.56733 0.78939 0.0
C233 C 0.40476 0.64168 0.84788 0.0
C234 C 0.42237 0.57408 0.87527 0.0
C235 C 0.38523 0.66248 0.85332 0.0
C236 C 0.49061 0.48366 0.84374 0.0
C237 C 0.48162 0.50922 0.85016 0.0
C238 C 0.44711 0.56885 0.81346 0.0
C239 C 0.39828 0.61663 0.86008 0.0
C240 C 0.41776 0.59391 0.85233 0.0
C241 C 0.4655 0.52351 0.82695 0.0
C242 C 0.45078 0.54858 0.83608 0.0
H243 H 0.33262 0.63085 0.89796 0.0
H244 H 0.36624 0.59418 0.88817 0.0
H245 H 0.42746 0.60594 0.80301 0.0
H246 H 0.46533 0.4782 0.76619 0.0
H247 H 0.44868 0.52265 0.77756 0.0
C248 C 0.65346 0.63234 0.64427 0.0
C249 C 0.64657 0.658 0.65323 0.0
C250 C 0.6352 0.61168 0.65417 0.0
C251 C 0.56087 0.59298 0.68086 0.0
H252 H 0.60175 0.53722 0.72625 0.0
C253 C 0.53733 0.48832 0.75113 0.0
C254 C 0.52391 0.4744 0.72568 0.0
C255 C 0.54718 0.514 0.74624 0.0
C256 C 0.58994 0.55281 0.71405 0.0
H257 H 0.61497 0.68276 0.67792 0.0
H258 H 0.5822 0.64656 0.69457 0.0
H259 H 0.62993 0.57504 0.70707 0.0
H260 H 0.50807 0.47676 0.67623 0.0
H261 H 0.52457 0.52174 0.66792 0.0
H262 H 0.52103 0.57009 0.68674 0.0
C263 C 0.60184 0.64238 0.68023 0.0
C264 C 0.60612 0.57426 0.70274 0.0
C265 C 0.62044 0.66298 0.67079 0.0
C266 C 0.51829 0.48718 0.69624 0.0
C267 C 0.52765 0.51292 0.69153 0.0
C268 C 0.54472 0.57122 0.69168 0.0
C269 C 0.60952 0.61648 0.67274 0.0
C270 C 0.59183 0.59438 0.68569 0.0
C271 C 0.54334 0.52618 0.71598 0.0
C272 C 0.55919 0.55082 0.70815 0.0
H273 H 0.6737 0.62826 0.63092 0.0
H274 H 0.64144 0.59189 0.64786 0.0
H275 H 0.54936 0.60829 0.66782 0.0
H276 H 0.5422 0.47877 0.77393 0.0
H277 H 0.55911 0.52387 0.76552 0.0
C278 C 0.87329 0.83765 0.17111 0.0
C279 C 0.84901 0.84315 0.15087 0.0
C280 C 0.89436 0.85702 0.1782 0.0
C281 C 0.92036 0.92316 0.15266 0.0
H282 H 0.94692 0.92845 0.24184 0.0
C283 C 0.9898 0.01109 0.19176 0.0
C284 C 0.98132 0.02289 0.22099 0.0
C285 C 0.98055 0.98573 0.18439 0.0
C286 C 0.93968 0.92733 0.21686 0.0
H287 H 0.82781 0.87249 0.12139 0.0
H288 H 0.86411 0.90666 0.134 0.0
H289 H 0.91647 0.89138 0.22507 0.0
H290 H 0.95796 0.01724 0.26627 0.0
H291 H 0.94069 0.97322 0.25306 0.0
H292 H 0.94168 0.95983 0.14479 0.0
C293 C 0.86747 0.88737 0.14407 0.0
C294 C 0.92251 0.90584 0.20709 0.0
C295 C 0.84659 0.86792 0.13684 0.0
C296 C 0.96496 0.00839 0.24367 0.0
C297 C 0.95515 0.98312 0.23604 0.0
C298 C 0.9372 0.94472 0.16247 0.0
C299 C 0.8914 0.88231 0.16527 0.0
C300 C 0.91215 0.90373 0.17498 0.0
C301 C 0.96182 0.97187 0.20569 0.0
C302 C 0.94673 0.94736 0.19483 0.0
H303 H 0.8756 0.81847 0.18182 0.0
H304 H 0.91276 0.85224 0.19408 0.0
H305 H 0.91328 0.92201 0.12761 0.0
H306 H 0.00256 0.02193 0.17398 0.0
H307 H 0.98699 0.97746 0.16128 0.0
C308 C 0.85384 0.12935 0.64509 0.0
C309 C 0.85665 0.1542 0.65895 0.0
C310 C 0.87452 0.10983 0.65229 0.0
C311 C 0.9297 0.09113 0.71483 0.0
H312 H 0.94915 0.03793 0.65156 0.0
C313 C 0.97192 0.98804 0.74868 0.0
C314 C 0.98804 0.97395 0.72542 0.0
C315 C 0.96253 0.01356 0.74203 0.0
C316 C 0.94458 0.05282 0.66952 0.0
H317 H 0.88371 0.17886 0.68969 0.0
H318 H 0.9204 0.1449 0.70204 0.0
H319 H 0.92044 0.07562 0.6351 0.0
H320 H 0.0097 0.97601 0.67869 0.0
H321 H 0.99494 0.02091 0.66781 0.0
H322 H 0.95421 0.06834 0.74919 0.0
C323 C 0.90188 0.14017 0.68625 0.0
C324 C 0.92758 0.0743 0.66011 0.0
C325 C 0.88106 0.15963 0.67912 0.0
C326 C 0.99712 0.98652 0.69691 0.0
C327 C 0.9883 0.01212 0.69054 0.0
C328 C 0.94698 0.06968 0.72422 0.0
C329 C 0.8986 0.11486 0.67335 0.0
C330 C 0.91932 0.09345 0.68275 0.0
C331 C 0.96944 0.02546 0.71215 0.0
C332 C 0.95419 0.04996 0.70181 0.0
H333 H 0.83497 0.12482 0.6297 0.0
H334 H 0.87095 0.09052 0.64225 0.0
H335 H 0.92361 0.1054 0.73303 0.0
H336 H 0.96447 0.97861 0.77073 0.0
H337 H 0.94802 0.02311 0.75929 0.0
C338 C 0.66672 0.36688 0.17038 0.0
C339 C 0.65676 0.34389 0.15529 0.0
C340 C 0.64652 0.38622 0.1794 0.0
C341 C 0.5788 0.41823 0.16192 0.0
H342 H 0.57308 0.43276 0.25399 0.0
C343 C 0.51024 0.50545 0.20496 0.0
C344 C 0.52329 0.52067 0.2294 0.0
C345 C 0.52027 0.48008 0.19912 0.0
C346 C 0.57451 0.42918 0.22819 0.0
H347 H 0.61826 0.32357 0.1361 0.0
H348 H 0.58277 0.35837 0.1504 0.0
H349 H 0.60436 0.39694 0.23492 0.0
H350 H 0.55588 0.52139 0.2679 0.0
H351 H 0.5746 0.47764 0.25697 0.0
H352 H 0.55103 0.45139 0.15453 0.0
C353 C 0.60621 0.36095 0.15587 0.0
C354 C 0.59225 0.40853 0.21736 0.0
C355 C 0.62644 0.34127 0.14745 0.0
C356 C 0.54525 0.50973 0.24923 0.0
C357 C 0.55589 0.48458 0.24287 0.0
C358 C 0.56157 0.43925 0.17263 0.0
C359 C 0.61607 0.3832 0.17273 0.0
C360 C 0.59486 0.40318 0.18414 0.0
C361 C 0.54437 0.46978 0.21682 0.0
C362 C 0.55957 0.44535 0.20593 0.0
H363 H 0.69009 0.36943 0.17616 0.0
H364 H 0.65462 0.40344 0.19194 0.0
H365 H 0.58072 0.4145 0.13616 0.0
H366 H 0.49326 0.51367 0.18935 0.0
H367 H 0.51008 0.46907 0.17962 0.0
C368 C 0.37424 0.33585 0.35461 0.0
C369 C 0.35309 0.34009 0.37914 0.0
C370 C 0.39506 0.35519 0.34684 0.0
C371 C 0.43672 0.4109 0.37414 0.0
H372 H 0.41972 0.44396 0.29173 0.0
C373 C 0.47346 0.51567 0.34686 0.0
C374 C 0.47602 0.52455 0.3148 0.0
C375 C 0.46537 0.48992 0.35346 0.0
C376 C 0.42556 0.43467 0.31438 0.0
H377 H 0.33827 0.36698 0.41619 0.0
H378 H 0.3758 0.40048 0.40365 0.0
H379 H 0.39314 0.40437 0.30704 0.0
H380 H 0.47274 0.51308 0.26451 0.0
H381 H 0.46101 0.46745 0.27578 0.0
H382 H 0.46949 0.44064 0.38154 0.0
C383 C 0.3758 0.38234 0.39011 0.0
C384 C 0.41005 0.41207 0.32322 0.0
C385 C 0.35448 0.36323 0.39735 0.0
C386 C 0.47197 0.50665 0.28941 0.0
C387 C 0.46443 0.4806 0.296 0.0
C388 C 0.45283 0.43313 0.36499 0.0
C389 C 0.39565 0.37874 0.36421 0.0
C390 C 0.41493 0.40047 0.3535 0.0
C391 C 0.45996 0.4721 0.32815 0.0
C392 C 0.44676 0.4459 0.33543 0.0
H393 H 0.37399 0.31788 0.34077 0.0
H394 H 0.4103 0.35201 0.32688 0.0
H395 H 0.44096 0.40206 0.39752 0.0
H396 H 0.47636 0.52902 0.36703 0.0
H397 H 0.46174 0.48458 0.37851 0.0
C398 C 0.1248 0.15546 0.88077 0.0
C399 C 0.15582 0.15233 0.88134 0.0
C400 C 0.10622 0.13414 0.87396 0.0
C401 C 0.07775 0.0884 0.83533 0.0
H402 H 0.08972 0.02295 0.88064 0.0
C403 C 0.03698 0.98543 0.79255 0.0
C404 C 0.02676 0.96854 0.81696 0.0
C405 C 0.04754 0.01044 0.80053 0.0
C406 C 0.0859 0.04116 0.86795 0.0
H407 H 0.19204 0.12499 0.87621 0.0
H408 H 0.15962 0.0873 0.86522 0.0
H409 H 0.11922 0.06115 0.8957 0.0
H410 H 0.01739 0.96515 0.86829 0.0
H411 H 0.03578 0.00856 0.88213 0.0
H412 H 0.0449 0.068 0.80695 0.0
C413 C 0.14959 0.10618 0.86976 0.0
C414 C 0.10295 0.06294 0.87643 0.0
C415 C 0.1681 0.12758 0.87601 0.0
C416 C 0.02534 0.97771 0.84901 0.0
C417 C 0.03595 0.00251 0.85696 0.0
C418 C 0.06094 0.0664 0.82646 0.0
C419 C 0.11849 0.10933 0.86821 0.0
C420 C 0.09916 0.08673 0.86015 0.0
C421 C 0.04827 0.01872 0.83305 0.0
C422 C 0.06489 0.04257 0.84273 0.0
H423 H 0.11511 0.17457 0.88459 0.0
H424 H 0.08233 0.13702 0.87312 0.0
H425 H 0.07459 0.10651 0.82224 0.0
H426 H 0.03889 0.97869 0.76778 0.0
H427 H 0.05704 0.02253 0.78163 0.0
C428 C 0.14261 0.20512 0.95355 0.0
C429 C 0.16198 0.18632 0.94073 0.0
C430 C 0.12968 0.20149 0.98405 0.0
C431 C 0.13947 0.16779 0.06176 0.0
H432 H 0.05419 0.17694 0.07049 0.0
C433 C 0.07235 0.13372 0.17469 0.0
C434 C 0.04495 0.14585 0.18099 0.0
C435 C 0.08968 0.14162 0.14814 0.0
C436 C 0.07815 0.17489 0.06891 0.0
H437 H 0.1833 0.14918 0.94925 0.0
H438 H 0.16087 0.14277 1.00303 0.0
H439 H 0.07773 0.18433 0.01839 0.0
H440 H 0.01557 0.17729 0.16699 0.0
H441 H 0.04658 0.19235 0.12238 0.0
H442 H 0.14003 0.15869 0.11242 0.0
C443 C 0.15567 0.1603 0.98952 0.0
C444 C 0.09158 0.17894 0.03881 0.0
C445 C 0.16824 0.1638 0.95878 0.0
C446 C 0.03658 0.16756 0.16246 0.0
C447 C 0.05417 0.17586 0.13653 0.0
C448 C 0.12608 0.1641 0.09212 0.0
C449 C 0.13623 0.17913 1.00248 0.0
C450 C 0.12233 0.17528 0.03481 0.0
C451 C 0.0801 0.1621 0.1278 0.0
C452 C 0.09515 0.16748 0.09612 0.0
H453 H 0.13758 0.22261 0.93988 0.0
H454 H 0.11487 0.21636 0.99345 0.0
H455 H 0.16331 0.16505 0.05941 0.0
H456 H 0.0791 0.11675 0.18849 0.0
H457 H 0.10944 0.13047 0.14236 0.0
C458 C 0.36444 0.30899 0.44676 0.0
C459 C 0.33442 0.31563 0.44278 0.0
C460 C 0.37841 0.31228 0.47678 0.0
C461 C 0.36318 0.32231 0.56487 0.0
H462 H 0.44563 0.34499 0.56509 0.0
C463 C 0.43133 0.35894 0.67806 0.0
C464 C 0.46146 0.3515 0.67865 0.0
C465 C 0.41306 0.35171 0.65184 0.0
C466 C 0.42268 0.33836 0.56549 0.0
H467 H 0.29537 0.33119 0.46644 0.0
H468 H 0.31977 0.33752 0.51901 0.0
H469 H 0.41979 0.33936 0.5139 0.0
H470 H 0.49524 0.32856 0.65429 0.0
H471 H 0.46348 0.31564 0.60926 0.0
H472 H 0.36626 0.32204 0.61689 0.0
C473 C 0.33249 0.32919 0.49927 0.0
C474 C 0.40784 0.33506 0.53606 0.0
C475 C 0.31851 0.3257 0.46923 0.0
C476 C 0.47217 0.3348 0.6543 0.0
C477 C 0.45405 0.32757 0.62836 0.0
C478 C 0.37805 0.32586 0.5945 0.0
C479 C 0.36269 0.32255 0.50347 0.0
C480 C 0.37799 0.32669 0.53523 0.0
C481 C 0.42477 0.33697 0.62598 0.0
C482 C 0.40811 0.33359 0.59506 0.0
H483 H 0.37694 0.30096 0.42666 0.0
H484 H 0.4015 0.30647 0.47913 0.0
H485 H 0.34025 0.31565 0.56523 0.0
H486 H 0.42258 0.37201 0.69636 0.0
H487 H 0.39051 0.35916 0.6507 0.0
C488 C 0.6719 0.33653 0.07663 0.0
C489 C 0.6673 0.31304 0.09336 0.0
C490 C 0.65953 0.34017 0.04576 0.0
C491 C 0.59777 0.31886 0.99447 0.0
H492 H 0.64554 0.34299 0.92211 0.0
C493 C 0.5435 0.32815 0.87016 0.0
C494 C 0.55054 0.35043 0.85199 0.0
C495 C 0.56138 0.32066 0.89623 0.0
C496 C 0.63175 0.33649 0.94206 0.0
H497 H 0.64611 0.27515 0.09177 0.0
H498 H 0.62373 0.28161 0.03814 0.0
H499 H 0.66854 0.33744 0.97542 0.0
H500 H 0.58267 0.3815 0.8453 0.0
H501 H 0.61344 0.3692 0.89166 0.0
H502 H 0.56073 0.3189 0.96219 0.0
C503 C 0.63707 0.29714 0.04859 0.0
C504 C 0.64499 0.33329 0.9726 0.0
C505 C 0.64983 0.29339 0.07913 0.0
C506 C 0.57701 0.36403 0.85878 0.0
C507 C 0.59457 0.35695 0.88549 0.0
C508 C 0.58445 0.32244 0.96422 0.0
C509 C 0.64193 0.32049 0.03146 0.0
C510 C 0.62812 0.32434 0.99907 0.0
C511 C 0.5862 0.33584 0.90551 0.0
C512 C 0.60121 0.33116 0.93741 0.0
H513 H 0.68547 0.35182 0.08727 0.0
H514 H 0.66341 0.35844 0.03324 0.0
H515 H 0.58411 0.3123 1.01453 0.0
H516 H 0.52319 0.31733 0.8653 0.0
H517 H 0.55479 0.30367 0.9101 0.0
C518 C 0.82045 0.16645 0.56931 0.0
C519 C 0.83707 0.177 0.59501 0.0
C520 C 0.83366 0.16245 0.53895 0.0
C521 C 0.90811 0.15667 0.4999 0.0
H522 H 0.86471 0.16969 0.42021 0.0
C523 C 0.97001 0.16 0.38032 0.0
C524 C 0.95951 0.14306 0.35606 0.0
C525 C 0.95212 0.16641 0.40674 0.0
C526 C 0.87699 0.16586 0.44229 0.0
H527 H 0.88008 0.19191 0.60947 0.0
H528 H 0.90327 0.18549 0.55655 0.0
H529 H 0.83974 0.17548 0.47257 0.0
H530 H 0.92115 0.12124 0.33904 0.0
H531 H 0.88947 0.13272 0.38551 0.0
H532 H 0.9454 0.14748 0.46985 0.0
C533 C 0.88023 0.17967 0.55969 0.0
C534 C 0.86271 0.16905 0.4723 0.0
C535 C 0.86705 0.18346 0.59 0.0
C536 C 0.92972 0.13451 0.35728 0.0
C537 C 0.91168 0.14096 0.38394 0.0
C538 C 0.92235 0.15375 0.47009 0.0
C539 C 0.86377 0.16904 0.53371 0.0
C540 C 0.87822 0.16476 0.50154 0.0
C541 C 0.92329 0.15597 0.40965 0.0
C542 C 0.90713 0.15859 0.44095 0.0
H543 H 0.79733 0.16109 0.57288 0.0
H544 H 0.8204 0.15387 0.51976 0.0
H545 H 0.92059 0.15243 0.52172 0.0
H546 H 0.99278 0.16709 0.37988 0.0
H547 H 0.96143 0.17853 0.42578 0.0
C548 C 0.81399 0.83002 0.06128 0.0
C549 C 0.82972 0.81924 0.0874 0.0
C550 C 0.82783 0.83325 0.03111 0.0
C551 C 0.90318 0.83592 0.99336 0.0
H552 H 0.86009 0.82479 0.91296 0.0
C553 C 0.9663 0.83033 0.87471 0.0
C554 C 0.95744 0.84831 0.85091 0.0
C555 C 0.94758 0.82433 0.9006 0.0
C556 C 0.8723 0.82805 0.93525 0.0
H557 H 0.87174 0.80309 0.10283 0.0
H558 H 0.89594 0.80801 0.05021 0.0
H559 H 0.83412 0.82001 0.9649 0.0
H560 H 0.92095 0.87236 0.83405 0.0
H561 H 0.88779 0.86154 0.87948 0.0
H562 H 0.94139 0.84348 0.9639 0.0
C563 C 0.87319 0.81467 0.05287 0.0
C564 C 0.85745 0.82545 0.96503 0.0
C565 C 0.85941 0.8117 0.083 0.0
C566 C 0.92827 0.85826 0.85188 0.0
C567 C 0.90938 0.8522 0.87798 0.0
C568 C 0.91799 0.8382 0.96378 0.0
C569 C 0.85767 0.82559 0.02647 0.0
C570 C 0.87282 0.82912 0.99452 0.0
C571 C 0.91951 0.83618 0.90338 0.0
C572 C 0.90286 0.83404 0.9344 0.0
H573 H 0.79111 0.83619 0.06439 0.0
H574 H 0.81528 0.84209 1.0116 0.0
H575 H 0.91563 0.83968 1.01536 0.0
H576 H 0.98856 0.82216 0.87445 0.0
H577 H 0.95572 0.81146 0.91943 0.0
C578 C 0.68062 0.67139 0.56249 0.0
C579 C 0.66352 0.68101 0.58831 0.0
C580 C 0.66755 0.66695 0.53213 0.0
C581 C 0.59333 0.65893 0.49262 0.0
H582 H 0.63637 0.67482 0.41348 0.0
C583 C 0.53125 0.66419 0.37356 0.0
C584 C 0.54124 0.64697 0.34939 0.0
C585 C 0.54946 0.67061 0.39974 0.0
C586 C 0.62421 0.67019 0.43541 0.0
H587 H 0.61975 0.6937 0.60304 0.0
H588 H 0.5968 0.68653 0.55014 0.0
H589 H 0.66108 0.68031 0.46608 0.0
H590 H 0.57921 0.625 0.33201 0.0
H591 H 0.61149 0.63654 0.37808 0.0
H592 H 0.55633 0.64944 0.46215 0.0
C593 C 0.62012 0.68173 0.55317 0.0
C594 C 0.63835 0.6732 0.46556 0.0
C595 C 0.63316 0.68592 0.58349 0.0
C596 C 0.57099 0.63841 0.35022 0.0
C597 C 0.58938 0.64489 0.37665 0.0
C598 C 0.57921 0.65627 0.46269 0.0
C599 C 0.63711 0.67219 0.52698 0.0
C600 C 0.62293 0.66789 0.49462 0.0
C601 C 0.57814 0.65996 0.40244 0.0
C602 C 0.5943 0.66217 0.43378 0.0
H603 H 0.70406 0.66729 0.5659 0.0
H604 H 0.68126 0.65922 0.5128 0.0
H605 H 0.58095 0.65389 0.51425 0.0
H606 H 0.50852 0.67131 0.37339 0.0
H607 H 0.54047 0.68274 0.41889 0.0
C608 C 0.3178 0.67554 0.95805 0.0
C609 C 0.33751 0.6833 0.93347 0.0
C610 C 0.32823 0.67083 0.98946 0.0
C611 C 0.35837 0.64783 0.04899 0.0
H612 H 0.4237 0.68942 0.08277 0.0
C613 C 0.43314 0.61355 0.15355 0.0
C614 C 0.44678 0.63196 0.1739 0.0
C615 C 0.41472 0.62156 0.1282 0.0
C616 C 0.40509 0.67788 0.07406 0.0
H617 H 0.38349 0.6918 0.92205 0.0
H618 H 0.40212 0.68279 0.97658 0.0
H619 H 0.40227 0.70011 0.0303 0.0
H620 H 0.45142 0.6731 0.18463 0.0
H621 H 0.41836 0.68736 0.14069 0.0
H622 H 0.36103 0.62574 0.09289 0.0
C623 C 0.37844 0.68096 0.97199 0.0
C624 C 0.39311 0.68374 0.04362 0.0
C625 C 0.36793 0.68579 0.94066 0.0
C626 C 0.44059 0.65855 0.16958 0.0
C627 C 0.42206 0.66666 0.14413 0.0
C628 C 0.37025 0.64204 0.0795 0.0
C629 C 0.35871 0.67359 0.99692 0.0
C630 C 0.37 0.66847 0.03036 0.0
C631 C 0.40967 0.64827 0.12246 0.0
C632 C 0.3942 0.65664 0.09217 0.0
H633 H 0.2943 0.67312 0.9529 0.0
H634 H 0.31232 0.66535 1.00797 0.0
H635 H 0.34069 0.63553 0.03959 0.0
H636 H 0.43813 0.59295 0.15612 0.0
H637 H 0.40605 0.60681 0.11188 0.0
C638 C 0.18005 0.82348 0.46288 0.0
C639 C 0.1636 0.81331 0.43683 0.0
C640 C 0.16667 0.82705 0.4932 0.0
C641 C 0.09215 0.83286 0.53179 0.0
H642 H 0.13545 0.81981 0.61154 0.0
C643 C 0.03069 0.83334 0.65192 0.0
C644 C 0.0424 0.84989 0.67594 0.0
C645 C 0.04797 0.82592 0.62543 0.0
C646 C 0.12318 0.82363 0.58945 0.0
H647 H 0.12067 0.79864 0.4217 0.0
H648 H 0.09715 0.80433 0.47466 0.0
H649 H 0.16024 0.8134 0.55923 0.0
H650 H 0.08212 0.87003 0.69238 0.0
H651 H 0.11269 0.85684 0.6458 0.0
H652 H 0.0551 0.84284 0.56178 0.0
C653 C 0.12022 0.81012 0.47178 0.0
C654 C 0.13736 0.82007 0.55946 0.0
C655 C 0.13359 0.80675 0.44148 0.0
C656 C 0.07263 0.85705 0.67437 0.0
C657 C 0.09004 0.84962 0.64762 0.0
C658 C 0.078 0.83617 0.5616 0.0
C659 C 0.13654 0.82041 0.49809 0.0
C660 C 0.12193 0.8245 0.53021 0.0
C661 C 0.07737 0.83499 0.62215 0.0
C662 C 0.0932 0.83141 0.59079 0.0
H663 H 0.20318 0.82893 0.45958 0.0
H664 H 0.17983 0.83541 0.51263 0.0
H665 H 0.07974 0.83717 0.50995 0.0
H666 H 0.00752 0.82733 0.65264 0.0
H667 H 0.03781 0.81409 0.60662 0.0
C668 C 0.27181 0.25434 0.35264 0.0
C669 C 0.26765 0.28124 0.35673 0.0
C670 C 0.25123 0.23957 0.33494 0.0
C671 C 0.17316 0.24015 0.30626 0.0
H672 H 0.19981 0.18089 0.25543 0.0
C673 C 0.0882 0.16818 0.2535 0.0
C674 C 0.09364 0.14292 0.2653 0.0
C675 C 0.11093 0.18702 0.25405 0.0
C676 C 0.19204 0.19751 0.26929 0.0
H677 H 0.2393 0.31406 0.34584 0.0
H678 H 0.2032 0.28841 0.31434 0.0
H679 H 0.23647 0.2106 0.27916 0.0
H680 H 0.12746 0.11664 0.28341 0.0
H681 H 0.16712 0.14909 0.28362 0.0
H682 H 0.12878 0.22662 0.29714 0.0
C683 C 0.22208 0.27854 0.32508 0.0
C684 C 0.21302 0.21442 0.28313 0.0
C685 C 0.24265 0.29325 0.34296 0.0
C686 C 0.12276 0.13601 0.27419 0.0
C687 C 0.14549 0.15463 0.27425 0.0
C688 C 0.15219 0.22333 0.29225 0.0
C689 C 0.22613 0.25148 0.32078 0.0
C690 C 0.20386 0.23548 0.30266 0.0
C691 C 0.13945 0.18068 0.26587 0.0
C692 C 0.16141 0.20135 0.27446 0.0
H693 H 0.29111 0.24488 0.3631 0.0
H694 H 0.25481 0.21873 0.33275 0.0
H695 H 0.16524 0.25601 0.32133 0.0
H696 H 0.06586 0.17401 0.24672 0.0
H697 H 0.10574 0.20689 0.24709 0.0
C698 C 0.2525 0.21338 0.84098 0.0
C699 C 0.2263 0.22369 0.85437 0.0
C700 C 0.27268 0.22962 0.82475 0.0
C701 C 0.29559 0.29858 0.82105 0.0
H702 H 0.34042 0.27683 0.74537 0.0
C703 C 0.38319 0.36696 0.77089 0.0
C704 C 0.41122 0.35556 0.76613 0.0
C705 C 0.35765 0.35143 0.77247 0.0
C706 C 0.32809 0.28317 0.76651 0.0
H707 H 0.19992 0.25857 0.8605 0.0
H708 H 0.23504 0.28716 0.8321 0.0
H709 H 0.30151 0.24826 0.76734 0.0
H710 H 0.43454 0.31948 0.75645 0.0
H711 H 0.38995 0.292 0.76011 0.0
H712 H 0.32247 0.33293 0.82117 0.0
C713 C 0.24035 0.26663 0.83449 0.0
C714 C 0.30585 0.26679 0.77914 0.0
C715 C 0.22025 0.25037 0.85074 0.0
C716 C 0.41304 0.32868 0.75982 0.0
C717 C 0.38746 0.31297 0.76204 0.0
C718 C 0.31773 0.31485 0.80853 0.0
C719 C 0.267 0.25653 0.82162 0.0
C720 C 0.2895 0.27426 0.80674 0.0
C721 C 0.35975 0.32407 0.77026 0.0
C722 C 0.33443 0.30736 0.78121 0.0
H723 H 0.2576 0.19284 0.84373 0.0
H724 H 0.29314 0.22125 0.81554 0.0
H725 H 0.28395 0.30474 0.84272 0.0
H726 H 0.38133 0.38769 0.77579 0.0
H727 H 0.33654 0.36072 0.77776 0.0
C728 C 0.77701 0.24242 0.68257 0.0
C729 C 0.77369 0.21523 0.68139 0.0
C730 C 0.75639 0.25773 0.69936 0.0
C731 C 0.67899 0.25678 0.72992 0.0
H732 H 0.70441 0.32003 0.77385 0.0
C733 C 0.59273 0.32943 0.77879 0.0
C734 C 0.59707 0.3543 0.76524 0.0
C735 C 0.61593 0.31112 0.77852 0.0
C736 C 0.69698 0.30233 0.76189 0.0
H737 H 0.74688 0.18244 0.6967 0.0
H738 H 0.71072 0.20906 0.72662 0.0
H739 H 0.74167 0.28999 0.75234 0.0
H740 H 0.62955 0.3805 0.74395 0.0
H741 H 0.66997 0.34898 0.74407 0.0
H742 H 0.63431 0.2695 0.73867 0.0
C743 C 0.72896 0.21872 0.71428 0.0
C744 C 0.71831 0.2852 0.74934 0.0
C745 C 0.74959 0.20346 0.69733 0.0
C746 C 0.62563 0.36142 0.75449 0.0
C747 C 0.64883 0.34334 0.75465 0.0
C748 C 0.65767 0.27385 0.74261 0.0
C749 C 0.73208 0.24609 0.71548 0.0
C750 C 0.70957 0.26261 0.73233 0.0
C751 C 0.64387 0.31762 0.76521 0.0
C752 C 0.66641 0.2972 0.75788 0.0
H753 H 0.79558 0.25171 0.67039 0.0
H754 H 0.75922 0.27874 0.6992 0.0
H755 H 0.67138 0.23971 0.71676 0.0
H756 H 0.57085 0.32341 0.78705 0.0
H757 H 0.61157 0.29151 0.78715 0.0
C758 C 0.72899 0.24841 0.18004 0.0
C759 C 0.73169 0.27569 0.17962 0.0
C760 C 0.74933 0.23324 0.19746 0.0
C761 C 0.8255 0.23522 0.23126 0.0
H762 H 0.79996 0.1719 0.27473 0.0
C763 C 0.91225 0.16475 0.28218 0.0
C764 C 0.90862 0.13974 0.26875 0.0
C765 C 0.8885 0.18249 0.28185 0.0
C766 C 0.80741 0.18962 0.2629 0.0
H767 H 0.75752 0.30863 0.19668 0.0
H768 H 0.79293 0.28229 0.22761 0.0
H769 H 0.76281 0.20109 0.25126 0.0
H770 H 0.8769 0.11261 0.24785 0.0
H771 H 0.83558 0.14314 0.2477 0.0
H772 H 0.87009 0.22337 0.24189 0.0
C773 C 0.77534 0.27249 0.21432 0.0
C774 C 0.78616 0.20625 0.24924 0.0
C775 C 0.75503 0.28759 0.19683 0.0
C776 C 0.88023 0.13182 0.25831 0.0
C777 C 0.85651 0.14935 0.25832 0.0
C778 C 0.84672 0.21863 0.24497 0.0
C779 C 0.77276 0.2451 0.21486 0.0
C780 C 0.795 0.22888 0.23246 0.0
C781 C 0.86078 0.1753 0.26845 0.0
C782 C 0.838 0.19526 0.26014 0.0
H783 H 0.71097 0.2389 0.16712 0.0
H784 H 0.74694 0.21219 0.19689 0.0
H785 H 0.83316 0.25234 0.21829 0.0
H786 H 0.934 0.17134 0.29022 0.0
H787 H 0.89232 0.20227 0.29025 0.0
C788 C 0.75132 0.71336 0.68696 0.0
C789 C 0.72545 0.72368 0.67295 0.0
C790 C 0.77166 0.72978 0.70275 0.0
C791 C 0.79542 0.79867 0.70491 0.0
H792 H 0.83769 0.77846 0.78294 0.0
C793 C 0.87988 0.86873 0.75809 0.0
C794 C 0.90796 0.85785 0.76428 0.0
C795 C 0.85479 0.85276 0.75534 0.0
C796 C 0.82609 0.78434 0.76113 0.0
H797 H 0.69975 0.7586 0.66481 0.0
H798 H 0.73511 0.7876 0.69252 0.0
H799 H 0.79952 0.74943 0.76022 0.0
H800 H 0.93159 0.82222 0.77556 0.0
H801 H 0.88777 0.79398 0.76992 0.0
H802 H 0.82222 0.83308 0.70501 0.0
C803 C 0.74009 0.76694 0.69102 0.0
C804 C 0.80429 0.7677 0.74806 0.0
C805 C 0.71984 0.75049 0.67526 0.0
C806 C 0.91008 0.83104 0.77095 0.0
C807 C 0.88496 0.8149 0.76762 0.0
C808 C 0.8171 0.8152 0.71788 0.0
C809 C 0.7664 0.75683 0.70475 0.0
C810 C 0.7888 0.77466 0.71969 0.0
C811 C 0.85739 0.82547 0.75794 0.0
C812 C 0.83281 0.80829 0.74611 0.0
H813 H 0.75578 0.69261 0.68539 0.0
H814 H 0.79181 0.72139 0.71269 0.0
H815 H 0.78446 0.80441 0.68266 0.0
H816 H 0.87771 0.88941 0.75306 0.0
H817 H 0.83371 0.86165 0.74897 0.0
C818 C 0.76735 0.75652 0.17584 0.0
C819 C 0.76448 0.78369 0.17394 0.0
C820 C 0.74645 0.7417 0.19298 0.0
C821 C 0.66903 0.74363 0.22316 0.0
H822 H 0.69372 0.68117 0.26887 0.0
C823 C 0.58227 0.67099 0.27245 0.0
C824 C 0.58686 0.64611 0.25907 0.0
C825 C 0.60536 0.68954 0.27214 0.0
C826 C 0.6865 0.69868 0.25644 0.0
H827 H 0.73816 0.81699 0.18826 0.0
H828 H 0.70145 0.79122 0.21872 0.0
H829 H 0.73133 0.71085 0.24706 0.0
H830 H 0.61945 0.62015 0.23777 0.0
H831 H 0.65971 0.652 0.23796 0.0
H832 H 0.62419 0.731 0.23171 0.0
C833 C 0.71959 0.7812 0.20672 0.0
C834 C 0.70802 0.71559 0.24372 0.0
C835 C 0.74051 0.79596 0.18945 0.0
C836 C 0.61542 0.63924 0.24825 0.0
C837 C 0.63851 0.6575 0.24845 0.0
C838 C 0.6475 0.72677 0.23603 0.0
C839 C 0.7223 0.75385 0.20871 0.0
C840 C 0.69955 0.73782 0.22598 0.0
C841 C 0.6334 0.6832 0.25901 0.0
C842 C 0.656 0.70367 0.25189 0.0
H843 H 0.78582 0.74684 0.164 0.0
H844 H 0.74896 0.72068 0.19342 0.0
H845 H 0.66165 0.76045 0.20948 0.0
H846 H 0.56034 0.67675 0.28074 0.0
H847 H 0.60089 0.70915 0.28067 0.0
C848 C 0.25407 0.79112 0.33637 0.0
C849 C 0.22932 0.77869 0.3502 0.0
C850 C 0.27486 0.77674 0.31851 0.0
C851 C 0.28504 0.71279 0.27671 0.0
H852 H 0.36899 0.72619 0.29159 0.0
C853 C 0.37636 0.63571 0.26881 0.0
C854 C 0.40552 0.64313 0.26065 0.0
C855 C 0.35335 0.65396 0.26834 0.0
C856 C 0.34567 0.72256 0.28644 0.0
H857 H 0.20645 0.74196 0.35668 0.0
H858 H 0.24311 0.71639 0.3263 0.0
H859 H 0.332 0.75504 0.31539 0.0
H860 H 0.43326 0.67475 0.24326 0.0
H861 H 0.39287 0.70691 0.24236 0.0
H862 H 0.29887 0.67948 0.24909 0.0
C863 C 0.24634 0.73729 0.32846 0.0
C864 C 0.3244 0.73909 0.30022 0.0
C865 C 0.22556 0.75174 0.34616 0.0
C866 C 0.41083 0.66849 0.24915 0.0
C867 C 0.38781 0.68694 0.24907 0.0
C868 C 0.30633 0.6962 0.26304 0.0
C869 C 0.27123 0.74962 0.3143 0.0
C870 C 0.29379 0.73397 0.29633 0.0
C871 C 0.35916 0.68012 0.26018 0.0
C872 C 0.33687 0.70047 0.26853 0.0
H873 H 0.25708 0.812 0.33919 0.0
H874 H 0.29358 0.78691 0.30775 0.0
H875 H 0.26167 0.70864 0.27254 0.0
H876 H 0.37183 0.61627 0.27798 0.0
H877 H 0.33164 0.64805 0.27722 0.0
C878 C 0.28127 0.74798 0.8394 0.0
C879 C 0.27905 0.72082 0.84242 0.0
C880 C 0.25983 0.76188 0.82193 0.0
C881 C 0.18186 0.75711 0.79396 0.0
H882 H 0.20289 0.81989 0.74663 0.0
C883 C 0.09055 0.826 0.74847 0.0
C884 C 0.0947 0.85114 0.76132 0.0
C885 C 0.11448 0.80843 0.74732 0.0
C886 C 0.19668 0.80228 0.75951 0.0
H887 H 0.25355 0.68657 0.82944 0.0
H888 H 0.21598 0.71069 0.79838 0.0
H889 H 0.2422 0.79171 0.76767 0.0
H890 H 0.12722 0.87861 0.77992 0.0
H891 H 0.16888 0.84844 0.77729 0.0
H892 H 0.13638 0.76814 0.78676 0.0
C893 C 0.23396 0.72143 0.8098 0.0
C894 C 0.21918 0.78622 0.77179 0.0
C895 C 0.25539 0.7076 0.82739 0.0
C896 C 0.12353 0.85931 0.76984 0.0
C897 C 0.14741 0.84199 0.76826 0.0
C898 C 0.15937 0.77311 0.78157 0.0
C899 C 0.2358 0.7488 0.807 0.0
C900 C 0.21206 0.76389 0.79009 0.0
C901 C 0.14289 0.81596 0.75856 0.0
C902 C 0.16651 0.79633 0.76512 0.0
H903 H 0.2995 0.75839 0.85083 0.0
H904 H 0.26173 0.78295 0.82082 0.0
H905 H 0.17548 0.74021 0.80813 0.0
H906 H 0.06845 0.81922 0.74198 0.0
H907 H 0.11041 0.78856 0.73941 0.0
loop_
_geom_bond_atom_site_label_1
_geom_bond_atom_site_label_2
_geom_bond_distance
_geom_bond_site_symmetry_2
_ccdc_geom_bond_type
C0 N1 1.317 . S
C0 N2 1.348 . S
C0 C3 1.485 . S
N1 C0 1.317 . S
N1 N5 1.370 . S
N2 C0 1.348 . S
N2 C4 1.346 . S
C3 C0 1.485 . S
C3 H7 0.960 . S
C3 H8 0.961 . S
C3 H9 0.960 . S
C4 N2 1.346 . S
C4 N5 1.307 . S
C4 C6 1.486 . S
N5 N1 1.370 . S
N5 C4 1.307 . S
C6 C4 1.486 . S
C6 H10 0.960 . S
C6 H11 0.960 . S
C6 H12 0.959 . S
H7 C3 0.960 . S
H8 C3 0.961 . S
H9 C3 0.960 . S
H10 C6 0.960 . S
H11 C6 0.960 . S
H12 C6 0.959 . S
C13 N14 1.317 . S
C13 N15 1.348 . S
C13 C16 1.485 . S
N14 C13 1.317 . S
N14 N18 1.370 . S
N15 C13 1.348 . S
N15 C17 1.346 . S
C16 C13 1.485 . S
C16 H20 0.960 . S
C16 H21 0.961 . S
C16 H22 0.960 . S
C17 N15 1.346 . S
C17 N18 1.307 . S
C17 C19 1.486 . S
N18 N14 1.370 . S
N18 C17 1.307 . S
C19 C17 1.486 . S
C19 H23 0.960 . S
C19 H24 0.960 . S
C19 H25 0.959 . S
H20 C16 0.960 . S
H21 C16 0.961 . S
H22 C16 0.960 . S
H23 C19 0.960 . S
H24 C19 0.960 . S
H25 C19 0.959 . S
C26 N27 1.317 . S
C26 N28 1.348 . S
C26 C29 1.485 . S
N27 C26 1.317 . S
N27 N31 1.370 . S
N28 C26 1.348 . S
N28 C30 1.346 . S
C29 C26 1.485 . S
C29 H33 0.960 . S
C29 H34 0.961 . S
C29 H35 0.960 . S
C30 N28 1.346 . S
C30 N31 1.307 . S
C30 C32 1.486 . S
N31 N27 1.370 . S
N31 C30 1.307 . S
C32 C30 1.486 . S
C32 H36 0.960 . S
C32 H37 0.960 . S
C32 H38 0.959 . S
H33 C29 0.960 . S
H34 C29 0.961 . S
H35 C29 0.960 . S
H36 C32 0.960 . S
H37 C32 0.960 . S
H38 C32 0.959 . S
C39 N40 1.317 . S
C39 N41 1.348 . S
C39 C42 1.485 . S
N40 C39 1.317 . S
N40 N44 1.370 . S
N41 C39 1.348 . S
N41 C43 1.346 . S
C42 C39 1.485 . S
C42 H46 0.960 . S
C42 H47 0.961 . S
C42 H48 0.960 . S
C43 N41 1.346 . S
C43 N44 1.307 . S
C43 C45 1.486 . S
N44 N40 1.370 . S
N44 C43 1.307 . S
C45 C43 1.486 . S
C45 H49 0.960 . S
C45 H50 0.960 . S
C45 H51 0.959 . S
H46 C42 0.960 . S
H47 C42 0.961 . S
H48 C42 0.960 . S
H49 C45 0.960 . S
H50 C45 0.960 . S
H51 C45 0.959 . S
C52 N53 1.317 . S
C52 N54 1.348 . S
C52 C55 1.485 . S
N53 C52 1.317 . S
N53 N57 1.370 . S
N54 C52 1.348 . S
N54 C56 1.346 . S
C55 C52 1.485 . S
C55 H59 0.960 . S
C55 H60 0.961 . S
C55 H61 0.960 . S
C56 N54 1.346 . S
C56 N57 1.307 . S
C56 C58 1.486 . S
N57 N53 1.370 . S
N57 C56 1.307 . S
C58 C56 1.486 . S
C58 H62 0.960 . S
C58 H63 0.960 . S
C58 H64 0.959 . S
H59 C55 0.960 . S
H60 C55 0.961 . S
H61 C55 0.960 . S
H62 C58 0.960 . S
H63 C58 0.960 . S
H64 C58 0.959 . S
C65 N66 1.317 . S
C65 N67 1.348 . S
C65 C68 1.485 . S
N66 C65 1.317 . S
N66 N70 1.370 . S
N67 C65 1.348 . S
N67 C69 1.346 . S
C68 C65 1.485 . S
C68 H72 0.960 . S
C68 H73 0.961 . S
C68 H74 0.960 . S
C69 N67 1.346 . S
C69 N70 1.307 . S
C69 C71 1.486 . S
N70 N66 1.370 . S
N70 C69 1.307 . S
C71 C69 1.486 . S
C71 H75 0.960 . S
C71 H76 0.960 . S
C71 H77 0.959 . S
H72 C68 0.960 . S
H73 C68 0.961 . S
H74 C68 0.960 . S
H75 C71 0.960 . S
H76 C71 0.960 . S
H77 C71 0.959 . S
C78 N79 1.317 . S
C78 N80 1.348 . S
C78 C81 1.485 . S
N79 C78 1.317 . S
N79 N83 1.370 . S
N80 C78 1.348 . S
N80 C82 1.346 . S
C81 C78 1.485 . S
C81 H85 0.960 . S
C81 H86 0.961 . S
C81 H87 0.960 . S
C82 N80 1.346 . S
C82 N83 1.307 . S
C82 C84 1.486 . S
N83 N79 1.370 . S
N83 C82 1.307 . S
C84 C82 1.486 . S
C84 H88 0.960 . S
C84 H89 0.960 . S
C84 H90 0.959 . S
H85 C81 0.960 . S
H86 C81 0.961 . S
H87 C81 0.960 . S
H88 C84 0.960 . S
H89 C84 0.960 . S
H90 C84 0.959 . S
C91 N92 1.317 . S
C91 N93 1.348 . S
C91 C94 1.485 . S
N92 C91 1.317 . S
N92 N96 1.370 . S
N93 C91 1.348 . S
N93 C95 1.346 . S
C94 C91 1.485 . S
C94 H98 0.960 . S
C94 H99 0.961 . S
C94 H100 0.960 . S
C95 N93 1.346 . S
C95 N96 1.307 . S
C95 C97 1.486 . S
N96 N92 1.370 . S
N96 C95 1.307 . S
C97 C95 1.486 . S
C97 H101 0.960 . S
C97 H102 0.960 . S
C97 H103 0.959 . S
H98 C94 0.960 . S
H99 C94 0.961 . S
H100 C94 0.960 . S
H101 C97 0.960 . S
H102 C97 0.960 . S
H103 C97 0.959 . S
Zn104 O110 1.920 1_455 S
Zn104 O116 1.898 . S
Zn104 O119 1.905 . S
Zn105 O113 1.905 1_655 S
Zn105 O114 1.898 . S
Zn105 O122 1.920 . S
Zn106 O109 2.080 1_455 S
Zn106 O112 2.114 . S
Zn106 O115 2.120 1_455 S
Zn106 O117 2.120 . S
Zn106 O118 2.114 . S
Zn106 O121 2.080 1_455 S
C107 O112 1.166 . S
C107 O113 1.182 . S
C108 O114 1.167 . S
C108 O115 1.299 . S
O109 Zn106 2.080 1_655 S
O109 C123 1.305 . S
O110 Zn104 1.920 1_655 S
O110 C123 1.234 . S
C111 O116 1.167 . S
C111 O117 1.299 . S
O112 Zn106 2.114 . S
O112 C107 1.166 . S
O113 Zn105 1.905 1_455 S
O113 C107 1.182 . S
O114 Zn105 1.898 . S
O114 C108 1.167 . S
O115 Zn106 2.120 1_655 S
O115 C108 1.299 . S
O116 Zn104 1.898 . S
O116 C111 1.167 . S
O117 Zn106 2.120 . S
O117 C111 1.299 . S
O118 Zn106 2.114 . S
O118 C120 1.166 . S
O119 Zn104 1.905 . S
O119 C120 1.182 . S
C120 O118 1.166 . S
C120 O119 1.182 . S
O121 Zn106 2.080 1_655 S
O121 C124 1.305 . S
O122 Zn105 1.920 . S
O122 C124 1.234 . S
C123 O109 1.305 . S
C123 O110 1.234 . S
C124 O121 1.305 . S
C124 O122 1.234 . S
Zn125 O131 1.920 . S
Zn125 O137 1.898 . S
Zn125 O140 1.905 . S
Zn126 O134 1.905 . S
Zn126 O135 1.898 . S
Zn126 O143 1.920 . S
Zn127 O130 2.080 . S
Zn127 O133 2.114 . S
Zn127 O136 2.120 . S
Zn127 O138 2.120 . S
Zn127 O139 2.114 . S
Zn127 O142 2.080 . S
C128 O133 1.166 . S
C128 O134 1.182 . S
C129 O135 1.167 . S
C129 O136 1.299 . S
O130 Zn127 2.080 . S
O130 C144 1.305 . S
O131 Zn125 1.920 . S
O131 C144 1.234 . S
C132 O137 1.167 . S
C132 O138 1.299 . S
O133 Zn127 2.114 . S
O133 C128 1.166 . S
O134 Zn126 1.905 . S
O134 C128 1.182 . S
O135 Zn126 1.898 . S
O135 C129 1.167 . S
O136 Zn127 2.120 . S
O136 C129 1.299 . S
O137 Zn125 1.898 . S
O137 C132 1.167 . S
O138 Zn127 2.120 . S
O138 C132 1.299 . S
O139 Zn127 2.114 . S
O139 C141 1.166 . S
O140 Zn125 1.905 . S
O140 C141 1.182 . S
C141 O139 1.166 . S
C141 O140 1.182 . S
O142 Zn127 2.080 . S
O142 C145 1.305 . S
O143 Zn126 1.920 . S
O143 C145 1.234 . S
C144 O130 1.305 . S
C144 O131 1.234 . S
C145 O142 1.305 . S
C145 O143 1.234 . S
Zn146 O152 1.920 . S
Zn146 O158 1.898 . S
Zn146 O161 1.905 1_455 S
Zn147 O155 1.905 . S
Zn147 O156 1.898 . S
Zn147 O164 1.920 1_655 S
Zn148 O151 2.080 . S
Zn148 O154 2.114 1_455 S
Zn148 O157 2.120 1_455 S
Zn148 O159 2.120 . S
Zn148 O160 2.114 1_455 S
Zn148 O163 2.080 . S
C149 O154 1.166 . S
C149 O155 1.182 . S
C150 O156 1.167 . S
C150 O157 1.299 . S
O151 Zn148 2.080 . S
O151 C165 1.305 . S
O152 Zn146 1.920 . S
O152 C165 1.234 . S
C153 O158 1.167 . S
C153 O159 1.299 . S
O154 Zn148 2.114 1_655 S
O154 C149 1.166 . S
O155 Zn147 1.905 . S
O155 C149 1.182 . S
O156 Zn147 1.898 . S
O156 C150 1.167 . S
O157 Zn148 2.120 1_655 S
O157 C150 1.299 . S
O158 Zn146 1.898 . S
O158 C153 1.167 . S
O159 Zn148 2.120 . S
O159 C153 1.299 . S
O160 Zn148 2.114 1_655 S
O160 C162 1.166 . S
O161 Zn146 1.905 1_655 S
O161 C162 1.182 . S
C162 O160 1.166 . S
C162 O161 1.182 . S
O163 Zn148 2.080 . S
O163 C166 1.305 . S
O164 Zn147 1.920 1_455 S
O164 C166 1.234 . S
C165 O151 1.305 . S
C165 O152 1.234 . S
C166 O163 1.305 . S
C166 O164 1.234 . S
Zn167 O173 1.920 . S
Zn167 O179 1.898 . S
Zn167 O182 1.905 . S
Zn168 O176 1.905 . S
Zn168 O177 1.898 . S
Zn168 O185 1.920 . S
Zn169 O172 2.080 . S
Zn169 O175 2.114 . S
Zn169 O178 2.120 . S
Zn169 O180 2.120 . S
Zn169 O181 2.114 . S
Zn169 O184 2.080 . S
C170 O175 1.166 . S
C170 O176 1.182 . S
C171 O177 1.167 . S
C171 O178 1.299 . S
O172 Zn169 2.080 . S
O172 C186 1.305 . S
O173 Zn167 1.920 . S
O173 C186 1.234 . S
C174 O179 1.167 . S
C174 O180 1.299 . S
O175 Zn169 2.114 . S
O175 C170 1.166 . S
O176 Zn168 1.905 . S
O176 C170 1.182 . S
O177 Zn168 1.898 . S
O177 C171 1.167 . S
O178 Zn169 2.120 . S
O178 C171 1.299 . S
O179 Zn167 1.898 . S
O179 C174 1.167 . S
O180 Zn169 2.120 . S
O180 C174 1.299 . S
O181 Zn169 2.114 . S
O181 C183 1.166 . S
O182 Zn167 1.905 . S
O182 C183 1.182 . S
C183 O181 1.166 . S
C183 O182 1.182 . S
O184 Zn169 2.080 . S
O184 C187 1.305 . S
O185 Zn168 1.920 . S
O185 C187 1.234 . S
C186 O172 1.305 . S
C186 O173 1.234 . S
C187 O184 1.305 . S
C187 O185 1.234 . S
C188 C189 1.349 . S
C188 C190 1.327 . S
C188 H213 0.950 . S
C189 C188 1.349 . S
C189 C205 1.349 . S
C190 C188 1.327 . S
C190 C209 1.429 . S
C190 H214 0.950 . S
C191 C208 1.574 . S
C191 C210 1.368 . S
C191 H215 0.949 . S
H192 C196 0.949 . S
C193 C194 1.349 . S
C193 C195 1.327 . S
C193 H216 0.950 . S
C194 C193 1.349 . S
C194 C206 1.349 . S
C195 C193 1.327 . S
C195 C211 1.429 . S
C195 H217 0.950 . S
C196 H192 0.949 . S
C196 C204 1.574 . S
C196 C212 1.368 . S
H197 C205 0.950 . S
H198 C203 0.950 . S
H199 C204 0.949 . S
H200 C206 0.950 . S
H201 C207 0.950 1_565 S
H202 C208 0.949 . S
C203 H198 0.950 . S
C203 C205 1.327 . S
C203 C209 1.429 . S
C204 C196 1.574 . S
C204 H199 0.949 . S
C204 C210 1.368 . S
C205 C189 1.349 . S
C205 H197 0.950 . S
C205 C203 1.327 . S
C206 C194 1.349 . S
C206 H200 0.950 . S
C206 C207 1.327 . S
C207 H201 0.950 1_545 S
C207 C206 1.327 . S
C207 C211 1.429 . S
C208 C191 1.574 . S
C208 H202 0.949 . S
C208 C212 1.368 . S
C209 C190 1.429 . S
C209 C203 1.429 . S
C209 C210 1.523 . S
C210 C191 1.368 . S
C210 C204 1.368 . S
C210 C209 1.523 . S
C211 C195 1.429 . S
C211 C207 1.429 . S
C211 C212 1.523 1_545 S
C212 C196 1.368 . S
C212 C208 1.368 . S
C212 C211 1.523 1_565 S
H213 C188 0.950 . S
H214 C190 0.950 . S
H215 C191 0.949 . S
H216 C193 0.950 . S
H217 C195 0.950 . S
C218 C219 1.349 . S
C218 C220 1.327 . S
C218 H243 0.950 . S
C219 C218 1.349 . S
C219 C235 1.349 . S
C220 C218 1.327 . S
C220 C239 1.429 . S
C220 H244 0.950 . S
C221 C238 1.574 . S
C221 C240 1.368 . S
C221 H245 0.949 . S
H222 C226 0.949 . S
C223 C224 1.349 . S
C223 C225 1.327 . S
C223 H246 0.950 . S
C224 C223 1.349 . S
C224 C236 1.349 . S
C225 C223 1.327 . S
C225 C241 1.429 . S
C225 H247 0.950 . S
C226 H222 0.949 . S
C226 C234 1.574 . S
C226 C242 1.368 . S
H227 C235 0.950 . S
H228 C233 0.950 . S
H229 C234 0.949 . S
H230 C236 0.950 . S
H231 C237 0.950 . S
H232 C238 0.949 . S
C233 H228 0.950 . S
C233 C235 1.327 . S
C233 C239 1.429 . S
C234 C226 1.574 . S
C234 H229 0.949 . S
C234 C240 1.368 . S
C235 C219 1.349 . S
C235 H227 0.950 . S
C235 C233 1.327 . S
C236 C224 1.349 . S
C236 H230 0.950 . S
C236 C237 1.327 . S
C237 H231 0.950 . S
C237 C236 1.327 . S
C237 C241 1.429 . S
C238 C221 1.574 . S
C238 H232 0.949 . S
C238 C242 1.368 . S
C239 C220 1.429 . S
C239 C233 1.429 . S
C239 C240 1.523 . S
C240 C221 1.368 . S
C240 C234 1.368 . S
C240 C239 1.523 . S
C241 C225 1.429 . S
C241 C237 1.429 . S
C241 C242 1.523 . S
C242 C226 1.368 . S
C242 C238 1.368 . S
C242 C241 1.523 . S
H243 C218 0.950 . S
H244 C220 0.950 . S
H245 C221 0.949 . S
H246 C223 0.950 . S
H247 C225 0.950 . S
C248 C249 1.349 . S
C248 C250 1.327 . S
C248 H273 0.950 . S
C249 C248 1.349 . S
C249 C265 1.349 . S
C250 C248 1.327 . S
C250 C269 1.429 . S
C250 H274 0.950 . S
C251 C268 1.574 . S
C251 C270 1.368 . S
C251 H275 0.949 . S
H252 C256 0.949 . S
C253 C254 1.349 . S
C253 C255 1.327 . S
C253 H276 0.950 . S
C254 C253 1.349 . S
C254 C266 1.349 . S
C255 C253 1.327 . S
C255 C271 1.429 . S
C255 H277 0.950 . S
C256 H252 0.949 . S
C256 C264 1.574 . S
C256 C272 1.368 . S
H257 C265 0.950 . S
H258 C263 0.950 . S
H259 C264 0.949 . S
H260 C266 0.950 . S
H261 C267 0.950 . S
H262 C268 0.949 . S
C263 H258 0.950 . S
C263 C265 1.327 . S
C263 C269 1.429 . S
C264 C256 1.574 . S
C264 H259 0.949 . S
C264 C270 1.368 . S
C265 C249 1.349 . S
C265 H257 0.950 . S
C265 C263 1.327 . S
C266 C254 1.349 . S
C266 H260 0.950 . S
C266 C267 1.327 . S
C267 H261 0.950 . S
C267 C266 1.327 . S
C267 C271 1.429 . S
C268 C251 1.574 . S
C268 H262 0.949 . S
C268 C272 1.368 . S
C269 C250 1.429 . S
C269 C263 1.429 . S
C269 C270 1.523 . S
C270 C251 1.368 . S
C270 C264 1.368 . S
C270 C269 1.523 . S
C271 C255 1.429 . S
C271 C267 1.429 . S
C271 C272 1.523 . S
C272 C256 1.368 . S
C272 C268 1.368 . S
C272 C271 1.523 . S
H273 C248 0.950 . S
H274 C250 0.950 . S
H275 C251 0.949 . S
H276 C253 0.950 . S
H277 C255 0.950 . S
C278 C279 1.349 . S
C278 C280 1.327 . S
C278 H303 0.950 . S
C279 C278 1.349 . S
C279 C295 1.349 . S
C280 C278 1.327 . S
C280 C299 1.429 . S
C280 H304 0.950 . S
C281 C298 1.574 . S
C281 C300 1.368 . S
C281 H305 0.949 . S
H282 C286 0.949 . S
C283 C284 1.349 . S
C283 C285 1.327 . S
C283 H306 0.950 . S
C284 C283 1.349 . S
C284 C296 1.349 . S
C285 C283 1.327 . S
C285 C301 1.411 1_545 S
C285 H307 0.950 . S
C286 H282 0.949 . S
C286 C294 1.574 . S
C286 C302 1.368 . S
H287 C295 0.950 . S
H288 C293 0.950 . S
H289 C294 0.949 . S
H290 C296 0.950 . S
H291 C297 0.950 1_565 S
H292 C298 0.949 . S
C293 H288 0.950 . S
C293 C295 1.327 . S
C293 C299 1.429 . S
C294 C286 1.574 . S
C294 H289 0.949 . S
C294 C300 1.368 . S
C295 C279 1.349 . S
C295 H287 0.950 . S
C295 C293 1.327 . S
C296 C284 1.349 . S
C296 H290 0.950 . S
C296 C297 1.327 . S
C297 H291 0.950 1_545 S
C297 C296 1.327 . S
C297 C301 1.419 1_545 S
C298 C281 1.574 . S
C298 H292 0.949 . S
C298 C302 1.368 . S
C299 C280 1.429 . S
C299 C293 1.429 . S
C299 C300 1.523 . S
C300 C281 1.368 . S
C300 C294 1.368 . S
C300 C299 1.523 . S
C301 C285 1.411 1_565 S
C301 C297 1.419 1_565 S
C301 C302 1.548 . S
C302 C286 1.368 . S
C302 C298 1.368 . S
C302 C301 1.548 . S
H303 C278 0.950 . S
H304 C280 0.950 . S
H305 C281 0.949 . S
H306 C283 0.950 . S
H307 C285 0.950 . S
C308 C309 1.349 . S
C308 C310 1.327 . S
C308 H333 0.950 . S
C309 C308 1.349 . S
C309 C325 1.349 . S
C310 C308 1.327 . S
C310 C329 1.429 . S
C310 H334 0.950 . S
C311 C328 1.574 . S
C311 C330 1.368 . S
C311 H335 0.949 . S
H312 C316 0.949 . S
C313 C314 1.349 . S
C313 C315 1.327 . S
C313 H336 0.950 . S
C314 C313 1.349 . S
C314 C326 1.349 . S
C315 C313 1.327 . S
C315 C331 1.429 . S
C315 H337 0.950 1_565 S
C316 H312 0.949 . S
C316 C324 1.574 . S
C316 C332 1.368 . S
H317 C325 0.950 . S
H318 C323 0.950 . S
H319 C324 0.949 . S
H320 C326 0.950 . S
H321 C327 0.950 . S
H322 C328 0.949 . S
C323 H318 0.950 . S
C323 C325 1.327 . S
C323 C329 1.429 . S
C324 C316 1.574 . S
C324 H319 0.949 . S
C324 C330 1.368 . S
C325 C309 1.349 . S
C325 H317 0.950 . S
C325 C323 1.327 . S
C326 C314 1.349 . S
C326 H320 0.950 . S
C326 C327 1.327 . S
C327 H321 0.950 . S
C327 C326 1.327 . S
C327 C331 1.429 . S
C328 C311 1.574 . S
C328 H322 0.949 . S
C328 C332 1.368 . S
C329 C310 1.429 . S
C329 C323 1.429 . S
C329 C330 1.523 . S
C330 C311 1.368 . S
C330 C324 1.368 . S
C330 C329 1.523 . S
C331 C315 1.429 . S
C331 C327 1.429 . S
C331 C332 1.523 1_565 S
C332 C316 1.368 . S
C332 C328 1.368 . S
C332 C331 1.523 1_545 S
H333 C308 0.950 . S
H334 C310 0.950 . S
H335 C311 0.949 . S
H336 C313 0.950 . S
H337 C315 0.950 1_545 S
C338 C339 1.349 . S
C338 C340 1.327 . S
C338 H363 0.950 . S
C339 C338 1.349 . S
C339 C355 1.349 . S
C340 C338 1.327 . S
C340 C359 1.429 . S
C340 H364 0.950 . S
C341 C358 1.574 . S
C341 C360 1.368 . S
C341 H365 0.949 . S
H342 C346 0.949 . S
C343 C344 1.349 . S
C343 C345 1.327 . S
C343 H366 0.950 . S
C344 C343 1.349 . S
C344 C356 1.349 . S
C345 C343 1.327 . S
C345 C361 1.429 . S
C345 H367 0.950 . S
C346 H342 0.949 . S
C346 C354 1.574 . S
C346 C362 1.368 . S
H347 C355 0.950 . S
H348 C353 0.950 . S
H349 C354 0.949 . S
H350 C356 0.950 . S
H351 C357 0.950 . S
H352 C358 0.949 . S
C353 H348 0.950 . S
C353 C355 1.327 . S
C353 C359 1.429 . S
C354 C346 1.574 . S
C354 H349 0.949 . S
C354 C360 1.368 . S
C355 C339 1.349 . S
C355 H347 0.950 . S
C355 C353 1.327 . S
C356 C344 1.349 . S
C356 H350 0.950 . S
C356 C357 1.327 . S
C357 H351 0.950 . S
C357 C356 1.327 . S
C357 C361 1.429 . S
C358 C341 1.574 . S
C358 H352 0.949 . S
C358 C362 1.368 . S
C359 C340 1.429 . S
C359 C353 1.429 . S
C359 C360 1.523 . S
C360 C341 1.368 . S
C360 C354 1.368 . S
C360 C359 1.523 . S
C361 C345 1.429 . S
C361 C357 1.429 . S
C361 C362 1.523 . S
C362 C346 1.368 . S
C362 C358 1.368 . S
C362 C361 1.523 . S
H363 C338 0.950 . S
H364 C340 0.950 . S
H365 C341 0.949 . S
H366 C343 0.950 . S
H367 C345 0.950 . S
C368 C369 1.349 . S
C368 C370 1.327 . S
C368 H393 0.950 . S
C369 C368 1.349 . S
C369 C385 1.349 . S
C370 C368 1.327 . S
C370 C389 1.429 . S
C370 H394 0.950 . S
C371 C388 1.574 . S
C371 C390 1.368 . S
C371 H395 0.949 . S
H372 C376 0.949 . S
C373 C374 1.349 . S
C373 C375 1.327 . S
C373 H396 0.950 . S
C374 C373 1.349 . S
C374 C386 1.349 . S
C375 C373 1.327 . S
C375 C391 1.429 . S
C375 H397 0.950 . S
C376 H372 0.949 . S
C376 C384 1.574 . S
C376 C392 1.368 . S
H377 C385 0.950 . S
H378 C383 0.950 . S
H379 C384 0.949 . S
H380 C386 0.950 . S
H381 C387 0.950 . S
H382 C388 0.949 . S
C383 H378 0.950 . S
C383 C385 1.327 . S
C383 C389 1.429 . S
C384 C376 1.574 . S
C384 H379 0.949 . S
C384 C390 1.368 . S
C385 C369 1.349 . S
C385 H377 0.950 . S
C385 C383 1.327 . S
C386 C374 1.349 . S
C386 H380 0.950 . S
C386 C387 1.327 . S
C387 H381 0.950 . S
C387 C386 1.327 . S
C387 C391 1.429 . S
C388 C371 1.574 . S
C388 H382 0.949 . S
C388 C392 1.368 . S
C389 C370 1.429 . S
C389 C383 1.429 . S
C389 C390 1.523 . S
C390 C371 1.368 . S
C390 C384 1.368 . S
C390 C389 1.523 . S
C391 C375 1.429 . S
C391 C387 1.429 . S
C391 C392 1.523 . S
C392 C376 1.368 . S
C392 C388 1.368 . S
C392 C391 1.523 . S
H393 C368 0.950 . S
H394 C370 0.950 . S
H395 C371 0.949 . S
H396 C373 0.950 . S
H397 C375 0.950 . S
C398 C399 1.349 . S
C398 C400 1.327 . S
C398 H423 0.950 . S
C399 C398 1.349 . S
C399 C415 1.349 . S
C400 C398 1.327 . S
C400 C419 1.429 . S
C400 H424 0.950 . S
C401 C418 1.574 . S
C401 C420 1.368 . S
C401 H425 0.949 . S
H402 C406 0.949 . S
C403 C404 1.349 . S
C403 C405 1.327 . S
C403 H426 0.950 . S
C404 C403 1.349 . S
C404 C416 1.349 . S
C405 C403 1.327 . S
C405 C421 1.417 1_565 S
C405 H427 0.950 . S
C406 H402 0.949 . S
C406 C414 1.574 . S
C406 C422 1.368 . S
H407 C415 0.950 . S
H408 C413 0.950 . S
H409 C414 0.949 . S
H410 C416 0.950 . S
H411 C417 0.950 . S
H412 C418 0.949 . S
C413 H408 0.950 . S
C413 C415 1.327 . S
C413 C419 1.429 . S
C414 C406 1.574 . S
C414 H409 0.949 . S
C414 C420 1.368 . S
C415 C399 1.349 . S
C415 H407 0.950 . S
C415 C413 1.327 . S
C416 C404 1.349 . S
C416 H410 0.950 . S
C416 C417 1.327 . S
C417 H411 0.950 . S
C417 C416 1.327 . S
C417 C421 1.413 1_565 S
C418 C401 1.574 . S
C418 H412 0.949 . S
C418 C422 1.368 . S
C419 C400 1.429 . S
C419 C413 1.429 . S
C419 C420 1.523 . S
C420 C401 1.368 . S
C420 C414 1.368 . S
C420 C419 1.523 . S
C421 C405 1.417 1_545 S
C421 C417 1.413 1_545 S
C421 C422 1.548 . S
C422 C406 1.368 . S
C422 C418 1.368 . S
C422 C421 1.548 . S
H423 C398 0.950 . S
H424 C400 0.950 . S
H425 C401 0.949 . S
H426 C403 0.950 . S
H427 C405 0.950 . S
C428 C429 1.349 . S
C428 C430 1.327 . S
C428 H453 0.950 . S
C429 C428 1.349 . S
C429 C445 1.349 . S
C430 C428 1.327 . S
C430 C449 1.429 . S
C430 H454 0.950 . S
C431 C448 1.574 . S
C431 C450 1.368 . S
C431 H455 0.949 . S
H432 C436 0.949 . S
C433 C434 1.349 . S
C433 C435 1.327 . S
C433 H456 0.950 . S
C434 C433 1.349 . S
C434 C446 1.349 . S
C435 C433 1.327 . S
C435 C451 1.429 . S
C435 H457 0.950 . S
C436 H432 0.949 . S
C436 C444 1.574 . S
C436 C452 1.368 . S
H437 C445 0.950 . S
H438 C443 0.950 . S
H439 C444 0.949 . S
H440 C446 0.950 . S
H441 C447 0.950 . S
H442 C448 0.949 . S
C443 H438 0.950 . S
C443 C445 1.327 . S
C443 C449 1.429 . S
C444 C436 1.574 . S
C444 H439 0.949 . S
C444 C450 1.368 . S
C445 C429 1.349 . S
C445 H437 0.950 . S
C445 C443 1.327 . S
C446 C434 1.349 . S
C446 H440 0.950 . S
C446 C447 1.327 . S
C447 H441 0.950 . S
C447 C446 1.327 . S
C447 C451 1.429 . S
C448 C431 1.574 . S
C448 H442 0.949 . S
C448 C452 1.368 . S
C449 C430 1.429 . S
C449 C443 1.429 . S
C449 C450 1.523 1_556 S
C450 C431 1.368 . S
C450 C444 1.368 . S
C450 C449 1.523 1_554 S
C451 C435 1.429 . S
C451 C447 1.429 . S
C451 C452 1.523 . S
C452 C436 1.368 . S
C452 C448 1.368 . S
C452 C451 1.523 . S
H453 C428 0.950 . S
H454 C430 0.950 . S
H455 C431 0.949 . S
H456 C433 0.950 . S
H457 C435 0.950 . S
C458 C459 1.349 . S
C458 C460 1.327 . S
C458 H483 0.950 . S
C459 C458 1.349 . S
C459 C475 1.349 . S
C460 C458 1.327 . S
C460 C479 1.429 . S
C460 H484 0.950 . S
C461 C478 1.574 . S
C461 C480 1.368 . S
C461 H485 0.949 . S
H462 C466 0.949 . S
C463 C464 1.349 . S
C463 C465 1.327 . S
C463 H486 0.950 . S
C464 C463 1.349 . S
C464 C476 1.349 . S
C465 C463 1.327 . S
C465 C481 1.429 . S
C465 H487 0.950 . S
C466 H462 0.949 . S
C466 C474 1.574 . S
C466 C482 1.368 . S
H467 C475 0.950 . S
H468 C473 0.950 . S
H469 C474 0.949 . S
H470 C476 0.950 . S
H471 C477 0.950 . S
H472 C478 0.949 . S
C473 H468 0.950 . S
C473 C475 1.327 . S
C473 C479 1.429 . S
C474 C466 1.574 . S
C474 H469 0.949 . S
C474 C480 1.368 . S
C475 C459 1.349 . S
C475 H467 0.950 . S
C475 C473 1.327 . S
C476 C464 1.349 . S
C476 H470 0.950 . S
C476 C477 1.327 . S
C477 H471 0.950 . S
C477 C476 1.327 . S
C477 C481 1.429 . S
C478 C461 1.574 . S
C478 H472 0.949 . S
C478 C482 1.368 . S
C479 C460 1.429 . S
C479 C473 1.429 . S
C479 C480 1.523 . S
C480 C461 1.368 . S
C480 C474 1.368 . S
C480 C479 1.523 . S
C481 C465 1.429 . S
C481 C477 1.429 . S
C481 C482 1.523 . S
C482 C466 1.368 . S
C482 C478 1.368 . S
C482 C481 1.523 . S
H483 C458 0.950 . S
H484 C460 0.950 . S
H485 C461 0.949 . S
H486 C463 0.950 . S
H487 C465 0.950 . S
C488 C489 1.349 . S
C488 C490 1.327 . S
C488 H513 0.950 . S
C489 C488 1.349 . S
C489 C505 1.349 . S
C490 C488 1.327 . S
C490 C509 1.429 . S
C490 H514 0.950 1_554 S
C491 C508 1.574 . S
C491 C510 1.368 . S
C491 H515 0.949 1_556 S
H492 C496 0.949 . S
C493 C494 1.349 . S
C493 C495 1.327 . S
C493 H516 0.950 . S
C494 C493 1.349 . S
C494 C506 1.349 . S
C495 C493 1.327 . S
C495 C511 1.429 . S
C495 H517 0.950 . S
C496 H492 0.949 . S
C496 C504 1.574 . S
C496 C512 1.368 . S
H497 C505 0.950 . S
H498 C503 0.950 . S
H499 C504 0.949 . S
H500 C506 0.950 . S
H501 C507 0.950 . S
H502 C508 0.949 . S
C503 H498 0.950 . S
C503 C505 1.327 . S
C503 C509 1.429 . S
C504 C496 1.574 . S
C504 H499 0.949 . S
C504 C510 1.368 . S
C505 C489 1.349 . S
C505 H497 0.950 . S
C505 C503 1.327 . S
C506 C494 1.349 . S
C506 H500 0.950 . S
C506 C507 1.327 . S
C507 H501 0.950 . S
C507 C506 1.327 . S
C507 C511 1.429 . S
C508 C491 1.574 . S
C508 H502 0.949 . S
C508 C512 1.368 . S
C509 C490 1.429 . S
C509 C503 1.429 . S
C509 C510 1.523 1_554 S
C510 C491 1.368 . S
C510 C504 1.368 . S
C510 C509 1.523 1_556 S
C511 C495 1.429 . S
C511 C507 1.429 . S
C511 C512 1.523 . S
C512 C496 1.368 . S
C512 C508 1.368 . S
C512 C511 1.523 . S
H513 C488 0.950 . S
H514 C490 0.950 1_556 S
H515 C491 0.949 1_554 S
H516 C493 0.950 . S
H517 C495 0.950 . S
C518 C519 1.349 . S
C518 C520 1.327 . S
C518 H543 0.950 . S
C519 C518 1.349 . S
C519 C535 1.349 . S
C520 C518 1.327 . S
C520 C539 1.429 . S
C520 H544 0.950 . S
C521 C538 1.574 . S
C521 C540 1.368 . S
C521 H545 0.949 . S
H522 C526 0.949 . S
C523 C524 1.349 . S
C523 C525 1.327 . S
C523 H546 0.950 . S
C524 C523 1.349 . S
C524 C536 1.349 . S
C525 C523 1.327 . S
C525 C541 1.429 . S
C525 H547 0.950 . S
C526 H522 0.949 . S
C526 C534 1.574 . S
C526 C542 1.368 . S
H527 C535 0.950 . S
H528 C533 0.950 . S
H529 C534 0.949 . S
H530 C536 0.950 . S
H531 C537 0.950 . S
H532 C538 0.949 . S
C533 H528 0.950 . S
C533 C535 1.327 . S
C533 C539 1.429 . S
C534 C526 1.574 . S
C534 H529 0.949 . S
C534 C540 1.368 . S
C535 C519 1.349 . S
C535 H527 0.950 . S
C535 C533 1.327 . S
C536 C524 1.349 . S
C536 H530 0.950 . S
C536 C537 1.327 . S
C537 H531 0.950 . S
C537 C536 1.327 . S
C537 C541 1.429 . S
C538 C521 1.574 . S
C538 H532 0.949 . S
C538 C542 1.368 . S
C539 C520 1.429 . S
C539 C533 1.429 . S
C539 C540 1.523 . S
C540 C521 1.368 . S
C540 C534 1.368 . S
C540 C539 1.523 . S
C541 C525 1.429 . S
C541 C537 1.429 . S
C541 C542 1.523 . S
C542 C526 1.368 . S
C542 C538 1.368 . S
C542 C541 1.523 . S
H543 C518 0.950 . S
H544 C520 0.950 . S
H545 C521 0.949 . S
H546 C523 0.950 . S
H547 C525 0.950 . S
C548 C549 1.349 . S
C548 C550 1.327 . S
C548 H573 0.950 . S
C549 C548 1.349 . S
C549 C565 1.349 . S
C550 C548 1.327 . S
C550 C569 1.429 . S
C550 H574 0.950 1_554 S
C551 C568 1.574 . S
C551 C570 1.368 . S
C551 H575 0.979 . S
H552 C556 0.949 . S
C553 C554 1.349 . S
C553 C555 1.327 . S
C553 H576 0.950 . S
C554 C553 1.349 . S
C554 C566 1.349 . S
C555 C553 1.327 . S
C555 C571 1.429 . S
C555 H577 0.950 . S
C556 H552 0.949 . S
C556 C564 1.574 . S
C556 C572 1.368 . S
H557 C565 0.950 . S
H558 C563 0.950 . S
H559 C564 0.949 . S
H560 C566 0.950 . S
H561 C567 0.950 . S
H562 C568 0.949 . S
C563 H558 0.950 . S
C563 C565 1.327 . S
C563 C569 1.429 . S
C564 C556 1.574 . S
C564 H559 0.949 . S
C564 C570 1.368 . S
C565 C549 1.349 . S
C565 H557 0.950 . S
C565 C563 1.327 . S
C566 C554 1.349 . S
C566 H560 0.950 . S
C566 C567 1.327 . S
C567 H561 0.950 . S
C567 C566 1.327 . S
C567 C571 1.429 . S
C568 C551 1.574 . S
C568 H562 0.949 . S
C568 C572 1.368 . S
C569 C550 1.429 . S
C569 C563 1.429 . S
C569 C570 1.523 1_554 S
C570 C551 1.368 . S
C570 C564 1.368 . S
C570 C569 1.523 1_556 S
C571 C555 1.429 . S
C571 C567 1.429 . S
C571 C572 1.523 . S
C572 C556 1.368 . S
C572 C568 1.368 . S
C572 C571 1.523 . S
H573 C548 0.950 . S
H574 C550 0.950 1_556 S
H575 C551 0.979 . S
H576 C553 0.950 . S
H577 C555 0.950 . S
C578 C579 1.349 . S
C578 C580 1.327 . S
C578 H603 0.950 . S
C579 C578 1.349 . S
C579 C595 1.349 . S
C580 C578 1.327 . S
C580 C599 1.429 . S
C580 H604 0.950 . S
C581 C598 1.574 . S
C581 C600 1.368 . S
C581 H605 0.949 . S
H582 C586 0.949 . S
C583 C584 1.349 . S
C583 C585 1.327 . S
C583 H606 0.950 . S
C584 C583 1.349 . S
C584 C596 1.349 . S
C585 C583 1.327 . S
C585 C601 1.429 . S
C585 H607 0.950 . S
C586 H582 0.949 . S
C586 C594 1.574 . S
C586 C602 1.368 . S
H587 C595 0.950 . S
H588 C593 0.950 . S
H589 C594 0.949 . S
H590 C596 0.950 . S
H591 C597 0.950 . S
H592 C598 0.949 . S
C593 H588 0.950 . S
C593 C595 1.327 . S
C593 C599 1.429 . S
C594 C586 1.574 . S
C594 H589 0.949 . S
C594 C600 1.368 . S
C595 C579 1.349 . S
C595 H587 0.950 . S
C595 C593 1.327 . S
C596 C584 1.349 . S
C596 H590 0.950 . S
C596 C597 1.327 . S
C597 H591 0.950 . S
C597 C596 1.327 . S
C597 C601 1.429 . S
C598 C581 1.574 . S
C598 H592 0.949 . S
C598 C602 1.368 . S
C599 C580 1.429 . S
C599 C593 1.429 . S
C599 C600 1.523 . S
C600 C581 1.368 . S
C600 C594 1.368 . S
C600 C599 1.523 . S
C601 C585 1.429 . S
C601 C597 1.429 . S
C601 C602 1.523 . S
C602 C586 1.368 . S
C602 C598 1.368 . S
C602 C601 1.523 . S
H603 C578 0.950 . S
H604 C580 0.950 . S
H605 C581 0.949 . S
H606 C583 0.950 . S
H607 C585 0.950 . S
C608 C609 1.349 . S
C608 C610 1.327 . S
C608 H633 0.950 . S
C609 C608 1.349 . S
C609 C625 1.349 . S
C610 C608 1.327 . S
C610 C629 1.429 . S
C610 H634 0.946 1_556 S
C611 C628 1.574 . S
C611 C630 1.368 . S
C611 H635 0.962 . S
H612 C616 0.949 . S
C613 C614 1.349 . S
C613 C615 1.327 . S
C613 H636 0.950 . S
C614 C613 1.349 . S
C614 C626 1.349 . S
C615 C613 1.327 . S
C615 C631 1.429 . S
C615 H637 0.950 . S
C616 H612 0.949 . S
C616 C624 1.574 . S
C616 C632 1.368 . S
H617 C625 0.950 . S
H618 C623 0.950 . S
H619 C624 0.949 . S
H620 C626 0.950 . S
H621 C627 0.950 . S
H622 C628 0.949 . S
C623 H618 0.950 . S
C623 C625 1.327 . S
C623 C629 1.429 . S
C624 C616 1.574 . S
C624 H619 0.949 . S
C624 C630 1.368 . S
C625 C609 1.349 . S
C625 H617 0.950 . S
C625 C623 1.327 . S
C626 C614 1.349 . S
C626 H620 0.950 . S
C626 C627 1.327 . S
C627 H621 0.950 . S
C627 C626 1.327 . S
C627 C631 1.429 . S
C628 C611 1.574 . S
C628 H622 0.949 . S
C628 C632 1.368 . S
C629 C610 1.429 . S
C629 C623 1.429 . S
C629 C630 1.523 1_556 S
C630 C611 1.368 . S
C630 C624 1.368 . S
C630 C629 1.523 1_554 S
C631 C615 1.429 . S
C631 C627 1.429 . S
C631 C632 1.523 . S
C632 C616 1.368 . S
C632 C628 1.368 . S
C632 C631 1.523 . S
H633 C608 0.950 . S
H634 C610 0.946 1_554 S
H635 C611 0.962 . S
H636 C613 0.950 . S
H637 C615 0.950 . S
C638 C639 1.349 . S
C638 C640 1.327 . S
C638 H663 0.950 . S
C639 C638 1.349 . S
C639 C655 1.349 . S
C640 C638 1.327 . S
C640 C659 1.429 . S
C640 H664 0.950 . S
C641 C658 1.574 . S
C641 C660 1.368 . S
C641 H665 0.949 . S
H642 C646 0.949 . S
C643 C644 1.349 . S
C643 C645 1.327 . S
C643 H666 0.950 . S
C644 C643 1.349 . S
C644 C656 1.349 . S
C645 C643 1.327 . S
C645 C661 1.429 . S
C645 H667 0.950 . S
C646 H642 0.949 . S
C646 C654 1.574 . S
C646 C662 1.368 . S
H647 C655 0.950 . S
H648 C653 0.950 . S
H649 C654 0.949 . S
H650 C656 0.950 . S
H651 C657 0.950 . S
H652 C658 0.949 . S
C653 H648 0.950 . S
C653 C655 1.327 . S
C653 C659 1.429 . S
C654 C646 1.574 . S
C654 H649 0.949 . S
C654 C660 1.368 . S
C655 C639 1.349 . S
C655 H647 0.950 . S
C655 C653 1.327 . S
C656 C644 1.349 . S
C656 H650 0.950 . S
C656 C657 1.327 . S
C657 H651 0.950 . S
C657 C656 1.327 . S
C657 C661 1.429 . S
C658 C641 1.574 . S
C658 H652 0.949 . S
C658 C662 1.368 . S
C659 C640 1.429 . S
C659 C653 1.429 . S
C659 C660 1.523 . S
C660 C641 1.368 . S
C660 C654 1.368 . S
C660 C659 1.523 . S
C661 C645 1.429 . S
C661 C657 1.429 . S
C661 C662 1.523 . S
C662 C646 1.368 . S
C662 C658 1.368 . S
C662 C661 1.523 . S
H663 C638 0.950 . S
H664 C640 0.950 . S
H665 C641 0.949 . S
H666 C643 0.950 . S
H667 C645 0.950 . S
C668 C669 1.349 . S
C668 C670 1.327 . S
C668 H693 0.950 . S
C669 C668 1.349 . S
C669 C685 1.349 . S
C670 C668 1.327 . S
C670 C689 1.429 . S
C670 H694 0.950 . S
C671 C688 1.574 . S
C671 C690 1.368 . S
C671 H695 0.949 . S
H672 C676 0.949 . S
C673 C674 1.349 . S
C673 C675 1.327 . S
C673 H696 0.950 . S
C674 C673 1.349 . S
C674 C686 1.349 . S
C675 C673 1.327 . S
C675 C691 1.429 . S
C675 H697 0.950 . S
C676 H672 0.949 . S
C676 C684 1.574 . S
C676 C692 1.368 . S
H677 C685 0.950 . S
H678 C683 0.950 . S
H679 C684 0.949 . S
H680 C686 0.950 . S
H681 C687 0.950 . S
H682 C688 0.949 . S
C683 H678 0.950 . S
C683 C685 1.327 . S
C683 C689 1.429 . S
C684 C676 1.574 . S
C684 H679 0.949 . S
C684 C690 1.368 . S
C685 C669 1.349 . S
C685 H677 0.950 . S
C685 C683 1.327 . S
C686 C674 1.349 . S
C686 H680 0.950 . S
C686 C687 1.327 . S
C687 H681 0.950 . S
C687 C686 1.327 . S
C687 C691 1.429 . S
C688 C671 1.574 . S
C688 H682 0.949 . S
C688 C692 1.368 . S
C689 C670 1.429 . S
C689 C683 1.429 . S
C689 C690 1.523 . S
C690 C671 1.368 . S
C690 C684 1.368 . S
C690 C689 1.523 . S
C691 C675 1.429 . S
C691 C687 1.429 . S
C691 C692 1.523 . S
C692 C676 1.368 . S
C692 C688 1.368 . S
C692 C691 1.523 . S
H693 C668 0.950 . S
H694 C670 0.950 . S
H695 C671 0.949 . S
H696 C673 0.950 . S
H697 C675 0.950 . S
C698 C699 1.349 . S
C698 C700 1.327 . S
C698 H723 0.950 . S
C699 C698 1.349 . S
C699 C715 1.349 . S
C700 C698 1.327 . S
C700 C719 1.429 . S
C700 H724 0.950 . S
C701 C718 1.574 . S
C701 C720 1.368 . S
C701 H725 0.949 . S
H702 C706 0.949 . S
C703 C704 1.349 . S
C703 C705 1.327 . S
C703 H726 0.950 . S
C704 C703 1.349 . S
C704 C716 1.349 . S
C705 C703 1.327 . S
C705 C721 1.429 . S
C705 H727 0.950 . S
C706 H702 0.949 . S
C706 C714 1.574 . S
C706 C722 1.368 . S
H707 C715 0.950 . S
H708 C713 0.950 . S
H709 C714 0.949 . S
H710 C716 0.950 . S
H711 C717 0.950 . S
H712 C718 0.949 . S
C713 H708 0.950 . S
C713 C715 1.327 . S
C713 C719 1.429 . S
C714 C706 1.574 . S
C714 H709 0.949 . S
C714 C720 1.368 . S
C715 C699 1.349 . S
C715 H707 0.950 . S
C715 C713 1.327 . S
C716 C704 1.349 . S
C716 H710 0.950 . S
C716 C717 1.327 . S
C717 H711 0.950 . S
C717 C716 1.327 . S
C717 C721 1.429 . S
C718 C701 1.574 . S
C718 H712 0.949 . S
C718 C722 1.368 . S
C719 C700 1.429 . S
C719 C713 1.429 . S
C719 C720 1.523 . S
C720 C701 1.368 . S
C720 C714 1.368 . S
C720 C719 1.523 . S
C721 C705 1.429 . S
C721 C717 1.429 . S
C721 C722 1.523 . S
C722 C706 1.368 . S
C722 C718 1.368 . S
C722 C721 1.523 . S
H723 C698 0.950 . S
H724 C700 0.950 . S
H725 C701 0.949 . S
H726 C703 0.950 . S
H727 C705 0.950 . S
C728 C729 1.349 . S
C728 C730 1.327 . S
C728 H753 0.950 . S
C729 C728 1.349 . S
C729 C745 1.349 . S
C730 C728 1.327 . S
C730 C749 1.429 . S
C730 H754 0.950 . S
C731 C748 1.574 . S
C731 C750 1.368 . S
C731 H755 0.949 . S
H732 C736 0.949 . S
C733 C734 1.349 . S
C733 C735 1.327 . S
C733 H756 0.950 . S
C734 C733 1.349 . S
C734 C746 1.349 . S
C735 C733 1.327 . S
C735 C751 1.429 . S
C735 H757 0.950 . S
C736 H732 0.949 . S
C736 C744 1.574 . S
C736 C752 1.368 . S
H737 C745 0.950 . S
H738 C743 0.950 . S
H739 C744 0.949 . S
H740 C746 0.950 . S
H741 C747 0.950 . S
H742 C748 0.949 . S
C743 H738 0.950 . S
C743 C745 1.327 . S
C743 C749 1.429 . S
C744 C736 1.574 . S
C744 H739 0.949 . S
C744 C750 1.368 . S
C745 C729 1.349 . S
C745 H737 0.950 . S
C745 C743 1.327 . S
C746 C734 1.349 . S
C746 H740 0.950 . S
C746 C747 1.327 . S
C747 H741 0.950 . S
C747 C746 1.327 . S
C747 C751 1.429 . S
C748 C731 1.574 . S
C748 H742 0.949 . S
C748 C752 1.368 . S
C749 C730 1.429 . S
C749 C743 1.429 . S
C749 C750 1.523 . S
C750 C731 1.368 . S
C750 C744 1.368 . S
C750 C749 1.523 . S
C751 C735 1.429 . S
C751 C747 1.429 . S
C751 C752 1.523 . S
C752 C736 1.368 . S
C752 C748 1.368 . S
C752 C751 1.523 . S
H753 C728 0.950 . S
H754 C730 0.950 . S
H755 C731 0.949 . S
H756 C733 0.950 . S
H757 C735 0.950 . S
C758 C759 1.349 . S
C758 C760 1.327 . S
C758 H783 0.950 . S
C759 C758 1.349 . S
C759 C775 1.349 . S
C760 C758 1.327 . S
C760 C779 1.429 . S
C760 H784 0.950 . S
C761 C778 1.574 . S
C761 C780 1.368 . S
C761 H785 0.949 . S
H762 C766 0.949 . S
C763 C764 1.349 . S
C763 C765 1.327 . S
C763 H786 0.950 . S
C764 C763 1.349 . S
C764 C776 1.349 . S
C765 C763 1.327 . S
C765 C781 1.429 . S
C765 H787 0.950 . S
C766 H762 0.949 . S
C766 C774 1.574 . S
C766 C782 1.368 . S
H767 C775 0.950 . S
H768 C773 0.950 . S
H769 C774 0.949 . S
H770 C776 0.950 . S
H771 C777 0.950 . S
H772 C778 0.949 . S
C773 H768 0.950 . S
C773 C775 1.327 . S
C773 C779 1.429 . S
C774 C766 1.574 . S
C774 H769 0.949 . S
C774 C780 1.368 . S
C775 C759 1.349 . S
C775 H767 0.950 . S
C775 C773 1.327 . S
C776 C764 1.349 . S
C776 H770 0.950 . S
C776 C777 1.327 . S
C777 H771 0.950 . S
C777 C776 1.327 . S
C777 C781 1.429 . S
C778 C761 1.574 . S
C778 H772 0.949 . S
C778 C782 1.368 . S
C779 C760 1.429 . S
C779 C773 1.429 . S
C779 C780 1.523 . S
C780 C761 1.368 . S
C780 C774 1.368 . S
C780 C779 1.523 . S
C781 C765 1.429 . S
C781 C777 1.429 . S
C781 C782 1.523 . S
C782 C766 1.368 . S
C782 C778 1.368 . S
C782 C781 1.523 . S
H783 C758 0.950 . S
H784 C760 0.950 . S
H785 C761 0.949 . S
H786 C763 0.950 . S
H787 C765 0.950 . S
C788 C789 1.349 . S
C788 C790 1.327 . S
C788 H813 0.950 . S
C789 C788 1.349 . S
C789 C805 1.349 . S
C790 C788 1.327 . S
C790 C809 1.429 . S
C790 H814 0.950 . S
C791 C808 1.574 . S
C791 C810 1.368 . S
C791 H815 0.949 . S
H792 C796 0.949 . S
C793 C794 1.349 . S
C793 C795 1.327 . S
C793 H816 0.950 . S
C794 C793 1.349 . S
C794 C806 1.349 . S
C795 C793 1.327 . S
C795 C811 1.429 . S
C795 H817 0.950 . S
C796 H792 0.949 . S
C796 C804 1.574 . S
C796 C812 1.368 . S
H797 C805 0.950 . S
H798 C803 0.950 . S
H799 C804 0.949 . S
H800 C806 0.950 . S
H801 C807 0.950 . S
H802 C808 0.949 . S
C803 H798 0.950 . S
C803 C805 1.327 . S
C803 C809 1.429 . S
C804 C796 1.574 . S
C804 H799 0.949 . S
C804 C810 1.368 . S
C805 C789 1.349 . S
C805 H797 0.950 . S
C805 C803 1.327 . S
C806 C794 1.349 . S
C806 H800 0.950 . S
C806 C807 1.327 . S
C807 H801 0.950 . S
C807 C806 1.327 . S
C807 C811 1.429 . S
C808 C791 1.574 . S
C808 H802 0.949 . S
C808 C812 1.368 . S
C809 C790 1.429 . S
C809 C803 1.429 . S
C809 C810 1.523 . S
C810 C791 1.368 . S
C810 C804 1.368 . S
C810 C809 1.523 . S
C811 C795 1.429 . S
C811 C807 1.429 . S
C811 C812 1.523 . S
C812 C796 1.368 . S
C812 C808 1.368 . S
C812 C811 1.523 . S
H813 C788 0.950 . S
H814 C790 0.950 . S
H815 C791 0.949 . S
H816 C793 0.950 . S
H817 C795 0.950 . S
C818 C819 1.349 . S
C818 C820 1.327 . S
C818 H843 0.950 . S
C819 C818 1.349 . S
C819 C835 1.349 . S
C820 C818 1.327 . S
C820 C839 1.429 . S
C820 H844 0.950 . S
C821 C838 1.574 . S
C821 C840 1.368 . S
C821 H845 0.949 . S
H822 C826 0.949 . S
C823 C824 1.349 . S
C823 C825 1.327 . S
C823 H846 0.950 . S
C824 C823 1.349 . S
C824 C836 1.349 . S
C825 C823 1.327 . S
C825 C841 1.429 . S
C825 H847 0.950 . S
C826 H822 0.949 . S
C826 C834 1.574 . S
C826 C842 1.368 . S
H827 C835 0.950 . S
H828 C833 0.950 . S
H829 C834 0.949 . S
H830 C836 0.950 . S
H831 C837 0.950 . S
H832 C838 0.949 . S
C833 H828 0.950 . S
C833 C835 1.327 . S
C833 C839 1.429 . S
C834 C826 1.574 . S
C834 H829 0.949 . S
C834 C840 1.368 . S
C835 C819 1.349 . S
C835 H827 0.950 . S
C835 C833 1.327 . S
C836 C824 1.349 . S
C836 H830 0.950 . S
C836 C837 1.327 . S
C837 H831 0.950 . S
C837 C836 1.327 . S
C837 C841 1.429 . S
C838 C821 1.574 . S
C838 H832 0.949 . S
C838 C842 1.368 . S
C839 C820 1.429 . S
C839 C833 1.429 . S
C839 C840 1.523 . S
C840 C821 1.368 . S
C840 C834 1.368 . S
C840 C839 1.523 . S
C841 C825 1.429 . S
C841 C837 1.429 . S
C841 C842 1.523 . S
C842 C826 1.368 . S
C842 C838 1.368 . S
C842 C841 1.523 . S
H843 C818 0.950 . S
H844 C820 0.950 . S
H845 C821 0.949 . S
H846 C823 0.950 . S
H847 C825 0.950 . S
C848 C849 1.349 . S
C848 C850 1.327 . S
C848 H873 0.950 . S
C849 C848 1.349 . S
C849 C865 1.349 . S
C850 C848 1.327 . S
C850 C869 1.429 . S
C850 H874 0.950 . S
C851 C868 1.574 . S
C851 C870 1.368 . S
C851 H875 0.949 . S
H852 C856 0.949 . S
C853 C854 1.349 . S
C853 C855 1.327 . S
C853 H876 0.950 . S
C854 C853 1.349 . S
C854 C866 1.349 . S
C855 C853 1.327 . S
C855 C871 1.429 . S
C855 H877 0.950 . S
C856 H852 0.949 . S
C856 C864 1.574 . S
C856 C872 1.368 . S
H857 C865 0.950 . S
H858 C863 0.950 . S
H859 C864 0.949 . S
H860 C866 0.950 . S
H861 C867 0.950 . S
H862 C868 0.949 . S
C863 H858 0.950 . S
C863 C865 1.327 . S
C863 C869 1.429 . S
C864 C856 1.574 . S
C864 H859 0.949 . S
C864 C870 1.368 . S
C865 C849 1.349 . S
C865 H857 0.950 . S
C865 C863 1.327 . S
C866 C854 1.349 . S
C866 H860 0.950 . S
C866 C867 1.327 . S
C867 H861 0.950 . S
C867 C866 1.327 . S
C867 C871 1.429 . S
C868 C851 1.574 . S
C868 H862 0.949 . S
C868 C872 1.368 . S
C869 C850 1.429 . S
C869 C863 1.429 . S
C869 C870 1.523 . S
C870 C851 1.368 . S
C870 C864 1.368 . S
C870 C869 1.523 . S
C871 C855 1.429 . S
C871 C867 1.429 . S
C871 C872 1.523 . S
C872 C856 1.368 . S
C872 C868 1.368 . S
C872 C871 1.523 . S
H873 C848 0.950 . S
H874 C850 0.950 . S
H875 C851 0.949 . S
H876 C853 0.950 . S
H877 C855 0.950 . S
C878 C879 1.349 . S
C878 C880 1.327 . S
C878 H903 0.950 . S
C879 C878 1.349 . S
C879 C895 1.349 . S
C880 C878 1.327 . S
C880 C899 1.429 . S
C880 H904 0.950 . S
C881 C898 1.574 . S
C881 C900 1.368 . S
C881 H905 0.949 . S
H882 C886 0.949 . S
C883 C884 1.349 . S
C883 C885 1.327 . S
C883 H906 0.950 . S
C884 C883 1.349 . S
C884 C896 1.349 . S
C885 C883 1.327 . S
C885 C901 1.429 . S
C885 H907 0.950 . S
C886 H882 0.949 . S
C886 C894 1.574 . S
C886 C902 1.368 . S
H887 C895 0.950 . S
H888 C893 0.950 . S
H889 C894 0.949 . S
H890 C896 0.950 . S
H891 C897 0.950 . S
H892 C898 0.949 . S
C893 H888 0.950 . S
C893 C895 1.327 . S
C893 C899 1.429 . S
C894 C886 1.574 . S
C894 H889 0.949 . S
C894 C900 1.368 . S
C895 C879 1.349 . S
C895 H887 0.950 . S
C895 C893 1.327 . S
C896 C884 1.349 . S
C896 H890 0.950 . S
C896 C897 1.327 . S
C897 H891 0.950 . S
C897 C896 1.327 . S
C897 C901 1.429 . S
C898 C881 1.574 . S
C898 H892 0.949 . S
C898 C902 1.368 . S
C899 C880 1.429 . S
C899 C893 1.429 . S
C899 C900 1.523 . S
C900 C881 1.368 . S
C900 C894 1.368 . S
C900 C899 1.523 . S
C901 C885 1.429 . S
C901 C897 1.429 . S
C901 C902 1.523 . S
C902 C886 1.368 . S
C902 C898 1.368 . S
C902 C901 1.523 . S
H903 C878 0.950 . S
H904 C880 0.950 . S
H905 C881 0.949 . S
H906 C883 0.950 . S
H907 C885 0.950 . S
C189 N83 1.430 . S
C194 C120 1.335 . S
C224 C128 1.335 . S
C219 N96 1.430 . S
C254 C132 1.325 . S
C249 N57 1.426 . S
C279 N70 1.427 . S
C284 C108 1.325 . S
C314 C149 1.335 . S
C309 N31 1.429 . S
C344 C183 1.335 . S
C339 N44 1.429 . S
C369 N5 1.425 . S
C374 C171 1.325 . S
C399 N18 1.425 . S
C404 C153 1.325 . S
C434 C107 1.350 . S
C429 N14 1.476 . S
C464 C141 1.350 . S
C459 N1 1.476 . S
C494 C145 1.348 . S
C489 N40 1.477 . S
C524 C123 1.348 . S
C519 N27 1.477 . S
C554 C162 1.350 . S
C549 N66 1.482 . S
C579 N53 1.482 . S
C584 C170 1.350 . S
C614 C186 1.347 . S
C609 N92 1.481 . S
C639 N79 1.482 . S
C644 C166 1.348 . S
C674 C111 1.380 . S
C669 N2 1.546 . S
C704 C129 1.381 . S
C699 N15 1.546 . S
C729 N28 1.540 . S
C734 C144 1.381 . S
C764 C124 1.380 . S
C759 N41 1.539 . S
C794 C150 1.381 . S
C789 N54 1.549 . S
C819 N67 1.549 . S
C824 C174 1.380 . S
C849 N80 1.542 . S
C854 C187 1.380 . S
C879 N93 1.542 . S
C884 C165 1.381 . S
