# Generated by pormake.
# Topology anh, (6,3)-cn, num edge types: 1
# Building blocks:
#     Node 0, Type 0, BuildingBlock: NUHQIS_clean_sbu_0, # of connection points: 6
#     Node 1, Type 0, BuildingBlock: NUHQIS_clean_sbu_0, # of connection points: 6
#     Node 2, Type 0, BuildingBlock: NUHQIS_clean_sbu_0, # of connection points: 6
#     Node 3, Type 1, BuildingBlock: VETTIZ_charged_linker_0, # of connection points: 3
#     Node 4, Type 1, BuildingBlock: VETTIZ_charged_linker_0, # of connection points: 3
#     Node 5, Type 1, BuildingBlock: VETTIZ_charged_linker_0, # of connection points: 3
#     Node 6, Type 1, BuildingBlock: VETTIZ_charged_linker_0, # of connection points: 3
#     Node 7, Type 1, BuildingBlock: VETTIZ_charged_linker_0, # of connection points: 3
#     Node 8, Type 1, BuildingBlock: VETTIZ_charged_linker_0, # of connection points: 3
#     Edge 9, Type (0, 1), BuildingBlock: UVAHIK_clean_linker_0, # of connection points: 2
#     Edge 10, Type (0, 1), BuildingBlock: UVAHIK_clean_linker_0, # of connection points: 2
#     Edge 11, Type (0, 1), BuildingBlock: UVAHIK_clean_linker_0, # of connection points: 2
#     Edge 12, Type (0, 1), BuildingBlock: UVAHIK_clean_linker_0, # of connection points: 2
#     Edge 13, Type (0, 1), BuildingBlock: UVAHIK_clean_linker_0, # of connection points: 2
#     Edge 14, Type (0, 1), BuildingBlock: UVAHIK_clean_linker_0, # of connection points: 2
#     Edge 15, Type (0, 1), BuildingBlock: UVAHIK_clean_linker_0, # of connection points: 2
#     Edge 16, Type (0, 1), BuildingBlock: UVAHIK_clean_linker_0, # of connection points: 2
#     Edge 17, Type (0, 1), BuildingBlock: UVAHIK_clean_linker_0, # of connection points: 2
#     Edge 18, Type (0, 1), BuildingBlock: UVAHIK_clean_linker_0, # of connection points: 2
#     Edge 19, Type (0, 1), BuildingBlock: UVAHIK_clean_linker_0, # of connection points: 2
#     Edge 20, Type (0, 1), BuildingBlock: UVAHIK_clean_linker_0, # of connection points: 2
#     Edge 21, Type (0, 1), BuildingBlock: UVAHIK_clean_linker_0, # of connection points: 2
#     Edge 22, Type (0, 1), BuildingBlock: UVAHIK_clean_linker_0, # of connection points: 2
#     Edge 23, Type (0, 1), BuildingBlock: UVAHIK_clean_linker_0, # of connection points: 2
#     Edge 24, Type (0, 1), BuildingBlock: UVAHIK_clean_linker_0, # of connection points: 2
#     Edge 25, Type (0, 1), BuildingBlock: UVAHIK_clean_linker_0, # of connection points: 2
#     Edge 26, Type (0, 1), BuildingBlock: UVAHIK_clean_linker_0, # of connection points: 2
# Relax obj value: 0.206
# Max RMSD: 0.186
# Mean RMSD: 0.152
data_MOF--net-anh--node1-NUHQIS_clean_sbu_0--node2-VETTIZ_charged_linker_0--edge1-UVAHIK_clean_linker_0
_symmetry_space_group_name_H-M    P1
_symmetry_Int_Tables_number       1
_symmetry_cell_setting            triclinic
loop_
_symmetry_equiv_pos_as_xyz
'x, y, z'
_cell_length_a     46.06257
_cell_length_b     46.220541
_cell_length_c     82.161715
_cell_angle_alpha  90.465585
_cell_angle_beta   92.832549
_cell_angle_gamma 120.18969
loop_
_atom_site_label
_atom_site_type_symbol
_atom_site_fract_x
_atom_site_fract_y
_atom_site_fract_z
_atom_type_partial_charge
Tb0 Tb 0.09613 0.54231 0.16299 0.0
Eu1 Eu 0.05601 0.58206 0.16179 0.0
C2 C 0.07956 0.56457 0.19512 0.0
C3 C 1.0146 0.49938 0.16388 0.0
C4 C 0.16489 0.52423 0.1705 0.0
C5 C 0.20236 0.51748 0.18997 0.0
C6 C 0.16985 0.50779 0.18371 0.0
C7 C 0.19302 0.55086 0.1638 0.0
C8 C 0.22545 0.56032 0.16994 0.0
C9 C 0.23058 0.54362 0.18302 0.0
C10 C 0.13041 0.51375 0.16403 0.0
O11 O 0.07392 0.53584 0.13811 0.0
O12 O 0.07666 0.58611 0.1371 0.0
O13 O 0.11086 0.62489 0.16643 0.0
O14 O 0.13785 0.59559 0.16143 0.0
C15 C 0.07579 0.56057 0.12963 0.0
O16 O 1.01959 0.59239 0.14923 0.0
O17 O 1.04238 0.61627 0.17293 0.0
O18 O 0.05388 0.56349 0.18706 0.0
O19 O 0.10364 0.56463 0.18731 0.0
O20 O 1.04399 0.50142 0.16756 0.0
O21 O 1.01407 0.52642 0.15911 0.0
C22 C 0.13907 0.62454 0.16446 0.0
O23 O 0.10903 0.50983 0.17483 0.0
O24 O 0.12757 0.5292 0.15136 0.0
C25 C 0.98373 0.59204 0.16832 0.0
C26 C 0.91623 0.54781 0.17476 0.0
C27 C 0.92434 0.57259 0.16315 0.0
C28 C 0.9579 0.59447 0.1599 0.0
C29 C 0.97576 0.56893 0.18074 0.0
C30 C 0.94233 0.54707 0.18395 0.0
C31 C 1.01749 0.60794 0.16207 0.0
H32 H 0.20536 0.50432 0.20016 0.0
H33 H 0.14854 0.48735 0.18916 0.0
H34 H 0.19011 0.56421 0.15366 0.0
H35 H 0.24652 0.58009 0.16405 0.0
H36 H 0.90472 0.57351 0.15575 0.0
H37 H 0.96352 0.61172 0.15011 0.0
H38 H 0.99521 0.56624 0.18728 0.0
H39 H 0.93683 0.52847 0.19306 0.0
Tb40 Tb 0.6174 0.08481 0.49946 0.0
Eu41 Eu 0.53697 0.04574 0.49509 0.0
C42 C 0.57512 0.06046 0.52964 0.0
C43 C 0.57971 1.00402 0.49855 0.0
C44 C 0.69705 0.16055 0.5017 0.0
C45 C 0.72199 0.21679 0.51378 0.0
C46 C 0.71329 0.18328 0.51501 0.0
C47 C 0.69153 0.17236 0.48683 0.0
C48 C 0.70049 0.20586 0.48555 0.0
C49 C 0.7148 0.22822 0.49916 0.0
C50 C 0.67939 0.12434 0.50448 0.0
O51 O 0.609 0.08304 0.4729 0.0
O52 O 0.55137 0.05731 0.46929 0.0
O53 O 0.5486 0.09987 0.49231 0.0
O54 O 0.60397 0.12531 0.50162 0.0
C55 C 0.58125 0.07155 0.46343 0.0
O56 O 0.48961 1.0065 0.48339 0.0
O57 O 0.48905 0.03422 0.50456 0.0
O58 O 0.55201 0.06324 0.52122 0.0
O59 O 0.59935 0.06 0.52225 0.0
O60 O 0.60845 1.03272 0.49755 0.0
O61 O 0.551 1.00423 0.49885 0.0
C62 C 0.57688 0.12736 0.49721 0.0
O63 O 0.65815 0.11546 0.51587 0.0
O64 O 0.66641 0.10416 0.49161 0.0
C65 C 0.45219 0.97636 0.50312 0.0
C66 C 0.41646 0.9133 0.51685 0.0
C67 C 0.39964 0.92517 0.50658 0.0
C68 C 0.41746 0.9565 0.4997 0.0
C69 C 0.46884 0.96513 0.51382 0.0
C70 C 0.45114 0.93379 0.52059 0.0
C71 C 0.4718 1.00782 0.4949 0.0
H72 H 0.73288 0.2333 0.52452 0.0
H73 H 0.71727 0.17464 0.52668 0.0
H74 H 0.67869 0.15544 0.47637 0.0
H75 H 0.69546 0.21403 0.47398 0.0
H76 H 0.37297 0.90967 0.50333 0.0
H77 H 0.40434 0.96481 0.49141 0.0
H78 H 0.4957 0.98032 0.51665 0.0
H79 H 0.46464 0.92534 0.52854 0.0
Tb80 Tb 0.59127 0.59908 0.831 0.0
Eu81 Eu 0.55115 0.51902 0.82633 0.0
C82 C 0.57109 0.55361 0.86102 0.0
C83 C 0.63471 0.56085 0.83029 0.0
C84 C 0.60285 0.67748 0.84556 0.0
C85 C 0.5576 0.67058 0.86207 0.0
C86 C 0.57917 0.65976 0.85711 0.0
C87 C 0.60655 0.7077 0.84009 0.0
C88 C 0.58504 0.71868 0.84515 0.0
C89 C 0.55938 0.69933 0.85559 0.0
C90 C 0.61799 0.66088 0.83692 0.0
O91 O 0.59534 0.5896 0.80526 0.0
O92 O 0.54784 0.53831 0.80174 0.0
O93 O 0.50906 0.53074 0.83104 0.0
O94 O 0.53781 0.58761 0.82826 0.0
C95 C 0.57193 0.56534 0.79564 0.0
O96 O 0.54143 0.47327 0.81342 0.0
O97 O 0.51257 0.47041 0.83408 0.0
O98 O 0.57231 0.53083 0.85214 0.0
O99 O 0.56992 0.57839 0.85408 0.0
O100 O 0.63347 0.58827 0.83393 0.0
O101 O 0.60667 0.53274 0.82568 0.0
C102 C 0.5091 0.55935 0.83014 0.0
O103 O 0.62508 0.64148 0.84562 0.0
O104 O 0.60222 0.64635 0.82299 0.0
C105 C 0.53049 0.43096 0.83188 0.0
C106 C 0.55515 0.39132 0.84552 0.0
C107 C 0.54508 0.38774 0.82883 0.0
C108 C 0.53277 0.40735 0.82208 0.0
C109 C 0.54004 0.4342 0.84864 0.0
C110 C 0.55203 0.41433 0.85542 0.0
C111 C 0.52127 0.45412 0.82426 0.0
H112 H 0.53816 0.65533 0.87018 0.0
H113 H 0.57561 0.63623 0.86144 0.0
H114 H 0.62434 0.72146 0.83103 0.0
H115 H 0.58671 0.7408 0.83982 0.0
H116 H 0.54669 0.36969 0.82099 0.0
H117 H 0.52573 0.40461 0.80914 0.0
H118 H 0.53893 0.45254 0.85646 0.0
H119 H 0.55963 0.4175 0.86831 0.0
C120 C 0.66575 0.15098 0.18254 0.0
C121 C 0.69358 0.1799 0.19116 0.0
C122 C 0.69399 0.17992 0.20827 0.0
C123 C 0.64157 0.12599 0.20831 0.0
C124 C 0.6397 0.12419 0.19146 0.0
C125 C 0.60705 0.09135 0.18543 0.0
H126 H 0.46432 0.94423 0.21098 0.0
C127 C 0.61191 0.09583 0.21463 0.0
C128 C 0.59067 0.07441 0.20139 0.0
H129 H 0.48261 0.96704 0.16051 0.0
H130 H 0.53505 1.02024 0.16895 0.0
H131 H 0.53735 0.96455 0.22266 0.0
H132 H 0.47972 1.01387 0.22192 0.0
H133 H 0.50419 1.02797 0.24033 0.0
H134 H 0.47479 0.98379 0.23678 0.0
H135 H 0.50558 0.95578 0.2367 0.0
H136 H 0.54898 0.98763 0.24121 0.0
C137 C 0.61625 0.06906 0.17556 0.0
C138 C 0.5839 0.10016 0.17522 0.0
C139 C 0.60408 0.08921 0.27666 0.0
C140 C 0.58026 0.06543 0.28676 0.0
C141 C 0.55288 0.03616 0.27933 0.0
C142 C 0.54881 1.03092 0.26236 0.0
C143 C 0.57229 0.05513 0.25236 0.0
C144 C 0.59947 0.08353 0.25957 0.0
C145 C 0.62189 0.10633 0.24702 0.0
C146 C 0.60349 0.08713 0.23106 0.0
C147 C 0.57449 0.05722 0.23431 0.0
C148 C 0.65676 0.10894 0.24981 0.0
C149 C 0.62231 0.14004 0.2487 0.0
C150 C 0.47931 0.95985 0.20145 0.0
C151 C 0.46852 0.94995 0.185 0.0
C152 C 0.48951 0.97307 0.17339 0.0
C153 C 0.5201 1.00402 0.17825 0.0
C154 C 0.53027 1.0129 0.195 0.0
C155 C 0.5091 0.99035 0.20601 0.0
C156 C 0.52097 1.00217 0.22325 0.0
C157 C 0.55291 0.03526 0.22132 0.0
C158 C 0.55983 0.04287 0.20472 0.0
C159 C 0.52844 0.97626 0.23153 0.0
C160 C 0.4936 1.00705 0.23112 0.0
H161 H 0.67192 0.15676 0.22967 0.0
H162 H 0.664 0.14962 0.16935 0.0
H163 H 0.57825 0.11703 0.1824 0.0
H164 H 0.55972 0.07736 0.17146 0.0
H165 H 0.59609 0.11308 0.16406 0.0
H166 H 0.63359 0.06356 0.18301 0.0
H167 H 0.62892 0.08173 0.16444 0.0
H168 H 0.59349 0.04491 0.17175 0.0
H169 H 0.62545 0.11205 0.28187 0.0
H170 H 0.53451 1.01696 0.28669 0.0
H171 H 0.52726 1.00805 0.25776 0.0
H172 H 0.65437 0.08583 0.25514 0.0
H173 H 0.67379 0.13029 0.25832 0.0
H174 H 0.66925 0.11127 0.23834 0.0
H175 H 0.59791 0.13609 0.25275 0.0
H176 H 0.62541 0.15265 0.23701 0.0
H177 H 0.64236 0.15746 0.2578 0.0
H178 H 0.7143 0.20072 0.21541 0.0
C179 C 0.66889 0.15382 0.21668 0.0
C180 C 0.57858 0.65306 0.5149 0.0
C181 C 0.57853 0.68058 0.52355 0.0
C182 C 0.58064 0.68023 0.54066 0.0
C183 C 0.58094 0.62741 0.54065 0.0
C184 C 0.57971 0.62644 0.52381 0.0
C185 C 0.57948 0.59413 0.51785 0.0
H186 H 0.57971 0.44774 0.54421 0.0
C187 C 0.58091 0.59709 0.547 0.0
C188 C 0.58019 0.5765 0.53385 0.0
H189 H 0.58057 0.472 0.49366 0.0
H190 H 0.57968 0.52358 0.50173 0.0
H191 H 0.63346 0.51855 0.55723 0.0
H192 H 0.52568 0.46447 0.55321 0.0
H193 H 0.53625 0.48697 0.57188 0.0
H194 H 0.54937 0.45663 0.56872 0.0
H195 H 0.60863 0.48565 0.57053 0.0
H196 H 0.62153 0.52878 0.57532 0.0
C197 C 0.61098 0.60394 0.50848 0.0
C198 C 0.54719 0.5718 0.50718 0.0
C199 C 0.58045 0.58569 0.6089 0.0
C200 C 0.57885 0.56074 0.61919 0.0
C201 C 0.57804 0.5325 0.61202 0.0
C202 C 0.57858 0.52903 0.59508 0.0
C203 C 0.57985 0.55397 0.58489 0.0
C204 C 0.58071 0.58163 0.5919 0.0
C205 C 0.5814 0.60527 0.57926 0.0
C206 C 0.58087 0.58735 0.56343 0.0
C207 C 0.58015 0.55744 0.56683 0.0
C208 C 0.61498 0.63899 0.58238 0.0
C209 C 0.54893 0.60738 0.58045 0.0
C210 C 0.58035 0.46384 0.53458 0.0
C211 C 0.58097 0.45486 0.51823 0.0
C212 C 0.58028 0.47736 0.50648 0.0
C213 C 0.57991 0.50752 0.51113 0.0
C214 C 0.57994 0.51594 0.52779 0.0
C215 C 0.57997 0.49341 0.53892 0.0
C216 C 0.57957 0.50387 0.55606 0.0
C217 C 0.57988 0.53655 0.55394 0.0
C218 C 0.57996 0.54501 0.53732 0.0
C219 C 0.61224 0.50933 0.56541 0.0
C220 C 0.54623 0.47664 0.56298 0.0
H221 H 0.58322 0.65716 0.562 0.0
H222 H 0.57709 0.65196 0.5017 0.0
H223 H 0.52464 0.56551 0.51402 0.0
H224 H 0.54585 0.54806 0.50341 0.0
H225 H 0.54627 0.58483 0.49603 0.0
H226 H 0.6341 0.62062 0.51625 0.0
H227 H 0.6109 0.61744 0.49736 0.0
H228 H 0.61216 0.58149 0.50473 0.0
H229 H 0.5808 0.60762 0.61392 0.0
H230 H 0.57734 0.51308 0.61957 0.0
H231 H 0.57802 0.50688 0.59064 0.0
H232 H 0.63519 0.63503 0.58792 0.0
H233 H 0.612 0.65609 0.59082 0.0
H234 H 0.62531 0.65198 0.57101 0.0
H235 H 0.52791 0.58368 0.5848 0.0
H236 H 0.53897 0.61068 0.56852 0.0
H237 H 0.55311 0.6279 0.5891 0.0
H238 H 0.58124 0.7003 0.54786 0.0
C239 C 0.58186 0.6546 0.54902 0.0
C240 C 0.16057 0.5601 0.8491 0.0
C241 C 0.18896 0.56042 0.85777 0.0
C242 C 0.19008 0.56291 0.87488 0.0
C243 C 0.13659 0.56213 0.87486 0.0
C244 C 0.13442 0.56093 0.85801 0.0
C245 C 0.10158 0.56055 0.85199 0.0
H246 H 0.95364 0.55456 0.87769 0.0
C247 C 0.10611 0.56104 0.88117 0.0
C248 C 0.08453 0.56016 0.86795 0.0
H249 H 0.97913 0.56388 0.82752 0.0
H250 H 1.03108 0.56243 0.83574 0.0
H251 H 0.97225 0.50044 0.88568 0.0
H252 H 1.02348 0.60727 0.89208 0.0
H253 H 1.03369 0.59336 0.91002 0.0
H254 H 0.99024 0.57968 0.90446 0.0
H255 H 0.96359 0.52089 0.90177 0.0
H256 H 0.99526 0.5089 0.90445 0.0
C257 C 0.07898 0.52892 0.84124 0.0
C258 C 0.11086 0.59246 0.84269 0.0
C259 C 0.09712 0.55817 0.94311 0.0
C260 C 0.07122 0.5534 0.95311 0.0
C261 C 1.04098 0.54903 0.94575 0.0
C262 C 1.0367 0.54993 0.92878 0.0
C263 C 0.06276 0.55482 0.91882 0.0
C264 C 0.09208 0.55826 0.92604 0.0
C265 C 0.11605 0.56101 0.91352 0.0
C266 C 0.09671 0.55956 0.89757 0.0
C267 C 0.06581 0.55649 0.9008 0.0
C268 C 0.12088 0.53015 0.91506 0.0
C269 C 0.14868 0.59554 0.91649 0.0
C270 C 0.97012 0.55698 0.8682 0.0
C271 C 0.96146 0.56017 0.85192 0.0
C272 C 0.98433 0.56163 0.84029 0.0
C273 C 1.01471 0.56099 0.84504 0.0
C274 C 1.02296 0.55868 0.86167 0.0
C275 C 0.99999 0.55656 0.87266 0.0
C276 C 1.01058 0.55425 0.88979 0.0
C277 C 1.04409 0.55633 0.88785 0.0
C278 C 0.05253 0.5585 0.87131 0.0
C279 C 0.98409 0.51953 0.89589 0.0
C280 C 1.01455 0.58495 0.89974 0.0
H281 H 0.16846 0.56559 0.89623 0.0
H282 H 0.15845 0.55852 0.83591 0.0
H283 H 0.12787 0.6151 0.85051 0.0
H284 H 0.08816 0.59381 0.83894 0.0
H285 H 0.12395 0.59312 0.83157 0.0
H286 H 0.07316 0.5061 0.84804 0.0
H287 H 0.09168 0.52881 0.83011 0.0
H288 H 0.05488 0.52755 0.83743 0.0
H289 H 0.12049 0.56111 0.94842 0.0
H290 H 1.02074 0.54542 0.9532 0.0
H291 H 1.01318 0.54698 0.92414 0.0
H292 H 0.09886 0.50861 0.92029 0.0
H293 H 0.14343 0.53609 0.9231 0.0
H294 H 0.12274 0.52015 0.90312 0.0
H295 H 0.1429 0.61483 0.92088 0.0
H296 H 0.16198 0.60572 0.90524 0.0
H297 H 0.16621 0.59424 0.92583 0.0
H298 H 0.21101 0.564 0.88207 0.0
C299 C 0.16482 0.56383 0.88325 0.0
C300 C 0.94789 0.54312 0.46189 0.0
C301 C 0.91758 0.52519 0.45227 0.0
C302 C 0.9191 0.52201 0.43526 0.0
C303 C 0.98005 0.55036 0.43824 0.0
C304 C 0.97848 0.55435 0.45478 0.0
C305 C 1.01203 0.56788 0.46394 0.0
H306 H 0.17879 0.627 0.46363 0.0
C307 C 1.01557 0.56223 0.43507 0.0
C308 C 1.03424 0.57205 0.45012 0.0
H309 H 0.11851 0.61101 0.50502 0.0
H310 H 0.06864 0.5891 0.48712 0.0
H311 H 0.12401 0.55453 0.44407 0.0
H312 H 0.14444 0.65604 0.44117 0.0
H313 H 0.13482 0.63879 0.42118 0.0
H314 H 0.17125 0.64288 0.43263 0.0
H315 H 0.16197 0.58772 0.43649 0.0
H316 H 0.12443 0.56404 0.42336 0.0
C317 C 1.00982 0.5411 0.47595 0.0
C318 C 1.02135 0.60197 0.47217 0.0
C319 C 1.04945 0.56303 0.37712 0.0
C320 C 0.08064 0.574 0.3704 0.0
C321 C 0.11 0.5874 0.38087 0.0
C322 C 0.10829 0.58959 0.39778 0.0
C323 C 0.0769 0.57845 0.40432 0.0
C324 C 1.04819 0.56568 0.39401 0.0
C325 C 1.01713 0.55576 0.40307 0.0
C326 C 1.03196 0.56486 0.42051 0.0
C327 C 0.06692 0.57777 0.42119 0.0
C328 C 0.99305 0.51752 0.40029 0.0
C329 C 1.002 0.57747 0.39728 0.0
C330 C 0.15471 0.61796 0.46887 0.0
C331 C 0.15263 0.62087 0.48579 0.0
C332 C 0.12086 0.60942 0.49203 0.0
C333 C 0.09186 0.59662 0.4816 0.0
C334 C 0.09446 0.5949 0.4647 0.0
C335 C 0.12538 0.60489 0.45859 0.0
C336 C 0.12311 0.60119 0.44027 0.0
C337 C 0.08569 0.58723 0.43646 0.0
C338 C 0.06926 0.58397 0.45083 0.0
C339 C 0.13411 0.57573 0.43566 0.0
C340 C 0.14463 0.63639 0.43333 0.0
H341 H 0.94963 0.53074 0.41527 0.0
H342 H 0.94796 0.54658 0.47494 0.0
H343 H 1.015 0.61694 0.46372 0.0
H344 H 1.04852 0.61784 0.47547 0.0
H345 H 1.00728 0.59831 0.48329 0.0
H346 H 0.98942 0.51546 0.47195 0.0
H347 H 1.00466 0.54622 0.48839 0.0
H348 H 1.03286 0.53919 0.47665 0.0
H349 H 1.02652 0.55305 0.36936 0.0
H350 H 0.13428 0.59586 0.37596 0.0
H351 H 0.13148 0.59991 0.40511 0.0
H352 H 1.00736 0.50426 0.39879 0.0
H353 H 0.97618 0.51191 0.38913 0.0
H354 H 0.97765 0.50582 0.41078 0.0
H355 H 1.02226 0.60387 0.39597 0.0
H356 H 0.98518 0.57874 0.40599 0.0
H357 H 0.98793 0.56802 0.38525 0.0
H358 H 0.89633 0.50803 0.42748 0.0
C359 C 0.95016 0.53475 0.42819 0.0
C360 C 0.45316 0.90661 0.79873 0.0
C361 C 0.44539 0.87627 0.79092 0.0
C362 C 0.44906 0.87557 0.77399 0.0
C363 C 0.47238 0.93585 0.77367 0.0
C364 C 0.46752 0.93592 0.79012 0.0
C365 C 0.48297 0.97043 0.7977 0.0
H366 H 0.56547 0.13745 0.79054 0.0
C367 C 0.49058 0.97122 0.76888 0.0
C368 C 0.49699 0.99138 0.78299 0.0
H369 H 0.53298 0.08102 0.83423 0.0
H370 H 0.51108 1.0295 0.81846 0.0
H371 H 0.59466 0.09175 0.77473 0.0
H372 H 0.50112 0.0912 0.76818 0.0
H373 H 0.50961 0.0812 0.749 0.0
H374 H 0.53833 0.12147 0.75885 0.0
H375 H 0.59094 0.12433 0.76484 0.0
H376 H 0.58339 0.0872 0.75372 0.0
C377 C 0.51125 0.97539 0.81054 0.0
C378 C 0.45446 0.97448 0.80462 0.0
C379 C 0.5184 1.0008 0.70993 0.0
C380 C 0.53315 1.03144 0.70205 0.0
C381 C 0.54369 0.06132 0.71123 0.0
C382 C 0.53993 0.06082 0.72803 0.0
C383 C 0.5253 1.03009 0.73578 0.0
C384 C 0.51439 1.00067 0.72674 0.0
C385 C 0.49828 0.97032 0.73705 0.0
C386 C 0.50146 0.98646 0.75372 0.0
C387 C 0.51779 1.02153 0.7529 0.0
C388 C 0.51924 0.95267 0.73657 0.0
C389 C 0.46111 0.9481 0.73069 0.0
C390 C 0.55395 0.11388 0.79664 0.0
C391 C 0.551 0.11308 0.81361 0.0
C392 C 0.53593 0.08213 0.8212 0.0
C393 C 0.52305 0.05223 0.81198 0.0
C394 C 0.52566 0.05326 0.795 0.0
C395 C 0.54137 0.0837 0.78761 0.0
C396 C 0.54231 0.07972 0.76947 0.0
C397 C 0.5246 0.04181 0.76725 0.0
C398 C 0.51462 1.02667 0.78222 0.0
C399 C 0.57968 0.09674 0.76531 0.0
C400 C 0.52206 0.09429 0.76081 0.0
H401 H 0.46553 0.90345 0.75253 0.0
H402 H 0.45041 0.90803 0.81169 0.0
H403 H 0.43168 0.96286 0.79606 0.0
H404 H 0.46114 1.00088 0.80629 0.0
H405 H 0.44715 0.96209 0.81645 0.0
H406 H 0.52071 0.95796 0.8081 0.0
H407 H 0.50214 0.97093 0.82305 0.0
H408 H 0.53392 1.00059 0.81035 0.0
H409 H 0.5097 0.97743 0.70311 0.0
H410 H 0.55527 0.08521 0.7054 0.0
H411 H 0.54858 0.08442 0.73433 0.0
H412 H 0.54657 0.97134 0.73644 0.0
H413 H 0.51208 0.93605 0.72548 0.0
H414 H 0.51688 0.93795 0.74745 0.0
H415 H 0.44966 0.96378 0.72769 0.0
H416 H 0.44519 0.93062 0.73977 0.0
H417 H 0.45909 0.93352 0.71945 0.0
H418 H 0.44345 0.85251 0.76768 0.0
C419 C 0.46233 0.90525 0.76528 0.0
C420 C 0.58914 0.40824 0.12487 0.0
C421 C 0.60372 0.39453 0.11505 0.0
C422 C 0.59862 0.39404 0.09794 0.0
C423 C 0.56925 0.42485 0.10086 0.0
C424 C 0.57218 0.42317 0.11758 0.0
C425 C 0.55774 0.44112 0.12644 0.0
H426 H 0.48802 0.53921 0.12449 0.0
C427 C 0.55359 0.44546 0.09734 0.0
C428 C 0.5465 0.45472 0.11228 0.0
H429 H 0.5104 0.49598 0.1663 0.0
H430 H 0.53178 0.46967 0.14891 0.0
H431 H 0.55795 0.55853 0.10579 0.0
H432 H 0.45636 0.47505 0.1019 0.0
H433 H 0.47061 0.48246 0.08211 0.0
H434 H 0.46728 0.51447 0.09319 0.0
H435 H 0.52269 0.56186 0.09797 0.0
H436 H 0.54487 0.54902 0.08499 0.0
C437 C 0.58641 0.4696 0.13745 0.0
C438 C 0.52756 0.41489 0.13571 0.0
C439 C 0.54625 0.48001 0.03947 0.0
C440 C 0.53413 0.49992 0.03257 0.0
C441 C 0.51928 0.51314 0.04257 0.0
C442 C 0.51741 0.50741 0.05932 0.0
C443 C 0.53043 0.48815 0.06613 0.0
C444 C 0.54397 0.4743 0.05618 0.0
C445 C 0.55568 0.45372 0.06543 0.0
C446 C 0.54747 0.45796 0.08263 0.0
C447 C 0.53309 0.47851 0.083 0.0
C448 C 0.59405 0.46981 0.06378 0.0
C449 C 0.53459 0.41689 0.05886 0.0
C450 C 0.49814 0.52457 0.12989 0.0
C451 C 0.49779 0.51978 0.14678 0.0
C452 C 0.51036 0.49989 0.15332 0.0
C453 C 0.52268 0.48459 0.14318 0.0
C454 C 0.52238 0.48913 0.1263 0.0
C455 C 0.51033 0.50888 0.11989 0.0
C456 C 0.51112 0.51 0.1016 0.0
C457 C 0.5255 0.4875 0.09812 0.0
C458 C 0.53219 0.4756 0.11265 0.0
C459 C 0.5352 0.54672 0.09721 0.0
C460 C 0.47457 0.49498 0.0942 0.0
H461 H 0.57929 0.40885 0.07773 0.0
H462 H 0.5928 0.40956 0.13804 0.0
H463 H 0.51516 0.38983 0.12932 0.0
H464 H 0.50732 0.42102 0.1364 0.0
H465 H 0.53577 0.41199 0.14822 0.0
H466 H 0.61055 0.48128 0.13131 0.0
H467 H 0.59044 0.4599 0.14915 0.0
H468 H 0.58201 0.49047 0.14011 0.0
H469 H 0.55722 0.46902 0.032 0.0
H470 H 0.50978 0.52855 0.03748 0.0
H471 H 0.50618 0.51845 0.06633 0.0
H472 H 0.60672 0.49757 0.06516 0.0
H473 H 0.5994 0.46355 0.05162 0.0
H474 H 0.60653 0.46231 0.07323 0.0
H475 H 0.50886 0.41076 0.05437 0.0
H476 H 0.53044 0.39869 0.0684 0.0
H477 H 0.54655 0.41211 0.04856 0.0
H478 H 0.60904 0.38314 0.09005 0.0
C479 C 0.58143 0.40909 0.0908 0.0
C480 C 0.29242 0.58475 0.18814 0.0
C481 C 0.26524 0.55169 0.18834 0.0
C482 C 0.32552 0.59132 0.19003 0.0
C483 C 0.37895 0.55451 0.20061 0.0
H484 H 0.42101 0.59333 0.16056 0.0
C485 C 0.458 0.51216 0.16804 0.0
C486 C 0.48193 0.53325 0.15734 0.0
C487 C 0.43984 0.52328 0.17659 0.0
C488 C 0.41046 0.58334 0.17208 0.0
H489 H 0.25168 0.50002 0.19207 0.0
H490 H 0.30919 0.51161 0.19567 0.0
H491 H 0.37327 0.59766 0.16832 0.0
H492 H 0.50746 0.58322 0.14802 0.0
H493 H 0.47627 0.60311 0.1633 0.0
H494 H 0.41548 0.53914 0.20408 0.0
C495 C 0.30493 0.53245 0.19404 0.0
C496 C 0.38294 0.58582 0.17652 0.0
C497 C 0.27188 0.52581 0.19196 0.0
C498 C 0.48877 0.56634 0.15604 0.0
C499 C 0.47088 0.57765 0.16478 0.0
C500 C 0.40682 0.55242 0.19629 0.0
C501 C 0.33202 0.56502 0.19241 0.0
C502 C 0.36597 0.57004 0.19039 0.0
C503 C 0.44542 0.5559 0.17477 0.0
C504 C 0.4218 0.5653 0.18153 0.0
H505 H 0.28817 0.6054 0.1858 0.0
H506 H 0.34602 0.6167 0.18887 0.0
H507 H 0.36649 0.54248 0.21147 0.0
H508 H 0.45199 0.48641 0.16914 0.0
H509 H 0.42006 0.50552 0.18388 0.0
C510 C 0.75124 0.28979 0.50569 0.0
C511 C 0.72181 0.26318 0.49805 0.0
C512 C 0.75923 0.32282 0.50353 0.0
C513 C 0.75155 0.37182 0.47209 0.0
H514 H 0.80288 0.44369 0.50444 0.0
C515 C 0.85434 0.49892 0.4525 0.0
C516 C 0.88522 0.50579 0.46026 0.0
C517 C 0.82387 0.47603 0.45901 0.0
C518 C 0.7881 0.424 0.49527 0.0
H519 H 0.67631 0.25037 0.48319 0.0
H520 H 0.69106 0.30835 0.47894 0.0
H521 H 0.76627 0.38684 0.51322 0.0
H522 H 0.90779 0.49464 0.48141 0.0
H523 H 0.85563 0.45618 0.4927 0.0
H524 H 0.7758 0.40814 0.45413 0.0
C525 C 0.70785 0.30346 0.48659 0.0
C526 C 0.76721 0.39152 0.50031 0.0
C527 C 0.69967 0.27034 0.48888 0.0
C528 C 0.88484 0.49095 0.4752 0.0
C529 C 0.85464 0.46865 0.48176 0.0
C530 C 0.77266 0.40427 0.46706 0.0
C531 C 0.73808 0.33001 0.4936 0.0
C532 C 0.75049 0.36485 0.48873 0.0
C533 C 0.82379 0.45998 0.47349 0.0
C534 C 0.79291 0.43017 0.47861 0.0
H535 H 0.76898 0.28525 0.51272 0.0
H536 H 0.78304 0.3428 0.50885 0.0
H537 H 0.73892 0.35173 0.4629 0.0
H538 H 0.85363 0.51027 0.44113 0.0
H539 H 0.80042 0.46986 0.45239 0.0
C540 C 0.53781 0.73864 0.86005 0.0
C541 C 0.5314 0.70591 0.8573 0.0
C542 C 0.51176 0.74566 0.85798 0.0
C543 C 0.4441 0.72238 0.8295 0.0
H544 H 0.43357 0.7886 0.85358 0.0
C545 C 0.41465 0.81421 0.79605 0.0
C546 C 0.43859 0.84735 0.80105 0.0
C547 C 0.41026 0.78752 0.80569 0.0
C548 C 0.43576 0.76972 0.84674 0.0
H549 H 0.49255 0.6545 0.85155 0.0
H550 H 0.44717 0.66708 0.8473 0.0
H551 H 0.45649 0.7575 0.86771 0.0
H552 H 0.47718 0.87827 0.81984 0.0
H553 H 0.46961 0.83262 0.83633 0.0
H554 H 0.42743 0.73738 0.80818 0.0
C555 C 0.47216 0.68705 0.85131 0.0
C556 C 0.44869 0.75186 0.85487 0.0
C557 C 0.49809 0.67993 0.85372 0.0
C558 C 0.45768 0.85322 0.81585 0.0
C559 C 0.4532 0.82688 0.82541 0.0
C560 C 0.43181 0.74074 0.82131 0.0
C561 C 0.47907 0.72017 0.85285 0.0
C562 C 0.45487 0.7296 0.84609 0.0
C563 C 0.42973 0.79367 0.82044 0.0
C564 C 0.42985 0.76628 0.82966 0.0
H565 H 0.56323 0.75902 0.86291 0.0
H566 H 0.51777 0.7715 0.85907 0.0
H567 H 0.44869 0.7053 0.82248 0.0
H568 H 0.39959 0.80895 0.7847 0.0
H569 H 0.39215 0.76213 0.80148 0.0
C570 C 0.87351 0.48685 0.17549 0.0
C571 C 0.88099 0.52036 0.17573 0.0
C572 C 0.84021 0.46064 0.17366 0.0
C573 C 0.7739 0.41863 0.15378 0.0
H574 H 0.69864 0.42263 0.17037 0.0
C575 C 0.65915 0.39684 0.1155 0.0
C576 C 0.62844 0.3862 0.12267 0.0
C577 C 0.68633 0.39831 0.12452 0.0
C578 C 0.71916 0.42039 0.16589 0.0
H579 H 0.85952 0.55265 0.17545 0.0
H580 H 0.80132 0.50693 0.17215 0.0
H581 H 0.75454 0.45636 0.1838 0.0
H582 H 0.60085 0.36422 0.14414 0.0
H583 H 0.64884 0.3678 0.16007 0.0
H584 H 0.73886 0.38432 0.13522 0.0
C585 C 0.82115 0.50086 0.17346 0.0
C586 C 0.75124 0.44001 0.17348 0.0
C587 C 0.85446 0.52708 0.17517 0.0
C588 C 0.62446 0.37345 0.13842 0.0
C589 C 0.65183 0.37531 0.14752 0.0
C590 C 0.74183 0.39914 0.14612 0.0
C591 C 0.81375 0.46742 0.17215 0.0
C592 C 0.77915 0.44059 0.167 0.0
C593 C 0.68347 0.38942 0.14092 0.0
C594 C 0.71449 0.40116 0.15161 0.0
H595 H 0.89345 0.48088 0.17578 0.0
H596 H 0.83519 0.43513 0.17276 0.0
H597 H 0.79493 0.41855 0.14848 0.0
H598 H 0.66335 0.40706 0.10347 0.0
H599 H 0.71044 0.40953 0.11911 0.0
C600 C 0.36609 0.8655 0.52836 0.0
C601 C 0.39829 0.87864 0.52252 0.0
C602 C 0.34679 0.83142 0.53122 0.0
C603 C 0.33357 0.75492 0.51293 0.0
H604 H 0.26413 0.71536 0.54384 0.0
C605 C 0.2116 0.63517 0.49456 0.0
C606 C 0.18363 0.63904 0.49665 0.0
C607 C 0.24232 0.65623 0.50319 0.0
C608 C 0.28354 0.72588 0.53518 0.0
H609 H 0.43654 0.86701 0.51615 0.0
H610 H 0.4026 0.80727 0.52103 0.0
H611 H 0.31285 0.77107 0.54981 0.0
H612 H 0.16545 0.66682 0.51003 0.0
H613 H 0.21857 0.70355 0.52475 0.0
H614 H 0.30318 0.71148 0.49759 0.0
C615 C 0.39237 0.82337 0.52343 0.0
C616 C 0.31144 0.7577 0.53864 0.0
C617 C 0.41178 0.85754 0.52069 0.0
C618 C 0.18636 0.66285 0.50828 0.0
C619 C 0.21696 0.6839 0.51682 0.0
C620 C 0.30557 0.72332 0.50939 0.0
C621 C 0.35927 0.80982 0.52817 0.0
C622 C 0.33574 0.77321 0.52712 0.0
C623 C 0.24563 0.68168 0.51397 0.0
C624 C 0.27928 0.70932 0.52004 0.0
H625 H 0.35529 0.88134 0.53006 0.0
H626 H 0.32123 0.82166 0.5347 0.0
H627 H 0.35182 0.76628 0.50377 0.0
H628 H 0.21004 0.61662 0.48587 0.0
H629 H 0.26382 0.65357 0.50088 0.0
C630 C 0.59208 0.36651 0.84419 0.0
C631 C 0.5683 0.37049 0.85243 0.0
C632 C 0.59987 0.34215 0.84878 0.0
C633 C 0.55232 0.25916 0.86282 0.0
H634 H 0.63156 0.25648 0.85116 0.0
C635 C 0.54781 0.16448 0.81822 0.0
C636 C 0.56057 0.14393 0.82326 0.0
C637 C 0.5536 0.19175 0.82802 0.0
C638 C 0.6095 0.25683 0.85489 0.0
H639 H 0.53665 0.35483 0.87296 0.0
H640 H 0.5501 0.31182 0.88096 0.0
H641 H 0.63684 0.30991 0.85975 0.0
H642 H 0.59018 0.13606 0.84216 0.0
H643 H 0.60137 0.18511 0.85922 0.0
H644 H 0.52463 0.2067 0.85658 0.0
C645 C 0.56258 0.32744 0.8709 0.0
C646 C 0.61244 0.2873 0.85972 0.0
C647 C 0.55489 0.352 0.86634 0.0
C648 C 0.5801 0.15166 0.83808 0.0
C649 C 0.58644 0.17948 0.84779 0.0
C650 C 0.54941 0.22888 0.85791 0.0
C651 C 0.58385 0.32117 0.86164 0.0
C652 C 0.5835 0.28904 0.8627 0.0
C653 C 0.5726 0.19921 0.84293 0.0
C654 C 0.57764 0.22794 0.85301 0.0
H655 H 0.60325 0.381 0.83362 0.0
H656 H 0.61615 0.33789 0.84128 0.0
H657 H 0.52949 0.25954 0.86494 0.0
H658 H 0.53239 0.15878 0.80695 0.0
H659 H 0.54307 0.20703 0.824 0.0
C660 C 0.60939 0.96869 0.50149 0.0
C661 C 0.57949 0.97037 0.49983 0.0
C662 C 0.60898 0.93765 0.50294 0.0
C663 C 0.54885 0.84197 0.5085 0.0
H664 H 0.62873 0.83694 0.50178 0.0
C665 C 0.55075 0.71682 0.52217 0.0
C666 C 0.57518 0.70986 0.51637 0.0
C667 C 0.55101 0.74724 0.51923 0.0
C668 C 0.60576 0.83717 0.50361 0.0
H669 H 0.52531 0.93838 0.49834 0.0
H670 H 0.52437 0.88544 0.5003 0.0
H671 H 0.62968 0.88961 0.4985 0.0
H672 H 0.61955 0.73191 0.50249 0.0
H673 H 0.61942 0.78399 0.49669 0.0
H674 H 0.52451 0.78944 0.51299 0.0
C675 C 0.54872 0.90803 0.50091 0.0
C676 C 0.60643 0.86832 0.50191 0.0
C677 C 0.54917 0.93907 0.49961 0.0
C678 C 0.59959 0.73514 0.50695 0.0
C679 C 0.59982 0.76583 0.50389 0.0
C680 C 0.54811 0.81086 0.51007 0.0
C681 C 0.57861 0.90609 0.5027 0.0
C682 C 0.57801 0.87195 0.50436 0.0
C683 C 0.57579 0.77319 0.51018 0.0
C684 C 0.57658 0.80726 0.50781 0.0
H685 H 0.63352 0.99164 0.50184 0.0
H686 H 0.63299 0.93882 0.50448 0.0
H687 H 0.52606 0.84215 0.5108 0.0
H688 H 0.53175 0.69891 0.52977 0.0
H689 H 0.53205 0.75057 0.52477 0.0
C690 C 0.69962 0.59085 0.83602 0.0
C691 C 0.66865 0.56136 0.83167 0.0
C692 C 0.7308 0.59115 0.83745 0.0
C693 C 0.77254 0.53817 0.82836 0.0
H694 H 0.84624 0.6066 0.85581 0.0
C695 C 0.90798 0.54826 0.83351 0.0
C696 C 0.92909 0.56219 0.84795 0.0
C697 C 0.877 0.54837 0.83093 0.0
C698 C 0.82619 0.58683 0.84815 0.0
H699 H 0.64802 0.50868 0.82553 0.0
H700 H 0.70121 0.50896 0.8282 0.0
H701 H 0.7931 0.60558 0.85315 0.0
H702 H 0.93269 0.58875 0.87057 0.0
H703 H 0.88012 0.5882 0.8664 0.0
H704 H 0.80561 0.51898 0.82371 0.0
C705 C 0.7019 0.53243 0.83029 0.0
C706 C 0.79509 0.58656 0.84638 0.0
C707 C 0.67074 0.53218 0.82882 0.0
C708 C 0.91772 0.57696 0.85937 0.0
C709 C 0.88705 0.57711 0.85681 0.0
C710 C 0.80372 0.53843 0.83013 0.0
C711 C 0.73304 0.56193 0.83468 0.0
C712 C 0.76712 0.5622 0.83646 0.0
C713 C 0.86544 0.56269 0.84257 0.0
C714 C 0.83158 0.56269 0.84016 0.0
H715 H 0.69992 0.6141 0.83832 0.0
H716 H 0.75335 0.61483 0.84058 0.0
H717 H 0.75269 0.51895 0.82037 0.0
H718 H 0.91496 0.53648 0.82425 0.0
H719 H 0.8622 0.53723 0.81962 0.0
C720 C 0.17537 0.68932 0.16788 0.0
C721 C 0.17325 0.65783 0.16571 0.0
C722 C 0.20678 0.72007 0.16913 0.0
C723 C 0.30254 0.75668 0.17631 0.0
H724 H 0.30783 0.83935 0.16312 0.0
C725 C 0.42702 0.88781 0.19066 0.0
C726 C 0.43582 0.91584 0.18084 0.0
C727 C 0.39605 0.85707 0.18814 0.0
C728 C 0.30735 0.81671 0.16683 0.0
H729 H 0.2047 0.63579 0.16323 0.0
H730 H 0.25861 0.68845 0.16534 0.0
H731 H 0.25422 0.78667 0.16011 0.0
H732 H 0.41675 0.93124 0.16009 0.0
H733 H 0.36323 0.87803 0.1556 0.0
H734 H 0.35565 0.78652 0.18285 0.0
C735 C 0.23589 0.68967 0.16624 0.0
C736 C 0.2759 0.78594 0.16526 0.0
C737 C 0.20444 0.65892 0.16489 0.0
C738 C 0.4118 0.91087 0.16803 0.0
C739 C 0.38047 0.87999 0.16556 0.0
C740 C 0.33388 0.78743 0.17798 0.0
C741 C 0.23812 0.7213 0.1684 0.0
C742 C 0.27244 0.75489 0.16997 0.0
C743 C 0.37154 0.85213 0.17562 0.0
C744 C 0.33736 0.81851 0.17334 0.0
H745 H 0.15252 0.69036 0.16866 0.0
H746 H 0.20629 0.74301 0.17099 0.0
H747 H 0.30203 0.73421 0.18033 0.0
H748 H 0.44426 0.8895 0.20057 0.0
H749 H 0.39116 0.8373 0.19645 0.0
C750 C 0.60821 0.19206 0.50265 0.0
C751 C 0.57813 0.16156 0.49833 0.0
C752 C 0.60912 0.2234 0.50399 0.0
C753 C 0.55601 0.26641 0.49507 0.0
H754 H 0.6276 0.33909 0.5216 0.0
C755 C 0.56667 0.40147 0.50013 0.0
C756 C 0.58247 0.42249 0.51429 0.0
C757 C 0.56648 0.37059 0.49757 0.0
C758 C 0.60694 0.31934 0.5142 0.0
H759 H 0.52517 0.1421 0.49207 0.0
H760 H 0.52647 0.19541 0.49458 0.0
H761 H 0.6261 0.28606 0.51893 0.0
H762 H 0.61202 0.42587 0.53641 0.0
H763 H 0.61105 0.37353 0.53228 0.0
H764 H 0.53651 0.29966 0.49066 0.0
C765 C 0.54994 0.19567 0.49674 0.0
C766 C 0.60635 0.28826 0.51243 0.0
C767 C 0.54908 0.16438 0.49536 0.0
C768 C 0.59876 0.41104 0.52544 0.0
C769 C 0.59864 0.38046 0.5229 0.0
C770 C 0.55662 0.29755 0.49684 0.0
C771 C 0.57997 0.22634 0.50115 0.0
C772 C 0.5808 0.26057 0.50286 0.0
C773 C 0.58236 0.35894 0.50895 0.0
C774 C 0.58201 0.32509 0.50655 0.0
H775 H 0.63145 0.19188 0.50502 0.0
H776 H 0.6332 0.24549 0.50714 0.0
H777 H 0.53586 0.2469 0.48734 0.0
H778 H 0.55366 0.40844 0.49107 0.0
H779 H 0.55384 0.35592 0.48648 0.0
C780 C 0.44449 0.52965 0.83246 0.0
C781 C 0.47575 0.5596 0.83147 0.0
C782 C 0.41369 0.52954 0.83394 0.0
C783 C 0.37424 0.58741 0.83378 0.0
H784 H 0.29681 0.50666 0.84714 0.0
C785 C 0.24128 0.58054 0.84016 0.0
C786 C 0.21768 0.55708 0.85055 0.0
C787 C 0.27168 0.58072 0.83678 0.0
C788 C 0.31787 0.52994 0.84359 0.0
H789 H 0.49731 0.61337 0.83132 0.0
H790 H 0.44475 0.6134 0.83402 0.0
H791 H 0.34914 0.50789 0.84444 0.0
H792 H 0.2092 0.5152 0.86523 0.0
H793 H 0.26043 0.51552 0.85973 0.0
H794 H 0.3428 0.60972 0.83362 0.0
C795 C 0.44348 0.58945 0.83354 0.0
C796 C 0.34873 0.53049 0.8417 0.0
C797 C 0.47433 0.58952 0.83199 0.0
C798 C 0.22584 0.53349 0.85696 0.0
C799 C 0.25596 0.53372 0.85369 0.0
C800 C 0.34331 0.58695 0.83583 0.0
C801 C 0.41199 0.55944 0.83469 0.0
C802 C 0.37815 0.55918 0.8367 0.0
C803 C 0.28029 0.55755 0.84366 0.0
C804 C 0.31401 0.55819 0.84087 0.0
H805 H 0.44362 0.50581 0.83204 0.0
H806 H 0.39109 0.50539 0.83431 0.0
H807 H 0.39506 0.61034 0.82976 0.0
H808 H 0.23702 0.59977 0.83515 0.0
H809 H 0.28862 0.59954 0.82883 0.0
C810 C 0.94932 0.46302 0.16171 0.0
C811 C 0.98111 0.46596 0.1654 0.0
C812 C 0.91841 0.43242 0.16328 0.0
C813 C 0.88072 0.33736 0.17033 0.0
H814 H 0.79944 0.34031 0.17608 0.0
C815 C 0.74777 0.21092 0.17489 0.0
C816 C 0.72246 0.21142 0.1838 0.0
C817 C 0.77827 0.24104 0.17163 0.0
C818 C 0.82161 0.33835 0.17465 0.0
H819 H 1.00344 0.43689 0.17392 0.0
H820 H 0.9506 0.38459 0.17688 0.0
H821 H 0.85222 0.39186 0.17339 0.0
H822 H 0.71112 0.2458 0.19609 0.0
H823 H 0.76257 0.2969 0.19052 0.0
H824 H 0.85008 0.28375 0.17208 0.0
C825 C 0.94916 0.40581 0.17241 0.0
C826 C 0.85258 0.36868 0.17282 0.0
C827 C 0.98009 0.43642 0.17079 0.0
C828 C 0.72908 0.24368 0.18888 0.0
C829 C 0.75927 0.27357 0.18564 0.0
C830 C 0.84969 0.30695 0.1722 0.0
C831 C 0.9172 0.40272 0.16873 0.0
C832 C 0.88329 0.36934 0.17062 0.0
C833 C 0.78524 0.27339 0.17713 0.0
C834 C 0.81905 0.30639 0.17451 0.0
H835 H 0.94816 0.4846 0.15753 0.0
H836 H 0.89531 0.43223 0.15993 0.0
H837 H 0.90279 0.33545 0.1685 0.0
H838 H 0.74474 0.18706 0.17103 0.0
H839 H 0.7966 0.2387 0.16489 0.0
C840 C 0.06323 0.52897 0.10267 0.0
C841 C 0.07653 0.55955 0.11154 0.0
C842 C 0.06371 0.52816 0.0856 0.0
C843 C 0.0784 0.58257 0.04932 0.0
H844 H 0.08066 0.50968 0.02689 0.0
C845 C 0.10079 0.58112 0.98015 0.0
C846 C 0.07522 0.55304 0.97119 0.0
C847 C 0.10241 0.58194 0.99727 0.0
C848 C 0.08001 0.53018 0.03301 0.0
H849 H 0.10165 0.61337 0.10946 0.0
H850 H 0.10426 0.61228 0.08001 0.0
H851 H 0.08131 0.5115 0.05658 0.0
H852 H 1.032 0.50347 0.97306 0.0
H853 H 1.03565 0.50435 0.00297 0.0
H854 H 0.07845 0.60172 0.02558 0.0
C855 C 0.09203 0.58861 0.08597 0.0
C856 C 0.08006 0.53116 0.05009 0.0
C857 C 0.0908 0.58933 0.10298 0.0
C858 C 0.052 0.52539 0.97967 0.0
C859 C 0.05412 0.52588 0.99677 0.0
C860 C 0.07916 0.58197 0.03229 0.0
C861 C 0.07826 0.55799 0.07691 0.0
C862 C 0.07896 0.55724 0.05859 0.0
C863 C 0.079 0.55436 0.00576 0.0
C864 C 0.07971 0.55565 0.02393 0.0
H865 H 0.05183 0.50554 0.10889 0.0
H866 H 0.05212 0.50395 0.07927 0.0
H867 H 0.07672 0.60272 0.05513 0.0
H868 H 0.11884 0.60285 0.97391 0.0
H869 H 0.12192 0.60417 0.00389 0.0
C870 C 0.55418 0.06265 0.43506 0.0
C871 C 0.58348 0.074 0.44536 0.0
C872 C 0.55572 0.06359 0.41808 0.0
C873 C 0.61382 0.10186 0.38459 0.0
H874 H 0.54197 1.02692 0.35904 0.0
C875 C 0.61427 0.08345 0.31393 0.0
C876 C 0.58318 0.07058 0.30493 0.0
C877 C 0.61603 0.08558 0.33108 0.0
C878 C 0.56208 0.04828 0.36593 0.0
H879 H 0.63765 0.09584 0.44563 0.0
H880 H 0.64028 0.09714 0.41597 0.0
H881 H 0.54192 1.02723 0.38861 0.0
H882 H 0.52993 0.05188 0.30704 0.0
H883 H 0.53299 0.05556 0.33665 0.0
H884 H 0.63399 0.12273 0.36175 0.0
C885 C 0.61606 0.08777 0.42109 0.0
C886 C 0.56204 0.04847 0.38297 0.0
C887 C 0.61452 0.08687 0.43813 0.0
C888 C 0.5542 0.06111 0.31352 0.0
C889 C 0.55595 0.06319 0.33056 0.0
C890 C 0.6139 0.10163 0.36748 0.0
C891 C 0.5866 0.0758 0.4108 0.0
C892 C 0.58767 0.07541 0.39258 0.0
C893 C 0.58675 0.07489 0.33964 0.0
C894 C 0.58778 0.07498 0.3579 0.0
H895 H 0.5298 0.0528 0.44009 0.0
H896 H 0.53255 0.0548 0.41065 0.0
H897 H 0.63386 0.12317 0.39154 0.0
H898 H 0.63708 0.09083 0.30776 0.0
H899 H 0.64019 0.0946 0.33763 0.0
C900 C 0.55035 0.53972 0.76739 0.0
C901 C 0.57318 0.56744 0.77754 0.0
C902 C 0.55185 0.54076 0.75042 0.0
C903 C 0.58281 0.59788 0.71604 0.0
H904 H 0.57179 0.51917 0.69295 0.0
C905 C 0.59879 0.59404 0.64608 0.0
C906 C 0.57779 0.56362 0.63729 0.0
C907 C 0.59888 0.59594 0.66316 0.0
C908 C 0.57444 0.54125 0.69911 0.0
H909 H 0.61524 0.61832 0.77755 0.0
H910 H 0.61772 0.62017 0.74781 0.0
H911 H 0.57088 0.52003 0.72251 0.0
H912 H 0.53921 0.51176 0.63963 0.0
H913 H 0.53891 0.51511 0.66916 0.0
H914 H 0.58596 0.61894 0.69257 0.0
C915 C 0.5986 0.59761 0.75309 0.0
C916 C 0.57401 0.54175 0.71614 0.0
C917 C 0.59727 0.59649 0.77015 0.0
C918 C 0.55624 0.53544 0.64599 0.0
C919 C 0.55617 0.53736 0.663 0.0
C920 C 0.58304 0.59731 0.69894 0.0
C921 C 0.57609 0.56959 0.74301 0.0
C922 C 0.5779 0.56993 0.72486 0.0
C923 C 0.57781 0.5675 0.67191 0.0
C924 C 0.57855 0.56883 0.6902 0.0
H925 H 0.53137 0.51691 0.77255 0.0
H926 H 0.53376 0.5189 0.74308 0.0
H927 H 0.58562 0.61991 0.72233 0.0
H928 H 0.61589 0.61619 0.63979 0.0
H929 H 0.61612 0.61953 0.66953 0.0
C930 C 0.59147 0.04546 0.5565 0.0
C931 C 0.57341 0.05768 0.5475 0.0
C932 C 0.58891 0.04226 0.57337 0.0
C933 C 0.56959 0.07571 0.60903 0.0
H934 H 0.54548 0.99107 0.62862 0.0
C935 C 0.52765 0.05123 0.67449 0.0
C936 C 0.53754 1.0326 0.6843 0.0
C937 C 0.53307 0.05371 0.65787 0.0
C938 C 0.55276 1.01506 0.62342 0.0
H939 H 0.53889 0.07649 0.54911 0.0
H940 H 0.53501 0.07148 0.57852 0.0
H941 H 0.5547 0.99731 0.59951 0.0
H942 H 0.56066 1.00178 0.6845 0.0
H943 H 0.57102 1.00676 0.65548 0.0
H944 H 0.56829 0.09386 0.6328 0.0
C945 C 0.55098 0.06425 0.57254 0.0
C946 C 0.55796 1.01855 0.60675 0.0
C947 C 0.55309 0.06694 0.55569 0.0
C948 C 0.55257 1.01609 0.67714 0.0
C949 C 0.5584 1.01891 0.66052 0.0
C950 C 0.56484 0.07239 0.6257 0.0
C951 C 0.56876 0.05181 0.58153 0.0
C952 C 0.56589 0.04875 0.59937 0.0
C953 C 0.54896 0.03799 0.6507 0.0
C954 C 0.55578 0.04185 0.63308 0.0
H955 H 0.60722 0.038 0.55048 0.0
H956 H 0.60295 1.03268 0.58008 0.0
H957 H 0.57615 0.09941 0.60367 0.0
H958 H 0.51556 0.0638 0.67967 0.0
H959 H 0.52462 0.06787 0.65064 0.0
C960 C 0.56126 0.51946 0.88577 0.0
C961 C 0.56818 0.54979 0.87881 0.0
C962 C 0.55712 0.51524 0.90247 0.0
C963 C 0.57907 0.56083 0.94175 0.0
H964 H 0.50253 0.48006 0.95636 0.0
C965 C 0.56851 0.51801 0.00812 0.0
C966 C 0.53759 0.50732 0.01505 0.0
C967 C 0.57189 0.52478 0.99158 0.0
C968 C 0.52389 0.50282 0.95244 0.0
H969 H 0.57686 0.59973 0.88397 0.0
H970 H 0.57012 0.59246 0.91325 0.0
H971 H 0.5093 0.48885 0.92715 0.0
H972 H 0.48597 0.49527 0.01017 0.0
H973 H 0.49177 0.5067 0.98108 0.0
H974 H 0.59391 0.57455 0.96706 0.0
C975 C 0.56773 0.57195 0.90571 0.0
C976 C 0.52791 0.50771 0.93577 0.0
C977 C 0.57145 0.57603 0.88896 0.0
C978 C 0.51011 0.50362 0.00513 0.0
C979 C 0.51337 0.50995 0.98851 0.0
C980 C 0.57529 0.55572 0.95844 0.0
C981 C 0.56023 0.5414 0.91259 0.0
C982 C 0.5556 0.5367 0.93027 0.0
C983 C 0.54431 0.52059 0.98159 0.0
C984 C 0.54772 0.52662 0.96393 0.0
H985 H 0.5586 0.49875 0.87831 0.0
H986 H 0.55173 0.49157 0.9075 0.0
H987 H 0.60072 0.58331 0.93782 0.0
H988 H 0.59015 0.52133 0.01554 0.0
H989 H 0.59594 0.5327 0.98652 0.0
C990 C 0.05773 0.56999 0.22153 0.0
C991 C 0.08114 0.56556 0.21314 0.0
C992 C 0.05872 0.57045 0.23854 0.0
C993 C 0.11411 0.58178 0.27519 0.0
H994 H 1.02967 0.53983 0.2963 0.0
C995 C 0.05933 0.54257 0.34346 0.0
C996 C 0.0825 0.57179 0.35251 0.0
C997 C 0.06027 0.54085 0.32653 0.0
C998 C 0.05351 0.55133 0.29063 0.0
H999 H 0.12397 0.55811 0.21601 0.0
H1000 H 0.12529 0.55824 0.24573 0.0
H1001 H 1.02916 0.538 0.26673 0.0
H1002 H 0.12486 0.62209 0.35099 0.0
H1003 H 0.12617 0.6194 0.32139 0.0
H1004 H 0.13844 0.59431 0.29916 0.0
C1005 C 0.10652 0.56197 0.23917 0.0
C1006 C 0.05321 0.55071 0.27364 0.0
C1007 C 0.10567 0.56173 0.22213 0.0
C1008 C 0.10692 0.59912 0.34433 0.0
C1009 C 0.10771 0.59751 0.32737 0.0
C1010 C 0.11441 0.58223 0.29222 0.0
C1011 C 0.08297 0.56623 0.24758 0.0
C1012 C 0.08348 0.56615 0.26569 0.0
C1013 C 0.08423 0.56842 0.31825 0.0
C1014 C 0.0841 0.56717 0.30015 0.0
H1015 H 1.03864 0.57325 0.21498 0.0
H1016 H 1.04061 0.57445 0.24461 0.0
H1017 H 0.1379 0.59418 0.26948 0.0
H1018 H 1.04054 0.52095 0.34949 0.0
H1019 H 1.04224 0.51782 0.31995 0.0
loop_
_geom_bond_atom_site_label_1
_geom_bond_atom_site_label_2
_geom_bond_distance
_geom_bond_site_symmetry_2
_ccdc_geom_bond_type
Tb0 C10 2.825 . S
Tb0 O11 2.347 . S
Tb0 O14 2.366 . S
Tb0 O19 2.418 . S
Tb0 O20 2.384 1_455 S
Tb0 O23 2.479 . S
Tb0 O24 2.471 . S
Eu1 O12 2.419 . S
Eu1 O13 2.389 . S
Eu1 O16 2.472 1_455 S
Eu1 O17 2.466 1_455 S
Eu1 O18 2.350 . S
Eu1 O21 2.365 1_455 S
Eu1 C31 2.819 1_455 S
C2 O18 1.259 . S
C2 O19 1.265 . S
C3 O20 1.255 . S
C3 O21 1.265 . S
C4 C6 1.380 . S
C4 C7 1.374 . S
C4 C10 1.507 . S
C5 C6 1.384 . S
C5 C9 1.387 . S
C5 H32 0.930 . S
C6 C4 1.380 . S
C6 C5 1.384 . S
C6 H33 0.931 . S
C7 C4 1.374 . S
C7 C8 1.390 . S
C7 H34 0.930 . S
C8 C7 1.390 . S
C8 C9 1.391 . S
C8 H35 0.930 . S
C9 C5 1.387 . S
C9 C8 1.391 . S
C10 Tb0 2.825 . S
C10 C4 1.507 . S
C10 O23 1.238 . S
C10 O24 1.247 . S
O11 Tb0 2.347 . S
O11 C15 1.259 . S
O12 Eu1 2.419 . S
O12 C15 1.265 . S
O13 Eu1 2.389 . S
O13 C22 1.255 . S
O14 Tb0 2.366 . S
O14 C22 1.265 . S
C15 O11 1.259 . S
C15 O12 1.265 . S
O16 Eu1 2.472 1_655 S
O16 C31 1.238 . S
O17 Eu1 2.466 1_655 S
O17 C31 1.247 . S
O18 Eu1 2.350 . S
O18 C2 1.259 . S
O19 Tb0 2.418 . S
O19 C2 1.265 . S
O20 Tb0 2.384 1_655 S
O20 C3 1.255 . S
O21 Eu1 2.365 1_655 S
O21 C3 1.265 . S
C22 O13 1.255 . S
C22 O14 1.265 . S
O23 Tb0 2.479 . S
O23 C10 1.238 . S
O24 Tb0 2.471 . S
O24 C10 1.247 . S
C25 C28 1.380 . S
C25 C29 1.374 . S
C25 C31 1.507 . S
C26 C27 1.387 . S
C26 C30 1.391 . S
C27 C26 1.387 . S
C27 C28 1.384 . S
C27 H36 0.930 . S
C28 C25 1.380 . S
C28 C27 1.384 . S
C28 H37 0.931 . S
C29 C25 1.374 . S
C29 C30 1.390 . S
C29 H38 0.930 . S
C30 C26 1.391 . S
C30 C29 1.390 . S
C30 H39 0.930 . S
C31 Eu1 2.819 1_655 S
C31 O16 1.238 . S
C31 O17 1.247 . S
C31 C25 1.507 . S
H32 C5 0.930 . S
H33 C6 0.931 . S
H34 C7 0.930 . S
H35 C8 0.930 . S
H36 C27 0.930 . S
H37 C28 0.931 . S
H38 C29 0.930 . S
H39 C30 0.930 . S
Tb40 C50 2.825 . S
Tb40 O51 2.347 . S
Tb40 O54 2.366 . S
Tb40 O59 2.418 . S
Tb40 O60 2.405 . S
Tb40 O63 2.479 . S
Tb40 O64 2.471 . S
Eu41 O52 2.418 . S
Eu41 O53 2.384 . S
Eu41 O56 2.479 1_545 S
Eu41 O57 2.471 1_545 S
Eu41 O58 2.347 . S
Eu41 O61 2.366 1_545 S
Eu41 C71 2.825 1_545 S
C42 O58 1.259 . S
C42 O59 1.265 . S
C43 O60 1.246 1_565 S
C43 O61 1.265 . S
C44 C46 1.380 . S
C44 C47 1.374 . S
C44 C50 1.507 . S
C45 C46 1.384 . S
C45 C49 1.387 . S
C45 H72 0.930 . S
C46 C44 1.380 . S
C46 C45 1.384 . S
C46 H73 0.931 . S
C47 C44 1.374 . S
C47 C48 1.390 . S
C47 H74 0.930 . S
C48 C47 1.390 . S
C48 C49 1.391 . S
C48 H75 0.930 . S
C49 C45 1.387 . S
C49 C48 1.391 . S
C50 Tb40 2.825 . S
C50 C44 1.507 . S
C50 O63 1.238 . S
C50 O64 1.247 . S
O51 Tb40 2.347 . S
O51 C55 1.259 . S
O52 Eu41 2.418 . S
O52 C55 1.265 . S
O53 Eu41 2.384 . S
O53 C62 1.255 . S
O54 Tb40 2.366 . S
O54 C62 1.265 . S
C55 O51 1.259 . S
C55 O52 1.265 . S
O56 Eu41 2.479 1_565 S
O56 C71 1.238 . S
O57 Eu41 2.471 1_565 S
O57 C71 1.247 . S
O58 Eu41 2.347 . S
O58 C42 1.259 . S
O59 Tb40 2.418 . S
O59 C42 1.265 . S
O60 Tb40 2.405 . S
O60 C43 1.246 1_545 S
O61 Eu41 2.366 1_565 S
O61 C43 1.265 . S
C62 O53 1.255 . S
C62 O54 1.265 . S
O63 Tb40 2.479 . S
O63 C50 1.238 . S
O64 Tb40 2.471 . S
O64 C50 1.247 . S
C65 C68 1.380 . S
C65 C69 1.374 . S
C65 C71 1.507 . S
C66 C67 1.387 . S
C66 C70 1.391 . S
C67 C66 1.387 . S
C67 C68 1.384 . S
C67 H76 0.930 . S
C68 C65 1.380 . S
C68 C67 1.384 . S
C68 H77 0.931 . S
C69 C65 1.374 . S
C69 C70 1.390 . S
C69 H78 0.930 . S
C70 C66 1.391 . S
C70 C69 1.390 . S
C70 H79 0.930 . S
C71 Eu41 2.825 1_565 S
C71 O56 1.238 . S
C71 O57 1.247 . S
C71 C65 1.507 . S
H72 C45 0.930 . S
H73 C46 0.931 . S
H74 C47 0.930 . S
H75 C48 0.930 . S
H76 C67 0.930 . S
H77 C68 0.931 . S
H78 C69 0.930 . S
H79 C70 0.930 . S
Tb80 C90 2.825 . S
Tb80 O91 2.347 . S
Tb80 O94 2.366 . S
Tb80 O99 2.418 . S
Tb80 O100 2.384 . S
Tb80 O103 2.479 . S
Tb80 O104 2.471 . S
Eu81 O92 2.418 . S
Eu81 O93 2.384 . S
Eu81 O96 2.479 . S
Eu81 O97 2.471 . S
Eu81 O98 2.347 . S
Eu81 O101 2.366 . S
Eu81 C111 2.825 . S
C82 O98 1.259 . S
C82 O99 1.265 . S
C83 O100 1.255 . S
C83 O101 1.265 . S
C84 C86 1.380 . S
C84 C87 1.374 . S
C84 C90 1.507 . S
C85 C86 1.384 . S
C85 C89 1.387 . S
C85 H112 0.930 . S
C86 C84 1.380 . S
C86 C85 1.384 . S
C86 H113 0.931 . S
C87 C84 1.374 . S
C87 C88 1.390 . S
C87 H114 0.930 . S
C88 C87 1.390 . S
C88 C89 1.391 . S
C88 H115 0.930 . S
C89 C85 1.387 . S
C89 C88 1.391 . S
C90 Tb80 2.825 . S
C90 C84 1.507 . S
C90 O103 1.238 . S
C90 O104 1.247 . S
O91 Tb80 2.347 . S
O91 C95 1.259 . S
O92 Eu81 2.418 . S
O92 C95 1.265 . S
O93 Eu81 2.384 . S
O93 C102 1.255 . S
O94 Tb80 2.366 . S
O94 C102 1.265 . S
C95 O91 1.259 . S
C95 O92 1.265 . S
O96 Eu81 2.479 . S
O96 C111 1.238 . S
O97 Eu81 2.471 . S
O97 C111 1.247 . S
O98 Eu81 2.347 . S
O98 C82 1.259 . S
O99 Tb80 2.418 . S
O99 C82 1.265 . S
O100 Tb80 2.384 . S
O100 C83 1.255 . S
O101 Eu81 2.366 . S
O101 C83 1.265 . S
C102 O93 1.255 . S
C102 O94 1.265 . S
O103 Tb80 2.479 . S
O103 C90 1.238 . S
O104 Tb80 2.471 . S
O104 C90 1.247 . S
C105 C108 1.380 . S
C105 C109 1.374 . S
C105 C111 1.507 . S
C106 C107 1.387 . S
C106 C110 1.391 . S
C107 C106 1.387 . S
C107 C108 1.384 . S
C107 H116 0.930 . S
C108 C105 1.380 . S
C108 C107 1.384 . S
C108 H117 0.931 . S
C109 C105 1.374 . S
C109 C110 1.390 . S
C109 H118 0.930 . S
C110 C106 1.391 . S
C110 C109 1.390 . S
C110 H119 0.930 . S
C111 Eu81 2.825 . S
C111 O96 1.238 . S
C111 O97 1.247 . S
C111 C105 1.507 . S
H112 C85 0.930 . S
H113 C86 0.931 . S
H114 C87 0.930 . S
H115 C88 0.930 . S
H116 C107 0.930 . S
H117 C108 0.931 . S
H118 C109 0.930 . S
H119 C110 0.930 . S
C120 C121 1.391 . S
C120 C124 1.391 . S
C120 H162 0.948 . S
C121 C120 1.391 . S
C121 C122 1.391 . S
C122 C121 1.391 . S
C122 H178 0.947 . S
C122 C179 1.392 . S
C123 C124 1.391 . S
C123 C127 1.397 . S
C123 C179 1.419 . S
C124 C120 1.391 . S
C124 C123 1.391 . S
C124 C125 1.399 . S
C125 C124 1.399 . S
C125 C128 1.396 . S
C125 C137 1.453 . S
C125 C138 1.684 . S
H126 C150 0.948 . S
C127 C123 1.397 . S
C127 C128 1.394 . S
C127 C146 1.723 . S
C128 C125 1.396 . S
C128 C127 1.394 . S
C128 C158 1.723 1_545 S
H129 C152 0.947 . S
H130 C153 0.948 . S
H131 C159 0.982 . S
H132 C160 0.979 . S
H133 C160 0.980 . S
H134 C160 0.983 . S
H135 C159 0.979 . S
H136 C159 0.977 . S
C137 C125 1.453 . S
C137 H166 0.982 . S
C137 H167 0.979 . S
C137 H168 0.977 1_545 S
C138 C125 1.684 . S
C138 H163 0.979 . S
C138 H164 0.980 . S
C138 H165 0.983 . S
C139 C140 1.391 . S
C139 C144 1.391 . S
C139 H169 0.948 . S
C140 C139 1.391 . S
C140 C141 1.391 1_545 S
C141 C140 1.391 1_565 S
C141 C142 1.392 . S
C141 H170 0.947 . S
C142 C141 1.392 . S
C142 C143 1.419 1_565 S
C142 H171 0.948 . S
C143 C142 1.419 1_545 S
C143 C144 1.391 . S
C143 C147 1.397 . S
C144 C139 1.391 . S
C144 C143 1.391 . S
C144 C145 1.399 . S
C145 C144 1.399 . S
C145 C146 1.396 . S
C145 C148 1.453 . S
C145 C149 1.684 . S
C146 C127 1.723 . S
C146 C145 1.396 . S
C146 C147 1.394 . S
C147 C143 1.397 . S
C147 C146 1.394 . S
C147 C157 1.723 1_545 S
C148 C145 1.453 . S
C148 H172 0.982 . S
C148 H173 0.979 . S
C148 H174 0.977 . S
C149 C145 1.684 . S
C149 H175 0.979 . S
C149 H176 0.980 . S
C149 H177 0.983 . S
C150 H126 0.948 . S
C150 C151 1.391 . S
C150 C155 1.391 . S
C151 C150 1.391 . S
C151 C152 1.391 . S
C152 H129 0.947 . S
C152 C151 1.391 . S
C152 C153 1.392 . S
C153 H130 0.948 . S
C153 C152 1.392 . S
C153 C154 1.419 . S
C154 C153 1.419 . S
C154 C155 1.391 . S
C154 C158 1.397 . S
C155 C150 1.391 . S
C155 C154 1.391 . S
C155 C156 1.399 . S
C156 C155 1.399 . S
C156 C157 1.396 . S
C156 C159 1.453 . S
C156 C160 1.684 . S
C157 C147 1.723 1_565 S
C157 C156 1.396 . S
C157 C158 1.394 . S
C158 C128 1.723 1_565 S
C158 C154 1.397 . S
C158 C157 1.394 . S
C159 H131 0.982 . S
C159 H135 0.979 . S
C159 H136 0.977 . S
C159 C156 1.453 . S
C160 H132 0.979 . S
C160 H133 0.980 . S
C160 H134 0.983 . S
C160 C156 1.684 . S
H161 C179 0.948 . S
H162 C120 0.948 . S
H163 C138 0.979 . S
H164 C138 0.980 . S
H165 C138 0.983 . S
H166 C137 0.982 . S
H167 C137 0.979 . S
H168 C137 0.977 1_565 S
H169 C139 0.948 . S
H170 C141 0.947 . S
H171 C142 0.948 . S
H172 C148 0.982 . S
H173 C148 0.979 . S
H174 C148 0.977 . S
H175 C149 0.979 . S
H176 C149 0.980 . S
H177 C149 0.983 . S
H178 C122 0.947 . S
C179 C122 1.392 . S
C179 C123 1.419 . S
C179 H161 0.948 . S
C180 C181 1.391 . S
C180 C184 1.391 . S
C180 H222 0.948 . S
C181 C180 1.391 . S
C181 C182 1.391 . S
C182 C181 1.391 . S
C182 H238 0.947 . S
C182 C239 1.392 . S
C183 C184 1.391 . S
C183 C187 1.397 . S
C183 C239 1.419 . S
C184 C180 1.391 . S
C184 C183 1.391 . S
C184 C185 1.399 . S
C185 C184 1.399 . S
C185 C188 1.396 . S
C185 C197 1.453 . S
C185 C198 1.684 . S
H186 C210 0.948 . S
C187 C183 1.397 . S
C187 C188 1.394 . S
C187 C206 1.723 . S
C188 C185 1.396 . S
C188 C187 1.394 . S
C188 C218 1.723 . S
H189 C212 0.947 . S
H190 C213 0.948 . S
H191 C219 0.982 . S
H192 C220 0.979 . S
H193 C220 0.980 . S
H194 C220 0.983 . S
H195 C219 0.979 . S
H196 C219 0.977 . S
C197 C185 1.453 . S
C197 H226 0.982 . S
C197 H227 0.979 . S
C197 H228 0.977 . S
C198 C185 1.684 . S
C198 H223 0.979 . S
C198 H224 0.980 . S
C198 H225 0.983 . S
C199 C200 1.391 . S
C199 C204 1.391 . S
C199 H229 0.948 . S
C200 C199 1.391 . S
C200 C201 1.391 . S
C201 C200 1.391 . S
C201 C202 1.392 . S
C201 H230 0.947 . S
C202 C201 1.392 . S
C202 C203 1.419 . S
C202 H231 0.948 . S
C203 C202 1.419 . S
C203 C204 1.391 . S
C203 C207 1.397 . S
C204 C199 1.391 . S
C204 C203 1.391 . S
C204 C205 1.399 . S
C205 C204 1.399 . S
C205 C206 1.396 . S
C205 C208 1.453 . S
C205 C209 1.684 . S
C206 C187 1.723 . S
C206 C205 1.396 . S
C206 C207 1.394 . S
C207 C203 1.397 . S
C207 C206 1.394 . S
C207 C217 1.723 . S
C208 C205 1.453 . S
C208 H232 0.982 . S
C208 H233 0.979 . S
C208 H234 0.977 . S
C209 C205 1.684 . S
C209 H235 0.979 . S
C209 H236 0.980 . S
C209 H237 0.983 . S
C210 H186 0.948 . S
C210 C211 1.391 . S
C210 C215 1.391 . S
C211 C210 1.391 . S
C211 C212 1.391 . S
C212 H189 0.947 . S
C212 C211 1.391 . S
C212 C213 1.392 . S
C213 H190 0.948 . S
C213 C212 1.392 . S
C213 C214 1.419 . S
C214 C213 1.419 . S
C214 C215 1.391 . S
C214 C218 1.397 . S
C215 C210 1.391 . S
C215 C214 1.391 . S
C215 C216 1.399 . S
C216 C215 1.399 . S
C216 C217 1.396 . S
C216 C219 1.453 . S
C216 C220 1.684 . S
C217 C207 1.723 . S
C217 C216 1.396 . S
C217 C218 1.394 . S
C218 C188 1.723 . S
C218 C214 1.397 . S
C218 C217 1.394 . S
C219 H191 0.982 . S
C219 H195 0.979 . S
C219 H196 0.977 . S
C219 C216 1.453 . S
C220 H192 0.979 . S
C220 H193 0.980 . S
C220 H194 0.983 . S
C220 C216 1.684 . S
H221 C239 0.948 . S
H222 C180 0.948 . S
H223 C198 0.979 . S
H224 C198 0.980 . S
H225 C198 0.983 . S
H226 C197 0.982 . S
H227 C197 0.979 . S
H228 C197 0.977 . S
H229 C199 0.948 . S
H230 C201 0.947 . S
H231 C202 0.948 . S
H232 C208 0.982 . S
H233 C208 0.979 . S
H234 C208 0.977 . S
H235 C209 0.979 . S
H236 C209 0.980 . S
H237 C209 0.983 . S
H238 C182 0.947 . S
C239 C182 1.392 . S
C239 C183 1.419 . S
C239 H221 0.948 . S
C240 C241 1.391 . S
C240 C244 1.391 . S
C240 H282 0.948 . S
C241 C240 1.391 . S
C241 C242 1.391 . S
C242 C241 1.391 . S
C242 H298 0.947 . S
C242 C299 1.392 . S
C243 C244 1.391 . S
C243 C247 1.397 . S
C243 C299 1.419 . S
C244 C240 1.391 . S
C244 C243 1.391 . S
C244 C245 1.399 . S
C245 C244 1.399 . S
C245 C248 1.396 . S
C245 C257 1.453 . S
C245 C258 1.684 . S
H246 C270 0.948 . S
C247 C243 1.397 . S
C247 C248 1.394 . S
C247 C266 1.723 . S
C248 C245 1.396 . S
C248 C247 1.394 . S
C248 C278 1.723 1_455 S
H249 C272 0.947 . S
H250 C273 0.948 . S
H251 C279 0.982 . S
H252 C280 0.979 . S
H253 C280 0.980 . S
H254 C280 0.983 . S
H255 C279 0.979 . S
H256 C279 0.977 . S
C257 C245 1.453 . S
C257 H286 0.982 . S
C257 H287 0.979 . S
C257 H288 0.977 1_455 S
C258 C245 1.684 . S
C258 H283 0.979 . S
C258 H284 0.980 . S
C258 H285 0.983 . S
C259 C260 1.391 . S
C259 C264 1.391 . S
C259 H289 0.948 . S
C260 C259 1.391 . S
C260 C261 1.391 1_455 S
C261 C260 1.391 1_655 S
C261 C262 1.392 . S
C261 H290 0.947 . S
C262 C261 1.392 . S
C262 C263 1.419 1_655 S
C262 H291 0.948 . S
C263 C262 1.419 1_455 S
C263 C264 1.391 . S
C263 C267 1.397 . S
C264 C259 1.391 . S
C264 C263 1.391 . S
C264 C265 1.399 . S
C265 C264 1.399 . S
C265 C266 1.396 . S
C265 C268 1.453 . S
C265 C269 1.684 . S
C266 C247 1.723 . S
C266 C265 1.396 . S
C266 C267 1.394 . S
C267 C263 1.397 . S
C267 C266 1.394 . S
C267 C277 1.723 1_455 S
C268 C265 1.453 . S
C268 H292 0.982 . S
C268 H293 0.979 . S
C268 H294 0.977 . S
C269 C265 1.684 . S
C269 H295 0.979 . S
C269 H296 0.980 . S
C269 H297 0.983 . S
C270 H246 0.948 . S
C270 C271 1.391 . S
C270 C275 1.391 . S
C271 C270 1.391 . S
C271 C272 1.391 . S
C272 H249 0.947 . S
C272 C271 1.391 . S
C272 C273 1.392 . S
C273 H250 0.948 . S
C273 C272 1.392 . S
C273 C274 1.419 . S
C274 C273 1.419 . S
C274 C275 1.391 . S
C274 C278 1.397 . S
C275 C270 1.391 . S
C275 C274 1.391 . S
C275 C276 1.399 . S
C276 C275 1.399 . S
C276 C277 1.396 . S
C276 C279 1.453 . S
C276 C280 1.684 . S
C277 C267 1.723 1_655 S
C277 C276 1.396 . S
C277 C278 1.394 . S
C278 C248 1.723 1_655 S
C278 C274 1.397 . S
C278 C277 1.394 . S
C279 H251 0.982 . S
C279 H255 0.979 . S
C279 H256 0.977 . S
C279 C276 1.453 . S
C280 H252 0.979 . S
C280 H253 0.980 . S
C280 H254 0.983 . S
C280 C276 1.684 . S
H281 C299 0.948 . S
H282 C240 0.948 . S
H283 C258 0.979 . S
H284 C258 0.980 . S
H285 C258 0.983 . S
H286 C257 0.982 . S
H287 C257 0.979 . S
H288 C257 0.977 1_655 S
H289 C259 0.948 . S
H290 C261 0.947 . S
H291 C262 0.948 . S
H292 C268 0.982 . S
H293 C268 0.979 . S
H294 C268 0.977 . S
H295 C269 0.979 . S
H296 C269 0.980 . S
H297 C269 0.983 . S
H298 C242 0.947 . S
C299 C242 1.392 . S
C299 C243 1.419 . S
C299 H281 0.948 . S
C300 C301 1.391 . S
C300 C304 1.391 . S
C300 H342 0.948 . S
C301 C300 1.391 . S
C301 C302 1.391 . S
C302 C301 1.391 . S
C302 H358 0.947 . S
C302 C359 1.392 . S
C303 C304 1.391 . S
C303 C307 1.397 . S
C303 C359 1.419 . S
C304 C300 1.391 . S
C304 C303 1.391 . S
C304 C305 1.399 . S
C305 C304 1.399 . S
C305 C308 1.396 . S
C305 C317 1.453 1_655 S
C305 C318 1.684 . S
H306 C330 0.948 . S
C307 C303 1.397 . S
C307 C308 1.394 . S
C307 C326 1.723 . S
C308 C305 1.396 . S
C308 C307 1.394 . S
C308 C338 1.723 1_655 S
H309 C332 0.947 . S
H310 C333 0.948 . S
H311 C339 0.982 . S
H312 C340 0.979 . S
H313 C340 0.980 . S
H314 C340 0.983 . S
H315 C339 0.979 . S
H316 C339 0.977 . S
C317 C305 1.453 1_455 S
C317 H346 0.982 . S
C317 H347 0.979 1_455 S
C317 H348 0.977 . S
C318 C305 1.684 . S
C318 H343 0.979 . S
C318 H344 0.992 . S
C318 H345 0.983 . S
C319 C320 1.391 1_655 S
C319 C324 1.391 . S
C319 H349 0.948 . S
C320 C319 1.391 1_455 S
C320 C321 1.391 . S
C321 C320 1.391 . S
C321 C322 1.392 . S
C321 H350 0.947 . S
C322 C321 1.392 . S
C322 C323 1.419 . S
C322 H351 0.948 . S
C323 C322 1.419 . S
C323 C324 1.391 1_455 S
C323 C327 1.397 . S
C324 C319 1.391 . S
C324 C323 1.391 1_655 S
C324 C325 1.399 . S
C325 C324 1.399 . S
C325 C326 1.396 . S
C325 C328 1.453 . S
C325 C329 1.684 . S
C326 C307 1.723 . S
C326 C325 1.396 . S
C326 C327 1.394 1_655 S
C327 C323 1.397 . S
C327 C326 1.394 1_455 S
C327 C337 1.723 . S
C328 C325 1.453 . S
C328 H352 0.982 . S
C328 H353 0.979 . S
C328 H354 0.977 . S
C329 C325 1.684 . S
C329 H355 0.979 . S
C329 H356 0.980 . S
C329 H357 0.983 . S
C330 H306 0.948 . S
C330 C331 1.391 . S
C330 C335 1.391 . S
C331 C330 1.391 . S
C331 C332 1.391 . S
C332 H309 0.947 . S
C332 C331 1.391 . S
C332 C333 1.392 . S
C333 H310 0.948 . S
C333 C332 1.392 . S
C333 C334 1.419 . S
C334 C333 1.419 . S
C334 C335 1.391 . S
C334 C338 1.397 . S
C335 C330 1.391 . S
C335 C334 1.391 . S
C335 C336 1.399 . S
C336 C335 1.399 . S
C336 C337 1.396 . S
C336 C339 1.453 . S
C336 C340 1.684 . S
C337 C327 1.723 . S
C337 C336 1.396 . S
C337 C338 1.394 . S
C338 C308 1.723 1_455 S
C338 C334 1.397 . S
C338 C337 1.394 . S
C339 H311 0.982 . S
C339 H315 0.979 . S
C339 H316 0.977 . S
C339 C336 1.453 . S
C340 H312 0.979 . S
C340 H313 0.980 . S
C340 H314 0.983 . S
C340 C336 1.684 . S
H341 C359 0.948 . S
H342 C300 0.948 . S
H343 C318 0.979 . S
H344 C318 0.992 . S
H345 C318 0.983 . S
H346 C317 0.982 . S
H347 C317 0.979 1_655 S
H348 C317 0.977 . S
H349 C319 0.948 . S
H350 C321 0.947 . S
H351 C322 0.948 . S
H352 C328 0.982 . S
H353 C328 0.979 . S
H354 C328 0.977 . S
H355 C329 0.979 . S
H356 C329 0.980 . S
H357 C329 0.983 . S
H358 C302 0.947 . S
C359 C302 1.392 . S
C359 C303 1.419 . S
C359 H341 0.948 . S
C360 C361 1.391 . S
C360 C364 1.391 . S
C360 H402 0.948 . S
C361 C360 1.391 . S
C361 C362 1.391 . S
C362 C361 1.391 . S
C362 H418 0.947 . S
C362 C419 1.392 . S
C363 C364 1.391 . S
C363 C367 1.397 . S
C363 C419 1.419 . S
C364 C360 1.391 . S
C364 C363 1.391 . S
C364 C365 1.399 . S
C365 C364 1.399 . S
C365 C368 1.396 . S
C365 C377 1.453 . S
C365 C378 1.684 . S
H366 C390 0.948 . S
C367 C363 1.397 . S
C367 C368 1.394 . S
C367 C386 1.723 . S
C368 C365 1.396 . S
C368 C367 1.394 . S
C368 C398 1.723 1_565 S
H369 C392 0.947 . S
H370 C393 0.948 . S
H371 C399 0.982 . S
H372 C400 0.979 . S
H373 C400 0.980 . S
H374 C400 0.983 . S
H375 C399 0.979 . S
H376 C399 0.977 . S
C377 C365 1.453 . S
C377 H406 0.982 1_565 S
C377 H407 0.979 . S
C377 H408 0.977 1_565 S
C378 C365 1.684 . S
C378 H403 0.979 . S
C378 H404 0.980 . S
C378 H405 0.983 . S
C379 C380 1.391 1_565 S
C379 C384 1.391 . S
C379 H409 0.948 . S
C380 C379 1.391 1_545 S
C380 C381 1.391 . S
C381 C380 1.391 . S
C381 C382 1.392 . S
C381 H410 0.947 . S
C382 C381 1.392 . S
C382 C383 1.419 . S
C382 H411 0.948 . S
C383 C382 1.419 . S
C383 C384 1.391 1_545 S
C383 C387 1.397 . S
C384 C379 1.391 . S
C384 C383 1.391 1_565 S
C384 C385 1.399 . S
C385 C384 1.399 . S
C385 C386 1.396 . S
C385 C388 1.453 . S
C385 C389 1.684 . S
C386 C367 1.723 . S
C386 C385 1.396 . S
C386 C387 1.394 1_565 S
C387 C383 1.397 . S
C387 C386 1.394 1_545 S
C387 C397 1.723 . S
C388 C385 1.453 . S
C388 H412 0.982 . S
C388 H413 0.979 . S
C388 H414 0.977 . S
C389 C385 1.684 . S
C389 H415 0.979 . S
C389 H416 0.980 . S
C389 H417 0.983 . S
C390 H366 0.948 . S
C390 C391 1.391 . S
C390 C395 1.391 . S
C391 C390 1.391 . S
C391 C392 1.391 . S
C392 H369 0.947 . S
C392 C391 1.391 . S
C392 C393 1.392 . S
C393 H370 0.948 . S
C393 C392 1.392 . S
C393 C394 1.419 . S
C394 C393 1.419 . S
C394 C395 1.391 . S
C394 C398 1.397 . S
C395 C390 1.391 . S
C395 C394 1.391 . S
C395 C396 1.399 . S
C396 C395 1.399 . S
C396 C397 1.396 . S
C396 C399 1.453 . S
C396 C400 1.684 . S
C397 C387 1.723 . S
C397 C396 1.396 . S
C397 C398 1.394 . S
C398 C368 1.723 1_545 S
C398 C394 1.397 . S
C398 C397 1.394 . S
C399 H371 0.982 . S
C399 H375 0.979 . S
C399 H376 0.977 . S
C399 C396 1.453 . S
C400 H372 0.979 . S
C400 H373 0.980 . S
C400 H374 0.983 . S
C400 C396 1.684 . S
H401 C419 0.948 . S
H402 C360 0.948 . S
H403 C378 0.979 . S
H404 C378 0.980 . S
H405 C378 0.983 . S
H406 C377 0.982 1_545 S
H407 C377 0.979 . S
H408 C377 0.977 1_545 S
H409 C379 0.948 . S
H410 C381 0.947 . S
H411 C382 0.948 . S
H412 C388 0.982 . S
H413 C388 0.979 . S
H414 C388 0.977 . S
H415 C389 0.979 . S
H416 C389 0.980 . S
H417 C389 0.983 . S
H418 C362 0.947 . S
C419 C362 1.392 . S
C419 C363 1.419 . S
C419 H401 0.948 . S
C420 C421 1.391 . S
C420 C424 1.391 . S
C420 H462 0.948 . S
C421 C420 1.391 . S
C421 C422 1.391 . S
C422 C421 1.391 . S
C422 H478 0.947 . S
C422 C479 1.392 . S
C423 C424 1.391 . S
C423 C427 1.397 . S
C423 C479 1.419 . S
C424 C420 1.391 . S
C424 C423 1.391 . S
C424 C425 1.399 . S
C425 C424 1.399 . S
C425 C428 1.396 . S
C425 C437 1.453 . S
C425 C438 1.684 . S
H426 C450 0.948 . S
C427 C423 1.397 . S
C427 C428 1.394 . S
C427 C446 1.723 . S
C428 C425 1.396 . S
C428 C427 1.394 . S
C428 C458 1.723 . S
H429 C452 0.947 . S
H430 C453 0.948 . S
H431 C459 0.982 . S
H432 C460 0.979 . S
H433 C460 0.980 . S
H434 C460 0.983 . S
H435 C459 0.979 . S
H436 C459 0.977 . S
C437 C425 1.453 . S
C437 H466 0.982 . S
C437 H467 0.979 . S
C437 H468 0.977 . S
C438 C425 1.684 . S
C438 H463 0.979 . S
C438 H464 0.980 . S
C438 H465 0.983 . S
C439 C440 1.391 . S
C439 C444 1.391 . S
C439 H469 0.948 . S
C440 C439 1.391 . S
C440 C441 1.391 . S
C441 C440 1.391 . S
C441 C442 1.392 . S
C441 H470 0.947 . S
C442 C441 1.392 . S
C442 C443 1.419 . S
C442 H471 0.948 . S
C443 C442 1.419 . S
C443 C444 1.391 . S
C443 C447 1.397 . S
C444 C439 1.391 . S
C444 C443 1.391 . S
C444 C445 1.399 . S
C445 C444 1.399 . S
C445 C446 1.396 . S
C445 C448 1.453 . S
C445 C449 1.684 . S
C446 C427 1.723 . S
C446 C445 1.396 . S
C446 C447 1.394 . S
C447 C443 1.397 . S
C447 C446 1.394 . S
C447 C457 1.723 . S
C448 C445 1.453 . S
C448 H472 0.982 . S
C448 H473 0.979 . S
C448 H474 0.977 . S
C449 C445 1.684 . S
C449 H475 0.979 . S
C449 H476 0.980 . S
C449 H477 0.983 . S
C450 H426 0.948 . S
C450 C451 1.391 . S
C450 C455 1.391 . S
C451 C450 1.391 . S
C451 C452 1.391 . S
C452 H429 0.947 . S
C452 C451 1.391 . S
C452 C453 1.392 . S
C453 H430 0.948 . S
C453 C452 1.392 . S
C453 C454 1.419 . S
C454 C453 1.419 . S
C454 C455 1.391 . S
C454 C458 1.397 . S
C455 C450 1.391 . S
C455 C454 1.391 . S
C455 C456 1.399 . S
C456 C455 1.399 . S
C456 C457 1.396 . S
C456 C459 1.453 . S
C456 C460 1.684 . S
C457 C447 1.723 . S
C457 C456 1.396 . S
C457 C458 1.394 . S
C458 C428 1.723 . S
C458 C454 1.397 . S
C458 C457 1.394 . S
C459 H431 0.982 . S
C459 H435 0.979 . S
C459 H436 0.977 . S
C459 C456 1.453 . S
C460 H432 0.979 . S
C460 H433 0.980 . S
C460 H434 0.983 . S
C460 C456 1.684 . S
H461 C479 0.948 . S
H462 C420 0.948 . S
H463 C438 0.979 . S
H464 C438 0.980 . S
H465 C438 0.983 . S
H466 C437 0.982 . S
H467 C437 0.979 . S
H468 C437 0.977 . S
H469 C439 0.948 . S
H470 C441 0.947 . S
H471 C442 0.948 . S
H472 C448 0.982 . S
H473 C448 0.979 . S
H474 C448 0.977 . S
H475 C449 0.979 . S
H476 C449 0.980 . S
H477 C449 0.983 . S
H478 C422 0.947 . S
C479 C422 1.392 . S
C479 C423 1.419 . S
C479 H461 0.948 . S
C480 C481 1.349 . S
C480 C482 1.327 . S
C480 H505 0.950 . S
C481 C480 1.349 . S
C481 C497 1.349 . S
C482 C480 1.327 . S
C482 C501 1.429 . S
C482 H506 0.950 . S
C483 C500 1.574 . S
C483 C502 1.368 . S
C483 H507 0.949 . S
H484 C488 0.949 . S
C485 C486 1.349 . S
C485 C487 1.327 . S
C485 H508 0.950 . S
C486 C485 1.349 . S
C486 C498 1.349 . S
C487 C485 1.327 . S
C487 C503 1.429 . S
C487 H509 0.950 . S
C488 H484 0.949 . S
C488 C496 1.574 . S
C488 C504 1.368 . S
H489 C497 0.950 . S
H490 C495 0.950 . S
H491 C496 0.949 . S
H492 C498 0.950 . S
H493 C499 0.950 . S
H494 C500 0.949 . S
C495 H490 0.950 . S
C495 C497 1.327 . S
C495 C501 1.429 . S
C496 C488 1.574 . S
C496 H491 0.949 . S
C496 C502 1.368 . S
C497 C481 1.349 . S
C497 H489 0.950 . S
C497 C495 1.327 . S
C498 C486 1.349 . S
C498 H492 0.950 . S
C498 C499 1.327 . S
C499 H493 0.950 . S
C499 C498 1.327 . S
C499 C503 1.429 . S
C500 C483 1.574 . S
C500 H494 0.949 . S
C500 C504 1.368 . S
C501 C482 1.429 . S
C501 C495 1.429 . S
C501 C502 1.523 . S
C502 C483 1.368 . S
C502 C496 1.368 . S
C502 C501 1.523 . S
C503 C487 1.429 . S
C503 C499 1.429 . S
C503 C504 1.523 . S
C504 C488 1.368 . S
C504 C500 1.368 . S
C504 C503 1.523 . S
H505 C480 0.950 . S
H506 C482 0.950 . S
H507 C483 0.949 . S
H508 C485 0.950 . S
H509 C487 0.950 . S
C510 C511 1.349 . S
C510 C512 1.327 . S
C510 H535 0.950 . S
C511 C510 1.349 . S
C511 C527 1.349 . S
C512 C510 1.327 . S
C512 C531 1.429 . S
C512 H536 0.950 . S
C513 C530 1.574 . S
C513 C532 1.368 . S
C513 H537 0.949 . S
H514 C518 0.949 . S
C515 C516 1.349 . S
C515 C517 1.327 . S
C515 H538 0.950 . S
C516 C515 1.349 . S
C516 C528 1.349 . S
C517 C515 1.327 . S
C517 C533 1.429 . S
C517 H539 0.950 . S
C518 H514 0.949 . S
C518 C526 1.574 . S
C518 C534 1.368 . S
H519 C527 0.950 . S
H520 C525 0.950 . S
H521 C526 0.949 . S
H522 C528 0.950 . S
H523 C529 0.950 . S
H524 C530 0.949 . S
C525 H520 0.950 . S
C525 C527 1.327 . S
C525 C531 1.429 . S
C526 C518 1.574 . S
C526 H521 0.949 . S
C526 C532 1.368 . S
C527 C511 1.349 . S
C527 H519 0.950 . S
C527 C525 1.327 . S
C528 C516 1.349 . S
C528 H522 0.950 . S
C528 C529 1.327 . S
C529 H523 0.950 . S
C529 C528 1.327 . S
C529 C533 1.429 . S
C530 C513 1.574 . S
C530 H524 0.949 . S
C530 C534 1.368 . S
C531 C512 1.429 . S
C531 C525 1.429 . S
C531 C532 1.523 . S
C532 C513 1.368 . S
C532 C526 1.368 . S
C532 C531 1.523 . S
C533 C517 1.429 . S
C533 C529 1.429 . S
C533 C534 1.523 . S
C534 C518 1.368 . S
C534 C530 1.368 . S
C534 C533 1.523 . S
H535 C510 0.950 . S
H536 C512 0.950 . S
H537 C513 0.949 . S
H538 C515 0.950 . S
H539 C517 0.950 . S
C540 C541 1.349 . S
C540 C542 1.327 . S
C540 H565 0.950 . S
C541 C540 1.349 . S
C541 C557 1.349 . S
C542 C540 1.327 . S
C542 C561 1.429 . S
C542 H566 0.950 . S
C543 C560 1.574 . S
C543 C562 1.368 . S
C543 H567 0.949 . S
H544 C548 0.949 . S
C545 C546 1.349 . S
C545 C547 1.327 . S
C545 H568 0.950 . S
C546 C545 1.349 . S
C546 C558 1.349 . S
C547 C545 1.327 . S
C547 C563 1.429 . S
C547 H569 0.950 . S
C548 H544 0.949 . S
C548 C556 1.574 . S
C548 C564 1.368 . S
H549 C557 0.950 . S
H550 C555 0.950 . S
H551 C556 0.949 . S
H552 C558 0.950 . S
H553 C559 0.950 . S
H554 C560 0.949 . S
C555 H550 0.950 . S
C555 C557 1.327 . S
C555 C561 1.429 . S
C556 C548 1.574 . S
C556 H551 0.949 . S
C556 C562 1.368 . S
C557 C541 1.349 . S
C557 H549 0.950 . S
C557 C555 1.327 . S
C558 C546 1.349 . S
C558 H552 0.950 . S
C558 C559 1.327 . S
C559 H553 0.950 . S
C559 C558 1.327 . S
C559 C563 1.429 . S
C560 C543 1.574 . S
C560 H554 0.949 . S
C560 C564 1.368 . S
C561 C542 1.429 . S
C561 C555 1.429 . S
C561 C562 1.523 . S
C562 C543 1.368 . S
C562 C556 1.368 . S
C562 C561 1.523 . S
C563 C547 1.429 . S
C563 C559 1.429 . S
C563 C564 1.523 . S
C564 C548 1.368 . S
C564 C560 1.368 . S
C564 C563 1.523 . S
H565 C540 0.950 . S
H566 C542 0.950 . S
H567 C543 0.949 . S
H568 C545 0.950 . S
H569 C547 0.950 . S
C570 C571 1.349 . S
C570 C572 1.327 . S
C570 H595 0.950 . S
C571 C570 1.349 . S
C571 C587 1.349 . S
C572 C570 1.327 . S
C572 C591 1.429 . S
C572 H596 0.950 . S
C573 C590 1.574 . S
C573 C592 1.368 . S
C573 H597 0.949 . S
H574 C578 0.949 . S
C575 C576 1.349 . S
C575 C577 1.327 . S
C575 H598 0.950 . S
C576 C575 1.349 . S
C576 C588 1.349 . S
C577 C575 1.327 . S
C577 C593 1.429 . S
C577 H599 0.950 . S
C578 H574 0.949 . S
C578 C586 1.574 . S
C578 C594 1.368 . S
H579 C587 0.950 . S
H580 C585 0.950 . S
H581 C586 0.949 . S
H582 C588 0.950 . S
H583 C589 0.950 . S
H584 C590 0.949 . S
C585 H580 0.950 . S
C585 C587 1.327 . S
C585 C591 1.429 . S
C586 C578 1.574 . S
C586 H581 0.949 . S
C586 C592 1.368 . S
C587 C571 1.349 . S
C587 H579 0.950 . S
C587 C585 1.327 . S
C588 C576 1.349 . S
C588 H582 0.950 . S
C588 C589 1.327 . S
C589 H583 0.950 . S
C589 C588 1.327 . S
C589 C593 1.429 . S
C590 C573 1.574 . S
C590 H584 0.949 . S
C590 C594 1.368 . S
C591 C572 1.429 . S
C591 C585 1.429 . S
C591 C592 1.523 . S
C592 C573 1.368 . S
C592 C586 1.368 . S
C592 C591 1.523 . S
C593 C577 1.429 . S
C593 C589 1.429 . S
C593 C594 1.523 . S
C594 C578 1.368 . S
C594 C590 1.368 . S
C594 C593 1.523 . S
H595 C570 0.950 . S
H596 C572 0.950 . S
H597 C573 0.949 . S
H598 C575 0.950 . S
H599 C577 0.950 . S
C600 C601 1.349 . S
C600 C602 1.327 . S
C600 H625 0.950 . S
C601 C600 1.349 . S
C601 C617 1.349 . S
C602 C600 1.327 . S
C602 C621 1.429 . S
C602 H626 0.950 . S
C603 C620 1.574 . S
C603 C622 1.368 . S
C603 H627 0.949 . S
H604 C608 0.949 . S
C605 C606 1.349 . S
C605 C607 1.327 . S
C605 H628 0.950 . S
C606 C605 1.349 . S
C606 C618 1.349 . S
C607 C605 1.327 . S
C607 C623 1.429 . S
C607 H629 0.950 . S
C608 H604 0.949 . S
C608 C616 1.574 . S
C608 C624 1.368 . S
H609 C617 0.950 . S
H610 C615 0.950 . S
H611 C616 0.949 . S
H612 C618 0.950 . S
H613 C619 0.950 . S
H614 C620 0.949 . S
C615 H610 0.950 . S
C615 C617 1.327 . S
C615 C621 1.429 . S
C616 C608 1.574 . S
C616 H611 0.949 . S
C616 C622 1.368 . S
C617 C601 1.349 . S
C617 H609 0.950 . S
C617 C615 1.327 . S
C618 C606 1.349 . S
C618 H612 0.950 . S
C618 C619 1.327 . S
C619 H613 0.950 . S
C619 C618 1.327 . S
C619 C623 1.429 . S
C620 C603 1.574 . S
C620 H614 0.949 . S
C620 C624 1.368 . S
C621 C602 1.429 . S
C621 C615 1.429 . S
C621 C622 1.523 . S
C622 C603 1.368 . S
C622 C616 1.368 . S
C622 C621 1.523 . S
C623 C607 1.429 . S
C623 C619 1.429 . S
C623 C624 1.523 . S
C624 C608 1.368 . S
C624 C620 1.368 . S
C624 C623 1.523 . S
H625 C600 0.950 . S
H626 C602 0.950 . S
H627 C603 0.949 . S
H628 C605 0.950 . S
H629 C607 0.950 . S
C630 C631 1.349 . S
C630 C632 1.327 . S
C630 H655 0.950 . S
C631 C630 1.349 . S
C631 C647 1.349 . S
C632 C630 1.327 . S
C632 C651 1.429 . S
C632 H656 0.950 . S
C633 C650 1.574 . S
C633 C652 1.368 . S
C633 H657 0.949 . S
H634 C638 0.949 . S
C635 C636 1.349 . S
C635 C637 1.327 . S
C635 H658 0.950 . S
C636 C635 1.349 . S
C636 C648 1.349 . S
C637 C635 1.327 . S
C637 C653 1.429 . S
C637 H659 0.950 . S
C638 H634 0.949 . S
C638 C646 1.574 . S
C638 C654 1.368 . S
H639 C647 0.950 . S
H640 C645 0.950 . S
H641 C646 0.949 . S
H642 C648 0.950 . S
H643 C649 0.950 . S
H644 C650 0.949 . S
C645 H640 0.950 . S
C645 C647 1.327 . S
C645 C651 1.429 . S
C646 C638 1.574 . S
C646 H641 0.949 . S
C646 C652 1.368 . S
C647 C631 1.349 . S
C647 H639 0.950 . S
C647 C645 1.327 . S
C648 C636 1.349 . S
C648 H642 0.950 . S
C648 C649 1.327 . S
C649 H643 0.950 . S
C649 C648 1.327 . S
C649 C653 1.429 . S
C650 C633 1.574 . S
C650 H644 0.949 . S
C650 C654 1.368 . S
C651 C632 1.429 . S
C651 C645 1.429 . S
C651 C652 1.523 . S
C652 C633 1.368 . S
C652 C646 1.368 . S
C652 C651 1.523 . S
C653 C637 1.429 . S
C653 C649 1.429 . S
C653 C654 1.523 . S
C654 C638 1.368 . S
C654 C650 1.368 . S
C654 C653 1.523 . S
H655 C630 0.950 . S
H656 C632 0.950 . S
H657 C633 0.949 . S
H658 C635 0.950 . S
H659 C637 0.950 . S
C660 C661 1.349 . S
C660 C662 1.327 . S
C660 H685 0.950 . S
C661 C660 1.349 . S
C661 C677 1.349 . S
C662 C660 1.327 . S
C662 C681 1.429 . S
C662 H686 0.950 . S
C663 C680 1.574 . S
C663 C682 1.368 . S
C663 H687 0.949 . S
H664 C668 0.949 . S
C665 C666 1.349 . S
C665 C667 1.327 . S
C665 H688 0.950 . S
C666 C665 1.349 . S
C666 C678 1.349 . S
C667 C665 1.327 . S
C667 C683 1.429 . S
C667 H689 0.950 . S
C668 H664 0.949 . S
C668 C676 1.574 . S
C668 C684 1.368 . S
H669 C677 0.950 . S
H670 C675 0.950 . S
H671 C676 0.949 . S
H672 C678 0.950 . S
H673 C679 0.950 . S
H674 C680 0.949 . S
C675 H670 0.950 . S
C675 C677 1.327 . S
C675 C681 1.429 . S
C676 C668 1.574 . S
C676 H671 0.949 . S
C676 C682 1.368 . S
C677 C661 1.349 . S
C677 H669 0.950 . S
C677 C675 1.327 . S
C678 C666 1.349 . S
C678 H672 0.950 . S
C678 C679 1.327 . S
C679 H673 0.950 . S
C679 C678 1.327 . S
C679 C683 1.429 . S
C680 C663 1.574 . S
C680 H674 0.949 . S
C680 C684 1.368 . S
C681 C662 1.429 . S
C681 C675 1.429 . S
C681 C682 1.523 . S
C682 C663 1.368 . S
C682 C676 1.368 . S
C682 C681 1.523 . S
C683 C667 1.429 . S
C683 C679 1.429 . S
C683 C684 1.523 . S
C684 C668 1.368 . S
C684 C680 1.368 . S
C684 C683 1.523 . S
H685 C660 0.950 . S
H686 C662 0.950 . S
H687 C663 0.949 . S
H688 C665 0.950 . S
H689 C667 0.950 . S
C690 C691 1.349 . S
C690 C692 1.327 . S
C690 H715 0.950 . S
C691 C690 1.349 . S
C691 C707 1.349 . S
C692 C690 1.327 . S
C692 C711 1.429 . S
C692 H716 0.950 . S
C693 C710 1.574 . S
C693 C712 1.368 . S
C693 H717 0.949 . S
H694 C698 0.949 . S
C695 C696 1.349 . S
C695 C697 1.327 . S
C695 H718 0.950 . S
C696 C695 1.349 . S
C696 C708 1.349 . S
C697 C695 1.327 . S
C697 C713 1.429 . S
C697 H719 0.950 . S
C698 H694 0.949 . S
C698 C706 1.574 . S
C698 C714 1.368 . S
H699 C707 0.950 . S
H700 C705 0.950 . S
H701 C706 0.949 . S
H702 C708 0.950 . S
H703 C709 0.950 . S
H704 C710 0.949 . S
C705 H700 0.950 . S
C705 C707 1.327 . S
C705 C711 1.429 . S
C706 C698 1.574 . S
C706 H701 0.949 . S
C706 C712 1.368 . S
C707 C691 1.349 . S
C707 H699 0.950 . S
C707 C705 1.327 . S
C708 C696 1.349 . S
C708 H702 0.950 . S
C708 C709 1.327 . S
C709 H703 0.950 . S
C709 C708 1.327 . S
C709 C713 1.429 . S
C710 C693 1.574 . S
C710 H704 0.949 . S
C710 C714 1.368 . S
C711 C692 1.429 . S
C711 C705 1.429 . S
C711 C712 1.523 . S
C712 C693 1.368 . S
C712 C706 1.368 . S
C712 C711 1.523 . S
C713 C697 1.429 . S
C713 C709 1.429 . S
C713 C714 1.523 . S
C714 C698 1.368 . S
C714 C710 1.368 . S
C714 C713 1.523 . S
H715 C690 0.950 . S
H716 C692 0.950 . S
H717 C693 0.949 . S
H718 C695 0.950 . S
H719 C697 0.950 . S
C720 C721 1.349 . S
C720 C722 1.327 . S
C720 H745 0.950 . S
C721 C720 1.349 . S
C721 C737 1.349 . S
C722 C720 1.327 . S
C722 C741 1.429 . S
C722 H746 0.950 . S
C723 C740 1.574 . S
C723 C742 1.368 . S
C723 H747 0.949 . S
H724 C728 0.949 . S
C725 C726 1.349 . S
C725 C727 1.327 . S
C725 H748 0.950 . S
C726 C725 1.349 . S
C726 C738 1.349 . S
C727 C725 1.327 . S
C727 C743 1.429 . S
C727 H749 0.950 . S
C728 H724 0.949 . S
C728 C736 1.574 . S
C728 C744 1.368 . S
H729 C737 0.950 . S
H730 C735 0.950 . S
H731 C736 0.949 . S
H732 C738 0.950 . S
H733 C739 0.950 . S
H734 C740 0.949 . S
C735 H730 0.950 . S
C735 C737 1.327 . S
C735 C741 1.429 . S
C736 C728 1.574 . S
C736 H731 0.949 . S
C736 C742 1.368 . S
C737 C721 1.349 . S
C737 H729 0.950 . S
C737 C735 1.327 . S
C738 C726 1.349 . S
C738 H732 0.950 . S
C738 C739 1.327 . S
C739 H733 0.950 . S
C739 C738 1.327 . S
C739 C743 1.429 . S
C740 C723 1.574 . S
C740 H734 0.949 . S
C740 C744 1.368 . S
C741 C722 1.429 . S
C741 C735 1.429 . S
C741 C742 1.523 . S
C742 C723 1.368 . S
C742 C736 1.368 . S
C742 C741 1.523 . S
C743 C727 1.429 . S
C743 C739 1.429 . S
C743 C744 1.523 . S
C744 C728 1.368 . S
C744 C740 1.368 . S
C744 C743 1.523 . S
H745 C720 0.950 . S
H746 C722 0.950 . S
H747 C723 0.949 . S
H748 C725 0.950 . S
H749 C727 0.950 . S
C750 C751 1.349 . S
C750 C752 1.327 . S
C750 H775 0.950 . S
C751 C750 1.349 . S
C751 C767 1.349 . S
C752 C750 1.327 . S
C752 C771 1.429 . S
C752 H776 0.950 . S
C753 C770 1.574 . S
C753 C772 1.368 . S
C753 H777 0.949 . S
H754 C758 0.949 . S
C755 C756 1.349 . S
C755 C757 1.327 . S
C755 H778 0.950 . S
C756 C755 1.349 . S
C756 C768 1.349 . S
C757 C755 1.327 . S
C757 C773 1.429 . S
C757 H779 0.950 . S
C758 H754 0.949 . S
C758 C766 1.574 . S
C758 C774 1.368 . S
H759 C767 0.950 . S
H760 C765 0.950 . S
H761 C766 0.949 . S
H762 C768 0.950 . S
H763 C769 0.950 . S
H764 C770 0.949 . S
C765 H760 0.950 . S
C765 C767 1.327 . S
C765 C771 1.429 . S
C766 C758 1.574 . S
C766 H761 0.949 . S
C766 C772 1.368 . S
C767 C751 1.349 . S
C767 H759 0.950 . S
C767 C765 1.327 . S
C768 C756 1.349 . S
C768 H762 0.950 . S
C768 C769 1.327 . S
C769 H763 0.950 . S
C769 C768 1.327 . S
C769 C773 1.429 . S
C770 C753 1.574 . S
C770 H764 0.949 . S
C770 C774 1.368 . S
C771 C752 1.429 . S
C771 C765 1.429 . S
C771 C772 1.523 . S
C772 C753 1.368 . S
C772 C766 1.368 . S
C772 C771 1.523 . S
C773 C757 1.429 . S
C773 C769 1.429 . S
C773 C774 1.523 . S
C774 C758 1.368 . S
C774 C770 1.368 . S
C774 C773 1.523 . S
H775 C750 0.950 . S
H776 C752 0.950 . S
H777 C753 0.949 . S
H778 C755 0.950 . S
H779 C757 0.950 . S
C780 C781 1.349 . S
C780 C782 1.327 . S
C780 H805 0.950 . S
C781 C780 1.349 . S
C781 C797 1.349 . S
C782 C780 1.327 . S
C782 C801 1.429 . S
C782 H806 0.950 . S
C783 C800 1.574 . S
C783 C802 1.368 . S
C783 H807 0.949 . S
H784 C788 0.949 . S
C785 C786 1.349 . S
C785 C787 1.327 . S
C785 H808 0.950 . S
C786 C785 1.349 . S
C786 C798 1.349 . S
C787 C785 1.327 . S
C787 C803 1.429 . S
C787 H809 0.950 . S
C788 H784 0.949 . S
C788 C796 1.574 . S
C788 C804 1.368 . S
H789 C797 0.950 . S
H790 C795 0.950 . S
H791 C796 0.949 . S
H792 C798 0.950 . S
H793 C799 0.950 . S
H794 C800 0.949 . S
C795 H790 0.950 . S
C795 C797 1.327 . S
C795 C801 1.429 . S
C796 C788 1.574 . S
C796 H791 0.949 . S
C796 C802 1.368 . S
C797 C781 1.349 . S
C797 H789 0.950 . S
C797 C795 1.327 . S
C798 C786 1.349 . S
C798 H792 0.950 . S
C798 C799 1.327 . S
C799 H793 0.950 . S
C799 C798 1.327 . S
C799 C803 1.429 . S
C800 C783 1.574 . S
C800 H794 0.949 . S
C800 C804 1.368 . S
C801 C782 1.429 . S
C801 C795 1.429 . S
C801 C802 1.523 . S
C802 C783 1.368 . S
C802 C796 1.368 . S
C802 C801 1.523 . S
C803 C787 1.429 . S
C803 C799 1.429 . S
C803 C804 1.523 . S
C804 C788 1.368 . S
C804 C800 1.368 . S
C804 C803 1.523 . S
H805 C780 0.950 . S
H806 C782 0.950 . S
H807 C783 0.949 . S
H808 C785 0.950 . S
H809 C787 0.950 . S
C810 C811 1.349 . S
C810 C812 1.327 . S
C810 H835 0.950 . S
C811 C810 1.349 . S
C811 C827 1.349 . S
C812 C810 1.327 . S
C812 C831 1.429 . S
C812 H836 0.950 . S
C813 C830 1.574 . S
C813 C832 1.368 . S
C813 H837 0.949 . S
H814 C818 0.949 . S
C815 C816 1.349 . S
C815 C817 1.327 . S
C815 H838 0.950 . S
C816 C815 1.349 . S
C816 C828 1.349 . S
C817 C815 1.327 . S
C817 C833 1.429 . S
C817 H839 0.950 . S
C818 H814 0.949 . S
C818 C826 1.574 . S
C818 C834 1.368 . S
H819 C827 0.950 . S
H820 C825 0.950 . S
H821 C826 0.949 . S
H822 C828 0.950 . S
H823 C829 0.950 . S
H824 C830 0.949 . S
C825 H820 0.950 . S
C825 C827 1.327 . S
C825 C831 1.429 . S
C826 C818 1.574 . S
C826 H821 0.949 . S
C826 C832 1.368 . S
C827 C811 1.349 . S
C827 H819 0.950 . S
C827 C825 1.327 . S
C828 C816 1.349 . S
C828 H822 0.950 . S
C828 C829 1.327 . S
C829 H823 0.950 . S
C829 C828 1.327 . S
C829 C833 1.429 . S
C830 C813 1.574 . S
C830 H824 0.949 . S
C830 C834 1.368 . S
C831 C812 1.429 . S
C831 C825 1.429 . S
C831 C832 1.523 . S
C832 C813 1.368 . S
C832 C826 1.368 . S
C832 C831 1.523 . S
C833 C817 1.429 . S
C833 C829 1.429 . S
C833 C834 1.523 . S
C834 C818 1.368 . S
C834 C830 1.368 . S
C834 C833 1.523 . S
H835 C810 0.950 . S
H836 C812 0.950 . S
H837 C813 0.949 . S
H838 C815 0.950 . S
H839 C817 0.950 . S
C840 C841 1.349 1_655 S
C840 C842 1.327 . S
C840 H865 0.950 . S
C841 C840 1.349 1_455 S
C841 C857 1.349 . S
C842 C840 1.327 . S
C842 C861 1.429 1_655 S
C842 H866 0.950 . S
C843 C860 1.574 . S
C843 C862 1.368 . S
C843 H867 0.949 . S
H844 C848 0.949 . S
C845 C846 1.349 . S
C845 C847 1.327 1_556 S
C845 H868 0.950 . S
C846 C845 1.349 . S
C846 C858 1.349 1_455 S
C847 C845 1.327 1_554 S
C847 C863 1.429 . S
C847 H869 0.950 . S
C848 H844 0.949 . S
C848 C856 1.574 . S
C848 C864 1.368 1_655 S
H849 C857 0.950 . S
H850 C855 0.950 . S
H851 C856 0.949 . S
H852 C858 0.950 . S
H853 C859 0.950 . S
H854 C860 0.949 . S
C855 H850 0.950 . S
C855 C857 1.327 . S
C855 C861 1.429 . S
C856 C848 1.574 . S
C856 H851 0.949 . S
C856 C862 1.368 1_655 S
C857 C841 1.349 . S
C857 H849 0.950 . S
C857 C855 1.327 . S
C858 C846 1.349 1_655 S
C858 H852 0.950 . S
C858 C859 1.327 1_556 S
C859 H853 0.950 . S
C859 C858 1.327 1_554 S
C859 C863 1.429 1_655 S
C860 C843 1.574 . S
C860 H854 0.949 . S
C860 C864 1.368 . S
C861 C842 1.429 1_455 S
C861 C855 1.429 . S
C861 C862 1.523 . S
C862 C843 1.368 . S
C862 C856 1.368 1_455 S
C862 C861 1.523 . S
C863 C847 1.429 . S
C863 C859 1.429 1_455 S
C863 C864 1.523 . S
C864 C848 1.368 1_455 S
C864 C860 1.368 . S
C864 C863 1.523 . S
H865 C840 0.950 . S
H866 C842 0.950 . S
H867 C843 0.949 . S
H868 C845 0.950 . S
H869 C847 0.950 . S
C870 C871 1.349 . S
C870 C872 1.327 . S
C870 H895 0.950 . S
C871 C870 1.349 . S
C871 C887 1.349 . S
C872 C870 1.327 . S
C872 C891 1.429 . S
C872 H896 0.950 . S
C873 C890 1.574 . S
C873 C892 1.368 . S
C873 H897 0.949 . S
H874 C878 0.949 . S
C875 C876 1.349 . S
C875 C877 1.327 . S
C875 H898 0.950 . S
C876 C875 1.349 . S
C876 C888 1.349 . S
C877 C875 1.327 . S
C877 C893 1.429 . S
C877 H899 0.950 . S
C878 H874 0.949 . S
C878 C886 1.574 . S
C878 C894 1.368 . S
H879 C887 0.950 . S
H880 C885 0.950 . S
H881 C886 0.949 . S
H882 C888 0.950 . S
H883 C889 0.950 . S
H884 C890 0.949 . S
C885 H880 0.950 . S
C885 C887 1.327 . S
C885 C891 1.429 . S
C886 C878 1.574 . S
C886 H881 0.949 . S
C886 C892 1.368 . S
C887 C871 1.349 . S
C887 H879 0.950 . S
C887 C885 1.327 . S
C888 C876 1.349 . S
C888 H882 0.950 . S
C888 C889 1.327 . S
C889 H883 0.950 . S
C889 C888 1.327 . S
C889 C893 1.429 . S
C890 C873 1.574 . S
C890 H884 0.949 . S
C890 C894 1.368 . S
C891 C872 1.429 . S
C891 C885 1.429 . S
C891 C892 1.523 . S
C892 C873 1.368 . S
C892 C886 1.368 . S
C892 C891 1.523 . S
C893 C877 1.429 . S
C893 C889 1.429 . S
C893 C894 1.523 . S
C894 C878 1.368 . S
C894 C890 1.368 . S
C894 C893 1.523 . S
H895 C870 0.950 . S
H896 C872 0.950 . S
H897 C873 0.949 . S
H898 C875 0.950 . S
H899 C877 0.950 . S
C900 C901 1.349 . S
C900 C902 1.327 . S
C900 H925 0.950 . S
C901 C900 1.349 . S
C901 C917 1.349 . S
C902 C900 1.327 . S
C902 C921 1.429 . S
C902 H926 0.950 . S
C903 C920 1.574 . S
C903 C922 1.368 . S
C903 H927 0.949 . S
H904 C908 0.949 . S
C905 C906 1.349 . S
C905 C907 1.327 . S
C905 H928 0.950 . S
C906 C905 1.349 . S
C906 C918 1.349 . S
C907 C905 1.327 . S
C907 C923 1.429 . S
C907 H929 0.950 . S
C908 H904 0.949 . S
C908 C916 1.574 . S
C908 C924 1.368 . S
H909 C917 0.950 . S
H910 C915 0.950 . S
H911 C916 0.949 . S
H912 C918 0.950 . S
H913 C919 0.950 . S
H914 C920 0.949 . S
C915 H910 0.950 . S
C915 C917 1.327 . S
C915 C921 1.429 . S
C916 C908 1.574 . S
C916 H911 0.949 . S
C916 C922 1.368 . S
C917 C901 1.349 . S
C917 H909 0.950 . S
C917 C915 1.327 . S
C918 C906 1.349 . S
C918 H912 0.950 . S
C918 C919 1.327 . S
C919 H913 0.950 . S
C919 C918 1.327 . S
C919 C923 1.429 . S
C920 C903 1.574 . S
C920 H914 0.949 . S
C920 C924 1.368 . S
C921 C902 1.429 . S
C921 C915 1.429 . S
C921 C922 1.523 . S
C922 C903 1.368 . S
C922 C916 1.368 . S
C922 C921 1.523 . S
C923 C907 1.429 . S
C923 C919 1.429 . S
C923 C924 1.523 . S
C924 C908 1.368 . S
C924 C920 1.368 . S
C924 C923 1.523 . S
H925 C900 0.950 . S
H926 C902 0.950 . S
H927 C903 0.949 . S
H928 C905 0.950 . S
H929 C907 0.950 . S
C930 C931 1.349 . S
C930 C932 1.327 . S
C930 H955 0.950 1_545 S
C931 C930 1.349 . S
C931 C947 1.349 . S
C932 C930 1.327 . S
C932 C951 1.429 . S
C932 H956 0.950 1_545 S
C933 C950 1.574 . S
C933 C952 1.368 . S
C933 H957 0.949 . S
H934 C938 0.949 . S
C935 C936 1.349 . S
C935 C937 1.327 . S
C935 H958 0.950 . S
C936 C935 1.349 . S
C936 C948 1.349 1_545 S
C937 C935 1.327 . S
C937 C953 1.429 . S
C937 H959 0.950 . S
C938 H934 0.949 . S
C938 C946 1.574 . S
C938 C954 1.368 1_565 S
H939 C947 0.950 . S
H940 C945 0.950 . S
H941 C946 0.949 . S
H942 C948 0.950 . S
H943 C949 0.950 . S
H944 C950 0.949 . S
C945 H940 0.950 . S
C945 C947 1.327 . S
C945 C951 1.429 . S
C946 C938 1.574 . S
C946 H941 0.949 . S
C946 C952 1.368 1_565 S
C947 C931 1.349 . S
C947 H939 0.950 . S
C947 C945 1.327 . S
C948 C936 1.349 1_565 S
C948 H942 0.950 . S
C948 C949 1.327 . S
C949 H943 0.950 . S
C949 C948 1.327 . S
C949 C953 1.429 1_565 S
C950 C933 1.574 . S
C950 H944 0.949 . S
C950 C954 1.368 . S
C951 C932 1.429 . S
C951 C945 1.429 . S
C951 C952 1.523 . S
C952 C933 1.368 . S
C952 C946 1.368 1_545 S
C952 C951 1.523 . S
C953 C937 1.429 . S
C953 C949 1.429 1_545 S
C953 C954 1.523 . S
C954 C938 1.368 1_545 S
C954 C950 1.368 . S
C954 C953 1.523 . S
H955 C930 0.950 1_565 S
H956 C932 0.950 1_565 S
H957 C933 0.949 . S
H958 C935 0.950 . S
H959 C937 0.950 . S
C960 C961 1.349 . S
C960 C962 1.327 . S
C960 H985 0.950 . S
C961 C960 1.349 . S
C961 C977 1.349 . S
C962 C960 1.327 . S
C962 C981 1.429 . S
C962 H986 0.950 . S
C963 C980 1.574 . S
C963 C982 1.368 . S
C963 H987 0.949 . S
H964 C968 0.949 . S
C965 C966 1.349 . S
C965 C967 1.327 1_554 S
C965 H988 0.950 . S
C966 C965 1.349 . S
C966 C978 1.349 . S
C967 C965 1.327 1_556 S
C967 C983 1.429 . S
C967 H989 0.950 . S
C968 H964 0.949 . S
C968 C976 1.574 . S
C968 C984 1.368 . S
H969 C977 0.950 . S
H970 C975 0.950 . S
H971 C976 0.949 . S
H972 C978 0.950 . S
H973 C979 0.950 . S
H974 C980 0.949 . S
C975 H970 0.950 . S
C975 C977 1.327 . S
C975 C981 1.429 . S
C976 C968 1.574 . S
C976 H971 0.949 . S
C976 C982 1.368 . S
C977 C961 1.349 . S
C977 H969 0.950 . S
C977 C975 1.327 . S
C978 C966 1.349 . S
C978 H972 0.950 . S
C978 C979 1.327 1_554 S
C979 H973 0.950 . S
C979 C978 1.327 1_556 S
C979 C983 1.429 . S
C980 C963 1.574 . S
C980 H974 0.949 . S
C980 C984 1.368 . S
C981 C962 1.429 . S
C981 C975 1.429 . S
C981 C982 1.523 . S
C982 C963 1.368 . S
C982 C976 1.368 . S
C982 C981 1.523 . S
C983 C967 1.429 . S
C983 C979 1.429 . S
C983 C984 1.523 . S
C984 C968 1.368 . S
C984 C980 1.368 . S
C984 C983 1.523 . S
H985 C960 0.950 . S
H986 C962 0.950 . S
H987 C963 0.949 . S
H988 C965 0.950 . S
H989 C967 0.950 . S
C990 C991 1.349 . S
C990 C992 1.327 . S
C990 H1015 0.950 . S
C991 C990 1.349 . S
C991 C1007 1.349 . S
C992 C990 1.327 . S
C992 C1011 1.429 . S
C992 H1016 0.950 . S
C993 C1010 1.574 . S
C993 C1012 1.368 . S
C993 H1017 0.949 . S
H994 C998 0.949 . S
C995 C996 1.349 . S
C995 C997 1.327 . S
C995 H1018 0.950 . S
C996 C995 1.349 . S
C996 C1008 1.349 . S
C997 C995 1.327 . S
C997 C1013 1.429 . S
C997 H1019 0.950 . S
C998 H994 0.949 . S
C998 C1006 1.574 . S
C998 C1014 1.368 . S
H999 C1007 0.950 . S
H1000 C1005 0.950 . S
H1001 C1006 0.949 . S
H1002 C1008 0.950 . S
H1003 C1009 0.950 . S
H1004 C1010 0.949 . S
C1005 H1000 0.950 . S
C1005 C1007 1.327 . S
C1005 C1011 1.429 . S
C1006 C998 1.574 . S
C1006 H1001 0.949 . S
C1006 C1012 1.368 . S
C1007 C991 1.349 . S
C1007 H999 0.950 . S
C1007 C1005 1.327 . S
C1008 C996 1.349 . S
C1008 H1002 0.950 . S
C1008 C1009 1.327 . S
C1009 H1003 0.950 . S
C1009 C1008 1.327 . S
C1009 C1013 1.429 . S
C1010 C993 1.574 . S
C1010 H1004 0.949 . S
C1010 C1014 1.368 . S
C1011 C992 1.429 . S
C1011 C1005 1.429 . S
C1011 C1012 1.523 . S
C1012 C993 1.368 . S
C1012 C1006 1.368 . S
C1012 C1011 1.523 . S
C1013 C997 1.429 . S
C1013 C1009 1.429 . S
C1013 C1014 1.523 . S
C1014 C998 1.368 . S
C1014 C1010 1.368 . S
C1014 C1013 1.523 . S
H1015 C990 0.950 . S
H1016 C992 0.950 . S
H1017 C993 0.949 . S
H1018 C995 0.950 . S
H1019 C997 0.950 . S
C481 C9 0.401 . S
C486 C451 0.325 . S
C511 C49 0.252 . S
C516 C301 0.411 . S
C541 C89 0.247 . S
C546 C361 0.414 . S
C571 C26 0.346 . S
C576 C421 0.396 . S
C606 C331 0.276 . S
C601 C66 0.410 . S
C636 C391 0.302 . S
C631 C106 0.434 . S
C661 C43 2.870 . S
C666 C181 2.724 . S
C691 C83 3.033 . S
C696 C271 3.022 . S
C721 C22 3.105 . S
C726 C151 3.093 . S
C756 C211 3.082 . S
C751 C62 3.093 . S
C786 C241 2.774 . S
C781 C102 2.926 . S
C811 C3 2.860 . S
C816 C121 2.720 . S
C846 C260 1.749 . S
C841 C15 1.720 . S
C871 C55 1.732 . S
C876 C140 1.745 . S
C901 C95 1.728 . S
C906 C200 1.741 . S
C936 C380 1.081 . S
C931 C42 1.080 . S
C966 C440 1.091 . S
C961 C82 1.084 . S
C991 C2 1.080 . S
C996 C320 1.078 . S
