# Generated by pormake.
# Topology rtl, (3,6)-cn, num edge types: 1
# Building blocks:
#     Node 0, Type 0, BuildingBlock: BETDIP_clean_linker_0, # of connection points: 3
#     Node 1, Type 0, BuildingBlock: BETDIP_clean_linker_0, # of connection points: 3
#     Node 2, Type 0, BuildingBlock: BETDIP_clean_linker_0, # of connection points: 3
#     Node 3, Type 0, BuildingBlock: BETDIP_clean_linker_0, # of connection points: 3
#     Node 4, Type 1, BuildingBlock: KUMJIN_clean_sbu_1, # of connection points: 6
#     Node 5, Type 1, BuildingBlock: KUMJIN_clean_sbu_1, # of connection points: 6
#     Edge 6, Type (0, 1), BuildingBlock: XIVTED_clean_linker_0, # of connection points: 2
#     Edge 7, Type (0, 1), BuildingBlock: XIVTED_clean_linker_0, # of connection points: 2
#     Edge 8, Type (0, 1), BuildingBlock: XIVTED_clean_linker_0, # of connection points: 2
#     Edge 9, Type (0, 1), BuildingBlock: XIVTED_clean_linker_0, # of connection points: 2
#     Edge 10, Type (0, 1), BuildingBlock: XIVTED_clean_linker_0, # of connection points: 2
#     Edge 11, Type (0, 1), BuildingBlock: XIVTED_clean_linker_0, # of connection points: 2
#     Edge 12, Type (0, 1), BuildingBlock: XIVTED_clean_linker_0, # of connection points: 2
#     Edge 13, Type (0, 1), BuildingBlock: XIVTED_clean_linker_0, # of connection points: 2
#     Edge 14, Type (0, 1), BuildingBlock: XIVTED_clean_linker_0, # of connection points: 2
#     Edge 15, Type (0, 1), BuildingBlock: XIVTED_clean_linker_0, # of connection points: 2
#     Edge 16, Type (0, 1), BuildingBlock: XIVTED_clean_linker_0, # of connection points: 2
#     Edge 17, Type (0, 1), BuildingBlock: XIVTED_clean_linker_0, # of connection points: 2
# Relax obj value: 0.052
# Max RMSD: 0.220
# Mean RMSD: 0.160
data_MOF--net-rtl--node1-KUMJIN_clean_sbu_1--node2-BETDIP_clean_linker_0--edge1-XIVTED_clean_linker_0
_symmetry_space_group_name_H-M    P1
_symmetry_Int_Tables_number       1
_symmetry_cell_setting            triclinic
loop_
_symmetry_equiv_pos_as_xyz
'x, y, z'
_cell_length_a     35.57929
_cell_length_b     35.677516
_cell_length_c     27.385644
_cell_angle_alpha  78.157444
_cell_angle_beta   100.20424
_cell_angle_gamma 91.493859
loop_
_atom_site_label
_atom_site_type_symbol
_atom_site_fract_x
_atom_site_fract_y
_atom_site_fract_z
_atom_type_partial_charge
H0 H 0.21716 0.82686 0.93644 0.0
H1 H 0.23594 0.81916 0.09796 0.0
H2 H 0.15941 0.9047 0.99949 0.0
H3 H 0.28552 0.78196 0.09908 0.0
C4 C 0.28223 0.77144 0.06412 0.0
C5 C 0.2115 0.83723 0.969 0.0
C6 C 0.18636 0.86823 0.96209 0.0
C7 C 0.23008 0.81968 0.01744 0.0
C8 C 0.22266 0.83283 0.06008 0.0
C9 C 0.19756 0.86404 0.05363 0.0
C10 C 0.17976 0.88152 0.00454 0.0
N11 N 0.25546 0.78872 0.02094 0.0
H12 H 0.71675 0.71251 0.73019 0.0
H13 H 0.70936 0.7121 0.57149 0.0
H14 H 0.64445 0.63201 0.66156 0.0
H15 H 0.77072 0.72889 0.58762 0.0
C16 C 0.76997 0.75004 0.61088 0.0
C17 C 0.70507 0.7009 0.69716 0.0
C18 C 0.67882 0.67065 0.70124 0.0
C19 C 0.71757 0.71504 0.65092 0.0
C20 C 0.70177 0.70009 0.608 0.0
C21 C 0.67537 0.67015 0.61147 0.0
C22 C 0.66437 0.65554 0.6583 0.0
N23 N 0.74592 0.74411 0.6482 0.0
H24 H 0.77716 0.20921 0.96774 0.0
H25 H 0.78018 0.18811 0.12912 0.0
H26 H 0.86683 0.13977 0.0701 0.0
H27 H 0.71521 0.19658 0.10334 0.0
C28 C 0.71483 0.22155 0.0729 0.0
C29 C 0.79033 0.19541 0.00574 0.0
C30 C 0.82438 0.17409 0.0136 0.0
C31 C 0.77348 0.19977 0.047 0.0
C32 C 0.79146 0.18328 0.0967 0.0
C33 C 0.82557 0.16238 0.10487 0.0
C34 C 0.84114 0.15713 0.06332 0.0
N35 N 0.74018 0.22319 0.03779 0.0
H36 H 0.31921 0.30022 0.37954 0.0
H37 H 0.3158 0.31224 0.53219 0.0
H38 H 0.39459 0.37826 0.44858 0.0
H39 H 0.29251 0.25444 0.54082 0.0
C40 C 0.27583 0.25176 0.50452 0.0
C41 C 0.32972 0.31316 0.41179 0.0
C42 C 0.35905 0.34033 0.40902 0.0
C43 C 0.31463 0.30174 0.45661 0.0
C44 C 0.32793 0.3194 0.49801 0.0
C45 C 0.35712 0.34666 0.49565 0.0
C46 C 0.37265 0.35663 0.45116 0.0
N47 N 0.28604 0.27288 0.45871 0.0
Eu48 Eu 0.03206 0.97814 0.5073 0.0
C49 C 0.93075 0.11938 0.47006 0.0
N50 N 0.96579 0.11397 0.50003 0.0
C51 C 0.98545 0.17591 0.46079 0.0
C52 C 0.92209 0.15332 0.43315 0.0
C53 C 0.99291 0.1417 0.49656 0.0
C54 C 0.94997 0.18168 0.42878 0.0
C55 C 0.86752 0.09524 0.44426 0.0
C56 C 0.90395 0.09031 0.47529 0.0
C57 C 0.85908 0.1287 0.40684 0.0
C58 C 0.88626 0.15765 0.40134 0.0
Eu59 Eu 0.9762 0.05509 0.55828 0.0
N60 N 0.91305 0.05778 0.51131 0.0
C61 C 0.84025 0.06678 0.45253 0.0
C62 C 0.88525 0.03199 0.52267 0.0
C63 C 0.84891 0.03545 0.49263 0.0
H64 H 0.02029 0.13729 0.52143 0.0
H65 H 0.82734 0.01433 0.5011 0.0
H66 H 0.97992 0.89882 0.50647 0.0
H67 H 0.17535 0.99674 0.61234 0.0
H68 H 0.8903 0.00926 0.55571 0.0
H69 H 0.81196 0.06951 0.42954 0.0
H70 H 0.11805 0.01587 0.54846 0.0
H71 H 0.00709 0.19775 0.45784 0.0
H72 H 0.83139 0.1327 0.38238 0.0
H73 H 0.87923 0.18336 0.37243 0.0
H74 H 0.98239 0.83133 0.55224 0.0
H75 H 0.94439 0.20811 0.40082 0.0
H76 H 0.18181 0.93076 0.66334 0.0
N77 N 0.03319 0.91281 0.54674 0.0
C78 C 0.06486 0.8999 0.58132 0.0
C79 C 1.00566 0.85036 0.56103 0.0
C80 C 0.06771 0.86153 0.60804 0.0
C81 C 1.00407 0.88866 0.53564 0.0
C82 C 0.03754 0.83676 0.59759 0.0
N83 N 0.09009 0.96258 0.56552 0.0
C84 C 0.11939 0.9876 0.57157 0.0
C85 C 0.12704 0.91295 0.62727 0.0
C86 C 0.09414 0.92543 0.5909 0.0
C87 C 0.15614 0.9392 0.63568 0.0
C88 C 0.15249 0.97654 0.60722 0.0
H89 H 0.03865 0.80709 0.61733 0.0
H90 H 0.10291 0.81986 0.66556 0.0
H91 H 0.15481 0.86484 0.68238 0.0
O92 O 0.07009 0.98948 0.45168 0.0
O93 O 0.0282 0.96686 0.59095 0.0
O94 O 0.02835 0.0263 0.61119 0.0
O95 O 0.03473 0.93929 0.45572 0.0
O96 O 0.05569 0.03918 0.49916 0.0
O97 O 0.03974 0.06489 0.56428 0.0
O98 O 0.94766 0.05114 0.62384 0.0
O99 O 0.98591 0.06526 0.47697 0.0
O100 O 0.97903 0.00657 0.45618 0.0
O101 O 0.97362 0.10403 0.59376 0.0
O102 O 0.9566 0.99287 0.57229 0.0
O103 O 0.96815 0.9701 0.5031 0.0
C104 C 0.03655 0.98955 0.62335 0.0
C105 C 0.04964 0.96766 0.37604 0.0
C106 C 0.06598 0.96115 0.29533 0.0
C107 C 0.03399 0.98403 0.2699 0.0
C108 C 0.01784 0.9903 0.35004 0.0
C109 C 0.01006 0.99837 0.29718 0.0
C110 C 0.0735 0.95291 0.34866 0.0
C111 C 0.06082 0.06409 0.52946 0.0
C112 C 0.05883 0.96011 0.43159 0.0
C113 C 0.1003 0.84919 0.64451 0.0
C114 C 0.12986 0.87481 0.65411 0.0
C115 C 0.97304 0.04362 0.44469 0.0
C116 C 0.97527 0.08933 0.68134 0.0
C117 C 0.96985 0.10457 0.7628 0.0
C118 C 0.00993 0.1014 0.77679 0.0
C119 C 0.01503 0.08589 0.69632 0.0
C120 C 0.95278 0.09816 0.71473 0.0
C121 C 0.03219 0.09177 0.74393 0.0
C122 C 0.95 0.96849 0.54148 0.0
C123 C 0.95727 0.08551 0.63013 0.0
H124 H 0.02729 0.99053 0.22888 0.0
H125 H 0.99918 1.00185 0.37053 0.0
H126 H 0.98547 0.01587 0.27731 0.0
H127 H 0.0983 0.93574 0.36884 0.0
H128 H 0.02437 0.10702 0.81276 0.0
H129 H 0.0328 0.07935 0.67085 0.0
H130 H 0.92205 0.10004 0.70298 0.0
H131 H 0.06292 0.08946 0.75512 0.0
Eu132 Eu 0.46989 0.49066 0.99543 0.0
C133 C 0.62829 0.54985 0.05485 0.0
N134 N 0.61169 0.51854 0.07953 0.0
C135 C 0.66687 0.48041 0.08206 0.0
C136 C 0.66415 0.5471 0.04054 0.0
C137 C 0.63156 0.48474 0.09609 0.0
C138 C 0.6829 0.51153 0.05326 0.0
C139 C 0.62773 0.61868 0.02359 0.0
C140 C 0.61039 0.58523 0.04638 0.0
C141 C 0.66262 0.61581 0.00733 0.0
C142 C 0.68073 0.58008 0.01562 0.0
Eu143 Eu 0.55033 0.52867 0.09775 0.0
N144 N 0.57607 0.587 0.06097 0.0
C145 C 0.60951 0.65402 0.0181 0.0
C146 C 0.55893 0.62139 0.05788 0.0
C147 C 0.57518 0.65541 0.03589 0.0
H148 H 0.62075 0.46114 0.12098 0.0
H149 H 0.56119 0.68263 0.03252 0.0
H150 H 0.38859 0.52949 0.0066 0.0
H151 H 0.50164 0.33959 0.00458 0.0
H152 H 0.53235 0.62232 0.07159 0.0
H153 H 0.62192 0.68039 0.00079 0.0
H154 H 0.50798 0.40936 0.97737 0.0
H155 H 0.68199 0.45323 0.09424 0.0
H156 H 0.67613 0.64111 0.98902 0.0
H157 H 0.70805 0.57841 0.00385 0.0
H158 H 0.32867 0.50907 0.03834 0.0
H159 H 0.71047 0.50821 0.04292 0.0
H160 H 0.44971 0.31368 0.05073 0.0
N161 N 0.41185 0.47319 0.02373 0.0
C162 C 0.40603 0.43525 0.03966 0.0
C163 C 0.35032 0.48805 0.03927 0.0
C164 C 0.37254 0.42225 0.05835 0.0
C165 C 0.38417 0.49955 0.02145 0.0
C166 C 0.3447 0.44926 0.05851 0.0
N167 N 0.4635 0.42306 0.01362 0.0
C168 C 0.48661 0.39852 -4e-05 0.0
C169 C 0.42721 0.36972 0.04969 0.0
C170 C 0.43304 0.40943 0.03534 0.0
C171 C 0.45314 0.34439 0.04024 0.0
C172 C 0.48252 0.35889 0.01429 0.0
H173 H 0.31853 0.44043 0.07246 0.0
H174 H 0.34232 0.37226 0.09037 0.0
H175 H 0.39022 0.32621 0.08278 0.0
O176 O 0.44353 0.46971 0.92779 0.0
O177 O 0.4589 0.48851 0.07547 0.0
O178 O 0.51776 0.47515 0.12536 0.0
O179 O 0.44379 0.53032 0.9267 0.0
O180 O 0.53015 0.46535 0.01068 0.0
O181 O 0.55264 0.46541 0.09497 0.0
O182 O 0.53946 0.55519 0.15898 0.0
O183 O 0.53597 0.55912 0.01481 0.0
O184 O 0.52714 0.5092 0.9746 0.0
O185 O 0.59354 0.5271 0.16574 0.0
O186 O 0.49153 0.55497 0.08696 0.0
O187 O 0.46069 0.55162 0.00552 0.0
C188 C 0.48045 0.47139 0.11778 0.0
C189 C 0.45122 0.51075 0.8512 0.0
C190 C 0.45112 0.49351 0.76923 0.0
C191 C 0.47978 0.52071 0.76025 0.0
C192 C 0.47993 0.53764 0.84144 0.0
C193 C 0.494 0.54257 0.79615 0.0
C194 C 0.43686 0.48889 0.81489 0.0
C195 C 0.55077 0.45001 0.05482 0.0
C196 C 0.43726 0.50385 0.89988 0.0
C197 C 0.3676 0.38282 0.07521 0.0
C198 C 0.39494 0.3566 0.071 0.0
C199 C 0.54105 0.54312 0.97749 0.0
C200 C 0.56996 0.52684 0.2409 0.0
C201 C 0.58056 0.53185 0.32971 0.0
C202 C 0.56388 0.49569 0.34174 0.0
C203 C 0.55369 0.49072 0.25348 0.0
C204 C 0.58348 0.54721 0.27898 0.0
C205 C 0.55066 0.47525 0.30376 0.0
C206 C 0.46546 0.56686 0.04634 0.0
C207 C 0.5719 0.54429 0.18809 0.0
H208 H 0.49102 0.52534 0.72525 0.0
H209 H 0.49169 0.5547 0.86884 0.0
H210 H 0.51612 0.56334 0.78892 0.0
H211 H 0.41525 0.46762 0.82286 0.0
H212 H 0.56148 0.48304 0.38054 0.0
H213 H 0.54324 0.4747 0.22445 0.0
H214 H 0.59558 0.57537 0.26889 0.0
H215 H 0.53798 0.44738 0.31331 0.0
H216 H 0.23203 0.22541 0.42438 0.0
H217 H 0.09294 0.10665 0.59819 0.0
H218 H 0.24616 0.21669 0.58601 0.0
H219 H 0.1 0.08581 0.45026 0.0
H220 H 0.14445 0.1528 0.59049 0.0
H221 H 0.17912 0.17974 0.42926 0.0
C222 C 0.22393 0.21399 0.46081 0.0
C223 C 0.24344 0.22479 0.50494 0.0
C224 C 0.13479 0.13813 0.55969 0.0
C225 C 0.18304 0.17296 0.5107 0.0
C226 C 0.10525 0.11182 0.56398 0.0
C227 C 0.09213 0.09221 0.52485 0.0
C228 C 0.15123 0.14534 0.51571 0.0
C229 C 0.10936 0.10011 0.48149 0.0
C230 C 0.19387 0.18787 0.46359 0.0
C231 C 0.23187 0.20906 0.55113 0.0
N232 N 0.13793 0.12618 0.47798 0.0
N233 N 0.2024 0.18412 0.55278 0.0
H234 H 0.28416 0.73745 0.98291 0.0
H235 H 0.46394 0.60332 0.12475 0.0
H236 H 0.33997 0.73625 0.13654 0.0
H237 H 0.40663 0.60135 0.97241 0.0
H238 H 0.41943 0.65272 0.1288 0.0
H239 H 0.3289 0.68819 0.97782 0.0
C240 C 0.30582 0.7268 0.01565 0.0
C241 C 0.30843 0.74099 0.06032 0.0
C242 C 0.41654 0.64153 0.09445 0.0
C243 C 0.35982 0.68459 0.0546 0.0
C244 C 0.44205 0.61325 0.092 0.0
C245 C 0.43906 0.59788 0.04816 0.0
C246 C 0.38768 0.65478 0.05278 0.0
C247 C 0.41003 0.61218 0.00706 0.0
C248 C 0.33139 0.69865 0.01267 0.0
C249 C 0.33702 0.72606 0.10145 0.0
N250 N 0.38545 0.63977 0.01041 0.0
N251 N 0.36163 0.69871 0.09759 0.0
H252 H 0.78685 0.80645 0.66746 0.0
H253 H 0.91416 0.92495 0.47573 0.0
H254 H 0.80944 0.7705 0.53433 0.0
H255 H 0.91971 0.94317 0.62781 0.0
H256 H 0.86927 0.87298 0.49287 0.0
H257 H 0.82931 0.86136 0.65017 0.0
C258 C 0.80063 0.81018 0.63458 0.0
C259 C 0.79474 0.78393 0.60224 0.0
C260 C 0.88031 0.88831 0.52255 0.0
C261 C 0.84287 0.84654 0.5821 0.0
C262 C 0.90605 0.91796 0.51281 0.0
C263 C 0.92127 0.93808 0.55063 0.0
C264 C 0.86916 0.87892 0.57028 0.0
C265 C 0.9089 0.92829 0.59759 0.0
C266 C 0.82488 0.84141 0.62479 0.0
C267 C 0.81331 0.79006 0.56024 0.0
N268 N 0.88361 0.89938 0.60613 0.0
N269 N 0.83639 0.8207 0.5513 0.0
H270 H 0.66511 0.22583 0.13581 0.0
H271 H 0.57426 0.39517 0.13942 0.0
H272 H 0.70476 0.29016 0.0036 0.0
H273 H 0.58055 0.42643 0.9804 0.0
H274 H 0.6132 0.33842 0.14654 0.0
H275 H 0.62317 0.27932 0.13401 0.0
C276 C 0.66506 0.25139 0.10654 0.0
C277 C 0.68859 0.2537 0.0701 0.0
C278 C 0.60548 0.3571 0.10978 0.0
C279 C 0.64152 0.31572 0.06849 0.0
C280 C 0.58361 0.38982 0.10589 0.0
C281 C 0.57389 0.41527 0.05917 0.0
C282 C 0.61771 0.34971 0.06652 0.0
C283 C 0.58699 0.40719 0.01699 0.0
C284 C 0.64143 0.28217 0.10584 0.0
C285 C 0.68722 0.28726 0.03264 0.0
N286 N 0.60835 0.37517 0.02171 0.0
N287 N 0.66405 0.31697 0.0328 0.0
H288 H 0.19505 0.93803 0.06495 0.0
H289 H 0.09559 0.88848 0.31057 0.0
H290 H 0.17768 0.82223 0.14128 0.0
H291 H 0.09458 1.00033 0.21354 0.0
H292 H 0.13495 0.86435 0.2583 0.0
H293 H 0.16861 0.96183 0.12925 0.0
C294 C 0.18603 0.9176 0.09567 0.0
C295 C 0.18805 0.87811 0.09742 0.0
C296 C 0.12628 0.89421 0.24871 0.0
C297 C 0.15747 0.90516 0.17114 0.0
C298 C 0.10397 0.90801 0.27858 0.0
C299 C 0.09151 0.94638 0.26603 0.0
C300 C 0.13648 0.91907 0.20635 0.0
C301 C 0.10301 0.97041 0.22407 0.0
C302 C 0.17087 0.93119 0.13233 0.0
C303 C 0.17659 0.8529 0.13854 0.0
N304 N 0.12473 0.95635 0.19574 0.0
N305 N 0.16133 0.86686 0.17353 0.0
H306 H 0.6488 0.70725 0.76501 0.0
H307 H 0.58584 0.5095 0.9275 0.0
H308 H 0.67892 0.59531 0.74675 0.0
H309 H 0.54875 0.62002 0.94231 0.0
H310 H 0.62467 0.54117 0.86617 0.0
H311 H 0.61803 0.67681 0.83669 0.0
C312 C 0.64956 0.67634 0.77675 0.0
C313 C 0.66608 0.65371 0.74975 0.0
C314 C 0.60822 0.55863 0.88291 0.0
C315 C 0.63061 0.61874 0.8308 0.0
C316 C 0.58588 0.54051 0.91771 0.0
C317 C 0.56428 0.56224 0.9401 0.0
C318 C 0.60872 0.59886 0.86995 0.0
C319 C 0.56543 0.6023 0.92627 0.0
C320 C 0.63174 0.65896 0.81729 0.0
C321 C 0.66607 0.61377 0.7662 0.0
N322 N 0.58725 0.61938 0.892 0.0
N323 N 0.64837 0.59761 0.8053 0.0
H324 H 0.89995 0.17466 0.14005 0.0
H325 H 0.98661 0.11332 0.38988 0.0
H326 H 0.80017 0.11676 0.18608 0.0
H327 H 0.91299 0.01568 0.38591 0.0
H328 H 0.95019 0.14574 0.30883 0.0
H329 H 0.93731 0.14689 0.22253 0.0
C330 C 0.88587 0.15636 0.16795 0.0
C331 C 0.847 0.14795 0.1565 0.0
C332 C 0.94237 0.11695 0.32508 0.0
C333 C 0.88939 0.11653 0.25132 0.0
C334 C 0.96296 0.09859 0.37146 0.0
C335 C 0.95281 0.0618 0.39414 0.0
C336 C 0.91148 0.09826 0.30104 0.0
C337 C 0.92188 0.04392 0.36906 0.0
C338 C 0.90711 0.1408 0.21516 0.0
C339 C 0.83005 0.1241 0.19381 0.0
N340 N 0.90202 0.06249 0.3238 0.0
N341 N 0.85152 0.10879 0.2396 0.0
H342 H 0.43119 0.36103 0.53434 0.0
H343 H 0.37708 0.47288 0.73836 0.0
H344 H 0.31554 0.37481 0.55607 0.0
H345 H 0.4921 0.45975 0.71373 0.0
H346 H 0.35403 0.4346 0.67471 0.0
H347 H 0.45403 0.39494 0.60257 0.0
C348 C 0.41057 0.37123 0.55347 0.0
C349 C 0.37135 0.36526 0.53921 0.0
C350 C 0.38432 0.44005 0.68331 0.0
C351 C 0.39736 0.40402 0.61779 0.0
C352 C 0.39753 0.46175 0.71983 0.0
C353 C 0.4366 0.46974 0.73129 0.0
C354 C 0.41034 0.42612 0.65806 0.0
C355 C 0.46169 0.4549 0.70558 0.0
C356 C 0.42365 0.39048 0.5926 0.0
C357 C 0.34603 0.37851 0.56602 0.0
N358 N 0.44813 0.43391 0.67021 0.0
N359 N 0.35945 0.39744 0.60384 0.0
H360 H 0.60213 0.64697 0.58224 0.0
H361 H 0.64764 0.57089 0.34343 0.0
H362 H 0.71343 0.65442 0.53889 0.0
H363 H 0.54532 0.54284 0.40693 0.0
H364 H 0.67 0.6073 0.40944 0.0
H365 H 0.57863 0.61452 0.51271 0.0
C366 C 0.62167 0.64177 0.55815 0.0
C367 C 0.65996 0.65316 0.56681 0.0
C368 C 0.64266 0.59317 0.40893 0.0
C369 C 0.63302 0.61635 0.48662 0.0
C370 C 0.62981 0.57254 0.37116 0.0
C371 C 0.5946 0.55375 0.36978 0.0
C372 C 0.62001 0.59529 0.44539 0.0
C373 C 0.57284 0.5565 0.40696 0.0
C374 C 0.60817 0.62333 0.51834 0.0
C375 C 0.68365 0.64643 0.5335 0.0
N376 N 0.58586 0.57695 0.44317 0.0
N377 N 0.66983 0.62835 0.495 0.0
H378 H 0.79188 0.16288 0.91819 0.0
H379 H 0.98249 0.08564 0.86691 0.0
H380 H 0.90094 0.17529 0.01167 0.0
H381 H 0.9028 0.14729 0.73962 0.0
H382 H 0.94611 0.10644 0.92406 0.0
H383 H 0.82582 0.14754 0.85366 0.0
C384 C 0.8228 0.16282 0.92499 0.0
C385 C 0.84354 0.16953 0.97103 0.0
C386 C 0.93669 0.11533 0.88354 0.0
C387 C 0.88205 0.15106 0.89842 0.0
C388 C 0.95757 0.10371 0.85073 0.0
C389 C 0.94626 0.11512 0.79801 0.0
C390 C 0.90367 0.13782 0.8638 0.0
C391 C 0.9126 0.13737 0.77982 0.0
C392 C 0.84203 0.15388 0.88833 0.0
C393 C 0.88364 0.16898 0.97769 0.0
N394 N 0.89236 0.14792 0.8127 0.0
N395 N 0.90151 0.15925 0.94227 0.0
H396 H 0.32152 0.36793 0.3123 0.0
H397 H 0.51319 0.41526 0.19675 0.0
H398 H 0.43424 0.34212 0.40013 0.0
H399 H 0.4067 0.47558 0.13262 0.0
H400 H 0.48301 0.37865 0.26511 0.0
H401 H 0.35049 0.39678 0.23838 0.0
C402 C 0.35231 0.36773 0.31568 0.0
C403 C 0.37558 0.35283 0.36228 0.0
C404 C 0.46618 0.39969 0.23578 0.0
C405 C 0.40881 0.38577 0.27842 0.0
C406 C 0.48341 0.42072 0.1969 0.0
C407 C 0.46234 0.44841 0.15871 0.0
C408 C 0.42746 0.4061 0.23623 0.0
C409 C 0.42376 0.45398 0.16061 0.0
C410 C 0.36882 0.38446 0.27375 0.0
C411 C 0.41535 0.35358 0.36489 0.0
N412 N 0.40751 0.43298 0.19862 0.0
N413 N 0.43072 0.36986 0.32362 0.0
H414 H 0.15119 0.8325 0.88711 0.0
H415 H 0.08192 0.02663 0.68988 0.0
H416 H 0.17495 0.94463 0.9207 0.0
H417 H 0.03972 0.91478 0.67243 0.0
H418 H 0.11973 0.99748 0.77207 0.0
H419 H 0.11509 0.86246 0.80438 0.0
C420 C 0.14908 0.86345 0.87687 0.0
C421 C 0.16599 0.88612 0.91084 0.0
C422 C 0.10213 0.97937 0.75024 0.0
C423 C 0.12433 0.9206 0.81656 0.0
C424 C 0.08036 0.99602 0.70353 0.0
C425 C 0.0578 0.97305 0.67426 0.0
C426 C 0.10137 0.93949 0.76755 0.0
C427 C 0.05716 0.93348 0.69345 0.0
C428 C 0.1282 0.88053 0.82984 0.0
C429 C 0.16195 0.92609 0.89584 0.0
N430 N 0.07877 0.91793 0.73875 0.0
N431 N 0.14152 0.94208 0.84979 0.0
loop_
_geom_bond_atom_site_label_1
_geom_bond_atom_site_label_2
_geom_bond_distance
_geom_bond_site_symmetry_2
_ccdc_geom_bond_type
H0 C5 0.930 . S
H1 C8 0.930 . S
H2 C10 0.930 . S
H3 C4 1.016 . S
C4 H3 1.016 . S
C4 N11 1.286 . S
C5 H0 0.930 . S
C5 C6 1.397 . S
C5 C7 1.361 1_556 S
C6 C5 1.397 . S
C6 C10 1.390 1_556 S
C7 C5 1.361 1_554 S
C7 C8 1.393 . S
C7 N11 1.413 . S
C8 H1 0.930 . S
C8 C7 1.393 . S
C8 C9 1.399 . S
C9 C8 1.399 . S
C9 C10 1.381 . S
C10 H2 0.930 . S
C10 C6 1.390 1_554 S
C10 C9 1.381 . S
N11 C4 1.286 . S
N11 C7 1.413 . S
H12 C17 0.930 . S
H13 C20 0.930 . S
H14 C22 0.930 . S
H15 C16 1.016 . S
C16 H15 1.016 . S
C16 N23 1.286 . S
C17 H12 0.930 . S
C17 C18 1.397 . S
C17 C19 1.361 . S
C18 C17 1.397 . S
C18 C22 1.390 . S
C19 C17 1.361 . S
C19 C20 1.393 . S
C19 N23 1.413 . S
C20 H13 0.930 . S
C20 C19 1.393 . S
C20 C21 1.399 . S
C21 C20 1.399 . S
C21 C22 1.381 . S
C22 H14 0.930 . S
C22 C18 1.390 . S
C22 C21 1.381 . S
N23 C16 1.286 . S
N23 C19 1.413 . S
H24 C29 0.930 1_556 S
H25 C32 0.930 . S
H26 C34 0.930 . S
H27 C28 1.016 . S
C28 H27 1.016 . S
C28 N35 1.286 . S
C29 H24 0.930 1_554 S
C29 C30 1.397 . S
C29 C31 1.361 . S
C30 C29 1.397 . S
C30 C34 1.390 . S
C31 C29 1.361 . S
C31 C32 1.393 . S
C31 N35 1.413 . S
C32 H25 0.930 . S
C32 C31 1.393 . S
C32 C33 1.399 . S
C33 C32 1.399 . S
C33 C34 1.381 . S
C34 H26 0.930 . S
C34 C30 1.390 . S
C34 C33 1.381 . S
N35 C28 1.286 . S
N35 C31 1.413 . S
H36 C41 0.930 . S
H37 C44 0.930 . S
H38 C46 0.930 . S
H39 C40 1.016 . S
C40 H39 1.016 . S
C40 N47 1.286 . S
C41 H36 0.930 . S
C41 C42 1.397 . S
C41 C43 1.361 . S
C42 C41 1.397 . S
C42 C46 1.390 . S
C43 C41 1.361 . S
C43 C44 1.393 . S
C43 N47 1.413 . S
C44 H37 0.930 . S
C44 C43 1.393 . S
C44 C45 1.399 . S
C45 C44 1.399 . S
C45 C46 1.381 . S
C46 H38 0.930 . S
C46 C42 1.390 . S
C46 C45 1.381 . S
N47 C40 1.286 . S
N47 C43 1.413 . S
Eu48 N77 2.600 . S
Eu48 N83 2.562 . S
Eu48 O92 2.462 . S
Eu48 O93 2.373 . S
Eu48 O95 2.432 . S
Eu48 O96 2.291 1_565 S
Eu48 O100 2.335 1_465 S
Eu48 O103 2.372 1_455 S
Eu48 C112 2.787 . S
C49 N50 1.365 . S
C49 C52 1.405 . S
C49 C56 1.448 . S
N50 C49 1.365 . S
N50 C53 1.319 1_655 S
N50 Eu59 2.600 . S
C51 C53 1.397 . S
C51 C54 1.367 1_455 S
C51 H71 0.931 . S
C52 C49 1.405 . S
C52 C54 1.403 . S
C52 C58 1.439 . S
C53 N50 1.319 1_455 S
C53 C51 1.397 . S
C53 H64 0.930 . S
C54 C51 1.367 1_655 S
C54 C52 1.403 . S
C54 H75 0.929 . S
C55 C56 1.430 . S
C55 C57 1.387 . S
C55 C61 1.404 . S
C56 C49 1.448 . S
C56 C55 1.430 . S
C56 N60 1.351 . S
C57 C55 1.387 . S
C57 C58 1.374 . S
C57 H72 0.931 . S
C58 C52 1.439 . S
C58 C57 1.374 . S
C58 H73 0.931 . S
Eu59 N50 2.600 . S
Eu59 N60 2.562 . S
Eu59 O94 2.335 1_655 S
Eu59 O97 2.372 1_655 S
Eu59 O98 2.462 . S
Eu59 O99 2.373 . S
Eu59 O101 2.432 . S
Eu59 O102 2.291 1_545 S
Eu59 C123 2.787 . S
N60 C56 1.351 . S
N60 Eu59 2.562 . S
N60 C62 1.325 . S
C61 C55 1.404 . S
C61 C63 1.366 . S
C61 H69 0.930 . S
C62 N60 1.325 . S
C62 C63 1.416 . S
C62 H68 0.929 . S
C63 C61 1.366 . S
C63 C62 1.416 . S
C63 H65 0.930 . S
H64 C53 0.930 . S
H65 C63 0.930 . S
H66 C81 0.930 1_655 S
H67 C88 0.930 . S
H68 C62 0.929 . S
H69 C61 0.930 . S
H70 C84 0.929 . S
H71 C51 0.931 . S
H72 C57 0.931 . S
H73 C58 0.931 . S
H74 C79 0.931 1_655 S
H75 C54 0.929 . S
H76 C87 0.930 . S
N77 Eu48 2.600 . S
N77 C78 1.365 . S
N77 C81 1.319 . S
C78 N77 1.365 . S
C78 C80 1.405 . S
C78 C86 1.448 . S
C79 H74 0.931 1_455 S
C79 C81 1.397 . S
C79 C82 1.367 . S
C80 C78 1.405 . S
C80 C82 1.403 . S
C80 C113 1.439 . S
C81 H66 0.930 1_455 S
C81 N77 1.319 . S
C81 C79 1.397 . S
C82 C79 1.367 . S
C82 C80 1.403 . S
C82 H89 0.929 . S
N83 Eu48 2.562 . S
N83 C84 1.325 . S
N83 C86 1.351 . S
C84 H70 0.929 . S
C84 N83 1.325 . S
C84 C88 1.416 . S
C85 C86 1.430 . S
C85 C87 1.404 . S
C85 C114 1.387 . S
C86 C78 1.448 . S
C86 N83 1.351 . S
C86 C85 1.430 . S
C87 H76 0.930 . S
C87 C85 1.404 . S
C87 C88 1.366 . S
C88 H67 0.930 . S
C88 C84 1.416 . S
C88 C87 1.366 . S
H89 C82 0.929 . S
H90 C113 0.931 . S
H91 C114 0.931 . S
O92 Eu48 2.462 . S
O92 C112 1.252 . S
O93 Eu48 2.373 . S
O93 C104 1.249 . S
O94 Eu59 2.335 1_455 S
O94 C104 1.264 1_545 S
O95 Eu48 2.432 . S
O95 C112 1.268 . S
O96 Eu48 2.291 1_545 S
O96 C111 1.255 . S
O97 Eu59 2.372 1_455 S
O97 C111 1.257 . S
O98 Eu59 2.462 . S
O98 C123 1.252 . S
O99 Eu59 2.373 . S
O99 C115 1.249 . S
O100 Eu48 2.335 1_645 S
O100 C115 1.264 . S
O101 Eu59 2.432 . S
O101 C123 1.268 . S
O102 Eu59 2.291 1_565 S
O102 C122 1.255 . S
O103 Eu48 2.372 1_655 S
O103 C122 1.257 . S
C104 O93 1.249 . S
C104 O94 1.264 1_565 S
C105 C108 1.382 . S
C105 C110 1.390 . S
C105 C112 1.506 . S
C106 C107 1.398 . S
C106 C110 1.392 . S
C107 C106 1.398 . S
C107 C109 1.372 . S
C107 H124 0.931 . S
C108 C105 1.382 . S
C108 C109 1.390 . S
C108 H125 0.931 . S
C109 C107 1.372 . S
C109 C108 1.390 . S
C109 H126 0.929 . S
C110 C105 1.390 . S
C110 C106 1.392 . S
C110 H127 0.930 . S
C111 O96 1.255 . S
C111 O97 1.257 . S
C112 Eu48 2.787 . S
C112 O92 1.252 . S
C112 O95 1.268 . S
C112 C105 1.506 . S
C113 C80 1.439 . S
C113 H90 0.931 . S
C113 C114 1.374 . S
C114 C85 1.387 . S
C114 H91 0.931 . S
C114 C113 1.374 . S
C115 O99 1.249 . S
C115 O100 1.264 . S
C116 C119 1.382 . S
C116 C120 1.390 . S
C116 C123 1.506 . S
C117 C118 1.398 . S
C117 C120 1.392 . S
C118 C117 1.398 . S
C118 C121 1.372 . S
C118 H128 0.931 . S
C119 C116 1.382 . S
C119 C121 1.390 . S
C119 H129 0.931 . S
C120 C116 1.390 . S
C120 C117 1.392 . S
C120 H130 0.930 . S
C121 C118 1.372 . S
C121 C119 1.390 . S
C121 H131 0.929 . S
C122 O102 1.255 . S
C122 O103 1.257 . S
C123 Eu59 2.787 . S
C123 O98 1.252 . S
C123 O101 1.268 . S
C123 C116 1.506 . S
H124 C107 0.931 . S
H125 C108 0.931 . S
H126 C109 0.929 . S
H127 C110 0.930 . S
H128 C118 0.931 . S
H129 C119 0.931 . S
H130 C120 0.930 . S
H131 C121 0.929 . S
Eu132 N161 2.599 1_556 S
Eu132 N167 2.561 1_556 S
Eu132 O176 2.466 . S
Eu132 O177 2.368 1_556 S
Eu132 O179 2.436 . S
Eu132 O180 2.290 1_556 S
Eu132 O184 2.337 . S
Eu132 O187 2.370 1_556 S
Eu132 C196 2.791 . S
C133 N134 1.365 . S
C133 C136 1.405 . S
C133 C140 1.448 . S
N134 C133 1.365 . S
N134 C137 1.319 . S
N134 Eu143 2.600 . S
C135 C137 1.397 . S
C135 C138 1.367 . S
C135 H155 0.931 . S
C136 C133 1.405 . S
C136 C138 1.403 . S
C136 C142 1.439 . S
C137 N134 1.319 . S
C137 C135 1.397 . S
C137 H148 0.930 . S
C138 C135 1.367 . S
C138 C136 1.403 . S
C138 H159 0.929 . S
C139 C140 1.430 . S
C139 C141 1.387 . S
C139 C145 1.404 . S
C140 C133 1.448 . S
C140 C139 1.430 . S
C140 N144 1.351 . S
C141 C139 1.387 . S
C141 C142 1.374 . S
C141 H156 0.931 . S
C142 C136 1.439 . S
C142 C141 1.374 . S
C142 H157 0.931 . S
Eu143 N134 2.600 . S
Eu143 N144 2.562 . S
Eu143 O178 2.335 . S
Eu143 O181 2.372 . S
Eu143 O182 2.462 . S
Eu143 O183 2.373 . S
Eu143 O185 2.432 . S
Eu143 O186 2.291 . S
Eu143 C207 2.787 . S
N144 C140 1.351 . S
N144 Eu143 2.562 . S
N144 C146 1.325 . S
C145 C139 1.404 . S
C145 C147 1.366 . S
C145 H153 0.930 . S
C146 N144 1.325 . S
C146 C147 1.416 . S
C146 H152 0.929 . S
C147 C145 1.366 . S
C147 C146 1.416 . S
C147 H149 0.930 . S
H148 C137 0.930 . S
H149 C147 0.930 . S
H150 C165 0.930 . S
H151 C172 0.930 . S
H152 C146 0.929 . S
H153 C145 0.930 . S
H154 C168 0.929 . S
H155 C135 0.931 . S
H156 C141 0.931 . S
H157 C142 0.931 . S
H158 C163 0.931 . S
H159 C138 0.929 . S
H160 C171 0.930 . S
N161 Eu132 2.599 1_554 S
N161 C162 1.365 . S
N161 C165 1.319 1_554 S
C162 N161 1.365 . S
C162 C164 1.405 . S
C162 C170 1.448 . S
C163 H158 0.931 . S
C163 C165 1.397 . S
C163 C166 1.367 1_556 S
C164 C162 1.405 . S
C164 C166 1.403 . S
C164 C197 1.439 . S
C165 H150 0.930 . S
C165 N161 1.319 1_556 S
C165 C163 1.397 . S
C166 C163 1.367 1_554 S
C166 C164 1.403 . S
C166 H173 0.929 . S
N167 Eu132 2.561 1_554 S
N167 C168 1.325 . S
N167 C170 1.351 . S
C168 H154 0.929 . S
C168 N167 1.325 . S
C168 C172 1.416 . S
C169 C170 1.430 . S
C169 C171 1.404 . S
C169 C198 1.387 . S
C170 C162 1.448 . S
C170 N167 1.351 . S
C170 C169 1.430 . S
C171 H160 0.930 . S
C171 C169 1.404 . S
C171 C172 1.366 . S
C172 H151 0.930 . S
C172 C168 1.416 . S
C172 C171 1.366 . S
H173 C166 0.929 . S
H174 C197 0.931 . S
H175 C198 0.931 . S
O176 Eu132 2.466 . S
O176 C196 1.252 . S
O177 Eu132 2.368 1_554 S
O177 C188 1.249 . S
O178 Eu143 2.335 . S
O178 C188 1.264 . S
O179 Eu132 2.436 . S
O179 C196 1.268 . S
O180 Eu132 2.290 1_554 S
O180 C195 1.255 . S
O181 Eu143 2.372 . S
O181 C195 1.257 . S
O182 Eu143 2.462 . S
O182 C207 1.252 . S
O183 Eu143 2.373 . S
O183 C199 1.249 1_554 S
O184 Eu132 2.337 . S
O184 C199 1.264 . S
O185 Eu143 2.432 . S
O185 C207 1.268 . S
O186 Eu143 2.291 . S
O186 C206 1.255 . S
O187 Eu132 2.370 1_554 S
O187 C206 1.257 . S
C188 O177 1.249 . S
C188 O178 1.264 . S
C189 C192 1.382 . S
C189 C194 1.390 . S
C189 C196 1.506 . S
C190 C191 1.398 . S
C190 C194 1.392 . S
C191 C190 1.398 . S
C191 C193 1.372 . S
C191 H208 0.931 . S
C192 C189 1.382 . S
C192 C193 1.390 . S
C192 H209 0.931 . S
C193 C191 1.372 . S
C193 C192 1.390 . S
C193 H210 0.929 . S
C194 C189 1.390 . S
C194 C190 1.392 . S
C194 H211 0.930 . S
C195 O180 1.255 . S
C195 O181 1.257 . S
C196 Eu132 2.791 . S
C196 O176 1.252 . S
C196 O179 1.268 . S
C196 C189 1.506 . S
C197 C164 1.439 . S
C197 H174 0.931 . S
C197 C198 1.374 . S
C198 C169 1.387 . S
C198 H175 0.931 . S
C198 C197 1.374 . S
C199 O183 1.249 1_556 S
C199 O184 1.264 . S
C200 C203 1.382 . S
C200 C204 1.390 . S
C200 C207 1.506 . S
C201 C202 1.398 . S
C201 C204 1.392 . S
C202 C201 1.398 . S
C202 C205 1.372 . S
C202 H212 0.931 . S
C203 C200 1.382 . S
C203 C205 1.390 . S
C203 H213 0.931 . S
C204 C200 1.390 . S
C204 C201 1.392 . S
C204 H214 0.930 . S
C205 C202 1.372 . S
C205 C203 1.390 . S
C205 H215 0.929 . S
C206 O186 1.255 . S
C206 O187 1.257 . S
C207 Eu143 2.787 . S
C207 O182 1.252 . S
C207 O185 1.268 . S
C207 C200 1.506 . S
H208 C191 0.931 . S
H209 C192 0.931 . S
H210 C193 0.929 . S
H211 C194 0.930 . S
H212 C202 0.931 . S
H213 C203 0.931 . S
H214 C204 0.930 . S
H215 C205 0.929 . S
H216 C222 0.930 . S
H217 C226 0.930 . S
H218 C231 0.929 . S
H219 C229 0.929 . S
H220 C224 0.929 . S
H221 C230 0.929 . S
C222 H216 0.930 . S
C222 C223 1.367 . S
C222 C230 1.378 . S
C223 C222 1.367 . S
C223 C231 1.433 . S
C224 H220 0.929 . S
C224 C226 1.378 . S
C224 C228 1.350 . S
C225 C228 1.463 . S
C225 C230 1.350 . S
C225 N233 1.427 . S
C226 H217 0.930 . S
C226 C224 1.378 . S
C226 C227 1.367 . S
C227 C226 1.367 . S
C227 C229 1.433 . S
C228 C224 1.350 . S
C228 C225 1.463 . S
C228 N232 1.427 . S
C229 H219 0.929 . S
C229 C227 1.433 . S
C229 N232 1.384 . S
C230 H221 0.929 . S
C230 C222 1.378 . S
C230 C225 1.350 . S
C231 H218 0.929 . S
C231 C223 1.433 . S
C231 N233 1.384 . S
N232 C228 1.427 . S
N232 C229 1.384 . S
N233 C225 1.427 . S
N233 C231 1.384 . S
H234 C240 0.930 1_556 S
H235 C244 0.930 . S
H236 C249 0.929 . S
H237 C247 0.929 1_556 S
H238 C242 0.929 . S
H239 C248 0.929 1_556 S
C240 H234 0.930 1_554 S
C240 C241 1.367 . S
C240 C248 1.378 . S
C241 C240 1.367 . S
C241 C249 1.433 . S
C242 H238 0.929 . S
C242 C244 1.378 . S
C242 C246 1.350 . S
C243 C246 1.463 . S
C243 C248 1.350 . S
C243 N251 1.427 . S
C244 H235 0.930 . S
C244 C242 1.378 . S
C244 C245 1.367 . S
C245 C244 1.367 . S
C245 C247 1.433 . S
C246 C242 1.350 . S
C246 C243 1.463 . S
C246 N250 1.427 . S
C247 H237 0.929 1_554 S
C247 C245 1.433 . S
C247 N250 1.384 . S
C248 H239 0.929 1_554 S
C248 C240 1.378 . S
C248 C243 1.350 . S
C249 H236 0.929 . S
C249 C241 1.433 . S
C249 N251 1.384 . S
N250 C246 1.427 . S
N250 C247 1.384 . S
N251 C243 1.427 . S
N251 C249 1.384 . S
H252 C258 0.930 . S
H253 C262 0.930 . S
H254 C267 0.929 . S
H255 C265 0.929 . S
H256 C260 0.929 . S
H257 C266 0.929 . S
C258 H252 0.930 . S
C258 C259 1.367 . S
C258 C266 1.378 . S
C259 C258 1.367 . S
C259 C267 1.433 . S
C260 H256 0.929 . S
C260 C262 1.378 . S
C260 C264 1.350 . S
C261 C264 1.463 . S
C261 C266 1.350 . S
C261 N269 1.427 . S
C262 H253 0.930 . S
C262 C260 1.378 . S
C262 C263 1.367 . S
C263 C262 1.367 . S
C263 C265 1.433 . S
C264 C260 1.350 . S
C264 C261 1.463 . S
C264 N268 1.427 . S
C265 H255 0.929 . S
C265 C263 1.433 . S
C265 N268 1.384 . S
C266 H257 0.929 . S
C266 C258 1.378 . S
C266 C261 1.350 . S
C267 H254 0.929 . S
C267 C259 1.433 . S
C267 N269 1.384 . S
N268 C264 1.427 . S
N268 C265 1.384 . S
N269 C261 1.427 . S
N269 C267 1.384 . S
H270 C276 0.930 . S
H271 C280 0.930 . S
H272 C285 0.929 . S
H273 C283 0.929 . S
H274 C278 0.929 . S
H275 C284 0.929 . S
C276 H270 0.930 . S
C276 C277 1.367 . S
C276 C284 1.378 . S
C277 C276 1.367 . S
C277 C285 1.433 . S
C278 H274 0.929 . S
C278 C280 1.378 . S
C278 C282 1.350 . S
C279 C282 1.463 . S
C279 C284 1.350 . S
C279 N287 1.427 . S
C280 H271 0.930 . S
C280 C278 1.378 . S
C280 C281 1.367 . S
C281 C280 1.367 . S
C281 C283 1.433 . S
C282 C278 1.350 . S
C282 C279 1.463 . S
C282 N286 1.427 . S
C283 H273 0.929 . S
C283 C281 1.433 . S
C283 N286 1.384 . S
C284 H275 0.929 . S
C284 C276 1.378 . S
C284 C279 1.350 . S
C285 H272 0.929 . S
C285 C277 1.433 . S
C285 N287 1.384 . S
N286 C282 1.427 . S
N286 C283 1.384 . S
N287 C279 1.427 . S
N287 C285 1.384 . S
H288 C294 0.930 . S
H289 C298 0.930 . S
H290 C303 0.929 . S
H291 C301 0.929 . S
H292 C296 0.929 . S
H293 C302 0.929 . S
C294 H288 0.930 . S
C294 C295 1.367 . S
C294 C302 1.378 . S
C295 C294 1.367 . S
C295 C303 1.433 . S
C296 H292 0.929 . S
C296 C298 1.378 . S
C296 C300 1.350 . S
C297 C300 1.463 . S
C297 C302 1.350 . S
C297 N305 1.427 . S
C298 H289 0.930 . S
C298 C296 1.378 . S
C298 C299 1.367 . S
C299 C298 1.367 . S
C299 C301 1.433 . S
C300 C296 1.350 . S
C300 C297 1.463 . S
C300 N304 1.427 . S
C301 H291 0.929 . S
C301 C299 1.433 . S
C301 N304 1.384 . S
C302 H293 0.929 . S
C302 C294 1.378 . S
C302 C297 1.350 . S
C303 H290 0.929 . S
C303 C295 1.433 . S
C303 N305 1.384 . S
N304 C300 1.427 . S
N304 C301 1.384 . S
N305 C297 1.427 . S
N305 C303 1.384 . S
H306 C312 0.930 . S
H307 C316 0.930 . S
H308 C321 0.929 . S
H309 C319 0.929 . S
H310 C314 0.929 . S
H311 C320 0.929 . S
C312 H306 0.930 . S
C312 C313 1.367 . S
C312 C320 1.378 . S
C313 C312 1.367 . S
C313 C321 1.433 . S
C314 H310 0.929 . S
C314 C316 1.378 . S
C314 C318 1.350 . S
C315 C318 1.463 . S
C315 C320 1.350 . S
C315 N323 1.427 . S
C316 H307 0.930 . S
C316 C314 1.378 . S
C316 C317 1.367 . S
C317 C316 1.367 . S
C317 C319 1.433 . S
C318 C314 1.350 . S
C318 C315 1.463 . S
C318 N322 1.427 . S
C319 H309 0.929 . S
C319 C317 1.433 . S
C319 N322 1.384 . S
C320 H311 0.929 . S
C320 C312 1.378 . S
C320 C315 1.350 . S
C321 H308 0.929 . S
C321 C313 1.433 . S
C321 N323 1.384 . S
N322 C318 1.427 . S
N322 C319 1.384 . S
N323 C315 1.427 . S
N323 C321 1.384 . S
H324 C330 0.930 . S
H325 C334 0.930 . S
H326 C339 0.929 . S
H327 C337 0.929 . S
H328 C332 0.929 . S
H329 C338 0.929 . S
C330 H324 0.930 . S
C330 C331 1.367 . S
C330 C338 1.378 . S
C331 C330 1.367 . S
C331 C339 1.433 . S
C332 H328 0.929 . S
C332 C334 1.378 . S
C332 C336 1.350 . S
C333 C336 1.463 . S
C333 C338 1.350 . S
C333 N341 1.427 . S
C334 H325 0.930 . S
C334 C332 1.378 . S
C334 C335 1.367 . S
C335 C334 1.367 . S
C335 C337 1.433 . S
C336 C332 1.350 . S
C336 C333 1.463 . S
C336 N340 1.427 . S
C337 H327 0.929 . S
C337 C335 1.433 . S
C337 N340 1.384 . S
C338 H329 0.929 . S
C338 C330 1.378 . S
C338 C333 1.350 . S
C339 H326 0.929 . S
C339 C331 1.433 . S
C339 N341 1.384 . S
N340 C336 1.427 . S
N340 C337 1.384 . S
N341 C333 1.427 . S
N341 C339 1.384 . S
H342 C348 0.930 . S
H343 C352 0.930 . S
H344 C357 0.929 . S
H345 C355 0.929 . S
H346 C350 0.929 . S
H347 C356 0.929 . S
C348 H342 0.930 . S
C348 C349 1.367 . S
C348 C356 1.378 . S
C349 C348 1.367 . S
C349 C357 1.433 . S
C350 H346 0.929 . S
C350 C352 1.378 . S
C350 C354 1.350 . S
C351 C354 1.463 . S
C351 C356 1.350 . S
C351 N359 1.427 . S
C352 H343 0.930 . S
C352 C350 1.378 . S
C352 C353 1.367 . S
C353 C352 1.367 . S
C353 C355 1.433 . S
C354 C350 1.350 . S
C354 C351 1.463 . S
C354 N358 1.427 . S
C355 H345 0.929 . S
C355 C353 1.433 . S
C355 N358 1.384 . S
C356 H347 0.929 . S
C356 C348 1.378 . S
C356 C351 1.350 . S
C357 H344 0.929 . S
C357 C349 1.433 . S
C357 N359 1.384 . S
N358 C354 1.427 . S
N358 C355 1.384 . S
N359 C351 1.427 . S
N359 C357 1.384 . S
H360 C366 0.930 . S
H361 C370 0.930 . S
H362 C375 0.929 . S
H363 C373 0.929 . S
H364 C368 0.929 . S
H365 C374 0.929 . S
C366 H360 0.930 . S
C366 C367 1.367 . S
C366 C374 1.378 . S
C367 C366 1.367 . S
C367 C375 1.433 . S
C368 H364 0.929 . S
C368 C370 1.378 . S
C368 C372 1.350 . S
C369 C372 1.463 . S
C369 C374 1.350 . S
C369 N377 1.427 . S
C370 H361 0.930 . S
C370 C368 1.378 . S
C370 C371 1.367 . S
C371 C370 1.367 . S
C371 C373 1.433 . S
C372 C368 1.350 . S
C372 C369 1.463 . S
C372 N376 1.427 . S
C373 H363 0.929 . S
C373 C371 1.433 . S
C373 N376 1.384 . S
C374 H365 0.929 . S
C374 C366 1.378 . S
C374 C369 1.350 . S
C375 H362 0.929 . S
C375 C367 1.433 . S
C375 N377 1.384 . S
N376 C372 1.427 . S
N376 C373 1.384 . S
N377 C369 1.427 . S
N377 C375 1.384 . S
H378 C384 0.930 . S
H379 C388 0.930 . S
H380 C393 0.929 1_554 S
H381 C391 0.929 . S
H382 C386 0.929 . S
H383 C392 0.929 . S
C384 H378 0.930 . S
C384 C385 1.367 . S
C384 C392 1.378 . S
C385 C384 1.367 . S
C385 C393 1.433 . S
C386 H382 0.929 . S
C386 C388 1.378 . S
C386 C390 1.350 . S
C387 C390 1.463 . S
C387 C392 1.350 . S
C387 N395 1.427 . S
C388 H379 0.930 . S
C388 C386 1.378 . S
C388 C389 1.367 . S
C389 C388 1.367 . S
C389 C391 1.433 . S
C390 C386 1.350 . S
C390 C387 1.463 . S
C390 N394 1.427 . S
C391 H381 0.929 . S
C391 C389 1.433 . S
C391 N394 1.384 . S
C392 H383 0.929 . S
C392 C384 1.378 . S
C392 C387 1.350 . S
C393 H380 0.929 1_556 S
C393 C385 1.433 . S
C393 N395 1.384 . S
N394 C390 1.427 . S
N394 C391 1.384 . S
N395 C387 1.427 . S
N395 C393 1.384 . S
H396 C402 0.930 . S
H397 C406 0.930 . S
H398 C411 0.929 . S
H399 C409 0.929 . S
H400 C404 0.929 . S
H401 C410 0.929 . S
C402 H396 0.930 . S
C402 C403 1.367 . S
C402 C410 1.378 . S
C403 C402 1.367 . S
C403 C411 1.433 . S
C404 H400 0.929 . S
C404 C406 1.378 . S
C404 C408 1.350 . S
C405 C408 1.463 . S
C405 C410 1.350 . S
C405 N413 1.427 . S
C406 H397 0.930 . S
C406 C404 1.378 . S
C406 C407 1.367 . S
C407 C406 1.367 . S
C407 C409 1.433 . S
C408 C404 1.350 . S
C408 C405 1.463 . S
C408 N412 1.427 . S
C409 H399 0.929 . S
C409 C407 1.433 . S
C409 N412 1.384 . S
C410 H401 0.929 . S
C410 C402 1.378 . S
C410 C405 1.350 . S
C411 H398 0.929 . S
C411 C403 1.433 . S
C411 N413 1.384 . S
N412 C408 1.427 . S
N412 C409 1.384 . S
N413 C405 1.427 . S
N413 C411 1.384 . S
H414 C420 0.930 . S
H415 C424 0.930 1_545 S
H416 C429 0.929 . S
H417 C427 0.929 . S
H418 C422 0.929 . S
H419 C428 0.929 . S
C420 H414 0.930 . S
C420 C421 1.367 . S
C420 C428 1.378 . S
C421 C420 1.367 . S
C421 C429 1.433 . S
C422 H418 0.929 . S
C422 C424 1.378 . S
C422 C426 1.350 . S
C423 C426 1.463 . S
C423 C428 1.350 . S
C423 N431 1.427 . S
C424 H415 0.930 1_565 S
C424 C422 1.378 . S
C424 C425 1.367 . S
C425 C424 1.367 . S
C425 C427 1.433 . S
C426 C422 1.350 . S
C426 C423 1.463 . S
C426 N430 1.427 . S
C427 H417 0.929 . S
C427 C425 1.433 . S
C427 N430 1.384 . S
C428 H419 0.929 . S
C428 C420 1.378 . S
C428 C423 1.350 . S
C429 H416 0.929 . S
C429 C421 1.433 . S
C429 N431 1.384 . S
N430 C426 1.427 . S
N430 C427 1.384 . S
N431 C423 1.427 . S
N431 C429 1.384 . S
C227 C111 1.650 . S
C223 C40 1.664 . S
C241 C4 1.664 . S
C245 C206 1.651 . S
C259 C16 1.664 . S
C263 C122 1.666 . S
C277 C28 1.632 . S
C281 C195 1.629 . S
C299 C106 1.426 . S
C295 C9 1.609 . S
C317 C199 1.707 . S
C313 C18 1.708 . S
C331 C33 1.635 . S
C335 C115 1.652 . S
C349 C45 1.606 . S
C353 C190 1.429 . S
C371 C201 1.393 . S
C367 C21 1.568 . S
C389 C117 1.394 . S
C385 C30 1.565 1_556 S
C407 C188 1.641 . S
C403 C42 1.628 . S
C421 C6 1.575 . S
C425 C104 1.594 . S
