# Generated by pormake.
# Topology llk, (3,12)-cn, num edge types: 1
# Building blocks:
#     Node 0, Type 0, BuildingBlock: MIDCAF_clean_linker_0, # of connection points: 3
#     Node 1, Type 0, BuildingBlock: MIDCAF_clean_linker_0, # of connection points: 3
#     Node 2, Type 0, BuildingBlock: MIDCAF_clean_linker_0, # of connection points: 3
#     Node 3, Type 0, BuildingBlock: MIDCAF_clean_linker_0, # of connection points: 3
#     Node 4, Type 0, BuildingBlock: MIDCAF_clean_linker_0, # of connection points: 3
#     Node 5, Type 0, BuildingBlock: MIDCAF_clean_linker_0, # of connection points: 3
#     Node 6, Type 0, BuildingBlock: MIDCAF_clean_linker_0, # of connection points: 3
#     Node 7, Type 0, BuildingBlock: MIDCAF_clean_linker_0, # of connection points: 3
#     Node 8, Type 0, BuildingBlock: MIDCAF_clean_linker_0, # of connection points: 3
#     Node 9, Type 0, BuildingBlock: MIDCAF_clean_linker_0, # of connection points: 3
#     Node 10, Type 0, BuildingBlock: MIDCAF_clean_linker_0, # of connection points: 3
#     Node 11, Type 0, BuildingBlock: MIDCAF_clean_linker_0, # of connection points: 3
#     Node 12, Type 0, BuildingBlock: MIDCAF_clean_linker_0, # of connection points: 3
#     Node 13, Type 0, BuildingBlock: MIDCAF_clean_linker_0, # of connection points: 3
#     Node 14, Type 0, BuildingBlock: MIDCAF_clean_linker_0, # of connection points: 3
#     Node 15, Type 0, BuildingBlock: MIDCAF_clean_linker_0, # of connection points: 3
#     Node 16, Type 0, BuildingBlock: MIDCAF_clean_linker_0, # of connection points: 3
#     Node 17, Type 0, BuildingBlock: MIDCAF_clean_linker_0, # of connection points: 3
#     Node 18, Type 0, BuildingBlock: MIDCAF_clean_linker_0, # of connection points: 3
#     Node 19, Type 0, BuildingBlock: MIDCAF_clean_linker_0, # of connection points: 3
#     Node 20, Type 0, BuildingBlock: MIDCAF_clean_linker_0, # of connection points: 3
#     Node 21, Type 0, BuildingBlock: MIDCAF_clean_linker_0, # of connection points: 3
#     Node 22, Type 0, BuildingBlock: MIDCAF_clean_linker_0, # of connection points: 3
#     Node 23, Type 0, BuildingBlock: MIDCAF_clean_linker_0, # of connection points: 3
#     Node 24, Type 1, BuildingBlock: QEWDON_clean_sbu_0, # of connection points: 12
#     Node 25, Type 1, BuildingBlock: QEWDON_clean_sbu_0, # of connection points: 12
#     Node 26, Type 1, BuildingBlock: QEWDON_clean_sbu_0, # of connection points: 12
#     Node 27, Type 1, BuildingBlock: QEWDON_clean_sbu_0, # of connection points: 12
#     Node 28, Type 1, BuildingBlock: QEWDON_clean_sbu_0, # of connection points: 12
#     Node 29, Type 1, BuildingBlock: QEWDON_clean_sbu_0, # of connection points: 12
#     Edge 30, Type (0, 1), None
#     Edge 31, Type (0, 1), None
#     Edge 32, Type (0, 1), None
#     Edge 33, Type (0, 1), None
#     Edge 34, Type (0, 1), None
#     Edge 35, Type (0, 1), None
#     Edge 36, Type (0, 1), None
#     Edge 37, Type (0, 1), None
#     Edge 38, Type (0, 1), None
#     Edge 39, Type (0, 1), None
#     Edge 40, Type (0, 1), None
#     Edge 41, Type (0, 1), None
#     Edge 42, Type (0, 1), None
#     Edge 43, Type (0, 1), None
#     Edge 44, Type (0, 1), None
#     Edge 45, Type (0, 1), None
#     Edge 46, Type (0, 1), None
#     Edge 47, Type (0, 1), None
#     Edge 48, Type (0, 1), None
#     Edge 49, Type (0, 1), None
#     Edge 50, Type (0, 1), None
#     Edge 51, Type (0, 1), None
#     Edge 52, Type (0, 1), None
#     Edge 53, Type (0, 1), None
#     Edge 54, Type (0, 1), None
#     Edge 55, Type (0, 1), None
#     Edge 56, Type (0, 1), None
#     Edge 57, Type (0, 1), None
#     Edge 58, Type (0, 1), None
#     Edge 59, Type (0, 1), None
#     Edge 60, Type (0, 1), None
#     Edge 61, Type (0, 1), None
#     Edge 62, Type (0, 1), None
#     Edge 63, Type (0, 1), None
#     Edge 64, Type (0, 1), None
#     Edge 65, Type (0, 1), None
#     Edge 66, Type (0, 1), None
#     Edge 67, Type (0, 1), None
#     Edge 68, Type (0, 1), None
#     Edge 69, Type (0, 1), None
#     Edge 70, Type (0, 1), None
#     Edge 71, Type (0, 1), None
#     Edge 72, Type (0, 1), None
#     Edge 73, Type (0, 1), None
#     Edge 74, Type (0, 1), None
#     Edge 75, Type (0, 1), None
#     Edge 76, Type (0, 1), None
#     Edge 77, Type (0, 1), None
#     Edge 78, Type (0, 1), None
#     Edge 79, Type (0, 1), None
#     Edge 80, Type (0, 1), None
#     Edge 81, Type (0, 1), None
#     Edge 82, Type (0, 1), None
#     Edge 83, Type (0, 1), None
#     Edge 84, Type (0, 1), None
#     Edge 85, Type (0, 1), None
#     Edge 86, Type (0, 1), None
#     Edge 87, Type (0, 1), None
#     Edge 88, Type (0, 1), None
#     Edge 89, Type (0, 1), None
#     Edge 90, Type (0, 1), None
#     Edge 91, Type (0, 1), None
#     Edge 92, Type (0, 1), None
#     Edge 93, Type (0, 1), None
#     Edge 94, Type (0, 1), None
#     Edge 95, Type (0, 1), None
#     Edge 96, Type (0, 1), None
#     Edge 97, Type (0, 1), None
#     Edge 98, Type (0, 1), None
#     Edge 99, Type (0, 1), None
#     Edge 100, Type (0, 1), None
#     Edge 101, Type (0, 1), None
# Relax obj value: 0.133
# Max RMSD: 0.163
# Mean RMSD: 0.148
data_MOF--net-llk--node1-QEWDON_clean_sbu_0--node2-MIDCAF_clean_linker_0--edge1-none
_symmetry_space_group_name_H-M    P1
_symmetry_Int_Tables_number       1
_symmetry_cell_setting            triclinic
loop_
_symmetry_equiv_pos_as_xyz
'x, y, z'
_cell_length_a     32.233331
_cell_length_b     33.220983
_cell_length_c     32.761048
_cell_angle_alpha  90.06522
_cell_angle_beta   90.114565
_cell_angle_gamma 89.931915
loop_
_atom_site_label
_atom_site_type_symbol
_atom_site_fract_x
_atom_site_fract_y
_atom_site_fract_z
_atom_type_partial_charge
C0 C 0.09914 0.37765 0.20215 0.0
C1 C 0.07544 0.36194 0.16989 0.0
C2 C 0.05846 0.32306 0.17407 0.0
C3 C 0.06353 0.30128 0.21057 0.0
H4 H 0.01385 0.20164 0.29574 0.0
H5 H 0.97918 0.14391 0.32701 0.0
H6 H 0.07494 0.13772 0.41892 0.0
H7 H 0.10909 0.19594 0.38825 0.0
H8 H 0.04068 0.29944 0.425 0.0
H9 H 0.00943 0.35274 0.4657 0.0
H10 H 0.08442 0.44082 0.40301 0.0
H11 H 0.11499 0.38762 0.3616 0.0
H12 H 0.12204 0.36976 0.26267 0.0
H13 H 0.1134 0.40707 0.19983 0.0
H14 H 0.04035 0.3099 0.14959 0.0
H15 H 0.04866 0.27223 0.21361 0.0
N16 N 0.07808 0.25951 0.29117 0.0
N17 N 0.08003 0.27077 0.36216 0.0
N18 N 0.08971 0.32438 0.31739 0.0
C19 C 0.0765 0.24496 0.33021 0.0
C20 C 0.08648 0.3105 0.35603 0.0
C21 C 0.08588 0.29947 0.28476 0.0
C22 C 0.0641 0.20319 0.33956 0.0
C23 C 0.02842 0.18686 0.32153 0.0
C24 C 0.00841 0.15409 0.33973 0.0
C25 C 0.02426 0.13659 0.37568 0.0
C26 C 0.06222 0.15033 0.3912 0.0
C27 C 0.08174 0.18366 0.37356 0.0
C28 C 0.07951 0.33955 0.38939 0.0
C29 C 0.0516 0.32998 0.42084 0.0
C30 C 0.03338 0.36055 0.44395 0.0
C31 C 0.04344 0.40096 0.43646 0.0
C32 C 0.07546 0.40995 0.40891 0.0
C33 C 0.0931 0.37949 0.38525 0.0
C34 C 0.0857 0.31804 0.24346 0.0
C35 C 0.10427 0.35603 0.23826 0.0
C36 C 0.72404 0.11384 0.07257 0.0
C37 C 0.75217 0.08251 0.06419 0.0
C38 C 0.77987 0.07027 0.09489 0.0
C39 C 0.77499 0.0847 0.13469 0.0
H40 H 0.82337 0.13588 0.25113 0.0
H41 H 0.8781 0.11809 0.29855 0.0
H42 H 0.78759 0.07378 0.38432 0.0
H43 H 0.73195 0.09102 0.3363 0.0
H44 H 0.65823 0.0207 0.24033 0.0
H45 H 0.60785 0.99401 0.2884 0.0
H46 H 0.55096 0.11168 0.29679 0.0
H47 H 0.60274 0.13835 0.25009 0.0
H48 H 0.69351 0.14836 0.11884 0.0
H49 H 0.70326 0.12496 0.04937 0.0
H50 H 0.80222 0.04653 0.08932 0.0
H51 H 0.79376 0.0718 0.15885 0.0
N52 N 0.75453 0.11872 0.21696 0.0
N53 N 0.70215 0.10459 0.26406 0.0
N54 N 0.68725 0.10375 0.19397 0.0
C55 C 0.74207 0.11471 0.2563 0.0
C56 C 0.67464 0.09953 0.2331 0.0
C57 C 0.7272 0.11401 0.18586 0.0
C58 C 0.77336 0.1137 0.28931 0.0
C59 C 0.81478 0.12301 0.28028 0.0
C60 C 0.84619 0.11276 0.30742 0.0
C61 C 0.83687 0.09355 0.34437 0.0
C62 C 0.79536 0.0882 0.35569 0.0
C63 C 0.76365 0.09809 0.32816 0.0
C64 C 0.63456 0.0816 0.24266 0.0
C65 C 0.63345 0.04018 0.25084 0.0
C66 C 0.60454 0.02493 0.27841 0.0
C67 C 0.57697 0.05131 0.2981 0.0
C68 C 0.57293 0.09095 0.28325 0.0
C69 C 0.60236 0.10632 0.25631 0.0
C70 C 0.7422 0.11107 0.14389 0.0
C71 C 0.7185 0.12748 0.11231 0.0
C72 C 0.01257 0.66669 0.16185 0.0
C73 C 0.05159 0.65674 0.14571 0.0
C74 C 0.08532 0.68259 0.15332 0.0
C75 C 0.08109 0.71538 0.17975 0.0
H76 H -0.0009 0.85536 0.24296 0.0
H77 H 0.97714 0.92132 0.27004 0.0
H78 H 0.03728 0.89354 0.38456 0.0
H79 H 0.06071 0.83046 0.35756 0.0
H80 H 0.01574 0.73861 0.38477 0.0
H81 H 0.99642 0.685 0.43165 0.0
H82 H 0.06354 0.59896 0.35833 0.0
H83 H 0.08246 0.6524 0.31062 0.0
H84 H 0.9792 0.70385 0.20414 0.0
H85 H 0.98591 0.64767 0.15614 0.0
H86 H 0.11566 0.67626 0.14066 0.0
H87 H 0.10851 0.7323 0.18827 0.0
N88 N 0.03823 0.78115 0.2472 0.0
N89 N 0.04491 0.76811 0.3175 0.0
N90 N 0.05034 0.71531 0.27125 0.0
C91 C 0.03914 0.79478 0.28665 0.0
C92 C 0.05074 0.72858 0.31011 0.0
C93 C 0.04426 0.74103 0.23983 0.0
C94 C 0.03118 0.83732 0.2982 0.0
C95 C 0.00848 0.86408 0.27347 0.0
C96 C 0.99566 0.90162 0.28909 0.0
C97 C 0.0051 0.91254 0.32967 0.0
C98 C 0.02924 0.88634 0.35332 0.0
C99 C 0.0426 0.84976 0.33769 0.0
C100 C 0.04994 0.69941 0.34371 0.0
C101 C 0.02766 0.70858 0.37932 0.0
C102 C 0.01642 0.67799 0.40604 0.0
C103 C 0.02836 0.63821 0.39804 0.0
C104 C 0.05443 0.62965 0.36502 0.0
C105 C 0.06494 0.66011 0.33772 0.0
C106 C 0.04314 0.72292 0.19905 0.0
C107 C 0.00849 0.69939 0.18858 0.0
C108 C 0.33933 0.96207 0.14347 0.0
C109 C 0.32403 0.99696 0.12443 0.0
C110 C 0.28508 0.01209 0.13637 0.0
C111 C 0.26361 0.99469 0.16904 0.0
H112 H 0.16344 0.00991 0.27424 0.0
H113 H 0.11292 0.02756 0.32683 0.0
H114 H 0.11666 0.90516 0.37138 0.0
H115 H 0.16632 0.88787 0.31856 0.0
H116 H 0.26169 0.95176 0.38218 0.0
H117 H 0.30522 0.98184 0.43458 0.0
H118 H 0.40899 0.98052 0.35146 0.0
H119 H 0.3657 0.95089 0.29882 0.0
H120 H 0.33242 0.92024 0.19264 0.0
H121 H 0.36904 0.94941 0.13485 0.0
H122 H 0.2723 0.03873 0.12203 0.0
H123 H 0.23509 0.00857 0.17944 0.0
N124 N 0.22423 0.95088 0.24013 0.0
N125 N 0.24022 0.93966 0.30911 0.0
N126 N 0.29376 0.94799 0.26233 0.0
C127 C 0.21168 0.94335 0.27906 0.0
C128 C 0.28118 0.94247 0.30139 0.0
C129 C 0.26565 0.95155 0.2315 0.0
C130 C 0.16856 0.94755 0.29242 0.0
C131 C 0.15133 0.98632 0.29367 0.0
C132 C 0.12317 0.99659 0.32447 0.0
C133 C 0.11184 0.96809 0.35419 0.0
C134 C 0.12499 0.92802 0.34935 0.0
C135 C 0.15298 0.91784 0.31862 0.0
C136 C 0.31001 0.94962 0.33584 0.0
C137 C 0.29409 0.95689 0.37523 0.0
C138 C 0.31889 0.97439 0.40533 0.0
C139 C 0.36024 0.98413 0.39694 0.0
C140 C 0.37722 0.97339 0.35894 0.0
C141 C 0.35233 0.95636 0.32862 0.0
C142 C 0.28116 0.96239 0.19062 0.0
C143 C 0.31835 0.94528 0.17656 0.0
C144 C -0.00174 0.64105 0.86745 0.0
C145 C 0.96246 0.63545 0.89097 0.0
C146 C 0.93155 0.66538 0.89078 0.0
C147 C 0.93474 0.69879 0.86524 0.0
H148 H 0.00661 0.83592 0.81093 0.0
H149 H 0.02933 0.90363 0.79247 0.0
H150 H 0.94487 0.90294 0.68989 0.0
H151 H 0.92238 0.83565 0.70821 0.0
H152 H 0.97955 0.7468 0.65628 0.0
H153 H 0.00284 0.70044 0.60313 0.0
H154 H 0.94603 0.60166 0.66729 0.0
H155 H 0.92226 0.64762 0.72016 0.0
H156 H 0.02666 0.67559 0.81979 0.0
H157 H 0.02244 0.61843 0.86697 0.0
H158 H 0.90364 0.66182 0.9086 0.0
H159 H 0.90892 0.71963 0.86329 0.0
N160 N 0.96393 0.76662 0.80045 0.0
N161 N 0.95119 0.76478 0.72965 0.0
N162 N 0.956 0.70486 0.76634 0.0
C163 C 0.95774 0.78631 0.76435 0.0
C164 C 0.94988 0.72412 0.73055 0.0
C165 C 0.96296 0.72563 0.80117 0.0
C166 C 0.96333 0.83025 0.76058 0.0
C167 C 0.992 0.85081 0.78525 0.0
C168 C 0.00515 0.88952 0.77448 0.0
C169 C 0.98969 0.90821 0.73901 0.0
C170 C 0.95803 0.88911 0.71684 0.0
C171 C 0.94507 0.85053 0.72745 0.0
C172 C 0.94988 0.70051 0.69265 0.0
C173 C 0.97019 0.71553 0.65798 0.0
C174 C 0.98368 0.68908 0.62768 0.0
C175 C 0.97602 0.64771 0.6314 0.0
C176 C 0.95121 0.63357 0.66333 0.0
C177 C 0.93815 0.65984 0.69383 0.0
C178 C 0.96839 0.70221 0.83865 0.0
C179 C 0.00087 0.67394 0.84088 0.0
C180 C 0.17319 0.94139 0.69686 0.0
C181 C 0.17488 0.97554 0.67135 0.0
C182 C 0.21278 0.99546 0.66618 0.0
C183 C 0.24806 0.98211 0.68697 0.0
H184 H 0.29486 0.99751 0.83035 0.0
H185 H 0.32828 0.0356 0.88477 0.0
H186 H 0.4213 0.94296 0.89643 0.0
H187 H 0.38847 0.90511 0.84151 0.0
H188 H 0.43614 0.93864 0.74377 0.0
H189 H 0.48099 0.97881 0.70004 0.0
H190 H 0.39753 0.95912 0.59892 0.0
H191 H 0.3542 0.91726 0.6412 0.0
H192 H 0.20667 0.90169 0.73698 0.0
H193 H 0.1444 0.92508 0.70089 0.0
H194 H 0.2149 0.02197 0.64707 0.0
H195 H 0.27702 0.99815 0.68292 0.0
N196 N 0.29036 0.93986 0.77382 0.0
N197 N 0.36097 0.92463 0.765 0.0
N198 N 0.3166 0.92557 0.70876 0.0
C199 C 0.32886 0.93384 0.79011 0.0
C200 C 0.35521 0.92061 0.72423 0.0
C201 C 0.2841 0.93456 0.73306 0.0
C202 C 0.33928 0.9485 0.83143 0.0
C203 C 0.32149 0.98444 0.84562 0.0
C204 C 0.34103 0.00654 0.87645 0.0
C205 C 0.37822 0.99274 0.89417 0.0
C206 C 0.39318 0.95461 0.88321 0.0
C207 C 0.37411 0.9328 0.85185 0.0
C208 C 0.39066 0.92606 0.69632 0.0
C209 C 0.42849 0.94097 0.71165 0.0
C210 C 0.45395 0.96446 0.68681 0.0
C211 C 0.44219 0.97247 0.64639 0.0
C212 C 0.40775 0.95276 0.6297 0.0
C213 C 0.38266 0.92898 0.65425 0.0
C214 C 0.24598 0.94872 0.71323 0.0
C215 C 0.20851 0.92812 0.71774 0.0
C216 C 0.97601 0.34284 0.84079 0.0
C217 C -0.00088 0.37779 0.84962 0.0
C218 C 0.03368 0.38684 0.82541 0.0
C219 C 0.04361 0.36305 0.79183 0.0
H220 H 0.04975 0.19168 0.73111 0.0
H221 H 0.06386 0.12772 0.69644 0.0
H222 H 0.98813 0.16568 0.59477 0.0
H223 H 0.97393 0.22917 0.62939 0.0
H224 H 0.02724 0.32328 0.59208 0.0
H225 H 0.05367 0.37241 0.54282 0.0
H226 H 0.14047 0.41577 0.63365 0.0
H227 H 0.1131 0.36801 0.68267 0.0
H228 H 0.96635 0.29345 0.79927 0.0
H229 H 0.9493 0.33492 0.8591 0.0
H230 H 0.05251 0.41317 0.83154 0.0
H231 H 0.06979 0.37189 0.77321 0.0
N232 N 0.0131 0.27205 0.73224 0.0
N233 N 0.03449 0.28081 0.66406 0.0
N234 N 0.04322 0.3329 0.71096 0.0
C235 C 0.01758 0.2574 0.6935 0.0
C236 C 0.04773 0.3183 0.67272 0.0
C237 C 0.0255 0.31048 0.74078 0.0
C238 C 0.01054 0.21503 0.68297 0.0
C239 C 0.03428 0.1853 0.70244 0.0
C240 C 0.043 0.14914 0.68223 0.0
C241 C 0.02742 0.14215 0.64274 0.0
C242 C 0.00017 0.17017 0.62528 0.0
C243 C 0.99178 0.20634 0.64525 0.0
C244 C 0.06752 0.34291 0.64125 0.0
C245 C 0.05244 0.34299 0.60102 0.0
C246 C 0.06763 0.37089 0.5729 0.0
C247 C 0.09863 0.39831 0.5846 0.0
C248 C 0.11633 0.3953 0.62373 0.0
C249 C 0.10046 0.36825 0.65199 0.0
C250 C 0.01906 0.32965 0.78117 0.0
C251 C 0.98591 0.31892 0.80674 0.0
C252 C 0.91063 0.14119 0.72039 0.0
C253 C 0.92229 0.10045 0.71882 0.0
C254 C 0.90992 0.07499 0.75089 0.0
C255 C 0.87933 0.08772 0.77832 0.0
H256 H 0.76356 0.06455 0.86122 0.0
H257 H 0.712 0.03266 0.90534 0.0
H258 H 0.61344 0.09168 0.83922 0.0
H259 H 0.66501 0.12271 0.79402 0.0
H260 H 0.74537 0.03157 0.70134 0.0
H261 H 0.72133 0.0059 0.63606 0.0
H262 H 0.73413 0.1249 0.58379 0.0
H263 H 0.7601 0.14987 0.64952 0.0
H264 H 0.86678 0.1834 0.74399 0.0
H265 H 0.92098 0.16213 0.69723 0.0
H266 H 0.91959 0.04376 0.75167 0.0
H267 H 0.8652 0.06538 0.79795 0.0
N268 N 0.78846 0.11591 0.79962 0.0
N269 N 0.73538 0.10184 0.75227 0.0
N270 N 0.80125 0.11912 0.72907 0.0
C271 C 0.74786 0.10683 0.79156 0.0
C272 C 0.76202 0.10801 0.72106 0.0
C273 C 0.81481 0.1235 0.76796 0.0
C274 C 0.71829 0.09594 0.82417 0.0
C275 C 0.73104 0.07159 0.85677 0.0
C276 C 0.70152 0.05306 0.88168 0.0
C277 C 0.65887 0.05944 0.87513 0.0
C278 C 0.64613 0.08625 0.84465 0.0
C279 C 0.67564 0.10401 0.81902 0.0
C280 C 0.75206 0.09294 0.6804 0.0
C281 C 0.74359 0.05192 0.67555 0.0
C282 C 0.73069 0.03716 0.6379 0.0
C283 C 0.72443 0.06367 0.605 0.0
C284 C 0.73798 0.10385 0.60875 0.0
C285 C 0.75201 0.11837 0.64638 0.0
C286 C 0.86006 0.1252 0.77263 0.0
C287 C 0.88025 0.15376 0.74805 0.0
C288 C 0.10937 0.36306 0.01492 0.0
C289 C 0.10829 0.36033 0.97217 0.0
C290 C 0.13085 0.32947 0.95281 0.0
C291 C 0.15753 0.30474 0.97553 0.0
H292 H 0.26612 0.22586 0.96835 0.0
H293 H 0.3208 0.18074 0.94369 0.0
H294 H 0.36102 0.16046 0.06781 0.0
H295 H 0.30707 0.20616 0.09225 0.0
H296 H 0.33021 0.31304 0.12139 0.0
H297 H 0.38445 0.36367 0.11725 0.0
H298 H 0.29803 0.44629 0.06083 0.0
H299 H 0.24381 0.39607 0.06538 0.0
H300 H 0.1383 0.34344 0.0701 0.0
H301 H 0.09199 0.38616 0.03077 0.0
H302 H 0.13029 0.32634 0.91991 0.0
H303 H 0.17748 0.28374 0.95955 0.0
N304 N 0.21923 0.2619 0.02907 0.0
N305 N 0.27533 0.28057 0.07088 0.0
N306 N 0.21873 0.32366 0.06399 0.0
C307 C 0.2568 0.25319 0.04619 0.0
C308 C 0.25684 0.31615 0.07949 0.0
C309 C 0.19939 0.29673 0.03935 0.0
C310 C 0.28216 0.21901 0.03219 0.0
C311 C 0.28595 0.21084 0.99033 0.0
C312 C 0.31766 0.18565 0.97624 0.0
C313 C 0.34546 0.1676 0.00385 0.0
C314 C 0.34013 0.17401 0.04585 0.0
C315 C 0.30908 0.19988 0.05984 0.0
C316 C 0.28307 0.3501 0.0927 0.0
C317 C 0.3224 0.34254 0.10957 0.0
C318 C 0.35357 0.37149 0.10687 0.0
C319 C 0.34586 0.40824 0.087 0.0
C320 C 0.30516 0.41773 0.07515 0.0
C321 C 0.27389 0.389 0.07833 0.0
C322 C 0.16185 0.31067 0.01779 0.0
C323 C 0.13577 0.33842 0.03749 0.0
C324 C 0.13259 0.65923 0.04578 0.0
C325 C 0.10077 0.66096 0.01661 0.0
C326 C 0.09364 0.698 0.99663 0.0
C327 C 0.12147 0.73023 0.00109 0.0
H328 H 0.273 0.82579 0.06397 0.0
H329 H 0.33102 0.87305 0.07019 0.0
H330 H 0.34005 0.87881 0.93879 0.0
H331 H 0.28248 0.83142 0.93298 0.0
H332 H 0.31883 0.7137 0.91932 0.0
H333 H 0.37825 0.66845 0.92393 0.0
H334 H 0.31874 0.60373 0.022 0.0
H335 H 0.25838 0.64737 0.01586 0.0
H336 H 0.1864 0.68774 0.07056 0.0
H337 H 0.1402 0.63114 0.0606 0.0
H338 H 0.06901 0.70072 0.97424 0.0
H339 H 0.11871 0.75568 0.9806 0.0
N340 N 0.21217 0.7785 0.01117 0.0
N341 N 0.27208 0.756 0.97654 0.0
N342 N 0.21944 0.7107 0.99138 0.0
C343 C 0.25026 0.78643 0.99396 0.0
C344 C 0.25686 0.71816 0.97534 0.0
C345 C 0.19666 0.74003 0.00892 0.0
C346 C 0.27256 0.82539 0.998 0.0
C347 C 0.28615 0.83862 0.0365 0.0
C348 C 0.32006 0.86513 0.03995 0.0
C349 C 0.34112 0.87913 0.00495 0.0
C350 C 0.32513 0.86847 0.96645 0.0
C351 C 0.29161 0.84172 0.96308 0.0
C352 C 0.28474 0.68438 0.96768 0.0
C353 C 0.31771 0.68859 0.94037 0.0
C354 C 0.35154 0.66273 0.9431 0.0
C355 C 0.35304 0.63356 0.97412 0.0
C356 C 0.31814 0.62643 0.99827 0.0
C357 C 0.28369 0.65133 0.99451 0.0
C358 C 0.15673 0.72616 0.02589 0.0
C359 C 0.1592 0.69213 0.05155 0.0
C360 C 0.96089 0.33993 0.98126 0.0
C361 C 0.95833 0.35658 0.0207 0.0
C362 C 0.92946 0.34019 0.04814 0.0
C363 C 0.89966 0.3127 0.03452 0.0
H364 H 0.80703 0.18722 0.98144 0.0
H365 H 0.75273 0.1362 0.98218 0.0
H366 H 0.68592 0.20062 0.88834 0.0
H367 H 0.74057 0.25141 0.88737 0.0
H368 H 0.78714 0.37532 0.03024 0.0
H369 H 0.72764 0.41723 0.0493 0.0
H370 H 0.67844 0.40367 0.92704 0.0
H371 H 0.73579 0.35991 0.90948 0.0
H372 H 0.92953 0.30529 0.93523 0.0
H373 H 0.98414 0.35041 0.96002 0.0
H374 H 0.92727 0.35138 0.07913 0.0
H375 H 0.87463 0.30468 0.05499 0.0
N376 N 0.84009 0.26182 0.96078 0.0
N377 N 0.77779 0.29574 0.94559 0.0
N378 N 0.83206 0.33072 0.97635 0.0
C379 C 0.80052 0.26137 0.9452 0.0
C380 C 0.79323 0.33024 0.96127 0.0
C381 C 0.85603 0.29725 0.97543 0.0
C382 C 0.77788 0.22371 0.93487 0.0
C383 C 0.7818 0.18956 0.95968 0.0
C384 C 0.7502 0.16056 0.96041 0.0
C385 C 0.71406 0.16507 0.93632 0.0
C386 C 0.71282 0.19648 0.90777 0.0
C387 C 0.74433 0.22554 0.90716 0.0
C388 C 0.7653 0.36414 0.9686 0.0
C389 C 0.76404 0.38247 0.00728 0.0
C390 C 0.73013 0.40637 0.01821 0.0
C391 C 0.69808 0.41314 0.99001 0.0
C392 C 0.70239 0.39879 0.94975 0.0
C393 C 0.73513 0.37359 0.93952 0.0
C394 C 0.89776 0.30156 0.99317 0.0
C395 C 0.9304 0.31303 0.96736 0.0
C396 C 0.76316 0.89424 0.97044 0.0
C397 C 0.72396 0.89337 0.95133 0.0
C398 C 0.71182 0.85853 0.93036 0.0
C399 C 0.73645 0.82397 0.93201 0.0
H400 H 0.9021 0.73458 0.00063 0.0
H401 H 0.94893 0.67883 0.01729 0.0
H402 H 0.85623 0.59368 0.97744 0.0
H403 H 0.81014 0.64931 0.95989 0.0
H404 H 0.75427 0.67478 0.07557 0.0
H405 H 0.69532 0.63009 0.08646 0.0
H406 H 0.61691 0.71079 0.01743 0.0
H407 H 0.67515 0.75594 0.00745 0.0
H408 H 0.81468 0.85928 0.99217 0.0
H409 H 0.77357 0.92093 0.98648 0.0
H410 H 0.68224 0.85727 0.91463 0.0
H411 H 0.7243 0.79631 0.9191 0.0
N412 N 0.81622 0.76198 0.96838 0.0
N413 N 0.78895 0.71269 0.01245 0.0
N414 N 0.75253 0.7721 0.0021 0.0
C415 C 0.81923 0.72516 0.98686 0.0
C416 C 0.75574 0.73603 0.02042 0.0
C417 C 0.78232 0.78546 0.97652 0.0
C418 C 0.85274 0.69617 0.97889 0.0
C419 C 0.89288 0.70412 0.99307 0.0
C420 C 0.91932 0.67213 0.00315 0.0
C421 C 0.90589 0.63192 -0.00095 0.0
C422 C 0.86752 0.62423 0.98057 0.0
C423 C 0.84126 0.65613 0.97038 0.0
C424 C 0.71938 0.71809 0.0398 0.0
C425 C 0.72402 0.68371 0.06424 0.0
C426 C 0.69044 0.65818 0.07035 0.0
C427 C 0.65239 0.66665 0.05142 0.0
C428 C 0.64647 0.70343 0.0314 0.0
C429 C 0.67973 0.72938 0.02609 0.0
C430 C 0.77296 0.82331 0.9556 0.0
C431 C 0.78732 0.85927 0.9729 0.0
C432 C 0.60093 0.86429 0.62483 0.0
C433 C 0.56629 0.88709 0.61256 0.0
C434 C 0.52759 0.87886 0.63058 0.0
C435 C 0.52473 0.85187 0.66335 0.0
H436 H 0.546 0.69862 0.74832 0.0
H437 H 0.52505 0.63894 0.78853 0.0
H438 H 0.50549 0.71509 0.89366 0.0
H439 H 0.52448 0.77302 0.8547 0.0
H440 H 0.61573 0.84526 0.86084 0.0
H441 H 0.59365 0.88459 0.92 0.0
H442 H 0.5128 0.95485 0.84291 0.0
H443 H 0.53512 0.91595 0.78351 0.0
H444 H 0.62603 0.82327 0.6689 0.0
H445 H 0.6311 0.86953 0.61134 0.0
H446 H 0.50021 0.89576 0.62182 0.0
H447 H 0.49562 0.84955 0.67968 0.0
N448 N 0.55154 0.78428 0.73653 0.0
N449 N 0.56586 0.80785 0.80261 0.0
N450 N 0.57275 0.85158 0.74781 0.0
C451 C 0.55344 0.77763 0.77776 0.0
C452 C 0.57529 0.84462 0.78829 0.0
C453 C 0.56215 0.82151 0.72169 0.0
C454 C 0.53785 0.74063 0.79828 0.0
C455 C 0.5368 0.70236 0.77986 0.0
C456 C 0.52504 0.66831 0.80291 0.0
C457 C 0.51456 0.67227 0.84456 0.0
C458 C 0.51442 0.71065 0.86209 0.0
C459 C 0.52543 0.74412 0.83938 0.0
C460 C 0.57705 0.87768 0.81782 0.0
C461 C 0.59511 0.87065 0.85622 0.0
C462 C 0.58249 0.89301 0.89002 0.0
C463 C 0.55156 0.92228 0.88563 0.0
C464 C 0.53671 0.93218 0.84666 0.0
C465 C 0.54991 0.91035 0.8127 0.0
C466 C 0.56031 0.83222 0.67817 0.0
C467 C 0.59794 0.83719 0.65736 0.0
C468 C 0.21814 0.62904 0.64733 0.0
C469 C 0.21717 0.59496 0.62196 0.0
C470 C 0.25049 0.56748 0.62422 0.0
C471 C 0.27919 0.56979 0.65632 0.0
H472 H 0.38243 0.52408 0.78279 0.0
H473 H 0.42623 0.50214 0.84034 0.0
H474 H 0.34879 0.56993 0.9229 0.0
H475 H 0.30778 0.59382 0.86601 0.0
H476 H 0.2157 0.48853 0.82101 0.0
H477 H 0.152 0.47473 0.85812 0.0
H478 H 0.10079 0.58817 0.81709 0.0
H479 H 0.16435 0.60094 0.77828 0.0
H480 H 0.24335 0.65496 0.70171 0.0
H481 H 0.19379 0.65148 0.64566 0.0
H482 H 0.25158 0.5414 0.60437 0.0
H483 H 0.30004 0.54461 0.66117 0.0
N484 N 0.31081 0.57958 0.75187 0.0
N485 N 0.26956 0.55235 0.80439 0.0
N486 N 0.23823 0.57366 0.74423 0.0
C487 C 0.30729 0.56383 0.79041 0.0
C488 C 0.23519 0.55702 0.78141 0.0
C489 C 0.27551 0.58473 0.72899 0.0
C490 C 0.34199 0.56097 0.81989 0.0
C491 C 0.37644 0.53596 0.81301 0.0
C492 C 0.40102 0.52295 0.84612 0.0
C493 C 0.39093 0.53423 0.8865 0.0
C494 C 0.35806 0.56123 0.89251 0.0
C495 C 0.33443 0.57488 0.8597 0.0
C496 C 0.19473 0.54597 0.79768 0.0
C497 C 0.19029 0.50985 0.81909 0.0
C498 C 0.15369 0.50189 0.83991 0.0
C499 C 0.12169 0.53067 0.84072 0.0
C500 C 0.1251 0.5656 0.81691 0.0
C501 C 0.16133 0.57294 0.79495 0.0
C502 C 0.27461 0.59927 0.68664 0.0
C503 C 0.24734 0.63156 0.67896 0.0
C504 C 0.49886 0.14852 0.64802 0.0
C505 C 0.53692 0.15807 0.63005 0.0
C506 C 0.55602 0.19487 0.64086 0.0
C507 C 0.5381 0.22054 0.67025 0.0
H508 H 0.5607 0.30212 0.80152 0.0
H509 H 0.57631 0.35016 0.85634 0.0
H510 H 0.45127 0.39641 0.84835 0.0
H511 H 0.43601 0.34826 0.79419 0.0
H512 H 0.43517 0.23727 0.87004 0.0
H513 H 0.4631 0.19276 0.92219 0.0
H514 H 0.47123 0.09643 0.8344 0.0
H515 H 0.44295 0.14039 0.78189 0.0
H516 H 0.45157 0.16495 0.68996 0.0
H517 H 0.48375 0.12026 0.64158 0.0
H518 H 0.58548 0.20327 0.62753 0.0
H519 H 0.55453 0.24748 0.67947 0.0
N520 N 0.49702 0.26869 0.73831 0.0
N521 N 0.45966 0.26042 0.79949 0.0
N522 N 0.46114 0.20864 0.75195 0.0
C523 C 0.48295 0.28386 0.77474 0.0
C524 C 0.4491 0.22253 0.78877 0.0
C525 C 0.48459 0.23098 0.72625 0.0
C526 C 0.49744 0.32212 0.79284 0.0
C527 C 0.53734 0.32399 0.81012 0.0
C528 C 0.54594 0.35094 0.84218 0.0
C529 C 0.51475 0.37654 0.85754 0.0
C530 C 0.47596 0.3769 0.83776 0.0
C531 C 0.46737 0.34983 0.80607 0.0
C532 C 0.43958 0.19311 0.82123 0.0
C533 C 0.44068 0.20604 0.86214 0.0
C534 C 0.45686 0.1807 0.89205 0.0
C535 C 0.47038 0.14206 0.88141 0.0
C536 C 0.4615 0.12658 0.84269 0.0
C537 C 0.44509 0.15184 0.8128 0.0
C538 C 0.50056 0.20997 0.68916 0.0
C539 C 0.48063 0.17429 0.67642 0.0
C540 C 0.77425 0.55477 0.66959 0.0
C541 C 0.81764 0.55198 0.67476 0.0
C542 C 0.83331 0.54114 0.71313 0.0
C543 C 0.80614 0.53089 0.74481 0.0
H544 H 0.63934 0.58667 0.80533 0.0
H545 H 0.58901 0.60463 0.85752 0.0
H546 H 0.5496 0.4807 0.86449 0.0
H547 H 0.60079 0.46274 0.81301 0.0
H548 H 0.77518 0.41917 0.84579 0.0
H549 H 0.82713 0.41272 0.89912 0.0
H550 H 0.77635 0.51715 0.9602 0.0
H551 H 0.7225 0.52171 0.90769 0.0
H552 H 0.71403 0.54613 0.69568 0.0
H553 H 0.76106 0.56341 0.64044 0.0
H554 H 0.86644 0.53868 0.71813 0.0
H555 H 0.81937 0.52144 0.77366 0.0
N556 N 0.69256 0.52429 0.77037 0.0
N557 N 0.6852 0.49137 0.83348 0.0
N558 N 0.7507 0.49713 0.80388 0.0
C559 C 0.66789 0.51044 0.80112 0.0
C560 C 0.7263 0.48428 0.83477 0.0
C561 C 0.73433 0.51697 0.77144 0.0
C562 C 0.62464 0.52322 0.80614 0.0
C563 C 0.61796 0.56379 0.81588 0.0
C564 C 0.58957 0.57392 0.84637 0.0
C565 C 0.56689 0.54364 0.86634 0.0
C566 C 0.56733 0.50449 0.85026 0.0
C567 C 0.59627 0.49428 0.82026 0.0
C568 C 0.74573 0.47118 0.87269 0.0
C569 C 0.7738 0.43919 0.87188 0.0
C570 C 0.8034 0.43559 0.90261 0.0
C571 C 0.80638 0.46523 0.93322 0.0
C572 C 0.77474 0.49405 0.93688 0.0
C573 C 0.74411 0.49671 0.90682 0.0
C574 C 0.76269 0.53159 0.73891 0.0
C575 C 0.74714 0.54484 0.70127 0.0
C576 C 0.50625 0.16064 0.36997 0.0
C577 C 0.46606 0.15568 0.38521 0.0
C578 C 0.43386 0.17917 0.36814 0.0
C579 C 0.44159 0.20458 0.33463 0.0
H580 H 0.55372 0.32817 0.2449 0.0
H581 H 0.57479 0.38158 0.19809 0.0
H582 H 0.46215 0.36511 0.12896 0.0
H583 H 0.44172 0.31056 0.17517 0.0
H584 H 0.57812 0.22636 0.15807 0.0
H585 H 0.61312 0.18179 0.11063 0.0
H586 H 0.54289 0.08096 0.1571 0.0
H587 H 0.50838 0.12596 0.20573 0.0
H588 H 0.54519 0.18701 0.32475 0.0
H589 H 0.53153 0.14322 0.38154 0.0
H590 H 0.40236 0.17635 0.37922 0.0
H591 H 0.41592 0.21992 0.31997 0.0
N592 N 0.48408 0.26143 0.2656 0.0
N593 N 0.51241 0.24636 0.20117 0.0
N594 N 0.50612 0.19554 0.24968 0.0
C595 C 0.4952 0.27331 0.22718 0.0
C596 C 0.51788 0.20753 0.21213 0.0
C597 C 0.48913 0.22196 0.27649 0.0
C598 C 0.49582 0.31567 0.21405 0.0
C599 C 0.53231 0.33757 0.2212 0.0
C600 C 0.54466 0.36768 0.19399 0.0
C601 C 0.52026 0.37703 0.15968 0.0
C602 C 0.48131 0.35866 0.15534 0.0
C603 C 0.46942 0.32775 0.18206 0.0
C604 C 0.53994 0.17968 0.18484 0.0
C605 C 0.5703 0.19464 0.15832 0.0
C606 C 0.59072 0.16895 0.13149 0.0
C607 C 0.5805 0.12786 0.12992 0.0
C608 C 0.55123 0.11253 0.15755 0.0
C609 C 0.53135 0.13824 0.18513 0.0
C610 C 0.48166 0.20702 0.31815 0.0
C611 C 0.51405 0.18603 0.33718 0.0
C612 C 0.64707 0.45293 0.15308 0.0
C613 C 0.61508 0.48012 0.16198 0.0
C614 C 0.61213 0.49553 0.20206 0.0
C615 C 0.64349 0.4882 0.23088 0.0
H616 H 0.7757 0.4248 0.35967 0.0
H617 H 0.82939 0.43731 0.41022 0.0
H618 H 0.81553 0.56534 0.39191 0.0
H619 H 0.76193 0.55233 0.34088 0.0
H620 H 0.86779 0.45037 0.25303 0.0
H621 H 0.93117 0.46681 0.21516 0.0
H622 H 0.86014 0.54526 0.13639 0.0
H623 H 0.79681 0.52742 0.17296 0.0
H624 H 0.70484 0.42764 0.17262 0.0
H625 H 0.65045 0.44074 0.12261 0.0
H626 H 0.5876 0.51646 0.20993 0.0
H627 H 0.64241 0.50373 0.25995 0.0
N628 N 0.71997 0.47454 0.28442 0.0
N629 N 0.79234 0.48253 0.27949 0.0
N630 N 0.75339 0.47267 0.22041 0.0
C631 C 0.7578 0.48051 0.30257 0.0
C632 C 0.79042 0.47896 0.23872 0.0
C633 C 0.71808 0.46957 0.24282 0.0
C634 C 0.76442 0.48752 0.34638 0.0
C635 C 0.78207 0.45564 0.36848 0.0
C636 C 0.81372 0.46292 0.39687 0.0
C637 C 0.82802 0.50234 0.40413 0.0
C638 C 0.8061 0.53453 0.38639 0.0
C639 C 0.77441 0.52714 0.35795 0.0
C640 C 0.82771 0.48697 0.21497 0.0
C641 C 0.86598 0.47092 0.22742 0.0
C642 C 0.90208 0.48069 0.2063 0.0
C643 C 0.90039 0.50784 0.17362 0.0
C644 C 0.86223 0.5249 0.16213 0.0
C645 C 0.826 0.51408 0.18234 0.0
C646 C 0.67843 0.46551 0.21995 0.0
C647 C 0.6785 0.44579 0.18177 0.0
C648 C 0.54995 0.87275 0.358 0.0
C649 C 0.50732 0.86795 0.3654 0.0
C650 C 0.48781 0.83234 0.3521 0.0
C651 C 0.50937 0.80457 0.32775 0.0
H652 H 0.49094 0.71694 0.22818 0.0
H653 H 0.46141 0.67254 0.17616 0.0
H654 H 0.58463 0.64047 0.13662 0.0
H655 H 0.61409 0.68606 0.18744 0.0
H656 H 0.5923 0.79484 0.13123 0.0
H657 H 0.56014 0.84212 0.08449 0.0
H658 H 0.57241 0.93682 0.17391 0.0
H659 H 0.6034 0.88928 0.22173 0.0
H660 H 0.60334 0.85146 0.32605 0.0
H661 H 0.56609 0.89967 0.36773 0.0
H662 H 0.45506 0.82752 0.35755 0.0
H663 H 0.49252 0.77958 0.31445 0.0
N664 N 0.55858 0.75558 0.26723 0.0
N665 N 0.58888 0.76832 0.20339 0.0
N666 N 0.58625 0.81922 0.25211 0.0
C667 C 0.57074 0.7423 0.22967 0.0
C668 C 0.59603 0.80709 0.21388 0.0
C669 C 0.56816 0.79384 0.27917 0.0
C670 C 0.55475 0.70471 0.21188 0.0
C671 C 0.5117 0.69906 0.20951 0.0
C672 C 0.49484 0.67424 0.17921 0.0
C673 C 0.52082 0.6541 0.15141 0.0
C674 C 0.56391 0.65613 0.15698 0.0
C675 C 0.58077 0.68175 0.18654 0.0
C676 C 0.59837 0.83774 0.18112 0.0
C677 C 0.58967 0.826 0.14069 0.0
C678 C 0.57089 0.85299 0.11387 0.0
C679 C 0.56224 0.89243 0.12647 0.0
C680 C 0.57797 0.90619 0.16392 0.0
C681 C 0.59597 0.87892 0.19121 0.0
C682 C 0.55068 0.81211 0.3165 0.0
C683 C 0.57142 0.84502 0.33405 0.0
C684 C 0.40638 0.596 0.13626 0.0
C685 C 0.43633 0.56737 0.14739 0.0
C686 C 0.44 0.55699 0.18898 0.0
C687 C 0.40901 0.56827 0.21667 0.0
H688 H 0.29698 0.56218 0.32623 0.0
H689 H 0.25181 0.55978 0.38603 0.0
H690 H 0.14443 0.54905 0.30773 0.0
H691 H 0.18968 0.55061 0.24795 0.0
H692 H 0.24115 0.45841 0.17266 0.0
H693 H 0.19209 0.44304 0.11855 0.0
H694 H 0.23631 0.54503 0.04949 0.0
H695 H 0.28753 0.5586 0.10251 0.0
H696 H 0.35184 0.6276 0.15382 0.0
H697 H 0.40162 0.60402 0.10464 0.0
H698 H 0.46332 0.53556 0.19883 0.0
H699 H 0.40815 0.55356 0.24615 0.0
N700 N 0.31167 0.57244 0.24413 0.0
N701 N 0.26061 0.53137 0.21357 0.0
N702 N 0.31978 0.54853 0.17702 0.0
C703 C 0.2742 0.55311 0.24615 0.0
C704 C 0.28367 0.52867 0.17919 0.0
C705 C 0.33415 0.57029 0.20893 0.0
C706 C 0.24701 0.55615 0.28247 0.0
C707 C 0.26376 0.55974 0.3218 0.0
C708 C 0.23783 0.55812 0.35597 0.0
C709 C 0.19453 0.55377 0.35152 0.0
C710 C 0.17758 0.55229 0.31213 0.0
C711 C 0.2036 0.55301 0.27798 0.0
C712 C 0.26642 0.51057 0.14222 0.0
C713 C 0.24185 0.47607 0.14488 0.0
C714 C 0.21421 0.46707 0.11353 0.0
C715 C 0.20945 0.49398 0.08068 0.0
C716 C 0.23917 0.52417 0.07476 0.0
C717 C 0.26802 0.53221 0.10542 0.0
C718 C 0.37443 0.58983 0.20265 0.0
C719 C 0.37769 0.60976 0.16494 0.0
C720 C 0.69446 0.90573 0.45021 0.0
C721 C 0.65527 0.88741 0.4507 0.0
C722 C 0.65301 0.84563 0.45826 0.0
C723 C 0.68918 0.82305 0.46614 0.0
H724 H 0.77504 0.70361 0.52456 0.0
H725 H 0.81152 0.64246 0.54545 0.0
H726 H 0.91037 0.66915 0.46124 0.0
H727 H 0.87439 0.73127 0.4414 0.0
H728 H 0.9152 0.8188 0.51972 0.0
H729 H 0.96296 0.86102 0.55905 0.0
H730 H 0.85855 0.92738 0.6076 0.0
H731 H 0.81139 0.8861 0.56776 0.0
H732 H 0.75973 0.89903 0.4586 0.0
H733 H 0.69759 0.93765 0.44425 0.0
H734 H 0.62329 0.83046 0.45855 0.0
H735 H 0.68651 0.79127 0.47298 0.0
N736 N 0.77438 0.78124 0.47293 0.0
N737 N 0.83939 0.78778 0.50541 0.0
N738 N 0.79475 0.84293 0.50208 0.0
C739 C 0.81161 0.76496 0.4847 0.0
C740 C 0.83095 0.82649 0.51467 0.0
C741 C 0.7665 0.82104 0.4808 0.0
C742 C 0.8216 0.72185 0.48101 0.0
C743 C 0.80329 0.69524 0.50878 0.0
C744 C 0.82454 0.66059 0.52118 0.0
C745 C 0.86399 0.65152 0.50528 0.0
C746 C 0.87996 0.67539 0.47377 0.0
C747 C 0.85913 0.71068 0.46213 0.0
C748 C 0.85978 0.84989 0.5401 0.0
C749 C 0.90264 0.84225 0.53912 0.0
C750 C 0.92989 0.86621 0.56175 0.0
C751 C 0.91452 0.89756 0.58627 0.0
C752 C 0.87143 0.90346 0.58903 0.0
C753 C 0.84439 0.88015 0.56582 0.0
C754 C 0.72812 0.84201 0.46711 0.0
C755 C 0.73021 0.88345 0.45844 0.0
C756 C 0.65539 0.17406 0.50824 0.0
C757 C 0.628 0.17358 0.47498 0.0
C758 C 0.63025 0.20495 0.44605 0.0
C759 C 0.66218 0.23338 0.44787 0.0
H760 H 0.73249 0.36573 0.49264 0.0
H761 H 0.75818 0.43172 0.51556 0.0
H762 H 0.88203 0.39852 0.47876 0.0
H763 H 0.85689 0.33466 0.45402 0.0
H764 H 0.88646 0.25051 0.47631 0.0
H765 H 0.93856 0.20169 0.49848 0.0
H766 H 0.85235 0.10513 0.4759 0.0
H767 H 0.80056 0.15311 0.45257 0.0
H768 H 0.71073 0.19947 0.53363 0.0
H769 H 0.65401 0.1511 0.5314 0.0
H770 H 0.60912 0.20592 0.42031 0.0
H771 H 0.66562 0.25476 0.42315 0.0
N772 N 0.74121 0.28824 0.47185 0.0
N773 N 0.81199 0.27447 0.46159 0.0
N774 N 0.76525 0.22151 0.46678 0.0
C775 C 0.78092 0.30164 0.46657 0.0
C776 C 0.8045 0.23454 0.46143 0.0
C777 C 0.73358 0.24784 0.4717 0.0
C778 C 0.79269 0.3444 0.47238 0.0
C779 C 0.76491 0.37306 0.48835 0.0
C780 C 0.77958 0.41069 0.50157 0.0
C781 C 0.82217 0.4195 0.49971 0.0
C782 C 0.84919 0.39203 0.48131 0.0
C783 C 0.83454 0.35534 0.46707 0.0
C784 C 0.83913 0.20564 0.46332 0.0
C785 C 0.87914 0.21875 0.47435 0.0
C786 C 0.90897 0.19099 0.4871 0.0
C787 C 0.89937 0.14993 0.48797 0.0
C788 C 0.86078 0.13661 0.47378 0.0
C789 C 0.83097 0.16419 0.46111 0.0
C790 C 0.69225 0.23077 0.47857 0.0
C791 C 0.68752 0.20218 0.5098 0.0
C792 C 0.38052 0.84725 0.57707 0.0
C793 C 0.38824 0.85369 0.53535 0.0
C794 C 0.36538 0.83121 0.50657 0.0
C795 C 0.33235 0.80669 0.51907 0.0
H796 H 0.24063 0.69922 0.50739 0.0
H797 H 0.19613 0.64733 0.47717 0.0
H798 H 0.10304 0.67027 0.56873 0.0
H799 H 0.14739 0.72157 0.59924 0.0
H800 H 0.12854 0.81848 0.6011 0.0
H801 H 0.08298 0.87135 0.57641 0.0
H802 H 0.18765 0.9518 0.56652 0.0
H803 H 0.23347 0.8989 0.59089 0.0
H804 H 0.33892 0.8227 0.62155 0.0
H805 H 0.39805 0.86328 0.6001 0.0
H806 H 0.37077 0.83504 0.47419 0.0
H807 H 0.3128 0.79286 0.49606 0.0
N808 N 0.26093 0.75789 0.56167 0.0
N809 N 0.19644 0.78207 0.58432 0.0
N810 N 0.25419 0.82412 0.58651 0.0
C811 C 0.21974 0.7515 0.56928 0.0
C812 C 0.21304 0.81857 0.59256 0.0
C813 C 0.27846 0.79402 0.5718 0.0
C814 C 0.19762 0.71463 0.55566 0.0
C815 C 0.21119 0.69247 0.5217 0.0
C816 C 0.18544 0.66316 0.50411 0.0
C817 C 0.14595 0.65502 0.5205 0.0
C818 C 0.13328 0.67577 0.55556 0.0
C819 C 0.15881 0.70515 0.57297 0.0
C820 C 0.185 0.85378 0.5959 0.0
C821 C 0.14179 0.8478 0.59498 0.0
C822 C 0.11559 0.87809 0.58062 0.0
C823 C 0.13215 0.91492 0.56757 0.0
C824 C 0.1742 0.9232 0.57517 0.0
C825 C 0.2005 0.89282 0.58937 0.0
C826 C 0.32139 0.80464 0.56045 0.0
C827 C 0.34693 0.82358 0.58945 0.0
C828 C 0.18864 0.37132 0.51107 0.0
C829 C 0.22188 0.39732 0.50277 0.0
C830 C 0.26257 0.38206 0.50483 0.0
C831 C 0.26978 0.34159 0.51466 0.0
H832 H 0.36032 0.23019 0.57121 0.0
H833 H 0.41809 0.18253 0.57728 0.0
H834 H 0.35754 0.10269 0.49185 0.0
H835 H 0.30004 0.15015 0.48605 0.0
H836 H 0.21195 0.13641 0.58689 0.0
H837 H 0.16347 0.08193 0.57122 0.0
H838 H 0.09038 0.16389 0.49843 0.0
H839 H 0.13825 0.21841 0.51441 0.0
H840 H 0.16916 0.31216 0.52708 0.0
H841 H 0.15689 0.38183 0.50935 0.0
H842 H 0.28891 0.40129 0.49857 0.0
H843 H 0.30145 0.33072 0.51562 0.0
N844 N 0.28169 0.25505 0.52834 0.0
N845 N 0.25303 0.19195 0.54353 0.0
N846 N 0.21006 0.24845 0.54082 0.0
C847 C 0.28632 0.21468 0.53398 0.0
C848 C 0.215 0.20845 0.54745 0.0
C849 C 0.24324 0.27216 0.53176 0.0
C850 C 0.32602 0.19372 0.5282 0.0
C851 C 0.36033 0.20323 0.55257 0.0
C852 C 0.393 0.1757 0.55634 0.0
C853 C 0.39194 0.13862 0.53536 0.0
C854 C 0.35932 0.13094 0.50818 0.0
C855 C 0.32648 0.15815 0.50486 0.0
C856 C 0.17923 0.18129 0.55103 0.0
C857 C 0.18452 0.14311 0.56895 0.0
C858 C 0.15688 0.11197 0.5601 0.0
C859 C 0.12413 0.11876 0.53287 0.0
C860 C 0.116 0.15802 0.51907 0.0
C861 C 0.14317 0.18928 0.52847 0.0
C862 C 0.23642 0.31556 0.52284 0.0
C863 C 0.19579 0.33112 0.52118 0.0
Zn864 Zn 0.95024 0.025 0.36531 0.0
Zn865 Zn 0.9277 0.07372 0.43412 0.0
O866 O 0.95196 0.01884 0.42713 0.0
H867 H 0.94406 0.99515 0.44234 0.0
C868 C 0.94283 0.92753 0.60421 0.0
O869 O 0.98053 0.93145 0.58966 0.0
Zn870 Zn 0.08877 0.04321 0.59338 0.0
Zn871 Zn 0.04207 0.99703 0.6596 0.0
O872 O 0.03707 0.01054 0.59961 0.0
H873 H 0.02447 0.99496 0.57802 0.0
Zn874 Zn 0.95726 0.00965 0.62847 0.0
O875 O 0.94253 0.03709 0.57489 0.0
Zn876 Zn 0.95846 0.09198 0.59007 0.0
H877 H 0.92047 0.02927 0.55652 0.0
Zn878 Zn 0.05064 0.95879 0.47403 0.0
O879 O 0.03055 0.01461 0.48644 0.0
H880 H 0.00842 0.0223 0.50473 0.0
Zn881 Zn 0.05814 0.04964 0.44551 0.0
C882 C 0.10777 0.9412 0.54027 0.0
O883 O 0.12299 0.97584 0.52823 0.0
O884 O 0.90075 0.05993 0.34726 0.0
O885 O 0.87164 0.07655 0.40662 0.0
O886 O 0.10268 0.9848 0.67214 0.0
O887 O 0.1372 0.01309 0.62069 0.0
O888 O 0.94809 0.04568 0.67938 0.0
O889 O 0.93859 0.10421 0.6479 0.0
C890 C -0.00209 0.10892 0.39964 0.0
O891 O 0.07887 0.95381 0.41751 0.0
O892 O 0.08532 0.01806 0.39955 0.0
O893 O 0.00213 0.95593 0.6861 0.0
C894 C 0.87102 0.07544 0.36762 0.0
O895 O 0.96984 0.97661 0.32876 0.0
C896 C 0.04295 0.10824 0.61811 0.0
O897 O 0.92791 0.95523 0.62651 0.0
C898 C 0.13638 0.99177 0.6533 0.0
O899 O 0.0761 0.92708 0.52209 0.0
C900 C 0.92531 0.12182 0.5107 0.0
O901 O 0.95907 0.1136 0.39955 0.0
O902 O 0.01201 0.08121 0.42225 0.0
C903 C 0.93912 0.08307 0.68052 0.0
O904 O 0.07949 0.0951 0.62328 0.0
O905 O 0.01996 0.09037 0.59235 0.0
C906 C 0.10338 0.08486 0.51285 0.0
O907 O 0.9336 0.12961 0.54798 0.0
O908 O 0.93482 0.08803 0.49502 0.0
C909 C 0.09019 0.98062 0.39202 0.0
O910 O 0.09608 0.08729 0.47478 0.0
O911 O 0.09167 0.05392 0.53249 0.0
C912 C 0.00982 0.94469 0.72244 0.0
O913 O 0.0406 0.96172 0.74233 0.0
C914 C 0.98908 0.94984 0.34893 0.0
O915 O 0.9938 0.95524 0.38837 0.0
Zn916 Zn 0.39182 0.09275 0.06794 0.0
Zn917 Zn 0.42928 0.09554 0.95311 0.0
O918 O 0.42543 0.07451 0.01309 0.0
H919 H 0.44334 0.05164 0.01814 0.0
C920 C 0.59626 0.10296 0.09606 0.0
O921 O 0.57563 0.07086 0.08433 0.0
Zn922 Zn 0.61323 0.9679 0.94969 0.0
Zn923 Zn 0.67971 0.01484 0.97687 0.0
O924 O 0.62083 0.00459 0.99671 0.0
H925 H 0.6121 0.99899 0.02432 0.0
Zn926 Zn 0.62743 0.09824 0.0135 0.0
O927 O 0.57161 0.11042 0.98844 0.0
Zn928 Zn 0.58952 0.10927 0.93113 0.0
H929 H 0.54524 0.10193 -0.00061 0.0
Zn930 Zn 0.45492 0.93191 0.05901 0.0
O931 O 0.47897 0.96837 0.01656 0.0
H932 H 0.50041 0.98841 0.02003 0.0
Zn933 Zn 0.44906 0.95477 0.96585 0.0
C934 C 0.5317 0.91651 0.10376 0.0
O935 O 0.53349 0.95601 0.10408 0.0
O936 O 0.3957 0.11449 0.01076 0.0
O937 O 0.39374 0.14549 0.95298 0.0
O938 O 0.71052 0.9626 0.96213 0.0
O939 O 0.65585 0.92249 0.95343 0.0
O940 O 0.67526 0.12299 0.98001 0.0
O941 O 0.64377 0.1423 0.92315 0.0
C942 C 0.40292 0.02033 0.92009 0.0
O943 O 0.39819 0.90555 0.04352 0.0
O944 O 0.39764 0.9179 0.97674 0.0
O945 O 0.70881 0.05644 0.01319 0.0
C946 C 0.37953 0.14191 0.9888 0.0
O947 O 0.34397 0.05737 0.09058 0.0
C948 C 0.62863 0.03533 0.89822 0.0
O949 O 0.62362 0.11758 0.07261 0.0
C950 C 0.69524 0.92786 0.95533 0.0
O951 O 0.50056 0.89899 0.08778 0.0
C952 C 0.50156 0.12255 0.90672 0.0
O953 O 0.39876 0.05796 0.9156 0.0
O954 O 0.42919 0.00814 0.94621 0.0
C955 C 0.67617 0.14113 0.94589 0.0
O956 O 0.63418 0.9977 0.90074 0.0
O957 O 0.60103 0.05141 0.92043 0.0
C958 C 0.53026 0.93771 0.92167 0.0
O959 O 0.53986 0.12794 0.89818 0.0
O960 O 0.49054 0.10311 0.93822 0.0
C961 C 0.38079 0.90247 0.0086 0.0
O962 O 0.49092 0.93349 0.92412 0.0
O963 O 0.55069 0.9548 0.94997 0.0
C964 C 0.7452 0.05693 0.02798 0.0
O965 O 0.77141 0.02815 0.01834 0.0
C966 C 0.35119 0.02025 0.09674 0.0
O967 O 0.38699 0.00526 0.085 0.0
Zn968 Zn 0.93661 0.44191 0.94784 0.0
Zn969 Zn 0.91504 0.53836 0.95523 0.0
O970 O 0.96054 0.49866 0.94318 0.0
H971 H 0.95213 0.47084 0.94482 0.0
C972 C 0.98079 0.39433 0.03121 0.0
O973 O 0.00255 0.41321 0.00345 0.0
Zn974 Zn 0.09692 0.56341 0.07396 0.0
Zn975 Zn 0.08243 0.46441 0.08289 0.0
O976 O 0.05744 0.52058 0.09203 0.0
H977 H 0.06695 0.49322 0.08856 0.0
Zn978 Zn 0.99129 0.46944 0.0861 0.0
O979 O 0.99209 0.51933 0.04849 0.0
Zn980 Zn 0.97831 0.56731 0.08495 0.0
H981 H 0.98698 0.51704 0.01959 0.0
Zn982 Zn 0.05329 0.47635 0.93973 0.0
O983 O 0.05072 0.52453 0.97737 0.0
H984 H 0.06227 0.52249 0.00448 0.0
Zn985 Zn 0.04372 0.57208 0.93998 0.0
C986 C 0.08769 0.39244 0.94834 0.0
O987 O 0.08605 0.39063 0.90834 0.0
O988 O 0.87334 0.44414 0.95109 0.0
O989 O 0.85956 0.50999 0.9518 0.0
O990 O 0.14312 0.47037 0.06475 0.0
O991 O 0.15301 0.53671 0.07126 0.0
O992 O 0.95629 0.48197 0.13662 0.0
O993 O 0.9409 0.54707 0.12912 0.0
C994 C 0.95454 0.59717 0.91233 0.0
O995 O 0.0825 0.49298 0.88743 0.0
O996 O 0.07652 0.5599 0.88895 0.0
O997 O 0.08046 0.4231 0.13175 0.0
C998 C 0.84767 0.4733 0.95036 0.0
O999 O 0.95626 0.39848 0.90563 0.0
C1000 C 0.05797 0.61901 0.12238 0.0
O1001 O 0.97346 0.41192 0.06496 0.0
C1002 C 0.16696 0.50092 0.06652 0.0
O1003 O 0.07603 0.42436 0.96648 0.0
C1004 C 0.9277 0.59961 0.02137 0.0
O1005 O 0.91768 0.5844 0.91579 0.0
O1006 O 0.98303 0.57625 0.92872 0.0
C1007 C 0.93626 0.51335 0.14705 0.0
O1008 O 0.09454 0.60682 0.11523 0.0
O1009 O 0.02753 0.59901 0.10792 0.0
C1010 C 0.08028 0.62359 0.00116 0.0
O1011 O 0.94609 0.60849 0.0543 0.0
O1012 O 0.92816 0.56307 0.0096 0.0
C1013 C 0.08972 0.52754 0.87231 0.0
O1014 O 0.06484 0.62377 0.96544 0.0
O1015 O 0.08025 0.59014 0.02039 0.0
C1016 C 0.06888 0.3864 0.13244 0.0
O1017 O 0.05248 0.3702 0.0996 0.0
C1018 C 0.9864 0.40631 0.88211 0.0
O1019 O 0.0046 0.44151 0.88521 0.0
Zn1020 Zn 0.41659 0.49538 0.01438 0.0
Zn1021 Zn 0.46926 0.45931 0.08662 0.0
O1022 O 0.47655 0.48229 0.0298 0.0
H1023 H 0.50083 0.48455 0.01276 0.0
C1024 C 0.52144 0.40123 0.89507 0.0
O1025 O 0.49216 0.4254 0.90814 0.0
Zn1026 Zn 0.57079 0.57188 0.08465 0.0
Zn1027 Zn 0.56571 0.58586 0.99252 0.0
O1028 O 0.56044 0.53969 0.033 0.0
H1029 H 0.56919 0.51266 0.02638 0.0
Zn1030 Zn 0.56897 0.43302 0.9688 0.0
O1031 O 0.54452 0.42095 0.02505 0.0
Zn1032 Zn 0.58946 0.42958 0.06814 0.0
H1033 H 0.52015 0.40438 0.02848 0.0
Zn1034 Zn 0.48202 0.60447 0.95585 0.0
O1035 O 0.50179 0.61612 0.01398 0.0
H1036 H 0.52127 0.63773 0.01852 0.0
Zn1037 Zn 0.45632 0.60715 0.05417 0.0
C1038 C 0.50288 0.6376 0.87055 0.0
O1039 O 0.48606 0.60526 0.85446 0.0
O1040 O 0.37459 0.46101 0.04729 0.0
O1041 O 0.41653 0.42772 0.08968 0.0
O1042 O 0.60037 0.63294 0.01467 0.0
O1043 O 0.61762 0.60932 0.07584 0.0
O1044 O 0.63158 0.43702 0.97518 0.0
O1045 O 0.64519 0.42058 0.04007 0.0
C1046 C 0.45449 0.54039 0.11607 0.0
O1047 O 0.4195 0.611 0.95756 0.0
O1048 O 0.40295 0.61716 0.02371 0.0
O1049 O 0.57062 0.57629 0.93019 0.0
C1050 C 0.38059 0.43437 0.07479 0.0
O1051 O 0.39788 0.52202 0.95842 0.0
C1052 C 0.5929 0.50101 0.12835 0.0
O1053 O 0.55474 0.39833 0.91583 0.0
C1054 C 0.62111 0.63528 0.04768 0.0
O1055 O 0.50541 0.64116 0.90929 0.0
C1056 C 0.53883 0.39996 0.12563 0.0
O1057 O 0.46036 0.50391 0.12602 0.0
O1058 O 0.45919 0.55081 0.07878 0.0
C1059 C 0.65697 0.42722 0.00332 0.0
O1060 O 0.58533 0.53819 0.13285 0.0
O1061 O 0.58599 0.48529 0.09338 0.0
C1062 C 0.50279 0.6342 0.1151 0.0
O1063 O 0.57616 0.39305 0.11513 0.0
O1064 O 0.5185 0.42548 0.1045 0.0
C1065 C 0.39319 0.61704 0.98584 0.0
O1066 O 0.4678 0.64521 0.10114 0.0
O1067 O 0.52164 0.60689 0.09521 0.0
C1068 C 0.55156 0.55076 0.90818 0.0
O1069 O 0.52511 0.52593 0.92524 0.0
C1070 C 0.41182 0.51576 0.92252 0.0
O1071 O 0.44243 0.49028 0.91745 0.0
Zn1072 Zn 0.94155 0.47463 0.47493 0.0
Zn1073 Zn 0.93383 0.56899 0.45849 0.0
O1074 O 0.97162 0.5274 0.48044 0.0
H1075 H 0.99433 0.53253 0.49903 0.0
C1076 C 0.83982 0.45526 0.5196 0.0
O1077 O 0.87626 0.4526 0.53737 0.0
Zn1078 Zn 0.08747 0.59325 0.57955 0.0
Zn1079 Zn 0.12883 0.51799 0.5587 0.0
O1080 O 0.07323 0.53593 0.58296 0.0
H1081 H 0.04626 0.52461 0.57711 0.0
Zn1082 Zn 0.8537 0.53457 0.54868 0.0
O1083 O 0.91667 0.52823 0.55344 0.0
Zn1084 Zn 0.92083 0.57461 0.59164 0.0
H1085 H 0.93286 0.5038 0.55519 0.0
Zn1086 Zn 0.16115 0.51175 0.47357 0.0
O1087 O 0.10105 0.52756 0.47924 0.0
H1088 H 0.08063 0.51828 0.49857 0.0
Zn1089 Zn 0.09339 0.57107 0.4384 0.0
C1090 C 0.21383 0.43989 0.49162 0.0
O1091 O 0.24464 0.46429 0.48305 0.0
O1092 O 0.8858 0.47924 0.44327 0.0
O1093 O 0.88313 0.54468 0.42882 0.0
O1094 O 0.17892 0.55196 0.57785 0.0
O1095 O 0.1446 0.60254 0.60642 0.0
O1096 O 0.82841 0.54942 0.6039 0.0
O1097 O 0.88441 0.56125 0.64194 0.0
C1098 C 0.00832 0.6055 0.42001 0.0
O1099 O 0.18513 0.53359 0.41984 0.0
O1100 O 0.12971 0.55913 0.38777 0.0
O1101 O 0.13517 0.45832 0.5716 0.0
C1102 C 0.86738 0.5093 0.4271 0.0
O1103 O 0.98014 0.42604 0.46382 0.0
C1104 C 0.00085 0.61888 0.60821 0.0
O1105 O 0.82133 0.48896 0.51899 0.0
C1106 C 0.17869 0.58391 0.59937 0.0
O1107 O 0.1768 0.45304 0.48981 0.0
C1108 C 0.89051 0.62205 0.52679 0.0
O1109 O 0.969 0.60687 0.42501 0.0
O1110 O 0.02962 0.5764 0.43414 0.0
C1111 C 0.84511 0.55553 0.63862 0.0
O1112 O 0.03986 0.62543 0.60473 0.0
O1113 O 0.98437 0.58652 0.59499 0.0
C1114 C 0.11783 0.62607 0.50002 0.0
O1115 O 0.89038 0.62114 0.56546 0.0
O1116 O 0.91286 0.59629 0.50856 0.0
C1117 C 0.16815 0.54872 0.38816 0.0
O1118 O 0.12007 0.62105 0.46176 0.0
O1119 O 0.09339 0.60342 0.51986 0.0
C1120 C 0.10739 0.43403 0.55958 0.0
O1121 O 0.07998 0.44622 0.53257 0.0
C1122 C 0.01711 0.43353 0.4527 0.0
O1123 O 0.02902 0.47115 0.44933 0.0
Zn1124 Zn 0.47023 0.99274 0.38529 0.0
Zn1125 Zn 0.41852 0.06622 0.46249 0.0
O1126 O 0.46447 0.02637 0.44185 0.0
H1127 H 0.48732 0.02242 0.46062 0.0
C1128 C 0.41368 0.88869 0.52206 0.0
O1129 O 0.41019 0.90193 0.48443 0.0
Zn1130 Zn 0.61202 0.09167 0.54823 0.0
Zn1131 Zn 0.62307 0.99309 0.55366 0.0
O1132 O 0.58128 0.03908 0.55577 0.0
H1133 H 0.59831 0.01521 0.55437 0.0
Zn1134 Zn 0.43913 0.9732 0.53552 0.0
O1135 O 0.48547 0.02062 0.54715 0.0
Zn1136 Zn 0.48584 0.06783 0.59048 0.0
H1137 H 0.5085 0.02084 0.52822 0.0
Zn1138 Zn 0.57333 0.99064 0.41726 0.0
O1139 O 0.56334 0.03944 0.45546 0.0
H1140 H 0.56869 0.01508 0.44025 0.0
Zn1141 Zn 0.54621 0.08725 0.42117 0.0
C1142 C 0.61738 0.91217 0.44351 0.0
O1143 O 0.5803 0.89661 0.44858 0.0
O1144 O 0.42383 0.01084 0.42329 0.0
O1145 O 0.36711 0.0327 0.45082 0.0
O1146 O 0.67748 0.01781 0.57526 0.0
O1147 O 0.67283 0.08264 0.55846 0.0
O1148 O 0.46083 0.0059 0.5844 0.0
O1149 O 0.47661 0.03586 0.64144 0.0
C1150 C 0.4575 0.12422 0.41647 0.0
O1151 O 0.57183 0.00825 0.35607 0.0
O1152 O 0.55452 0.07278 0.36257 0.0
O1153 O 0.6079 0.93717 0.58022 0.0
C1154 C 0.38449 0.0085 0.42599 0.0
O1155 O 0.49988 0.93694 0.38326 0.0
C1156 C 0.55717 0.12915 0.60148 0.0
O1157 O 0.43017 0.91166 0.54869 0.0
C1158 C 0.69259 0.0533 0.57438 0.0
O1159 O 0.62075 0.94882 0.43228 0.0
C1160 C 0.42218 0.10679 0.5456 0.0
O1161 O 0.42066 0.11716 0.42804 0.0
O1162 O 0.48564 0.10067 0.4299 0.0
C1163 C 0.4618 0.00512 0.62342 0.0
O1164 O 0.59355 0.13519 0.58851 0.0
O1165 O 0.53937 0.09747 0.58861 0.0
C1166 C 0.60071 0.13852 0.46714 0.0
O1167 O 0.43984 0.10733 0.58016 0.0
O1168 O 0.43154 0.07857 0.52104 0.0
C1169 C 0.56398 0.04264 0.34041 0.0
O1170 O 0.58209 0.13577 0.43324 0.0
O1171 O 0.59644 0.10953 0.492 0.0
C1172 C 0.57175 0.92263 0.58554 0.0
O1173 O 0.53935 0.94279 0.57225 0.0
C1174 C 0.48265 0.90258 0.38068 0.0
O1175 O 0.44207 0.90009 0.38328 0.0
loop_
_geom_bond_atom_site_label_1
_geom_bond_atom_site_label_2
_geom_bond_distance
_geom_bond_site_symmetry_2
_ccdc_geom_bond_type
C0 C1 1.384 . S
C0 H13 0.947 . S
C0 C35 1.382 . S
C1 C0 1.384 . S
C1 C2 1.378 . S
C2 C1 1.378 . S
C2 C3 1.378 . S
C2 H14 0.952 . S
C3 C2 1.378 . S
C3 H15 0.950 . S
C3 C34 1.383 . S
H4 C23 0.947 . S
H5 C24 0.946 . S
H6 C26 0.953 . S
H7 C27 0.945 . S
H8 C29 0.952 . S
H9 C30 0.949 . S
H10 C32 0.950 . S
H11 C33 0.948 . S
H12 C35 0.951 . S
H13 C0 0.947 . S
H14 C2 0.952 . S
H15 C3 0.950 . S
N16 C19 1.382 . S
N16 C21 1.363 . S
N17 C19 1.371 . S
N17 C20 1.372 . S
N18 C20 1.361 . S
N18 C21 1.377 . S
C19 N16 1.382 . S
C19 N17 1.371 . S
C19 C22 1.480 . S
C20 N17 1.372 . S
C20 N18 1.361 . S
C20 C28 1.457 . S
C21 N16 1.363 . S
C21 N18 1.377 . S
C21 C34 1.479 . S
C22 C19 1.480 . S
C22 C23 1.383 . S
C22 C27 1.385 . S
C23 H4 0.947 . S
C23 C22 1.383 . S
C23 C24 1.388 . S
C24 H5 0.946 . S
C24 C23 1.388 . S
C24 C25 1.384 . S
C25 C24 1.384 . S
C25 C26 1.377 . S
C26 H6 0.953 . S
C26 C25 1.377 . S
C26 C27 1.369 . S
C27 H7 0.945 . S
C27 C22 1.385 . S
C27 C26 1.369 . S
C28 C20 1.457 . S
C28 C29 1.372 . S
C28 C33 1.364 . S
C29 H8 0.952 . S
C29 C28 1.372 . S
C29 C30 1.389 . S
C30 H9 0.949 . S
C30 C29 1.389 . S
C30 C31 1.387 . S
C31 C30 1.387 . S
C31 C32 1.372 . S
C32 H10 0.950 . S
C32 C31 1.372 . S
C32 C33 1.379 . S
C33 H11 0.948 . S
C33 C28 1.364 . S
C33 C32 1.379 . S
C34 C3 1.383 . S
C34 C21 1.479 . S
C34 C35 1.398 . S
C35 C0 1.382 . S
C35 H12 0.951 . S
C35 C34 1.398 . S
C36 C37 1.384 . S
C36 H49 0.947 . S
C36 C71 1.382 . S
C37 C36 1.384 . S
C37 C38 1.378 . S
C38 C37 1.378 . S
C38 C39 1.378 . S
C38 H50 0.952 . S
C39 C38 1.378 . S
C39 H51 0.950 . S
C39 C70 1.383 . S
H40 C59 0.947 . S
H41 C60 0.946 . S
H42 C62 0.953 . S
H43 C63 0.945 . S
H44 C65 0.952 . S
H45 C66 0.949 . S
H46 C68 0.950 . S
H47 C69 0.948 . S
H48 C71 0.951 . S
H49 C36 0.947 . S
H50 C38 0.952 . S
H51 C39 0.950 . S
N52 C55 1.382 . S
N52 C57 1.363 . S
N53 C55 1.371 . S
N53 C56 1.372 . S
N54 C56 1.361 . S
N54 C57 1.377 . S
C55 N52 1.382 . S
C55 N53 1.371 . S
C55 C58 1.480 . S
C56 N53 1.372 . S
C56 N54 1.361 . S
C56 C64 1.457 . S
C57 N52 1.363 . S
C57 N54 1.377 . S
C57 C70 1.479 . S
C58 C55 1.480 . S
C58 C59 1.383 . S
C58 C63 1.385 . S
C59 H40 0.947 . S
C59 C58 1.383 . S
C59 C60 1.388 . S
C60 H41 0.946 . S
C60 C59 1.388 . S
C60 C61 1.384 . S
C61 C60 1.384 . S
C61 C62 1.377 . S
C62 H42 0.953 . S
C62 C61 1.377 . S
C62 C63 1.369 . S
C63 H43 0.945 . S
C63 C58 1.385 . S
C63 C62 1.369 . S
C64 C56 1.457 . S
C64 C65 1.372 . S
C64 C69 1.364 . S
C65 H44 0.952 . S
C65 C64 1.372 . S
C65 C66 1.389 . S
C66 H45 0.949 . S
C66 C65 1.389 . S
C66 C67 1.387 . S
C67 C66 1.387 . S
C67 C68 1.372 . S
C68 H46 0.950 . S
C68 C67 1.372 . S
C68 C69 1.379 . S
C69 H47 0.948 . S
C69 C64 1.364 . S
C69 C68 1.379 . S
C70 C39 1.383 . S
C70 C57 1.479 . S
C70 C71 1.398 . S
C71 C36 1.382 . S
C71 H48 0.951 . S
C71 C70 1.398 . S
C72 C73 1.384 . S
C72 H85 0.947 . S
C72 C107 1.382 . S
C73 C72 1.384 . S
C73 C74 1.378 . S
C74 C73 1.378 . S
C74 C75 1.378 . S
C74 H86 0.952 . S
C75 C74 1.378 . S
C75 H87 0.950 . S
C75 C106 1.383 . S
H76 C95 0.947 . S
H77 C96 0.946 . S
H78 C98 0.953 . S
H79 C99 0.945 . S
H80 C101 0.952 . S
H81 C102 0.949 . S
H82 C104 0.950 . S
H83 C105 0.948 . S
H84 C107 0.951 . S
H85 C72 0.947 . S
H86 C74 0.952 . S
H87 C75 0.950 . S
N88 C91 1.382 . S
N88 C93 1.363 . S
N89 C91 1.371 . S
N89 C92 1.372 . S
N90 C92 1.361 . S
N90 C93 1.377 . S
C91 N88 1.382 . S
C91 N89 1.371 . S
C91 C94 1.480 . S
C92 N89 1.372 . S
C92 N90 1.361 . S
C92 C100 1.457 . S
C93 N88 1.363 . S
C93 N90 1.377 . S
C93 C106 1.479 . S
C94 C91 1.480 . S
C94 C95 1.383 . S
C94 C99 1.385 . S
C95 H76 0.947 . S
C95 C94 1.383 . S
C95 C96 1.388 . S
C96 H77 0.946 . S
C96 C95 1.388 . S
C96 C97 1.384 . S
C97 C96 1.384 . S
C97 C98 1.377 . S
C98 H78 0.953 . S
C98 C97 1.377 . S
C98 C99 1.369 . S
C99 H79 0.945 . S
C99 C94 1.385 . S
C99 C98 1.369 . S
C100 C92 1.457 . S
C100 C101 1.372 . S
C100 C105 1.364 . S
C101 H80 0.952 . S
C101 C100 1.372 . S
C101 C102 1.389 . S
C102 H81 0.949 . S
C102 C101 1.389 . S
C102 C103 1.387 . S
C103 C102 1.387 . S
C103 C104 1.372 . S
C104 H82 0.950 . S
C104 C103 1.372 . S
C104 C105 1.379 . S
C105 H83 0.948 . S
C105 C100 1.364 . S
C105 C104 1.379 . S
C106 C75 1.383 . S
C106 C93 1.479 . S
C106 C107 1.398 . S
C107 C72 1.382 . S
C107 H84 0.951 . S
C107 C106 1.398 . S
C108 C109 1.384 . S
C108 H121 0.947 . S
C108 C143 1.382 . S
C109 C108 1.384 . S
C109 C110 1.378 . S
C110 C109 1.378 . S
C110 C111 1.378 . S
C110 H122 0.952 . S
C111 C110 1.378 . S
C111 H123 0.950 . S
C111 C142 1.383 . S
H112 C131 0.947 . S
H113 C132 0.946 1_565 S
H114 C134 0.953 . S
H115 C135 0.945 . S
H116 C137 0.952 . S
H117 C138 0.946 1_565 S
H118 C140 0.950 . S
H119 C141 0.948 . S
H120 C143 0.951 . S
H121 C108 0.947 . S
H122 C110 0.952 . S
H123 C111 0.950 . S
N124 C127 1.382 . S
N124 C129 1.363 . S
N125 C127 1.371 . S
N125 C128 1.372 . S
N126 C128 1.361 . S
N126 C129 1.377 . S
C127 N124 1.382 . S
C127 N125 1.371 . S
C127 C130 1.480 . S
C128 N125 1.372 . S
C128 N126 1.361 . S
C128 C136 1.457 . S
C129 N124 1.363 . S
C129 N126 1.377 . S
C129 C142 1.479 . S
C130 C127 1.480 . S
C130 C131 1.383 . S
C130 C135 1.385 . S
C131 H112 0.947 . S
C131 C130 1.383 . S
C131 C132 1.388 . S
C132 H113 0.946 1_545 S
C132 C131 1.388 . S
C132 C133 1.384 . S
C133 C132 1.384 . S
C133 C134 1.377 . S
C134 H114 0.953 . S
C134 C133 1.377 . S
C134 C135 1.369 . S
C135 H115 0.945 . S
C135 C130 1.385 . S
C135 C134 1.369 . S
C136 C128 1.457 . S
C136 C137 1.372 . S
C136 C141 1.364 . S
C137 H116 0.952 . S
C137 C136 1.372 . S
C137 C138 1.389 . S
C138 H117 0.946 1_545 S
C138 C137 1.389 . S
C138 C139 1.387 . S
C139 C138 1.387 . S
C139 C140 1.372 . S
C140 H118 0.950 . S
C140 C139 1.372 . S
C140 C141 1.379 . S
C141 H119 0.948 . S
C141 C136 1.364 . S
C141 C140 1.379 . S
C142 C111 1.383 . S
C142 C129 1.479 . S
C142 C143 1.398 . S
C143 C108 1.382 . S
C143 H120 0.951 . S
C143 C142 1.398 . S
C144 C145 1.383 1_455 S
C144 H157 0.949 . S
C144 C179 1.382 . S
C145 C144 1.383 1_655 S
C145 C146 1.378 . S
C146 C145 1.378 . S
C146 C147 1.378 . S
C146 H158 0.952 . S
C147 C146 1.378 . S
C147 H159 0.950 . S
C147 C178 1.383 . S
H148 C167 0.947 . S
H149 C168 0.946 . S
H150 C170 0.953 . S
H151 C171 0.945 . S
H152 C173 0.950 1_455 S
H153 C174 0.949 . S
H154 C176 0.950 . S
H155 C177 0.948 . S
H156 C179 0.951 . S
H157 C144 0.949 . S
H158 C146 0.952 . S
H159 C147 0.950 . S
N160 C163 1.382 . S
N160 C165 1.363 . S
N161 C163 1.371 . S
N161 C164 1.372 . S
N162 C164 1.361 . S
N162 C165 1.377 . S
C163 N160 1.382 . S
C163 N161 1.371 . S
C163 C166 1.480 . S
C164 N161 1.372 . S
C164 N162 1.361 . S
C164 C172 1.457 . S
C165 N160 1.363 . S
C165 N162 1.377 . S
C165 C178 1.479 . S
C166 C163 1.480 . S
C166 C167 1.383 . S
C166 C171 1.385 . S
C167 H148 0.947 . S
C167 C166 1.383 . S
C167 C168 1.388 1_655 S
C168 H149 0.946 . S
C168 C167 1.388 1_455 S
C168 C169 1.384 1_455 S
C169 C168 1.384 1_655 S
C169 C170 1.377 . S
C170 H150 0.953 . S
C170 C169 1.377 . S
C170 C171 1.369 . S
C171 H151 0.945 . S
C171 C166 1.385 . S
C171 C170 1.369 . S
C172 C164 1.457 . S
C172 C173 1.375 . S
C172 C177 1.364 . S
C173 H152 0.950 1_655 S
C173 C172 1.375 . S
C173 C174 1.388 1_655 S
C174 H153 0.949 . S
C174 C173 1.388 1_455 S
C174 C175 1.387 1_455 S
C175 C174 1.387 1_655 S
C175 C176 1.372 . S
C176 H154 0.950 . S
C176 C175 1.372 . S
C176 C177 1.379 . S
C177 H155 0.948 . S
C177 C172 1.364 . S
C177 C176 1.379 . S
C178 C147 1.383 . S
C178 C165 1.479 . S
C178 C179 1.398 1_655 S
C179 C144 1.382 . S
C179 H156 0.951 . S
C179 C178 1.398 1_455 S
C180 C181 1.384 . S
C180 H193 0.947 . S
C180 C215 1.382 . S
C181 C180 1.384 . S
C181 C182 1.378 . S
C182 C181 1.378 . S
C182 C183 1.378 . S
C182 H194 0.952 . S
C183 C182 1.378 . S
C183 H195 0.950 . S
C183 C214 1.383 . S
H184 C203 0.947 . S
H185 C204 0.946 . S
H186 C206 0.953 . S
H187 C207 0.945 . S
H188 C209 0.952 . S
H189 C210 0.949 . S
H190 C212 0.950 . S
H191 C213 0.948 . S
H192 C215 0.951 . S
H193 C180 0.947 . S
H194 C182 0.952 . S
H195 C183 0.950 . S
N196 C199 1.382 . S
N196 C201 1.363 . S
N197 C199 1.371 . S
N197 C200 1.372 . S
N198 C200 1.361 . S
N198 C201 1.377 . S
C199 N196 1.382 . S
C199 N197 1.371 . S
C199 C202 1.480 . S
C200 N197 1.372 . S
C200 N198 1.361 . S
C200 C208 1.457 . S
C201 N196 1.363 . S
C201 N198 1.377 . S
C201 C214 1.479 . S
C202 C199 1.480 . S
C202 C203 1.383 . S
C202 C207 1.385 . S
C203 H184 0.947 . S
C203 C202 1.383 . S
C203 C204 1.388 . S
C204 H185 0.946 . S
C204 C203 1.388 . S
C204 C205 1.384 . S
C205 C204 1.384 . S
C205 C206 1.377 . S
C206 H186 0.953 . S
C206 C205 1.377 . S
C206 C207 1.369 . S
C207 H187 0.945 . S
C207 C202 1.385 . S
C207 C206 1.369 . S
C208 C200 1.457 . S
C208 C209 1.372 . S
C208 C213 1.364 . S
C209 H188 0.952 . S
C209 C208 1.372 . S
C209 C210 1.389 . S
C210 H189 0.949 . S
C210 C209 1.389 . S
C210 C211 1.387 . S
C211 C210 1.387 . S
C211 C212 1.372 . S
C212 H190 0.950 . S
C212 C211 1.372 . S
C212 C213 1.379 . S
C213 H191 0.948 . S
C213 C208 1.364 . S
C213 C212 1.379 . S
C214 C183 1.383 . S
C214 C201 1.479 . S
C214 C215 1.398 . S
C215 C180 1.382 . S
C215 H192 0.951 . S
C215 C214 1.398 . S
C216 C217 1.384 . S
C216 H229 0.947 . S
C216 C251 1.382 . S
C217 C216 1.384 . S
C217 C218 1.378 . S
C218 C217 1.378 . S
C218 C219 1.378 . S
C218 H230 0.952 . S
C219 C218 1.378 . S
C219 H231 0.950 . S
C219 C250 1.383 . S
H220 C239 0.947 . S
H221 C240 0.946 . S
H222 C242 0.953 . S
H223 C243 0.945 . S
H224 C245 0.952 . S
H225 C246 0.949 . S
H226 C248 0.950 . S
H227 C249 0.948 . S
H228 C251 0.951 . S
H229 C216 0.947 . S
H230 C218 0.952 . S
H231 C219 0.950 . S
N232 C235 1.382 . S
N232 C237 1.363 . S
N233 C235 1.371 . S
N233 C236 1.372 . S
N234 C236 1.361 . S
N234 C237 1.377 . S
C235 N232 1.382 . S
C235 N233 1.371 . S
C235 C238 1.480 . S
C236 N233 1.372 . S
C236 N234 1.361 . S
C236 C244 1.457 . S
C237 N232 1.363 . S
C237 N234 1.377 . S
C237 C250 1.479 . S
C238 C235 1.480 . S
C238 C239 1.383 . S
C238 C243 1.385 . S
C239 H220 0.947 . S
C239 C238 1.383 . S
C239 C240 1.388 . S
C240 H221 0.946 . S
C240 C239 1.388 . S
C240 C241 1.384 . S
C241 C240 1.384 . S
C241 C242 1.377 . S
C242 H222 0.953 . S
C242 C241 1.377 . S
C242 C243 1.369 . S
C243 H223 0.945 . S
C243 C238 1.385 . S
C243 C242 1.369 . S
C244 C236 1.457 . S
C244 C245 1.372 . S
C244 C249 1.364 . S
C245 H224 0.952 . S
C245 C244 1.372 . S
C245 C246 1.389 . S
C246 H225 0.949 . S
C246 C245 1.389 . S
C246 C247 1.387 . S
C247 C246 1.387 . S
C247 C248 1.372 . S
C248 H226 0.950 . S
C248 C247 1.372 . S
C248 C249 1.379 . S
C249 H227 0.948 . S
C249 C244 1.364 . S
C249 C248 1.379 . S
C250 C219 1.383 . S
C250 C237 1.479 . S
C250 C251 1.398 . S
C251 C216 1.382 . S
C251 H228 0.951 . S
C251 C250 1.398 . S
C252 C253 1.384 . S
C252 H265 0.947 . S
C252 C287 1.382 . S
C253 C252 1.384 . S
C253 C254 1.378 . S
C254 C253 1.378 . S
C254 C255 1.378 . S
C254 H266 0.952 . S
C255 C254 1.378 . S
C255 H267 0.950 . S
C255 C286 1.383 . S
H256 C275 0.947 . S
H257 C276 0.946 . S
H258 C278 0.953 . S
H259 C279 0.945 . S
H260 C281 0.952 . S
H261 C282 0.949 . S
H262 C284 0.950 . S
H263 C285 0.948 . S
H264 C287 0.951 . S
H265 C252 0.947 . S
H266 C254 0.952 . S
H267 C255 0.950 . S
N268 C271 1.382 . S
N268 C273 1.363 . S
N269 C271 1.371 . S
N269 C272 1.372 . S
N270 C272 1.361 . S
N270 C273 1.377 . S
C271 N268 1.382 . S
C271 N269 1.371 . S
C271 C274 1.480 . S
C272 N269 1.372 . S
C272 N270 1.361 . S
C272 C280 1.457 . S
C273 N268 1.363 . S
C273 N270 1.377 . S
C273 C286 1.479 . S
C274 C271 1.480 . S
C274 C275 1.383 . S
C274 C279 1.385 . S
C275 H256 0.947 . S
C275 C274 1.383 . S
C275 C276 1.388 . S
C276 H257 0.946 . S
C276 C275 1.388 . S
C276 C277 1.384 . S
C277 C276 1.384 . S
C277 C278 1.377 . S
C278 H258 0.953 . S
C278 C277 1.377 . S
C278 C279 1.369 . S
C279 H259 0.945 . S
C279 C274 1.385 . S
C279 C278 1.369 . S
C280 C272 1.457 . S
C280 C281 1.372 . S
C280 C285 1.364 . S
C281 H260 0.952 . S
C281 C280 1.372 . S
C281 C282 1.389 . S
C282 H261 0.949 . S
C282 C281 1.389 . S
C282 C283 1.387 . S
C283 C282 1.387 . S
C283 C284 1.372 . S
C284 H262 0.950 . S
C284 C283 1.372 . S
C284 C285 1.379 . S
C285 H263 0.948 . S
C285 C280 1.364 . S
C285 C284 1.379 . S
C286 C255 1.383 . S
C286 C273 1.479 . S
C286 C287 1.398 . S
C287 C252 1.382 . S
C287 H264 0.951 . S
C287 C286 1.398 . S
C288 C289 1.384 . S
C288 H301 0.947 . S
C288 C323 1.382 . S
C289 C288 1.384 . S
C289 C290 1.378 . S
C290 C289 1.378 . S
C290 C291 1.378 . S
C290 H302 0.952 . S
C291 C290 1.378 . S
C291 H303 0.950 . S
C291 C322 1.383 . S
H292 C311 0.947 . S
H293 C312 0.946 . S
H294 C314 0.953 . S
H295 C315 0.945 . S
H296 C317 0.952 . S
H297 C318 0.949 . S
H298 C320 0.950 . S
H299 C321 0.948 . S
H300 C323 0.951 . S
H301 C288 0.947 . S
H302 C290 0.952 . S
H303 C291 0.950 . S
N304 C307 1.382 . S
N304 C309 1.363 . S
N305 C307 1.371 . S
N305 C308 1.372 . S
N306 C308 1.361 . S
N306 C309 1.377 . S
C307 N304 1.382 . S
C307 N305 1.371 . S
C307 C310 1.480 . S
C308 N305 1.372 . S
C308 N306 1.361 . S
C308 C316 1.457 . S
C309 N304 1.363 . S
C309 N306 1.377 . S
C309 C322 1.479 . S
C310 C307 1.480 . S
C310 C311 1.383 . S
C310 C315 1.385 . S
C311 H292 0.947 . S
C311 C310 1.383 . S
C311 C312 1.388 . S
C312 H293 0.946 . S
C312 C311 1.388 . S
C312 C313 1.384 . S
C313 C312 1.384 . S
C313 C314 1.377 . S
C314 H294 0.953 . S
C314 C313 1.377 . S
C314 C315 1.369 . S
C315 H295 0.945 . S
C315 C310 1.385 . S
C315 C314 1.369 . S
C316 C308 1.457 . S
C316 C317 1.372 . S
C316 C321 1.364 . S
C317 H296 0.952 . S
C317 C316 1.372 . S
C317 C318 1.389 . S
C318 H297 0.949 . S
C318 C317 1.389 . S
C318 C319 1.387 . S
C319 C318 1.387 . S
C319 C320 1.372 . S
C320 H298 0.950 . S
C320 C319 1.372 . S
C320 C321 1.379 . S
C321 H299 0.948 . S
C321 C316 1.364 . S
C321 C320 1.379 . S
C322 C291 1.383 . S
C322 C309 1.479 . S
C322 C323 1.398 . S
C323 C288 1.382 . S
C323 H300 0.951 . S
C323 C322 1.398 . S
C324 C325 1.384 . S
C324 H337 0.947 . S
C324 C359 1.382 . S
C325 C324 1.384 . S
C325 C326 1.378 . S
C326 C325 1.378 . S
C326 C327 1.378 . S
C326 H338 0.952 . S
C327 C326 1.378 . S
C327 H339 0.946 1_554 S
C327 C358 1.383 . S
H328 C347 0.947 . S
H329 C348 0.946 . S
H330 C350 0.953 . S
H331 C351 0.944 1_556 S
H332 C353 0.952 . S
H333 C354 0.949 . S
H334 C356 0.950 . S
H335 C357 0.947 1_556 S
H336 C359 0.951 . S
H337 C324 0.947 . S
H338 C326 0.952 . S
H339 C327 0.946 1_556 S
N340 C343 1.382 . S
N340 C345 1.363 . S
N341 C343 1.371 . S
N341 C344 1.372 . S
N342 C344 1.361 . S
N342 C345 1.377 . S
C343 N340 1.382 . S
C343 N341 1.371 . S
C343 C346 1.480 . S
C344 N341 1.372 . S
C344 N342 1.361 . S
C344 C352 1.457 . S
C345 N340 1.363 . S
C345 N342 1.377 . S
C345 C358 1.479 . S
C346 C343 1.480 . S
C346 C347 1.383 . S
C346 C351 1.385 . S
C347 H328 0.947 . S
C347 C346 1.383 . S
C347 C348 1.388 . S
C348 H329 0.946 . S
C348 C347 1.388 . S
C348 C349 1.384 . S
C349 C348 1.384 . S
C349 C350 1.377 . S
C350 H330 0.953 . S
C350 C349 1.377 . S
C350 C351 1.369 . S
C351 H331 0.944 1_554 S
C351 C346 1.385 . S
C351 C350 1.369 . S
C352 C344 1.457 . S
C352 C353 1.372 . S
C352 C357 1.364 . S
C353 H332 0.952 . S
C353 C352 1.372 . S
C353 C354 1.389 . S
C354 H333 0.949 . S
C354 C353 1.389 . S
C354 C355 1.387 . S
C355 C354 1.387 . S
C355 C356 1.372 . S
C356 H334 0.950 . S
C356 C355 1.372 . S
C356 C357 1.379 . S
C357 H335 0.947 1_554 S
C357 C352 1.364 . S
C357 C356 1.379 . S
C358 C327 1.383 . S
C358 C345 1.479 . S
C358 C359 1.398 . S
C359 C324 1.382 . S
C359 H336 0.951 . S
C359 C358 1.398 . S
C360 C361 1.383 1_554 S
C360 H373 0.947 . S
C360 C395 1.382 . S
C361 C360 1.383 1_556 S
C361 C362 1.380 . S
C362 C361 1.380 . S
C362 C363 1.378 . S
C362 H374 0.952 . S
C363 C362 1.378 . S
C363 H375 0.950 . S
C363 C394 1.383 . S
H364 C383 0.947 . S
H365 C384 0.946 . S
H366 C386 0.953 . S
H367 C387 0.945 . S
H368 C389 0.952 . S
H369 C390 0.949 . S
H370 C392 0.950 . S
H371 C393 0.948 . S
H372 C395 0.951 . S
H373 C360 0.947 . S
H374 C362 0.952 . S
H375 C363 0.950 . S
N376 C379 1.382 . S
N376 C381 1.363 . S
N377 C379 1.371 . S
N377 C380 1.372 . S
N378 C380 1.361 . S
N378 C381 1.377 . S
C379 N376 1.382 . S
C379 N377 1.371 . S
C379 C382 1.480 . S
C380 N377 1.372 . S
C380 N378 1.361 . S
C380 C388 1.457 . S
C381 N376 1.363 . S
C381 N378 1.377 . S
C381 C394 1.479 . S
C382 C379 1.480 . S
C382 C383 1.383 . S
C382 C387 1.385 . S
C383 H364 0.947 . S
C383 C382 1.383 . S
C383 C384 1.388 1_556 S
C384 H365 0.946 . S
C384 C383 1.388 1_554 S
C384 C385 1.384 1_554 S
C385 C384 1.384 1_556 S
C385 C386 1.377 . S
C386 H366 0.953 . S
C386 C385 1.377 . S
C386 C387 1.369 . S
C387 H367 0.945 . S
C387 C382 1.385 . S
C387 C386 1.369 . S
C388 C380 1.457 . S
C388 C389 1.372 1_556 S
C388 C393 1.364 . S
C389 H368 0.952 . S
C389 C388 1.372 1_554 S
C389 C390 1.389 . S
C390 H369 0.949 . S
C390 C389 1.389 . S
C390 C391 1.386 1_554 S
C391 C390 1.386 1_556 S
C391 C392 1.373 . S
C392 H370 0.950 . S
C392 C391 1.373 . S
C392 C393 1.379 . S
C393 H371 0.948 . S
C393 C388 1.364 . S
C393 C392 1.379 . S
C394 C363 1.383 . S
C394 C381 1.479 . S
C394 C395 1.398 1_556 S
C395 C360 1.382 . S
C395 H372 0.951 . S
C395 C394 1.398 1_554 S
C396 C397 1.384 . S
C396 H409 0.947 . S
C396 C431 1.382 . S
C397 C396 1.384 . S
C397 C398 1.378 1_554 S
C398 C397 1.378 1_556 S
C398 C399 1.378 . S
C398 H410 0.952 . S
C399 C398 1.378 . S
C399 H411 0.950 . S
C399 C430 1.383 . S
H400 C419 0.947 1_556 S
H401 C420 0.946 . S
H402 C422 0.953 . S
H403 C423 0.945 . S
H404 C425 0.952 . S
H405 C426 0.949 . S
H406 C428 0.950 . S
H407 C429 0.948 . S
H408 C431 0.951 . S
H409 C396 0.947 . S
H410 C398 0.952 . S
H411 C399 0.950 . S
N412 C415 1.382 . S
N412 C417 1.363 . S
N413 C415 1.371 . S
N413 C416 1.372 . S
N414 C416 1.361 . S
N414 C417 1.377 . S
C415 N412 1.382 . S
C415 N413 1.371 . S
C415 C418 1.480 . S
C416 N413 1.372 . S
C416 N414 1.361 . S
C416 C424 1.457 . S
C417 N412 1.363 . S
C417 N414 1.377 . S
C417 C430 1.479 . S
C418 C415 1.480 . S
C418 C419 1.382 1_556 S
C418 C423 1.385 . S
C419 H400 0.947 1_554 S
C419 C418 1.382 1_554 S
C419 C420 1.390 . S
C420 H401 0.946 . S
C420 C419 1.390 . S
C420 C421 1.386 . S
C421 C420 1.386 . S
C421 C422 1.374 1_554 S
C422 H402 0.953 . S
C422 C421 1.374 1_556 S
C422 C423 1.369 . S
C423 H403 0.945 . S
C423 C418 1.385 . S
C423 C422 1.369 . S
C424 C416 1.457 . S
C424 C425 1.372 1_556 S
C424 C429 1.364 . S
C425 H404 0.952 . S
C425 C424 1.372 1_554 S
C425 C426 1.389 . S
C426 H405 0.949 . S
C426 C425 1.389 . S
C426 C427 1.387 . S
C427 C426 1.387 . S
C427 C428 1.372 1_554 S
C428 H406 0.950 . S
C428 C427 1.372 1_556 S
C428 C429 1.379 . S
C429 H407 0.948 . S
C429 C424 1.364 . S
C429 C428 1.379 . S
C430 C399 1.383 . S
C430 C417 1.479 . S
C430 C431 1.398 1_556 S
C431 C396 1.382 . S
C431 H408 0.951 . S
C431 C430 1.398 1_554 S
C432 C433 1.384 . S
C432 H445 0.947 . S
C432 C467 1.382 . S
C433 C432 1.384 . S
C433 C434 1.378 . S
C434 C433 1.378 . S
C434 C435 1.378 . S
C434 H446 0.952 . S
C435 C434 1.378 . S
C435 H447 0.950 . S
C435 C466 1.383 . S
H436 C455 0.947 . S
H437 C456 0.946 . S
H438 C458 0.953 . S
H439 C459 0.945 . S
H440 C461 0.952 . S
H441 C462 0.949 . S
H442 C464 0.950 . S
H443 C465 0.948 . S
H444 C467 0.951 . S
H445 C432 0.947 . S
H446 C434 0.952 . S
H447 C435 0.950 . S
N448 C451 1.382 . S
N448 C453 1.363 . S
N449 C451 1.371 . S
N449 C452 1.372 . S
N450 C452 1.361 . S
N450 C453 1.377 . S
C451 N448 1.382 . S
C451 N449 1.371 . S
C451 C454 1.480 . S
C452 N449 1.372 . S
C452 N450 1.361 . S
C452 C460 1.457 . S
C453 N448 1.363 . S
C453 N450 1.377 . S
C453 C466 1.479 . S
C454 C451 1.480 . S
C454 C455 1.383 . S
C454 C459 1.385 . S
C455 H436 0.947 . S
C455 C454 1.383 . S
C455 C456 1.388 . S
C456 H437 0.946 . S
C456 C455 1.388 . S
C456 C457 1.384 . S
C457 C456 1.384 . S
C457 C458 1.377 . S
C458 H438 0.953 . S
C458 C457 1.377 . S
C458 C459 1.369 . S
C459 H439 0.945 . S
C459 C454 1.385 . S
C459 C458 1.369 . S
C460 C452 1.457 . S
C460 C461 1.372 . S
C460 C465 1.364 . S
C461 H440 0.952 . S
C461 C460 1.372 . S
C461 C462 1.389 . S
C462 H441 0.949 . S
C462 C461 1.389 . S
C462 C463 1.387 . S
C463 C462 1.387 . S
C463 C464 1.372 . S
C464 H442 0.950 . S
C464 C463 1.372 . S
C464 C465 1.379 . S
C465 H443 0.948 . S
C465 C460 1.364 . S
C465 C464 1.379 . S
C466 C435 1.383 . S
C466 C453 1.479 . S
C466 C467 1.398 . S
C467 C432 1.382 . S
C467 H444 0.951 . S
C467 C466 1.398 . S
C468 C469 1.384 . S
C468 H481 0.947 . S
C468 C503 1.382 . S
C469 C468 1.384 . S
C469 C470 1.378 . S
C470 C469 1.378 . S
C470 C471 1.378 . S
C470 H482 0.952 . S
C471 C470 1.378 . S
C471 H483 0.950 . S
C471 C502 1.383 . S
H472 C491 0.947 . S
H473 C492 0.946 . S
H474 C494 0.953 . S
H475 C495 0.945 . S
H476 C497 0.952 . S
H477 C498 0.949 . S
H478 C500 0.950 . S
H479 C501 0.948 . S
H480 C503 0.951 . S
H481 C468 0.947 . S
H482 C470 0.952 . S
H483 C471 0.950 . S
N484 C487 1.382 . S
N484 C489 1.363 . S
N485 C487 1.371 . S
N485 C488 1.372 . S
N486 C488 1.361 . S
N486 C489 1.377 . S
C487 N484 1.382 . S
C487 N485 1.371 . S
C487 C490 1.480 . S
C488 N485 1.372 . S
C488 N486 1.361 . S
C488 C496 1.457 . S
C489 N484 1.363 . S
C489 N486 1.377 . S
C489 C502 1.479 . S
C490 C487 1.480 . S
C490 C491 1.383 . S
C490 C495 1.385 . S
C491 H472 0.947 . S
C491 C490 1.383 . S
C491 C492 1.388 . S
C492 H473 0.946 . S
C492 C491 1.388 . S
C492 C493 1.384 . S
C493 C492 1.384 . S
C493 C494 1.377 . S
C494 H474 0.953 . S
C494 C493 1.377 . S
C494 C495 1.369 . S
C495 H475 0.945 . S
C495 C490 1.385 . S
C495 C494 1.369 . S
C496 C488 1.457 . S
C496 C497 1.372 . S
C496 C501 1.364 . S
C497 H476 0.952 . S
C497 C496 1.372 . S
C497 C498 1.389 . S
C498 H477 0.949 . S
C498 C497 1.389 . S
C498 C499 1.387 . S
C499 C498 1.387 . S
C499 C500 1.372 . S
C500 H478 0.950 . S
C500 C499 1.372 . S
C500 C501 1.379 . S
C501 H479 0.948 . S
C501 C496 1.364 . S
C501 C500 1.379 . S
C502 C471 1.383 . S
C502 C489 1.479 . S
C502 C503 1.398 . S
C503 C468 1.382 . S
C503 H480 0.951 . S
C503 C502 1.398 . S
C504 C505 1.384 . S
C504 H517 0.947 . S
C504 C539 1.382 . S
C505 C504 1.384 . S
C505 C506 1.378 . S
C506 C505 1.378 . S
C506 C507 1.378 . S
C506 H518 0.952 . S
C507 C506 1.378 . S
C507 H519 0.950 . S
C507 C538 1.383 . S
H508 C527 0.947 . S
H509 C528 0.946 . S
H510 C530 0.953 . S
H511 C531 0.945 . S
H512 C533 0.952 . S
H513 C534 0.949 . S
H514 C536 0.950 . S
H515 C537 0.948 . S
H516 C539 0.951 . S
H517 C504 0.947 . S
H518 C506 0.952 . S
H519 C507 0.950 . S
N520 C523 1.382 . S
N520 C525 1.363 . S
N521 C523 1.371 . S
N521 C524 1.372 . S
N522 C524 1.361 . S
N522 C525 1.377 . S
C523 N520 1.382 . S
C523 N521 1.371 . S
C523 C526 1.480 . S
C524 N521 1.372 . S
C524 N522 1.361 . S
C524 C532 1.457 . S
C525 N520 1.363 . S
C525 N522 1.377 . S
C525 C538 1.479 . S
C526 C523 1.480 . S
C526 C527 1.383 . S
C526 C531 1.385 . S
C527 H508 0.947 . S
C527 C526 1.383 . S
C527 C528 1.388 . S
C528 H509 0.946 . S
C528 C527 1.388 . S
C528 C529 1.384 . S
C529 C528 1.384 . S
C529 C530 1.377 . S
C530 H510 0.953 . S
C530 C529 1.377 . S
C530 C531 1.369 . S
C531 H511 0.945 . S
C531 C526 1.385 . S
C531 C530 1.369 . S
C532 C524 1.457 . S
C532 C533 1.372 . S
C532 C537 1.364 . S
C533 H512 0.952 . S
C533 C532 1.372 . S
C533 C534 1.389 . S
C534 H513 0.949 . S
C534 C533 1.389 . S
C534 C535 1.387 . S
C535 C534 1.387 . S
C535 C536 1.372 . S
C536 H514 0.950 . S
C536 C535 1.372 . S
C536 C537 1.379 . S
C537 H515 0.948 . S
C537 C532 1.364 . S
C537 C536 1.379 . S
C538 C507 1.383 . S
C538 C525 1.479 . S
C538 C539 1.398 . S
C539 C504 1.382 . S
C539 H516 0.951 . S
C539 C538 1.398 . S
C540 C541 1.384 . S
C540 H553 0.947 . S
C540 C575 1.382 . S
C541 C540 1.384 . S
C541 C542 1.378 . S
C542 C541 1.378 . S
C542 C543 1.378 . S
C542 H554 0.952 . S
C543 C542 1.378 . S
C543 H555 0.950 . S
C543 C574 1.383 . S
H544 C563 0.947 . S
H545 C564 0.946 . S
H546 C566 0.953 . S
H547 C567 0.945 . S
H548 C569 0.952 . S
H549 C570 0.949 . S
H550 C572 0.950 . S
H551 C573 0.948 . S
H552 C575 0.951 . S
H553 C540 0.947 . S
H554 C542 0.952 . S
H555 C543 0.950 . S
N556 C559 1.382 . S
N556 C561 1.363 . S
N557 C559 1.371 . S
N557 C560 1.372 . S
N558 C560 1.361 . S
N558 C561 1.377 . S
C559 N556 1.382 . S
C559 N557 1.371 . S
C559 C562 1.480 . S
C560 N557 1.372 . S
C560 N558 1.361 . S
C560 C568 1.457 . S
C561 N556 1.363 . S
C561 N558 1.377 . S
C561 C574 1.479 . S
C562 C559 1.480 . S
C562 C563 1.383 . S
C562 C567 1.385 . S
C563 H544 0.947 . S
C563 C562 1.383 . S
C563 C564 1.388 . S
C564 H545 0.946 . S
C564 C563 1.388 . S
C564 C565 1.384 . S
C565 C564 1.384 . S
C565 C566 1.377 . S
C566 H546 0.953 . S
C566 C565 1.377 . S
C566 C567 1.369 . S
C567 H547 0.945 . S
C567 C562 1.385 . S
C567 C566 1.369 . S
C568 C560 1.457 . S
C568 C569 1.372 . S
C568 C573 1.364 . S
C569 H548 0.952 . S
C569 C568 1.372 . S
C569 C570 1.389 . S
C570 H549 0.949 . S
C570 C569 1.389 . S
C570 C571 1.387 . S
C571 C570 1.387 . S
C571 C572 1.372 . S
C572 H550 0.950 . S
C572 C571 1.372 . S
C572 C573 1.379 . S
C573 H551 0.948 . S
C573 C568 1.364 . S
C573 C572 1.379 . S
C574 C543 1.383 . S
C574 C561 1.479 . S
C574 C575 1.398 . S
C575 C540 1.382 . S
C575 H552 0.951 . S
C575 C574 1.398 . S
C576 C577 1.384 . S
C576 H589 0.947 . S
C576 C611 1.382 . S
C577 C576 1.384 . S
C577 C578 1.378 . S
C578 C577 1.378 . S
C578 C579 1.378 . S
C578 H590 0.952 . S
C579 C578 1.378 . S
C579 H591 0.950 . S
C579 C610 1.383 . S
H580 C599 0.947 . S
H581 C600 0.946 . S
H582 C602 0.953 . S
H583 C603 0.945 . S
H584 C605 0.952 . S
H585 C606 0.949 . S
H586 C608 0.950 . S
H587 C609 0.948 . S
H588 C611 0.951 . S
H589 C576 0.947 . S
H590 C578 0.952 . S
H591 C579 0.950 . S
N592 C595 1.382 . S
N592 C597 1.363 . S
N593 C595 1.371 . S
N593 C596 1.372 . S
N594 C596 1.361 . S
N594 C597 1.377 . S
C595 N592 1.382 . S
C595 N593 1.371 . S
C595 C598 1.480 . S
C596 N593 1.372 . S
C596 N594 1.361 . S
C596 C604 1.457 . S
C597 N592 1.363 . S
C597 N594 1.377 . S
C597 C610 1.479 . S
C598 C595 1.480 . S
C598 C599 1.383 . S
C598 C603 1.385 . S
C599 H580 0.947 . S
C599 C598 1.383 . S
C599 C600 1.388 . S
C600 H581 0.946 . S
C600 C599 1.388 . S
C600 C601 1.384 . S
C601 C600 1.384 . S
C601 C602 1.377 . S
C602 H582 0.953 . S
C602 C601 1.377 . S
C602 C603 1.369 . S
C603 H583 0.945 . S
C603 C598 1.385 . S
C603 C602 1.369 . S
C604 C596 1.457 . S
C604 C605 1.372 . S
C604 C609 1.364 . S
C605 H584 0.952 . S
C605 C604 1.372 . S
C605 C606 1.389 . S
C606 H585 0.949 . S
C606 C605 1.389 . S
C606 C607 1.387 . S
C607 C606 1.387 . S
C607 C608 1.372 . S
C608 H586 0.950 . S
C608 C607 1.372 . S
C608 C609 1.379 . S
C609 H587 0.948 . S
C609 C604 1.364 . S
C609 C608 1.379 . S
C610 C579 1.383 . S
C610 C597 1.479 . S
C610 C611 1.398 . S
C611 C576 1.382 . S
C611 H588 0.951 . S
C611 C610 1.398 . S
C612 C613 1.384 . S
C612 H625 0.947 . S
C612 C647 1.382 . S
C613 C612 1.384 . S
C613 C614 1.378 . S
C614 C613 1.378 . S
C614 C615 1.378 . S
C614 H626 0.952 . S
C615 C614 1.378 . S
C615 H627 0.950 . S
C615 C646 1.383 . S
H616 C635 0.947 . S
H617 C636 0.946 . S
H618 C638 0.953 . S
H619 C639 0.945 . S
H620 C641 0.952 . S
H621 C642 0.949 . S
H622 C644 0.950 . S
H623 C645 0.948 . S
H624 C647 0.951 . S
H625 C612 0.947 . S
H626 C614 0.952 . S
H627 C615 0.950 . S
N628 C631 1.382 . S
N628 C633 1.363 . S
N629 C631 1.371 . S
N629 C632 1.372 . S
N630 C632 1.361 . S
N630 C633 1.377 . S
C631 N628 1.382 . S
C631 N629 1.371 . S
C631 C634 1.480 . S
C632 N629 1.372 . S
C632 N630 1.361 . S
C632 C640 1.457 . S
C633 N628 1.363 . S
C633 N630 1.377 . S
C633 C646 1.479 . S
C634 C631 1.480 . S
C634 C635 1.383 . S
C634 C639 1.385 . S
C635 H616 0.947 . S
C635 C634 1.383 . S
C635 C636 1.388 . S
C636 H617 0.946 . S
C636 C635 1.388 . S
C636 C637 1.384 . S
C637 C636 1.384 . S
C637 C638 1.377 . S
C638 H618 0.953 . S
C638 C637 1.377 . S
C638 C639 1.369 . S
C639 H619 0.945 . S
C639 C634 1.385 . S
C639 C638 1.369 . S
C640 C632 1.457 . S
C640 C641 1.372 . S
C640 C645 1.364 . S
C641 H620 0.952 . S
C641 C640 1.372 . S
C641 C642 1.389 . S
C642 H621 0.949 . S
C642 C641 1.389 . S
C642 C643 1.387 . S
C643 C642 1.387 . S
C643 C644 1.372 . S
C644 H622 0.950 . S
C644 C643 1.372 . S
C644 C645 1.379 . S
C645 H623 0.948 . S
C645 C640 1.364 . S
C645 C644 1.379 . S
C646 C615 1.383 . S
C646 C633 1.479 . S
C646 C647 1.398 . S
C647 C612 1.382 . S
C647 H624 0.951 . S
C647 C646 1.398 . S
C648 C649 1.384 . S
C648 H661 0.947 . S
C648 C683 1.382 . S
C649 C648 1.384 . S
C649 C650 1.378 . S
C650 C649 1.378 . S
C650 C651 1.378 . S
C650 H662 0.952 . S
C651 C650 1.378 . S
C651 H663 0.950 . S
C651 C682 1.383 . S
H652 C671 0.947 . S
H653 C672 0.946 . S
H654 C674 0.953 . S
H655 C675 0.945 . S
H656 C677 0.952 . S
H657 C678 0.949 . S
H658 C680 0.950 . S
H659 C681 0.948 . S
H660 C683 0.951 . S
H661 C648 0.947 . S
H662 C650 0.952 . S
H663 C651 0.950 . S
N664 C667 1.382 . S
N664 C669 1.363 . S
N665 C667 1.371 . S
N665 C668 1.372 . S
N666 C668 1.361 . S
N666 C669 1.377 . S
C667 N664 1.382 . S
C667 N665 1.371 . S
C667 C670 1.480 . S
C668 N665 1.372 . S
C668 N666 1.361 . S
C668 C676 1.457 . S
C669 N664 1.363 . S
C669 N666 1.377 . S
C669 C682 1.479 . S
C670 C667 1.480 . S
C670 C671 1.383 . S
C670 C675 1.385 . S
C671 H652 0.947 . S
C671 C670 1.383 . S
C671 C672 1.388 . S
C672 H653 0.946 . S
C672 C671 1.388 . S
C672 C673 1.384 . S
C673 C672 1.384 . S
C673 C674 1.377 . S
C674 H654 0.953 . S
C674 C673 1.377 . S
C674 C675 1.369 . S
C675 H655 0.945 . S
C675 C670 1.385 . S
C675 C674 1.369 . S
C676 C668 1.457 . S
C676 C677 1.372 . S
C676 C681 1.364 . S
C677 H656 0.952 . S
C677 C676 1.372 . S
C677 C678 1.389 . S
C678 H657 0.949 . S
C678 C677 1.389 . S
C678 C679 1.387 . S
C679 C678 1.387 . S
C679 C680 1.372 . S
C680 H658 0.950 . S
C680 C679 1.372 . S
C680 C681 1.379 . S
C681 H659 0.948 . S
C681 C676 1.364 . S
C681 C680 1.379 . S
C682 C651 1.383 . S
C682 C669 1.479 . S
C682 C683 1.398 . S
C683 C648 1.382 . S
C683 H660 0.951 . S
C683 C682 1.398 . S
C684 C685 1.384 . S
C684 H697 0.947 . S
C684 C719 1.382 . S
C685 C684 1.384 . S
C685 C686 1.378 . S
C686 C685 1.378 . S
C686 C687 1.378 . S
C686 H698 0.952 . S
C687 C686 1.378 . S
C687 H699 0.950 . S
C687 C718 1.383 . S
H688 C707 0.947 . S
H689 C708 0.946 . S
H690 C710 0.953 . S
H691 C711 0.945 . S
H692 C713 0.952 . S
H693 C714 0.949 . S
H694 C716 0.950 . S
H695 C717 0.948 . S
H696 C719 0.951 . S
H697 C684 0.947 . S
H698 C686 0.952 . S
H699 C687 0.950 . S
N700 C703 1.382 . S
N700 C705 1.363 . S
N701 C703 1.371 . S
N701 C704 1.372 . S
N702 C704 1.361 . S
N702 C705 1.377 . S
C703 N700 1.382 . S
C703 N701 1.371 . S
C703 C706 1.480 . S
C704 N701 1.372 . S
C704 N702 1.361 . S
C704 C712 1.457 . S
C705 N700 1.363 . S
C705 N702 1.377 . S
C705 C718 1.479 . S
C706 C703 1.480 . S
C706 C707 1.383 . S
C706 C711 1.385 . S
C707 H688 0.947 . S
C707 C706 1.383 . S
C707 C708 1.388 . S
C708 H689 0.946 . S
C708 C707 1.388 . S
C708 C709 1.384 . S
C709 C708 1.384 . S
C709 C710 1.377 . S
C710 H690 0.953 . S
C710 C709 1.377 . S
C710 C711 1.369 . S
C711 H691 0.945 . S
C711 C706 1.385 . S
C711 C710 1.369 . S
C712 C704 1.457 . S
C712 C713 1.372 . S
C712 C717 1.364 . S
C713 H692 0.952 . S
C713 C712 1.372 . S
C713 C714 1.389 . S
C714 H693 0.949 . S
C714 C713 1.389 . S
C714 C715 1.387 . S
C715 C714 1.387 . S
C715 C716 1.372 . S
C716 H694 0.950 . S
C716 C715 1.372 . S
C716 C717 1.379 . S
C717 H695 0.948 . S
C717 C712 1.364 . S
C717 C716 1.379 . S
C718 C687 1.383 . S
C718 C705 1.479 . S
C718 C719 1.398 . S
C719 C684 1.382 . S
C719 H696 0.951 . S
C719 C718 1.398 . S
C720 C721 1.384 . S
C720 H733 0.947 . S
C720 C755 1.382 . S
C721 C720 1.384 . S
C721 C722 1.378 . S
C722 C721 1.378 . S
C722 C723 1.378 . S
C722 H734 0.952 . S
C723 C722 1.378 . S
C723 H735 0.950 . S
C723 C754 1.383 . S
H724 C743 0.947 . S
H725 C744 0.946 . S
H726 C746 0.953 . S
H727 C747 0.945 . S
H728 C749 0.952 . S
H729 C750 0.949 . S
H730 C752 0.950 . S
H731 C753 0.948 . S
H732 C755 0.951 . S
H733 C720 0.947 . S
H734 C722 0.952 . S
H735 C723 0.950 . S
N736 C739 1.382 . S
N736 C741 1.363 . S
N737 C739 1.371 . S
N737 C740 1.372 . S
N738 C740 1.361 . S
N738 C741 1.377 . S
C739 N736 1.382 . S
C739 N737 1.371 . S
C739 C742 1.480 . S
C740 N737 1.372 . S
C740 N738 1.361 . S
C740 C748 1.457 . S
C741 N736 1.363 . S
C741 N738 1.377 . S
C741 C754 1.479 . S
C742 C739 1.480 . S
C742 C743 1.383 . S
C742 C747 1.385 . S
C743 H724 0.947 . S
C743 C742 1.383 . S
C743 C744 1.388 . S
C744 H725 0.946 . S
C744 C743 1.388 . S
C744 C745 1.384 . S
C745 C744 1.384 . S
C745 C746 1.377 . S
C746 H726 0.953 . S
C746 C745 1.377 . S
C746 C747 1.369 . S
C747 H727 0.945 . S
C747 C742 1.385 . S
C747 C746 1.369 . S
C748 C740 1.457 . S
C748 C749 1.372 . S
C748 C753 1.364 . S
C749 H728 0.952 . S
C749 C748 1.372 . S
C749 C750 1.389 . S
C750 H729 0.949 . S
C750 C749 1.389 . S
C750 C751 1.387 . S
C751 C750 1.387 . S
C751 C752 1.372 . S
C752 H730 0.950 . S
C752 C751 1.372 . S
C752 C753 1.379 . S
C753 H731 0.948 . S
C753 C748 1.364 . S
C753 C752 1.379 . S
C754 C723 1.383 . S
C754 C741 1.479 . S
C754 C755 1.398 . S
C755 C720 1.382 . S
C755 H732 0.951 . S
C755 C754 1.398 . S
C756 C757 1.384 . S
C756 H769 0.947 . S
C756 C791 1.382 . S
C757 C756 1.384 . S
C757 C758 1.378 . S
C758 C757 1.378 . S
C758 C759 1.378 . S
C758 H770 0.952 . S
C759 C758 1.378 . S
C759 H771 0.950 . S
C759 C790 1.383 . S
H760 C779 0.947 . S
H761 C780 0.946 . S
H762 C782 0.953 . S
H763 C783 0.945 . S
H764 C785 0.952 . S
H765 C786 0.949 . S
H766 C788 0.950 . S
H767 C789 0.948 . S
H768 C791 0.951 . S
H769 C756 0.947 . S
H770 C758 0.952 . S
H771 C759 0.950 . S
N772 C775 1.382 . S
N772 C777 1.363 . S
N773 C775 1.371 . S
N773 C776 1.372 . S
N774 C776 1.361 . S
N774 C777 1.377 . S
C775 N772 1.382 . S
C775 N773 1.371 . S
C775 C778 1.480 . S
C776 N773 1.372 . S
C776 N774 1.361 . S
C776 C784 1.457 . S
C777 N772 1.363 . S
C777 N774 1.377 . S
C777 C790 1.479 . S
C778 C775 1.480 . S
C778 C779 1.383 . S
C778 C783 1.385 . S
C779 H760 0.947 . S
C779 C778 1.383 . S
C779 C780 1.388 . S
C780 H761 0.946 . S
C780 C779 1.388 . S
C780 C781 1.384 . S
C781 C780 1.384 . S
C781 C782 1.377 . S
C782 H762 0.953 . S
C782 C781 1.377 . S
C782 C783 1.369 . S
C783 H763 0.945 . S
C783 C778 1.385 . S
C783 C782 1.369 . S
C784 C776 1.457 . S
C784 C785 1.372 . S
C784 C789 1.364 . S
C785 H764 0.952 . S
C785 C784 1.372 . S
C785 C786 1.389 . S
C786 H765 0.949 . S
C786 C785 1.389 . S
C786 C787 1.387 . S
C787 C786 1.387 . S
C787 C788 1.372 . S
C788 H766 0.950 . S
C788 C787 1.372 . S
C788 C789 1.379 . S
C789 H767 0.948 . S
C789 C784 1.364 . S
C789 C788 1.379 . S
C790 C759 1.383 . S
C790 C777 1.479 . S
C790 C791 1.398 . S
C791 C756 1.382 . S
C791 H768 0.951 . S
C791 C790 1.398 . S
C792 C793 1.384 . S
C792 H805 0.947 . S
C792 C827 1.382 . S
C793 C792 1.384 . S
C793 C794 1.378 . S
C794 C793 1.378 . S
C794 C795 1.378 . S
C794 H806 0.952 . S
C795 C794 1.378 . S
C795 H807 0.950 . S
C795 C826 1.383 . S
H796 C815 0.947 . S
H797 C816 0.946 . S
H798 C818 0.953 . S
H799 C819 0.945 . S
H800 C821 0.952 . S
H801 C822 0.949 . S
H802 C824 0.950 . S
H803 C825 0.948 . S
H804 C827 0.951 . S
H805 C792 0.947 . S
H806 C794 0.952 . S
H807 C795 0.950 . S
N808 C811 1.382 . S
N808 C813 1.363 . S
N809 C811 1.371 . S
N809 C812 1.372 . S
N810 C812 1.361 . S
N810 C813 1.377 . S
C811 N808 1.382 . S
C811 N809 1.371 . S
C811 C814 1.480 . S
C812 N809 1.372 . S
C812 N810 1.361 . S
C812 C820 1.457 . S
C813 N808 1.363 . S
C813 N810 1.377 . S
C813 C826 1.479 . S
C814 C811 1.480 . S
C814 C815 1.383 . S
C814 C819 1.385 . S
C815 H796 0.947 . S
C815 C814 1.383 . S
C815 C816 1.388 . S
C816 H797 0.946 . S
C816 C815 1.388 . S
C816 C817 1.384 . S
C817 C816 1.384 . S
C817 C818 1.377 . S
C818 H798 0.953 . S
C818 C817 1.377 . S
C818 C819 1.369 . S
C819 H799 0.945 . S
C819 C814 1.385 . S
C819 C818 1.369 . S
C820 C812 1.457 . S
C820 C821 1.372 . S
C820 C825 1.364 . S
C821 H800 0.952 . S
C821 C820 1.372 . S
C821 C822 1.389 . S
C822 H801 0.949 . S
C822 C821 1.389 . S
C822 C823 1.387 . S
C823 C822 1.387 . S
C823 C824 1.372 . S
C824 H802 0.950 . S
C824 C823 1.372 . S
C824 C825 1.379 . S
C825 H803 0.948 . S
C825 C820 1.364 . S
C825 C824 1.379 . S
C826 C795 1.383 . S
C826 C813 1.479 . S
C826 C827 1.398 . S
C827 C792 1.382 . S
C827 H804 0.951 . S
C827 C826 1.398 . S
C828 C829 1.384 . S
C828 H841 0.947 . S
C828 C863 1.382 . S
C829 C828 1.384 . S
C829 C830 1.378 . S
C830 C829 1.378 . S
C830 C831 1.378 . S
C830 H842 0.952 . S
C831 C830 1.378 . S
C831 H843 0.950 . S
C831 C862 1.383 . S
H832 C851 0.947 . S
H833 C852 0.946 . S
H834 C854 0.953 . S
H835 C855 0.945 . S
H836 C857 0.952 . S
H837 C858 0.949 . S
H838 C860 0.950 . S
H839 C861 0.948 . S
H840 C863 0.951 . S
H841 C828 0.947 . S
H842 C830 0.952 . S
H843 C831 0.950 . S
N844 C847 1.382 . S
N844 C849 1.363 . S
N845 C847 1.371 . S
N845 C848 1.372 . S
N846 C848 1.361 . S
N846 C849 1.377 . S
C847 N844 1.382 . S
C847 N845 1.371 . S
C847 C850 1.480 . S
C848 N845 1.372 . S
C848 N846 1.361 . S
C848 C856 1.457 . S
C849 N844 1.363 . S
C849 N846 1.377 . S
C849 C862 1.479 . S
C850 C847 1.480 . S
C850 C851 1.383 . S
C850 C855 1.385 . S
C851 H832 0.947 . S
C851 C850 1.383 . S
C851 C852 1.388 . S
C852 H833 0.946 . S
C852 C851 1.388 . S
C852 C853 1.384 . S
C853 C852 1.384 . S
C853 C854 1.377 . S
C854 H834 0.953 . S
C854 C853 1.377 . S
C854 C855 1.369 . S
C855 H835 0.945 . S
C855 C850 1.385 . S
C855 C854 1.369 . S
C856 C848 1.457 . S
C856 C857 1.372 . S
C856 C861 1.364 . S
C857 H836 0.952 . S
C857 C856 1.372 . S
C857 C858 1.389 . S
C858 H837 0.949 . S
C858 C857 1.389 . S
C858 C859 1.387 . S
C859 C858 1.387 . S
C859 C860 1.372 . S
C860 H838 0.950 . S
C860 C859 1.372 . S
C860 C861 1.379 . S
C861 H839 0.948 . S
C861 C856 1.364 . S
C861 C860 1.379 . S
C862 C831 1.383 . S
C862 C849 1.479 . S
C862 C863 1.398 . S
C863 C828 1.382 . S
C863 H840 0.951 . S
C863 C862 1.398 . S
Zn864 O866 1.933 1_565 S
Zn864 O884 1.985 . S
Zn864 O895 1.955 . S
Zn865 O866 1.911 . S
Zn865 O885 1.970 . S
Zn865 O901 1.945 . S
Zn865 O908 1.981 . S
O866 Zn864 1.933 1_545 S
O866 Zn865 1.911 . S
O866 H867 0.841 1_655 S
H867 O866 0.841 1_455 S
C868 O869 1.246 . S
C868 O897 1.276 . S
O869 C868 1.246 . S
Zn870 O872 1.911 . S
Zn870 O887 1.970 . S
Zn870 O904 1.945 . S
Zn870 O911 1.981 . S
Zn871 O872 1.933 1_565 S
Zn871 O886 1.985 . S
Zn871 O893 1.955 . S
O872 Zn870 1.911 . S
O872 Zn871 1.933 1_545 S
O872 H873 0.841 . S
H873 O872 0.841 . S
Zn874 O875 1.933 1_565 S
Zn874 O888 1.985 . S
Zn874 O897 1.955 . S
O875 Zn874 1.933 1_545 S
O875 Zn876 1.911 . S
O875 H877 0.841 . S
Zn876 O875 1.911 . S
Zn876 O889 1.970 . S
Zn876 O905 1.981 1_655 S
Zn876 O907 1.945 . S
H877 O875 0.841 . S
Zn878 O879 1.933 1_565 S
Zn878 O891 1.985 . S
Zn878 O899 1.955 . S
O879 Zn878 1.933 1_545 S
O879 H880 0.841 . S
O879 Zn881 1.911 . S
H880 O879 0.841 . S
Zn881 O879 1.911 . S
Zn881 O892 1.970 . S
Zn881 O902 1.981 . S
Zn881 O910 1.945 . S
C882 O883 1.246 . S
C882 O899 1.276 . S
O883 C882 1.246 . S
O884 Zn864 1.985 . S
O884 C894 1.245 1_565 S
O885 Zn865 1.970 . S
O885 C894 1.263 . S
O886 Zn871 1.985 . S
O886 C898 1.245 1_565 S
O887 Zn870 1.970 . S
O887 C898 1.263 . S
O888 Zn874 1.985 . S
O888 C903 1.245 1_565 S
O889 Zn876 1.970 . S
O889 C903 1.263 . S
C890 O901 1.262 1_455 S
C890 O902 1.245 . S
O891 Zn878 1.985 . S
O891 C909 1.245 1_565 S
O892 Zn881 1.970 . S
O892 C909 1.263 . S
O893 Zn871 1.955 . S
O893 C912 1.276 . S
C894 O884 1.245 1_545 S
C894 O885 1.263 . S
O895 Zn864 1.955 . S
O895 C914 1.276 1_655 S
C896 O904 1.262 . S
C896 O905 1.245 . S
O897 C868 1.276 . S
O897 Zn874 1.955 . S
C898 O886 1.245 1_545 S
C898 O887 1.263 . S
O899 Zn878 1.955 . S
O899 C882 1.276 . S
C900 O907 1.262 . S
C900 O908 1.245 . S
O901 Zn865 1.945 . S
O901 C890 1.262 1_655 S
O902 Zn881 1.981 . S
O902 C890 1.245 . S
C903 O888 1.245 1_545 S
C903 O889 1.263 . S
O904 Zn870 1.945 . S
O904 C896 1.262 . S
O905 Zn876 1.981 1_455 S
O905 C896 1.245 . S
C906 O910 1.262 . S
C906 O911 1.245 . S
O907 Zn876 1.945 . S
O907 C900 1.262 . S
O908 Zn865 1.981 . S
O908 C900 1.245 . S
C909 O891 1.245 1_545 S
C909 O892 1.263 . S
O910 Zn881 1.945 . S
O910 C906 1.262 . S
O911 Zn870 1.981 . S
O911 C906 1.245 . S
C912 O893 1.276 . S
C912 O913 1.246 1_455 S
O913 C912 1.246 1_655 S
C914 O895 1.276 1_455 S
C914 O915 1.246 . S
O915 C914 1.246 . S
Zn916 O918 1.933 . S
Zn916 O936 1.985 . S
Zn916 O947 1.955 . S
Zn917 O918 1.911 1_556 S
Zn917 O937 1.970 . S
Zn917 O953 1.945 . S
Zn917 O960 1.981 . S
O918 Zn916 1.933 . S
O918 Zn917 1.911 1_554 S
O918 H919 0.841 . S
H919 O918 0.841 . S
C920 O921 1.246 . S
C920 O949 1.276 . S
O921 C920 1.246 . S
Zn922 O924 1.911 1_556 S
Zn922 O939 1.970 . S
Zn922 O956 1.945 . S
Zn922 O963 1.981 . S
Zn923 O924 1.933 . S
Zn923 O938 1.985 . S
Zn923 O945 1.955 . S
O924 Zn922 1.911 1_554 S
O924 Zn923 1.933 . S
O924 H925 0.841 1_565 S
H925 O924 0.841 1_545 S
Zn926 O927 1.933 . S
Zn926 O940 1.985 . S
Zn926 O949 1.955 . S
O927 Zn926 1.933 . S
O927 Zn928 1.911 1_554 S
O927 H929 0.841 . S
Zn928 O927 1.911 1_556 S
Zn928 O941 1.970 . S
Zn928 O957 1.981 . S
Zn928 O959 1.945 . S
H929 O927 0.841 . S
Zn930 O931 1.933 . S
Zn930 O943 1.985 . S
Zn930 O951 1.955 . S
O931 Zn930 1.933 . S
O931 H932 0.841 . S
O931 Zn933 1.911 1_554 S
H932 O931 0.841 . S
Zn933 O931 1.911 1_556 S
Zn933 O944 1.970 . S
Zn933 O954 1.992 . S
Zn933 O962 1.945 . S
C934 O935 1.246 . S
C934 O951 1.276 . S
O935 C934 1.246 . S
O936 Zn916 1.985 . S
O936 C946 1.245 . S
O937 Zn917 1.970 . S
O937 C946 1.263 1_556 S
O938 Zn923 1.985 . S
O938 C950 1.245 . S
O939 Zn922 1.970 . S
O939 C950 1.263 1_556 S
O940 Zn926 1.985 . S
O940 C955 1.245 . S
O941 Zn928 1.970 . S
O941 C955 1.263 1_556 S
C942 O953 1.262 . S
C942 O954 1.238 1_545 S
O943 Zn930 1.985 . S
O943 C961 1.245 . S
O944 Zn933 1.970 . S
O944 C961 1.263 1_556 S
O945 Zn923 1.955 . S
O945 C964 1.276 1_565 S
C946 O936 1.245 . S
C946 O937 1.263 1_554 S
O947 Zn916 1.955 . S
O947 C966 1.276 . S
C948 O956 1.262 1_545 S
C948 O957 1.245 . S
O949 C920 1.276 . S
O949 Zn926 1.955 . S
C950 O938 1.245 . S
C950 O939 1.263 1_554 S
O951 Zn930 1.955 . S
O951 C934 1.276 . S
C952 O959 1.262 . S
C952 O960 1.245 . S
O953 Zn917 1.945 . S
O953 C942 1.262 . S
O954 Zn933 1.992 . S
O954 C942 1.238 1_565 S
C955 O940 1.245 . S
C955 O941 1.263 1_554 S
O956 Zn922 1.945 . S
O956 C948 1.262 1_565 S
O957 Zn928 1.981 . S
O957 C948 1.245 . S
C958 O962 1.262 . S
C958 O963 1.245 . S
O959 Zn928 1.945 . S
O959 C952 1.262 . S
O960 Zn917 1.981 . S
O960 C952 1.245 . S
C961 O943 1.245 . S
C961 O944 1.263 1_554 S
O962 Zn933 1.945 . S
O962 C958 1.262 . S
O963 Zn922 1.981 . S
O963 C958 1.245 . S
C964 O945 1.276 1_545 S
C964 O965 1.246 . S
O965 C964 1.246 . S
C966 O947 1.276 . S
C966 O967 1.246 1_545 S
O967 C966 1.246 1_565 S
Zn968 O970 1.933 . S
Zn968 O988 1.985 . S
Zn968 O999 1.955 . S
Zn969 O970 1.911 . S
Zn969 O989 1.970 . S
Zn969 O1005 1.945 . S
Zn969 O1012 1.981 . S
O970 Zn968 1.933 . S
O970 Zn969 1.911 . S
O970 H971 0.841 1_655 S
H971 O970 0.841 1_455 S
C972 O973 1.246 1_554 S
C972 O1001 1.276 . S
O973 C972 1.246 1_556 S
Zn974 O976 1.911 . S
Zn974 O991 1.970 . S
Zn974 O1008 1.945 . S
Zn974 O1015 1.981 . S
Zn975 O976 1.933 . S
Zn975 O990 1.985 . S
Zn975 O997 1.955 . S
O976 Zn974 1.911 . S
O976 Zn975 1.933 . S
O976 H977 0.841 . S
H977 O976 0.841 . S
Zn978 O979 1.933 . S
Zn978 O992 1.985 . S
Zn978 O1001 1.955 . S
O979 Zn978 1.933 . S
O979 Zn980 1.911 . S
O979 H981 0.841 . S
Zn980 O979 1.911 . S
Zn980 O993 1.970 . S
Zn980 O1009 1.981 . S
Zn980 O1011 1.945 . S
H981 O979 0.841 . S
Zn982 O983 1.933 . S
Zn982 O995 1.985 . S
Zn982 O1003 1.955 . S
O983 Zn982 1.933 . S
O983 H984 0.826 1_556 S
O983 Zn985 1.911 . S
H984 O983 0.826 1_554 S
Zn985 O983 1.911 . S
Zn985 O996 1.970 . S
Zn985 O1006 1.981 . S
Zn985 O1014 1.945 . S
C986 O987 1.246 . S
C986 O1003 1.276 1_554 S
O987 C986 1.246 . S
O988 Zn968 1.985 . S
O988 C998 1.245 . S
O989 Zn969 1.970 . S
O989 C998 1.263 . S
O990 Zn975 1.985 . S
O990 C1002 1.245 . S
O991 Zn974 1.970 . S
O991 C1002 1.263 . S
O992 Zn978 1.985 . S
O992 C1007 1.245 . S
O993 Zn980 1.970 . S
O993 C1007 1.263 . S
C994 O1005 1.262 1_455 S
C994 O1006 1.245 . S
O995 Zn982 1.985 . S
O995 C1013 1.245 . S
O996 Zn985 1.970 . S
O996 C1013 1.263 . S
O997 Zn975 1.955 . S
O997 C1016 1.276 . S
C998 O988 1.245 . S
C998 O989 1.263 . S
O999 Zn968 1.955 . S
O999 C1018 1.276 1_655 S
C1000 O1008 1.262 . S
C1000 O1009 1.245 1_455 S
O1001 C972 1.276 . S
O1001 Zn978 1.955 . S
C1002 O990 1.245 . S
C1002 O991 1.263 . S
O1003 Zn982 1.955 . S
O1003 C986 1.276 1_556 S
C1004 O1011 1.262 . S
C1004 O1012 1.245 1_554 S
O1005 Zn969 1.945 . S
O1005 C994 1.262 1_655 S
O1006 Zn985 1.981 . S
O1006 C994 1.245 . S
C1007 O992 1.245 . S
C1007 O993 1.263 . S
O1008 Zn974 1.945 . S
O1008 C1000 1.262 . S
O1009 Zn980 1.981 . S
O1009 C1000 1.245 1_655 S
C1010 O1014 1.262 1_554 S
C1010 O1015 1.245 . S
O1011 Zn980 1.945 . S
O1011 C1004 1.262 . S
O1012 Zn969 1.981 . S
O1012 C1004 1.245 1_556 S
C1013 O995 1.245 . S
C1013 O996 1.263 . S
O1014 Zn985 1.945 . S
O1014 C1010 1.262 1_556 S
O1015 Zn974 1.981 . S
O1015 C1010 1.245 . S
C1016 O997 1.276 . S
C1016 O1017 1.246 . S
O1017 C1016 1.246 . S
C1018 O999 1.276 1_455 S
C1018 O1019 1.246 . S
O1019 C1018 1.246 . S
Zn1020 O1022 1.933 1_556 S
Zn1020 O1040 1.985 . S
Zn1020 O1051 1.955 . S
Zn1021 O1022 1.911 . S
Zn1021 O1041 1.970 . S
Zn1021 O1057 1.945 . S
Zn1021 O1064 1.981 . S
O1022 Zn1020 1.933 1_554 S
O1022 Zn1021 1.911 . S
O1022 H1023 0.841 . S
H1023 O1022 0.841 . S
C1024 O1025 1.246 . S
C1024 O1053 1.276 . S
O1025 C1024 1.246 . S
Zn1026 O1028 1.911 . S
Zn1026 O1043 1.970 . S
Zn1026 O1060 1.945 . S
Zn1026 O1067 1.981 . S
Zn1027 O1028 1.933 1_556 S
Zn1027 O1042 1.985 . S
Zn1027 O1049 1.955 . S
O1028 Zn1026 1.911 . S
O1028 Zn1027 1.933 1_554 S
O1028 H1029 0.841 . S
H1029 O1028 0.841 . S
Zn1030 O1031 1.933 1_556 S
Zn1030 O1044 1.985 . S
Zn1030 O1053 1.955 . S
O1031 Zn1030 1.933 1_554 S
O1031 Zn1032 1.911 . S
O1031 H1033 0.841 . S
Zn1032 O1031 1.911 . S
Zn1032 O1045 1.970 . S
Zn1032 O1061 1.981 . S
Zn1032 O1063 1.945 . S
H1033 O1031 0.841 . S
Zn1034 O1035 1.933 1_556 S
Zn1034 O1047 1.985 . S
Zn1034 O1055 1.955 . S
O1035 Zn1034 1.933 1_554 S
O1035 H1036 0.841 . S
O1035 Zn1037 1.911 . S
H1036 O1035 0.841 . S
Zn1037 O1035 1.911 . S
Zn1037 O1048 1.970 . S
Zn1037 O1058 1.981 . S
Zn1037 O1066 1.945 . S
C1038 O1039 1.246 . S
C1038 O1055 1.276 . S
O1039 C1038 1.246 . S
O1040 Zn1020 1.985 . S
O1040 C1050 1.245 1_556 S
O1041 Zn1021 1.970 . S
O1041 C1050 1.263 . S
O1042 Zn1027 1.985 . S
O1042 C1054 1.245 1_556 S
O1043 Zn1026 1.970 . S
O1043 C1054 1.263 . S
O1044 Zn1030 1.985 . S
O1044 C1059 1.245 1_556 S
O1045 Zn1032 1.970 . S
O1045 C1059 1.263 . S
C1046 O1057 1.262 . S
C1046 O1058 1.245 . S
O1047 Zn1034 1.985 . S
O1047 C1065 1.245 1_556 S
O1048 Zn1037 1.970 . S
O1048 C1065 1.263 . S
O1049 Zn1027 1.955 . S
O1049 C1068 1.276 . S
C1050 O1040 1.245 1_554 S
C1050 O1041 1.263 . S
O1051 Zn1020 1.955 . S
O1051 C1070 1.276 . S
C1052 O1060 1.262 . S
C1052 O1061 1.245 . S
O1053 C1024 1.276 . S
O1053 Zn1030 1.955 . S
C1054 O1042 1.245 1_554 S
C1054 O1043 1.263 . S
O1055 Zn1034 1.955 . S
O1055 C1038 1.276 . S
C1056 O1063 1.262 . S
C1056 O1064 1.245 . S
O1057 Zn1021 1.945 . S
O1057 C1046 1.262 . S
O1058 Zn1037 1.981 . S
O1058 C1046 1.245 . S
C1059 O1044 1.245 1_554 S
C1059 O1045 1.263 . S
O1060 Zn1026 1.945 . S
O1060 C1052 1.262 . S
O1061 Zn1032 1.981 . S
O1061 C1052 1.245 . S
C1062 O1066 1.262 . S
C1062 O1067 1.245 . S
O1063 Zn1032 1.945 . S
O1063 C1056 1.262 . S
O1064 Zn1021 1.981 . S
O1064 C1056 1.245 . S
C1065 O1047 1.245 1_554 S
C1065 O1048 1.263 . S
O1066 Zn1037 1.945 . S
O1066 C1062 1.262 . S
O1067 Zn1026 1.981 . S
O1067 C1062 1.245 . S
C1068 O1049 1.276 . S
C1068 O1069 1.246 . S
O1069 C1068 1.246 . S
C1070 O1051 1.276 . S
C1070 O1071 1.246 . S
O1071 C1070 1.246 . S
Zn1072 O1074 1.933 . S
Zn1072 O1092 1.985 . S
Zn1072 O1103 1.955 . S
Zn1073 O1074 1.911 . S
Zn1073 O1093 1.970 . S
Zn1073 O1109 1.945 . S
Zn1073 O1116 1.981 . S
O1074 Zn1072 1.933 . S
O1074 Zn1073 1.911 . S
O1074 H1075 0.841 1_655 S
H1075 O1074 0.841 1_455 S
C1076 O1077 1.246 . S
C1076 O1105 1.276 . S
O1077 C1076 1.246 . S
Zn1078 O1080 1.911 . S
Zn1078 O1095 1.970 . S
Zn1078 O1112 1.945 . S
Zn1078 O1119 1.981 . S
Zn1079 O1080 1.933 . S
Zn1079 O1094 1.985 . S
Zn1079 O1101 1.955 . S
O1080 Zn1078 1.911 . S
O1080 Zn1079 1.933 . S
O1080 H1081 0.841 . S
H1081 O1080 0.841 . S
Zn1082 O1083 1.933 . S
Zn1082 O1096 1.985 . S
Zn1082 O1105 1.955 . S
O1083 Zn1082 1.933 . S
O1083 Zn1084 1.911 . S
O1083 H1085 0.841 . S
Zn1084 O1083 1.911 . S
Zn1084 O1097 1.970 . S
Zn1084 O1113 1.981 . S
Zn1084 O1115 1.945 . S
H1085 O1083 0.841 . S
Zn1086 O1087 1.933 . S
Zn1086 O1099 1.985 . S
Zn1086 O1107 1.955 . S
O1087 Zn1086 1.933 . S
O1087 H1088 0.841 . S
O1087 Zn1089 1.911 . S
H1088 O1087 0.841 . S
Zn1089 O1087 1.911 . S
Zn1089 O1100 1.970 . S
Zn1089 O1110 1.981 . S
Zn1089 O1118 1.945 . S
C1090 O1091 1.246 . S
C1090 O1107 1.276 . S
O1091 C1090 1.246 . S
O1092 Zn1072 1.985 . S
O1092 C1102 1.245 . S
O1093 Zn1073 1.970 . S
O1093 C1102 1.263 . S
O1094 Zn1079 1.985 . S
O1094 C1106 1.245 . S
O1095 Zn1078 1.970 . S
O1095 C1106 1.263 . S
O1096 Zn1082 1.985 . S
O1096 C1111 1.245 . S
O1097 Zn1084 1.970 . S
O1097 C1111 1.263 . S
C1098 O1109 1.262 1_455 S
C1098 O1110 1.245 . S
O1099 Zn1086 1.985 . S
O1099 C1117 1.245 . S
O1100 Zn1089 1.970 . S
O1100 C1117 1.263 . S
O1101 Zn1079 1.955 . S
O1101 C1120 1.276 . S
C1102 O1092 1.245 . S
C1102 O1093 1.263 . S
O1103 Zn1072 1.955 . S
O1103 C1122 1.276 1_655 S
C1104 O1112 1.262 . S
C1104 O1113 1.245 1_455 S
O1105 C1076 1.276 . S
O1105 Zn1082 1.955 . S
C1106 O1094 1.245 . S
C1106 O1095 1.263 . S
O1107 Zn1086 1.955 . S
O1107 C1090 1.276 . S
C1108 O1115 1.262 . S
C1108 O1116 1.245 . S
O1109 Zn1073 1.945 . S
O1109 C1098 1.262 1_655 S
O1110 Zn1089 1.981 . S
O1110 C1098 1.245 . S
C1111 O1096 1.245 . S
C1111 O1097 1.263 . S
O1112 Zn1078 1.945 . S
O1112 C1104 1.262 . S
O1113 Zn1084 1.981 . S
O1113 C1104 1.245 1_655 S
C1114 O1118 1.262 . S
C1114 O1119 1.245 . S
O1115 Zn1084 1.945 . S
O1115 C1108 1.262 . S
O1116 Zn1073 1.981 . S
O1116 C1108 1.245 . S
C1117 O1099 1.245 . S
C1117 O1100 1.263 . S
O1118 Zn1089 1.945 . S
O1118 C1114 1.262 . S
O1119 Zn1078 1.981 . S
O1119 C1114 1.245 . S
C1120 O1101 1.276 . S
C1120 O1121 1.235 1_455 S
O1121 C1120 1.235 1_655 S
C1122 O1103 1.276 1_455 S
C1122 O1123 1.246 . S
O1123 C1122 1.246 . S
Zn1124 O1126 1.933 1_565 S
Zn1124 O1144 1.985 . S
Zn1124 O1155 1.955 . S
Zn1125 O1126 1.911 . S
Zn1125 O1145 1.970 . S
Zn1125 O1161 1.945 . S
Zn1125 O1168 1.981 . S
O1126 Zn1124 1.933 1_545 S
O1126 Zn1125 1.911 . S
O1126 H1127 0.841 . S
H1127 O1126 0.841 . S
C1128 O1129 1.246 . S
C1128 O1157 1.276 . S
O1129 C1128 1.246 . S
Zn1130 O1132 1.911 . S
Zn1130 O1147 1.970 . S
Zn1130 O1164 1.945 . S
Zn1130 O1171 1.981 . S
Zn1131 O1132 1.933 1_565 S
Zn1131 O1146 1.985 . S
Zn1131 O1153 1.955 . S
O1132 Zn1130 1.911 . S
O1132 Zn1131 1.933 1_545 S
O1132 H1133 0.841 . S
H1133 O1132 0.841 . S
Zn1134 O1135 1.933 1_565 S
Zn1134 O1148 1.985 . S
Zn1134 O1157 1.955 . S
O1135 Zn1134 1.933 1_545 S
O1135 Zn1136 1.911 . S
O1135 H1137 0.841 . S
Zn1136 O1135 1.911 . S
Zn1136 O1149 1.970 . S
Zn1136 O1165 1.981 . S
Zn1136 O1167 1.945 . S
H1137 O1135 0.841 . S
Zn1138 O1139 1.933 1_565 S
Zn1138 O1151 1.985 . S
Zn1138 O1159 1.955 . S
O1139 Zn1138 1.933 1_545 S
O1139 H1140 0.841 . S
O1139 Zn1141 1.911 . S
H1140 O1139 0.841 . S
Zn1141 O1139 1.911 . S
Zn1141 O1152 1.970 . S
Zn1141 O1162 1.981 . S
Zn1141 O1170 1.945 . S
C1142 O1143 1.246 . S
C1142 O1159 1.276 . S
O1143 C1142 1.246 . S
O1144 Zn1124 1.985 . S
O1144 C1154 1.245 1_565 S
O1145 Zn1125 1.970 . S
O1145 C1154 1.263 . S
O1146 Zn1131 1.985 . S
O1146 C1158 1.245 1_565 S
O1147 Zn1130 1.970 . S
O1147 C1158 1.263 . S
O1148 Zn1134 1.985 . S
O1148 C1163 1.245 1_565 S
O1149 Zn1136 1.970 . S
O1149 C1163 1.263 . S
C1150 O1161 1.262 . S
C1150 O1162 1.245 . S
O1151 Zn1138 1.985 . S
O1151 C1169 1.245 1_565 S
O1152 Zn1141 1.970 . S
O1152 C1169 1.263 . S
O1153 Zn1131 1.955 . S
O1153 C1172 1.276 . S
C1154 O1144 1.245 1_545 S
C1154 O1145 1.263 . S
O1155 Zn1124 1.955 . S
O1155 C1174 1.276 . S
C1156 O1164 1.262 . S
C1156 O1165 1.245 . S
O1157 C1128 1.276 . S
O1157 Zn1134 1.955 . S
C1158 O1146 1.245 1_545 S
C1158 O1147 1.263 . S
O1159 Zn1138 1.955 . S
O1159 C1142 1.276 . S
C1160 O1167 1.262 . S
C1160 O1168 1.245 . S
O1161 Zn1125 1.945 . S
O1161 C1150 1.262 . S
O1162 Zn1141 1.981 . S
O1162 C1150 1.245 . S
C1163 O1148 1.245 1_545 S
C1163 O1149 1.263 . S
O1164 Zn1130 1.945 . S
O1164 C1156 1.262 . S
O1165 Zn1136 1.981 . S
O1165 C1156 1.245 . S
C1166 O1170 1.262 . S
C1166 O1171 1.245 . S
O1167 Zn1136 1.945 . S
O1167 C1160 1.262 . S
O1168 Zn1125 1.981 . S
O1168 C1160 1.245 . S
C1169 O1151 1.245 1_545 S
C1169 O1152 1.263 . S
O1170 Zn1141 1.945 . S
O1170 C1166 1.262 . S
O1171 Zn1130 1.981 . S
O1171 C1166 1.245 . S
C1172 O1153 1.276 . S
C1172 O1173 1.246 . S
O1173 C1172 1.246 . S
C1174 O1155 1.276 . S
C1174 O1175 1.246 . S
O1175 C1174 1.246 . S
C906 C859 0.999 . S
C787 C900 1.009 . S
C868 C751 1.092 . S
C823 C882 1.108 . S
C920 C607 1.668 . S
C1007 C643 0.979 . S
C679 C934 1.872 . S
C1002 C715 0.441 . S
C463 C958 1.696 . S
C1013 C499 1.047 . S
C535 C952 1.717 . S
C571 C998 0.540 . S
C1054 C427 0.553 . S
C355 C1065 0.947 . S
C319 C1050 0.686 . S
C1059 C391 1.104 1_554 S
C175 C1104 1.205 1_655 S
C211 C1163 0.288 . S
C247 C1120 1.214 . S
C283 C1158 0.693 . S
C1122 C31 1.250 . S
C1169 C67 0.495 . S
C103 C1098 1.016 . S
C1154 C139 0.833 . S
C890 C25 3.086 . S
C61 C894 2.899 . S
C97 C914 3.156 . S
C133 C909 2.629 . S
C169 C912 3.211 1_655 S
C898 C181 3.039 . S
C241 C896 3.066 . S
C903 C253 2.781 . S
C966 C109 3.406 . S
C1 C1016 3.380 . S
C964 C37 2.747 . S
C1000 C73 3.286 . S
C205 C942 2.556 . S
C1018 C217 3.346 . S
C948 C277 3.216 . S
C994 C145 3.363 1_455 S
C986 C289 3.437 . S
C325 C1010 3.530 . S
C946 C313 3.038 . S
C972 C361 3.505 1_554 S
C397 C950 3.007 . S
C421 C1004 3.375 . S
C961 C349 3.232 . S
C955 C385 3.342 1_554 S
C1038 C457 3.577 . S
C1070 C493 3.536 . S
C529 C1024 3.524 . S
C1068 C565 2.932 . S
C1056 C601 3.529 . S
C613 C1052 3.640 . S
C673 C1062 3.703 . S
C1046 C685 3.037 . S
C1111 C541 3.464 . S
C433 C1172 3.553 . S
C1106 C469 3.165 . S
C1156 C505 3.613 . S
C1102 C637 2.941 . S
C649 C1174 3.430 . S
C1117 C709 3.235 . S
C1150 C577 3.391 . S
C1142 C721 3.388 . S
C757 C1166 3.279 . S
C1108 C745 2.821 . S
C793 C1128 3.315 . S
C1090 C829 3.007 . S
C1160 C853 3.248 . S
C1076 C781 3.114 . S
C817 C1114 2.997 . S
