# Generated by pormake.
# Topology ssb, (4,4)-cn, num edge types: 1
# Building blocks:
#     Node 0, Type 0, BuildingBlock: GIZVER_clean_linker_0, # of connection points: 4
#     Node 1, Type 0, BuildingBlock: GIZVER_clean_linker_0, # of connection points: 4
#     Node 2, Type 0, BuildingBlock: GIZVER_clean_linker_0, # of connection points: 4
#     Node 3, Type 0, BuildingBlock: GIZVER_clean_linker_0, # of connection points: 4
#     Node 4, Type 0, BuildingBlock: GIZVER_clean_linker_0, # of connection points: 4
#     Node 5, Type 0, BuildingBlock: GIZVER_clean_linker_0, # of connection points: 4
#     Node 6, Type 0, BuildingBlock: GIZVER_clean_linker_0, # of connection points: 4
#     Node 7, Type 0, BuildingBlock: GIZVER_clean_linker_0, # of connection points: 4
#     Node 8, Type 1, BuildingBlock: KOZSID_clean_sbu_0, # of connection points: 4
#     Node 9, Type 1, BuildingBlock: KOZSID_clean_sbu_0, # of connection points: 4
#     Node 10, Type 1, BuildingBlock: KOZSID_clean_sbu_0, # of connection points: 4
#     Node 11, Type 1, BuildingBlock: KOZSID_clean_sbu_0, # of connection points: 4
#     Node 12, Type 1, BuildingBlock: KOZSID_clean_sbu_0, # of connection points: 4
#     Node 13, Type 1, BuildingBlock: KOZSID_clean_sbu_0, # of connection points: 4
#     Node 14, Type 1, BuildingBlock: KOZSID_clean_sbu_0, # of connection points: 4
#     Node 15, Type 1, BuildingBlock: KOZSID_clean_sbu_0, # of connection points: 4
#     Edge 16, Type (0, 1), BuildingBlock: KIFKEQ_clean_linker_1, # of connection points: 2
#     Edge 17, Type (0, 1), BuildingBlock: KIFKEQ_clean_linker_1, # of connection points: 2
#     Edge 18, Type (0, 1), BuildingBlock: KIFKEQ_clean_linker_1, # of connection points: 2
#     Edge 19, Type (0, 1), BuildingBlock: KIFKEQ_clean_linker_1, # of connection points: 2
#     Edge 20, Type (0, 1), BuildingBlock: KIFKEQ_clean_linker_1, # of connection points: 2
#     Edge 21, Type (0, 1), BuildingBlock: KIFKEQ_clean_linker_1, # of connection points: 2
#     Edge 22, Type (0, 1), BuildingBlock: KIFKEQ_clean_linker_1, # of connection points: 2
#     Edge 23, Type (0, 1), BuildingBlock: KIFKEQ_clean_linker_1, # of connection points: 2
#     Edge 24, Type (0, 1), BuildingBlock: KIFKEQ_clean_linker_1, # of connection points: 2
#     Edge 25, Type (0, 1), BuildingBlock: KIFKEQ_clean_linker_1, # of connection points: 2
#     Edge 26, Type (0, 1), BuildingBlock: KIFKEQ_clean_linker_1, # of connection points: 2
#     Edge 27, Type (0, 1), BuildingBlock: KIFKEQ_clean_linker_1, # of connection points: 2
#     Edge 28, Type (0, 1), BuildingBlock: KIFKEQ_clean_linker_1, # of connection points: 2
#     Edge 29, Type (0, 1), BuildingBlock: KIFKEQ_clean_linker_1, # of connection points: 2
#     Edge 30, Type (0, 1), BuildingBlock: KIFKEQ_clean_linker_1, # of connection points: 2
#     Edge 31, Type (0, 1), BuildingBlock: KIFKEQ_clean_linker_1, # of connection points: 2
#     Edge 32, Type (0, 1), BuildingBlock: KIFKEQ_clean_linker_1, # of connection points: 2
#     Edge 33, Type (0, 1), BuildingBlock: KIFKEQ_clean_linker_1, # of connection points: 2
#     Edge 34, Type (0, 1), BuildingBlock: KIFKEQ_clean_linker_1, # of connection points: 2
#     Edge 35, Type (0, 1), BuildingBlock: KIFKEQ_clean_linker_1, # of connection points: 2
#     Edge 36, Type (0, 1), BuildingBlock: KIFKEQ_clean_linker_1, # of connection points: 2
#     Edge 37, Type (0, 1), BuildingBlock: KIFKEQ_clean_linker_1, # of connection points: 2
#     Edge 38, Type (0, 1), BuildingBlock: KIFKEQ_clean_linker_1, # of connection points: 2
#     Edge 39, Type (0, 1), BuildingBlock: KIFKEQ_clean_linker_1, # of connection points: 2
#     Edge 40, Type (0, 1), BuildingBlock: KIFKEQ_clean_linker_1, # of connection points: 2
#     Edge 41, Type (0, 1), BuildingBlock: KIFKEQ_clean_linker_1, # of connection points: 2
#     Edge 42, Type (0, 1), BuildingBlock: KIFKEQ_clean_linker_1, # of connection points: 2
#     Edge 43, Type (0, 1), BuildingBlock: KIFKEQ_clean_linker_1, # of connection points: 2
#     Edge 44, Type (0, 1), BuildingBlock: KIFKEQ_clean_linker_1, # of connection points: 2
#     Edge 45, Type (0, 1), BuildingBlock: KIFKEQ_clean_linker_1, # of connection points: 2
#     Edge 46, Type (0, 1), BuildingBlock: KIFKEQ_clean_linker_1, # of connection points: 2
#     Edge 47, Type (0, 1), BuildingBlock: KIFKEQ_clean_linker_1, # of connection points: 2
# Relax obj value: 0.003
# Max RMSD: 0.046
# Mean RMSD: 0.022
data_MOF--net-ssb--node1-KOZSID_clean_sbu_0--node2-GIZVER_clean_linker_0--edge1-KIFKEQ_clean_linker_1
_symmetry_space_group_name_H-M    P1
_symmetry_Int_Tables_number       1
_symmetry_cell_setting            triclinic
loop_
_symmetry_equiv_pos_as_xyz
'x, y, z'
_cell_length_a     55.707149
_cell_length_b     55.386057
_cell_length_c     40.915933
_cell_angle_alpha  92.72685
_cell_angle_beta   94.984847
_cell_angle_gamma 89.992574
loop_
_atom_site_label
_atom_site_type_symbol
_atom_site_fract_x
_atom_site_fract_y
_atom_site_fract_z
_atom_type_partial_charge
H0 H 0.26163 0.19536 0.29286 0.0
H1 H 0.21083 0.25395 0.29669 0.0
H2 H 0.22562 0.21036 0.38018 0.0
H3 H 0.24389 0.2119 0.24243 0.0
H4 H 0.21953 0.23243 0.24367 0.0
H5 H 0.28669 0.22749 0.25001 0.0
H6 H 0.29438 0.29565 0.20554 0.0
H7 H 0.2255 0.27457 0.23411 0.0
C8 C 0.24978 0.20669 0.30656 0.0
C9 C 0.24589 0.20116 0.33902 0.0
C10 C 0.23755 0.22612 0.29121 0.0
C11 C 0.2211 0.23978 0.30875 0.0
C12 C 0.21683 0.23432 0.34102 0.0
C13 C 0.22966 0.21534 0.35593 0.0
C14 C 0.23819 0.22914 0.25451 0.0
C15 C 0.25453 0.24931 0.24528 0.0
C16 C 0.27921 0.24466 0.2426 0.0
C17 C 0.29382 0.26132 0.22836 0.0
C18 C 0.28364 0.28314 0.21783 0.0
C19 C 0.25919 0.28814 0.21992 0.0
C20 C 0.24464 0.27123 0.23379 0.0
H21 H 0.81282 0.25708 0.27967 0.0
H22 H 0.75438 0.2058 0.27293 0.0
H23 H 0.79892 0.21719 0.36361 0.0
H24 H 0.79407 0.24341 0.22629 0.0
H25 H 0.77337 0.21865 0.22292 0.0
H26 H 0.77983 0.28453 0.22959 0.0
H27 H 0.70384 0.29706 0.20916 0.0
H28 H 0.72978 0.22533 0.22614 0.0
C29 C 0.80198 0.2442 0.29115 0.0
C30 C 0.80767 0.2391 0.32424 0.0
C31 C 0.78264 0.23231 0.27259 0.0
C32 C 0.76901 0.21523 0.28739 0.0
C33 C 0.7746 0.20976 0.32034 0.0
C34 C 0.79378 0.22202 0.33861 0.0
C35 C 0.77772 0.23625 0.2364 0.0
C36 C 0.75692 0.25337 0.23001 0.0
C37 C 0.76137 0.27812 0.22718 0.0
C38 C 0.74237 0.2941 0.21908 0.0
C39 C 0.71866 0.28498 0.2153 0.0
C40 C 0.7139 0.2602 0.21707 0.0
C41 C 0.73316 0.24452 0.2249 0.0
H42 H 0.78414 0.73888 0.30452 0.0
H43 H 0.72794 0.79153 0.31502 0.0
H44 H 0.79973 0.8064 0.35823 0.0
H45 H 0.7408 0.72719 0.30384 0.0
H46 H 0.71793 0.74941 0.30209 0.0
H47 H 0.75833 0.71179 0.25397 0.0
H48 H 0.7152 0.72322 0.16368 0.0
H49 H 0.70426 0.76741 0.25025 0.0
C50 C 0.77856 0.75687 0.31223 0.0
C51 C 0.79495 0.77205 0.33155 0.0
C52 C 0.75429 0.76375 0.30586 0.0
C53 C 0.74679 0.78658 0.31823 0.0
C54 C 0.76311 0.80195 0.3375 0.0
C55 C 0.78716 0.79471 0.34317 0.0
C56 C 0.73571 0.74474 0.29307 0.0
C57 C 0.7326 0.74096 0.25594 0.0
C58 C 0.7449 0.72216 0.23995 0.0
C59 C 0.73895 0.7158 0.20642 0.0
C60 C 0.7208 0.72881 0.18896 0.0
C61 C 0.70809 0.74731 0.20451 0.0
C62 C 0.7144 0.75358 0.23786 0.0
H63 H 0.19155 0.74624 0.24671 0.0
H64 H 0.252 0.79513 0.25069 0.0
H65 H 0.21592 0.7847 0.3373 0.0
H66 H 0.20703 0.75718 0.19644 0.0
H67 H 0.22426 0.78435 0.19755 0.0
H68 H 0.22666 0.71795 0.19513 0.0
H69 H 0.30016 0.71553 0.17049 0.0
H70 H 0.26873 0.78341 0.19822 0.0
C71 C 0.20424 0.75839 0.26071 0.0
C72 C 0.20192 0.76345 0.29438 0.0
C73 C 0.22255 0.76955 0.24485 0.0
C74 C 0.23845 0.78587 0.26292 0.0
C75 C 0.2364 0.79101 0.29641 0.0
C76 C 0.2183 0.77961 0.31187 0.0
C77 C 0.22364 0.76625 0.20814 0.0
C78 C 0.24559 0.75206 0.1994 0.0
C79 C 0.24375 0.72691 0.19324 0.0
C80 C 0.26318 0.7137 0.18196 0.0
C81 C 0.28508 0.72561 0.17918 0.0
C82 C 0.28726 0.75067 0.18495 0.0
C83 C 0.2674 0.76392 0.19485 0.0
H84 H 0.30392 0.76308 0.77246 0.0
H85 H 0.24626 0.71073 0.76026 0.0
H86 H 0.28686 0.7219 0.85389 0.0
H87 H 0.28957 0.7469 0.71832 0.0
H88 H 0.26594 0.72529 0.71269 0.0
H89 H 0.28117 0.79004 0.71365 0.0
H90 H 0.21054 0.80796 0.67084 0.0
H91 H 0.22327 0.7381 0.7101 0.0
C92 C 0.29231 0.75043 0.78305 0.0
C93 C 0.29774 0.74387 0.81568 0.0
C94 C 0.27344 0.73897 0.76289 0.0
C95 C 0.25982 0.72071 0.77602 0.0
C96 C 0.26451 0.71459 0.80907 0.0
C97 C 0.28294 0.72687 0.82868 0.0
C98 C 0.27146 0.74262 0.72612 0.0
C99 C 0.25394 0.76221 0.71477 0.0
C100 C 0.26231 0.78544 0.70798 0.0
C101 C 0.24661 0.80232 0.69255 0.0
C102 C 0.22243 0.79566 0.68424 0.0
C103 C 0.21385 0.77259 0.69026 0.0
C104 C 0.22962 0.75612 0.70603 0.0
H105 H 0.27584 0.22207 0.85152 0.0
H106 H 0.2211 0.27659 0.84101 0.0
H107 H 0.2935 0.29659 0.87697 0.0
H108 H 0.23311 0.21073 0.84585 0.0
H109 H 0.21034 0.23348 0.84502 0.0
H110 H 0.25605 0.20289 0.79528 0.0
H111 H 0.21329 0.21094 0.70405 0.0
H112 H 0.19016 0.24374 0.79335 0.0
C113 C 0.27063 0.24091 0.85326 0.0
C114 C 0.28789 0.25867 0.86437 0.0
C115 C 0.24651 0.24732 0.8448 0.0
C116 C 0.23972 0.27169 0.8473 0.0
C117 C 0.25664 0.28961 0.85862 0.0
C118 C 0.28065 0.28294 0.86683 0.0
C119 C 0.22764 0.22818 0.83506 0.0
C120 C 0.22394 0.22443 0.79821 0.0
C121 C 0.24054 0.21048 0.7816 0.0
C122 C 0.23682 0.20569 0.74761 0.0
C123 C 0.2164 0.21508 0.73024 0.0
C124 C 0.19918 0.22847 0.74643 0.0
C125 C 0.20338 0.23362 0.78045 0.0
H126 H 0.70432 0.24812 0.78474 0.0
H127 H 0.74876 0.31188 0.78641 0.0
H128 H 0.71274 0.29516 0.87143 0.0
H129 H 0.71287 0.26802 0.73352 0.0
H130 H 0.73438 0.2917 0.73467 0.0
H131 H 0.72529 0.2254 0.73218 0.0
H132 H 0.79598 0.21195 0.70059 0.0
H133 H 0.77759 0.28305 0.73621 0.0
C134 C 0.71279 0.26369 0.79808 0.0
C135 C 0.70703 0.26968 0.83027 0.0
C136 C 0.72836 0.27847 0.78228 0.0
C137 C 0.73801 0.29968 0.79913 0.0
C138 C 0.73211 0.30616 0.83123 0.0
C139 C 0.71739 0.29043 0.84678 0.0
C140 C 0.73057 0.27427 0.7457 0.0
C141 C 0.74967 0.25602 0.7371 0.0
C142 C 0.74344 0.23153 0.7294 0.0
C143 C 0.76014 0.21534 0.71641 0.0
C144 C 0.78335 0.22384 0.71204 0.0
C145 C 0.78976 0.24813 0.71901 0.0
C146 C 0.77296 0.2641 0.73184 0.0
H147 H 0.75133 0.69883 0.77019 0.0
H148 H 0.70437 0.76054 0.76138 0.0
H149 H 0.709 0.7207 0.8492 0.0
H150 H 0.73983 0.71435 0.71676 0.0
H151 H 0.71883 0.73848 0.71217 0.0
H152 H 0.78176 0.72257 0.71406 0.0
H153 H 0.80445 0.79541 0.70244 0.0
H154 H 0.73291 0.78149 0.72917 0.0
C155 C 0.73914 0.71159 0.7809 0.0
C156 C 0.73136 0.70767 0.81193 0.0
C157 C 0.72963 0.73078 0.76251 0.0
C158 C 0.71256 0.74636 0.77588 0.0
C159 C 0.70541 0.74309 0.8075 0.0
C160 C 0.71517 0.72391 0.82534 0.0
C161 C 0.73518 0.73252 0.72718 0.0
C162 C 0.75538 0.75015 0.72352 0.0
C163 C 0.7782 0.74181 0.71579 0.0
C164 C 0.7961 0.75821 0.70883 0.0
C165 C 0.79108 0.78301 0.70978 0.0
C166 C 0.76826 0.79166 0.71669 0.0
C167 C 0.75067 0.7751 0.72423 0.0
C168 C 0.04095 0.28815 0.58995 0.0
C169 C 0.0508 0.30989 0.60307 0.0
C170 C 0.03942 0.32774 0.58588 0.0
C171 C 0.02349 0.31593 0.56318 0.0
N172 N 0.02366 0.29163 0.56514 0.0
Co173 Co 0.00508 0.26753 0.53457 0.0
N174 N 0.98889 0.29374 0.50862 0.0
C175 C 0.99135 0.31783 0.515 0.0
C176 C 0.97645 0.33143 0.49482 0.0
C177 C 0.96331 0.31504 0.47468 0.0
C178 C 0.97114 0.2923 0.48365 0.0
N179 N 0.9877 0.24337 0.50297 0.0
C180 C 0.97127 0.24674 0.4772 0.0
C181 C 0.96422 0.22497 0.46095 0.0
C182 C 0.97611 0.20718 0.47762 0.0
C183 C 0.98987 0.21905 0.50279 0.0
N184 N 0.0201 0.24132 0.56151 0.0
C185 C 0.01551 0.21735 0.55734 0.0
C186 C 0.0279 0.2038 0.58033 0.0
C187 C 0.04136 0.22008 0.60022 0.0
C188 C 0.03654 0.24269 0.58795 0.0
N189 N 0.9776 0.26832 0.56277 0.0
C190 C 0.93778 0.26959 0.60106 0.0
C191 C 0.94314 0.24878 0.5826 0.0
C192 C 0.96313 0.24841 0.56416 0.0
C193 C 0.95278 0.28971 0.60043 0.0
C194 C 0.97228 0.2888 0.58095 0.0
N195 N 0.03256 0.26669 0.50642 0.0
C196 C 0.06421 0.24443 0.48146 0.0
C197 C 0.07291 0.26544 0.46891 0.0
C198 C 0.06073 0.28705 0.47494 0.0
C199 C 0.04083 0.2873 0.49371 0.0
C200 C 0.04418 0.24542 0.4998 0.0
H201 H 0.0326 0.30442 0.49791 0.0
H202 H 0.03854 0.2287 0.50854 0.0
H203 H 0.96639 0.23177 0.55117 0.0
H204 H 0.98263 0.30499 0.58081 0.0
C205 C 0.00784 0.32707 0.54009 0.0
C206 C 0.04913 0.26464 0.60104 0.0
C207 C 0.96049 0.26987 0.46878 0.0
C208 C 0.00212 0.20792 0.52921 0.0
H209 H 0.06496 0.31261 0.62273 0.0
H210 H 0.04258 0.34701 0.58928 0.0
H211 H 0.97503 0.35092 0.49508 0.0
H212 H 0.94928 0.31938 0.45595 0.0
H213 H 0.95112 0.22222 0.43995 0.0
H214 H 0.97407 0.18786 0.47292 0.0
H215 H 0.02793 0.18433 0.58165 0.0
H216 H 0.05388 0.21575 0.62082 0.0
H217 H 0.93208 0.23269 0.58268 0.0
H218 H 0.94915 0.30626 0.61431 0.0
H219 H 0.07273 0.22714 0.477 0.0
H220 H 0.06685 0.30385 0.46589 0.0
C221 C 0.71591 0.04533 0.57204 0.0
C222 C 0.69379 0.05239 0.58241 0.0
C223 C 0.67687 0.03746 0.56594 0.0
C224 C 0.68956 0.02209 0.54668 0.0
N225 N 0.71358 0.02625 0.54982 0.0
Co226 Co 0.73859 0.00744 0.52697 0.0
N227 N 0.71347 0.98683 0.50067 0.0
C228 C 0.68931 0.9891 0.50083 0.0
C229 C 0.6765 0.97287 0.47977 0.0
C230 C 0.69349 0.95937 0.46526 0.0
C231 C 0.71578 0.96806 0.47855 0.0
N232 N 0.76366 0.98787 0.50524 0.0
C233 C 0.76134 0.96839 0.48367 0.0
C234 C 0.78365 0.95935 0.47655 0.0
C235 C 0.80063 0.97359 0.49409 0.0
C236 C 0.78784 0.99034 0.51107 0.0
N237 N 0.76367 0.02885 0.552 0.0
C238 C 0.78774 0.0279 0.54976 0.0
C239 C 0.80042 0.04559 0.56841 0.0
C240 C 0.78344 0.05883 0.58328 0.0
C241 C 0.76128 0.04827 0.57302 0.0
N242 N 0.74046 0.98431 0.5628 0.0
C243 C 0.7444 0.94858 0.60994 0.0
C244 C 0.76409 0.96309 0.60466 0.0
C245 C 0.7618 0.98051 0.58108 0.0
C246 C 0.72237 0.95313 0.59224 0.0
C247 C 0.72076 0.9711 0.56927 0.0
N248 N 0.7368 0.03055 0.49126 0.0
C249 C 0.7569 0.05466 0.45412 0.0
C250 C 0.73538 0.06627 0.44433 0.0
C251 C 0.71441 0.05913 0.45769 0.0
C252 C 0.71548 0.04126 0.48081 0.0
C253 C 0.75718 0.037 0.4773 0.0
H254 H 0.69891 0.03665 0.49019 0.0
H255 H 0.77425 0.02918 0.48397 0.0
H256 H 0.77773 0.99037 0.57787 0.0
H257 H 0.70346 0.97361 0.55664 0.0
C258 C 0.6793 0.00515 0.5232 0.0
C259 C 0.73851 0.05754 0.58372 0.0
C260 C 0.73854 0.95749 0.46983 0.0
C261 C 0.79795 0.00938 0.53127 0.0
H262 H 0.69023 0.06703 0.59978 0.0
H263 H 0.65756 0.03813 0.56724 0.0
H264 H 0.65713 0.97073 0.47601 0.0
H265 H 0.68989 0.94456 0.44728 0.0
H266 H 0.78731 0.94398 0.46044 0.0
H267 H 0.82001 0.97198 0.49433 0.0
H268 H 0.81973 0.04845 0.571 0.0
H269 H 0.787 0.0745 0.5998 0.0
H270 H 0.78141 0.9609 0.61835 0.0
H271 H 0.70651 0.94242 0.59521 0.0
H272 H 0.77371 0.05969 0.44478 0.0
H273 H 0.69723 0.06734 0.45048 0.0
C274 C 0.04004 0.76609 0.55323 0.0
C275 C 0.04598 0.78875 0.5677 0.0
C276 C 0.0278 0.80402 0.55756 0.0
C277 C 0.01193 0.78997 0.53737 0.0
N278 N 0.01901 0.76682 0.53399 0.0
Co279 Co 1.00171 0.74067 0.50633 0.0
N280 N 0.9818 0.76438 0.48093 0.0
C281 C 0.97909 0.7879 0.48986 0.0
C282 C 0.96373 0.79992 0.46834 0.0
C283 C 0.95588 0.78288 0.44458 0.0
C284 C 0.96694 0.76122 0.45294 0.0
N285 N 0.98443 0.7144 0.47879 0.0
C286 C 0.9696 0.71542 0.45076 0.0
C287 C 0.96144 0.6925 0.43979 0.0
C288 C 0.97085 0.67675 0.46225 0.0
C289 C 0.98434 0.6908 0.48548 0.0
N290 N 0.02161 0.71712 0.53191 0.0
C291 C 0.0169 0.6934 0.5335 0.0
C292 C 0.03383 0.6817 0.55334 0.0
C293 C 0.05021 0.69918 0.56503 0.0
C294 C 0.04232 0.7206 0.55153 0.0
N295 N 0.97718 0.73958 0.53797 0.0
C296 C 0.94186 0.73798 0.58268 0.0
C297 C 0.96622 0.74083 0.59381 0.0
C298 C 0.98363 0.74126 0.57107 0.0
C299 C 0.93553 0.73599 0.54885 0.0
C300 C 0.95335 0.73712 0.52701 0.0
N301 N 0.02621 0.74169 0.47478 0.0
C302 C 0.05346 0.72102 0.44037 0.0
C303 C 0.06247 0.74311 0.43136 0.0
C304 C 0.05269 0.76448 0.44419 0.0
C305 C 0.03447 0.76338 0.46556 0.0
C306 C 0.03553 0.7207 0.46226 0.0
H307 H 0.02725 0.78012 0.47486 0.0
H308 H 0.02945 0.70342 0.46935 0.0
H309 H 0.00229 0.74301 0.58033 0.0
H310 H 0.94769 0.73608 0.50123 0.0
C311 C 0.99292 0.7986 0.51678 0.0
C312 C 0.05399 0.74409 0.55961 0.0
C313 C 0.9599 0.73771 0.43663 0.0
C314 C 0.99907 0.68222 0.51182 0.0
H315 H 0.0618 0.7938 0.58379 0.0
H316 H 0.02686 0.8233 0.56304 0.0
H317 H 0.95889 0.81885 0.46965 0.0
H318 H 0.94281 0.78599 0.42412 0.0
H319 H 0.94923 0.6878 0.41839 0.0
H320 H 0.96832 0.65735 0.46153 0.0
H321 H 0.03472 0.66259 0.55773 0.0
H322 H 0.0661 0.6965 0.58163 0.0
H323 H 0.9718 0.7424 0.61985 0.0
H324 H 0.91684 0.73409 0.53928 0.0
H325 H 0.06069 0.70408 0.43127 0.0
H326 H 0.05901 0.78196 0.43766 0.0
C327 C 0.29813 0.96515 0.56692 0.0
C328 C 0.32042 0.95648 0.57878 0.0
C329 C 0.33738 0.96957 0.56509 0.0
C330 C 0.32458 0.98546 0.54574 0.0
N331 N 0.30043 0.98359 0.54655 0.0
Co332 Co 0.27524 0.00234 0.52034 0.0
N333 N 0.30019 0.02101 0.49915 0.0
C334 C 0.32438 0.01918 0.50508 0.0
C335 C 0.33702 0.03519 0.48858 0.0
C336 C 0.31991 0.0483 0.47136 0.0
C337 C 0.2977 0.03941 0.47821 0.0
N338 N 0.24997 0.02047 0.49337 0.0
C339 C 0.25216 0.03837 0.4722 0.0
C340 C 0.22984 0.04558 0.45827 0.0
C341 C 0.21295 0.03219 0.47158 0.0
C342 C 0.22582 0.01748 0.4926 0.0
N343 N 0.25022 0.98427 0.54225 0.0
C344 C 0.22605 0.98709 0.53769 0.0
C345 C 0.21335 0.97206 0.55555 0.0
C346 C 0.23036 0.95869 0.57244 0.0
C347 C 0.25262 0.96638 0.56393 0.0
N348 N 0.27571 0.02809 0.55578 0.0
C349 C 0.27656 0.06783 0.60132 0.0
C350 C 0.25486 0.05909 0.58554 0.0
C351 C 0.25482 0.03929 0.56324 0.0
C352 C 0.29775 0.05569 0.59512 0.0
C353 C 0.29692 0.03599 0.57238 0.0
N354 N 0.27489 0.97659 0.48491 0.0
C355 C 0.25346 0.94515 0.4514 0.0
C356 C 0.27491 0.93649 0.44014 0.0
C357 C 0.29623 0.94893 0.45025 0.0
C358 C 0.29582 0.9688 0.47255 0.0
C359 C 0.25382 0.96518 0.47335 0.0
H360 H 0.31273 0.97719 0.47996 0.0
H361 H 0.23688 0.97076 0.48107 0.0
H362 H 0.2377 0.03363 0.55198 0.0
H363 H 0.31372 0.02776 0.56823 0.0
C364 C 0.33464 0.00233 0.52649 0.0
C365 C 0.27535 0.95521 0.57576 0.0
C366 C 0.27478 0.04965 0.4652 0.0
C367 C 0.21574 0.00225 0.51404 0.0
H368 H 0.32402 0.94207 0.59547 0.0
H369 H 0.35676 0.9676 0.56861 0.0
H370 H 0.35638 0.03733 0.48936 0.0
H371 H 0.32343 0.063 0.45593 0.0
H372 H 0.22613 0.05942 0.44075 0.0
H373 H 0.19356 0.0335 0.46716 0.0
H374 H 0.19397 0.9704 0.55539 0.0
H375 H 0.22669 0.94441 0.58847 0.0
H376 H 0.23789 0.06759 0.59026 0.0
H377 H 0.31498 0.06179 0.60695 0.0
H378 H 0.23642 0.93636 0.44353 0.0
H379 H 0.31326 0.94286 0.44194 0.0
C380 C 0.54149 0.80258 0.06114 0.0
C381 C 0.55098 0.82471 0.07342 0.0
C382 C 0.53754 0.84212 0.05808 0.0
C383 C 0.52083 0.82974 0.03716 0.0
N384 N 0.52244 0.80544 0.03859 0.0
Co385 Co 0.50332 0.78071 0.00965 0.0
N386 N 0.48479 0.80636 0.98529 0.0
C387 C 0.48675 0.83052 0.9913 0.0
C388 C 0.47041 0.84359 0.97245 0.0
C389 C 0.45685 0.82675 0.95366 0.0
C390 C 0.46586 0.80431 0.96204 0.0
N391 N 0.48509 0.75594 0.97987 0.0
C392 C 0.4671 0.75875 0.9559 0.0
C393 C 0.45978 0.73675 0.94056 0.0
C394 C 0.47314 0.71935 0.95606 0.0
C395 C 0.48795 0.73168 0.97965 0.0
N396 N 0.52109 0.75503 0.03474 0.0
C397 C 0.51743 0.73088 0.03088 0.0
C398 C 0.53205 0.71777 0.05206 0.0
C399 C 0.54611 0.73451 0.07027 0.0
C400 C 0.53938 0.75695 0.05888 0.0
N401 N 0.47767 0.78042 0.04073 0.0
C402 C 0.43772 0.78087 0.0787 0.0
C403 C 0.44477 0.75965 0.06252 0.0
C404 C 0.46482 0.75973 0.04429 0.0
C405 C 0.45157 0.80166 0.07681 0.0
C406 C 0.47124 0.8011 0.05762 0.0
N407 N 0.52876 0.78098 0.97839 0.0
C408 C 0.55709 0.75949 0.9462 0.0
C409 C 0.56497 0.78102 0.93415 0.0
C410 C 0.55447 0.80259 0.94478 0.0
C411 C 0.53646 0.80216 0.96661 0.0
C412 C 0.53924 0.75988 0.96816 0.0
H413 H 0.52905 0.81918 0.97363 0.0
H414 H 0.53435 0.74286 0.97667 0.0
H415 H 0.46926 0.74287 0.03282 0.0
H416 H 0.48062 0.81775 0.05632 0.0
C417 C 0.50379 0.84034 0.01528 0.0
C418 C 0.55178 0.77937 0.07053 0.0
C419 C 0.45512 0.78154 0.94855 0.0
C420 C 0.50247 0.72096 0.00447 0.0
H421 H 0.56634 0.82802 0.0911 0.0
H422 H 0.54006 0.8615 0.06119 0.0
H423 H 0.46825 0.86302 0.97287 0.0
H424 H 0.44173 0.83058 0.93629 0.0
H425 H 0.44561 0.73356 0.921 0.0
H426 H 0.47151 0.69997 0.95161 0.0
H427 H 0.53308 0.6983 0.05317 0.0
H428 H 0.56023 0.73059 0.08913 0.0
H429 H 0.43476 0.743 0.06386 0.0
H430 H 0.44676 0.81849 0.08914 0.0
H431 H 0.56498 0.74233 0.93921 0.0
H432 H 0.55991 0.81974 0.93602 0.0
C433 C 0.21704 0.53699 0.06343 0.0
C434 C 0.19556 0.54562 0.07418 0.0
C435 C 0.17747 0.53387 0.05516 0.0
C436 C 0.18893 0.51881 0.034 0.0
N437 N 0.21325 0.51989 0.03873 0.0
Co438 Co 0.23699 0.50212 0.01241 0.0
N439 N 0.21044 0.48588 0.98318 0.0
C440 C 0.18645 0.48839 0.98515 0.0
C441 C 0.17269 0.47402 0.96261 0.0
C442 C 0.18886 0.46121 0.94559 0.0
C443 C 0.2116 0.46857 0.95885 0.0
N444 N 0.26074 0.48493 0.98545 0.0
C445 C 0.257 0.4683 0.96017 0.0
C446 C 0.27854 0.46065 0.94846 0.0
C447 C 0.29654 0.4727 0.96727 0.0
C448 C 0.28504 0.48693 0.98929 0.0
N449 N 0.26354 0.51781 0.04226 0.0
C450 C 0.2875 0.51426 0.04137 0.0
C451 C 0.3013 0.52772 0.06491 0.0
C452 C 0.28521 0.54086 0.08165 0.0
C453 C 0.26244 0.5346 0.06726 0.0
N454 N 0.23706 0.47431 0.04201 0.0
C455 C 0.23717 0.43405 0.08249 0.0
C456 C 0.25816 0.44155 0.06945 0.0
C457 C 0.25777 0.46161 0.04979 0.0
C458 C 0.21614 0.44723 0.07512 0.0
C459 C 0.21641 0.46694 0.05476 0.0
N460 N 0.23697 0.52986 0.98274 0.0
C461 C 0.2587 0.55924 0.95427 0.0
C462 C 0.23725 0.5689 0.94009 0.0
C463 C 0.21562 0.55872 0.94803 0.0
C464 C 0.21588 0.53939 0.9691 0.0
C465 C 0.25816 0.54005 0.97534 0.0
H466 H 0.19878 0.53244 0.97397 0.0
H467 H 0.27518 0.53384 0.98546 0.0
H468 H 0.2745 0.46642 0.04108 0.0
H469 H 0.19963 0.47578 0.04947 0.0
C470 C 0.17743 0.50386 0.00902 0.0
C471 C 0.24049 0.54642 0.07644 0.0
C472 C 0.23368 0.45778 0.94846 0.0
C473 C 0.29654 0.50023 0.016 0.0
H474 H 0.19328 0.55934 0.0934 0.0
H475 H 0.15827 0.53634 0.05619 0.0
H476 H 0.15324 0.47264 0.95941 0.0
H477 H 0.18449 0.44764 0.92605 0.0
H478 H 0.28109 0.44715 0.92911 0.0
H479 H 0.31575 0.47054 0.96598 0.0
H480 H 0.32076 0.52862 0.06859 0.0
H481 H 0.28979 0.55411 0.1015 0.0
H482 H 0.27499 0.43212 0.07472 0.0
H483 H 0.19935 0.44203 0.0844 0.0
H484 H 0.27598 0.56669 0.94959 0.0
H485 H 0.19846 0.56535 0.93766 0.0
C486 C 0.46656 0.2597 0.98684 0.0
C487 C 0.45809 0.28227 0.97805 0.0
C488 C 0.4726 0.29895 0.99562 0.0
C489 C 0.48895 0.2857 0.01417 0.0
N490 N 0.48608 0.26151 0.00911 0.0
Co491 Co 0.5046 0.23565 0.03307 0.0
N492 N 0.52503 0.26026 0.06032 0.0
C493 C 0.52435 0.28454 0.05796 0.0
C494 C 0.54125 0.29672 0.07884 0.0
C495 C 0.55372 0.27918 0.09527 0.0
C496 C 0.54357 0.25721 0.08349 0.0
N497 N 0.52237 0.20982 0.05794 0.0
C498 C 0.54068 0.21159 0.08204 0.0
C499 C 0.54761 0.1891 0.093 0.0
C500 C 0.53334 0.17246 0.07491 0.0
C501 C 0.51852 0.1857 0.05414 0.0
N502 N 0.4848 0.21106 0.00497 0.0
C503 C 0.48709 0.18676 0.00504 0.0
C504 C 0.47088 0.17455 0.98311 0.0
C505 C 0.45725 0.19209 0.96835 0.0
C506 C 0.46591 0.21405 0.98234 0.0
N507 N 0.52911 0.23475 1.00022 0.0
C508 C 0.56597 0.23428 0.95666 0.0
C509 C 0.5584 0.21296 0.96967 0.0
C510 C 0.54 0.21356 0.99103 0.0
C511 C 0.55443 0.25573 0.96542 0.0
C512 C 0.53629 0.25557 0.98696 0.0
N513 N 0.48016 0.23663 0.06587 0.0
C514 C 0.44907 0.21718 0.09338 0.0
C515 C 0.44316 0.23908 0.10921 0.0
C516 C 0.45676 0.2595 0.10368 0.0
C517 C 0.47483 0.25792 0.08206 0.0
C518 C 0.46758 0.21633 0.07221 0.0
H519 H 0.48406 0.27431 0.0786 0.0
H520 H 0.47113 0.19912 0.06084 0.0
H521 H 0.53506 0.19667 0.99997 0.0
H522 H 0.5286 0.27263 0.99282 0.0
C523 C 0.50709 0.29539 0.03666 0.0
C524 C 0.45484 0.23713 0.97448 0.0
C525 C 0.55265 0.23399 0.09444 0.0
C526 C 0.50247 0.17597 0.02883 0.0
H527 H 0.44275 0.28627 0.96113 0.0
H528 H 0.47114 0.31843 0.99533 0.0
H529 H 0.54418 0.31605 0.08172 0.0
H530 H 0.56871 0.28219 0.11368 0.0
H531 H 0.56183 0.18513 0.11169 0.0
H532 H 0.53416 0.15299 0.07609 0.0
H533 H 0.46858 0.15518 0.97931 0.0
H534 H 0.44218 0.18909 0.95005 0.0
H535 H 0.56652 0.19579 0.96332 0.0
H536 H 0.55976 0.27282 0.95637 0.0
H537 H 0.43912 0.20079 0.09656 0.0
H538 H 0.45352 0.27681 0.1159 0.0
C539 C 0.7476 0.54523 0.07442 0.0
C540 C 0.72642 0.55146 0.08825 0.0
C541 C 0.71024 0.53323 0.07922 0.0
C542 C 0.7224 0.51689 0.06058 0.0
N543 N 0.7452 0.52371 0.05721 0.0
Co544 Co 0.76904 0.50512 0.03272 0.0
N545 N 0.74333 0.48487 0.00815 0.0
C546 C 0.72044 0.48288 0.01608 0.0
C547 C 0.70651 0.46783 0.99464 0.0
C548 C 0.72163 0.45941 0.97211 0.0
C549 C 0.74415 0.46961 0.98131 0.0
N550 N 0.79295 0.48652 0.00816 0.0
C551 C 0.7897 0.47071 0.98167 0.0
C552 C 0.81155 0.46112 0.97355 0.0
C553 C 0.82897 0.47098 0.99592 0.0
C554 C 0.81688 0.48598 0.01645 0.0
N555 N 0.79459 0.52536 0.05765 0.0
C556 C 0.8183 0.52036 0.06067 0.0
C557 C 0.83171 0.53793 0.07866 0.0
C558 C 0.81542 0.55503 0.08765 0.0
C559 C 0.79286 0.5468 0.0748 0.0
N560 N 0.77192 0.48165 0.06713 0.0
C561 C 0.7737 0.44778 0.11576 0.0
C562 C 0.77286 0.47251 0.12421 0.0
C563 C 0.77236 0.48918 0.09954 0.0
C564 C 0.77407 0.44034 0.0827 0.0
C565 C 0.77292 0.45749 0.05881 0.0
N566 N 0.76616 0.52861 0.99854 0.0
C567 C 0.78455 0.55645 0.96468 0.0
C568 C 0.76186 0.56531 0.95375 0.0
C569 C 0.74138 0.55473 0.96475 0.0
C570 C 0.74391 0.53645 0.98704 0.0
C571 C 0.7863 0.53811 0.98708 0.0
H572 H 0.72782 0.52904 0.99549 0.0
H573 H 0.80399 0.53205 0.99571 0.0
H574 H 0.77191 0.50814 0.10669 0.0
H575 H 0.77239 0.45103 0.03358 0.0
C576 C 0.71199 0.4975 0.04138 0.0
C577 C 0.77009 0.55916 0.08038 0.0
C578 C 0.76623 0.46179 0.96658 0.0
C579 C 0.82751 0.50152 0.04156 0.0
H580 H 0.72306 0.56742 0.10345 0.0
H581 H 0.69157 0.53245 0.08457 0.0
H582 H 0.68753 0.46377 0.995 0.0
H583 H 0.71678 0.44664 0.95177 0.0
H584 H 0.81453 0.44781 0.9541 0.0
H585 H 0.84817 0.46771 0.99692 0.0
H586 H 0.85112 0.53882 0.08336 0.0
H587 H 0.81975 0.57168 0.10182 0.0
H588 H 0.7725 0.47886 0.14962 0.0
H589 H 0.77435 0.42131 0.07523 0.0
H590 H 0.80087 0.56416 0.9569 0.0
H591 H 0.72345 0.56067 0.95644 0.0
H592 H 0.21791 0.25071 0.40527 0.0
H593 H 0.17058 0.24342 0.31605 0.0
H594 H 0.18367 0.26173 0.43613 0.0
H595 H 0.13625 0.25445 0.34694 0.0
H596 H 0.08046 0.28799 0.41217 0.0
H597 H 0.11598 0.2853 0.38081 0.0
H598 H 0.14992 0.23802 0.45186 0.0
H599 H 0.11483 0.24109 0.48332 0.0
C600 C 0.20023 0.25184 0.39216 0.0
C601 C 0.19697 0.24595 0.35823 0.0
C602 C 0.18057 0.25803 0.40987 0.0
C603 C 0.15711 0.25856 0.39414 0.0
C604 C 0.15406 0.25432 0.35983 0.0
C605 C 0.17378 0.24807 0.34207 0.0
C606 C 0.09565 0.27726 0.42124 0.0
C607 C 0.09474 0.26466 0.45018 0.0
C608 C 0.11592 0.27558 0.40315 0.0
C609 C 0.13586 0.2615 0.41383 0.0
C610 C 0.13506 0.24929 0.44309 0.0
C611 C 0.11479 0.25081 0.46096 0.0
H612 H 0.76131 0.16559 0.2915 0.0
H613 H 0.76019 0.20826 0.38254 0.0
H614 H 0.74616 0.13081 0.31771 0.0
H615 H 0.74623 0.17316 0.40921 0.0
H616 H 0.71115 0.10922 0.44801 0.0
H617 H 0.71489 0.14404 0.41441 0.0
H618 H 0.76434 0.104 0.35686 0.0
H619 H 0.75972 0.06898 0.38938 0.0
C620 C 0.75742 0.1677 0.31695 0.0
C621 C 0.76218 0.18967 0.33501 0.0
C622 C 0.74902 0.14765 0.3321 0.0
C623 C 0.74528 0.14906 0.36569 0.0
C624 C 0.74875 0.17141 0.38326 0.0
C625 C 0.75704 0.19149 0.36807 0.0
C626 C 0.72233 0.10767 0.42765 0.0
C627 C 0.73533 0.0864 0.42157 0.0
C628 C 0.72468 0.12772 0.40862 0.0
C629 C 0.74008 0.12693 0.38311 0.0
C630 C 0.75214 0.10524 0.37608 0.0
C631 C 0.74975 0.08522 0.39503 0.0
H632 H 0.81426 0.77411 0.39466 0.0
H633 H 0.83004 0.74992 0.297 0.0
H634 H 0.8541 0.76206 0.41631 0.0
H635 H 0.87038 0.73719 0.31905 0.0
H636 H 0.94936 0.75157 0.37337 0.0
H637 H 0.90906 0.75641 0.34485 0.0
H638 H 0.87738 0.72586 0.42637 0.0
H639 H 0.9173 0.72186 0.45491 0.0
C640 C 0.82632 0.76615 0.37777 0.0
C641 C 0.81912 0.76325 0.34404 0.0
C642 C 0.8491 0.75894 0.39027 0.0
C643 C 0.86543 0.74849 0.36947 0.0
C644 C 0.85823 0.74527 0.33567 0.0
C645 C 0.83516 0.75241 0.3231 0.0
C646 C 0.93371 0.74545 0.38467 0.0
C647 C 0.93633 0.73644 0.41629 0.0
C648 C 0.91069 0.74814 0.3684 0.0
C649 C 0.88998 0.74185 0.38356 0.0
C650 C 0.8929 0.73132 0.41427 0.0
C651 C 0.91577 0.72881 0.43051 0.0
H652 H 0.25957 0.7896 0.3578 0.0
H653 H 0.24539 0.83632 0.27686 0.0
H654 H 0.27501 0.8241 0.39274 0.0
H655 H 0.26075 0.87082 0.31179 0.0
H656 H 0.29688 0.9283 0.38324 0.0
H657 H 0.29458 0.89145 0.34728 0.0
H658 H 0.25056 0.85763 0.41418 0.0
H659 H 0.25309 0.89405 0.44993 0.0
C660 C 0.26028 0.80716 0.34732 0.0
C661 C 0.25097 0.81038 0.31481 0.0
C662 C 0.26905 0.82688 0.36729 0.0
C663 C 0.26866 0.85019 0.35513 0.0
C664 C 0.26137 0.85305 0.32179 0.0
C665 C 0.25258 0.83329 0.30178 0.0
C666 C 0.28702 0.9128 0.39033 0.0
C667 C 0.27494 0.91402 0.41912 0.0
C668 C 0.28564 0.89182 0.36977 0.0
C669 C 0.2725 0.87164 0.37802 0.0
C670 C 0.26114 0.87272 0.40739 0.0
C671 C 0.2623 0.89368 0.42765 0.0
H672 H 0.17175 0.79752 0.6942 0.0
H673 H 0.20053 0.7313 0.65386 0.0
H674 H 0.13268 0.78835 0.66438 0.0
H675 H 0.16132 0.72191 0.62435 0.0
H676 H 0.09926 0.73483 0.54224 0.0
H677 H 0.13736 0.73907 0.57695 0.0
H678 H 0.09801 0.76021 0.66011 0.0
H679 H 0.06006 0.75592 0.6252 0.0
C680 C 0.16959 0.7808 0.67938 0.0
C681 C 0.18922 0.76516 0.67638 0.0
C682 C 0.14718 0.77548 0.6624 0.0
C683 C 0.14391 0.75447 0.64179 0.0
C684 C 0.16332 0.73837 0.63973 0.0
C685 C 0.18569 0.7436 0.65696 0.0
C686 C 0.0989 0.74023 0.568 0.0
C687 C 0.07695 0.74547 0.58106 0.0
C688 C 0.12062 0.74252 0.58792 0.0
C689 C 0.12074 0.75012 0.62129 0.0
C690 C 0.09858 0.75466 0.63445 0.0
C691 C 0.0769 0.75219 0.61457 0.0
H692 H 0.25091 0.1609 0.76609 0.0
H693 H 0.25659 0.21119 0.68969 0.0
H694 H 0.26678 0.12882 0.73128 0.0
H695 H 0.2728 0.17919 0.65493 0.0
H696 H 0.3009 0.07544 0.66217 0.0
H697 H 0.29885 0.11112 0.69964 0.0
H698 H 0.25051 0.14508 0.62735 0.0
H699 H 0.25303 0.10993 0.59 0.0
C700 C 0.25643 0.16529 0.74233 0.0
C701 C 0.25222 0.1884 0.73034 0.0
C702 C 0.26552 0.14691 0.72235 0.0
C703 C 0.27059 0.15138 0.69012 0.0
C704 C 0.26854 0.17509 0.6794 0.0
C705 C 0.25937 0.19342 0.6993 0.0
C706 C 0.29019 0.09075 0.65421 0.0
C707 C 0.27689 0.08985 0.62336 0.0
C708 C 0.28893 0.11109 0.67567 0.0
C709 C 0.27457 0.13094 0.66644 0.0
C710 C 0.26204 0.13028 0.63508 0.0
C711 C 0.26318 0.10999 0.61382 0.0
H712 H 0.79553 0.28225 0.6747 0.0
H713 H 0.83539 0.23272 0.73683 0.0
H714 H 0.83205 0.29062 0.64768 0.0
H715 H 0.87209 0.24154 0.71038 0.0
H716 H 0.93645 0.28032 0.66682 0.0
H717 H 0.9013 0.27883 0.69916 0.0
H718 H 0.85604 0.25912 0.61096 0.0
H719 H 0.89117 0.25997 0.57892 0.0
C720 C 0.81229 0.27379 0.68328 0.0
C721 C 0.81273 0.25698 0.70797 0.0
C722 C 0.8331 0.27841 0.66766 0.0
C723 C 0.85483 0.26666 0.6769 0.0
C724 C 0.85561 0.25096 0.70296 0.0
C725 C 0.83467 0.24594 0.71809 0.0
C726 C 0.91893 0.27586 0.65443 0.0
C727 C 0.91646 0.27021 0.62045 0.0
C728 C 0.8989 0.27494 0.67289 0.0
C729 C 0.87597 0.26899 0.6575 0.0
C730 C 0.87346 0.26399 0.62337 0.0
C731 C 0.89353 0.26434 0.6051 0.0
H732 H 0.79613 0.83196 0.73334 0.0
H733 H 0.72659 0.80956 0.68663 0.0
H734 H 0.78945 0.8725 0.71343 0.0
H735 H 0.71979 0.85016 0.66758 0.0
H736 H 0.78358 0.9192 0.62031 0.0
H737 H 0.78783 0.88445 0.65414 0.0
H738 H 0.71575 0.8953 0.68291 0.0
H739 H 0.71164 0.931 0.64992 0.0
C740 C 0.77924 0.83578 0.71941 0.0
C741 C 0.76207 0.81738 0.71121 0.0
C742 C 0.77542 0.85899 0.70808 0.0
C743 C 0.75423 0.86436 0.68865 0.0
C744 C 0.73622 0.84657 0.6827 0.0
C745 C 0.74012 0.82329 0.69375 0.0
C746 C 0.7688 0.91476 0.6345 0.0
C747 C 0.74726 0.92809 0.63231 0.0
C748 C 0.77127 0.89473 0.65389 0.0
C749 C 0.75217 0.88726 0.67129 0.0
C750 C 0.73073 0.90066 0.66963 0.0
C751 C 0.72835 0.92098 0.65053 0.0
H752 H 0.84205 0.76964 0.73316 0.0
H753 H 0.8013 0.72909 0.65465 0.0
H754 H 0.87912 0.76141 0.70694 0.0
H755 H 0.83781 0.72206 0.62709 0.0
H756 H 0.90773 0.70333 0.58692 0.0
H757 H 0.87448 0.70416 0.62201 0.0
H758 H 0.899 0.77404 0.66385 0.0
H759 H 0.93299 0.77215 0.63018 0.0
C760 C 0.84117 0.75868 0.71043 0.0
C761 C 0.81892 0.74982 0.69602 0.0
C762 C 0.86234 0.75422 0.69507 0.0
C763 C 0.86168 0.74132 0.66445 0.0
C764 C 0.83937 0.73171 0.6508 0.0
C765 C 0.81831 0.73575 0.66655 0.0
C766 C 0.90608 0.71865 0.60405 0.0
C767 C 0.92285 0.73768 0.60589 0.0
C768 C 0.8869 0.71929 0.62401 0.0
C769 C 0.88365 0.7393 0.64577 0.0
C770 C 0.90093 0.75808 0.64801 0.0
C771 C 0.92041 0.75714 0.62854 0.0
H772 H 0.28681 0.81165 0.66046 0.0
H773 H 0.22535 0.84661 0.699 0.0
H774 H 0.29687 0.8491 0.63506 0.0
H775 H 0.23491 0.88368 0.67311 0.0
H776 H 0.2651 0.95321 0.63973 0.0
H777 H 0.2617 0.91734 0.67188 0.0
H778 H 0.28109 0.87224 0.58922 0.0
H779 H 0.28482 0.90832 0.55755 0.0
C780 C 0.27573 0.82745 0.66408 0.0
C781 C 0.25524 0.82605 0.68176 0.0
C782 C 0.28128 0.84887 0.64912 0.0
C783 C 0.26661 0.86951 0.65166 0.0
C784 C 0.24681 0.86836 0.67071 0.0
C785 C 0.24122 0.84699 0.68548 0.0
C786 C 0.26886 0.9356 0.6287 0.0
C787 C 0.27512 0.93346 0.59618 0.0
C788 C 0.26679 0.915 0.64698 0.0
C789 C 0.27097 0.89171 0.63322 0.0
C790 C 0.278 0.88978 0.6009 0.0
C791 C 0.28003 0.91041 0.58263 0.0
H792 H 0.17167 0.19999 0.7019 0.0
H793 H 0.17427 0.27152 0.74904 0.0
H794 H 0.13589 0.21087 0.66769 0.0
H795 H 0.1378 0.28237 0.71471 0.0
H796 H 0.05673 0.27816 0.6664 0.0
H797 H 0.09297 0.27105 0.70345 0.0
H798 H 0.12772 0.23865 0.62187 0.0
H799 H 0.09164 0.24581 0.58522 0.0
C800 C 0.16468 0.21815 0.70483 0.0
C801 C 0.17617 0.23507 0.72772 0.0
C802 C 0.14412 0.22436 0.6852 0.0
C803 C 0.13428 0.24761 0.68807 0.0
C804 C 0.14505 0.26432 0.71193 0.0
C805 C 0.16586 0.25811 0.73158 0.0
C806 C 0.07234 0.26986 0.65653 0.0
C807 C 0.07159 0.26251 0.62313 0.0
C808 C 0.09302 0.26583 0.67761 0.0
C809 C 0.1131 0.25412 0.66561 0.0
C810 C 0.11242 0.24741 0.63193 0.0
C811 C 0.09189 0.25158 0.61094 0.0
H812 H 0.78585 0.17346 0.72328 0.0
H813 H 0.71889 0.20095 0.67881 0.0
H814 H 0.77836 0.13482 0.69327 0.0
H815 H 0.71086 0.16188 0.64959 0.0
H816 H 0.75325 0.06185 0.64913 0.0
H817 H 0.7552 0.09854 0.68518 0.0
H818 H 0.72609 0.13977 0.6039 0.0
H819 H 0.72371 0.10284 0.56839 0.0
C820 C 0.76925 0.17108 0.70757 0.0
C821 C 0.75307 0.19043 0.70333 0.0
C822 C 0.76485 0.1488 0.69047 0.0
C823 C 0.74408 0.14515 0.66861 0.0
C824 C 0.72725 0.1641 0.66573 0.0
C825 C 0.73167 0.18643 0.6829 0.0
C826 C 0.74709 0.07879 0.63924 0.0
C827 C 0.73841 0.07965 0.60609 0.0
C828 C 0.7483 0.09984 0.65976 0.0
C829 C 0.74089 0.12228 0.64756 0.0
C830 C 0.73164 0.12287 0.61441 0.0
C831 C 0.73041 0.10178 0.59394 0.0
H832 H 0.81079 0.25969 0.38639 0.0
H833 H 0.85351 0.24172 0.30567 0.0
H834 H 0.84723 0.27138 0.42093 0.0
H835 H 0.89011 0.25271 0.34035 0.0
H836 H 0.95247 0.28554 0.40635 0.0
H837 H 0.91486 0.28288 0.37042 0.0
H838 H 0.87972 0.25026 0.44769 0.0
H839 H 0.91702 0.25386 0.48353 0.0
C840 C 0.82801 0.25848 0.37598 0.0
C841 C 0.82934 0.24969 0.34342 0.0
C842 C 0.84892 0.26501 0.3958 0.0
C843 C 0.87172 0.26265 0.38367 0.0
C844 C 0.8729 0.255 0.35052 0.0
C845 C 0.85192 0.24867 0.33059 0.0
C846 C 0.93648 0.27823 0.41561 0.0
C847 C 0.93741 0.27007 0.44762 0.0
C848 C 0.91503 0.27649 0.39504 0.0
C849 C 0.89415 0.26638 0.40608 0.0
C850 C 0.8952 0.25859 0.43845 0.0
C851 C 0.91657 0.26046 0.45897 0.0
H852 H 0.73874 0.84165 0.31335 0.0
H853 H 0.76983 0.81221 0.40306 0.0
H854 H 0.72981 0.87944 0.34406 0.0
H855 H 0.76126 0.84956 0.43348 0.0
H856 H 0.72681 0.91212 0.48589 0.0
H857 H 0.7289 0.87429 0.45273 0.0
H858 H 0.75283 0.91392 0.37304 0.0
H859 H 0.75035 0.95176 0.40636 0.0
C860 C 0.74336 0.84316 0.33963 0.0
C861 C 0.75509 0.82405 0.35576 0.0
C862 C 0.73846 0.86483 0.3572 0.0
C863 C 0.74485 0.86763 0.39131 0.0
C864 C 0.75581 0.84807 0.4074 0.0
C865 C 0.76089 0.82667 0.38989 0.0
C866 C 0.7323 0.91266 0.46117 0.0
C867 C 0.73856 0.93472 0.44868 0.0
C868 C 0.7336 0.89103 0.44219 0.0
C869 C 0.74117 0.89097 0.41019 0.0
C870 C 0.74671 0.91327 0.39739 0.0
C871 C 0.74547 0.9349 0.41648 0.0
H872 H 0.15411 0.75956 0.27119 0.0
H873 H 0.20305 0.74683 0.35637 0.0
H874 H 0.11987 0.752 0.30316 0.0
H875 H 0.16892 0.74006 0.38832 0.0
H876 H 0.10378 0.76973 0.44132 0.0
H877 H 0.13718 0.77075 0.40645 0.0
H878 H 0.09993 0.71936 0.33731 0.0
H879 H 0.06644 0.71814 0.37255 0.0
C880 C 0.15761 0.75458 0.29643 0.0
C881 C 0.18136 0.75415 0.31131 0.0
C882 C 0.13799 0.75039 0.31478 0.0
C883 C 0.14175 0.74591 0.34838 0.0
C884 C 0.16547 0.74396 0.36264 0.0
C885 C 0.18501 0.74782 0.34429 0.0
C886 C 0.10268 0.75871 0.41864 0.0
C887 C 0.0825 0.74388 0.40965 0.0
C888 C 0.12187 0.75914 0.39881 0.0
C889 C 0.12121 0.74502 0.36925 0.0
C890 C 0.10089 0.73043 0.35994 0.0
C891 C 0.08183 0.72966 0.38014 0.0
H892 H 0.24649 0.15436 0.31346 0.0
H893 H 0.26786 0.19822 0.40105 0.0
H894 H 0.25596 0.11782 0.34332 0.0
H895 H 0.27778 0.16192 0.43078 0.0
H896 H 0.25948 0.09433 0.48448 0.0
H897 H 0.25584 0.13067 0.45288 0.0
H898 H 0.28508 0.09198 0.3712 0.0
H899 H 0.28806 0.05541 0.40296 0.0
C900 C 0.25389 0.15623 0.33883 0.0
C901 C 0.2563 0.17924 0.35488 0.0
C902 C 0.25926 0.13524 0.35607 0.0
C903 C 0.26727 0.13674 0.38978 0.0
C904 C 0.27106 0.15989 0.40516 0.0
C905 C 0.26559 0.18077 0.38801 0.0
C906 C 0.26528 0.09373 0.45985 0.0
C907 C 0.27417 0.07216 0.44621 0.0
C908 C 0.26336 0.11459 0.44172 0.0
C909 C 0.2703 0.11449 0.40936 0.0
C910 C 0.27938 0.09281 0.39585 0.0
C911 C 0.28129 0.07189 0.41408 0.0
H912 H 0.70543 0.76559 0.86817 0.0
H913 H 0.66045 0.75137 0.77807 0.0
H914 H 0.67038 0.77948 0.89543 0.0
H915 H 0.62526 0.76565 0.80518 0.0
H916 H 0.56981 0.74993 0.88125 0.0
H917 H 0.60344 0.74672 0.84704 0.0
H918 H 0.63747 0.80854 0.9004 0.0
H919 H 0.60395 0.8114 0.93523 0.0
C920 C 0.68811 0.76617 0.85395 0.0
C921 C 0.68563 0.75729 0.82107 0.0
C922 C 0.66802 0.77419 0.86953 0.0
C923 C 0.64493 0.77338 0.85262 0.0
C924 C 0.64275 0.76617 0.81901 0.0
C925 C 0.66293 0.75828 0.80336 0.0
C926 C 0.5844 0.76293 0.88559 0.0
C927 C 0.58431 0.78076 0.9112 0.0
C928 C 0.60356 0.76129 0.86568 0.0
C929 C 0.62319 0.77738 0.87095 0.0
C930 C 0.62271 0.79577 0.89583 0.0
C931 C 0.60343 0.79751 0.91564 0.0
H932 H 0.26067 0.66795 0.78345 0.0
H933 H 0.24391 0.71304 0.86719 0.0
H934 H 0.25088 0.63193 0.81226 0.0
H935 H 0.23454 0.67724 0.89622 0.0
H936 H 0.20717 0.60838 0.93624 0.0
H937 H 0.20886 0.64259 0.90094 0.0
H938 H 0.27026 0.61072 0.85805 0.0
H939 H 0.26813 0.57626 0.89258 0.0
C940 C 0.25421 0.67021 0.80763 0.0
C941 C 0.25303 0.69339 0.82297 0.0
C942 C 0.24896 0.64954 0.8244 0.0
C943 C 0.24221 0.65153 0.85686 0.0
C944 C 0.23952 0.67485 0.87128 0.0
C945 C 0.24491 0.69545 0.85462 0.0
C946 C 0.22082 0.60846 0.91895 0.0
C947 C 0.23759 0.58949 0.91753 0.0
C948 C 0.22192 0.62824 0.89884 0.0
C949 C 0.23972 0.62958 0.87653 0.0
C950 C 0.25611 0.61031 0.87457 0.0
C951 C 0.25509 0.59062 0.89477 0.0
H952 H 0.32957 0.28191 0.85338 0.0
H953 H 0.3032 0.22084 0.9017 0.0
H954 H 0.37007 0.27472 0.87823 0.0
H955 H 0.34398 0.21296 0.92548 0.0
H956 H 0.41153 0.22886 0.99738 0.0
H957 H 0.37154 0.23153 0.96791 0.0
H958 H 0.40448 0.2486 0.8799 0.0
H959 H 0.44439 0.24646 0.91 0.0
C960 C 0.33248 0.26674 0.86899 0.0
C961 C 0.31307 0.2521 0.87579 0.0
C962 C 0.35579 0.26245 0.88299 0.0
C963 C 0.36033 0.24335 0.9041 0.0
C964 C 0.34109 0.22806 0.90977 0.0
C965 C 0.31773 0.23238 0.89577 0.0
C966 C 0.41005 0.23304 0.97168 0.0
C967 C 0.43078 0.23761 0.95585 0.0
C968 C 0.38723 0.2344 0.9547 0.0
C969 C 0.38473 0.24029 0.92146 0.0
C970 C 0.40569 0.24435 0.90554 0.0
C971 C 0.42851 0.24303 0.92261 0.0
H972 H 0.77507 0.33178 0.83201 0.0
H973 H 0.70426 0.33584 0.86748 0.0
H974 H 0.78608 0.37003 0.86293 0.0
H975 H 0.71567 0.37286 0.89905 0.0
H976 H 0.75594 0.41672 0.9846 0.0
H977 H 0.74969 0.37978 0.94969 0.0
H978 H 0.7687 0.418 0.86613 0.0
H979 H 0.77441 0.45542 0.90128 0.0
C980 C 0.76185 0.34075 0.84619 0.0
C981 C 0.73898 0.33022 0.84786 0.0
C982 C 0.76819 0.3626 0.86391 0.0
C983 C 0.75185 0.37414 0.88383 0.0
C984 C 0.7288 0.36411 0.88446 0.0
C985 C 0.72237 0.34269 0.8665 0.0
C986 C 0.75893 0.41717 0.95882 0.0
C987 C 0.76525 0.43894 0.94545 0.0
C988 C 0.75539 0.39607 0.93887 0.0
C989 C 0.75855 0.39607 0.90516 0.0
C990 C 0.7662 0.41751 0.89204 0.0
C991 C 0.76939 0.43886 0.91204 0.0
H992 H 0.70155 0.22059 0.1766 0.0
H993 H 0.67051 0.27891 0.23256 0.0
H994 H 0.66171 0.20989 0.15062 0.0
H995 H 0.63087 0.269 0.20545 0.0
H996 H 0.55903 0.24028 0.16108 0.0
H997 H 0.59728 0.24183 0.19571 0.0
H998 H 0.63569 0.22829 0.10928 0.0
H999 H 0.59739 0.22614 0.07527 0.0
C1000 C 0.68617 0.2308 0.18393 0.0
C1001 C 0.68927 0.25079 0.20642 0.0
C1002 C 0.66334 0.22489 0.16865 0.0
C1003 C 0.6431 0.23885 0.17543 0.0
C1004 C 0.64598 0.25777 0.19964 0.0
C1005 C 0.66878 0.26362 0.215 0.0
C1006 C 0.57574 0.23732 0.14983 0.0
C1007 C 0.57553 0.23312 0.11576 0.0
C1008 C 0.59761 0.23832 0.16949 0.0
C1009 C 0.61964 0.23521 0.15533 0.0
C1010 C 0.61914 0.23035 0.12117 0.0
C1011 C 0.59729 0.22929 0.10161 0.0
H1012 H 0.75556 0.71127 0.14536 0.0
H1013 H 0.7445 0.67045 0.23002 0.0
H1014 H 0.76623 0.67425 0.11535 0.0
H1015 H 0.75459 0.63329 0.19991 0.0
H1016 H 0.78707 0.57043 0.14413 0.0
H1017 H 0.78365 0.60887 0.17538 0.0
H1018 H 0.74658 0.63948 0.08984 0.0
H1019 H 0.75103 0.60126 0.05857 0.0
C1020 C 0.75564 0.69438 0.15767 0.0
C1021 C 0.74915 0.69386 0.1901 0.0
C1022 C 0.76156 0.67307 0.14037 0.0
C1023 C 0.761 0.65055 0.15489 0.0
C1024 C 0.75552 0.65021 0.18788 0.0
C1025 C 0.74975 0.67158 0.20526 0.0
C1026 C 0.77872 0.58563 0.13193 0.0
C1027 C 0.7698 0.58311 0.09876 0.0
C1028 C 0.77644 0.60758 0.14991 0.0
C1029 C 0.76487 0.6275 0.13528 0.0
C1030 C 0.75606 0.62485 0.10191 0.0
C1031 C 0.75848 0.60293 0.08393 0.0
H1032 H 0.33345 0.74354 0.21025 0.0
H1033 H 0.2909 0.78332 0.13808 0.0
H1034 H 0.37032 0.7556 0.1866 0.0
H1035 H 0.32773 0.79502 0.11395 0.0
H1036 H 0.39267 0.76711 0.05438 0.0
H1037 H 0.35629 0.7655 0.08365 0.0
H1038 H 0.39649 0.79319 0.17247 0.0
H1039 H 0.43295 0.79529 0.14279 0.0
C1040 C 0.33211 0.75549 0.18996 0.0
C1041 C 0.30942 0.76266 0.17608 0.0
C1042 C 0.35316 0.76236 0.17642 0.0
C1043 C 0.35184 0.77609 0.14832 0.0
C1044 C 0.32922 0.78435 0.13555 0.0
C1045 C 0.3082 0.77786 0.1495 0.0
C1046 C 0.39365 0.77307 0.08007 0.0
C1047 C 0.41557 0.78124 0.09639 0.0
C1048 C 0.37283 0.77233 0.09675 0.0
C1049 C 0.37356 0.77933 0.13029 0.0
C1050 C 0.39545 0.78774 0.14661 0.0
C1051 C 0.41623 0.78898 0.12968 0.0
H1052 H 0.26103 0.33551 0.242 0.0
H1053 H 0.23679 0.28883 0.15844 0.0
H1054 H 0.25288 0.37105 0.20911 0.0
H1055 H 0.22901 0.3242 0.1253 0.0
H1056 H 0.25674 0.38957 0.07035 0.0
H1057 H 0.25798 0.35454 0.10463 0.0
H1058 H 0.21944 0.39469 0.17626 0.0
H1059 H 0.21797 0.42979 0.14165 0.0
C1060 C 0.25322 0.33295 0.21689 0.0
C1061 C 0.24904 0.30949 0.20293 0.0
C1062 C 0.24868 0.35325 0.19798 0.0
C1063 C 0.24044 0.35047 0.16448 0.0
C1064 C 0.23549 0.32697 0.15094 0.0
C1065 C 0.23964 0.30674 0.16998 0.0
C1066 C 0.24849 0.39093 0.09337 0.0
C1067 C 0.2373 0.41252 0.10326 0.0
C1068 C 0.24902 0.37078 0.11291 0.0
C1069 C 0.23873 0.37175 0.14318 0.0
C1070 C 0.22756 0.39335 0.15314 0.0
C1071 C 0.22662 0.4134 0.13325 0.0
H1072 H 0.33391 0.29026 0.23526 0.0
H1073 H 0.30974 0.21865 0.20109 0.0
H1074 H 0.37156 0.28362 0.20992 0.0
H1075 H 0.34763 0.21191 0.17605 0.0
H1076 H 0.42744 0.20555 0.1507 0.0
H1077 H 0.39338 0.20899 0.1846 0.0
H1078 H 0.37858 0.28039 0.15029 0.0
H1079 H 0.41179 0.27681 0.11578 0.0
C1080 C 0.33683 0.27292 0.22288 0.0
C1081 C 0.31866 0.25511 0.21989 0.0
C1082 C 0.35837 0.26915 0.20825 0.0
C1083 C 0.36239 0.2474 0.19046 0.0
C1084 C 0.34508 0.22885 0.18964 0.0
C1085 C 0.3234 0.23268 0.20415 0.0
C1086 C 0.41683 0.22192 0.15014 0.0
C1087 C 0.42264 0.24096 0.13052 0.0
C1088 C 0.39737 0.2239 0.16973 0.0
C1089 C 0.38347 0.24508 0.17046 0.0
C1090 C 0.38927 0.26405 0.15091 0.0
C1091 C 0.40844 0.26199 0.13112 0.0
H1092 H 0.71792 0.32094 0.17236 0.0
H1093 H 0.77859 0.32507 0.24621 0.0
H1094 H 0.72682 0.36134 0.15676 0.0
H1095 H 0.78844 0.36521 0.2282 0.0
H1096 H 0.8051 0.41116 0.12909 0.0
H1097 H 0.79857 0.37638 0.16227 0.0
H1098 H 0.73175 0.4076 0.18939 0.0
H1099 H 0.73859 0.4427 0.15695 0.0
C1100 C 0.73283 0.33051 0.18592 0.0
C1101 C 0.74732 0.31956 0.211 0.0
C1102 C 0.738 0.35368 0.17665 0.0
C1103 C 0.75815 0.36631 0.1915 0.0
C1104 C 0.77272 0.35572 0.21656 0.0
C1105 C 0.76717 0.33267 0.22657 0.0
C1106 C 0.78944 0.41088 0.14303 0.0
C1107 C 0.77232 0.42947 0.14058 0.0
C1108 C 0.78578 0.39113 0.16206 0.0
C1109 C 0.76471 0.38949 0.17829 0.0
C1110 C 0.74821 0.40866 0.17722 0.0
C1111 C 0.75213 0.42866 0.15877 0.0
H1112 H 0.70335 0.76464 0.14275 0.0
H1113 H 0.66317 0.75197 0.22583 0.0
H1114 H 0.66622 0.77573 0.11092 0.0
H1115 H 0.62593 0.76219 0.19391 0.0
H1116 H 0.56264 0.79469 0.13471 0.0
H1117 H 0.60115 0.79127 0.16783 0.0
H1118 H 0.63187 0.75619 0.08449 0.0
H1119 H 0.59372 0.76084 0.05136 0.0
C1120 C 0.68656 0.76445 0.15427 0.0
C1121 C 0.68619 0.75747 0.18679 0.0
C1122 C 0.66522 0.7706 0.13597 0.0
C1123 C 0.64288 0.76959 0.14958 0.0
C1124 C 0.64271 0.76352 0.1826 0.0
C1125 C 0.66411 0.75764 0.201 0.0
C1126 C 0.57784 0.78662 0.12353 0.0
C1127 C 0.5754 0.77823 0.09051 0.0
C1128 C 0.59984 0.78442 0.14251 0.0
C1129 C 0.6198 0.77346 0.12896 0.0
C1130 C 0.6172 0.76519 0.09572 0.0
C1131 C 0.59529 0.76763 0.07674 0.0
H1132 H 0.27787 0.69429 0.12491 0.0
H1133 H 0.24031 0.67614 0.20855 0.0
H1134 H 0.27158 0.65354 0.10137 0.0
H1135 H 0.2333 0.6351 0.18419 0.0
H1136 H 0.25143 0.55707 0.14192 0.0
H1137 H 0.25617 0.59744 0.16943 0.0
H1138 H 0.23705 0.62975 0.07666 0.0
H1139 H 0.23281 0.58952 0.04948 0.0
C1140 C 0.26847 0.68149 0.13848 0.0
C1141 C 0.2598 0.68838 0.16879 0.0
C1142 C 0.26455 0.65821 0.12472 0.0
C1143 C 0.25175 0.64119 0.14078 0.0
C1144 C 0.24331 0.64786 0.17133 0.0
C1145 C 0.24718 0.67133 0.18515 0.0
C1146 C 0.24818 0.57293 0.12771 0.0
C1147 C 0.24203 0.57051 0.09374 0.0
C1148 C 0.25073 0.59593 0.14335 0.0
C1149 C 0.2472 0.61673 0.12513 0.0
C1150 C 0.2403 0.61407 0.09125 0.0
C1151 C 0.23775 0.59116 0.07571 0.0
H1152 H 0.31949 0.78906 0.81963 0.0
H1153 H 0.32827 0.71695 0.85489 0.0
H1154 H 0.35702 0.80148 0.8522 0.0
H1155 H 0.3647 0.72957 0.8878 0.0
H1156 H 0.41386 0.7645 0.96934 0.0
H1157 H 0.37495 0.75817 0.93746 0.0
H1158 H 0.40303 0.79026 0.85443 0.0
H1159 H 0.44217 0.7964 0.88656 0.0
C1160 C 0.32927 0.77591 0.83431 0.0
C1161 C 0.32044 0.75214 0.83515 0.0
C1162 C 0.3507 0.78304 0.85297 0.0
C1163 C 0.36351 0.76659 0.87299 0.0
C1164 C 0.35489 0.74283 0.87331 0.0
C1165 C 0.33384 0.73566 0.85451 0.0
C1166 C 0.41152 0.77052 0.94445 0.0
C1167 C 0.43083 0.78092 0.93029 0.0
C1168 C 0.38935 0.76686 0.92619 0.0
C1169 C 0.38602 0.7736 0.8934 0.0
C1170 C 0.40505 0.78507 0.87971 0.0
C1171 C 0.42737 0.78855 0.89798 0.0
H1172 H 0.21673 0.30551 0.88742 0.0
H1173 H 0.27967 0.33098 0.84455 0.0
H1174 H 0.20719 0.34693 0.90451 0.0
H1175 H 0.27059 0.37231 0.86263 0.0
H1176 H 0.24088 0.44691 0.88432 0.0
H1177 H 0.24262 0.40651 0.85719 0.0
H1178 H 0.22638 0.37467 0.94723 0.0
H1179 H 0.22446 0.41499 0.97382 0.0
C1180 C 0.22827 0.32 0.88108 0.0
C1181 C 0.24906 0.31498 0.86485 0.0
C1182 C 0.22295 0.34369 0.89119 0.0
C1183 C 0.23828 0.36285 0.88525 0.0
C1184 C 0.25833 0.35798 0.86742 0.0
C1185 C 0.26367 0.33428 0.85735 0.0
C1186 C 0.23743 0.43116 0.89793 0.0
C1187 C 0.23269 0.43375 0.931 0.0
C1188 C 0.23849 0.40813 0.88258 0.0
C1189 C 0.23468 0.38741 0.90009 0.0
C1190 C 0.22906 0.39025 0.93291 0.0
C1191 C 0.22809 0.41323 0.94822 0.0
H1192 H 0.70747 0.25495 0.8933 0.0
H1193 H 0.66239 0.25618 0.80212 0.0
H1194 H 0.67302 0.24248 0.92142 0.0
H1195 H 0.62799 0.243 0.83003 0.0
H1196 H 0.56903 0.25985 0.90144 0.0
H1197 H 0.60331 0.2633 0.86885 0.0
H1198 H 0.64278 0.21219 0.92916 0.0
H1199 H 0.60864 0.20932 0.96249 0.0
C1200 C 0.6903 0.25197 0.8791 0.0
C1201 C 0.68766 0.25674 0.84551 0.0
C1202 C 0.67054 0.24469 0.89519 0.0
C1203 C 0.64758 0.24203 0.87812 0.0
C1204 C 0.6453 0.24527 0.84406 0.0
C1205 C 0.66511 0.25249 0.82794 0.0
C1206 C 0.585 0.2493 0.90775 0.0
C1207 C 0.58611 0.23448 0.93482 0.0
C1208 C 0.60459 0.25104 0.88877 0.0
C1209 C 0.6259 0.23804 0.89633 0.0
C1210 C 0.62675 0.22263 0.92279 0.0
C1211 C 0.60708 0.22081 0.94173 0.0
H1212 H 0.77612 0.68826 0.82792 0.0
H1213 H 0.70012 0.67633 0.83405 0.0
H1214 H 0.78524 0.65313 0.86146 0.0
H1215 H 0.70903 0.64148 0.86682 0.0
H1216 H 0.73215 0.60395 0.9593 0.0
H1217 H 0.72645 0.63742 0.9232 0.0
H1218 H 0.78055 0.60782 0.8634 0.0
H1219 H 0.78632 0.57401 0.89985 0.0
C1220 C 0.76144 0.67794 0.8361 0.0
C1221 C 0.73747 0.68523 0.82907 0.0
C1222 C 0.76661 0.65789 0.85519 0.0
C1223 C 0.74784 0.64487 0.86733 0.0
C1224 C 0.7239 0.65153 0.85865 0.0
C1225 C 0.71879 0.67145 0.83983 0.0
C1226 C 0.74271 0.60442 0.93832 0.0
C1227 C 0.75939 0.58611 0.93213 0.0
C1228 C 0.73947 0.62363 0.91764 0.0
C1229 C 0.75279 0.62506 0.89015 0.0
C1230 C 0.77007 0.60721 0.88444 0.0
C1231 C 0.77334 0.58788 0.90526 0.0
loop_
_geom_bond_atom_site_label_1
_geom_bond_atom_site_label_2
_geom_bond_distance
_geom_bond_site_symmetry_2
_ccdc_geom_bond_type
H0 C8 0.930 . S
H1 C11 0.930 . S
H2 C13 0.930 . S
H3 C14 0.970 . S
H4 C14 0.970 . S
H5 C16 0.930 . S
H6 C18 0.930 . S
H7 C20 0.930 . S
C8 H0 0.930 . S
C8 C9 1.382 . S
C8 C10 1.426 . S
C9 C8 1.382 . S
C9 C13 1.389 . S
C10 C8 1.426 . S
C10 C11 1.375 . S
C10 C14 1.532 . S
C11 H1 0.930 . S
C11 C10 1.375 . S
C11 C12 1.416 . S
C12 C11 1.416 . S
C12 C13 1.371 . S
C13 H2 0.930 . S
C13 C9 1.389 . S
C13 C12 1.371 . S
C14 H3 0.970 . S
C14 H4 0.970 . S
C14 C10 1.532 . S
C14 C15 1.499 . S
C15 C14 1.499 . S
C15 C16 1.370 . S
C15 C20 1.415 . S
C16 H5 0.930 . S
C16 C15 1.370 . S
C16 C17 1.407 . S
C17 C16 1.407 . S
C17 C18 1.365 . S
C18 H6 0.930 . S
C18 C17 1.365 . S
C18 C19 1.393 . S
C19 C18 1.393 . S
C19 C20 1.387 . S
C20 H7 0.930 . S
C20 C15 1.415 . S
C20 C19 1.387 . S
H21 C29 0.930 . S
H22 C32 0.930 . S
H23 C34 0.930 . S
H24 C35 0.970 . S
H25 C35 0.970 . S
H26 C37 0.930 . S
H27 C39 0.930 . S
H28 C41 0.930 . S
C29 H21 0.930 . S
C29 C30 1.382 . S
C29 C31 1.426 . S
C30 C29 1.382 . S
C30 C34 1.389 . S
C31 C29 1.426 . S
C31 C32 1.375 . S
C31 C35 1.532 . S
C32 H22 0.930 . S
C32 C31 1.375 . S
C32 C33 1.416 . S
C33 C32 1.416 . S
C33 C34 1.371 . S
C34 H23 0.930 . S
C34 C30 1.389 . S
C34 C33 1.371 . S
C35 H24 0.970 . S
C35 H25 0.970 . S
C35 C31 1.532 . S
C35 C36 1.499 . S
C36 C35 1.499 . S
C36 C37 1.370 . S
C36 C41 1.415 . S
C37 H26 0.930 . S
C37 C36 1.370 . S
C37 C38 1.407 . S
C38 C37 1.407 . S
C38 C39 1.365 . S
C39 H27 0.930 . S
C39 C38 1.365 . S
C39 C40 1.393 . S
C40 C39 1.393 . S
C40 C41 1.387 . S
C41 H28 0.930 . S
C41 C36 1.415 . S
C41 C40 1.387 . S
H42 C50 0.930 . S
H43 C53 0.930 . S
H44 C55 0.930 . S
H45 C56 0.970 . S
H46 C56 0.970 . S
H47 C58 0.930 . S
H48 C60 0.930 . S
H49 C62 0.930 . S
C50 H42 0.930 . S
C50 C51 1.382 . S
C50 C52 1.426 . S
C51 C50 1.382 . S
C51 C55 1.389 . S
C52 C50 1.426 . S
C52 C53 1.375 . S
C52 C56 1.532 . S
C53 H43 0.930 . S
C53 C52 1.375 . S
C53 C54 1.416 . S
C54 C53 1.416 . S
C54 C55 1.371 . S
C55 H44 0.930 . S
C55 C51 1.389 . S
C55 C54 1.371 . S
C56 H45 0.970 . S
C56 H46 0.970 . S
C56 C52 1.532 . S
C56 C57 1.499 . S
C57 C56 1.499 . S
C57 C58 1.370 . S
C57 C62 1.415 . S
C58 H47 0.930 . S
C58 C57 1.370 . S
C58 C59 1.407 . S
C59 C58 1.407 . S
C59 C60 1.365 . S
C60 H48 0.930 . S
C60 C59 1.365 . S
C60 C61 1.393 . S
C61 C60 1.393 . S
C61 C62 1.387 . S
C62 H49 0.930 . S
C62 C57 1.415 . S
C62 C61 1.387 . S
H63 C71 0.930 . S
H64 C74 0.930 . S
H65 C76 0.930 . S
H66 C77 0.970 . S
H67 C77 0.970 . S
H68 C79 0.930 . S
H69 C81 0.930 . S
H70 C83 0.930 . S
C71 H63 0.930 . S
C71 C72 1.382 . S
C71 C73 1.426 . S
C72 C71 1.382 . S
C72 C76 1.389 . S
C73 C71 1.426 . S
C73 C74 1.375 . S
C73 C77 1.532 . S
C74 H64 0.930 . S
C74 C73 1.375 . S
C74 C75 1.416 . S
C75 C74 1.416 . S
C75 C76 1.371 . S
C76 H65 0.930 . S
C76 C72 1.389 . S
C76 C75 1.371 . S
C77 H66 0.970 . S
C77 H67 0.970 . S
C77 C73 1.532 . S
C77 C78 1.499 . S
C78 C77 1.499 . S
C78 C79 1.370 . S
C78 C83 1.415 . S
C79 H68 0.930 . S
C79 C78 1.370 . S
C79 C80 1.407 . S
C80 C79 1.407 . S
C80 C81 1.365 . S
C81 H69 0.930 . S
C81 C80 1.365 . S
C81 C82 1.393 . S
C82 C81 1.393 . S
C82 C83 1.387 . S
C83 H70 0.930 . S
C83 C78 1.415 . S
C83 C82 1.387 . S
H84 C92 0.930 . S
H85 C95 0.930 . S
H86 C97 0.930 . S
H87 C98 0.970 . S
H88 C98 0.970 . S
H89 C100 0.930 . S
H90 C102 0.930 . S
H91 C104 0.930 . S
C92 H84 0.930 . S
C92 C93 1.382 . S
C92 C94 1.426 . S
C93 C92 1.382 . S
C93 C97 1.389 . S
C94 C92 1.426 . S
C94 C95 1.375 . S
C94 C98 1.532 . S
C95 H85 0.930 . S
C95 C94 1.375 . S
C95 C96 1.416 . S
C96 C95 1.416 . S
C96 C97 1.371 . S
C97 H86 0.930 . S
C97 C93 1.389 . S
C97 C96 1.371 . S
C98 H87 0.970 . S
C98 H88 0.970 . S
C98 C94 1.532 . S
C98 C99 1.499 . S
C99 C98 1.499 . S
C99 C100 1.370 . S
C99 C104 1.415 . S
C100 H89 0.930 . S
C100 C99 1.370 . S
C100 C101 1.407 . S
C101 C100 1.407 . S
C101 C102 1.365 . S
C102 H90 0.930 . S
C102 C101 1.365 . S
C102 C103 1.393 . S
C103 C102 1.393 . S
C103 C104 1.387 . S
C104 H91 0.930 . S
C104 C99 1.415 . S
C104 C103 1.387 . S
H105 C113 0.930 . S
H106 C116 0.930 . S
H107 C118 0.930 . S
H108 C119 0.970 . S
H109 C119 0.970 . S
H110 C121 0.930 . S
H111 C123 0.930 . S
H112 C125 0.930 . S
C113 H105 0.930 . S
C113 C114 1.382 . S
C113 C115 1.426 . S
C114 C113 1.382 . S
C114 C118 1.389 . S
C115 C113 1.426 . S
C115 C116 1.375 . S
C115 C119 1.532 . S
C116 H106 0.930 . S
C116 C115 1.375 . S
C116 C117 1.416 . S
C117 C116 1.416 . S
C117 C118 1.371 . S
C118 H107 0.930 . S
C118 C114 1.389 . S
C118 C117 1.371 . S
C119 H108 0.970 . S
C119 H109 0.970 . S
C119 C115 1.532 . S
C119 C120 1.499 . S
C120 C119 1.499 . S
C120 C121 1.370 . S
C120 C125 1.415 . S
C121 H110 0.930 . S
C121 C120 1.370 . S
C121 C122 1.407 . S
C122 C121 1.407 . S
C122 C123 1.365 . S
C123 H111 0.930 . S
C123 C122 1.365 . S
C123 C124 1.393 . S
C124 C123 1.393 . S
C124 C125 1.387 . S
C125 H112 0.930 . S
C125 C120 1.415 . S
C125 C124 1.387 . S
H126 C134 0.930 . S
H127 C137 0.930 . S
H128 C139 0.930 . S
H129 C140 0.970 . S
H130 C140 0.970 . S
H131 C142 0.930 . S
H132 C144 0.930 . S
H133 C146 0.930 . S
C134 H126 0.930 . S
C134 C135 1.382 . S
C134 C136 1.426 . S
C135 C134 1.382 . S
C135 C139 1.389 . S
C136 C134 1.426 . S
C136 C137 1.375 . S
C136 C140 1.532 . S
C137 H127 0.930 . S
C137 C136 1.375 . S
C137 C138 1.416 . S
C138 C137 1.416 . S
C138 C139 1.371 . S
C139 H128 0.930 . S
C139 C135 1.389 . S
C139 C138 1.371 . S
C140 H129 0.970 . S
C140 H130 0.970 . S
C140 C136 1.532 . S
C140 C141 1.499 . S
C141 C140 1.499 . S
C141 C142 1.370 . S
C141 C146 1.415 . S
C142 H131 0.930 . S
C142 C141 1.370 . S
C142 C143 1.407 . S
C143 C142 1.407 . S
C143 C144 1.365 . S
C144 H132 0.930 . S
C144 C143 1.365 . S
C144 C145 1.393 . S
C145 C144 1.393 . S
C145 C146 1.387 . S
C146 H133 0.930 . S
C146 C141 1.415 . S
C146 C145 1.387 . S
H147 C155 0.930 . S
H148 C158 0.930 . S
H149 C160 0.930 . S
H150 C161 0.970 . S
H151 C161 0.970 . S
H152 C163 0.930 . S
H153 C165 0.930 . S
H154 C167 0.930 . S
C155 H147 0.930 . S
C155 C156 1.382 . S
C155 C157 1.426 . S
C156 C155 1.382 . S
C156 C160 1.389 . S
C157 C155 1.426 . S
C157 C158 1.375 . S
C157 C161 1.532 . S
C158 H148 0.930 . S
C158 C157 1.375 . S
C158 C159 1.416 . S
C159 C158 1.416 . S
C159 C160 1.371 . S
C160 H149 0.930 . S
C160 C156 1.389 . S
C160 C159 1.371 . S
C161 H150 0.970 . S
C161 H151 0.970 . S
C161 C157 1.532 . S
C161 C162 1.499 . S
C162 C161 1.499 . S
C162 C163 1.370 . S
C162 C167 1.415 . S
C163 H152 0.930 . S
C163 C162 1.370 . S
C163 C164 1.407 . S
C164 C163 1.407 . S
C164 C165 1.365 . S
C165 H153 0.930 . S
C165 C164 1.365 . S
C165 C166 1.393 . S
C166 C165 1.393 . S
C166 C167 1.387 . S
C167 H154 0.930 . S
C167 C162 1.415 . S
C167 C166 1.387 . S
C168 C169 1.443 . S
C168 N172 1.376 . S
C168 C206 1.389 . S
C169 C168 1.443 . S
C169 C170 1.340 . S
C169 H209 0.951 . S
C170 C169 1.340 . S
C170 C171 1.439 . S
C170 H210 0.950 . S
C171 C170 1.439 . S
C171 N172 1.374 . S
C171 C205 1.395 . S
N172 C168 1.376 . S
N172 C171 1.374 . S
N172 Co173 2.008 . S
Co173 N172 2.008 . S
Co173 N174 1.995 1_455 S
Co173 N179 2.008 1_455 S
Co173 N184 1.995 . S
Co173 N189 2.282 1_455 S
Co173 N195 2.282 . S
N174 Co173 1.995 1_655 S
N174 C175 1.376 . S
N174 C178 1.383 . S
C175 N174 1.376 . S
C175 C176 1.446 . S
C175 C205 1.391 1_655 S
C176 C175 1.446 . S
C176 C177 1.339 . S
C176 H211 0.949 . S
C177 C176 1.339 . S
C177 C178 1.439 . S
C177 H212 0.950 . S
C178 N174 1.383 . S
C178 C177 1.439 . S
C178 C207 1.392 . S
N179 Co173 2.008 1_655 S
N179 C180 1.376 . S
N179 C183 1.374 . S
C180 N179 1.376 . S
C180 C181 1.443 . S
C180 C207 1.389 . S
C181 C180 1.443 . S
C181 C182 1.340 . S
C181 H213 0.951 . S
C182 C181 1.340 . S
C182 C183 1.439 . S
C182 H214 0.950 . S
C183 N179 1.374 . S
C183 C182 1.439 . S
C183 C208 1.408 . S
N184 Co173 1.995 . S
N184 C185 1.376 . S
N184 C188 1.383 . S
C185 N184 1.376 . S
C185 C186 1.446 . S
C185 C208 1.377 1_455 S
C186 C185 1.446 . S
C186 C187 1.339 . S
C186 H215 0.949 . S
C187 C186 1.339 . S
C187 C188 1.439 . S
C187 H216 0.950 . S
C188 N184 1.383 . S
C188 C187 1.439 . S
C188 C206 1.392 . S
N189 Co173 2.282 1_655 S
N189 C192 1.332 . S
N189 C194 1.332 . S
C190 C191 1.386 . S
C190 C193 1.388 . S
C191 C190 1.386 . S
C191 C192 1.382 . S
C191 H217 0.950 . S
C192 N189 1.332 . S
C192 C191 1.382 . S
C192 H203 0.952 . S
C193 C190 1.388 . S
C193 C194 1.382 . S
C193 H218 0.950 . S
C194 N189 1.332 . S
C194 C193 1.382 . S
C194 H204 0.948 . S
N195 Co173 2.282 . S
N195 C199 1.332 . S
N195 C200 1.332 . S
C196 C197 1.388 . S
C196 C200 1.382 . S
C196 H219 0.950 . S
C197 C196 1.388 . S
C197 C198 1.386 . S
C198 C197 1.386 . S
C198 C199 1.382 . S
C198 H220 0.950 . S
C199 N195 1.332 . S
C199 C198 1.382 . S
C199 H201 0.952 . S
C200 N195 1.332 . S
C200 C196 1.382 . S
C200 H202 0.948 . S
H201 C199 0.952 . S
H202 C200 0.948 . S
H203 C192 0.952 . S
H204 C194 0.948 . S
C205 C171 1.395 . S
C205 C175 1.391 1_455 S
C206 C168 1.389 . S
C206 C188 1.392 . S
C207 C178 1.392 . S
C207 C180 1.389 . S
C208 C183 1.408 . S
C208 C185 1.377 1_655 S
H209 C169 0.951 . S
H210 C170 0.950 . S
H211 C176 0.949 . S
H212 C177 0.950 . S
H213 C181 0.951 . S
H214 C182 0.950 . S
H215 C186 0.949 . S
H216 C187 0.950 . S
H217 C191 0.950 . S
H218 C193 0.950 . S
H219 C196 0.950 . S
H220 C198 0.950 . S
C221 C222 1.443 . S
C221 N225 1.376 . S
C221 C259 1.389 . S
C222 C221 1.443 . S
C222 C223 1.340 . S
C222 H262 0.951 . S
C223 C222 1.340 . S
C223 C224 1.439 . S
C223 H263 0.950 . S
C224 C223 1.439 . S
C224 N225 1.374 . S
C224 C258 1.395 . S
N225 C221 1.376 . S
N225 C224 1.374 . S
N225 Co226 2.008 . S
Co226 N225 2.008 . S
Co226 N227 1.995 1_545 S
Co226 N232 2.008 1_545 S
Co226 N237 1.995 . S
Co226 N242 2.282 1_545 S
Co226 N248 2.282 . S
N227 Co226 1.995 1_565 S
N227 C228 1.376 . S
N227 C231 1.383 . S
C228 N227 1.376 . S
C228 C229 1.446 . S
C228 C258 1.391 1_565 S
C229 C228 1.446 . S
C229 C230 1.339 . S
C229 H264 0.949 . S
C230 C229 1.339 . S
C230 C231 1.439 . S
C230 H265 0.950 . S
C231 N227 1.383 . S
C231 C230 1.439 . S
C231 C260 1.392 . S
N232 Co226 2.008 1_565 S
N232 C233 1.376 . S
N232 C236 1.374 . S
C233 N232 1.376 . S
C233 C234 1.443 . S
C233 C260 1.389 . S
C234 C233 1.443 . S
C234 C235 1.340 . S
C234 H266 0.951 . S
C235 C234 1.340 . S
C235 C236 1.439 . S
C235 H267 0.950 . S
C236 N232 1.374 . S
C236 C235 1.439 . S
C236 C261 1.395 1_565 S
N237 Co226 1.995 . S
N237 C238 1.376 . S
N237 C241 1.383 . S
C238 N237 1.376 . S
C238 C239 1.446 . S
C238 C261 1.391 . S
C239 C238 1.446 . S
C239 C240 1.339 . S
C239 H268 0.949 . S
C240 C239 1.339 . S
C240 C241 1.439 . S
C240 H269 0.950 . S
C241 N237 1.383 . S
C241 C240 1.439 . S
C241 C259 1.392 . S
N242 Co226 2.282 1_565 S
N242 C245 1.332 . S
N242 C247 1.332 . S
C243 C244 1.386 . S
C243 C246 1.388 . S
C244 C243 1.386 . S
C244 C245 1.382 . S
C244 H270 0.950 . S
C245 N242 1.332 . S
C245 C244 1.382 . S
C245 H256 0.952 . S
C246 C243 1.388 . S
C246 C247 1.382 . S
C246 H271 0.950 . S
C247 N242 1.332 . S
C247 C246 1.382 . S
C247 H257 0.948 . S
N248 Co226 2.282 . S
N248 C252 1.332 . S
N248 C253 1.332 . S
C249 C250 1.388 . S
C249 C253 1.382 . S
C249 H272 0.950 . S
C250 C249 1.388 . S
C250 C251 1.386 . S
C251 C250 1.386 . S
C251 C252 1.382 . S
C251 H273 0.950 . S
C252 N248 1.332 . S
C252 C251 1.382 . S
C252 H254 0.952 . S
C253 N248 1.332 . S
C253 C249 1.382 . S
C253 H255 0.948 . S
H254 C252 0.952 . S
H255 C253 0.948 . S
H256 C245 0.952 . S
H257 C247 0.948 . S
C258 C224 1.395 . S
C258 C228 1.391 1_545 S
C259 C221 1.389 . S
C259 C241 1.392 . S
C260 C231 1.392 . S
C260 C233 1.389 . S
C261 C236 1.395 1_545 S
C261 C238 1.391 . S
H262 C222 0.951 . S
H263 C223 0.950 . S
H264 C229 0.949 . S
H265 C230 0.950 . S
H266 C234 0.951 . S
H267 C235 0.950 . S
H268 C239 0.949 . S
H269 C240 0.950 . S
H270 C244 0.950 . S
H271 C246 0.950 . S
H272 C249 0.950 . S
H273 C251 0.950 . S
C274 C275 1.443 . S
C274 N278 1.376 . S
C274 C312 1.389 . S
C275 C274 1.443 . S
C275 C276 1.340 . S
C275 H315 0.951 . S
C276 C275 1.340 . S
C276 C277 1.439 . S
C276 H316 0.950 . S
C277 C276 1.439 . S
C277 N278 1.374 . S
C277 C311 1.395 . S
N278 C274 1.376 . S
N278 C277 1.374 . S
N278 Co279 2.024 . S
Co279 N278 2.024 . S
Co279 N280 1.981 1_455 S
Co279 N285 1.992 1_455 S
Co279 N290 2.009 . S
Co279 N295 2.262 1_455 S
Co279 N301 2.303 . S
N280 Co279 1.981 1_655 S
N280 C281 1.376 . S
N280 C284 1.383 . S
C281 N280 1.376 . S
C281 C282 1.446 . S
C281 C311 1.391 1_655 S
C282 C281 1.446 . S
C282 C283 1.339 . S
C282 H317 0.949 . S
C283 C282 1.339 . S
C283 C284 1.439 . S
C283 H318 0.950 . S
C284 N280 1.383 . S
C284 C283 1.439 . S
C284 C313 1.392 . S
N285 Co279 1.992 1_655 S
N285 C286 1.376 . S
N285 C289 1.374 . S
C286 N285 1.376 . S
C286 C287 1.443 . S
C286 C313 1.389 . S
C287 C286 1.443 . S
C287 C288 1.340 . S
C287 H319 0.951 . S
C288 C287 1.340 . S
C288 C289 1.439 . S
C288 H320 0.950 . S
C289 N285 1.374 . S
C289 C288 1.439 . S
C289 C314 1.395 . S
N290 Co279 2.009 . S
N290 C291 1.376 . S
N290 C294 1.383 . S
C291 N290 1.376 . S
C291 C292 1.446 . S
C291 C314 1.391 1_455 S
C292 C291 1.446 . S
C292 C293 1.339 . S
C292 H321 0.949 . S
C293 C292 1.339 . S
C293 C294 1.439 . S
C293 H322 0.950 . S
C294 N290 1.383 . S
C294 C293 1.439 . S
C294 C312 1.392 . S
N295 Co279 2.262 1_655 S
N295 C298 1.332 . S
N295 C300 1.332 . S
C296 C297 1.386 . S
C296 C299 1.388 . S
C297 C296 1.386 . S
C297 C298 1.382 . S
C297 H323 0.950 . S
C298 N295 1.332 . S
C298 C297 1.382 . S
C298 H309 0.952 . S
C299 C296 1.388 . S
C299 C300 1.382 . S
C299 H324 0.950 . S
C300 N295 1.332 . S
C300 C299 1.382 . S
C300 H310 0.948 . S
N301 Co279 2.303 . S
N301 C305 1.332 . S
N301 C306 1.332 . S
C302 C303 1.388 . S
C302 C306 1.382 . S
C302 H325 0.950 . S
C303 C302 1.388 . S
C303 C304 1.386 . S
C304 C303 1.386 . S
C304 C305 1.382 . S
C304 H326 0.950 . S
C305 N301 1.332 . S
C305 C304 1.382 . S
C305 H307 0.952 . S
C306 N301 1.332 . S
C306 C302 1.382 . S
C306 H308 0.948 . S
H307 C305 0.952 . S
H308 C306 0.948 . S
H309 C298 0.952 . S
H310 C300 0.948 . S
C311 C277 1.395 . S
C311 C281 1.391 1_455 S
C312 C274 1.389 . S
C312 C294 1.392 . S
C313 C284 1.392 . S
C313 C286 1.389 . S
C314 C289 1.395 . S
C314 C291 1.391 1_655 S
H315 C275 0.951 . S
H316 C276 0.950 . S
H317 C282 0.949 . S
H318 C283 0.950 . S
H319 C287 0.951 . S
H320 C288 0.950 . S
H321 C292 0.949 . S
H322 C293 0.950 . S
H323 C297 0.950 . S
H324 C299 0.950 . S
H325 C302 0.950 . S
H326 C304 0.950 . S
C327 C328 1.443 . S
C327 N331 1.376 . S
C327 C365 1.389 . S
C328 C327 1.443 . S
C328 C329 1.340 . S
C328 H368 0.951 . S
C329 C328 1.340 . S
C329 C330 1.439 . S
C329 H369 0.950 . S
C330 C329 1.439 . S
C330 N331 1.374 . S
C330 C364 1.418 . S
N331 C327 1.376 . S
N331 C330 1.374 . S
N331 Co332 2.008 1_565 S
Co332 N331 2.008 1_545 S
Co332 N333 1.995 . S
Co332 N338 2.008 . S
Co332 N343 1.995 1_545 S
Co332 N348 2.282 . S
Co332 N354 2.282 1_545 S
N333 Co332 1.995 . S
N333 C334 1.376 . S
N333 C337 1.383 . S
C334 N333 1.376 . S
C334 C335 1.446 . S
C334 C364 1.367 1_545 S
C335 C334 1.446 . S
C335 C336 1.339 . S
C335 H370 0.949 . S
C336 C335 1.339 . S
C336 C337 1.439 . S
C336 H371 0.950 . S
C337 N333 1.383 . S
C337 C336 1.439 . S
C337 C366 1.392 . S
N338 Co332 2.008 . S
N338 C339 1.376 . S
N338 C342 1.374 . S
C339 N338 1.376 . S
C339 C340 1.443 . S
C339 C366 1.389 . S
C340 C339 1.443 . S
C340 C341 1.340 . S
C340 H372 0.951 . S
C341 C340 1.340 . S
C341 C342 1.439 . S
C341 H373 0.950 . S
C342 N338 1.374 . S
C342 C341 1.439 . S
C342 C367 1.395 . S
N343 Co332 1.995 1_565 S
N343 C344 1.376 . S
N343 C347 1.383 . S
C344 N343 1.376 . S
C344 C345 1.446 . S
C344 C367 1.391 1_565 S
C345 C344 1.446 . S
C345 C346 1.339 . S
C345 H374 0.949 . S
C346 C345 1.339 . S
C346 C347 1.439 . S
C346 H375 0.950 . S
C347 N343 1.383 . S
C347 C346 1.439 . S
C347 C365 1.392 . S
N348 Co332 2.282 . S
N348 C351 1.332 . S
N348 C353 1.332 . S
C349 C350 1.386 . S
C349 C352 1.388 . S
C350 C349 1.386 . S
C350 C351 1.382 . S
C350 H376 0.950 . S
C351 N348 1.332 . S
C351 C350 1.382 . S
C351 H362 0.952 . S
C352 C349 1.388 . S
C352 C353 1.382 . S
C352 H377 0.950 . S
C353 N348 1.332 . S
C353 C352 1.382 . S
C353 H363 0.948 . S
N354 Co332 2.282 1_565 S
N354 C358 1.332 . S
N354 C359 1.332 . S
C355 C356 1.388 . S
C355 C359 1.382 . S
C355 H378 0.950 . S
C356 C355 1.388 . S
C356 C357 1.386 . S
C357 C356 1.386 . S
C357 C358 1.382 . S
C357 H379 0.950 . S
C358 N354 1.332 . S
C358 C357 1.382 . S
C358 H360 0.952 . S
C359 N354 1.332 . S
C359 C355 1.382 . S
C359 H361 0.948 . S
H360 C358 0.952 . S
H361 C359 0.948 . S
H362 C351 0.952 . S
H363 C353 0.948 . S
C364 C330 1.418 . S
C364 C334 1.367 1_565 S
C365 C327 1.389 . S
C365 C347 1.392 . S
C366 C337 1.392 . S
C366 C339 1.389 . S
C367 C342 1.395 . S
C367 C344 1.391 1_545 S
H368 C328 0.951 . S
H369 C329 0.950 . S
H370 C335 0.949 . S
H371 C336 0.950 . S
H372 C340 0.951 . S
H373 C341 0.950 . S
H374 C345 0.949 . S
H375 C346 0.950 . S
H376 C350 0.950 . S
H377 C352 0.950 . S
H378 C355 0.950 . S
H379 C357 0.950 . S
C380 C381 1.443 . S
C380 N384 1.376 . S
C380 C418 1.389 . S
C381 C380 1.443 . S
C381 C382 1.340 . S
C381 H421 0.951 . S
C382 C381 1.340 . S
C382 C383 1.439 . S
C382 H422 0.950 . S
C383 C382 1.439 . S
C383 N384 1.374 . S
C383 C417 1.400 . S
N384 C380 1.376 . S
N384 C383 1.374 . S
N384 Co385 2.008 . S
Co385 N384 2.008 . S
Co385 N386 1.995 1_554 S
Co385 N391 2.008 1_554 S
Co385 N396 1.995 . S
Co385 N401 2.282 . S
Co385 N407 2.282 1_554 S
N386 Co385 1.995 1_556 S
N386 C387 1.376 . S
N386 C390 1.383 . S
C387 N386 1.376 . S
C387 C388 1.446 . S
C387 C417 1.387 1_556 S
C388 C387 1.446 . S
C388 C389 1.339 . S
C388 H423 0.949 . S
C389 C388 1.339 . S
C389 C390 1.439 . S
C389 H424 0.950 . S
C390 N386 1.383 . S
C390 C389 1.439 . S
C390 C419 1.392 . S
N391 Co385 2.008 1_556 S
N391 C392 1.376 . S
N391 C395 1.374 . S
C392 N391 1.376 . S
C392 C393 1.443 . S
C392 C419 1.389 . S
C393 C392 1.443 . S
C393 C394 1.340 . S
C393 H425 0.951 . S
C394 C393 1.340 . S
C394 C395 1.439 . S
C394 H426 0.950 . S
C395 N391 1.374 . S
C395 C394 1.439 . S
C395 C420 1.395 1_556 S
N396 Co385 1.995 . S
N396 C397 1.376 . S
N396 C400 1.383 . S
C397 N396 1.376 . S
C397 C398 1.446 . S
C397 C420 1.391 . S
C398 C397 1.446 . S
C398 C399 1.339 . S
C398 H427 0.949 . S
C399 C398 1.339 . S
C399 C400 1.439 . S
C399 H428 0.950 . S
C400 N396 1.383 . S
C400 C399 1.439 . S
C400 C418 1.392 . S
N401 Co385 2.282 . S
N401 C404 1.332 . S
N401 C406 1.332 . S
C402 C403 1.386 . S
C402 C405 1.388 . S
C403 C402 1.386 . S
C403 C404 1.382 . S
C403 H429 0.950 . S
C404 N401 1.332 . S
C404 C403 1.382 . S
C404 H415 0.952 . S
C405 C402 1.388 . S
C405 C406 1.382 . S
C405 H430 0.950 . S
C406 N401 1.332 . S
C406 C405 1.382 . S
C406 H416 0.948 . S
N407 Co385 2.282 1_556 S
N407 C411 1.332 . S
N407 C412 1.332 . S
C408 C409 1.388 . S
C408 C412 1.382 . S
C408 H431 0.950 . S
C409 C408 1.388 . S
C409 C410 1.386 . S
C410 C409 1.386 . S
C410 C411 1.382 . S
C410 H432 0.950 . S
C411 N407 1.332 . S
C411 C410 1.382 . S
C411 H413 0.952 . S
C412 N407 1.332 . S
C412 C408 1.382 . S
C412 H414 0.948 . S
H413 C411 0.952 . S
H414 C412 0.948 . S
H415 C404 0.952 . S
H416 C406 0.948 . S
C417 C383 1.400 . S
C417 C387 1.387 1_554 S
C418 C380 1.389 . S
C418 C400 1.392 . S
C419 C390 1.392 . S
C419 C392 1.389 . S
C420 C395 1.395 1_554 S
C420 C397 1.391 . S
H421 C381 0.951 . S
H422 C382 0.950 . S
H423 C388 0.949 . S
H424 C389 0.950 . S
H425 C393 0.951 . S
H426 C394 0.950 . S
H427 C398 0.949 . S
H428 C399 0.950 . S
H429 C403 0.950 . S
H430 C405 0.950 . S
H431 C408 0.950 . S
H432 C410 0.950 . S
C433 C434 1.443 . S
C433 N437 1.376 . S
C433 C471 1.389 . S
C434 C433 1.443 . S
C434 C435 1.340 . S
C434 H474 0.951 . S
C435 C434 1.340 . S
C435 C436 1.439 . S
C435 H475 0.950 . S
C436 C435 1.439 . S
C436 N437 1.374 . S
C436 C470 1.395 . S
N437 C433 1.376 . S
N437 C436 1.374 . S
N437 Co438 2.008 . S
Co438 N437 2.008 . S
Co438 N439 1.995 1_554 S
Co438 N444 2.008 . S
Co438 N449 1.995 . S
Co438 N454 2.282 . S
Co438 N460 2.282 1_554 S
N439 Co438 1.995 1_556 S
N439 C440 1.376 . S
N439 C443 1.383 . S
C440 N439 1.376 . S
C440 C441 1.446 . S
C440 C470 1.391 1_556 S
C441 C440 1.446 . S
C441 C442 1.339 . S
C441 H476 0.949 . S
C442 C441 1.339 . S
C442 C443 1.439 . S
C442 H477 0.950 . S
C443 N439 1.383 . S
C443 C442 1.439 . S
C443 C472 1.392 . S
N444 Co438 2.008 . S
N444 C445 1.376 1_554 S
N444 C448 1.374 . S
C445 N444 1.376 1_556 S
C445 C446 1.443 . S
C445 C472 1.389 . S
C446 C445 1.443 . S
C446 C447 1.340 1_556 S
C446 H478 0.951 . S
C447 C446 1.340 1_554 S
C447 C448 1.439 . S
C447 H479 0.950 . S
C448 N444 1.374 . S
C448 C447 1.439 . S
C448 C473 1.395 . S
N449 Co438 1.995 . S
N449 C450 1.376 . S
N449 C453 1.383 . S
C450 N449 1.376 . S
C450 C451 1.446 . S
C450 C473 1.391 . S
C451 C450 1.446 . S
C451 C452 1.339 . S
C451 H480 0.949 . S
C452 C451 1.339 . S
C452 C453 1.439 . S
C452 H481 0.950 . S
C453 N449 1.383 . S
C453 C452 1.439 . S
C453 C471 1.392 . S
N454 Co438 2.282 . S
N454 C457 1.332 . S
N454 C459 1.332 . S
C455 C456 1.386 . S
C455 C458 1.388 . S
C456 C455 1.386 . S
C456 C457 1.382 . S
C456 H482 0.950 . S
C457 N454 1.332 . S
C457 C456 1.382 . S
C457 H468 0.952 . S
C458 C455 1.388 . S
C458 C459 1.382 . S
C458 H483 0.950 . S
C459 N454 1.332 . S
C459 C458 1.382 . S
C459 H469 0.948 . S
N460 Co438 2.282 1_556 S
N460 C464 1.332 . S
N460 C465 1.332 . S
C461 C462 1.388 . S
C461 C465 1.382 . S
C461 H484 0.950 . S
C462 C461 1.388 . S
C462 C463 1.386 . S
C463 C462 1.386 . S
C463 C464 1.382 . S
C463 H485 0.950 . S
C464 N460 1.332 . S
C464 C463 1.382 . S
C464 H466 0.952 . S
C465 N460 1.332 . S
C465 C461 1.382 . S
C465 H467 0.948 . S
H466 C464 0.952 . S
H467 C465 0.948 . S
H468 C457 0.952 . S
H469 C459 0.948 . S
C470 C436 1.395 . S
C470 C440 1.391 1_554 S
C471 C433 1.389 . S
C471 C453 1.392 . S
C472 C443 1.392 . S
C472 C445 1.389 . S
C473 C448 1.395 . S
C473 C450 1.391 . S
H474 C434 0.951 . S
H475 C435 0.950 . S
H476 C441 0.949 . S
H477 C442 0.950 . S
H478 C446 0.951 . S
H479 C447 0.950 . S
H480 C451 0.949 . S
H481 C452 0.950 . S
H482 C456 0.950 . S
H483 C458 0.950 . S
H484 C461 0.950 . S
H485 C463 0.950 . S
C486 C487 1.446 . S
C486 N490 1.365 1_556 S
C486 C524 1.396 . S
C487 C486 1.446 . S
C487 C488 1.340 1_556 S
C487 H527 0.951 . S
C488 C487 1.340 1_554 S
C488 C489 1.439 . S
C488 H528 0.950 . S
C489 C488 1.439 . S
C489 N490 1.374 . S
C489 C523 1.395 . S
N490 C486 1.365 1_554 S
N490 C489 1.374 . S
N490 Co491 2.008 . S
Co491 N490 2.008 . S
Co491 N492 1.995 . S
Co491 N497 2.008 . S
Co491 N502 1.995 . S
Co491 N507 2.282 1_554 S
Co491 N513 2.282 . S
N492 Co491 1.995 . S
N492 C493 1.376 . S
N492 C496 1.383 . S
C493 N492 1.376 . S
C493 C494 1.446 . S
C493 C523 1.391 . S
C494 C493 1.446 . S
C494 C495 1.339 . S
C494 H529 0.949 . S
C495 C494 1.339 . S
C495 C496 1.439 . S
C495 H530 0.950 . S
C496 N492 1.383 . S
C496 C495 1.439 . S
C496 C525 1.392 . S
N497 Co491 2.008 . S
N497 C498 1.376 . S
N497 C501 1.374 . S
C498 N497 1.376 . S
C498 C499 1.443 . S
C498 C525 1.389 . S
C499 C498 1.443 . S
C499 C500 1.340 . S
C499 H531 0.951 . S
C500 C499 1.340 . S
C500 C501 1.439 . S
C500 H532 0.950 . S
C501 N497 1.374 . S
C501 C500 1.439 . S
C501 C526 1.395 . S
N502 Co491 1.995 . S
N502 C503 1.376 . S
N502 C506 1.383 1_554 S
C503 N502 1.376 . S
C503 C504 1.446 1_554 S
C503 C526 1.391 . S
C504 C503 1.446 1_556 S
C504 C505 1.339 . S
C504 H533 0.949 . S
C505 C504 1.339 . S
C505 C506 1.439 . S
C505 H534 0.950 . S
C506 N502 1.383 1_556 S
C506 C505 1.439 . S
C506 C524 1.392 . S
N507 Co491 2.282 1_556 S
N507 C510 1.332 . S
N507 C512 1.332 . S
C508 C509 1.386 . S
C508 C511 1.388 . S
C509 C508 1.386 . S
C509 C510 1.382 . S
C509 H535 0.950 . S
C510 N507 1.332 . S
C510 C509 1.382 . S
C510 H521 0.952 . S
C511 C508 1.388 . S
C511 C512 1.382 . S
C511 H536 0.950 . S
C512 N507 1.332 . S
C512 C511 1.382 . S
C512 H522 0.948 1_556 S
N513 Co491 2.282 . S
N513 C517 1.332 . S
N513 C518 1.332 . S
C514 C515 1.388 . S
C514 C518 1.382 . S
C514 H537 0.950 . S
C515 C514 1.388 . S
C515 C516 1.386 . S
C516 C515 1.386 . S
C516 C517 1.382 . S
C516 H538 0.950 . S
C517 N513 1.332 . S
C517 C516 1.382 . S
C517 H519 0.952 . S
C518 N513 1.332 . S
C518 C514 1.382 . S
C518 H520 0.948 . S
H519 C517 0.952 . S
H520 C518 0.948 . S
H521 C510 0.952 . S
H522 C512 0.948 1_554 S
C523 C489 1.395 . S
C523 C493 1.391 . S
C524 C486 1.396 . S
C524 C506 1.392 . S
C525 C496 1.392 . S
C525 C498 1.389 . S
C526 C501 1.395 . S
C526 C503 1.391 . S
H527 C487 0.951 . S
H528 C488 0.950 . S
H529 C494 0.949 . S
H530 C495 0.950 . S
H531 C499 0.951 . S
H532 C500 0.950 . S
H533 C504 0.949 . S
H534 C505 0.950 . S
H535 C509 0.950 . S
H536 C511 0.950 . S
H537 C514 0.950 . S
H538 C516 0.950 . S
C539 C540 1.443 . S
C539 N543 1.376 . S
C539 C577 1.389 . S
C540 C539 1.443 . S
C540 C541 1.340 . S
C540 H580 0.951 . S
C541 C540 1.340 . S
C541 C542 1.439 . S
C541 H581 0.950 . S
C542 C541 1.439 . S
C542 N543 1.374 . S
C542 C576 1.401 . S
N543 C539 1.376 . S
N543 C542 1.374 . S
N543 Co544 2.008 . S
Co544 N543 2.008 . S
Co544 N545 1.995 1_554 S
Co544 N550 2.008 1_554 S
Co544 N555 1.995 . S
Co544 N560 2.282 . S
Co544 N566 2.282 1_554 S
N545 Co544 1.995 1_556 S
N545 C546 1.376 . S
N545 C549 1.383 . S
C546 N545 1.376 . S
C546 C547 1.446 . S
C546 C576 1.386 1_556 S
C547 C546 1.446 . S
C547 C548 1.339 . S
C547 H582 0.949 . S
C548 C547 1.339 . S
C548 C549 1.439 . S
C548 H583 0.950 . S
C549 N545 1.383 . S
C549 C548 1.439 . S
C549 C578 1.392 . S
N550 Co544 2.008 1_556 S
N550 C551 1.376 . S
N550 C554 1.374 1_556 S
C551 N550 1.376 . S
C551 C552 1.443 . S
C551 C578 1.389 . S
C552 C551 1.443 . S
C552 C553 1.340 . S
C552 H584 0.951 . S
C553 C552 1.340 . S
C553 C554 1.439 1_556 S
C553 H585 0.950 . S
C554 N550 1.374 1_554 S
C554 C553 1.439 1_554 S
C554 C579 1.395 . S
N555 Co544 1.995 . S
N555 C556 1.376 . S
N555 C559 1.383 . S
C556 N555 1.376 . S
C556 C557 1.446 . S
C556 C579 1.391 . S
C557 C556 1.446 . S
C557 C558 1.339 . S
C557 H586 0.949 . S
C558 C557 1.339 . S
C558 C559 1.439 . S
C558 H587 0.950 . S
C559 N555 1.383 . S
C559 C558 1.439 . S
C559 C577 1.392 . S
N560 Co544 2.282 . S
N560 C563 1.332 . S
N560 C565 1.332 . S
C561 C562 1.386 . S
C561 C564 1.388 . S
C562 C561 1.386 . S
C562 C563 1.382 . S
C562 H588 0.950 . S
C563 N560 1.332 . S
C563 C562 1.382 . S
C563 H574 0.952 . S
C564 C561 1.388 . S
C564 C565 1.382 . S
C564 H589 0.950 . S
C565 N560 1.332 . S
C565 C564 1.382 . S
C565 H575 0.948 . S
N566 Co544 2.282 1_556 S
N566 C570 1.332 . S
N566 C571 1.332 . S
C567 C568 1.388 . S
C567 C571 1.382 . S
C567 H590 0.950 . S
C568 C567 1.388 . S
C568 C569 1.386 . S
C569 C568 1.386 . S
C569 C570 1.382 . S
C569 H591 0.950 . S
C570 N566 1.332 . S
C570 C569 1.382 . S
C570 H572 0.952 . S
C571 N566 1.332 . S
C571 C567 1.382 . S
C571 H573 0.948 . S
H572 C570 0.952 . S
H573 C571 0.948 . S
H574 C563 0.952 . S
H575 C565 0.948 . S
C576 C542 1.401 . S
C576 C546 1.386 1_554 S
C577 C539 1.389 . S
C577 C559 1.392 . S
C578 C549 1.392 . S
C578 C551 1.389 . S
C579 C554 1.395 . S
C579 C556 1.391 . S
H580 C540 0.951 . S
H581 C541 0.950 . S
H582 C547 0.949 . S
H583 C548 0.950 . S
H584 C552 0.951 . S
H585 C553 0.950 . S
H586 C557 0.949 . S
H587 C558 0.950 . S
H588 C562 0.950 . S
H589 C564 0.950 . S
H590 C567 0.950 . S
H591 C569 0.950 . S
H592 C600 0.950 . S
H593 C605 0.950 . S
H594 C602 0.950 . S
H595 C604 0.950 . S
H596 C606 0.950 . S
H597 C608 0.950 . S
H598 C610 0.950 . S
H599 C611 0.950 . S
C600 H592 0.950 . S
C600 C601 1.386 . S
C600 C602 1.391 . S
C601 C600 1.386 . S
C601 C605 1.393 . S
C602 H594 0.950 . S
C602 C600 1.391 . S
C602 C603 1.400 . S
C603 C602 1.400 . S
C603 C604 1.398 . S
C603 C609 1.491 . S
C604 H595 0.950 . S
C604 C603 1.398 . S
C604 C605 1.391 . S
C605 H593 0.950 . S
C605 C601 1.393 . S
C605 C604 1.391 . S
C606 H596 0.950 . S
C606 C607 1.386 . S
C606 C608 1.391 . S
C607 C606 1.386 . S
C607 C611 1.393 . S
C608 H597 0.950 . S
C608 C606 1.391 . S
C608 C609 1.400 . S
C609 C603 1.491 . S
C609 C608 1.400 . S
C609 C610 1.398 . S
C610 H598 0.950 . S
C610 C609 1.398 . S
C610 C611 1.391 . S
C611 H599 0.950 . S
C611 C607 1.393 . S
C611 C610 1.391 . S
H612 C620 0.950 . S
H613 C625 0.950 . S
H614 C622 0.950 . S
H615 C624 0.950 . S
H616 C626 0.950 . S
H617 C628 0.950 . S
H618 C630 0.950 . S
H619 C631 0.950 . S
C620 H612 0.950 . S
C620 C621 1.386 . S
C620 C622 1.391 . S
C621 C620 1.386 . S
C621 C625 1.393 . S
C622 H614 0.950 . S
C622 C620 1.391 . S
C622 C623 1.400 . S
C623 C622 1.400 . S
C623 C624 1.398 . S
C623 C629 1.491 . S
C624 H615 0.950 . S
C624 C623 1.398 . S
C624 C625 1.391 . S
C625 H613 0.950 . S
C625 C621 1.393 . S
C625 C624 1.391 . S
C626 H616 0.950 . S
C626 C627 1.386 . S
C626 C628 1.391 . S
C627 C626 1.386 . S
C627 C631 1.393 . S
C628 H617 0.950 . S
C628 C626 1.391 . S
C628 C629 1.400 . S
C629 C623 1.491 . S
C629 C628 1.400 . S
C629 C630 1.398 . S
C630 H618 0.950 . S
C630 C629 1.398 . S
C630 C631 1.391 . S
C631 H619 0.950 . S
C631 C627 1.393 . S
C631 C630 1.391 . S
H632 C640 0.950 . S
H633 C645 0.950 . S
H634 C642 0.950 . S
H635 C644 0.950 . S
H636 C646 0.950 . S
H637 C648 0.950 . S
H638 C650 0.950 . S
H639 C651 0.950 . S
C640 H632 0.950 . S
C640 C641 1.386 . S
C640 C642 1.391 . S
C641 C640 1.386 . S
C641 C645 1.393 . S
C642 H634 0.950 . S
C642 C640 1.391 . S
C642 C643 1.400 . S
C643 C642 1.400 . S
C643 C644 1.398 . S
C643 C649 1.491 . S
C644 H635 0.950 . S
C644 C643 1.398 . S
C644 C645 1.391 . S
C645 H633 0.950 . S
C645 C641 1.393 . S
C645 C644 1.391 . S
C646 H636 0.950 . S
C646 C647 1.386 . S
C646 C648 1.391 . S
C647 C646 1.386 . S
C647 C651 1.393 . S
C648 H637 0.950 . S
C648 C646 1.391 . S
C648 C649 1.400 . S
C649 C643 1.491 . S
C649 C648 1.400 . S
C649 C650 1.398 . S
C650 H638 0.950 . S
C650 C649 1.398 . S
C650 C651 1.391 . S
C651 H639 0.950 . S
C651 C647 1.393 . S
C651 C650 1.391 . S
H652 C660 0.950 . S
H653 C665 0.950 . S
H654 C662 0.950 . S
H655 C664 0.950 . S
H656 C666 0.950 . S
H657 C668 0.950 . S
H658 C670 0.950 . S
H659 C671 0.950 . S
C660 H652 0.950 . S
C660 C661 1.386 . S
C660 C662 1.391 . S
C661 C660 1.386 . S
C661 C665 1.393 . S
C662 H654 0.950 . S
C662 C660 1.391 . S
C662 C663 1.400 . S
C663 C662 1.400 . S
C663 C664 1.398 . S
C663 C669 1.491 . S
C664 H655 0.950 . S
C664 C663 1.398 . S
C664 C665 1.391 . S
C665 H653 0.950 . S
C665 C661 1.393 . S
C665 C664 1.391 . S
C666 H656 0.950 . S
C666 C667 1.386 . S
C666 C668 1.391 . S
C667 C666 1.386 . S
C667 C671 1.393 . S
C668 H657 0.950 . S
C668 C666 1.391 . S
C668 C669 1.400 . S
C669 C663 1.491 . S
C669 C668 1.400 . S
C669 C670 1.398 . S
C670 H658 0.950 . S
C670 C669 1.398 . S
C670 C671 1.391 . S
C671 H659 0.950 . S
C671 C667 1.393 . S
C671 C670 1.391 . S
H672 C680 0.950 . S
H673 C685 0.950 . S
H674 C682 0.950 . S
H675 C684 0.950 . S
H676 C686 0.950 . S
H677 C688 0.950 . S
H678 C690 0.950 . S
H679 C691 0.950 . S
C680 H672 0.950 . S
C680 C681 1.386 . S
C680 C682 1.391 . S
C681 C680 1.386 . S
C681 C685 1.393 . S
C682 H674 0.950 . S
C682 C680 1.391 . S
C682 C683 1.400 . S
C683 C682 1.400 . S
C683 C684 1.398 . S
C683 C689 1.491 . S
C684 H675 0.950 . S
C684 C683 1.398 . S
C684 C685 1.391 . S
C685 H673 0.950 . S
C685 C681 1.393 . S
C685 C684 1.391 . S
C686 H676 0.950 . S
C686 C687 1.386 . S
C686 C688 1.391 . S
C687 C686 1.386 . S
C687 C691 1.393 . S
C688 H677 0.950 . S
C688 C686 1.391 . S
C688 C689 1.400 . S
C689 C683 1.491 . S
C689 C688 1.400 . S
C689 C690 1.398 . S
C690 H678 0.950 . S
C690 C689 1.398 . S
C690 C691 1.391 . S
C691 H679 0.950 . S
C691 C687 1.393 . S
C691 C690 1.391 . S
H692 C700 0.950 . S
H693 C705 0.950 . S
H694 C702 0.950 . S
H695 C704 0.950 . S
H696 C706 0.950 . S
H697 C708 0.950 . S
H698 C710 0.950 . S
H699 C711 0.950 . S
C700 H692 0.950 . S
C700 C701 1.386 . S
C700 C702 1.391 . S
C701 C700 1.386 . S
C701 C705 1.393 . S
C702 H694 0.950 . S
C702 C700 1.391 . S
C702 C703 1.400 . S
C703 C702 1.400 . S
C703 C704 1.398 . S
C703 C709 1.491 . S
C704 H695 0.950 . S
C704 C703 1.398 . S
C704 C705 1.391 . S
C705 H693 0.950 . S
C705 C701 1.393 . S
C705 C704 1.391 . S
C706 H696 0.950 . S
C706 C707 1.386 . S
C706 C708 1.391 . S
C707 C706 1.386 . S
C707 C711 1.393 . S
C708 H697 0.950 . S
C708 C706 1.391 . S
C708 C709 1.400 . S
C709 C703 1.491 . S
C709 C708 1.400 . S
C709 C710 1.398 . S
C710 H698 0.950 . S
C710 C709 1.398 . S
C710 C711 1.391 . S
C711 H699 0.950 . S
C711 C707 1.393 . S
C711 C710 1.391 . S
H712 C720 0.950 . S
H713 C725 0.950 . S
H714 C722 0.950 . S
H715 C724 0.950 . S
H716 C726 0.950 . S
H717 C728 0.950 . S
H718 C730 0.950 . S
H719 C731 0.950 . S
C720 H712 0.950 . S
C720 C721 1.386 . S
C720 C722 1.391 . S
C721 C720 1.386 . S
C721 C725 1.393 . S
C722 H714 0.950 . S
C722 C720 1.391 . S
C722 C723 1.400 . S
C723 C722 1.400 . S
C723 C724 1.398 . S
C723 C729 1.491 . S
C724 H715 0.950 . S
C724 C723 1.398 . S
C724 C725 1.391 . S
C725 H713 0.950 . S
C725 C721 1.393 . S
C725 C724 1.391 . S
C726 H716 0.950 . S
C726 C727 1.386 . S
C726 C728 1.391 . S
C727 C726 1.386 . S
C727 C731 1.393 . S
C728 H717 0.950 . S
C728 C726 1.391 . S
C728 C729 1.400 . S
C729 C723 1.491 . S
C729 C728 1.400 . S
C729 C730 1.398 . S
C730 H718 0.950 . S
C730 C729 1.398 . S
C730 C731 1.391 . S
C731 H719 0.950 . S
C731 C727 1.393 . S
C731 C730 1.391 . S
H732 C740 0.950 . S
H733 C745 0.950 . S
H734 C742 0.950 . S
H735 C744 0.950 . S
H736 C746 0.950 . S
H737 C748 0.950 . S
H738 C750 0.950 . S
H739 C751 0.950 . S
C740 H732 0.950 . S
C740 C741 1.386 . S
C740 C742 1.391 . S
C741 C740 1.386 . S
C741 C745 1.393 . S
C742 H734 0.950 . S
C742 C740 1.391 . S
C742 C743 1.400 . S
C743 C742 1.400 . S
C743 C744 1.398 . S
C743 C749 1.491 . S
C744 H735 0.950 . S
C744 C743 1.398 . S
C744 C745 1.391 . S
C745 H733 0.950 . S
C745 C741 1.393 . S
C745 C744 1.391 . S
C746 H736 0.950 . S
C746 C747 1.386 . S
C746 C748 1.391 . S
C747 C746 1.386 . S
C747 C751 1.393 . S
C748 H737 0.950 . S
C748 C746 1.391 . S
C748 C749 1.400 . S
C749 C743 1.491 . S
C749 C748 1.400 . S
C749 C750 1.398 . S
C750 H738 0.950 . S
C750 C749 1.398 . S
C750 C751 1.391 . S
C751 H739 0.950 . S
C751 C747 1.393 . S
C751 C750 1.391 . S
H752 C760 0.950 . S
H753 C765 0.950 . S
H754 C762 0.950 . S
H755 C764 0.950 . S
H756 C766 0.950 . S
H757 C768 0.950 . S
H758 C770 0.950 . S
H759 C771 0.950 . S
C760 H752 0.950 . S
C760 C761 1.386 . S
C760 C762 1.391 . S
C761 C760 1.386 . S
C761 C765 1.393 . S
C762 H754 0.950 . S
C762 C760 1.391 . S
C762 C763 1.400 . S
C763 C762 1.400 . S
C763 C764 1.398 . S
C763 C769 1.491 . S
C764 H755 0.950 . S
C764 C763 1.398 . S
C764 C765 1.391 . S
C765 H753 0.950 . S
C765 C761 1.393 . S
C765 C764 1.391 . S
C766 H756 0.950 . S
C766 C767 1.386 . S
C766 C768 1.391 . S
C767 C766 1.386 . S
C767 C771 1.393 . S
C768 H757 0.950 . S
C768 C766 1.391 . S
C768 C769 1.400 . S
C769 C763 1.491 . S
C769 C768 1.400 . S
C769 C770 1.398 . S
C770 H758 0.950 . S
C770 C769 1.398 . S
C770 C771 1.391 . S
C771 H759 0.950 . S
C771 C767 1.393 . S
C771 C770 1.391 . S
H772 C780 0.950 . S
H773 C785 0.950 . S
H774 C782 0.950 . S
H775 C784 0.950 . S
H776 C786 0.950 . S
H777 C788 0.950 . S
H778 C790 0.950 . S
H779 C791 0.950 . S
C780 H772 0.950 . S
C780 C781 1.386 . S
C780 C782 1.391 . S
C781 C780 1.386 . S
C781 C785 1.393 . S
C782 H774 0.950 . S
C782 C780 1.391 . S
C782 C783 1.400 . S
C783 C782 1.400 . S
C783 C784 1.398 . S
C783 C789 1.491 . S
C784 H775 0.950 . S
C784 C783 1.398 . S
C784 C785 1.391 . S
C785 H773 0.950 . S
C785 C781 1.393 . S
C785 C784 1.391 . S
C786 H776 0.950 . S
C786 C787 1.386 . S
C786 C788 1.391 . S
C787 C786 1.386 . S
C787 C791 1.393 . S
C788 H777 0.950 . S
C788 C786 1.391 . S
C788 C789 1.400 . S
C789 C783 1.491 . S
C789 C788 1.400 . S
C789 C790 1.398 . S
C790 H778 0.950 . S
C790 C789 1.398 . S
C790 C791 1.391 . S
C791 H779 0.950 . S
C791 C787 1.393 . S
C791 C790 1.391 . S
H792 C800 0.950 . S
H793 C805 0.950 . S
H794 C802 0.950 . S
H795 C804 0.950 . S
H796 C806 0.950 . S
H797 C808 0.950 . S
H798 C810 0.950 . S
H799 C811 0.950 . S
C800 H792 0.950 . S
C800 C801 1.386 . S
C800 C802 1.391 . S
C801 C800 1.386 . S
C801 C805 1.393 . S
C802 H794 0.950 . S
C802 C800 1.391 . S
C802 C803 1.400 . S
C803 C802 1.400 . S
C803 C804 1.398 . S
C803 C809 1.491 . S
C804 H795 0.950 . S
C804 C803 1.398 . S
C804 C805 1.391 . S
C805 H793 0.950 . S
C805 C801 1.393 . S
C805 C804 1.391 . S
C806 H796 0.950 . S
C806 C807 1.386 . S
C806 C808 1.391 . S
C807 C806 1.386 . S
C807 C811 1.393 . S
C808 H797 0.950 . S
C808 C806 1.391 . S
C808 C809 1.400 . S
C809 C803 1.491 . S
C809 C808 1.400 . S
C809 C810 1.398 . S
C810 H798 0.950 . S
C810 C809 1.398 . S
C810 C811 1.391 . S
C811 H799 0.950 . S
C811 C807 1.393 . S
C811 C810 1.391 . S
H812 C820 0.950 . S
H813 C825 0.950 . S
H814 C822 0.950 . S
H815 C824 0.950 . S
H816 C826 0.950 . S
H817 C828 0.950 . S
H818 C830 0.950 . S
H819 C831 0.950 . S
C820 H812 0.950 . S
C820 C821 1.386 . S
C820 C822 1.391 . S
C821 C820 1.386 . S
C821 C825 1.393 . S
C822 H814 0.950 . S
C822 C820 1.391 . S
C822 C823 1.400 . S
C823 C822 1.400 . S
C823 C824 1.398 . S
C823 C829 1.491 . S
C824 H815 0.950 . S
C824 C823 1.398 . S
C824 C825 1.391 . S
C825 H813 0.950 . S
C825 C821 1.393 . S
C825 C824 1.391 . S
C826 H816 0.950 . S
C826 C827 1.386 . S
C826 C828 1.391 . S
C827 C826 1.386 . S
C827 C831 1.393 . S
C828 H817 0.950 . S
C828 C826 1.391 . S
C828 C829 1.400 . S
C829 C823 1.491 . S
C829 C828 1.400 . S
C829 C830 1.398 . S
C830 H818 0.950 . S
C830 C829 1.398 . S
C830 C831 1.391 . S
C831 H819 0.950 . S
C831 C827 1.393 . S
C831 C830 1.391 . S
H832 C840 0.950 . S
H833 C845 0.950 . S
H834 C842 0.950 . S
H835 C844 0.950 . S
H836 C846 0.950 . S
H837 C848 0.950 . S
H838 C850 0.950 . S
H839 C851 0.950 . S
C840 H832 0.950 . S
C840 C841 1.386 . S
C840 C842 1.391 . S
C841 C840 1.386 . S
C841 C845 1.393 . S
C842 H834 0.950 . S
C842 C840 1.391 . S
C842 C843 1.400 . S
C843 C842 1.400 . S
C843 C844 1.398 . S
C843 C849 1.491 . S
C844 H835 0.950 . S
C844 C843 1.398 . S
C844 C845 1.391 . S
C845 H833 0.950 . S
C845 C841 1.393 . S
C845 C844 1.391 . S
C846 H836 0.950 . S
C846 C847 1.386 . S
C846 C848 1.391 . S
C847 C846 1.386 . S
C847 C851 1.393 . S
C848 H837 0.950 . S
C848 C846 1.391 . S
C848 C849 1.400 . S
C849 C843 1.491 . S
C849 C848 1.400 . S
C849 C850 1.398 . S
C850 H838 0.950 . S
C850 C849 1.398 . S
C850 C851 1.391 . S
C851 H839 0.950 . S
C851 C847 1.393 . S
C851 C850 1.391 . S
H852 C860 0.950 . S
H853 C865 0.950 . S
H854 C862 0.950 . S
H855 C864 0.950 . S
H856 C866 0.950 . S
H857 C868 0.950 . S
H858 C870 0.950 . S
H859 C871 0.950 . S
C860 H852 0.950 . S
C860 C861 1.386 . S
C860 C862 1.391 . S
C861 C860 1.386 . S
C861 C865 1.393 . S
C862 H854 0.950 . S
C862 C860 1.391 . S
C862 C863 1.400 . S
C863 C862 1.400 . S
C863 C864 1.398 . S
C863 C869 1.491 . S
C864 H855 0.950 . S
C864 C863 1.398 . S
C864 C865 1.391 . S
C865 H853 0.950 . S
C865 C861 1.393 . S
C865 C864 1.391 . S
C866 H856 0.950 . S
C866 C867 1.386 . S
C866 C868 1.391 . S
C867 C866 1.386 . S
C867 C871 1.393 . S
C868 H857 0.950 . S
C868 C866 1.391 . S
C868 C869 1.400 . S
C869 C863 1.491 . S
C869 C868 1.400 . S
C869 C870 1.398 . S
C870 H858 0.950 . S
C870 C869 1.398 . S
C870 C871 1.391 . S
C871 H859 0.950 . S
C871 C867 1.393 . S
C871 C870 1.391 . S
H872 C880 0.950 . S
H873 C885 0.950 . S
H874 C882 0.950 . S
H875 C884 0.950 . S
H876 C886 0.950 . S
H877 C888 0.950 . S
H878 C890 0.950 . S
H879 C891 0.950 . S
C880 H872 0.950 . S
C880 C881 1.386 . S
C880 C882 1.391 . S
C881 C880 1.386 . S
C881 C885 1.393 . S
C882 H874 0.950 . S
C882 C880 1.391 . S
C882 C883 1.400 . S
C883 C882 1.400 . S
C883 C884 1.398 . S
C883 C889 1.491 . S
C884 H875 0.950 . S
C884 C883 1.398 . S
C884 C885 1.391 . S
C885 H873 0.950 . S
C885 C881 1.393 . S
C885 C884 1.391 . S
C886 H876 0.950 . S
C886 C887 1.386 . S
C886 C888 1.391 . S
C887 C886 1.386 . S
C887 C891 1.393 . S
C888 H877 0.950 . S
C888 C886 1.391 . S
C888 C889 1.400 . S
C889 C883 1.491 . S
C889 C888 1.400 . S
C889 C890 1.398 . S
C890 H878 0.950 . S
C890 C889 1.398 . S
C890 C891 1.391 . S
C891 H879 0.950 . S
C891 C887 1.393 . S
C891 C890 1.391 . S
H892 C900 0.950 . S
H893 C905 0.950 . S
H894 C902 0.950 . S
H895 C904 0.950 . S
H896 C906 0.950 . S
H897 C908 0.950 . S
H898 C910 0.950 . S
H899 C911 0.950 . S
C900 H892 0.950 . S
C900 C901 1.386 . S
C900 C902 1.391 . S
C901 C900 1.386 . S
C901 C905 1.393 . S
C902 H894 0.950 . S
C902 C900 1.391 . S
C902 C903 1.400 . S
C903 C902 1.400 . S
C903 C904 1.398 . S
C903 C909 1.491 . S
C904 H895 0.950 . S
C904 C903 1.398 . S
C904 C905 1.391 . S
C905 H893 0.950 . S
C905 C901 1.393 . S
C905 C904 1.391 . S
C906 H896 0.950 . S
C906 C907 1.386 . S
C906 C908 1.391 . S
C907 C906 1.386 . S
C907 C911 1.393 . S
C908 H897 0.950 . S
C908 C906 1.391 . S
C908 C909 1.400 . S
C909 C903 1.491 . S
C909 C908 1.400 . S
C909 C910 1.398 . S
C910 H898 0.950 . S
C910 C909 1.398 . S
C910 C911 1.391 . S
C911 H899 0.950 . S
C911 C907 1.393 . S
C911 C910 1.391 . S
H912 C920 0.950 . S
H913 C925 0.950 . S
H914 C922 0.950 . S
H915 C924 0.950 . S
H916 C926 0.950 . S
H917 C928 0.950 . S
H918 C930 0.950 . S
H919 C931 0.950 . S
C920 H912 0.950 . S
C920 C921 1.386 . S
C920 C922 1.391 . S
C921 C920 1.386 . S
C921 C925 1.393 . S
C922 H914 0.950 . S
C922 C920 1.391 . S
C922 C923 1.400 . S
C923 C922 1.400 . S
C923 C924 1.398 . S
C923 C929 1.491 . S
C924 H915 0.950 . S
C924 C923 1.398 . S
C924 C925 1.391 . S
C925 H913 0.950 . S
C925 C921 1.393 . S
C925 C924 1.391 . S
C926 H916 0.950 . S
C926 C927 1.386 . S
C926 C928 1.391 . S
C927 C926 1.386 . S
C927 C931 1.393 . S
C928 H917 0.950 . S
C928 C926 1.391 . S
C928 C929 1.400 . S
C929 C923 1.491 . S
C929 C928 1.400 . S
C929 C930 1.398 . S
C930 H918 0.950 . S
C930 C929 1.398 . S
C930 C931 1.391 . S
C931 H919 0.950 . S
C931 C927 1.393 . S
C931 C930 1.391 . S
H932 C940 0.950 . S
H933 C945 0.950 . S
H934 C942 0.950 . S
H935 C944 0.950 . S
H936 C946 0.950 . S
H937 C948 0.950 . S
H938 C950 0.950 . S
H939 C951 0.950 . S
C940 H932 0.950 . S
C940 C941 1.386 . S
C940 C942 1.391 . S
C941 C940 1.386 . S
C941 C945 1.393 . S
C942 H934 0.950 . S
C942 C940 1.391 . S
C942 C943 1.400 . S
C943 C942 1.400 . S
C943 C944 1.398 . S
C943 C949 1.491 . S
C944 H935 0.950 . S
C944 C943 1.398 . S
C944 C945 1.391 . S
C945 H933 0.950 . S
C945 C941 1.393 . S
C945 C944 1.391 . S
C946 H936 0.950 . S
C946 C947 1.386 . S
C946 C948 1.391 . S
C947 C946 1.386 . S
C947 C951 1.393 . S
C948 H937 0.950 . S
C948 C946 1.391 . S
C948 C949 1.400 . S
C949 C943 1.491 . S
C949 C948 1.400 . S
C949 C950 1.398 . S
C950 H938 0.950 . S
C950 C949 1.398 . S
C950 C951 1.391 . S
C951 H939 0.950 . S
C951 C947 1.393 . S
C951 C950 1.391 . S
H952 C960 0.950 . S
H953 C965 0.950 . S
H954 C962 0.950 . S
H955 C964 0.950 . S
H956 C966 0.950 . S
H957 C968 0.950 . S
H958 C970 0.950 . S
H959 C971 0.950 . S
C960 H952 0.950 . S
C960 C961 1.386 . S
C960 C962 1.391 . S
C961 C960 1.386 . S
C961 C965 1.393 . S
C962 H954 0.950 . S
C962 C960 1.391 . S
C962 C963 1.400 . S
C963 C962 1.400 . S
C963 C964 1.398 . S
C963 C969 1.491 . S
C964 H955 0.950 . S
C964 C963 1.398 . S
C964 C965 1.391 . S
C965 H953 0.950 . S
C965 C961 1.393 . S
C965 C964 1.391 . S
C966 H956 0.950 . S
C966 C967 1.386 . S
C966 C968 1.391 . S
C967 C966 1.386 . S
C967 C971 1.393 . S
C968 H957 0.950 . S
C968 C966 1.391 . S
C968 C969 1.400 . S
C969 C963 1.491 . S
C969 C968 1.400 . S
C969 C970 1.398 . S
C970 H958 0.950 . S
C970 C969 1.398 . S
C970 C971 1.391 . S
C971 H959 0.950 . S
C971 C967 1.393 . S
C971 C970 1.391 . S
H972 C980 0.950 . S
H973 C985 0.950 . S
H974 C982 0.950 . S
H975 C984 0.950 . S
H976 C986 0.950 . S
H977 C988 0.950 . S
H978 C990 0.950 . S
H979 C991 0.950 . S
C980 H972 0.950 . S
C980 C981 1.386 . S
C980 C982 1.391 . S
C981 C980 1.386 . S
C981 C985 1.393 . S
C982 H974 0.950 . S
C982 C980 1.391 . S
C982 C983 1.400 . S
C983 C982 1.400 . S
C983 C984 1.398 . S
C983 C989 1.491 . S
C984 H975 0.950 . S
C984 C983 1.398 . S
C984 C985 1.391 . S
C985 H973 0.950 . S
C985 C981 1.393 . S
C985 C984 1.391 . S
C986 H976 0.950 . S
C986 C987 1.386 . S
C986 C988 1.391 . S
C987 C986 1.386 . S
C987 C991 1.393 . S
C988 H977 0.950 . S
C988 C986 1.391 . S
C988 C989 1.400 . S
C989 C983 1.491 . S
C989 C988 1.400 . S
C989 C990 1.398 . S
C990 H978 0.950 . S
C990 C989 1.398 . S
C990 C991 1.391 . S
C991 H979 0.950 . S
C991 C987 1.393 . S
C991 C990 1.391 . S
H992 C1000 0.950 . S
H993 C1005 0.950 . S
H994 C1002 0.950 . S
H995 C1004 0.950 . S
H996 C1006 0.950 . S
H997 C1008 0.950 . S
H998 C1010 0.950 . S
H999 C1011 0.950 . S
C1000 H992 0.950 . S
C1000 C1001 1.386 . S
C1000 C1002 1.391 . S
C1001 C1000 1.386 . S
C1001 C1005 1.393 . S
C1002 H994 0.950 . S
C1002 C1000 1.391 . S
C1002 C1003 1.400 . S
C1003 C1002 1.400 . S
C1003 C1004 1.398 . S
C1003 C1009 1.491 . S
C1004 H995 0.950 . S
C1004 C1003 1.398 . S
C1004 C1005 1.391 . S
C1005 H993 0.950 . S
C1005 C1001 1.393 . S
C1005 C1004 1.391 . S
C1006 H996 0.950 . S
C1006 C1007 1.386 . S
C1006 C1008 1.391 . S
C1007 C1006 1.386 . S
C1007 C1011 1.393 . S
C1008 H997 0.950 . S
C1008 C1006 1.391 . S
C1008 C1009 1.400 . S
C1009 C1003 1.491 . S
C1009 C1008 1.400 . S
C1009 C1010 1.398 . S
C1010 H998 0.950 . S
C1010 C1009 1.398 . S
C1010 C1011 1.391 . S
C1011 H999 0.950 . S
C1011 C1007 1.393 . S
C1011 C1010 1.391 . S
H1012 C1020 0.950 . S
H1013 C1025 0.950 . S
H1014 C1022 0.950 . S
H1015 C1024 0.950 . S
H1016 C1026 0.950 . S
H1017 C1028 0.950 . S
H1018 C1030 0.950 . S
H1019 C1031 0.950 . S
C1020 H1012 0.950 . S
C1020 C1021 1.386 . S
C1020 C1022 1.391 . S
C1021 C1020 1.386 . S
C1021 C1025 1.393 . S
C1022 H1014 0.950 . S
C1022 C1020 1.391 . S
C1022 C1023 1.400 . S
C1023 C1022 1.400 . S
C1023 C1024 1.398 . S
C1023 C1029 1.491 . S
C1024 H1015 0.950 . S
C1024 C1023 1.398 . S
C1024 C1025 1.391 . S
C1025 H1013 0.950 . S
C1025 C1021 1.393 . S
C1025 C1024 1.391 . S
C1026 H1016 0.950 . S
C1026 C1027 1.386 . S
C1026 C1028 1.391 . S
C1027 C1026 1.386 . S
C1027 C1031 1.393 . S
C1028 H1017 0.950 . S
C1028 C1026 1.391 . S
C1028 C1029 1.400 . S
C1029 C1023 1.491 . S
C1029 C1028 1.400 . S
C1029 C1030 1.398 . S
C1030 H1018 0.950 . S
C1030 C1029 1.398 . S
C1030 C1031 1.391 . S
C1031 H1019 0.950 . S
C1031 C1027 1.393 . S
C1031 C1030 1.391 . S
H1032 C1040 0.950 . S
H1033 C1045 0.950 . S
H1034 C1042 0.950 . S
H1035 C1044 0.950 . S
H1036 C1046 0.950 . S
H1037 C1048 0.950 . S
H1038 C1050 0.950 . S
H1039 C1051 0.950 . S
C1040 H1032 0.950 . S
C1040 C1041 1.386 . S
C1040 C1042 1.391 . S
C1041 C1040 1.386 . S
C1041 C1045 1.393 . S
C1042 H1034 0.950 . S
C1042 C1040 1.391 . S
C1042 C1043 1.400 . S
C1043 C1042 1.400 . S
C1043 C1044 1.398 . S
C1043 C1049 1.491 . S
C1044 H1035 0.950 . S
C1044 C1043 1.398 . S
C1044 C1045 1.391 . S
C1045 H1033 0.950 . S
C1045 C1041 1.393 . S
C1045 C1044 1.391 . S
C1046 H1036 0.950 . S
C1046 C1047 1.386 . S
C1046 C1048 1.391 . S
C1047 C1046 1.386 . S
C1047 C1051 1.393 . S
C1048 H1037 0.950 . S
C1048 C1046 1.391 . S
C1048 C1049 1.400 . S
C1049 C1043 1.491 . S
C1049 C1048 1.400 . S
C1049 C1050 1.398 . S
C1050 H1038 0.950 . S
C1050 C1049 1.398 . S
C1050 C1051 1.391 . S
C1051 H1039 0.950 . S
C1051 C1047 1.393 . S
C1051 C1050 1.391 . S
H1052 C1060 0.950 . S
H1053 C1065 0.950 . S
H1054 C1062 0.950 . S
H1055 C1064 0.950 . S
H1056 C1066 0.950 . S
H1057 C1068 0.950 . S
H1058 C1070 0.950 . S
H1059 C1071 0.950 . S
C1060 H1052 0.950 . S
C1060 C1061 1.386 . S
C1060 C1062 1.391 . S
C1061 C1060 1.386 . S
C1061 C1065 1.393 . S
C1062 H1054 0.950 . S
C1062 C1060 1.391 . S
C1062 C1063 1.400 . S
C1063 C1062 1.400 . S
C1063 C1064 1.398 . S
C1063 C1069 1.491 . S
C1064 H1055 0.950 . S
C1064 C1063 1.398 . S
C1064 C1065 1.391 . S
C1065 H1053 0.950 . S
C1065 C1061 1.393 . S
C1065 C1064 1.391 . S
C1066 H1056 0.950 . S
C1066 C1067 1.386 . S
C1066 C1068 1.391 . S
C1067 C1066 1.386 . S
C1067 C1071 1.393 . S
C1068 H1057 0.950 . S
C1068 C1066 1.391 . S
C1068 C1069 1.400 . S
C1069 C1063 1.491 . S
C1069 C1068 1.400 . S
C1069 C1070 1.398 . S
C1070 H1058 0.950 . S
C1070 C1069 1.398 . S
C1070 C1071 1.391 . S
C1071 H1059 0.950 . S
C1071 C1067 1.393 . S
C1071 C1070 1.391 . S
H1072 C1080 0.950 . S
H1073 C1085 0.950 . S
H1074 C1082 0.950 . S
H1075 C1084 0.950 . S
H1076 C1086 0.950 . S
H1077 C1088 0.950 . S
H1078 C1090 0.950 . S
H1079 C1091 0.950 . S
C1080 H1072 0.950 . S
C1080 C1081 1.386 . S
C1080 C1082 1.391 . S
C1081 C1080 1.386 . S
C1081 C1085 1.393 . S
C1082 H1074 0.950 . S
C1082 C1080 1.391 . S
C1082 C1083 1.400 . S
C1083 C1082 1.400 . S
C1083 C1084 1.398 . S
C1083 C1089 1.491 . S
C1084 H1075 0.950 . S
C1084 C1083 1.398 . S
C1084 C1085 1.391 . S
C1085 H1073 0.950 . S
C1085 C1081 1.393 . S
C1085 C1084 1.391 . S
C1086 H1076 0.950 . S
C1086 C1087 1.386 . S
C1086 C1088 1.391 . S
C1087 C1086 1.386 . S
C1087 C1091 1.393 . S
C1088 H1077 0.950 . S
C1088 C1086 1.391 . S
C1088 C1089 1.400 . S
C1089 C1083 1.491 . S
C1089 C1088 1.400 . S
C1089 C1090 1.398 . S
C1090 H1078 0.950 . S
C1090 C1089 1.398 . S
C1090 C1091 1.391 . S
C1091 H1079 0.950 . S
C1091 C1087 1.393 . S
C1091 C1090 1.391 . S
H1092 C1100 0.950 . S
H1093 C1105 0.950 . S
H1094 C1102 0.950 . S
H1095 C1104 0.950 . S
H1096 C1106 0.950 . S
H1097 C1108 0.950 . S
H1098 C1110 0.950 . S
H1099 C1111 0.950 . S
C1100 H1092 0.950 . S
C1100 C1101 1.386 . S
C1100 C1102 1.391 . S
C1101 C1100 1.386 . S
C1101 C1105 1.393 . S
C1102 H1094 0.950 . S
C1102 C1100 1.391 . S
C1102 C1103 1.400 . S
C1103 C1102 1.400 . S
C1103 C1104 1.398 . S
C1103 C1109 1.491 . S
C1104 H1095 0.950 . S
C1104 C1103 1.398 . S
C1104 C1105 1.391 . S
C1105 H1093 0.950 . S
C1105 C1101 1.393 . S
C1105 C1104 1.391 . S
C1106 H1096 0.950 . S
C1106 C1107 1.386 . S
C1106 C1108 1.391 . S
C1107 C1106 1.386 . S
C1107 C1111 1.393 . S
C1108 H1097 0.950 . S
C1108 C1106 1.391 . S
C1108 C1109 1.400 . S
C1109 C1103 1.491 . S
C1109 C1108 1.400 . S
C1109 C1110 1.398 . S
C1110 H1098 0.950 . S
C1110 C1109 1.398 . S
C1110 C1111 1.391 . S
C1111 H1099 0.950 . S
C1111 C1107 1.393 . S
C1111 C1110 1.391 . S
H1112 C1120 0.950 . S
H1113 C1125 0.950 . S
H1114 C1122 0.950 . S
H1115 C1124 0.950 . S
H1116 C1126 0.950 . S
H1117 C1128 0.950 . S
H1118 C1130 0.950 . S
H1119 C1131 0.950 . S
C1120 H1112 0.950 . S
C1120 C1121 1.386 . S
C1120 C1122 1.391 . S
C1121 C1120 1.386 . S
C1121 C1125 1.393 . S
C1122 H1114 0.950 . S
C1122 C1120 1.391 . S
C1122 C1123 1.400 . S
C1123 C1122 1.400 . S
C1123 C1124 1.398 . S
C1123 C1129 1.491 . S
C1124 H1115 0.950 . S
C1124 C1123 1.398 . S
C1124 C1125 1.391 . S
C1125 H1113 0.950 . S
C1125 C1121 1.393 . S
C1125 C1124 1.391 . S
C1126 H1116 0.950 . S
C1126 C1127 1.386 . S
C1126 C1128 1.391 . S
C1127 C1126 1.386 . S
C1127 C1131 1.393 . S
C1128 H1117 0.950 . S
C1128 C1126 1.391 . S
C1128 C1129 1.400 . S
C1129 C1123 1.491 . S
C1129 C1128 1.400 . S
C1129 C1130 1.398 . S
C1130 H1118 0.950 . S
C1130 C1129 1.398 . S
C1130 C1131 1.391 . S
C1131 H1119 0.950 . S
C1131 C1127 1.393 . S
C1131 C1130 1.391 . S
H1132 C1140 0.950 . S
H1133 C1145 0.950 . S
H1134 C1142 0.950 . S
H1135 C1144 0.950 . S
H1136 C1146 0.950 . S
H1137 C1148 0.950 . S
H1138 C1150 0.950 . S
H1139 C1151 0.950 . S
C1140 H1132 0.950 . S
C1140 C1141 1.386 . S
C1140 C1142 1.391 . S
C1141 C1140 1.386 . S
C1141 C1145 1.393 . S
C1142 H1134 0.950 . S
C1142 C1140 1.391 . S
C1142 C1143 1.400 . S
C1143 C1142 1.400 . S
C1143 C1144 1.398 . S
C1143 C1149 1.491 . S
C1144 H1135 0.950 . S
C1144 C1143 1.398 . S
C1144 C1145 1.391 . S
C1145 H1133 0.950 . S
C1145 C1141 1.393 . S
C1145 C1144 1.391 . S
C1146 H1136 0.950 . S
C1146 C1147 1.386 . S
C1146 C1148 1.391 . S
C1147 C1146 1.386 . S
C1147 C1151 1.393 . S
C1148 H1137 0.950 . S
C1148 C1146 1.391 . S
C1148 C1149 1.400 . S
C1149 C1143 1.491 . S
C1149 C1148 1.400 . S
C1149 C1150 1.398 . S
C1150 H1138 0.950 . S
C1150 C1149 1.398 . S
C1150 C1151 1.391 . S
C1151 H1139 0.950 . S
C1151 C1147 1.393 . S
C1151 C1150 1.391 . S
H1152 C1160 0.950 . S
H1153 C1165 0.950 . S
H1154 C1162 0.950 . S
H1155 C1164 0.950 . S
H1156 C1166 0.950 . S
H1157 C1168 0.950 . S
H1158 C1170 0.950 . S
H1159 C1171 0.950 . S
C1160 H1152 0.950 . S
C1160 C1161 1.386 . S
C1160 C1162 1.391 . S
C1161 C1160 1.386 . S
C1161 C1165 1.393 . S
C1162 H1154 0.950 . S
C1162 C1160 1.391 . S
C1162 C1163 1.400 . S
C1163 C1162 1.400 . S
C1163 C1164 1.398 . S
C1163 C1169 1.491 . S
C1164 H1155 0.950 . S
C1164 C1163 1.398 . S
C1164 C1165 1.391 . S
C1165 H1153 0.950 . S
C1165 C1161 1.393 . S
C1165 C1164 1.391 . S
C1166 H1156 0.950 . S
C1166 C1167 1.386 . S
C1166 C1168 1.391 . S
C1167 C1166 1.386 . S
C1167 C1171 1.393 . S
C1168 H1157 0.950 . S
C1168 C1166 1.391 . S
C1168 C1169 1.400 . S
C1169 C1163 1.491 . S
C1169 C1168 1.400 . S
C1169 C1170 1.398 . S
C1170 H1158 0.950 . S
C1170 C1169 1.398 . S
C1170 C1171 1.391 . S
C1171 H1159 0.950 . S
C1171 C1167 1.393 . S
C1171 C1170 1.391 . S
H1172 C1180 0.950 . S
H1173 C1185 0.950 . S
H1174 C1182 0.950 . S
H1175 C1184 0.950 . S
H1176 C1186 0.950 . S
H1177 C1188 0.950 . S
H1178 C1190 0.950 . S
H1179 C1191 0.950 . S
C1180 H1172 0.950 . S
C1180 C1181 1.386 . S
C1180 C1182 1.391 . S
C1181 C1180 1.386 . S
C1181 C1185 1.393 . S
C1182 H1174 0.950 . S
C1182 C1180 1.391 . S
C1182 C1183 1.400 . S
C1183 C1182 1.400 . S
C1183 C1184 1.398 . S
C1183 C1189 1.491 . S
C1184 H1175 0.950 . S
C1184 C1183 1.398 . S
C1184 C1185 1.391 . S
C1185 H1173 0.950 . S
C1185 C1181 1.393 . S
C1185 C1184 1.391 . S
C1186 H1176 0.950 . S
C1186 C1187 1.386 . S
C1186 C1188 1.391 . S
C1187 C1186 1.386 . S
C1187 C1191 1.393 . S
C1188 H1177 0.950 . S
C1188 C1186 1.391 . S
C1188 C1189 1.400 . S
C1189 C1183 1.491 . S
C1189 C1188 1.400 . S
C1189 C1190 1.398 . S
C1190 H1178 0.950 . S
C1190 C1189 1.398 . S
C1190 C1191 1.391 . S
C1191 H1179 0.950 . S
C1191 C1187 1.393 . S
C1191 C1190 1.391 . S
H1192 C1200 0.950 . S
H1193 C1205 0.950 . S
H1194 C1202 0.950 . S
H1195 C1204 0.950 . S
H1196 C1206 0.950 . S
H1197 C1208 0.950 . S
H1198 C1210 0.950 . S
H1199 C1211 0.950 . S
C1200 H1192 0.950 . S
C1200 C1201 1.386 . S
C1200 C1202 1.391 . S
C1201 C1200 1.386 . S
C1201 C1205 1.393 . S
C1202 H1194 0.950 . S
C1202 C1200 1.391 . S
C1202 C1203 1.400 . S
C1203 C1202 1.400 . S
C1203 C1204 1.398 . S
C1203 C1209 1.491 . S
C1204 H1195 0.950 . S
C1204 C1203 1.398 . S
C1204 C1205 1.391 . S
C1205 H1193 0.950 . S
C1205 C1201 1.393 . S
C1205 C1204 1.391 . S
C1206 H1196 0.950 . S
C1206 C1207 1.386 . S
C1206 C1208 1.391 . S
C1207 C1206 1.386 . S
C1207 C1211 1.393 . S
C1208 H1197 0.950 . S
C1208 C1206 1.391 . S
C1208 C1209 1.400 . S
C1209 C1203 1.491 . S
C1209 C1208 1.400 . S
C1209 C1210 1.398 . S
C1210 H1198 0.950 . S
C1210 C1209 1.398 . S
C1210 C1211 1.391 . S
C1211 H1199 0.950 . S
C1211 C1207 1.393 . S
C1211 C1210 1.391 . S
H1212 C1220 0.950 . S
H1213 C1225 0.950 . S
H1214 C1222 0.950 . S
H1215 C1224 0.950 . S
H1216 C1226 0.950 . S
H1217 C1228 0.950 . S
H1218 C1230 0.950 . S
H1219 C1231 0.950 . S
C1220 H1212 0.950 . S
C1220 C1221 1.386 . S
C1220 C1222 1.391 . S
C1221 C1220 1.386 . S
C1221 C1225 1.393 . S
C1222 H1214 0.950 . S
C1222 C1220 1.391 . S
C1222 C1223 1.400 . S
C1223 C1222 1.400 . S
C1223 C1224 1.398 . S
C1223 C1229 1.491 . S
C1224 H1215 0.950 . S
C1224 C1223 1.398 . S
C1224 C1225 1.391 . S
C1225 H1213 0.950 . S
C1225 C1221 1.393 . S
C1225 C1224 1.391 . S
C1226 H1216 0.950 . S
C1226 C1227 1.386 . S
C1226 C1228 1.391 . S
C1227 C1226 1.386 . S
C1227 C1231 1.393 . S
C1228 H1217 0.950 . S
C1228 C1226 1.391 . S
C1228 C1229 1.400 . S
C1229 C1223 1.491 . S
C1229 C1228 1.400 . S
C1229 C1230 1.398 . S
C1230 H1218 0.950 . S
C1230 C1229 1.398 . S
C1230 C1231 1.391 . S
C1231 H1219 0.950 . S
C1231 C1227 1.393 . S
C1231 C1230 1.391 . S
C607 C197 1.503 . S
C601 C12 1.396 . S
C627 C250 1.308 . S
C621 C33 1.200 . S
C647 C313 1.542 . S
C641 C51 1.461 . S
C667 C356 1.291 . S
C661 C75 1.218 . S
C681 C103 1.467 . S
C687 C312 1.541 . S
C707 C349 1.328 . S
C701 C122 1.249 . S
C727 C190 1.490 . S
C721 C145 1.428 . S
C747 C243 1.249 . S
C741 C166 1.190 . S
C767 C296 1.548 . S
C761 C164 1.436 . S
C787 C365 1.826 . S
C781 C101 1.715 . S
C807 C206 1.581 . S
C801 C124 1.495 . S
C827 C259 1.763 . S
C821 C143 1.655 . S
C847 C207 1.579 . S
C841 C30 1.470 . S
C867 C260 1.821 . S
C861 C54 1.707 . S
C887 C303 1.544 . S
C881 C72 1.451 . S
C907 C366 1.780 . S
C901 C9 1.668 . S
C927 C409 1.487 . S
C921 C159 1.368 . S
C941 C96 1.564 . S
C947 C462 1.695 . S
C961 C114 1.472 . S
C967 C524 1.557 . S
C981 C138 1.559 . S
C987 C578 1.690 . S
C1001 C40 1.465 . S
C1007 C525 1.520 . S
C1021 C59 1.640 . S
C1027 C577 1.745 . S
C1041 C82 1.426 . S
C1047 C402 1.500 . S
C1067 C455 1.637 . S
C1061 C19 1.550 . S
C1087 C515 1.524 . S
C1081 C17 1.416 . S
C1101 C38 1.304 . S
C1107 C561 1.393 . S
C1121 C61 1.506 . S
C1127 C418 1.595 . S
C1141 C80 1.288 . S
C1147 C471 1.363 . S
C1167 C419 1.558 . S
C1161 C93 1.461 . S
C1187 C472 1.418 . S
C1181 C117 1.320 . S
C1201 C135 1.446 . S
C1207 C508 1.553 . S
C1227 C568 1.338 . S
C1221 C156 1.245 . S
