# Generated by pormake.
# Topology anh, (6,3)-cn, num edge types: 1
# Building blocks:
#     Node 0, Type 0, BuildingBlock: GEDQOX_clean_sbu_0, # of connection points: 6
#     Node 1, Type 0, BuildingBlock: GEDQOX_clean_sbu_0, # of connection points: 6
#     Node 2, Type 0, BuildingBlock: GEDQOX_clean_sbu_0, # of connection points: 6
#     Node 3, Type 1, BuildingBlock: MIDCAF_clean_linker_0, # of connection points: 3
#     Node 4, Type 1, BuildingBlock: MIDCAF_clean_linker_0, # of connection points: 3
#     Node 5, Type 1, BuildingBlock: MIDCAF_clean_linker_0, # of connection points: 3
#     Node 6, Type 1, BuildingBlock: MIDCAF_clean_linker_0, # of connection points: 3
#     Node 7, Type 1, BuildingBlock: MIDCAF_clean_linker_0, # of connection points: 3
#     Node 8, Type 1, BuildingBlock: MIDCAF_clean_linker_0, # of connection points: 3
#     Edge 9, Type (0, 1), BuildingBlock: KIFKEQ_clean_linker_1, # of connection points: 2
#     Edge 10, Type (0, 1), BuildingBlock: KIFKEQ_clean_linker_1, # of connection points: 2
#     Edge 11, Type (0, 1), BuildingBlock: KIFKEQ_clean_linker_1, # of connection points: 2
#     Edge 12, Type (0, 1), BuildingBlock: KIFKEQ_clean_linker_1, # of connection points: 2
#     Edge 13, Type (0, 1), BuildingBlock: KIFKEQ_clean_linker_1, # of connection points: 2
#     Edge 14, Type (0, 1), BuildingBlock: KIFKEQ_clean_linker_1, # of connection points: 2
#     Edge 15, Type (0, 1), BuildingBlock: KIFKEQ_clean_linker_1, # of connection points: 2
#     Edge 16, Type (0, 1), BuildingBlock: KIFKEQ_clean_linker_1, # of connection points: 2
#     Edge 17, Type (0, 1), BuildingBlock: KIFKEQ_clean_linker_1, # of connection points: 2
#     Edge 18, Type (0, 1), BuildingBlock: KIFKEQ_clean_linker_1, # of connection points: 2
#     Edge 19, Type (0, 1), BuildingBlock: KIFKEQ_clean_linker_1, # of connection points: 2
#     Edge 20, Type (0, 1), BuildingBlock: KIFKEQ_clean_linker_1, # of connection points: 2
#     Edge 21, Type (0, 1), BuildingBlock: KIFKEQ_clean_linker_1, # of connection points: 2
#     Edge 22, Type (0, 1), BuildingBlock: KIFKEQ_clean_linker_1, # of connection points: 2
#     Edge 23, Type (0, 1), BuildingBlock: KIFKEQ_clean_linker_1, # of connection points: 2
#     Edge 24, Type (0, 1), BuildingBlock: KIFKEQ_clean_linker_1, # of connection points: 2
#     Edge 25, Type (0, 1), BuildingBlock: KIFKEQ_clean_linker_1, # of connection points: 2
#     Edge 26, Type (0, 1), BuildingBlock: KIFKEQ_clean_linker_1, # of connection points: 2
# Relax obj value: 0.178
# Max RMSD: 0.210
# Mean RMSD: 0.157
data_MOF--net-anh--node1-GEDQOX_clean_sbu_0--node2-MIDCAF_clean_linker_0--edge1-KIFKEQ_clean_linker_1
_symmetry_space_group_name_H-M    P1
_symmetry_Int_Tables_number       1
_symmetry_cell_setting            triclinic
loop_
_symmetry_equiv_pos_as_xyz
'x, y, z'
_cell_length_a     37.151087
_cell_length_b     36.088003
_cell_length_c     67.279382
_cell_angle_alpha  93.090743
_cell_angle_beta   91.300852
_cell_angle_gamma 105.50584
loop_
_atom_site_label
_atom_site_type_symbol
_atom_site_fract_x
_atom_site_fract_y
_atom_site_fract_z
_atom_type_partial_charge
Nd0 Nd 0.09388 0.54643 0.14867 0.0
Nd1 Nd 0.06762 0.45526 0.15422 0.0
C2 C 0.12218 0.61416 0.13426 0.0
C3 C 0.15483 0.6468 0.14029 0.0
C4 C 0.17884 0.66514 0.12587 0.0
C5 C 0.21162 0.69386 0.13156 0.0
C6 C 0.22105 0.70478 0.15183 0.0
C7 C 0.19638 0.68685 0.16619 0.0
C8 C 0.1638 0.65808 0.1605 0.0
C9 C 0.09505 0.53245 0.18864 0.0
C10 C 0.15778 0.49627 0.15335 0.0
C11 C 1.037 0.38426 0.16451 0.0
C12 C 1.00052 0.35922 0.16962 0.0
C13 C 0.97293 0.37425 0.17823 0.0
C14 C 0.93831 0.34959 0.18262 0.0
C15 C 0.93062 0.30948 0.17839 0.0
C16 C 0.95839 0.29482 0.16956 0.0
C17 C 0.99292 0.31942 0.16527 0.0
C18 C 0.08454 0.47838 0.11672 0.0
C19 C 1.00283 0.50449 0.14967 0.0
O20 O 0.13001 0.58264 0.12736 0.0
O21 O 0.0941 0.60744 0.14629 0.0
O22 O 0.10458 0.56674 0.18212 0.0
O23 O 0.08608 0.50828 0.17405 0.0
O24 O 0.14894 0.527 0.1468 0.0
O25 O 0.13182 0.46655 0.15964 0.0
O26 O 1.05348 0.41271 0.17736 0.0
O27 O 1.0401 0.39375 0.146 0.0
O28 O 0.09201 0.44814 0.12357 0.0
O29 O 0.06712 0.4937 0.12913 0.0
O30 O 1.01104 0.47216 0.1543 0.0
O31 O 1.02932 0.53583 0.14555 0.0
H32 H 0.17267 0.65661 0.11021 0.0
H33 H 0.23009 0.70665 0.12009 0.0
H34 H 0.20231 0.69491 0.1819 0.0
H35 H 0.14595 0.64424 0.17198 0.0
H36 H 0.97815 0.40498 0.18157 0.0
H37 H 0.91779 0.36192 0.18957 0.0
H38 H 0.95332 0.2643 0.16571 0.0
H39 H 1.01372 0.30733 0.15843 0.0
Nd40 Nd 0.51855 0.99646 0.52118 0.0
Nd41 Nd 0.60081 0.0178 0.51395 0.0
C42 C 0.44978 0.96597 0.5327 0.0
C43 C 0.41988 0.92964 0.52889 0.0
C44 C 0.42592 0.89361 0.53226 0.0
C45 C 0.39734 0.85965 0.52811 0.0
C46 C 0.36211 0.86096 0.52048 0.0
C47 C 0.35619 0.89714 0.51727 0.0
C48 C 0.3847 0.93103 0.52149 0.0
C49 C 0.53554 0.00765 0.48209 0.0
C50 C 0.56147 0.92713 0.51414 0.0
C51 C 0.66956 0.04763 0.50223 0.0
C52 C 0.69588 0.08543 0.49924 0.0
C53 C 0.68598 0.11248 0.48748 0.0
C54 C 0.71227 0.14716 0.48407 0.0
C55 C 0.74882 0.15559 0.49246 0.0
C56 C 0.75825 0.1289 0.50465 0.0
C57 C 0.73209 0.09415 0.50793 0.0
C58 C 0.58325 0.00433 0.55271 0.0
C59 C 0.55845 0.08651 0.52242 0.0
O60 O 0.4798 0.96454 0.54287 0.0
O61 O 0.45731 0.98831 0.51782 0.0
O62 O 0.50896 0.01862 0.49072 0.0
O63 O 0.55108 0.98989 0.49372 0.0
O64 O 0.53237 0.93765 0.521 0.0
O65 O 0.59091 0.95267 0.50792 0.0
O66 O 0.64045 0.03565 0.48991 0.0
O67 O 0.66185 0.03967 0.52063 0.0
O68 O 0.60908 0.99259 0.54372 0.0
O69 O 0.56835 0.02352 0.54154 0.0
O70 O 0.58557 0.07616 0.51311 0.0
O71 O 0.53142 0.06061 0.53031 0.0
H72 H 0.45272 0.89159 0.53804 0.0
H73 H 0.40281 0.8324 0.531 0.0
H74 H 0.32971 0.89933 0.51112 0.0
H75 H 0.37936 0.95844 0.51874 0.0
H76 H 0.65812 0.10669 0.48073 0.0
H77 H 0.70405 0.16734 0.47478 0.0
H78 H 0.78626 0.1343 0.51115 0.0
H79 H 0.74035 0.07371 0.51703 0.0
Nd80 Nd 0.50379 0.49278 0.83466 0.0
Nd81 Nd 0.58972 0.5177 0.85043 0.0
C82 C 0.44096 0.4887 0.81471 0.0
C83 C 0.42902 0.5187 0.80458 0.0
C84 C 0.45583 0.55084 0.79823 0.0
C85 C 0.44557 0.58394 0.79354 0.0
C86 C 0.40835 0.58544 0.79522 0.0
C87 C 0.38108 0.55185 0.79979 0.0
C88 C 0.39141 0.5188 0.8045 0.0
C89 C 0.51678 0.48894 0.87465 0.0
C90 C 0.54905 0.58568 0.84314 0.0
C91 C 0.65242 0.52921 0.87149 0.0
C92 C 0.68725 0.51864 0.86698 0.0
C93 C 0.68851 0.47993 0.8661 0.0
C94 C 0.72005 0.4699 0.85919 0.0
C95 C 0.7506 0.49831 0.85285 0.0
C96 C 0.74982 0.53705 0.85433 0.0
C97 C 0.71857 0.54713 0.86146 0.0
C98 C 0.58497 0.511 0.80925 0.0
C99 C 0.54555 0.42536 0.83932 0.0
O100 O 0.46849 0.47739 0.80686 0.0
O101 O 0.4447 0.4945 0.83413 0.0
O102 O 0.4892 0.46499 0.86448 0.0
O103 O 0.53452 0.51494 0.864 0.0
O104 O 0.52011 0.55926 0.83467 0.0
O105 O 0.57762 0.57686 0.85195 0.0
O106 O 0.62281 0.50085 0.8744 0.0
O107 O 0.64502 0.55542 0.86051 0.0
O108 O 0.61659 0.52004 0.81934 0.0
O109 O 0.55908 0.50556 0.82126 0.0
O110 O 0.57284 0.45108 0.84959 0.0
O111 O 0.51767 0.43486 0.83013 0.0
H112 H 0.48511 0.55142 0.79821 0.0
H113 H 0.46714 0.60918 0.78994 0.0
H114 H 0.35223 0.55208 0.8015 0.0
H115 H 0.37041 0.4944 0.80952 0.0
H116 H 0.66483 0.45721 0.87021 0.0
H117 H 0.72018 0.43988 0.85831 0.0
H118 H 0.77345 0.55958 0.84996 0.0
H119 H 0.71847 0.57717 0.86208 0.0
C120 C 0.46913 0.89453 0.2231 0.0
C121 C 0.45796 0.90102 0.20381 0.0
C122 C 0.47689 0.93517 0.19519 0.0
C123 C 0.5062 0.96235 0.20576 0.0
H124 H 0.62119 0.04176 0.20183 0.0
H125 H 0.67344 0.08908 0.18823 0.0
H126 H 0.69449 0.15302 0.24534 0.0
H127 H 0.64256 0.10635 0.25885 0.0
H128 H 0.61641 0.06185 0.29739 0.0
H129 H 0.61289 0.06174 0.33354 0.0
H130 H 0.51825 0.96118 0.32737 0.0
H131 H 0.52122 0.96151 0.29134 0.0
H132 H 0.50523 0.9159 0.24868 0.0
H133 H 0.45489 0.86875 0.23025 0.0
H134 H 0.46898 0.94086 0.1803 0.0
H135 H 0.51996 0.98859 0.19887 0.0
N136 N 0.57194 0.01331 0.22884 0.0
N137 N 0.59656 0.03956 0.2606 0.0
N138 N 0.54492 0.98555 0.25761 0.0
C139 C 0.59777 0.04032 0.24043 0.0
C140 C 0.57028 0.01229 0.26932 0.0
C141 C 0.54538 0.98577 0.23743 0.0
C142 C 0.62769 0.07005 0.23148 0.0
C143 C 0.63673 0.06613 0.21142 0.0
C144 C 0.6668 0.09311 0.20365 0.0
C145 C 0.68815 0.12483 0.2157 0.0
C146 C 0.67841 0.12921 0.23557 0.0
C147 C 0.64872 0.10217 0.24336 0.0
C148 C 0.56899 0.0118 0.29136 0.0
C149 C 0.59486 0.03964 0.30371 0.0
C150 C 0.59301 0.03948 0.32446 0.0
C151 C 0.5652 0.01155 0.33334 0.0
C152 C 0.53966 0.98347 0.32101 0.0
C153 C 0.54152 0.98357 0.3003 0.0
C154 C 0.51661 0.95617 0.22529 0.0
C155 C 0.49789 0.92177 0.23372 0.0
C156 C 0.52394 0.3743 0.5507 0.0
C157 C 0.55334 0.36646 0.53992 0.0
C158 C 0.58184 0.39782 0.53395 0.0
C159 C 0.58233 0.43589 0.54004 0.0
H160 H 0.55768 0.56333 0.52682 0.0
H161 H 0.55711 0.62578 0.51406 0.0
H162 H 0.58646 0.68022 0.57305 0.0
H163 H 0.58711 0.61897 0.58572 0.0
H164 H 0.57167 0.57367 0.62298 0.0
H165 H 0.57337 0.57207 0.65915 0.0
H166 H 0.55735 0.44887 0.65371 0.0
H167 H 0.55624 0.45036 0.61762 0.0
H168 H 0.50285 0.41681 0.56632 0.0
H169 H 0.501 0.35106 0.55511 0.0
H170 H 0.60495 0.39289 0.52566 0.0
H171 H 0.60588 0.45932 0.5365 0.0
N172 N 0.56441 0.51447 0.55469 0.0
N173 N 0.56839 0.54669 0.58636 0.0
N174 N 0.55925 0.48011 0.58374 0.0
C175 C 0.56863 0.54794 0.56618 0.0
C176 C 0.56383 0.51305 0.59527 0.0
C177 C 0.55964 0.48042 0.56359 0.0
C178 C 0.57189 0.58575 0.55738 0.0
C179 C 0.56442 0.58872 0.53699 0.0
C180 C 0.56412 0.62448 0.52967 0.0
C181 C 0.57109 0.65783 0.54263 0.0
C182 C 0.58012 0.65499 0.56275 0.0
C183 C 0.58057 0.61965 0.57 0.0
C184 C 0.56395 0.51217 0.6173 0.0
C185 C 0.56845 0.54619 0.62946 0.0
C186 C 0.56921 0.54527 0.65022 0.0
C187 C 0.56558 0.51035 0.65931 0.0
C188 C 0.56075 0.47632 0.64718 0.0
C189 C 0.55992 0.4772 0.62645 0.0
C190 C 0.5544 0.44307 0.5522 0.0
C191 C 0.52468 0.41202 0.55691 0.0
C192 C 1.01669 0.50242 0.8675 0.0
C193 C 1.01076 0.51399 0.84836 0.0
C194 C 1.03922 0.54235 0.8402 0.0
C195 C 0.07163 0.56087 0.85155 0.0
H196 H 0.16747 0.64468 0.85067 0.0
H197 H 0.22181 0.67994 0.83452 0.0
H198 H 0.2814 0.71058 0.89162 0.0
H199 H 0.2268 0.67282 0.90787 0.0
H200 H 0.18532 0.62883 0.94705 0.0
H201 H 0.18472 0.61335 0.98211 0.0
H202 H 0.08755 0.51736 0.96904 0.0
H203 H 0.08819 0.53211 0.93444 0.0
H204 H 1.05173 0.51238 0.89386 0.0
H205 H 0.99521 0.48098 0.87436 0.0
H206 H 1.0356 0.55155 0.8254 0.0
H207 H 0.09226 0.58384 0.84514 0.0
N208 N 0.13436 0.60339 0.87723 0.0
N209 N 0.16364 0.61876 0.90906 0.0
N210 N 0.10879 0.56828 0.90404 0.0
C211 C 0.16255 0.6256 0.88935 0.0
C212 C 0.13657 0.59005 0.91649 0.0
C213 C 0.10744 0.57463 0.88443 0.0
C214 C 0.19311 0.65461 0.88053 0.0
C215 C 0.19186 0.6593 0.85994 0.0
C216 C 0.22321 0.68031 0.85062 0.0
C217 C 0.25668 0.69769 0.86163 0.0
C218 C 0.25654 0.69665 0.88255 0.0
C219 C 0.22515 0.67507 0.8919 0.0
C220 C 0.13692 0.58168 0.93783 0.0
C221 C 0.16391 0.60437 0.95168 0.0
C222 C 0.16351 0.59566 0.97175 0.0
C223 C 0.13632 0.56393 0.97826 0.0
C224 C 0.10932 0.54154 0.96443 0.0
C225 C 0.10959 0.55025 0.94454 0.0
C226 C 0.07613 0.55139 0.87129 0.0
C227 C 1.04899 0.52089 0.87883 0.0
C228 C 0.15166 0.63069 0.44697 0.0
C229 C 0.16076 0.62761 0.46706 0.0
C230 C 0.14473 0.59292 0.47599 0.0
C231 C 0.12005 0.56195 0.46496 0.0
H232 H 1.02788 0.45796 0.46828 0.0
H233 H 0.98036 0.40495 0.4814 0.0
H234 H 0.93819 0.36553 0.42143 0.0
H235 H 0.98558 0.41714 0.4084 0.0
H236 H 1.03288 0.44534 0.3721 0.0
H237 H 1.03669 0.44655 0.33595 0.0
H238 H 0.11426 0.55974 0.34262 0.0
H239 H 0.11035 0.55892 0.37861 0.0
H240 H 0.1216 0.60324 0.42042 0.0
H241 H 0.16387 0.65683 0.4396 0.0
H242 H 0.15118 0.58983 0.49149 0.0
H243 H 0.10828 0.53549 0.47214 0.0
N244 N 0.06214 0.50276 0.44064 0.0
N245 N 1.04305 0.4734 0.4087 0.0
N246 N 0.08996 0.53139 0.41222 0.0
C247 C 1.03968 0.47337 0.42878 0.0
C248 C 0.06814 0.50216 0.40029 0.0
C249 C 0.08732 0.53201 0.43234 0.0
C250 C 1.01091 0.44178 0.43726 0.0
C251 C 1.0085 0.43788 0.45792 0.0
C252 C 0.98115 0.40761 0.46545 0.0
C253 C 0.95565 0.38067 0.45246 0.0
C254 C 0.95786 0.38508 0.43187 0.0
C255 C 0.98509 0.41501 0.42439 0.0
C256 C 0.07115 0.50213 0.37833 0.0
C257 C 1.0508 0.4705 0.36588 0.0
C258 C 1.05312 0.47104 0.34516 0.0
C259 C 0.07559 0.50332 0.33645 0.0
C260 C 0.09627 0.53467 0.34889 0.0
C261 C 0.09415 0.53408 0.36956 0.0
C262 C 0.11159 0.56493 0.44472 0.0
C263 C 0.12758 0.59976 0.43593 0.0
C264 C 0.57505 0.14313 0.80119 0.0
C265 C 0.5573 0.1489 0.81883 0.0
C266 C 0.5399 0.11651 0.82933 0.0
C267 C 0.54 0.07915 0.82213 0.0
H268 H 0.50103 0.92713 0.81936 0.0
H269 H 0.49922 0.86405 0.83219 0.0
H270 H 0.60873 0.87187 0.80972 0.0
H271 H 0.60991 0.93406 0.7965 0.0
H272 H 0.57222 0.94128 0.74076 0.0
H273 H 0.57291 0.93755 0.70434 0.0
H274 H 0.53384 0.03983 0.70304 0.0
H275 H 0.5332 0.04379 0.73927 0.0
H276 H 0.58811 0.10301 0.78003 0.0
H277 H 0.58833 0.16725 0.79259 0.0
H278 H 0.5261 0.12006 0.84303 0.0
H279 H 0.52591 0.05467 0.83028 0.0
N280 N 0.55402 0.00372 0.80565 0.0
N281 N 0.5544 0.96608 0.7759 0.0
N282 N 0.55379 0.03045 0.77457 0.0
C283 C 0.55434 0.96936 0.79613 0.0
C284 C 0.55357 0.99641 0.76501 0.0
C285 C 0.55427 0.03466 0.79474 0.0
C286 C 0.55581 0.93551 0.8072 0.0
C287 C 0.52498 0.91565 0.81764 0.0
C288 C 0.52384 0.87949 0.82479 0.0
C289 C 0.55386 0.86303 0.82196 0.0
C290 C 0.58537 0.88393 0.81231 0.0
C291 C 0.58609 0.91951 0.80477 0.0
C292 C 0.55283 0.99293 0.74294 0.0
C293 C 0.56357 0.96284 0.7327 0.0
C294 C 0.56413 0.96078 0.71188 0.0
C295 C 0.5534 0.9884 0.7009 0.0
C296 C 0.54192 0.01796 0.71111 0.0
C297 C 0.54185 0.02034 0.73189 0.0
C298 C 0.5568 0.07359 0.8041 0.0
C299 C 0.57465 0.10612 0.7939 0.0
C300 C 0.71572 0.52455 0.11796 0.0
C301 C 0.72562 0.50845 0.13519 0.0
C302 C 0.69607 0.49164 0.14767 0.0
C303 C 0.65827 0.49044 0.14277 0.0
H304 H 0.52454 0.53869 0.1493 0.0
H305 H 0.46112 0.53867 0.15916 0.0
H306 H 0.41594 0.43489 0.12162 0.0
H307 H 0.47861 0.43468 0.11245 0.0
H308 H 0.50693 0.4604 0.06485 0.0
H309 H 0.49943 0.45829 0.0288 0.0
H310 H 0.61525 0.52244 0.02531 0.0
H311 H 0.62309 0.52273 0.06134 0.0
H312 H 0.67296 0.5358 0.09948 0.0
H313 H 0.73662 0.53709 0.10754 0.0
H314 H 0.70203 0.47914 0.16121 0.0
H315 H 0.63647 0.47627 0.15236 0.0
N316 N 0.57805 0.49632 0.12873 0.0
N317 N 0.53982 0.48881 0.09943 0.0
N318 N 0.60415 0.49883 0.097 0.0
C319 C 0.54304 0.49067 0.11963 0.0
C320 C 0.56998 0.49307 0.08803 0.0
C321 C 0.60903 0.50024 0.11716 0.0
C322 C 0.50711 0.48621 0.13039 0.0
C323 C 0.50113 0.51509 0.14383 0.0
C324 C 0.46443 0.51543 0.14914 0.0
C325 C 0.4325 0.48688 0.14119 0.0
C326 C 0.43907 0.45719 0.12848 0.0
C327 C 0.47542 0.45697 0.12319 0.0
C328 C 0.5656 0.49175 0.06601 0.0
C329 C 0.53082 0.474 0.05638 0.0
C330 C 0.52648 0.47305 0.03564 0.0
C331 C 0.55664 0.49042 0.02395 0.0
C332 C 0.59148 0.50816 0.03366 0.0
C333 C 0.59596 0.50855 0.05439 0.0
C334 C 0.64877 0.50584 0.12517 0.0
C335 C 0.67849 0.52346 0.11317 0.0
H336 H 0.21772 0.54857 0.13825 0.0
H337 H 0.19063 0.44136 0.16719 0.0
H338 H 0.28243 0.54642 0.13631 0.0
H339 H 0.25586 0.43972 0.16589 0.0
H340 H 0.36817 0.42668 0.1437 0.0
H341 H 0.30384 0.42912 0.14678 0.0
H342 H 0.34058 0.55339 0.15175 0.0
H343 H 0.40485 0.55093 0.14747 0.0
C344 C 0.22551 0.52458 0.14442 0.0
C345 C 0.19828 0.49512 0.15289 0.0
C346 C 0.26312 0.52346 0.14343 0.0
C347 C 0.27539 0.49292 0.15095 0.0
C348 C 0.24811 0.46357 0.15958 0.0
C349 C 0.21037 0.46461 0.16048 0.0
C350 C 0.3628 0.45471 0.14525 0.0
C351 C 0.39261 0.4886 0.14508 0.0
C352 C 0.32544 0.4561 0.14733 0.0
C353 C 0.31599 0.49147 0.14947 0.0
C354 C 0.3459 0.52539 0.1498 0.0
C355 C 0.38331 0.52399 0.14764 0.0
H356 H 0.76264 0.18537 0.45612 0.0
H357 H 0.80055 0.20548 0.51791 0.0
H358 H 0.81262 0.24068 0.44764 0.0
H359 H 0.85107 0.2607 0.50932 0.0
H360 H 0.91294 0.3805 0.48543 0.0
H361 H 0.86236 0.32736 0.49607 0.0
H362 H 0.8821 0.25401 0.44704 0.0
H363 H 0.93283 0.30642 0.43667 0.0
C364 C 0.78138 0.20189 0.46793 0.0
C365 C 0.77767 0.19098 0.48768 0.0
C366 C 0.81025 0.23333 0.46304 0.0
C367 C 0.83598 0.25482 0.47779 0.0
C368 C 0.83162 0.24474 0.49765 0.0
C369 C 0.80288 0.21299 0.50253 0.0
C370 C 0.90684 0.35287 0.4771 0.0
C371 C 0.92668 0.34794 0.46003 0.0
C372 C 0.87779 0.3225 0.48316 0.0
C373 C 0.8679 0.28671 0.4722 0.0
C374 C 0.88847 0.28151 0.45552 0.0
C375 C 0.91756 0.31162 0.44958 0.0
H376 H 0.48942 0.61652 0.84338 0.0
H377 H 0.60962 0.64778 0.84096 0.0
H378 H 0.48994 0.68394 0.84143 0.0
H379 H 0.61012 0.71464 0.83711 0.0
H380 H 0.60553 0.83824 0.84339 0.0
H381 H 0.60375 0.77235 0.85077 0.0
H382 H 0.49629 0.73162 0.81932 0.0
H383 H 0.49747 0.79774 0.81306 0.0
C384 C 0.51596 0.63783 0.84221 0.0
C385 C 0.54949 0.62684 0.84235 0.0
C386 C 0.51626 0.67652 0.84081 0.0
C387 C 0.54997 0.70514 0.83871 0.0
C388 C 0.58355 0.69393 0.839 0.0
C389 C 0.58333 0.65541 0.84107 0.0
C390 C 0.58138 0.81512 0.83829 0.0
C391 C 0.55159 0.82319 0.82773 0.0
C392 C 0.58043 0.77718 0.84235 0.0
C393 C 0.54997 0.74608 0.83558 0.0
C394 C 0.51994 0.75447 0.82521 0.0
C395 C 0.52061 0.7925 0.8215 0.0
H396 H 0.97371 0.56724 0.14814 0.0
H397 H 0.93897 0.44348 0.1492 0.0
H398 H 0.90868 0.56877 0.14672 0.0
H399 H 0.87369 0.44452 0.14668 0.0
H400 H 0.75487 0.45536 0.15434 0.0
H401 H 0.82003 0.45493 0.15916 0.0
H402 H 0.85466 0.56069 0.12902 0.0
H403 H 0.79043 0.56266 0.12575 0.0
C404 C 0.95221 0.54017 0.14787 0.0
C405 C 0.96221 0.50526 0.14873 0.0
C406 C 0.91439 0.54094 0.14688 0.0
C407 C 0.88471 0.50674 0.14635 0.0
C408 C 0.89491 0.47177 0.14732 0.0
C409 C 0.93279 0.47109 0.14862 0.0
C410 C 0.77634 0.47898 0.14906 0.0
C411 C 0.76634 0.50882 0.13941 0.0
C412 C 0.81418 0.47844 0.15154 0.0
C413 C 0.84379 0.50762 0.1444 0.0
C414 C 0.83364 0.5377 0.13509 0.0
C415 C 0.79603 0.53846 0.13283 0.0
H416 H 0.36869 0.79225 0.50351 0.0
H417 H 0.28685 0.84772 0.52599 0.0
H418 H 0.3188 0.73465 0.49344 0.0
H419 H 0.237 0.79031 0.5156 0.0
H420 H 0.16169 0.70351 0.46821 0.0
H421 H 0.2097 0.75842 0.48326 0.0
H422 H 0.26917 0.68107 0.50617 0.0
H423 H 0.22115 0.62596 0.49079 0.0
C424 C 0.34016 0.79202 0.50659 0.0
C425 C 0.33187 0.82486 0.51545 0.0
C426 C 0.31153 0.75895 0.5008 0.0
C427 C 0.27391 0.75795 0.50363 0.0
C428 C 0.26567 0.79036 0.51294 0.0
C429 C 0.29427 0.82334 0.51883 0.0
C430 C 0.18488 0.69822 0.47659 0.0
C431 C 0.18776 0.66045 0.47823 0.0
C432 C 0.21225 0.72966 0.48534 0.0
C433 C 0.24335 0.72413 0.49585 0.0
C434 C 0.24572 0.68627 0.498 0.0
C435 C 0.21807 0.65473 0.48938 0.0
H436 H 0.49342 0.36242 0.82177 0.0
H437 H 0.59986 0.39486 0.85439 0.0
H438 H 0.49606 0.29551 0.81923 0.0
H439 H 0.60215 0.32795 0.85207 0.0
H440 H 0.6144 0.21512 0.82037 0.0
H441 H 0.61081 0.28112 0.82667 0.0
H442 H 0.4936 0.2391 0.83853 0.0
H443 H 0.4971 0.17282 0.83174 0.0
C444 C 0.51729 0.35534 0.8285 0.0
C445 C 0.54649 0.38426 0.8382 0.0
C446 C 0.51866 0.31683 0.82718 0.0
C447 C 0.54932 0.30621 0.83544 0.0
C448 C 0.57829 0.33507 0.84534 0.0
C449 C 0.57687 0.37352 0.84673 0.0
C450 C 0.5879 0.21993 0.82446 0.0
C451 C 0.55599 0.18866 0.82544 0.0
C452 C 0.58589 0.25782 0.82822 0.0
C453 C 0.55185 0.26557 0.83299 0.0
C454 C 0.52016 0.23423 0.83464 0.0
C455 C 0.52225 0.19621 0.83099 0.0
H456 H 0.50321 0.86628 0.52237 0.0
H457 H 0.61924 0.89421 0.50697 0.0
H458 H 0.50393 0.80006 0.52665 0.0
H459 H 0.62002 0.82757 0.51151 0.0
H460 H 0.59886 0.69466 0.50909 0.0
H461 H 0.59534 0.75839 0.49949 0.0
H462 H 0.53218 0.76932 0.55156 0.0
H463 H 0.53511 0.70602 0.56082 0.0
C464 C 0.52889 0.85832 0.51978 0.0
C465 C 0.5613 0.88586 0.51454 0.0
C466 C 0.52932 0.82024 0.52231 0.0
C467 C 0.56217 0.8085 0.5197 0.0
C468 C 0.59418 0.83555 0.51356 0.0
C469 C 0.59376 0.87382 0.51102 0.0
C470 C 0.58388 0.7106 0.5183 0.0
C471 C 0.56747 0.69537 0.53578 0.0
C472 C 0.58213 0.74721 0.51292 0.0
C473 C 0.56344 0.76904 0.52474 0.0
C474 C 0.54641 0.75326 0.54195 0.0
C475 C 0.54842 0.71704 0.54738 0.0
H476 H 0.78631 0.5204 0.81879 0.0
H477 H 0.78978 0.45349 0.8697 0.0
H478 H 0.84713 0.51305 0.80918 0.0
H479 H 0.85092 0.44709 0.86062 0.0
H480 H 0.97319 0.55881 0.83033 0.0
H481 H 0.90646 0.54448 0.82448 0.0
H482 H 0.89424 0.42687 0.83948 0.0
H483 H 0.96182 0.44156 0.84557 0.0
C484 C 0.79995 0.50366 0.82774 0.0
C485 C 0.78389 0.48815 0.84519 0.0
C486 C 0.83468 0.49939 0.82225 0.0
C487 C 0.85423 0.48004 0.83429 0.0
C488 C 0.83659 0.46185 0.85085 0.0
C489 C 0.80165 0.46574 0.85619 0.0
C490 C 0.95662 0.52942 0.83156 0.0
C491 C 0.97273 0.50153 0.83884 0.0
C492 C 0.91809 0.52112 0.82818 0.0
C493 C 0.89482 0.4847 0.83195 0.0
C494 C 0.91137 0.45549 0.83693 0.0
C495 C 0.95003 0.46385 0.84038 0.0
H496 H 0.2557 0.77155 0.13419 0.0
H497 H 0.26802 0.70371 0.18362 0.0
H498 H 0.31466 0.81838 0.14452 0.0
H499 H 0.32559 0.75129 0.19449 0.0
H500 H 0.44461 0.82275 0.20023 0.0
H501 H 0.38892 0.77555 0.18613 0.0
H502 H 0.34202 0.86776 0.17005 0.0
H503 H 0.39832 0.91497 0.18381 0.0
C504 C 0.27094 0.76656 0.14724 0.0
C505 C 0.25691 0.73381 0.15808 0.0
C506 C 0.30458 0.79367 0.1533 0.0
C507 C 0.32507 0.78871 0.17034 0.0
C508 C 0.31101 0.7559 0.18112 0.0
C509 C 0.27754 0.72881 0.17505 0.0
C510 C 0.42248 0.83291 0.19356 0.0
C511 C 0.42575 0.87258 0.19326 0.0
C512 C 0.39043 0.80586 0.18556 0.0
C513 C 0.36059 0.81772 0.17718 0.0
C514 C 0.36449 0.85749 0.17621 0.0
C515 C 0.39676 0.8846 0.18411 0.0
H516 H 0.50639 0.11758 0.5397 0.0
H517 H 0.61007 0.14915 0.50899 0.0
H518 H 0.50578 0.18479 0.54283 0.0
H519 H 0.60978 0.2169 0.5125 0.0
H520 H 0.57526 0.33117 0.50654 0.0
H521 H 0.57728 0.26393 0.50163 0.0
H522 H 0.53923 0.24319 0.56122 0.0
H523 H 0.53724 0.30966 0.56609 0.0
C524 C 0.5292 0.13885 0.53367 0.0
C525 C 0.55838 0.1278 0.52419 0.0
C526 C 0.52893 0.17756 0.53555 0.0
C527 C 0.55788 0.20648 0.52806 0.0
C528 C 0.58687 0.19544 0.51831 0.0
C529 C 0.58715 0.15657 0.51642 0.0
C530 C 0.56748 0.31223 0.51859 0.0
C531 C 0.55544 0.32579 0.53658 0.0
C532 C 0.56869 0.2737 0.5158 0.0
C533 C 0.55795 0.24788 0.53094 0.0
C534 C 0.54676 0.26182 0.54903 0.0
C535 C 0.54556 0.30009 0.55181 0.0
H536 H 0.34593 0.60264 0.78001 0.0
H537 H 0.4492 0.65301 0.81378 0.0
H538 H 0.32073 0.65411 0.79328 0.0
H539 H 0.42421 0.70479 0.8269 0.0
H540 H 0.32539 0.69044 0.87348 0.0
H541 H 0.37453 0.68498 0.85183 0.0
H542 H 0.31842 0.72255 0.80306 0.0
H543 H 0.2695 0.73036 0.82523 0.0
C544 C 0.36383 0.6256 0.7896 0.0
C545 C 0.39901 0.62301 0.79644 0.0
C546 C 0.34956 0.65542 0.79707 0.0
C547 C 0.37022 0.68294 0.81156 0.0
C548 C 0.40751 0.68364 0.81597 0.0
C549 C 0.42183 0.65393 0.80841 0.0
C550 C 0.32419 0.6998 0.85853 0.0
C551 C 0.29238 0.70926 0.85097 0.0
C552 C 0.35268 0.69658 0.84598 0.0
C553 C 0.34976 0.70225 0.82557 0.0
C554 C 0.32094 0.71725 0.81866 0.0
C555 C 0.29274 0.72129 0.83136 0.0
H556 H 0.91765 0.23766 0.19283 0.0
H557 H 0.86041 0.3208 0.17485 0.0
H558 H 0.85805 0.19353 0.20003 0.0
H559 H 0.80069 0.27667 0.18241 0.0
H560 H 0.70908 0.20355 0.22132 0.0
H561 H 0.76677 0.24831 0.21155 0.0
H562 H 0.80027 0.15353 0.18285 0.0
H563 H 0.74293 0.10866 0.193 0.0
C564 C 0.89236 0.24645 0.19022 0.0
C565 C 0.89399 0.28286 0.18315 0.0
C566 C 0.85813 0.22108 0.19436 0.0
C567 C 0.82455 0.23144 0.19169 0.0
C568 C 0.82608 0.26792 0.18479 0.0
C569 C 0.86036 0.29328 0.18052 0.0
C570 C 0.72872 0.19229 0.21287 0.0
C571 C 0.72148 0.15249 0.20804 0.0
C572 C 0.76165 0.21799 0.20713 0.0
C573 C 0.78827 0.20449 0.19653 0.0
C574 C 0.78056 0.16481 0.19123 0.0
C575 C 0.74751 0.13914 0.19685 0.0
H576 H 0.06713 0.53809 0.09918 0.0
H577 H 0.12945 0.45351 0.09089 0.0
H578 H 0.08485 0.56135 0.0664 0.0
H579 H 0.14792 0.47721 0.05837 0.0
H580 H 0.12586 0.49257 0.99222 0.0
H581 H 0.1168 0.47437 0.02637 0.0
H582 H 0.13654 0.59418 0.0464 0.0
H583 H 0.14428 0.6123 0.01189 0.0
C584 C 0.08492 0.52476 0.0904 0.0
C585 C 0.09662 0.49377 0.09742 0.0
C586 C 0.09533 0.53826 0.07171 0.0
C587 C 0.11767 0.52101 0.05972 0.0
C588 C 0.1302 0.49071 0.06709 0.0
C589 C 0.11971 0.47718 0.08572 0.0
C590 C 0.12835 0.51506 0.00392 0.0
C591 C 0.13539 0.55383 -0.00064 0.0
C592 C 0.12356 0.50467 0.02353 0.0
C593 C 0.12583 0.53281 0.03913 0.0
C594 C 0.13418 0.57179 0.03468 0.0
C595 C 0.13902 0.58221 0.01497 0.0
H596 H 0.50148 0.0421 0.45534 0.0
H597 H 0.58514 0.97965 0.4605 0.0
H598 H 0.51036 0.04469 0.41962 0.0
H599 H 0.59369 0.98164 0.42456 0.0
H600 H 0.62188 0.0245 0.3619 0.0
H601 H 0.61657 0.0256 0.39808 0.0
H602 H 0.49643 0.99959 0.39058 0.0
H603 H 0.50181 0.99979 0.35461 0.0
C604 C 0.52179 0.02892 0.44881 0.0
C605 C 0.54242 0.01042 0.46064 0.0
C606 C 0.52675 0.03022 0.42833 0.0
C607 C 0.55247 0.01305 0.41919 0.0
C608 C 0.57382 0.99536 0.43115 0.0
C609 C 0.56882 0.99403 0.45169 0.0
C610 C 0.59438 0.01937 0.36801 0.0
C611 C 0.56226 0.01202 0.35536 0.0
C612 C 0.59132 0.01961 0.38872 0.0
C613 C 0.55609 0.01275 0.39722 0.0
C614 C 0.52403 0.00546 0.38454 0.0
C615 C 0.52708 0.00511 0.3639 0.0
H616 H 0.52239 0.50719 0.78633 0.0
H617 H 0.63916 0.51178 0.78282 0.0
H618 H 0.51653 0.50552 0.75003 0.0
H619 H 0.63387 0.51114 0.74658 0.0
H620 H 0.60228 0.4699 0.68174 0.0
H621 H 0.60544 0.46829 0.71789 0.0
H622 H 0.53733 0.54816 0.72301 0.0
H623 H 0.5331 0.54877 0.68676 0.0
C624 C 0.54663 0.50742 0.77777 0.0
C625 C 0.58098 0.50907 0.78734 0.0
C626 C 0.54348 0.50696 0.757 0.0
C627 C 0.57473 0.50811 0.7454 0.0
C628 C 0.60913 0.50965 0.75505 0.0
C629 C 0.61222 0.51023 0.7758 0.0
C630 C 0.58762 0.48678 0.69056 0.0
C631 C 0.5674 0.50943 0.68137 0.0
C632 C 0.58977 0.48618 0.71129 0.0
C633 C 0.57171 0.50816 0.72333 0.0
C634 C 0.55126 0.53061 0.71415 0.0
C635 C 0.54919 0.5313 0.6934 0.0
H636 H 0.54372 0.04143 0.57666 0.0
H637 H 0.60537 0.95563 0.57649 0.0
H638 H 0.53504 0.0358 0.61236 0.0
H639 H 0.59535 0.94851 0.61187 0.0
H640 H 0.61109 0.97933 0.6786 0.0
H641 H 0.61635 0.98177 0.64267 0.0
H642 H 0.50495 0.99689 0.63752 0.0
H643 H 0.50046 0.99578 0.67364 0.0
C644 C 0.55498 0.02102 0.58425 0.0
C645 C 0.57555 0.99927 0.57393 0.0
C646 C 0.54983 0.01756 0.60468 0.0
C647 C 0.56474 0.99187 0.61513 0.0
C648 C 0.58424 0.96925 0.6045 0.0
C649 C 0.58979 0.97311 0.58418 0.0
C650 C 0.58762 0.98277 0.66973 0.0
C651 C 0.55539 0.98736 0.67889 0.0
C652 C 0.59053 0.98407 0.6491 0.0
C653 C 0.56105 0.98949 0.63708 0.0
C654 C 0.52848 0.99336 0.64628 0.0
C655 C 0.52579 0.99253 0.66696 0.0
H656 H 0.47355 0.44297 0.90067 0.0
H657 H 0.57587 0.53352 0.89751 0.0
H658 H 0.48389 0.4433 0.93673 0.0
H659 H 0.58661 0.53323 0.93357 0.0
H660 H 0.60723 0.48533 0.99523 0.0
H661 H 0.59871 0.48538 0.95915 0.0
H662 H 0.48588 0.49341 0.96616 0.0
H663 H 0.49464 0.49528 0.00221 0.0
C664 C 0.49836 0.46274 0.90767 0.0
C665 C 0.52391 0.48821 0.89631 0.0
C666 C 0.50419 0.46302 0.9283 0.0
C667 C 0.53601 0.48833 0.93793 0.0
C668 C 0.56198 0.51326 0.9265 0.0
C669 C 0.5558 0.51345 0.9059 0.0
C670 C 0.58076 0.48775 0.98919 0.0
C671 C 0.55162 0.4902 0.00182 0.0
C672 C 0.57588 0.48756 0.96848 0.0
C673 C 0.54158 0.48918 0.95988 0.0
C674 C 0.51245 0.49158 0.97239 0.0
C675 C 0.51748 0.49241 0.99308 0.0
H676 H 1.05868 0.46619 0.20599 0.0
H677 H 0.12852 0.58167 0.21925 0.0
H678 H 1.05322 0.45682 0.24175 0.0
H679 H 0.12392 0.57233 0.25469 0.0
H680 H 0.07168 0.56328 0.31443 0.0
H681 H 0.07634 0.56764 0.27862 0.0
H682 H 0.08738 0.45138 0.27275 0.0
H683 H 0.08218 0.4469 0.30882 0.0
C684 C 0.07338 0.48921 0.21654 0.0
C685 C 0.09394 0.52461 0.20992 0.0
C686 C 0.07027 0.48394 0.237 0.0
C687 C 0.08774 0.51403 0.25109 0.0
C688 C 0.10935 0.54888 0.24428 0.0
C689 C 0.11222 0.55416 0.22396 0.0
C690 C 0.0753 0.53871 0.30553 0.0
C691 C 0.07701 0.50493 0.31447 0.0
C692 C 0.07803 0.54119 0.28499 0.0
C693 C 0.0828 0.51004 0.27282 0.0
C694 C 0.08355 0.47582 0.28168 0.0
C695 C 0.08062 0.47327 0.30232 0.0
loop_
_geom_bond_atom_site_label_1
_geom_bond_atom_site_label_2
_geom_bond_distance
_geom_bond_site_symmetry_2
_ccdc_geom_bond_type
Nd0 C2 2.836 . S
Nd0 O20 2.500 . S
Nd0 O21 2.492 . S
Nd0 O22 2.487 . S
Nd0 O23 2.682 . S
Nd0 O24 2.410 . S
Nd0 O29 2.414 . S
Nd0 O31 2.424 1_455 S
Nd1 C11 2.860 . S
Nd1 O23 2.417 1_655 S
Nd1 O25 2.393 1_655 S
Nd1 O26 2.522 . S
Nd1 O27 2.512 . S
Nd1 O28 2.488 1_655 S
Nd1 O29 2.678 1_655 S
Nd1 O30 2.439 . S
C2 Nd0 2.836 . S
C2 C3 1.498 . S
C2 O20 1.258 . S
C2 O21 1.239 . S
C3 C2 1.498 . S
C3 C4 1.366 . S
C3 C8 1.407 . S
C4 C3 1.366 . S
C4 C5 1.392 . S
C4 H32 0.930 . S
C5 C4 1.392 . S
C5 C6 1.398 . S
C5 H33 0.929 . S
C6 C5 1.398 . S
C6 C7 1.352 . S
C7 C6 1.352 . S
C7 C8 1.384 . S
C7 H34 0.930 . S
C8 C3 1.407 . S
C8 C7 1.384 . S
C8 H35 0.929 . S
C9 O22 1.241 . S
C9 O23 1.273 . S
C10 O24 1.251 . S
C10 O25 1.268 . S
C11 Nd1 2.860 . S
C11 C12 1.498 . S
C11 O26 1.258 . S
C11 O27 1.239 . S
C12 C11 1.498 . S
C12 C13 1.366 . S
C12 C17 1.407 . S
C13 C12 1.366 . S
C13 C14 1.392 . S
C13 H36 0.930 . S
C14 C13 1.392 . S
C14 C15 1.398 . S
C14 H37 0.929 . S
C15 C14 1.398 . S
C15 C16 1.352 . S
C16 C15 1.352 . S
C16 C17 1.384 . S
C16 H38 0.930 . S
C17 C12 1.407 . S
C17 C16 1.384 . S
C17 H39 0.929 . S
C18 O28 1.241 . S
C18 O29 1.273 . S
C19 O30 1.251 . S
C19 O31 1.268 . S
O20 Nd0 2.500 . S
O20 C2 1.258 . S
O21 Nd0 2.492 . S
O21 C2 1.239 . S
O22 Nd0 2.487 . S
O22 C9 1.241 . S
O23 Nd0 2.682 . S
O23 Nd1 2.417 1_455 S
O23 C9 1.273 . S
O24 Nd0 2.410 . S
O24 C10 1.251 . S
O25 Nd1 2.393 1_455 S
O25 C10 1.268 . S
O26 Nd1 2.522 . S
O26 C11 1.258 . S
O27 Nd1 2.512 . S
O27 C11 1.239 . S
O28 Nd1 2.488 1_455 S
O28 C18 1.241 . S
O29 Nd0 2.414 . S
O29 Nd1 2.678 1_455 S
O29 C18 1.273 . S
O30 Nd1 2.439 . S
O30 C19 1.251 . S
O31 Nd0 2.424 1_655 S
O31 C19 1.268 . S
H32 C4 0.930 . S
H33 C5 0.929 . S
H34 C7 0.930 . S
H35 C8 0.929 . S
H36 C13 0.930 . S
H37 C14 0.929 . S
H38 C16 0.930 . S
H39 C17 0.929 . S
Nd40 C42 2.817 1_545 S
Nd40 O60 2.481 1_545 S
Nd40 O61 2.476 1_545 S
Nd40 O62 2.487 . S
Nd40 O63 2.684 . S
Nd40 O64 2.383 1_545 S
Nd40 O69 2.410 . S
Nd40 O71 2.451 . S
Nd41 C51 2.836 . S
Nd41 O63 2.414 . S
Nd41 O65 2.424 1_545 S
Nd41 O66 2.500 . S
Nd41 O67 2.492 . S
Nd41 O68 2.487 . S
Nd41 O69 2.682 . S
Nd41 O70 2.410 . S
C42 Nd40 2.817 1_565 S
C42 C43 1.498 . S
C42 O60 1.258 . S
C42 O61 1.239 . S
C43 C42 1.498 . S
C43 C44 1.366 . S
C43 C48 1.407 . S
C44 C43 1.366 . S
C44 C45 1.392 . S
C44 H72 0.930 . S
C45 C44 1.392 . S
C45 C46 1.398 . S
C45 H73 0.929 . S
C46 C45 1.398 . S
C46 C47 1.352 . S
C47 C46 1.352 . S
C47 C48 1.384 . S
C47 H74 0.930 . S
C48 C43 1.407 . S
C48 C47 1.384 . S
C48 H75 0.929 . S
C49 O62 1.241 . S
C49 O63 1.273 . S
C50 O64 1.251 . S
C50 O65 1.268 . S
C51 Nd41 2.836 . S
C51 C52 1.498 . S
C51 O66 1.258 . S
C51 O67 1.239 . S
C52 C51 1.498 . S
C52 C53 1.366 . S
C52 C57 1.407 . S
C53 C52 1.366 . S
C53 C54 1.392 . S
C53 H76 0.930 . S
C54 C53 1.392 . S
C54 C55 1.398 . S
C54 H77 0.929 . S
C55 C54 1.398 . S
C55 C56 1.352 . S
C56 C55 1.352 . S
C56 C57 1.384 . S
C56 H78 0.930 . S
C57 C52 1.407 . S
C57 C56 1.384 . S
C57 H79 0.929 . S
C58 O68 1.241 . S
C58 O69 1.273 . S
C59 O70 1.251 . S
C59 O71 1.268 . S
O60 Nd40 2.481 1_565 S
O60 C42 1.258 . S
O61 Nd40 2.476 1_565 S
O61 C42 1.239 . S
O62 Nd40 2.487 . S
O62 C49 1.241 . S
O63 Nd40 2.684 . S
O63 Nd41 2.414 . S
O63 C49 1.273 . S
O64 Nd40 2.383 1_565 S
O64 C50 1.251 . S
O65 Nd41 2.424 1_565 S
O65 C50 1.268 . S
O66 Nd41 2.500 . S
O66 C51 1.258 . S
O67 Nd41 2.492 . S
O67 C51 1.239 . S
O68 Nd41 2.487 . S
O68 C58 1.241 . S
O69 Nd40 2.410 . S
O69 Nd41 2.682 . S
O69 C58 1.273 . S
O70 Nd41 2.410 . S
O70 C59 1.251 . S
O71 Nd40 2.451 . S
O71 C59 1.268 . S
H72 C44 0.930 . S
H73 C45 0.929 . S
H74 C47 0.930 . S
H75 C48 0.929 . S
H76 C53 0.930 . S
H77 C54 0.929 . S
H78 C56 0.930 . S
H79 C57 0.929 . S
Nd80 C82 2.836 . S
Nd80 O100 2.500 . S
Nd80 O101 2.492 . S
Nd80 O102 2.487 . S
Nd80 O103 2.682 . S
Nd80 O104 2.410 . S
Nd80 O109 2.414 . S
Nd80 O111 2.424 . S
Nd81 C91 2.836 . S
Nd81 O103 2.414 . S
Nd81 O105 2.424 . S
Nd81 O106 2.500 . S
Nd81 O107 2.492 . S
Nd81 O108 2.487 . S
Nd81 O109 2.682 . S
Nd81 O110 2.410 . S
C82 Nd80 2.836 . S
C82 C83 1.498 . S
C82 O100 1.258 . S
C82 O101 1.239 . S
C83 C82 1.498 . S
C83 C84 1.366 . S
C83 C88 1.407 . S
C84 C83 1.366 . S
C84 C85 1.392 . S
C84 H112 0.930 . S
C85 C84 1.392 . S
C85 C86 1.398 . S
C85 H113 0.929 . S
C86 C85 1.398 . S
C86 C87 1.352 . S
C87 C86 1.352 . S
C87 C88 1.384 . S
C87 H114 0.930 . S
C88 C83 1.407 . S
C88 C87 1.384 . S
C88 H115 0.929 . S
C89 O102 1.241 . S
C89 O103 1.273 . S
C90 O104 1.251 . S
C90 O105 1.268 . S
C91 Nd81 2.836 . S
C91 C92 1.498 . S
C91 O106 1.258 . S
C91 O107 1.239 . S
C92 C91 1.498 . S
C92 C93 1.366 . S
C92 C97 1.407 . S
C93 C92 1.366 . S
C93 C94 1.392 . S
C93 H116 0.930 . S
C94 C93 1.392 . S
C94 C95 1.398 . S
C94 H117 0.929 . S
C95 C94 1.398 . S
C95 C96 1.352 . S
C96 C95 1.352 . S
C96 C97 1.384 . S
C96 H118 0.930 . S
C97 C92 1.407 . S
C97 C96 1.384 . S
C97 H119 0.929 . S
C98 O108 1.241 . S
C98 O109 1.273 . S
C99 O110 1.251 . S
C99 O111 1.268 . S
O100 Nd80 2.500 . S
O100 C82 1.258 . S
O101 Nd80 2.492 . S
O101 C82 1.239 . S
O102 Nd80 2.487 . S
O102 C89 1.241 . S
O103 Nd80 2.682 . S
O103 Nd81 2.414 . S
O103 C89 1.273 . S
O104 Nd80 2.410 . S
O104 C90 1.251 . S
O105 Nd81 2.424 . S
O105 C90 1.268 . S
O106 Nd81 2.500 . S
O106 C91 1.258 . S
O107 Nd81 2.492 . S
O107 C91 1.239 . S
O108 Nd81 2.487 . S
O108 C98 1.241 . S
O109 Nd80 2.414 . S
O109 Nd81 2.682 . S
O109 C98 1.273 . S
O110 Nd81 2.410 . S
O110 C99 1.251 . S
O111 Nd80 2.424 . S
O111 C99 1.268 . S
H112 C84 0.930 . S
H113 C85 0.929 . S
H114 C87 0.930 . S
H115 C88 0.929 . S
H116 C93 0.930 . S
H117 C94 0.929 . S
H118 C96 0.930 . S
H119 C97 0.929 . S
C120 C121 1.384 . S
C120 H133 0.947 . S
C120 C155 1.382 . S
C121 C120 1.384 . S
C121 C122 1.378 . S
C122 C121 1.378 . S
C122 C123 1.378 . S
C122 H134 0.952 . S
C123 C122 1.378 . S
C123 H135 0.950 . S
C123 C154 1.383 . S
H124 C143 0.947 . S
H125 C144 0.946 . S
H126 C146 0.953 . S
H127 C147 0.945 . S
H128 C149 0.952 . S
H129 C150 0.949 . S
H130 C152 0.936 1_565 S
H131 C153 0.948 . S
H132 C155 0.951 . S
H133 C120 0.947 . S
H134 C122 0.952 . S
H135 C123 0.950 . S
N136 C139 1.382 . S
N136 C141 1.363 1_545 S
N137 C139 1.371 . S
N137 C140 1.372 . S
N138 C140 1.361 1_565 S
N138 C141 1.377 . S
C139 N136 1.382 . S
C139 N137 1.371 . S
C139 C142 1.480 . S
C140 N137 1.372 . S
C140 N138 1.361 1_545 S
C140 C148 1.457 . S
C141 N136 1.363 1_565 S
C141 N138 1.377 . S
C141 C154 1.479 . S
C142 C139 1.480 . S
C142 C143 1.383 . S
C142 C147 1.385 . S
C143 H124 0.947 . S
C143 C142 1.383 . S
C143 C144 1.388 . S
C144 H125 0.946 . S
C144 C143 1.388 . S
C144 C145 1.384 . S
C145 C144 1.384 . S
C145 C146 1.377 . S
C146 H126 0.953 . S
C146 C145 1.377 . S
C146 C147 1.369 . S
C147 H127 0.945 . S
C147 C142 1.385 . S
C147 C146 1.369 . S
C148 C140 1.457 . S
C148 C149 1.372 . S
C148 C153 1.364 1_545 S
C149 H128 0.952 . S
C149 C148 1.372 . S
C149 C150 1.389 . S
C150 H129 0.949 . S
C150 C149 1.389 . S
C150 C151 1.387 . S
C151 C150 1.387 . S
C151 C152 1.388 . S
C152 H130 0.936 1_545 S
C152 C151 1.388 . S
C152 C153 1.377 1_545 S
C153 H131 0.948 . S
C153 C148 1.364 1_565 S
C153 C152 1.377 1_565 S
C154 C123 1.383 . S
C154 C141 1.479 . S
C154 C155 1.398 . S
C155 C120 1.382 . S
C155 H132 0.951 . S
C155 C154 1.398 . S
C156 C157 1.384 . S
C156 H169 0.947 . S
C156 C191 1.382 . S
C157 C156 1.384 . S
C157 C158 1.378 . S
C158 C157 1.378 . S
C158 C159 1.378 . S
C158 H170 0.952 . S
C159 C158 1.378 . S
C159 H171 0.950 . S
C159 C190 1.383 . S
H160 C179 0.947 . S
H161 C180 0.946 . S
H162 C182 0.953 . S
H163 C183 0.945 . S
H164 C185 0.952 . S
H165 C186 0.949 . S
H166 C188 0.950 . S
H167 C189 0.948 . S
H168 C191 0.951 . S
H169 C156 0.947 . S
H170 C158 0.952 . S
H171 C159 0.950 . S
N172 C175 1.382 . S
N172 C177 1.363 . S
N173 C175 1.371 . S
N173 C176 1.372 . S
N174 C176 1.361 . S
N174 C177 1.377 . S
C175 N172 1.382 . S
C175 N173 1.371 . S
C175 C178 1.480 . S
C176 N173 1.372 . S
C176 N174 1.361 . S
C176 C184 1.457 . S
C177 N172 1.363 . S
C177 N174 1.377 . S
C177 C190 1.479 . S
C178 C175 1.480 . S
C178 C179 1.383 . S
C178 C183 1.385 . S
C179 H160 0.947 . S
C179 C178 1.383 . S
C179 C180 1.388 . S
C180 H161 0.946 . S
C180 C179 1.388 . S
C180 C181 1.384 . S
C181 C180 1.384 . S
C181 C182 1.377 . S
C182 H162 0.953 . S
C182 C181 1.377 . S
C182 C183 1.369 . S
C183 H163 0.945 . S
C183 C178 1.385 . S
C183 C182 1.369 . S
C184 C176 1.457 . S
C184 C185 1.372 . S
C184 C189 1.364 . S
C185 H164 0.952 . S
C185 C184 1.372 . S
C185 C186 1.389 . S
C186 H165 0.949 . S
C186 C185 1.389 . S
C186 C187 1.387 . S
C187 C186 1.387 . S
C187 C188 1.372 . S
C188 H166 0.950 . S
C188 C187 1.372 . S
C188 C189 1.379 . S
C189 H167 0.948 . S
C189 C184 1.364 . S
C189 C188 1.379 . S
C190 C159 1.383 . S
C190 C177 1.479 . S
C190 C191 1.398 . S
C191 C156 1.382 . S
C191 H168 0.951 . S
C191 C190 1.398 . S
C192 C193 1.384 . S
C192 H205 0.947 . S
C192 C227 1.382 . S
C193 C192 1.384 . S
C193 C194 1.378 . S
C194 C193 1.378 . S
C194 C195 1.378 . S
C194 H206 0.952 . S
C195 C194 1.378 . S
C195 H207 0.950 . S
C195 C226 1.383 . S
H196 C215 0.947 . S
H197 C216 0.946 . S
H198 C218 0.953 . S
H199 C219 0.945 . S
H200 C221 0.952 . S
H201 C222 0.949 . S
H202 C224 0.933 1_655 S
H203 C225 0.952 . S
H204 C227 0.951 . S
H205 C192 0.947 . S
H206 C194 0.952 . S
H207 C195 0.950 . S
N208 C211 1.382 . S
N208 C213 1.363 . S
N209 C211 1.371 . S
N209 C212 1.372 . S
N210 C212 1.361 . S
N210 C213 1.377 . S
C211 N208 1.382 . S
C211 N209 1.371 . S
C211 C214 1.480 . S
C212 N209 1.372 . S
C212 N210 1.361 . S
C212 C220 1.457 . S
C213 N208 1.363 . S
C213 N210 1.377 . S
C213 C226 1.479 1_455 S
C214 C211 1.480 . S
C214 C215 1.383 . S
C214 C219 1.385 . S
C215 H196 0.947 . S
C215 C214 1.383 . S
C215 C216 1.388 . S
C216 H197 0.946 . S
C216 C215 1.388 . S
C216 C217 1.384 . S
C217 C216 1.384 . S
C217 C218 1.377 . S
C218 H198 0.953 . S
C218 C217 1.377 . S
C218 C219 1.369 . S
C219 H199 0.945 . S
C219 C214 1.385 . S
C219 C218 1.369 . S
C220 C212 1.457 . S
C220 C221 1.372 . S
C220 C225 1.360 1_455 S
C221 H200 0.952 . S
C221 C220 1.372 . S
C221 C222 1.389 . S
C222 H201 0.949 . S
C222 C221 1.389 . S
C222 C223 1.387 . S
C223 C222 1.387 . S
C223 C224 1.389 . S
C224 H202 0.933 1_455 S
C224 C223 1.389 . S
C224 C225 1.379 1_455 S
C225 H203 0.952 . S
C225 C220 1.360 1_655 S
C225 C224 1.379 1_655 S
C226 C195 1.383 . S
C226 C213 1.479 1_655 S
C226 C227 1.398 . S
C227 C192 1.382 . S
C227 H204 0.951 . S
C227 C226 1.398 . S
C228 C229 1.384 . S
C228 H241 0.947 . S
C228 C263 1.382 . S
C229 C228 1.384 . S
C229 C230 1.378 . S
C230 C229 1.378 . S
C230 C231 1.378 . S
C230 H242 0.952 . S
C231 C230 1.378 . S
C231 H243 0.950 . S
C231 C262 1.383 . S
H232 C251 0.947 . S
H233 C252 0.946 . S
H234 C254 0.953 . S
H235 C255 0.945 . S
H236 C257 0.952 . S
H237 C258 0.949 . S
H238 C260 0.950 . S
H239 C261 0.948 . S
H240 C263 0.951 . S
H241 C228 0.947 . S
H242 C230 0.952 . S
H243 C231 0.950 . S
N244 C247 1.382 1_455 S
N244 C249 1.363 . S
N245 C247 1.371 . S
N245 C248 1.372 1_655 S
N246 C248 1.361 . S
N246 C249 1.377 . S
C247 N244 1.382 1_655 S
C247 N245 1.371 . S
C247 C250 1.480 . S
C248 N245 1.372 1_455 S
C248 N246 1.361 . S
C248 C256 1.457 . S
C249 N244 1.363 . S
C249 N246 1.377 . S
C249 C262 1.479 . S
C250 C247 1.480 . S
C250 C251 1.383 . S
C250 C255 1.385 . S
C251 H232 0.947 . S
C251 C250 1.383 . S
C251 C252 1.388 . S
C252 H233 0.946 . S
C252 C251 1.388 . S
C252 C253 1.384 . S
C253 C252 1.384 . S
C253 C254 1.377 . S
C254 H234 0.953 . S
C254 C253 1.377 . S
C254 C255 1.369 . S
C255 H235 0.945 . S
C255 C250 1.385 . S
C255 C254 1.369 . S
C256 C248 1.457 . S
C256 C257 1.372 1_455 S
C256 C261 1.364 . S
C257 H236 0.952 . S
C257 C256 1.372 1_655 S
C257 C258 1.389 . S
C258 H237 0.949 . S
C258 C257 1.389 . S
C258 C259 1.387 1_655 S
C259 C258 1.387 1_455 S
C259 C260 1.372 . S
C260 H238 0.950 . S
C260 C259 1.372 . S
C260 C261 1.379 . S
C261 H239 0.948 . S
C261 C256 1.364 . S
C261 C260 1.379 . S
C262 C231 1.383 . S
C262 C249 1.479 . S
C262 C263 1.398 . S
C263 C228 1.382 . S
C263 H240 0.951 . S
C263 C262 1.398 . S
C264 C265 1.384 . S
C264 H277 0.947 . S
C264 C299 1.382 . S
C265 C264 1.384 . S
C265 C266 1.378 . S
C266 C265 1.378 . S
C266 C267 1.378 . S
C266 H278 0.952 . S
C267 C266 1.378 . S
C267 H279 0.950 . S
C267 C298 1.383 . S
H268 C287 0.947 . S
H269 C288 0.946 . S
H270 C290 0.953 . S
H271 C291 0.945 . S
H272 C293 0.952 . S
H273 C294 0.949 . S
H274 C296 0.950 . S
H275 C297 0.948 . S
H276 C299 0.951 . S
H277 C264 0.947 . S
H278 C266 0.952 . S
H279 C267 0.950 . S
N280 C283 1.382 1_545 S
N280 C285 1.363 . S
N281 C283 1.371 . S
N281 C284 1.372 1_565 S
N282 C284 1.361 . S
N282 C285 1.377 . S
C283 N280 1.382 1_565 S
C283 N281 1.371 . S
C283 C286 1.480 . S
C284 N281 1.372 1_545 S
C284 N282 1.361 . S
C284 C292 1.457 . S
C285 N280 1.363 . S
C285 N282 1.377 . S
C285 C298 1.479 . S
C286 C283 1.480 . S
C286 C287 1.383 . S
C286 C291 1.385 . S
C287 H268 0.947 . S
C287 C286 1.383 . S
C287 C288 1.388 . S
C288 H269 0.946 . S
C288 C287 1.388 . S
C288 C289 1.384 . S
C289 C288 1.384 . S
C289 C290 1.377 . S
C290 H270 0.953 . S
C290 C289 1.377 . S
C290 C291 1.369 . S
C291 H271 0.945 . S
C291 C286 1.385 . S
C291 C290 1.369 . S
C292 C284 1.457 . S
C292 C293 1.372 1_545 S
C292 C297 1.364 . S
C293 H272 0.952 . S
C293 C292 1.372 1_565 S
C293 C294 1.389 . S
C294 H273 0.949 . S
C294 C293 1.389 . S
C294 C295 1.387 1_565 S
C295 C294 1.387 1_545 S
C295 C296 1.372 . S
C296 H274 0.950 . S
C296 C295 1.372 . S
C296 C297 1.379 . S
C297 H275 0.948 . S
C297 C292 1.364 . S
C297 C296 1.379 . S
C298 C267 1.383 . S
C298 C285 1.479 . S
C298 C299 1.398 . S
C299 C264 1.382 . S
C299 H276 0.951 . S
C299 C298 1.398 . S
C300 C301 1.384 . S
C300 H313 0.947 . S
C300 C335 1.382 . S
C301 C300 1.384 . S
C301 C302 1.378 . S
C302 C301 1.378 . S
C302 C303 1.378 . S
C302 H314 0.952 . S
C303 C302 1.378 . S
C303 H315 0.950 . S
C303 C334 1.383 . S
H304 C323 0.947 . S
H305 C324 0.946 . S
H306 C326 0.953 . S
H307 C327 0.945 . S
H308 C329 0.952 . S
H309 C330 0.949 . S
H310 C332 0.950 . S
H311 C333 0.948 . S
H312 C335 0.951 . S
H313 C300 0.947 . S
H314 C302 0.952 . S
H315 C303 0.950 . S
N316 C319 1.382 . S
N316 C321 1.363 . S
N317 C319 1.371 . S
N317 C320 1.372 . S
N318 C320 1.361 . S
N318 C321 1.377 . S
C319 N316 1.382 . S
C319 N317 1.371 . S
C319 C322 1.480 . S
C320 N317 1.372 . S
C320 N318 1.361 . S
C320 C328 1.457 . S
C321 N316 1.363 . S
C321 N318 1.377 . S
C321 C334 1.479 . S
C322 C319 1.480 . S
C322 C323 1.383 . S
C322 C327 1.385 . S
C323 H304 0.947 . S
C323 C322 1.383 . S
C323 C324 1.388 . S
C324 H305 0.946 . S
C324 C323 1.388 . S
C324 C325 1.384 . S
C325 C324 1.384 . S
C325 C326 1.377 . S
C326 H306 0.953 . S
C326 C325 1.377 . S
C326 C327 1.369 . S
C327 H307 0.945 . S
C327 C322 1.385 . S
C327 C326 1.369 . S
C328 C320 1.457 . S
C328 C329 1.372 . S
C328 C333 1.364 . S
C329 H308 0.952 . S
C329 C328 1.372 . S
C329 C330 1.389 . S
C330 H309 0.949 . S
C330 C329 1.389 . S
C330 C331 1.387 . S
C331 C330 1.387 . S
C331 C332 1.372 . S
C332 H310 0.950 . S
C332 C331 1.372 . S
C332 C333 1.379 . S
C333 H311 0.948 . S
C333 C328 1.364 . S
C333 C332 1.379 . S
C334 C303 1.383 . S
C334 C321 1.479 . S
C334 C335 1.398 . S
C335 C300 1.382 . S
C335 H312 0.951 . S
C335 C334 1.398 . S
H336 C344 0.950 . S
H337 C349 0.950 . S
H338 C346 0.950 . S
H339 C348 0.950 . S
H340 C350 0.950 . S
H341 C352 0.950 . S
H342 C354 0.950 . S
H343 C355 0.950 . S
C344 H336 0.950 . S
C344 C345 1.386 . S
C344 C346 1.391 . S
C345 C344 1.386 . S
C345 C349 1.393 . S
C346 H338 0.950 . S
C346 C344 1.391 . S
C346 C347 1.400 . S
C347 C346 1.400 . S
C347 C348 1.398 . S
C347 C353 1.491 . S
C348 H339 0.950 . S
C348 C347 1.398 . S
C348 C349 1.391 . S
C349 H337 0.950 . S
C349 C345 1.393 . S
C349 C348 1.391 . S
C350 H340 0.950 . S
C350 C351 1.386 . S
C350 C352 1.391 . S
C351 C350 1.386 . S
C351 C355 1.393 . S
C352 H341 0.950 . S
C352 C350 1.391 . S
C352 C353 1.400 . S
C353 C347 1.491 . S
C353 C352 1.400 . S
C353 C354 1.398 . S
C354 H342 0.950 . S
C354 C353 1.398 . S
C354 C355 1.391 . S
C355 H343 0.950 . S
C355 C351 1.393 . S
C355 C354 1.391 . S
H356 C364 0.950 . S
H357 C369 0.950 . S
H358 C366 0.950 . S
H359 C368 0.950 . S
H360 C370 0.950 . S
H361 C372 0.950 . S
H362 C374 0.950 . S
H363 C375 0.950 . S
C364 H356 0.950 . S
C364 C365 1.386 . S
C364 C366 1.391 . S
C365 C364 1.386 . S
C365 C369 1.393 . S
C366 H358 0.950 . S
C366 C364 1.391 . S
C366 C367 1.400 . S
C367 C366 1.400 . S
C367 C368 1.398 . S
C367 C373 1.491 . S
C368 H359 0.950 . S
C368 C367 1.398 . S
C368 C369 1.391 . S
C369 H357 0.950 . S
C369 C365 1.393 . S
C369 C368 1.391 . S
C370 H360 0.950 . S
C370 C371 1.386 . S
C370 C372 1.391 . S
C371 C370 1.386 . S
C371 C375 1.393 . S
C372 H361 0.950 . S
C372 C370 1.391 . S
C372 C373 1.400 . S
C373 C367 1.491 . S
C373 C372 1.400 . S
C373 C374 1.398 . S
C374 H362 0.950 . S
C374 C373 1.398 . S
C374 C375 1.391 . S
C375 H363 0.950 . S
C375 C371 1.393 . S
C375 C374 1.391 . S
H376 C384 0.950 . S
H377 C389 0.950 . S
H378 C386 0.950 . S
H379 C388 0.950 . S
H380 C390 0.950 . S
H381 C392 0.950 . S
H382 C394 0.950 . S
H383 C395 0.950 . S
C384 H376 0.950 . S
C384 C385 1.386 . S
C384 C386 1.391 . S
C385 C384 1.386 . S
C385 C389 1.393 . S
C386 H378 0.950 . S
C386 C384 1.391 . S
C386 C387 1.400 . S
C387 C386 1.400 . S
C387 C388 1.398 . S
C387 C393 1.491 . S
C388 H379 0.950 . S
C388 C387 1.398 . S
C388 C389 1.391 . S
C389 H377 0.950 . S
C389 C385 1.393 . S
C389 C388 1.391 . S
C390 H380 0.950 . S
C390 C391 1.386 . S
C390 C392 1.391 . S
C391 C390 1.386 . S
C391 C395 1.393 . S
C392 H381 0.950 . S
C392 C390 1.391 . S
C392 C393 1.400 . S
C393 C387 1.491 . S
C393 C392 1.400 . S
C393 C394 1.398 . S
C394 H382 0.950 . S
C394 C393 1.398 . S
C394 C395 1.391 . S
C395 H383 0.950 . S
C395 C391 1.393 . S
C395 C394 1.391 . S
H396 C404 0.950 . S
H397 C409 0.950 . S
H398 C406 0.950 . S
H399 C408 0.950 . S
H400 C410 0.950 . S
H401 C412 0.950 . S
H402 C414 0.950 . S
H403 C415 0.950 . S
C404 H396 0.950 . S
C404 C405 1.386 . S
C404 C406 1.391 . S
C405 C404 1.386 . S
C405 C409 1.393 . S
C406 H398 0.950 . S
C406 C404 1.391 . S
C406 C407 1.400 . S
C407 C406 1.400 . S
C407 C408 1.398 . S
C407 C413 1.491 . S
C408 H399 0.950 . S
C408 C407 1.398 . S
C408 C409 1.391 . S
C409 H397 0.950 . S
C409 C405 1.393 . S
C409 C408 1.391 . S
C410 H400 0.950 . S
C410 C411 1.386 . S
C410 C412 1.391 . S
C411 C410 1.386 . S
C411 C415 1.393 . S
C412 H401 0.950 . S
C412 C410 1.391 . S
C412 C413 1.400 . S
C413 C407 1.491 . S
C413 C412 1.400 . S
C413 C414 1.398 . S
C414 H402 0.950 . S
C414 C413 1.398 . S
C414 C415 1.391 . S
C415 H403 0.950 . S
C415 C411 1.393 . S
C415 C414 1.391 . S
H416 C424 0.950 . S
H417 C429 0.950 . S
H418 C426 0.950 . S
H419 C428 0.950 . S
H420 C430 0.950 . S
H421 C432 0.950 . S
H422 C434 0.950 . S
H423 C435 0.950 . S
C424 H416 0.950 . S
C424 C425 1.386 . S
C424 C426 1.391 . S
C425 C424 1.386 . S
C425 C429 1.393 . S
C426 H418 0.950 . S
C426 C424 1.391 . S
C426 C427 1.400 . S
C427 C426 1.400 . S
C427 C428 1.398 . S
C427 C433 1.491 . S
C428 H419 0.950 . S
C428 C427 1.398 . S
C428 C429 1.391 . S
C429 H417 0.950 . S
C429 C425 1.393 . S
C429 C428 1.391 . S
C430 H420 0.950 . S
C430 C431 1.386 . S
C430 C432 1.391 . S
C431 C430 1.386 . S
C431 C435 1.393 . S
C432 H421 0.950 . S
C432 C430 1.391 . S
C432 C433 1.400 . S
C433 C427 1.491 . S
C433 C432 1.400 . S
C433 C434 1.398 . S
C434 H422 0.950 . S
C434 C433 1.398 . S
C434 C435 1.391 . S
C435 H423 0.950 . S
C435 C431 1.393 . S
C435 C434 1.391 . S
H436 C444 0.950 . S
H437 C449 0.950 . S
H438 C446 0.950 . S
H439 C448 0.950 . S
H440 C450 0.950 . S
H441 C452 0.950 . S
H442 C454 0.950 . S
H443 C455 0.950 . S
C444 H436 0.950 . S
C444 C445 1.386 . S
C444 C446 1.391 . S
C445 C444 1.386 . S
C445 C449 1.393 . S
C446 H438 0.950 . S
C446 C444 1.391 . S
C446 C447 1.400 . S
C447 C446 1.400 . S
C447 C448 1.398 . S
C447 C453 1.491 . S
C448 H439 0.950 . S
C448 C447 1.398 . S
C448 C449 1.391 . S
C449 H437 0.950 . S
C449 C445 1.393 . S
C449 C448 1.391 . S
C450 H440 0.950 . S
C450 C451 1.386 . S
C450 C452 1.391 . S
C451 C450 1.386 . S
C451 C455 1.393 . S
C452 H441 0.950 . S
C452 C450 1.391 . S
C452 C453 1.400 . S
C453 C447 1.491 . S
C453 C452 1.400 . S
C453 C454 1.398 . S
C454 H442 0.950 . S
C454 C453 1.398 . S
C454 C455 1.391 . S
C455 H443 0.950 . S
C455 C451 1.393 . S
C455 C454 1.391 . S
H456 C464 0.950 . S
H457 C469 0.950 . S
H458 C466 0.950 . S
H459 C468 0.950 . S
H460 C470 0.950 . S
H461 C472 0.950 . S
H462 C474 0.950 . S
H463 C475 0.950 . S
C464 H456 0.950 . S
C464 C465 1.386 . S
C464 C466 1.391 . S
C465 C464 1.386 . S
C465 C469 1.393 . S
C466 H458 0.950 . S
C466 C464 1.391 . S
C466 C467 1.400 . S
C467 C466 1.400 . S
C467 C468 1.398 . S
C467 C473 1.491 . S
C468 H459 0.950 . S
C468 C467 1.398 . S
C468 C469 1.391 . S
C469 H457 0.950 . S
C469 C465 1.393 . S
C469 C468 1.391 . S
C470 H460 0.950 . S
C470 C471 1.386 . S
C470 C472 1.391 . S
C471 C470 1.386 . S
C471 C475 1.393 . S
C472 H461 0.950 . S
C472 C470 1.391 . S
C472 C473 1.400 . S
C473 C467 1.491 . S
C473 C472 1.400 . S
C473 C474 1.398 . S
C474 H462 0.950 . S
C474 C473 1.398 . S
C474 C475 1.391 . S
C475 H463 0.950 . S
C475 C471 1.393 . S
C475 C474 1.391 . S
H476 C484 0.950 . S
H477 C489 0.950 . S
H478 C486 0.950 . S
H479 C488 0.950 . S
H480 C490 0.950 . S
H481 C492 0.950 . S
H482 C494 0.950 . S
H483 C495 0.950 . S
C484 H476 0.950 . S
C484 C485 1.386 . S
C484 C486 1.391 . S
C485 C484 1.386 . S
C485 C489 1.393 . S
C486 H478 0.950 . S
C486 C484 1.391 . S
C486 C487 1.400 . S
C487 C486 1.400 . S
C487 C488 1.398 . S
C487 C493 1.491 . S
C488 H479 0.950 . S
C488 C487 1.398 . S
C488 C489 1.391 . S
C489 H477 0.950 . S
C489 C485 1.393 . S
C489 C488 1.391 . S
C490 H480 0.950 . S
C490 C491 1.386 . S
C490 C492 1.391 . S
C491 C490 1.386 . S
C491 C495 1.393 . S
C492 H481 0.950 . S
C492 C490 1.391 . S
C492 C493 1.400 . S
C493 C487 1.491 . S
C493 C492 1.400 . S
C493 C494 1.398 . S
C494 H482 0.950 . S
C494 C493 1.398 . S
C494 C495 1.391 . S
C495 H483 0.950 . S
C495 C491 1.393 . S
C495 C494 1.391 . S
H496 C504 0.950 . S
H497 C509 0.950 . S
H498 C506 0.950 . S
H499 C508 0.950 . S
H500 C510 0.950 . S
H501 C512 0.950 . S
H502 C514 0.950 . S
H503 C515 0.950 . S
C504 H496 0.950 . S
C504 C505 1.386 . S
C504 C506 1.391 . S
C505 C504 1.386 . S
C505 C509 1.393 . S
C506 H498 0.950 . S
C506 C504 1.391 . S
C506 C507 1.400 . S
C507 C506 1.400 . S
C507 C508 1.398 . S
C507 C513 1.491 . S
C508 H499 0.950 . S
C508 C507 1.398 . S
C508 C509 1.391 . S
C509 H497 0.950 . S
C509 C505 1.393 . S
C509 C508 1.391 . S
C510 H500 0.950 . S
C510 C511 1.386 . S
C510 C512 1.391 . S
C511 C510 1.386 . S
C511 C515 1.393 . S
C512 H501 0.950 . S
C512 C510 1.391 . S
C512 C513 1.400 . S
C513 C507 1.491 . S
C513 C512 1.400 . S
C513 C514 1.398 . S
C514 H502 0.950 . S
C514 C513 1.398 . S
C514 C515 1.391 . S
C515 H503 0.950 . S
C515 C511 1.393 . S
C515 C514 1.391 . S
H516 C524 0.950 . S
H517 C529 0.950 . S
H518 C526 0.950 . S
H519 C528 0.950 . S
H520 C530 0.950 . S
H521 C532 0.950 . S
H522 C534 0.950 . S
H523 C535 0.950 . S
C524 H516 0.950 . S
C524 C525 1.386 . S
C524 C526 1.391 . S
C525 C524 1.386 . S
C525 C529 1.393 . S
C526 H518 0.950 . S
C526 C524 1.391 . S
C526 C527 1.400 . S
C527 C526 1.400 . S
C527 C528 1.398 . S
C527 C533 1.491 . S
C528 H519 0.950 . S
C528 C527 1.398 . S
C528 C529 1.391 . S
C529 H517 0.950 . S
C529 C525 1.393 . S
C529 C528 1.391 . S
C530 H520 0.950 . S
C530 C531 1.386 . S
C530 C532 1.391 . S
C531 C530 1.386 . S
C531 C535 1.393 . S
C532 H521 0.950 . S
C532 C530 1.391 . S
C532 C533 1.400 . S
C533 C527 1.491 . S
C533 C532 1.400 . S
C533 C534 1.398 . S
C534 H522 0.950 . S
C534 C533 1.398 . S
C534 C535 1.391 . S
C535 H523 0.950 . S
C535 C531 1.393 . S
C535 C534 1.391 . S
H536 C544 0.950 . S
H537 C549 0.950 . S
H538 C546 0.950 . S
H539 C548 0.950 . S
H540 C550 0.950 . S
H541 C552 0.950 . S
H542 C554 0.950 . S
H543 C555 0.950 . S
C544 H536 0.950 . S
C544 C545 1.386 . S
C544 C546 1.391 . S
C545 C544 1.386 . S
C545 C549 1.393 . S
C546 H538 0.950 . S
C546 C544 1.391 . S
C546 C547 1.400 . S
C547 C546 1.400 . S
C547 C548 1.398 . S
C547 C553 1.491 . S
C548 H539 0.950 . S
C548 C547 1.398 . S
C548 C549 1.391 . S
C549 H537 0.950 . S
C549 C545 1.393 . S
C549 C548 1.391 . S
C550 H540 0.950 . S
C550 C551 1.386 . S
C550 C552 1.391 . S
C551 C550 1.386 . S
C551 C555 1.393 . S
C552 H541 0.950 . S
C552 C550 1.391 . S
C552 C553 1.400 . S
C553 C547 1.491 . S
C553 C552 1.400 . S
C553 C554 1.398 . S
C554 H542 0.950 . S
C554 C553 1.398 . S
C554 C555 1.391 . S
C555 H543 0.950 . S
C555 C551 1.393 . S
C555 C554 1.391 . S
H556 C564 0.950 . S
H557 C569 0.950 . S
H558 C566 0.950 . S
H559 C568 0.950 . S
H560 C570 0.950 . S
H561 C572 0.950 . S
H562 C574 0.950 . S
H563 C575 0.950 . S
C564 H556 0.950 . S
C564 C565 1.386 . S
C564 C566 1.391 . S
C565 C564 1.386 . S
C565 C569 1.393 . S
C566 H558 0.950 . S
C566 C564 1.391 . S
C566 C567 1.400 . S
C567 C566 1.400 . S
C567 C568 1.398 . S
C567 C573 1.491 . S
C568 H559 0.950 . S
C568 C567 1.398 . S
C568 C569 1.391 . S
C569 H557 0.950 . S
C569 C565 1.393 . S
C569 C568 1.391 . S
C570 H560 0.950 . S
C570 C571 1.386 . S
C570 C572 1.391 . S
C571 C570 1.386 . S
C571 C575 1.393 . S
C572 H561 0.950 . S
C572 C570 1.391 . S
C572 C573 1.400 . S
C573 C567 1.491 . S
C573 C572 1.400 . S
C573 C574 1.398 . S
C574 H562 0.950 . S
C574 C573 1.398 . S
C574 C575 1.391 . S
C575 H563 0.950 . S
C575 C571 1.393 . S
C575 C574 1.391 . S
H576 C584 0.950 . S
H577 C589 0.950 . S
H578 C586 0.950 . S
H579 C588 0.950 . S
H580 C590 0.950 . S
H581 C592 0.950 . S
H582 C594 0.950 . S
H583 C595 0.950 . S
C584 H576 0.950 . S
C584 C585 1.386 . S
C584 C586 1.391 . S
C585 C584 1.386 . S
C585 C589 1.393 . S
C586 H578 0.950 . S
C586 C584 1.391 . S
C586 C587 1.400 . S
C587 C586 1.400 . S
C587 C588 1.398 . S
C587 C593 1.491 . S
C588 H579 0.950 . S
C588 C587 1.398 . S
C588 C589 1.391 . S
C589 H577 0.950 . S
C589 C585 1.393 . S
C589 C588 1.391 . S
C590 H580 0.950 . S
C590 C591 1.386 . S
C590 C592 1.391 . S
C591 C590 1.386 . S
C591 C595 1.393 . S
C592 H581 0.950 . S
C592 C590 1.391 . S
C592 C593 1.400 . S
C593 C587 1.491 . S
C593 C592 1.400 . S
C593 C594 1.398 . S
C594 H582 0.950 . S
C594 C593 1.398 . S
C594 C595 1.391 . S
C595 H583 0.950 . S
C595 C591 1.393 . S
C595 C594 1.391 . S
H596 C604 0.950 . S
H597 C609 0.950 . S
H598 C606 0.950 . S
H599 C608 0.950 . S
H600 C610 0.950 . S
H601 C612 0.950 . S
H602 C614 0.950 . S
H603 C615 0.950 . S
C604 H596 0.950 . S
C604 C605 1.386 . S
C604 C606 1.391 . S
C605 C604 1.386 . S
C605 C609 1.393 . S
C606 H598 0.950 . S
C606 C604 1.391 . S
C606 C607 1.400 . S
C607 C606 1.400 . S
C607 C608 1.398 . S
C607 C613 1.491 . S
C608 H599 0.950 . S
C608 C607 1.398 . S
C608 C609 1.391 . S
C609 H597 0.950 . S
C609 C605 1.393 . S
C609 C608 1.391 . S
C610 H600 0.950 . S
C610 C611 1.386 . S
C610 C612 1.391 . S
C611 C610 1.386 . S
C611 C615 1.393 . S
C612 H601 0.950 . S
C612 C610 1.391 . S
C612 C613 1.400 . S
C613 C607 1.491 . S
C613 C612 1.400 . S
C613 C614 1.398 . S
C614 H602 0.950 . S
C614 C613 1.398 . S
C614 C615 1.391 . S
C615 H603 0.950 . S
C615 C611 1.393 . S
C615 C614 1.391 . S
H616 C624 0.950 . S
H617 C629 0.950 . S
H618 C626 0.950 . S
H619 C628 0.950 . S
H620 C630 0.950 . S
H621 C632 0.950 . S
H622 C634 0.950 . S
H623 C635 0.950 . S
C624 H616 0.950 . S
C624 C625 1.386 . S
C624 C626 1.391 . S
C625 C624 1.386 . S
C625 C629 1.393 . S
C626 H618 0.950 . S
C626 C624 1.391 . S
C626 C627 1.400 . S
C627 C626 1.400 . S
C627 C628 1.398 . S
C627 C633 1.491 . S
C628 H619 0.950 . S
C628 C627 1.398 . S
C628 C629 1.391 . S
C629 H617 0.950 . S
C629 C625 1.393 . S
C629 C628 1.391 . S
C630 H620 0.950 . S
C630 C631 1.386 . S
C630 C632 1.391 . S
C631 C630 1.386 . S
C631 C635 1.393 . S
C632 H621 0.950 . S
C632 C630 1.391 . S
C632 C633 1.400 . S
C633 C627 1.491 . S
C633 C632 1.400 . S
C633 C634 1.398 . S
C634 H622 0.950 . S
C634 C633 1.398 . S
C634 C635 1.391 . S
C635 H623 0.950 . S
C635 C631 1.393 . S
C635 C634 1.391 . S
H636 C644 0.950 . S
H637 C649 0.950 . S
H638 C646 0.950 . S
H639 C648 0.950 . S
H640 C650 0.950 . S
H641 C652 0.950 . S
H642 C654 0.950 . S
H643 C655 0.950 . S
C644 H636 0.950 . S
C644 C645 1.386 . S
C644 C646 1.391 . S
C645 C644 1.386 . S
C645 C649 1.393 1_545 S
C646 H638 0.950 . S
C646 C644 1.391 . S
C646 C647 1.400 . S
C647 C646 1.400 . S
C647 C648 1.398 1_545 S
C647 C653 1.491 . S
C648 H639 0.950 . S
C648 C647 1.398 1_565 S
C648 C649 1.391 . S
C649 H637 0.950 . S
C649 C645 1.393 1_565 S
C649 C648 1.391 . S
C650 H640 0.950 . S
C650 C651 1.386 1_565 S
C650 C652 1.391 . S
C651 C650 1.386 1_545 S
C651 C655 1.393 . S
C652 H641 0.950 . S
C652 C650 1.391 . S
C652 C653 1.400 1_565 S
C653 C647 1.491 . S
C653 C652 1.400 1_545 S
C653 C654 1.398 . S
C654 H642 0.950 . S
C654 C653 1.398 . S
C654 C655 1.391 . S
C655 H643 0.950 . S
C655 C651 1.393 . S
C655 C654 1.391 . S
H656 C664 0.950 . S
H657 C669 0.950 . S
H658 C666 0.950 . S
H659 C668 0.950 . S
H660 C670 0.950 . S
H661 C672 0.950 . S
H662 C674 0.950 . S
H663 C675 0.950 . S
C664 H656 0.950 . S
C664 C665 1.386 . S
C664 C666 1.391 . S
C665 C664 1.386 . S
C665 C669 1.393 . S
C666 H658 0.950 . S
C666 C664 1.391 . S
C666 C667 1.400 . S
C667 C666 1.400 . S
C667 C668 1.398 . S
C667 C673 1.491 . S
C668 H659 0.950 . S
C668 C667 1.398 . S
C668 C669 1.391 . S
C669 H657 0.950 . S
C669 C665 1.393 . S
C669 C668 1.391 . S
C670 H660 0.950 . S
C670 C671 1.386 . S
C670 C672 1.391 . S
C671 C670 1.386 . S
C671 C675 1.393 . S
C672 H661 0.950 . S
C672 C670 1.391 . S
C672 C673 1.400 . S
C673 C667 1.491 . S
C673 C672 1.400 . S
C673 C674 1.398 . S
C674 H662 0.950 . S
C674 C673 1.398 . S
C674 C675 1.391 . S
C675 H663 0.950 . S
C675 C671 1.393 . S
C675 C674 1.391 . S
H676 C684 0.950 . S
H677 C689 0.950 . S
H678 C686 0.950 . S
H679 C688 0.950 . S
H680 C690 0.950 . S
H681 C692 0.950 . S
H682 C694 0.950 . S
H683 C695 0.950 . S
C684 H676 0.950 . S
C684 C685 1.386 1_655 S
C684 C686 1.391 . S
C685 C684 1.386 1_455 S
C685 C689 1.393 . S
C686 H678 0.950 . S
C686 C684 1.391 . S
C686 C687 1.400 1_655 S
C687 C686 1.400 1_455 S
C687 C688 1.398 . S
C687 C693 1.491 . S
C688 H679 0.950 . S
C688 C687 1.398 . S
C688 C689 1.391 . S
C689 H677 0.950 . S
C689 C685 1.393 . S
C689 C688 1.391 . S
C690 H680 0.950 . S
C690 C691 1.387 . S
C690 C692 1.391 . S
C691 C690 1.387 . S
C691 C695 1.392 1_455 S
C692 H681 0.950 . S
C692 C690 1.391 . S
C692 C693 1.400 . S
C693 C687 1.491 . S
C693 C692 1.400 . S
C693 C694 1.398 1_455 S
C694 H682 0.950 . S
C694 C693 1.398 1_655 S
C694 C695 1.391 . S
C695 H683 0.950 . S
C695 C691 1.392 1_655 S
C695 C694 1.391 . S
C345 C10 3.116 . S
C351 C325 3.035 . S
C365 C55 1.209 . S
C371 C253 1.215 . S
C385 C90 1.903 . S
C391 C289 1.856 . S
C405 C19 2.991 . S
C411 C301 2.982 . S
C431 C229 1.307 . S
C425 C46 1.303 . S
C451 C265 2.050 . S
C445 C99 2.069 . S
C465 C50 1.915 . S
C471 C181 1.844 . S
C485 C95 0.577 . S
C491 C193 0.564 . S
C505 C6 1.316 . S
C511 C121 1.327 . S
C531 C157 2.006 . S
C525 C59 2.049 . S
C551 C217 0.346 . S
C545 C86 0.418 . S
C565 C15 1.247 . S
C571 C145 1.258 . S
C591 C223 1.102 1_554 S
C585 C18 1.101 . S
C605 C49 1.461 . S
C611 C151 1.482 . S
C625 C98 1.334 . S
C631 C187 1.364 . S
C651 C295 1.369 . S
C645 C58 1.349 . S
C671 C331 1.776 1_556 S
C665 C89 1.696 . S
C685 C9 1.453 . S
C691 C259 1.511 . S
