# Generated by pormake.
# Topology pyr, (3,6)-cn, num edge types: 1
# Building blocks:
#     Node 0, Type 0, BuildingBlock: MIDCAF_clean_linker_0, # of connection points: 3
#     Node 1, Type 0, BuildingBlock: MIDCAF_clean_linker_0, # of connection points: 3
#     Node 2, Type 0, BuildingBlock: MIDCAF_clean_linker_0, # of connection points: 3
#     Node 3, Type 0, BuildingBlock: MIDCAF_clean_linker_0, # of connection points: 3
#     Node 4, Type 0, BuildingBlock: MIDCAF_clean_linker_0, # of connection points: 3
#     Node 5, Type 0, BuildingBlock: MIDCAF_clean_linker_0, # of connection points: 3
#     Node 6, Type 0, BuildingBlock: MIDCAF_clean_linker_0, # of connection points: 3
#     Node 7, Type 0, BuildingBlock: MIDCAF_clean_linker_0, # of connection points: 3
#     Node 8, Type 1, BuildingBlock: GEDQOX_clean_sbu_0, # of connection points: 6
#     Node 9, Type 1, BuildingBlock: GEDQOX_clean_sbu_0, # of connection points: 6
#     Node 10, Type 1, BuildingBlock: GEDQOX_clean_sbu_0, # of connection points: 6
#     Node 11, Type 1, BuildingBlock: GEDQOX_clean_sbu_0, # of connection points: 6
#     Edge 12, Type (0, 1), BuildingBlock: KIFKEQ_clean_linker_1, # of connection points: 2
#     Edge 13, Type (0, 1), BuildingBlock: KIFKEQ_clean_linker_1, # of connection points: 2
#     Edge 14, Type (0, 1), BuildingBlock: KIFKEQ_clean_linker_1, # of connection points: 2
#     Edge 15, Type (0, 1), BuildingBlock: KIFKEQ_clean_linker_1, # of connection points: 2
#     Edge 16, Type (0, 1), BuildingBlock: KIFKEQ_clean_linker_1, # of connection points: 2
#     Edge 17, Type (0, 1), BuildingBlock: KIFKEQ_clean_linker_1, # of connection points: 2
#     Edge 18, Type (0, 1), BuildingBlock: KIFKEQ_clean_linker_1, # of connection points: 2
#     Edge 19, Type (0, 1), BuildingBlock: KIFKEQ_clean_linker_1, # of connection points: 2
#     Edge 20, Type (0, 1), BuildingBlock: KIFKEQ_clean_linker_1, # of connection points: 2
#     Edge 21, Type (0, 1), BuildingBlock: KIFKEQ_clean_linker_1, # of connection points: 2
#     Edge 22, Type (0, 1), BuildingBlock: KIFKEQ_clean_linker_1, # of connection points: 2
#     Edge 23, Type (0, 1), BuildingBlock: KIFKEQ_clean_linker_1, # of connection points: 2
#     Edge 24, Type (0, 1), BuildingBlock: KIFKEQ_clean_linker_1, # of connection points: 2
#     Edge 25, Type (0, 1), BuildingBlock: KIFKEQ_clean_linker_1, # of connection points: 2
#     Edge 26, Type (0, 1), BuildingBlock: KIFKEQ_clean_linker_1, # of connection points: 2
#     Edge 27, Type (0, 1), BuildingBlock: KIFKEQ_clean_linker_1, # of connection points: 2
#     Edge 28, Type (0, 1), BuildingBlock: KIFKEQ_clean_linker_1, # of connection points: 2
#     Edge 29, Type (0, 1), BuildingBlock: KIFKEQ_clean_linker_1, # of connection points: 2
#     Edge 30, Type (0, 1), BuildingBlock: KIFKEQ_clean_linker_1, # of connection points: 2
#     Edge 31, Type (0, 1), BuildingBlock: KIFKEQ_clean_linker_1, # of connection points: 2
#     Edge 32, Type (0, 1), BuildingBlock: KIFKEQ_clean_linker_1, # of connection points: 2
#     Edge 33, Type (0, 1), BuildingBlock: KIFKEQ_clean_linker_1, # of connection points: 2
#     Edge 34, Type (0, 1), BuildingBlock: KIFKEQ_clean_linker_1, # of connection points: 2
#     Edge 35, Type (0, 1), BuildingBlock: KIFKEQ_clean_linker_1, # of connection points: 2
# Relax obj value: 0.101
# Max RMSD: 0.154
# Mean RMSD: 0.061
data_MOF--net-pyr--node1-GEDQOX_clean_sbu_0--node2-MIDCAF_clean_linker_0--edge1-KIFKEQ_clean_linker_1
_symmetry_space_group_name_H-M    P1
_symmetry_Int_Tables_number       1
_symmetry_cell_setting            triclinic
loop_
_symmetry_equiv_pos_as_xyz
'x, y, z'
_cell_length_a     48.860555
_cell_length_b     48.500982
_cell_length_c     43.014681
_cell_angle_alpha  87.7324
_cell_angle_beta   90.161488
_cell_angle_gamma 86.614598
loop_
_atom_site_label
_atom_site_type_symbol
_atom_site_fract_x
_atom_site_fract_y
_atom_site_fract_z
_atom_type_partial_charge
C0 C 0.14501 0.15951 0.26464 0.0
C1 C 0.15304 0.13232 0.27505 0.0
C2 C 0.17464 0.11842 0.25915 0.0
C3 C 0.1879 0.1314 0.23394 0.0
H4 H 0.25201 0.12141 0.16816 0.0
H5 H 0.29465 0.10064 0.14774 0.0
H6 H 0.31139 0.17848 0.10189 0.0
H7 H 0.26849 0.19933 0.12217 0.0
H8 H 0.21576 0.25055 0.11964 0.0
H9 H 0.19358 0.29457 0.10053 0.0
H10 H 0.12048 0.27608 0.15163 0.0
H11 H 0.14288 0.23308 0.17146 0.0
H12 H 0.15101 0.19326 0.23222 0.0
H13 H 0.12831 0.17087 0.27585 0.0
H14 H 0.18163 0.09758 0.26651 0.0
H15 H 0.20448 0.12002 0.22254 0.0
N16 N 0.21731 0.16171 0.18415 0.0
N17 N 0.21877 0.19981 0.14846 0.0
N18 N 0.1827 0.19734 0.18435 0.0
C19 C 0.23017 0.17499 0.16015 0.0
C20 C 0.19482 0.21108 0.16032 0.0
C21 C 0.19365 0.1728 0.19659 0.0
C22 C 0.25646 0.16224 0.147 0.0
C23 C 0.26465 0.13423 0.15369 0.0
C24 C 0.28919 0.12216 0.14175 0.0
C25 C 0.30677 0.13771 0.12301 0.0
C26 C 0.29866 0.16577 0.11638 0.0
C27 C 0.27386 0.17775 0.12793 0.0
C28 C 0.18139 0.238 0.14741 0.0
C29 C 0.19496 0.25591 0.12683 0.0
C30 C 0.18205 0.28126 0.11568 0.0
C31 C 0.15501 0.28953 0.12449 0.0
C32 C 0.14143 0.27127 0.14468 0.0
C33 C 0.15437 0.2462 0.156 0.0
C34 C 0.17977 0.15861 0.22353 0.0
C35 C 0.15802 0.17235 0.23931 0.0
C36 C 0.26723 0.8302 0.75575 0.0
C37 C 0.25429 0.8154 0.73303 0.0
C38 C 0.26616 0.78964 0.72484 0.0
C39 C 0.29098 0.77939 0.73814 0.0
H40 H 0.361 0.73839 0.70925 0.0
H41 H 0.38331 0.70085 0.68184 0.0
H42 H 0.43784 0.68232 0.76022 0.0
H43 H 0.41595 0.72114 0.78739 0.0
H44 H 0.42567 0.7934 0.81562 0.0
H45 H 0.44711 0.82473 0.85018 0.0
H46 H 0.36702 0.85506 0.88044 0.0
H47 H 0.34571 0.82453 0.84547 0.0
H48 H 0.30178 0.83214 0.78608 0.0
H49 H 0.25839 0.84999 0.76278 0.0
H50 H 0.25685 0.77786 0.70719 0.0
H51 H 0.29986 0.75979 0.73062 0.0
N52 N 0.34604 0.76368 0.75814 0.0
N53 N 0.38435 0.769 0.78993 0.0
N54 N 0.34455 0.79828 0.79443 0.0
C55 C 0.37201 0.75547 0.76705 0.0
C56 C 0.37057 0.79047 0.80381 0.0
C57 C 0.33212 0.78496 0.77168 0.0
C58 C 0.38658 0.73269 0.75064 0.0
C59 C 0.37771 0.72633 0.72079 0.0
C60 C 0.39042 0.70454 0.70509 0.0
C61 C 0.41215 0.6881 0.7189 0.0
C62 C 0.42128 0.69461 0.74872 0.0
C63 C 0.40872 0.71681 0.76436 0.0
C64 C 0.38397 0.80669 0.82745 0.0
C65 C 0.41268 0.80654 0.82993 0.0
C66 C 0.42496 0.82447 0.84982 0.0
C67 C 0.40879 0.84277 0.86778 0.0
C68 C 0.38012 0.84183 0.86636 0.0
C69 C 0.36789 0.82415 0.84639 0.0
C70 C 0.30449 0.79463 0.76004 0.0
C71 C 0.29203 0.81989 0.7692 0.0
C72 C 0.70115 0.33341 0.942 0.0
C73 C 0.6732 0.33025 0.93598 0.0
C74 C 0.65904 0.34946 0.91558 0.0
C75 C 0.67262 0.37058 0.90058 0.0
H76 H 0.66142 0.42726 0.83008 0.0
H77 H 0.63775 0.43854 0.78126 0.0
H78 H 0.71507 0.45221 0.73647 0.0
H79 H 0.73905 0.44128 0.78606 0.0
H80 H 0.78684 0.45478 0.84361 0.0
H81 H 0.83154 0.4693 0.85941 0.0
H82 H 0.83018 0.41422 0.94071 0.0
H83 H 0.7854 0.40002 0.92538 0.0
H84 H 0.73654 0.35614 0.93127 0.0
H85 H 0.71257 0.31908 0.95783 0.0
H86 H 0.63764 0.34749 0.90996 0.0
H87 H 0.66105 0.38447 0.8844 0.0
N88 N 0.7032 0.40473 0.86001 0.0
N89 N 0.742 0.42912 0.84809 0.0
N90 N 0.74115 0.4003 0.8934 0.0
C91 C 0.71619 0.42242 0.84081 0.0
C92 C 0.75454 0.41829 0.87459 0.0
C93 C 0.71539 0.3935 0.88621 0.0
C94 C 0.70218 0.43298 0.81184 0.0
C95 C 0.67347 0.43284 0.80994 0.0
C96 C 0.65988 0.43915 0.78187 0.0
C97 C 0.67459 0.4456 0.75483 0.0
C98 C 0.7032 0.44723 0.75694 0.0
C99 C 0.71691 0.44101 0.78529 0.0
C100 C 0.78233 0.42631 0.88327 0.0
C101 C 0.79606 0.44567 0.86482 0.0
C102 C 0.82179 0.45392 0.87378 0.0
C103 C 0.83437 0.44304 0.90141 0.0
C104 C 0.82086 0.42336 0.91956 0.0
C105 C 0.79519 0.41509 0.91062 0.0
C106 C 0.70081 0.37309 0.90545 0.0
C107 C 0.71483 0.35473 0.92695 0.0
C108 C 0.78061 0.75502 0.36883 0.0
C109 C 0.76913 0.73255 0.35505 0.0
C110 C 0.7703 0.73061 0.3226 0.0
C111 C 0.78314 0.75039 0.30433 0.0
H112 H 0.79874 0.77425 0.21445 0.0
H113 H 0.8112 0.75418 0.16571 0.0
H114 H 0.88399 0.80076 0.16189 0.0
H115 H 0.8719 0.82021 0.21193 0.0
H116 H 0.88837 0.85172 0.27739 0.0
H117 H 0.91569 0.88199 0.30752 0.0
H118 H 0.85348 0.88381 0.37878 0.0
H119 H 0.82686 0.85311 0.34938 0.0
H120 H 0.80262 0.79156 0.36202 0.0
H121 H 0.78018 0.75697 0.39382 0.0
H122 H 0.76121 0.71378 0.31127 0.0
H123 H 0.78392 0.74799 0.27942 0.0
N124 N 0.81391 0.7886 0.26807 0.0
N125 N 0.84378 0.82473 0.26434 0.0
N126 N 0.82407 0.81244 0.31234 0.0
C127 C 0.83012 0.80477 0.25053 0.0
C128 C 0.84043 0.82888 0.29528 0.0
C129 C 0.81081 0.79218 0.29894 0.0
C130 C 0.83474 0.79823 0.21756 0.0
C131 C 0.8172 0.78066 0.20305 0.0
C132 C 0.8242 0.76936 0.1747 0.0
C133 C 0.84887 0.77545 0.15995 0.0
C134 C 0.86511 0.79517 0.17296 0.0
C135 C 0.85811 0.80646 0.20155 0.0
C136 C 0.85564 0.84976 0.31119 0.0
C137 C 0.88047 0.85885 0.29935 0.0
C138 C 0.8961 0.87621 0.3166 0.0
C139 C 0.88702 0.88492 0.34585 0.0
C140 C 0.86151 0.87684 0.35681 0.0
C141 C 0.84613 0.85937 0.33981 0.0
C142 C 0.79521 0.77257 0.31812 0.0
C143 C 0.79352 0.77482 0.35057 0.0
C144 C 0.77305 0.9279 0.89984 0.0
C145 C 0.756 0.9126 0.91953 0.0
C146 C 0.76451 0.88477 0.92685 0.0
C147 C 0.78918 0.87275 0.91504 0.0
H148 H 0.84894 0.80304 0.92793 0.0
H149 H 0.87201 0.76028 0.9497 0.0
H150 H 0.94063 0.77217 0.88872 0.0
H151 H 0.91792 0.81464 0.86727 0.0
H152 H 0.90977 0.85505 0.80793 0.0
H153 H 0.93149 0.87644 0.76294 0.0
H154 H 0.87836 0.94997 0.77156 0.0
H155 H 0.85651 0.92855 0.81686 0.0
H156 H 0.8097 0.92837 0.87243 0.0
H157 H 0.76726 0.94924 0.89332 0.0
H158 H 0.75219 0.87226 0.94207 0.0
H159 H 0.79485 0.85134 0.92137 0.0
N160 N 0.84394 0.85071 0.89401 0.0
N161 N 0.87923 0.85221 0.85706 0.0
N162 N 0.84446 0.88775 0.85683 0.0
C163 C 0.86766 0.83916 0.88196 0.0
C164 C 0.86793 0.87639 0.84419 0.0
C165 C 0.83216 0.87511 0.88167 0.0
C166 C 0.88137 0.81267 0.8957 0.0
C167 C 0.86896 0.79659 0.91915 0.0
C168 C 0.8822 0.77186 0.93158 0.0
C169 C 0.90842 0.76251 0.92122 0.0
C170 C 0.92073 0.77865 0.89781 0.0
C171 C 0.90747 0.80313 0.88526 0.0
C172 C 0.8812 0.88992 0.81637 0.0
C173 C 0.90259 0.8758 0.80039 0.0
C174 C 0.91503 0.88806 0.77428 0.0
C175 C 0.90678 0.91503 0.76327 0.0
C176 C 0.88553 0.92929 0.77936 0.0
C177 C 0.87283 0.91689 0.80534 0.0
C178 C 0.80604 0.88798 0.89503 0.0
C179 C 0.79746 0.91578 0.88764 0.0
C180 C 0.68276 0.20846 0.17602 0.0
C181 C 0.65417 0.20673 0.17674 0.0
C182 C 0.63866 0.22363 0.19679 0.0
C183 C 0.65154 0.24139 0.21628 0.0
H184 H 0.64415 0.32263 0.26377 0.0
H185 H 0.62084 0.3578 0.29519 0.0
H186 H 0.68263 0.34222 0.36692 0.0
H187 H 0.70623 0.30837 0.33527 0.0
H188 H 0.76315 0.288 0.3149 0.0
H189 H 0.80825 0.27278 0.33385 0.0
H190 H 0.8169 0.2152 0.25981 0.0
H191 H 0.77081 0.22982 0.24131 0.0
H192 H 0.7178 0.22625 0.1951 0.0
H193 H 0.69527 0.19556 0.16097 0.0
H194 H 0.61656 0.22292 0.19761 0.0
H195 H 0.639 0.2537 0.23189 0.0
N196 N 0.6798 0.27855 0.2555 0.0
N197 N 0.71943 0.28648 0.28378 0.0
N198 N 0.72136 0.25345 0.24561 0.0
C199 C 0.69244 0.29241 0.27781 0.0
C200 C 0.73411 0.26719 0.26785 0.0
C201 C 0.69422 0.25901 0.23924 0.0
C202 C 0.67717 0.31291 0.29685 0.0
C203 C 0.65267 0.32682 0.28625 0.0
C204 C 0.6393 0.34691 0.30433 0.0
C205 C 0.65001 0.3532 0.33352 0.0
C206 C 0.67416 0.33867 0.34424 0.0
C207 C 0.68763 0.31901 0.3261 0.0
C208 C 0.76308 0.25991 0.27674 0.0
C209 C 0.77464 0.27228 0.30231 0.0
C210 C 0.8008 0.26371 0.31309 0.0
C211 C 0.81635 0.2427 0.29844 0.0
C212 C 0.80534 0.23116 0.27195 0.0
C213 C 0.77895 0.23963 0.26125 0.0
C214 C 0.68025 0.24236 0.21643 0.0
C215 C 0.69566 0.22595 0.19575 0.0
C216 C 0.24223 0.598 0.18341 0.0
C217 C 0.23029 0.60981 0.15586 0.0
C218 C 0.24463 0.62932 0.13841 0.0
C219 C 0.27051 0.63653 0.14803 0.0
H220 H 0.33196 0.69055 0.12701 0.0
H221 H 0.35672 0.72711 0.10079 0.0
H222 H 0.42801 0.70404 0.15782 0.0
H223 H 0.40388 0.66745 0.18317 0.0
H224 H 0.40324 0.6146 0.22889 0.0
H225 H 0.42631 0.59713 0.27646 0.0
H226 H 0.348 0.58779 0.32064 0.0
H227 H 0.3246 0.60521 0.27255 0.0
H228 H 0.27672 0.59552 0.21428 0.0
H229 H 0.23154 0.5832 0.19762 0.0
H230 H 0.23615 0.63858 0.11689 0.0
H231 H 0.28107 0.65137 0.13373 0.0
N232 N 0.32469 0.64962 0.16735 0.0
N233 N 0.36232 0.64253 0.20105 0.0
N234 N 0.32269 0.6188 0.21079 0.0
C235 C 0.35059 0.65538 0.17539 0.0
C236 C 0.34863 0.62434 0.21888 0.0
C237 C 0.31064 0.63122 0.18484 0.0
C238 C 0.36581 0.67615 0.15739 0.0
C239 C 0.35304 0.69307 0.13361 0.0
C240 C 0.36717 0.71411 0.11869 0.0
C241 C 0.39436 0.71851 0.12718 0.0
C242 C 0.40728 0.70099 0.15026 0.0
C243 C 0.39325 0.68009 0.16509 0.0
C244 C 0.3621 0.61137 0.24704 0.0
C245 C 0.39086 0.60861 0.24862 0.0
C246 C 0.4041 0.59845 0.27579 0.0
C247 C 0.38892 0.59113 0.30218 0.0
C248 C 0.36013 0.59342 0.30059 0.0
C249 C 0.34679 0.60319 0.27308 0.0
C250 C 0.28268 0.6244 0.17534 0.0
C251 C 0.26811 0.60521 0.19304 0.0
C252 C 0.1693 0.19764 0.66375 0.0
C253 C 0.14761 0.1823 0.67499 0.0
C254 C 0.13527 0.18942 0.70333 0.0
C255 C 0.14396 0.21173 0.71957 0.0
H256 H 0.19896 0.2524 0.81606 0.0
H257 H 0.19963 0.2675 0.86996 0.0
H258 H 0.13716 0.33166 0.84602 0.0
H259 H 0.1371 0.31696 0.79251 0.0
H260 H 0.19267 0.35119 0.73556 0.0
H261 H 0.21803 0.38672 0.70902 0.0
H262 H 0.24119 0.32977 0.63756 0.0
H263 H 0.21515 0.29445 0.66361 0.0
H264 H 0.19409 0.2319 0.67009 0.0
H265 H 0.17976 0.19238 0.64243 0.0
H266 H 0.11827 0.17837 0.71253 0.0
H267 H 0.13357 0.2171 0.74089 0.0
N268 N 0.16698 0.2559 0.75386 0.0
N269 N 0.18331 0.30046 0.75027 0.0
N270 N 0.18352 0.27361 0.70627 0.0
C271 C 0.17254 0.27975 0.76739 0.0
C272 C 0.18901 0.29754 0.71973 0.0
C273 C 0.17227 0.25284 0.72309 0.0
C274 C 0.16783 0.28352 0.80056 0.0
C275 C 0.18473 0.26904 0.82285 0.0
C276 C 0.18521 0.27774 0.85348 0.0
C277 C 0.16841 0.30067 0.86214 0.0
C278 C 0.15001 0.31365 0.84019 0.0
C279 C 0.14998 0.30535 0.80957 0.0
C280 C 0.20215 0.31984 0.70191 0.0
C281 C 0.20295 0.34629 0.71402 0.0
C282 C 0.21756 0.36667 0.69886 0.0
C283 C 0.23191 0.36102 0.67135 0.0
C284 C 0.23015 0.33494 0.65853 0.0
C285 C 0.21533 0.3146 0.67358 0.0
C286 C 0.16487 0.22767 0.70759 0.0
C287 C 0.17767 0.22021 0.67971 0.0
Nd288 Nd 0.04555 0.99663 0.51371 0.0
Nd289 Nd 1.00987 0.04731 0.51913 0.0
C290 C 0.06788 0.94568 0.51332 0.0
C291 C 0.07935 0.92686 0.5382 0.0
C292 C 0.09972 0.90651 0.53135 0.0
C293 C 0.11387 0.89152 0.5554 0.0
C294 C 0.10789 0.89673 0.58671 0.0
C295 C 0.08652 0.9163 0.59337 0.0
C296 C 0.0725 0.93134 0.56933 0.0
C297 C 0.06855 0.03616 0.54766 0.0
C298 C 1.0016 1.0008 0.57276 0.0
C299 C 0.98836 0.09854 0.51856 0.0
C300 C 0.97747 0.11667 0.49274 0.0
C301 C 0.97534 0.14541 0.49527 0.0
C302 C 0.9642 0.16237 0.47074 0.0
C303 C 0.95488 0.15077 0.44338 0.0
C304 C 0.95774 0.12191 0.44086 0.0
C305 C 0.9691 0.10509 0.46517 0.0
C306 C 0.98676 1.00793 0.48508 0.0
C307 C 0.0541 0.0434 0.46048 0.0
O308 O 0.04136 0.95131 0.51385 0.0
O309 O 0.08165 0.9676 0.50784 0.0
O310 O 0.08216 1.02097 0.5283 0.0
O311 O 0.04413 0.02956 0.54971 0.0
O312 O 1.0155 0.98448 0.55359 0.0
O313 O 0.99992 0.02783 0.56714 0.0
O314 O 1.0148 0.09258 0.51819 0.0
O315 O 0.97432 0.07695 0.52508 0.0
O316 O 0.97328 1.02326 0.50441 0.0
O317 O 1.01127 1.01436 0.48295 0.0
O318 O 0.04012 0.05959 0.47966 0.0
O319 O 0.05568 1.01635 0.46586 0.0
H320 H 0.10548 0.90306 0.50745 0.0
H321 H 0.13043 0.87688 0.54944 0.0
H322 H 0.08115 0.92054 0.61719 0.0
H323 H 0.05704 0.94722 0.5751 0.0
H324 H 0.98205 0.15469 0.51627 0.0
H325 H 0.96275 0.18452 0.47331 0.0
H326 H 0.95042 0.11209 0.42052 0.0
H327 H 0.97086 0.0829 0.46267 0.0
Nd328 Nd 0.53514 1.00719 0.04832 0.0
Nd329 Nd 0.52837 0.0428 0.99609 0.0
C330 C 0.54172 0.96305 0.08623 0.0
C331 C 0.52658 0.93781 0.08956 0.0
C332 C 0.54091 0.91221 0.09503 0.0
C333 C 0.52698 0.88785 0.09569 0.0
C334 C 0.49838 0.88868 0.09104 0.0
C335 C 0.48412 0.91449 0.08572 0.0
C336 C 0.4981 0.93879 0.08476 0.0
C337 C 0.49013 0.04431 0.05528 0.0
C338 C 0.49904 0.98755 0.98929 0.0
C339 C 0.52226 0.08721 0.95863 0.0
C340 C 0.53784 0.11227 0.95635 0.0
C341 C 0.52386 0.13834 0.95467 0.0
C342 C 0.53831 0.1623 0.95598 0.0
C343 C 0.56709 0.16062 0.95884 0.0
C344 C 0.58103 0.13438 0.96007 0.0
C345 C 0.56656 0.11046 0.95907 0.0
C346 C 0.5732 1.00557 0.98912 0.0
C347 C 0.56474 0.06227 0.05502 0.0
O348 O 0.55513 0.96585 0.06022 0.0
O349 O 0.52877 0.98603 0.09414 0.0
O350 O 0.50891 0.03847 0.07625 0.0
O351 O 0.4957 0.03119 0.0309 0.0
O352 O 0.51482 0.97972 1.01327 0.0
O353 O 0.49721 1.01357 0.97949 0.0
O354 O 0.50837 0.08414 0.98428 0.0
O355 O 0.53498 0.0642 0.95044 0.0
O356 O 0.55441 1.01142 0.96816 0.0
O357 O 0.56775 1.01881 1.01346 0.0
O358 O 0.54898 0.07016 0.03106 0.0
O359 O 0.5664 0.03628 0.06489 0.0
H360 H 0.56296 0.91103 0.0982 0.0
H361 H 0.53873 0.86834 0.09927 0.0
H362 H 0.46209 0.91602 0.08248 0.0
H363 H 0.48666 0.95832 0.07995 0.0
H364 H 0.50168 0.14015 0.95316 0.0
H365 H 0.52683 0.18211 0.95548 0.0
H366 H 0.60317 0.13224 0.96177 0.0
H367 H 0.57784 0.09055 0.96097 0.0
Nd368 Nd 0.50626 0.49721 0.53068 0.0
Nd369 Nd 0.55366 0.53642 0.52945 0.0
C370 C 0.45855 0.47507 0.52463 0.0
C371 C 0.43262 0.47189 0.54091 0.0
C372 C 0.41066 0.46172 0.52485 0.0
C373 C 0.3863 0.45666 0.5403 0.0
C374 C 0.38355 0.46168 0.57214 0.0
C375 C 0.40538 0.47278 0.58794 0.0
C376 C 0.42977 0.47791 0.57239 0.0
C377 C 0.5478 0.48333 0.57234 0.0
C378 C 0.50325 0.55107 0.57542 0.0
C379 C 0.60105 0.55943 0.53407 0.0
C380 C 0.62312 0.5692 0.5143 0.0
C381 C 0.64865 0.57321 0.52767 0.0
C382 C 0.66879 0.58591 0.51024 0.0
C383 C 0.66358 0.59494 0.47919 0.0
C384 C 0.63837 0.58953 0.46544 0.0
C385 C 0.61831 0.5767 0.48287 0.0
C386 C 0.51275 0.54945 0.48653 0.0
C387 C 0.55733 0.48143 0.48598 0.0
O388 O 0.46323 0.5 0.51401 0.0
O389 O 0.48024 0.4617 0.53698 0.0
O390 O 0.53408 0.46502 0.55875 0.0
O391 O 0.53792 0.50735 0.56576 0.0
O392 O 0.48918 0.53298 0.56072 0.0
O393 O 0.52976 0.553 0.57084 0.0
O394 O 0.59878 0.53268 0.53674 0.0
O395 O 0.57743 0.57352 0.53125 0.0
O396 O 0.52635 0.56808 0.49962 0.0
O397 O 0.52265 0.52571 0.49418 0.0
O398 O 0.57087 0.50055 0.49965 0.0
O399 O 0.53104 0.47846 0.49113 0.0
H400 H 0.41261 0.45701 0.5005 0.0
H401 H 0.37005 0.44775 0.52758 0.0
H402 H 0.40374 0.47711 0.6124 0.0
H403 H 0.44656 0.486 0.58502 0.0
H404 H 0.65269 0.56737 0.5519 0.0
H405 H 0.68816 0.58934 0.52133 0.0
H406 H 0.63358 0.59644 0.4417 0.0
H407 H 0.59866 0.57366 0.47219 0.0
Nd408 Nd 1.00951 0.52214 0.04623 0.0
Nd409 Nd 0.05738 0.53276 1.00358 0.0
C410 C 0.95963 0.52344 0.06839 0.0
C411 C 0.94347 0.54917 0.07491 0.0
C412 C 0.91678 0.55417 0.06298 0.0
C413 C 0.90383 0.58074 0.06347 0.0
C414 C 0.9176 0.60268 0.07554 0.0
C415 C 0.94386 0.59727 0.08847 0.0
C416 C 0.95668 0.57092 0.08805 0.0
C417 C 0.05184 0.54637 0.07399 0.0
C418 C 1.00936 0.58136 1.00228 0.0
C419 C 0.10737 0.53553 0.98111 0.0
C420 C 0.13013 0.51425 0.97927 0.0
C421 C 0.13957 0.49889 1.00602 0.0
C422 C 0.15594 0.47451 1.00326 0.0
C423 C 0.16302 0.46502 0.97376 0.0
C424 C 0.15581 0.48185 0.94725 0.0
C425 C 0.13955 0.50628 0.95002 0.0
C426 C 1.01443 0.50895 0.97622 0.0
C427 C 0.0569 0.47329 0.04697 0.0
O428 O 0.96472 0.52017 0.03886 0.0
O429 O 0.98125 0.51761 0.08611 0.0
O430 O 0.03743 0.52813 0.08817 0.0
O431 O 0.04265 0.55243 0.04703 0.0
O432 O 0.9956 0.56334 1.01905 0.0
O433 O 0.03546 0.57588 0.99541 0.0
O434 O 0.10057 0.54345 1.00893 0.0
O435 O 0.08602 0.53166 0.96371 0.0
O436 O 0.02838 0.52765 0.96209 0.0
O437 O 1.02421 0.50259 1.00283 0.0
O438 O 0.07134 0.49194 0.03187 0.0
O439 O 0.03039 0.47837 0.05211 0.0
H440 H 0.90646 0.53785 0.05211 0.0
H441 H 0.88353 0.58436 0.0534 0.0
H442 H 0.95477 0.61359 0.09855 0.0
H443 H 0.97748 0.56795 0.09686 0.0
H444 H 0.13286 0.5046 0.02899 0.0
H445 H 0.16159 0.46219 0.0241 0.0
H446 H 0.16079 0.47508 0.92414 0.0
H447 H 0.13264 0.51784 0.92909 0.0
H448 H 0.13613 0.15525 0.32988 0.0
H449 H 0.13776 0.07849 0.28244 0.0
H450 H 0.11282 0.13385 0.37368 0.0
H451 H 0.11373 0.05711 0.32591 0.0
H452 H 0.09129 1.01839 0.42084 0.0
H453 H 0.11534 0.03923 0.37706 0.0
H454 H 0.07206 0.11774 0.39257 0.0
H455 H 0.04894 0.09705 0.43699 0.0
C456 C 0.13127 0.13383 0.32858 0.0
C457 C 0.13892 0.11875 0.30232 0.0
C458 C 0.11769 0.12146 0.35384 0.0
C459 C 0.11097 0.09355 0.35376 0.0
C460 C 0.11876 0.07844 0.32746 0.0
C461 C 0.13258 0.09078 0.30229 0.0
C462 C 0.08687 0.0401 0.4149 0.0
C463 C 0.06812 0.05594 0.43273 0.0
C464 C 0.10062 0.05214 0.3895 0.0
C465 C 0.09598 0.08043 0.38084 0.0
C466 C 0.07688 0.09611 0.39855 0.0
C467 C 0.06333 0.08412 0.42408 0.0
H468 H 0.45591 0.83664 0.90321 0.0
H469 H 0.39061 0.89652 0.87522 0.0
H470 H 0.47713 0.87164 0.93288 0.0
H471 H 0.41098 0.93095 0.90603 0.0
H472 H 0.47129 0.99417 0.93393 0.0
H473 H 0.44956 0.95898 0.90528 0.0
H474 H 0.47145 0.89831 0.97882 0.0
H475 H 0.49384 0.93336 1.00707 0.0
C476 C 0.44603 0.85721 0.90344 0.0
C477 C 0.42151 0.86368 0.88682 0.0
C478 C 0.45802 0.87721 0.92077 0.0
C479 C 0.44578 0.90417 0.92188 0.0
C480 C 0.42118 0.91053 0.90543 0.0
C481 C 0.40927 0.89061 0.88807 0.0
C482 C 0.47134 0.97337 0.94407 0.0
C483 C 0.48437 0.96659 0.97273 0.0
C484 C 0.45878 0.95317 0.92769 0.0
C485 C 0.45878 0.92573 0.93967 0.0
C486 C 0.47145 0.91909 0.96862 0.0
C487 C 0.48414 0.93926 0.98493 0.0
H488 H 0.63452 0.41473 0.73297 0.0
H489 H 0.68136 0.48508 0.70828 0.0
H490 H 0.60684 0.42328 0.68631 0.0
H491 H 0.65429 0.49299 0.66046 0.0
H492 H 0.57418 0.51988 0.60618 0.0
H493 H 0.60812 0.50966 0.64722 0.0
H494 H 0.60591 0.42243 0.63087 0.0
H495 H 0.57121 0.43275 0.59039 0.0
C496 C 0.63903 0.43196 0.7174 0.0
C497 C 0.65982 0.44953 0.7246 0.0
C498 C 0.6234 0.43662 0.69035 0.0
C499 C 0.62825 0.45888 0.66962 0.0
C500 C 0.64979 0.47587 0.67617 0.0
C501 C 0.66546 0.47121 0.70338 0.0
C502 C 0.58107 0.49853 0.61128 0.0
C503 C 0.56982 0.47704 0.59547 0.0
C504 C 0.60073 0.49268 0.6346 0.0
C505 C 0.60967 0.46521 0.6425 0.0
C506 C 0.59913 0.44379 0.62575 0.0
C507 C 0.57934 0.44966 0.60251 0.0
H508 H 0.90159 0.75554 0.15107 0.0
H509 H 0.82006 0.75439 0.11195 0.0
H510 H 0.91672 0.71746 0.11949 0.0
H511 H 0.83527 0.71536 0.0808 0.0
H512 H 0.94177 0.65033 0.05907 0.0
H513 H 0.9244 0.69751 0.068 0.0
H514 H 0.84788 0.66681 0.10038 0.0
H515 H 0.86524 0.6196 0.09128 0.0
C516 C 0.88707 0.74793 0.13489 0.0
C517 C 0.85943 0.75781 0.13456 0.0
C518 C 0.89579 0.7259 0.11677 0.0
C519 C 0.87706 0.71312 0.09802 0.0
C520 C 0.85002 0.72453 0.09547 0.0
C521 C 0.84135 0.74684 0.11337 0.0
C522 C 0.92105 0.65373 0.06757 0.0
C523 C 0.90504 0.63127 0.07513 0.0
C524 C 0.9111 0.68073 0.07257 0.0
C525 C 0.88495 0.68582 0.08529 0.0
C526 C 0.86806 0.66357 0.09033 0.0
C527 C 0.87801 0.6365 0.08525 0.0
H528 H 0.3576 0.15979 0.11951 0.0
H529 H 0.31695 0.08605 0.09892 0.0
H530 H 0.40098 0.13843 0.10142 0.0
H531 H 0.3604 0.06466 0.08086 0.0
H532 H 0.4402 0.04432 0.02422 0.0
H533 H 0.39604 0.06707 0.03899 0.0
H534 H 0.43499 0.10094 0.11787 0.0
H535 H 0.47871 0.07809 0.10335 0.0
C536 C 0.35777 0.13909 0.11091 0.0
C537 C 0.33347 0.12478 0.11088 0.0
C538 C 0.38283 0.12669 0.10071 0.0
C539 C 0.38451 0.09964 0.0896 0.0
C540 C 0.3601 0.08553 0.08897 0.0
C541 C 0.33511 0.09777 0.09965 0.0
C542 C 0.43934 0.05676 0.0446 0.0
C543 C 0.46317 0.0593 0.06254 0.0
C544 C 0.41393 0.0697 0.05324 0.0
C545 C 0.41167 0.08602 0.07974 0.0
C546 C 0.43572 0.0889 0.09719 0.0
C547 C 0.4609 0.07563 0.08889 0.0
H548 H 0.24505 0.8684 0.71032 0.0
H549 H 0.20807 0.78968 0.71717 0.0
H550 H 0.20691 0.88737 0.6782 0.0
H551 H 0.16962 0.80876 0.68509 0.0
H552 H 0.12922 0.84314 0.59233 0.0
H553 H 0.16228 0.82348 0.63089 0.0
H554 H 0.15862 0.90084 0.67763 0.0
H555 H 0.12666 0.92085 0.63835 0.0
C556 C 0.22845 0.85532 0.70553 0.0
C557 C 0.2296 0.82753 0.71624 0.0
C558 C 0.20655 0.86619 0.6871 0.0
C559 C 0.18522 0.84956 0.679 0.0
C560 C 0.18593 0.82199 0.69052 0.0
C561 C 0.20791 0.81108 0.70892 0.0
C562 C 0.13545 0.85591 0.61088 0.0
C563 C 0.12541 0.8836 0.61212 0.0
C564 C 0.15415 0.84456 0.6332 0.0
C565 C 0.16321 0.86065 0.65726 0.0
C566 C 0.15234 0.888 0.65917 0.0
C567 C 0.13372 0.89936 0.63684 0.0
H568 H 0.87964 0.45252 0.86586 0.0
H569 H 0.84976 0.45518 0.96019 0.0
H570 H 0.92375 0.46778 0.8831 0.0
H571 H 0.8937 0.47043 0.97736 0.0
H572 H 0.98395 0.46946 1.00314 0.0
H573 H 0.94096 0.45298 0.9843 0.0
H574 H 0.94438 0.50821 0.90324 0.0
H575 H 0.98772 0.52432 0.92194 0.0
C576 C 0.88242 0.45655 0.89022 0.0
C577 C 0.86122 0.45249 0.91167 0.0
C578 C 0.90769 0.4653 0.9001 0.0
C579 C 0.91231 0.4702 0.93164 0.0
C580 C 0.89103 0.46632 0.95301 0.0
C581 C 0.86582 0.45758 0.94316 0.0
C582 C 0.97557 0.47795 0.98122 0.0
C583 C 0.9891 0.49818 0.964 0.0
C584 C 0.95086 0.46866 0.97051 0.0
C585 C 0.93913 0.4794 0.94234 0.0
C586 C 0.95298 0.49932 0.92487 0.0
C587 C 0.97773 0.50863 0.93561 0.0
H588 H 0.77435 0.67649 0.34984 0.0
H589 H 0.73443 0.74021 0.40399 0.0
H590 H 0.7519 0.64128 0.38094 0.0
H591 H 0.71192 0.70511 0.43494 0.0
H592 H 0.69277 0.63606 0.50191 0.0
H593 H 0.72122 0.66754 0.47308 0.0
H594 H 0.70581 0.62554 0.38861 0.0
H595 H 0.67829 0.59316 0.41777 0.0
C596 C 0.76067 0.68297 0.36829 0.0
C597 C 0.75606 0.71112 0.37442 0.0
C598 C 0.74786 0.66281 0.38611 0.0
C599 C 0.73017 0.6704 0.41041 0.0
C600 C 0.72582 0.69854 0.41673 0.0
C601 C 0.73865 0.71867 0.39897 0.0
C602 C 0.69598 0.63307 0.47734 0.0
C603 C 0.68317 0.61213 0.46211 0.0
C604 C 0.71199 0.65137 0.46074 0.0
C605 C 0.71549 0.64925 0.42851 0.0
C606 C 0.70361 0.62765 0.41346 0.0
C607 C 0.68762 0.60927 0.4301 0.0
H608 H 0.11659 0.32333 0.15457 0.0
H609 H 0.16106 0.31866 0.06809 0.0
H610 H 0.09291 0.36631 0.13577 0.0
H611 H 0.13781 0.36222 0.04975 0.0
H612 H 0.11086 0.45524 0.03976 0.0
H613 H 0.13434 0.41188 0.05847 0.0
H614 H 0.05868 0.38575 0.09808 0.0
H615 H 0.0353 0.42948 0.07989 0.0
C616 C 0.12127 0.33114 0.1314 0.0
C617 C 0.14091 0.31684 0.11298 0.0
C618 C 0.10759 0.35608 0.1206 0.0
C619 C 0.11317 0.36801 0.09108 0.0
C620 C 0.13303 0.35402 0.07275 0.0
C621 C 0.14654 0.32888 0.08342 0.0
C622 C 0.09913 0.4403 0.05236 0.0
C623 C 0.07103 0.44617 0.05812 0.0
C624 C 0.11262 0.41519 0.06292 0.0
C625 C 0.09855 0.39492 0.07965 0.0
C626 C 0.07042 0.40078 0.08552 0.0
C627 C 0.0569 0.42593 0.07489 0.0
H628 H 0.62063 0.32867 0.95767 0.0
H629 H 0.69362 0.27644 0.94177 0.0
H630 H 0.5948 0.28771 0.96763 0.0
H631 H 0.66785 0.23557 0.95268 0.0
H632 H 0.61279 0.1688 0.99401 0.0
H633 H 0.63926 0.21001 0.99436 0.0
H634 H 0.58234 0.25153 0.92865 0.0
H635 H 0.5565 0.21023 0.92718 0.0
C636 C 0.63127 0.30848 0.95676 0.0
C637 C 0.65909 0.30584 0.9484 0.0
C638 C 0.61648 0.28508 0.96252 0.0
C639 C 0.62928 0.25855 0.9605 0.0
C640 C 0.65753 0.25583 0.9545 0.0
C641 C 0.6723 0.27926 0.94838 0.0
C642 C 0.60603 0.18661 0.97939 0.0
C643 C 0.58254 0.18608 0.9604 0.0
C644 C 0.62111 0.21023 0.97982 0.0
C645 C 0.61273 0.23394 0.9617 0.0
C646 C 0.58899 0.23366 0.94326 0.0
C647 C 0.57415 0.20998 0.94248 0.0
H648 H 0.8946 0.87967 0.40875 0.0
H649 H 0.91863 0.92778 0.32765 0.0
H650 H 0.91998 0.90876 0.44188 0.0
H651 H 0.94474 0.95652 0.36107 0.0
H652 H 1.00865 0.98358 0.43377 0.0
H653 H 0.9861 0.95286 0.39907 0.0
H654 H 0.91318 0.95908 0.45547 0.0
H655 H 0.93553 0.98975 0.48987 0.0
C656 C 0.9052 0.89652 0.39796 0.0
C657 C 0.90416 0.90167 0.36555 0.0
C658 C 0.91984 0.91308 0.41697 0.0
C659 C 0.93409 0.935 0.40404 0.0
C660 C 0.93401 0.93962 0.37159 0.0
C661 C 0.9191 0.92316 0.35249 0.0
C662 C 0.98782 0.97829 0.43869 0.0
C663 C 0.97376 0.98898 0.46443 0.0
C664 C 0.97492 0.96088 0.4188 0.0
C665 C 0.94796 0.95359 0.42468 0.0
C666 C 0.93407 0.96416 0.45059 0.0
C667 C 0.94681 0.98178 0.47018 0.0
H668 H 0.38752 0.65277 0.68073 0.0
H669 H 0.46662 0.67019 0.71804 0.0
H670 H 0.40935 0.61871 0.64767 0.0
H671 H 0.48826 0.63442 0.6868 0.0
H672 H 0.52191 0.59799 0.59809 0.0
H673 H 0.49995 0.62859 0.63487 0.0
H674 H 0.43218 0.57529 0.64276 0.0
H675 H 0.45382 0.54519 0.60453 0.0
C676 C 0.40958 0.64921 0.68211 0.0
C677 C 0.42531 0.66476 0.70169 0.0
C678 C 0.4221 0.62924 0.66344 0.0
C679 C 0.45069 0.62388 0.66417 0.0
C680 C 0.46627 0.63839 0.68499 0.0
C681 C 0.45378 0.65867 0.70335 0.0
C682 C 0.50234 0.59271 0.60771 0.0
C683 C 0.48959 0.56916 0.59834 0.0
C684 C 0.48981 0.61019 0.62912 0.0
C685 C 0.4643 0.60444 0.64215 0.0
C686 C 0.45164 0.58065 0.63297 0.0
C687 C 0.46407 0.56331 0.61113 0.0
H688 H 0.92186 0.96875 0.75383 0.0
H689 H 0.92255 0.8909 0.70867 0.0
H690 H 0.94484 0.98926 0.70907 0.0
H691 H 0.94477 0.91143 0.66356 0.0
H692 H 1.00681 0.94726 0.59687 0.0
H693 H 0.98474 0.92727 0.64243 0.0
H694 H 0.94219 1.00618 0.65778 0.0
H695 H 0.96526 0.02633 0.61293 0.0
C696 C 0.9266 0.95603 0.7342 0.0
C697 C 0.92031 0.92802 0.73521 0.0
C698 C 0.93982 0.96786 0.70828 0.0
C699 C 0.94701 0.95221 0.68219 0.0
C700 C 0.94035 0.92426 0.68315 0.0
C701 C 0.9274 0.91238 0.70918 0.0
C702 C 0.99282 0.96043 0.60999 0.0
C703 C 0.98799 0.98853 0.60099 0.0
C704 C 0.97985 0.94884 0.6362 0.0
C705 C 0.9613 0.96485 0.65426 0.0
C706 C 0.95654 0.99303 0.64515 0.0
C707 C 0.96972 1.00466 0.6191 0.0
H708 H 0.66263 0.1961 0.1153 0.0
H709 H 0.61579 0.1711 0.19548 0.0
H710 H 0.64202 0.16093 0.08496 0.0
H711 H 0.59509 0.13617 0.16516 0.0
H712 H 0.58929 0.0565 0.11227 0.0
H713 H 0.61118 0.0918 0.14084 0.0
H714 H 0.59548 0.15054 0.06387 0.0
H715 H 0.57352 0.11528 0.03523 0.0
C716 C 0.6479 0.18313 0.12639 0.0
C717 C 0.64079 0.18636 0.15775 0.0
C718 C 0.63601 0.16313 0.109 0.0
C719 C 0.61706 0.14571 0.12275 0.0
C720 C 0.60985 0.14909 0.15404 0.0
C721 C 0.62148 0.16927 0.17129 0.0
C722 C 0.59067 0.07687 0.10134 0.0
C723 C 0.57957 0.0831 0.07155 0.0
C724 C 0.60303 0.09714 0.1178 0.0
C725 C 0.60486 0.12398 0.10469 0.0
C726 C 0.59446 0.13001 0.07453 0.0
C727 C 0.58179 0.10983 0.0582 0.0
H728 H 0.37977 0.61048 0.36023 0.0
H729 H 0.43133 0.55249 0.30981 0.0
H730 H 0.40742 0.59962 0.40727 0.0
H731 H 0.45899 0.54181 0.35653 0.0
H732 H 0.48879 0.51163 0.45227 0.0
H733 H 0.45579 0.52019 0.40988 0.0
H734 H 0.45621 0.608 0.423 0.0
H735 H 0.48927 0.59937 0.46574 0.0
C736 C 0.39673 0.59509 0.3594 0.0
C737 C 0.40348 0.58233 0.33146 0.0
C738 C 0.41268 0.5891 0.38616 0.0
C739 C 0.4354 0.56997 0.3855 0.0
C740 C 0.44148 0.55648 0.35781 0.0
C741 C 0.42576 0.56269 0.33105 0.0
C742 C 0.48171 0.53276 0.44626 0.0
C743 C 0.49172 0.55489 0.46208 0.0
C744 C 0.46288 0.53764 0.42194 0.0
C745 C 0.45353 0.56475 0.41305 0.0
C746 C 0.4629 0.58687 0.42954 0.0
C747 C 0.48193 0.58198 0.45381 0.0
H748 H 0.21697 0.31412 0.88688 0.0
H749 H 0.12975 0.31896 0.90328 0.0
H750 H 0.22296 0.34868 0.92571 0.0
H751 H 0.13552 0.35378 0.94149 0.0
H752 H 0.20266 0.44534 0.93399 0.0
H753 H 0.20952 0.39791 0.91786 0.0
H754 H 0.15352 0.37137 0.98906 0.0
H755 H 0.14577 0.41898 1.00415 0.0
C756 C 0.19922 0.32174 0.8997 0.0
C757 C 0.17282 0.31422 0.89181 0.0
C758 C 0.20263 0.34172 0.92171 0.0
C759 C 0.1797 0.35437 0.93624 0.0
C760 C 0.15368 0.34444 0.93086 0.0
C761 C 0.15028 0.32459 0.9088 0.0
C762 C 0.19239 0.42926 0.9467 0.0
C763 C 0.17339 0.43597 0.97004 0.0
C764 C 0.19653 0.40198 0.93772 0.0
C765 C 0.18172 0.3809 0.95191 0.0
C766 C 0.16495 0.38721 0.97743 0.0
C767 C 0.16076 0.41449 0.98632 0.0
H768 H 0.74577 0.96468 0.94249 0.0
H769 H 0.70553 0.89004 0.92481 0.0
H770 H 0.70247 0.98597 0.96115 0.0
H771 H 0.6623 0.9113 0.94344 0.0
H772 H 0.58416 0.97114 0.94159 0.0
H773 H 0.6278 0.9484 0.92666 0.0
H774 H 0.66757 0.98365 1.00413 0.0
H775 H 0.62346 1.00627 1.01934 0.0
C776 C 0.72773 0.95275 0.94253 0.0
C777 C 0.72943 0.92552 0.93194 0.0
C778 C 0.70284 0.96493 0.95355 0.0
C779 C 0.6786 0.95052 0.95388 0.0
C780 C 0.68033 0.92326 0.94341 0.0
C781 C 0.7053 0.91092 0.93288 0.0
C782 C 0.60213 0.97392 0.95566 0.0
C783 C 0.60011 0.9906 0.98174 0.0
C784 C 0.62727 0.96072 0.94713 0.0
C785 C 0.65151 0.96404 0.96405 0.0
C786 C 0.64951 0.98068 0.9903 0.0
C787 C 0.62414 0.99354 0.99919 0.0
H788 H 0.85594 0.27103 0.32687 0.0
H789 H 0.83635 0.18868 0.30288 0.0
H790 H 0.89421 0.25145 0.35883 0.0
H791 H 0.87524 0.16943 0.33374 0.0
H792 H 0.95718 0.14466 0.3801 0.0
H793 H 0.92813 0.16886 0.34024 0.0
H794 H 0.89181 0.22117 0.40971 0.0
H795 H 0.91977 0.19639 0.44982 0.0
C796 C 0.85997 0.24882 0.328 0.0
C797 C 0.8427 0.23143 0.31267 0.0
C798 C 0.88198 0.23768 0.34617 0.0
C799 C 0.8875 0.20897 0.34889 0.0
C800 C 0.87155 0.19168 0.33181 0.0
C801 C 0.84929 0.20277 0.31401 0.0
C802 C 0.94303 0.16133 0.38694 0.0
C803 C 0.94058 0.16825 0.41836 0.0
C804 C 0.92657 0.17527 0.36404 0.0
C805 C 0.90772 0.19677 0.37195 0.0
C806 C 0.90642 0.20485 0.40293 0.0
C807 C 0.92254 0.19065 0.42592 0.0
H808 H 0.21184 0.55769 0.1563 0.0
H809 H 0.18772 0.64267 0.13047 0.0
H810 H 0.16802 0.54345 0.1374 0.0
H811 H 0.14381 0.62838 0.11149 0.0
H812 H 0.08274 0.58654 0.04872 0.0
H813 H 0.12553 0.60245 0.06917 0.0
H814 H 0.11935 0.54702 0.14968 0.0
H815 H 0.07699 0.53071 0.12883 0.0
C816 C 0.19704 0.57338 0.14694 0.0
C817 C 0.20327 0.60132 0.14495 0.0
C818 C 0.17192 0.56522 0.13609 0.0
C819 C 0.15241 0.58479 0.12298 0.0
C820 C 0.15856 0.61275 0.12108 0.0
C821 C 0.18371 0.62093 0.13196 0.0
C822 C 0.09056 0.57784 0.07081 0.0
C823 C 0.07671 0.55728 0.08712 0.0
C824 C 0.11494 0.58706 0.08263 0.0
C825 C 0.12591 0.57591 0.111 0.0
C826 C 0.11167 0.55572 0.12755 0.0
C827 C 0.08732 0.54652 0.11573 0.0
H828 H 0.26553 0.39424 0.70174 0.0
H829 H 0.2403 0.37371 0.6095 0.0
H830 H 0.29909 0.42418 0.67928 0.0
H831 H 0.27491 0.40261 0.58707 0.0
H832 H 0.32981 0.46873 0.55352 0.0
H833 H 0.29014 0.44911 0.57854 0.0
H834 H 0.34227 0.41508 0.65362 0.0
H835 H 0.38167 0.43473 0.6288 0.0
C836 C 0.26682 0.39642 0.67665 0.0
C837 C 0.25031 0.38141 0.65741 0.0
C838 C 0.28632 0.41335 0.66379 0.0
C839 C 0.28989 0.41555 0.63142 0.0
C840 C 0.27256 0.40153 0.61211 0.0
C841 C 0.25296 0.38467 0.62497 0.0
C842 C 0.33267 0.45727 0.57553 0.0
C843 C 0.35887 0.45315 0.58912 0.0
C844 C 0.30999 0.44602 0.58981 0.0
C845 C 0.31307 0.43041 0.61797 0.0
C846 C 0.33908 0.42734 0.63219 0.0
C847 C 0.36171 0.43862 0.61795 0.0
H848 H 0.96345 0.75226 0.93473 0.0
H849 H 0.88674 0.7126 0.93803 0.0
H850 H 0.98732 0.70975 0.95466 0.0
H851 H 0.91064 0.66975 0.9574 0.0
H852 H 0.95709 0.60154 1.01614 0.0
H853 H 0.93313 0.64466 0.99806 0.0
H854 H 1.00397 0.66526 0.94397 0.0
H855 H 0.02819 0.62244 0.96292 0.0
C856 C 0.9516 0.7344 0.9394 0.0
C857 C 0.92298 0.73618 0.93447 0.0
C858 C 0.96542 0.70975 0.95084 0.0
C859 C 0.95125 0.68572 0.95767 0.0
C860 C 0.92254 0.68761 0.95302 0.0
C861 C 0.90868 0.71237 0.94177 0.0
C862 C 0.96769 0.61527 1.00047 0.0
C863 C 0.99479 0.60825 0.99117 0.0
C864 C 0.95375 0.64014 0.98982 0.0
C865 C 0.96632 0.65899 0.96934 0.0
C866 C 0.99348 0.65187 0.96009 0.0
C867 C 1.00746 0.62703 0.97085 0.0
H868 H 0.44829 0.71969 0.11038 0.0
H869 H 0.37335 0.77142 0.11447 0.0
H870 H 0.47376 0.76038 0.09772 0.0
H871 H 0.39884 0.81197 0.10093 0.0
H872 H 0.45465 0.87588 0.05503 0.0
H873 H 0.42905 0.83409 0.05861 0.0
H874 H 0.48323 0.80077 0.13199 0.0
H875 H 0.50817 0.84273 0.12942 0.0
C876 C 0.43719 0.73967 0.10823 0.0
C877 C 0.40885 0.74234 0.11395 0.0
C878 C 0.45178 0.76292 0.10091 0.0
C879 C 0.43829 0.78929 0.09874 0.0
C880 C 0.4097 0.79182 0.10233 0.0
C881 C 0.39511 0.76857 0.10998 0.0
C882 C 0.46098 0.85977 0.07214 0.0
C883 C 0.48347 0.86278 0.09203 0.0
C884 C 0.4464 0.83581 0.074 0.0
C885 C 0.45429 0.8142 0.09542 0.0
C886 C 0.477 0.81695 0.11488 0.0
C887 C 0.49133 0.841 0.11334 0.0
H888 H 0.12812 0.13308 0.69659 0.0
H889 H 0.14305 0.18044 0.6116 0.0
H890 H 0.109 0.0973 0.66615 0.0
H891 H 0.12507 0.14407 0.58144 0.0
H892 H 0.11832 0.05766 0.54037 0.0
H893 H 0.13834 0.09244 0.57174 0.0
H894 H 0.06627 0.09551 0.62964 0.0
H895 H 0.04605 0.061 0.59802 0.0
C896 C 0.12734 0.13594 0.67151 0.0
C897 C 0.13717 0.15973 0.65662 0.0
C898 C 0.11649 0.11538 0.65413 0.0
C899 C 0.11566 0.11799 0.62153 0.0
C900 C 0.12582 0.14145 0.60657 0.0
C901 C 0.13627 0.1622 0.6239 0.0
C902 C 0.10682 0.06575 0.55984 0.0
C903 C 0.0807 0.05673 0.56685 0.0
C904 C 0.11821 0.08566 0.57767 0.0
C905 C 0.10383 0.09653 0.60307 0.0
C906 C 0.07783 0.08723 0.61031 0.0
C907 C 0.06625 0.06764 0.59217 0.0
H908 H 0.59471 0.36512 0.34086 0.0
H909 H 0.67389 0.38975 0.37073 0.0
H910 H 0.57243 0.39798 0.37531 0.0
H911 H 0.65175 0.42082 0.40695 0.0
H912 H 0.60429 0.49076 0.4535 0.0
H913 H 0.62591 0.46209 0.41404 0.0
H914 H 0.56395 0.40278 0.42826 0.0
H915 H 0.54179 0.43206 0.46638 0.0
C916 C 0.60741 0.37758 0.35464 0.0
C917 C 0.63615 0.37445 0.35316 0.0
C918 C 0.59461 0.39616 0.37485 0.0
C919 C 0.61022 0.41188 0.39439 0.0
C920 C 0.63895 0.40931 0.39221 0.0
C921 C 0.65171 0.39105 0.37171 0.0
C922 C 0.59536 0.47158 0.44814 0.0
C923 C 0.57133 0.4637 0.46299 0.0
C924 C 0.60778 0.45505 0.42557 0.0
C925 C 0.59668 0.43006 0.41772 0.0
C926 C 0.57279 0.42214 0.433 0.0
C927 C 0.56018 0.43884 0.45514 0.0
loop_
_geom_bond_atom_site_label_1
_geom_bond_atom_site_label_2
_geom_bond_distance
_geom_bond_site_symmetry_2
_ccdc_geom_bond_type
C0 C1 1.384 . S
C0 H13 0.947 . S
C0 C35 1.382 . S
C1 C0 1.384 . S
C1 C2 1.378 . S
C2 C1 1.378 . S
C2 C3 1.378 . S
C2 H14 0.952 . S
C3 C2 1.378 . S
C3 H15 0.950 . S
C3 C34 1.383 . S
H4 C23 0.947 . S
H5 C24 0.946 . S
H6 C26 0.953 . S
H7 C27 0.945 . S
H8 C29 0.952 . S
H9 C30 0.949 . S
H10 C32 0.950 . S
H11 C33 0.948 . S
H12 C35 0.951 . S
H13 C0 0.947 . S
H14 C2 0.952 . S
H15 C3 0.950 . S
N16 C19 1.382 . S
N16 C21 1.363 . S
N17 C19 1.371 . S
N17 C20 1.372 . S
N18 C20 1.361 . S
N18 C21 1.377 . S
C19 N16 1.382 . S
C19 N17 1.371 . S
C19 C22 1.480 . S
C20 N17 1.372 . S
C20 N18 1.361 . S
C20 C28 1.457 . S
C21 N16 1.363 . S
C21 N18 1.377 . S
C21 C34 1.479 . S
C22 C19 1.480 . S
C22 C23 1.383 . S
C22 C27 1.385 . S
C23 H4 0.947 . S
C23 C22 1.383 . S
C23 C24 1.388 . S
C24 H5 0.946 . S
C24 C23 1.388 . S
C24 C25 1.384 . S
C25 C24 1.384 . S
C25 C26 1.377 . S
C26 H6 0.953 . S
C26 C25 1.377 . S
C26 C27 1.369 . S
C27 H7 0.945 . S
C27 C22 1.385 . S
C27 C26 1.369 . S
C28 C20 1.457 . S
C28 C29 1.372 . S
C28 C33 1.364 . S
C29 H8 0.952 . S
C29 C28 1.372 . S
C29 C30 1.389 . S
C30 H9 0.949 . S
C30 C29 1.389 . S
C30 C31 1.387 . S
C31 C30 1.387 . S
C31 C32 1.372 . S
C32 H10 0.950 . S
C32 C31 1.372 . S
C32 C33 1.379 . S
C33 H11 0.948 . S
C33 C28 1.364 . S
C33 C32 1.379 . S
C34 C3 1.383 . S
C34 C21 1.479 . S
C34 C35 1.398 . S
C35 C0 1.382 . S
C35 H12 0.951 . S
C35 C34 1.398 . S
C36 C37 1.384 . S
C36 H49 0.947 . S
C36 C71 1.382 . S
C37 C36 1.384 . S
C37 C38 1.378 . S
C38 C37 1.378 . S
C38 C39 1.378 . S
C38 H50 0.952 . S
C39 C38 1.378 . S
C39 H51 0.950 . S
C39 C70 1.383 . S
H40 C59 0.947 . S
H41 C60 0.946 . S
H42 C62 0.953 . S
H43 C63 0.945 . S
H44 C65 0.952 . S
H45 C66 0.949 . S
H46 C68 0.950 . S
H47 C69 0.948 . S
H48 C71 0.951 . S
H49 C36 0.947 . S
H50 C38 0.952 . S
H51 C39 0.950 . S
N52 C55 1.382 . S
N52 C57 1.363 . S
N53 C55 1.371 . S
N53 C56 1.372 . S
N54 C56 1.361 . S
N54 C57 1.377 . S
C55 N52 1.382 . S
C55 N53 1.371 . S
C55 C58 1.480 . S
C56 N53 1.372 . S
C56 N54 1.361 . S
C56 C64 1.457 . S
C57 N52 1.363 . S
C57 N54 1.377 . S
C57 C70 1.479 . S
C58 C55 1.480 . S
C58 C59 1.383 . S
C58 C63 1.385 . S
C59 H40 0.947 . S
C59 C58 1.383 . S
C59 C60 1.388 . S
C60 H41 0.946 . S
C60 C59 1.388 . S
C60 C61 1.384 . S
C61 C60 1.384 . S
C61 C62 1.377 . S
C62 H42 0.953 . S
C62 C61 1.377 . S
C62 C63 1.369 . S
C63 H43 0.945 . S
C63 C58 1.385 . S
C63 C62 1.369 . S
C64 C56 1.457 . S
C64 C65 1.372 . S
C64 C69 1.364 . S
C65 H44 0.952 . S
C65 C64 1.372 . S
C65 C66 1.389 . S
C66 H45 0.949 . S
C66 C65 1.389 . S
C66 C67 1.387 . S
C67 C66 1.387 . S
C67 C68 1.372 . S
C68 H46 0.950 . S
C68 C67 1.372 . S
C68 C69 1.379 . S
C69 H47 0.948 . S
C69 C64 1.364 . S
C69 C68 1.379 . S
C70 C39 1.383 . S
C70 C57 1.479 . S
C70 C71 1.398 . S
C71 C36 1.382 . S
C71 H48 0.951 . S
C71 C70 1.398 . S
C72 C73 1.384 . S
C72 H85 0.947 . S
C72 C107 1.382 . S
C73 C72 1.384 . S
C73 C74 1.378 . S
C74 C73 1.378 . S
C74 C75 1.378 . S
C74 H86 0.952 . S
C75 C74 1.378 . S
C75 H87 0.950 . S
C75 C106 1.383 . S
H76 C95 0.947 . S
H77 C96 0.946 . S
H78 C98 0.953 . S
H79 C99 0.945 . S
H80 C101 0.952 . S
H81 C102 0.949 . S
H82 C104 0.950 . S
H83 C105 0.948 . S
H84 C107 0.951 . S
H85 C72 0.947 . S
H86 C74 0.952 . S
H87 C75 0.950 . S
N88 C91 1.382 . S
N88 C93 1.363 . S
N89 C91 1.371 . S
N89 C92 1.372 . S
N90 C92 1.361 . S
N90 C93 1.377 . S
C91 N88 1.382 . S
C91 N89 1.371 . S
C91 C94 1.480 . S
C92 N89 1.372 . S
C92 N90 1.361 . S
C92 C100 1.457 . S
C93 N88 1.363 . S
C93 N90 1.377 . S
C93 C106 1.479 . S
C94 C91 1.480 . S
C94 C95 1.383 . S
C94 C99 1.385 . S
C95 H76 0.947 . S
C95 C94 1.383 . S
C95 C96 1.388 . S
C96 H77 0.946 . S
C96 C95 1.388 . S
C96 C97 1.384 . S
C97 C96 1.384 . S
C97 C98 1.377 . S
C98 H78 0.953 . S
C98 C97 1.377 . S
C98 C99 1.369 . S
C99 H79 0.945 . S
C99 C94 1.385 . S
C99 C98 1.369 . S
C100 C92 1.457 . S
C100 C101 1.372 . S
C100 C105 1.364 . S
C101 H80 0.952 . S
C101 C100 1.372 . S
C101 C102 1.389 . S
C102 H81 0.949 . S
C102 C101 1.389 . S
C102 C103 1.387 . S
C103 C102 1.387 . S
C103 C104 1.372 . S
C104 H82 0.950 . S
C104 C103 1.372 . S
C104 C105 1.379 . S
C105 H83 0.948 . S
C105 C100 1.364 . S
C105 C104 1.379 . S
C106 C75 1.383 . S
C106 C93 1.479 . S
C106 C107 1.398 . S
C107 C72 1.382 . S
C107 H84 0.951 . S
C107 C106 1.398 . S
C108 C109 1.384 . S
C108 H121 0.947 . S
C108 C143 1.382 . S
C109 C108 1.384 . S
C109 C110 1.378 . S
C110 C109 1.378 . S
C110 C111 1.378 . S
C110 H122 0.952 . S
C111 C110 1.378 . S
C111 H123 0.950 . S
C111 C142 1.383 . S
H112 C131 0.947 . S
H113 C132 0.946 . S
H114 C134 0.953 . S
H115 C135 0.945 . S
H116 C137 0.952 . S
H117 C138 0.949 . S
H118 C140 0.950 . S
H119 C141 0.948 . S
H120 C143 0.951 . S
H121 C108 0.947 . S
H122 C110 0.952 . S
H123 C111 0.950 . S
N124 C127 1.382 . S
N124 C129 1.363 . S
N125 C127 1.371 . S
N125 C128 1.372 . S
N126 C128 1.361 . S
N126 C129 1.377 . S
C127 N124 1.382 . S
C127 N125 1.371 . S
C127 C130 1.480 . S
C128 N125 1.372 . S
C128 N126 1.361 . S
C128 C136 1.457 . S
C129 N124 1.363 . S
C129 N126 1.377 . S
C129 C142 1.479 . S
C130 C127 1.480 . S
C130 C131 1.383 . S
C130 C135 1.385 . S
C131 H112 0.947 . S
C131 C130 1.383 . S
C131 C132 1.388 . S
C132 H113 0.946 . S
C132 C131 1.388 . S
C132 C133 1.384 . S
C133 C132 1.384 . S
C133 C134 1.377 . S
C134 H114 0.953 . S
C134 C133 1.377 . S
C134 C135 1.369 . S
C135 H115 0.945 . S
C135 C130 1.385 . S
C135 C134 1.369 . S
C136 C128 1.457 . S
C136 C137 1.372 . S
C136 C141 1.364 . S
C137 H116 0.952 . S
C137 C136 1.372 . S
C137 C138 1.389 . S
C138 H117 0.949 . S
C138 C137 1.389 . S
C138 C139 1.387 . S
C139 C138 1.387 . S
C139 C140 1.372 . S
C140 H118 0.950 . S
C140 C139 1.372 . S
C140 C141 1.379 . S
C141 H119 0.948 . S
C141 C136 1.364 . S
C141 C140 1.379 . S
C142 C111 1.383 . S
C142 C129 1.479 . S
C142 C143 1.398 . S
C143 C108 1.382 . S
C143 H120 0.951 . S
C143 C142 1.398 . S
C144 C145 1.384 . S
C144 H157 0.947 . S
C144 C179 1.382 . S
C145 C144 1.384 . S
C145 C146 1.378 . S
C146 C145 1.378 . S
C146 C147 1.378 . S
C146 H158 0.952 . S
C147 C146 1.378 . S
C147 H159 0.950 . S
C147 C178 1.383 . S
H148 C167 0.947 . S
H149 C168 0.946 . S
H150 C170 0.953 . S
H151 C171 0.945 . S
H152 C173 0.952 . S
H153 C174 0.949 . S
H154 C176 0.950 . S
H155 C177 0.948 . S
H156 C179 0.951 . S
H157 C144 0.947 . S
H158 C146 0.952 . S
H159 C147 0.950 . S
N160 C163 1.382 . S
N160 C165 1.363 . S
N161 C163 1.371 . S
N161 C164 1.372 . S
N162 C164 1.361 . S
N162 C165 1.377 . S
C163 N160 1.382 . S
C163 N161 1.371 . S
C163 C166 1.480 . S
C164 N161 1.372 . S
C164 N162 1.361 . S
C164 C172 1.457 . S
C165 N160 1.363 . S
C165 N162 1.377 . S
C165 C178 1.479 . S
C166 C163 1.480 . S
C166 C167 1.383 . S
C166 C171 1.385 . S
C167 H148 0.947 . S
C167 C166 1.383 . S
C167 C168 1.388 . S
C168 H149 0.946 . S
C168 C167 1.388 . S
C168 C169 1.384 . S
C169 C168 1.384 . S
C169 C170 1.377 . S
C170 H150 0.953 . S
C170 C169 1.377 . S
C170 C171 1.369 . S
C171 H151 0.945 . S
C171 C166 1.385 . S
C171 C170 1.369 . S
C172 C164 1.457 . S
C172 C173 1.372 . S
C172 C177 1.364 . S
C173 H152 0.952 . S
C173 C172 1.372 . S
C173 C174 1.389 . S
C174 H153 0.949 . S
C174 C173 1.389 . S
C174 C175 1.387 . S
C175 C174 1.387 . S
C175 C176 1.372 . S
C176 H154 0.950 . S
C176 C175 1.372 . S
C176 C177 1.379 . S
C177 H155 0.948 . S
C177 C172 1.364 . S
C177 C176 1.379 . S
C178 C147 1.383 . S
C178 C165 1.479 . S
C178 C179 1.398 . S
C179 C144 1.382 . S
C179 H156 0.951 . S
C179 C178 1.398 . S
C180 C181 1.384 . S
C180 H193 0.947 . S
C180 C215 1.382 . S
C181 C180 1.384 . S
C181 C182 1.378 . S
C182 C181 1.378 . S
C182 C183 1.378 . S
C182 H194 0.952 . S
C183 C182 1.378 . S
C183 H195 0.950 . S
C183 C214 1.383 . S
H184 C203 0.947 . S
H185 C204 0.946 . S
H186 C206 0.953 . S
H187 C207 0.945 . S
H188 C209 0.952 . S
H189 C210 0.949 . S
H190 C212 0.950 . S
H191 C213 0.948 . S
H192 C215 0.951 . S
H193 C180 0.947 . S
H194 C182 0.952 . S
H195 C183 0.950 . S
N196 C199 1.382 . S
N196 C201 1.363 . S
N197 C199 1.371 . S
N197 C200 1.372 . S
N198 C200 1.361 . S
N198 C201 1.377 . S
C199 N196 1.382 . S
C199 N197 1.371 . S
C199 C202 1.480 . S
C200 N197 1.372 . S
C200 N198 1.361 . S
C200 C208 1.457 . S
C201 N196 1.363 . S
C201 N198 1.377 . S
C201 C214 1.479 . S
C202 C199 1.480 . S
C202 C203 1.383 . S
C202 C207 1.385 . S
C203 H184 0.947 . S
C203 C202 1.383 . S
C203 C204 1.388 . S
C204 H185 0.946 . S
C204 C203 1.388 . S
C204 C205 1.384 . S
C205 C204 1.384 . S
C205 C206 1.377 . S
C206 H186 0.953 . S
C206 C205 1.377 . S
C206 C207 1.369 . S
C207 H187 0.945 . S
C207 C202 1.385 . S
C207 C206 1.369 . S
C208 C200 1.457 . S
C208 C209 1.372 . S
C208 C213 1.364 . S
C209 H188 0.952 . S
C209 C208 1.372 . S
C209 C210 1.389 . S
C210 H189 0.949 . S
C210 C209 1.389 . S
C210 C211 1.387 . S
C211 C210 1.387 . S
C211 C212 1.372 . S
C212 H190 0.950 . S
C212 C211 1.372 . S
C212 C213 1.379 . S
C213 H191 0.948 . S
C213 C208 1.364 . S
C213 C212 1.379 . S
C214 C183 1.383 . S
C214 C201 1.479 . S
C214 C215 1.398 . S
C215 C180 1.382 . S
C215 H192 0.951 . S
C215 C214 1.398 . S
C216 C217 1.384 . S
C216 H229 0.947 . S
C216 C251 1.382 . S
C217 C216 1.384 . S
C217 C218 1.378 . S
C218 C217 1.378 . S
C218 C219 1.378 . S
C218 H230 0.952 . S
C219 C218 1.378 . S
C219 H231 0.950 . S
C219 C250 1.383 . S
H220 C239 0.947 . S
H221 C240 0.946 . S
H222 C242 0.953 . S
H223 C243 0.945 . S
H224 C245 0.952 . S
H225 C246 0.949 . S
H226 C248 0.950 . S
H227 C249 0.948 . S
H228 C251 0.951 . S
H229 C216 0.947 . S
H230 C218 0.952 . S
H231 C219 0.950 . S
N232 C235 1.382 . S
N232 C237 1.363 . S
N233 C235 1.371 . S
N233 C236 1.372 . S
N234 C236 1.361 . S
N234 C237 1.377 . S
C235 N232 1.382 . S
C235 N233 1.371 . S
C235 C238 1.480 . S
C236 N233 1.372 . S
C236 N234 1.361 . S
C236 C244 1.457 . S
C237 N232 1.363 . S
C237 N234 1.377 . S
C237 C250 1.479 . S
C238 C235 1.480 . S
C238 C239 1.383 . S
C238 C243 1.385 . S
C239 H220 0.947 . S
C239 C238 1.383 . S
C239 C240 1.388 . S
C240 H221 0.946 . S
C240 C239 1.388 . S
C240 C241 1.384 . S
C241 C240 1.384 . S
C241 C242 1.377 . S
C242 H222 0.953 . S
C242 C241 1.377 . S
C242 C243 1.369 . S
C243 H223 0.945 . S
C243 C238 1.385 . S
C243 C242 1.369 . S
C244 C236 1.457 . S
C244 C245 1.372 . S
C244 C249 1.364 . S
C245 H224 0.952 . S
C245 C244 1.372 . S
C245 C246 1.389 . S
C246 H225 0.949 . S
C246 C245 1.389 . S
C246 C247 1.387 . S
C247 C246 1.387 . S
C247 C248 1.372 . S
C248 H226 0.950 . S
C248 C247 1.372 . S
C248 C249 1.379 . S
C249 H227 0.948 . S
C249 C244 1.364 . S
C249 C248 1.379 . S
C250 C219 1.383 . S
C250 C237 1.479 . S
C250 C251 1.398 . S
C251 C216 1.382 . S
C251 H228 0.951 . S
C251 C250 1.398 . S
C252 C253 1.384 . S
C252 H265 0.947 . S
C252 C287 1.382 . S
C253 C252 1.384 . S
C253 C254 1.378 . S
C254 C253 1.378 . S
C254 C255 1.378 . S
C254 H266 0.952 . S
C255 C254 1.378 . S
C255 H267 0.950 . S
C255 C286 1.383 . S
H256 C275 0.947 . S
H257 C276 0.946 . S
H258 C278 0.953 . S
H259 C279 0.945 . S
H260 C281 0.952 . S
H261 C282 0.949 . S
H262 C284 0.950 . S
H263 C285 0.948 . S
H264 C287 0.951 . S
H265 C252 0.947 . S
H266 C254 0.952 . S
H267 C255 0.950 . S
N268 C271 1.382 . S
N268 C273 1.363 . S
N269 C271 1.371 . S
N269 C272 1.372 . S
N270 C272 1.361 . S
N270 C273 1.377 . S
C271 N268 1.382 . S
C271 N269 1.371 . S
C271 C274 1.480 . S
C272 N269 1.372 . S
C272 N270 1.361 . S
C272 C280 1.457 . S
C273 N268 1.363 . S
C273 N270 1.377 . S
C273 C286 1.479 . S
C274 C271 1.480 . S
C274 C275 1.383 . S
C274 C279 1.385 . S
C275 H256 0.947 . S
C275 C274 1.383 . S
C275 C276 1.388 . S
C276 H257 0.946 . S
C276 C275 1.388 . S
C276 C277 1.384 . S
C277 C276 1.384 . S
C277 C278 1.377 . S
C278 H258 0.953 . S
C278 C277 1.377 . S
C278 C279 1.369 . S
C279 H259 0.945 . S
C279 C274 1.385 . S
C279 C278 1.369 . S
C280 C272 1.457 . S
C280 C281 1.372 . S
C280 C285 1.364 . S
C281 H260 0.952 . S
C281 C280 1.372 . S
C281 C282 1.389 . S
C282 H261 0.949 . S
C282 C281 1.389 . S
C282 C283 1.387 . S
C283 C282 1.387 . S
C283 C284 1.372 . S
C284 H262 0.950 . S
C284 C283 1.372 . S
C284 C285 1.379 . S
C285 H263 0.948 . S
C285 C280 1.364 . S
C285 C284 1.379 . S
C286 C255 1.383 . S
C286 C273 1.479 . S
C286 C287 1.398 . S
C287 C252 1.382 . S
C287 H264 0.951 . S
C287 C286 1.398 . S
Nd288 C290 2.836 . S
Nd288 O308 2.500 . S
Nd288 O309 2.492 . S
Nd288 O310 2.487 1_565 S
Nd288 O311 2.682 1_565 S
Nd288 O312 2.410 . S
Nd288 O317 2.414 1_455 S
Nd288 O319 2.424 1_565 S
Nd289 C299 2.836 . S
Nd289 O311 2.414 1_655 S
Nd289 O313 2.424 1_545 S
Nd289 O314 2.500 . S
Nd289 O315 2.492 . S
Nd289 O316 2.487 1_545 S
Nd289 O317 2.682 1_545 S
Nd289 O318 2.410 . S
C290 Nd288 2.836 . S
C290 C291 1.498 . S
C290 O308 1.258 . S
C290 O309 1.239 . S
C291 C290 1.498 . S
C291 C292 1.366 . S
C291 C296 1.407 . S
C292 C291 1.366 . S
C292 C293 1.392 . S
C292 H320 0.930 . S
C293 C292 1.392 . S
C293 C294 1.398 . S
C293 H321 0.929 . S
C294 C293 1.398 . S
C294 C295 1.352 . S
C295 C294 1.352 . S
C295 C296 1.384 . S
C295 H322 0.930 . S
C296 C291 1.407 . S
C296 C295 1.384 . S
C296 H323 0.929 . S
C297 O310 1.241 . S
C297 O311 1.273 . S
C298 O312 1.251 1_655 S
C298 O313 1.268 . S
C299 Nd289 2.836 . S
C299 C300 1.498 . S
C299 O314 1.258 . S
C299 O315 1.239 . S
C300 C299 1.498 . S
C300 C301 1.366 . S
C300 C305 1.407 . S
C301 C300 1.366 . S
C301 C302 1.392 . S
C301 H324 0.930 . S
C302 C301 1.392 . S
C302 C303 1.398 . S
C302 H325 0.929 . S
C303 C302 1.398 . S
C303 C304 1.352 . S
C304 C303 1.352 . S
C304 C305 1.384 . S
C304 H326 0.930 . S
C305 C300 1.407 . S
C305 C304 1.384 . S
C305 H327 0.929 . S
C306 O316 1.241 . S
C306 O317 1.273 . S
C307 O318 1.251 1_455 S
C307 O319 1.268 . S
O308 Nd288 2.500 . S
O308 C290 1.258 . S
O309 Nd288 2.492 . S
O309 C290 1.239 . S
O310 Nd288 2.487 1_545 S
O310 C297 1.241 . S
O311 Nd288 2.682 1_545 S
O311 Nd289 2.414 1_455 S
O311 C297 1.273 . S
O312 Nd288 2.410 . S
O312 C298 1.251 1_455 S
O313 Nd289 2.424 1_565 S
O313 C298 1.268 . S
O314 Nd289 2.500 . S
O314 C299 1.258 . S
O315 Nd289 2.492 . S
O315 C299 1.239 . S
O316 Nd289 2.487 1_565 S
O316 C306 1.241 . S
O317 Nd288 2.414 1_655 S
O317 Nd289 2.682 1_565 S
O317 C306 1.273 . S
O318 Nd289 2.410 . S
O318 C307 1.251 1_655 S
O319 Nd288 2.424 1_545 S
O319 C307 1.268 . S
H320 C292 0.930 . S
H321 C293 0.929 . S
H322 C295 0.930 . S
H323 C296 0.929 . S
H324 C301 0.930 . S
H325 C302 0.929 . S
H326 C304 0.930 . S
H327 C305 0.929 . S
Nd328 C330 2.836 . S
Nd328 O348 2.500 . S
Nd328 O349 2.492 . S
Nd328 O350 2.487 1_565 S
Nd328 O351 2.682 1_565 S
Nd328 O352 2.410 1_554 S
Nd328 O357 2.414 1_554 S
Nd328 O359 2.424 1_565 S
Nd329 C339 2.836 . S
Nd329 O351 2.414 1_556 S
Nd329 O353 2.424 1_545 S
Nd329 O354 2.500 . S
Nd329 O355 2.492 . S
Nd329 O356 2.487 1_545 S
Nd329 O357 2.682 1_545 S
Nd329 O358 2.410 1_556 S
C330 Nd328 2.836 . S
C330 C331 1.498 . S
C330 O348 1.258 . S
C330 O349 1.239 . S
C331 C330 1.498 . S
C331 C332 1.366 . S
C331 C336 1.407 . S
C332 C331 1.366 . S
C332 C333 1.392 . S
C332 H360 0.930 . S
C333 C332 1.392 . S
C333 C334 1.398 . S
C333 H361 0.929 . S
C334 C333 1.398 . S
C334 C335 1.352 . S
C335 C334 1.352 . S
C335 C336 1.384 . S
C335 H362 0.930 . S
C336 C331 1.407 . S
C336 C335 1.384 . S
C336 H363 0.929 . S
C337 O350 1.241 . S
C337 O351 1.273 . S
C338 O352 1.251 . S
C338 O353 1.268 . S
C339 Nd329 2.836 . S
C339 C340 1.498 . S
C339 O354 1.258 . S
C339 O355 1.239 . S
C340 C339 1.498 . S
C340 C341 1.366 . S
C340 C345 1.407 . S
C341 C340 1.366 . S
C341 C342 1.392 . S
C341 H364 0.930 . S
C342 C341 1.392 . S
C342 C343 1.398 . S
C342 H365 0.929 . S
C343 C342 1.398 . S
C343 C344 1.352 . S
C344 C343 1.352 . S
C344 C345 1.384 . S
C344 H366 0.930 . S
C345 C340 1.407 . S
C345 C344 1.384 . S
C345 H367 0.929 . S
C346 O356 1.241 . S
C346 O357 1.273 . S
C347 O358 1.251 . S
C347 O359 1.268 . S
O348 Nd328 2.500 . S
O348 C330 1.258 . S
O349 Nd328 2.492 . S
O349 C330 1.239 . S
O350 Nd328 2.487 1_545 S
O350 C337 1.241 . S
O351 Nd328 2.682 1_545 S
O351 Nd329 2.414 1_554 S
O351 C337 1.273 . S
O352 Nd328 2.410 1_556 S
O352 C338 1.251 . S
O353 Nd329 2.424 1_565 S
O353 C338 1.268 . S
O354 Nd329 2.500 . S
O354 C339 1.258 . S
O355 Nd329 2.492 . S
O355 C339 1.239 . S
O356 Nd329 2.487 1_565 S
O356 C346 1.241 . S
O357 Nd328 2.414 1_556 S
O357 Nd329 2.682 1_565 S
O357 C346 1.273 . S
O358 Nd329 2.410 1_554 S
O358 C347 1.251 . S
O359 Nd328 2.424 1_545 S
O359 C347 1.268 . S
H360 C332 0.930 . S
H361 C333 0.929 . S
H362 C335 0.930 . S
H363 C336 0.929 . S
H364 C341 0.930 . S
H365 C342 0.929 . S
H366 C344 0.930 . S
H367 C345 0.929 . S
Nd368 C370 2.836 . S
Nd368 O388 2.500 . S
Nd368 O389 2.492 . S
Nd368 O390 2.487 . S
Nd368 O391 2.682 . S
Nd368 O392 2.410 . S
Nd368 O397 2.414 . S
Nd368 O399 2.424 . S
Nd369 C379 2.836 . S
Nd369 O391 2.414 . S
Nd369 O393 2.424 . S
Nd369 O394 2.500 . S
Nd369 O395 2.492 . S
Nd369 O396 2.487 . S
Nd369 O397 2.682 . S
Nd369 O398 2.410 . S
C370 Nd368 2.836 . S
C370 C371 1.498 . S
C370 O388 1.258 . S
C370 O389 1.239 . S
C371 C370 1.498 . S
C371 C372 1.366 . S
C371 C376 1.407 . S
C372 C371 1.366 . S
C372 C373 1.392 . S
C372 H400 0.930 . S
C373 C372 1.392 . S
C373 C374 1.398 . S
C373 H401 0.929 . S
C374 C373 1.398 . S
C374 C375 1.352 . S
C375 C374 1.352 . S
C375 C376 1.384 . S
C375 H402 0.930 . S
C376 C371 1.407 . S
C376 C375 1.384 . S
C376 H403 0.929 . S
C377 O390 1.241 . S
C377 O391 1.273 . S
C378 O392 1.251 . S
C378 O393 1.268 . S
C379 Nd369 2.836 . S
C379 C380 1.498 . S
C379 O394 1.258 . S
C379 O395 1.239 . S
C380 C379 1.498 . S
C380 C381 1.366 . S
C380 C385 1.407 . S
C381 C380 1.366 . S
C381 C382 1.392 . S
C381 H404 0.930 . S
C382 C381 1.392 . S
C382 C383 1.398 . S
C382 H405 0.929 . S
C383 C382 1.398 . S
C383 C384 1.352 . S
C384 C383 1.352 . S
C384 C385 1.384 . S
C384 H406 0.930 . S
C385 C380 1.407 . S
C385 C384 1.384 . S
C385 H407 0.929 . S
C386 O396 1.241 . S
C386 O397 1.273 . S
C387 O398 1.251 . S
C387 O399 1.268 . S
O388 Nd368 2.500 . S
O388 C370 1.258 . S
O389 Nd368 2.492 . S
O389 C370 1.239 . S
O390 Nd368 2.487 . S
O390 C377 1.241 . S
O391 Nd368 2.682 . S
O391 Nd369 2.414 . S
O391 C377 1.273 . S
O392 Nd368 2.410 . S
O392 C378 1.251 . S
O393 Nd369 2.424 . S
O393 C378 1.268 . S
O394 Nd369 2.500 . S
O394 C379 1.258 . S
O395 Nd369 2.492 . S
O395 C379 1.239 . S
O396 Nd369 2.487 . S
O396 C386 1.241 . S
O397 Nd368 2.414 . S
O397 Nd369 2.682 . S
O397 C386 1.273 . S
O398 Nd369 2.410 . S
O398 C387 1.251 . S
O399 Nd368 2.424 . S
O399 C387 1.268 . S
H400 C372 0.930 . S
H401 C373 0.929 . S
H402 C375 0.930 . S
H403 C376 0.929 . S
H404 C381 0.930 . S
H405 C382 0.929 . S
H406 C384 0.930 . S
H407 C385 0.929 . S
Nd408 C410 2.836 . S
Nd408 O428 2.500 . S
Nd408 O429 2.492 . S
Nd408 O430 2.487 1_655 S
Nd408 O431 2.682 1_655 S
Nd408 O432 2.410 . S
Nd408 O437 2.414 1_554 S
Nd408 O439 2.424 1_655 S
Nd409 C419 2.836 . S
Nd409 O431 2.414 1_556 S
Nd409 O433 2.424 1_455 S
Nd409 O434 2.500 . S
Nd409 O435 2.492 . S
Nd409 O436 2.487 1_455 S
Nd409 O437 2.682 1_455 S
Nd409 O438 2.410 . S
C410 Nd408 2.836 . S
C410 C411 1.498 . S
C410 O428 1.258 . S
C410 O429 1.239 . S
C411 C410 1.498 . S
C411 C412 1.366 . S
C411 C416 1.407 . S
C412 C411 1.366 . S
C412 C413 1.392 . S
C412 H440 0.930 . S
C413 C412 1.392 . S
C413 C414 1.398 . S
C413 H441 0.929 . S
C414 C413 1.398 . S
C414 C415 1.352 . S
C415 C414 1.352 . S
C415 C416 1.384 . S
C415 H442 0.930 . S
C416 C411 1.407 . S
C416 C415 1.384 . S
C416 H443 0.929 . S
C417 O430 1.241 . S
C417 O431 1.273 . S
C418 O432 1.251 1_556 S
C418 O433 1.268 . S
C419 Nd409 2.836 . S
C419 C420 1.498 . S
C419 O434 1.258 . S
C419 O435 1.239 . S
C420 C419 1.498 . S
C420 C421 1.366 . S
C420 C425 1.407 . S
C421 C420 1.366 . S
C421 C422 1.392 . S
C421 H444 0.930 . S
C422 C421 1.392 . S
C422 C423 1.398 . S
C422 H445 0.929 . S
C423 C422 1.398 . S
C423 C424 1.352 . S
C424 C423 1.352 . S
C424 C425 1.384 . S
C424 H446 0.930 . S
C425 C420 1.407 . S
C425 C424 1.384 . S
C425 H447 0.929 . S
C426 O436 1.241 . S
C426 O437 1.273 . S
C427 O438 1.251 1_554 S
C427 O439 1.268 . S
O428 Nd408 2.500 . S
O428 C410 1.258 . S
O429 Nd408 2.492 . S
O429 C410 1.239 . S
O430 Nd408 2.487 1_455 S
O430 C417 1.241 . S
O431 Nd408 2.682 1_455 S
O431 Nd409 2.414 1_554 S
O431 C417 1.273 . S
O432 Nd408 2.410 . S
O432 C418 1.251 1_554 S
O433 Nd409 2.424 1_655 S
O433 C418 1.268 . S
O434 Nd409 2.500 . S
O434 C419 1.258 . S
O435 Nd409 2.492 . S
O435 C419 1.239 . S
O436 Nd409 2.487 1_655 S
O436 C426 1.241 . S
O437 Nd408 2.414 1_556 S
O437 Nd409 2.682 1_655 S
O437 C426 1.273 . S
O438 Nd409 2.410 . S
O438 C427 1.251 1_556 S
O439 Nd408 2.424 1_455 S
O439 C427 1.268 . S
H440 C412 0.930 . S
H441 C413 0.929 . S
H442 C415 0.930 . S
H443 C416 0.929 . S
H444 C421 0.930 . S
H445 C422 0.929 . S
H446 C424 0.930 . S
H447 C425 0.929 . S
H448 C456 0.950 . S
H449 C461 0.950 . S
H450 C458 0.950 . S
H451 C460 0.950 . S
H452 C462 0.950 . S
H453 C464 0.950 . S
H454 C466 0.950 . S
H455 C467 0.950 . S
C456 H448 0.950 . S
C456 C457 1.386 . S
C456 C458 1.391 . S
C457 C456 1.386 . S
C457 C461 1.393 . S
C458 H450 0.950 . S
C458 C456 1.391 . S
C458 C459 1.400 . S
C459 C458 1.400 . S
C459 C460 1.398 . S
C459 C465 1.491 . S
C460 H451 0.950 . S
C460 C459 1.398 . S
C460 C461 1.391 . S
C461 H449 0.950 . S
C461 C457 1.393 . S
C461 C460 1.391 . S
C462 H452 0.950 . S
C462 C463 1.386 . S
C462 C464 1.391 . S
C463 C462 1.386 . S
C463 C467 1.393 . S
C464 H453 0.950 . S
C464 C462 1.391 . S
C464 C465 1.400 . S
C465 C459 1.491 . S
C465 C464 1.400 . S
C465 C466 1.398 . S
C466 H454 0.950 . S
C466 C465 1.398 . S
C466 C467 1.391 . S
C467 H455 0.950 . S
C467 C463 1.393 . S
C467 C466 1.391 . S
H468 C476 0.950 . S
H469 C481 0.950 . S
H470 C478 0.950 . S
H471 C480 0.950 . S
H472 C482 0.950 . S
H473 C484 0.950 . S
H474 C486 0.950 . S
H475 C487 0.950 . S
C476 H468 0.950 . S
C476 C477 1.386 . S
C476 C478 1.391 . S
C477 C476 1.386 . S
C477 C481 1.393 . S
C478 H470 0.950 . S
C478 C476 1.391 . S
C478 C479 1.400 . S
C479 C478 1.400 . S
C479 C480 1.398 . S
C479 C485 1.491 . S
C480 H471 0.950 . S
C480 C479 1.398 . S
C480 C481 1.391 . S
C481 H469 0.950 . S
C481 C477 1.393 . S
C481 C480 1.391 . S
C482 H472 0.950 . S
C482 C483 1.386 . S
C482 C484 1.391 . S
C483 C482 1.386 . S
C483 C487 1.393 . S
C484 H473 0.950 . S
C484 C482 1.391 . S
C484 C485 1.400 . S
C485 C479 1.491 . S
C485 C484 1.400 . S
C485 C486 1.398 . S
C486 H474 0.950 . S
C486 C485 1.398 . S
C486 C487 1.391 . S
C487 H475 0.950 . S
C487 C483 1.393 . S
C487 C486 1.391 . S
H488 C496 0.950 . S
H489 C501 0.950 . S
H490 C498 0.950 . S
H491 C500 0.950 . S
H492 C502 0.950 . S
H493 C504 0.950 . S
H494 C506 0.950 . S
H495 C507 0.950 . S
C496 H488 0.950 . S
C496 C497 1.386 . S
C496 C498 1.391 . S
C497 C496 1.386 . S
C497 C501 1.393 . S
C498 H490 0.950 . S
C498 C496 1.391 . S
C498 C499 1.400 . S
C499 C498 1.400 . S
C499 C500 1.398 . S
C499 C505 1.491 . S
C500 H491 0.950 . S
C500 C499 1.398 . S
C500 C501 1.391 . S
C501 H489 0.950 . S
C501 C497 1.393 . S
C501 C500 1.391 . S
C502 H492 0.950 . S
C502 C503 1.386 . S
C502 C504 1.391 . S
C503 C502 1.386 . S
C503 C507 1.393 . S
C504 H493 0.950 . S
C504 C502 1.391 . S
C504 C505 1.400 . S
C505 C499 1.491 . S
C505 C504 1.400 . S
C505 C506 1.398 . S
C506 H494 0.950 . S
C506 C505 1.398 . S
C506 C507 1.391 . S
C507 H495 0.950 . S
C507 C503 1.393 . S
C507 C506 1.391 . S
H508 C516 0.950 . S
H509 C521 0.950 . S
H510 C518 0.950 . S
H511 C520 0.950 . S
H512 C522 0.950 . S
H513 C524 0.950 . S
H514 C526 0.950 . S
H515 C527 0.950 . S
C516 H508 0.950 . S
C516 C517 1.386 . S
C516 C518 1.391 . S
C517 C516 1.386 . S
C517 C521 1.393 . S
C518 H510 0.950 . S
C518 C516 1.391 . S
C518 C519 1.400 . S
C519 C518 1.400 . S
C519 C520 1.398 . S
C519 C525 1.491 . S
C520 H511 0.950 . S
C520 C519 1.398 . S
C520 C521 1.391 . S
C521 H509 0.950 . S
C521 C517 1.393 . S
C521 C520 1.391 . S
C522 H512 0.950 . S
C522 C523 1.386 . S
C522 C524 1.391 . S
C523 C522 1.386 . S
C523 C527 1.393 . S
C524 H513 0.950 . S
C524 C522 1.391 . S
C524 C525 1.400 . S
C525 C519 1.491 . S
C525 C524 1.400 . S
C525 C526 1.398 . S
C526 H514 0.950 . S
C526 C525 1.398 . S
C526 C527 1.391 . S
C527 H515 0.950 . S
C527 C523 1.393 . S
C527 C526 1.391 . S
H528 C536 0.950 . S
H529 C541 0.950 . S
H530 C538 0.950 . S
H531 C540 0.950 . S
H532 C542 0.950 1_556 S
H533 C544 0.950 . S
H534 C546 0.950 . S
H535 C547 0.950 . S
C536 H528 0.950 . S
C536 C537 1.386 . S
C536 C538 1.391 . S
C537 C536 1.386 . S
C537 C541 1.393 . S
C538 H530 0.950 . S
C538 C536 1.391 . S
C538 C539 1.400 . S
C539 C538 1.400 . S
C539 C540 1.398 . S
C539 C545 1.491 . S
C540 H531 0.950 . S
C540 C539 1.398 . S
C540 C541 1.391 . S
C541 H529 0.950 . S
C541 C537 1.393 . S
C541 C540 1.391 . S
C542 H532 0.950 1_554 S
C542 C543 1.386 . S
C542 C544 1.391 . S
C543 C542 1.386 . S
C543 C547 1.393 . S
C544 H533 0.950 . S
C544 C542 1.391 . S
C544 C545 1.400 . S
C545 C539 1.491 . S
C545 C544 1.400 . S
C545 C546 1.398 . S
C546 H534 0.950 . S
C546 C545 1.398 . S
C546 C547 1.391 . S
C547 H535 0.950 . S
C547 C543 1.393 . S
C547 C546 1.391 . S
H548 C556 0.950 . S
H549 C561 0.950 . S
H550 C558 0.950 . S
H551 C560 0.950 . S
H552 C562 0.950 . S
H553 C564 0.950 . S
H554 C566 0.950 . S
H555 C567 0.950 . S
C556 H548 0.950 . S
C556 C557 1.386 . S
C556 C558 1.391 . S
C557 C556 1.386 . S
C557 C561 1.393 . S
C558 H550 0.950 . S
C558 C556 1.391 . S
C558 C559 1.400 . S
C559 C558 1.400 . S
C559 C560 1.398 . S
C559 C565 1.491 . S
C560 H551 0.950 . S
C560 C559 1.398 . S
C560 C561 1.391 . S
C561 H549 0.950 . S
C561 C557 1.393 . S
C561 C560 1.391 . S
C562 H552 0.950 . S
C562 C563 1.386 . S
C562 C564 1.391 . S
C563 C562 1.386 . S
C563 C567 1.393 . S
C564 H553 0.950 . S
C564 C562 1.391 . S
C564 C565 1.400 . S
C565 C559 1.491 . S
C565 C564 1.400 . S
C565 C566 1.398 . S
C566 H554 0.950 . S
C566 C565 1.398 . S
C566 C567 1.391 . S
C567 H555 0.950 . S
C567 C563 1.393 . S
C567 C566 1.391 . S
H568 C576 0.950 . S
H569 C581 0.950 . S
H570 C578 0.950 . S
H571 C580 0.950 . S
H572 C582 0.950 1_554 S
H573 C584 0.950 . S
H574 C586 0.950 . S
H575 C587 0.950 . S
C576 H568 0.950 . S
C576 C577 1.386 . S
C576 C578 1.391 . S
C577 C576 1.386 . S
C577 C581 1.393 . S
C578 H570 0.950 . S
C578 C576 1.391 . S
C578 C579 1.400 . S
C579 C578 1.400 . S
C579 C580 1.398 . S
C579 C585 1.491 . S
C580 H571 0.950 . S
C580 C579 1.398 . S
C580 C581 1.391 . S
C581 H569 0.950 . S
C581 C577 1.393 . S
C581 C580 1.391 . S
C582 H572 0.950 1_556 S
C582 C583 1.386 . S
C582 C584 1.391 . S
C583 C582 1.386 . S
C583 C587 1.393 . S
C584 H573 0.950 . S
C584 C582 1.391 . S
C584 C585 1.400 . S
C585 C579 1.491 . S
C585 C584 1.400 . S
C585 C586 1.398 . S
C586 H574 0.950 . S
C586 C585 1.398 . S
C586 C587 1.391 . S
C587 H575 0.950 . S
C587 C583 1.393 . S
C587 C586 1.391 . S
H588 C596 0.950 . S
H589 C601 0.950 . S
H590 C598 0.950 . S
H591 C600 0.950 . S
H592 C602 0.950 . S
H593 C604 0.950 . S
H594 C606 0.950 . S
H595 C607 0.950 . S
C596 H588 0.950 . S
C596 C597 1.386 . S
C596 C598 1.391 . S
C597 C596 1.386 . S
C597 C601 1.393 . S
C598 H590 0.950 . S
C598 C596 1.391 . S
C598 C599 1.400 . S
C599 C598 1.400 . S
C599 C600 1.398 . S
C599 C605 1.491 . S
C600 H591 0.950 . S
C600 C599 1.398 . S
C600 C601 1.391 . S
C601 H589 0.950 . S
C601 C597 1.393 . S
C601 C600 1.391 . S
C602 H592 0.950 . S
C602 C603 1.386 . S
C602 C604 1.391 . S
C603 C602 1.386 . S
C603 C607 1.393 . S
C604 H593 0.950 . S
C604 C602 1.391 . S
C604 C605 1.400 . S
C605 C599 1.491 . S
C605 C604 1.400 . S
C605 C606 1.398 . S
C606 H594 0.950 . S
C606 C605 1.398 . S
C606 C607 1.391 . S
C607 H595 0.950 . S
C607 C603 1.393 . S
C607 C606 1.391 . S
H608 C616 0.950 . S
H609 C621 0.950 . S
H610 C618 0.950 . S
H611 C620 0.950 . S
H612 C622 0.950 1_556 S
H613 C624 0.950 1_556 S
H614 C626 0.950 . S
H615 C627 0.950 . S
C616 H608 0.950 . S
C616 C617 1.386 . S
C616 C618 1.391 . S
C617 C616 1.386 . S
C617 C621 1.393 . S
C618 H610 0.950 . S
C618 C616 1.391 . S
C618 C619 1.400 . S
C619 C618 1.400 . S
C619 C620 1.398 . S
C619 C625 1.491 . S
C620 H611 0.950 . S
C620 C619 1.398 . S
C620 C621 1.391 . S
C621 H609 0.950 . S
C621 C617 1.393 . S
C621 C620 1.391 . S
C622 H612 0.950 1_554 S
C622 C623 1.386 . S
C622 C624 1.391 . S
C623 C622 1.386 . S
C623 C627 1.393 . S
C624 H613 0.950 1_554 S
C624 C622 1.391 . S
C624 C625 1.400 . S
C625 C619 1.491 . S
C625 C624 1.400 . S
C625 C626 1.398 . S
C626 H614 0.950 . S
C626 C625 1.398 . S
C626 C627 1.391 . S
C627 H615 0.950 . S
C627 C623 1.393 . S
C627 C626 1.391 . S
H628 C636 0.950 . S
H629 C641 0.950 . S
H630 C638 0.950 . S
H631 C640 0.950 . S
H632 C642 0.950 . S
H633 C644 0.950 . S
H634 C646 0.950 . S
H635 C647 0.950 . S
C636 H628 0.950 . S
C636 C637 1.386 . S
C636 C638 1.391 . S
C637 C636 1.386 . S
C637 C641 1.393 . S
C638 H630 0.950 . S
C638 C636 1.391 . S
C638 C639 1.400 . S
C639 C638 1.400 . S
C639 C640 1.398 . S
C639 C645 1.491 . S
C640 H631 0.950 . S
C640 C639 1.398 . S
C640 C641 1.391 . S
C641 H629 0.950 . S
C641 C637 1.393 . S
C641 C640 1.391 . S
C642 H632 0.950 . S
C642 C643 1.386 . S
C642 C644 1.391 . S
C643 C642 1.386 . S
C643 C647 1.393 . S
C644 H633 0.950 . S
C644 C642 1.391 . S
C644 C645 1.400 . S
C645 C639 1.491 . S
C645 C644 1.400 . S
C645 C646 1.398 . S
C646 H634 0.950 . S
C646 C645 1.398 . S
C646 C647 1.391 . S
C647 H635 0.950 . S
C647 C643 1.393 . S
C647 C646 1.391 . S
H648 C656 0.950 . S
H649 C661 0.950 . S
H650 C658 0.950 . S
H651 C660 0.950 . S
H652 C662 0.950 . S
H653 C664 0.950 . S
H654 C666 0.950 . S
H655 C667 0.950 . S
C656 H648 0.950 . S
C656 C657 1.386 . S
C656 C658 1.391 . S
C657 C656 1.386 . S
C657 C661 1.393 . S
C658 H650 0.950 . S
C658 C656 1.391 . S
C658 C659 1.400 . S
C659 C658 1.400 . S
C659 C660 1.398 . S
C659 C665 1.491 . S
C660 H651 0.950 . S
C660 C659 1.398 . S
C660 C661 1.391 . S
C661 H649 0.950 . S
C661 C657 1.393 . S
C661 C660 1.391 . S
C662 H652 0.950 . S
C662 C663 1.386 . S
C662 C664 1.391 . S
C663 C662 1.386 . S
C663 C667 1.393 . S
C664 H653 0.950 . S
C664 C662 1.391 . S
C664 C665 1.400 . S
C665 C659 1.491 . S
C665 C664 1.400 . S
C665 C666 1.398 . S
C666 H654 0.950 . S
C666 C665 1.398 . S
C666 C667 1.391 . S
C667 H655 0.950 . S
C667 C663 1.393 . S
C667 C666 1.391 . S
H668 C676 0.950 . S
H669 C681 0.950 . S
H670 C678 0.950 . S
H671 C680 0.950 . S
H672 C682 0.950 . S
H673 C684 0.950 . S
H674 C686 0.950 . S
H675 C687 0.950 . S
C676 H668 0.950 . S
C676 C677 1.386 . S
C676 C678 1.391 . S
C677 C676 1.386 . S
C677 C681 1.393 . S
C678 H670 0.950 . S
C678 C676 1.391 . S
C678 C679 1.400 . S
C679 C678 1.400 . S
C679 C680 1.398 . S
C679 C685 1.491 . S
C680 H671 0.950 . S
C680 C679 1.398 . S
C680 C681 1.391 . S
C681 H669 0.950 . S
C681 C677 1.393 . S
C681 C680 1.391 . S
C682 H672 0.950 . S
C682 C683 1.386 . S
C682 C684 1.391 . S
C683 C682 1.386 . S
C683 C687 1.393 . S
C684 H673 0.950 . S
C684 C682 1.391 . S
C684 C685 1.400 . S
C685 C679 1.491 . S
C685 C684 1.400 . S
C685 C686 1.398 . S
C686 H674 0.950 . S
C686 C685 1.398 . S
C686 C687 1.391 . S
C687 H675 0.950 . S
C687 C683 1.393 . S
C687 C686 1.391 . S
H688 C696 0.950 . S
H689 C701 0.950 . S
H690 C698 0.950 . S
H691 C700 0.950 . S
H692 C702 0.950 . S
H693 C704 0.950 . S
H694 C706 0.950 . S
H695 C707 0.950 . S
C696 H688 0.950 . S
C696 C697 1.386 . S
C696 C698 1.391 . S
C697 C696 1.386 . S
C697 C701 1.393 . S
C698 H690 0.950 . S
C698 C696 1.391 . S
C698 C699 1.400 . S
C699 C698 1.400 . S
C699 C700 1.398 . S
C699 C705 1.491 . S
C700 H691 0.950 . S
C700 C699 1.398 . S
C700 C701 1.391 . S
C701 H689 0.950 . S
C701 C697 1.393 . S
C701 C700 1.391 . S
C702 H692 0.950 . S
C702 C703 1.386 . S
C702 C704 1.391 . S
C703 C702 1.386 . S
C703 C707 1.393 . S
C704 H693 0.950 . S
C704 C702 1.391 . S
C704 C705 1.400 . S
C705 C699 1.491 . S
C705 C704 1.400 . S
C705 C706 1.398 . S
C706 H694 0.950 . S
C706 C705 1.398 . S
C706 C707 1.391 . S
C707 H695 0.950 . S
C707 C703 1.393 . S
C707 C706 1.391 . S
H708 C716 0.950 . S
H709 C721 0.950 . S
H710 C718 0.950 . S
H711 C720 0.950 . S
H712 C722 0.950 . S
H713 C724 0.950 . S
H714 C726 0.950 . S
H715 C727 0.950 . S
C716 H708 0.950 . S
C716 C717 1.386 . S
C716 C718 1.391 . S
C717 C716 1.386 . S
C717 C721 1.393 . S
C718 H710 0.950 . S
C718 C716 1.391 . S
C718 C719 1.400 . S
C719 C718 1.400 . S
C719 C720 1.398 . S
C719 C725 1.491 . S
C720 H711 0.950 . S
C720 C719 1.398 . S
C720 C721 1.391 . S
C721 H709 0.950 . S
C721 C717 1.393 . S
C721 C720 1.391 . S
C722 H712 0.950 . S
C722 C723 1.386 . S
C722 C724 1.391 . S
C723 C722 1.386 . S
C723 C727 1.393 . S
C724 H713 0.950 . S
C724 C722 1.391 . S
C724 C725 1.400 . S
C725 C719 1.491 . S
C725 C724 1.400 . S
C725 C726 1.398 . S
C726 H714 0.950 . S
C726 C725 1.398 . S
C726 C727 1.391 . S
C727 H715 0.950 . S
C727 C723 1.393 . S
C727 C726 1.391 . S
H728 C736 0.950 . S
H729 C741 0.950 . S
H730 C738 0.950 . S
H731 C740 0.950 . S
H732 C742 0.950 . S
H733 C744 0.950 . S
H734 C746 0.950 . S
H735 C747 0.950 . S
C736 H728 0.950 . S
C736 C737 1.386 . S
C736 C738 1.391 . S
C737 C736 1.386 . S
C737 C741 1.393 . S
C738 H730 0.950 . S
C738 C736 1.391 . S
C738 C739 1.400 . S
C739 C738 1.400 . S
C739 C740 1.398 . S
C739 C745 1.491 . S
C740 H731 0.950 . S
C740 C739 1.398 . S
C740 C741 1.391 . S
C741 H729 0.950 . S
C741 C737 1.393 . S
C741 C740 1.391 . S
C742 H732 0.950 . S
C742 C743 1.386 . S
C742 C744 1.391 . S
C743 C742 1.386 . S
C743 C747 1.393 . S
C744 H733 0.950 . S
C744 C742 1.391 . S
C744 C745 1.400 . S
C745 C739 1.491 . S
C745 C744 1.400 . S
C745 C746 1.398 . S
C746 H734 0.950 . S
C746 C745 1.398 . S
C746 C747 1.391 . S
C747 H735 0.950 . S
C747 C743 1.393 . S
C747 C746 1.391 . S
H748 C756 0.950 . S
H749 C761 0.950 . S
H750 C758 0.950 . S
H751 C760 0.950 . S
H752 C762 0.950 . S
H753 C764 0.950 . S
H754 C766 0.950 . S
H755 C767 0.950 . S
C756 H748 0.950 . S
C756 C757 1.386 . S
C756 C758 1.391 . S
C757 C756 1.386 . S
C757 C761 1.393 . S
C758 H750 0.950 . S
C758 C756 1.391 . S
C758 C759 1.400 . S
C759 C758 1.400 . S
C759 C760 1.398 . S
C759 C765 1.491 . S
C760 H751 0.950 . S
C760 C759 1.398 . S
C760 C761 1.391 . S
C761 H749 0.950 . S
C761 C757 1.393 . S
C761 C760 1.391 . S
C762 H752 0.950 . S
C762 C763 1.386 . S
C762 C764 1.391 . S
C763 C762 1.386 . S
C763 C767 1.393 . S
C764 H753 0.950 . S
C764 C762 1.391 . S
C764 C765 1.400 . S
C765 C759 1.491 . S
C765 C764 1.400 . S
C765 C766 1.398 . S
C766 H754 0.950 . S
C766 C765 1.398 . S
C766 C767 1.391 . S
C767 H755 0.950 . S
C767 C763 1.393 . S
C767 C766 1.391 . S
H768 C776 0.950 . S
H769 C781 0.950 . S
H770 C778 0.950 . S
H771 C780 0.950 . S
H772 C782 0.950 . S
H773 C784 0.950 . S
H774 C786 0.950 . S
H775 C787 0.950 . S
C776 H768 0.950 . S
C776 C777 1.386 . S
C776 C778 1.391 . S
C777 C776 1.386 . S
C777 C781 1.393 . S
C778 H770 0.950 . S
C778 C776 1.391 . S
C778 C779 1.400 . S
C779 C778 1.400 . S
C779 C780 1.398 . S
C779 C785 1.491 . S
C780 H771 0.950 . S
C780 C779 1.398 . S
C780 C781 1.391 . S
C781 H769 0.950 . S
C781 C777 1.393 . S
C781 C780 1.391 . S
C782 H772 0.950 . S
C782 C783 1.386 . S
C782 C784 1.391 . S
C783 C782 1.386 . S
C783 C787 1.393 . S
C784 H773 0.950 . S
C784 C782 1.391 . S
C784 C785 1.400 . S
C785 C779 1.491 . S
C785 C784 1.400 . S
C785 C786 1.398 . S
C786 H774 0.950 . S
C786 C785 1.398 . S
C786 C787 1.391 . S
C787 H775 0.950 . S
C787 C783 1.393 . S
C787 C786 1.391 . S
H788 C796 0.950 . S
H789 C801 0.950 . S
H790 C798 0.950 . S
H791 C800 0.950 . S
H792 C802 0.950 . S
H793 C804 0.950 . S
H794 C806 0.950 . S
H795 C807 0.950 . S
C796 H788 0.950 . S
C796 C797 1.386 . S
C796 C798 1.391 . S
C797 C796 1.386 . S
C797 C801 1.393 . S
C798 H790 0.950 . S
C798 C796 1.391 . S
C798 C799 1.400 . S
C799 C798 1.400 . S
C799 C800 1.398 . S
C799 C805 1.491 . S
C800 H791 0.950 . S
C800 C799 1.398 . S
C800 C801 1.391 . S
C801 H789 0.950 . S
C801 C797 1.393 . S
C801 C800 1.391 . S
C802 H792 0.950 . S
C802 C803 1.386 . S
C802 C804 1.391 . S
C803 C802 1.386 . S
C803 C807 1.393 . S
C804 H793 0.950 . S
C804 C802 1.391 . S
C804 C805 1.400 . S
C805 C799 1.491 . S
C805 C804 1.400 . S
C805 C806 1.398 . S
C806 H794 0.950 . S
C806 C805 1.398 . S
C806 C807 1.391 . S
C807 H795 0.950 . S
C807 C803 1.393 . S
C807 C806 1.391 . S
H808 C816 0.950 . S
H809 C821 0.950 . S
H810 C818 0.950 . S
H811 C820 0.950 . S
H812 C822 0.950 . S
H813 C824 0.950 . S
H814 C826 0.950 . S
H815 C827 0.950 . S
C816 H808 0.950 . S
C816 C817 1.386 . S
C816 C818 1.391 . S
C817 C816 1.386 . S
C817 C821 1.393 . S
C818 H810 0.950 . S
C818 C816 1.391 . S
C818 C819 1.400 . S
C819 C818 1.400 . S
C819 C820 1.398 . S
C819 C825 1.491 . S
C820 H811 0.950 . S
C820 C819 1.398 . S
C820 C821 1.391 . S
C821 H809 0.950 . S
C821 C817 1.393 . S
C821 C820 1.391 . S
C822 H812 0.950 . S
C822 C823 1.386 . S
C822 C824 1.391 . S
C823 C822 1.386 . S
C823 C827 1.393 . S
C824 H813 0.950 . S
C824 C822 1.391 . S
C824 C825 1.400 . S
C825 C819 1.491 . S
C825 C824 1.400 . S
C825 C826 1.398 . S
C826 H814 0.950 . S
C826 C825 1.398 . S
C826 C827 1.391 . S
C827 H815 0.950 . S
C827 C823 1.393 . S
C827 C826 1.391 . S
H828 C836 0.950 . S
H829 C841 0.950 . S
H830 C838 0.950 . S
H831 C840 0.950 . S
H832 C842 0.950 . S
H833 C844 0.950 . S
H834 C846 0.950 . S
H835 C847 0.950 . S
C836 H828 0.950 . S
C836 C837 1.386 . S
C836 C838 1.391 . S
C837 C836 1.386 . S
C837 C841 1.393 . S
C838 H830 0.950 . S
C838 C836 1.391 . S
C838 C839 1.400 . S
C839 C838 1.400 . S
C839 C840 1.398 . S
C839 C845 1.491 . S
C840 H831 0.950 . S
C840 C839 1.398 . S
C840 C841 1.391 . S
C841 H829 0.950 . S
C841 C837 1.393 . S
C841 C840 1.391 . S
C842 H832 0.950 . S
C842 C843 1.386 . S
C842 C844 1.391 . S
C843 C842 1.386 . S
C843 C847 1.393 . S
C844 H833 0.950 . S
C844 C842 1.391 . S
C844 C845 1.400 . S
C845 C839 1.491 . S
C845 C844 1.400 . S
C845 C846 1.398 . S
C846 H834 0.950 . S
C846 C845 1.398 . S
C846 C847 1.391 . S
C847 H835 0.950 . S
C847 C843 1.393 . S
C847 C846 1.391 . S
H848 C856 0.950 . S
H849 C861 0.950 . S
H850 C858 0.950 . S
H851 C860 0.950 . S
H852 C862 0.950 . S
H853 C864 0.950 . S
H854 C866 0.950 . S
H855 C867 0.950 . S
C856 H848 0.950 . S
C856 C857 1.386 . S
C856 C858 1.391 . S
C857 C856 1.386 . S
C857 C861 1.393 . S
C858 H850 0.950 . S
C858 C856 1.391 . S
C858 C859 1.400 . S
C859 C858 1.400 . S
C859 C860 1.398 . S
C859 C865 1.491 . S
C860 H851 0.950 . S
C860 C859 1.398 . S
C860 C861 1.391 . S
C861 H849 0.950 . S
C861 C857 1.393 . S
C861 C860 1.391 . S
C862 H852 0.950 . S
C862 C863 1.386 . S
C862 C864 1.391 . S
C863 C862 1.386 . S
C863 C867 1.393 . S
C864 H853 0.950 . S
C864 C862 1.391 . S
C864 C865 1.400 . S
C865 C859 1.491 . S
C865 C864 1.400 . S
C865 C866 1.398 . S
C866 H854 0.950 . S
C866 C865 1.398 . S
C866 C867 1.391 . S
C867 H855 0.950 . S
C867 C863 1.393 . S
C867 C866 1.391 . S
H868 C876 0.950 . S
H869 C881 0.950 . S
H870 C878 0.950 . S
H871 C880 0.950 . S
H872 C882 0.950 . S
H873 C884 0.950 . S
H874 C886 0.950 . S
H875 C887 0.950 . S
C876 H868 0.950 . S
C876 C877 1.386 . S
C876 C878 1.391 . S
C877 C876 1.386 . S
C877 C881 1.393 . S
C878 H870 0.950 . S
C878 C876 1.391 . S
C878 C879 1.400 . S
C879 C878 1.400 . S
C879 C880 1.398 . S
C879 C885 1.491 . S
C880 H871 0.950 . S
C880 C879 1.398 . S
C880 C881 1.391 . S
C881 H869 0.950 . S
C881 C877 1.393 . S
C881 C880 1.391 . S
C882 H872 0.950 . S
C882 C883 1.386 . S
C882 C884 1.391 . S
C883 C882 1.386 . S
C883 C887 1.393 . S
C884 H873 0.950 . S
C884 C882 1.391 . S
C884 C885 1.400 . S
C885 C879 1.491 . S
C885 C884 1.400 . S
C885 C886 1.398 . S
C886 H874 0.950 . S
C886 C885 1.398 . S
C886 C887 1.391 . S
C887 H875 0.950 . S
C887 C883 1.393 . S
C887 C886 1.391 . S
H888 C896 0.950 . S
H889 C901 0.950 . S
H890 C898 0.950 . S
H891 C900 0.950 . S
H892 C902 0.950 . S
H893 C904 0.950 . S
H894 C906 0.950 . S
H895 C907 0.950 . S
C896 H888 0.950 . S
C896 C897 1.386 . S
C896 C898 1.391 . S
C897 C896 1.386 . S
C897 C901 1.393 . S
C898 H890 0.950 . S
C898 C896 1.391 . S
C898 C899 1.400 . S
C899 C898 1.400 . S
C899 C900 1.398 . S
C899 C905 1.491 . S
C900 H891 0.950 . S
C900 C899 1.398 . S
C900 C901 1.391 . S
C901 H889 0.950 . S
C901 C897 1.393 . S
C901 C900 1.391 . S
C902 H892 0.950 . S
C902 C903 1.386 . S
C902 C904 1.391 . S
C903 C902 1.386 . S
C903 C907 1.393 . S
C904 H893 0.950 . S
C904 C902 1.391 . S
C904 C905 1.400 . S
C905 C899 1.491 . S
C905 C904 1.400 . S
C905 C906 1.398 . S
C906 H894 0.950 . S
C906 C905 1.398 . S
C906 C907 1.391 . S
C907 H895 0.950 . S
C907 C903 1.393 . S
C907 C906 1.391 . S
H908 C916 0.950 . S
H909 C921 0.950 . S
H910 C918 0.950 . S
H911 C920 0.950 . S
H912 C922 0.950 . S
H913 C924 0.950 . S
H914 C926 0.950 . S
H915 C927 0.950 . S
C916 H908 0.950 . S
C916 C917 1.386 . S
C916 C918 1.391 . S
C917 C916 1.386 . S
C917 C921 1.393 . S
C918 H910 0.950 . S
C918 C916 1.391 . S
C918 C919 1.400 . S
C919 C918 1.400 . S
C919 C920 1.398 . S
C919 C925 1.491 . S
C920 H911 0.950 . S
C920 C919 1.398 . S
C920 C921 1.391 . S
C921 H909 0.950 . S
C921 C917 1.393 . S
C921 C920 1.391 . S
C922 H912 0.950 . S
C922 C923 1.386 . S
C922 C924 1.391 . S
C923 C922 1.386 . S
C923 C927 1.393 . S
C924 H913 0.950 . S
C924 C922 1.391 . S
C924 C925 1.400 . S
C925 C919 1.491 . S
C925 C924 1.400 . S
C925 C926 1.398 . S
C926 H914 0.950 . S
C926 C925 1.398 . S
C926 C927 1.391 . S
C927 H915 0.950 . S
C927 C923 1.393 . S
C927 C926 1.391 . S
C457 C1 2.894 . S
C463 C307 2.873 . S
C477 C67 2.443 . S
C483 C338 2.500 . S
C503 C377 1.366 . S
C497 C97 1.375 . S
C517 C133 0.476 . S
C523 C414 0.468 . S
C543 C337 2.826 . S
C537 C25 2.886 . S
C563 C294 1.528 . S
C557 C37 1.521 . S
C583 C426 1.411 . S
C577 C103 1.459 . S
C603 C383 1.038 . S
C597 C109 1.036 . S
C617 C31 2.287 . S
C623 C427 2.300 . S
C643 C343 1.290 . S
C637 C73 1.272 . S
C657 C139 0.563 . S
C663 C306 0.582 . S
C677 C61 2.546 . S
C683 C378 2.543 . S
C703 C298 2.881 . S
C697 C175 2.911 . S
C717 C181 2.433 . S
C723 C347 2.490 . S
C737 C247 1.416 . S
C743 C386 1.358 . S
C757 C277 0.463 . S
C763 C423 0.468 . S
C777 C145 2.900 . S
C783 C346 2.815 . S
C803 C303 1.538 . S
C797 C211 1.517 . S
C823 C417 1.415 . S
C817 C217 1.452 . S
C843 C374 1.059 . S
C837 C283 1.064 . S
C857 C169 2.292 . S
C863 C418 2.296 . S
C883 C334 1.281 . S
C877 C241 1.282 . S
C903 C297 0.583 . S
C897 C253 0.551 . S
C917 C205 2.549 . S
C923 C387 2.550 . S
