# Generated by pormake.
# Topology ssa, (4,4)-cn, num edge types: 1
# Building blocks:
#     Node 0, Type 0, BuildingBlock: IZENUY_clean_linker_0, # of connection points: 4
#     Node 1, Type 0, BuildingBlock: IZENUY_clean_linker_0, # of connection points: 4
#     Node 2, Type 0, BuildingBlock: IZENUY_clean_linker_0, # of connection points: 4
#     Node 3, Type 0, BuildingBlock: IZENUY_clean_linker_0, # of connection points: 4
#     Node 4, Type 0, BuildingBlock: IZENUY_clean_linker_0, # of connection points: 4
#     Node 5, Type 0, BuildingBlock: IZENUY_clean_linker_0, # of connection points: 4
#     Node 6, Type 1, BuildingBlock: ESEHIV_clean_sbu_0, # of connection points: 4
#     Node 7, Type 1, BuildingBlock: ESEHIV_clean_sbu_0, # of connection points: 4
#     Node 8, Type 1, BuildingBlock: ESEHIV_clean_sbu_0, # of connection points: 4
#     Node 9, Type 1, BuildingBlock: ESEHIV_clean_sbu_0, # of connection points: 4
#     Node 10, Type 1, BuildingBlock: ESEHIV_clean_sbu_0, # of connection points: 4
#     Node 11, Type 1, BuildingBlock: ESEHIV_clean_sbu_0, # of connection points: 4
#     Edge 12, Type (0, 1), BuildingBlock: AJUNOK_clean_linker_0, # of connection points: 2
#     Edge 13, Type (0, 1), BuildingBlock: AJUNOK_clean_linker_0, # of connection points: 2
#     Edge 14, Type (0, 1), BuildingBlock: AJUNOK_clean_linker_0, # of connection points: 2
#     Edge 15, Type (0, 1), BuildingBlock: AJUNOK_clean_linker_0, # of connection points: 2
#     Edge 16, Type (0, 1), BuildingBlock: AJUNOK_clean_linker_0, # of connection points: 2
#     Edge 17, Type (0, 1), BuildingBlock: AJUNOK_clean_linker_0, # of connection points: 2
#     Edge 18, Type (0, 1), BuildingBlock: AJUNOK_clean_linker_0, # of connection points: 2
#     Edge 19, Type (0, 1), BuildingBlock: AJUNOK_clean_linker_0, # of connection points: 2
#     Edge 20, Type (0, 1), BuildingBlock: AJUNOK_clean_linker_0, # of connection points: 2
#     Edge 21, Type (0, 1), BuildingBlock: AJUNOK_clean_linker_0, # of connection points: 2
#     Edge 22, Type (0, 1), BuildingBlock: AJUNOK_clean_linker_0, # of connection points: 2
#     Edge 23, Type (0, 1), BuildingBlock: AJUNOK_clean_linker_0, # of connection points: 2
#     Edge 24, Type (0, 1), BuildingBlock: AJUNOK_clean_linker_0, # of connection points: 2
#     Edge 25, Type (0, 1), BuildingBlock: AJUNOK_clean_linker_0, # of connection points: 2
#     Edge 26, Type (0, 1), BuildingBlock: AJUNOK_clean_linker_0, # of connection points: 2
#     Edge 27, Type (0, 1), BuildingBlock: AJUNOK_clean_linker_0, # of connection points: 2
#     Edge 28, Type (0, 1), BuildingBlock: AJUNOK_clean_linker_0, # of connection points: 2
#     Edge 29, Type (0, 1), BuildingBlock: AJUNOK_clean_linker_0, # of connection points: 2
#     Edge 30, Type (0, 1), BuildingBlock: AJUNOK_clean_linker_0, # of connection points: 2
#     Edge 31, Type (0, 1), BuildingBlock: AJUNOK_clean_linker_0, # of connection points: 2
#     Edge 32, Type (0, 1), BuildingBlock: AJUNOK_clean_linker_0, # of connection points: 2
#     Edge 33, Type (0, 1), BuildingBlock: AJUNOK_clean_linker_0, # of connection points: 2
#     Edge 34, Type (0, 1), BuildingBlock: AJUNOK_clean_linker_0, # of connection points: 2
#     Edge 35, Type (0, 1), BuildingBlock: AJUNOK_clean_linker_0, # of connection points: 2
# Relax obj value: 0.014
# Max RMSD: 0.094
# Mean RMSD: 0.063
data_MOF--net-ssa--node1-ESEHIV_clean_sbu_0--node2-IZENUY_clean_linker_0--edge1-AJUNOK_clean_linker_0
_symmetry_space_group_name_H-M    P1
_symmetry_Int_Tables_number       1
_symmetry_cell_setting            triclinic
loop_
_symmetry_equiv_pos_as_xyz
'x, y, z'
_cell_length_a     40.604883
_cell_length_b     40.569442
_cell_length_c     27.147862
_cell_angle_alpha  91.542884
_cell_angle_beta   89.204609
_cell_angle_gamma 120.16548
loop_
_atom_site_label
_atom_site_type_symbol
_atom_site_fract_x
_atom_site_fract_y
_atom_site_fract_z
_atom_type_partial_charge
H0 H 0.97282 0.45881 1.0612 0.0
H1 H 0.95457 0.55233 1.03167 0.0
H2 H 0.88332 0.44138 0.96372 0.0
H3 H 0.03078 0.58784 0.1496 0.0
H4 H 0.06417 0.50263 0.14336 0.0
H5 H 0.12506 0.6034 0.23621 0.0
N6 N 0.99658 0.53243 1.08503 0.0
N7 N 0.01652 0.52111 0.10528 0.0
C8 C 0.95757 0.47039 1.04256 0.0
C9 C 0.9276 0.44655 1.01112 0.0
C10 C 0.9672 0.50855 1.0509 0.0
C11 C 0.94682 0.52278 1.02581 0.0
C12 C 0.91689 0.49906 0.99286 0.0
C13 C 0.90713 0.46066 0.98696 0.0
C14 C 0.04958 0.57768 0.16075 0.0
C15 C 0.07743 0.59822 0.19658 0.0
C16 C 0.04528 0.54342 0.14074 0.0
C17 C 0.06889 0.52984 0.15766 0.0
C18 C 0.09786 0.55073 0.19294 0.0
C19 C 0.10222 0.58554 0.21097 0.0
H20 H 0.59682 0.05222 0.61941 0.0
H21 H 0.50754 0.08032 0.61324 0.0
H22 H 0.59517 0.13194 0.72435 0.0
H23 H 0.47722 0.98319 0.51909 0.0
H24 H 0.58689 0.99254 0.50027 0.0
H25 H 0.48948 0.90294 0.42433 0.0
N26 N 0.53313 0.0362 0.5709 0.0
N27 N 0.55041 0.02125 0.55034 0.0
C28 C 0.58358 0.06815 0.63301 0.0
C29 C 0.59933 0.09238 0.67405 0.0
C30 C 0.55034 0.06331 0.61067 0.0
C31 C 0.53325 0.08397 0.63003 0.0
C32 C 0.5491 0.10875 0.6717 0.0
C33 C 0.58216 0.11254 0.69309 0.0
C34 C 0.495 0.97319 0.50207 0.0
C35 C 0.47865 0.94133 0.46953 0.0
C36 C 0.53398 0.99167 0.51351 0.0
C37 C 0.55688 0.97854 0.4911 0.0
C38 C 0.54112 0.94661 0.45866 0.0
C39 C 0.5019 0.92804 0.44838 0.0
H40 H 0.50928 0.44017 1.05678 0.0
H41 H 0.59955 0.55738 1.05175 0.0
H42 H 0.6019 0.47491 0.95286 0.0
H43 H 0.58139 0.61092 0.16133 0.0
H44 H 0.47791 0.50223 0.15031 0.0
H45 H 0.48035 0.59404 0.23645 0.0
N46 N 0.5343 0.50973 0.09782 0.0
N47 N 0.55003 0.54267 0.11673 0.0
C48 C 0.53613 0.46165 1.04154 0.0
C49 C 0.55368 0.4519 1.00258 0.0
C50 C 0.55281 0.49965 1.06015 0.0
C51 C 0.58675 0.52795 1.039 0.0
C52 C 0.60353 0.51905 0.99973 0.0
C53 C 0.58752 0.48127 0.98234 0.0
C54 C 0.55181 0.59256 0.17136 0.0
C55 C 0.53346 0.60695 0.20217 0.0
C56 C 0.53176 0.55494 0.15185 0.0
C57 C 0.49341 0.53122 0.16487 0.0
C58 C 0.47467 0.54491 0.19577 0.0
C59 C 0.49483 0.58289 0.21372 0.0
H60 H 0.0371 0.4574 0.53471 0.0
H61 H 0.06967 0.57613 0.54789 0.0
H62 H 0.12689 0.53985 0.44439 0.0
H63 H 0.97524 0.524 0.62359 0.0
H64 H 0.95747 0.41191 0.64942 0.0
H65 H 0.88256 0.44789 0.71464 0.0
N66 N 0.02098 0.50782 0.5814 0.0
N67 N 1.00034 0.47555 0.59914 0.0
C68 C 0.05495 0.48673 0.52389 0.0
C69 C 0.08209 0.49538 0.4865 0.0
C70 C 0.05022 0.51586 0.5461 0.0
C71 C 0.07364 0.55381 0.53118 0.0
C72 C 0.10149 0.56291 0.49425 0.0
C73 C 0.1052 0.5333 0.47215 0.0
C74 C 0.95958 0.49649 0.6408 0.0
C75 C 0.92837 0.48891 0.6705 0.0
C76 C 0.96991 0.46857 0.63217 0.0
C77 C 0.94879 0.43296 0.65509 0.0
C78 C 0.91708 0.42496 0.68565 0.0
C79 C 0.90713 0.45337 0.69245 0.0
H80 H 0.46918 0.0422 1.05791 0.0
H81 H 0.57984 0.0521 1.04312 0.0
H82 H 0.55959 0.13894 0.98737 0.0
H83 H 0.51472 0.95802 0.13309 0.0
H84 H 0.40308 0.94572 0.12042 0.0
H85 H 0.41814 0.86448 0.20063 0.0
N86 N 0.50954 1.00843 1.08075 0.0
N87 N 0.47544 0.98934 0.09404 0.0
C88 C 0.49858 0.05744 1.04574 0.0
C89 C 0.51191 0.09192 1.0219 0.0
C90 C 0.523 0.04302 1.05455 0.0
C91 C 0.56107 0.06338 1.03728 0.0
C92 C 0.57445 0.09779 1.01155 0.0
C93 C 0.54968 0.11208 1.00558 0.0
C94 C 0.48426 0.94216 0.13945 0.0
C95 C 0.46848 0.90898 0.16729 0.0
C96 C 0.46054 0.95519 0.12129 0.0
C97 C 0.42117 0.93498 0.13252 0.0
C98 C 0.40542 0.90144 0.16015 0.0
C99 C 0.42946 0.88887 0.17675 0.0
H100 H 0.41329 0.47261 0.53937 0.0
H101 H 0.52369 0.57373 0.55593 0.0
H102 H 0.43829 0.57633 0.46804 0.0
H103 H 0.58549 0.53801 0.62928 0.0
H104 H 0.47041 0.44313 0.63123 0.0
H105 H 0.55778 0.43664 0.70909 0.0
N106 N 0.48186 0.49956 0.58016 0.0
N107 N 0.51533 0.51362 0.59556 0.0
C108 C 0.43278 0.50221 0.53113 0.0
C109 C 0.42075 0.52228 0.50125 0.0
C110 C 0.47009 0.52044 0.55077 0.0
C111 C 0.49505 0.55913 0.54106 0.0
C112 C 0.48332 0.57906 0.51155 0.0
C113 C 0.44662 0.56058 0.49159 0.0
C114 C 0.56526 0.50937 0.64057 0.0
C115 C 0.5772 0.48935 0.67085 0.0
C116 C 0.52681 0.49278 0.62554 0.0
C117 C 0.50013 0.45616 0.64155 0.0
C118 C 0.51139 0.4366 0.67229 0.0
C119 C 0.54963 0.45286 0.6862 0.0
Cu120 Cu 0.23414 0.4655 0.31519 0.0
N121 N 0.25722 0.45312 0.26308 0.0
N122 N 0.31187 0.46398 0.22719 0.0
C123 C 0.29064 0.45406 0.26875 0.0
C124 C 0.28975 0.46702 0.19309 0.0
C125 C 0.25647 0.4607 0.21524 0.0
O126 O 0.27264 0.48716 0.36791 0.0
C127 C 0.18946 0.48538 0.25892 0.0
O128 O 0.17631 0.45029 0.24238 0.0
H129 H 0.30064 0.45108 0.30389 0.0
H130 H 0.23616 0.46683 0.19883 0.0
N131 N 0.19065 0.42523 0.34239 0.0
N132 N 0.13814 0.40926 0.38656 0.0
C133 C 0.17593 0.43289 0.38268 0.0
C134 C 0.16132 0.39453 0.32049 0.0
C135 C 0.12868 0.38479 0.3476 0.0
C136 C 0.27836 0.46371 0.39178 0.0
O137 O 0.25601 0.427 0.38306 0.0
H138 H 0.19138 0.45937 0.40374 0.0
H139 H 0.1624 0.38365 0.28405 0.0
O140 O 0.21627 0.49923 0.29096 0.0
H141 H 0.29887 0.47787 0.15641 0.0
H142 H 0.0998 0.36457 0.33627 0.0
Cu143 Cu 0.78678 0.23013 0.8646 0.0
N144 N 0.77547 0.18706 0.82641 0.0
N145 N 0.73583 0.13818 0.77806 0.0
C146 C 0.73952 0.16484 0.81129 0.0
C147 C 0.77119 0.14356 0.77157 0.0
C148 C 0.79579 0.17372 0.80222 0.0
O149 O 0.73912 0.21448 0.90113 0.0
C150 C 0.82973 0.28113 0.78974 0.0
O151 O 0.84254 0.25729 0.7848 0.0
H152 H 0.71682 0.17035 0.82126 0.0
H153 H 0.82637 0.18632 0.80425 0.0
N154 N 0.82601 0.24489 0.90922 0.0
N155 N 0.87035 0.29046 0.95749 0.0
C156 C 0.83449 0.27423 0.94037 0.0
C157 C 0.85734 0.24156 0.907 0.0
C158 C 0.88488 0.26975 0.93708 0.0
C159 C 0.72985 0.18995 0.93497 0.0
O160 O 0.75484 0.18046 0.94864 0.0
H161 H 0.81651 0.28676 0.94478 0.0
H162 H 0.86138 0.22297 0.88147 0.0
O163 O 0.80376 0.27437 0.82173 0.0
H164 H 0.77891 0.12815 0.74512 0.0
H165 H 0.91416 0.27647 0.94021 0.0
Cu166 Cu 0.59209 0.81244 0.35654 0.0
N167 N 0.55104 0.81826 0.3423 0.0
N168 N 0.51893 0.83882 0.2998 0.0
C169 C 0.55348 0.84547 0.31291 0.0
C170 C 0.49357 0.806 0.32114 0.0
C171 C 0.51361 0.79334 0.34775 0.0
O172 O 0.63724 0.86327 0.36218 0.0
C173 C 0.60316 0.75425 0.30794 0.0
O174 O 0.62293 0.75673 0.34716 0.0
H175 H 0.58001 0.86803 0.29831 0.0
H176 H 0.50191 0.76669 0.36679 0.0
N177 N 0.58596 0.78684 0.41456 0.0
N178 N 0.5677 0.73688 0.46235 0.0
C179 C 0.56001 0.75018 0.42174 0.0
C180 C 0.61097 0.79728 0.45193 0.0
C181 C 0.59958 0.76645 0.48181 0.0
C182 C 0.64392 0.89649 0.37681 0.0
O183 O 0.67921 0.92472 0.37329 0.0
H184 H 0.53754 0.73288 0.3957 0.0
H185 H 0.63697 0.82454 0.45526 0.0
O186 O 0.59203 0.77841 0.3032 0.0
H187 H 0.46303 0.79144 0.31582 0.0
H188 H 0.61513 0.76505 0.51299 0.0
Cu189 Cu 0.78997 0.56728 0.81321 0.0
N190 N 0.82944 0.59211 0.76901 0.0
N191 N 0.87313 0.58981 0.72073 0.0
C192 C 0.83663 0.57147 0.73586 0.0
C193 C 0.88952 0.62391 0.74487 0.0
C194 C 0.86238 0.62527 0.77476 0.0
O195 O 0.80645 0.53926 0.85532 0.0
C196 C 0.7339 0.55049 0.74161 0.0
O197 O 0.75929 0.58501 0.7281 0.0
H198 H 0.81715 0.54131 0.72939 0.0
H199 H 0.86764 0.64658 0.80312 0.0
N200 N 0.77924 0.59961 0.8509 0.0
N201 N 0.73962 0.61054 0.89658 0.0
C202 C 0.74302 0.58736 0.86339 0.0
C203 C 0.80006 0.63248 0.87676 0.0
C204 C 0.77546 0.63891 0.90598 0.0
C205 C 0.83114 0.55701 0.8893 0.0
O206 O 0.84247 0.59302 0.89872 0.0
H207 H 0.71968 0.55978 0.85185 0.0
H208 H 0.83082 0.64914 0.87704 0.0
O209 O 0.74233 0.53532 0.77637 0.0
H210 H 0.91973 0.64445 0.74515 0.0
H211 H 0.78335 0.66124 0.9338 0.0
Cu212 Cu 0.22924 0.77641 0.3577 0.0
N213 N 0.18243 0.77235 0.34312 0.0
N214 N 0.12695 0.73569 0.30412 0.0
C215 C 0.15246 0.73709 0.33648 0.0
C216 C 0.1407 0.77217 0.29107 0.0
C217 C 0.17484 0.7948 0.31539 0.0
O218 O 0.21531 0.72618 0.38375 0.0
C219 C 0.2731 0.82576 0.28438 0.0
O220 O 0.26436 0.8476 0.3114 0.0
H221 H 0.1529 0.71194 0.34755 0.0
H222 H 0.19474 0.82428 0.30769 0.0
N223 N 0.25997 0.81428 0.40344 0.0
N224 N 0.3159 0.85824 0.43522 0.0
C225 C 0.29768 0.82764 0.40482 0.0
C226 C 0.25375 0.83689 0.43474 0.0
C227 C 0.2884 0.86397 0.45492 0.0
C228 C 0.20107 0.71864 0.42712 0.0
O229 O 0.20116 0.74613 0.45392 0.0
H230 H 0.3116 0.81561 0.38265 0.0
H231 H 0.22637 0.83473 0.44101 0.0
O232 O 0.25978 0.79115 0.29703 0.0
H233 H 0.12951 0.78112 0.26154 0.0
H234 H 0.29323 0.88695 0.48041 0.0
Cu235 Cu 0.47459 0.24131 0.84029 0.0
N236 N 0.44544 0.25227 0.7991 0.0
N237 N 0.43332 0.29112 0.7565 0.0
C238 C 0.45507 0.28843 0.79117 0.0
C239 C 0.40895 0.25497 0.74129 0.0
C240 C 0.41613 0.23079 0.76841 0.0
O241 O 0.50625 0.2894 0.87833 0.0
C242 C 0.49827 0.21036 0.75739 0.0
O243 O 0.48006 0.2216 0.72899 0.0
H244 H 0.47966 0.31263 0.80788 0.0
H245 H 0.40259 0.20014 0.76396 0.0
N246 N 0.44451 0.20393 0.88447 0.0
N247 N 0.43512 0.1621 0.94224 0.0
C248 C 0.46002 0.19536 0.92162 0.0
C249 C 0.40821 0.17521 0.88116 0.0
C250 C 0.40237 0.14909 0.91682 0.0
C251 C 0.49157 0.29775 0.91529 0.0
O252 O 0.45704 0.27267 0.92956 0.0
H253 H 0.49026 0.21111 0.9295 0.0
H254 H 0.38854 0.17184 0.85237 0.0
O255 O 0.50194 0.21951 0.80333 0.0
H256 H 0.38875 0.24685 0.71141 0.0
H257 H 0.37713 0.12141 0.92113 0.0
C258 C 0.13427 0.5158 0.17792 0.0
C259 C 0.12343 0.53634 0.21057 0.0
C260 C 0.15677 0.50072 0.19352 0.0
C261 C 0.17056 0.50636 0.24209 0.0
H262 H 0.12521 0.51106 0.13981 0.0
H263 H 0.16321 0.48415 0.16726 0.0
S264 S 0.15155 0.5576 0.34274 0.0
N265 N 0.12813 0.56028 0.29526 0.0
N266 N 0.17256 0.53408 0.32267 0.0
C267 C 0.1613 0.52773 0.27481 0.0
C268 C 0.13731 0.54217 0.25957 0.0
C269 C 0.63309 0.09003 0.74841 0.0
C270 C 0.63378 0.0966 0.69782 0.0
C271 C 0.66659 0.09954 0.77359 0.0
C272 C 0.70197 0.11637 0.74923 0.0
H273 H 0.60677 0.0792 0.76907 0.0
H274 H 0.66541 0.09665 0.81322 0.0
S275 S 0.71831 0.13619 0.61606 0.0
N276 N 0.67189 0.11766 0.6232 0.0
N277 N 0.73525 0.13642 0.67113 0.0
C278 C 0.70261 0.12036 0.69799 0.0
C279 C 0.66836 0.11038 0.67214 0.0
C280 C 0.58673 0.65948 0.25229 0.0
C281 C 0.55409 0.64689 0.22295 0.0
C282 C 0.60337 0.69493 0.27781 0.0
C283 C 0.58843 0.71963 0.2746 0.0
H284 H 0.59849 0.64104 0.25737 0.0
H285 H 0.62754 0.7025 0.30144 0.0
S286 S 0.50526 0.70137 0.1985 0.0
N287 N 0.50898 0.66297 0.1893 0.0
N288 N 0.54017 0.72943 0.23653 0.0
C289 C 0.55689 0.70808 0.24323 0.0
C290 C 0.53975 0.67182 0.21772 0.0
C291 C 0.93639 0.54754 0.71324 0.0
C292 C 0.91737 0.51811 0.67801 0.0
C293 C 0.92372 0.57327 0.72444 0.0
C294 C 0.89172 0.57027 0.70056 0.0
H295 H 0.96011 0.54961 0.7337 0.0
H296 H 0.93747 0.59397 0.75413 0.0
S297 S 0.83528 0.50069 0.60138 0.0
N298 N 0.8674 0.48911 0.61649 0.0
N299 N 0.84377 0.53781 0.63698 0.0
C300 C 0.87412 0.54233 0.6631 0.0
C301 C 0.88684 0.51606 0.65202 0.0
C302 C 0.35342 0.90244 0.209 0.0
C303 C 0.36567 0.88179 0.17938 0.0
C304 C 0.32214 0.88374 0.24076 0.0
C305 C 0.30197 0.84361 0.24454 0.0
H306 H 0.36988 0.93331 0.2106 0.0
H307 H 0.31524 0.90125 0.26462 0.0
S308 S 0.31875 0.77631 0.16814 0.0
N309 N 0.35209 0.81894 0.15046 0.0
N310 N 0.29371 0.78382 0.21082 0.0
C311 C 0.31203 0.82254 0.21212 0.0
C312 C 0.34367 0.84161 0.17934 0.0
C313 C 0.46811 0.36633 0.66199 0.0
C314 C 0.48323 0.39944 0.69208 0.0
C315 C 0.44786 0.33009 0.68275 0.0
C316 C 0.44231 0.32627 0.734 0.0
H317 H 0.47424 0.36845 0.62286 0.0
H318 H 0.43941 0.30514 0.65925 0.0
S319 S 0.47093 0.40455 0.82687 0.0
N320 N 0.48753 0.42644 0.77418 0.0
N321 N 0.44885 0.35844 0.81308 0.0
C322 C 0.45422 0.35931 0.7635 0.0
C323 C 0.47502 0.39595 0.74257 0.0
C324 C 0.59615 0.9553 0.40571 0.0
C325 C 0.56547 0.93211 0.43652 0.0
C326 C 0.61985 0.94244 0.38523 0.0
C327 C 0.61458 0.9061 0.39536 0.0
H328 H 0.60176 0.98359 0.39711 0.0
H329 H 0.64301 0.96157 0.36163 0.0
S330 S 0.54045 0.83617 0.47861 0.0
N331 N 0.5316 0.87167 0.47776 0.0
N332 N 0.57775 0.8488 0.44245 0.0
C333 C 0.58439 0.88307 0.42714 0.0
C334 C 0.55951 0.89574 0.44688 0.0
C335 C 0.67213 0.56991 1.00092 0.0
C336 C 0.63741 0.54952 0.97539 0.0
C337 C 0.7059 0.59422 0.97577 0.0
C338 C 0.70555 0.59882 0.92468 0.0
H339 H 0.67358 0.565 1.03965 0.0
H340 H 0.7327 0.60662 0.99537 0.0
S341 S 0.62077 0.55736 0.84361 0.0
N342 N 0.60375 0.5395 0.89825 0.0
N343 N 0.66713 0.58561 0.85122 0.0
C344 C 0.67037 0.58164 0.90017 0.0
C345 C 0.63626 0.55667 0.92544 0.0
C346 C 0.13113 0.61152 0.42763 0.0
C347 C 0.12694 0.603 0.47813 0.0
C348 C 0.15657 0.64846 0.41104 0.0
C349 C 0.17831 0.6787 0.44447 0.0
H350 H 0.11395 0.58948 0.40076 0.0
H351 H 0.15812 0.65358 0.37189 0.0
S352 S 0.17837 0.67162 0.58058 0.0
N353 N 0.14751 0.62788 0.56125 0.0
N354 N 0.1941 0.69745 0.53059 0.0
C355 C 0.17421 0.67062 0.49511 0.0
C356 C 0.14877 0.63287 0.51184 0.0
C357 C 0.45607 0.08634 0.97745 0.0
C358 C 0.48606 0.10639 1.0111 0.0
C359 C 0.43649 0.10338 0.95822 0.0
C360 C 0.44637 0.14086 0.9723 0.0
H361 H 0.44961 0.0585 0.96327 0.0
H362 H 0.41583 0.0884 0.92925 0.0
S363 S 0.51796 0.20219 1.06613 0.0
N364 N 0.52134 0.16328 1.06253 0.0
N365 N 0.48403 0.19508 1.02709 0.0
C366 C 0.47379 0.15956 1.00943 0.0
C367 C 0.49389 0.14242 1.02859 0.0
C368 C 0.3623 0.52476 0.47703 0.0
C369 C 0.38203 0.50432 0.47823 0.0
C370 C 0.32876 0.51154 0.44938 0.0
C371 C 0.31301 0.47686 0.4226 0.0
H372 H 0.37339 0.5518 0.49683 0.0
H373 H 0.31515 0.52864 0.44889 0.0
S374 S 0.3535 0.41265 0.41228 0.0
N375 N 0.38336 0.44793 0.44898 0.0
N376 N 0.31979 0.42231 0.39866 0.0
C377 C 0.33179 0.45558 0.42446 0.0
C378 C 0.36628 0.46939 0.45196 0.0
C379 C 0.88467 0.37755 1.02606 0.0
C380 C 0.91728 0.40645 1.00334 0.0
C381 C 0.87147 0.33914 1.01407 0.0
C382 C 0.8902 0.32843 0.97864 0.0
H383 H 0.86849 0.38477 1.05176 0.0
H384 H 0.84512 0.31763 1.03045 0.0
S385 S 0.97806 0.39411 0.91057 0.0
N386 N 0.96935 0.42248 0.94626 0.0
N387 N 0.94408 0.35022 0.92252 0.0
C388 C 0.92404 0.35722 0.95758 0.0
C389 C 0.93762 0.39633 0.97013 0.0
C390 C 0.88279 0.53668 0.98962 0.0
C391 C 0.89496 0.51352 0.96541 0.0
C392 C 0.86122 0.54957 0.96504 0.0
C393 C 0.85028 0.53938 0.91539 0.0
H394 H 0.88972 0.54473 1.02808 0.0
H395 H 0.85304 0.56778 0.98515 0.0
S396 S 0.87766 0.48255 0.83337 0.0
N397 N 0.89665 0.48345 0.88717 0.0
N398 N 0.85512 0.50663 0.84198 0.0
C399 C 0.86228 0.51643 0.89054 0.0
C400 C 0.88483 0.50381 0.91525 0.0
C401 C 0.41087 0.91235 0.49868 0.0
C402 C 0.43692 0.9211 0.45947 0.0
C403 C 0.37139 0.89269 0.49041 0.0
C404 C 0.35647 0.88073 0.44273 0.0
H405 H 0.42103 0.92009 0.53625 0.0
H406 H 0.35234 0.88582 0.52163 0.0
S407 S 0.41218 0.9 0.32679 0.0
N408 N 0.44473 0.9188 0.37065 0.0
N409 N 0.37065 0.88155 0.35528 0.0
C410 C 0.38211 0.89012 0.40302 0.0
C411 C 0.42228 0.91031 0.41136 0.0
C412 C 0.53945 0.40585 0.93013 0.0
C413 C 0.53733 0.4119 0.98145 0.0
C414 C 0.52652 0.36921 0.90926 0.0
C415 C 0.51007 0.3367 0.93852 0.0
H416 H 0.55078 0.42965 0.90544 0.0
H417 H 0.52813 0.36623 0.86966 0.0
S418 S 0.49866 0.33581 1.07443 0.0
N419 N 0.51887 0.38137 1.06093 0.0
N420 N 0.4928 0.31263 1.02136 0.0
C421 C 0.50756 0.34203 0.98963 0.0
C422 C 0.52146 0.37944 1.01111 0.0
C423 C 0.10479 0.44856 0.4886 0.0
C424 C 0.08758 0.46535 0.46246 0.0
C425 C 0.11822 0.42677 0.46389 0.0
C426 C 0.11419 0.42051 0.41257 0.0
H427 H 0.11037 0.4546 0.52768 0.0
H428 H 0.13416 0.41686 0.48436 0.0
S429 S 0.06789 0.45546 0.32843 0.0
N430 N 0.06468 0.47213 0.3834 0.0
N431 N 0.08956 0.43084 0.33711 0.0
C432 C 0.09457 0.43492 0.38673 0.0
C433 C 0.08139 0.45749 0.41168 0.0
C434 C 0.64602 0.1285 1.01941 0.0
C435 C 0.61395 0.11966 0.9906 0.0
C436 C 0.6833 0.15193 1.00152 0.0
C437 C 0.69012 0.16798 0.95435 0.0
H438 H 0.64234 0.11783 1.05641 0.0
H439 H 0.70704 0.15772 1.02503 0.0
S440 S 0.6162 0.15013 0.86196 0.0
N441 N 0.59181 0.12603 0.91041 0.0
N442 N 0.66145 0.17105 0.87803 0.0
C443 C 0.65834 0.15887 0.9249 0.0
C444 C 0.62046 0.13447 0.94265 0.0
C445 C 0.5167 0.63042 0.45121 0.0
C446 C 0.50909 0.61946 0.50055 0.0
C447 C 0.53672 0.66886 0.43916 0.0
C448 C 0.54958 0.69767 0.47604 0.0
H449 H 0.50635 0.60905 0.42172 0.0
H450 H 0.54185 0.6761 0.40064 0.0
S451 S 0.53726 0.68358 0.61077 0.0
N452 N 0.51645 0.63993 0.58658 0.0
N453 N 0.554 0.71267 0.56381 0.0
C454 C 0.54318 0.68707 0.52559 0.0
C455 C 0.52289 0.64779 0.53789 0.0
C456 C 0.52693 0.15657 0.66402 0.0
C457 C 0.53265 0.1318 0.69337 0.0
C458 C 0.51625 0.18203 0.68504 0.0
C459 C 0.51106 0.18405 0.73639 0.0
H460 H 0.53181 0.15707 0.62465 0.0
H461 H 0.51252 0.20067 0.6608 0.0
S462 S 0.51771 0.12178 0.82876 0.0
N463 N 0.52896 0.10858 0.77606 0.0
N464 N 0.50936 0.15637 0.81535 0.0
C465 C 0.51559 0.15859 0.76592 0.0
C466 C 0.52619 0.13254 0.74451 0.0
C467 C 0.40775 0.49925 0.16829 0.0
C468 C 0.43331 0.52033 0.20661 0.0
C469 C 0.36832 0.4791 0.17625 0.0
C470 C 0.3526 0.47945 0.22267 0.0
H471 H 0.41814 0.49949 0.13126 0.0
H472 H 0.34985 0.46413 0.14525 0.0
S473 S 0.40793 0.52743 0.33674 0.0
N474 N 0.44058 0.53709 0.29395 0.0
N475 N 0.36665 0.5015 0.30857 0.0
C476 C 0.37808 0.49912 0.262 0.0
C477 C 0.41832 0.51909 0.25396 0.0
C478 C 0.88105 0.38673 0.75989 0.0
C479 C 0.89401 0.38755 0.71102 0.0
C480 C 0.85865 0.35221 0.78439 0.0
C481 C 0.84871 0.31698 0.76142 0.0
H482 H 0.88884 0.41309 0.7799 0.0
H483 H 0.85031 0.35324 0.82223 0.0
S484 S 0.8723 0.30235 0.63309 0.0
N485 N 0.89234 0.3491 0.63975 0.0
N486 N 0.85193 0.28467 0.68649 0.0
C487 C 0.86093 0.31718 0.71257 0.0
C488 C 0.88317 0.35225 0.68728 0.0
C489 C 0.48388 0.85873 0.18427 0.0
C490 C 0.49166 0.89632 0.19299 0.0
C491 C 0.49353 0.84019 0.21905 0.0
C492 C 0.51153 0.85887 0.2632 0.0
H493 H 0.46766 0.84268 0.1521 0.0
H494 H 0.48588 0.81076 0.21228 0.0
S495 S 0.53956 0.95741 0.30269 0.0
N496 N 0.51949 0.95182 0.24822 0.0
N497 N 0.53859 0.91698 0.31305 0.0
C498 C 0.52158 0.89703 0.27106 0.0
C499 C 0.51149 0.91585 0.23592 0.0
C500 C 0.62547 0.49954 0.73632 0.0
C501 C 0.61776 0.50572 0.6878 0.0
C502 C 0.66282 0.51252 0.75277 0.0
C503 C 0.69438 0.53291 0.72179 0.0
H504 H 0.6024 0.48487 0.76229 0.0
H505 H 0.66703 0.50763 0.7906 0.0
S506 S 0.69065 0.55552 0.5911 0.0
N507 N 0.64556 0.53221 0.60841 0.0
N508 N 0.71562 0.558 0.63999 0.0
C509 C 0.68732 0.53937 0.67333 0.0
C510 C 0.6492 0.52557 0.65625 0.0
C511 C 0.09682 0.66728 0.19717 0.0
C512 C 0.08029 0.63238 0.22141 0.0
C513 C 0.10814 0.70153 0.22373 0.0
C514 C 0.10314 0.70169 0.27523 0.0
H515 H 0.10372 0.66843 0.15833 0.0
H516 H 0.12411 0.72813 0.20464 0.0
S517 S 0.05522 0.61682 0.35369 0.0
N518 N 0.0551 0.59929 0.29803 0.0
N519 N 0.07563 0.66345 0.34773 0.0
C520 C 0.08297 0.66644 0.29857 0.0
C521 C 0.07192 0.63181 0.27176 0.0
loop_
_geom_bond_atom_site_label_1
_geom_bond_atom_site_label_2
_geom_bond_distance
_geom_bond_site_symmetry_2
_ccdc_geom_bond_type
H0 C8 0.940 . S
H1 C11 0.940 . S
H2 C13 0.940 . S
H3 C14 0.940 . S
H4 C17 0.940 . S
H5 C19 0.940 . S
N6 N7 1.190 1_655 S
N6 C10 1.477 1_554 S
N7 N6 1.190 1_455 S
N7 C16 1.477 . S
C8 H0 0.940 . S
C8 C9 1.390 . S
C8 C10 1.322 . S
C9 C8 1.390 . S
C9 C13 1.370 . S
C10 N6 1.477 1_556 S
C10 C8 1.322 . S
C10 C11 1.447 . S
C11 H1 0.940 . S
C11 C10 1.447 . S
C11 C12 1.373 . S
C12 C11 1.373 . S
C12 C13 1.417 . S
C13 H2 0.940 . S
C13 C9 1.370 . S
C13 C12 1.417 . S
C14 H3 0.940 . S
C14 C15 1.390 . S
C14 C16 1.322 . S
C15 C14 1.390 . S
C15 C19 1.370 . S
C16 N7 1.477 . S
C16 C14 1.322 . S
C16 C17 1.447 . S
C17 H4 0.940 . S
C17 C16 1.447 . S
C17 C18 1.373 . S
C18 C17 1.373 . S
C18 C19 1.417 . S
C19 H5 0.940 . S
C19 C15 1.370 . S
C19 C18 1.417 . S
H20 C28 0.940 . S
H21 C31 0.940 . S
H22 C33 0.940 . S
H23 C34 0.940 . S
H24 C37 0.940 . S
H25 C39 0.940 . S
N26 N27 1.190 . S
N26 C30 1.477 . S
N27 N26 1.190 . S
N27 C36 1.477 1_545 S
C28 H20 0.940 . S
C28 C29 1.390 . S
C28 C30 1.322 . S
C29 C28 1.390 . S
C29 C33 1.370 . S
C30 N26 1.477 . S
C30 C28 1.322 . S
C30 C31 1.447 . S
C31 H21 0.940 . S
C31 C30 1.447 . S
C31 C32 1.373 . S
C32 C31 1.373 . S
C32 C33 1.417 . S
C33 H22 0.940 . S
C33 C29 1.370 . S
C33 C32 1.417 . S
C34 H23 0.940 . S
C34 C35 1.390 . S
C34 C36 1.322 . S
C35 C34 1.390 . S
C35 C39 1.370 . S
C36 N27 1.477 1_565 S
C36 C34 1.322 . S
C36 C37 1.447 . S
C37 H24 0.940 . S
C37 C36 1.447 . S
C37 C38 1.373 . S
C38 C37 1.373 . S
C38 C39 1.417 . S
C39 H25 0.940 . S
C39 C35 1.370 . S
C39 C38 1.417 . S
H40 C48 0.940 . S
H41 C51 0.940 . S
H42 C53 0.940 . S
H43 C54 0.940 . S
H44 C57 0.940 . S
H45 C59 0.940 . S
N46 N47 1.187 1_556 S
N46 C50 1.477 . S
N47 N46 1.187 1_554 S
N47 C56 1.481 . S
C48 H40 0.940 . S
C48 C49 1.390 . S
C48 C50 1.322 . S
C49 C48 1.390 . S
C49 C53 1.370 . S
C50 N46 1.477 . S
C50 C48 1.322 . S
C50 C51 1.447 . S
C51 H41 0.940 . S
C51 C50 1.447 . S
C51 C52 1.373 . S
C52 C51 1.373 . S
C52 C53 1.417 . S
C53 H42 0.940 . S
C53 C49 1.370 . S
C53 C52 1.417 . S
C54 H43 0.940 . S
C54 C55 1.390 . S
C54 C56 1.322 . S
C55 C54 1.390 . S
C55 C59 1.370 . S
C56 N47 1.481 . S
C56 C54 1.322 . S
C56 C57 1.447 . S
C57 H44 0.940 . S
C57 C56 1.447 . S
C57 C58 1.373 . S
C58 C57 1.373 . S
C58 C59 1.417 . S
C59 H45 0.940 . S
C59 C55 1.370 . S
C59 C58 1.417 . S
H60 C68 0.940 . S
H61 C71 0.940 . S
H62 C73 0.940 . S
H63 C74 0.940 . S
H64 C77 0.940 . S
H65 C79 0.940 . S
N66 N67 1.188 . S
N66 C70 1.468 1_655 S
N67 N66 1.188 . S
N67 C76 1.477 . S
C68 H60 0.940 . S
C68 C69 1.390 . S
C68 C70 1.322 . S
C69 C68 1.390 . S
C69 C73 1.370 . S
C70 N66 1.468 1_455 S
C70 C68 1.322 . S
C70 C71 1.447 . S
C71 H61 0.940 . S
C71 C70 1.447 . S
C71 C72 1.373 . S
C72 C71 1.373 . S
C72 C73 1.417 . S
C73 H62 0.940 . S
C73 C69 1.370 . S
C73 C72 1.417 . S
C74 H63 0.940 . S
C74 C75 1.390 . S
C74 C76 1.322 . S
C75 C74 1.390 . S
C75 C79 1.370 . S
C76 N67 1.477 . S
C76 C74 1.322 . S
C76 C77 1.447 . S
C77 H64 0.940 . S
C77 C76 1.447 . S
C77 C78 1.373 . S
C78 C77 1.373 . S
C78 C79 1.417 . S
C79 H65 0.940 . S
C79 C75 1.370 . S
C79 C78 1.417 . S
H80 C88 0.940 . S
H81 C91 0.940 . S
H82 C93 0.940 . S
H83 C94 0.940 . S
H84 C97 0.940 . S
H85 C99 0.940 . S
N86 N87 1.190 . S
N86 C90 1.477 1_554 S
N87 N86 1.190 . S
N87 C96 1.477 1_545 S
C88 H80 0.940 . S
C88 C89 1.390 . S
C88 C90 1.322 . S
C89 C88 1.390 . S
C89 C93 1.370 . S
C90 N86 1.477 1_556 S
C90 C88 1.322 . S
C90 C91 1.447 . S
C91 H81 0.940 . S
C91 C90 1.447 . S
C91 C92 1.373 . S
C92 C91 1.373 . S
C92 C93 1.417 . S
C93 H82 0.940 . S
C93 C89 1.370 . S
C93 C92 1.417 . S
C94 H83 0.940 . S
C94 C95 1.390 . S
C94 C96 1.322 . S
C95 C94 1.390 . S
C95 C99 1.370 . S
C96 N87 1.477 1_565 S
C96 C94 1.322 . S
C96 C97 1.447 . S
C97 H84 0.940 . S
C97 C96 1.447 . S
C97 C98 1.373 . S
C98 C97 1.373 . S
C98 C99 1.417 . S
C99 H85 0.940 . S
C99 C95 1.370 . S
C99 C98 1.417 . S
H100 C108 0.940 . S
H101 C111 0.940 . S
H102 C113 0.940 . S
H103 C114 0.940 . S
H104 C117 0.940 . S
H105 C119 0.940 . S
N106 N107 1.190 . S
N106 C110 1.477 . S
N107 N106 1.190 . S
N107 C116 1.477 . S
C108 H100 0.940 . S
C108 C109 1.390 . S
C108 C110 1.322 . S
C109 C108 1.390 . S
C109 C113 1.370 . S
C110 N106 1.477 . S
C110 C108 1.322 . S
C110 C111 1.447 . S
C111 H101 0.940 . S
C111 C110 1.447 . S
C111 C112 1.373 . S
C112 C111 1.373 . S
C112 C113 1.417 . S
C113 H102 0.940 . S
C113 C109 1.370 . S
C113 C112 1.417 . S
C114 H103 0.940 . S
C114 C115 1.390 . S
C114 C116 1.322 . S
C115 C114 1.390 . S
C115 C119 1.370 . S
C116 N107 1.477 . S
C116 C114 1.322 . S
C116 C117 1.447 . S
C117 H104 0.940 . S
C117 C116 1.447 . S
C117 C118 1.373 . S
C118 C117 1.373 . S
C118 C119 1.417 . S
C119 H105 0.940 . S
C119 C115 1.370 . S
C119 C118 1.417 . S
Cu120 N121 1.999 . S
Cu120 O126 1.974 . S
Cu120 N131 1.985 . S
Cu120 O140 1.959 . S
N121 Cu120 1.999 . S
N121 C123 1.263 . S
N121 C125 1.389 . S
N122 C123 1.358 . S
N122 C124 1.400 . S
C123 N121 1.263 . S
C123 N122 1.358 . S
C123 H129 0.930 . S
C124 N122 1.400 . S
C124 C125 1.351 . S
C124 H141 0.930 . S
C125 N121 1.389 . S
C125 C124 1.351 . S
C125 H130 0.930 . S
O126 Cu120 1.974 . S
O126 C136 1.282 . S
C127 O128 1.261 . S
C127 O140 1.251 . S
O128 C127 1.261 . S
H129 C123 0.930 . S
H130 C125 0.930 . S
N131 Cu120 1.985 . S
N131 C133 1.335 . S
N131 C134 1.390 . S
N132 C133 1.345 . S
N132 C135 1.336 . S
C133 N131 1.335 . S
C133 N132 1.345 . S
C133 H138 0.930 . S
C134 N131 1.390 . S
C134 C135 1.346 . S
C134 H139 0.930 . S
C135 N132 1.336 . S
C135 C134 1.346 . S
C135 H142 0.929 . S
C136 O126 1.282 . S
C136 O137 1.216 . S
O137 C136 1.216 . S
H138 C133 0.930 . S
H139 C134 0.930 . S
O140 Cu120 1.959 . S
O140 C127 1.251 . S
H141 C124 0.930 . S
H142 C135 0.929 . S
Cu143 N144 1.999 . S
Cu143 O149 1.974 . S
Cu143 N154 1.985 . S
Cu143 O163 1.959 . S
N144 Cu143 1.999 . S
N144 C146 1.263 . S
N144 C148 1.389 . S
N145 C146 1.358 . S
N145 C147 1.400 . S
C146 N144 1.263 . S
C146 N145 1.358 . S
C146 H152 0.930 . S
C147 N145 1.400 . S
C147 C148 1.351 . S
C147 H164 0.930 . S
C148 N144 1.389 . S
C148 C147 1.351 . S
C148 H153 0.930 . S
O149 Cu143 1.974 . S
O149 C159 1.282 . S
C150 O151 1.261 . S
C150 O163 1.251 . S
O151 C150 1.261 . S
H152 C146 0.930 . S
H153 C148 0.930 . S
N154 Cu143 1.985 . S
N154 C156 1.335 . S
N154 C157 1.390 . S
N155 C156 1.345 . S
N155 C158 1.336 . S
C156 N154 1.335 . S
C156 N155 1.345 . S
C156 H161 0.930 . S
C157 N154 1.390 . S
C157 C158 1.346 . S
C157 H162 0.930 . S
C158 N155 1.336 . S
C158 C157 1.346 . S
C158 H165 0.929 . S
C159 O149 1.282 . S
C159 O160 1.216 . S
O160 C159 1.216 . S
H161 C156 0.930 . S
H162 C157 0.930 . S
O163 Cu143 1.959 . S
O163 C150 1.251 . S
H164 C147 0.930 . S
H165 C158 0.929 . S
Cu166 N167 1.999 . S
Cu166 O172 1.974 . S
Cu166 N177 1.985 . S
Cu166 O186 1.959 . S
N167 Cu166 1.999 . S
N167 C169 1.263 . S
N167 C171 1.389 . S
N168 C169 1.358 . S
N168 C170 1.400 . S
C169 N167 1.263 . S
C169 N168 1.358 . S
C169 H175 0.930 . S
C170 N168 1.400 . S
C170 C171 1.351 . S
C170 H187 0.930 . S
C171 N167 1.389 . S
C171 C170 1.351 . S
C171 H176 0.930 . S
O172 Cu166 1.974 . S
O172 C182 1.282 . S
C173 O174 1.261 . S
C173 O186 1.251 . S
O174 C173 1.261 . S
H175 C169 0.930 . S
H176 C171 0.930 . S
N177 Cu166 1.985 . S
N177 C179 1.335 . S
N177 C180 1.390 . S
N178 C179 1.345 . S
N178 C181 1.336 . S
C179 N177 1.335 . S
C179 N178 1.345 . S
C179 H184 0.930 . S
C180 N177 1.390 . S
C180 C181 1.346 . S
C180 H185 0.930 . S
C181 N178 1.336 . S
C181 C180 1.346 . S
C181 H188 0.929 . S
C182 O172 1.282 . S
C182 O183 1.216 . S
O183 C182 1.216 . S
H184 C179 0.930 . S
H185 C180 0.930 . S
O186 Cu166 1.959 . S
O186 C173 1.251 . S
H187 C170 0.930 . S
H188 C181 0.929 . S
Cu189 N190 1.999 . S
Cu189 O195 1.974 . S
Cu189 N200 1.985 . S
Cu189 O209 1.959 . S
N190 Cu189 1.999 . S
N190 C192 1.263 . S
N190 C194 1.389 . S
N191 C192 1.358 . S
N191 C193 1.400 . S
C192 N190 1.263 . S
C192 N191 1.358 . S
C192 H198 0.930 . S
C193 N191 1.400 . S
C193 C194 1.351 . S
C193 H210 0.930 . S
C194 N190 1.389 . S
C194 C193 1.351 . S
C194 H199 0.930 . S
O195 Cu189 1.974 . S
O195 C205 1.282 . S
C196 O197 1.261 . S
C196 O209 1.251 . S
O197 C196 1.261 . S
H198 C192 0.930 . S
H199 C194 0.930 . S
N200 Cu189 1.985 . S
N200 C202 1.335 . S
N200 C203 1.390 . S
N201 C202 1.345 . S
N201 C204 1.336 . S
C202 N200 1.335 . S
C202 N201 1.345 . S
C202 H207 0.930 . S
C203 N200 1.390 . S
C203 C204 1.346 . S
C203 H208 0.930 . S
C204 N201 1.336 . S
C204 C203 1.346 . S
C204 H211 0.929 . S
C205 O195 1.282 . S
C205 O206 1.216 . S
O206 C205 1.216 . S
H207 C202 0.930 . S
H208 C203 0.930 . S
O209 Cu189 1.959 . S
O209 C196 1.251 . S
H210 C193 0.930 . S
H211 C204 0.929 . S
Cu212 N213 1.999 . S
Cu212 O218 1.974 . S
Cu212 N223 1.985 . S
Cu212 O232 1.959 . S
N213 Cu212 1.999 . S
N213 C215 1.263 . S
N213 C217 1.389 . S
N214 C215 1.358 . S
N214 C216 1.400 . S
C215 N213 1.263 . S
C215 N214 1.358 . S
C215 H221 0.930 . S
C216 N214 1.400 . S
C216 C217 1.351 . S
C216 H233 0.930 . S
C217 N213 1.389 . S
C217 C216 1.351 . S
C217 H222 0.930 . S
O218 Cu212 1.974 . S
O218 C228 1.282 . S
C219 O220 1.261 . S
C219 O232 1.251 . S
O220 C219 1.261 . S
H221 C215 0.930 . S
H222 C217 0.930 . S
N223 Cu212 1.985 . S
N223 C225 1.335 . S
N223 C226 1.390 . S
N224 C225 1.345 . S
N224 C227 1.336 . S
C225 N223 1.335 . S
C225 N224 1.345 . S
C225 H230 0.930 . S
C226 N223 1.390 . S
C226 C227 1.346 . S
C226 H231 0.930 . S
C227 N224 1.336 . S
C227 C226 1.346 . S
C227 H234 0.929 . S
C228 O218 1.282 . S
C228 O229 1.216 . S
O229 C228 1.216 . S
H230 C225 0.930 . S
H231 C226 0.930 . S
O232 Cu212 1.959 . S
O232 C219 1.251 . S
H233 C216 0.930 . S
H234 C227 0.929 . S
Cu235 N236 1.999 . S
Cu235 O241 1.974 . S
Cu235 N246 1.985 . S
Cu235 O255 1.959 . S
N236 Cu235 1.999 . S
N236 C238 1.263 . S
N236 C240 1.389 . S
N237 C238 1.358 . S
N237 C239 1.400 . S
C238 N236 1.263 . S
C238 N237 1.358 . S
C238 H244 0.930 . S
C239 N237 1.400 . S
C239 C240 1.351 . S
C239 H256 0.930 . S
C240 N236 1.389 . S
C240 C239 1.351 . S
C240 H245 0.930 . S
O241 Cu235 1.974 . S
O241 C251 1.282 . S
C242 O243 1.261 . S
C242 O255 1.251 . S
O243 C242 1.261 . S
H244 C238 0.930 . S
H245 C240 0.930 . S
N246 Cu235 1.985 . S
N246 C248 1.335 . S
N246 C249 1.390 . S
N247 C248 1.345 . S
N247 C250 1.336 . S
C248 N246 1.335 . S
C248 N247 1.345 . S
C248 H253 0.930 . S
C249 N246 1.390 . S
C249 C250 1.346 . S
C249 H254 0.930 . S
C250 N247 1.336 . S
C250 C249 1.346 . S
C250 H257 0.929 . S
C251 O241 1.282 . S
C251 O252 1.216 . S
O252 C251 1.216 . S
H253 C248 0.930 . S
H254 C249 0.930 . S
O255 Cu235 1.959 . S
O255 C242 1.251 . S
H256 C239 0.930 . S
H257 C250 0.929 . S
C258 C259 1.369 . S
C258 C260 1.419 . S
C258 H262 0.930 . S
C259 C258 1.369 . S
C259 C268 1.429 . S
C260 C258 1.419 . S
C260 C261 1.363 . S
C260 H263 0.929 . S
C261 C260 1.363 . S
C261 C267 1.428 . S
H262 C258 0.930 . S
H263 C260 0.929 . S
S264 N265 1.613 . S
S264 N266 1.610 . S
N265 S264 1.613 . S
N265 C268 1.350 . S
N266 S264 1.610 . S
N266 C267 1.351 . S
C267 C261 1.428 . S
C267 N266 1.351 . S
C267 C268 1.434 . S
C268 C259 1.429 . S
C268 N265 1.350 . S
C268 C267 1.434 . S
C269 C270 1.369 . S
C269 C271 1.419 . S
C269 H273 0.930 . S
C270 C269 1.369 . S
C270 C279 1.429 . S
C271 C269 1.419 . S
C271 C272 1.363 . S
C271 H274 0.929 . S
C272 C271 1.363 . S
C272 C278 1.428 . S
H273 C269 0.930 . S
H274 C271 0.929 . S
S275 N276 1.613 . S
S275 N277 1.610 . S
N276 S275 1.613 . S
N276 C279 1.350 . S
N277 S275 1.610 . S
N277 C278 1.351 . S
C278 C272 1.428 . S
C278 N277 1.351 . S
C278 C279 1.434 . S
C279 C270 1.429 . S
C279 N276 1.350 . S
C279 C278 1.434 . S
C280 C281 1.369 . S
C280 C282 1.419 . S
C280 H284 0.930 . S
C281 C280 1.369 . S
C281 C290 1.429 . S
C282 C280 1.419 . S
C282 C283 1.363 . S
C282 H285 0.929 . S
C283 C282 1.363 . S
C283 C289 1.428 . S
H284 C280 0.930 . S
H285 C282 0.929 . S
S286 N287 1.613 . S
S286 N288 1.610 . S
N287 S286 1.613 . S
N287 C290 1.350 . S
N288 S286 1.610 . S
N288 C289 1.351 . S
C289 C283 1.428 . S
C289 N288 1.351 . S
C289 C290 1.434 . S
C290 C281 1.429 . S
C290 N287 1.350 . S
C290 C289 1.434 . S
C291 C292 1.369 . S
C291 C293 1.419 . S
C291 H295 0.930 . S
C292 C291 1.369 . S
C292 C301 1.429 . S
C293 C291 1.419 . S
C293 C294 1.363 . S
C293 H296 0.929 . S
C294 C293 1.363 . S
C294 C300 1.428 . S
H295 C291 0.930 . S
H296 C293 0.929 . S
S297 N298 1.613 . S
S297 N299 1.610 . S
N298 S297 1.613 . S
N298 C301 1.350 . S
N299 S297 1.610 . S
N299 C300 1.351 . S
C300 C294 1.428 . S
C300 N299 1.351 . S
C300 C301 1.434 . S
C301 C292 1.429 . S
C301 N298 1.350 . S
C301 C300 1.434 . S
C302 C303 1.369 . S
C302 C304 1.419 . S
C302 H306 0.930 . S
C303 C302 1.369 . S
C303 C312 1.429 . S
C304 C302 1.419 . S
C304 C305 1.363 . S
C304 H307 0.929 . S
C305 C304 1.363 . S
C305 C311 1.428 . S
H306 C302 0.930 . S
H307 C304 0.929 . S
S308 N309 1.613 . S
S308 N310 1.610 . S
N309 S308 1.613 . S
N309 C312 1.350 . S
N310 S308 1.610 . S
N310 C311 1.351 . S
C311 C305 1.428 . S
C311 N310 1.351 . S
C311 C312 1.434 . S
C312 C303 1.429 . S
C312 N309 1.350 . S
C312 C311 1.434 . S
C313 C314 1.369 . S
C313 C315 1.419 . S
C313 H317 0.930 . S
C314 C313 1.369 . S
C314 C323 1.429 . S
C315 C313 1.419 . S
C315 C316 1.363 . S
C315 H318 0.929 . S
C316 C315 1.363 . S
C316 C322 1.428 . S
H317 C313 0.930 . S
H318 C315 0.929 . S
S319 N320 1.613 . S
S319 N321 1.610 . S
N320 S319 1.613 . S
N320 C323 1.350 . S
N321 S319 1.610 . S
N321 C322 1.351 . S
C322 C316 1.428 . S
C322 N321 1.351 . S
C322 C323 1.434 . S
C323 C314 1.429 . S
C323 N320 1.350 . S
C323 C322 1.434 . S
C324 C325 1.369 . S
C324 C326 1.419 . S
C324 H328 0.930 . S
C325 C324 1.369 . S
C325 C334 1.429 . S
C326 C324 1.419 . S
C326 C327 1.363 . S
C326 H329 0.929 . S
C327 C326 1.363 . S
C327 C333 1.428 . S
H328 C324 0.930 . S
H329 C326 0.929 . S
S330 N331 1.613 . S
S330 N332 1.610 . S
N331 S330 1.613 . S
N331 C334 1.350 . S
N332 S330 1.610 . S
N332 C333 1.351 . S
C333 C327 1.428 . S
C333 N332 1.351 . S
C333 C334 1.434 . S
C334 C325 1.429 . S
C334 N331 1.350 . S
C334 C333 1.434 . S
C335 C336 1.369 . S
C335 C337 1.419 . S
C335 H339 0.930 . S
C336 C335 1.369 . S
C336 C345 1.429 . S
C337 C335 1.419 . S
C337 C338 1.363 . S
C337 H340 0.929 . S
C338 C337 1.363 . S
C338 C344 1.428 . S
H339 C335 0.930 . S
H340 C337 0.929 . S
S341 N342 1.613 . S
S341 N343 1.610 . S
N342 S341 1.613 . S
N342 C345 1.350 . S
N343 S341 1.610 . S
N343 C344 1.351 . S
C344 C338 1.428 . S
C344 N343 1.351 . S
C344 C345 1.434 . S
C345 C336 1.429 . S
C345 N342 1.350 . S
C345 C344 1.434 . S
C346 C347 1.369 . S
C346 C348 1.419 . S
C346 H350 0.930 . S
C347 C346 1.369 . S
C347 C356 1.429 . S
C348 C346 1.419 . S
C348 C349 1.363 . S
C348 H351 0.929 . S
C349 C348 1.363 . S
C349 C355 1.428 . S
H350 C346 0.930 . S
H351 C348 0.929 . S
S352 N353 1.613 . S
S352 N354 1.610 . S
N353 S352 1.613 . S
N353 C356 1.350 . S
N354 S352 1.610 . S
N354 C355 1.351 . S
C355 C349 1.428 . S
C355 N354 1.351 . S
C355 C356 1.434 . S
C356 C347 1.429 . S
C356 N353 1.350 . S
C356 C355 1.434 . S
C357 C358 1.369 . S
C357 C359 1.419 . S
C357 H361 0.930 . S
C358 C357 1.369 . S
C358 C367 1.429 . S
C359 C357 1.419 . S
C359 C360 1.363 . S
C359 H362 0.929 . S
C360 C359 1.363 . S
C360 C366 1.428 . S
H361 C357 0.930 . S
H362 C359 0.929 . S
S363 N364 1.613 . S
S363 N365 1.610 . S
N364 S363 1.613 . S
N364 C367 1.350 . S
N365 S363 1.610 . S
N365 C366 1.351 . S
C366 C360 1.428 . S
C366 N365 1.351 . S
C366 C367 1.434 . S
C367 C358 1.429 . S
C367 N364 1.350 . S
C367 C366 1.434 . S
C368 C369 1.369 . S
C368 C370 1.419 . S
C368 H372 0.930 . S
C369 C368 1.369 . S
C369 C378 1.429 . S
C370 C368 1.419 . S
C370 C371 1.363 . S
C370 H373 0.929 . S
C371 C370 1.363 . S
C371 C377 1.428 . S
H372 C368 0.930 . S
H373 C370 0.929 . S
S374 N375 1.613 . S
S374 N376 1.610 . S
N375 S374 1.613 . S
N375 C378 1.350 . S
N376 S374 1.610 . S
N376 C377 1.351 . S
C377 C371 1.428 . S
C377 N376 1.351 . S
C377 C378 1.434 . S
C378 C369 1.429 . S
C378 N375 1.350 . S
C378 C377 1.434 . S
C379 C380 1.369 . S
C379 C381 1.419 . S
C379 H383 0.930 . S
C380 C379 1.369 . S
C380 C389 1.429 . S
C381 C379 1.419 . S
C381 C382 1.363 . S
C381 H384 0.929 . S
C382 C381 1.363 . S
C382 C388 1.428 . S
H383 C379 0.930 . S
H384 C381 0.929 . S
S385 N386 1.613 . S
S385 N387 1.610 . S
N386 S385 1.613 . S
N386 C389 1.350 . S
N387 S385 1.610 . S
N387 C388 1.351 . S
C388 C382 1.428 . S
C388 N387 1.351 . S
C388 C389 1.434 . S
C389 C380 1.429 . S
C389 N386 1.350 . S
C389 C388 1.434 . S
C390 C391 1.369 . S
C390 C392 1.419 . S
C390 H394 0.930 . S
C391 C390 1.369 . S
C391 C400 1.429 . S
C392 C390 1.419 . S
C392 C393 1.363 . S
C392 H395 0.929 . S
C393 C392 1.363 . S
C393 C399 1.428 . S
H394 C390 0.930 . S
H395 C392 0.929 . S
S396 N397 1.613 . S
S396 N398 1.610 . S
N397 S396 1.613 . S
N397 C400 1.350 . S
N398 S396 1.610 . S
N398 C399 1.351 . S
C399 C393 1.428 . S
C399 N398 1.351 . S
C399 C400 1.434 . S
C400 C391 1.429 . S
C400 N397 1.350 . S
C400 C399 1.434 . S
C401 C402 1.369 . S
C401 C403 1.419 . S
C401 H405 0.930 . S
C402 C401 1.369 . S
C402 C411 1.429 . S
C403 C401 1.419 . S
C403 C404 1.363 . S
C403 H406 0.929 . S
C404 C403 1.363 . S
C404 C410 1.428 . S
H405 C401 0.930 . S
H406 C403 0.929 . S
S407 N408 1.613 . S
S407 N409 1.610 . S
N408 S407 1.613 . S
N408 C411 1.350 . S
N409 S407 1.610 . S
N409 C410 1.351 . S
C410 C404 1.428 . S
C410 N409 1.351 . S
C410 C411 1.434 . S
C411 C402 1.429 . S
C411 N408 1.350 . S
C411 C410 1.434 . S
C412 C413 1.369 . S
C412 C414 1.419 . S
C412 H416 0.930 . S
C413 C412 1.369 . S
C413 C422 1.429 . S
C414 C412 1.419 . S
C414 C415 1.363 . S
C414 H417 0.929 . S
C415 C414 1.363 . S
C415 C421 1.428 . S
H416 C412 0.930 . S
H417 C414 0.929 . S
S418 N419 1.613 . S
S418 N420 1.610 . S
N419 S418 1.613 . S
N419 C422 1.350 . S
N420 S418 1.610 . S
N420 C421 1.351 . S
C421 C415 1.428 . S
C421 N420 1.351 . S
C421 C422 1.434 . S
C422 C413 1.429 . S
C422 N419 1.350 . S
C422 C421 1.434 . S
C423 C424 1.369 . S
C423 C425 1.419 . S
C423 H427 0.930 . S
C424 C423 1.369 . S
C424 C433 1.429 . S
C425 C423 1.419 . S
C425 C426 1.363 . S
C425 H428 0.929 . S
C426 C425 1.363 . S
C426 C432 1.428 . S
H427 C423 0.930 . S
H428 C425 0.929 . S
S429 N430 1.613 . S
S429 N431 1.610 . S
N430 S429 1.613 . S
N430 C433 1.350 . S
N431 S429 1.610 . S
N431 C432 1.351 . S
C432 C426 1.428 . S
C432 N431 1.351 . S
C432 C433 1.434 . S
C433 C424 1.429 . S
C433 N430 1.350 . S
C433 C432 1.434 . S
C434 C435 1.369 . S
C434 C436 1.419 . S
C434 H438 0.930 . S
C435 C434 1.369 . S
C435 C444 1.429 . S
C436 C434 1.419 . S
C436 C437 1.363 . S
C436 H439 0.929 . S
C437 C436 1.363 . S
C437 C443 1.428 . S
H438 C434 0.930 . S
H439 C436 0.929 . S
S440 N441 1.613 . S
S440 N442 1.610 . S
N441 S440 1.613 . S
N441 C444 1.350 . S
N442 S440 1.610 . S
N442 C443 1.351 . S
C443 C437 1.428 . S
C443 N442 1.351 . S
C443 C444 1.434 . S
C444 C435 1.429 . S
C444 N441 1.350 . S
C444 C443 1.434 . S
C445 C446 1.369 . S
C445 C447 1.419 . S
C445 H449 0.930 . S
C446 C445 1.369 . S
C446 C455 1.429 . S
C447 C445 1.419 . S
C447 C448 1.363 . S
C447 H450 0.929 . S
C448 C447 1.363 . S
C448 C454 1.428 . S
H449 C445 0.930 . S
H450 C447 0.929 . S
S451 N452 1.613 . S
S451 N453 1.610 . S
N452 S451 1.613 . S
N452 C455 1.350 . S
N453 S451 1.610 . S
N453 C454 1.351 . S
C454 C448 1.428 . S
C454 N453 1.351 . S
C454 C455 1.434 . S
C455 C446 1.429 . S
C455 N452 1.350 . S
C455 C454 1.434 . S
C456 C457 1.369 . S
C456 C458 1.419 . S
C456 H460 0.930 . S
C457 C456 1.369 . S
C457 C466 1.429 . S
C458 C456 1.419 . S
C458 C459 1.363 . S
C458 H461 0.929 . S
C459 C458 1.363 . S
C459 C465 1.428 . S
H460 C456 0.930 . S
H461 C458 0.929 . S
S462 N463 1.613 . S
S462 N464 1.610 . S
N463 S462 1.613 . S
N463 C466 1.350 . S
N464 S462 1.610 . S
N464 C465 1.351 . S
C465 C459 1.428 . S
C465 N464 1.351 . S
C465 C466 1.434 . S
C466 C457 1.429 . S
C466 N463 1.350 . S
C466 C465 1.434 . S
C467 C468 1.369 . S
C467 C469 1.419 . S
C467 H471 0.930 . S
C468 C467 1.369 . S
C468 C477 1.429 . S
C469 C467 1.419 . S
C469 C470 1.363 . S
C469 H472 0.929 . S
C470 C469 1.363 . S
C470 C476 1.428 . S
H471 C467 0.930 . S
H472 C469 0.929 . S
S473 N474 1.613 . S
S473 N475 1.610 . S
N474 S473 1.613 . S
N474 C477 1.350 . S
N475 S473 1.610 . S
N475 C476 1.351 . S
C476 C470 1.428 . S
C476 N475 1.351 . S
C476 C477 1.434 . S
C477 C468 1.429 . S
C477 N474 1.350 . S
C477 C476 1.434 . S
C478 C479 1.369 . S
C478 C480 1.419 . S
C478 H482 0.930 . S
C479 C478 1.369 . S
C479 C488 1.429 . S
C480 C478 1.419 . S
C480 C481 1.363 . S
C480 H483 0.929 . S
C481 C480 1.363 . S
C481 C487 1.428 . S
H482 C478 0.930 . S
H483 C480 0.929 . S
S484 N485 1.613 . S
S484 N486 1.610 . S
N485 S484 1.613 . S
N485 C488 1.350 . S
N486 S484 1.610 . S
N486 C487 1.351 . S
C487 C481 1.428 . S
C487 N486 1.351 . S
C487 C488 1.434 . S
C488 C479 1.429 . S
C488 N485 1.350 . S
C488 C487 1.434 . S
C489 C490 1.369 . S
C489 C491 1.419 . S
C489 H493 0.930 . S
C490 C489 1.369 . S
C490 C499 1.429 . S
C491 C489 1.419 . S
C491 C492 1.363 . S
C491 H494 0.929 . S
C492 C491 1.363 . S
C492 C498 1.428 . S
H493 C489 0.930 . S
H494 C491 0.929 . S
S495 N496 1.613 . S
S495 N497 1.610 . S
N496 S495 1.613 . S
N496 C499 1.350 . S
N497 S495 1.610 . S
N497 C498 1.351 . S
C498 C492 1.428 . S
C498 N497 1.351 . S
C498 C499 1.434 . S
C499 C490 1.429 . S
C499 N496 1.350 . S
C499 C498 1.434 . S
C500 C501 1.369 . S
C500 C502 1.419 . S
C500 H504 0.930 . S
C501 C500 1.369 . S
C501 C510 1.429 . S
C502 C500 1.419 . S
C502 C503 1.363 . S
C502 H505 0.929 . S
C503 C502 1.363 . S
C503 C509 1.428 . S
H504 C500 0.930 . S
H505 C502 0.929 . S
S506 N507 1.613 . S
S506 N508 1.610 . S
N507 S506 1.613 . S
N507 C510 1.350 . S
N508 S506 1.610 . S
N508 C509 1.351 . S
C509 C503 1.428 . S
C509 N508 1.351 . S
C509 C510 1.434 . S
C510 C501 1.429 . S
C510 N507 1.350 . S
C510 C509 1.434 . S
C511 C512 1.369 . S
C511 C513 1.419 . S
C511 H515 0.930 . S
C512 C511 1.369 . S
C512 C521 1.429 . S
C513 C511 1.419 . S
C513 C514 1.363 . S
C513 H516 0.929 . S
C514 C513 1.363 . S
C514 C520 1.428 . S
H515 C511 0.930 . S
H516 C513 0.929 . S
S517 N518 1.613 . S
S517 N519 1.610 . S
N518 S517 1.613 . S
N518 C521 1.350 . S
N519 S517 1.610 . S
N519 C520 1.351 . S
C520 C514 1.428 . S
C520 N519 1.351 . S
C520 C521 1.434 . S
C521 C512 1.429 . S
C521 N518 1.350 . S
C521 C520 1.434 . S
C259 C18 1.768 . S
C261 C127 1.822 . S
C270 C29 1.142 . S
C272 N145 1.184 . S
C283 C173 1.871 . S
C281 C55 1.769 . S
C294 N191 1.207 . S
C292 C75 1.157 . S
C305 C219 1.836 . S
C303 C98 1.786 . S
C316 N237 1.173 . S
C314 C118 1.161 . S
C325 C38 1.765 . S
C327 C182 1.818 . S
C336 C52 1.156 . S
C338 N201 1.158 . S
C349 C228 1.831 . S
C347 C72 1.782 . S
C360 N247 1.194 . S
C358 C89 1.155 . S
C369 C109 1.761 . S
C371 C136 1.867 . S
C382 N155 1.179 . S
C380 C9 1.148 . S
C393 C205 1.797 . S
C391 C12 1.721 . S
C402 C35 1.085 . S
C404 N224 1.162 . S
C415 C251 1.843 . S
C413 C49 1.710 . S
C424 C69 1.106 . S
C426 N132 1.177 . S
C435 C92 1.735 . S
C437 C159 1.815 . S
C446 C112 1.111 . S
C448 N178 1.139 . S
C457 C32 1.727 . S
C459 C242 1.812 . S
C470 N122 1.142 . S
C468 C58 1.114 . S
C479 C78 1.742 . S
C481 C150 1.827 . S
C490 C95 1.100 . S
C492 N168 1.174 . S
C501 C115 1.707 . S
C503 C196 1.857 . S
C512 C15 1.083 . S
C514 N214 1.158 . S
