# Generated by pormake.
# Topology ctn, (3,4)-cn, num edge types: 1
# Building blocks:
#     Node 0, Type 0, BuildingBlock: BETDIP_clean_linker_0, # of connection points: 3
#     Node 1, Type 0, BuildingBlock: BETDIP_clean_linker_0, # of connection points: 3
#     Node 2, Type 0, BuildingBlock: BETDIP_clean_linker_0, # of connection points: 3
#     Node 3, Type 0, BuildingBlock: BETDIP_clean_linker_0, # of connection points: 3
#     Node 4, Type 0, BuildingBlock: BETDIP_clean_linker_0, # of connection points: 3
#     Node 5, Type 0, BuildingBlock: BETDIP_clean_linker_0, # of connection points: 3
#     Node 6, Type 0, BuildingBlock: BETDIP_clean_linker_0, # of connection points: 3
#     Node 7, Type 0, BuildingBlock: BETDIP_clean_linker_0, # of connection points: 3
#     Node 8, Type 0, BuildingBlock: BETDIP_clean_linker_0, # of connection points: 3
#     Node 9, Type 0, BuildingBlock: BETDIP_clean_linker_0, # of connection points: 3
#     Node 10, Type 0, BuildingBlock: BETDIP_clean_linker_0, # of connection points: 3
#     Node 11, Type 0, BuildingBlock: BETDIP_clean_linker_0, # of connection points: 3
#     Node 12, Type 0, BuildingBlock: BETDIP_clean_linker_0, # of connection points: 3
#     Node 13, Type 0, BuildingBlock: BETDIP_clean_linker_0, # of connection points: 3
#     Node 14, Type 0, BuildingBlock: BETDIP_clean_linker_0, # of connection points: 3
#     Node 15, Type 0, BuildingBlock: BETDIP_clean_linker_0, # of connection points: 3
#     Node 16, Type 1, BuildingBlock: QUQFOY_clean_sbu_1, # of connection points: 4
#     Node 17, Type 1, BuildingBlock: QUQFOY_clean_sbu_1, # of connection points: 4
#     Node 18, Type 1, BuildingBlock: QUQFOY_clean_sbu_1, # of connection points: 4
#     Node 19, Type 1, BuildingBlock: QUQFOY_clean_sbu_1, # of connection points: 4
#     Node 20, Type 1, BuildingBlock: QUQFOY_clean_sbu_1, # of connection points: 4
#     Node 21, Type 1, BuildingBlock: QUQFOY_clean_sbu_1, # of connection points: 4
#     Node 22, Type 1, BuildingBlock: QUQFOY_clean_sbu_1, # of connection points: 4
#     Node 23, Type 1, BuildingBlock: QUQFOY_clean_sbu_1, # of connection points: 4
#     Node 24, Type 1, BuildingBlock: QUQFOY_clean_sbu_1, # of connection points: 4
#     Node 25, Type 1, BuildingBlock: QUQFOY_clean_sbu_1, # of connection points: 4
#     Node 26, Type 1, BuildingBlock: QUQFOY_clean_sbu_1, # of connection points: 4
#     Node 27, Type 1, BuildingBlock: QUQFOY_clean_sbu_1, # of connection points: 4
#     Edge 28, Type (0, 1), BuildingBlock: TEMPAE_clean_linker_10, # of connection points: 2
#     Edge 29, Type (0, 1), BuildingBlock: TEMPAE_clean_linker_10, # of connection points: 2
#     Edge 30, Type (0, 1), BuildingBlock: TEMPAE_clean_linker_10, # of connection points: 2
#     Edge 31, Type (0, 1), BuildingBlock: TEMPAE_clean_linker_10, # of connection points: 2
#     Edge 32, Type (0, 1), BuildingBlock: TEMPAE_clean_linker_10, # of connection points: 2
#     Edge 33, Type (0, 1), BuildingBlock: TEMPAE_clean_linker_10, # of connection points: 2
#     Edge 34, Type (0, 1), BuildingBlock: TEMPAE_clean_linker_10, # of connection points: 2
#     Edge 35, Type (0, 1), BuildingBlock: TEMPAE_clean_linker_10, # of connection points: 2
#     Edge 36, Type (0, 1), BuildingBlock: TEMPAE_clean_linker_10, # of connection points: 2
#     Edge 37, Type (0, 1), BuildingBlock: TEMPAE_clean_linker_10, # of connection points: 2
#     Edge 38, Type (0, 1), BuildingBlock: TEMPAE_clean_linker_10, # of connection points: 2
#     Edge 39, Type (0, 1), BuildingBlock: TEMPAE_clean_linker_10, # of connection points: 2
#     Edge 40, Type (0, 1), BuildingBlock: TEMPAE_clean_linker_10, # of connection points: 2
#     Edge 41, Type (0, 1), BuildingBlock: TEMPAE_clean_linker_10, # of connection points: 2
#     Edge 42, Type (0, 1), BuildingBlock: TEMPAE_clean_linker_10, # of connection points: 2
#     Edge 43, Type (0, 1), BuildingBlock: TEMPAE_clean_linker_10, # of connection points: 2
#     Edge 44, Type (0, 1), BuildingBlock: TEMPAE_clean_linker_10, # of connection points: 2
#     Edge 45, Type (0, 1), BuildingBlock: TEMPAE_clean_linker_10, # of connection points: 2
#     Edge 46, Type (0, 1), BuildingBlock: TEMPAE_clean_linker_10, # of connection points: 2
#     Edge 47, Type (0, 1), BuildingBlock: TEMPAE_clean_linker_10, # of connection points: 2
#     Edge 48, Type (0, 1), BuildingBlock: TEMPAE_clean_linker_10, # of connection points: 2
#     Edge 49, Type (0, 1), BuildingBlock: TEMPAE_clean_linker_10, # of connection points: 2
#     Edge 50, Type (0, 1), BuildingBlock: TEMPAE_clean_linker_10, # of connection points: 2
#     Edge 51, Type (0, 1), BuildingBlock: TEMPAE_clean_linker_10, # of connection points: 2
#     Edge 52, Type (0, 1), BuildingBlock: TEMPAE_clean_linker_10, # of connection points: 2
#     Edge 53, Type (0, 1), BuildingBlock: TEMPAE_clean_linker_10, # of connection points: 2
#     Edge 54, Type (0, 1), BuildingBlock: TEMPAE_clean_linker_10, # of connection points: 2
#     Edge 55, Type (0, 1), BuildingBlock: TEMPAE_clean_linker_10, # of connection points: 2
#     Edge 56, Type (0, 1), BuildingBlock: TEMPAE_clean_linker_10, # of connection points: 2
#     Edge 57, Type (0, 1), BuildingBlock: TEMPAE_clean_linker_10, # of connection points: 2
#     Edge 58, Type (0, 1), BuildingBlock: TEMPAE_clean_linker_10, # of connection points: 2
#     Edge 59, Type (0, 1), BuildingBlock: TEMPAE_clean_linker_10, # of connection points: 2
#     Edge 60, Type (0, 1), BuildingBlock: TEMPAE_clean_linker_10, # of connection points: 2
#     Edge 61, Type (0, 1), BuildingBlock: TEMPAE_clean_linker_10, # of connection points: 2
#     Edge 62, Type (0, 1), BuildingBlock: TEMPAE_clean_linker_10, # of connection points: 2
#     Edge 63, Type (0, 1), BuildingBlock: TEMPAE_clean_linker_10, # of connection points: 2
#     Edge 64, Type (0, 1), BuildingBlock: TEMPAE_clean_linker_10, # of connection points: 2
#     Edge 65, Type (0, 1), BuildingBlock: TEMPAE_clean_linker_10, # of connection points: 2
#     Edge 66, Type (0, 1), BuildingBlock: TEMPAE_clean_linker_10, # of connection points: 2
#     Edge 67, Type (0, 1), BuildingBlock: TEMPAE_clean_linker_10, # of connection points: 2
#     Edge 68, Type (0, 1), BuildingBlock: TEMPAE_clean_linker_10, # of connection points: 2
#     Edge 69, Type (0, 1), BuildingBlock: TEMPAE_clean_linker_10, # of connection points: 2
#     Edge 70, Type (0, 1), BuildingBlock: TEMPAE_clean_linker_10, # of connection points: 2
#     Edge 71, Type (0, 1), BuildingBlock: TEMPAE_clean_linker_10, # of connection points: 2
#     Edge 72, Type (0, 1), BuildingBlock: TEMPAE_clean_linker_10, # of connection points: 2
#     Edge 73, Type (0, 1), BuildingBlock: TEMPAE_clean_linker_10, # of connection points: 2
#     Edge 74, Type (0, 1), BuildingBlock: TEMPAE_clean_linker_10, # of connection points: 2
#     Edge 75, Type (0, 1), BuildingBlock: TEMPAE_clean_linker_10, # of connection points: 2
# Relax obj value: 0.095
# Max RMSD: 0.194
# Mean RMSD: 0.141
data_MOF--net-ctn--node1-QUQFOY_clean_sbu_1--node2-BETDIP_clean_linker_0--edge1-TEMPAE_clean_linker_10
_symmetry_space_group_name_H-M    P1
_symmetry_Int_Tables_number       1
_symmetry_cell_setting            triclinic
loop_
_symmetry_equiv_pos_as_xyz
'x, y, z'
_cell_length_a     52.778367
_cell_length_b     52.912861
_cell_length_c     58.635938
_cell_angle_alpha  96.860935
_cell_angle_beta   93.991394
_cell_angle_gamma 97.907208
loop_
_atom_site_label
_atom_site_type_symbol
_atom_site_fract_x
_atom_site_fract_y
_atom_site_fract_z
_atom_type_partial_charge
H0 H 0.03995 0.10368 0.0866 0.0
H1 H 0.09329 0.06497 0.0485 0.0
H2 H 0.06356 0.03447 0.10743 0.0
H3 H 0.0775 0.08303 0.01958 0.0
C4 C 0.07314 0.10156 0.02699 0.0
C5 C 0.05115 0.08802 0.08419 0.0
C6 C 0.05011 0.06946 0.09949 0.0
C7 C 0.06628 0.08636 0.06551 0.0
C8 C 0.08113 0.06628 0.06256 0.0
C9 C 0.08016 0.04745 0.07757 0.0
C10 C 0.06459 0.04914 0.09597 0.0
N11 N 0.06594 0.10503 0.04998 0.0
H12 H 0.24092 0.71076 0.21419 0.0
H13 H 0.31587 0.75624 0.22721 0.0
H14 H 0.29625 0.69264 0.2649 0.0
H15 H 0.29411 0.78708 0.21434 0.0
C16 C 0.28099 0.77629 0.20034 0.0
C17 C 0.25973 0.71485 0.22365 0.0
C18 C 0.26651 0.6991 0.24003 0.0
C19 C 0.27712 0.73576 0.21917 0.0
C20 C 0.30185 0.74064 0.23089 0.0
C21 C 0.30865 0.72518 0.24749 0.0
C22 C 0.29094 0.70454 0.25203 0.0
N23 N 0.26942 0.75081 0.20216 0.0
H24 H 0.90142 0.48128 0.02449 0.0
H25 H 0.93771 0.43444 0.06785 0.0
H26 H 0.95903 0.51664 0.07884 0.0
H27 H 0.89013 0.3943 0.03489 0.0
C28 C 0.9066 0.40785 0.03192 0.0
C29 C 0.91511 0.47986 0.03877 0.0
C30 C 0.92973 0.50218 0.05103 0.0
C31 C 0.91804 0.45549 0.04452 0.0
C32 C 0.93562 0.45323 0.06302 0.0
C33 C 0.95094 0.47521 0.07502 0.0
C34 C 0.9479 0.49961 0.06896 0.0
N35 N 0.90241 0.43374 0.03174 0.0
H36 H 0.74458 0.75279 0.21372 0.0
H37 H 0.75258 0.81632 0.26804 0.0
H38 H 0.79873 0.82114 0.21106 0.0
H39 H 0.74633 0.77936 0.28923 0.0
C40 C 0.72861 0.77132 0.27873 0.0
C41 C 0.75408 0.77169 0.22126 0.0
C42 C 0.77256 0.7856 0.20947 0.0
C43 C 0.74748 0.78225 0.24277 0.0
C44 C 0.75848 0.80743 0.25204 0.0
C45 C 0.77679 0.82145 0.2405 0.0
C46 C 0.78423 0.81022 0.21966 0.0
N47 N 0.72873 0.76795 0.25432 0.0
H48 H 0.06724 0.94921 0.4242 0.0
H49 H 0.13723 0.98333 0.46463 0.0
H50 H 0.11098 0.01814 0.40694 0.0
H51 H 0.13486 0.94807 0.48004 0.0
C52 C 0.11487 0.9394 0.47846 0.0
C53 C 0.0839 0.964 0.42724 0.0
C54 C 0.08666 0.98393 0.4133 0.0
C55 C 0.10226 0.9632 0.4455 0.0
C56 C 0.12367 0.98265 0.44984 0.0
C57 C 0.12716 0.0023 0.43576 0.0
C58 C 0.10862 0.00269 0.41751 0.0
N59 N 0.09758 0.94367 0.46006 0.0
H60 H 0.21469 0.77016 0.80377 0.0
H61 H 0.25432 0.72344 0.75735 0.0
H62 H 0.27759 0.73545 0.83011 0.0
H63 H 0.22971 0.73464 0.72948 0.0
C64 C 0.21487 0.74476 0.73645 0.0
C65 C 0.22972 0.75839 0.80084 0.0
C66 C 0.24597 0.75423 0.81947 0.0
C67 C 0.23268 0.74776 0.77837 0.0
C68 C 0.25197 0.7322 0.77453 0.0
C69 C 0.26837 0.72769 0.79314 0.0
C70 C 0.26544 0.73913 0.81555 0.0
N71 N 0.21528 0.75284 0.76048 0.0
H72 H 0.93529 0.64257 0.4364 0.0
H73 H 0.90031 0.56398 0.43345 0.0
H74 H 0.88487 0.62029 0.48751 0.0
H75 H 0.90925 0.56076 0.39688 0.0
C76 C 0.9275 0.57324 0.3976 0.0
C77 C 0.92234 0.62814 0.44317 0.0
C78 C 0.91064 0.6346 0.46345 0.0
C79 C 0.91819 0.60291 0.43186 0.0
C80 C 0.90222 0.58386 0.44104 0.0
C81 C 0.88979 0.59002 0.46094 0.0
C82 C 0.89391 0.61551 0.47185 0.0
N83 N 0.93218 0.59689 0.41257 0.0
H84 H 0.81848 0.8841 0.79447 0.0
H85 H 0.862 0.8407 0.83571 0.0
H86 H 0.79084 0.86167 0.85764 0.0
H87 H 0.89563 0.86225 0.81828 0.0
C88 C 0.88674 0.86019 0.80075 0.0
C89 C 0.82079 0.87488 0.80988 0.0
C90 C 0.80201 0.87472 0.82573 0.0
C91 C 0.84269 0.8633 0.81362 0.0
C92 C 0.84564 0.85067 0.83317 0.0
C93 C 0.82676 0.84967 0.84892 0.0
C94 C 0.80506 0.86183 0.84515 0.0
N95 N 0.86065 0.86352 0.79671 0.0
H96 H 0.30332 0.3779 0.29791 0.0
H97 H 0.34591 0.33847 0.34373 0.0
H98 H 0.27043 0.35366 0.35845 0.0
H99 H 0.38015 0.36482 0.32977 0.0
C100 C 0.37341 0.36057 0.3116 0.0
C101 C 0.30467 0.36895 0.31355 0.0
C102 C 0.28411 0.36741 0.32759 0.0
C103 C 0.32717 0.35917 0.31953 0.0
C104 C 0.32897 0.34702 0.33947 0.0
C105 C 0.30836 0.34458 0.35333 0.0
C106 C 0.28604 0.3549 0.34736 0.0
N107 N 0.34714 0.36066 0.30452 0.0
H108 H 0.45163 0.00408 0.52902 0.0
H109 H 0.49639 0.97314 0.58017 0.0
H110 H 0.47371 0.04742 0.59615 0.0
H111 H 0.48706 0.93694 0.558 0.0
C112 C 0.48253 0.94055 0.54047 0.0
C113 C 0.46104 0.00582 0.54628 0.0
C114 C 0.4611 0.02829 0.56178 0.0
C115 C 0.4734 0.98562 0.55266 0.0
C116 C 0.48602 0.98801 0.57491 0.0
C117 C 0.48615 0.01021 0.5906 0.0
C118 C 0.47387 0.03039 0.58391 0.0
N119 N 0.47352 0.96376 0.53599 0.0
H120 H 0.24197 0.256 0.7236 0.0
H121 H 0.26555 0.32314 0.77345 0.0
H122 H 0.29659 0.31848 0.70779 0.0
H123 H 0.25782 0.29164 0.79858 0.0
C124 C 0.23892 0.28358 0.79021 0.0
C125 C 0.25374 0.27456 0.72856 0.0
C126 C 0.26937 0.28561 0.71276 0.0
C127 C 0.25283 0.28761 0.75073 0.0
C128 C 0.26714 0.31226 0.75689 0.0
C129 C 0.28247 0.32362 0.74122 0.0
C130 C 0.28393 0.30997 0.7195 0.0
N131 N 0.23593 0.27654 0.7659 0.0
H132 H 0.76047 0.22736 0.72714 0.0
H133 H 0.8375 0.26814 0.739 0.0
H134 H 0.81192 0.21108 0.78195 0.0
H135 H 0.81605 0.30046 0.72648 0.0
C136 C 0.80404 0.28959 0.71177 0.0
C137 C 0.77913 0.23086 0.73685 0.0
C138 C 0.78387 0.21702 0.7553 0.0
C139 C 0.79801 0.24989 0.73135 0.0
C140 C 0.82241 0.25414 0.74362 0.0
C141 C 0.82745 0.2402 0.76191 0.0
C142 C 0.80799 0.22199 0.76791 0.0
N143 N 0.79205 0.26416 0.71319 0.0
H144 H 0.52277 0.5823 0.57238 0.0
H145 H 0.57869 0.54902 0.53338 0.0
H146 H 0.5567 0.51936 0.59552 0.0
H147 H 0.58713 0.59591 0.52865 0.0
C148 C 0.56724 0.59586 0.52242 0.0
C149 C 0.5359 0.56831 0.57016 0.0
C150 C 0.53811 0.55098 0.58626 0.0
C151 C 0.55066 0.56786 0.55124 0.0
C152 C 0.56771 0.54979 0.54832 0.0
C153 C 0.5698 0.53196 0.56408 0.0
C154 C 0.55481 0.53262 0.58298 0.0
N155 N 0.54722 0.58503 0.53485 0.0
H156 H 0.55442 0.49736 0.96433 0.0
H157 H 0.63234 0.51601 0.99453 0.0
H158 H 0.60855 0.54995 0.93508 0.0
H159 H 0.61269 0.50675 0.02669 0.0
C160 C 0.59911 0.48968 0.02003 0.0
C161 C 0.57366 0.50759 0.96424 0.0
C162 C 0.57908 0.52457 0.94797 0.0
C163 C 0.59268 0.50456 0.98118 0.0
C164 C 0.61756 0.51822 0.98149 0.0
C165 C 0.62339 0.53494 0.96506 0.0
C166 C 0.60409 0.53764 0.94821 0.0
N167 N 0.58616 0.48768 0.99766 0.0
H168 H 0.75493 0.29839 0.3149 0.0
H169 H 0.78383 0.24495 0.26562 0.0
H170 H 0.80284 0.24557 0.33823 0.0
H171 H 0.75737 0.25776 0.23973 0.0
C172 C 0.74745 0.27279 0.24751 0.0
C173 C 0.76651 0.28323 0.31116 0.0
C174 C 0.77878 0.27323 0.32927 0.0
C175 C 0.76779 0.27305 0.28821 0.0
C176 C 0.78232 0.25295 0.28323 0.0
C177 C 0.79543 0.24329 0.30126 0.0
C178 C 0.79333 0.25337 0.32423 0.0
N179 N 0.75317 0.28309 0.27109 0.0
H180 H 0.47836 0.11883 0.99922 0.0
H181 H 0.4319 0.04573 0.97769 0.0
H182 H 0.40294 0.10296 0.0228 0.0
H183 H 0.46879 0.03299 0.96944 0.0
C184 C 0.47996 0.04955 0.9638 0.0
C185 C 0.46041 0.10618 -0.00061 0.0
C186 C 0.44103 0.11409 0.01266 0.0
C187 C 0.45738 0.08164 0.98685 0.0
C188 C 0.43452 0.06475 0.98735 0.0
C189 C 0.4149 0.07219 0.00051 0.0
C190 C 0.41822 0.09697 0.01297 0.0
N191 N 0.47749 0.07491 0.97352 0.0
O192 O 0.24438 0.84929 0.98982 0.0
Cd193 Cd 0.25427 0.87401 0.02001 0.0
Cd194 Cd 0.21888 0.89979 0.00183 0.0
O195 O 0.21486 0.86993 0.97518 0.0
O196 O 0.27376 0.8546 0.0403 0.0
O197 O 0.23731 0.86803 0.04898 0.0
C198 C 0.25627 0.85623 0.05446 0.0
C199 C 0.18369 0.91448 0.01794 0.0
C200 C 0.22783 0.85136 0.97361 0.0
C201 C 0.27263 0.92758 0.01045 0.0
O202 O 0.24975 0.92816 0.00256 0.0
O203 O 0.27855 0.90773 0.01854 0.0
O204 O 0.18878 0.91789 0.99724 0.0
O205 O 0.1979 0.9013 0.02921 0.0
O206 O 0.14222 0.53876 0.28916 0.0
Cd207 Cd 0.12015 0.50622 0.29701 0.0
Cd208 Cd 0.08967 0.51355 0.25648 0.0
O209 O 0.12219 0.53947 0.25498 0.0
O210 O 0.14282 0.49136 0.31864 0.0
O211 O 0.12843 0.47178 0.28373 0.0
C212 C 0.14236 0.4721 0.30282 0.0
C213 C 0.06587 0.50009 0.2208 0.0
C214 C 0.14052 0.5482 0.27029 0.0
C215 C 0.0674 0.51723 0.30362 0.0
O216 O 0.06593 0.51989 0.28236 0.0
O217 O 0.0873 0.51044 0.3131 0.0
O218 O 0.06747 0.5231 0.23118 0.0
O219 O 0.07842 0.48433 0.23042 0.0
O220 O 0.82505 0.73309 0.9868 0.0
Cd221 Cd 0.81646 0.70716 0.01013 0.0
Cd222 Cd 0.84285 0.67836 0.98053 0.0
O223 O 0.84881 0.71099 0.96478 0.0
O224 O 0.79591 0.7255 0.03198 0.0
O225 O 0.83269 0.71326 0.04301 0.0
C226 C 0.81267 0.72343 0.04839 0.0
C227 C 0.87503 0.65857 0.99642 0.0
C228 C 0.83865 0.73115 0.96974 0.0
C229 C 0.78984 0.65573 0.9843 0.0
O230 O 0.80863 0.65441 0.9721 0.0
O231 O 0.79042 0.67425 0.00029 0.0
O232 O 0.87002 0.65673 0.97435 0.0
O233 O 0.86287 0.67338 0.00946 0.0
O234 O 0.94347 0.01741 0.28398 0.0
Cd235 Cd 0.91795 0.02599 0.25872 0.0
Cd236 Cd 0.8995 0.04783 0.29534 0.0
O237 O 0.93377 0.04409 0.31276 0.0
O238 O 0.93355 0.0155 0.22985 0.0
O239 O 0.92854 0.05572 0.24107 0.0
C240 C 0.93666 0.03923 0.22632 0.0
C241 C 0.88491 0.08726 0.29494 0.0
C242 C 0.94784 0.02812 0.30472 0.0
C243 C 0.86774 0.00072 0.2702 0.0
O244 O 0.87233 0.01525 0.28933 0.0
O245 O 0.8823 0.00393 0.25412 0.0
O246 O 0.88331 0.07501 0.31268 0.0
O247 O 0.89566 0.07737 0.27753 0.0
O248 O 0.30118 0.22573 0.48942 0.0
Cd249 Cd 0.29318 0.19793 0.5111 0.0
Cd250 Cd 0.32602 0.17464 0.48552 0.0
O251 O 0.33087 0.20824 0.47105 0.0
O252 O 0.27199 0.2132 0.53432 0.0
O253 O 0.31013 0.20259 0.54352 0.0
C254 C 0.28978 0.21143 0.54997 0.0
C255 C 0.35939 0.15795 0.50351 0.0
C256 C 0.31757 0.22639 0.47449 0.0
C257 C 0.27335 0.14686 0.48223 0.0
O258 O 0.29448 0.14821 0.47307 0.0
O259 O 0.26982 0.16398 0.49832 0.0
O260 O 0.35647 0.15687 0.48135 0.0
O261 O 0.34398 0.16985 0.51558 0.0
O262 O 0.45958 0.54319 0.79884 0.0
Cd263 Cd 0.43659 0.53529 0.7683 0.0
Cd264 Cd 0.40178 0.55366 0.79608 0.0
O265 O 0.4309 0.55537 0.82176 0.0
O266 O 0.4617 0.52675 0.74588 0.0
O267 O 0.43849 0.55814 0.74299 0.0
C268 C 0.45553 0.545 0.73494 0.0
C269 C 0.38091 0.58947 0.79377 0.0
C270 C 0.45338 0.55028 0.8189 0.0
C271 C 0.38796 0.49967 0.77257 0.0
O272 O 0.38071 0.51808 0.78519 0.0
O273 O 0.40967 0.50263 0.76436 0.0
O274 O 0.37691 0.57481 0.8096 0.0
O275 O 0.3972 0.58392 0.77916 0.0
O276 O 0.77362 0.36139 0.50247 0.0
Cd277 Cd 0.77848 0.38772 0.53165 0.0
Cd278 Cd 0.73648 0.40332 0.51198 0.0
O279 O 0.73698 0.37114 0.48823 0.0
O280 O 0.80071 0.37346 0.55403 0.0
O281 O 0.76108 0.38024 0.55999 0.0
C282 C 0.78196 0.37222 0.56702 0.0
C283 C 0.69783 0.41456 0.52406 0.0
C284 C 0.75501 0.3575 0.48694 0.0
C285 C 0.78647 0.43997 0.51782 0.0
O286 O 0.76308 0.43514 0.50983 0.0
O287 O 0.79675 0.4237 0.52817 0.0
O288 O 0.7036 0.41546 0.50317 0.0
O289 O 0.7135 0.40583 0.53803 0.0
O290 O 0.66218 0.05577 0.80389 0.0
Cd291 Cd 0.64186 0.02251 0.81232 0.0
Cd292 Cd 0.60225 0.04112 0.78471 0.0
O293 O 0.63116 0.07165 0.78568 0.0
O294 O 0.6686 0.00791 0.82995 0.0
O295 O 0.64885 0.98822 0.79685 0.0
C296 C 0.66566 0.98854 0.81402 0.0
C297 C 0.57817 0.02976 0.74922 0.0
C298 C 0.65445 0.07345 0.79356 0.0
C299 C 0.59163 0.02977 0.83265 0.0
O300 O 0.58329 0.03602 0.8136 0.0
O301 O 0.61429 0.02444 0.83548 0.0
O302 O 0.57496 0.04961 0.76309 0.0
O303 O 0.59501 0.01589 0.75563 0.0
O304 O 0.01422 0.29672 0.92963 0.0
Cd305 Cd 0.0208 0.26632 0.90635 0.0
Cd306 Cd 0.04051 0.30555 0.88517 0.0
O307 O 0.03252 0.32924 0.91331 0.0
O308 O 0.01054 0.23622 0.92279 0.0
O309 O 0.05026 0.24726 0.91415 0.0
C310 C 0.03407 0.23223 0.92374 0.0
C311 C 0.08142 0.30272 0.87401 0.0
C312 C 0.02057 0.32075 0.92954 0.0
C313 C 0.99492 0.27223 0.86019 0.0
O314 O 0.01019 0.29311 0.8609 0.0
O315 O 0.99702 0.25785 0.87591 0.0
O316 O 0.06979 0.32187 0.8699 0.0
O317 O 0.07003 0.28562 0.88537 0.0
O318 O 0.49662 0.77974 0.41422 0.0
Cd319 Cd 0.49978 0.74649 0.39302 0.0
Cd320 Cd 0.52498 0.78069 0.3698 0.0
O321 O 0.52369 0.80671 0.39864 0.0
O322 O 0.49054 0.71966 0.41325 0.0
O323 O 0.52861 0.72631 0.39954 0.0
C324 C 0.51352 0.71418 0.41235 0.0
C325 C 0.56398 0.7764 0.3546 0.0
C326 C 0.50891 0.80215 0.4143 0.0
C327 C 0.47473 0.75194 0.34739 0.0
O328 O 0.49211 0.77116 0.34751 0.0
O329 O 0.47525 0.73767 0.36334 0.0
O330 O 0.55237 0.79587 0.35177 0.0
O331 O 0.5535 0.75935 0.36649 0.0
O332 O 0.99461 0.79578 0.66221 0.0
Cd333 Cd 0.01445 0.78172 0.63572 0.0
Cd334 Cd 0.0021 0.82283 0.61751 0.0
O335 O 0.98995 0.83266 0.64971 0.0
O336 O 0.03458 0.75678 0.64866 0.0
O337 O 0.05253 0.79281 0.63709 0.0
C338 C 0.05511 0.77209 0.6461 0.0
C339 C 0.03154 0.85002 0.60088 0.0
C340 C 0.98724 0.81771 0.66508 0.0
C341 C 0.97994 0.7717 0.59188 0.0
O342 O 0.97909 0.79574 0.59395 0.0
O343 O 0.99389 0.76234 0.60628 0.0
O344 O 0.00826 0.85452 0.60241 0.0
O345 O 0.0385 0.83073 0.61001 0.0
O346 O 0.50911 0.31123 0.19054 0.0
Cd347 Cd 0.53237 0.29923 0.16569 0.0
Cd348 Cd 0.50833 0.33086 0.14157 0.0
O349 O 0.49294 0.34021 0.17221 0.0
O350 O 0.55629 0.28037 0.1823 0.0
O351 O 0.56948 0.31515 0.16644 0.0
C352 C 0.57499 0.29687 0.17781 0.0
C353 C 0.52941 0.36325 0.12335 0.0
C354 C 0.49498 0.3288 0.18997 0.0
C355 C 0.4997 0.27551 0.12223 0.0
O356 O 0.49252 0.29728 0.12091 0.0
O357 O 0.51617 0.27275 0.13823 0.0
O358 O 0.50472 0.35946 0.12313 0.0
O359 O 0.54233 0.34875 0.13437 0.0
C360 C 0.21852 0.76032 0.85207 0.0
C361 C 0.24229 0.76558 0.84305 0.0
C362 C 0.21434 0.77194 0.87401 0.0
C363 C 0.23423 0.78973 0.88686 0.0
C364 C 0.25838 0.79486 0.87786 0.0
C365 C 0.26221 0.78245 0.85613 0.0
C366 C 0.18859 0.76549 0.88327 0.0
C367 C 0.27991 0.81406 0.89087 0.0
C368 C 0.2177 0.84201 0.931 0.0
C369 C 0.22595 0.8338 0.95176 0.0
C370 C 0.21967 0.82749 0.90973 0.0
C371 C 0.22956 0.80389 0.90927 0.0
C372 C 0.23645 0.79475 0.93022 0.0
C373 C 0.23487 0.80998 0.95124 0.0
C374 C 0.21248 0.83809 0.88776 0.0
C375 C 0.24637 0.76933 0.93042 0.0
H376 H 0.20322 0.74707 0.84192 0.0
H377 H 0.28052 0.78657 0.849 0.0
H378 H 0.1912 0.75951 0.90068 0.0
H379 H 0.17881 0.78279 0.88507 0.0
H380 H 0.17587 0.74985 0.87188 0.0
H381 H 0.29756 0.81567 0.88155 0.0
H382 H 0.27369 0.83331 0.89366 0.0
H383 H 0.28468 0.80843 0.9081 0.0
H384 H 0.21097 0.86049 0.93128 0.0
H385 H 0.24112 0.80347 0.96727 0.0
H386 H 0.19852 0.82372 0.87626 0.0
H387 H 0.22982 0.84213 0.87835 0.0
H388 H 0.20399 0.85612 0.89108 0.0
H389 H 0.23342 0.75392 0.91904 0.0
H390 H 0.24816 0.76366 0.94804 0.0
H391 H 0.26554 0.77065 0.92361 0.0
C392 C 0.94411 0.53947 0.37211 0.0
C393 C 0.94777 0.56455 0.38377 0.0
C394 C 0.96328 0.53034 0.35937 0.0
C395 C 0.9865 0.54685 0.35814 0.0
C396 C 0.99024 0.57226 0.36983 0.0
C397 C 0.97084 0.58079 0.38261 0.0
C398 C 0.95869 0.50308 0.34723 0.0
C399 C 0.01465 0.59051 0.36869 0.0
C400 C 0.04621 0.51945 0.34069 0.0
C401 C 0.04606 0.52335 0.31744 0.0
C402 C 0.02663 0.5265 0.35407 0.0
C403 C 0.00659 0.5379 0.34398 0.0
C404 C 0.0061 0.54149 0.32046 0.0
C405 C 0.02576 0.53409 0.30746 0.0
C406 C 0.02758 0.52215 0.37908 0.0
C407 C 0.98512 0.55371 0.30912 0.0
H408 H 0.92629 0.52689 0.37312 0.0
H409 H 0.97375 0.60023 0.39159 0.0
H410 H 0.95927 0.50321 0.32837 0.0
H411 H 0.97415 0.49244 0.35301 0.0
H412 H 0.93989 0.49249 0.35048 0.0
H413 H 0.01465 0.60956 0.37897 0.0
H414 H 0.03147 0.58211 0.37514 0.0
H415 H 0.01718 0.59344 0.35051 0.0
H416 H 0.06176 0.51109 0.34851 0.0
H417 H 0.02544 0.53722 0.28952 0.0
H418 H 0.00935 0.5107 0.38258 0.0
H419 H 0.02964 0.54089 0.39027 0.0
H420 H 0.04377 0.51197 0.38402 0.0
H421 H 0.96605 0.54276 0.31096 0.0
H422 H 0.9872 0.55455 0.29049 0.0
H423 H 0.98541 0.57358 0.31781 0.0
C424 C 0.80895 0.81679 0.87305 0.0
C425 C 0.82933 0.83506 0.8688 0.0
C426 C 0.81163 0.80145 0.89074 0.0
C427 C 0.83515 0.80474 0.90472 0.0
C428 C 0.85551 0.82376 0.90097 0.0
C429 C 0.85243 0.83856 0.8829 0.0
C430 C 0.78958 0.78114 0.89397 0.0
C431 C 0.88069 0.82813 0.91577 0.0
C432 C 0.83199 0.77498 0.9605 0.0
C433 C 0.84065 0.7514 0.95426 0.0
C434 C 0.83113 0.79308 0.94487 0.0
C435 C 0.83874 0.78728 0.92239 0.0
C436 C 0.84834 0.76393 0.91627 0.0
C437 C 0.84935 0.74638 0.93233 0.0
C438 C 0.82124 0.818 0.95215 0.0
C439 C 0.85644 0.75693 0.8924 0.0
H440 H 0.79117 0.8139 0.86201 0.0
H441 H 0.86812 0.85287 0.87974 0.0
H442 H 0.79552 0.76178 0.8909 0.0
H443 H 0.78422 0.78385 0.91197 0.0
H444 H 0.77234 0.78156 0.8821 0.0
H445 H 0.8939 0.84492 0.9117 0.0
H446 H 0.87725 0.83129 0.93428 0.0
H447 H 0.89034 0.81079 0.91315 0.0
H448 H 0.82537 0.7791 0.97745 0.0
H449 H 0.85603 0.72821 0.92731 0.0
H450 H 0.80258 0.81825 0.94229 0.0
H451 H 0.83476 0.83458 0.94821 0.0
H452 H 0.81847 0.8207 0.97085 0.0
H453 H 0.83962 0.75492 0.87952 0.0
H454 H 0.86464 0.73861 0.89074 0.0
H455 H 0.87093 0.77244 0.88802 0.0
C456 C 0.07213 0.99613 0.37492 0.0
C457 C 0.06597 0.98655 0.39549 0.0
C458 C 0.05306 0.00221 0.3595 0.0
C459 C 0.02707 0.99785 0.36438 0.0
C460 C 0.02051 0.98681 0.3844 0.0
C461 C 0.04005 0.98157 0.39985 0.0
C462 C 0.06084 0.01419 0.33844 0.0
C463 C 0.99292 0.9813 0.38988 0.0
C464 C 0.98008 0.03756 0.33909 0.0
C465 C 0.96849 0.02077 0.31976 0.0
C466 C -0.00055 0.03045 0.3536 0.0
C467 C 0.00684 0.00572 0.34897 0.0
C468 C 0.99499 0.98861 0.3296 0.0
C469 C 0.97618 0.99647 0.31505 0.0
C470 C 0.01209 0.04944 0.37381 0.0
C471 C 0.00188 0.96186 0.32444 0.0
H472 H 0.09201 -0.00054 0.37107 0.0
H473 H 0.03502 0.97447 0.41576 0.0
H474 H 0.05068 0.00262 0.3226 0.0
H475 H 0.05519 0.0337 0.33924 0.0
H476 H 0.08185 0.01586 0.3369 0.0
H477 H 0.99086 0.9705 0.40493 0.0
H478 H 0.98517 -0.00035 0.3937 0.0
H479 H 0.98096 0.97 0.37478 0.0
H480 H 0.97423 0.05638 0.34271 0.0
H481 H 0.96704 0.98331 0.30026 0.0
H482 H 0.03316 0.05294 0.37266 0.0
H483 H 0.00882 0.0414 0.39016 0.0
H484 H 0.00468 0.06816 0.37461 0.0
H485 H 0.02258 0.96296 0.32174 0.0
H486 H 0.99054 0.95075 0.3089 0.0
H487 H 0.99852 0.95115 0.33937 0.0
C488 C 0.27183 0.28673 0.67041 0.0
C489 C 0.27046 0.27237 0.68905 0.0
C490 C 0.27507 0.27528 0.64823 0.0
C491 C 0.27626 0.24859 0.64434 0.0
C492 C 0.27394 0.23371 0.66283 0.0
C493 C 0.27125 0.24582 0.68504 0.0
C494 C 0.27755 0.29188 0.62901 0.0
C495 C 0.27458 0.20509 0.65918 0.0
C496 C 0.26181 0.22002 0.58165 0.0
C497 C 0.28653 0.21918 0.57452 0.0
C498 C 0.25814 0.22829 0.60463 0.0
C499 C 0.27976 0.23649 0.62077 0.0
C500 C 0.30477 0.23514 0.6138 0.0
C501 C 0.30785 0.2262 0.59076 0.0
C502 C 0.23115 0.22894 0.61149 0.0
C503 C 0.32831 0.24416 0.63043 0.0
H504 H 0.27054 0.30712 0.67318 0.0
H505 H 0.27034 0.23459 0.69933 0.0
H506 H 0.29592 0.29032 0.62121 0.0
H507 H 0.26181 0.28508 0.6152 0.0
H508 H 0.27693 0.31248 0.63507 0.0
H509 H 0.27135 0.19608 0.67511 0.0
H510 H 0.25968 0.19564 0.64537 0.0
H511 H 0.29344 0.20129 0.65343 0.0
H512 H 0.24524 0.21426 0.56919 0.0
H513 H 0.32698 0.22555 0.58528 0.0
H514 H 0.22801 0.24919 0.61587 0.0
H515 H 0.22828 0.21925 0.62707 0.0
H516 H 0.21641 0.21949 0.5975 0.0
H517 H 0.32966 0.26514 0.63597 0.0
H518 H 0.34627 0.24045 0.62268 0.0
H519 H 0.32683 0.23444 0.64613 0.0
C520 C 0.52658 0.57543 0.62219 0.0
C521 C 0.52365 0.55251 0.60697 0.0
C522 C 0.51472 0.57657 0.64292 0.0
C523 C 0.49917 0.55439 0.64823 0.0
C524 C 0.4953 0.53151 0.63237 0.0
C525 C 0.50788 0.53075 0.61204 0.0
C526 C 0.51979 0.60112 0.6596 0.0
C527 C 0.47847 0.5076 0.63717 0.0
C528 C 0.49177 0.54323 0.7102 0.0
C529 C 0.46739 0.54992 0.71353 0.0
C530 C 0.50273 0.54564 0.68933 0.0
C531 C 0.48866 0.55431 0.67112 0.0
C532 C 0.46422 0.56163 0.67453 0.0
C533 C 0.45399 0.55965 0.69587 0.0
C534 C 0.52912 0.53826 0.68661 0.0
C535 C 0.44848 0.57052 0.65537 0.0
H536 H 0.53896 0.59218 0.61828 0.0
H537 H 0.50552 0.5131 0.60013 0.0
H538 H 0.50145 0.60711 0.66473 0.0
H539 H 0.53079 0.59776 0.67551 0.0
H540 H 0.53087 0.61714 0.65222 0.0
H541 H 0.47548 0.49227 0.62214 0.0
H542 H 0.4874 0.49992 0.65207 0.0
H543 H 0.45947 0.51229 0.64183 0.0
H544 H 0.50227 0.53591 0.72392 0.0
H545 H 0.43505 0.56466 0.69839 0.0
H546 H 0.54176 0.55407 0.68038 0.0
H547 H 0.52772 0.52105 0.67352 0.0
H548 H 0.53832 0.53388 0.70301 0.0
H549 H 0.45981 0.58666 0.64842 0.0
H550 H 0.4305 0.57686 0.66118 0.0
H551 H 0.44338 0.55457 0.64099 0.0
C552 C 0.80821 0.32844 0.69153 0.0
C553 C 0.79897 0.30228 0.69115 0.0
C554 C 0.80437 0.3409 0.67202 0.0
C555 C 0.79121 0.32671 0.65161 0.0
C556 C 0.78152 0.30033 0.65125 0.0
C557 C 0.78545 0.28843 0.67108 0.0
C558 C 0.81484 0.36909 0.67309 0.0
C559 C 0.7676 0.28451 0.62974 0.0
C560 C 0.76505 0.36177 0.60425 0.0
C561 C 0.78437 0.36129 0.58901 0.0
C562 C 0.76712 0.35086 0.62488 0.0
C563 C 0.7889 0.33903 0.63023 0.0
C564 C 0.80849 0.33861 0.61496 0.0
C565 C 0.80603 0.34983 0.5946 0.0
C566 C 0.74598 0.35184 0.64089 0.0
C567 C 0.83193 0.32603 0.61998 0.0
H568 H 0.81862 0.33915 0.70709 0.0
H569 H 0.77831 0.26816 0.67068 0.0
H570 H 0.82995 0.37155 0.66097 0.0
H571 H 0.7994 0.37992 0.66765 0.0
H572 H 0.82321 0.37771 0.69067 0.0
H573 H 0.76031 0.26452 0.6326 0.0
H574 H 0.75116 0.29367 0.6236 0.0
H575 H 0.78074 0.2837 0.61578 0.0
H576 H 0.7483 0.37065 0.60005 0.0
H577 H 0.82102 0.34931 0.5829 0.0
H578 H 0.75401 0.3614 0.65826 0.0
H579 H 0.73723 0.33202 0.64288 0.0
H580 H 0.73064 0.36234 0.63452 0.0
H581 H 0.84224 0.33514 0.6367 0.0
H582 H 0.84548 0.32746 0.60635 0.0
H583 H 0.82603 0.30539 0.62149 0.0
C584 C 0.51772 0.03329 0.62253 0.0
C585 C 0.49916 0.01213 0.61403 0.0
C586 C 0.53072 0.0349 0.64447 0.0
C587 C 0.52459 0.01511 0.65833 0.0
C588 C 0.50566 0.9938 0.64985 0.0
C589 C 0.49332 0.99246 0.62768 0.0
C590 C 0.55106 0.05774 0.65281 0.0
C591 C 0.49822 0.97262 0.6643 0.0
C592 C 0.5729 0.00964 0.70802 0.0
C593 C 0.56351 0.02398 0.72638 0.0
C594 C 0.56026 0.00631 0.68574 0.0
C595 C 0.53748 0.01715 0.68195 0.0
C596 C 0.5274 0.03076 0.70065 0.0
C597 C 0.54068 0.03422 0.72259 0.0
C598 C 0.57173 0.99198 0.66613 0.0
C599 C 0.50286 0.04211 0.6974 0.0
H600 H 0.52236 0.04834 0.61183 0.0
H601 H 0.47881 0.97618 0.62108 0.0
H602 H 0.5454 0.06872 0.66849 0.0
H603 H 0.5695 0.05107 0.65762 0.0
H604 H 0.55422 0.07095 0.63957 0.0
H605 H 0.48318 0.95734 0.65511 0.0
H606 H 0.51528 0.96372 0.66924 0.0
H607 H 0.49096 0.98077 0.68049 0.0
H608 H 0.59063 0.00183 0.71088 0.0
H609 H 0.53325 0.04515 0.73681 0.0
H610 H 0.57706 0.00511 0.65327 0.0
H611 H 0.5574 0.97593 0.65718 0.0
H612 H 0.5891 0.98403 0.67207 0.0
H613 H 0.50553 0.05729 0.68591 0.0
H614 H 0.49674 0.05069 0.71399 0.0
H615 H 0.48716 0.02707 0.68897 0.0
C616 C 0.87504 0.2419 0.76314 0.0
C617 C 0.85306 0.24448 0.77478 0.0
C618 C 0.89938 0.24517 0.77531 0.0
C619 C 0.90169 0.25172 0.79957 0.0
C620 C 0.87949 0.25459 0.81132 0.0
C621 C 0.85538 0.25066 0.79878 0.0
C622 C 0.92255 0.24143 0.76228 0.0
C623 C 0.88123 0.26206 0.83713 0.0
C624 C 0.95903 0.24114 0.83808 0.0
C625 C 0.97298 0.26602 0.84236 0.0
C626 C 0.93641 0.23587 0.82318 0.0
C627 C 0.9273 0.25609 0.81278 0.0
C628 C 0.94178 0.28102 0.81641 0.0
C629 C 0.96459 0.28561 0.83097 0.0
C630 C 0.92178 0.2089 0.81927 0.0
C631 C 0.93248 0.30318 0.80591 0.0
H632 H 0.87309 0.23685 0.74457 0.0
H633 H 0.83831 0.25275 0.80769 0.0
H634 H 0.93642 0.2595 0.76473 0.0
H635 H 0.9325 0.22642 0.76916 0.0
H636 H 0.91737 0.23567 0.74351 0.0
H637 H 0.86217 0.26393 0.84355 0.0
H638 H 0.88973 0.24744 0.846 0.0
H639 H 0.89405 0.28067 0.84201 0.0
H640 H 0.96553 0.22589 0.84672 0.0
H641 H 0.9752 0.30492 0.83428 0.0
H642 H 0.91693 0.20258 0.80055 0.0
H643 H 0.90343 0.20857 0.82746 0.0
H644 H 0.93282 0.19486 0.82655 0.0
H645 H 0.9282 0.2981 0.78701 0.0
H646 H 0.94674 0.321 0.8093 0.0
H647 H 0.91437 0.30726 0.81315 0.0
C648 C 0.49979 0.90081 0.52628 0.0
C649 C 0.4864 0.92089 0.52144 0.0
C650 C 0.5041 0.88192 0.50867 0.0
C651 C 0.49439 0.88295 0.48574 0.0
C652 C 0.48071 0.90315 0.48076 0.0
C653 C 0.47702 0.92204 0.49868 0.0
C654 C 0.519 0.86083 0.51462 0.0
C655 C 0.46971 0.90462 0.45656 0.0
C656 C 0.52295 0.84574 0.43683 0.0
C657 C 0.50533 0.82298 0.43246 0.0
C658 C 0.51966 0.86547 0.45415 0.0
C659 C 0.49801 0.86249 0.46709 0.0
C660 C 0.47998 0.83971 0.46253 0.0
C661 C 0.48398 0.82015 0.44541 0.0
C662 C 0.53947 0.88935 0.4588 0.0
C663 C 0.45646 0.83598 0.47573 0.0
H664 H 0.50709 0.90001 0.54389 0.0
H665 H 0.46654 0.93748 0.49488 0.0
H666 H 0.50671 0.84185 0.51035 0.0
H667 H 0.53573 0.86046 0.50419 0.0
H668 H 0.52602 0.86332 0.53317 0.0
H669 H 0.45964 0.92161 0.45556 0.0
H670 H 0.48525 0.90561 0.44475 0.0
H671 H 0.45596 0.88696 0.45021 0.0
H672 H 0.53952 0.848 0.42692 0.0
H673 H 0.47015 0.8027 0.44199 0.0
H674 H 0.54792 0.89171 0.47693 0.0
H675 H 0.53028 0.90662 0.45654 0.0
H676 H 0.55522 0.88868 0.44721 0.0
H677 H 0.46229 0.83642 0.49433 0.0
H678 H 0.44387 0.81748 0.46955 0.0
H679 H 0.44514 0.85196 0.47409 0.0
C680 C 0.22006 0.29353 0.82734 0.0
C681 C 0.21647 0.28332 0.80399 0.0
C682 C 0.19903 0.29577 0.84046 0.0
C683 C 0.17382 0.28753 0.82991 0.0
C684 C 0.17014 0.27635 0.80651 0.0
C685 C 0.19153 0.2744 0.7938 0.0
C686 C 0.20375 0.30778 0.86534 0.0
C687 C 0.14356 0.26724 0.79468 0.0
C688 C 0.11721 0.27716 0.8662 0.0
C689 C 0.10633 0.2997 0.86463 0.0
C690 C 0.13954 0.27312 0.8554 0.0
C691 C 0.15124 0.29211 0.84283 0.0
C692 C 0.14081 0.31525 0.84184 0.0
C693 C 0.11848 0.31875 0.85273 0.0
C694 C 0.15015 0.24823 0.85688 0.0
C695 C 0.15284 0.33606 0.82875 0.0
H696 H 0.23936 0.30042 0.83522 0.0
H697 H 0.18864 0.2664 0.77575 0.0
H698 H 0.19604 0.32633 0.86743 0.0
H699 H 0.19351 0.29512 0.87658 0.0
H700 H 0.22449 0.31146 0.87142 0.0
H701 H 0.14403 0.25751 0.77687 0.0
H702 H 0.13256 0.2537 0.80472 0.0
H703 H 0.13299 0.28389 0.79384 0.0
H704 H 0.10793 0.26233 0.87535 0.0
H705 H 0.11027 0.33627 0.85149 0.0
H706 H 0.17077 0.25223 0.86326 0.0
H707 H 0.14877 0.23711 0.83944 0.0
H708 H 0.13971 0.23609 0.86843 0.0
H709 H 0.17339 0.34188 0.83499 0.0
H710 H 0.14304 0.35339 0.83052 0.0
H711 H 0.15201 0.32856 0.81017 0.0
C712 C 0.57762 0.63426 0.50222 0.0
C713 C 0.56129 0.6116 0.50419 0.0
C714 C 0.57116 0.65057 0.4862 0.0
C715 C 0.54836 0.6434 0.47124 0.0
C716 C 0.53258 0.61974 0.47238 0.0
C717 C 0.53898 0.60435 0.48918 0.0
C718 C 0.58802 0.67603 0.4861 0.0
C719 C 0.50861 0.61096 0.45622 0.0
C720 C 0.51387 0.69499 0.44891 0.0
C721 C 0.52259 0.69585 0.42696 0.0
C722 C 0.52263 0.67845 0.46364 0.0
C723 C 0.53979 0.66161 0.45588 0.0
C724 C 0.54838 0.66209 0.43353 0.0
C725 C 0.54005 0.67964 0.41947 0.0
C726 C 0.51367 0.67918 0.4876 0.0
C727 C 0.56595 0.6438 0.42437 0.0
H728 H 0.59486 0.63978 0.51392 0.0
H729 H 0.52657 0.58657 0.49055 0.0
H730 H 0.59371 0.67814 0.4685 0.0
H731 H 0.57711 0.69198 0.49126 0.0
H732 H 0.60566 0.67819 0.49808 0.0
H733 H 0.50025 0.59077 0.45745 0.0
H734 H 0.49395 0.62355 0.46036 0.0
H735 H 0.5129 0.61254 0.43814 0.0
H736 H 0.50062 0.70779 0.45482 0.0
H737 H 0.5467 0.68029 0.40243 0.0
H738 H 0.53047 0.68252 0.50064 0.0
H739 H 0.50238 0.66041 0.48957 0.0
H740 H 0.50157 0.6945 0.49143 0.0
H741 H 0.58422 0.64681 0.43555 0.0
H742 H 0.57042 0.64625 0.40646 0.0
H743 H 0.55689 0.62365 0.42467 0.0
C744 C 0.89082 0.84886 0.75865 0.0
C745 C 0.90245 0.85562 0.78118 0.0
C746 C 0.90553 0.84365 0.74011 0.0
C747 C 0.93252 0.84555 0.74421 0.0
C748 C 0.9444 0.85284 0.76689 0.0
C749 C 0.92915 0.85758 0.78517 0.0
C750 C 0.89213 0.83558 0.71621 0.0
C751 C 0.97316 0.85536 0.77185 0.0
C752 C 0.96606 0.80684 0.70017 0.0
C753 C 0.97458 0.82534 0.68605 0.0
C754 C 0.95273 0.81329 0.71937 0.0
C755 C 0.9481 0.83894 0.7248 0.0
C756 C 0.95729 0.85789 0.71105 0.0
C757 C 0.97027 0.85082 0.69172 0.0
C758 C 0.94296 0.79247 0.73346 0.0
C759 C 0.95301 0.88551 0.71654 0.0
H760 H 0.87014 0.84714 0.75548 0.0
H761 H 0.93811 0.86285 0.80262 0.0
H762 H 0.89985 0.84883 0.70423 0.0
H763 H 0.89585 0.81602 0.70956 0.0
H764 H 0.87104 0.8354 0.7159 0.0
H765 H 0.97949 0.86246 0.79024 0.0
H766 H 0.97959 0.83642 0.76743 0.0
H767 H 0.9829 0.86879 0.76096 0.0
H768 H 0.96924 0.78709 0.69589 0.0
H769 H 0.97695 0.86525 0.68099 0.0
H770 H 0.92168 0.79009 0.73259 0.0
H771 H 0.95019 0.79802 0.75185 0.0
H772 H 0.94885 0.77363 0.72736 0.0
H773 H 0.93216 0.88667 0.7147 0.0
H774 H 0.96281 0.89822 0.70505 0.0
H775 H 0.96011 0.89294 0.73468 0.0
C776 C 0.08194 0.90883 0.49394 0.0
C777 C 0.10536 0.92537 0.49719 0.0
C778 C 0.07236 0.89646 0.51208 0.0
C779 C 0.08629 0.90125 0.53409 0.0
C780 C 0.11012 0.91771 0.53736 0.0
C781 C 0.11953 0.92935 0.51874 0.0
C782 C 0.04714 0.87857 0.50779 0.0
C783 C 0.12524 0.92367 0.56067 0.0
C784 C 0.04416 0.88946 0.58258 0.0
C785 C 0.04866 0.86491 0.58686 0.0
C786 C 0.05749 0.9022 0.56639 0.0
C787 C 0.07522 0.88976 0.55379 0.0
C788 C 0.08068 0.86544 0.5588 0.0
C789 C 0.06751 0.85342 0.57552 0.0
C790 C 0.05166 0.92844 0.56198 0.0
C791 C 0.09915 0.85139 0.54548 0.0
H792 H 0.07108 0.90554 0.4772 0.0
H793 H 0.13762 0.94224 0.52122 0.0
H794 H 0.04947 0.85959 0.51325 0.0
H795 H 0.03264 0.88657 0.51821 0.0
H796 H 0.03959 0.87559 0.48935 0.0
H797 H 0.1439 0.93609 0.56012 0.0
H798 H 0.11387 0.9336 0.5732 0.0
H799 H 0.12896 0.90561 0.56726 0.0
H800 H 0.0297 0.89845 0.59145 0.0
H801 H 0.07088 0.83433 0.57867 0.0
H802 H 0.04121 0.92699 0.54468 0.0
H803 H 0.06973 0.94194 0.56209 0.0
H804 H 0.03971 0.93668 0.57501 0.0
H805 H 0.09095 0.84566 0.52736 0.0
H806 H 0.10308 0.83382 0.55291 0.0
H807 H 0.1176 0.86414 0.54511 0.0
C808 C 0.1918 0.74043 0.69717 0.0
C809 C 0.19344 0.74969 0.72071 0.0
C810 C 0.1709 0.74391 0.68224 0.0
C811 C 0.15127 0.75691 0.69117 0.0
C812 C 0.15322 0.76684 0.71483 0.0
C813 C 0.17426 0.76312 0.7293 0.0
C814 C 0.1695 0.73317 0.65708 0.0
C815 C 0.1327 0.78083 0.72504 0.0
C816 C 0.10265 0.78485 0.65463 0.0
C817 C 0.08061 0.76672 0.65467 0.0
C818 C 0.1263 0.78123 0.66533 0.0
C819 C 0.12785 0.759 0.67631 0.0
C820 C 0.106 0.73998 0.67526 0.0
C821 C 0.08265 0.74407 0.66445 0.0
C822 C 0.14924 0.80186 0.66598 0.0
C823 C 0.10687 0.71597 0.6867 0.0
H824 H 0.20667 0.73011 0.69052 0.0
H825 H 0.17541 0.7705 0.74745 0.0
H826 H 0.15287 0.71761 0.65292 0.0
H827 H 0.16643 0.74834 0.6461 0.0
H828 H 0.18719 0.72523 0.65253 0.0
H829 H 0.13763 0.78829 0.74357 0.0
H830 H 0.12967 0.79722 0.71552 0.0
H831 H 0.11421 0.76763 0.72332 0.0
H832 H 0.10126 0.80233 0.64699 0.0
H833 H 0.06577 0.72985 0.66438 0.0
H834 H 0.16643 0.7932 0.66121 0.0
H835 H 0.15364 0.81205 0.68378 0.0
H836 H 0.14582 0.81623 0.6542 0.0
H837 H 0.12341 0.70645 0.68151 0.0
H838 H 0.089 0.70194 0.68236 0.0
H839 H 0.10954 0.72124 0.7057 0.0
C840 C 0.94404 0.67114 0.48113 0.0
C841 C 0.9181 0.66016 0.47754 0.0
C842 C 0.95224 0.69244 0.49786 0.0
C843 C 0.93412 0.70278 0.51154 0.0
C844 C 0.90769 0.69309 0.50681 0.0
C845 C 0.89996 0.67198 0.48973 0.0
C846 C 0.98059 0.70251 0.50214 0.0
C847 C 0.88778 0.70366 0.52097 0.0
C848 C 0.96129 0.72794 0.57266 0.0
C849 C 0.96575 0.75455 0.57201 0.0
C850 C 0.94999 0.71103 0.55332 0.0
C851 C 0.9433 0.72095 0.5327 0.0
C852 C 0.94695 0.74786 0.53212 0.0
C853 C 0.95803 0.7644 0.55188 0.0
C854 C 0.94602 0.68244 0.55474 0.0
C855 C 0.94025 0.75908 0.51038 0.0
H856 H 0.95826 0.6621 0.47197 0.0
H857 H 0.87981 0.66397 0.48668 0.0
H858 H 0.98391 0.72384 0.50401 0.0
H859 H 0.98827 0.69662 0.51848 0.0
H860 H 0.9916 0.695 0.488 0.0
H861 H 0.86795 0.69685 0.51293 0.0
H862 H 0.88934 0.69737 0.53834 0.0
H863 H 0.89106 0.72501 0.52337 0.0
H864 H 0.96698 0.72024 0.58824 0.0
H865 H 0.96153 0.78497 0.55127 0.0
H866 H 0.95843 0.67281 0.54302 0.0
H867 H 0.92582 0.67402 0.54904 0.0
H868 H 0.95062 0.67801 0.57248 0.0
H869 H 0.95353 0.75398 0.49728 0.0
H870 H 0.94166 0.78038 0.51345 0.0
H871 H 0.92051 0.75085 0.50299 0.0
C872 C 0.77068 0.86687 0.25259 0.0
C873 C 0.78724 0.84845 0.24928 0.0
C874 C 0.78045 0.89314 0.25775 0.0
C875 C 0.80735 0.90094 0.2599 0.0
C876 C 0.82411 0.88221 0.25775 0.0
C877 C 0.81381 0.85617 0.25225 0.0
C878 C 0.76201 0.91256 0.25966 0.0
C879 C 0.85293 0.88972 0.26032 0.0
C880 C 0.8392 0.96482 0.24561 0.0
C881 C 0.84784 0.97779 0.26761 0.0
C882 C 0.82427 0.94045 0.24289 0.0
C883 C 0.81825 0.92864 0.26265 0.0
C884 C 0.82541 0.94237 0.2849 0.0
C885 C 0.83999 0.96694 0.28712 0.0
C886 C 0.81646 0.92665 0.21884 0.0
C887 C 0.81945 0.93036 0.30637 0.0
H888 H 0.75009 0.8608 0.25004 0.0
H889 H 0.82653 0.84181 0.24976 0.0
H890 H 0.76741 0.92666 0.2754 0.0
H891 H 0.76299 0.9235 0.24465 0.0
H892 H 0.74187 0.9033 0.26009 0.0
H893 H 0.86319 0.87273 0.26006 0.0
H894 H 0.85896 0.90055 0.24606 0.0
H895 H 0.859 0.90257 0.27673 0.0
H896 H 0.84499 0.97328 0.23048 0.0
H897 H 0.84665 0.97686 0.30419 0.0
H898 H 0.79588 0.91819 0.21715 0.0
H899 H 0.82776 0.91062 0.21544 0.0
H900 H 0.81972 0.93966 0.20546 0.0
H901 H 0.79916 0.92103 0.305 0.0
H902 H 0.82306 0.94472 0.32213 0.0
H903 H 0.83169 0.91518 0.30839 0.0
C904 C 0.79978 0.19916 0.28277 0.0
C905 C 0.81072 0.22207 0.2965 0.0
C906 C 0.81294 0.17777 0.28057 0.0
C907 C 0.83772 0.17955 0.29216 0.0
C908 C 0.84938 0.20315 0.305 0.0
C909 C 0.83565 0.22407 0.30715 0.0
C910 C 0.79974 0.15288 0.26692 0.0
C911 C 0.87591 0.20596 0.31733 0.0
C912 C 0.85782 0.11878 0.31142 0.0
C913 C 0.8737 0.11137 0.29438 0.0
C914 C 0.84597 0.14084 0.31077 0.0
C915 C 0.85033 0.15613 0.29281 0.0
C916 C 0.86664 0.14902 0.27572 0.0
C917 C 0.87801 0.12659 0.27661 0.0
C918 C 0.82854 0.14763 0.32923 0.0
C919 C 0.87202 0.16508 0.2565 0.0
H920 H 0.78043 0.19756 0.27465 0.0
H921 H 0.84422 0.24192 0.31758 0.0
H922 H 0.81255 0.14513 0.25448 0.0
H923 H 0.79538 0.13833 0.27879 0.0
H924 H 0.78152 0.15529 0.2573 0.0
H925 H 0.88334 0.22626 0.32438 0.0
H926 H 0.87541 0.19422 0.3318 0.0
H927 H 0.88955 0.19872 0.30546 0.0
H928 H 0.85427 0.10706 0.32514 0.0
H929 H 0.8903 0.121 0.26342 0.0
H930 H 0.80906 0.14849 0.32121 0.0
H931 H 0.83591 0.16695 0.33873 0.0
H932 H 0.82688 0.13351 0.34183 0.0
H933 H 0.85384 0.16608 0.24618 0.0
H934 H 0.88555 0.15721 0.24483 0.0
H935 H 0.88025 0.18507 0.26383 0.0
C936 C 0.38005 0.0372 0.98225 0.0
C937 C 0.39154 0.05351 0.00195 0.0
C938 C 0.3597 0.01762 0.98378 0.0
C939 C 0.35041 0.01453 0.00548 0.0
C940 C 0.36112 0.03164 0.02527 0.0
C941 C 0.38168 0.05086 0.02329 0.0
C942 C 0.34876 -0.00029 0.96229 0.0
C943 C 0.35148 0.02909 0.04865 0.0
C944 C 0.28543 0.97372 0.00543 0.0
C945 C 0.2925 0.95006 0.00993 0.0
C946 C 0.30407 0.99507 0.00438 0.0
C947 C 0.33037 0.99256 0.00762 0.0
C948 C 0.33764 0.9688 0.01233 0.0
C949 C 0.3186 0.94787 0.01357 0.0
C950 C 0.29565 0.02022 -0.00037 0.0
C951 C 0.36554 0.96536 0.01566 0.0
H952 H 0.38726 0.03947 0.96564 0.0
H953 H 0.39062 0.06323 0.03863 0.0
H954 H 0.35213 0.97981 0.96427 0.0
H955 H 0.32769 -0.00062 0.95972 0.0
H956 H 0.35748 0.00535 0.9466 0.0
H957 H 0.36039 0.04522 0.06191 0.0
H958 H 0.33032 0.02841 0.04767 0.0
H959 H 0.35581 0.01077 0.05435 0.0
H960 H 0.26528 0.97561 0.00277 0.0
H961 H 0.3242 0.92963 0.01699 0.0
H962 H 0.30267 0.02556 0.98321 0.0
H963 H 0.30416 0.03584 0.01348 0.0
H964 H 0.27443 0.01925 0.99843 0.0
H965 H 0.37514 0.969 -0.00012 0.0
H966 H 0.36796 0.94572 0.01948 0.0
H967 H 0.37555 0.97955 0.03003 0.0
C968 C 0.23633 0.36752 0.3247 0.0
C969 C 0.26111 0.37968 0.32203 0.0
C970 C 0.21471 0.3797 0.32066 0.0
C971 C 0.21798 0.40461 0.31377 0.0
C972 C 0.24287 0.41667 0.31045 0.0
C973 C 0.26409 0.40411 0.31468 0.0
C974 C 0.18847 0.36622 0.32431 0.0
C975 C 0.24719 0.44324 0.30314 0.0
C976 C 0.16343 0.43469 0.28742 0.0
C977 C 0.15887 0.45214 0.30612 0.0
C978 C 0.18182 0.41811 0.28987 0.0
C979 C 0.19582 0.419 0.31152 0.0
C980 C 0.19023 0.43554 0.33072 0.0
C981 C 0.17188 0.45193 0.32777 0.0
C982 C 0.18721 0.40068 0.26902 0.0
C983 C 0.20458 0.43692 0.35415 0.0
H984 H 0.23384 0.34849 0.33006 0.0
H985 H 0.28318 0.41381 0.31288 0.0
H986 H 0.18062 0.37707 0.3389 0.0
H987 H 0.17502 0.3657 0.3088 0.0
H988 H 0.18896 0.34621 0.32811 0.0
H989 H 0.26752 0.44928 0.29998 0.0
H990 H 0.23485 0.44388 0.28717 0.0
H991 H 0.24175 0.45745 0.31674 0.0
H992 H 0.15342 0.43472 0.27064 0.0
H993 H 0.1683 0.46519 0.34236 0.0
H994 H 0.18755 0.38083 0.27322 0.0
H995 H 0.20643 0.40763 0.26368 0.0
H996 H 0.17273 0.40005 0.25419 0.0
H997 H 0.20425 0.41737 0.35925 0.0
H998 H 0.19638 0.44906 0.36771 0.0
H999 H 0.22498 0.4451 0.35342 0.0
C1000 C 0.14669 0.04871 0.43865 0.0
C1001 C 0.14957 0.02311 0.44085 0.0
C1002 C 0.16745 0.0686 0.444 0.0
C1003 C 0.19151 0.06286 0.45237 0.0
C1004 C 0.19467 0.03711 0.4545 0.0
C1005 C 0.17374 0.0175 0.44844 0.0
C1006 C 0.16348 0.09582 0.44118 0.0
C1007 C 0.21997 0.03035 0.46374 0.0
C1008 C 0.25096 0.1121 0.45208 0.0
C1009 C 0.25278 0.12511 0.47453 0.0
C1010 C 0.23101 0.0918 0.44453 0.0
C1011 C 0.21296 0.08402 0.46003 0.0
C1012 C 0.21507 0.09677 0.48286 0.0
C1013 C 0.23478 0.11739 0.48974 0.0
C1014 C 0.22895 0.079 0.41991 0.0
C1015 C 0.19651 0.08862 0.50002 0.0
H1016 H 0.12803 0.0534 0.43324 0.0
H1017 H 0.17629 0.99774 0.44981 0.0
H1018 H 0.1655 0.10767 0.45832 0.0
H1019 H 0.17834 0.10464 0.43087 0.0
H1020 H 0.14423 0.09673 0.43261 0.0
H1021 H 0.21938 0.00931 0.46393 0.0
H1022 H 0.23549 0.0372 0.45316 0.0
H1023 H 0.22512 0.04021 0.48159 0.0
H1024 H 0.26479 0.11817 0.44027 0.0
H1025 H 0.23632 0.12727 0.50719 0.0
H1026 H 0.21021 0.08108 0.41105 0.0
H1027 H 0.22961 0.0581 0.41951 0.0
H1028 H 0.24456 0.08733 0.41006 0.0
H1029 H 0.17677 0.09117 0.4939 0.0
H1030 H 0.20151 0.09984 0.51739 0.0
H1031 H 0.19625 0.0679 0.50159 0.0
C1032 C 0.75128 0.17778 0.74429 0.0
C1033 C 0.76381 0.19715 0.76131 0.0
C1034 C 0.73309 0.15812 0.74995 0.0
C1035 C 0.72706 0.15813 0.77311 0.0
C1036 C 0.73927 0.178 0.79028 0.0
C1037 C 0.75768 0.19719 0.78419 0.0
C1038 C 0.72074 0.13703 0.73124 0.0
C1039 C 0.73302 0.17886 0.81508 0.0
C1040 C 0.66446 0.11794 0.78297 0.0
C1041 C 0.67305 0.09575 0.78963 0.0
C1042 C 0.68189 0.13867 0.77804 0.0
C1043 C 0.70846 0.13696 0.77945 0.0
C1044 C 0.71728 0.11474 0.78639 0.0
C1045 C 0.69947 0.09448 0.79159 0.0
C1046 C 0.67186 0.16227 0.77106 0.0
C1047 C 0.74546 0.1121 0.7878 0.0
H1048 H 0.75622 0.17767 0.72664 0.0
H1049 H 0.76725 0.21234 0.7973 0.0
H1050 H 0.72525 0.11815 0.73545 0.0
H1051 H 0.69956 0.13602 0.73021 0.0
H1052 H 0.72737 0.13999 0.71405 0.0
H1053 H 0.74343 0.19622 0.82612 0.0
H1054 H 0.71208 0.17867 0.81611 0.0
H1055 H 0.73814 0.16153 0.82216 0.0
H1056 H 0.64408 0.11909 0.78155 0.0
H1057 H 0.70624 0.07733 0.79658 0.0
H1058 H 0.67636 0.16478 0.7532 0.0
H1059 H 0.68146 0.1797 0.78245 0.0
H1060 H 0.65077 0.16107 0.77189 0.0
H1061 H 0.7528 0.11312 0.7706 0.0
H1062 H 0.74918 0.09369 0.79375 0.0
H1063 H 0.75659 0.12824 0.7998 0.0
C1064 C 0.42282 0.04374 0.54353 0.0
C1065 C 0.44757 0.04938 0.5549 0.0
C1066 C 0.40984 0.06334 0.53662 0.0
C1067 C 0.42197 0.08924 0.54107 0.0
C1068 C 0.44687 0.09512 0.55275 0.0
C1069 C 0.45936 0.07511 0.5596 0.0
C1070 C 0.38322 0.05629 0.52437 0.0
C1071 C 0.46047 0.12248 0.55765 0.0
C1072 C 0.39586 0.13257 0.50107 0.0
C1073 C 0.37824 0.14376 0.51438 0.0
C1074 C 0.4112 0.11579 0.50999 0.0
C1075 C 0.40875 0.10992 0.53272 0.0
C1076 C 0.39199 0.12221 0.54668 0.0
C1077 C 0.37698 0.13908 0.53735 0.0
C1078 C 0.42906 0.10331 0.49464 0.0
C1079 C 0.38885 0.11644 0.57101 0.0
H1080 H 0.41349 0.02392 0.54018 0.0
H1081 H 0.47858 0.07953 0.56823 0.0
H1082 H 0.36951 0.06685 0.53374 0.0
H1083 H 0.38317 0.06206 0.50678 0.0
H1084 H 0.37619 0.03533 0.52286 0.0
H1085 H 0.47938 0.12393 0.56767 0.0
H1086 H 0.46351 0.13035 0.54118 0.0
H1087 H 0.44844 0.13479 0.56741 0.0
H1088 H 0.39708 0.13623 0.48335 0.0
H1089 H 0.3634 0.14764 0.54775 0.0
H1090 H 0.42189 0.08244 0.49038 0.0
H1091 H 0.44852 0.10524 0.50371 0.0
H1092 H 0.43064 0.11183 0.47827 0.0
H1093 H 0.37934 0.09632 0.57059 0.0
H1094 H 0.37711 0.12949 0.58034 0.0
H1095 H 0.40786 0.11818 0.58086 0.0
C1096 C 0.57947 0.48671 0.56279 0.0
C1097 C 0.58759 0.51267 0.56074 0.0
C1098 C 0.5958 0.46814 0.55859 0.0
C1099 C 0.62088 0.47578 0.55235 0.0
C1100 C 0.6294 0.50208 0.55092 0.0
C1101 C 0.61263 0.52017 0.55505 0.0
C1102 C 0.58598 0.44028 0.56013 0.0
C1103 C 0.65609 0.51107 0.54453 0.0
C1104 C 0.67419 0.43448 0.55544 0.0
C1105 C 0.67538 0.42592 0.53202 0.0
C1106 C 0.65565 0.44974 0.56256 0.0
C1107 C 0.63782 0.45629 0.54586 0.0
C1108 C 0.63784 0.44613 0.52242 0.0
C1109 C 0.65669 0.43119 0.51577 0.0
C1110 C 0.65624 0.46021 0.58772 0.0
C1111 C 0.61892 0.45233 0.50411 0.0
H1112 H 0.56005 0.48081 0.56704 0.0
H1113 H 0.6191 0.54028 0.5538 0.0
H1114 H 0.58469 0.42895 0.5428 0.0
H1115 H 0.59954 0.43213 0.57151 0.0
H1116 H 0.56673 0.43776 0.56682 0.0
H1117 H 0.66021 0.53234 0.54542 0.0
H1118 H 0.67063 0.50461 0.55622 0.0
H1119 H 0.65834 0.50239 0.52674 0.0
H1120 H 0.68864 0.43054 0.56807 0.0
H1121 H 0.65739 0.42444 0.49766 0.0
H1122 H 0.63666 0.45756 0.59365 0.0
H1123 H 0.66324 0.48119 0.59009 0.0
H1124 H 0.66904 0.45083 0.59882 0.0
H1125 H 0.59908 0.44887 0.50934 0.0
H1126 H 0.61969 0.44073 0.48715 0.0
H1127 H 0.6232 0.47301 0.502 0.0
C1128 C 0.76702 0.26602 0.36881 0.0
C1129 C 0.7755 0.28305 0.35343 0.0
C1130 C 0.76238 0.27524 0.39137 0.0
C1131 C 0.76673 0.30207 0.39872 0.0
C1132 C 0.77573 0.31928 0.38332 0.0
C1133 C 0.7798 0.30955 0.36079 0.0
C1134 C 0.75246 0.25637 0.4072 0.0
C1135 C 0.78102 0.348 0.39063 0.0
C1136 C 0.73572 0.33426 0.44858 0.0
C1137 C 0.7562 0.33941 0.46584 0.0
C1138 C 0.73836 0.32068 0.427 0.0
C1139 C 0.76213 0.31239 0.42252 0.0
C1140 C 0.78235 0.31624 0.44029 0.0
C1141 C 0.77907 0.32952 0.46179 0.0
C1142 C 0.71617 0.31646 0.4086 0.0
C1143 C 0.80805 0.30784 0.43616 0.0
H1144 H 0.76341 0.24551 0.36298 0.0
H1145 H 0.78649 0.32268 0.34889 0.0
H1146 H 0.76576 0.25845 0.42304 0.0
H1147 H 0.73359 0.26055 0.41266 0.0
H1148 H 0.75018 0.2361 0.39886 0.0
H1149 H 0.78849 0.35868 0.37671 0.0
H1150 H 0.76315 0.35515 0.39568 0.0
H1151 H 0.79524 0.35246 0.40593 0.0
H1152 H 0.71791 0.34164 0.45162 0.0
H1153 H 0.79502 0.33333 0.475 0.0
H1154 H 0.71291 0.29619 0.40028 0.0
H1155 H 0.72078 0.32881 0.39499 0.0
H1156 H 0.69812 0.32113 0.41563 0.0
H1157 H 0.80551 0.28746 0.42821 0.0
H1158 H 0.82091 0.31002 0.45232 0.0
H1159 H 0.81767 0.31961 0.42391 0.0
C1160 C 0.49759 0.0204 0.93449 0.0
C1161 C 0.49745 0.04531 0.9456 0.0
C1162 C 0.51307 0.01598 0.91635 0.0
C1163 C 0.52883 0.03702 0.90933 0.0
C1164 C 0.52917 0.06216 0.92085 0.0
C1165 C 0.51341 0.06603 0.93883 0.0
C1166 C 0.51218 0.98893 0.90439 0.0
C1167 C 0.54584 0.08506 0.9139 0.0
C1168 C 0.58502 0.02658 0.87415 0.0
C1169 C 0.57506 0.02969 0.852 0.0
C1170 C 0.56997 0.02825 0.89292 0.0
C1171 C 0.54435 0.03303 0.88941 0.0
C1172 C 0.53393 0.03535 0.867 0.0
C1173 C 0.54942 0.03372 0.84857 0.0
C1174 C 0.58173 0.02572 0.91661 0.0
C1175 C 0.5066 0.04027 0.86258 0.0
H1176 H 0.48522 0.0044 0.93975 0.0
H1177 H 0.51347 0.08534 0.94742 0.0
H1178 H 0.50489 0.98787 0.88604 0.0
H1179 H 0.53178 0.98357 0.90465 0.0
H1180 H 0.49965 0.97457 0.91252 0.0
H1181 H 0.54462 0.10319 0.9252 0.0
H1182 H 0.56618 0.08179 0.91455 0.0
H1183 H 0.53995 0.08754 0.89587 0.0
H1184 H 0.6048 0.02342 0.87696 0.0
H1185 H 0.54149 0.03597 0.8315 0.0
H1186 H 0.56956 0.01084 0.92443 0.0
H1187 H 0.58268 0.04418 0.92804 0.0
H1188 H 0.6014 0.02054 0.91621 0.0
H1189 H 0.49315 0.02551 0.86933 0.0
H1190 H 0.50096 0.04009 0.84394 0.0
H1191 H 0.50431 0.05926 0.87183 0.0
C1192 C 0.33132 0.33583 0.38973 0.0
C1193 C 0.30985 0.33032 0.37352 0.0
C1194 C 0.33365 0.32129 0.40809 0.0
C1195 C 0.31428 0.30047 0.40995 0.0
C1196 C 0.29233 0.29517 0.39384 0.0
C1197 C 0.29029 0.31031 0.37592 0.0
C1198 C 0.35707 0.32784 0.42518 0.0
C1199 C 0.27145 0.27289 0.39502 0.0
C1200 C 0.33112 0.24378 0.43875 0.0
C1201 C 0.31939 0.24705 0.45944 0.0
C1202 C 0.33018 0.26142 0.42278 0.0
C1203 C 0.3176 0.28314 0.42778 0.0
C1204 C 0.30686 0.28728 0.44913 0.0
C1205 C 0.30768 0.26905 0.46464 0.0
C1206 C 0.34162 0.25616 0.40008 0.0
C1207 C 0.29377 0.3105 0.45526 0.0
H1208 H 0.34634 0.35146 0.38795 0.0
H1209 H 0.2738 0.30592 0.36326 0.0
H1210 H 0.35124 0.32988 0.44305 0.0
H1211 H 0.36883 0.31198 0.42358 0.0
H1212 H 0.36923 0.34592 0.42248 0.0
H1213 H 0.25524 0.2719 0.38164 0.0
H1214 H 0.27951 0.25455 0.39266 0.0
H1215 H 0.26386 0.27451 0.41222 0.0
H1216 H 0.34014 0.22681 0.43452 0.0
H1217 H 0.29872 0.2718 0.48066 0.0
H1218 H 0.3554 0.27303 0.39718 0.0
H1219 H 0.32619 0.25292 0.38574 0.0
H1220 H 0.35172 0.23903 0.39928 0.0
H1221 H 0.30633 0.32833 0.45261 0.0
H1222 H 0.28874 0.31228 0.47341 0.0
H1223 H 0.2759 0.30908 0.44375 0.0
C1224 C 0.54154 0.50903 0.91867 0.0
C1225 C 0.55873 0.52943 0.93098 0.0
C1226 C 0.52346 0.5135 0.90145 0.0
C1227 C 0.52263 0.53894 0.89649 0.0
C1228 C 0.53936 0.55968 0.90939 0.0
C1229 C 0.55714 0.55468 0.92653 0.0
C1230 C 0.50581 0.49091 0.88806 0.0
C1231 C 0.539 0.58708 0.90465 0.0
C1232 C 0.49705 0.54599 0.83593 0.0
C1233 C 0.47177 0.55013 0.83912 0.0
C1234 C 0.51392 0.54281 0.85456 0.0
C1235 C 0.50529 0.5437 0.87691 0.0
C1236 C 0.48008 0.54868 0.88041 0.0
C1237 C 0.46362 0.55192 0.86146 0.0
C1238 C 0.54079 0.53784 0.8502 0.0
C1239 C 0.47027 0.5498 0.90404 0.0
H1240 H 0.54277 0.4895 0.92199 0.0
H1241 H 0.57006 0.57058 0.93635 0.0
H1242 H 0.48554 0.49426 0.88839 0.0
H1243 H 0.51018 0.48882 0.86975 0.0
H1244 H 0.50775 0.47257 0.89502 0.0
H1245 H 0.55232 0.60114 0.91709 0.0
H1246 H 0.54458 0.58907 0.88698 0.0
H1247 H 0.51933 0.59209 0.90544 0.0
H1248 H 0.50356 0.54469 0.81876 0.0
H1249 H 0.4441 0.55503 0.86408 0.0
H1250 H 0.54358 0.51857 0.85471 0.0
H1251 H 0.55511 0.55222 0.86135 0.0
H1252 H 0.5448 0.53866 0.83194 0.0
H1253 H 0.46998 0.53079 0.9103 0.0
H1254 H 0.4506 0.55506 0.90404 0.0
H1255 H 0.48331 0.56402 0.91651 0.0
C1256 C 0.78396 0.79172 0.16948 0.0
C1257 C 0.77922 0.77517 0.18624 0.0
C1258 C 0.79097 0.78267 0.14773 0.0
C1259 C 0.79254 0.75621 0.1422 0.0
C1260 C 0.78751 0.73926 0.15884 0.0
C1261 C 0.78112 0.74898 0.18074 0.0
C1262 C 0.79632 0.80143 0.13053 0.0
C1263 C 0.78851 0.71082 0.15338 0.0
C1264 C 0.78277 0.7325 0.07823 0.0
C1265 C 0.808 0.73124 0.0726 0.0
C1266 C 0.77745 0.73962 0.10098 0.0
C1267 C 0.79792 0.74625 0.1185 0.0
C1268 C 0.82347 0.74485 0.11298 0.0
C1269 C 0.82819 0.73703 0.09008 0.0
C1270 C 0.74991 0.74038 0.10619 0.0
C1271 C 0.84582 0.7523 0.13114 0.0
H1272 H 0.78191 0.81185 0.17322 0.0
H1273 H 0.77776 0.73606 0.19359 0.0
H1274 H 0.81528 0.79988 0.12385 0.0
H1275 H 0.78163 0.7967 0.11559 0.0
H1276 H 0.79619 0.82167 0.13813 0.0
H1277 H 0.78453 0.70027 0.16833 0.0
H1278 H 0.77421 0.70242 0.13873 0.0
H1279 H 0.80769 0.70769 0.14798 0.0
H1280 H 0.76704 0.72766 0.06483 0.0
H1281 H 0.84769 0.73602 0.08576 0.0
H1282 H 0.74717 0.76047 0.11204 0.0
H1283 H 0.74521 0.72891 0.12039 0.0
H1284 H 0.7361 0.73281 0.09094 0.0
H1285 H 0.84701 0.77291 0.1381 0.0
H1286 H 0.86439 0.74919 0.12425 0.0
H1287 H 0.84292 0.74102 0.14576 0.0
C1288 C 0.0422 0.06623 0.14067 0.0
C1289 C 0.03314 0.07047 0.11861 0.0
C1290 C 0.02571 0.06442 0.15833 0.0
C1291 C -0.00052 0.06673 0.15377 0.0
C1292 C 0.99049 0.07224 0.13185 0.0
C1293 C 0.00747 0.0741 0.11452 0.0
C1294 C 0.03611 0.05879 0.18155 0.0
C1295 C 0.96266 0.07475 0.12631 0.0
C1296 C 0.95498 0.02818 0.18906 0.0
C1297 C 0.95033 0.04706 0.20653 0.0
C1298 C 0.97013 0.03457 0.17132 0.0
C1299 C 0.9811 0.06048 0.1711 0.0
C1300 C 0.97572 0.07983 0.18819 0.0
C1301 C 0.96027 0.07288 0.2057 0.0
C1302 C 0.97516 0.01338 0.15328 0.0
C1303 C 0.98712 0.10765 0.1885 0.0
H1304 H 0.06214 0.06382 0.14397 0.0
H1305 H 0.00037 0.07723 0.09744 0.0
H1306 H 0.03055 0.07242 0.19554 0.0
H1307 H 0.02771 0.03911 0.18433 0.0
H1308 H 0.05736 0.06007 0.183 0.0
H1309 H 0.95941 0.08209 0.10953 0.0
H1310 H 0.95071 0.05566 0.12554 0.0
H1311 H 0.95593 0.08786 0.14004 0.0
H1312 H 0.94718 0.0082 0.18947 0.0
H1313 H 0.95676 0.08755 0.21919 0.0
H1314 H 0.99586 0.01141 0.15476 0.0
H1315 H 0.97041 0.01823 0.13575 0.0
H1316 H 0.96385 0.9945 0.15505 0.0
H1317 H 0.00824 0.10985 0.19242 0.0
H1318 H 0.97918 0.12062 0.2016 0.0
H1319 H 0.98353 0.1139 0.17132 0.0
C1320 C 0.2587 0.77519 0.16095 0.0
C1321 C 0.27479 0.78873 0.17978 0.0
C1322 C 0.25396 0.7866 0.14098 0.0
C1323 C 0.26557 0.81214 0.13986 0.0
C1324 C 0.28124 0.82612 0.15909 0.0
C1325 C 0.28571 0.81419 0.17882 0.0
C1326 C 0.23721 0.77105 0.12079 0.0
C1327 C 0.29389 0.85341 0.15857 0.0
C1328 C 0.27832 0.83092 0.08087 0.0
C1329 C 0.25823 0.84491 0.07631 0.0
C1330 C 0.28084 0.82015 0.10146 0.0
C1331 C 0.26288 0.82352 0.11799 0.0
C1332 C 0.24253 0.83761 0.11353 0.0
C1333 C 0.2404 0.84812 0.09269 0.0
C1334 C 0.30275 0.80516 0.10552 0.0
C1335 C 0.22308 0.84163 0.13081 0.0
H1336 H 0.25015 0.75548 0.16159 0.0
H1337 H 0.29809 0.82468 0.19341 0.0
H1338 H 0.22175 0.78177 0.11519 0.0
H1339 H 0.24887 0.76777 0.10597 0.0
H1340 H 0.2283 0.75206 0.12496 0.0
H1341 H 0.304 0.86222 0.17549 0.0
H1342 H 0.30801 0.85369 0.14541 0.0
H1343 H 0.27937 0.8655 0.15356 0.0
H1344 H 0.29217 0.8283 0.06831 0.0
H1345 H 0.22486 0.85895 0.08929 0.0
H1346 H 0.29513 0.78524 0.10825 0.0
H1347 H 0.31495 0.81416 0.12136 0.0
H1348 H 0.315 0.80422 0.09087 0.0
H1349 H 0.21317 0.82276 0.13427 0.0
H1350 H 0.20843 0.8531 0.12477 0.0
H1351 H 0.23293 0.85167 0.14742 0.0
C1352 C 0.96171 0.45944 0.11249 0.0
C1353 C 0.96955 0.47301 0.09447 0.0
C1354 C 0.97826 0.45996 0.13239 0.0
C1355 C 0.00324 0.4742 0.13411 0.0
C1356 C 0.01179 0.48642 0.11525 0.0
C1357 C 0.99474 0.48584 0.0957 0.0
C1358 C 0.96834 0.44689 0.1522 0.0
C1359 C 0.03839 0.50149 0.11627 0.0
C1360 C 0.03164 0.5081 0.19253 0.0
C1361 C 0.04959 0.49243 0.19887 0.0
C1362 C 0.01614 0.50198 0.17174 0.0
C1363 C 0.01885 0.47973 0.15668 0.0
C1364 C 0.03675 0.4636 0.163 0.0
C1365 C 0.05185 0.47006 0.18419 0.0
C1366 C 0.99705 0.51954 0.16581 0.0
C1367 C 0.04025 0.43988 0.14722 0.0
H1368 H 0.94219 0.44955 0.11154 0.0
H1369 H 0.00089 0.49601 0.08158 0.0
H1370 H 0.9827 0.43577 0.15928 0.0
H1371 H 0.96496 0.46169 0.16628 0.0
H1372 H 0.95004 0.43372 0.14699 0.0
H1373 H 0.04329 0.50666 0.09913 0.0
H1374 H 0.0396 0.51952 0.12836 0.0
H1375 H 0.05297 0.49032 0.12288 0.0
H1376 H 0.02959 0.52529 0.2039 0.0
H1377 H 0.06573 0.45791 0.18903 0.0
H1378 H 0.97747 0.50841 0.16223 0.0
H1379 H 0.00195 0.52798 0.14996 0.0
H1380 H 0.99664 0.5355 0.17986 0.0
H1381 H 0.02161 0.42712 0.14282 0.0
H1382 H 0.05424 0.42881 0.15504 0.0
H1383 H 0.04711 0.44549 0.13082 0.0
C1384 C 0.3362 0.73688 0.28434 0.0
C1385 C 0.3342 0.73047 0.26038 0.0
C1386 C 0.36014 0.74072 0.29715 0.0
C1387 C 0.38246 0.73742 0.28571 0.0
C1388 C 0.38049 0.73099 0.26143 0.0
C1389 C 0.3563 0.72786 0.24898 0.0
C1390 C 0.36151 0.7481 0.32295 0.0
C1391 C 0.40378 0.72681 0.24872 0.0
C1392 C 0.44583 0.76785 0.31858 0.0
C1393 C 0.45273 0.74741 0.32965 0.0
C1394 C 0.42333 0.7647 0.30368 0.0
C1395 C 0.40771 0.74037 0.29937 0.0
C1396 C 0.4153 0.71932 0.30955 0.0
C1397 C 0.43757 0.72317 0.32482 0.0
C1398 C 0.41562 0.78772 0.29351 0.0
C1399 C 0.39944 0.69293 0.30491 0.0
H1400 H 0.31897 0.73889 0.29302 0.0
H1401 H 0.35453 0.72265 0.23042 0.0
H1402 H 0.36864 0.73277 0.33186 0.0
H1403 H 0.37528 0.76602 0.32818 0.0
H1404 H 0.34254 0.75114 0.32899 0.0
H1405 H 0.39902 0.72224 0.22979 0.0
H1406 H 0.4185 0.74422 0.25219 0.0
H1407 H 0.41252 0.71074 0.25503 0.0
H1408 H 0.4574 0.78668 0.32236 0.0
H1409 H 0.44296 0.70727 0.33319 0.0
H1410 H 0.39769 0.79264 0.30056 0.0
H1411 H 0.41159 0.78319 0.27454 0.0
H1412 H 0.43068 0.80488 0.29737 0.0
H1413 H 0.38085 0.69338 0.31259 0.0
H1414 H 0.40932 0.6781 0.31223 0.0
H1415 H 0.39506 0.68711 0.28608 0.0
C1416 C 0.95064 0.41161 0.0173 0.0
C1417 C 0.92641 0.39732 0.01845 0.0
C1418 C 0.96913 0.40122 0.00447 0.0
C1419 C 0.96278 0.37647 0.99165 0.0
C1420 C 0.93823 0.36212 0.99251 0.0
C1421 C 0.92056 0.37252 0.00629 0.0
C1422 C 0.99545 0.41667 0.0047 0.0
C1423 C 0.93039 0.33598 0.9785 0.0
C1424 C 0.99703 0.35751 0.93896 0.0
C1425 C 0.0104 0.33856 0.94655 0.0
C1426 C 0.98212 0.37079 0.95375 0.0
C1427 C 0.98144 0.3656 0.97687 0.0
C1428 C 0.99667 0.34798 0.98507 0.0
C1429 C 0.01052 0.33418 0.96963 0.0
C1430 C 0.96551 0.38877 0.94411 0.0
C1431 C 0.9973 0.34274 0.00983 0.0
H1432 H 0.95547 0.43075 0.02656 0.0
H1433 H 0.9018 0.3615 0.00704 0.0
H1434 H 0.01045 0.40501 0.00951 0.0
H1435 H 0.9987 0.42173 0.98722 0.0
H1436 H 0.99796 0.43472 0.01696 0.0
H1437 H 0.91018 0.32786 0.98031 0.0
H1438 H 0.93263 0.33736 0.95999 0.0
H1439 H 0.94305 0.32234 0.98399 0.0
H1440 H 0.99666 0.36054 0.92097 0.0
H1441 H 0.0209 0.31947 0.97542 0.0
H1442 H 0.96824 0.40757 0.95523 0.0
H1443 H 0.945 0.3804 0.94378 0.0
H1444 H 0.9697 0.39215 0.92632 0.0
H1445 H -0.00038 0.36104 0.0217 0.0
H1446 H 0.01314 0.3319 0.01432 0.0
H1447 H 0.97888 0.33127 0.01279 0.0
C1448 C 0.68084 0.75853 0.27741 0.0
C1449 C 0.70446 0.7678 0.2901 0.0
C1450 C 0.6578 0.75759 0.28813 0.0
C1451 C 0.65848 0.7663 0.31201 0.0
C1452 C 0.6824 0.77477 0.325 0.0
C1453 C 0.70511 0.77534 0.31387 0.0
C1454 C 0.63267 0.74823 0.27375 0.0
C1455 C 0.68395 0.78432 0.35046 0.0
C1456 C 0.60051 0.79382 0.33342 0.0
C1457 C 0.58835 0.77369 0.34412 0.0
C1458 C 0.62331 0.7916 0.32295 0.0
C1459 C 0.63419 0.7686 0.32301 0.0
C1460 C 0.62205 0.74817 0.33376 0.0
C1461 C 0.59929 0.751 0.34429 0.0
C1462 C 0.6358 0.81393 0.31185 0.0
C1463 C 0.63305 0.72333 0.33405 0.0
H1464 H 0.68026 0.75255 0.25903 0.0
H1465 H 0.7234 0.78248 0.32368 0.0
H1466 H 0.62087 0.73341 0.28194 0.0
H1467 H 0.62158 0.76447 0.2727 0.0
H1468 H 0.63553 0.73996 0.25595 0.0
H1469 H 0.70407 0.78845 0.35839 0.0
H1470 H 0.67517 0.80222 0.35309 0.0
H1471 H 0.67296 0.76991 0.35967 0.0
H1472 H 0.59223 0.81144 0.33325 0.0
H1473 H 0.58994 0.73532 0.35245 0.0
H1474 H 0.63729 0.80774 0.29329 0.0
H1475 H 0.6556 0.82048 0.31998 0.0
H1476 H 0.62493 0.83051 0.31338 0.0
H1477 H 0.6345 0.71451 0.31614 0.0
H1478 H 0.62118 0.70922 0.34298 0.0
H1479 H 0.65276 0.72722 0.34282 0.0
C1480 C 0.06599 0.14604 0.02011 0.0
C1481 C 0.07083 0.12144 0.01157 0.0
C1482 C 0.06232 0.16431 0.00517 0.0
C1483 C 0.06332 0.1577 0.98114 0.0
C1484 C 0.06899 0.13315 0.97254 0.0
C1485 C 0.0728 0.11535 0.98791 0.0
C1486 C 0.05657 0.1904 0.01501 0.0
C1487 C 0.07006 0.12533 0.94705 0.0
C1488 C 0.02348 0.19314 0.94306 0.0
C1489 C 0.04213 0.21184 0.93658 0.0
C1490 C 0.03028 0.175 0.95703 0.0
C1491 C 0.05635 0.17572 0.96493 0.0
C1492 C 0.07539 0.19412 0.95798 0.0
C1493 C 0.06805 0.21192 0.94374 0.0
C1494 C 0.00943 0.15545 0.96379 0.0
C1495 C 0.10335 0.19555 0.9662 0.0
H1496 H 0.06471 0.15094 0.03844 0.0
H1497 H 0.07666 0.09634 0.98132 0.0
H1498 H 0.06968 0.20585 0.0088 0.0
H1499 H 0.03668 0.19258 0.009 0.0
H1500 H 0.05852 0.19324 0.03417 0.0
H1501 H 0.07655 0.10628 0.94333 0.0
H1502 H 0.05072 0.12442 0.93798 0.0
H1503 H 0.08323 0.13989 0.93977 0.0
H1504 H 0.00343 0.19288 0.93746 0.0
H1505 H 0.08252 0.22642 0.93887 0.0
H1506 H 0.00836 0.15853 0.98273 0.0
H1507 H 0.01398 0.13571 0.95928 0.0
H1508 H 0.99027 0.15663 0.9552 0.0
H1509 H 0.106 0.20072 0.98521 0.0
H1510 H 0.11593 0.21001 0.95822 0.0
H1511 H 0.10971 0.1765 0.96222 0.0
C1512 C 0.41842 0.36396 0.30076 0.0
C1513 C 0.39211 0.3569 0.29433 0.0
C1514 C 0.43656 0.36055 0.28467 0.0
C1515 C 0.42812 0.34929 0.2618 0.0
C1516 C 0.40154 0.3419 0.25531 0.0
C1517 C 0.38382 0.34601 0.27162 0.0
C1518 C 0.46472 0.36908 0.2921 0.0
C1519 C 0.39181 0.3294 0.2312 0.0
C1520 C 0.46961 0.35826 0.2122 0.0
C1521 C 0.47965 0.33499 0.20952 0.0
C1522 C 0.45357 0.3636 0.22973 0.0
C1523 C 0.44701 0.34497 0.24459 0.0
C1524 C 0.45748 0.32165 0.24225 0.0
C1525 C 0.47389 0.31706 0.22488 0.0
C1526 C 0.4432 0.38891 0.23201 0.0
C1527 C 0.45058 0.30115 0.25753 0.0
H1528 H 0.42478 0.37238 0.31834 0.0
H1529 H 0.36348 0.34028 0.26665 0.0
H1530 H 0.4753 0.35235 0.29 0.0
H1531 H 0.47299 0.38307 0.28096 0.0
H1532 H 0.46805 0.37814 0.31035 0.0
H1533 H 0.37056 0.3244 0.22905 0.0
H1534 H 0.39777 0.3425 0.2185 0.0
H1535 H 0.40039 0.31158 0.22701 0.0
H1536 H 0.47416 0.37228 0.20049 0.0
H1537 H 0.48147 0.29897 0.22281 0.0
H1538 H 0.44709 0.3986 0.25001 0.0
H1539 H 0.42207 0.38542 0.22798 0.0
H1540 H 0.45173 0.40211 0.22029 0.0
H1541 H 0.45488 0.30928 0.27593 0.0
H1542 H 0.4611 0.28449 0.25403 0.0
H1543 H 0.42966 0.2941 0.25479 0.0
C1544 C 0.57678 0.4469 0.02736 0.0
C1545 C 0.59145 0.47073 0.03578 0.0
C1546 C 0.56868 0.4293 0.0424 0.0
C1547 C 0.5751 0.43589 0.06644 0.0
C1548 C 0.59036 0.45974 0.07497 0.0
C1549 C 0.59854 0.4768 0.05947 0.0
C1550 C 0.55278 0.40387 0.03262 0.0
C1551 C 0.59732 0.46757 0.10049 0.0
C1552 C 0.52891 0.40252 0.10385 0.0
C1553 C 0.5422 0.38304 0.11052 0.0
C1554 C 0.53983 0.42039 0.09018 0.0
C1555 C 0.56447 0.41845 0.08265 0.0
C1556 C 0.57826 0.39918 0.08975 0.0
C1557 C 0.56702 0.3818 0.1038 0.0
C1558 C 0.5247 0.44095 0.08333 0.0
C1559 C 0.60445 0.39634 0.08182 0.0
H1560 H 0.57153 0.442 0.009 0.0
H1561 H 0.60995 0.49523 0.06594 0.0
H1562 H 0.56145 0.38776 0.03891 0.0
H1563 H 0.53323 0.40296 0.03861 0.0
H1564 H 0.551 0.40093 0.01346 0.0
H1565 H 0.61039 0.48619 0.10422 0.0
H1566 H 0.57962 0.46939 0.10933 0.0
H1567 H 0.6067 0.45257 0.10799 0.0
H1568 H 0.50979 0.40369 0.10917 0.0
H1569 H 0.57731 0.36668 0.10883 0.0
H1570 H 0.51986 0.43795 0.06439 0.0
H1571 H 0.53641 0.46023 0.08776 0.0
H1572 H 0.50658 0.4409 0.0919 0.0
H1573 H 0.60284 0.39121 0.06281 0.0
H1574 H 0.61322 0.38127 0.08986 0.0
H1575 H 0.61755 0.41485 0.08596 0.0
C1576 C 0.71676 0.26714 0.21226 0.0
C1577 C 0.72507 0.27991 0.23438 0.0
C1578 C 0.69383 0.27146 0.20069 0.0
C1579 C 0.67888 0.28882 0.21163 0.0
C1580 C 0.68793 0.30276 0.23345 0.0
C1581 C 0.71094 0.2982 0.24453 0.0
C1582 C 0.68495 0.25644 0.17731 0.0
C1583 C 0.67255 0.3214 0.24575 0.0
C1584 C 0.62258 0.31117 0.17949 0.0
C1585 C 0.60177 0.29464 0.18567 0.0
C1586 C 0.64795 0.30913 0.18727 0.0
C1587 C 0.6525 0.29026 0.20167 0.0
C1588 C 0.63157 0.27336 0.20769 0.0
C1589 C 0.60652 0.27571 0.19957 0.0
C1590 C 0.66983 0.32734 0.18038 0.0
C1591 C 0.63556 0.25308 0.22315 0.0
H1592 H 0.72774 0.25312 0.20434 0.0
H1593 H 0.71733 0.3084 0.26154 0.0
H1594 H 0.66809 0.2419 0.17885 0.0
H1595 H 0.67878 0.26939 0.16513 0.0
H1596 H 0.7002 0.24633 0.1699 0.0
H1597 H 0.68336 0.33247 0.26158 0.0
H1598 H 0.6669 0.33516 0.23417 0.0
H1599 H 0.65463 0.31066 0.25069 0.0
H1600 H 0.61905 0.32576 0.16865 0.0
H1601 H 0.59059 0.26282 0.20441 0.0
H1602 H 0.68418 0.31635 0.17251 0.0
H1603 H 0.67975 0.33977 0.1959 0.0
H1604 H 0.66321 0.33985 0.16795 0.0
H1605 H 0.64876 0.24035 0.21572 0.0
H1606 H 0.61728 0.241 0.22567 0.0
H1607 H 0.64463 0.26242 0.24028 0.0
C1608 C 0.45868 0.16116 0.01896 0.0
C1609 C 0.44533 0.13966 0.02706 0.0
C1610 C 0.46564 0.18457 0.03338 0.0
C1611 C 0.45869 0.18666 0.05633 0.0
C1612 C 0.44387 0.16557 0.06418 0.0
C1613 C 0.43756 0.14225 0.04953 0.0
C1614 C 0.4816 0.2066 0.02444 0.0
C1615 C 0.4358 0.16719 0.08846 0.0
C1616 C 0.50234 0.23189 0.10211 0.0
C1617 C 0.48917 0.25316 0.105 0.0
C1618 C 0.49276 0.21035 0.08606 0.0
C1619 C 0.46919 0.20986 0.07282 0.0
C1620 C 0.45574 0.23125 0.07562 0.0
C1621 C 0.46603 0.2528 0.09157 0.0
C1622 C 0.50789 0.18807 0.0833 0.0
C1623 C 0.43035 0.23118 0.06205 0.0
H1624 H 0.46426 0.15951 0.00147 0.0
H1625 H 0.42747 0.12574 0.05606 0.0
H1626 H 0.47304 0.22453 0.02785 0.0
H1627 H 0.50111 0.21013 0.03363 0.0
H1628 H 0.48348 0.20265 0.00564 0.0
H1629 H 0.42172 0.15032 0.09095 0.0
H1630 H 0.45291 0.16814 0.10082 0.0
H1631 H 0.42719 0.18496 0.09279 0.0
H1632 H 0.52035 0.23214 0.11229 0.0
H1633 H 0.45573 0.26916 0.09383 0.0
H1634 H 0.51215 0.18401 0.06507 0.0
H1635 H 0.49636 0.17047 0.08776 0.0
H1636 H 0.52629 0.19186 0.09439 0.0
H1637 H 0.43257 0.22802 0.04329 0.0
H1638 H 0.42247 0.24946 0.06604 0.0
H1639 H 0.41619 0.21505 0.06589 0.0
C1640 C 0.31138 0.35768 0.76797 0.0
C1641 C 0.29633 0.35016 0.74699 0.0
C1642 C 0.32563 0.38241 0.77291 0.0
C1643 C 0.32455 0.39995 0.75654 0.0
C1644 C 0.30879 0.39266 0.73563 0.0
C1645 C 0.29491 0.36781 0.73109 0.0
C1646 C 0.34235 0.38952 0.79534 0.0
C1647 C 0.30695 0.41094 0.71787 0.0
C1648 C 0.34672 0.4711 0.7757 0.0
C1649 C 0.37145 0.47431 0.76808 0.0
C1650 C 0.33122 0.44697 0.77212 0.0
C1651 C 0.34075 0.42557 0.76077 0.0
C1652 C 0.36565 0.42867 0.75303 0.0
C1653 C 0.38067 0.45302 0.75671 0.0
C1654 C 0.30465 0.44438 0.78042 0.0
C1655 C 0.37646 0.40623 0.74089 0.0
H1656 H 0.31255 0.34398 0.78022 0.0
H1657 H 0.28294 0.36212 0.71501 0.0
H1658 H 0.3628 0.39339 0.79176 0.0
H1659 H 0.33755 0.40742 0.80483 0.0
H1660 H 0.34018 0.37407 0.80664 0.0
H1661 H 0.29286 0.40267 0.70299 0.0
H1662 H 0.30126 0.42918 0.72582 0.0
H1663 H 0.32601 0.41581 0.71134 0.0
H1664 H 0.33943 0.48746 0.78449 0.0
H1665 H 0.39978 0.45528 0.75084 0.0
H1666 H 0.30284 0.43003 0.79277 0.0
H1667 H 0.29009 0.43724 0.76567 0.0
H1668 H 0.30013 0.46291 0.78899 0.0
H1669 H 0.37655 0.39074 0.75207 0.0
H1670 H 0.39634 0.4118 0.73628 0.0
H1671 H 0.36413 0.39808 0.7249 0.0
C1672 C 0.3122 0.71575 0.80112 0.0
C1673 C 0.28751 0.70977 0.7896 0.0
C1674 C 0.32938 0.6977 0.80012 0.0
C1675 C 0.32163 0.67307 0.78736 0.0
C1676 C 0.29721 0.66739 0.77475 0.0
C1677 C 0.28044 0.68582 0.77602 0.0
C1678 C 0.35532 0.70455 0.81366 0.0
C1679 C 0.28819 0.64133 0.76099 0.0
C1680 C 0.37028 0.62741 0.77495 0.0
C1681 C 0.36666 0.61156 0.79235 0.0
C1682 C 0.35604 0.64781 0.77323 0.0
C1683 C 0.33776 0.65233 0.78924 0.0
C1684 C 0.3343 0.63659 0.807 0.0
C1685 C 0.34879 0.61646 0.80834 0.0
C1686 C 0.36029 0.6643 0.75415 0.0
C1687 C 0.31501 0.64077 0.82443 0.0
H1688 H 0.31788 0.73439 0.81137 0.0
H1689 H 0.26131 0.68099 0.76725 0.0
H1690 H 0.35594 0.69322 0.82838 0.0
H1691 H 0.37071 0.69958 0.80272 0.0
H1692 H 0.35955 0.72533 0.82052 0.0
H1693 H 0.26987 0.64087 0.75029 0.0
H1694 H 0.30294 0.63581 0.74953 0.0
H1695 H 0.28528 0.62659 0.7729 0.0
H1696 H 0.38408 0.62376 0.76255 0.0
H1697 H 0.34588 0.60435 0.82187 0.0
H1698 H 0.36517 0.68486 0.76149 0.0
H1699 H 0.34235 0.66242 0.74264 0.0
H1700 H 0.3759 0.6589 0.74363 0.0
H1701 H 0.31926 0.66066 0.83362 0.0
H1702 H 0.31496 0.62707 0.83739 0.0
H1703 H 0.29544 0.6385 0.8155 0.0
C1704 C 0.85826 0.54936 0.45657 0.0
C1705 C 0.87379 0.56947 0.47101 0.0
C1706 C 0.84424 0.52905 0.4657 0.0
C1707 C 0.84517 0.52919 0.48989 0.0
C1708 C 0.86015 0.54976 0.50463 0.0
C1709 C 0.87457 0.56946 0.49501 0.0
C1710 C 0.82874 0.50722 0.44941 0.0
C1711 C 0.86118 0.55078 0.53053 0.0
C1712 C 0.7905 0.48554 0.50998 0.0
C1713 C 0.80214 0.46388 0.51341 0.0
C1714 C 0.80465 0.50752 0.50343 0.0
C1715 C 0.83082 0.50746 0.49963 0.0
C1716 C 0.84284 0.4859 0.5037 0.0
C1717 C 0.8284 0.46445 0.51085 0.0
C1718 C 0.79139 0.53047 0.4999 0.0
C1719 C 0.8706 0.48495 0.49938 0.0
H1720 H 0.85714 0.5494 0.43805 0.0
H1721 H 0.88685 0.58459 0.50636 0.0
H1722 H 0.83523 0.48873 0.45245 0.0
H1723 H 0.80818 0.50566 0.45269 0.0
H1724 H 0.83046 0.5098 0.43103 0.0
H1725 H 0.87233 0.56898 0.53958 0.0
H1726 H 0.84145 0.54886 0.5362 0.0
H1727 H 0.87012 0.53443 0.53596 0.0
H1728 H 0.77023 0.48519 0.51215 0.0
H1729 H 0.83737 0.44762 0.51334 0.0
H1730 H 0.78988 0.53282 0.48133 0.0
H1731 H 0.8028 0.54832 0.50929 0.0
H1732 H 0.77177 0.52845 0.50585 0.0
H1733 H 0.87298 0.48555 0.48079 0.0
H1734 H 0.87738 0.46728 0.50444 0.0
H1735 H 0.88308 0.50197 0.50906 0.0
C1736 C 0.75503 0.87814 0.82684 0.0
C1737 C 0.77975 0.88871 0.82228 0.0
C1738 C 0.73419 0.89183 0.8245 0.0
C1739 C 0.73821 0.91661 0.8174 0.0
C1740 C 0.76297 0.92707 0.81222 0.0
C1741 C 0.78342 0.91306 0.81481 0.0
C1742 C 0.70806 0.88007 0.83018 0.0
C1743 C 0.76808 0.95348 0.80464 0.0
C1744 C 0.68375 0.95025 0.79594 0.0
C1745 C 0.68196 0.96805 0.81529 0.0
C1746 C 0.70129 0.93255 0.79659 0.0
C1747 C 0.71719 0.93264 0.8171 0.0
C1748 C 0.71452 0.94972 0.83697 0.0
C1749 C 0.69701 0.96725 0.83579 0.0
C1750 C 0.70363 0.91461 0.77507 0.0
C1751 C 0.73095 0.95029 0.85923 0.0
H1752 H 0.75198 0.85918 0.8323 0.0
H1753 H 0.80251 0.92154 0.81157 0.0
H1754 H 0.70231 0.89165 0.8455 0.0
H1755 H 0.69346 0.88035 0.81569 0.0
H1756 H 0.70773 0.85992 0.83387 0.0
H1757 H 0.78799 0.95808 0.79976 0.0
H1758 H 0.7545 0.95488 0.78969 0.0
H1759 H 0.76494 0.96827 0.81882 0.0
H1760 H 0.67213 0.95076 0.78006 0.0
H1761 H 0.69554 0.98076 0.8509 0.0
H1762 H 0.70301 0.89456 0.77904 0.0
H1763 H 0.72244 0.92016 0.7683 0.0
H1764 H 0.68816 0.91508 0.76133 0.0
H1765 H 0.72991 0.93066 0.86432 0.0
H1766 H 0.72506 0.96326 0.8736 0.0
H1767 H 0.75132 0.95698 0.85675 0.0
C1768 C 0.67156 0.54022 0.97159 0.0
C1769 C 0.64918 0.55058 0.96599 0.0
C1770 C 0.69581 0.55539 0.97348 0.0
C1771 C 0.69768 0.58137 0.96935 0.0
C1772 C 0.67528 0.59168 0.96299 0.0
C1773 C 0.65133 0.57628 0.96166 0.0
C1774 C 0.71932 0.54388 0.98056 0.0
C1775 C 0.67651 0.61928 0.95832 0.0
C1776 C 0.75153 0.63178 0.99852 0.0
C1777 C 0.76725 0.63545 0.98054 0.0
C1778 C 0.72946 0.61336 0.99535 0.0
C1779 C 0.72267 0.59856 0.97351 0.0
C1780 C 0.73876 0.60172 0.9554 0.0
C1781 C 0.76107 0.62003 0.9592 0.0
C1782 C 0.71302 0.61025 0.01521 0.0
C1783 C 0.73187 0.58651 0.9318 0.0
H1784 H 0.67012 0.52029 0.97463 0.0
H1785 H 0.63417 0.58465 0.95776 0.0
H1786 H 0.73397 0.54677 0.96808 0.0
H1787 H 0.72803 0.5538 0.99761 0.0
H1788 H 0.71478 0.52296 0.98174 0.0
H1789 H 0.65762 0.62361 0.95154 0.0
H1790 H 0.68297 0.63244 0.97448 0.0
H1791 H 0.69071 0.62352 0.94569 0.0
H1792 H 0.75645 0.6434 0.01517 0.0
H1793 H 0.77322 0.62283 0.94528 0.0
H1794 H 0.70927 0.58972 0.01792 0.0
H1795 H 0.69416 0.61647 0.01116 0.0
H1796 H 0.7221 0.62173 0.03156 0.0
H1797 H 0.72793 0.56563 0.93316 0.0
H1798 H 0.74733 0.58983 0.9201 0.0
H1799 H 0.71406 0.59204 0.92389 0.0
C1800 C 0.22302 0.67984 0.24907 0.0
C1801 C 0.24822 0.67684 0.24455 0.0
C1802 C 0.20566 0.65893 0.25375 0.0
C1803 C 0.21366 0.63443 0.25354 0.0
C1804 C 0.23906 0.63129 0.24882 0.0
C1805 C 0.25611 0.6526 0.24453 0.0
C1806 C 0.17881 0.66306 0.25898 0.0
C1807 C 0.24813 0.60538 0.24809 0.0
C1808 C 0.17596 0.58441 0.28432 0.0
C1809 C 0.15976 0.56984 0.26604 0.0
C1810 C 0.19359 0.60555 0.28051 0.0
C1811 C 0.19529 0.61199 0.25786 0.0
C1812 C 0.17932 0.59709 0.2393 0.0
C1813 C 0.16162 0.57631 0.24364 0.0
C1814 C 0.21016 0.62121 0.30075 0.0
C1815 C 0.18087 0.60315 0.21486 0.0
H1816 H 0.21704 0.69866 0.2493 0.0
H1817 H 0.27555 0.65027 0.24082 0.0
H1818 H 0.16458 0.65085 0.24599 0.0
H1819 H 0.17483 0.65717 0.27607 0.0
H1820 H 0.17584 0.68344 0.25902 0.0
H1821 H 0.2685 0.60621 0.24416 0.0
H1822 H 0.24608 0.59798 0.26489 0.0
H1823 H 0.23603 0.59131 0.23479 0.0
H1824 H 0.17453 0.57959 0.30168 0.0
H1825 H 0.14929 0.56503 0.2294 0.0
H1826 H 0.20655 0.64149 0.30224 0.0
H1827 H 0.23075 0.62129 0.298 0.0
H1828 H 0.20647 0.61367 0.31729 0.0
H1829 H 0.17615 0.62276 0.21363 0.0
H1830 H 0.16757 0.58923 0.20229 0.0
H1831 H 0.20074 0.60294 0.20985 0.0
C1832 C 0.90046 0.53286 0.03979 0.0
C1833 C 0.92547 0.52803 0.04536 0.0
C1834 C 0.89594 0.55659 0.03334 0.0
C1835 C 0.91692 0.57626 0.0328 0.0
C1836 C 0.94215 0.57193 0.03921 0.0
C1837 C 0.94616 0.54778 0.04527 0.0
C1838 C 0.8687 0.56039 0.02657 0.0
C1839 C 0.96493 0.59257 0.03915 0.0
C1840 C 0.90101 0.62265 0.99163 0.0
C1841 C 0.8914 0.6413 0.00632 0.0
C1842 C 0.91122 0.60226 0.00029 0.0
C1843 C 0.91213 0.60067 0.02424 0.0
C1844 C 0.90478 0.62077 0.03938 0.0
C1845 C 0.89436 0.64083 0.03022 0.0
C1846 C 0.91883 0.58124 0.98353 0.0
C1847 C 0.90604 0.62007 0.06509 0.0
H1848 H 0.8843 0.51798 0.04039 0.0
H1849 H 0.96557 0.54419 0.04943 0.0
H1850 H 0.86363 0.57722 0.03752 0.0
H1851 H 0.86696 0.56442 0.00843 0.0
H1852 H 0.85452 0.54327 0.02825 0.0
H1853 H 0.98289 0.58715 0.04694 0.0
H1854 H 0.96781 0.59611 0.02118 0.0
H1855 H 0.96139 0.61094 0.04877 0.0
H1856 H 0.89904 0.62297 0.97315 0.0
H1857 H 0.88721 0.6553 0.04172 0.0
H1858 H 0.90436 0.56371 0.98243 0.0
H1859 H 0.93761 0.57609 0.98956 0.0
H1860 H 0.9201 0.5869 0.96595 0.0
H1861 H 0.8902 0.60566 0.0691 0.0
H1862 H 0.90415 0.63904 0.07468 0.0
H1863 H 0.92438 0.61417 0.07137 0.0
C1864 C 0.08238 0.00012 0.0728 0.0
C1865 C 0.09463 0.02547 0.07326 0.0
C1866 C 0.09508 0.97911 0.06619 0.0
C1867 C 0.12059 0.98363 0.05998 0.0
C1868 C 0.13343 0.0092 0.06156 0.0
C1869 C 0.12027 0.0298 0.06813 0.0
C1870 C 0.08075 0.95215 0.06473 0.0
C1871 C 0.16074 0.01486 0.05531 0.0
C1872 C 0.16455 0.93264 0.05306 0.0
C1873 C 0.164 0.92786 0.02897 0.0
C1874 C 0.14935 0.94971 0.0636 0.0
C1875 C 0.13319 0.96206 0.04966 0.0
C1876 C 0.13117 0.95575 0.02539 0.0
C1877 C 0.14666 0.9388 0.01535 0.0
C1878 C 0.15192 0.95585 0.08953 0.0
C1879 C 0.11391 0.96821 0.0099 0.0
H1880 H 0.06249 0.99672 0.07663 0.0
H1881 H 0.1299 0.04938 0.06883 0.0
H1882 H 0.07645 0.94382 0.04636 0.0
H1883 H 0.09271 0.93961 0.07311 0.0
H1884 H 0.06238 0.95176 0.07293 0.0
H1885 H 0.16862 0.03563 0.05924 0.0
H1886 H 0.17331 0.00371 0.06477 0.0
H1887 H 0.1615 0.00884 0.03661 0.0
H1888 H 0.17793 0.92425 0.06368 0.0
H1889 H 0.14597 0.93497 0.99671 0.0
H1890 H 0.13276 0.95578 0.09622 0.0
H1891 H 0.1628 0.97545 0.09456 0.0
H1892 H 0.16218 0.94199 0.09796 0.0
H1893 H 0.09431 0.96685 0.01582 0.0
H1894 H 0.11251 0.95925 0.99165 0.0
H1895 H 0.12152 0.98895 0.0107 0.0
loop_
_geom_bond_atom_site_label_1
_geom_bond_atom_site_label_2
_geom_bond_distance
_geom_bond_site_symmetry_2
_ccdc_geom_bond_type
H0 C5 0.930 . S
H1 C8 0.930 . S
H2 C10 0.930 . S
H3 C4 1.016 . S
C4 H3 1.016 . S
C4 N11 1.286 . S
C5 H0 0.930 . S
C5 C6 1.397 . S
C5 C7 1.361 . S
C6 C5 1.397 . S
C6 C10 1.390 . S
C7 C5 1.361 . S
C7 C8 1.393 . S
C7 N11 1.413 . S
C8 H1 0.930 . S
C8 C7 1.393 . S
C8 C9 1.399 . S
C9 C8 1.399 . S
C9 C10 1.381 . S
C10 H2 0.930 . S
C10 C6 1.390 . S
C10 C9 1.381 . S
N11 C4 1.286 . S
N11 C7 1.413 . S
H12 C17 0.930 . S
H13 C20 0.930 . S
H14 C22 0.930 . S
H15 C16 1.016 . S
C16 H15 1.016 . S
C16 N23 1.286 . S
C17 H12 0.930 . S
C17 C18 1.397 . S
C17 C19 1.361 . S
C18 C17 1.397 . S
C18 C22 1.390 . S
C19 C17 1.361 . S
C19 C20 1.393 . S
C19 N23 1.413 . S
C20 H13 0.930 . S
C20 C19 1.393 . S
C20 C21 1.399 . S
C21 C20 1.399 . S
C21 C22 1.381 . S
C22 H14 0.930 . S
C22 C18 1.390 . S
C22 C21 1.381 . S
N23 C16 1.286 . S
N23 C19 1.413 . S
H24 C29 0.930 . S
H25 C32 0.930 . S
H26 C34 0.930 . S
H27 C28 1.016 . S
C28 H27 1.016 . S
C28 N35 1.286 . S
C29 H24 0.930 . S
C29 C30 1.397 . S
C29 C31 1.361 . S
C30 C29 1.397 . S
C30 C34 1.390 . S
C31 C29 1.361 . S
C31 C32 1.393 . S
C31 N35 1.413 . S
C32 H25 0.930 . S
C32 C31 1.393 . S
C32 C33 1.399 . S
C33 C32 1.399 . S
C33 C34 1.381 . S
C34 H26 0.930 . S
C34 C30 1.390 . S
C34 C33 1.381 . S
N35 C28 1.286 . S
N35 C31 1.413 . S
H36 C41 0.930 . S
H37 C44 0.930 . S
H38 C46 0.930 . S
H39 C40 1.016 . S
C40 H39 1.016 . S
C40 N47 1.286 . S
C41 H36 0.930 . S
C41 C42 1.397 . S
C41 C43 1.361 . S
C42 C41 1.397 . S
C42 C46 1.390 . S
C43 C41 1.361 . S
C43 C44 1.393 . S
C43 N47 1.413 . S
C44 H37 0.930 . S
C44 C43 1.393 . S
C44 C45 1.399 . S
C45 C44 1.399 . S
C45 C46 1.381 . S
C46 H38 0.930 . S
C46 C42 1.390 . S
C46 C45 1.381 . S
N47 C40 1.286 . S
N47 C43 1.413 . S
H48 C53 0.930 . S
H49 C56 0.930 . S
H50 C58 0.930 1_545 S
H51 C52 1.016 . S
C52 H51 1.016 . S
C52 N59 1.286 . S
C53 H48 0.930 . S
C53 C54 1.397 . S
C53 C55 1.361 . S
C54 C53 1.397 . S
C54 C58 1.390 . S
C55 C53 1.361 . S
C55 C56 1.393 . S
C55 N59 1.413 . S
C56 H49 0.930 . S
C56 C55 1.393 . S
C56 C57 1.399 . S
C57 C56 1.399 . S
C57 C58 1.381 . S
C58 H50 0.930 1_565 S
C58 C54 1.390 . S
C58 C57 1.381 . S
N59 C52 1.286 . S
N59 C55 1.413 . S
H60 C65 0.930 . S
H61 C68 0.930 . S
H62 C70 0.930 . S
H63 C64 1.016 . S
C64 H63 1.016 . S
C64 N71 1.286 . S
C65 H60 0.930 . S
C65 C66 1.397 . S
C65 C67 1.361 . S
C66 C65 1.397 . S
C66 C70 1.390 . S
C67 C65 1.361 . S
C67 C68 1.393 . S
C67 N71 1.413 . S
C68 H61 0.930 . S
C68 C67 1.393 . S
C68 C69 1.399 . S
C69 C68 1.399 . S
C69 C70 1.381 . S
C70 H62 0.930 . S
C70 C66 1.390 . S
C70 C69 1.381 . S
N71 C64 1.286 . S
N71 C67 1.413 . S
H72 C77 0.930 . S
H73 C80 0.930 . S
H74 C82 0.930 . S
H75 C76 1.016 . S
C76 H75 1.016 . S
C76 N83 1.286 . S
C77 H72 0.930 . S
C77 C78 1.397 . S
C77 C79 1.361 . S
C78 C77 1.397 . S
C78 C82 1.390 . S
C79 C77 1.361 . S
C79 C80 1.393 . S
C79 N83 1.413 . S
C80 H73 0.930 . S
C80 C79 1.393 . S
C80 C81 1.399 . S
C81 C80 1.399 . S
C81 C82 1.381 . S
C82 H74 0.930 . S
C82 C78 1.390 . S
C82 C81 1.381 . S
N83 C76 1.286 . S
N83 C79 1.413 . S
H84 C89 0.930 . S
H85 C92 0.930 . S
H86 C94 0.930 . S
H87 C88 1.016 . S
C88 H87 1.016 . S
C88 N95 1.286 . S
C89 H84 0.930 . S
C89 C90 1.397 . S
C89 C91 1.361 . S
C90 C89 1.397 . S
C90 C94 1.390 . S
C91 C89 1.361 . S
C91 C92 1.393 . S
C91 N95 1.413 . S
C92 H85 0.930 . S
C92 C91 1.393 . S
C92 C93 1.399 . S
C93 C92 1.399 . S
C93 C94 1.381 . S
C94 H86 0.930 . S
C94 C90 1.390 . S
C94 C93 1.381 . S
N95 C88 1.286 . S
N95 C91 1.413 . S
H96 C101 0.930 . S
H97 C104 0.930 . S
H98 C106 0.930 . S
H99 C100 1.016 . S
C100 H99 1.016 . S
C100 N107 1.286 . S
C101 H96 0.930 . S
C101 C102 1.397 . S
C101 C103 1.361 . S
C102 C101 1.397 . S
C102 C106 1.390 . S
C103 C101 1.361 . S
C103 C104 1.393 . S
C103 N107 1.413 . S
C104 H97 0.930 . S
C104 C103 1.393 . S
C104 C105 1.399 . S
C105 C104 1.399 . S
C105 C106 1.381 . S
C106 H98 0.930 . S
C106 C102 1.390 . S
C106 C105 1.381 . S
N107 C100 1.286 . S
N107 C103 1.413 . S
H108 C113 0.930 . S
H109 C116 0.930 . S
H110 C118 0.930 . S
H111 C112 1.016 . S
C112 H111 1.016 . S
C112 N119 1.286 . S
C113 H108 0.930 . S
C113 C114 1.397 . S
C113 C115 1.361 . S
C114 C113 1.397 . S
C114 C118 1.390 . S
C115 C113 1.361 . S
C115 C116 1.393 . S
C115 N119 1.413 . S
C116 H109 0.930 . S
C116 C115 1.393 . S
C116 C117 1.399 . S
C117 C116 1.399 . S
C117 C118 1.381 . S
C118 H110 0.930 . S
C118 C114 1.390 . S
C118 C117 1.381 . S
N119 C112 1.286 . S
N119 C115 1.413 . S
H120 C125 0.930 . S
H121 C128 0.930 . S
H122 C130 0.930 . S
H123 C124 1.016 . S
C124 H123 1.016 . S
C124 N131 1.286 . S
C125 H120 0.930 . S
C125 C126 1.397 . S
C125 C127 1.361 . S
C126 C125 1.397 . S
C126 C130 1.390 . S
C127 C125 1.361 . S
C127 C128 1.393 . S
C127 N131 1.413 . S
C128 H121 0.930 . S
C128 C127 1.393 . S
C128 C129 1.399 . S
C129 C128 1.399 . S
C129 C130 1.381 . S
C130 H122 0.930 . S
C130 C126 1.390 . S
C130 C129 1.381 . S
N131 C124 1.286 . S
N131 C127 1.413 . S
H132 C137 0.930 . S
H133 C140 0.930 . S
H134 C142 0.930 . S
H135 C136 1.016 . S
C136 H135 1.016 . S
C136 N143 1.286 . S
C137 H132 0.930 . S
C137 C138 1.397 . S
C137 C139 1.361 . S
C138 C137 1.397 . S
C138 C142 1.390 . S
C139 C137 1.361 . S
C139 C140 1.393 . S
C139 N143 1.413 . S
C140 H133 0.930 . S
C140 C139 1.393 . S
C140 C141 1.399 . S
C141 C140 1.399 . S
C141 C142 1.381 . S
C142 H134 0.930 . S
C142 C138 1.390 . S
C142 C141 1.381 . S
N143 C136 1.286 . S
N143 C139 1.413 . S
H144 C149 0.930 . S
H145 C152 0.930 . S
H146 C154 0.930 . S
H147 C148 1.016 . S
C148 H147 1.016 . S
C148 N155 1.286 . S
C149 H144 0.930 . S
C149 C150 1.397 . S
C149 C151 1.361 . S
C150 C149 1.397 . S
C150 C154 1.390 . S
C151 C149 1.361 . S
C151 C152 1.393 . S
C151 N155 1.413 . S
C152 H145 0.930 . S
C152 C151 1.393 . S
C152 C153 1.399 . S
C153 C152 1.399 . S
C153 C154 1.381 . S
C154 H146 0.930 . S
C154 C150 1.390 . S
C154 C153 1.381 . S
N155 C148 1.286 . S
N155 C151 1.413 . S
H156 C161 0.930 . S
H157 C164 0.930 . S
H158 C166 0.930 . S
H159 C160 1.016 . S
C160 H159 1.016 . S
C160 N167 1.286 . S
C161 H156 0.930 . S
C161 C162 1.397 . S
C161 C163 1.361 . S
C162 C161 1.397 . S
C162 C166 1.390 . S
C163 C161 1.361 . S
C163 C164 1.393 . S
C163 N167 1.413 . S
C164 H157 0.930 . S
C164 C163 1.393 . S
C164 C165 1.399 . S
C165 C164 1.399 . S
C165 C166 1.381 . S
C166 H158 0.930 . S
C166 C162 1.390 . S
C166 C165 1.381 . S
N167 C160 1.286 . S
N167 C163 1.413 . S
H168 C173 0.930 . S
H169 C176 0.930 . S
H170 C178 0.930 . S
H171 C172 1.016 . S
C172 H171 1.016 . S
C172 N179 1.286 . S
C173 H168 0.930 . S
C173 C174 1.397 . S
C173 C175 1.361 . S
C174 C173 1.397 . S
C174 C178 1.390 . S
C175 C173 1.361 . S
C175 C176 1.393 . S
C175 N179 1.413 . S
C176 H169 0.930 . S
C176 C175 1.393 . S
C176 C177 1.399 . S
C177 C176 1.399 . S
C177 C178 1.381 . S
C178 H170 0.930 . S
C178 C174 1.390 . S
C178 C177 1.381 . S
N179 C172 1.286 . S
N179 C175 1.413 . S
H180 C185 0.930 . S
H181 C188 0.930 . S
H182 C190 0.930 . S
H183 C184 1.016 . S
C184 H183 1.016 . S
C184 N191 1.286 . S
C185 H180 0.930 . S
C185 C186 1.397 . S
C185 C187 1.361 . S
C186 C185 1.397 . S
C186 C190 1.390 . S
C187 C185 1.361 . S
C187 C188 1.393 . S
C187 N191 1.413 . S
C188 H181 0.930 . S
C188 C187 1.393 . S
C188 C189 1.399 . S
C189 C188 1.399 . S
C189 C190 1.381 . S
C190 H182 0.930 . S
C190 C186 1.390 . S
C190 C189 1.381 . S
N191 C184 1.286 . S
N191 C187 1.413 . S
O192 Cd193 2.223 . S
O192 C200 1.315 . S
Cd193 O192 2.223 . S
Cd193 O196 2.297 . S
Cd193 O197 2.439 . S
Cd193 O203 2.240 . S
Cd194 O195 2.240 . S
Cd194 O202 2.223 . S
Cd194 O204 2.297 . S
Cd194 O205 2.439 . S
O195 Cd194 2.240 . S
O195 C200 1.279 . S
O196 Cd193 2.297 . S
O196 C198 1.247 . S
O197 Cd193 2.439 . S
O197 C198 1.208 . S
C198 O196 1.247 . S
C198 O197 1.208 . S
C199 O204 1.247 . S
C199 O205 1.208 . S
C200 O192 1.315 . S
C200 O195 1.279 . S
C201 O202 1.315 . S
C201 O203 1.279 . S
O202 Cd194 2.223 . S
O202 C201 1.315 . S
O203 Cd193 2.240 . S
O203 C201 1.279 . S
O204 Cd194 2.297 . S
O204 C199 1.247 . S
O205 Cd194 2.439 . S
O205 C199 1.208 . S
O206 Cd207 2.223 . S
O206 C214 1.315 . S
Cd207 O206 2.223 . S
Cd207 O210 2.297 . S
Cd207 O211 2.439 . S
Cd207 O217 2.240 . S
Cd208 O209 2.240 . S
Cd208 O216 2.223 . S
Cd208 O218 2.297 . S
Cd208 O219 2.439 . S
O209 Cd208 2.240 . S
O209 C214 1.279 . S
O210 Cd207 2.297 . S
O210 C212 1.247 . S
O211 Cd207 2.439 . S
O211 C212 1.208 . S
C212 O210 1.247 . S
C212 O211 1.208 . S
C213 O218 1.247 . S
C213 O219 1.208 . S
C214 O206 1.315 . S
C214 O209 1.279 . S
C215 O216 1.315 . S
C215 O217 1.279 . S
O216 Cd208 2.223 . S
O216 C215 1.315 . S
O217 Cd207 2.240 . S
O217 C215 1.279 . S
O218 Cd208 2.297 . S
O218 C213 1.247 . S
O219 Cd208 2.439 . S
O219 C213 1.208 . S
O220 Cd221 2.223 1_556 S
O220 C228 1.315 . S
Cd221 O220 2.223 1_554 S
Cd221 O224 2.297 . S
Cd221 O225 2.439 . S
Cd221 O231 2.240 . S
Cd222 O223 2.240 . S
Cd222 O230 2.223 . S
Cd222 O232 2.297 1_556 S
Cd222 O233 2.439 1_556 S
O223 Cd222 2.240 . S
O223 C228 1.279 . S
O224 Cd221 2.297 . S
O224 C226 1.247 . S
O225 Cd221 2.439 . S
O225 C226 1.208 . S
C226 O224 1.247 . S
C226 O225 1.208 . S
C227 O232 1.247 . S
C227 O233 1.208 . S
C228 O220 1.315 . S
C228 O223 1.279 . S
C229 O230 1.315 . S
C229 O231 1.279 1_556 S
O230 Cd222 2.223 . S
O230 C229 1.315 . S
O231 Cd221 2.240 . S
O231 C229 1.279 1_554 S
O232 Cd222 2.297 1_554 S
O232 C227 1.247 . S
O233 Cd222 2.439 1_554 S
O233 C227 1.208 . S
O234 Cd235 2.223 . S
O234 C242 1.315 . S
Cd235 O234 2.223 . S
Cd235 O238 2.297 . S
Cd235 O239 2.439 . S
Cd235 O245 2.240 . S
Cd236 O237 2.240 . S
Cd236 O244 2.223 . S
Cd236 O246 2.297 . S
Cd236 O247 2.439 . S
O237 Cd236 2.240 . S
O237 C242 1.279 . S
O238 Cd235 2.297 . S
O238 C240 1.247 . S
O239 Cd235 2.439 . S
O239 C240 1.208 . S
C240 O238 1.247 . S
C240 O239 1.208 . S
C241 O246 1.247 . S
C241 O247 1.208 . S
C242 O234 1.315 . S
C242 O237 1.279 . S
C243 O244 1.315 . S
C243 O245 1.279 . S
O244 Cd236 2.223 . S
O244 C243 1.315 . S
O245 Cd235 2.240 . S
O245 C243 1.279 . S
O246 Cd236 2.297 . S
O246 C241 1.247 . S
O247 Cd236 2.439 . S
O247 C241 1.208 . S
O248 Cd249 2.223 . S
O248 C256 1.315 . S
Cd249 O248 2.223 . S
Cd249 O252 2.297 . S
Cd249 O253 2.439 . S
Cd249 O259 2.240 . S
Cd250 O251 2.240 . S
Cd250 O258 2.223 . S
Cd250 O260 2.297 . S
Cd250 O261 2.439 . S
O251 Cd250 2.240 . S
O251 C256 1.279 . S
O252 Cd249 2.297 . S
O252 C254 1.247 . S
O253 Cd249 2.439 . S
O253 C254 1.208 . S
C254 O252 1.247 . S
C254 O253 1.208 . S
C255 O260 1.247 . S
C255 O261 1.208 . S
C256 O248 1.315 . S
C256 O251 1.279 . S
C257 O258 1.315 . S
C257 O259 1.279 . S
O258 Cd250 2.223 . S
O258 C257 1.315 . S
O259 Cd249 2.240 . S
O259 C257 1.279 . S
O260 Cd250 2.297 . S
O260 C255 1.247 . S
O261 Cd250 2.439 . S
O261 C255 1.208 . S
O262 Cd263 2.223 . S
O262 C270 1.315 . S
Cd263 O262 2.223 . S
Cd263 O266 2.297 . S
Cd263 O267 2.439 . S
Cd263 O273 2.240 . S
Cd264 O265 2.240 . S
Cd264 O272 2.223 . S
Cd264 O274 2.297 . S
Cd264 O275 2.439 . S
O265 Cd264 2.240 . S
O265 C270 1.279 . S
O266 Cd263 2.297 . S
O266 C268 1.247 . S
O267 Cd263 2.439 . S
O267 C268 1.208 . S
C268 O266 1.247 . S
C268 O267 1.208 . S
C269 O274 1.247 . S
C269 O275 1.208 . S
C270 O262 1.315 . S
C270 O265 1.279 . S
C271 O272 1.315 . S
C271 O273 1.279 . S
O272 Cd264 2.223 . S
O272 C271 1.315 . S
O273 Cd263 2.240 . S
O273 C271 1.279 . S
O274 Cd264 2.297 . S
O274 C269 1.247 . S
O275 Cd264 2.439 . S
O275 C269 1.208 . S
O276 Cd277 2.223 . S
O276 C284 1.315 . S
Cd277 O276 2.223 . S
Cd277 O280 2.297 . S
Cd277 O281 2.439 . S
Cd277 O287 2.240 . S
Cd278 O279 2.240 . S
Cd278 O286 2.223 . S
Cd278 O288 2.297 . S
Cd278 O289 2.439 . S
O279 Cd278 2.240 . S
O279 C284 1.279 . S
O280 Cd277 2.297 . S
O280 C282 1.247 . S
O281 Cd277 2.439 . S
O281 C282 1.208 . S
C282 O280 1.247 . S
C282 O281 1.208 . S
C283 O288 1.247 . S
C283 O289 1.208 . S
C284 O276 1.315 . S
C284 O279 1.279 . S
C285 O286 1.315 . S
C285 O287 1.279 . S
O286 Cd278 2.223 . S
O286 C285 1.315 . S
O287 Cd277 2.240 . S
O287 C285 1.279 . S
O288 Cd278 2.297 . S
O288 C283 1.247 . S
O289 Cd278 2.439 . S
O289 C283 1.208 . S
O290 Cd291 2.223 1_545 S
O290 C298 1.315 . S
Cd291 O290 2.223 1_565 S
Cd291 O294 2.297 . S
Cd291 O295 2.439 . S
Cd291 O301 2.240 1_565 S
Cd292 O293 2.240 . S
Cd292 O300 2.223 . S
Cd292 O302 2.297 . S
Cd292 O303 2.439 1_545 S
O293 Cd292 2.240 . S
O293 C298 1.279 . S
O294 Cd291 2.297 . S
O294 C296 1.247 . S
O295 Cd291 2.439 . S
O295 C296 1.208 . S
C296 O294 1.247 . S
C296 O295 1.208 . S
C297 O302 1.247 1_565 S
C297 O303 1.208 . S
C298 O290 1.315 . S
C298 O293 1.279 . S
C299 O300 1.315 . S
C299 O301 1.279 . S
O300 Cd292 2.223 . S
O300 C299 1.315 . S
O301 Cd291 2.240 1_545 S
O301 C299 1.279 . S
O302 Cd292 2.297 . S
O302 C297 1.247 1_545 S
O303 Cd292 2.439 1_565 S
O303 C297 1.208 . S
O304 Cd305 2.223 . S
O304 C312 1.315 . S
Cd305 O304 2.223 . S
Cd305 O308 2.297 1_655 S
Cd305 O309 2.439 1_655 S
Cd305 O315 2.240 . S
Cd306 O307 2.240 . S
Cd306 O314 2.223 1_455 S
Cd306 O316 2.297 . S
Cd306 O317 2.439 . S
O307 Cd306 2.240 . S
O307 C312 1.279 1_455 S
O308 Cd305 2.297 1_455 S
O308 C310 1.247 . S
O309 Cd305 2.439 1_455 S
O309 C310 1.208 . S
C310 O308 1.247 . S
C310 O309 1.208 . S
C311 O316 1.247 . S
C311 O317 1.208 . S
C312 O304 1.315 . S
C312 O307 1.279 1_655 S
C313 O314 1.315 . S
C313 O315 1.279 . S
O314 Cd306 2.223 1_655 S
O314 C313 1.315 . S
O315 Cd305 2.240 . S
O315 C313 1.279 . S
O316 Cd306 2.297 . S
O316 C311 1.247 . S
O317 Cd306 2.439 . S
O317 C311 1.208 . S
O318 Cd319 2.223 . S
O318 C326 1.315 . S
Cd319 O318 2.223 . S
Cd319 O322 2.297 . S
Cd319 O323 2.439 . S
Cd319 O329 2.240 . S
Cd320 O321 2.240 . S
Cd320 O328 2.223 . S
Cd320 O330 2.297 . S
Cd320 O331 2.439 . S
O321 Cd320 2.240 . S
O321 C326 1.279 . S
O322 Cd319 2.297 . S
O322 C324 1.247 . S
O323 Cd319 2.439 . S
O323 C324 1.208 . S
C324 O322 1.247 . S
C324 O323 1.208 . S
C325 O330 1.247 . S
C325 O331 1.208 . S
C326 O318 1.315 . S
C326 O321 1.279 . S
C327 O328 1.315 . S
C327 O329 1.279 . S
O328 Cd320 2.223 . S
O328 C327 1.315 . S
O329 Cd319 2.240 . S
O329 C327 1.279 . S
O330 Cd320 2.297 . S
O330 C325 1.247 . S
O331 Cd320 2.439 . S
O331 C325 1.208 . S
O332 Cd333 2.223 1_655 S
O332 C340 1.315 . S
Cd333 O332 2.223 1_455 S
Cd333 O336 2.297 . S
Cd333 O337 2.439 . S
Cd333 O343 2.240 . S
Cd334 O335 2.240 . S
Cd334 O342 2.223 1_455 S
Cd334 O344 2.297 . S
Cd334 O345 2.439 . S
O335 Cd334 2.240 . S
O335 C340 1.279 1_455 S
O336 Cd333 2.297 . S
O336 C338 1.247 . S
O337 Cd333 2.439 . S
O337 C338 1.208 . S
C338 O336 1.247 . S
C338 O337 1.208 . S
C339 O344 1.247 . S
C339 O345 1.208 . S
C340 O332 1.315 . S
C340 O335 1.279 1_655 S
C341 O342 1.315 . S
C341 O343 1.279 1_655 S
O342 Cd334 2.223 1_655 S
O342 C341 1.315 . S
O343 Cd333 2.240 . S
O343 C341 1.279 1_455 S
O344 Cd334 2.297 . S
O344 C339 1.247 . S
O345 Cd334 2.439 . S
O345 C339 1.208 . S
O346 Cd347 2.223 . S
O346 C354 1.315 . S
Cd347 O346 2.223 . S
Cd347 O350 2.297 . S
Cd347 O351 2.439 . S
Cd347 O357 2.240 . S
Cd348 O349 2.240 . S
Cd348 O356 2.223 . S
Cd348 O358 2.297 . S
Cd348 O359 2.439 . S
O349 Cd348 2.240 . S
O349 C354 1.279 . S
O350 Cd347 2.297 . S
O350 C352 1.247 . S
O351 Cd347 2.439 . S
O351 C352 1.208 . S
C352 O350 1.247 . S
C352 O351 1.208 . S
C353 O358 1.247 . S
C353 O359 1.208 . S
C354 O346 1.315 . S
C354 O349 1.279 . S
C355 O356 1.315 . S
C355 O357 1.279 . S
O356 Cd348 2.223 . S
O356 C355 1.315 . S
O357 Cd347 2.240 . S
O357 C355 1.279 . S
O358 Cd348 2.297 . S
O358 C353 1.247 . S
O359 Cd348 2.439 . S
O359 C353 1.208 . S
C360 C361 1.391 . S
C360 C362 1.394 . S
C360 H376 0.931 . S
C361 C360 1.391 . S
C361 C365 1.376 . S
C362 C360 1.394 . S
C362 C363 1.369 . S
C362 C366 1.531 . S
C363 C362 1.369 . S
C363 C364 1.410 . S
C363 C371 1.503 . S
C364 C363 1.410 . S
C364 C365 1.392 . S
C364 C367 1.511 . S
C365 C361 1.376 . S
C365 C364 1.392 . S
C365 H377 0.929 . S
C366 C362 1.531 . S
C366 H378 0.960 . S
C366 H379 0.962 . S
C366 H380 0.960 . S
C367 C364 1.511 . S
C367 H381 0.961 . S
C367 H382 0.961 . S
C367 H383 0.961 . S
C368 C369 1.370 . S
C368 C370 1.363 . S
C368 H384 0.931 . S
C369 C368 1.370 . S
C369 C373 1.408 . S
C370 C368 1.363 . S
C370 C371 1.370 . S
C370 C374 1.524 . S
C371 C363 1.503 . S
C371 C370 1.370 . S
C371 C372 1.403 . S
C372 C371 1.403 . S
C372 C373 1.404 . S
C372 C375 1.539 . S
C373 C369 1.408 . S
C373 C372 1.404 . S
C373 H385 0.930 1_556 S
C374 C370 1.524 . S
C374 H386 0.956 . S
C374 H387 0.961 . S
C374 H388 0.961 . S
C375 C372 1.539 . S
C375 H389 0.958 . S
C375 H390 0.961 . S
C375 H391 0.960 . S
H376 C360 0.931 . S
H377 C365 0.929 . S
H378 C366 0.960 . S
H379 C366 0.962 . S
H380 C366 0.960 . S
H381 C367 0.961 . S
H382 C367 0.961 . S
H383 C367 0.961 . S
H384 C368 0.931 . S
H385 C373 0.930 1_554 S
H386 C374 0.956 . S
H387 C374 0.961 . S
H388 C374 0.961 . S
H389 C375 0.958 . S
H390 C375 0.961 . S
H391 C375 0.960 . S
C392 C393 1.391 . S
C392 C394 1.394 . S
C392 H408 0.931 . S
C393 C392 1.391 . S
C393 C397 1.376 . S
C394 C392 1.394 . S
C394 C395 1.369 1_655 S
C394 C398 1.531 . S
C395 C394 1.369 1_455 S
C395 C396 1.410 . S
C395 C403 1.503 . S
C396 C395 1.410 . S
C396 C397 1.392 1_455 S
C396 C399 1.511 . S
C397 C393 1.376 . S
C397 C396 1.392 1_655 S
C397 H409 0.929 . S
C398 C394 1.531 . S
C398 H410 0.960 . S
C398 H411 0.962 . S
C398 H412 0.960 . S
C399 C396 1.511 . S
C399 H413 0.961 . S
C399 H414 0.961 . S
C399 H415 0.961 . S
C400 C401 1.370 . S
C400 C402 1.363 . S
C400 H416 0.931 . S
C401 C400 1.370 . S
C401 C405 1.408 . S
C402 C400 1.363 . S
C402 C403 1.370 . S
C402 C406 1.524 . S
C403 C395 1.503 . S
C403 C402 1.370 . S
C403 C404 1.403 . S
C404 C403 1.403 . S
C404 C405 1.404 . S
C404 C407 1.539 . S
C405 C401 1.408 . S
C405 C404 1.404 . S
C405 H417 0.930 . S
C406 C402 1.524 . S
C406 H418 0.956 . S
C406 H419 0.961 . S
C406 H420 0.961 . S
C407 C404 1.539 . S
C407 H421 0.958 1_455 S
C407 H422 0.961 . S
C407 H423 0.960 1_455 S
H408 C392 0.931 . S
H409 C397 0.929 . S
H410 C398 0.960 . S
H411 C398 0.962 . S
H412 C398 0.960 . S
H413 C399 0.961 . S
H414 C399 0.961 . S
H415 C399 0.961 . S
H416 C400 0.931 . S
H417 C405 0.930 . S
H418 C406 0.956 . S
H419 C406 0.961 . S
H420 C406 0.961 . S
H421 C407 0.958 1_655 S
H422 C407 0.961 . S
H423 C407 0.960 1_655 S
C424 C425 1.391 . S
C424 C426 1.394 . S
C424 H440 0.931 . S
C425 C424 1.391 . S
C425 C429 1.376 . S
C426 C424 1.394 . S
C426 C427 1.369 . S
C426 C430 1.531 . S
C427 C426 1.369 . S
C427 C428 1.410 . S
C427 C435 1.503 . S
C428 C427 1.410 . S
C428 C429 1.392 . S
C428 C431 1.511 . S
C429 C425 1.376 . S
C429 C428 1.392 . S
C429 H441 0.929 . S
C430 C426 1.531 . S
C430 H442 0.960 . S
C430 H443 0.962 . S
C430 H444 0.960 . S
C431 C428 1.511 . S
C431 H445 0.961 . S
C431 H446 0.961 . S
C431 H447 0.961 . S
C432 C433 1.370 . S
C432 C434 1.363 . S
C432 H448 0.931 . S
C433 C432 1.370 . S
C433 C437 1.408 . S
C434 C432 1.363 . S
C434 C435 1.370 . S
C434 C438 1.524 . S
C435 C427 1.503 . S
C435 C434 1.370 . S
C435 C436 1.403 . S
C436 C435 1.403 . S
C436 C437 1.404 . S
C436 C439 1.539 . S
C437 C433 1.408 . S
C437 C436 1.404 . S
C437 H449 0.930 . S
C438 C434 1.524 . S
C438 H450 0.956 . S
C438 H451 0.961 . S
C438 H452 0.961 . S
C439 C436 1.539 . S
C439 H453 0.958 . S
C439 H454 0.961 . S
C439 H455 0.960 . S
H440 C424 0.931 . S
H441 C429 0.929 . S
H442 C430 0.960 . S
H443 C430 0.962 . S
H444 C430 0.960 . S
H445 C431 0.961 . S
H446 C431 0.961 . S
H447 C431 0.961 . S
H448 C432 0.931 . S
H449 C437 0.930 . S
H450 C438 0.956 . S
H451 C438 0.961 . S
H452 C438 0.961 . S
H453 C439 0.958 . S
H454 C439 0.961 . S
H455 C439 0.960 . S
C456 C457 1.391 . S
C456 C458 1.394 . S
C456 H472 0.931 . S
C457 C456 1.391 . S
C457 C461 1.376 . S
C458 C456 1.394 . S
C458 C459 1.369 1_565 S
C458 C462 1.531 1_565 S
C459 C458 1.369 1_545 S
C459 C460 1.410 1_545 S
C459 C467 1.503 . S
C460 C459 1.410 1_565 S
C460 C461 1.392 . S
C460 C463 1.511 1_565 S
C461 C457 1.376 . S
C461 C460 1.392 . S
C461 H473 0.929 . S
C462 C458 1.531 1_545 S
C462 H474 0.961 1_545 S
C462 H475 0.962 . S
C462 H476 0.960 1_545 S
C463 C460 1.511 1_545 S
C463 H477 0.961 . S
C463 H478 0.961 . S
C463 H479 0.961 1_545 S
C464 C465 1.370 1_455 S
C464 C466 1.363 . S
C464 H480 0.931 . S
C465 C464 1.370 1_655 S
C465 C469 1.408 . S
C466 C464 1.363 . S
C466 C467 1.370 . S
C466 C470 1.524 . S
C467 C459 1.503 . S
C467 C466 1.370 . S
C467 C468 1.403 . S
C468 C467 1.403 . S
C468 C469 1.404 1_455 S
C468 C471 1.539 1_445 S
C469 C465 1.408 . S
C469 C468 1.404 1_655 S
C469 H481 0.930 . S
C470 C466 1.524 . S
C470 H482 0.956 . S
C470 H483 0.961 . S
C470 H484 0.961 . S
C471 C468 1.539 1_665 S
C471 H485 0.958 1_655 S
C471 H486 0.961 . S
C471 H487 0.960 1_655 S
H472 C456 0.931 . S
H473 C461 0.929 . S
H474 C462 0.961 1_565 S
H475 C462 0.962 . S
H476 C462 0.960 1_565 S
H477 C463 0.961 . S
H478 C463 0.961 . S
H479 C463 0.961 1_565 S
H480 C464 0.931 . S
H481 C469 0.930 . S
H482 C470 0.956 . S
H483 C470 0.961 . S
H484 C470 0.961 . S
H485 C471 0.958 1_455 S
H486 C471 0.961 . S
H487 C471 0.960 1_455 S
C488 C489 1.391 . S
C488 C490 1.394 . S
C488 H504 0.931 . S
C489 C488 1.391 . S
C489 C493 1.376 . S
C490 C488 1.394 . S
C490 C491 1.369 . S
C490 C494 1.531 . S
C491 C490 1.369 . S
C491 C492 1.410 . S
C491 C499 1.503 . S
C492 C491 1.410 . S
C492 C493 1.392 . S
C492 C495 1.511 . S
C493 C489 1.376 . S
C493 C492 1.392 . S
C493 H505 0.929 . S
C494 C490 1.531 . S
C494 H506 0.960 . S
C494 H507 0.962 . S
C494 H508 0.960 . S
C495 C492 1.511 . S
C495 H509 0.961 . S
C495 H510 0.961 . S
C495 H511 0.961 . S
C496 C497 1.370 . S
C496 C498 1.363 . S
C496 H512 0.931 . S
C497 C496 1.370 . S
C497 C501 1.408 . S
C498 C496 1.363 . S
C498 C499 1.370 . S
C498 C502 1.524 . S
C499 C491 1.503 . S
C499 C498 1.370 . S
C499 C500 1.403 . S
C500 C499 1.403 . S
C500 C501 1.404 . S
C500 C503 1.539 . S
C501 C497 1.408 . S
C501 C500 1.404 . S
C501 H513 0.930 . S
C502 C498 1.524 . S
C502 H514 0.956 . S
C502 H515 0.961 . S
C502 H516 0.961 . S
C503 C500 1.539 . S
C503 H517 0.958 . S
C503 H518 0.961 . S
C503 H519 0.960 . S
H504 C488 0.931 . S
H505 C493 0.929 . S
H506 C494 0.960 . S
H507 C494 0.962 . S
H508 C494 0.960 . S
H509 C495 0.961 . S
H510 C495 0.961 . S
H511 C495 0.961 . S
H512 C496 0.931 . S
H513 C501 0.930 . S
H514 C502 0.956 . S
H515 C502 0.961 . S
H516 C502 0.961 . S
H517 C503 0.958 . S
H518 C503 0.961 . S
H519 C503 0.960 . S
C520 C521 1.391 . S
C520 C522 1.394 . S
C520 H536 0.931 . S
C521 C520 1.391 . S
C521 C525 1.376 . S
C522 C520 1.394 . S
C522 C523 1.369 . S
C522 C526 1.531 . S
C523 C522 1.369 . S
C523 C524 1.410 . S
C523 C531 1.503 . S
C524 C523 1.410 . S
C524 C525 1.392 . S
C524 C527 1.511 . S
C525 C521 1.376 . S
C525 C524 1.392 . S
C525 H537 0.929 . S
C526 C522 1.531 . S
C526 H538 0.960 . S
C526 H539 0.962 . S
C526 H540 0.960 . S
C527 C524 1.511 . S
C527 H541 0.961 . S
C527 H542 0.961 . S
C527 H543 0.961 . S
C528 C529 1.370 . S
C528 C530 1.363 . S
C528 H544 0.931 . S
C529 C528 1.370 . S
C529 C533 1.408 . S
C530 C528 1.363 . S
C530 C531 1.370 . S
C530 C534 1.524 . S
C531 C523 1.503 . S
C531 C530 1.370 . S
C531 C532 1.403 . S
C532 C531 1.403 . S
C532 C533 1.404 . S
C532 C535 1.539 . S
C533 C529 1.408 . S
C533 C532 1.404 . S
C533 H545 0.930 . S
C534 C530 1.524 . S
C534 H546 0.956 . S
C534 H547 0.961 . S
C534 H548 0.961 . S
C535 C532 1.539 . S
C535 H549 0.958 . S
C535 H550 0.961 . S
C535 H551 0.960 . S
H536 C520 0.931 . S
H537 C525 0.929 . S
H538 C526 0.960 . S
H539 C526 0.962 . S
H540 C526 0.960 . S
H541 C527 0.961 . S
H542 C527 0.961 . S
H543 C527 0.961 . S
H544 C528 0.931 . S
H545 C533 0.930 . S
H546 C534 0.956 . S
H547 C534 0.961 . S
H548 C534 0.961 . S
H549 C535 0.958 . S
H550 C535 0.961 . S
H551 C535 0.960 . S
C552 C553 1.391 . S
C552 C554 1.394 . S
C552 H568 0.931 . S
C553 C552 1.391 . S
C553 C557 1.376 . S
C554 C552 1.394 . S
C554 C555 1.369 . S
C554 C558 1.531 . S
C555 C554 1.369 . S
C555 C556 1.410 . S
C555 C563 1.503 . S
C556 C555 1.410 . S
C556 C557 1.392 . S
C556 C559 1.511 . S
C557 C553 1.376 . S
C557 C556 1.392 . S
C557 H569 0.929 . S
C558 C554 1.531 . S
C558 H570 0.960 . S
C558 H571 0.962 . S
C558 H572 0.960 . S
C559 C556 1.511 . S
C559 H573 0.961 . S
C559 H574 0.961 . S
C559 H575 0.961 . S
C560 C561 1.370 . S
C560 C562 1.363 . S
C560 H576 0.931 . S
C561 C560 1.370 . S
C561 C565 1.408 . S
C562 C560 1.363 . S
C562 C563 1.370 . S
C562 C566 1.524 . S
C563 C555 1.503 . S
C563 C562 1.370 . S
C563 C564 1.403 . S
C564 C563 1.403 . S
C564 C565 1.404 . S
C564 C567 1.539 . S
C565 C561 1.408 . S
C565 C564 1.404 . S
C565 H577 0.930 . S
C566 C562 1.524 . S
C566 H578 0.956 . S
C566 H579 0.961 . S
C566 H580 0.961 . S
C567 C564 1.539 . S
C567 H581 0.958 . S
C567 H582 0.961 . S
C567 H583 0.960 . S
H568 C552 0.931 . S
H569 C557 0.929 . S
H570 C558 0.960 . S
H571 C558 0.962 . S
H572 C558 0.960 . S
H573 C559 0.961 . S
H574 C559 0.961 . S
H575 C559 0.961 . S
H576 C560 0.931 . S
H577 C565 0.930 . S
H578 C566 0.956 . S
H579 C566 0.961 . S
H580 C566 0.961 . S
H581 C567 0.958 . S
H582 C567 0.961 . S
H583 C567 0.960 . S
C584 C585 1.391 . S
C584 C586 1.394 . S
C584 H600 0.931 . S
C585 C584 1.391 . S
C585 C589 1.376 . S
C586 C584 1.394 . S
C586 C587 1.369 . S
C586 C590 1.531 . S
C587 C586 1.369 . S
C587 C588 1.410 . S
C587 C595 1.503 . S
C588 C587 1.410 . S
C588 C589 1.392 . S
C588 C591 1.511 . S
C589 C585 1.376 . S
C589 C588 1.392 . S
C589 H601 0.929 . S
C590 C586 1.531 . S
C590 H602 0.960 . S
C590 H603 0.962 . S
C590 H604 0.960 . S
C591 C588 1.511 . S
C591 H605 0.961 . S
C591 H606 0.961 . S
C591 H607 0.961 . S
C592 C593 1.370 . S
C592 C594 1.363 . S
C592 H608 0.931 . S
C593 C592 1.370 . S
C593 C597 1.408 . S
C594 C592 1.363 . S
C594 C595 1.370 . S
C594 C598 1.524 . S
C595 C587 1.503 . S
C595 C594 1.370 . S
C595 C596 1.403 . S
C596 C595 1.403 . S
C596 C597 1.404 . S
C596 C599 1.539 1_565 S
C597 C593 1.408 . S
C597 C596 1.404 . S
C597 H609 0.930 1_565 S
C598 C594 1.524 . S
C598 H610 0.956 . S
C598 H611 0.961 . S
C598 H612 0.961 . S
C599 C596 1.539 1_545 S
C599 H613 0.958 . S
C599 H614 0.961 . S
C599 H615 0.960 1_545 S
H600 C584 0.931 . S
H601 C589 0.929 . S
H602 C590 0.960 . S
H603 C590 0.962 . S
H604 C590 0.960 . S
H605 C591 0.961 . S
H606 C591 0.961 . S
H607 C591 0.961 . S
H608 C592 0.931 . S
H609 C597 0.930 1_545 S
H610 C598 0.956 . S
H611 C598 0.961 . S
H612 C598 0.961 . S
H613 C599 0.958 . S
H614 C599 0.961 . S
H615 C599 0.960 1_565 S
C616 C617 1.391 . S
C616 C618 1.394 . S
C616 H632 0.931 . S
C617 C616 1.391 . S
C617 C621 1.376 . S
C618 C616 1.394 . S
C618 C619 1.369 . S
C618 C622 1.531 . S
C619 C618 1.369 . S
C619 C620 1.410 . S
C619 C627 1.503 . S
C620 C619 1.410 . S
C620 C621 1.392 . S
C620 C623 1.511 . S
C621 C617 1.376 . S
C621 C620 1.392 . S
C621 H633 0.929 . S
C622 C618 1.531 . S
C622 H634 0.960 . S
C622 H635 0.962 . S
C622 H636 0.960 . S
C623 C620 1.511 . S
C623 H637 0.961 . S
C623 H638 0.961 . S
C623 H639 0.961 . S
C624 C625 1.370 . S
C624 C626 1.363 . S
C624 H640 0.931 . S
C625 C624 1.370 . S
C625 C629 1.408 . S
C626 C624 1.363 . S
C626 C627 1.370 . S
C626 C630 1.524 . S
C627 C619 1.503 . S
C627 C626 1.370 . S
C627 C628 1.403 . S
C628 C627 1.403 . S
C628 C629 1.404 . S
C628 C631 1.539 . S
C629 C625 1.408 . S
C629 C628 1.404 . S
C629 H641 0.930 . S
C630 C626 1.524 . S
C630 H642 0.956 . S
C630 H643 0.961 . S
C630 H644 0.961 . S
C631 C628 1.539 . S
C631 H645 0.958 . S
C631 H646 0.961 . S
C631 H647 0.960 . S
H632 C616 0.931 . S
H633 C621 0.929 . S
H634 C622 0.960 . S
H635 C622 0.962 . S
H636 C622 0.960 . S
H637 C623 0.961 . S
H638 C623 0.961 . S
H639 C623 0.961 . S
H640 C624 0.931 . S
H641 C629 0.930 . S
H642 C630 0.956 . S
H643 C630 0.961 . S
H644 C630 0.961 . S
H645 C631 0.958 . S
H646 C631 0.961 . S
H647 C631 0.960 . S
C648 C649 1.391 . S
C648 C650 1.394 . S
C648 H664 0.931 . S
C649 C648 1.391 . S
C649 C653 1.376 . S
C650 C648 1.394 . S
C650 C651 1.369 . S
C650 C654 1.531 . S
C651 C650 1.369 . S
C651 C652 1.410 . S
C651 C659 1.503 . S
C652 C651 1.410 . S
C652 C653 1.392 . S
C652 C655 1.511 . S
C653 C649 1.376 . S
C653 C652 1.392 . S
C653 H665 0.929 . S
C654 C650 1.531 . S
C654 H666 0.960 . S
C654 H667 0.962 . S
C654 H668 0.960 . S
C655 C652 1.511 . S
C655 H669 0.961 . S
C655 H670 0.961 . S
C655 H671 0.961 . S
C656 C657 1.370 . S
C656 C658 1.363 . S
C656 H672 0.931 . S
C657 C656 1.370 . S
C657 C661 1.408 . S
C658 C656 1.363 . S
C658 C659 1.370 . S
C658 C662 1.524 . S
C659 C651 1.503 . S
C659 C658 1.370 . S
C659 C660 1.403 . S
C660 C659 1.403 . S
C660 C661 1.404 . S
C660 C663 1.539 . S
C661 C657 1.408 . S
C661 C660 1.404 . S
C661 H673 0.930 . S
C662 C658 1.524 . S
C662 H674 0.956 . S
C662 H675 0.961 . S
C662 H676 0.961 . S
C663 C660 1.539 . S
C663 H677 0.958 . S
C663 H678 0.961 . S
C663 H679 0.960 . S
H664 C648 0.931 . S
H665 C653 0.929 . S
H666 C654 0.960 . S
H667 C654 0.962 . S
H668 C654 0.960 . S
H669 C655 0.961 . S
H670 C655 0.961 . S
H671 C655 0.961 . S
H672 C656 0.931 . S
H673 C661 0.930 . S
H674 C662 0.956 . S
H675 C662 0.961 . S
H676 C662 0.961 . S
H677 C663 0.958 . S
H678 C663 0.961 . S
H679 C663 0.960 . S
C680 C681 1.391 . S
C680 C682 1.394 . S
C680 H696 0.931 . S
C681 C680 1.391 . S
C681 C685 1.376 . S
C682 C680 1.394 . S
C682 C683 1.369 . S
C682 C686 1.531 . S
C683 C682 1.369 . S
C683 C684 1.410 . S
C683 C691 1.503 . S
C684 C683 1.410 . S
C684 C685 1.392 . S
C684 C687 1.511 . S
C685 C681 1.376 . S
C685 C684 1.392 . S
C685 H697 0.929 . S
C686 C682 1.531 . S
C686 H698 0.960 . S
C686 H699 0.962 . S
C686 H700 0.960 . S
C687 C684 1.511 . S
C687 H701 0.961 . S
C687 H702 0.961 . S
C687 H703 0.961 . S
C688 C689 1.370 . S
C688 C690 1.363 . S
C688 H704 0.931 . S
C689 C688 1.370 . S
C689 C693 1.408 . S
C690 C688 1.363 . S
C690 C691 1.370 . S
C690 C694 1.524 . S
C691 C683 1.503 . S
C691 C690 1.370 . S
C691 C692 1.403 . S
C692 C691 1.403 . S
C692 C693 1.404 . S
C692 C695 1.539 . S
C693 C689 1.408 . S
C693 C692 1.404 . S
C693 H705 0.930 . S
C694 C690 1.524 . S
C694 H706 0.956 . S
C694 H707 0.961 . S
C694 H708 0.961 . S
C695 C692 1.539 . S
C695 H709 0.958 . S
C695 H710 0.961 . S
C695 H711 0.960 . S
H696 C680 0.931 . S
H697 C685 0.929 . S
H698 C686 0.960 . S
H699 C686 0.962 . S
H700 C686 0.960 . S
H701 C687 0.961 . S
H702 C687 0.961 . S
H703 C687 0.961 . S
H704 C688 0.931 . S
H705 C693 0.930 . S
H706 C694 0.956 . S
H707 C694 0.961 . S
H708 C694 0.961 . S
H709 C695 0.958 . S
H710 C695 0.961 . S
H711 C695 0.960 . S
C712 C713 1.391 . S
C712 C714 1.394 . S
C712 H728 0.931 . S
C713 C712 1.391 . S
C713 C717 1.376 . S
C714 C712 1.394 . S
C714 C715 1.369 . S
C714 C718 1.531 . S
C715 C714 1.369 . S
C715 C716 1.410 . S
C715 C723 1.503 . S
C716 C715 1.410 . S
C716 C717 1.392 . S
C716 C719 1.511 . S
C717 C713 1.376 . S
C717 C716 1.392 . S
C717 H729 0.929 . S
C718 C714 1.531 . S
C718 H730 0.960 . S
C718 H731 0.962 . S
C718 H732 0.960 . S
C719 C716 1.511 . S
C719 H733 0.961 . S
C719 H734 0.961 . S
C719 H735 0.961 . S
C720 C721 1.370 . S
C720 C722 1.363 . S
C720 H736 0.931 . S
C721 C720 1.370 . S
C721 C725 1.408 . S
C722 C720 1.363 . S
C722 C723 1.370 . S
C722 C726 1.524 . S
C723 C715 1.503 . S
C723 C722 1.370 . S
C723 C724 1.403 . S
C724 C723 1.403 . S
C724 C725 1.404 . S
C724 C727 1.539 . S
C725 C721 1.408 . S
C725 C724 1.404 . S
C725 H737 0.930 . S
C726 C722 1.524 . S
C726 H738 0.956 . S
C726 H739 0.961 . S
C726 H740 0.961 . S
C727 C724 1.539 . S
C727 H741 0.958 . S
C727 H742 0.961 . S
C727 H743 0.960 . S
H728 C712 0.931 . S
H729 C717 0.929 . S
H730 C718 0.960 . S
H731 C718 0.962 . S
H732 C718 0.960 . S
H733 C719 0.961 . S
H734 C719 0.961 . S
H735 C719 0.961 . S
H736 C720 0.931 . S
H737 C725 0.930 . S
H738 C726 0.956 . S
H739 C726 0.961 . S
H740 C726 0.961 . S
H741 C727 0.958 . S
H742 C727 0.961 . S
H743 C727 0.960 . S
C744 C745 1.391 . S
C744 C746 1.394 . S
C744 H760 0.931 . S
C745 C744 1.391 . S
C745 C749 1.376 . S
C746 C744 1.394 . S
C746 C747 1.369 . S
C746 C750 1.531 . S
C747 C746 1.369 . S
C747 C748 1.410 . S
C747 C755 1.503 . S
C748 C747 1.410 . S
C748 C749 1.392 . S
C748 C751 1.511 . S
C749 C745 1.376 . S
C749 C748 1.392 . S
C749 H761 0.929 . S
C750 C746 1.531 . S
C750 H762 0.960 . S
C750 H763 0.962 . S
C750 H764 0.960 . S
C751 C748 1.511 . S
C751 H765 0.961 . S
C751 H766 0.961 . S
C751 H767 0.961 . S
C752 C753 1.370 . S
C752 C754 1.363 . S
C752 H768 0.931 . S
C753 C752 1.370 . S
C753 C757 1.408 . S
C754 C752 1.363 . S
C754 C755 1.370 . S
C754 C758 1.524 . S
C755 C747 1.503 . S
C755 C754 1.370 . S
C755 C756 1.403 . S
C756 C755 1.403 . S
C756 C757 1.404 . S
C756 C759 1.539 . S
C757 C753 1.408 . S
C757 C756 1.404 . S
C757 H769 0.930 . S
C758 C754 1.524 . S
C758 H770 0.956 . S
C758 H771 0.961 . S
C758 H772 0.961 . S
C759 C756 1.539 . S
C759 H773 0.958 . S
C759 H774 0.961 . S
C759 H775 0.960 . S
H760 C744 0.931 . S
H761 C749 0.929 . S
H762 C750 0.960 . S
H763 C750 0.962 . S
H764 C750 0.960 . S
H765 C751 0.961 . S
H766 C751 0.961 . S
H767 C751 0.961 . S
H768 C752 0.931 . S
H769 C757 0.930 . S
H770 C758 0.956 . S
H771 C758 0.961 . S
H772 C758 0.961 . S
H773 C759 0.958 . S
H774 C759 0.961 . S
H775 C759 0.960 . S
C776 C777 1.391 . S
C776 C778 1.394 . S
C776 H792 0.931 . S
C777 C776 1.391 . S
C777 C781 1.376 . S
C778 C776 1.394 . S
C778 C779 1.369 . S
C778 C782 1.531 . S
C779 C778 1.369 . S
C779 C780 1.410 . S
C779 C787 1.503 . S
C780 C779 1.410 . S
C780 C781 1.392 . S
C780 C783 1.511 . S
C781 C777 1.376 . S
C781 C780 1.392 . S
C781 H793 0.929 . S
C782 C778 1.531 . S
C782 H794 0.960 . S
C782 H795 0.962 . S
C782 H796 0.960 . S
C783 C780 1.511 . S
C783 H797 0.961 . S
C783 H798 0.961 . S
C783 H799 0.961 . S
C784 C785 1.370 . S
C784 C786 1.363 . S
C784 H800 0.931 . S
C785 C784 1.370 . S
C785 C789 1.408 . S
C786 C784 1.363 . S
C786 C787 1.370 . S
C786 C790 1.524 . S
C787 C779 1.503 . S
C787 C786 1.370 . S
C787 C788 1.403 . S
C788 C787 1.403 . S
C788 C789 1.404 . S
C788 C791 1.539 . S
C789 C785 1.408 . S
C789 C788 1.404 . S
C789 H801 0.930 . S
C790 C786 1.524 . S
C790 H802 0.956 . S
C790 H803 0.961 . S
C790 H804 0.961 . S
C791 C788 1.539 . S
C791 H805 0.958 . S
C791 H806 0.961 . S
C791 H807 0.960 . S
H792 C776 0.931 . S
H793 C781 0.929 . S
H794 C782 0.960 . S
H795 C782 0.962 . S
H796 C782 0.960 . S
H797 C783 0.961 . S
H798 C783 0.961 . S
H799 C783 0.961 . S
H800 C784 0.931 . S
H801 C789 0.930 . S
H802 C790 0.956 . S
H803 C790 0.961 . S
H804 C790 0.961 . S
H805 C791 0.958 . S
H806 C791 0.961 . S
H807 C791 0.960 . S
C808 C809 1.391 . S
C808 C810 1.394 . S
C808 H824 0.931 . S
C809 C808 1.391 . S
C809 C813 1.376 . S
C810 C808 1.394 . S
C810 C811 1.369 . S
C810 C814 1.531 . S
C811 C810 1.369 . S
C811 C812 1.410 . S
C811 C819 1.503 . S
C812 C811 1.410 . S
C812 C813 1.392 . S
C812 C815 1.511 . S
C813 C809 1.376 . S
C813 C812 1.392 . S
C813 H825 0.929 . S
C814 C810 1.531 . S
C814 H826 0.960 . S
C814 H827 0.962 . S
C814 H828 0.960 . S
C815 C812 1.511 . S
C815 H829 0.961 . S
C815 H830 0.961 . S
C815 H831 0.961 . S
C816 C817 1.370 . S
C816 C818 1.363 . S
C816 H832 0.931 . S
C817 C816 1.370 . S
C817 C821 1.408 . S
C818 C816 1.363 . S
C818 C819 1.370 . S
C818 C822 1.524 . S
C819 C811 1.503 . S
C819 C818 1.370 . S
C819 C820 1.403 . S
C820 C819 1.403 . S
C820 C821 1.404 . S
C820 C823 1.539 . S
C821 C817 1.408 . S
C821 C820 1.404 . S
C821 H833 0.930 . S
C822 C818 1.524 . S
C822 H834 0.956 . S
C822 H835 0.961 . S
C822 H836 0.961 . S
C823 C820 1.539 . S
C823 H837 0.958 . S
C823 H838 0.961 . S
C823 H839 0.960 . S
H824 C808 0.931 . S
H825 C813 0.929 . S
H826 C814 0.960 . S
H827 C814 0.962 . S
H828 C814 0.960 . S
H829 C815 0.961 . S
H830 C815 0.961 . S
H831 C815 0.961 . S
H832 C816 0.931 . S
H833 C821 0.930 . S
H834 C822 0.956 . S
H835 C822 0.961 . S
H836 C822 0.961 . S
H837 C823 0.958 . S
H838 C823 0.961 . S
H839 C823 0.960 . S
C840 C841 1.391 . S
C840 C842 1.394 . S
C840 H856 0.931 . S
C841 C840 1.391 . S
C841 C845 1.376 . S
C842 C840 1.394 . S
C842 C843 1.369 . S
C842 C846 1.531 1_655 S
C843 C842 1.369 . S
C843 C844 1.410 . S
C843 C851 1.503 . S
C844 C843 1.410 . S
C844 C845 1.392 . S
C844 C847 1.511 . S
C845 C841 1.376 . S
C845 C844 1.392 . S
C845 H857 0.929 . S
C846 C842 1.531 1_455 S
C846 H858 0.960 . S
C846 H859 0.962 . S
C846 H860 0.960 . S
C847 C844 1.511 . S
C847 H861 0.961 . S
C847 H862 0.961 . S
C847 H863 0.961 . S
C848 C849 1.370 . S
C848 C850 1.363 . S
C848 H864 0.931 . S
C849 C848 1.370 . S
C849 C853 1.408 . S
C850 C848 1.363 . S
C850 C851 1.370 . S
C850 C854 1.524 . S
C851 C843 1.503 . S
C851 C850 1.370 . S
C851 C852 1.403 . S
C852 C851 1.403 . S
C852 C853 1.404 . S
C852 C855 1.539 . S
C853 C849 1.408 . S
C853 C852 1.404 . S
C853 H865 0.930 . S
C854 C850 1.524 . S
C854 H866 0.956 . S
C854 H867 0.961 . S
C854 H868 0.961 . S
C855 C852 1.539 . S
C855 H869 0.958 . S
C855 H870 0.961 . S
C855 H871 0.960 . S
H856 C840 0.931 . S
H857 C845 0.929 . S
H858 C846 0.960 . S
H859 C846 0.962 . S
H860 C846 0.960 . S
H861 C847 0.961 . S
H862 C847 0.961 . S
H863 C847 0.961 . S
H864 C848 0.931 . S
H865 C853 0.930 . S
H866 C854 0.956 . S
H867 C854 0.961 . S
H868 C854 0.961 . S
H869 C855 0.958 . S
H870 C855 0.961 . S
H871 C855 0.960 . S
C872 C873 1.391 . S
C872 C874 1.394 . S
C872 H888 0.931 . S
C873 C872 1.391 . S
C873 C877 1.376 . S
C874 C872 1.394 . S
C874 C875 1.369 . S
C874 C878 1.531 . S
C875 C874 1.369 . S
C875 C876 1.410 . S
C875 C883 1.503 . S
C876 C875 1.410 . S
C876 C877 1.392 . S
C876 C879 1.511 . S
C877 C873 1.376 . S
C877 C876 1.392 . S
C877 H889 0.929 . S
C878 C874 1.531 . S
C878 H890 0.960 . S
C878 H891 0.962 . S
C878 H892 0.960 . S
C879 C876 1.511 . S
C879 H893 0.961 . S
C879 H894 0.961 . S
C879 H895 0.961 . S
C880 C881 1.366 1_565 S
C880 C882 1.375 . S
C880 H896 0.923 1_565 S
C881 C880 1.366 1_545 S
C881 C885 1.401 1_545 S
C882 C880 1.375 . S
C882 C883 1.370 . S
C882 C886 1.524 . S
C883 C875 1.503 . S
C883 C882 1.370 . S
C883 C884 1.403 . S
C884 C883 1.403 . S
C884 C885 1.416 . S
C884 C887 1.539 . S
C885 C881 1.401 1_565 S
C885 C884 1.416 . S
C885 H897 0.925 1_565 S
C886 C882 1.524 . S
C886 H898 0.956 . S
C886 H899 0.961 . S
C886 H900 0.961 . S
C887 C884 1.539 . S
C887 H901 0.958 . S
C887 H902 0.961 . S
C887 H903 0.960 . S
H888 C872 0.931 . S
H889 C877 0.929 . S
H890 C878 0.960 . S
H891 C878 0.962 . S
H892 C878 0.960 . S
H893 C879 0.961 . S
H894 C879 0.961 . S
H895 C879 0.961 . S
H896 C880 0.923 1_545 S
H897 C885 0.925 1_545 S
H898 C886 0.956 . S
H899 C886 0.961 . S
H900 C886 0.961 . S
H901 C887 0.958 . S
H902 C887 0.961 . S
H903 C887 0.960 . S
C904 C905 1.391 . S
C904 C906 1.394 . S
C904 H920 0.931 . S
C905 C904 1.391 . S
C905 C909 1.376 . S
C906 C904 1.394 . S
C906 C907 1.369 . S
C906 C910 1.531 . S
C907 C906 1.369 . S
C907 C908 1.410 . S
C907 C915 1.503 . S
C908 C907 1.410 . S
C908 C909 1.392 . S
C908 C911 1.511 . S
C909 C905 1.376 . S
C909 C908 1.392 . S
C909 H921 0.929 . S
C910 C906 1.531 . S
C910 H922 0.960 . S
C910 H923 0.962 . S
C910 H924 0.960 . S
C911 C908 1.511 . S
C911 H925 0.961 . S
C911 H926 0.961 . S
C911 H927 0.961 . S
C912 C913 1.370 . S
C912 C914 1.363 . S
C912 H928 0.931 . S
C913 C912 1.370 . S
C913 C917 1.408 . S
C914 C912 1.363 . S
C914 C915 1.370 . S
C914 C918 1.524 . S
C915 C907 1.503 . S
C915 C914 1.370 . S
C915 C916 1.403 . S
C916 C915 1.403 . S
C916 C917 1.404 . S
C916 C919 1.539 . S
C917 C913 1.408 . S
C917 C916 1.404 . S
C917 H929 0.930 . S
C918 C914 1.524 . S
C918 H930 0.956 . S
C918 H931 0.961 . S
C918 H932 0.961 . S
C919 C916 1.539 . S
C919 H933 0.958 . S
C919 H934 0.961 . S
C919 H935 0.960 . S
H920 C904 0.931 . S
H921 C909 0.929 . S
H922 C910 0.960 . S
H923 C910 0.962 . S
H924 C910 0.960 . S
H925 C911 0.961 . S
H926 C911 0.961 . S
H927 C911 0.961 . S
H928 C912 0.931 . S
H929 C917 0.930 . S
H930 C918 0.956 . S
H931 C918 0.961 . S
H932 C918 0.961 . S
H933 C919 0.958 . S
H934 C919 0.961 . S
H935 C919 0.960 . S
C936 C937 1.391 . S
C936 C938 1.394 . S
C936 H952 0.931 . S
C937 C936 1.391 . S
C937 C941 1.376 . S
C938 C936 1.394 . S
C938 C939 1.369 . S
C938 C942 1.531 . S
C939 C938 1.369 . S
C939 C940 1.410 . S
C939 C947 1.503 . S
C940 C939 1.410 . S
C940 C941 1.392 . S
C940 C943 1.511 1_556 S
C941 C937 1.376 . S
C941 C940 1.392 . S
C941 H953 0.929 . S
C942 C938 1.531 . S
C942 H954 0.960 . S
C942 H955 0.962 . S
C942 H956 0.960 . S
C943 C940 1.511 1_554 S
C943 H957 0.961 . S
C943 H958 0.961 . S
C943 H959 0.961 . S
C944 C945 1.370 1_545 S
C944 C946 1.363 . S
C944 H960 0.931 . S
C945 C944 1.370 1_565 S
C945 C949 1.408 . S
C946 C944 1.363 . S
C946 C947 1.370 1_554 S
C946 C950 1.524 . S
C947 C939 1.503 . S
C947 C946 1.370 1_556 S
C947 C948 1.403 1_545 S
C948 C947 1.403 1_565 S
C948 C949 1.404 1_556 S
C948 C951 1.539 . S
C949 C945 1.408 . S
C949 C948 1.404 1_554 S
C949 H961 0.930 . S
C950 C946 1.524 . S
C950 H962 0.956 . S
C950 H963 0.961 . S
C950 H964 0.961 . S
C951 C948 1.539 . S
C951 H965 0.958 . S
C951 H966 0.961 . S
C951 H967 0.960 . S
H952 C936 0.931 . S
H953 C941 0.929 . S
H954 C942 0.960 . S
H955 C942 0.962 . S
H956 C942 0.960 . S
H957 C943 0.961 . S
H958 C943 0.961 . S
H959 C943 0.961 . S
H960 C944 0.931 . S
H961 C949 0.930 . S
H962 C950 0.956 . S
H963 C950 0.961 . S
H964 C950 0.961 . S
H965 C951 0.958 . S
H966 C951 0.961 . S
H967 C951 0.960 . S
C968 C969 1.391 . S
C968 C970 1.394 . S
C968 H984 0.931 . S
C969 C968 1.391 . S
C969 C973 1.376 . S
C970 C968 1.394 . S
C970 C971 1.369 . S
C970 C974 1.531 . S
C971 C970 1.369 . S
C971 C972 1.410 . S
C971 C979 1.503 . S
C972 C971 1.410 . S
C972 C973 1.392 . S
C972 C975 1.511 . S
C973 C969 1.376 . S
C973 C972 1.392 . S
C973 H985 0.929 . S
C974 C970 1.531 . S
C974 H986 0.960 . S
C974 H987 0.962 . S
C974 H988 0.960 . S
C975 C972 1.511 . S
C975 H989 0.961 . S
C975 H990 0.961 . S
C975 H991 0.961 . S
C976 C977 1.370 . S
C976 C978 1.363 . S
C976 H992 0.931 . S
C977 C976 1.370 . S
C977 C981 1.408 . S
C978 C976 1.363 . S
C978 C979 1.370 . S
C978 C982 1.524 . S
C979 C971 1.503 . S
C979 C978 1.370 . S
C979 C980 1.403 . S
C980 C979 1.403 . S
C980 C981 1.404 . S
C980 C983 1.539 . S
C981 C977 1.408 . S
C981 C980 1.404 . S
C981 H993 0.930 . S
C982 C978 1.524 . S
C982 H994 0.956 . S
C982 H995 0.961 . S
C982 H996 0.961 . S
C983 C980 1.539 . S
C983 H997 0.958 . S
C983 H998 0.961 . S
C983 H999 0.960 . S
H984 C968 0.931 . S
H985 C973 0.929 . S
H986 C974 0.960 . S
H987 C974 0.962 . S
H988 C974 0.960 . S
H989 C975 0.961 . S
H990 C975 0.961 . S
H991 C975 0.961 . S
H992 C976 0.931 . S
H993 C981 0.930 . S
H994 C982 0.956 . S
H995 C982 0.961 . S
H996 C982 0.961 . S
H997 C983 0.958 . S
H998 C983 0.961 . S
H999 C983 0.960 . S
C1000 C1001 1.391 . S
C1000 C1002 1.394 . S
C1000 H1016 0.931 . S
C1001 C1000 1.391 . S
C1001 C1005 1.376 . S
C1002 C1000 1.394 . S
C1002 C1003 1.369 . S
C1002 C1006 1.531 . S
C1003 C1002 1.369 . S
C1003 C1004 1.410 . S
C1003 C1011 1.503 . S
C1004 C1003 1.410 . S
C1004 C1005 1.392 . S
C1004 C1007 1.511 . S
C1005 C1001 1.376 . S
C1005 C1004 1.392 . S
C1005 H1017 0.929 1_545 S
C1006 C1002 1.531 . S
C1006 H1018 0.960 . S
C1006 H1019 0.962 . S
C1006 H1020 0.960 . S
C1007 C1004 1.511 . S
C1007 H1021 0.961 . S
C1007 H1022 0.961 . S
C1007 H1023 0.961 . S
C1008 C1009 1.370 . S
C1008 C1010 1.363 . S
C1008 H1024 0.931 . S
C1009 C1008 1.370 . S
C1009 C1013 1.408 . S
C1010 C1008 1.363 . S
C1010 C1011 1.370 . S
C1010 C1014 1.524 . S
C1011 C1003 1.503 . S
C1011 C1010 1.370 . S
C1011 C1012 1.403 . S
C1012 C1011 1.403 . S
C1012 C1013 1.404 . S
C1012 C1015 1.539 . S
C1013 C1009 1.408 . S
C1013 C1012 1.404 . S
C1013 H1025 0.930 . S
C1014 C1010 1.524 . S
C1014 H1026 0.956 . S
C1014 H1027 0.961 . S
C1014 H1028 0.961 . S
C1015 C1012 1.539 . S
C1015 H1029 0.958 . S
C1015 H1030 0.961 . S
C1015 H1031 0.960 . S
H1016 C1000 0.931 . S
H1017 C1005 0.929 1_565 S
H1018 C1006 0.960 . S
H1019 C1006 0.962 . S
H1020 C1006 0.960 . S
H1021 C1007 0.961 . S
H1022 C1007 0.961 . S
H1023 C1007 0.961 . S
H1024 C1008 0.931 . S
H1025 C1013 0.930 . S
H1026 C1014 0.956 . S
H1027 C1014 0.961 . S
H1028 C1014 0.961 . S
H1029 C1015 0.958 . S
H1030 C1015 0.961 . S
H1031 C1015 0.960 . S
C1032 C1033 1.391 . S
C1032 C1034 1.394 . S
C1032 H1048 0.931 . S
C1033 C1032 1.391 . S
C1033 C1037 1.376 . S
C1034 C1032 1.394 . S
C1034 C1035 1.369 . S
C1034 C1038 1.531 . S
C1035 C1034 1.369 . S
C1035 C1036 1.410 . S
C1035 C1043 1.503 . S
C1036 C1035 1.410 . S
C1036 C1037 1.392 . S
C1036 C1039 1.511 . S
C1037 C1033 1.376 . S
C1037 C1036 1.392 . S
C1037 H1049 0.929 . S
C1038 C1034 1.531 . S
C1038 H1050 0.960 . S
C1038 H1051 0.962 . S
C1038 H1052 0.960 . S
C1039 C1036 1.511 . S
C1039 H1053 0.961 . S
C1039 H1054 0.961 . S
C1039 H1055 0.961 . S
C1040 C1041 1.370 . S
C1040 C1042 1.363 . S
C1040 H1056 0.931 . S
C1041 C1040 1.370 . S
C1041 C1045 1.408 . S
C1042 C1040 1.363 . S
C1042 C1043 1.370 . S
C1042 C1046 1.524 . S
C1043 C1035 1.503 . S
C1043 C1042 1.370 . S
C1043 C1044 1.403 . S
C1044 C1043 1.403 . S
C1044 C1045 1.404 . S
C1044 C1047 1.539 . S
C1045 C1041 1.408 . S
C1045 C1044 1.404 . S
C1045 H1057 0.930 . S
C1046 C1042 1.524 . S
C1046 H1058 0.956 . S
C1046 H1059 0.961 . S
C1046 H1060 0.961 . S
C1047 C1044 1.539 . S
C1047 H1061 0.958 . S
C1047 H1062 0.961 . S
C1047 H1063 0.960 . S
H1048 C1032 0.931 . S
H1049 C1037 0.929 . S
H1050 C1038 0.960 . S
H1051 C1038 0.962 . S
H1052 C1038 0.960 . S
H1053 C1039 0.961 . S
H1054 C1039 0.961 . S
H1055 C1039 0.961 . S
H1056 C1040 0.931 . S
H1057 C1045 0.930 . S
H1058 C1046 0.956 . S
H1059 C1046 0.961 . S
H1060 C1046 0.961 . S
H1061 C1047 0.958 . S
H1062 C1047 0.961 . S
H1063 C1047 0.960 . S
C1064 C1065 1.391 . S
C1064 C1066 1.394 1_565 S
C1064 H1080 0.931 . S
C1065 C1064 1.391 . S
C1065 C1069 1.376 1_565 S
C1066 C1064 1.394 1_545 S
C1066 C1067 1.369 . S
C1066 C1070 1.531 . S
C1067 C1066 1.369 . S
C1067 C1068 1.410 . S
C1067 C1075 1.503 . S
C1068 C1067 1.410 . S
C1068 C1069 1.392 . S
C1068 C1071 1.511 . S
C1069 C1065 1.376 1_545 S
C1069 C1068 1.392 . S
C1069 H1081 0.929 1_545 S
C1070 C1066 1.531 . S
C1070 H1082 0.960 . S
C1070 H1083 0.962 . S
C1070 H1084 0.960 . S
C1071 C1068 1.511 . S
C1071 H1085 0.961 . S
C1071 H1086 0.961 . S
C1071 H1087 0.961 . S
C1072 C1073 1.370 . S
C1072 C1074 1.363 . S
C1072 H1088 0.931 . S
C1073 C1072 1.370 . S
C1073 C1077 1.408 . S
C1074 C1072 1.363 . S
C1074 C1075 1.370 . S
C1074 C1078 1.524 . S
C1075 C1067 1.503 . S
C1075 C1074 1.370 . S
C1075 C1076 1.403 . S
C1076 C1075 1.403 . S
C1076 C1077 1.404 . S
C1076 C1079 1.539 . S
C1077 C1073 1.408 . S
C1077 C1076 1.404 . S
C1077 H1089 0.930 . S
C1078 C1074 1.524 . S
C1078 H1090 0.956 . S
C1078 H1091 0.961 . S
C1078 H1092 0.961 . S
C1079 C1076 1.539 . S
C1079 H1093 0.958 . S
C1079 H1094 0.961 . S
C1079 H1095 0.960 . S
H1080 C1064 0.931 . S
H1081 C1069 0.929 1_565 S
H1082 C1070 0.960 . S
H1083 C1070 0.962 . S
H1084 C1070 0.960 . S
H1085 C1071 0.961 . S
H1086 C1071 0.961 . S
H1087 C1071 0.961 . S
H1088 C1072 0.931 . S
H1089 C1077 0.930 . S
H1090 C1078 0.956 . S
H1091 C1078 0.961 . S
H1092 C1078 0.961 . S
H1093 C1079 0.958 . S
H1094 C1079 0.961 . S
H1095 C1079 0.960 . S
C1096 C1097 1.391 . S
C1096 C1098 1.394 . S
C1096 H1112 0.931 . S
C1097 C1096 1.391 . S
C1097 C1101 1.376 . S
C1098 C1096 1.394 . S
C1098 C1099 1.369 . S
C1098 C1102 1.531 . S
C1099 C1098 1.369 . S
C1099 C1100 1.410 . S
C1099 C1107 1.503 . S
C1100 C1099 1.410 . S
C1100 C1101 1.392 . S
C1100 C1103 1.511 . S
C1101 C1097 1.376 . S
C1101 C1100 1.392 . S
C1101 H1113 0.929 . S
C1102 C1098 1.531 . S
C1102 H1114 0.960 . S
C1102 H1115 0.962 . S
C1102 H1116 0.960 . S
C1103 C1100 1.511 . S
C1103 H1117 0.961 . S
C1103 H1118 0.961 . S
C1103 H1119 0.961 . S
C1104 C1105 1.370 . S
C1104 C1106 1.363 . S
C1104 H1120 0.931 . S
C1105 C1104 1.370 . S
C1105 C1109 1.408 . S
C1106 C1104 1.363 . S
C1106 C1107 1.370 . S
C1106 C1110 1.524 . S
C1107 C1099 1.503 . S
C1107 C1106 1.370 . S
C1107 C1108 1.403 . S
C1108 C1107 1.403 . S
C1108 C1109 1.404 . S
C1108 C1111 1.539 . S
C1109 C1105 1.408 . S
C1109 C1108 1.404 . S
C1109 H1121 0.930 . S
C1110 C1106 1.524 . S
C1110 H1122 0.956 . S
C1110 H1123 0.961 . S
C1110 H1124 0.961 . S
C1111 C1108 1.539 . S
C1111 H1125 0.958 . S
C1111 H1126 0.961 . S
C1111 H1127 0.960 . S
H1112 C1096 0.931 . S
H1113 C1101 0.929 . S
H1114 C1102 0.960 . S
H1115 C1102 0.962 . S
H1116 C1102 0.960 . S
H1117 C1103 0.961 . S
H1118 C1103 0.961 . S
H1119 C1103 0.961 . S
H1120 C1104 0.931 . S
H1121 C1109 0.930 . S
H1122 C1110 0.956 . S
H1123 C1110 0.961 . S
H1124 C1110 0.961 . S
H1125 C1111 0.958 . S
H1126 C1111 0.961 . S
H1127 C1111 0.960 . S
C1128 C1129 1.391 . S
C1128 C1130 1.394 . S
C1128 H1144 0.931 . S
C1129 C1128 1.391 . S
C1129 C1133 1.376 . S
C1130 C1128 1.394 . S
C1130 C1131 1.369 . S
C1130 C1134 1.531 . S
C1131 C1130 1.369 . S
C1131 C1132 1.410 . S
C1131 C1139 1.503 . S
C1132 C1131 1.410 . S
C1132 C1133 1.392 . S
C1132 C1135 1.511 . S
C1133 C1129 1.376 . S
C1133 C1132 1.392 . S
C1133 H1145 0.929 . S
C1134 C1130 1.531 . S
C1134 H1146 0.960 . S
C1134 H1147 0.962 . S
C1134 H1148 0.960 . S
C1135 C1132 1.511 . S
C1135 H1149 0.961 . S
C1135 H1150 0.961 . S
C1135 H1151 0.961 . S
C1136 C1137 1.370 . S
C1136 C1138 1.363 . S
C1136 H1152 0.931 . S
C1137 C1136 1.370 . S
C1137 C1141 1.408 . S
C1138 C1136 1.363 . S
C1138 C1139 1.370 . S
C1138 C1142 1.524 . S
C1139 C1131 1.503 . S
C1139 C1138 1.370 . S
C1139 C1140 1.403 . S
C1140 C1139 1.403 . S
C1140 C1141 1.404 . S
C1140 C1143 1.539 . S
C1141 C1137 1.408 . S
C1141 C1140 1.404 . S
C1141 H1153 0.930 . S
C1142 C1138 1.524 . S
C1142 H1154 0.956 . S
C1142 H1155 0.961 . S
C1142 H1156 0.961 . S
C1143 C1140 1.539 . S
C1143 H1157 0.958 . S
C1143 H1158 0.961 . S
C1143 H1159 0.960 . S
H1144 C1128 0.931 . S
H1145 C1133 0.929 . S
H1146 C1134 0.960 . S
H1147 C1134 0.962 . S
H1148 C1134 0.960 . S
H1149 C1135 0.961 . S
H1150 C1135 0.961 . S
H1151 C1135 0.961 . S
H1152 C1136 0.931 . S
H1153 C1141 0.930 . S
H1154 C1142 0.956 . S
H1155 C1142 0.961 . S
H1156 C1142 0.961 . S
H1157 C1143 0.958 . S
H1158 C1143 0.961 . S
H1159 C1143 0.960 . S
C1160 C1161 1.391 . S
C1160 C1162 1.394 . S
C1160 H1176 0.931 . S
C1161 C1160 1.391 . S
C1161 C1165 1.376 . S
C1162 C1160 1.394 . S
C1162 C1163 1.369 . S
C1162 C1166 1.531 . S
C1163 C1162 1.369 . S
C1163 C1164 1.410 . S
C1163 C1171 1.503 . S
C1164 C1163 1.410 . S
C1164 C1165 1.392 . S
C1164 C1167 1.511 . S
C1165 C1161 1.376 . S
C1165 C1164 1.392 . S
C1165 H1177 0.929 . S
C1166 C1162 1.531 . S
C1166 H1178 0.960 . S
C1166 H1179 0.962 . S
C1166 H1180 0.960 . S
C1167 C1164 1.511 . S
C1167 H1181 0.961 . S
C1167 H1182 0.961 . S
C1167 H1183 0.961 . S
C1168 C1169 1.370 . S
C1168 C1170 1.363 . S
C1168 H1184 0.945 . S
C1169 C1168 1.370 . S
C1169 C1173 1.408 . S
C1170 C1168 1.363 . S
C1170 C1171 1.370 . S
C1170 C1174 1.524 . S
C1171 C1163 1.503 . S
C1171 C1170 1.370 . S
C1171 C1172 1.403 . S
C1172 C1171 1.403 . S
C1172 C1173 1.404 . S
C1172 C1175 1.539 . S
C1173 C1169 1.408 . S
C1173 C1172 1.404 . S
C1173 H1185 0.930 . S
C1174 C1170 1.524 . S
C1174 H1186 0.956 . S
C1174 H1187 0.961 . S
C1174 H1188 0.961 1_545 S
C1175 C1172 1.539 . S
C1175 H1189 0.958 . S
C1175 H1190 0.961 . S
C1175 H1191 0.960 . S
H1176 C1160 0.931 . S
H1177 C1165 0.929 . S
H1178 C1166 0.960 . S
H1179 C1166 0.962 . S
H1180 C1166 0.960 . S
H1181 C1167 0.961 . S
H1182 C1167 0.961 . S
H1183 C1167 0.961 . S
H1184 C1168 0.945 . S
H1185 C1173 0.930 . S
H1186 C1174 0.956 . S
H1187 C1174 0.961 . S
H1188 C1174 0.961 1_565 S
H1189 C1175 0.958 . S
H1190 C1175 0.961 . S
H1191 C1175 0.960 . S
C1192 C1193 1.391 . S
C1192 C1194 1.394 . S
C1192 H1208 0.931 . S
C1193 C1192 1.391 . S
C1193 C1197 1.376 . S
C1194 C1192 1.394 . S
C1194 C1195 1.369 . S
C1194 C1198 1.531 . S
C1195 C1194 1.369 . S
C1195 C1196 1.410 . S
C1195 C1203 1.503 . S
C1196 C1195 1.410 . S
C1196 C1197 1.392 . S
C1196 C1199 1.511 . S
C1197 C1193 1.376 . S
C1197 C1196 1.392 . S
C1197 H1209 0.929 . S
C1198 C1194 1.531 . S
C1198 H1210 0.960 . S
C1198 H1211 0.962 . S
C1198 H1212 0.960 . S
C1199 C1196 1.511 . S
C1199 H1213 0.961 . S
C1199 H1214 0.961 . S
C1199 H1215 0.961 . S
C1200 C1201 1.370 . S
C1200 C1202 1.363 . S
C1200 H1216 0.931 . S
C1201 C1200 1.370 . S
C1201 C1205 1.408 . S
C1202 C1200 1.363 . S
C1202 C1203 1.370 . S
C1202 C1206 1.524 . S
C1203 C1195 1.503 . S
C1203 C1202 1.370 . S
C1203 C1204 1.403 . S
C1204 C1203 1.403 . S
C1204 C1205 1.404 . S
C1204 C1207 1.539 . S
C1205 C1201 1.408 . S
C1205 C1204 1.404 . S
C1205 H1217 0.930 . S
C1206 C1202 1.524 . S
C1206 H1218 0.956 . S
C1206 H1219 0.961 . S
C1206 H1220 0.961 . S
C1207 C1204 1.539 . S
C1207 H1221 0.958 . S
C1207 H1222 0.961 . S
C1207 H1223 0.960 . S
H1208 C1192 0.931 . S
H1209 C1197 0.929 . S
H1210 C1198 0.960 . S
H1211 C1198 0.962 . S
H1212 C1198 0.960 . S
H1213 C1199 0.961 . S
H1214 C1199 0.961 . S
H1215 C1199 0.961 . S
H1216 C1200 0.931 . S
H1217 C1205 0.930 . S
H1218 C1206 0.956 . S
H1219 C1206 0.961 . S
H1220 C1206 0.961 . S
H1221 C1207 0.958 . S
H1222 C1207 0.961 . S
H1223 C1207 0.960 . S
C1224 C1225 1.391 . S
C1224 C1226 1.394 . S
C1224 H1240 0.931 . S
C1225 C1224 1.391 . S
C1225 C1229 1.376 . S
C1226 C1224 1.394 . S
C1226 C1227 1.369 . S
C1226 C1230 1.531 . S
C1227 C1226 1.369 . S
C1227 C1228 1.410 . S
C1227 C1235 1.503 . S
C1228 C1227 1.410 . S
C1228 C1229 1.392 . S
C1228 C1231 1.511 . S
C1229 C1225 1.376 . S
C1229 C1228 1.392 . S
C1229 H1241 0.929 . S
C1230 C1226 1.531 . S
C1230 H1242 0.960 . S
C1230 H1243 0.962 . S
C1230 H1244 0.960 . S
C1231 C1228 1.511 . S
C1231 H1245 0.961 . S
C1231 H1246 0.961 . S
C1231 H1247 0.961 . S
C1232 C1233 1.370 . S
C1232 C1234 1.363 . S
C1232 H1248 0.931 . S
C1233 C1232 1.370 . S
C1233 C1237 1.408 . S
C1234 C1232 1.363 . S
C1234 C1235 1.370 . S
C1234 C1238 1.524 . S
C1235 C1227 1.503 . S
C1235 C1234 1.370 . S
C1235 C1236 1.403 . S
C1236 C1235 1.403 . S
C1236 C1237 1.404 . S
C1236 C1239 1.539 . S
C1237 C1233 1.408 . S
C1237 C1236 1.404 . S
C1237 H1249 0.930 . S
C1238 C1234 1.524 . S
C1238 H1250 0.956 . S
C1238 H1251 0.961 . S
C1238 H1252 0.961 . S
C1239 C1236 1.539 . S
C1239 H1253 0.958 . S
C1239 H1254 0.961 . S
C1239 H1255 0.960 . S
H1240 C1224 0.931 . S
H1241 C1229 0.929 . S
H1242 C1230 0.960 . S
H1243 C1230 0.962 . S
H1244 C1230 0.960 . S
H1245 C1231 0.961 . S
H1246 C1231 0.961 . S
H1247 C1231 0.961 . S
H1248 C1232 0.931 . S
H1249 C1237 0.930 . S
H1250 C1238 0.956 . S
H1251 C1238 0.961 . S
H1252 C1238 0.961 . S
H1253 C1239 0.958 . S
H1254 C1239 0.961 . S
H1255 C1239 0.960 . S
C1256 C1257 1.391 . S
C1256 C1258 1.394 . S
C1256 H1272 0.931 . S
C1257 C1256 1.391 . S
C1257 C1261 1.376 . S
C1258 C1256 1.394 . S
C1258 C1259 1.369 . S
C1258 C1262 1.531 . S
C1259 C1258 1.369 . S
C1259 C1260 1.410 . S
C1259 C1267 1.503 . S
C1260 C1259 1.410 . S
C1260 C1261 1.392 . S
C1260 C1263 1.511 . S
C1261 C1257 1.376 . S
C1261 C1260 1.392 . S
C1261 H1273 0.929 . S
C1262 C1258 1.531 . S
C1262 H1274 0.960 . S
C1262 H1275 0.962 . S
C1262 H1276 0.960 . S
C1263 C1260 1.511 . S
C1263 H1277 0.961 . S
C1263 H1278 0.961 . S
C1263 H1279 0.961 . S
C1264 C1265 1.370 . S
C1264 C1266 1.363 . S
C1264 H1280 0.931 . S
C1265 C1264 1.370 . S
C1265 C1269 1.408 . S
C1266 C1264 1.363 . S
C1266 C1267 1.370 . S
C1266 C1270 1.524 . S
C1267 C1259 1.503 . S
C1267 C1266 1.370 . S
C1267 C1268 1.403 . S
C1268 C1267 1.403 . S
C1268 C1269 1.404 . S
C1268 C1271 1.539 . S
C1269 C1265 1.408 . S
C1269 C1268 1.404 . S
C1269 H1281 0.930 . S
C1270 C1266 1.524 . S
C1270 H1282 0.956 . S
C1270 H1283 0.961 . S
C1270 H1284 0.961 . S
C1271 C1268 1.539 . S
C1271 H1285 0.958 . S
C1271 H1286 0.961 . S
C1271 H1287 0.960 . S
H1272 C1256 0.931 . S
H1273 C1261 0.929 . S
H1274 C1262 0.960 . S
H1275 C1262 0.962 . S
H1276 C1262 0.960 . S
H1277 C1263 0.961 . S
H1278 C1263 0.961 . S
H1279 C1263 0.961 . S
H1280 C1264 0.931 . S
H1281 C1269 0.930 . S
H1282 C1270 0.956 . S
H1283 C1270 0.961 . S
H1284 C1270 0.961 . S
H1285 C1271 0.958 . S
H1286 C1271 0.961 . S
H1287 C1271 0.960 . S
C1288 C1289 1.391 . S
C1288 C1290 1.394 . S
C1288 H1304 0.931 . S
C1289 C1288 1.391 . S
C1289 C1293 1.376 . S
C1290 C1288 1.394 . S
C1290 C1291 1.369 . S
C1290 C1294 1.531 . S
C1291 C1290 1.369 . S
C1291 C1292 1.410 . S
C1291 C1299 1.503 . S
C1292 C1291 1.410 . S
C1292 C1293 1.392 . S
C1292 C1295 1.511 . S
C1293 C1289 1.376 . S
C1293 C1292 1.392 . S
C1293 H1305 0.929 . S
C1294 C1290 1.531 . S
C1294 H1306 0.960 . S
C1294 H1307 0.962 . S
C1294 H1308 0.960 . S
C1295 C1292 1.511 . S
C1295 H1309 0.961 . S
C1295 H1310 0.961 . S
C1295 H1311 0.961 . S
C1296 C1297 1.370 . S
C1296 C1298 1.363 . S
C1296 H1312 0.931 . S
C1297 C1296 1.370 . S
C1297 C1301 1.408 . S
C1298 C1296 1.363 . S
C1298 C1299 1.370 . S
C1298 C1302 1.524 . S
C1299 C1291 1.503 . S
C1299 C1298 1.370 . S
C1299 C1300 1.403 . S
C1300 C1299 1.403 . S
C1300 C1301 1.404 . S
C1300 C1303 1.539 . S
C1301 C1297 1.408 . S
C1301 C1300 1.404 . S
C1301 H1313 0.930 1_455 S
C1302 C1298 1.524 . S
C1302 H1314 0.956 . S
C1302 H1315 0.961 . S
C1302 H1316 0.961 . S
C1303 C1300 1.539 . S
C1303 H1317 0.958 . S
C1303 H1318 0.959 1_455 S
C1303 H1319 0.960 . S
H1304 C1288 0.931 . S
H1305 C1293 0.929 . S
H1306 C1294 0.960 . S
H1307 C1294 0.962 . S
H1308 C1294 0.960 . S
H1309 C1295 0.961 . S
H1310 C1295 0.961 . S
H1311 C1295 0.961 . S
H1312 C1296 0.931 . S
H1313 C1301 0.930 1_655 S
H1314 C1302 0.956 . S
H1315 C1302 0.961 . S
H1316 C1302 0.961 . S
H1317 C1303 0.958 . S
H1318 C1303 0.959 1_655 S
H1319 C1303 0.960 . S
C1320 C1321 1.391 . S
C1320 C1322 1.394 . S
C1320 H1336 0.931 . S
C1321 C1320 1.391 . S
C1321 C1325 1.376 . S
C1322 C1320 1.394 . S
C1322 C1323 1.369 . S
C1322 C1326 1.531 . S
C1323 C1322 1.369 . S
C1323 C1324 1.410 . S
C1323 C1331 1.503 . S
C1324 C1323 1.410 . S
C1324 C1325 1.392 . S
C1324 C1327 1.511 . S
C1325 C1321 1.376 . S
C1325 C1324 1.392 . S
C1325 H1337 0.929 . S
C1326 C1322 1.531 . S
C1326 H1338 0.960 . S
C1326 H1339 0.962 . S
C1326 H1340 0.960 . S
C1327 C1324 1.511 . S
C1327 H1341 0.961 . S
C1327 H1342 0.961 . S
C1327 H1343 0.961 . S
C1328 C1329 1.370 . S
C1328 C1330 1.363 . S
C1328 H1344 0.931 . S
C1329 C1328 1.370 . S
C1329 C1333 1.408 . S
C1330 C1328 1.363 . S
C1330 C1331 1.370 . S
C1330 C1334 1.524 . S
C1331 C1323 1.503 . S
C1331 C1330 1.370 . S
C1331 C1332 1.403 . S
C1332 C1331 1.403 . S
C1332 C1333 1.404 . S
C1332 C1335 1.539 . S
C1333 C1329 1.408 . S
C1333 C1332 1.404 . S
C1333 H1345 0.930 . S
C1334 C1330 1.524 . S
C1334 H1346 0.956 . S
C1334 H1347 0.961 . S
C1334 H1348 0.961 . S
C1335 C1332 1.539 . S
C1335 H1349 0.958 . S
C1335 H1350 0.961 . S
C1335 H1351 0.960 . S
H1336 C1320 0.931 . S
H1337 C1325 0.929 . S
H1338 C1326 0.960 . S
H1339 C1326 0.962 . S
H1340 C1326 0.960 . S
H1341 C1327 0.961 . S
H1342 C1327 0.961 . S
H1343 C1327 0.961 . S
H1344 C1328 0.931 . S
H1345 C1333 0.930 . S
H1346 C1334 0.956 . S
H1347 C1334 0.961 . S
H1348 C1334 0.961 . S
H1349 C1335 0.958 . S
H1350 C1335 0.961 . S
H1351 C1335 0.960 . S
C1352 C1353 1.391 . S
C1352 C1354 1.394 . S
C1352 H1368 0.931 . S
C1353 C1352 1.391 . S
C1353 C1357 1.376 . S
C1354 C1352 1.394 . S
C1354 C1355 1.369 . S
C1354 C1358 1.531 . S
C1355 C1354 1.369 . S
C1355 C1356 1.410 . S
C1355 C1363 1.503 . S
C1356 C1355 1.410 . S
C1356 C1357 1.392 . S
C1356 C1359 1.511 1_655 S
C1357 C1353 1.376 . S
C1357 C1356 1.392 . S
C1357 H1369 0.929 . S
C1358 C1354 1.531 . S
C1358 H1370 0.960 . S
C1358 H1371 0.962 . S
C1358 H1372 0.960 . S
C1359 C1356 1.511 1_455 S
C1359 H1373 0.961 . S
C1359 H1374 0.961 . S
C1359 H1375 0.961 . S
C1360 C1361 1.370 . S
C1360 C1362 1.392 . S
C1360 H1376 0.931 . S
C1361 C1360 1.370 . S
C1361 C1365 1.408 . S
C1362 C1360 1.392 . S
C1362 C1363 1.375 1_455 S
C1362 C1366 1.492 1_455 S
C1363 C1355 1.503 . S
C1363 C1362 1.375 1_655 S
C1363 C1364 1.403 1_655 S
C1364 C1363 1.403 1_455 S
C1364 C1365 1.404 . S
C1364 C1367 1.539 . S
C1365 C1361 1.408 . S
C1365 C1364 1.404 . S
C1365 H1377 0.930 . S
C1366 C1362 1.492 1_655 S
C1366 H1378 0.956 . S
C1366 H1379 0.961 . S
C1366 H1380 0.961 . S
C1367 C1364 1.539 . S
C1367 H1381 0.958 . S
C1367 H1382 0.961 . S
C1367 H1383 0.960 . S
H1368 C1352 0.931 . S
H1369 C1357 0.929 . S
H1370 C1358 0.960 . S
H1371 C1358 0.962 . S
H1372 C1358 0.960 . S
H1373 C1359 0.961 . S
H1374 C1359 0.961 . S
H1375 C1359 0.961 . S
H1376 C1360 0.931 . S
H1377 C1365 0.930 . S
H1378 C1366 0.956 . S
H1379 C1366 0.961 . S
H1380 C1366 0.961 . S
H1381 C1367 0.958 . S
H1382 C1367 0.961 . S
H1383 C1367 0.960 . S
C1384 C1385 1.391 . S
C1384 C1386 1.394 . S
C1384 H1400 0.931 . S
C1385 C1384 1.391 . S
C1385 C1389 1.376 . S
C1386 C1384 1.394 . S
C1386 C1387 1.369 . S
C1386 C1390 1.531 . S
C1387 C1386 1.369 . S
C1387 C1388 1.410 . S
C1387 C1395 1.503 . S
C1388 C1387 1.410 . S
C1388 C1389 1.392 . S
C1388 C1391 1.511 . S
C1389 C1385 1.376 . S
C1389 C1388 1.392 . S
C1389 H1401 0.929 . S
C1390 C1386 1.531 . S
C1390 H1402 0.960 . S
C1390 H1403 0.962 . S
C1390 H1404 0.960 . S
C1391 C1388 1.511 . S
C1391 H1405 0.961 . S
C1391 H1406 0.961 . S
C1391 H1407 0.961 . S
C1392 C1393 1.370 . S
C1392 C1394 1.363 . S
C1392 H1408 0.931 . S
C1393 C1392 1.370 . S
C1393 C1397 1.408 . S
C1394 C1392 1.363 . S
C1394 C1395 1.370 . S
C1394 C1398 1.524 . S
C1395 C1387 1.503 . S
C1395 C1394 1.370 . S
C1395 C1396 1.403 . S
C1396 C1395 1.403 . S
C1396 C1397 1.404 . S
C1396 C1399 1.539 . S
C1397 C1393 1.408 . S
C1397 C1396 1.404 . S
C1397 H1409 0.930 . S
C1398 C1394 1.524 . S
C1398 H1410 0.956 . S
C1398 H1411 0.961 . S
C1398 H1412 0.961 . S
C1399 C1396 1.539 . S
C1399 H1413 0.958 . S
C1399 H1414 0.961 . S
C1399 H1415 0.960 . S
H1400 C1384 0.931 . S
H1401 C1389 0.929 . S
H1402 C1390 0.960 . S
H1403 C1390 0.962 . S
H1404 C1390 0.960 . S
H1405 C1391 0.961 . S
H1406 C1391 0.961 . S
H1407 C1391 0.961 . S
H1408 C1392 0.931 . S
H1409 C1397 0.930 . S
H1410 C1398 0.956 . S
H1411 C1398 0.961 . S
H1412 C1398 0.961 . S
H1413 C1399 0.958 . S
H1414 C1399 0.961 . S
H1415 C1399 0.960 . S
C1416 C1417 1.391 . S
C1416 C1418 1.394 1_554 S
C1416 H1432 0.931 . S
C1417 C1416 1.391 . S
C1417 C1421 1.376 . S
C1418 C1416 1.394 1_556 S
C1418 C1419 1.369 . S
C1418 C1422 1.531 . S
C1419 C1418 1.369 . S
C1419 C1420 1.410 . S
C1419 C1427 1.503 . S
C1420 C1419 1.410 . S
C1420 C1421 1.392 1_556 S
C1420 C1423 1.511 . S
C1421 C1417 1.376 . S
C1421 C1420 1.392 1_554 S
C1421 H1433 0.929 . S
C1422 C1418 1.531 . S
C1422 H1434 0.960 . S
C1422 H1435 0.962 . S
C1422 H1436 0.960 1_556 S
C1423 C1420 1.511 . S
C1423 H1437 0.961 . S
C1423 H1438 0.961 . S
C1423 H1439 0.961 . S
C1424 C1425 1.370 . S
C1424 C1426 1.363 . S
C1424 H1440 0.931 . S
C1425 C1424 1.370 . S
C1425 C1429 1.408 . S
C1426 C1424 1.363 . S
C1426 C1427 1.370 . S
C1426 C1430 1.524 . S
C1427 C1419 1.503 . S
C1427 C1426 1.370 . S
C1427 C1428 1.403 . S
C1428 C1427 1.403 . S
C1428 C1429 1.404 . S
C1428 C1431 1.539 . S
C1429 C1425 1.408 . S
C1429 C1428 1.404 . S
C1429 H1441 0.930 . S
C1430 C1426 1.524 . S
C1430 H1442 0.956 . S
C1430 H1443 0.961 . S
C1430 H1444 0.961 . S
C1431 C1428 1.539 . S
C1431 H1445 0.958 1_556 S
C1431 H1446 0.961 . S
C1431 H1447 0.960 1_556 S
H1432 C1416 0.931 . S
H1433 C1421 0.929 . S
H1434 C1422 0.960 . S
H1435 C1422 0.962 . S
H1436 C1422 0.960 1_554 S
H1437 C1423 0.961 . S
H1438 C1423 0.961 . S
H1439 C1423 0.961 . S
H1440 C1424 0.931 . S
H1441 C1429 0.930 . S
H1442 C1430 0.956 . S
H1443 C1430 0.961 . S
H1444 C1430 0.961 . S
H1445 C1431 0.958 1_554 S
H1446 C1431 0.961 . S
H1447 C1431 0.960 1_554 S
C1448 C1449 1.391 . S
C1448 C1450 1.394 . S
C1448 H1464 0.931 . S
C1449 C1448 1.391 . S
C1449 C1453 1.376 . S
C1450 C1448 1.394 . S
C1450 C1451 1.369 . S
C1450 C1454 1.531 . S
C1451 C1450 1.369 . S
C1451 C1452 1.410 . S
C1451 C1459 1.503 . S
C1452 C1451 1.410 . S
C1452 C1453 1.392 . S
C1452 C1455 1.511 . S
C1453 C1449 1.376 . S
C1453 C1452 1.392 . S
C1453 H1465 0.929 . S
C1454 C1450 1.531 . S
C1454 H1466 0.960 . S
C1454 H1467 0.962 . S
C1454 H1468 0.960 . S
C1455 C1452 1.511 . S
C1455 H1469 0.961 . S
C1455 H1470 0.961 . S
C1455 H1471 0.961 . S
C1456 C1457 1.370 . S
C1456 C1458 1.363 . S
C1456 H1472 0.931 . S
C1457 C1456 1.370 . S
C1457 C1461 1.408 . S
C1458 C1456 1.363 . S
C1458 C1459 1.370 . S
C1458 C1462 1.524 . S
C1459 C1451 1.503 . S
C1459 C1458 1.370 . S
C1459 C1460 1.403 . S
C1460 C1459 1.403 . S
C1460 C1461 1.404 . S
C1460 C1463 1.539 . S
C1461 C1457 1.408 . S
C1461 C1460 1.404 . S
C1461 H1473 0.930 . S
C1462 C1458 1.524 . S
C1462 H1474 0.956 . S
C1462 H1475 0.961 . S
C1462 H1476 0.961 . S
C1463 C1460 1.539 . S
C1463 H1477 0.958 . S
C1463 H1478 0.961 . S
C1463 H1479 0.960 . S
H1464 C1448 0.931 . S
H1465 C1453 0.929 . S
H1466 C1454 0.960 . S
H1467 C1454 0.962 . S
H1468 C1454 0.960 . S
H1469 C1455 0.961 . S
H1470 C1455 0.961 . S
H1471 C1455 0.961 . S
H1472 C1456 0.931 . S
H1473 C1461 0.930 . S
H1474 C1462 0.956 . S
H1475 C1462 0.961 . S
H1476 C1462 0.961 . S
H1477 C1463 0.958 . S
H1478 C1463 0.961 . S
H1479 C1463 0.960 . S
C1480 C1481 1.391 . S
C1480 C1482 1.394 . S
C1480 H1496 0.931 . S
C1481 C1480 1.391 . S
C1481 C1485 1.376 . S
C1482 C1480 1.394 . S
C1482 C1483 1.369 . S
C1482 C1486 1.531 . S
C1483 C1482 1.369 . S
C1483 C1484 1.410 . S
C1483 C1491 1.503 1_554 S
C1484 C1483 1.410 . S
C1484 C1485 1.392 . S
C1484 C1487 1.511 . S
C1485 C1481 1.376 . S
C1485 C1484 1.392 . S
C1485 H1497 0.929 . S
C1486 C1482 1.531 . S
C1486 H1498 0.960 . S
C1486 H1499 0.962 . S
C1486 H1500 0.960 . S
C1487 C1484 1.511 . S
C1487 H1501 0.961 . S
C1487 H1502 0.961 1_554 S
C1487 H1503 0.961 . S
C1488 C1489 1.370 . S
C1488 C1490 1.363 . S
C1488 H1504 0.931 . S
C1489 C1488 1.370 . S
C1489 C1493 1.408 . S
C1490 C1488 1.363 . S
C1490 C1491 1.370 . S
C1490 C1494 1.524 . S
C1491 C1483 1.503 1_556 S
C1491 C1490 1.370 . S
C1491 C1492 1.403 . S
C1492 C1491 1.403 . S
C1492 C1493 1.404 . S
C1492 C1495 1.539 1_556 S
C1493 C1489 1.408 . S
C1493 C1492 1.404 . S
C1493 H1505 0.930 . S
C1494 C1490 1.524 . S
C1494 H1506 0.956 . S
C1494 H1507 0.961 . S
C1494 H1508 0.961 . S
C1495 C1492 1.539 1_554 S
C1495 H1509 0.958 . S
C1495 H1510 0.961 . S
C1495 H1511 0.960 . S
H1496 C1480 0.931 . S
H1497 C1485 0.929 . S
H1498 C1486 0.960 . S
H1499 C1486 0.962 . S
H1500 C1486 0.960 . S
H1501 C1487 0.961 . S
H1502 C1487 0.961 1_556 S
H1503 C1487 0.961 . S
H1504 C1488 0.931 . S
H1505 C1493 0.930 . S
H1506 C1494 0.956 . S
H1507 C1494 0.961 . S
H1508 C1494 0.961 . S
H1509 C1495 0.958 . S
H1510 C1495 0.961 . S
H1511 C1495 0.960 . S
C1512 C1513 1.391 . S
C1512 C1514 1.394 . S
C1512 H1528 0.931 . S
C1513 C1512 1.391 . S
C1513 C1517 1.376 . S
C1514 C1512 1.394 . S
C1514 C1515 1.369 . S
C1514 C1518 1.531 . S
C1515 C1514 1.369 . S
C1515 C1516 1.410 . S
C1515 C1523 1.503 . S
C1516 C1515 1.410 . S
C1516 C1517 1.392 . S
C1516 C1519 1.511 . S
C1517 C1513 1.376 . S
C1517 C1516 1.392 . S
C1517 H1529 0.929 . S
C1518 C1514 1.531 . S
C1518 H1530 0.960 . S
C1518 H1531 0.962 . S
C1518 H1532 0.960 . S
C1519 C1516 1.511 . S
C1519 H1533 0.961 . S
C1519 H1534 0.961 . S
C1519 H1535 0.961 . S
C1520 C1521 1.370 . S
C1520 C1522 1.363 . S
C1520 H1536 0.931 . S
C1521 C1520 1.370 . S
C1521 C1525 1.408 . S
C1522 C1520 1.363 . S
C1522 C1523 1.370 . S
C1522 C1526 1.524 . S
C1523 C1515 1.503 . S
C1523 C1522 1.370 . S
C1523 C1524 1.403 . S
C1524 C1523 1.403 . S
C1524 C1525 1.404 . S
C1524 C1527 1.539 . S
C1525 C1521 1.408 . S
C1525 C1524 1.404 . S
C1525 H1537 0.930 . S
C1526 C1522 1.524 . S
C1526 H1538 0.956 . S
C1526 H1539 0.961 . S
C1526 H1540 0.961 . S
C1527 C1524 1.539 . S
C1527 H1541 0.958 . S
C1527 H1542 0.961 . S
C1527 H1543 0.960 . S
H1528 C1512 0.931 . S
H1529 C1517 0.929 . S
H1530 C1518 0.960 . S
H1531 C1518 0.962 . S
H1532 C1518 0.960 . S
H1533 C1519 0.961 . S
H1534 C1519 0.961 . S
H1535 C1519 0.961 . S
H1536 C1520 0.931 . S
H1537 C1525 0.930 . S
H1538 C1526 0.956 . S
H1539 C1526 0.961 . S
H1540 C1526 0.961 . S
H1541 C1527 0.958 . S
H1542 C1527 0.961 . S
H1543 C1527 0.960 . S
C1544 C1545 1.391 . S
C1544 C1546 1.394 . S
C1544 H1560 0.931 . S
C1545 C1544 1.391 . S
C1545 C1549 1.376 . S
C1546 C1544 1.394 . S
C1546 C1547 1.369 1_556 S
C1546 C1550 1.531 . S
C1547 C1546 1.369 1_554 S
C1547 C1548 1.410 . S
C1547 C1555 1.503 . S
C1548 C1547 1.410 . S
C1548 C1549 1.392 1_554 S
C1548 C1551 1.511 . S
C1549 C1545 1.376 . S
C1549 C1548 1.392 1_556 S
C1549 H1561 0.929 . S
C1550 C1546 1.531 . S
C1550 H1562 0.960 1_556 S
C1550 H1563 0.962 1_556 S
C1550 H1564 0.960 . S
C1551 C1548 1.511 . S
C1551 H1565 0.961 . S
C1551 H1566 0.961 . S
C1551 H1567 0.961 . S
C1552 C1553 1.370 . S
C1552 C1554 1.363 . S
C1552 H1568 0.931 . S
C1553 C1552 1.370 . S
C1553 C1557 1.408 . S
C1554 C1552 1.363 . S
C1554 C1555 1.370 . S
C1554 C1558 1.524 . S
C1555 C1547 1.503 . S
C1555 C1554 1.370 . S
C1555 C1556 1.403 . S
C1556 C1555 1.403 . S
C1556 C1557 1.404 . S
C1556 C1559 1.539 . S
C1557 C1553 1.408 . S
C1557 C1556 1.404 . S
C1557 H1569 0.930 . S
C1558 C1554 1.524 . S
C1558 H1570 0.956 . S
C1558 H1571 0.961 . S
C1558 H1572 0.961 . S
C1559 C1556 1.539 . S
C1559 H1573 0.958 1_554 S
C1559 H1574 0.961 . S
C1559 H1575 0.960 1_554 S
H1560 C1544 0.931 . S
H1561 C1549 0.929 . S
H1562 C1550 0.960 1_554 S
H1563 C1550 0.962 1_554 S
H1564 C1550 0.960 . S
H1565 C1551 0.961 . S
H1566 C1551 0.961 . S
H1567 C1551 0.961 . S
H1568 C1552 0.931 . S
H1569 C1557 0.930 . S
H1570 C1558 0.956 . S
H1571 C1558 0.961 . S
H1572 C1558 0.961 . S
H1573 C1559 0.958 1_556 S
H1574 C1559 0.961 . S
H1575 C1559 0.960 1_556 S
C1576 C1577 1.391 . S
C1576 C1578 1.394 . S
C1576 H1592 0.931 . S
C1577 C1576 1.391 . S
C1577 C1581 1.376 . S
C1578 C1576 1.394 . S
C1578 C1579 1.369 . S
C1578 C1582 1.531 . S
C1579 C1578 1.369 . S
C1579 C1580 1.410 . S
C1579 C1587 1.503 . S
C1580 C1579 1.410 . S
C1580 C1581 1.392 . S
C1580 C1583 1.511 . S
C1581 C1577 1.376 . S
C1581 C1580 1.392 . S
C1581 H1593 0.929 . S
C1582 C1578 1.531 . S
C1582 H1594 0.960 . S
C1582 H1595 0.962 . S
C1582 H1596 0.960 . S
C1583 C1580 1.511 . S
C1583 H1597 0.961 . S
C1583 H1598 0.961 . S
C1583 H1599 0.961 . S
C1584 C1585 1.370 . S
C1584 C1586 1.363 . S
C1584 H1600 0.931 . S
C1585 C1584 1.370 . S
C1585 C1589 1.408 . S
C1586 C1584 1.363 . S
C1586 C1587 1.370 . S
C1586 C1590 1.524 . S
C1587 C1579 1.503 . S
C1587 C1586 1.370 . S
C1587 C1588 1.403 . S
C1588 C1587 1.403 . S
C1588 C1589 1.404 . S
C1588 C1591 1.539 . S
C1589 C1585 1.408 . S
C1589 C1588 1.404 . S
C1589 H1601 0.930 . S
C1590 C1586 1.524 . S
C1590 H1602 0.956 . S
C1590 H1603 0.961 . S
C1590 H1604 0.961 . S
C1591 C1588 1.539 . S
C1591 H1605 0.958 . S
C1591 H1606 0.961 . S
C1591 H1607 0.960 . S
H1592 C1576 0.931 . S
H1593 C1581 0.929 . S
H1594 C1582 0.960 . S
H1595 C1582 0.962 . S
H1596 C1582 0.960 . S
H1597 C1583 0.961 . S
H1598 C1583 0.961 . S
H1599 C1583 0.961 . S
H1600 C1584 0.931 . S
H1601 C1589 0.930 . S
H1602 C1590 0.956 . S
H1603 C1590 0.961 . S
H1604 C1590 0.961 . S
H1605 C1591 0.958 . S
H1606 C1591 0.961 . S
H1607 C1591 0.960 . S
C1608 C1609 1.391 . S
C1608 C1610 1.394 . S
C1608 H1624 0.931 . S
C1609 C1608 1.391 . S
C1609 C1613 1.376 . S
C1610 C1608 1.394 . S
C1610 C1611 1.369 1_556 S
C1610 C1614 1.531 . S
C1611 C1610 1.369 1_554 S
C1611 C1612 1.410 . S
C1611 C1619 1.503 . S
C1612 C1611 1.410 . S
C1612 C1613 1.392 1_554 S
C1612 C1615 1.511 . S
C1613 C1609 1.376 . S
C1613 C1612 1.392 1_556 S
C1613 H1625 0.929 . S
C1614 C1610 1.531 . S
C1614 H1626 0.960 1_556 S
C1614 H1627 0.962 . S
C1614 H1628 0.960 . S
C1615 C1612 1.511 . S
C1615 H1629 0.961 . S
C1615 H1630 0.961 . S
C1615 H1631 0.961 . S
C1616 C1617 1.370 . S
C1616 C1618 1.363 . S
C1616 H1632 0.931 . S
C1617 C1616 1.370 . S
C1617 C1621 1.408 . S
C1618 C1616 1.363 . S
C1618 C1619 1.370 . S
C1618 C1622 1.524 . S
C1619 C1611 1.503 . S
C1619 C1618 1.370 . S
C1619 C1620 1.403 . S
C1620 C1619 1.403 . S
C1620 C1621 1.404 . S
C1620 C1623 1.539 . S
C1621 C1617 1.408 . S
C1621 C1620 1.404 . S
C1621 H1633 0.930 . S
C1622 C1618 1.524 . S
C1622 H1634 0.956 . S
C1622 H1635 0.961 . S
C1622 H1636 0.961 . S
C1623 C1620 1.539 . S
C1623 H1637 0.958 . S
C1623 H1638 0.961 . S
C1623 H1639 0.960 . S
H1624 C1608 0.931 . S
H1625 C1613 0.929 . S
H1626 C1614 0.960 1_554 S
H1627 C1614 0.962 . S
H1628 C1614 0.960 . S
H1629 C1615 0.961 . S
H1630 C1615 0.961 . S
H1631 C1615 0.961 . S
H1632 C1616 0.931 . S
H1633 C1621 0.930 . S
H1634 C1622 0.956 . S
H1635 C1622 0.961 . S
H1636 C1622 0.961 . S
H1637 C1623 0.958 . S
H1638 C1623 0.961 . S
H1639 C1623 0.960 . S
C1640 C1641 1.391 . S
C1640 C1642 1.394 . S
C1640 H1656 0.931 . S
C1641 C1640 1.391 . S
C1641 C1645 1.376 . S
C1642 C1640 1.394 . S
C1642 C1643 1.369 . S
C1642 C1646 1.531 . S
C1643 C1642 1.369 . S
C1643 C1644 1.410 . S
C1643 C1651 1.503 . S
C1644 C1643 1.410 . S
C1644 C1645 1.392 . S
C1644 C1647 1.511 . S
C1645 C1641 1.376 . S
C1645 C1644 1.392 . S
C1645 H1657 0.929 . S
C1646 C1642 1.531 . S
C1646 H1658 0.960 . S
C1646 H1659 0.962 . S
C1646 H1660 0.960 . S
C1647 C1644 1.511 . S
C1647 H1661 0.961 . S
C1647 H1662 0.961 . S
C1647 H1663 0.961 . S
C1648 C1649 1.370 . S
C1648 C1650 1.363 . S
C1648 H1664 0.931 . S
C1649 C1648 1.370 . S
C1649 C1653 1.408 . S
C1650 C1648 1.363 . S
C1650 C1651 1.370 . S
C1650 C1654 1.524 . S
C1651 C1643 1.503 . S
C1651 C1650 1.370 . S
C1651 C1652 1.403 . S
C1652 C1651 1.403 . S
C1652 C1653 1.404 . S
C1652 C1655 1.539 . S
C1653 C1649 1.408 . S
C1653 C1652 1.404 . S
C1653 H1665 0.930 . S
C1654 C1650 1.524 . S
C1654 H1666 0.956 . S
C1654 H1667 0.961 . S
C1654 H1668 0.961 . S
C1655 C1652 1.539 . S
C1655 H1669 0.958 . S
C1655 H1670 0.961 . S
C1655 H1671 0.960 . S
H1656 C1640 0.931 . S
H1657 C1645 0.929 . S
H1658 C1646 0.960 . S
H1659 C1646 0.962 . S
H1660 C1646 0.960 . S
H1661 C1647 0.961 . S
H1662 C1647 0.961 . S
H1663 C1647 0.961 . S
H1664 C1648 0.931 . S
H1665 C1653 0.930 . S
H1666 C1654 0.956 . S
H1667 C1654 0.961 . S
H1668 C1654 0.961 . S
H1669 C1655 0.958 . S
H1670 C1655 0.961 . S
H1671 C1655 0.960 . S
C1672 C1673 1.391 . S
C1672 C1674 1.394 . S
C1672 H1688 0.931 . S
C1673 C1672 1.391 . S
C1673 C1677 1.376 . S
C1674 C1672 1.394 . S
C1674 C1675 1.369 . S
C1674 C1678 1.531 . S
C1675 C1674 1.369 . S
C1675 C1676 1.410 . S
C1675 C1683 1.503 . S
C1676 C1675 1.410 . S
C1676 C1677 1.392 . S
C1676 C1679 1.511 . S
C1677 C1673 1.376 . S
C1677 C1676 1.392 . S
C1677 H1689 0.929 . S
C1678 C1674 1.531 . S
C1678 H1690 0.960 . S
C1678 H1691 0.962 . S
C1678 H1692 0.960 . S
C1679 C1676 1.511 . S
C1679 H1693 0.961 . S
C1679 H1694 0.961 . S
C1679 H1695 0.961 . S
C1680 C1681 1.370 . S
C1680 C1682 1.363 . S
C1680 H1696 0.931 . S
C1681 C1680 1.370 . S
C1681 C1685 1.408 . S
C1682 C1680 1.363 . S
C1682 C1683 1.370 . S
C1682 C1686 1.524 . S
C1683 C1675 1.503 . S
C1683 C1682 1.370 . S
C1683 C1684 1.403 . S
C1684 C1683 1.403 . S
C1684 C1685 1.404 . S
C1684 C1687 1.539 . S
C1685 C1681 1.408 . S
C1685 C1684 1.404 . S
C1685 H1697 0.930 . S
C1686 C1682 1.524 . S
C1686 H1698 0.956 . S
C1686 H1699 0.961 . S
C1686 H1700 0.961 . S
C1687 C1684 1.539 . S
C1687 H1701 0.958 . S
C1687 H1702 0.961 . S
C1687 H1703 0.960 . S
H1688 C1672 0.931 . S
H1689 C1677 0.929 . S
H1690 C1678 0.960 . S
H1691 C1678 0.962 . S
H1692 C1678 0.960 . S
H1693 C1679 0.961 . S
H1694 C1679 0.961 . S
H1695 C1679 0.961 . S
H1696 C1680 0.931 . S
H1697 C1685 0.930 . S
H1698 C1686 0.956 . S
H1699 C1686 0.961 . S
H1700 C1686 0.961 . S
H1701 C1687 0.958 . S
H1702 C1687 0.961 . S
H1703 C1687 0.960 . S
C1704 C1705 1.391 . S
C1704 C1706 1.394 . S
C1704 H1720 0.931 . S
C1705 C1704 1.391 . S
C1705 C1709 1.376 . S
C1706 C1704 1.394 . S
C1706 C1707 1.369 . S
C1706 C1710 1.531 . S
C1707 C1706 1.369 . S
C1707 C1708 1.410 . S
C1707 C1715 1.503 . S
C1708 C1707 1.410 . S
C1708 C1709 1.392 . S
C1708 C1711 1.511 . S
C1709 C1705 1.376 . S
C1709 C1708 1.392 . S
C1709 H1721 0.929 . S
C1710 C1706 1.531 . S
C1710 H1722 0.960 . S
C1710 H1723 0.962 . S
C1710 H1724 0.960 . S
C1711 C1708 1.511 . S
C1711 H1725 0.961 . S
C1711 H1726 0.961 . S
C1711 H1727 0.961 . S
C1712 C1713 1.370 . S
C1712 C1714 1.363 . S
C1712 H1728 0.931 . S
C1713 C1712 1.370 . S
C1713 C1717 1.408 . S
C1714 C1712 1.363 . S
C1714 C1715 1.370 . S
C1714 C1718 1.524 . S
C1715 C1707 1.503 . S
C1715 C1714 1.370 . S
C1715 C1716 1.403 . S
C1716 C1715 1.403 . S
C1716 C1717 1.404 . S
C1716 C1719 1.539 . S
C1717 C1713 1.408 . S
C1717 C1716 1.404 . S
C1717 H1729 0.930 . S
C1718 C1714 1.524 . S
C1718 H1730 0.956 . S
C1718 H1731 0.961 . S
C1718 H1732 0.961 . S
C1719 C1716 1.539 . S
C1719 H1733 0.958 . S
C1719 H1734 0.961 . S
C1719 H1735 0.960 . S
H1720 C1704 0.931 . S
H1721 C1709 0.929 . S
H1722 C1710 0.960 . S
H1723 C1710 0.962 . S
H1724 C1710 0.960 . S
H1725 C1711 0.961 . S
H1726 C1711 0.961 . S
H1727 C1711 0.961 . S
H1728 C1712 0.931 . S
H1729 C1717 0.930 . S
H1730 C1718 0.956 . S
H1731 C1718 0.961 . S
H1732 C1718 0.961 . S
H1733 C1719 0.958 . S
H1734 C1719 0.961 . S
H1735 C1719 0.960 . S
C1736 C1737 1.391 . S
C1736 C1738 1.394 . S
C1736 H1752 0.931 . S
C1737 C1736 1.391 . S
C1737 C1741 1.376 . S
C1738 C1736 1.394 . S
C1738 C1739 1.369 . S
C1738 C1742 1.531 . S
C1739 C1738 1.369 . S
C1739 C1740 1.410 . S
C1739 C1747 1.503 . S
C1740 C1739 1.410 . S
C1740 C1741 1.392 . S
C1740 C1743 1.511 . S
C1741 C1737 1.376 . S
C1741 C1740 1.392 . S
C1741 H1753 0.929 . S
C1742 C1738 1.531 . S
C1742 H1754 0.960 . S
C1742 H1755 0.962 . S
C1742 H1756 0.960 . S
C1743 C1740 1.511 . S
C1743 H1757 0.961 . S
C1743 H1758 0.961 . S
C1743 H1759 0.961 . S
C1744 C1745 1.370 . S
C1744 C1746 1.363 . S
C1744 H1760 0.931 . S
C1745 C1744 1.370 . S
C1745 C1749 1.408 . S
C1746 C1744 1.363 . S
C1746 C1747 1.370 . S
C1746 C1750 1.524 . S
C1747 C1739 1.503 . S
C1747 C1746 1.370 . S
C1747 C1748 1.403 . S
C1748 C1747 1.403 . S
C1748 C1749 1.404 . S
C1748 C1751 1.539 . S
C1749 C1745 1.408 . S
C1749 C1748 1.404 . S
C1749 H1761 0.930 . S
C1750 C1746 1.524 . S
C1750 H1762 0.956 . S
C1750 H1763 0.961 . S
C1750 H1764 0.961 . S
C1751 C1748 1.539 . S
C1751 H1765 0.958 . S
C1751 H1766 0.961 . S
C1751 H1767 0.960 . S
H1752 C1736 0.931 . S
H1753 C1741 0.929 . S
H1754 C1742 0.960 . S
H1755 C1742 0.962 . S
H1756 C1742 0.960 . S
H1757 C1743 0.961 . S
H1758 C1743 0.961 . S
H1759 C1743 0.961 . S
H1760 C1744 0.931 . S
H1761 C1749 0.930 . S
H1762 C1750 0.956 . S
H1763 C1750 0.961 . S
H1764 C1750 0.961 . S
H1765 C1751 0.958 . S
H1766 C1751 0.961 . S
H1767 C1751 0.960 . S
C1768 C1769 1.391 . S
C1768 C1770 1.394 . S
C1768 H1784 0.931 . S
C1769 C1768 1.391 . S
C1769 C1773 1.376 . S
C1770 C1768 1.394 . S
C1770 C1771 1.369 . S
C1770 C1774 1.531 . S
C1771 C1770 1.369 . S
C1771 C1772 1.410 . S
C1771 C1779 1.503 . S
C1772 C1771 1.410 . S
C1772 C1773 1.392 . S
C1772 C1775 1.511 . S
C1773 C1769 1.376 . S
C1773 C1772 1.392 . S
C1773 H1785 0.929 . S
C1774 C1770 1.531 . S
C1774 H1786 0.960 . S
C1774 H1787 0.962 . S
C1774 H1788 0.960 . S
C1775 C1772 1.511 . S
C1775 H1789 0.961 . S
C1775 H1790 0.961 . S
C1775 H1791 0.961 . S
C1776 C1777 1.370 . S
C1776 C1778 1.363 . S
C1776 H1792 0.887 1_556 S
C1777 C1776 1.370 . S
C1777 C1781 1.408 . S
C1778 C1776 1.363 . S
C1778 C1779 1.370 . S
C1778 C1782 1.524 . S
C1779 C1771 1.503 . S
C1779 C1778 1.370 . S
C1779 C1780 1.403 . S
C1780 C1779 1.403 . S
C1780 C1781 1.404 . S
C1780 C1783 1.539 . S
C1781 C1777 1.408 . S
C1781 C1780 1.404 . S
C1781 H1793 0.930 . S
C1782 C1778 1.524 . S
C1782 H1794 0.956 . S
C1782 H1795 0.961 . S
C1782 H1796 0.961 1_556 S
C1783 C1780 1.539 . S
C1783 H1797 0.958 . S
C1783 H1798 0.961 . S
C1783 H1799 0.960 . S
H1784 C1768 0.931 . S
H1785 C1773 0.929 . S
H1786 C1774 0.960 . S
H1787 C1774 0.962 . S
H1788 C1774 0.960 . S
H1789 C1775 0.961 . S
H1790 C1775 0.961 . S
H1791 C1775 0.961 . S
H1792 C1776 0.887 1_554 S
H1793 C1781 0.930 . S
H1794 C1782 0.956 . S
H1795 C1782 0.961 . S
H1796 C1782 0.961 1_554 S
H1797 C1783 0.958 . S
H1798 C1783 0.961 . S
H1799 C1783 0.960 . S
C1800 C1801 1.391 . S
C1800 C1802 1.394 . S
C1800 H1816 0.931 . S
C1801 C1800 1.391 . S
C1801 C1805 1.376 . S
C1802 C1800 1.394 . S
C1802 C1803 1.369 . S
C1802 C1806 1.531 . S
C1803 C1802 1.369 . S
C1803 C1804 1.410 . S
C1803 C1811 1.503 . S
C1804 C1803 1.410 . S
C1804 C1805 1.392 . S
C1804 C1807 1.511 . S
C1805 C1801 1.376 . S
C1805 C1804 1.392 . S
C1805 H1817 0.929 . S
C1806 C1802 1.531 . S
C1806 H1818 0.960 . S
C1806 H1819 0.962 . S
C1806 H1820 0.960 . S
C1807 C1804 1.511 . S
C1807 H1821 0.961 . S
C1807 H1822 0.961 . S
C1807 H1823 0.961 . S
C1808 C1809 1.370 . S
C1808 C1810 1.363 . S
C1808 H1824 0.931 . S
C1809 C1808 1.370 . S
C1809 C1813 1.408 . S
C1810 C1808 1.363 . S
C1810 C1811 1.370 . S
C1810 C1814 1.524 . S
C1811 C1803 1.503 . S
C1811 C1810 1.370 . S
C1811 C1812 1.403 . S
C1812 C1811 1.403 . S
C1812 C1813 1.404 . S
C1812 C1815 1.539 . S
C1813 C1809 1.408 . S
C1813 C1812 1.404 . S
C1813 H1825 0.930 . S
C1814 C1810 1.524 . S
C1814 H1826 0.956 . S
C1814 H1827 0.961 . S
C1814 H1828 0.961 . S
C1815 C1812 1.539 . S
C1815 H1829 0.958 . S
C1815 H1830 0.961 . S
C1815 H1831 0.960 . S
H1816 C1800 0.931 . S
H1817 C1805 0.929 . S
H1818 C1806 0.960 . S
H1819 C1806 0.962 . S
H1820 C1806 0.960 . S
H1821 C1807 0.961 . S
H1822 C1807 0.961 . S
H1823 C1807 0.961 . S
H1824 C1808 0.931 . S
H1825 C1813 0.930 . S
H1826 C1814 0.956 . S
H1827 C1814 0.961 . S
H1828 C1814 0.961 . S
H1829 C1815 0.958 . S
H1830 C1815 0.961 . S
H1831 C1815 0.960 . S
C1832 C1833 1.391 . S
C1832 C1834 1.394 . S
C1832 H1848 0.931 . S
C1833 C1832 1.391 . S
C1833 C1837 1.376 . S
C1834 C1832 1.394 . S
C1834 C1835 1.369 . S
C1834 C1838 1.531 . S
C1835 C1834 1.369 . S
C1835 C1836 1.410 . S
C1835 C1843 1.503 . S
C1836 C1835 1.410 . S
C1836 C1837 1.392 . S
C1836 C1839 1.511 . S
C1837 C1833 1.376 . S
C1837 C1836 1.392 . S
C1837 H1849 0.929 . S
C1838 C1834 1.531 . S
C1838 H1850 0.960 . S
C1838 H1851 0.962 . S
C1838 H1852 0.960 . S
C1839 C1836 1.511 . S
C1839 H1853 0.961 . S
C1839 H1854 0.961 . S
C1839 H1855 0.961 . S
C1840 C1841 1.370 . S
C1840 C1842 1.363 . S
C1840 H1856 0.931 . S
C1841 C1840 1.370 . S
C1841 C1845 1.408 . S
C1842 C1840 1.363 . S
C1842 C1843 1.370 . S
C1842 C1846 1.524 . S
C1843 C1835 1.503 . S
C1843 C1842 1.370 . S
C1843 C1844 1.403 . S
C1844 C1843 1.403 . S
C1844 C1845 1.404 . S
C1844 C1847 1.539 . S
C1845 C1841 1.408 . S
C1845 C1844 1.404 . S
C1845 H1857 0.930 . S
C1846 C1842 1.524 . S
C1846 H1858 0.956 . S
C1846 H1859 0.961 . S
C1846 H1860 1.002 . S
C1847 C1844 1.539 . S
C1847 H1861 0.958 . S
C1847 H1862 0.961 . S
C1847 H1863 0.960 . S
H1848 C1832 0.931 . S
H1849 C1837 0.929 . S
H1850 C1838 0.960 . S
H1851 C1838 0.962 . S
H1852 C1838 0.960 . S
H1853 C1839 0.961 . S
H1854 C1839 0.961 . S
H1855 C1839 0.961 . S
H1856 C1840 0.931 . S
H1857 C1845 0.930 . S
H1858 C1846 0.956 . S
H1859 C1846 0.961 . S
H1860 C1846 1.002 . S
H1861 C1847 0.958 . S
H1862 C1847 0.961 . S
H1863 C1847 0.960 . S
C1864 C1865 1.391 . S
C1864 C1866 1.394 . S
C1864 H1880 0.931 . S
C1865 C1864 1.391 . S
C1865 C1869 1.376 . S
C1866 C1864 1.394 . S
C1866 C1867 1.369 . S
C1866 C1870 1.531 . S
C1867 C1866 1.369 . S
C1867 C1868 1.410 . S
C1867 C1875 1.503 . S
C1868 C1867 1.410 . S
C1868 C1869 1.392 . S
C1868 C1871 1.511 . S
C1869 C1865 1.376 . S
C1869 C1868 1.392 . S
C1869 H1881 0.929 . S
C1870 C1866 1.531 . S
C1870 H1882 0.960 . S
C1870 H1883 0.962 . S
C1870 H1884 0.960 . S
C1871 C1868 1.511 . S
C1871 H1885 0.961 . S
C1871 H1886 0.961 . S
C1871 H1887 0.961 . S
C1872 C1873 1.370 . S
C1872 C1874 1.363 . S
C1872 H1888 0.931 . S
C1873 C1872 1.370 . S
C1873 C1877 1.408 . S
C1874 C1872 1.363 . S
C1874 C1875 1.370 . S
C1874 C1878 1.524 . S
C1875 C1867 1.503 . S
C1875 C1874 1.370 . S
C1875 C1876 1.403 . S
C1876 C1875 1.403 . S
C1876 C1877 1.404 . S
C1876 C1879 1.539 . S
C1877 C1873 1.408 . S
C1877 C1876 1.404 . S
C1877 H1889 0.930 . S
C1878 C1874 1.524 . S
C1878 H1890 0.956 . S
C1878 H1891 0.961 . S
C1878 H1892 0.961 . S
C1879 C1876 1.539 . S
C1879 H1893 0.958 . S
C1879 H1894 0.961 . S
C1879 H1895 0.960 . S
H1880 C1864 0.931 . S
H1881 C1869 0.929 . S
H1882 C1870 0.960 . S
H1883 C1870 0.962 . S
H1884 C1870 0.960 . S
H1885 C1871 0.961 . S
H1886 C1871 0.961 . S
H1887 C1871 0.961 . S
H1888 C1872 0.931 . S
H1889 C1877 0.930 . S
H1890 C1878 0.956 . S
H1891 C1878 0.961 . S
H1892 C1878 0.961 . S
H1893 C1879 0.958 . S
H1894 C1879 0.961 . S
H1895 C1879 0.960 . S
C369 C200 1.827 1_556 S
C361 C66 1.842 . S
C401 C215 1.409 . S
C393 C76 1.451 . S
C425 C93 2.069 . S
C433 C228 2.056 . S
C465 C242 1.433 . S
C457 C54 1.443 . S
C497 C254 1.668 . S
C489 C126 1.743 . S
C529 C268 1.563 . S
C521 C150 1.571 . S
C553 C136 1.380 . S
C561 C282 1.376 . S
C593 C297 1.639 . S
C585 C117 1.706 . S
C617 C141 1.395 . S
C625 C313 1.356 . S
C657 C326 1.355 . S
C649 C112 1.369 . S
C681 C124 1.660 . S
C689 C311 1.589 . S
C721 C324 1.360 . S
C713 C148 1.310 . S
C745 C88 1.622 . S
C753 C340 1.618 . S
C777 C52 1.587 . S
C785 C339 1.590 . S
C809 C64 1.461 . S
C817 C338 1.411 . S
C841 C78 1.352 . S
C849 C341 1.302 . S
C873 C45 1.942 . S
C881 C243 1.930 . S
C905 C177 1.768 . S
C913 C241 1.738 . S
C945 C201 1.351 . S
C937 C189 1.370 . S
C977 C212 1.801 . S
C969 C102 1.841 . S
C1001 C57 1.643 1_545 S
C1009 C257 1.628 . S
C1041 C298 1.879 . S
C1033 C138 1.872 . S
C1073 C255 1.827 . S
C1065 C114 1.843 . S
C1105 C283 1.570 . S
C1097 C153 1.591 . S
C1137 C284 1.827 . S
C1129 C174 1.843 . S
C1161 C184 1.438 . S
C1169 C299 1.425 . S
C1193 C105 2.054 . S
C1201 C256 2.049 . S
C1233 C270 1.441 . S
C1225 C162 1.403 . S
C1257 C42 1.745 . S
C1265 C226 1.663 . S
C1297 C240 1.564 1_455 S
C1289 C6 1.572 . S
C1329 C198 1.379 . S
C1321 C16 1.387 . S
C1361 C213 1.656 . S
C1353 C33 1.709 . S
C1385 C21 1.365 . S
C1393 C327 1.368 . S
C1417 C28 1.339 . S
C1425 C312 1.354 . S
C1449 C40 1.644 . S
C1457 C325 1.591 . S
C1481 C4 1.360 . S
C1489 C310 1.345 . S
C1521 C354 1.619 . S
C1513 C100 1.628 . S
C1553 C353 1.580 . S
C1545 C160 1.607 . S
C1585 C352 1.411 . S
C1577 C172 1.450 . S
C1609 C186 1.350 . S
C1617 C355 1.308 . S
C1641 C129 1.934 . S
C1649 C271 1.935 . S
C1681 C269 1.725 . S
C1673 C69 1.765 . S
C1713 C285 1.350 . S
C1705 C81 1.371 . S
C1745 C296 1.799 . S
C1737 C90 1.843 . S
C1769 C165 1.651 . S
C1777 C229 1.635 . S
C1809 C214 1.880 . S
C1801 C18 1.873 . S
C1833 C30 1.840 . S
C1841 C227 1.826 . S
C1873 C199 1.569 1_545 S
C1865 C9 1.587 . S
