# Generated by pormake.
# Topology anh, (6,3)-cn, num edge types: 1
# Building blocks:
#     Node 0, Type 0, BuildingBlock: GEDQOX_clean_sbu_0, # of connection points: 6
#     Node 1, Type 0, BuildingBlock: GEDQOX_clean_sbu_0, # of connection points: 6
#     Node 2, Type 0, BuildingBlock: GEDQOX_clean_sbu_0, # of connection points: 6
#     Node 3, Type 1, BuildingBlock: MIDCAF_clean_linker_0, # of connection points: 3
#     Node 4, Type 1, BuildingBlock: MIDCAF_clean_linker_0, # of connection points: 3
#     Node 5, Type 1, BuildingBlock: MIDCAF_clean_linker_0, # of connection points: 3
#     Node 6, Type 1, BuildingBlock: MIDCAF_clean_linker_0, # of connection points: 3
#     Node 7, Type 1, BuildingBlock: MIDCAF_clean_linker_0, # of connection points: 3
#     Node 8, Type 1, BuildingBlock: MIDCAF_clean_linker_0, # of connection points: 3
#     Edge 9, Type (0, 1), BuildingBlock: AJUNOK_clean_linker_0, # of connection points: 2
#     Edge 10, Type (0, 1), BuildingBlock: AJUNOK_clean_linker_0, # of connection points: 2
#     Edge 11, Type (0, 1), BuildingBlock: AJUNOK_clean_linker_0, # of connection points: 2
#     Edge 12, Type (0, 1), BuildingBlock: AJUNOK_clean_linker_0, # of connection points: 2
#     Edge 13, Type (0, 1), BuildingBlock: AJUNOK_clean_linker_0, # of connection points: 2
#     Edge 14, Type (0, 1), BuildingBlock: AJUNOK_clean_linker_0, # of connection points: 2
#     Edge 15, Type (0, 1), BuildingBlock: AJUNOK_clean_linker_0, # of connection points: 2
#     Edge 16, Type (0, 1), BuildingBlock: AJUNOK_clean_linker_0, # of connection points: 2
#     Edge 17, Type (0, 1), BuildingBlock: AJUNOK_clean_linker_0, # of connection points: 2
#     Edge 18, Type (0, 1), BuildingBlock: AJUNOK_clean_linker_0, # of connection points: 2
#     Edge 19, Type (0, 1), BuildingBlock: AJUNOK_clean_linker_0, # of connection points: 2
#     Edge 20, Type (0, 1), BuildingBlock: AJUNOK_clean_linker_0, # of connection points: 2
#     Edge 21, Type (0, 1), BuildingBlock: AJUNOK_clean_linker_0, # of connection points: 2
#     Edge 22, Type (0, 1), BuildingBlock: AJUNOK_clean_linker_0, # of connection points: 2
#     Edge 23, Type (0, 1), BuildingBlock: AJUNOK_clean_linker_0, # of connection points: 2
#     Edge 24, Type (0, 1), BuildingBlock: AJUNOK_clean_linker_0, # of connection points: 2
#     Edge 25, Type (0, 1), BuildingBlock: AJUNOK_clean_linker_0, # of connection points: 2
#     Edge 26, Type (0, 1), BuildingBlock: AJUNOK_clean_linker_0, # of connection points: 2
# Relax obj value: 0.209
# Max RMSD: 0.226
# Mean RMSD: 0.166
data_MOF--net-anh--node1-GEDQOX_clean_sbu_0--node2-MIDCAF_clean_linker_0--edge1-AJUNOK_clean_linker_0
_symmetry_space_group_name_H-M    P1
_symmetry_Int_Tables_number       1
_symmetry_cell_setting            triclinic
loop_
_symmetry_equiv_pos_as_xyz
'x, y, z'
_cell_length_a     28.321297
_cell_length_b     27.607698
_cell_length_c     52.758722
_cell_angle_alpha  92.404612
_cell_angle_beta   91.021817
_cell_angle_gamma 101.35987
loop_
_atom_site_label
_atom_site_type_symbol
_atom_site_fract_x
_atom_site_fract_y
_atom_site_fract_z
_atom_type_partial_charge
Nd0 Nd 0.10891 0.60304 0.14613 0.0
Nd1 Nd 1.08641 0.49022 0.14217 0.0
C2 C 0.1456 0.69739 0.13993 0.0
C3 C 0.19266 0.72914 0.14651 0.0
C4 C 0.20884 0.7721 0.13336 0.0
C5 C 0.25414 0.80171 0.13926 0.0
C6 C 0.28381 0.78884 0.15851 0.0
C7 C 0.26754 0.74531 0.17138 0.0
C8 C 0.22249 0.71567 0.16538 0.0
C9 C 0.09557 0.5596 0.19171 0.0
C10 C 0.20026 0.54088 0.14386 0.0
C11 C 1.05516 0.39466 0.14859 0.0
C12 C 1.01189 0.36053 0.15659 0.0
C13 C 0.97392 0.37814 0.16819 0.0
C14 C 0.9345 0.34488 0.17714 0.0
C15 C 0.93273 0.29359 0.17481 0.0
C16 C 0.97027 0.27624 0.16256 0.0
C17 C 1.00953 0.30945 0.15358 0.0
C18 C 0.10081 0.53683 0.0972 0.0
C19 C 0.99572 0.55137 0.14365 0.0
O20 O 0.1461 0.6626 0.12239 0.0
O21 O 0.11874 0.68184 0.15904 0.0
O22 O 1.08124 0.60006 0.18664 0.0
O23 O 0.11843 0.54506 0.17356 0.0
O24 O 0.18562 0.58354 0.14208 0.0
O25 O 0.16874 0.49908 0.14602 0.0
O26 O 1.07823 0.42555 0.16622 0.0
O27 O 1.05236 0.415 0.1268 0.0
O28 O 0.11712 0.49706 0.10169 0.0
O29 O 1.07691 0.54844 0.11547 0.0
O30 O 1.01121 0.51068 0.14954 0.0
O31 O 1.02692 0.59153 0.13776 0.0
H32 H 0.18657 0.78259 0.11845 0.0
H33 H 0.2661 0.83437 0.12861 0.0
H34 H 0.28943 0.73447 0.18635 0.0
H35 H 0.21089 0.68223 0.17551 0.0
H36 H 0.9752 0.41751 0.17073 0.0
H37 H 0.90604 0.35923 0.18648 0.0
H38 H 0.96938 0.23692 0.16003 0.0
H39 H 1.03844 0.29522 0.1446 0.0
Nd40 Nd 0.54553 0.95875 0.52038 0.0
Nd41 Nd 0.65099 0.98236 0.5109 0.0
C42 C 0.45805 0.92067 0.53535 0.0
C43 C 0.42371 0.87552 0.52699 0.0
C44 C 0.38604 0.855 0.54252 0.0
C45 C 0.3536 0.81182 0.53435 0.0
C46 C 0.3584 0.78883 0.51047 0.0
C47 C 0.39668 0.80934 0.49518 0.0
C48 C 0.42911 0.85217 0.50339 0.0
C49 C 0.56659 0.9749 0.47051 0.0
C50 C 0.60445 0.86646 0.51154 0.0
C51 C 0.7391 0.01858 0.4961 0.0
C52 C 0.76742 0.06647 0.48876 0.0
C53 C 0.75548 0.08924 0.46683 0.0
C54 C 0.78353 0.13412 0.46007 0.0
C55 C 0.82361 0.15721 0.47521 0.0
C56 C 0.83525 0.13472 0.49721 0.0
C57 C 0.80749 0.08967 0.50386 0.0
C58 C 0.62888 0.9642 0.5604 0.0
C59 C 0.59176 0.07302 0.51997 0.0
O60 O 0.49719 0.9138 0.54698 0.0
O61 O 0.46675 0.95472 0.51862 0.0
O62 O 0.53071 0.98836 0.48177 0.0
O63 O 0.58804 0.95053 0.48496 0.0
O64 O 0.56524 0.88134 0.51917 0.0
O65 O 0.64274 0.89838 0.50479 0.0
O66 O 0.70441 0.99601 0.48054 0.0
O67 O 0.72744 0.01568 0.51992 0.0
O68 O 0.66281 0.948 0.54856 0.0
O69 O 0.60852 0.99036 0.54638 0.0
O70 O 0.62773 0.05823 0.50829 0.0
O71 O 0.55859 0.04118 0.5311 0.0
H72 H 0.38175 0.87229 0.56092 0.0
H73 H 0.325 0.7963 0.54673 0.0
H74 H 0.40122 0.79259 0.47667 0.0
H75 H 0.45836 0.86722 0.49125 0.0
H76 H 0.72474 0.07235 0.45481 0.0
H77 H 0.77394 0.15084 0.443 0.0
H78 H 0.8665 0.1514 0.50893 0.0
H79 H 0.81758 0.0727 0.52076 0.0
Nd80 Nd 0.52888 0.45153 0.82734 0.0
Nd81 Nd 0.63265 0.46877 0.84152 0.0
C82 C 0.4398 0.43687 0.80986 0.0
C83 C 0.40773 0.47267 0.81368 0.0
C84 C 0.39798 0.50148 0.79356 0.0
C85 C 0.38135 0.54538 0.7985 0.0
C86 C 0.37468 0.56094 0.8236 0.0
C87 C 0.38034 0.53013 0.84338 0.0
C88 C 0.39635 0.48626 0.83849 0.0
C89 C 0.54852 0.46997 0.87847 0.0
C90 C 0.5825 0.56589 0.83268 0.0
C91 C 0.72039 0.49644 0.86151 0.0
C92 C 0.76115 0.53714 0.85815 0.0
C93 C 0.8066 0.53393 0.86787 0.0
C94 C 0.84587 0.57231 0.8648 0.0
C95 C 0.84028 0.61442 0.85184 0.0
C96 C 0.79462 0.61749 0.84202 0.0
C97 C 0.75528 0.57886 0.845 0.0
C98 C 0.61454 0.45638 0.79001 0.0
C99 C 0.57849 0.3563 0.83455 0.0
O100 O 0.47663 0.45175 0.79552 0.0
O101 O 0.45192 0.41612 0.83022 0.0
O102 O 0.51702 0.48843 0.86596 0.0
O103 O 0.5676 0.44194 0.86422 0.0
O104 O 0.54416 0.53487 0.82347 0.0
O105 O 0.61959 0.54945 0.84225 0.0
O106 O 0.70988 0.46466 0.84222 0.0
O107 O 0.68232 0.50839 0.87181 0.0
O108 O 0.6473 0.43844 0.80176 0.0
O109 O 0.59425 0.48145 0.8052 0.0
O110 O 0.61152 0.38634 0.84871 0.0
O111 O 0.54705 0.37413 0.82075 0.0
H112 H 0.40662 0.49201 0.77429 0.0
H113 H 0.37672 0.56862 0.78297 0.0
H114 H 0.37445 0.54118 0.86284 0.0
H115 H 0.40316 0.46507 0.8545 0.0
H116 H 0.81162 0.50193 0.87803 0.0
H117 H 0.88045 0.56961 0.87314 0.0
H118 H 0.78942 0.64974 0.83214 0.0
H119 H 0.72032 0.58163 0.83721 0.0
C120 C 0.48135 0.88819 0.22001 0.0
C121 C 0.46627 0.90541 0.1972 0.0
C122 C 0.49254 0.94956 0.18805 0.0
C123 C 0.53259 0.97663 0.20189 0.0
H124 H 0.66949 0.07626 0.19761 0.0
H125 H 0.73606 0.13468 0.18033 0.0
H126 H 0.79857 0.16964 0.25565 0.0
H127 H 0.73276 0.11108 0.27303 0.0
H128 H 0.68669 0.04881 0.32054 0.0
H129 H 0.67785 0.04118 0.36654 0.0
H130 H 0.53356 0.95693 0.35383 0.0
H131 H 0.54192 0.96377 0.30829 0.0
H132 H 0.53059 0.90151 0.25179 0.0
H133 H 0.46162 0.85437 0.22753 0.0
H134 H 0.48175 0.96336 0.17038 0.0
H135 H 0.55162 1.01109 0.19474 0.0
N136 N 0.62096 0.02444 0.23184 0.0
N137 N 0.65446 0.04593 0.2729 0.0
N138 N 0.58436 0.98521 0.26703 0.0
C139 C 0.65603 0.05208 0.24739 0.0
C140 C 0.61855 0.01265 0.28284 0.0
C141 C 0.58519 0.99065 0.24162 0.0
C142 C 0.69574 0.08849 0.23675 0.0
C143 C 0.69739 0.09629 0.21054 0.0
C144 C 0.73541 0.12989 0.2006 0.0
C145 C 0.77279 0.15618 0.2166 0.0
C146 C 0.77077 0.14911 0.24279 0.0
C147 C 0.7328 0.11568 0.25275 0.0
C148 C 0.61497 1.00713 0.31065 0.0
C149 C 0.65318 0.02849 0.32755 0.0
C150 C 0.64829 0.02401 0.35381 0.0
C151 C 0.60493 0.9988 0.36353 0.0
C152 C 0.56719 0.97688 0.34671 0.0
C153 C 0.57217 0.98077 0.3206 0.0
C154 C 0.54639 0.96029 0.22529 0.0
C155 C 0.52071 0.91541 0.23396 0.0
C156 C 0.54842 0.29259 0.54859 0.0
C157 C 0.57871 0.28138 0.52935 0.0
C158 C 0.60859 0.32085 0.51771 0.0
C159 C 0.60922 0.37027 0.52585 0.0
H160 H 0.56923 0.53895 0.51447 0.0
H161 H 0.57162 0.6213 0.49786 0.0
H162 H 0.65437 0.68836 0.56414 0.0
H163 H 0.65192 0.60691 0.58072 0.0
H164 H 0.61735 0.55241 0.6344 0.0
H165 H 0.6208 0.54816 0.68071 0.0
H166 H 0.57567 0.38947 0.67344 0.0
H167 H 0.57255 0.39312 0.6276 0.0
H168 H 0.5266 0.34827 0.57229 0.0
H169 H 0.52586 0.26345 0.55849 0.0
H170 H 0.63242 0.31342 0.50284 0.0
H171 H 0.63424 0.39979 0.51753 0.0
N172 N 0.59604 0.47374 0.54725 0.0
N173 N 0.60337 0.51744 0.58703 0.0
N174 N 0.58775 0.43123 0.58505 0.0
C175 C 0.60352 0.51775 0.5612 0.0
C176 C 0.59537 0.47426 0.59907 0.0
C177 C 0.58814 0.4302 0.55939 0.0
C178 C 0.61008 0.56626 0.54901 0.0
C179 C 0.5886 0.57123 0.52525 0.0
C180 C 0.58966 0.61836 0.51585 0.0
C181 C 0.61286 0.66132 0.52983 0.0
C182 C 0.63633 0.65605 0.5529 0.0
C183 C 0.63468 0.60926 0.56244 0.0
C184 C 0.59528 0.47311 0.62717 0.0
C185 C 0.60804 0.51665 0.64267 0.0
C186 C 0.60992 0.51428 0.66915 0.0
C187 C 0.59932 0.4684 0.68052 0.0
C188 C 0.58512 0.42519 0.66511 0.0
C189 C 0.5832 0.42747 0.63879 0.0
C190 C 0.58039 0.38083 0.54596 0.0
C191 C 0.54909 0.34144 0.55665 0.0
C192 C 1.00764 0.77451 0.89913 0.0
C193 C 1.00786 0.76416 0.87284 0.0
C194 C 1.05138 0.77663 0.86008 0.0
C195 C 0.09473 0.79241 0.87384 0.0
H196 H 0.2395 0.80891 0.86596 0.0
H197 H 0.29115 0.77112 0.83805 0.0
H198 H 0.34701 0.70698 0.9026 0.0
H199 H 0.2974 0.74599 0.9305 0.0
H200 H 0.24073 0.7327 0.98153 0.0
H201 H 0.22556 0.6781 0.01701 0.0
H202 H 1.0729 0.67396 0.00822 0.0
H203 H 1.08784 0.72971 0.97371 0.0
H204 H 1.04959 0.79383 0.93335 0.0
H205 H 0.97461 0.76564 0.90951 0.0
H206 H 1.05233 0.7703 0.83971 0.0
H207 H 0.12808 0.79724 0.86366 0.0
N208 N 0.18218 0.79813 0.90364 0.0
N209 N 0.21592 0.76805 0.93917 0.0
N210 N 0.13547 0.7767 0.93908 0.0
C211 C 0.22082 0.78571 0.91546 0.0
C212 C 0.17343 0.76368 0.95118 0.0
C213 C 0.13946 0.79425 0.9154 0.0
C214 C 0.26276 0.7787 0.90036 0.0
C215 C 0.26403 0.78815 0.87433 0.0
C216 C 0.29334 0.76623 0.85827 0.0
C217 C 0.32143 0.73433 0.86799 0.0
C218 C 0.32527 0.73086 0.89442 0.0
C219 C 0.29646 0.75311 0.91048 0.0
C220 C 0.16556 0.73568 0.97466 0.0
C221 C 0.20399 0.72064 0.98737 0.0
C222 C 0.19526 0.68879 0.00747 0.0
C223 C 0.14794 0.6709 0.01508 0.0
C224 C 0.1098 0.68712 0.00286 0.0
C225 C 0.11848 0.71926 0.98303 0.0
C226 C 0.095 0.79593 0.90055 0.0
C227 C 1.0508 0.7904 0.91285 0.0
C228 C 0.23536 0.61111 0.43748 0.0
C229 C 0.22619 0.62056 0.46307 0.0
C230 C 0.18542 0.59248 0.47396 0.0
C231 C 0.15375 0.55629 0.45928 0.0
H232 H 1.0569 0.41205 0.46018 0.0
H233 H 0.99801 0.34438 0.47645 0.0
H234 H 0.9148 0.33326 0.40632 0.0
H235 H 0.97409 0.3996 0.38974 0.0
H236 H 1.02137 0.45132 0.34185 0.0
H237 H 1.02124 0.46235 0.29614 0.0
H238 H 0.17019 0.53688 0.30177 0.0
H239 H 0.17059 0.52656 0.34759 0.0
H240 H 0.21137 0.56978 0.40296 0.0
H241 H 0.26652 0.6324 0.42864 0.0
H242 H 0.17791 0.59878 0.49375 0.0
H243 H 0.12216 0.53582 0.46807 0.0
N244 N 1.09164 0.47919 0.4276 0.0
N245 N 1.06002 0.45162 0.38695 0.0
N246 N 0.12841 0.51487 0.39147 0.0
C247 C 1.05815 0.44843 0.41255 0.0
C248 C 0.09508 0.48452 0.37628 0.0
C249 C 0.12683 0.51266 0.41715 0.0
C250 C 1.02043 0.41094 0.42358 0.0
C251 C 1.02573 0.39557 0.44836 0.0
C252 C 0.99185 0.35701 0.45776 0.0
C253 C 0.95173 0.33362 0.44267 0.0
C254 C 0.94563 0.35025 0.41827 0.0
C255 C 0.97961 0.38832 0.4088 0.0
C256 C 0.09596 0.48832 0.34839 0.0
C257 C 1.05431 0.46958 0.33336 0.0
C258 C 1.05411 0.47584 0.30723 0.0
C259 C 0.09577 0.50008 0.29559 0.0
C260 C 0.13783 0.5175 0.31038 0.0
C261 C 0.13787 0.51194 0.33658 0.0
C262 C 0.16209 0.54795 0.43339 0.0
C263 C 0.20359 0.5754 0.42277 0.0
C264 C 0.62658 0.14183 0.80401 0.0
C265 C 0.59028 0.14885 0.82071 0.0
C266 C 0.55894 0.10714 0.82945 0.0
C267 C 0.56299 0.05925 0.82088 0.0
H268 H 0.66181 0.85835 0.78011 0.0
H269 H 0.65911 0.77565 0.79563 0.0
H270 H 0.53944 0.792 0.84243 0.0
H271 H 0.54304 0.87597 0.8274 0.0
H272 H 0.59054 0.87847 0.71833 0.0
H273 H 0.5926 0.87661 0.67213 0.0
H274 H 0.61565 0.03601 0.67386 0.0
H275 H 0.6124 0.03816 0.72 0.0
H276 H 0.65702 0.09032 0.78135 0.0
H277 H 0.65105 0.17329 0.79691 0.0
H278 H 0.53077 0.11168 0.84244 0.0
H279 H 0.53744 0.02769 0.82707 0.0
N280 N 0.59698 0.96232 0.80281 0.0
N281 N 0.60164 0.91854 0.76392 0.0
N282 N 0.59933 1.00262 0.76427 0.0
C283 C 0.59985 0.91934 0.78966 0.0
C284 C 0.6008 0.95984 0.75107 0.0
C285 C 0.59734 1.00431 0.78997 0.0
C286 C 0.6026 0.87343 0.80258 0.0
C287 C 0.63571 0.84479 0.79421 0.0
C288 C 0.63433 0.79761 0.80313 0.0
C289 C 0.5991 0.77761 0.82016 0.0
C290 C 0.56708 0.80687 0.82936 0.0
C291 C 0.56921 0.85478 0.82086 0.0
C292 C 0.60174 0.95849 0.72296 0.0
C293 C 0.5961 0.91319 0.70892 0.0
C294 C 0.59743 0.91206 0.68244 0.0
C295 C 0.60494 0.95621 0.66944 0.0
C296 C 0.60965 1.00141 0.68339 0.0
C297 C 0.60803 1.00257 0.70985 0.0
C298 C 0.59777 0.05272 0.80309 0.0
C299 C 0.62996 0.09439 0.79512 0.0
C300 C 0.75775 0.57298 0.14356 0.0
C301 C 0.78491 0.53996 0.13258 0.0
C302 C 0.76052 0.50203 0.11575 0.0
C303 C 0.71172 0.49853 0.10912 0.0
H304 H 0.5223 0.60492 0.13926 0.0
H305 H 0.43878 0.60801 0.15075 0.0
H306 H 0.39089 0.46142 0.11657 0.0
H307 H 0.47339 0.45836 0.10566 0.0
H308 H 0.50597 0.50124 0.03998 0.0
H309 H 0.49887 0.48818 0.99404 0.0
H310 H 0.6538 0.51422 0.98959 0.0
H311 H 0.66119 0.52604 0.03569 0.0
H312 H 0.68909 0.59613 0.14507 0.0
H313 H 0.7749 0.60229 0.15691 0.0
H314 H 0.77976 0.47595 0.1068 0.0
H315 H 0.69518 0.46985 0.09526 0.0
N316 N 0.59575 0.53597 0.12148 0.0
N317 N 0.54897 0.52494 0.08344 0.0
N318 N 0.63139 0.52562 0.08201 0.0
C319 C 0.55175 0.53193 0.10909 0.0
C320 C 0.5884 0.52227 0.06972 0.0
C321 C 0.63595 0.53239 0.10769 0.0
C322 C 0.50498 0.53079 0.12218 0.0
C323 C 0.49413 0.5727 0.13517 0.0
C324 C 0.44602 0.57471 0.14136 0.0
C325 C 0.40757 0.53474 0.13488 0.0
C326 C 0.4191 0.49248 0.12257 0.0
C327 C 0.46672 0.49066 0.11631 0.0
C328 C 0.58419 0.51457 0.04166 0.0
C329 C 0.53864 0.50409 0.0293 0.0
C330 C 0.5345 0.49671 0.00292 0.0
C331 C 0.57573 0.4997 0.98819 0.0
C332 C 0.62131 0.51054 0.00046 0.0
C333 C 0.6255 0.51766 0.02689 0.0
C334 C 0.68485 0.53231 0.1193 0.0
C335 C 0.70827 0.56906 0.1371 0.0
C336 C 0.28717 0.58054 0.13487 0.0
C337 C 0.2535 0.5399 0.14326 0.0
C338 C 0.33679 0.57932 0.13299 0.0
C339 C 0.35538 0.53744 0.13944 0.0
H340 H 0.27502 0.61334 0.12912 0.0
H341 H 0.36052 0.611 0.12565 0.0
S342 S 0.28422 0.42362 0.16566 0.0
N343 N 0.24392 0.45798 0.16015 0.0
N344 N 0.33623 0.45608 0.15691 0.0
C345 C 0.32244 0.49741 0.14883 0.0
C346 C 0.272 0.49854 0.15066 0.0
C347 C 0.87378 0.20505 0.44287 0.0
C348 C 0.85478 0.20332 0.4673 0.0
C349 C 0.90486 0.24742 0.43513 0.0
C350 C 0.91788 0.28981 0.45147 0.0
H351 H 0.86534 0.17301 0.42982 0.0
H352 H 0.91949 0.24662 0.41632 0.0
S353 S 0.8746 0.30529 0.5167 0.0
N354 N 0.84914 0.24807 0.50742 0.0
N355 N 0.90715 0.32827 0.49274 0.0
C356 C 0.89838 0.28886 0.47582 0.0
C357 C 0.86691 0.2455 0.48376 0.0
C358 C 0.62582 0.65452 0.84009 0.0
C359 C 0.58473 0.62019 0.83097 0.0
C360 C 0.62982 0.70563 0.83729 0.0
C361 C 0.59258 0.72443 0.82566 0.0
H362 H 0.65565 0.64188 0.84901 0.0
H363 H 0.66253 0.7306 0.84395 0.0
S364 S 0.47863 0.65147 0.79746 0.0
N365 N 0.5064 0.60973 0.80912 0.0
N366 N 0.51428 0.70545 0.80431 0.0
C367 C 0.55121 0.69095 0.81676 0.0
C368 C 0.54717 0.63898 0.81932 0.0
C369 C 0.90861 0.50576 0.14478 0.0
C370 C 0.94206 0.55054 0.14245 0.0
C371 C 0.85838 0.50306 0.14228 0.0
C372 C 0.83859 0.54506 0.13759 0.0
H373 H 0.92124 0.47194 0.14807 0.0
H374 H 0.83473 0.46741 0.14385 0.0
S375 S 0.90951 0.67183 0.13033 0.0
N376 N 0.95079 0.63845 0.13558 0.0
N377 N 0.85704 0.63321 0.13094 0.0
C378 C 0.87143 0.59032 0.13579 0.0
C379 C 0.92273 0.59307 0.13815 0.0
C380 C 0.34043 0.70385 0.48963 0.0
C381 C 0.32351 0.74396 0.50103 0.0
C382 C 0.30858 0.66322 0.47819 0.0
C383 C 0.25857 0.66103 0.47785 0.0
H384 H 0.37871 0.70424 0.48912 0.0
H385 H 0.32323 0.63367 0.46914 0.0
S386 S 0.19568 0.75629 0.50489 0.0
N387 N 0.25332 0.77884 0.51124 0.0
N388 N 0.19341 0.70206 0.48996 0.0
C389 C 0.24098 0.7001 0.48979 0.0
C390 C 0.27345 0.74167 0.50135 0.0
C391 C 0.62041 0.28548 0.84049 0.0
C392 C 0.57857 0.30236 0.8332 0.0
C393 C 0.62323 0.23541 0.83737 0.0
C394 C 0.58403 0.20002 0.82731 0.0
H395 H 0.652 0.31137 0.84783 0.0
H396 H 0.65676 0.22441 0.84233 0.0
S397 S 0.46513 0.22388 0.80684 0.0
N398 N 0.49613 0.27882 0.81655 0.0
N399 N 0.50149 0.18472 0.81097 0.0
C400 C 0.54133 0.21588 0.82092 0.0
C401 C 0.53859 0.26701 0.82376 0.0
C402 C 0.65054 0.79801 0.51616 0.0
C403 C 0.60617 0.81291 0.51261 0.0
C404 C 0.65256 0.74861 0.52079 0.0
C405 C 0.61037 0.71189 0.52159 0.0
H406 H 0.68395 0.82508 0.51651 0.0
H407 H 0.6874 0.73926 0.52435 0.0
S408 S 0.48528 0.7306 0.51186 0.0
N409 N 0.51906 0.786 0.50897 0.0
N410 N 0.52306 0.69352 0.51747 0.0
C411 C 0.56596 0.72581 0.51697 0.0
C412 C 0.5638 0.77615 0.51257 0.0
C413 C 0.87755 0.7034 0.86049 0.0
C414 C 0.88159 0.65634 0.85062 0.0
C415 C 0.91861 0.74047 0.86538 0.0
C416 C 0.96496 0.73169 0.86045 0.0
H417 H 0.84292 0.71044 0.86627 0.0
H418 H 0.91437 0.77503 0.87468 0.0
S419 S 0.99349 0.61702 0.83052 0.0
N420 N 0.93429 0.6051 0.83269 0.0
N421 N 1.0117 0.6741 0.84236 0.0
C422 C 0.96886 0.68626 0.84833 0.0
C423 C 0.92708 0.64866 0.84335 0.0
C424 C 0.37183 0.79871 0.1694 0.0
C425 C 0.33148 0.82054 0.16556 0.0
C426 C 0.41598 0.82685 0.17856 0.0
C427 C 0.42163 0.87799 0.18404 0.0
H428 H 0.36902 0.75932 0.16576 0.0
H429 H 0.44566 0.80827 0.18193 0.0
S430 S 0.32761 0.95321 0.17725 0.0
N431 N 0.30033 0.89663 0.16789 0.0
N432 N 0.38362 0.94954 0.18473 0.0
C433 C 0.38221 0.90065 0.1795 0.0
C434 C 0.33707 0.87195 0.17034 0.0
C435 C 0.6296 0.16364 0.52077 0.0
C436 C 0.58797 0.12601 0.52018 0.0
C437 C 0.6264 0.21395 0.52253 0.0
C438 C 0.58144 0.22854 0.52338 0.0
H439 H 0.66494 0.15417 0.52081 0.0
H440 H 0.65944 0.2415 0.52428 0.0
S441 S 0.46168 0.14437 0.51769 0.0
N442 N 0.50048 0.1069 0.5177 0.0
N443 N 0.49444 0.20096 0.52013 0.0
C444 C 0.53961 0.19116 0.52114 0.0
C445 C 0.54288 0.1401 0.51977 0.0
C446 C 0.39695 0.64302 0.84645 0.0
C447 C 0.36493 0.61049 0.82991 0.0
C448 C 0.38474 0.68628 0.85672 0.0
C449 C 0.33962 0.69794 0.85122 0.0
H450 H 0.4308 0.63376 0.85238 0.0
H451 H 0.40949 0.70907 0.87034 0.0
S452 S 0.24495 0.62631 0.8071 0.0
N453 N 0.2886 0.59452 0.80657 0.0
N454 N 0.26428 0.6749 0.82654 0.0
C455 C 0.30871 0.6673 0.83324 0.0
C456 C 0.32166 0.62362 0.82249 0.0
C457 C 0.84427 0.26083 0.17982 0.0
C458 C 0.89239 0.25826 0.18562 0.0
C459 C 0.80577 0.22741 0.18968 0.0
C460 C 0.814 0.19068 0.20598 0.0
H461 H 0.83633 0.28856 0.16736 0.0
H462 H 0.76928 0.23073 0.18475 0.0
S463 S 0.93327 0.16864 0.22721 0.0
N464 N 0.94607 0.21633 0.20893 0.0
N465 N 0.87389 0.1534 0.22722 0.0
C466 C 0.86194 0.18783 0.21196 0.0
C467 C 0.90105 0.2216 0.20182 0.0
C468 C 0.09258 0.61101 0.07379 0.0
C469 C 0.1133 0.56894 0.07561 0.0
C470 C 0.10469 0.64392 0.05446 0.0
C471 C 0.13763 0.63591 0.03587 0.0
H472 H 1.067 0.61904 0.08761 0.0
H473 H 1.08823 0.67616 0.05418 0.0
S474 S 0.20044 0.52992 0.03136 0.0
N475 N 0.16783 0.5204 0.05698 0.0
N476 N 0.1896 0.5816 0.01996 0.0
C477 C 0.1583 0.59362 0.03724 0.0
C478 C 0.14621 0.56018 0.05718 0.0
C479 C 0.61584 0.96525 0.4322 0.0
C480 C 0.5778 0.98346 0.44356 0.0
C481 C 0.62579 0.97183 0.40643 0.0
C482 C 0.59768 0.99639 0.39118 0.0
H483 H 0.63762 0.94513 0.44318 0.0
H484 H 0.65464 0.95637 0.39819 0.0
S485 S 0.49659 0.0543 0.412 0.0
N486 N 0.51392 0.02982 0.43773 0.0
N487 N 0.53232 0.04136 0.38938 0.0
C488 C 0.56051 0.01587 0.40243 0.0
C489 C 0.55063 1.00961 0.4286 0.0
C490 C 0.58304 0.48967 0.75118 0.0
C491 C 0.61032 0.45804 0.76211 0.0
C492 C 0.58009 0.49336 0.72477 0.0
C493 C 0.6038 0.46511 0.70841 0.0
H494 H 0.56418 0.51211 0.76308 0.0
H495 H 0.55865 0.51803 0.7171 0.0
S496 S 0.67999 0.37707 0.72743 0.0
N497 N 0.66149 0.39808 0.75449 0.0
N498 N 0.65597 0.40511 0.70494 0.0
C499 C 0.63103 0.43327 0.71909 0.0
C500 C 0.63425 0.42971 0.74592 0.0
C501 C 0.58928 0.98516 0.6003 0.0
C502 C 0.62103 0.95938 0.58788 0.0
C503 C 0.5837 0.9834 0.62664 0.0
C504 C 0.60938 0.95551 0.64144 0.0
H505 H 0.56918 1.0075 0.5897 0.0
H506 H 0.55923 1.00416 0.63551 0.0
S507 S 0.69632 0.88065 0.61797 0.0
N508 N 0.67759 0.90416 0.59228 0.0
N509 N 0.66759 0.90152 0.64172 0.0
C510 C 0.64055 0.92888 0.62916 0.0
C511 C 0.64624 0.93067 0.6024 0.0
C512 C 0.53289 0.50904 0.92017 0.0
C513 C 0.55738 0.47758 0.90624 0.0
C514 C 0.53941 0.51623 0.94656 0.0
C515 C 0.57077 0.49234 0.96008 0.0
H516 H 0.50825 0.5282 0.91066 0.0
H517 H 0.51982 0.54092 0.95644 0.0
S518 S 0.64326 0.40583 0.93252 0.0
N519 N 0.61448 0.42245 0.90787 0.0
N520 N 0.62623 0.43543 0.95752 0.0
C521 C 0.59581 0.46103 0.94635 0.0
C522 C 0.58919 0.45376 0.91943 0.0
C523 C 1.06159 0.55382 0.23479 0.0
C524 C 0.09407 0.5401 0.21733 0.0
C525 C 1.06139 0.5392 0.25987 0.0
C526 C 0.09416 0.51098 0.26845 0.0
H527 H 1.0365 0.5766 0.22913 0.0
H528 H 1.03643 0.55137 0.27286 0.0
S529 S 0.18489 0.46331 0.23005 0.0
N530 N 0.15834 0.49459 0.21005 0.0
N531 N 0.15851 0.46796 0.25749 0.0
C532 C 0.12612 0.49603 0.25111 0.0
C533 C 0.12585 0.51028 0.22543 0.0
loop_
_geom_bond_atom_site_label_1
_geom_bond_atom_site_label_2
_geom_bond_distance
_geom_bond_site_symmetry_2
_ccdc_geom_bond_type
Nd0 C2 2.836 . S
Nd0 O20 2.500 . S
Nd0 O21 2.492 . S
Nd0 O22 2.487 . S
Nd0 O23 2.682 . S
Nd0 O24 2.410 . S
Nd0 O29 2.414 . S
Nd0 O31 2.424 1_455 S
Nd1 C11 2.836 . S
Nd1 O23 2.414 1_655 S
Nd1 O25 2.424 1_655 S
Nd1 O26 2.500 . S
Nd1 O27 2.492 . S
Nd1 O28 2.487 . S
Nd1 O29 2.682 1_655 S
Nd1 O30 2.410 . S
C2 Nd0 2.836 . S
C2 C3 1.498 . S
C2 O20 1.258 . S
C2 O21 1.239 . S
C3 C2 1.498 . S
C3 C4 1.366 . S
C3 C8 1.407 . S
C4 C3 1.366 . S
C4 C5 1.392 . S
C4 H32 0.930 . S
C5 C4 1.392 . S
C5 C6 1.398 . S
C5 H33 0.929 . S
C6 C5 1.398 . S
C6 C7 1.352 . S
C7 C6 1.352 . S
C7 C8 1.384 . S
C7 H34 0.930 . S
C8 C3 1.407 . S
C8 C7 1.384 . S
C8 H35 0.929 . S
C9 O22 1.241 . S
C9 O23 1.273 . S
C10 O24 1.251 . S
C10 O25 1.268 . S
C11 Nd1 2.836 . S
C11 C12 1.498 . S
C11 O26 1.258 . S
C11 O27 1.239 . S
C12 C11 1.498 . S
C12 C13 1.366 . S
C12 C17 1.407 . S
C13 C12 1.366 . S
C13 C14 1.392 . S
C13 H36 0.930 . S
C14 C13 1.392 . S
C14 C15 1.398 . S
C14 H37 0.929 . S
C15 C14 1.398 . S
C15 C16 1.352 . S
C16 C15 1.352 . S
C16 C17 1.384 . S
C16 H38 0.930 . S
C17 C12 1.407 . S
C17 C16 1.384 . S
C17 H39 0.929 . S
C18 O28 1.241 1_455 S
C18 O29 1.273 . S
C19 O30 1.251 . S
C19 O31 1.268 . S
O20 Nd0 2.500 . S
O20 C2 1.258 . S
O21 Nd0 2.492 . S
O21 C2 1.239 . S
O22 Nd0 2.487 . S
O22 C9 1.241 . S
O23 Nd0 2.682 . S
O23 Nd1 2.414 1_455 S
O23 C9 1.273 . S
O24 Nd0 2.410 . S
O24 C10 1.251 . S
O25 Nd1 2.424 1_455 S
O25 C10 1.268 . S
O26 Nd1 2.500 . S
O26 C11 1.258 . S
O27 Nd1 2.492 . S
O27 C11 1.239 . S
O28 Nd1 2.487 . S
O28 C18 1.241 1_655 S
O29 Nd0 2.414 . S
O29 Nd1 2.682 1_455 S
O29 C18 1.273 . S
O30 Nd1 2.410 . S
O30 C19 1.251 . S
O31 Nd0 2.424 1_655 S
O31 C19 1.268 . S
H32 C4 0.930 . S
H33 C5 0.929 . S
H34 C7 0.930 . S
H35 C8 0.929 . S
H36 C13 0.930 . S
H37 C14 0.929 . S
H38 C16 0.930 . S
H39 C17 0.929 . S
Nd40 C42 2.840 . S
Nd40 O60 2.504 . S
Nd40 O61 2.495 . S
Nd40 O62 2.487 . S
Nd40 O63 2.681 1_565 S
Nd40 O64 2.415 . S
Nd40 O69 2.415 1_565 S
Nd40 O71 2.418 1_565 S
Nd41 C51 2.836 . S
Nd41 O63 2.414 . S
Nd41 O65 2.424 1_545 S
Nd41 O66 2.500 . S
Nd41 O67 2.492 . S
Nd41 O68 2.487 . S
Nd41 O69 2.682 . S
Nd41 O70 2.410 . S
C42 Nd40 2.840 . S
C42 C43 1.498 . S
C42 O60 1.258 . S
C42 O61 1.239 . S
C43 C42 1.498 . S
C43 C44 1.366 . S
C43 C48 1.407 . S
C44 C43 1.366 . S
C44 C45 1.392 . S
C44 H72 0.930 . S
C45 C44 1.392 . S
C45 C46 1.398 . S
C45 H73 0.929 . S
C46 C45 1.398 . S
C46 C47 1.352 . S
C47 C46 1.352 . S
C47 C48 1.384 . S
C47 H74 0.930 . S
C48 C43 1.407 . S
C48 C47 1.384 . S
C48 H75 0.929 . S
C49 O62 1.241 1_545 S
C49 O63 1.273 . S
C50 O64 1.251 . S
C50 O65 1.268 . S
C51 Nd41 2.836 . S
C51 C52 1.498 . S
C51 O66 1.258 . S
C51 O67 1.239 . S
C52 C51 1.498 . S
C52 C53 1.366 . S
C52 C57 1.407 . S
C53 C52 1.366 . S
C53 C54 1.392 . S
C53 H76 0.930 . S
C54 C53 1.392 . S
C54 C55 1.398 . S
C54 H77 0.929 . S
C55 C54 1.398 . S
C55 C56 1.352 . S
C56 C55 1.352 . S
C56 C57 1.384 . S
C56 H78 0.930 . S
C57 C52 1.407 . S
C57 C56 1.384 . S
C57 H79 0.929 . S
C58 O68 1.241 . S
C58 O69 1.273 . S
C59 O70 1.251 . S
C59 O71 1.268 . S
O60 Nd40 2.504 . S
O60 C42 1.258 . S
O61 Nd40 2.495 . S
O61 C42 1.239 . S
O62 Nd40 2.487 . S
O62 C49 1.241 1_565 S
O63 Nd40 2.681 1_545 S
O63 Nd41 2.414 . S
O63 C49 1.273 . S
O64 Nd40 2.415 . S
O64 C50 1.251 . S
O65 Nd41 2.424 1_565 S
O65 C50 1.268 . S
O66 Nd41 2.500 . S
O66 C51 1.258 . S
O67 Nd41 2.492 . S
O67 C51 1.239 . S
O68 Nd41 2.487 . S
O68 C58 1.241 . S
O69 Nd40 2.415 1_545 S
O69 Nd41 2.682 . S
O69 C58 1.273 . S
O70 Nd41 2.410 . S
O70 C59 1.251 . S
O71 Nd40 2.418 1_545 S
O71 C59 1.268 . S
H72 C44 0.930 . S
H73 C45 0.929 . S
H74 C47 0.930 . S
H75 C48 0.929 . S
H76 C53 0.930 . S
H77 C54 0.929 . S
H78 C56 0.930 . S
H79 C57 0.929 . S
Nd80 C82 2.836 . S
Nd80 O100 2.500 . S
Nd80 O101 2.492 . S
Nd80 O102 2.487 . S
Nd80 O103 2.682 . S
Nd80 O104 2.410 . S
Nd80 O109 2.414 . S
Nd80 O111 2.424 . S
Nd81 C91 2.836 . S
Nd81 O103 2.414 . S
Nd81 O105 2.424 . S
Nd81 O106 2.500 . S
Nd81 O107 2.492 . S
Nd81 O108 2.487 . S
Nd81 O109 2.682 . S
Nd81 O110 2.410 . S
C82 Nd80 2.836 . S
C82 C83 1.498 . S
C82 O100 1.258 . S
C82 O101 1.239 . S
C83 C82 1.498 . S
C83 C84 1.366 . S
C83 C88 1.407 . S
C84 C83 1.366 . S
C84 C85 1.392 . S
C84 H112 0.930 . S
C85 C84 1.392 . S
C85 C86 1.398 . S
C85 H113 0.929 . S
C86 C85 1.398 . S
C86 C87 1.352 . S
C87 C86 1.352 . S
C87 C88 1.384 . S
C87 H114 0.930 . S
C88 C83 1.407 . S
C88 C87 1.384 . S
C88 H115 0.929 . S
C89 O102 1.241 . S
C89 O103 1.273 . S
C90 O104 1.251 . S
C90 O105 1.268 . S
C91 Nd81 2.836 . S
C91 C92 1.498 . S
C91 O106 1.258 . S
C91 O107 1.239 . S
C92 C91 1.498 . S
C92 C93 1.366 . S
C92 C97 1.407 . S
C93 C92 1.366 . S
C93 C94 1.392 . S
C93 H116 0.930 . S
C94 C93 1.392 . S
C94 C95 1.398 . S
C94 H117 0.929 . S
C95 C94 1.398 . S
C95 C96 1.352 . S
C96 C95 1.352 . S
C96 C97 1.384 . S
C96 H118 0.930 . S
C97 C92 1.407 . S
C97 C96 1.384 . S
C97 H119 0.929 . S
C98 O108 1.241 . S
C98 O109 1.273 . S
C99 O110 1.251 . S
C99 O111 1.268 . S
O100 Nd80 2.500 . S
O100 C82 1.258 . S
O101 Nd80 2.492 . S
O101 C82 1.239 . S
O102 Nd80 2.487 . S
O102 C89 1.241 . S
O103 Nd80 2.682 . S
O103 Nd81 2.414 . S
O103 C89 1.273 . S
O104 Nd80 2.410 . S
O104 C90 1.251 . S
O105 Nd81 2.424 . S
O105 C90 1.268 . S
O106 Nd81 2.500 . S
O106 C91 1.258 . S
O107 Nd81 2.492 . S
O107 C91 1.239 . S
O108 Nd81 2.487 . S
O108 C98 1.241 . S
O109 Nd80 2.414 . S
O109 Nd81 2.682 . S
O109 C98 1.273 . S
O110 Nd81 2.410 . S
O110 C99 1.251 . S
O111 Nd80 2.424 . S
O111 C99 1.268 . S
H112 C84 0.930 . S
H113 C85 0.929 . S
H114 C87 0.930 . S
H115 C88 0.929 . S
H116 C93 0.930 . S
H117 C94 0.929 . S
H118 C96 0.930 . S
H119 C97 0.929 . S
C120 C121 1.384 . S
C120 H133 0.947 . S
C120 C155 1.382 . S
C121 C120 1.384 . S
C121 C122 1.378 . S
C122 C121 1.378 . S
C122 C123 1.378 . S
C122 H134 0.952 . S
C123 C122 1.378 . S
C123 H135 0.950 . S
C123 C154 1.383 . S
H124 C143 0.947 . S
H125 C144 0.946 . S
H126 C146 0.953 . S
H127 C147 0.945 . S
H128 C149 0.952 . S
H129 C150 0.949 . S
H130 C152 0.950 . S
H131 C153 0.948 . S
H132 C155 0.951 . S
H133 C120 0.947 . S
H134 C122 0.952 . S
H135 C123 0.950 . S
N136 C139 1.382 . S
N136 C141 1.363 1_545 S
N137 C139 1.371 . S
N137 C140 1.372 . S
N138 C140 1.361 1_565 S
N138 C141 1.377 . S
C139 N136 1.382 . S
C139 N137 1.371 . S
C139 C142 1.480 . S
C140 N137 1.372 . S
C140 N138 1.361 1_545 S
C140 C148 1.457 . S
C141 N136 1.363 1_565 S
C141 N138 1.377 . S
C141 C154 1.479 . S
C142 C139 1.480 . S
C142 C143 1.383 . S
C142 C147 1.385 . S
C143 H124 0.947 . S
C143 C142 1.383 . S
C143 C144 1.388 . S
C144 H125 0.946 . S
C144 C143 1.388 . S
C144 C145 1.384 . S
C145 C144 1.384 . S
C145 C146 1.377 . S
C146 H126 0.953 . S
C146 C145 1.377 . S
C146 C147 1.369 . S
C147 H127 0.945 . S
C147 C142 1.385 . S
C147 C146 1.369 . S
C148 C140 1.457 . S
C148 C149 1.372 . S
C148 C153 1.364 1_545 S
C149 H128 0.952 . S
C149 C148 1.372 . S
C149 C150 1.389 . S
C150 H129 0.949 . S
C150 C149 1.389 . S
C150 C151 1.387 . S
C151 C150 1.387 . S
C151 C152 1.372 1_545 S
C152 H130 0.950 . S
C152 C151 1.372 1_565 S
C152 C153 1.379 . S
C153 H131 0.948 . S
C153 C148 1.364 1_565 S
C153 C152 1.379 . S
C154 C123 1.383 . S
C154 C141 1.479 . S
C154 C155 1.398 . S
C155 C120 1.382 . S
C155 H132 0.951 . S
C155 C154 1.398 . S
C156 C157 1.384 . S
C156 H169 0.947 . S
C156 C191 1.382 . S
C157 C156 1.384 . S
C157 C158 1.378 . S
C158 C157 1.378 . S
C158 C159 1.378 . S
C158 H170 0.952 . S
C159 C158 1.378 . S
C159 H171 0.950 . S
C159 C190 1.383 . S
H160 C179 0.947 . S
H161 C180 0.946 . S
H162 C182 0.953 . S
H163 C183 0.945 . S
H164 C185 0.952 . S
H165 C186 0.949 . S
H166 C188 0.950 . S
H167 C189 0.948 . S
H168 C191 0.951 . S
H169 C156 0.947 . S
H170 C158 0.952 . S
H171 C159 0.950 . S
N172 C175 1.382 . S
N172 C177 1.363 . S
N173 C175 1.371 . S
N173 C176 1.372 . S
N174 C176 1.361 . S
N174 C177 1.377 . S
C175 N172 1.382 . S
C175 N173 1.371 . S
C175 C178 1.480 . S
C176 N173 1.372 . S
C176 N174 1.361 . S
C176 C184 1.457 . S
C177 N172 1.363 . S
C177 N174 1.377 . S
C177 C190 1.479 . S
C178 C175 1.480 . S
C178 C179 1.383 . S
C178 C183 1.385 . S
C179 H160 0.947 . S
C179 C178 1.383 . S
C179 C180 1.388 . S
C180 H161 0.946 . S
C180 C179 1.388 . S
C180 C181 1.384 . S
C181 C180 1.384 . S
C181 C182 1.377 . S
C182 H162 0.953 . S
C182 C181 1.377 . S
C182 C183 1.369 . S
C183 H163 0.945 . S
C183 C178 1.385 . S
C183 C182 1.369 . S
C184 C176 1.457 . S
C184 C185 1.372 . S
C184 C189 1.364 . S
C185 H164 0.952 . S
C185 C184 1.372 . S
C185 C186 1.389 . S
C186 H165 0.949 . S
C186 C185 1.389 . S
C186 C187 1.387 . S
C187 C186 1.387 . S
C187 C188 1.372 . S
C188 H166 0.950 . S
C188 C187 1.372 . S
C188 C189 1.379 . S
C189 H167 0.948 . S
C189 C184 1.364 . S
C189 C188 1.379 . S
C190 C159 1.383 . S
C190 C177 1.479 . S
C190 C191 1.398 . S
C191 C156 1.382 . S
C191 H168 0.951 . S
C191 C190 1.398 . S
C192 C193 1.384 . S
C192 H205 0.947 . S
C192 C227 1.382 . S
C193 C192 1.384 . S
C193 C194 1.378 . S
C194 C193 1.378 . S
C194 C195 1.378 . S
C194 H206 0.952 . S
C195 C194 1.378 . S
C195 H207 0.950 . S
C195 C226 1.383 . S
H196 C215 0.947 . S
H197 C216 0.946 . S
H198 C218 0.953 . S
H199 C219 0.945 . S
H200 C221 0.952 . S
H201 C222 0.949 . S
H202 C224 0.950 . S
H203 C225 0.948 . S
H204 C227 0.951 . S
H205 C192 0.947 . S
H206 C194 0.952 . S
H207 C195 0.950 . S
N208 C211 1.382 . S
N208 C213 1.363 1_455 S
N209 C211 1.371 . S
N209 C212 1.372 . S
N210 C212 1.361 1_655 S
N210 C213 1.377 . S
C211 N208 1.382 . S
C211 N209 1.371 . S
C211 C214 1.480 . S
C212 N209 1.372 . S
C212 N210 1.361 1_455 S
C212 C220 1.457 . S
C213 N208 1.363 1_655 S
C213 N210 1.377 . S
C213 C226 1.479 . S
C214 C211 1.480 . S
C214 C215 1.383 . S
C214 C219 1.385 . S
C215 H196 0.947 . S
C215 C214 1.383 . S
C215 C216 1.388 . S
C216 H197 0.946 . S
C216 C215 1.388 . S
C216 C217 1.384 . S
C217 C216 1.384 . S
C217 C218 1.377 . S
C218 H198 0.953 . S
C218 C217 1.377 . S
C218 C219 1.369 . S
C219 H199 0.945 . S
C219 C214 1.385 . S
C219 C218 1.369 . S
C220 C212 1.457 . S
C220 C221 1.372 . S
C220 C225 1.364 1_455 S
C221 H200 0.952 . S
C221 C220 1.372 . S
C221 C222 1.389 1_556 S
C222 H201 0.949 . S
C222 C221 1.389 1_554 S
C222 C223 1.387 . S
C223 C222 1.387 . S
C223 C224 1.372 1_455 S
C224 H202 0.950 . S
C224 C223 1.372 1_655 S
C224 C225 1.379 1_554 S
C225 H203 0.948 . S
C225 C220 1.364 1_655 S
C225 C224 1.379 1_556 S
C226 C195 1.383 . S
C226 C213 1.479 . S
C226 C227 1.398 . S
C227 C192 1.382 . S
C227 H204 0.951 . S
C227 C226 1.398 . S
C228 C229 1.384 . S
C228 H241 0.947 . S
C228 C263 1.382 . S
C229 C228 1.384 . S
C229 C230 1.378 . S
C230 C229 1.378 . S
C230 C231 1.378 . S
C230 H242 0.952 . S
C231 C230 1.378 . S
C231 H243 0.950 . S
C231 C262 1.383 . S
H232 C251 0.947 . S
H233 C252 0.946 . S
H234 C254 0.953 . S
H235 C255 0.945 . S
H236 C257 0.952 . S
H237 C258 0.949 . S
H238 C260 0.950 . S
H239 C261 0.948 . S
H240 C263 0.951 . S
H241 C228 0.947 . S
H242 C230 0.952 . S
H243 C231 0.950 . S
N244 C247 1.382 1_455 S
N244 C249 1.363 . S
N245 C247 1.371 . S
N245 C248 1.372 1_655 S
N246 C248 1.361 . S
N246 C249 1.377 . S
C247 N244 1.382 1_655 S
C247 N245 1.371 . S
C247 C250 1.480 . S
C248 N245 1.372 1_455 S
C248 N246 1.361 . S
C248 C256 1.457 . S
C249 N244 1.363 . S
C249 N246 1.377 . S
C249 C262 1.479 . S
C250 C247 1.480 . S
C250 C251 1.383 . S
C250 C255 1.385 . S
C251 H232 0.947 . S
C251 C250 1.383 . S
C251 C252 1.388 . S
C252 H233 0.946 . S
C252 C251 1.388 . S
C252 C253 1.384 . S
C253 C252 1.384 . S
C253 C254 1.377 . S
C254 H234 0.953 . S
C254 C253 1.377 . S
C254 C255 1.369 . S
C255 H235 0.945 . S
C255 C250 1.385 . S
C255 C254 1.369 . S
C256 C248 1.457 . S
C256 C257 1.372 1_455 S
C256 C261 1.364 . S
C257 H236 0.952 . S
C257 C256 1.372 1_655 S
C257 C258 1.389 . S
C258 H237 0.949 . S
C258 C257 1.389 . S
C258 C259 1.387 1_655 S
C259 C258 1.387 1_455 S
C259 C260 1.372 . S
C260 H238 0.950 . S
C260 C259 1.372 . S
C260 C261 1.379 . S
C261 H239 0.948 . S
C261 C256 1.364 . S
C261 C260 1.379 . S
C262 C231 1.383 . S
C262 C249 1.479 . S
C262 C263 1.398 . S
C263 C228 1.382 . S
C263 H240 0.951 . S
C263 C262 1.398 . S
C264 C265 1.384 . S
C264 H277 0.947 . S
C264 C299 1.382 . S
C265 C264 1.384 . S
C265 C266 1.378 . S
C266 C265 1.378 . S
C266 C267 1.378 . S
C266 H278 0.952 . S
C267 C266 1.378 . S
C267 H279 0.950 . S
C267 C298 1.383 . S
H268 C287 0.947 . S
H269 C288 0.946 . S
H270 C290 0.953 . S
H271 C291 0.945 . S
H272 C293 0.952 . S
H273 C294 0.949 . S
H274 C296 0.950 . S
H275 C297 0.948 . S
H276 C299 0.951 . S
H277 C264 0.947 . S
H278 C266 0.952 . S
H279 C267 0.950 . S
N280 C283 1.382 1_545 S
N280 C285 1.363 . S
N281 C283 1.371 . S
N281 C284 1.372 1_565 S
N282 C284 1.361 . S
N282 C285 1.377 . S
C283 N280 1.382 1_565 S
C283 N281 1.371 . S
C283 C286 1.480 . S
C284 N281 1.372 1_545 S
C284 N282 1.361 . S
C284 C292 1.457 . S
C285 N280 1.363 . S
C285 N282 1.377 . S
C285 C298 1.479 . S
C286 C283 1.480 . S
C286 C287 1.383 . S
C286 C291 1.385 . S
C287 H268 0.947 . S
C287 C286 1.383 . S
C287 C288 1.388 . S
C288 H269 0.946 . S
C288 C287 1.388 . S
C288 C289 1.384 . S
C289 C288 1.384 . S
C289 C290 1.377 . S
C290 H270 0.953 . S
C290 C289 1.377 . S
C290 C291 1.369 . S
C291 H271 0.945 . S
C291 C286 1.385 . S
C291 C290 1.369 . S
C292 C284 1.457 . S
C292 C293 1.372 1_545 S
C292 C297 1.364 . S
C293 H272 0.952 . S
C293 C292 1.372 1_565 S
C293 C294 1.389 . S
C294 H273 0.949 . S
C294 C293 1.389 . S
C294 C295 1.387 1_565 S
C295 C294 1.387 1_545 S
C295 C296 1.372 . S
C296 H274 0.950 . S
C296 C295 1.372 . S
C296 C297 1.379 . S
C297 H275 0.948 . S
C297 C292 1.364 . S
C297 C296 1.379 . S
C298 C267 1.383 . S
C298 C285 1.479 . S
C298 C299 1.398 . S
C299 C264 1.382 . S
C299 H276 0.951 . S
C299 C298 1.398 . S
C300 C301 1.384 . S
C300 H313 0.947 . S
C300 C335 1.382 . S
C301 C300 1.384 . S
C301 C302 1.378 . S
C302 C301 1.378 . S
C302 C303 1.378 . S
C302 H314 0.952 . S
C303 C302 1.378 . S
C303 H315 0.950 . S
C303 C334 1.383 . S
H304 C323 0.947 . S
H305 C324 0.946 . S
H306 C326 0.953 . S
H307 C327 0.945 . S
H308 C329 0.952 . S
H309 C330 0.949 . S
H310 C332 0.950 . S
H311 C333 0.948 . S
H312 C335 0.951 . S
H313 C300 0.947 . S
H314 C302 0.952 . S
H315 C303 0.950 . S
N316 C319 1.382 . S
N316 C321 1.363 . S
N317 C319 1.371 . S
N317 C320 1.372 . S
N318 C320 1.361 . S
N318 C321 1.377 . S
C319 N316 1.382 . S
C319 N317 1.371 . S
C319 C322 1.480 . S
C320 N317 1.372 . S
C320 N318 1.361 . S
C320 C328 1.457 . S
C321 N316 1.363 . S
C321 N318 1.377 . S
C321 C334 1.479 . S
C322 C319 1.480 . S
C322 C323 1.383 . S
C322 C327 1.385 . S
C323 H304 0.947 . S
C323 C322 1.383 . S
C323 C324 1.388 . S
C324 H305 0.946 . S
C324 C323 1.388 . S
C324 C325 1.384 . S
C325 C324 1.384 . S
C325 C326 1.377 . S
C326 H306 0.953 . S
C326 C325 1.377 . S
C326 C327 1.369 . S
C327 H307 0.945 . S
C327 C322 1.385 . S
C327 C326 1.369 . S
C328 C320 1.457 . S
C328 C329 1.372 . S
C328 C333 1.364 . S
C329 H308 0.952 . S
C329 C328 1.372 . S
C329 C330 1.389 . S
C330 H309 0.949 . S
C330 C329 1.389 . S
C330 C331 1.371 1_554 S
C331 C330 1.371 1_556 S
C331 C332 1.357 1_556 S
C332 H310 0.950 . S
C332 C331 1.357 1_554 S
C332 C333 1.379 . S
C333 H311 0.948 . S
C333 C328 1.364 . S
C333 C332 1.379 . S
C334 C303 1.383 . S
C334 C321 1.479 . S
C334 C335 1.398 . S
C335 C300 1.382 . S
C335 H312 0.951 . S
C335 C334 1.398 . S
C336 C337 1.369 . S
C336 C338 1.419 . S
C336 H340 0.930 . S
C337 C336 1.369 . S
C337 C346 1.429 . S
C338 C336 1.419 . S
C338 C339 1.363 . S
C338 H341 0.929 . S
C339 C338 1.363 . S
C339 C345 1.428 . S
H340 C336 0.930 . S
H341 C338 0.929 . S
S342 N343 1.613 . S
S342 N344 1.610 . S
N343 S342 1.613 . S
N343 C346 1.350 . S
N344 S342 1.610 . S
N344 C345 1.351 . S
C345 C339 1.428 . S
C345 N344 1.351 . S
C345 C346 1.434 . S
C346 C337 1.429 . S
C346 N343 1.350 . S
C346 C345 1.434 . S
C347 C348 1.369 . S
C347 C349 1.419 . S
C347 H351 0.930 . S
C348 C347 1.369 . S
C348 C357 1.429 . S
C349 C347 1.419 . S
C349 C350 1.363 . S
C349 H352 0.929 . S
C350 C349 1.363 . S
C350 C356 1.428 . S
H351 C347 0.930 . S
H352 C349 0.929 . S
S353 N354 1.613 . S
S353 N355 1.610 . S
N354 S353 1.613 . S
N354 C357 1.350 . S
N355 S353 1.610 . S
N355 C356 1.351 . S
C356 C350 1.428 . S
C356 N355 1.351 . S
C356 C357 1.434 . S
C357 C348 1.429 . S
C357 N354 1.350 . S
C357 C356 1.434 . S
C358 C359 1.369 . S
C358 C360 1.419 . S
C358 H362 0.930 . S
C359 C358 1.369 . S
C359 C368 1.429 . S
C360 C358 1.419 . S
C360 C361 1.363 . S
C360 H363 0.929 . S
C361 C360 1.363 . S
C361 C367 1.428 . S
H362 C358 0.930 . S
H363 C360 0.929 . S
S364 N365 1.613 . S
S364 N366 1.610 . S
N365 S364 1.613 . S
N365 C368 1.350 . S
N366 S364 1.610 . S
N366 C367 1.351 . S
C367 C361 1.428 . S
C367 N366 1.351 . S
C367 C368 1.434 . S
C368 C359 1.429 . S
C368 N365 1.350 . S
C368 C367 1.434 . S
C369 C370 1.369 . S
C369 C371 1.419 . S
C369 H373 0.930 . S
C370 C369 1.369 . S
C370 C379 1.429 . S
C371 C369 1.419 . S
C371 C372 1.363 . S
C371 H374 0.929 . S
C372 C371 1.363 . S
C372 C378 1.428 . S
H373 C369 0.930 . S
H374 C371 0.929 . S
S375 N376 1.613 . S
S375 N377 1.610 . S
N376 S375 1.613 . S
N376 C379 1.350 . S
N377 S375 1.610 . S
N377 C378 1.351 . S
C378 C372 1.428 . S
C378 N377 1.351 . S
C378 C379 1.434 . S
C379 C370 1.429 . S
C379 N376 1.350 . S
C379 C378 1.434 . S
C380 C381 1.369 . S
C380 C382 1.419 . S
C380 H384 0.930 . S
C381 C380 1.369 . S
C381 C390 1.429 . S
C382 C380 1.419 . S
C382 C383 1.363 . S
C382 H385 0.929 . S
C383 C382 1.363 . S
C383 C389 1.428 . S
H384 C380 0.930 . S
H385 C382 0.929 . S
S386 N387 1.613 . S
S386 N388 1.610 . S
N387 S386 1.613 . S
N387 C390 1.350 . S
N388 S386 1.610 . S
N388 C389 1.351 . S
C389 C383 1.428 . S
C389 N388 1.351 . S
C389 C390 1.434 . S
C390 C381 1.429 . S
C390 N387 1.350 . S
C390 C389 1.434 . S
C391 C392 1.369 . S
C391 C393 1.419 . S
C391 H395 0.930 . S
C392 C391 1.369 . S
C392 C401 1.429 . S
C393 C391 1.419 . S
C393 C394 1.363 . S
C393 H396 0.929 . S
C394 C393 1.363 . S
C394 C400 1.428 . S
H395 C391 0.930 . S
H396 C393 0.929 . S
S397 N398 1.613 . S
S397 N399 1.610 . S
N398 S397 1.613 . S
N398 C401 1.350 . S
N399 S397 1.610 . S
N399 C400 1.351 . S
C400 C394 1.428 . S
C400 N399 1.351 . S
C400 C401 1.434 . S
C401 C392 1.429 . S
C401 N398 1.350 . S
C401 C400 1.434 . S
C402 C403 1.369 . S
C402 C404 1.419 . S
C402 H406 0.930 . S
C403 C402 1.369 . S
C403 C412 1.429 . S
C404 C402 1.419 . S
C404 C405 1.363 . S
C404 H407 0.929 . S
C405 C404 1.363 . S
C405 C411 1.428 . S
H406 C402 0.930 . S
H407 C404 0.929 . S
S408 N409 1.613 . S
S408 N410 1.610 . S
N409 S408 1.613 . S
N409 C412 1.350 . S
N410 S408 1.610 . S
N410 C411 1.351 . S
C411 C405 1.428 . S
C411 N410 1.351 . S
C411 C412 1.434 . S
C412 C403 1.429 . S
C412 N409 1.350 . S
C412 C411 1.434 . S
C413 C414 1.369 . S
C413 C415 1.419 . S
C413 H417 0.930 . S
C414 C413 1.369 . S
C414 C423 1.429 . S
C415 C413 1.419 . S
C415 C416 1.363 . S
C415 H418 0.929 . S
C416 C415 1.363 . S
C416 C422 1.428 . S
H417 C413 0.930 . S
H418 C415 0.929 . S
S419 N420 1.613 . S
S419 N421 1.610 . S
N420 S419 1.613 . S
N420 C423 1.350 . S
N421 S419 1.610 . S
N421 C422 1.351 . S
C422 C416 1.428 . S
C422 N421 1.351 . S
C422 C423 1.434 . S
C423 C414 1.429 . S
C423 N420 1.350 . S
C423 C422 1.434 . S
C424 C425 1.369 . S
C424 C426 1.419 . S
C424 H428 0.930 . S
C425 C424 1.369 . S
C425 C434 1.429 . S
C426 C424 1.419 . S
C426 C427 1.363 . S
C426 H429 0.929 . S
C427 C426 1.363 . S
C427 C433 1.428 . S
H428 C424 0.930 . S
H429 C426 0.929 . S
S430 N431 1.613 . S
S430 N432 1.610 . S
N431 S430 1.613 . S
N431 C434 1.350 . S
N432 S430 1.610 . S
N432 C433 1.351 . S
C433 C427 1.428 . S
C433 N432 1.351 . S
C433 C434 1.434 . S
C434 C425 1.429 . S
C434 N431 1.350 . S
C434 C433 1.434 . S
C435 C436 1.369 . S
C435 C437 1.419 . S
C435 H439 0.930 . S
C436 C435 1.369 . S
C436 C445 1.429 . S
C437 C435 1.419 . S
C437 C438 1.363 . S
C437 H440 0.929 . S
C438 C437 1.363 . S
C438 C444 1.428 . S
H439 C435 0.930 . S
H440 C437 0.929 . S
S441 N442 1.613 . S
S441 N443 1.610 . S
N442 S441 1.613 . S
N442 C445 1.350 . S
N443 S441 1.610 . S
N443 C444 1.351 . S
C444 C438 1.428 . S
C444 N443 1.351 . S
C444 C445 1.434 . S
C445 C436 1.429 . S
C445 N442 1.350 . S
C445 C444 1.434 . S
C446 C447 1.369 . S
C446 C448 1.419 . S
C446 H450 0.930 . S
C447 C446 1.369 . S
C447 C456 1.429 . S
C448 C446 1.419 . S
C448 C449 1.363 . S
C448 H451 0.929 . S
C449 C448 1.363 . S
C449 C455 1.428 . S
H450 C446 0.930 . S
H451 C448 0.929 . S
S452 N453 1.613 . S
S452 N454 1.610 . S
N453 S452 1.613 . S
N453 C456 1.350 . S
N454 S452 1.610 . S
N454 C455 1.351 . S
C455 C449 1.428 . S
C455 N454 1.351 . S
C455 C456 1.434 . S
C456 C447 1.429 . S
C456 N453 1.350 . S
C456 C455 1.434 . S
C457 C458 1.369 . S
C457 C459 1.419 . S
C457 H461 0.930 . S
C458 C457 1.369 . S
C458 C467 1.429 . S
C459 C457 1.419 . S
C459 C460 1.363 . S
C459 H462 0.929 . S
C460 C459 1.363 . S
C460 C466 1.428 . S
H461 C457 0.930 . S
H462 C459 0.929 . S
S463 N464 1.613 . S
S463 N465 1.610 . S
N464 S463 1.613 . S
N464 C467 1.350 . S
N465 S463 1.610 . S
N465 C466 1.351 . S
C466 C460 1.428 . S
C466 N465 1.351 . S
C466 C467 1.434 . S
C467 C458 1.429 . S
C467 N464 1.350 . S
C467 C466 1.434 . S
C468 C469 1.369 . S
C468 C470 1.419 . S
C468 H472 0.930 . S
C469 C468 1.369 . S
C469 C478 1.429 . S
C470 C468 1.419 . S
C470 C471 1.363 . S
C470 H473 0.929 . S
C471 C470 1.363 . S
C471 C477 1.428 . S
H472 C468 0.930 . S
H473 C470 0.929 . S
S474 N475 1.613 . S
S474 N476 1.610 . S
N475 S474 1.613 . S
N475 C478 1.350 1_655 S
N476 S474 1.610 . S
N476 C477 1.351 1_655 S
C477 C471 1.428 . S
C477 N476 1.351 1_455 S
C477 C478 1.434 . S
C478 C469 1.429 . S
C478 N475 1.350 1_455 S
C478 C477 1.434 . S
C479 C480 1.369 . S
C479 C481 1.419 . S
C479 H483 0.930 . S
C480 C479 1.369 . S
C480 C489 1.429 . S
C481 C479 1.419 . S
C481 C482 1.363 . S
C481 H484 0.929 . S
C482 C481 1.363 . S
C482 C488 1.428 . S
H483 C479 0.930 . S
H484 C481 0.929 . S
S485 N486 1.613 . S
S485 N487 1.610 . S
N486 S485 1.613 . S
N486 C489 1.350 1_565 S
N487 S485 1.610 . S
N487 C488 1.351 1_565 S
C488 C482 1.428 . S
C488 N487 1.351 1_545 S
C488 C489 1.434 . S
C489 C480 1.429 . S
C489 N486 1.350 1_545 S
C489 C488 1.434 . S
C490 C491 1.369 . S
C490 C492 1.419 . S
C490 H494 0.930 . S
C491 C490 1.369 . S
C491 C500 1.429 . S
C492 C490 1.419 . S
C492 C493 1.363 . S
C492 H495 0.929 . S
C493 C492 1.363 . S
C493 C499 1.428 . S
H494 C490 0.930 . S
H495 C492 0.929 . S
S496 N497 1.613 . S
S496 N498 1.610 . S
N497 S496 1.613 . S
N497 C500 1.350 . S
N498 S496 1.610 . S
N498 C499 1.351 . S
C499 C493 1.428 . S
C499 N498 1.351 . S
C499 C500 1.434 . S
C500 C491 1.429 . S
C500 N497 1.350 . S
C500 C499 1.434 . S
C501 C502 1.369 . S
C501 C503 1.419 . S
C501 H505 0.930 . S
C502 C501 1.369 . S
C502 C511 1.429 1_545 S
C503 C501 1.419 . S
C503 C504 1.380 . S
C503 H506 0.929 . S
C504 C503 1.380 . S
C504 C510 1.414 1_545 S
H505 C501 0.930 . S
H506 C503 0.929 . S
S507 N508 1.613 . S
S507 N509 1.610 . S
N508 S507 1.613 . S
N508 C511 1.350 . S
N509 S507 1.610 . S
N509 C510 1.351 . S
C510 C504 1.414 1_565 S
C510 N509 1.351 . S
C510 C511 1.434 . S
C511 C502 1.429 1_565 S
C511 N508 1.350 . S
C511 C510 1.434 . S
C512 C513 1.369 . S
C512 C514 1.419 . S
C512 H516 0.930 . S
C513 C512 1.369 . S
C513 C522 1.429 . S
C514 C512 1.419 . S
C514 C515 1.363 . S
C514 H517 0.929 . S
C515 C514 1.363 . S
C515 C521 1.428 . S
H516 C512 0.930 . S
H517 C514 0.929 . S
S518 N519 1.613 . S
S518 N520 1.610 . S
N519 S518 1.613 . S
N519 C522 1.350 . S
N520 S518 1.610 . S
N520 C521 1.351 . S
C521 C515 1.428 . S
C521 N520 1.351 . S
C521 C522 1.434 . S
C522 C513 1.429 . S
C522 N519 1.350 . S
C522 C521 1.434 . S
C523 C524 1.369 1_655 S
C523 C525 1.419 . S
C523 H527 0.930 . S
C524 C523 1.369 1_455 S
C524 C533 1.429 . S
C525 C523 1.419 . S
C525 C526 1.363 1_655 S
C525 H528 0.929 . S
C526 C525 1.363 1_455 S
C526 C532 1.428 . S
H527 C523 0.930 . S
H528 C525 0.929 . S
S529 N530 1.613 . S
S529 N531 1.610 . S
N530 S529 1.613 . S
N530 C533 1.350 . S
N531 S529 1.610 . S
N531 C532 1.351 . S
C532 C526 1.428 . S
C532 N531 1.351 . S
C532 C533 1.434 . S
C533 C524 1.429 . S
C533 N530 1.350 . S
C533 C532 1.434 . S
C337 C10 3.185 . S
C339 C325 3.089 . S
C348 C55 1.295 . S
C350 C253 1.325 . S
C359 C90 2.006 . S
C361 C289 1.937 . S
C370 C19 3.102 . S
C372 C301 3.061 . S
C383 C229 1.390 . S
C381 C46 1.354 . S
C394 C265 2.125 . S
C392 C99 2.194 . S
C403 C50 2.011 . S
C405 C181 1.919 . S
C414 C95 0.908 . S
C416 C193 0.946 . S
C425 C6 1.371 . S
C427 C121 1.387 . S
C438 C157 2.078 . S
C436 C59 2.163 . S
C449 C217 0.570 . S
C447 C86 0.657 . S
C458 C15 1.403 . S
C460 C145 1.422 . S
C471 C223 1.083 . S
C469 C18 1.099 . S
C480 C49 1.454 . S
C482 C151 1.482 . S
C491 C98 1.325 . S
C493 C187 1.352 . S
C504 C295 1.367 . S
C502 C58 1.333 . S
C515 C331 1.824 . S
C513 C89 1.719 . S
C524 C9 1.455 . S
C526 C259 1.502 . S
