# Generated by pormake.
# Topology zzz, (3,6)-cn, num edge types: 1
# Building blocks:
#     Node 0, Type 0, BuildingBlock: VETTIZ_charged_linker_0, # of connection points: 3
#     Node 1, Type 0, BuildingBlock: VETTIZ_charged_linker_0, # of connection points: 3
#     Node 2, Type 0, BuildingBlock: VETTIZ_charged_linker_0, # of connection points: 3
#     Node 3, Type 0, BuildingBlock: VETTIZ_charged_linker_0, # of connection points: 3
#     Node 4, Type 0, BuildingBlock: VETTIZ_charged_linker_0, # of connection points: 3
#     Node 5, Type 0, BuildingBlock: VETTIZ_charged_linker_0, # of connection points: 3
#     Node 6, Type 0, BuildingBlock: VETTIZ_charged_linker_0, # of connection points: 3
#     Node 7, Type 0, BuildingBlock: VETTIZ_charged_linker_0, # of connection points: 3
#     Node 8, Type 1, BuildingBlock: KUMBUR_clean_sbu_1, # of connection points: 6
#     Node 9, Type 1, BuildingBlock: KUMBUR_clean_sbu_1, # of connection points: 6
#     Node 10, Type 1, BuildingBlock: KUMBUR_clean_sbu_1, # of connection points: 6
#     Node 11, Type 1, BuildingBlock: KUMBUR_clean_sbu_1, # of connection points: 6
#     Edge 12, Type (0, 1), BuildingBlock: KIFKEQ_clean_linker_1, # of connection points: 2
#     Edge 13, Type (0, 1), BuildingBlock: KIFKEQ_clean_linker_1, # of connection points: 2
#     Edge 14, Type (0, 1), BuildingBlock: KIFKEQ_clean_linker_1, # of connection points: 2
#     Edge 15, Type (0, 1), BuildingBlock: KIFKEQ_clean_linker_1, # of connection points: 2
#     Edge 16, Type (0, 1), BuildingBlock: KIFKEQ_clean_linker_1, # of connection points: 2
#     Edge 17, Type (0, 1), BuildingBlock: KIFKEQ_clean_linker_1, # of connection points: 2
#     Edge 18, Type (0, 1), BuildingBlock: KIFKEQ_clean_linker_1, # of connection points: 2
#     Edge 19, Type (0, 1), BuildingBlock: KIFKEQ_clean_linker_1, # of connection points: 2
#     Edge 20, Type (0, 1), BuildingBlock: KIFKEQ_clean_linker_1, # of connection points: 2
#     Edge 21, Type (0, 1), BuildingBlock: KIFKEQ_clean_linker_1, # of connection points: 2
#     Edge 22, Type (0, 1), BuildingBlock: KIFKEQ_clean_linker_1, # of connection points: 2
#     Edge 23, Type (0, 1), BuildingBlock: KIFKEQ_clean_linker_1, # of connection points: 2
#     Edge 24, Type (0, 1), BuildingBlock: KIFKEQ_clean_linker_1, # of connection points: 2
#     Edge 25, Type (0, 1), BuildingBlock: KIFKEQ_clean_linker_1, # of connection points: 2
#     Edge 26, Type (0, 1), BuildingBlock: KIFKEQ_clean_linker_1, # of connection points: 2
#     Edge 27, Type (0, 1), BuildingBlock: KIFKEQ_clean_linker_1, # of connection points: 2
#     Edge 28, Type (0, 1), BuildingBlock: KIFKEQ_clean_linker_1, # of connection points: 2
#     Edge 29, Type (0, 1), BuildingBlock: KIFKEQ_clean_linker_1, # of connection points: 2
#     Edge 30, Type (0, 1), BuildingBlock: KIFKEQ_clean_linker_1, # of connection points: 2
#     Edge 31, Type (0, 1), BuildingBlock: KIFKEQ_clean_linker_1, # of connection points: 2
#     Edge 32, Type (0, 1), BuildingBlock: KIFKEQ_clean_linker_1, # of connection points: 2
#     Edge 33, Type (0, 1), BuildingBlock: KIFKEQ_clean_linker_1, # of connection points: 2
#     Edge 34, Type (0, 1), BuildingBlock: KIFKEQ_clean_linker_1, # of connection points: 2
#     Edge 35, Type (0, 1), BuildingBlock: KIFKEQ_clean_linker_1, # of connection points: 2
# Relax obj value: 0.318
# Max RMSD: 0.211
# Mean RMSD: 0.184
data_MOF--net-zzz--node1-KUMBUR_clean_sbu_1--node2-VETTIZ_charged_linker_0--edge1-KIFKEQ_clean_linker_1
_symmetry_space_group_name_H-M    P1
_symmetry_Int_Tables_number       1
_symmetry_cell_setting            triclinic
loop_
_symmetry_equiv_pos_as_xyz
'x, y, z'
_cell_length_a     57.115869
_cell_length_b     57.130998
_cell_length_c     21.265828
_cell_angle_alpha  90.037401
_cell_angle_beta   89.906514
_cell_angle_gamma 90.569841
loop_
_atom_site_label
_atom_site_type_symbol
_atom_site_fract_x
_atom_site_fract_y
_atom_site_fract_z
_atom_type_partial_charge
C0 C 0.81001 0.53269 0.29437 0.0
C1 C 0.82937 0.54568 0.32041 0.0
C2 C 0.83291 0.56888 0.29983 0.0
C3 C 0.80279 0.56436 0.22126 0.0
C4 C 0.79625 0.54299 0.24546 0.0
C5 C 0.77282 0.53523 0.21512 0.0
H6 H 0.69004 0.56486 0.98529 0.0
C7 C 0.78703 0.57088 0.17058 0.0
C8 C 0.76789 0.55528 0.168 0.0
H9 H 0.68549 0.50359 0.10254 0.0
H10 H 0.72183 0.51583 0.15743 0.0
H11 H 0.70745 0.60177 0.09356 0.0
H12 H 0.72984 0.56462 0.94016 0.0
H13 H 0.75831 0.57388 0.96117 0.0
H14 H 0.73629 0.59475 0.93807 0.0
H15 H 0.70469 0.60663 1.01037 0.0
H16 H 0.7286 0.61927 0.05462 0.0
C17 C 0.75383 0.53371 0.26629 0.0
C18 C 0.77612 0.51176 0.18109 0.0
C19 C 0.82055 0.61014 0.97872 0.0
C20 C 0.80963 0.61959 0.92498 0.0
C21 C 0.78597 0.6263 0.9296 0.0
C22 C 0.77265 0.62021 0.98261 0.0
C23 C 0.78301 0.60692 0.03018 0.0
C24 C 0.8069 0.60432 0.03129 0.0
C25 C 0.81491 0.59297 0.09126 0.0
C26 C 0.79121 0.58725 0.12221 0.0
C27 C 0.77288 0.59317 0.08214 0.0
C28 C 0.83021 0.61084 0.12749 0.0
C29 C 0.82867 0.57049 0.07641 0.0
C30 C 0.69662 0.55394 0.02285 0.0
C31 C 0.68483 0.5332 0.03867 0.0
C32 C 0.69412 0.51977 0.08893 0.0
C33 C 0.71518 0.52679 0.12056 0.0
C34 C 0.72709 0.5475 0.10205 0.0
C35 C 0.71744 0.56043 0.05346 0.0
C36 C 0.73194 0.58126 0.03572 0.0
C37 C 0.75209 0.57928 0.08179 0.0
C38 C 0.74958 0.55958 0.12214 0.0
C39 C 0.71744 0.6035 0.0488 0.0
C40 C 0.73958 0.57865 0.96554 0.0
H41 H 0.8209 0.59676 0.24187 0.0
H42 H 0.80561 0.51547 0.31218 0.0
H43 H 0.79056 0.51316 0.14612 0.0
H44 H 0.76005 0.50638 0.15571 0.0
H45 H 0.78056 0.49776 0.21519 0.0
H46 H 0.75271 0.55055 0.29228 0.0
H47 H 0.75793 0.51966 0.30057 0.0
H48 H 0.7364 0.52996 0.24597 0.0
H49 H 0.83884 0.60546 0.9782 0.0
H50 H 0.77738 0.63486 0.89065 0.0
H51 H 0.75458 0.62511 0.98386 0.0
H52 H 0.84148 0.62123 0.09498 0.0
H53 H 0.84265 0.60201 0.15937 0.0
H54 H 0.81921 0.62331 0.1543 0.0
H55 H 0.81792 0.55823 0.04752 0.0
H56 H 0.83368 0.56135 0.12032 0.0
H57 H 0.84507 0.57462 0.05039 0.0
H58 H 0.84632 0.57982 0.32117 0.0
C59 C 0.8193 0.57837 0.25192 0.0
C60 C 0.92399 0.80474 0.92804 0.0
C61 C 0.92436 0.82919 0.91949 0.0
C62 C 0.92508 0.84344 0.97392 0.0
C63 C 0.93356 0.80969 0.03827 0.0
C64 C 0.92977 0.79541 0.98694 0.0
C65 C 0.93608 0.77038 1.00003 0.0
H66 H 0.01521 0.70054 0.10557 0.0
C67 C 0.94514 0.79576 0.08768 0.0
C68 C 0.94648 0.77269 0.06626 0.0
H69 H 0.95227 0.68306 1.00146 0.0
H70 H 0.93462 0.71908 0.0375 0.0
H71 H 0.02046 0.76101 0.096 0.0
H72 H 0.97412 0.72558 0.22899 0.0
H73 H 0.9946 0.74612 0.26083 0.0
H74 H 1.00492 0.71915 0.22822 0.0
H75 H 0.03205 0.73953 0.14931 0.0
H76 H 0.02397 0.76796 0.17784 0.0
C77 C 0.95455 0.76254 0.95104 0.0
C78 C 0.91332 0.75532 0.99778 0.0
C79 C 0.97706 0.83949 0.27557 0.0
C80 C 0.99303 0.83501 0.32392 0.0
C81 C 1.00505 0.81334 0.32192 0.0
C82 C 1.00028 0.79636 0.27403 0.0
C83 C 0.98347 0.80109 0.22714 0.0
C84 C 0.97275 0.82278 0.22851 0.0
C85 C 0.95741 0.82675 0.17287 0.0
C86 C 0.95795 0.80296 0.14162 0.0
C87 C 0.97354 0.78753 0.17202 0.0
C88 C 0.96919 0.8462 0.13192 0.0
C89 C 0.93245 0.83269 0.19637 0.0
C90 C 0.99798 0.70497 0.08845 0.0
C91 C 0.98575 0.68956 0.04631 0.0
C92 C 0.96255 0.69496 0.03025 0.0
C93 C 0.95255 0.71602 0.04892 0.0
C94 C 0.96606 0.73247 0.08158 0.0
C95 C 0.98712 0.72629 0.10758 0.0
C96 C 0.9942 0.74467 0.15726 0.0
C97 C 0.97575 0.76397 0.14749 0.0
C98 C 0.96043 0.75648 0.09943 0.0
C99 C 0.01913 0.75383 0.14447 0.0
C100 C 0.9919 0.73333 0.22263 0.0
H101 H 0.9302 0.84555 0.07222 0.0
H102 H 0.92161 0.79306 0.88852 0.0
H103 H 0.89826 0.76498 0.9777 0.0
H104 H 0.90788 0.74957 0.04558 0.0
H105 H 0.91541 0.7397 0.96726 0.0
H106 H 0.97017 0.77431 0.95236 0.0
H107 H 0.94726 0.7628 0.9027 0.0
H108 H 0.96058 0.74452 0.95884 0.0
H109 H 0.96823 0.85617 0.27356 0.0
H110 H 0.01783 0.8094 0.35783 0.0
H111 H 0.00996 0.78032 0.27416 0.0
H112 H 0.98765 0.84985 0.1459 0.0
H113 H 0.95974 0.86304 0.13576 0.0
H114 H 0.97045 0.84115 0.08173 0.0
H115 H 0.92735 0.82117 0.23638 0.0
H116 H 0.91889 0.82984 0.16005 0.0
H117 H 0.93153 0.85112 0.21276 0.0
H118 H 0.92473 0.86231 0.97095 0.0
C119 C 0.92912 0.83371 0.03325 0.0
C120 C 0.82362 0.99531 0.06145 0.0
C121 C 0.83877 0.98147 0.02282 0.0
C122 C 0.83326 0.9575 0.01566 0.0
C123 C 0.79693 0.9622 0.0721 0.0
C124 C 0.80292 0.98484 0.08774 0.0
C125 C 0.7855 0.99401 0.13728 0.0
H126 H 0.6876 0.96343 0.31997 0.0
C127 C 0.77499 0.95556 0.10281 0.0
C128 C 0.76844 0.97302 0.14585 0.0
H129 H 0.72153 0.03103 0.32266 0.0
H130 H 0.75003 0.01749 0.24322 0.0
H131 H 0.67933 0.96084 0.2011 0.0
H132 H 0.73248 0.92909 0.30206 0.0
H133 H 0.7228 0.90884 0.24461 0.0
H134 H 0.70178 0.92211 0.29665 0.0
H135 H 0.67974 0.92999 0.20072 0.0
H136 H 0.69224 0.94678 0.13646 0.0
C137 C 0.7729 0.01549 0.11064 0.0
C138 C 0.79871 0.99968 0.19844 0.0
C139 C 0.717 0.90445 0.98814 0.0
C140 C 0.69443 0.89669 1.00653 0.0
C141 C 0.68989 0.89387 0.07146 0.0
C142 C 0.7057 0.90249 0.1162 0.0
C143 C 0.72556 0.91489 0.0958 0.0
C144 C 0.73224 0.91373 0.03371 0.0
C145 C 0.75556 0.92566 0.02298 0.0
C146 C 0.75973 0.93674 0.08799 0.0
C147 C 0.74099 0.93177 0.12822 0.0
C148 C 0.75339 0.94452 0.97137 0.0
C149 C 0.77341 0.90672 1.00435 0.0
C150 C 0.70143 0.9753 0.30493 0.0
C151 C 0.70249 0.99805 0.32908 0.0
C152 C 0.72033 0.01321 0.30552 0.0
C153 C 0.73685 1.00538 0.25964 0.0
C154 C 0.73513 0.98237 0.2355 0.0
C155 C 0.71704 0.96821 0.25773 0.0
C156 C 0.71467 0.94579 0.22217 0.0
C157 C 0.73523 0.94772 0.17709 0.0
C158 C 0.74791 0.96901 0.18476 0.0
C159 C 0.6904 0.94566 0.18833 0.0
C160 C 0.71795 0.92526 0.26868 0.0
H161 H 0.81067 0.92917 0.0409 0.0
H162 H 0.82805 0.01337 0.07175 0.0
H163 H 0.80861 0.98416 0.21468 0.0
H164 H 0.78659 1.00471 0.23658 0.0
H165 H 0.81135 0.01433 0.19095 0.0
H166 H 0.76463 0.01115 0.06473 0.0
H167 H 0.78549 0.03019 0.10316 0.0
H168 H 0.75893 0.02154 0.14259 0.0
H169 H 0.72182 0.90527 0.93895 0.0
H170 H 0.67323 0.88718 0.0882 0.0
H171 H 0.7013 0.90056 0.16493 0.0
H172 H 0.7396 0.95734 0.98381 0.0
H173 H 0.7489 0.9365 0.92531 0.0
H174 H 0.77016 0.95421 0.96516 0.0
H175 H 0.76505 0.89248 0.97634 0.0
H176 H 0.78132 0.89857 0.04663 0.0
H177 H 0.78731 0.91389 0.9732 0.0
H178 H 0.84487 0.94605 0.98994 0.0
C179 C 0.8129 0.94782 0.04157 0.0
C180 C 0.5296 0.72379 0.29532 0.0
C181 C 0.54243 0.70707 0.33192 0.0
C182 C 0.56708 0.70801 0.32856 0.0
C183 C 0.56572 0.73653 0.24514 0.0
C184 C 0.54205 0.73918 0.25319 0.0
C185 C 0.53423 0.76089 0.21549 0.0
H186 H 0.56927 0.84019 0.98003 0.0
C187 C 0.57423 0.75186 0.19493 0.0
C188 C 0.55668 0.76786 0.17844 0.0
H189 H 0.50461 0.84503 0.08352 0.0
H190 H 0.51541 0.81015 0.14571 0.0
H191 H 0.60287 0.82929 0.09672 0.0
H192 H 0.56786 0.79316 0.9514 0.0
H193 H 0.58649 0.77088 0.9768 0.0
H194 H 0.59858 0.79782 0.94555 0.0
H195 H 0.61015 0.82884 0.01452 0.0
H196 H 0.62248 0.80802 0.06862 0.0
C197 C 0.52722 0.78011 0.26238 0.0
C198 C 0.51404 0.75433 0.17104 0.0
C199 C 0.63293 0.71604 0.04855 0.0
C200 C 0.64097 0.72329 0.98893 0.0
C201 C 0.64086 0.74741 0.97488 0.0
C202 C 0.62937 0.76317 0.01467 0.0
C203 C 0.61752 0.75461 0.06805 0.0
C204 C 0.62098 0.73186 0.0869 0.0
C205 C 0.6081 0.72606 0.14671 0.0
C206 C 0.59408 0.74858 0.15614 0.0
C207 C 0.59894 0.76461 0.10816 0.0
C208 C 0.62656 0.72154 0.19853 0.0
C209 C 0.5919 0.70454 0.13577 0.0
C210 C 0.5573 0.83407 0.01621 0.0
C211 C 0.53608 0.84556 0.0261 0.0
C212 C 0.52124 0.83672 0.0746 0.0
C213 C 0.52751 0.81659 0.11083 0.0
C214 C 0.54906 0.80536 0.09957 0.0
C215 C 0.56334 0.81454 0.05258 0.0
C216 C 0.58526 0.801 0.04355 0.0
C217 C 0.58291 0.78281 0.09502 0.0
C218 C 0.56152 0.78469 0.12863 0.0
C219 C 0.60642 0.81759 0.05601 0.0
C220 C 0.58472 0.79018 0.97614 0.0
H221 H 0.59727 0.72463 0.28976 0.0
H222 H 0.5108 0.72503 0.30017 0.0
H223 H 0.51936 0.73996 0.13894 0.0
H224 H 0.50892 0.76952 0.14192 0.0
H225 H 0.49846 0.74836 0.1982 0.0
H226 H 0.54171 0.78368 0.29601 0.0
H227 H 0.51152 0.77458 0.28977 0.0
H228 H 0.52323 0.79672 0.23847 0.0
H229 H 0.63336 0.69781 0.06208 0.0
H230 H 0.64779 0.75373 0.93053 0.0
H231 H 0.62888 0.78113 1.00035 0.0
H232 H 0.64381 0.71645 0.17863 0.0
H233 H 0.6214 0.70662 0.22908 0.0
H234 H 0.62963 0.73742 0.22772 0.0
H235 H 0.57965 0.70781 0.09622 0.0
H236 H 0.58138 0.7002 0.17791 0.0
H237 H 0.6022 0.68868 0.12475 0.0
H238 H 0.57761 0.69681 0.35806 0.0
C239 C 0.57861 0.72307 0.28703 0.0
C240 C 0.32462 0.49816 0.2342 0.0
C241 C 0.33992 0.48522 0.27486 0.0
C242 C 0.33456 0.46144 0.28586 0.0
C243 C 0.29782 0.46511 0.2318 0.0
C244 C 0.30369 0.48709 0.21089 0.0
C245 C 0.28558 0.49457 0.16073 0.0
H246 H 0.17961 0.46058 0.01748 0.0
C247 C 0.27515 0.45809 0.20723 0.0
C248 C 0.26779 0.47384 0.16083 0.0
H249 H 0.21917 0.52242 0.9668 0.0
H250 H 0.24884 0.51263 0.04719 0.0
H251 H 0.22303 0.42503 0.03233 0.0
H252 H 0.17558 0.46299 0.1347 0.0
H253 H 0.19171 0.45419 0.20125 0.0
H254 H 0.17656 0.43295 0.15253 0.0
H255 H 0.1926 0.4201 0.05045 0.0
H256 H 0.21539 0.40825 0.09923 0.0
C257 C 0.29793 0.49697 0.09677 0.0
C258 C 0.27392 0.5175 0.18093 0.0
C259 C 0.2187 0.41983 0.3561 0.0
C260 C 0.19575 0.41127 0.34634 0.0
C261 C 0.18952 0.40348 0.28549 0.0
C262 C 0.20395 0.40865 0.23392 0.0
C263 C 0.22443 0.42179 0.2438 0.0
C264 C 0.23287 0.42473 0.30387 0.0
C265 C 0.25675 0.436 0.30389 0.0
C266 C 0.25957 0.44159 0.23362 0.0
C267 C 0.23937 0.43543 0.20059 0.0
C268 C 0.27433 0.41807 0.32978 0.0
C269 C 0.25661 0.45853 0.34421 0.0
C270 C 0.19478 0.47199 0.02171 0.0
C271 C 0.19693 0.49196 0.98369 0.0
C272 C 0.21682 0.50669 0.99452 0.0
C273 C 0.23412 0.50097 0.04073 0.0
C274 C 0.23153 0.48046 0.07735 0.0
C275 C 0.21165 0.46679 0.0674 0.0
C276 C 0.20991 0.44638 0.11102 0.0
C277 C 0.23244 0.44912 0.14808 0.0
C278 C 0.24572 0.46908 0.12896 0.0
C279 C 0.2101 0.42364 0.07138 0.0
C280 C 0.18744 0.44913 0.15213 0.0
H281 H 0.31139 0.43269 0.2676 0.0
H282 H 0.32899 0.51593 0.2207 0.0
H283 H 0.26576 0.51549 0.22815 0.0
H284 H 0.26004 0.52255 0.1474 0.0
H285 H 0.28704 0.53196 0.18326 0.0
H286 H 0.307 0.48045 0.08446 0.0
H287 H 0.31119 0.51133 0.09816 0.0
H288 H 0.28536 0.50077 0.05876 0.0
H289 H 0.22457 0.42506 0.40238 0.0
H290 H 0.17256 0.39547 0.277 0.0
H291 H 0.19822 0.40341 0.18795 0.0
H292 H 0.26653 0.40763 0.3688 0.0
H293 H 0.28985 0.42681 0.35083 0.0
H294 H 0.27986 0.40564 0.29251 0.0
H295 H 0.24307 0.47084 0.32712 0.0
H296 H 0.27385 0.46762 0.34243 0.0
H297 H 0.253 0.45447 0.39437 0.0
H298 H 0.34631 0.45061 0.31291 0.0
C299 C 0.314 0.45129 0.26303 0.0
C300 C 0.13253 0.22697 0.30633 0.0
C301 C 0.14556 0.20919 0.27658 0.0
C302 C 0.14841 0.21053 0.21058 0.0
C303 C 0.11756 0.23908 0.20559 0.0
C304 C 0.11855 0.2416 0.26984 0.0
C305 C 0.10086 0.25882 0.29369 0.0
H306 H 0.02404 0.34239 0.21889 0.0
C307 C 0.09642 0.25106 0.18309 0.0
C308 C 0.08708 0.26346 0.23383 0.0
H309 H 0.06099 0.33007 0.39343 0.0
H310 H 0.0734 0.29293 0.3557 0.0
H311 H 0.06289 0.31683 0.11226 0.0
H312 H 1.00697 0.27449 0.19439 0.0
H313 H 1.00563 0.28492 0.114 0.0
H314 H 1.00006 0.30448 0.17695 0.0
H315 H 0.03328 0.32734 0.10678 0.0
H316 H 0.04182 0.30152 0.06409 0.0
C317 C 0.11435 0.28082 0.31793 0.0
C318 C 0.08524 0.24668 0.34401 0.0
C319 C 0.05841 0.21489 0.99266 0.0
C320 C 0.03479 0.2103 0.97882 0.0
C321 C 0.01776 0.22346 1.01205 0.0
C322 C 0.02442 0.24076 0.05724 0.0
C323 C 0.0483 0.24501 0.07003 0.0
C324 C 0.06459 0.23083 0.04041 0.0
C325 C 0.08777 0.23105 0.07357 0.0
C326 C 0.08263 0.24722 0.12859 0.0
C327 C 0.06024 0.25729 0.12381 0.0
C328 C 0.10614 0.24212 0.02892 0.0
C329 C 0.09391 0.20562 0.09465 0.0
C330 C 0.03483 0.33158 0.24865 0.0
C331 C 0.04262 0.34011 0.30855 0.0
C332 C 0.0558 0.32491 0.34637 0.0
C333 C 0.06322 0.30329 0.32427 0.0
C334 C 0.05755 0.29613 0.26324 0.0
C335 C 0.04232 0.30905 0.22719 0.0
C336 C 0.03715 0.29601 0.16522 0.0
C337 C 0.05322 0.27443 0.17004 0.0
C338 C 0.06609 0.27617 0.2262 0.0
C339 C 0.0442 0.31136 0.10877 0.0
C340 C 0.01101 0.28942 0.16254 0.0
H341 H 0.13607 0.22507 0.12465 0.0
H342 H 0.13059 0.22768 0.35684 0.0
H343 H 0.08066 0.22851 0.3293 0.0
H344 H 0.06834 0.25558 0.35108 0.0
H345 H 0.09438 0.24573 0.38999 0.0
H346 H 0.13341 0.28021 0.30726 0.0
H347 H 0.11279 0.28271 0.36974 0.0
H348 H 0.10813 0.29711 0.29536 0.0
H349 H 0.07196 0.20431 0.97148 0.0
H350 H 0.99933 0.21994 1.00432 0.0
H351 H 0.01097 0.24901 0.08461 0.0
H352 H 0.0991 0.25806 1.00597 0.0
H353 H 0.1111 0.22958 0.99133 0.0
H354 H 0.12212 0.24785 0.0541 0.0
H355 H 0.08128 0.19215 0.07766 0.0
H356 H 0.09357 0.20361 0.14651 0.0
H357 H 0.11124 0.20013 0.07658 0.0
H358 H 0.15969 0.19843 0.18609 0.0
C359 C 0.13437 0.2255 0.17482 0.0
C360 C 0.30853 0.0348 1.00253 0.0
C361 C 0.32667 0.04781 0.97086 0.0
C362 C 0.32902 0.0718 0.98495 0.0
C363 C 0.30044 0.06855 0.0683 0.0
C364 C 0.29487 0.04607 0.05027 0.0
C365 C 0.2727 0.03799 0.08602 0.0
H366 H 0.1961 0.06701 0.33141 0.0
C367 C 0.28646 0.07518 0.12325 0.0
C368 C 0.26875 0.05822 0.13328 0.0
H369 H 0.18573 1.00884 0.20519 0.0
H370 H 0.22283 0.01885 0.15098 0.0
H371 H 0.24543 0.05475 0.35663 0.0
H372 H 0.21477 0.10608 0.23783 0.0
H373 H 0.2382 0.11974 0.27823 0.0
H374 H 0.21472 0.10635 0.32233 0.0
H375 H 0.24109 0.08389 0.38427 0.0
H376 H 0.26825 0.07517 0.34774 0.0
C377 C 0.27722 0.01474 0.11992 0.0
C378 C 0.25245 0.03597 0.03866 0.0
C379 C 0.32779 0.12631 0.28173 0.0
C380 C 0.32316 0.13002 0.34584 0.0
C381 C 0.30002 0.12724 0.36773 0.0
C382 C 0.2826 0.11797 0.3282 0.0
C383 C 0.28864 0.11061 0.26713 0.0
C384 C 0.31058 0.11596 0.24376 0.0
C385 C 0.31429 0.10654 0.17851 0.0
C386 C 0.29163 0.09238 0.16942 0.0
C387 C 0.27692 0.09474 0.22159 0.0
C388 C 0.33623 0.09075 0.17868 0.0
C389 C 0.31663 0.12769 0.13299 0.0
C390 C 0.20124 0.05665 0.29108 0.0
C391 C 0.18734 0.03765 0.27177 0.0
C392 C 0.19576 0.02393 0.22082 0.0
C393 C 0.21708 0.02986 0.18888 0.0
C394 C 0.23034 0.04958 0.2083 0.0
C395 C 0.22225 0.06209 0.25981 0.0
C396 C 0.23896 0.08079 0.28034 0.0
C397 C 0.25716 0.07973 0.2287 0.0
C398 C 0.25276 0.06122 0.18578 0.0
C399 C 0.24893 0.0735 0.34556 0.0
C400 C 0.22607 0.10456 0.28017 0.0
H401 H 0.3176 0.1006 0.03896 0.0
H402 H 0.30501 0.01674 0.99005 0.0
H403 H 0.2505 0.05261 1.01218 0.0
H404 H 0.23557 0.03227 0.06207 0.0
H405 H 0.25582 0.02173 1.00426 0.0
H406 H 0.29254 0.0165 0.15184 0.0
H407 H 0.2809 1.00062 0.08544 0.0
H408 H 0.26189 1.00933 0.14856 0.0
H409 H 0.34534 0.12863 0.26339 0.0
H410 H 0.29589 0.1304 0.41673 0.0
H411 H 0.2655 0.11555 0.34806 0.0
H412 H 0.33446 0.07681 0.21491 0.0
H413 H 0.35234 0.10109 0.18874 0.0
H414 H 0.3393 0.08211 0.13316 0.0
H415 H 0.31774 0.14477 0.15801 0.0
H416 H 0.30128 0.12885 0.10113 0.0
H417 H 0.33287 0.12672 0.10437 0.0
H418 H 0.34174 0.08261 0.96028 0.0
C419 C 0.31568 0.08219 0.03197 0.0
C420 C 0.4929 0.31661 1.01096 0.0
C421 C 0.48004 0.33565 0.9837 0.0
C422 C 0.45711 0.33939 1.00611 0.0
C423 C 0.4616 0.31012 0.08669 0.0
C424 C 0.48272 0.30339 0.06192 0.0
C425 C 0.49034 0.28048 0.09467 0.0
H426 H 0.45763 0.19848 0.32668 0.0
C427 C 0.45522 0.29524 0.13993 0.0
C428 C 0.47064 0.27625 0.14391 0.0
H429 H 0.51976 0.19331 0.21287 0.0
H430 H 0.50958 0.23033 0.15897 0.0
H431 H 0.46592 0.24137 0.3694 0.0
H432 H 0.42074 0.21925 0.22606 0.0
H433 H 0.40608 0.24119 0.26903 0.0
H434 H 0.41772 0.21622 0.30983 0.0
H435 H 0.43545 0.24386 0.38225 0.0
H436 H 0.45285 0.26845 0.35461 0.0
C437 C 0.51417 0.28435 0.12663 0.0
C438 C 0.49112 0.26062 0.04598 0.0
C439 C 0.41627 0.33296 0.32541 0.0
C440 C 0.40956 0.32367 0.38413 0.0
C441 C 0.40483 0.29948 0.38883 0.0
C442 C 0.40998 0.28452 0.33856 0.0
C443 C 0.4208 0.29379 0.28459 0.0
C444 C 0.42184 0.31767 0.27622 0.0
C445 C 0.43152 0.32419 0.21269 0.0
C446 C 0.43909 0.30006 0.18859 0.0
C447 C 0.4341 0.28276 0.23314 0.0
C448 C 0.45268 0.34104 0.22016 0.0
C449 C 0.41153 0.33554 0.17467 0.0
C450 C 0.46892 0.20476 0.28917 0.0
C451 C 0.48911 0.1924 0.27345 0.0
C452 C 0.50383 0.2022 0.22595 0.0
C453 C 0.4979 0.22355 0.1945 0.0
C454 C 0.47737 0.23563 0.21168 0.0
C455 C 0.46382 0.22611 0.25974 0.0
C456 C 0.44471 0.24191 0.28056 0.0
C457 C 0.44742 0.2619 0.23422 0.0
C458 C 0.46644 0.2586 0.19211 0.0
C459 C 0.44978 0.24933 0.34999 0.0
C460 C 0.42098 0.22901 0.27137 0.0
H461 H 0.42949 0.32788 0.06588 0.0
H462 H 0.50988 0.31196 0.99242 0.0
H463 H 0.47395 0.2588 0.02185 0.0
H464 H 0.49508 0.24364 0.06833 0.0
H465 H 0.50475 0.26428 1.00984 0.0
H466 H 0.51335 0.29935 0.15986 0.0
H467 H 0.52795 0.2882 0.09106 0.0
H468 H 0.51945 0.26871 0.1536 0.0
H469 H 0.41944 0.35155 0.31979 0.0
H470 H 0.39883 0.29199 0.43286 0.0
H471 H 0.40656 0.26619 0.34459 0.0
H472 H 0.46632 0.33312 0.25049 0.0
H473 H 0.44728 0.35791 0.24143 0.0
H474 H 0.46071 0.34522 0.17399 0.0
H475 H 0.39893 0.34479 0.20566 0.0
H476 H 0.40143 0.32216 0.14781 0.0
H477 H 0.41824 0.34934 0.14252 0.0
H478 H 0.44613 0.35262 0.98514 0.0
C479 C 0.44774 0.32625 0.0554 0.0
Tb480 Tb 0.99148 0.03739 0.59689 0.0
C481 C 0.05708 0.04581 0.81228 0.0
N482 N 0.06133 0.03624 0.75495 0.0
C483 C 0.09729 0.05821 0.74723 0.0
C484 C 0.07244 0.06264 0.83848 0.0
C485 C 0.08143 0.04175 0.72287 0.0
C486 C 0.0927 0.06883 0.80507 0.0
C487 C 0.03193 0.04849 0.90369 0.0
C488 C 0.03704 0.03887 0.84415 0.0
C489 C 0.04671 0.06587 0.9291 0.0
C490 C 0.06698 0.07286 0.89668 0.0
Tb491 Tb 0.03457 1.00919 0.72013 0.0
N492 N 0.02318 0.02195 0.81813 0.0
C493 C 0.01258 0.03978 0.93688 0.0
C494 C 1.00598 0.01168 0.85377 0.0
C495 C 0.99987 0.02091 0.9124 0.0
H496 H 0.08526 0.03358 0.67831 0.0
H497 H 0.98577 0.01305 0.93937 0.0
H498 H 0.94915 0.06507 0.67063 0.0
H499 H 0.99111 0.99307 0.3721 0.0
H500 H 0.99744 0.99579 0.83857 0.0
H501 H 1.00803 0.0467 0.9827 0.0
H502 H 0.00901 0.01415 0.4614 0.0
H503 H 0.11302 0.06271 0.72133 0.0
H504 H 0.04292 0.07361 0.97447 0.0
H505 H 0.07839 0.08604 0.91722 0.0
H506 H 0.90581 0.0648 0.67108 0.0
H507 H 0.10494 0.0817 0.82357 0.0
H508 H 0.94818 0.9868 0.36858 0.0
N509 N 0.95167 0.04046 0.59599 0.0
C510 C 0.94004 0.02789 0.55181 0.0
C511 C 0.91522 0.05421 0.63745 0.0
C512 C 0.91541 0.02753 0.54917 0.0
C513 C 0.93973 0.05422 0.63734 0.0
C514 C 0.90298 0.04057 0.59362 0.0
N515 N 0.97666 0.01898 0.50956 0.0
C516 C 0.99028 0.01152 0.46059 0.0
C517 C 0.942 1.0051 0.45618 0.0
C518 C 0.95306 0.01682 0.50647 0.0
C519 C 0.95596 0.99597 0.40807 0.0
C520 C 0.98019 0.99954 0.40982 0.0
H521 H 0.88401 0.04076 0.59338 0.0
H522 H 0.88519 0.01413 0.49852 0.0
H523 H 0.90854 0.99449 0.41675 0.0
O524 O 0.01588 0.06372 0.57522 0.0
O525 O 0.99394 0.99921 0.58351 0.0
O526 O 0.023 0.98375 0.64791 0.0
O527 O 0.97917 0.06629 0.54468 0.0
O528 O 0.02659 0.02936 0.55847 0.0
O529 O 0.05241 0.0124 0.62944 0.0
O530 O 0.04035 0.98306 0.78807 0.0
O531 O 0.03324 0.04745 0.69997 0.0
O532 O 0.99473 0.05449 0.68903 0.0
O533 O 0.06664 0.9914 0.71993 0.0
O534 O 0.99675 0.99856 0.72653 0.0
O535 O 0.97782 0.03139 0.69233 0.0
C536 C 1.00753 0.98192 0.60187 0.0
C537 C 1.00596 0.09804 0.51488 0.0
C538 C 0.03475 0.12307 0.46292 0.0
C539 C 0.01705 0.13931 0.45002 0.0
C540 C 0.98845 0.11436 0.50163 0.0
C541 C 0.99407 0.13501 0.46972 0.0
C542 C 0.02914 0.10262 0.49621 0.0
C543 C 0.04733 0.02089 0.57358 0.0
C544 C 1.00008 0.07574 0.54536 0.0
C545 C 0.90413 0.01483 0.50115 0.0
C546 C 0.91742 1.00364 0.45461 0.0
C547 C 0.01502 0.06057 0.7128 0.0
C548 C 0.06084 0.95172 0.7413 0.0
C549 C 0.0411 0.91521 0.71154 0.0
C550 C 0.0626 0.90651 0.68983 0.0
C551 C 0.08214 0.94262 0.71995 0.0
C552 C 0.04041 0.93788 0.73711 0.0
C553 C 0.08296 0.92015 0.69423 0.0
C554 C 0.97805 0.01213 0.72607 0.0
C555 C 0.05966 0.97637 0.76161 0.0
H556 H 0.02101 0.15531 0.42465 0.0
H557 H 0.97048 0.1111 0.51571 0.0
H558 H 0.98054 0.14758 0.45957 0.0
H559 H 0.04266 0.08985 0.5052 0.0
H560 H 0.06366 0.88918 0.66943 0.0
H561 H 0.09804 0.9531 0.72197 0.0
H562 H 0.02393 0.94472 0.75402 0.0
H563 H 0.09943 0.91332 0.67732 0.0
Tb564 Tb 0.52959 0.04123 0.7151 0.0
C565 C 0.50087 0.94603 0.62805 0.0
N566 N 0.51469 0.96237 0.59962 0.0
C567 C 0.54352 0.9332 0.57778 0.0
C568 C 0.50844 0.92282 0.63572 0.0
C569 C 0.5353 0.95609 0.5718 0.0
C570 C 0.5302 0.91657 0.61071 0.0
C571 C 0.46388 0.93628 0.67747 0.0
C572 C 0.47899 0.95274 0.64865 0.0
C573 C 0.47173 0.91339 0.68834 0.0
C574 C 0.49396 0.90666 0.66734 0.0
Tb575 Tb 0.4998 0.99924 0.59232 0.0
N576 N 0.47195 0.97493 0.63635 0.0
C577 C 0.44103 0.94304 0.69207 0.0
C578 C 0.44895 0.98067 0.64435 0.0
C579 C 0.43338 0.96518 0.67409 0.0
H580 H 0.54555 0.96885 0.54602 0.0
H581 H 0.41537 0.97015 0.68191 0.0
H582 H 0.4865 0.05668 0.81469 0.0
H583 H 0.59241 0.09636 0.59563 0.0
H584 H 0.44232 0.99698 0.62658 0.0
H585 H 0.42886 0.93094 0.71429 0.0
H586 H 0.57752 0.05972 0.64421 0.0
H587 H 0.56011 0.9284 0.55705 0.0
H588 H 0.46048 0.90058 0.71113 0.0
H589 H 0.49958 0.88881 0.67462 0.0
H590 H 0.46124 0.09071 0.83106 0.0
H591 H 0.53666 0.8989 0.61553 0.0
H592 H 0.5684 0.13221 0.59914 0.0
N593 N 0.50659 0.07268 0.74145 0.0
C594 C 0.51226 0.09333 0.71346 0.0
C595 C 0.47526 0.09158 0.79683 0.0
C596 C 0.49891 0.11363 0.72327 0.0
C597 C 0.48933 0.07205 0.78614 0.0
C598 C 0.47975 0.11234 0.76418 0.0
N599 N 0.54531 0.07468 0.67308 0.0
C600 C 0.56703 0.07534 0.64599 0.0
C601 C 0.54027 0.11573 0.65188 0.0
C602 C 0.53262 0.09449 0.67883 0.0
C603 C 0.56186 0.11623 0.62056 0.0
C604 C 0.57547 0.09603 0.61851 0.0
H605 H 0.46902 0.12753 0.7731 0.0
H606 H 0.49554 0.15044 0.70042 0.0
H607 H 0.53179 0.15223 0.63746 0.0
O608 O 0.56239 0.033 0.75231 0.0
O609 O 0.52586 0.0532 0.61647 0.0
O610 O 0.49122 0.03696 0.58533 0.0
O611 O 0.53866 0.05442 0.80473 0.0
O612 O 0.55407 0.01998 0.65724 0.0
O613 O 0.53464 0.01248 0.56387 0.0
O614 O 0.47573 0.98566 0.52664 0.0
O615 O 0.5231 0.98526 0.66773 0.0
O616 O 0.51525 1.0081 0.752 0.0
O617 O 0.50868 0.99986 0.49636 0.0
O618 O 0.47531 0.02204 0.64536 0.0
O619 O 0.49435 0.02701 0.73963 0.0
C620 C 0.50692 0.05396 0.58162 0.0
C621 C 0.55984 0.02602 0.86137 0.0
C622 C 0.5691 0.98729 0.90415 0.0
C623 C 0.56661 0.99665 0.96522 0.0
C624 C 0.55753 0.03479 0.92253 0.0
C625 C 0.56055 0.02006 0.97408 0.0
C626 C 0.56476 1.00211 0.85262 0.0
C627 C 0.55419 0.01567 0.59597 0.0
C628 C 0.55749 0.04189 0.80694 0.0
C629 C 0.50572 0.13471 0.69408 0.0
C630 C 0.5264 0.13575 0.65839 0.0
C631 C 0.51978 0.98738 0.72876 0.0
C632 C 0.47685 1.00453 0.42873 0.0
C633 C 0.45323 0.03753 0.39443 0.0
C634 C 0.45442 0.02888 0.33238 0.0
C635 C 0.47799 0.99637 0.36677 0.0
C636 C 0.46467 0.02514 0.44237 0.0
C637 C 0.46682 1.00855 0.31879 0.0
C638 C 0.47476 0.02565 0.70675 0.0
C639 C 0.48856 0.99147 0.47865 0.0
H640 H 0.57027 0.98634 1.00661 0.0
H641 H 0.55355 0.05306 0.93039 0.0
H642 H 0.55892 0.02699 0.02125 0.0
H643 H 0.56569 0.99521 0.80535 0.0
H644 H 0.44534 0.03746 0.29431 0.0
H645 H 0.48744 0.98054 0.3556 0.0
H646 H 0.46413 0.03139 0.49032 0.0
H647 H 0.46756 1.00208 0.27099 0.0
Tb648 Tb 0.53279 0.50822 0.58856 0.0
C649 C 0.43759 0.526 0.75411 0.0
N650 N 0.44989 0.53921 0.71259 0.0
C651 C 0.41414 0.55461 0.67135 0.0
C652 C 0.41293 0.5261 0.75526 0.0
C653 C 0.43864 0.55409 0.67283 0.0
C654 C 0.40121 0.54032 0.71224 0.0
C655 C 0.43814 0.50122 0.84618 0.0
C656 C 0.44993 0.51376 0.79848 0.0
C657 C 0.41354 0.5002 0.84601 0.0
C658 C 0.40094 0.51263 0.80053 0.0
Tb659 Tb 0.48961 0.53518 0.71316 0.0
N660 N 0.47358 0.51555 0.79723 0.0
C661 C 0.45142 0.49084 0.89366 0.0
C662 C 0.48653 0.5069 0.846 0.0
C663 C 0.4757 0.49403 0.8941 0.0
H664 H 0.4486 0.56537 0.64171 0.0
H665 H 0.4861 0.48661 0.93148 0.0
H666 H 0.58541 0.52823 0.63158 0.0
H667 H 0.48502 0.51853 0.36968 0.0
H668 H 0.50529 0.50921 0.84696 0.0
H669 H 0.44306 0.481 0.93116 0.0
H670 H 0.49594 0.49846 0.46722 0.0
H671 H 0.40528 0.56609 0.6389 0.0
H672 H 0.40411 0.49046 0.88185 0.0
H673 H 0.38197 0.51226 0.80193 0.0
H674 H 0.61411 0.55735 0.59397 0.0
H675 H 0.38225 0.5409 0.71142 0.0
H676 H 0.5086 0.55232 0.33227 0.0
N677 N 0.56123 0.53417 0.55703 0.0
C678 C 0.55739 0.54534 0.50166 0.0
C679 C 0.59813 0.55428 0.56781 0.0
C680 C 0.5734 0.56218 0.47841 0.0
C681 C 0.58165 0.53785 0.58925 0.0
C682 C 0.59389 0.56668 0.51251 0.0
N683 N 0.5225 0.52314 0.49204 0.0
C684 C 0.50501 0.51438 0.4548 0.0
C685 C 0.53246 0.55125 0.41117 0.0
C686 C 0.53711 0.54001 0.46881 0.0
C687 C 0.51282 0.54413 0.37671 0.0
C688 C 0.49937 0.5252 0.3979 0.0
H689 H 0.60663 0.5795 0.49626 0.0
H690 H 0.58032 0.58726 0.40409 0.0
H691 H 0.54447 0.57765 0.34507 0.0
O692 O 0.54 0.48519 0.51387 0.0
O693 O 0.5322 0.54627 0.61153 0.0
O694 O 0.49373 0.5537 0.62275 0.0
O695 O 0.56239 0.48659 0.5942 0.0
O696 O 0.49489 0.49818 0.58007 0.0
O697 O 0.47618 0.53076 0.61689 0.0
O698 O 0.51415 0.56124 0.7373 0.0
O699 O 0.49108 0.49675 0.72234 0.0
O700 O 0.52071 0.48198 0.65862 0.0
O701 O 0.4776 0.56294 0.76973 0.0
O702 O 0.52398 0.52529 0.75343 0.0
O703 O 0.55065 0.51223 0.67862 0.0
C704 C 0.51418 0.55973 0.59936 0.0
C705 C 0.55199 0.44944 0.5574 0.0
C706 C 0.52433 0.41713 0.57436 0.0
C707 C 0.54307 0.40279 0.59208 0.0
C708 C 0.57049 0.43488 0.57471 0.0
C709 C 0.56599 0.41168 0.59223 0.0
C710 C 0.52898 0.44051 0.55813 0.0
C711 C 0.47638 0.51198 0.58111 0.0
C712 C 0.55615 0.47451 0.54535 0.0
C713 C 0.56839 0.57404 0.42229 0.0
C714 C 0.54792 0.56864 0.38885 0.0
C715 C 0.50484 0.47963 0.70367 0.0
C716 C 0.50391 0.59458 0.80243 0.0
C717 C 0.53281 0.62266 0.84088 0.0
C718 C 0.51502 0.63468 0.87268 0.0
C719 C 0.48624 0.6069 0.83395 0.0
C720 C 0.52716 0.60279 0.80525 0.0
C721 C 0.49182 0.62692 0.86869 0.0
C722 C 0.54513 0.51837 0.73639 0.0
C723 C 0.49841 0.5726 0.76949 0.0
H724 H 0.54011 0.38459 0.60417 0.0
H725 H 0.5883 0.44157 0.57574 0.0
H726 H 0.58032 0.4005 0.60568 0.0
H727 H 0.51451 0.45187 0.54668 0.0
H728 H 0.5191 0.65011 0.9004 0.0
H729 H 0.4682 0.60091 0.8324 0.0
H730 H 0.541 0.59334 0.78159 0.0
H731 H 0.47817 0.63629 0.89316 0.0
Tb732 Tb 0.025 0.54077 0.60415 0.0
C733 C 0.01041 0.45195 0.78312 0.0
N734 N 0.99888 0.45869 0.73066 0.0
C735 C 0.99629 0.41863 0.69681 0.0
C736 C 0.01615 0.42835 0.79368 0.0
C737 C 0.99071 0.44225 0.68922 0.0
C738 C 0.00944 0.41168 0.74877 0.0
C739 C 0.02509 0.46235 0.88616 0.0
C740 C 0.01477 0.46858 0.82849 0.0
C741 C 0.03198 0.43909 0.89595 0.0
C742 C 0.02753 0.4221 0.8497 0.0
Tb743 Tb 0.99233 0.498 0.71988 0.0
N744 N 1.00787 0.49078 0.81699 0.0
C745 C 0.02765 0.47958 0.93252 0.0
C746 C 0.00886 0.50729 0.86353 0.0
C747 C 0.01917 0.50208 0.92146 0.0
H748 H 0.97952 0.44729 0.65082 0.0
H749 H 0.02049 0.51537 0.95759 0.0
H750 H 1.00381 0.59034 0.66003 0.0
H751 H 0.02036 0.50153 0.37165 0.0
H752 H 1.00216 0.5246 0.85555 0.0
H753 H 0.03553 0.47556 0.97748 0.0
H754 H 0.03705 0.50763 0.47661 0.0
H755 H 0.99015 0.40577 0.66311 0.0
H756 H 0.04019 0.43396 0.93964 0.0
H757 H 0.0323 0.40409 0.8585 0.0
H758 H 0.97636 0.6208 0.6251 0.0
H759 H 0.0135 0.39334 0.75502 0.0
H760 H 0.98897 0.52735 0.33332 0.0
N761 N 0.99978 0.56976 0.57731 0.0
C762 C 0.99078 0.56852 0.51818 0.0
C763 C 0.98009 0.60606 0.59485 0.0
C764 C 0.97505 0.5855 0.49623 0.0
C765 C 0.99547 0.58867 0.61477 0.0
C766 C 0.96962 0.60434 0.53563 0.0
N767 N 0.01298 0.53426 0.50253 0.0
C768 C 0.02222 0.51789 0.46289 0.0
C769 C 0.98781 0.54774 0.41909 0.0
C770 C 0.99709 0.54983 0.48028 0.0
C771 C 0.99567 0.52957 0.38061 0.0
C772 C 0.01328 0.51487 0.40221 0.0
H773 H 0.95761 0.61777 0.52052 0.0
H774 H 0.95288 0.59578 0.41861 0.0
H775 H 0.96405 0.56273 0.35103 0.0
O776 O 0.04748 0.55424 0.53455 0.0
O777 O 0.98614 0.54018 0.61814 0.0
O778 O 0.97827 0.50168 0.62487 0.0
O779 O 0.04966 0.56687 0.6291 0.0
O780 O 0.03304 0.50328 0.58658 0.0
O781 O 1.00054 0.48355 0.62536 0.0
O782 O 0.96275 0.51627 0.74977 0.0
O783 O 0.02884 0.50699 0.74701 0.0
O784 O 0.04813 0.51631 0.65466 0.0
O785 O 0.96309 0.47861 0.75236 0.0
O786 O 0.99139 0.53592 0.74351 0.0
O787 O 0.02414 0.55389 0.70109 0.0
C788 C 0.97277 0.52217 0.60252 0.0
C789 C 0.08486 0.56138 0.57459 0.0
C790 C 0.11608 0.53258 0.56574 0.0
C791 C 0.13264 0.55102 0.56898 0.0
C792 C 0.10151 0.57944 0.578 0.0
C793 C 0.12534 0.57421 0.57576 0.0
C794 C 0.09223 0.53811 0.57029 0.0
C795 C 0.01904 0.48466 0.5879 0.0
C796 C 0.05973 0.56643 0.57435 0.0
C797 C 0.96522 0.58307 0.43608 0.0
C798 C 0.97152 0.56419 0.39769 0.0
C799 C 0.04834 0.51072 0.71493 0.0
C800 C 0.92859 0.49731 0.71585 0.0
C801 C 0.89586 0.51961 0.67388 0.0
C802 C 0.88976 0.50059 0.63524 0.0
C803 C 0.9224 0.47848 0.67641 0.0
C804 C 0.91512 0.51769 0.7144 0.0
C805 C 0.90302 0.48014 0.63657 0.0
C806 C 1.00752 0.55269 0.74386 0.0
C807 C 0.95015 0.49723 0.75416 0.0
H808 H 0.15119 0.54776 0.56435 0.0
H809 H 0.09609 0.59751 0.58183 0.0
H810 H 0.13822 0.58821 0.57785 0.0
H811 H 0.07913 0.52433 0.56956 0.0
H812 H 0.87487 0.5016 0.60389 0.0
H813 H 0.93268 0.46266 0.67553 0.0
H814 H 0.91969 0.53216 0.74523 0.0
H815 H 0.8984 0.46563 0.60616 0.0
H816 H 0.17023 0.99607 0.32338 0.0
H817 H 0.15302 0.06889 0.30201 0.0
H818 H 0.13596 0.99064 0.39232 0.0
H819 H 0.11916 0.06365 0.37058 0.0
H820 H 0.04875 0.0446 0.46016 0.0
H821 H 0.08058 0.04694 0.38346 0.0
H822 H 0.1219 1.00074 0.49792 0.0
H823 H 0.09004 0.99837 0.57464 0.0
C824 C 0.15896 0.01083 0.33235 0.0
C825 C 0.16457 0.03292 0.3066 0.0
C826 C 0.13937 1.00782 0.3727 0.0
C827 C 0.12452 0.0267 0.38792 0.0
C828 C 0.12977 0.04853 0.36011 0.0
C829 C 0.1494 0.05158 0.32065 0.0
C830 C 0.06451 0.03475 0.469 0.0
C831 C 0.06653 0.02129 0.5243 0.0
C832 C 0.08298 0.03622 0.42487 0.0
C833 C 0.10417 0.02408 0.43379 0.0
C834 C 0.10596 0.0102 0.48843 0.0
C835 C 0.08759 1.00895 0.53296 0.0
H836 H 0.52868 0.18005 0.34143 0.0
H837 H 0.46013 0.15442 0.29103 0.0
H838 H 0.53311 0.14726 0.41452 0.0
H839 H 0.46473 0.12124 0.36125 0.0
H840 H 0.46697 0.07508 0.53643 0.0
H841 H 0.46376 0.10729 0.46147 0.0
H842 H 0.53906 0.10893 0.44158 0.0
H843 H 0.54196 0.07743 0.51827 0.0
C844 C 0.51479 0.16706 0.34452 0.0
C845 C 0.4941 0.17003 0.30953 0.0
C846 C 0.51725 0.14807 0.38695 0.0
C847 C 0.49917 0.13114 0.39569 0.0
C848 C 0.47892 0.13381 0.35839 0.0
C849 C 0.47638 0.15286 0.31684 0.0
C850 C 0.4828 0.08218 0.51549 0.0
C851 C 0.50468 0.07335 0.53355 0.0
C852 C 0.48103 0.10078 0.47184 0.0
C853 C 0.50111 0.11115 0.4435 0.0
C854 C 0.52302 0.10211 0.46192 0.0
C855 C 0.52474 0.08375 0.50616 0.0
H856 H 0.34357 0.51991 0.36514 0.0
H857 H 0.38505 0.47007 0.26334 0.0
H858 H 0.3762 0.52662 0.43808 0.0
H859 H 0.41773 0.47681 0.33512 0.0
H860 H 0.46196 0.47199 0.51608 0.0
H861 H 0.4304 0.46801 0.43866 0.0
H862 H 0.41436 0.54121 0.46106 0.0
H863 H 0.44569 0.54505 0.53781 0.0
C864 C 0.35996 0.51105 0.35672 0.0
C865 C 0.36161 0.49474 0.30725 0.0
C866 C 0.37876 0.51468 0.39919 0.0
C867 C 0.39988 0.502 0.394 0.0
C868 C 0.40182 0.48659 0.3424 0.0
C869 C 0.38311 0.48303 0.30013 0.0
C870 C 0.45167 0.48723 0.50462 0.0
C871 C 0.45654 0.50881 0.53428 0.0
C872 C 0.43354 0.48503 0.45956 0.0
C873 C 0.41945 0.5043 0.44253 0.0
C874 C 0.42429 0.52578 0.47278 0.0
C875 C 0.44243 0.52798 0.51744 0.0
H876 H 1.00144 0.36612 0.31796 0.0
H877 H 0.07511 0.36946 0.36027 0.0
H878 H 0.99556 0.40229 0.37802 0.0
H879 H 0.06936 0.40399 0.42329 0.0
H880 H 0.05879 0.47264 0.52119 0.0
H881 H 0.06372 0.44162 0.444 0.0
H882 H 0.99178 0.41989 0.47316 0.0
H883 H 0.98653 0.45242 0.54494 0.0
C884 C 0.01644 0.3747 0.33926 0.0
C885 C 0.03872 0.36455 0.3342 0.0
C886 C 0.01308 0.39536 0.37513 0.0
C887 C 0.03185 0.4065 0.40761 0.0
C888 C 0.05424 0.39673 0.39947 0.0
C889 C 0.05758 0.37648 0.36322 0.0
C890 C 0.04398 0.46139 0.51062 0.0
C891 C 0.02239 0.46508 0.54081 0.0
C892 C 0.04682 0.44314 0.4665 0.0
C893 C 0.0283 0.42736 0.45165 0.0
C894 C 1.00662 0.43134 0.48171 0.0
C895 C 1.0037 0.44991 0.52468 0.0
H896 H 0.88331 0.96435 0.03094 0.0
H897 H 0.84368 0.01742 0.93622 0.0
H898 H 0.91661 0.97194 0.96179 0.0
H899 H 0.87695 0.02494 0.86568 0.0
H900 H 0.94744 0.04452 0.77323 0.0
H901 H 0.91532 0.03931 0.84718 0.0
H902 H 0.93052 0.96558 0.85866 0.0
H903 H 0.96296 0.97097 0.78428 0.0
C904 C 0.88183 0.97802 0.99592 0.0
C905 C 0.86066 0.99038 0.98994 0.0
C906 C 0.90094 0.98215 0.95527 0.0
C907 C 0.89976 0.99882 0.90649 0.0
C908 C 0.87893 0.01202 0.90243 0.0
C909 C 0.85973 1.00787 0.9434 0.0
C910 C 0.94385 0.02706 0.79066 0.0
C911 C 0.95797 1.00815 0.77168 0.0
C912 C 0.92524 0.02406 0.83363 0.0
C913 C 0.91988 1.00199 0.85988 0.0
C914 C 0.93403 0.983 0.84085 0.0
C915 C 0.95268 0.98602 0.79757 0.0
H916 H 0.53709 0.84727 0.89743 0.0
H917 H 0.52296 0.89087 0.05795 0.0
H918 H 0.5328 0.8807 0.8278 0.0
H919 H 0.51955 0.92494 0.98849 0.0
H920 H 0.49797 0.98051 0.84272 0.0
H921 H 0.5002 0.94706 0.91382 0.0
H922 H 0.54942 0.91427 0.78788 0.0
H923 H 0.54654 0.94755 0.71653 0.0
C924 C 0.53294 0.86408 0.91802 0.0
C925 C 0.53024 0.8661 0.98377 0.0
C926 C 0.53078 0.88355 0.8778 0.0
C927 C 0.52611 0.90614 0.90141 0.0
C928 C 0.52287 0.90807 0.96736 0.0
C929 C 0.52478 0.8884 1.0077 0.0
C930 C 0.50922 0.96609 0.83006 0.0
C931 C 0.52166 0.96667 0.77272 0.0
C932 C 0.51064 0.94678 0.87136 0.0
C933 C 0.5248 0.92728 0.85743 0.0
C934 C 0.53767 0.92825 0.80045 0.0
C935 C 0.53609 0.94751 0.75902 0.0
H936 H 0.68324 0.52869 0.91124 0.0
H937 H 0.6388 0.52289 0.07436 0.0
H938 H 0.6495 0.52388 0.84284 0.0
H939 H 0.60451 0.5176 1.00538 0.0
H940 H 0.546 0.53671 0.8578 0.0
H941 H 0.5786 0.53757 0.93271 0.0
H942 H 0.62083 0.49877 0.80125 0.0
H943 H 0.58867 0.49833 0.72663 0.0
C944 C 0.66622 0.52589 0.93267 0.0
C945 C 0.66399 0.52602 0.99873 0.0
C946 C 0.64667 0.52304 0.89313 0.0
C947 C 0.62383 0.52029 0.91767 0.0
C948 C 0.62159 0.51987 0.98404 0.0
C949 C 0.64136 0.52257 0.0239 0.0
C950 C 0.56217 0.5282 0.84497 0.0
C951 C 0.56445 0.51761 0.78524 0.0
C952 C 0.58099 0.52861 0.88834 0.0
C953 C 0.60282 0.51846 0.87366 0.0
C954 C 0.60473 0.50732 0.81458 0.0
C955 C 0.58603 0.50695 0.77141 0.0
H956 H 0.01676 0.68729 0.94824 0.0
H957 H 0.97484 0.6436 0.06961 0.0
H958 H 0.02298 0.65416 0.87759 0.0
H959 H 0.98164 0.61006 1.00088 0.0
H960 H 0.97218 0.56219 0.82919 0.0
H961 H 0.97004 0.59376 0.90608 0.0
H962 H 0.03853 0.61835 0.84844 0.0
H963 H 0.0402 0.58724 0.77019 0.0
C964 C 0.00978 0.67029 0.96143 0.0
C965 C 0.99582 0.6681 0.01577 0.0
C966 C 0.01314 0.65114 0.9204 0.0
C967 C 1.00261 0.62903 0.93211 0.0
C968 C 0.98969 0.62666 0.98855 0.0
C969 C 0.98619 0.64585 0.02916 0.0
C970 C 0.98683 0.57428 0.83286 0.0
C971 C 1.00633 0.57193 0.79271 0.0
C972 C 0.98572 0.59248 0.87774 0.0
C973 C 1.00414 0.60902 0.88475 0.0
C974 C 0.02372 0.60647 0.84473 0.0
C975 C 0.02476 0.58837 0.79962 0.0
H976 H 0.14536 0.16441 0.22698 0.0
H977 H 0.15321 0.20087 0.40413 0.0
H978 H 0.12625 0.13238 0.2803 0.0
H979 H 0.132 0.16943 0.45641 0.0
H980 H 0.04731 0.13395 0.34384 0.0
H981 H 0.08593 0.14413 0.30472 0.0
H982 H 0.11543 0.13081 0.48825 0.0
H983 H 0.07615 0.12058 0.52759 0.0
C984 C 0.14403 0.16545 0.27764 0.0
C985 C 0.14881 0.18645 0.31032 0.0
C986 C 0.13277 0.14691 0.30824 0.0
C987 C 0.12602 0.14927 0.37139 0.0
C988 C 0.13608 0.16749 0.40694 0.0
C989 C 0.148 0.18577 0.37655 0.0
C990 C 0.06208 0.13292 0.3756 0.0
C991 C 0.05876 0.12696 0.43885 0.0
C992 C 0.08435 0.13832 0.35303 0.0
C993 C 0.1039 0.13808 0.39329 0.0
C994 C 0.10075 0.13105 0.45611 0.0
C995 C 0.07833 0.1253 0.47859 0.0
H996 H 0.32774 0.10158 0.44654 0.0
H997 H 0.36441 0.15544 0.34245 0.0
H998 H 0.36435 0.08566 0.48042 0.0
H999 H 0.40168 0.1401 0.37913 0.0
H1000 H 0.4473 0.07668 0.32178 0.0
H1001 H 0.41905 0.10732 0.33631 0.0
H1002 H 0.40108 0.07913 0.51911 0.0
H1003 H 0.4275 0.04687 0.50124 0.0
C1004 C 0.34364 0.11097 0.43402 0.0
C1005 C 0.34321 0.12924 0.38992 0.0
C1006 C 0.36492 0.10172 0.45346 0.0
C1007 C 0.38618 0.11083 0.42995 0.0
C1008 C 0.38564 0.13192 0.39568 0.0
C1009 C 0.36428 0.14097 0.37536 0.0
C1010 C 0.4372 0.07683 0.3649 0.0
C1011 C 0.43918 0.0587 0.40912 0.0
C1012 C 0.42131 0.09489 0.37415 0.0
C1013 C 0.40731 0.09567 0.42866 0.0
C1014 C 0.41106 0.07885 0.47579 0.0
C1015 C 0.42649 0.06038 0.46572 0.0
H1016 H 0.39645 0.3691 0.40707 0.0
H1017 H 0.43296 0.31082 0.48915 0.0
H1018 H 0.41709 0.3958 0.478 0.0
H1019 H 0.45398 0.33722 0.55791 0.0
H1020 H 0.50071 0.38674 0.65318 0.0
H1021 H 0.46333 0.36687 0.63241 0.0
H1022 H 0.45672 0.4061 0.45954 0.0
H1023 H 0.49343 0.42567 0.48031 0.0
C1024 C 0.40819 0.36191 0.44189 0.0
C1025 C 0.41357 0.33798 0.44134 0.0
C1026 C 0.42014 0.37719 0.48226 0.0
C1027 C 0.43793 0.36879 0.52183 0.0
C1028 C 0.44057 0.34445 0.52793 0.0
C1029 C 0.42841 0.32918 0.48821 0.0
C1030 C 0.49101 0.39124 0.61123 0.0
C1031 C 0.50023 0.40745 0.56784 0.0
C1032 C 0.46955 0.38 0.59952 0.0
C1033 C 0.45699 0.3847 0.54405 0.0
C1034 C 0.46551 0.40221 0.50332 0.0
C1035 C 0.48681 0.4134 0.51502 0.0
H1036 H 0.15198 0.42707 0.32237 0.0
H1037 H 0.19783 0.40952 0.47648 0.0
H1038 H 0.12855 0.45006 0.39123 0.0
H1039 H 0.17362 0.43267 0.54739 0.0
H1040 H 0.15699 0.51034 0.59952 0.0
H1041 H 0.17116 0.47318 0.56059 0.0
H1042 H 0.10439 0.46016 0.47092 0.0
H1043 H 0.09168 0.49849 0.50103 0.0
C1044 C 0.15649 0.42707 0.3718 0.0
C1045 C 0.17729 0.41687 0.39326 0.0
C1046 C 0.14287 0.44051 0.41195 0.0
C1047 C 0.14949 0.44396 0.47501 0.0
C1048 C 0.16847 0.43112 0.49859 0.0
C1049 C 0.18227 0.4177 0.45803 0.0
C1050 C 0.14538 0.4997 0.57094 0.0
C1051 C 0.12331 0.50798 0.55256 0.0
C1052 C 0.15333 0.47797 0.54983 0.0
C1053 C 0.13913 0.46369 0.51122 0.0
C1054 C 0.11616 0.4709 0.49879 0.0
C1055 C 0.10861 0.49292 0.51755 0.0
H1056 H 0.94552 0.80773 0.81746 0.0
H1057 H 0.91653 0.87428 0.87454 0.0
H1058 H 0.96791 0.82708 0.73718 0.0
H1059 H 0.9414 0.89385 0.7984 0.0
H1060 H 0.99591 0.92761 0.68267 0.0
H1061 H 0.96031 0.90486 0.70336 0.0
H1062 H 1.0027 0.84673 0.76377 0.0
H1063 H 0.03778 0.86915 0.7424 0.0
C1064 C 0.94321 0.82638 0.81259 0.0
C1065 C 0.93008 0.83947 0.85632 0.0
C1066 C 0.95655 0.83758 0.76644 0.0
C1067 C 0.95766 0.86211 0.76393 0.0
C1068 C 0.94156 0.87491 0.79999 0.0
C1069 C 0.92757 0.86362 0.84494 0.0
C1070 C 0.99753 0.90977 0.69915 0.0
C1071 C 0.01968 0.90028 0.71181 0.0
C1072 C 0.97712 0.89674 0.71093 0.0
C1073 C 0.9785 0.874 0.73584 0.0
C1074 C 1.00075 0.86399 0.74362 0.0
C1075 C 0.02105 0.87694 0.73162 0.0
H1076 H 0.68981 0.92531 0.90457 0.0
H1077 H 0.65295 0.8706 1.00607 0.0
H1078 H 0.6541 0.93731 0.85765 0.0
H1079 H 0.6163 0.88315 0.95854 0.0
H1080 H 0.56615 0.94826 0.98168 0.0
H1081 H 0.5935 0.91619 0.98324 0.0
H1082 H 0.6198 0.93727 0.80112 0.0
H1083 H 0.59494 0.97088 0.80299 0.0
C1084 C 0.6743 0.91499 0.91499 0.0
C1085 C 0.67443 0.89744 0.96134 0.0
C1086 C 0.65342 0.92202 0.88762 0.0
C1087 C 0.63194 0.91175 0.90561 0.0
C1088 C 0.6324 0.89201 0.94516 0.0
C1089 C 0.65347 0.88484 0.97252 0.0
C1090 C 0.57784 0.94625 0.942 0.0
C1091 C 0.57924 0.96342 0.89455 0.0
C1092 C 0.59322 0.92734 0.94212 0.0
C1093 C 0.60987 0.92483 0.89376 0.0
C1094 C 0.60807 0.93936 0.84076 0.0
C1095 C 0.59336 0.9587 0.84165 0.0
H1096 H 0.65898 0.67855 0.99296 0.0
H1097 H 0.62471 0.72721 0.86866 0.0
H1098 H 0.6403 0.64607 0.93722 0.0
H1099 H 0.60693 0.69502 0.81257 0.0
H1100 H 0.56257 0.63648 0.74717 0.0
H1101 H 0.60117 0.65532 0.75997 0.0
H1102 H 0.59632 0.64485 0.96084 0.0
H1103 H 0.55796 0.62658 0.94784 0.0
C1104 C 0.64851 0.68234 0.95185 0.0
C1105 C 0.6422 0.70551 0.93781 0.0
C1106 C 0.63787 0.66371 0.91983 0.0
C1107 C 0.62137 0.66814 0.87249 0.0
C1108 C 0.61928 0.69105 0.84958 0.0
C1109 C 0.62965 0.70966 0.88204 0.0
C1110 C 0.57017 0.63778 0.7937 0.0
C1111 C 0.55735 0.63055 0.84676 0.0
C1112 C 0.59221 0.64838 0.80096 0.0
C1113 C 0.60184 0.6514 0.86128 0.0
C1114 C 0.58964 0.6424 0.91362 0.0
C1115 C 0.56753 0.63227 0.90644 0.0
H1116 H 0.85637 0.62575 0.89605 0.0
H1117 H 0.78952 0.60874 0.81157 0.0
H1118 H 0.87615 0.60769 0.80804 0.0
H1119 H 0.80935 0.59242 0.72121 0.0
H1120 H 0.8486 0.52188 0.68554 0.0
H1121 H 0.8265 0.55523 0.72179 0.0
H1122 H 0.8883 0.59919 0.70473 0.0
H1123 H 0.91059 0.56528 0.67032 0.0
C1124 C 0.84587 0.61894 0.85769 0.0
C1125 C 0.82134 0.61779 0.86256 0.0
C1126 C 0.85726 0.60883 0.80642 0.0
C1127 C 0.84431 0.59774 0.75839 0.0
C1128 C 0.81984 0.60005 0.75846 0.0
C1129 C 0.80845 0.60979 0.81023 0.0
C1130 C 0.85723 0.53883 0.6873 0.0
C1131 C 0.88138 0.5409 0.67669 0.0
C1132 C 0.84454 0.55812 0.70791 0.0
C1133 C 0.85573 0.57992 0.71776 0.0
C1134 C 0.87928 0.58255 0.69939 0.0
C1135 C 0.89203 0.56317 0.67945 0.0
H1136 H 1.00201 0.17455 0.99413 0.0
H1137 H 0.05477 0.19942 0.8648 0.0
H1138 H 0.99702 0.13902 0.93099 0.0
H1139 H 0.04945 0.16448 0.80069 0.0
H1140 H 0.05362 0.08953 0.72819 0.0
H1141 H 0.05723 0.12507 0.79124 0.0
H1142 H 0.98405 0.11934 0.84128 0.0
H1143 H 0.98105 0.08304 0.78095 0.0
C1144 C 0.01218 0.17275 0.95142 0.0
C1145 C 0.02883 0.1901 0.93508 0.0
C1146 C 0.00938 0.15219 0.91488 0.0
C1147 C 0.02301 0.14824 0.86025 0.0
C1148 C 0.03899 0.16613 0.84289 0.0
C1149 C 0.0419 0.1865 0.87959 0.0
C1150 C 0.03839 0.09566 0.7534 0.0
C1151 C 0.01718 0.083 0.75005 0.0
C1152 C 0.04031 0.11644 0.78911 0.0
C1153 C 0.02093 0.12566 0.82215 0.0
C1154 C 0.9996 0.11301 0.81793 0.0
C1155 C 0.99777 0.09214 0.78252 0.0
H1156 H 0.3353 0.06329 0.85129 0.0
H1157 H 0.35865 0.01198 0.98468 0.0
H1158 H 0.36975 0.05669 0.7869 0.0
H1159 H 0.393 1.00435 0.9187 0.0
H1160 H 0.43049 0.03615 0.66154 0.0
H1161 H 0.39335 0.03685 0.71852 0.0
H1162 H 0.42942 0.019 0.89004 0.0
H1163 H 0.46611 0.01698 0.83205 0.0
C1164 C 0.34743 0.04988 0.86581 0.0
C1165 C 0.34383 0.03807 0.92338 0.0
C1166 C 0.36746 0.04605 0.82856 0.0
C1167 C 0.3849 0.03011 0.84694 0.0
C1168 C 0.38055 0.0172 0.90279 0.0
C1169 C 0.36044 0.02116 0.94036 0.0
C1170 C 0.43047 0.03209 0.71128 0.0
C1171 C 0.45159 0.02645 0.74163 0.0
C1172 C 0.40902 0.03273 0.74458 0.0
C1173 C 0.40779 0.02805 0.80994 0.0
C1174 C 0.42904 0.02235 0.84 0.0
C1175 C 0.4504 0.02151 0.80658 0.0
H1176 H 0.45741 0.34687 0.87434 0.0
H1177 H 0.521 0.36275 0.97511 0.0
H1178 H 0.46443 0.38018 0.80495 0.0
H1179 H 0.52853 0.39596 0.90328 0.0
H1180 H 0.53801 0.44478 0.71837 0.0
H1181 H 0.53505 0.40848 0.78045 0.0
H1182 H 0.46378 0.42504 0.82827 0.0
H1183 H 0.46685 0.46137 0.76793 0.0
C1184 C 0.47328 0.35711 0.88093 0.0
C1185 C 0.48852 0.35185 0.93127 0.0
C1186 C 0.47722 0.37645 0.84106 0.0
C1187 C 0.49686 0.39125 0.8486 0.0
C1188 C 0.51315 0.38509 0.89577 0.0
C1189 C 0.50896 0.36581 0.93677 0.0
C1190 C 0.52164 0.44067 0.74189 0.0
C1191 C 0.50268 0.45634 0.73771 0.0
C1192 C 0.52002 0.41985 0.77803 0.0
C1193 C 0.49918 0.4136 0.80999 0.0
C1194 C 0.48012 0.42901 0.80446 0.0
C1195 C 0.4819 0.45002 0.7697 0.0
H1196 H 0.17364 0.45993 0.90909 0.0
H1197 H 0.1764 0.53415 0.94599 0.0
H1198 H 0.13926 0.46512 0.84377 0.0
H1199 H 0.14195 0.53944 0.8779 0.0
H1200 H 0.08814 0.53867 0.70609 0.0
H1201 H 0.12497 0.53572 0.76547 0.0
H1202 H 0.09759 0.47485 0.86144 0.0
H1203 H 0.06127 0.47775 0.80185 0.0
C1204 C 0.16701 0.47749 0.90346 0.0
C1205 C 0.17791 0.49651 0.93487 0.0
C1206 C 0.14709 0.48045 0.86549 0.0
C1207 C 0.13724 0.50265 0.85589 0.0
C1208 C 0.14884 0.522 0.884 0.0
C1209 C 0.16878 0.51898 0.92304 0.0
C1210 C 0.0901 0.52449 0.73933 0.0
C1211 C 0.07148 0.50842 0.74882 0.0
C1212 C 0.1112 0.52297 0.77412 0.0
C1213 C 0.11458 0.50503 0.81882 0.0
C1214 C 0.09598 0.48886 0.8275 0.0
C1215 C 0.07487 0.49063 0.79357 0.0
H1216 H 0.03415 0.85541 0.36958 0.0
H1217 H 0.95925 0.85718 0.39215 0.0
H1218 H 0.03806 0.88964 0.43896 0.0
H1219 H 0.96295 0.89056 0.46245 0.0
H1220 H 0.97191 0.96611 0.52496 0.0
H1221 H 0.9696 0.93042 0.46318 0.0
H1222 H 0.03618 0.90866 0.53799 0.0
H1223 H 0.03904 0.94535 0.59706 0.0
C1224 C 0.01854 0.86273 0.39043 0.0
C1225 C 0.99637 0.85343 0.37459 0.0
C1226 C 0.02072 0.88252 0.4304 0.0
C1227 C 1.0008 0.89361 0.45623 0.0
C1228 C 0.97879 0.88338 0.44258 0.0
C1229 C 0.97664 0.86388 0.40246 0.0
C1230 C 0.98617 0.95385 0.52822 0.0
C1231 C 1.00564 0.95893 0.56668 0.0
C1232 C 0.98473 0.93297 0.49304 0.0
C1233 C 1.0026 0.91603 0.49507 0.0
C1234 C 0.02206 0.92105 0.53399 0.0
C1235 C 0.02357 0.94212 0.56888 0.0
H1236 H 0.66969 0.03314 0.31959 0.0
H1237 H 0.69189 0.97777 0.44241 0.0
H1238 H 0.63487 0.03902 0.38571 0.0
H1239 H 0.65741 0.98368 0.50876 0.0
H1240 H 0.59944 0.01124 0.64185 0.0
H1241 H 0.63627 1.00973 0.58235 0.0
H1242 H 0.59795 0.01762 0.40922 0.0
H1243 H 0.56133 0.01893 0.4683 0.0
C1244 C 0.66752 0.02266 0.36165 0.0
C1245 C 0.68389 1.00518 0.37584 0.0
C1246 C 0.64732 0.02579 0.39929 0.0
C1247 C 0.64298 0.01175 0.45294 0.0
C1248 C 0.65999 0.99501 0.46851 0.0
C1249 C 0.6799 0.99164 0.43037 0.0
C1250 C 0.59883 0.01269 0.5911 0.0
C1251 C 0.57713 0.01507 0.56033 0.0
C1252 C 0.62005 0.01175 0.55676 0.0
C1253 C 0.62039 0.01361 0.49045 0.0
C1254 C 0.59869 0.0164 0.45999 0.0
C1255 C 0.57751 0.01694 0.49414 0.0
H1256 H 0.5513 0.70036 0.45708 0.0
H1257 H 0.51169 0.67042 0.30438 0.0
H1258 H 0.54371 0.66559 0.52063 0.0
H1259 H 0.50393 0.63525 0.36828 0.0
H1260 H 0.48169 0.5804 0.5221 0.0
H1261 H 0.48543 0.61637 0.45971 0.0
H1262 H 0.55614 0.62562 0.52702 0.0
H1263 H 0.55218 0.58983 0.58956 0.0
C1264 C 0.54041 0.68656 0.43745 0.0
C1265 C 0.53194 0.6886 0.37533 0.0
C1266 C 0.53634 0.66628 0.47381 0.0
C1267 C 0.52352 0.64701 0.44993 0.0
C1268 C 0.51385 0.64954 0.38901 0.0
C1269 C 0.51808 0.66992 0.35227 0.0
C1270 C 0.49802 0.59017 0.5238 0.0
C1271 C 0.51664 0.58199 0.56113 0.0
C1272 C 0.50025 0.61083 0.48741 0.0
C1273 C 0.52107 0.6244 0.48785 0.0
C1274 C 0.53964 0.61615 0.5256 0.0
C1275 C 0.53748 0.59537 0.56134 0.0
H1276 H 0.86307 0.51169 0.30863 0.0
H1277 H 0.83585 0.56157 0.44082 0.0
H1278 H 0.89705 0.50556 0.37669 0.0
H1279 H 0.86924 0.55508 0.51012 0.0
H1280 H 0.94435 0.56075 0.58622 0.0
H1281 H 0.90904 0.56411 0.5221 0.0
H1282 H 0.91512 0.49153 0.46833 0.0
H1283 H 0.95084 0.48864 0.53065 0.0
C1284 C 0.86383 0.52066 0.35347 0.0
C1285 C 0.84628 0.53677 0.36943 0.0
C1286 C 0.88355 0.51732 0.3927 0.0
C1287 C 0.88653 0.53005 0.4494 0.0
C1288 C 0.86827 0.54529 0.46659 0.0
C1289 C 0.8487 0.54869 0.42726 0.0
C1290 C 0.93836 0.54562 0.55992 0.0
C1291 C 0.95088 0.52456 0.56317 0.0
C1292 C 0.91774 0.54739 0.52357 0.0
C1293 C 0.90871 0.52809 0.48909 0.0
C1294 C 0.92133 0.507 0.49276 0.0
C1295 C 0.94189 0.50527 0.52919 0.0
loop_
_geom_bond_atom_site_label_1
_geom_bond_atom_site_label_2
_geom_bond_distance
_geom_bond_site_symmetry_2
_ccdc_geom_bond_type
C0 C1 1.391 . S
C0 C4 1.391 . S
C0 H42 0.948 . S
C1 C0 1.391 . S
C1 C2 1.391 . S
C2 C1 1.391 . S
C2 H58 0.947 . S
C2 C59 1.392 . S
C3 C4 1.391 . S
C3 C7 1.397 . S
C3 C59 1.419 . S
C4 C0 1.391 . S
C4 C3 1.391 . S
C4 C5 1.399 . S
C5 C4 1.399 . S
C5 C8 1.396 . S
C5 C17 1.453 . S
C5 C18 1.684 . S
H6 C30 0.948 . S
C7 C3 1.397 . S
C7 C8 1.394 . S
C7 C26 1.723 . S
C8 C5 1.396 . S
C8 C7 1.394 . S
C8 C38 1.723 . S
H9 C32 0.947 . S
H10 C33 0.948 . S
H11 C39 0.982 . S
H12 C40 0.979 . S
H13 C40 0.980 . S
H14 C40 0.983 . S
H15 C39 0.979 . S
H16 C39 0.977 . S
C17 C5 1.453 . S
C17 H46 0.982 . S
C17 H47 0.979 . S
C17 H48 0.977 . S
C18 C5 1.684 . S
C18 H43 0.979 . S
C18 H44 0.980 . S
C18 H45 0.983 . S
C19 C20 1.391 . S
C19 C24 1.391 . S
C19 H49 0.948 . S
C20 C19 1.391 . S
C20 C21 1.391 . S
C21 C20 1.391 . S
C21 C22 1.392 . S
C21 H50 0.947 1_554 S
C22 C21 1.392 . S
C22 C23 1.419 . S
C22 H51 0.948 . S
C23 C22 1.419 . S
C23 C24 1.391 . S
C23 C27 1.397 . S
C24 C19 1.391 . S
C24 C23 1.391 . S
C24 C25 1.399 . S
C25 C24 1.399 . S
C25 C26 1.396 . S
C25 C28 1.453 . S
C25 C29 1.684 . S
C26 C7 1.723 . S
C26 C25 1.396 . S
C26 C27 1.394 . S
C27 C23 1.397 . S
C27 C26 1.394 . S
C27 C37 1.723 . S
C28 C25 1.453 . S
C28 H52 0.982 . S
C28 H53 0.979 . S
C28 H54 0.977 . S
C29 C25 1.684 . S
C29 H55 0.979 . S
C29 H56 0.980 . S
C29 H57 0.983 . S
C30 H6 0.948 . S
C30 C31 1.391 . S
C30 C35 1.391 . S
C31 C30 1.391 . S
C31 C32 1.391 . S
C32 H9 0.947 . S
C32 C31 1.391 . S
C32 C33 1.392 . S
C33 H10 0.948 . S
C33 C32 1.392 . S
C33 C34 1.419 . S
C34 C33 1.419 . S
C34 C35 1.391 . S
C34 C38 1.397 . S
C35 C30 1.391 . S
C35 C34 1.391 . S
C35 C36 1.399 . S
C36 C35 1.399 . S
C36 C37 1.396 . S
C36 C39 1.453 . S
C36 C40 1.684 . S
C37 C27 1.723 . S
C37 C36 1.396 . S
C37 C38 1.394 . S
C38 C8 1.723 . S
C38 C34 1.397 . S
C38 C37 1.394 . S
C39 H11 0.982 . S
C39 H15 0.979 . S
C39 H16 0.977 . S
C39 C36 1.453 . S
C40 H12 0.979 . S
C40 H13 0.980 . S
C40 H14 0.983 . S
C40 C36 1.684 . S
H41 C59 0.948 . S
H42 C0 0.948 . S
H43 C18 0.979 . S
H44 C18 0.980 . S
H45 C18 0.983 . S
H46 C17 0.982 . S
H47 C17 0.979 . S
H48 C17 0.977 . S
H49 C19 0.948 . S
H50 C21 0.947 1_556 S
H51 C22 0.948 . S
H52 C28 0.982 . S
H53 C28 0.979 . S
H54 C28 0.977 . S
H55 C29 0.979 . S
H56 C29 0.980 . S
H57 C29 0.983 . S
H58 C2 0.947 . S
C59 C2 1.392 . S
C59 C3 1.419 . S
C59 H41 0.948 . S
C60 C61 1.391 . S
C60 C64 1.391 . S
C60 H102 0.948 . S
C61 C60 1.391 . S
C61 C62 1.391 . S
C62 C61 1.391 . S
C62 H118 0.947 . S
C62 C119 1.392 . S
C63 C64 1.391 . S
C63 C67 1.397 . S
C63 C119 1.419 . S
C64 C60 1.391 . S
C64 C63 1.391 . S
C64 C65 1.399 . S
C65 C64 1.399 . S
C65 C68 1.396 . S
C65 C77 1.453 . S
C65 C78 1.684 . S
H66 C90 0.948 . S
C67 C63 1.397 . S
C67 C68 1.394 . S
C67 C86 1.723 . S
C68 C65 1.396 . S
C68 C67 1.394 . S
C68 C98 1.723 . S
H69 C92 0.947 . S
H70 C93 0.948 . S
H71 C99 0.982 . S
H72 C100 0.979 . S
H73 C100 0.980 . S
H74 C100 0.983 . S
H75 C99 0.979 . S
H76 C99 0.977 . S
C77 C65 1.453 . S
C77 H106 0.982 . S
C77 H107 0.979 . S
C77 H108 0.977 . S
C78 C65 1.684 . S
C78 H103 0.979 . S
C78 H104 0.980 . S
C78 H105 0.983 . S
C79 C80 1.391 . S
C79 C84 1.391 . S
C79 H109 0.948 . S
C80 C79 1.391 . S
C80 C81 1.391 . S
C81 C80 1.391 . S
C81 C82 1.392 . S
C81 H110 0.947 . S
C82 C81 1.392 . S
C82 C83 1.419 . S
C82 H111 0.948 . S
C83 C82 1.419 . S
C83 C84 1.391 . S
C83 C87 1.397 . S
C84 C79 1.391 . S
C84 C83 1.391 . S
C84 C85 1.399 . S
C85 C84 1.399 . S
C85 C86 1.396 . S
C85 C88 1.453 . S
C85 C89 1.684 . S
C86 C67 1.723 . S
C86 C85 1.396 . S
C86 C87 1.394 . S
C87 C83 1.397 . S
C87 C86 1.394 . S
C87 C97 1.723 . S
C88 C85 1.453 . S
C88 H112 0.982 . S
C88 H113 0.979 . S
C88 H114 0.977 . S
C89 C85 1.684 . S
C89 H115 0.979 . S
C89 H116 0.980 . S
C89 H117 0.983 . S
C90 H66 0.948 . S
C90 C91 1.391 . S
C90 C95 1.391 . S
C91 C90 1.391 . S
C91 C92 1.391 . S
C92 H69 0.947 . S
C92 C91 1.391 . S
C92 C93 1.392 . S
C93 H70 0.948 . S
C93 C92 1.392 . S
C93 C94 1.419 . S
C94 C93 1.419 . S
C94 C95 1.391 . S
C94 C98 1.397 . S
C95 C90 1.391 . S
C95 C94 1.391 . S
C95 C96 1.399 . S
C96 C95 1.399 . S
C96 C97 1.396 . S
C96 C99 1.453 . S
C96 C100 1.684 . S
C97 C87 1.723 . S
C97 C96 1.396 . S
C97 C98 1.394 . S
C98 C68 1.723 . S
C98 C94 1.397 . S
C98 C97 1.394 . S
C99 H71 0.982 . S
C99 H75 0.979 . S
C99 H76 0.977 . S
C99 C96 1.453 . S
C100 H72 0.979 . S
C100 H73 0.980 . S
C100 H74 0.983 . S
C100 C96 1.684 . S
H101 C119 0.948 . S
H102 C60 0.948 . S
H103 C78 0.979 . S
H104 C78 0.980 . S
H105 C78 0.983 . S
H106 C77 0.982 . S
H107 C77 0.979 . S
H108 C77 0.977 . S
H109 C79 0.948 . S
H110 C81 0.947 . S
H111 C82 0.948 . S
H112 C88 0.982 . S
H113 C88 0.979 . S
H114 C88 0.977 . S
H115 C89 0.979 . S
H116 C89 0.980 . S
H117 C89 0.983 . S
H118 C62 0.947 . S
C119 C62 1.392 . S
C119 C63 1.419 . S
C119 H101 0.948 . S
C120 C121 1.391 . S
C120 C124 1.391 . S
C120 H162 0.948 . S
C121 C120 1.391 . S
C121 C122 1.391 . S
C122 C121 1.391 . S
C122 H178 0.947 . S
C122 C179 1.392 . S
C123 C124 1.391 . S
C123 C127 1.397 . S
C123 C179 1.419 . S
C124 C120 1.391 . S
C124 C123 1.391 . S
C124 C125 1.399 . S
C125 C124 1.399 . S
C125 C128 1.396 . S
C125 C137 1.453 . S
C125 C138 1.684 . S
H126 C150 0.948 . S
C127 C123 1.397 . S
C127 C128 1.394 . S
C127 C146 1.723 . S
C128 C125 1.396 . S
C128 C127 1.394 . S
C128 C158 1.723 . S
H129 C152 0.947 . S
H130 C153 0.948 . S
H131 C159 0.979 1_545 S
H132 C160 0.979 . S
H133 C160 0.980 . S
H134 C160 0.983 . S
H135 C159 0.979 . S
H136 C159 0.977 . S
C137 C125 1.453 . S
C137 H166 0.979 1_565 S
C137 H167 0.979 . S
C137 H168 0.977 . S
C138 C125 1.684 . S
C138 H163 0.979 . S
C138 H164 0.980 . S
C138 H165 0.983 . S
C139 C140 1.391 . S
C139 C144 1.391 . S
C139 H169 0.948 . S
C140 C139 1.391 . S
C140 C141 1.391 . S
C141 C140 1.391 . S
C141 C142 1.392 . S
C141 H170 0.947 . S
C142 C141 1.392 . S
C142 C143 1.419 . S
C142 H171 0.948 . S
C143 C142 1.419 . S
C143 C144 1.391 . S
C143 C147 1.397 . S
C144 C139 1.391 . S
C144 C143 1.391 . S
C144 C145 1.399 . S
C145 C144 1.399 . S
C145 C146 1.396 . S
C145 C148 1.453 . S
C145 C149 1.684 . S
C146 C127 1.723 . S
C146 C145 1.396 . S
C146 C147 1.394 . S
C147 C143 1.397 . S
C147 C146 1.394 . S
C147 C157 1.723 . S
C148 C145 1.453 . S
C148 H172 0.979 1_565 S
C148 H173 0.979 . S
C148 H174 0.977 . S
C149 C145 1.684 . S
C149 H175 0.979 . S
C149 H176 0.980 . S
C149 H177 0.983 . S
C150 H126 0.948 . S
C150 C151 1.391 . S
C150 C155 1.391 . S
C151 C150 1.391 . S
C151 C152 1.391 . S
C152 H129 0.947 . S
C152 C151 1.391 . S
C152 C153 1.392 . S
C153 H130 0.948 . S
C153 C152 1.392 . S
C153 C154 1.419 . S
C154 C153 1.419 . S
C154 C155 1.391 . S
C154 C158 1.397 . S
C155 C150 1.391 . S
C155 C154 1.391 . S
C155 C156 1.399 . S
C156 C155 1.399 . S
C156 C157 1.396 . S
C156 C159 1.453 . S
C156 C160 1.684 . S
C157 C147 1.723 . S
C157 C156 1.396 . S
C157 C158 1.394 . S
C158 C128 1.723 . S
C158 C154 1.397 . S
C158 C157 1.394 . S
C159 H131 0.979 1_565 S
C159 H135 0.979 . S
C159 H136 0.977 . S
C159 C156 1.453 . S
C160 H132 0.979 . S
C160 H133 0.980 . S
C160 H134 0.983 . S
C160 C156 1.684 . S
H161 C179 0.948 . S
H162 C120 0.948 . S
H163 C138 0.979 . S
H164 C138 0.980 . S
H165 C138 0.983 . S
H166 C137 0.979 1_545 S
H167 C137 0.979 . S
H168 C137 0.977 . S
H169 C139 0.948 . S
H170 C141 0.947 . S
H171 C142 0.948 . S
H172 C148 0.979 1_545 S
H173 C148 0.979 . S
H174 C148 0.977 . S
H175 C149 0.979 . S
H176 C149 0.980 . S
H177 C149 0.983 . S
H178 C122 0.947 . S
C179 C122 1.392 . S
C179 C123 1.419 . S
C179 H161 0.948 . S
C180 C181 1.391 . S
C180 C184 1.391 . S
C180 H222 0.948 . S
C181 C180 1.391 . S
C181 C182 1.391 . S
C182 C181 1.391 . S
C182 H238 0.947 . S
C182 C239 1.392 . S
C183 C184 1.391 . S
C183 C187 1.397 . S
C183 C239 1.419 . S
C184 C180 1.391 . S
C184 C183 1.391 . S
C184 C185 1.399 . S
C185 C184 1.399 . S
C185 C188 1.396 . S
C185 C197 1.453 . S
C185 C198 1.684 . S
H186 C210 0.948 . S
C187 C183 1.397 . S
C187 C188 1.394 . S
C187 C206 1.723 . S
C188 C185 1.396 . S
C188 C187 1.394 . S
C188 C218 1.723 . S
H189 C212 0.947 . S
H190 C213 0.948 . S
H191 C219 0.982 . S
H192 C220 0.979 . S
H193 C220 0.980 . S
H194 C220 0.983 . S
H195 C219 0.979 . S
H196 C219 0.977 . S
C197 C185 1.453 . S
C197 H226 0.982 . S
C197 H227 0.979 . S
C197 H228 0.977 . S
C198 C185 1.684 . S
C198 H223 0.979 . S
C198 H224 0.980 . S
C198 H225 0.983 . S
C199 C200 1.391 . S
C199 C204 1.391 . S
C199 H229 0.948 . S
C200 C199 1.391 . S
C200 C201 1.391 . S
C201 C200 1.391 . S
C201 C202 1.392 . S
C201 H230 0.947 1_554 S
C202 C201 1.392 . S
C202 C203 1.419 . S
C202 H231 0.948 . S
C203 C202 1.419 . S
C203 C204 1.391 . S
C203 C207 1.397 . S
C204 C199 1.391 . S
C204 C203 1.391 . S
C204 C205 1.399 . S
C205 C204 1.399 . S
C205 C206 1.396 . S
C205 C208 1.453 . S
C205 C209 1.684 . S
C206 C187 1.723 . S
C206 C205 1.396 . S
C206 C207 1.394 . S
C207 C203 1.397 . S
C207 C206 1.394 . S
C207 C217 1.723 . S
C208 C205 1.453 . S
C208 H232 0.982 . S
C208 H233 0.979 . S
C208 H234 0.977 . S
C209 C205 1.684 . S
C209 H235 0.979 . S
C209 H236 0.980 . S
C209 H237 0.983 . S
C210 H186 0.948 . S
C210 C211 1.391 . S
C210 C215 1.391 . S
C211 C210 1.391 . S
C211 C212 1.391 . S
C212 H189 0.947 . S
C212 C211 1.391 . S
C212 C213 1.392 . S
C213 H190 0.948 . S
C213 C212 1.392 . S
C213 C214 1.419 . S
C214 C213 1.419 . S
C214 C215 1.391 . S
C214 C218 1.397 . S
C215 C210 1.391 . S
C215 C214 1.391 . S
C215 C216 1.399 . S
C216 C215 1.399 . S
C216 C217 1.396 . S
C216 C219 1.453 . S
C216 C220 1.684 . S
C217 C207 1.723 . S
C217 C216 1.396 . S
C217 C218 1.394 . S
C218 C188 1.723 . S
C218 C214 1.397 . S
C218 C217 1.394 . S
C219 H191 0.982 . S
C219 H195 0.979 . S
C219 H196 0.977 . S
C219 C216 1.453 . S
C220 H192 0.979 . S
C220 H193 0.980 . S
C220 H194 0.983 . S
C220 C216 1.684 . S
H221 C239 0.948 . S
H222 C180 0.948 . S
H223 C198 0.979 . S
H224 C198 0.980 . S
H225 C198 0.983 . S
H226 C197 0.982 . S
H227 C197 0.979 . S
H228 C197 0.977 . S
H229 C199 0.948 . S
H230 C201 0.947 1_556 S
H231 C202 0.948 . S
H232 C208 0.982 . S
H233 C208 0.979 . S
H234 C208 0.977 . S
H235 C209 0.979 . S
H236 C209 0.980 . S
H237 C209 0.983 . S
H238 C182 0.947 . S
C239 C182 1.392 . S
C239 C183 1.419 . S
C239 H221 0.948 . S
C240 C241 1.391 . S
C240 C244 1.391 . S
C240 H282 0.948 . S
C241 C240 1.391 . S
C241 C242 1.391 . S
C242 C241 1.391 . S
C242 H298 0.947 . S
C242 C299 1.392 . S
C243 C244 1.391 . S
C243 C247 1.397 . S
C243 C299 1.419 . S
C244 C240 1.391 . S
C244 C243 1.391 . S
C244 C245 1.399 1_554 S
C245 C244 1.399 1_556 S
C245 C248 1.396 1_556 S
C245 C257 1.453 . S
C245 C258 1.684 . S
H246 C270 0.948 . S
C247 C243 1.397 . S
C247 C248 1.394 . S
C247 C266 1.723 . S
C248 C245 1.396 1_554 S
C248 C247 1.394 . S
C248 C278 1.723 1_554 S
H249 C272 0.947 . S
H250 C273 0.948 . S
H251 C279 0.982 . S
H252 C280 0.979 . S
H253 C280 0.980 1_554 S
H254 C280 0.983 . S
H255 C279 0.979 . S
H256 C279 0.977 1_554 S
C257 C245 1.453 . S
C257 H286 0.982 . S
C257 H287 0.979 . S
C257 H288 0.977 . S
C258 C245 1.684 . S
C258 H283 0.979 . S
C258 H284 0.980 . S
C258 H285 0.983 . S
C259 C260 1.391 . S
C259 C264 1.391 . S
C259 H289 0.948 . S
C260 C259 1.391 . S
C260 C261 1.391 . S
C261 C260 1.391 . S
C261 C262 1.392 . S
C261 H290 0.947 . S
C262 C261 1.392 . S
C262 C263 1.419 . S
C262 H291 0.948 . S
C263 C262 1.419 . S
C263 C264 1.391 . S
C263 C267 1.397 . S
C264 C259 1.391 . S
C264 C263 1.391 . S
C264 C265 1.399 . S
C265 C264 1.399 . S
C265 C266 1.396 . S
C265 C268 1.453 . S
C265 C269 1.684 . S
C266 C247 1.723 . S
C266 C265 1.396 . S
C266 C267 1.394 . S
C267 C263 1.397 . S
C267 C266 1.394 . S
C267 C277 1.723 . S
C268 C265 1.453 . S
C268 H292 0.982 . S
C268 H293 0.979 . S
C268 H294 0.977 . S
C269 C265 1.684 . S
C269 H295 0.979 . S
C269 H296 0.980 . S
C269 H297 0.983 . S
C270 H246 0.948 . S
C270 C271 1.391 . S
C270 C275 1.391 . S
C271 C270 1.391 . S
C271 C272 1.391 . S
C272 H249 0.947 . S
C272 C271 1.391 . S
C272 C273 1.392 . S
C273 H250 0.948 . S
C273 C272 1.392 . S
C273 C274 1.419 . S
C274 C273 1.419 . S
C274 C275 1.391 . S
C274 C278 1.397 . S
C275 C270 1.391 . S
C275 C274 1.391 . S
C275 C276 1.399 . S
C276 C275 1.399 . S
C276 C277 1.396 1_556 S
C276 C279 1.453 . S
C276 C280 1.684 . S
C277 C267 1.723 . S
C277 C276 1.396 1_554 S
C277 C278 1.394 1_554 S
C278 C248 1.723 1_556 S
C278 C274 1.397 . S
C278 C277 1.394 1_556 S
C279 H251 0.982 . S
C279 H255 0.979 . S
C279 H256 0.977 1_556 S
C279 C276 1.453 . S
C280 H252 0.979 . S
C280 H253 0.980 1_556 S
C280 H254 0.983 . S
C280 C276 1.684 . S
H281 C299 0.948 . S
H282 C240 0.948 . S
H283 C258 0.979 . S
H284 C258 0.980 . S
H285 C258 0.983 . S
H286 C257 0.982 . S
H287 C257 0.979 . S
H288 C257 0.977 . S
H289 C259 0.948 . S
H290 C261 0.947 . S
H291 C262 0.948 . S
H292 C268 0.982 . S
H293 C268 0.979 . S
H294 C268 0.977 . S
H295 C269 0.979 . S
H296 C269 0.980 . S
H297 C269 0.983 . S
H298 C242 0.947 . S
C299 C242 1.392 . S
C299 C243 1.419 . S
C299 H281 0.948 . S
C300 C301 1.391 . S
C300 C304 1.391 . S
C300 H342 0.948 . S
C301 C300 1.391 . S
C301 C302 1.391 . S
C302 C301 1.391 . S
C302 H358 0.947 . S
C302 C359 1.392 . S
C303 C304 1.391 . S
C303 C307 1.397 . S
C303 C359 1.419 . S
C304 C300 1.391 . S
C304 C303 1.391 . S
C304 C305 1.399 . S
C305 C304 1.399 . S
C305 C308 1.396 . S
C305 C317 1.453 . S
C305 C318 1.684 . S
H306 C330 0.948 . S
C307 C303 1.397 . S
C307 C308 1.394 . S
C307 C326 1.723 . S
C308 C305 1.396 . S
C308 C307 1.394 . S
C308 C338 1.723 . S
H309 C332 0.947 . S
H310 C333 0.948 . S
H311 C339 0.982 . S
H312 C340 0.979 . S
H313 C340 0.980 . S
H314 C340 0.983 . S
H315 C339 0.979 . S
H316 C339 0.977 . S
C317 C305 1.453 . S
C317 H346 0.982 . S
C317 H347 0.979 . S
C317 H348 0.977 . S
C318 C305 1.684 . S
C318 H343 0.979 . S
C318 H344 0.980 . S
C318 H345 0.983 . S
C319 C320 1.391 . S
C319 C324 1.391 . S
C319 H349 0.948 . S
C320 C319 1.391 . S
C320 C321 1.391 . S
C321 C320 1.391 . S
C321 C322 1.392 . S
C321 H350 0.947 . S
C322 C321 1.392 . S
C322 C323 1.419 . S
C322 H351 0.948 . S
C323 C322 1.419 . S
C323 C324 1.391 . S
C323 C327 1.397 . S
C324 C319 1.391 . S
C324 C323 1.391 . S
C324 C325 1.399 . S
C325 C324 1.399 . S
C325 C326 1.396 1_556 S
C325 C328 1.453 . S
C325 C329 1.684 . S
C326 C307 1.723 . S
C326 C325 1.396 1_554 S
C326 C327 1.394 1_554 S
C327 C323 1.397 . S
C327 C326 1.394 1_556 S
C327 C337 1.723 1_556 S
C328 C325 1.453 . S
C328 H352 0.982 . S
C328 H353 0.979 . S
C328 H354 0.977 1_556 S
C329 C325 1.684 . S
C329 H355 0.979 . S
C329 H356 0.980 1_556 S
C329 H357 0.983 . S
C330 H306 0.948 . S
C330 C331 1.391 . S
C330 C335 1.391 . S
C331 C330 1.391 . S
C331 C332 1.391 . S
C332 H309 0.947 . S
C332 C331 1.391 . S
C332 C333 1.392 . S
C333 H310 0.948 . S
C333 C332 1.392 . S
C333 C334 1.419 . S
C334 C333 1.419 . S
C334 C335 1.391 . S
C334 C338 1.397 . S
C335 C330 1.391 . S
C335 C334 1.391 . S
C335 C336 1.399 1_554 S
C336 C335 1.399 1_556 S
C336 C337 1.396 1_556 S
C336 C339 1.453 . S
C336 C340 1.684 . S
C337 C327 1.723 1_554 S
C337 C336 1.396 1_554 S
C337 C338 1.394 . S
C338 C308 1.723 . S
C338 C334 1.397 . S
C338 C337 1.394 . S
C339 H311 0.982 . S
C339 H315 0.979 . S
C339 H316 0.977 . S
C339 C336 1.453 . S
C340 H312 0.979 . S
C340 H313 0.980 . S
C340 H314 0.983 . S
C340 C336 1.684 . S
H341 C359 0.948 . S
H342 C300 0.948 . S
H343 C318 0.979 . S
H344 C318 0.980 . S
H345 C318 0.983 . S
H346 C317 0.982 . S
H347 C317 0.979 . S
H348 C317 0.977 . S
H349 C319 0.948 . S
H350 C321 0.947 . S
H351 C322 0.948 . S
H352 C328 0.982 . S
H353 C328 0.979 . S
H354 C328 0.977 1_554 S
H355 C329 0.979 . S
H356 C329 0.980 1_554 S
H357 C329 0.983 . S
H358 C302 0.947 . S
C359 C302 1.392 . S
C359 C303 1.419 . S
C359 H341 0.948 . S
C360 C361 1.391 . S
C360 C364 1.391 . S
C360 H402 0.948 . S
C361 C360 1.391 . S
C361 C362 1.391 . S
C362 C361 1.391 . S
C362 H418 0.947 . S
C362 C419 1.392 . S
C363 C364 1.391 . S
C363 C367 1.397 . S
C363 C419 1.419 . S
C364 C360 1.391 . S
C364 C363 1.391 . S
C364 C365 1.399 . S
C365 C364 1.399 . S
C365 C368 1.396 . S
C365 C377 1.453 . S
C365 C378 1.684 . S
H366 C390 0.948 . S
C367 C363 1.397 . S
C367 C368 1.394 . S
C367 C386 1.723 1_556 S
C368 C365 1.396 . S
C368 C367 1.394 . S
C368 C398 1.723 1_556 S
H369 C392 0.947 . S
H370 C393 0.948 1_556 S
H371 C399 0.982 . S
H372 C400 0.979 . S
H373 C400 0.980 . S
H374 C400 0.983 . S
H375 C399 0.979 . S
H376 C399 0.977 . S
C377 C365 1.453 . S
C377 H406 0.982 . S
C377 H407 0.979 . S
C377 H408 0.977 . S
C378 C365 1.684 . S
C378 H403 0.979 . S
C378 H404 0.980 . S
C378 H405 0.983 . S
C379 C380 1.391 . S
C379 C384 1.391 . S
C379 H409 0.948 . S
C380 C379 1.391 . S
C380 C381 1.391 . S
C381 C380 1.391 . S
C381 C382 1.392 . S
C381 H410 0.947 . S
C382 C381 1.392 . S
C382 C383 1.419 . S
C382 H411 0.948 . S
C383 C382 1.419 . S
C383 C384 1.391 . S
C383 C387 1.397 . S
C384 C379 1.391 . S
C384 C383 1.391 . S
C384 C385 1.399 . S
C385 C384 1.399 . S
C385 C386 1.396 . S
C385 C388 1.453 . S
C385 C389 1.684 . S
C386 C367 1.723 1_554 S
C386 C385 1.396 . S
C386 C387 1.394 . S
C387 C383 1.397 . S
C387 C386 1.394 . S
C387 C397 1.723 . S
C388 C385 1.453 . S
C388 H412 0.982 . S
C388 H413 0.979 . S
C388 H414 0.977 1_554 S
C389 C385 1.684 . S
C389 H415 0.979 . S
C389 H416 0.980 1_554 S
C389 H417 0.983 . S
C390 H366 0.948 . S
C390 C391 1.391 . S
C390 C395 1.391 . S
C391 C390 1.391 . S
C391 C392 1.391 . S
C392 H369 0.947 . S
C392 C391 1.391 . S
C392 C393 1.392 . S
C393 H370 0.948 1_554 S
C393 C392 1.392 . S
C393 C394 1.419 . S
C394 C393 1.419 . S
C394 C395 1.391 . S
C394 C398 1.397 . S
C395 C390 1.391 . S
C395 C394 1.391 . S
C395 C396 1.399 . S
C396 C395 1.399 . S
C396 C397 1.396 . S
C396 C399 1.453 . S
C396 C400 1.684 . S
C397 C387 1.723 . S
C397 C396 1.396 . S
C397 C398 1.394 . S
C398 C368 1.723 1_554 S
C398 C394 1.397 . S
C398 C397 1.394 . S
C399 H371 0.982 . S
C399 H375 0.979 . S
C399 H376 0.977 . S
C399 C396 1.453 . S
C400 H372 0.979 . S
C400 H373 0.980 . S
C400 H374 0.983 . S
C400 C396 1.684 . S
H401 C419 0.948 . S
H402 C360 0.948 . S
H403 C378 0.979 . S
H404 C378 0.980 . S
H405 C378 0.983 . S
H406 C377 0.982 . S
H407 C377 0.979 . S
H408 C377 0.977 . S
H409 C379 0.948 . S
H410 C381 0.947 . S
H411 C382 0.948 . S
H412 C388 0.982 . S
H413 C388 0.979 . S
H414 C388 0.977 1_556 S
H415 C389 0.979 . S
H416 C389 0.980 1_556 S
H417 C389 0.983 . S
H418 C362 0.947 . S
C419 C362 1.392 . S
C419 C363 1.419 . S
C419 H401 0.948 . S
C420 C421 1.391 . S
C420 C424 1.391 . S
C420 H462 0.948 . S
C421 C420 1.391 . S
C421 C422 1.391 . S
C422 C421 1.391 . S
C422 H478 0.947 . S
C422 C479 1.392 . S
C423 C424 1.391 . S
C423 C427 1.397 . S
C423 C479 1.419 . S
C424 C420 1.391 . S
C424 C423 1.391 . S
C424 C425 1.399 . S
C425 C424 1.399 . S
C425 C428 1.396 . S
C425 C437 1.453 . S
C425 C438 1.684 . S
H426 C450 0.948 . S
C427 C423 1.397 . S
C427 C428 1.394 . S
C427 C446 1.723 1_556 S
C428 C425 1.396 . S
C428 C427 1.394 . S
C428 C458 1.723 1_556 S
H429 C452 0.947 1_556 S
H430 C453 0.948 1_556 S
H431 C459 0.982 . S
H432 C460 0.979 . S
H433 C460 0.980 . S
H434 C460 0.983 . S
H435 C459 0.979 . S
H436 C459 0.977 . S
C437 C425 1.453 . S
C437 H466 0.982 . S
C437 H467 0.979 . S
C437 H468 0.977 . S
C438 C425 1.684 . S
C438 H463 0.979 . S
C438 H464 0.980 . S
C438 H465 0.983 . S
C439 C440 1.391 . S
C439 C444 1.391 . S
C439 H469 0.948 . S
C440 C439 1.391 . S
C440 C441 1.391 . S
C441 C440 1.391 . S
C441 C442 1.392 . S
C441 H470 0.947 . S
C442 C441 1.392 . S
C442 C443 1.419 . S
C442 H471 0.948 . S
C443 C442 1.419 . S
C443 C444 1.391 . S
C443 C447 1.397 . S
C444 C439 1.391 . S
C444 C443 1.391 . S
C444 C445 1.399 . S
C445 C444 1.399 . S
C445 C446 1.396 . S
C445 C448 1.453 . S
C445 C449 1.684 . S
C446 C427 1.723 1_554 S
C446 C445 1.396 . S
C446 C447 1.394 . S
C447 C443 1.397 . S
C447 C446 1.394 . S
C447 C457 1.723 . S
C448 C445 1.453 . S
C448 H472 0.982 . S
C448 H473 0.979 . S
C448 H474 0.977 1_554 S
C449 C445 1.684 . S
C449 H475 0.979 . S
C449 H476 0.980 1_554 S
C449 H477 0.983 . S
C450 H426 0.948 . S
C450 C451 1.391 . S
C450 C455 1.391 . S
C451 C450 1.391 . S
C451 C452 1.391 . S
C452 H429 0.947 1_554 S
C452 C451 1.391 . S
C452 C453 1.392 . S
C453 H430 0.948 1_554 S
C453 C452 1.392 . S
C453 C454 1.419 . S
C454 C453 1.419 . S
C454 C455 1.391 . S
C454 C458 1.397 . S
C455 C450 1.391 . S
C455 C454 1.391 . S
C455 C456 1.399 . S
C456 C455 1.399 . S
C456 C457 1.396 . S
C456 C459 1.453 . S
C456 C460 1.684 . S
C457 C447 1.723 . S
C457 C456 1.396 . S
C457 C458 1.394 . S
C458 C428 1.723 1_554 S
C458 C454 1.397 . S
C458 C457 1.394 . S
C459 H431 0.982 . S
C459 H435 0.979 . S
C459 H436 0.977 . S
C459 C456 1.453 . S
C460 H432 0.979 . S
C460 H433 0.980 . S
C460 H434 0.983 . S
C460 C456 1.684 . S
H461 C479 0.948 . S
H462 C420 0.948 . S
H463 C438 0.979 . S
H464 C438 0.980 . S
H465 C438 0.983 . S
H466 C437 0.982 . S
H467 C437 0.979 . S
H468 C437 0.977 . S
H469 C439 0.948 . S
H470 C441 0.947 . S
H471 C442 0.948 . S
H472 C448 0.982 . S
H473 C448 0.979 . S
H474 C448 0.977 1_556 S
H475 C449 0.979 . S
H476 C449 0.980 1_556 S
H477 C449 0.983 . S
H478 C422 0.947 . S
C479 C422 1.392 . S
C479 C423 1.419 . S
C479 H461 0.948 . S
Tb480 N509 2.617 . S
Tb480 N515 2.572 . S
Tb480 O524 2.465 . S
Tb480 O525 2.387 1_545 S
Tb480 O527 2.428 . S
Tb480 O528 2.308 1_655 S
Tb480 O532 2.349 1_655 S
Tb480 O535 2.393 . S
Tb480 C544 2.802 . S
C481 N482 1.379 . S
C481 C484 1.416 . S
C481 C488 1.424 . S
N482 C481 1.379 . S
N482 C485 1.334 1_545 S
N482 Tb491 2.617 1_545 S
C483 C485 1.388 1_545 S
C483 C486 1.339 . S
C483 H503 0.930 . S
C484 C481 1.416 . S
C484 C486 1.416 . S
C484 C490 1.448 . S
C485 N482 1.334 1_565 S
C485 C483 1.388 1_565 S
C485 H496 0.933 . S
C486 C483 1.339 . S
C486 C484 1.416 . S
C486 H507 0.930 . S
C487 C488 1.413 . S
C487 C489 1.427 . S
C487 C493 1.416 . S
C488 C481 1.424 . S
C488 C487 1.413 . S
C488 N492 1.361 . S
C489 C487 1.427 . S
C489 C490 1.328 . S
C489 H504 0.929 . S
C490 C484 1.448 . S
C490 C489 1.328 . S
C490 H505 0.930 . S
Tb491 N482 2.617 1_565 S
Tb491 N492 2.572 1_565 S
Tb491 O526 2.349 . S
Tb491 O529 2.393 . S
Tb491 O530 2.465 . S
Tb491 O531 2.387 1_565 S
Tb491 O533 2.428 . S
Tb491 O534 2.308 1_465 S
Tb491 C555 2.802 . S
N492 C488 1.361 . S
N492 Tb491 2.572 1_545 S
N492 C494 1.340 . S
C493 C487 1.416 . S
C493 C495 1.332 . S
C493 H501 0.931 . S
C494 N492 1.340 . S
C494 C495 1.407 . S
C494 H500 0.914 1_455 S
C495 C493 1.332 . S
C495 C494 1.407 . S
C495 H497 0.929 . S
H496 C485 0.933 . S
H497 C495 0.929 . S
H498 C513 0.930 . S
H499 C520 0.929 1_455 S
H500 C494 0.914 1_655 S
H501 C493 0.931 . S
H502 C516 0.930 1_455 S
H503 C483 0.930 . S
H504 C489 0.929 . S
H505 C490 0.930 . S
H506 C511 0.930 . S
H507 C486 0.930 . S
H508 C519 0.931 . S
N509 Tb480 2.617 . S
N509 C510 1.379 . S
N509 C513 1.334 . S
C510 N509 1.379 . S
C510 C512 1.416 1_545 S
C510 C518 1.424 . S
C511 H506 0.930 . S
C511 C513 1.390 . S
C511 C514 1.327 1_545 S
C512 C510 1.416 1_565 S
C512 C514 1.419 . S
C512 C545 1.448 . S
C513 H498 0.930 . S
C513 N509 1.334 . S
C513 C511 1.390 . S
C514 C511 1.327 1_565 S
C514 C512 1.419 . S
C514 H521 0.940 . S
N515 Tb480 2.572 . S
N515 C516 1.340 . S
N515 C518 1.361 . S
C516 H502 0.930 1_655 S
C516 N515 1.340 . S
C516 C520 1.407 1_545 S
C517 C518 1.413 1_565 S
C517 C519 1.416 . S
C517 C546 1.427 . S
C518 C510 1.424 . S
C518 N515 1.361 . S
C518 C517 1.413 1_545 S
C519 H508 0.931 . S
C519 C517 1.416 . S
C519 C520 1.332 . S
C520 H499 0.929 1_655 S
C520 C516 1.407 1_565 S
C520 C519 1.332 . S
H521 C514 0.940 . S
H522 C545 0.930 . S
H523 C546 0.929 . S
O524 Tb480 2.465 . S
O524 C544 1.264 . S
O525 Tb480 2.387 1_565 S
O525 C536 1.264 . S
O526 Tb491 2.349 . S
O526 C536 1.243 1_455 S
O527 Tb480 2.428 . S
O527 C544 1.256 . S
O528 Tb480 2.308 1_455 S
O528 C543 1.266 . S
O529 Tb491 2.393 . S
O529 C543 1.248 1_565 S
O530 Tb491 2.465 . S
O530 C555 1.264 . S
O531 Tb491 2.387 1_545 S
O531 C547 1.264 . S
O532 Tb480 2.349 1_455 S
O532 C547 1.243 . S
O533 Tb491 2.428 . S
O533 C555 1.256 . S
O534 Tb491 2.308 1_645 S
O534 C554 1.266 . S
O535 Tb480 2.393 . S
O535 C554 1.248 . S
C536 O525 1.264 . S
C536 O526 1.243 1_655 S
C537 C540 1.399 . S
C537 C542 1.383 . S
C537 C544 1.496 . S
C538 C539 1.399 . S
C538 C542 1.389 . S
C539 C538 1.399 . S
C539 C541 1.380 . S
C539 H556 0.929 . S
C540 C537 1.399 . S
C540 C541 1.392 . S
C540 H557 0.929 . S
C541 C539 1.380 . S
C541 C540 1.392 . S
C541 H558 0.929 . S
C542 C537 1.383 . S
C542 C538 1.389 . S
C542 H559 0.931 1_655 S
C543 O528 1.266 . S
C543 O529 1.248 1_545 S
C544 Tb480 2.802 . S
C544 O524 1.264 . S
C544 O527 1.256 . S
C544 C537 1.496 . S
C545 C512 1.448 . S
C545 H522 0.930 . S
C545 C546 1.328 . S
C546 C517 1.427 . S
C546 H523 0.929 . S
C546 C545 1.328 . S
C547 O531 1.264 . S
C547 O532 1.243 . S
C548 C551 1.399 . S
C548 C552 1.383 . S
C548 C555 1.496 . S
C549 C550 1.399 . S
C549 C552 1.389 . S
C550 C549 1.399 . S
C550 C553 1.380 . S
C550 H560 0.929 . S
C551 C548 1.399 . S
C551 C553 1.392 . S
C551 H561 0.929 . S
C552 C548 1.383 . S
C552 C549 1.389 . S
C552 H562 0.931 . S
C553 C550 1.380 . S
C553 C551 1.392 . S
C553 H563 0.929 . S
C554 O534 1.266 . S
C554 O535 1.248 . S
C555 Tb491 2.802 . S
C555 O530 1.264 . S
C555 O533 1.256 . S
C555 C548 1.496 . S
H556 C539 0.929 . S
H557 C540 0.929 . S
H558 C541 0.929 . S
H559 C542 0.931 1_455 S
H560 C550 0.929 . S
H561 C551 0.929 . S
H562 C552 0.931 . S
H563 C553 0.929 . S
Tb564 N593 2.617 . S
Tb564 N599 2.572 . S
Tb564 O608 2.465 . S
Tb564 O609 2.387 . S
Tb564 O611 2.428 . S
Tb564 O612 2.308 . S
Tb564 O616 2.349 1_545 S
Tb564 O619 2.393 . S
Tb564 C628 2.802 . S
C565 N566 1.379 . S
C565 C568 1.416 . S
C565 C572 1.424 . S
N566 C565 1.379 . S
N566 C569 1.334 . S
N566 Tb575 2.617 . S
C567 C569 1.390 . S
C567 C570 1.339 . S
C567 H587 0.930 . S
C568 C565 1.416 . S
C568 C570 1.416 . S
C568 C574 1.448 . S
C569 N566 1.334 . S
C569 C567 1.390 . S
C569 H580 0.930 . S
C570 C567 1.339 . S
C570 C568 1.416 . S
C570 H591 0.930 . S
C571 C572 1.413 . S
C571 C573 1.427 . S
C571 C577 1.416 . S
C572 C565 1.424 . S
C572 C571 1.413 . S
C572 N576 1.361 . S
C573 C571 1.427 . S
C573 C574 1.328 . S
C573 H588 0.929 . S
C574 C568 1.448 . S
C574 C573 1.328 . S
C574 H589 0.930 . S
Tb575 N566 2.617 . S
Tb575 N576 2.572 . S
Tb575 O610 2.349 1_565 S
Tb575 O613 2.393 . S
Tb575 O614 2.465 . S
Tb575 O615 2.387 . S
Tb575 O617 2.428 . S
Tb575 O618 2.308 1_565 S
Tb575 C639 2.802 . S
N576 C572 1.361 . S
N576 Tb575 2.572 . S
N576 C578 1.340 . S
C577 C571 1.416 . S
C577 C579 1.332 . S
C577 H585 0.931 . S
C578 N576 1.340 . S
C578 C579 1.407 . S
C578 H584 0.930 . S
C579 C577 1.332 . S
C579 C578 1.407 . S
C579 H581 0.929 . S
H580 C569 0.930 . S
H581 C579 0.929 . S
H582 C597 0.930 . S
H583 C604 0.929 . S
H584 C578 0.930 . S
H585 C577 0.931 . S
H586 C600 0.930 . S
H587 C567 0.930 . S
H588 C573 0.929 . S
H589 C574 0.930 . S
H590 C595 0.930 . S
H591 C570 0.930 . S
H592 C603 0.931 . S
N593 Tb564 2.617 . S
N593 C594 1.379 . S
N593 C597 1.334 . S
C594 N593 1.379 . S
C594 C596 1.416 . S
C594 C602 1.424 . S
C595 H590 0.930 . S
C595 C597 1.390 . S
C595 C598 1.339 . S
C596 C594 1.416 . S
C596 C598 1.416 . S
C596 C629 1.448 . S
C597 H582 0.930 . S
C597 N593 1.334 . S
C597 C595 1.390 . S
C598 C595 1.339 . S
C598 C596 1.416 . S
C598 H605 0.930 . S
N599 Tb564 2.572 . S
N599 C600 1.340 . S
N599 C602 1.361 . S
C600 H586 0.930 . S
C600 N599 1.340 . S
C600 C604 1.407 . S
C601 C602 1.413 . S
C601 C603 1.416 . S
C601 C630 1.427 . S
C602 C594 1.424 . S
C602 N599 1.361 . S
C602 C601 1.413 . S
C603 H592 0.931 . S
C603 C601 1.416 . S
C603 C604 1.332 . S
C604 H583 0.929 . S
C604 C600 1.407 . S
C604 C603 1.332 . S
H605 C598 0.930 . S
H606 C629 0.930 . S
H607 C630 0.929 . S
O608 Tb564 2.465 . S
O608 C628 1.264 . S
O609 Tb564 2.387 . S
O609 C620 1.264 . S
O610 Tb575 2.349 1_545 S
O610 C620 1.243 . S
O611 Tb564 2.428 . S
O611 C628 1.256 . S
O612 Tb564 2.308 . S
O612 C627 1.249 1_545 S
O613 Tb575 2.393 . S
O613 C627 1.259 . S
O614 Tb575 2.465 . S
O614 C639 1.264 . S
O615 Tb575 2.387 . S
O615 C631 1.264 . S
O616 Tb564 2.349 1_565 S
O616 C631 1.243 . S
O617 Tb575 2.428 . S
O617 C639 1.256 . S
O618 Tb575 2.308 1_545 S
O618 C638 1.266 . S
O619 Tb564 2.393 . S
O619 C638 1.248 . S
C620 O609 1.264 . S
C620 O610 1.243 . S
C621 C624 1.399 . S
C621 C626 1.383 . S
C621 C628 1.496 . S
C622 C623 1.399 . S
C622 C626 1.389 . S
C623 C622 1.399 . S
C623 C625 1.380 . S
C623 H640 0.929 . S
C624 C621 1.399 . S
C624 C625 1.392 . S
C624 H641 0.929 . S
C625 C623 1.380 . S
C625 C624 1.392 . S
C625 H642 0.929 . S
C626 C621 1.383 . S
C626 C622 1.389 . S
C626 H643 0.931 . S
C627 O612 1.249 1_565 S
C627 O613 1.259 . S
C628 Tb564 2.802 . S
C628 O608 1.264 . S
C628 O611 1.256 . S
C628 C621 1.496 . S
C629 C596 1.448 . S
C629 H606 0.930 . S
C629 C630 1.328 . S
C630 C601 1.427 . S
C630 H607 0.929 . S
C630 C629 1.328 . S
C631 O615 1.264 . S
C631 O616 1.243 . S
C632 C635 1.399 . S
C632 C636 1.367 1_565 S
C632 C639 1.496 . S
C633 C634 1.399 1_545 S
C633 C636 1.392 . S
C634 C633 1.399 1_565 S
C634 C637 1.380 . S
C634 H644 0.929 . S
C635 C632 1.399 . S
C635 C637 1.392 . S
C635 H645 0.929 . S
C636 C632 1.367 1_545 S
C636 C633 1.392 . S
C636 H646 0.949 . S
C637 C634 1.380 . S
C637 C635 1.392 . S
C637 H647 0.929 . S
C638 O618 1.266 . S
C638 O619 1.248 . S
C639 Tb575 2.802 . S
C639 O614 1.264 . S
C639 O617 1.256 . S
C639 C632 1.496 . S
H640 C623 0.929 . S
H641 C624 0.929 . S
H642 C625 0.929 . S
H643 C626 0.931 . S
H644 C634 0.929 . S
H645 C635 0.929 . S
H646 C636 0.949 . S
H647 C637 0.929 . S
Tb648 N677 2.617 . S
Tb648 N683 2.572 . S
Tb648 O692 2.465 . S
Tb648 O693 2.387 . S
Tb648 O695 2.428 . S
Tb648 O696 2.308 . S
Tb648 O700 2.349 . S
Tb648 O703 2.393 . S
Tb648 C712 2.802 . S
C649 N650 1.379 . S
C649 C652 1.416 . S
C649 C656 1.424 . S
N650 C649 1.379 . S
N650 C653 1.334 . S
N650 Tb659 2.617 . S
C651 C653 1.390 . S
C651 C654 1.339 . S
C651 H671 0.930 . S
C652 C649 1.416 . S
C652 C654 1.416 . S
C652 C658 1.448 . S
C653 N650 1.334 . S
C653 C651 1.390 . S
C653 H664 0.930 . S
C654 C651 1.339 . S
C654 C652 1.416 . S
C654 H675 0.930 . S
C655 C656 1.413 . S
C655 C657 1.427 . S
C655 C661 1.416 . S
C656 C649 1.424 . S
C656 C655 1.413 . S
C656 N660 1.361 . S
C657 C655 1.427 . S
C657 C658 1.328 . S
C657 H672 0.929 . S
C658 C652 1.448 . S
C658 C657 1.328 . S
C658 H673 0.930 . S
Tb659 N650 2.617 . S
Tb659 N660 2.572 . S
Tb659 O694 2.349 . S
Tb659 O697 2.393 . S
Tb659 O698 2.465 . S
Tb659 O699 2.387 . S
Tb659 O701 2.428 . S
Tb659 O702 2.308 . S
Tb659 C723 2.802 . S
N660 C656 1.361 . S
N660 Tb659 2.572 . S
N660 C662 1.340 . S
C661 C655 1.416 . S
C661 C663 1.332 . S
C661 H669 0.931 . S
C662 N660 1.340 . S
C662 C663 1.407 . S
C662 H668 0.930 . S
C663 C661 1.332 . S
C663 C662 1.407 . S
C663 H665 0.929 . S
H664 C653 0.930 . S
H665 C663 0.929 . S
H666 C681 0.930 . S
H667 C688 0.929 . S
H668 C662 0.930 . S
H669 C661 0.931 . S
H670 C684 0.930 . S
H671 C651 0.930 . S
H672 C657 0.929 . S
H673 C658 0.930 . S
H674 C679 0.930 . S
H675 C654 0.930 . S
H676 C687 0.931 . S
N677 Tb648 2.617 . S
N677 C678 1.379 . S
N677 C681 1.334 . S
C678 N677 1.379 . S
C678 C680 1.416 . S
C678 C686 1.424 . S
C679 H674 0.930 . S
C679 C681 1.390 . S
C679 C682 1.339 . S
C680 C678 1.416 . S
C680 C682 1.416 . S
C680 C713 1.448 . S
C681 H666 0.930 . S
C681 N677 1.334 . S
C681 C679 1.390 . S
C682 C679 1.339 . S
C682 C680 1.416 . S
C682 H689 0.930 . S
N683 Tb648 2.572 . S
N683 C684 1.340 . S
N683 C686 1.361 . S
C684 H670 0.930 . S
C684 N683 1.340 . S
C684 C688 1.407 . S
C685 C686 1.413 . S
C685 C687 1.416 . S
C685 C714 1.427 . S
C686 C678 1.424 . S
C686 N683 1.361 . S
C686 C685 1.413 . S
C687 H676 0.931 . S
C687 C685 1.416 . S
C687 C688 1.332 . S
C688 H667 0.929 . S
C688 C684 1.407 . S
C688 C687 1.332 . S
H689 C682 0.930 . S
H690 C713 0.930 . S
H691 C714 0.929 . S
O692 Tb648 2.465 . S
O692 C712 1.264 . S
O693 Tb648 2.387 . S
O693 C704 1.264 . S
O694 Tb659 2.349 . S
O694 C704 1.243 . S
O695 Tb648 2.428 . S
O695 C712 1.256 . S
O696 Tb648 2.308 . S
O696 C711 1.266 . S
O697 Tb659 2.393 . S
O697 C711 1.248 . S
O698 Tb659 2.465 . S
O698 C723 1.264 . S
O699 Tb659 2.387 . S
O699 C715 1.264 . S
O700 Tb648 2.349 . S
O700 C715 1.243 . S
O701 Tb659 2.428 . S
O701 C723 1.256 . S
O702 Tb659 2.308 . S
O702 C722 1.266 . S
O703 Tb648 2.393 . S
O703 C722 1.248 . S
C704 O693 1.264 . S
C704 O694 1.243 . S
C705 C708 1.399 . S
C705 C710 1.383 . S
C705 C712 1.496 . S
C706 C707 1.399 . S
C706 C710 1.389 . S
C707 C706 1.399 . S
C707 C709 1.380 . S
C707 H724 0.929 . S
C708 C705 1.399 . S
C708 C709 1.392 . S
C708 H725 0.929 . S
C709 C707 1.380 . S
C709 C708 1.392 . S
C709 H726 0.929 . S
C710 C705 1.383 . S
C710 C706 1.389 . S
C710 H727 0.931 . S
C711 O696 1.266 . S
C711 O697 1.248 . S
C712 Tb648 2.802 . S
C712 O692 1.264 . S
C712 O695 1.256 . S
C712 C705 1.496 . S
C713 C680 1.448 . S
C713 H690 0.930 . S
C713 C714 1.328 . S
C714 C685 1.427 . S
C714 H691 0.929 . S
C714 C713 1.328 . S
C715 O699 1.264 . S
C715 O700 1.243 . S
C716 C719 1.399 . S
C716 C720 1.383 . S
C716 C723 1.496 . S
C717 C718 1.399 . S
C717 C720 1.389 . S
C718 C717 1.399 . S
C718 C721 1.380 . S
C718 H728 0.929 . S
C719 C716 1.399 . S
C719 C721 1.392 . S
C719 H729 0.929 . S
C720 C716 1.383 . S
C720 C717 1.389 . S
C720 H730 0.931 . S
C721 C718 1.380 . S
C721 C719 1.392 . S
C721 H731 0.929 . S
C722 O702 1.266 . S
C722 O703 1.248 . S
C723 Tb659 2.802 . S
C723 O698 1.264 . S
C723 O701 1.256 . S
C723 C716 1.496 . S
H724 C707 0.929 . S
H725 C708 0.929 . S
H726 C709 0.929 . S
H727 C710 0.931 . S
H728 C718 0.929 . S
H729 C719 0.929 . S
H730 C720 0.931 . S
H731 C721 0.929 . S
Tb732 N761 2.617 . S
Tb732 N767 2.572 . S
Tb732 O776 2.465 . S
Tb732 O777 2.387 1_455 S
Tb732 O779 2.428 . S
Tb732 O780 2.308 . S
Tb732 O784 2.349 . S
Tb732 O787 2.393 . S
Tb732 C796 2.802 . S
C733 N734 1.379 1_455 S
C733 C736 1.416 . S
C733 C740 1.424 . S
N734 C733 1.379 1_655 S
N734 C737 1.334 . S
N734 Tb743 2.617 . S
C735 C737 1.390 1_455 S
C735 C738 1.339 . S
C735 H755 0.930 1_455 S
C736 C733 1.416 . S
C736 C738 1.416 . S
C736 C742 1.448 . S
C737 N734 1.334 . S
C737 C735 1.390 1_655 S
C737 H748 0.930 . S
C738 C735 1.339 . S
C738 C736 1.416 . S
C738 H759 0.930 . S
C739 C740 1.413 . S
C739 C741 1.427 . S
C739 C745 1.416 . S
C740 C733 1.424 . S
C740 C739 1.413 . S
C740 N744 1.361 . S
C741 C739 1.427 . S
C741 C742 1.328 . S
C741 H756 0.929 . S
C742 C736 1.448 . S
C742 C741 1.328 . S
C742 H757 0.930 . S
Tb743 N734 2.617 . S
Tb743 N744 2.572 1_655 S
Tb743 O778 2.349 . S
Tb743 O781 2.393 . S
Tb743 O782 2.465 . S
Tb743 O783 2.387 1_655 S
Tb743 O785 2.428 . S
Tb743 O786 2.321 . S
Tb743 C807 2.802 . S
N744 C740 1.361 . S
N744 Tb743 2.572 1_455 S
N744 C746 1.340 . S
C745 C739 1.416 . S
C745 C747 1.332 . S
C745 H753 0.931 . S
C746 N744 1.340 . S
C746 C747 1.407 . S
C746 H752 0.930 1_455 S
C747 C745 1.332 . S
C747 C746 1.407 . S
C747 H749 0.929 . S
H748 C737 0.930 . S
H749 C747 0.929 . S
H750 C765 0.930 . S
H751 C772 0.929 . S
H752 C746 0.930 1_655 S
H753 C745 0.931 . S
H754 C768 0.930 . S
H755 C735 0.930 1_655 S
H756 C741 0.929 . S
H757 C742 0.930 . S
H758 C763 0.930 . S
H759 C738 0.930 . S
H760 C771 0.931 . S
N761 Tb732 2.617 . S
N761 C762 1.379 . S
N761 C765 1.334 . S
C762 N761 1.379 . S
C762 C764 1.416 1_455 S
C762 C770 1.427 . S
C763 H758 0.930 . S
C763 C765 1.390 . S
C763 C766 1.339 1_455 S
C764 C762 1.416 1_655 S
C764 C766 1.416 . S
C764 C797 1.448 . S
C765 H750 0.930 . S
C765 N761 1.334 . S
C765 C763 1.390 . S
C766 C763 1.339 1_655 S
C766 C764 1.416 . S
C766 H773 0.930 . S
N767 Tb732 2.572 . S
N767 C768 1.340 . S
N767 C770 1.372 . S
C768 H754 0.930 . S
C768 N767 1.340 . S
C768 C772 1.407 1_455 S
C769 C770 1.400 1_655 S
C769 C771 1.416 . S
C769 C798 1.427 . S
C770 C762 1.427 . S
C770 N767 1.372 . S
C770 C769 1.400 1_455 S
C771 H760 0.931 . S
C771 C769 1.416 . S
C771 C772 1.332 . S
C772 H751 0.929 . S
C772 C768 1.407 1_655 S
C772 C771 1.332 . S
H773 C766 0.930 . S
H774 C797 0.930 . S
H775 C798 0.929 . S
O776 Tb732 2.465 . S
O776 C796 1.264 . S
O777 Tb732 2.387 1_655 S
O777 C788 1.264 . S
O778 Tb743 2.349 . S
O778 C788 1.243 . S
O779 Tb732 2.428 . S
O779 C796 1.256 . S
O780 Tb732 2.308 . S
O780 C795 1.266 . S
O781 Tb743 2.393 . S
O781 C795 1.248 1_655 S
O782 Tb743 2.465 . S
O782 C807 1.264 . S
O783 Tb743 2.387 1_455 S
O783 C799 1.264 . S
O784 Tb732 2.349 . S
O784 C799 1.243 . S
O785 Tb743 2.428 . S
O785 C807 1.256 . S
O786 Tb743 2.321 . S
O786 C806 1.257 1_655 S
O787 Tb732 2.393 . S
O787 C806 1.248 . S
C788 O777 1.264 . S
C788 O778 1.243 . S
C789 C792 1.399 . S
C789 C794 1.383 . S
C789 C796 1.496 . S
C790 C791 1.399 . S
C790 C794 1.389 . S
C791 C790 1.399 . S
C791 C793 1.380 . S
C791 H808 0.929 . S
C792 C789 1.399 . S
C792 C793 1.392 . S
C792 H809 0.929 . S
C793 C791 1.380 . S
C793 C792 1.392 . S
C793 H810 0.929 . S
C794 C789 1.383 . S
C794 C790 1.389 . S
C794 H811 0.931 . S
C795 O780 1.266 . S
C795 O781 1.248 1_455 S
C796 Tb732 2.802 . S
C796 O776 1.264 . S
C796 O779 1.256 . S
C796 C789 1.496 . S
C797 C764 1.448 . S
C797 H774 0.930 . S
C797 C798 1.328 . S
C798 C769 1.427 . S
C798 H775 0.929 . S
C798 C797 1.328 . S
C799 O783 1.264 . S
C799 O784 1.243 . S
C800 C803 1.399 . S
C800 C804 1.383 . S
C800 C807 1.496 . S
C801 C802 1.399 . S
C801 C804 1.389 . S
C802 C801 1.399 . S
C802 C805 1.380 . S
C802 H812 0.929 . S
C803 C800 1.399 . S
C803 C805 1.392 . S
C803 H813 0.929 . S
C804 C800 1.383 . S
C804 C801 1.389 . S
C804 H814 0.931 . S
C805 C802 1.380 . S
C805 C803 1.392 . S
C805 H815 0.929 . S
C806 O786 1.257 1_455 S
C806 O787 1.248 . S
C807 Tb743 2.802 . S
C807 O782 1.264 . S
C807 O785 1.256 . S
C807 C800 1.496 . S
H808 C791 0.929 . S
H809 C792 0.929 . S
H810 C793 0.929 . S
H811 C794 0.931 . S
H812 C802 0.929 . S
H813 C803 0.929 . S
H814 C804 0.931 . S
H815 C805 0.929 . S
H816 C824 0.950 . S
H817 C829 0.950 . S
H818 C826 0.950 . S
H819 C828 0.950 . S
H820 C830 0.950 . S
H821 C832 0.950 . S
H822 C834 0.950 1_565 S
H823 C835 0.950 1_565 S
C824 H816 0.950 . S
C824 C825 1.386 . S
C824 C826 1.391 . S
C825 C824 1.386 . S
C825 C829 1.393 . S
C826 H818 0.950 . S
C826 C824 1.391 . S
C826 C827 1.400 . S
C827 C826 1.400 . S
C827 C828 1.398 . S
C827 C833 1.491 . S
C828 H819 0.950 . S
C828 C827 1.398 . S
C828 C829 1.391 . S
C829 H817 0.950 . S
C829 C825 1.393 . S
C829 C828 1.391 . S
C830 H820 0.950 . S
C830 C831 1.386 . S
C830 C832 1.391 . S
C831 C830 1.386 . S
C831 C835 1.393 . S
C832 H821 0.950 . S
C832 C830 1.391 . S
C832 C833 1.400 . S
C833 C827 1.491 . S
C833 C832 1.400 . S
C833 C834 1.398 . S
C834 H822 0.950 1_545 S
C834 C833 1.398 . S
C834 C835 1.391 . S
C835 H823 0.950 1_545 S
C835 C831 1.393 . S
C835 C834 1.391 . S
H836 C844 0.950 . S
H837 C849 0.950 . S
H838 C846 0.950 . S
H839 C848 0.950 . S
H840 C850 0.950 . S
H841 C852 0.950 . S
H842 C854 0.950 . S
H843 C855 0.950 . S
C844 H836 0.950 . S
C844 C845 1.386 . S
C844 C846 1.391 . S
C845 C844 1.386 . S
C845 C849 1.393 . S
C846 H838 0.950 . S
C846 C844 1.391 . S
C846 C847 1.400 . S
C847 C846 1.400 . S
C847 C848 1.398 . S
C847 C853 1.491 . S
C848 H839 0.950 . S
C848 C847 1.398 . S
C848 C849 1.391 . S
C849 H837 0.950 . S
C849 C845 1.393 . S
C849 C848 1.391 . S
C850 H840 0.950 . S
C850 C851 1.386 . S
C850 C852 1.391 . S
C851 C850 1.386 . S
C851 C855 1.393 . S
C852 H841 0.950 . S
C852 C850 1.391 . S
C852 C853 1.400 . S
C853 C847 1.491 . S
C853 C852 1.400 . S
C853 C854 1.398 . S
C854 H842 0.950 . S
C854 C853 1.398 . S
C854 C855 1.391 . S
C855 H843 0.950 . S
C855 C851 1.393 . S
C855 C854 1.391 . S
H856 C864 0.950 . S
H857 C869 0.950 . S
H858 C866 0.950 . S
H859 C868 0.950 . S
H860 C870 0.950 . S
H861 C872 0.950 . S
H862 C874 0.950 . S
H863 C875 0.950 . S
C864 H856 0.950 . S
C864 C865 1.386 . S
C864 C866 1.391 . S
C865 C864 1.386 . S
C865 C869 1.393 . S
C866 H858 0.950 . S
C866 C864 1.391 . S
C866 C867 1.400 . S
C867 C866 1.400 . S
C867 C868 1.398 . S
C867 C873 1.491 . S
C868 H859 0.950 . S
C868 C867 1.398 . S
C868 C869 1.391 . S
C869 H857 0.950 . S
C869 C865 1.393 . S
C869 C868 1.391 . S
C870 H860 0.950 . S
C870 C871 1.386 . S
C870 C872 1.391 . S
C871 C870 1.386 . S
C871 C875 1.393 . S
C872 H861 0.950 . S
C872 C870 1.391 . S
C872 C873 1.400 . S
C873 C867 1.491 . S
C873 C872 1.400 . S
C873 C874 1.398 . S
C874 H862 0.950 . S
C874 C873 1.398 . S
C874 C875 1.391 . S
C875 H863 0.950 . S
C875 C871 1.393 . S
C875 C874 1.391 . S
H876 C884 0.950 . S
H877 C889 0.950 . S
H878 C886 0.952 1_655 S
H879 C888 0.950 . S
H880 C890 0.950 . S
H881 C892 0.950 . S
H882 C894 0.950 1_655 S
H883 C895 0.950 1_655 S
C884 H876 0.950 . S
C884 C885 1.386 . S
C884 C886 1.391 . S
C885 C884 1.386 . S
C885 C889 1.393 . S
C886 H878 0.952 1_455 S
C886 C884 1.391 . S
C886 C887 1.400 . S
C887 C886 1.400 . S
C887 C888 1.398 . S
C887 C893 1.491 . S
C888 H879 0.950 . S
C888 C887 1.398 . S
C888 C889 1.391 . S
C889 H877 0.950 . S
C889 C885 1.393 . S
C889 C888 1.391 . S
C890 H880 0.950 . S
C890 C891 1.386 . S
C890 C892 1.391 . S
C891 C890 1.386 . S
C891 C895 1.393 . S
C892 H881 0.950 . S
C892 C890 1.391 . S
C892 C893 1.400 . S
C893 C887 1.491 . S
C893 C892 1.400 . S
C893 C894 1.398 . S
C894 H882 0.950 1_455 S
C894 C893 1.398 . S
C894 C895 1.391 . S
C895 H883 0.950 1_455 S
C895 C891 1.393 . S
C895 C894 1.391 . S
H896 C904 0.950 . S
H897 C909 0.950 . S
H898 C906 0.950 . S
H899 C908 0.950 . S
H900 C910 0.951 1_545 S
H901 C912 0.950 . S
H902 C914 0.950 . S
H903 C915 0.950 . S
C904 H896 0.950 . S
C904 C905 1.386 . S
C904 C906 1.391 . S
C905 C904 1.386 . S
C905 C909 1.393 . S
C906 H898 0.950 . S
C906 C904 1.391 . S
C906 C907 1.400 1_554 S
C907 C906 1.400 1_556 S
C907 C908 1.398 . S
C907 C913 1.491 . S
C908 H899 0.950 . S
C908 C907 1.398 . S
C908 C909 1.391 1_556 S
C909 H897 0.950 . S
C909 C905 1.393 . S
C909 C908 1.391 1_554 S
C910 H900 0.951 1_565 S
C910 C911 1.385 . S
C910 C912 1.390 . S
C911 C910 1.385 . S
C911 C915 1.393 . S
C912 H901 0.950 . S
C912 C910 1.390 . S
C912 C913 1.400 . S
C913 C907 1.491 . S
C913 C912 1.400 . S
C913 C914 1.398 . S
C914 H902 0.950 . S
C914 C913 1.398 . S
C914 C915 1.391 . S
C915 H903 0.950 . S
C915 C911 1.393 . S
C915 C914 1.391 . S
H916 C924 0.950 . S
H917 C929 0.950 . S
H918 C926 0.950 1_556 S
H919 C928 0.950 . S
H920 C930 0.950 . S
H921 C932 0.950 . S
H922 C934 0.950 . S
H923 C935 0.950 . S
C924 H916 0.950 . S
C924 C925 1.386 . S
C924 C926 1.391 . S
C925 C924 1.386 . S
C925 C929 1.393 . S
C926 H918 0.950 1_554 S
C926 C924 1.391 . S
C926 C927 1.400 1_554 S
C927 C926 1.400 1_556 S
C927 C928 1.398 1_556 S
C927 C933 1.491 . S
C928 H919 0.950 . S
C928 C927 1.398 1_554 S
C928 C929 1.391 . S
C929 H917 0.950 . S
C929 C925 1.393 . S
C929 C928 1.391 . S
C930 H920 0.950 . S
C930 C931 1.386 . S
C930 C932 1.391 . S
C931 C930 1.386 . S
C931 C935 1.393 . S
C932 H921 0.950 . S
C932 C930 1.391 . S
C932 C933 1.400 . S
C933 C927 1.491 . S
C933 C932 1.400 . S
C933 C934 1.398 . S
C934 H922 0.950 . S
C934 C933 1.398 . S
C934 C935 1.391 . S
C935 H923 0.950 . S
C935 C931 1.393 . S
C935 C934 1.391 . S
H936 C944 0.950 . S
H937 C949 0.950 . S
H938 C946 0.950 . S
H939 C948 0.950 . S
H940 C950 0.950 . S
H941 C952 0.950 . S
H942 C954 0.950 . S
H943 C955 0.950 . S
C944 H936 0.950 . S
C944 C945 1.386 . S
C944 C946 1.391 1_554 S
C945 C944 1.386 . S
C945 C949 1.393 . S
C946 H938 0.950 . S
C946 C944 1.391 1_556 S
C946 C947 1.400 . S
C947 C946 1.400 . S
C947 C948 1.398 1_556 S
C947 C953 1.491 . S
C948 H939 0.950 . S
C948 C947 1.398 1_554 S
C948 C949 1.391 . S
C949 H937 0.950 . S
C949 C945 1.393 . S
C949 C948 1.391 . S
C950 H940 0.950 . S
C950 C951 1.386 . S
C950 C952 1.391 . S
C951 C950 1.386 . S
C951 C955 1.393 . S
C952 H941 0.950 . S
C952 C950 1.391 . S
C952 C953 1.400 . S
C953 C947 1.491 . S
C953 C952 1.400 . S
C953 C954 1.398 . S
C954 H942 0.950 . S
C954 C953 1.398 . S
C954 C955 1.391 . S
C955 H943 0.950 . S
C955 C951 1.393 . S
C955 C954 1.391 . S
H956 C964 0.950 1_455 S
H957 C969 0.950 . S
H958 C966 0.950 1_456 S
H959 C968 0.950 1_556 S
H960 C970 0.950 . S
H961 C972 0.950 . S
H962 C974 0.950 . S
H963 C975 0.950 . S
C964 H956 0.950 1_655 S
C964 C965 1.386 . S
C964 C966 1.391 . S
C965 C964 1.386 . S
C965 C969 1.393 . S
C966 H958 0.950 1_654 S
C966 C964 1.391 . S
C966 C967 1.400 1_554 S
C967 C966 1.400 1_556 S
C967 C968 1.398 1_556 S
C967 C973 1.491 . S
C968 H959 0.950 1_554 S
C968 C967 1.398 1_554 S
C968 C969 1.391 . S
C969 H957 0.950 . S
C969 C965 1.393 . S
C969 C968 1.391 . S
C970 H960 0.950 . S
C970 C971 1.386 . S
C970 C972 1.391 . S
C971 C970 1.386 . S
C971 C975 1.393 1_655 S
C972 H961 0.950 . S
C972 C970 1.391 . S
C972 C973 1.400 . S
C973 C967 1.491 . S
C973 C972 1.400 . S
C973 C974 1.398 1_655 S
C974 H962 0.950 . S
C974 C973 1.398 1_455 S
C974 C975 1.391 . S
C975 H963 0.950 . S
C975 C971 1.393 1_455 S
C975 C974 1.391 . S
H976 C984 0.950 . S
H977 C989 0.950 . S
H978 C986 0.950 . S
H979 C988 0.950 1_655 S
H980 C990 0.950 . S
H981 C992 0.950 . S
H982 C994 0.950 . S
H983 C995 0.950 . S
C984 H976 0.950 . S
C984 C985 1.386 . S
C984 C986 1.391 . S
C985 C984 1.386 . S
C985 C989 1.393 . S
C986 H978 0.950 . S
C986 C984 1.391 . S
C986 C987 1.400 . S
C987 C986 1.400 . S
C987 C988 1.398 . S
C987 C993 1.491 . S
C988 H979 0.950 1_455 S
C988 C987 1.398 . S
C988 C989 1.391 . S
C989 H977 0.950 . S
C989 C985 1.393 . S
C989 C988 1.391 . S
C990 H980 0.950 . S
C990 C991 1.386 . S
C990 C992 1.391 . S
C991 C990 1.386 . S
C991 C995 1.393 1_655 S
C992 H981 0.950 . S
C992 C990 1.391 . S
C992 C993 1.400 1_655 S
C993 C987 1.491 . S
C993 C992 1.400 1_455 S
C993 C994 1.398 . S
C994 H982 0.950 . S
C994 C993 1.398 . S
C994 C995 1.391 . S
C995 H983 0.950 . S
C995 C991 1.393 1_455 S
C995 C994 1.391 . S
H996 C1004 0.950 . S
H997 C1009 0.950 . S
H998 C1006 0.950 . S
H999 C1008 0.950 . S
H1000 C1010 0.950 . S
H1001 C1012 0.950 . S
H1002 C1014 0.950 1_565 S
H1003 C1015 0.950 . S
C1004 H996 0.950 . S
C1004 C1005 1.386 . S
C1004 C1006 1.391 . S
C1005 C1004 1.386 . S
C1005 C1009 1.393 . S
C1006 H998 0.950 . S
C1006 C1004 1.391 . S
C1006 C1007 1.400 . S
C1007 C1006 1.400 . S
C1007 C1008 1.398 . S
C1007 C1013 1.491 . S
C1008 H999 0.950 . S
C1008 C1007 1.398 . S
C1008 C1009 1.391 . S
C1009 H997 0.950 . S
C1009 C1005 1.393 . S
C1009 C1008 1.391 . S
C1010 H1000 0.950 . S
C1010 C1011 1.386 . S
C1010 C1012 1.391 . S
C1011 C1010 1.386 . S
C1011 C1015 1.393 1_545 S
C1012 H1001 0.950 . S
C1012 C1010 1.391 . S
C1012 C1013 1.400 . S
C1013 C1007 1.491 . S
C1013 C1012 1.400 . S
C1013 C1014 1.398 . S
C1014 H1002 0.950 1_545 S
C1014 C1013 1.398 . S
C1014 C1015 1.391 1_545 S
C1015 H1003 0.950 . S
C1015 C1011 1.393 1_565 S
C1015 C1014 1.391 1_565 S
H1016 C1024 0.950 . S
H1017 C1029 0.950 . S
H1018 C1026 0.950 . S
H1019 C1028 0.950 . S
H1020 C1030 0.950 . S
H1021 C1032 0.950 . S
H1022 C1034 0.950 . S
H1023 C1035 0.950 . S
C1024 H1016 0.950 . S
C1024 C1025 1.386 . S
C1024 C1026 1.391 . S
C1025 C1024 1.386 . S
C1025 C1029 1.393 . S
C1026 H1018 0.950 . S
C1026 C1024 1.391 . S
C1026 C1027 1.400 . S
C1027 C1026 1.400 . S
C1027 C1028 1.398 . S
C1027 C1033 1.491 . S
C1028 H1019 0.950 . S
C1028 C1027 1.398 . S
C1028 C1029 1.391 . S
C1029 H1017 0.950 . S
C1029 C1025 1.393 . S
C1029 C1028 1.391 . S
C1030 H1020 0.950 . S
C1030 C1031 1.386 . S
C1030 C1032 1.391 . S
C1031 C1030 1.386 . S
C1031 C1035 1.393 . S
C1032 H1021 0.950 . S
C1032 C1030 1.391 . S
C1032 C1033 1.400 . S
C1033 C1027 1.491 . S
C1033 C1032 1.400 . S
C1033 C1034 1.398 . S
C1034 H1022 0.950 . S
C1034 C1033 1.398 . S
C1034 C1035 1.391 . S
C1035 H1023 0.950 . S
C1035 C1031 1.393 . S
C1035 C1034 1.391 . S
H1036 C1044 0.950 . S
H1037 C1049 0.950 . S
H1038 C1046 0.950 . S
H1039 C1048 0.950 . S
H1040 C1050 0.950 . S
H1041 C1052 0.950 . S
H1042 C1054 0.950 . S
H1043 C1055 0.950 . S
C1044 H1036 0.950 . S
C1044 C1045 1.386 . S
C1044 C1046 1.391 . S
C1045 C1044 1.386 . S
C1045 C1049 1.393 . S
C1046 H1038 0.950 . S
C1046 C1044 1.391 . S
C1046 C1047 1.400 . S
C1047 C1046 1.400 . S
C1047 C1048 1.398 . S
C1047 C1053 1.491 . S
C1048 H1039 0.950 . S
C1048 C1047 1.398 . S
C1048 C1049 1.391 . S
C1049 H1037 0.950 . S
C1049 C1045 1.393 . S
C1049 C1048 1.391 . S
C1050 H1040 0.950 . S
C1050 C1051 1.386 . S
C1050 C1052 1.391 . S
C1051 C1050 1.386 . S
C1051 C1055 1.393 . S
C1052 H1041 0.950 . S
C1052 C1050 1.391 . S
C1052 C1053 1.400 . S
C1053 C1047 1.491 . S
C1053 C1052 1.400 . S
C1053 C1054 1.398 . S
C1054 H1042 0.950 . S
C1054 C1053 1.398 . S
C1054 C1055 1.391 . S
C1055 H1043 0.950 . S
C1055 C1051 1.393 . S
C1055 C1054 1.391 . S
H1056 C1064 0.950 . S
H1057 C1069 0.950 . S
H1058 C1066 0.950 1_455 S
H1059 C1068 0.950 . S
H1060 C1070 0.950 . S
H1061 C1072 0.950 . S
H1062 C1074 0.950 . S
H1063 C1075 0.950 . S
C1064 H1056 0.950 . S
C1064 C1065 1.386 . S
C1064 C1066 1.391 . S
C1065 C1064 1.386 . S
C1065 C1069 1.393 1_554 S
C1066 H1058 0.950 1_655 S
C1066 C1064 1.391 . S
C1066 C1067 1.400 1_554 S
C1067 C1066 1.400 1_556 S
C1067 C1068 1.398 . S
C1067 C1073 1.491 . S
C1068 H1059 0.950 . S
C1068 C1067 1.398 . S
C1068 C1069 1.391 . S
C1069 H1057 0.950 . S
C1069 C1065 1.393 1_556 S
C1069 C1068 1.391 . S
C1070 H1060 0.950 . S
C1070 C1071 1.386 1_655 S
C1070 C1072 1.391 . S
C1071 C1070 1.386 1_455 S
C1071 C1075 1.393 . S
C1072 H1061 0.950 . S
C1072 C1070 1.391 . S
C1072 C1073 1.400 . S
C1073 C1067 1.491 . S
C1073 C1072 1.400 . S
C1073 C1074 1.398 1_655 S
C1074 H1062 0.950 . S
C1074 C1073 1.398 1_455 S
C1074 C1075 1.391 . S
C1075 H1063 0.950 . S
C1075 C1071 1.393 . S
C1075 C1074 1.391 . S
H1076 C1084 0.950 . S
H1077 C1089 0.950 . S
H1078 C1086 0.950 1_545 S
H1079 C1088 0.950 . S
H1080 C1090 0.950 . S
H1081 C1092 0.950 . S
H1082 C1094 0.950 1_554 S
H1083 C1095 0.950 . S
C1084 H1076 0.950 . S
C1084 C1085 1.386 . S
C1084 C1086 1.391 . S
C1085 C1084 1.386 . S
C1085 C1089 1.393 1_554 S
C1086 H1078 0.950 1_565 S
C1086 C1084 1.391 . S
C1086 C1087 1.400 1_554 S
C1087 C1086 1.400 1_556 S
C1087 C1088 1.398 . S
C1087 C1093 1.491 . S
C1088 H1079 0.950 . S
C1088 C1087 1.398 . S
C1088 C1089 1.391 . S
C1089 H1077 0.950 . S
C1089 C1085 1.393 1_556 S
C1089 C1088 1.391 . S
C1090 H1080 0.950 . S
C1090 C1091 1.386 1_565 S
C1090 C1092 1.391 . S
C1091 C1090 1.386 1_545 S
C1091 C1095 1.393 . S
C1092 H1081 0.950 . S
C1092 C1090 1.391 . S
C1092 C1093 1.400 . S
C1093 C1087 1.491 . S
C1093 C1092 1.400 . S
C1093 C1094 1.398 1_565 S
C1094 H1082 0.950 1_556 S
C1094 C1093 1.398 1_545 S
C1094 C1095 1.391 . S
C1095 H1083 0.950 . S
C1095 C1091 1.393 . S
C1095 C1094 1.391 . S
H1096 C1104 0.950 . S
H1097 C1109 0.950 . S
H1098 C1106 0.950 . S
H1099 C1108 0.950 . S
H1100 C1110 0.950 . S
H1101 C1112 0.950 . S
H1102 C1114 0.950 . S
H1103 C1115 0.950 . S
C1104 H1096 0.950 . S
C1104 C1105 1.386 . S
C1104 C1106 1.391 . S
C1105 C1104 1.386 . S
C1105 C1109 1.393 1_554 S
C1106 H1098 0.950 . S
C1106 C1104 1.391 . S
C1106 C1107 1.400 1_554 S
C1107 C1106 1.400 1_556 S
C1107 C1108 1.398 . S
C1107 C1113 1.491 . S
C1108 H1099 0.950 . S
C1108 C1107 1.398 . S
C1108 C1109 1.391 . S
C1109 H1097 0.950 . S
C1109 C1105 1.393 1_556 S
C1109 C1108 1.391 . S
C1110 H1100 0.950 . S
C1110 C1111 1.386 . S
C1110 C1112 1.391 . S
C1111 C1110 1.386 . S
C1111 C1115 1.393 . S
C1112 H1101 0.950 . S
C1112 C1110 1.391 . S
C1112 C1113 1.400 . S
C1113 C1107 1.491 . S
C1113 C1112 1.400 . S
C1113 C1114 1.398 . S
C1114 H1102 0.950 . S
C1114 C1113 1.398 . S
C1114 C1115 1.391 . S
C1115 H1103 0.950 . S
C1115 C1111 1.393 . S
C1115 C1114 1.391 . S
H1116 C1124 0.950 . S
H1117 C1129 0.950 . S
H1118 C1126 0.950 . S
H1119 C1128 0.950 . S
H1120 C1130 0.950 . S
H1121 C1132 0.950 . S
H1122 C1134 0.950 . S
H1123 C1135 0.950 . S
C1124 H1116 0.950 . S
C1124 C1125 1.386 . S
C1124 C1126 1.391 1_554 S
C1125 C1124 1.386 . S
C1125 C1129 1.393 . S
C1126 H1118 0.950 . S
C1126 C1124 1.391 1_556 S
C1126 C1127 1.400 . S
C1127 C1126 1.400 . S
C1127 C1128 1.398 . S
C1127 C1133 1.491 . S
C1128 H1119 0.950 . S
C1128 C1127 1.398 . S
C1128 C1129 1.391 1_556 S
C1129 H1117 0.950 . S
C1129 C1125 1.393 . S
C1129 C1128 1.391 1_554 S
C1130 H1120 0.950 . S
C1130 C1131 1.386 . S
C1130 C1132 1.391 . S
C1131 C1130 1.386 . S
C1131 C1135 1.393 . S
C1132 H1121 0.950 . S
C1132 C1130 1.391 . S
C1132 C1133 1.400 . S
C1133 C1127 1.491 . S
C1133 C1132 1.400 . S
C1133 C1134 1.398 . S
C1134 H1122 0.950 . S
C1134 C1133 1.398 . S
C1134 C1135 1.391 . S
C1135 H1123 0.950 . S
C1135 C1131 1.393 . S
C1135 C1134 1.391 . S
H1136 C1144 0.950 . S
H1137 C1149 0.950 . S
H1138 C1146 0.923 1_655 S
H1139 C1148 0.950 . S
H1140 C1150 0.950 . S
H1141 C1152 0.950 . S
H1142 C1154 0.950 1_655 S
H1143 C1155 0.950 1_655 S
C1144 H1136 0.950 . S
C1144 C1145 1.386 . S
C1144 C1146 1.391 . S
C1145 C1144 1.386 . S
C1145 C1149 1.393 . S
C1146 H1138 0.923 1_455 S
C1146 C1144 1.391 . S
C1146 C1147 1.400 . S
C1147 C1146 1.400 . S
C1147 C1148 1.398 . S
C1147 C1153 1.491 . S
C1148 H1139 0.950 . S
C1148 C1147 1.398 . S
C1148 C1149 1.391 . S
C1149 H1137 0.950 . S
C1149 C1145 1.393 . S
C1149 C1148 1.391 . S
C1150 H1140 0.950 . S
C1150 C1151 1.386 . S
C1150 C1152 1.391 . S
C1151 C1150 1.386 . S
C1151 C1155 1.393 . S
C1152 H1141 0.950 . S
C1152 C1150 1.391 . S
C1152 C1153 1.400 . S
C1153 C1147 1.491 . S
C1153 C1152 1.400 . S
C1153 C1154 1.398 . S
C1154 H1142 0.950 1_455 S
C1154 C1153 1.398 . S
C1154 C1155 1.391 . S
C1155 H1143 0.950 1_455 S
C1155 C1151 1.393 . S
C1155 C1154 1.391 . S
H1156 C1164 0.950 . S
H1157 C1169 0.950 . S
H1158 C1166 0.950 . S
H1159 C1168 0.950 . S
H1160 C1170 0.950 1_565 S
H1161 C1172 0.911 1_565 S
H1162 C1174 0.950 . S
H1163 C1175 0.950 . S
C1164 H1156 0.950 . S
C1164 C1165 1.386 . S
C1164 C1166 1.391 . S
C1165 C1164 1.386 . S
C1165 C1169 1.393 . S
C1166 H1158 0.950 . S
C1166 C1164 1.391 . S
C1166 C1167 1.400 . S
C1167 C1166 1.400 . S
C1167 C1168 1.398 . S
C1167 C1173 1.491 . S
C1168 H1159 0.950 . S
C1168 C1167 1.398 . S
C1168 C1169 1.391 . S
C1169 H1157 0.950 . S
C1169 C1165 1.393 . S
C1169 C1168 1.391 . S
C1170 H1160 0.950 1_545 S
C1170 C1171 1.386 . S
C1170 C1172 1.391 . S
C1171 C1170 1.386 . S
C1171 C1175 1.393 . S
C1172 H1161 0.911 1_545 S
C1172 C1170 1.391 . S
C1172 C1173 1.400 . S
C1173 C1167 1.491 . S
C1173 C1172 1.400 . S
C1173 C1174 1.398 . S
C1174 H1162 0.950 . S
C1174 C1173 1.398 . S
C1174 C1175 1.391 . S
C1175 H1163 0.950 . S
C1175 C1171 1.393 . S
C1175 C1174 1.391 . S
H1176 C1184 0.950 . S
H1177 C1189 0.950 . S
H1178 C1186 0.950 . S
H1179 C1188 0.950 . S
H1180 C1190 0.950 . S
H1181 C1192 0.950 . S
H1182 C1194 0.950 . S
H1183 C1195 0.950 . S
C1184 H1176 0.950 . S
C1184 C1185 1.386 . S
C1184 C1186 1.391 . S
C1185 C1184 1.386 . S
C1185 C1189 1.393 . S
C1186 H1178 0.950 . S
C1186 C1184 1.391 . S
C1186 C1187 1.400 . S
C1187 C1186 1.400 . S
C1187 C1188 1.398 . S
C1187 C1193 1.491 . S
C1188 H1179 0.950 . S
C1188 C1187 1.398 . S
C1188 C1189 1.391 . S
C1189 H1177 0.950 . S
C1189 C1185 1.393 . S
C1189 C1188 1.391 . S
C1190 H1180 0.950 . S
C1190 C1191 1.386 . S
C1190 C1192 1.391 . S
C1191 C1190 1.386 . S
C1191 C1195 1.393 . S
C1192 H1181 0.950 . S
C1192 C1190 1.391 . S
C1192 C1193 1.400 . S
C1193 C1187 1.491 . S
C1193 C1192 1.400 . S
C1193 C1194 1.398 . S
C1194 H1182 0.950 . S
C1194 C1193 1.398 . S
C1194 C1195 1.391 . S
C1195 H1183 0.950 . S
C1195 C1191 1.393 . S
C1195 C1194 1.391 . S
H1196 C1204 0.950 . S
H1197 C1209 0.950 . S
H1198 C1206 0.950 . S
H1199 C1208 0.950 . S
H1200 C1210 0.950 . S
H1201 C1212 0.950 . S
H1202 C1214 0.950 . S
H1203 C1215 0.950 . S
C1204 H1196 0.950 . S
C1204 C1205 1.386 . S
C1204 C1206 1.391 . S
C1205 C1204 1.386 . S
C1205 C1209 1.393 . S
C1206 H1198 0.950 . S
C1206 C1204 1.391 . S
C1206 C1207 1.400 . S
C1207 C1206 1.400 . S
C1207 C1208 1.398 . S
C1207 C1213 1.491 . S
C1208 H1199 0.950 . S
C1208 C1207 1.398 . S
C1208 C1209 1.391 . S
C1209 H1197 0.950 . S
C1209 C1205 1.393 . S
C1209 C1208 1.391 . S
C1210 H1200 0.950 . S
C1210 C1211 1.386 . S
C1210 C1212 1.391 . S
C1211 C1210 1.386 . S
C1211 C1215 1.393 . S
C1212 H1201 0.950 . S
C1212 C1210 1.391 . S
C1212 C1213 1.400 . S
C1213 C1207 1.491 . S
C1213 C1212 1.400 . S
C1213 C1214 1.398 . S
C1214 H1202 0.950 . S
C1214 C1213 1.398 . S
C1214 C1215 1.391 . S
C1215 H1203 0.950 . S
C1215 C1211 1.393 . S
C1215 C1214 1.391 . S
H1216 C1224 0.950 . S
H1217 C1229 0.950 . S
H1218 C1226 0.950 1_455 S
H1219 C1228 0.950 . S
H1220 C1230 0.950 . S
H1221 C1232 0.950 . S
H1222 C1234 0.950 1_455 S
H1223 C1235 0.950 . S
C1224 H1216 0.950 . S
C1224 C1225 1.386 . S
C1224 C1226 1.391 . S
C1225 C1224 1.386 . S
C1225 C1229 1.393 . S
C1226 H1218 0.950 1_655 S
C1226 C1224 1.391 . S
C1226 C1227 1.400 . S
C1227 C1226 1.400 . S
C1227 C1228 1.398 . S
C1227 C1233 1.491 . S
C1228 H1219 0.950 . S
C1228 C1227 1.398 . S
C1228 C1229 1.391 . S
C1229 H1217 0.950 . S
C1229 C1225 1.393 . S
C1229 C1228 1.391 . S
C1230 H1220 0.950 . S
C1230 C1231 1.386 . S
C1230 C1232 1.391 . S
C1231 C1230 1.386 . S
C1231 C1235 1.393 1_655 S
C1232 H1221 0.950 . S
C1232 C1230 1.391 . S
C1232 C1233 1.400 . S
C1233 C1227 1.491 . S
C1233 C1232 1.400 . S
C1233 C1234 1.398 . S
C1234 H1222 0.950 1_655 S
C1234 C1233 1.398 . S
C1234 C1235 1.391 1_655 S
C1235 H1223 0.950 . S
C1235 C1231 1.393 1_455 S
C1235 C1234 1.391 1_455 S
H1236 C1244 0.950 . S
H1237 C1249 0.950 . S
H1238 C1246 0.950 1_545 S
H1239 C1248 0.950 . S
H1240 C1250 0.950 . S
H1241 C1252 0.950 . S
H1242 C1254 0.951 1_545 S
H1243 C1255 0.950 . S
C1244 H1236 0.950 . S
C1244 C1245 1.386 . S
C1244 C1246 1.391 . S
C1245 C1244 1.386 . S
C1245 C1249 1.393 . S
C1246 H1238 0.950 1_565 S
C1246 C1244 1.391 . S
C1246 C1247 1.400 . S
C1247 C1246 1.400 . S
C1247 C1248 1.398 . S
C1247 C1253 1.491 . S
C1248 H1239 0.950 . S
C1248 C1247 1.398 . S
C1248 C1249 1.391 . S
C1249 H1237 0.950 . S
C1249 C1245 1.393 . S
C1249 C1248 1.391 . S
C1250 H1240 0.950 . S
C1250 C1251 1.386 . S
C1250 C1252 1.391 . S
C1251 C1250 1.386 . S
C1251 C1255 1.393 1_565 S
C1252 H1241 0.950 . S
C1252 C1250 1.391 . S
C1252 C1253 1.400 . S
C1253 C1247 1.491 . S
C1253 C1252 1.400 . S
C1253 C1254 1.397 . S
C1254 H1242 0.951 1_565 S
C1254 C1253 1.397 . S
C1254 C1255 1.391 1_565 S
C1255 H1243 0.950 . S
C1255 C1251 1.393 1_545 S
C1255 C1254 1.391 1_545 S
H1256 C1264 0.950 . S
H1257 C1269 0.950 . S
H1258 C1266 0.950 . S
H1259 C1268 0.950 . S
H1260 C1270 0.950 . S
H1261 C1272 0.950 . S
H1262 C1274 0.950 . S
H1263 C1275 0.950 . S
C1264 H1256 0.950 . S
C1264 C1265 1.386 . S
C1264 C1266 1.391 . S
C1265 C1264 1.386 . S
C1265 C1269 1.393 . S
C1266 H1258 0.950 . S
C1266 C1264 1.391 . S
C1266 C1267 1.400 . S
C1267 C1266 1.400 . S
C1267 C1268 1.398 . S
C1267 C1273 1.491 . S
C1268 H1259 0.950 . S
C1268 C1267 1.398 . S
C1268 C1269 1.391 . S
C1269 H1257 0.950 . S
C1269 C1265 1.393 . S
C1269 C1268 1.391 . S
C1270 H1260 0.950 . S
C1270 C1271 1.386 . S
C1270 C1272 1.391 . S
C1271 C1270 1.386 . S
C1271 C1275 1.393 . S
C1272 H1261 0.950 . S
C1272 C1270 1.391 . S
C1272 C1273 1.400 . S
C1273 C1267 1.491 . S
C1273 C1272 1.400 . S
C1273 C1274 1.398 . S
C1274 H1262 0.950 . S
C1274 C1273 1.398 . S
C1274 C1275 1.391 . S
C1275 H1263 0.950 . S
C1275 C1271 1.393 . S
C1275 C1274 1.391 . S
H1276 C1284 0.950 . S
H1277 C1289 0.950 . S
H1278 C1286 0.950 . S
H1279 C1288 0.950 . S
H1280 C1290 0.950 . S
H1281 C1292 0.950 . S
H1282 C1294 0.950 . S
H1283 C1295 0.950 . S
C1284 H1276 0.950 . S
C1284 C1285 1.386 . S
C1284 C1286 1.391 . S
C1285 C1284 1.386 . S
C1285 C1289 1.393 . S
C1286 H1278 0.950 . S
C1286 C1284 1.391 . S
C1286 C1287 1.400 . S
C1287 C1286 1.400 . S
C1287 C1288 1.398 . S
C1287 C1293 1.491 . S
C1288 H1279 0.950 . S
C1288 C1287 1.398 . S
C1288 C1289 1.391 . S
C1289 H1277 0.950 . S
C1289 C1285 1.393 . S
C1289 C1288 1.391 . S
C1290 H1280 0.950 . S
C1290 C1291 1.386 . S
C1290 C1292 1.391 . S
C1291 C1290 1.386 . S
C1291 C1295 1.393 . S
C1292 H1281 0.950 . S
C1292 C1290 1.391 . S
C1292 C1293 1.400 . S
C1293 C1287 1.491 . S
C1293 C1292 1.400 . S
C1293 C1294 1.398 . S
C1294 H1282 0.950 . S
C1294 C1293 1.398 . S
C1294 C1295 1.391 . S
C1295 H1283 0.950 . S
C1295 C1291 1.393 . S
C1295 C1294 1.391 . S
C825 C391 2.378 . S
C831 C543 2.418 . S
C851 C620 2.427 . S
C845 C451 2.390 . S
C871 C711 2.417 . S
C865 C241 2.071 . S
C891 C795 2.400 . S
C885 C331 2.037 . S
C911 C554 2.419 1_565 S
C905 C121 2.106 . S
C925 C211 2.368 . S
C931 C631 2.438 . S
C945 C31 2.344 . S
C951 C722 2.427 . S
C965 C91 2.109 . S
C971 C806 2.410 1_655 S
C991 C538 0.516 . S
C985 C301 0.580 . S
C1011 C633 0.557 . S
C1005 C380 0.420 . S
C1031 C706 0.473 . S
C1025 C440 0.457 . S
C1045 C260 0.573 . S
C1051 C790 0.436 . S
C1065 C61 0.525 . S
C1071 C549 0.516 . S
C1091 C622 0.497 . S
C1085 C140 0.499 . S
C1111 C717 0.517 . S
C1105 C200 0.477 . S
C1125 C20 0.493 . S
C1131 C801 0.462 . S
C1145 C320 2.737 . S
C1151 C547 2.901 . S
C1165 C361 2.385 . S
C1171 C638 2.939 . S
C1191 C715 2.916 . S
C1185 C421 2.414 . S
C1211 C799 2.919 . S
C1205 C271 2.744 . S
C1225 C80 2.745 . S
C1231 C536 2.892 . S
C1251 C627 2.941 . S
C1245 C151 2.742 . S
C1271 C704 2.923 . S
C1265 C181 2.398 . S
C1285 C1 2.384 . S
C1291 C788 2.916 . S
