# Generated by pormake.
# Topology zzz, (3,6)-cn, num edge types: 1
# Building blocks:
#     Node 0, Type 0, BuildingBlock: BELTOD_clean_linker_0, # of connection points: 3
#     Node 1, Type 0, BuildingBlock: BELTOD_clean_linker_0, # of connection points: 3
#     Node 2, Type 0, BuildingBlock: BELTOD_clean_linker_0, # of connection points: 3
#     Node 3, Type 0, BuildingBlock: BELTOD_clean_linker_0, # of connection points: 3
#     Node 4, Type 0, BuildingBlock: BELTOD_clean_linker_0, # of connection points: 3
#     Node 5, Type 0, BuildingBlock: BELTOD_clean_linker_0, # of connection points: 3
#     Node 6, Type 0, BuildingBlock: BELTOD_clean_linker_0, # of connection points: 3
#     Node 7, Type 0, BuildingBlock: BELTOD_clean_linker_0, # of connection points: 3
#     Node 8, Type 1, BuildingBlock: FUNLAD_clean_sbu_0, # of connection points: 6
#     Node 9, Type 1, BuildingBlock: FUNLAD_clean_sbu_0, # of connection points: 6
#     Node 10, Type 1, BuildingBlock: FUNLAD_clean_sbu_0, # of connection points: 6
#     Node 11, Type 1, BuildingBlock: FUNLAD_clean_sbu_0, # of connection points: 6
#     Edge 12, Type (0, 1), BuildingBlock: MIFKUJ_clean_linker_0, # of connection points: 2
#     Edge 13, Type (0, 1), BuildingBlock: MIFKUJ_clean_linker_0, # of connection points: 2
#     Edge 14, Type (0, 1), BuildingBlock: MIFKUJ_clean_linker_0, # of connection points: 2
#     Edge 15, Type (0, 1), BuildingBlock: MIFKUJ_clean_linker_0, # of connection points: 2
#     Edge 16, Type (0, 1), BuildingBlock: MIFKUJ_clean_linker_0, # of connection points: 2
#     Edge 17, Type (0, 1), BuildingBlock: MIFKUJ_clean_linker_0, # of connection points: 2
#     Edge 18, Type (0, 1), BuildingBlock: MIFKUJ_clean_linker_0, # of connection points: 2
#     Edge 19, Type (0, 1), BuildingBlock: MIFKUJ_clean_linker_0, # of connection points: 2
#     Edge 20, Type (0, 1), BuildingBlock: MIFKUJ_clean_linker_0, # of connection points: 2
#     Edge 21, Type (0, 1), BuildingBlock: MIFKUJ_clean_linker_0, # of connection points: 2
#     Edge 22, Type (0, 1), BuildingBlock: MIFKUJ_clean_linker_0, # of connection points: 2
#     Edge 23, Type (0, 1), BuildingBlock: MIFKUJ_clean_linker_0, # of connection points: 2
#     Edge 24, Type (0, 1), BuildingBlock: MIFKUJ_clean_linker_0, # of connection points: 2
#     Edge 25, Type (0, 1), BuildingBlock: MIFKUJ_clean_linker_0, # of connection points: 2
#     Edge 26, Type (0, 1), BuildingBlock: MIFKUJ_clean_linker_0, # of connection points: 2
#     Edge 27, Type (0, 1), BuildingBlock: MIFKUJ_clean_linker_0, # of connection points: 2
#     Edge 28, Type (0, 1), BuildingBlock: MIFKUJ_clean_linker_0, # of connection points: 2
#     Edge 29, Type (0, 1), BuildingBlock: MIFKUJ_clean_linker_0, # of connection points: 2
#     Edge 30, Type (0, 1), BuildingBlock: MIFKUJ_clean_linker_0, # of connection points: 2
#     Edge 31, Type (0, 1), BuildingBlock: MIFKUJ_clean_linker_0, # of connection points: 2
#     Edge 32, Type (0, 1), BuildingBlock: MIFKUJ_clean_linker_0, # of connection points: 2
#     Edge 33, Type (0, 1), BuildingBlock: MIFKUJ_clean_linker_0, # of connection points: 2
#     Edge 34, Type (0, 1), BuildingBlock: MIFKUJ_clean_linker_0, # of connection points: 2
#     Edge 35, Type (0, 1), BuildingBlock: MIFKUJ_clean_linker_0, # of connection points: 2
# Relax obj value: 0.262
# Max RMSD: 0.207
# Mean RMSD: 0.180
data_MOF--net-zzz--node1-FUNLAD_clean_sbu_0--node2-BELTOD_clean_linker_0--edge1-MIFKUJ_clean_linker_0
_symmetry_space_group_name_H-M    P1
_symmetry_Int_Tables_number       1
_symmetry_cell_setting            triclinic
loop_
_symmetry_equiv_pos_as_xyz
'x, y, z'
_cell_length_a     68.247227
_cell_length_b     72.732957
_cell_length_c     26.341576
_cell_angle_alpha  87.229115
_cell_angle_beta   87.832115
_cell_angle_gamma 91.999005
loop_
_atom_site_label
_atom_site_type_symbol
_atom_site_fract_x
_atom_site_fract_y
_atom_site_fract_z
_atom_type_partial_charge
P0 P 0.79674 0.40013 0.22518 0.0
H1 H 0.79036 0.39753 0.33625 0.0
H2 H 0.80335 0.41614 0.40333 0.0
H3 H 0.82959 0.45495 0.28902 0.0
H4 H 0.81679 0.4363 0.22247 0.0
H5 H 0.76524 0.38025 0.17686 0.0
H6 H 0.74039 0.39017 0.11807 0.0
H7 H 0.75929 0.44689 0.13341 0.0
H8 H 0.78419 0.43688 0.19144 0.0
H9 H 0.83802 0.39624 0.24608 0.0
H10 H 0.80306 0.40196 0.11343 0.0
O11 O 0.79154 0.37904 0.25101 0.0
H12 H 0.86796 0.39962 0.19178 0.0
H13 H 0.83285 0.40531 0.05927 0.0
C14 C 0.80265 0.41551 0.27441 0.0
C15 C 0.79856 0.41024 0.32568 0.0
C16 C 0.80603 0.42084 0.36395 0.0
C17 C 0.81753 0.43696 0.35138 0.0
C18 C 0.82056 0.44275 0.29995 0.0
C19 C 0.81326 0.43207 0.26183 0.0
C20 C 0.77636 0.40782 0.18935 0.0
C21 C 0.76375 0.39484 0.16843 0.0
C22 C 0.74956 0.40053 0.13476 0.0
C23 C 0.7479 0.41932 0.12099 0.0
C24 C 0.76034 0.4323 0.14282 0.0
C25 C 0.77449 0.42659 0.17653 0.0
C26 C 0.81832 0.39928 0.18398 0.0
C27 C 0.83677 0.39798 0.20527 0.0
C28 C 0.85385 0.39995 0.1743 0.0
C29 C 0.85271 0.40293 0.12141 0.0
C30 C 0.83417 0.40296 0.0999 0.0
C31 C 0.8171 0.40117 0.13097 0.0
P32 P 0.97925 0.75578 0.18499 0.0
H33 H 0.97158 0.75358 0.29499 0.0
H34 H 0.95721 0.77535 0.35223 0.0
H35 H 0.93902 0.80824 0.22248 0.0
H36 H 0.95282 0.78613 0.16576 0.0
H37 H 0.99197 0.71896 0.16705 0.0
H38 H 0.97779 0.69359 0.1223 0.0
H39 H 0.92576 0.72444 0.09752 0.0
H40 H 0.94008 0.74998 0.14355 0.0
H41 H 0.01196 0.78248 0.18219 0.0
H42 H 0.968 0.76482 0.07981 0.0
O43 O 0.99784 0.74822 0.2187 0.0
H44 H 0.02322 0.80702 0.12034 0.0
H45 H 0.97872 0.78962 0.01857 0.0
C46 C 0.96374 0.76852 0.22618 0.0
C47 C 0.96403 0.76521 0.27895 0.0
C48 C 0.95592 0.77774 0.31161 0.0
C49 C 0.9474 0.79379 0.29192 0.0
C50 C 0.94546 0.79606 0.23902 0.0
C51 C 0.9535 0.78346 0.20642 0.0
C52 C 0.96699 0.73627 0.15911 0.0
C53 C 0.97729 0.72015 0.1533 0.0
C54 C 0.96912 0.70558 0.12782 0.0
C55 C 0.95057 0.70695 0.10686 0.0
C56 C 0.94004 0.723 0.11355 0.0
C57 C 0.94816 0.73753 0.13991 0.0
C58 C 0.98936 0.77162 0.13538 0.0
C59 C 0.00496 0.78367 0.14601 0.0
C60 C 0.01123 0.79783 0.11083 0.0
C61 C 0.00181 0.80036 0.06456 0.0
C62 C 0.98651 0.78791 0.05346 0.0
C63 C 0.98031 0.7737 0.08864 0.0
P64 P 0.7624 0.04677 0.15151 0.0
H65 H 0.76266 0.04512 0.26304 0.0
H66 H 0.73955 0.03032 0.32685 0.0
H67 H 0.71211 0.00014 0.20983 0.0
H68 H 0.73548 0.01476 0.1462 0.0
H69 H 0.7818 0.05922 0.05568 0.0
H70 H 0.80988 0.0486 0.00665 0.0
H71 H 0.81715 0.00511 0.12106 0.0
H72 H 0.78843 0.01558 0.16973 0.0
H73 H 0.73052 0.07201 0.16288 0.0
H74 H 0.75066 0.0345 0.05188 0.0
O75 O 0.77078 0.0656 0.17861 0.0
H76 H 0.70162 0.078 0.11268 0.0
H77 H 0.72233 0.04097 0.00101 0.0
C78 C 0.75062 0.03125 0.19973 0.0
C79 C 0.75215 0.03484 0.2513 0.0
C80 C 0.73891 0.02635 0.28782 0.0
C81 C 0.72383 0.01431 0.27315 0.0
C82 C 0.72344 0.00955 0.22208 0.0
C83 C 0.73686 0.01783 0.18575 0.0
C84 C 0.78263 0.03783 0.1155 0.0
C85 C 0.78914 0.04716 0.06981 0.0
C86 C 0.80521 0.0411 0.04181 0.0
C87 C 0.81553 0.02589 0.05971 0.0
C88 C 0.80935 0.0168 0.10627 0.0
C89 C 0.79293 0.0227 0.13393 0.0
C90 C 0.74311 0.05333 0.11025 0.0
C91 C 0.72905 0.06552 0.127 0.0
C92 C 0.71254 0.06886 0.09854 0.0
C93 C 0.71 0.06016 0.0527 0.0
C94 C 0.72424 0.04818 0.03562 0.0
C95 C 0.7405 0.04456 0.06459 0.0
P96 P 0.52897 0.71811 0.2139 0.0
H97 H 0.52772 0.71276 0.32447 0.0
H98 H 0.54774 0.69483 0.38037 0.0
H99 H 0.59097 0.6905 0.25734 0.0
H100 H 0.56979 0.70733 0.20041 0.0
H101 H 0.50341 0.74373 0.16498 0.0
H102 H 0.50933 0.7715 0.11025 0.0
H103 H 0.57171 0.76758 0.12839 0.0
H104 H 0.56565 0.7398 0.18391 0.0
H105 H 0.52597 0.67835 0.23215 0.0
H106 H 0.52584 0.71693 0.10232 0.0
O107 O 0.5075 0.71957 0.24569 0.0
H108 H 0.52297 0.65274 0.17586 0.0
H109 H 0.52272 0.69139 0.04612 0.0
C110 C 0.54721 0.71141 0.2582 0.0
C111 C 0.54176 0.70844 0.30975 0.0
C112 C 0.55344 0.69819 0.34204 0.0
C113 C 0.57102 0.69084 0.32355 0.0
C114 C 0.57736 0.69549 0.27286 0.0
C115 C 0.56541 0.70546 0.24032 0.0
C116 C 0.53405 0.73977 0.17897 0.0
C117 C 0.51836 0.74897 0.15787 0.0
C118 C 0.52177 0.76474 0.12611 0.0
C119 C 0.541 0.77162 0.11465 0.0
C120 C 0.55673 0.76263 0.13676 0.0
C121 C 0.55328 0.74671 0.16844 0.0
C122 C 0.52638 0.69957 0.17151 0.0
C123 C 0.52533 0.68133 0.19157 0.0
C124 C 0.52365 0.6667 0.1594 0.0
C125 C 0.52267 0.67009 0.10662 0.0
C126 C 0.5233 0.68839 0.08671 0.0
C127 C 0.52518 0.70302 0.11889 0.0
P128 P 0.23776 0.49209 0.17758 0.0
H129 H 0.23056 0.47034 0.08966 0.0
H130 H 0.21626 0.47812 0.00927 0.0
H131 H 0.22279 0.53602 0.03808 0.0
H132 H 0.23606 0.52797 0.12036 0.0
H133 H 0.26218 0.47232 0.24737 0.0
H134 H 0.29075 0.48123 0.29354 0.0
H135 H 0.29259 0.53489 0.21506 0.0
H136 H 0.26436 0.52545 0.16668 0.0
H137 H 0.20082 0.47693 0.22439 0.0
H138 H 0.23219 0.52958 0.21147 0.0
O139 O 0.23471 0.46921 0.1848 0.0
H140 H 0.17429 0.4905 0.27222 0.0
H141 H 0.2052 0.54353 0.25689 0.0
C142 C 0.23428 0.49852 0.11163 0.0
C143 C 0.22944 0.48475 0.07836 0.0
C144 C 0.22132 0.48928 0.03176 0.0
C145 C 0.218 0.50774 0.01714 0.0
C146 C 0.22467 0.52162 0.0485 0.0
C147 C 0.23256 0.51704 0.09553 0.0
C148 C 0.2611 0.49815 0.20319 0.0
C149 C 0.26893 0.48587 0.23898 0.0
C150 C 0.28517 0.4911 0.26607 0.0
C151 C 0.29374 0.50893 0.25888 0.0
C152 C 0.28637 0.52103 0.22149 0.0
C153 C 0.27015 0.51566 0.19383 0.0
C154 C 0.21861 0.50217 0.2147 0.0
C155 C 0.20202 0.49143 0.23177 0.0
C156 C 0.1867 0.4993 0.25865 0.0
C157 C 0.18747 0.5182 0.26815 0.0
C158 C 0.20417 0.52892 0.25089 0.0
C159 C 0.21961 0.52095 0.22454 0.0
P160 P 0.14296 0.22938 0.25933 0.0
H161 H 0.16596 0.21775 0.17101 0.0
H162 H 0.1574 0.19717 0.10443 0.0
H163 H 0.09612 0.19955 0.15087 0.0
H164 H 0.10498 0.21876 0.21977 0.0
H165 H 0.16054 0.25975 0.31181 0.0
H166 H 0.14777 0.28879 0.33949 0.0
H167 H 0.09438 0.27801 0.26171 0.0
H168 H 0.10738 0.24934 0.23263 0.0
H169 H 0.15082 0.19125 0.28473 0.0
H170 H 0.1103 0.23132 0.33582 0.0
O171 O 0.1673 0.22917 0.26333 0.0
H172 H 0.13232 0.16708 0.33537 0.0
H173 H 0.09202 0.20735 0.38735 0.0
C174 C 0.13611 0.22011 0.20006 0.0
C175 C 0.15063 0.21428 0.16599 0.0
C176 C 0.14568 0.20249 0.12767 0.0
C177 C 0.12606 0.19641 0.12262 0.0
C178 C 0.11142 0.20358 0.15425 0.0
C179 C 0.11643 0.21504 0.19305 0.0
C180 C 0.13502 0.25234 0.26976 0.0
C181 C 0.14633 0.26386 0.29934 0.0
C182 C 0.13903 0.28043 0.31527 0.0
C183 C 0.12009 0.28553 0.30284 0.0
C184 C 0.10901 0.2743 0.2719 0.0
C185 C 0.11649 0.2579 0.25514 0.0
C186 C 0.13209 0.21311 0.30675 0.0
C187 C 0.1383 0.19494 0.3081 0.0
C188 C 0.12767 0.18113 0.33704 0.0
C189 C 0.11059 0.18526 0.36514 0.0
C190 C 0.10493 0.20367 0.36548 0.0
C191 C 0.11553 0.21746 0.33634 0.0
P192 P 0.28903 0.04012 0.22588 0.0
H193 H 0.28547 0.05261 0.11947 0.0
H194 H 0.30404 0.04554 0.04204 0.0
H195 H 0.33206 0.00186 0.12597 0.0
H196 H 0.31283 0.00836 0.20168 0.0
H197 H 0.25774 0.06124 0.26946 0.0
H198 H 0.22563 0.05253 0.30844 0.0
H199 H 0.23305 0.99637 0.26759 0.0
H200 H 0.26523 0.00535 0.22671 0.0
H201 H 0.32481 0.05669 0.26354 0.0
H202 H 0.28916 0.00703 0.29523 0.0
O203 O 0.29111 0.06305 0.21906 0.0
H204 H 0.34895 0.04538 0.32221 0.0
H205 H 0.31352 0.99531 0.35225 0.0
C206 C 0.29799 0.03128 0.16673 0.0
C207 C 0.29518 0.04115 0.1207 0.0
C208 C 0.30603 0.03723 0.07654 0.0
C209 C 0.31998 0.02338 0.07769 0.0
C210 C 0.32148 0.01257 0.12311 0.0
C211 C 0.3105 0.01639 0.16697 0.0
C212 C 0.26386 0.03398 0.24479 0.0
C213 C 0.25231 0.04715 0.26742 0.0
C214 C 0.23391 0.04216 0.28985 0.0
C215 C 0.22685 0.02377 0.29116 0.0
C216 C 0.23819 0.01063 0.26724 0.0
C217 C 0.25649 0.01575 0.24373 0.0
C218 C 0.30498 0.03289 0.2755 0.0
C219 C 0.32199 0.04348 0.28372 0.0
C220 C 0.33592 0.03687 0.31685 0.0
C221 C 0.33329 0.01933 0.34169 0.0
C222 C 0.31593 0.00897 0.33441 0.0
C223 C 0.30192 0.01569 0.30161 0.0
P224 P 0.42431 0.29202 0.22433 0.0
H225 H 0.40504 0.2943 0.12666 0.0
H226 H 0.41475 0.30991 0.04477 0.0
H227 H 0.4717 0.32346 0.10255 0.0
H228 H 0.46223 0.3071 0.1826 0.0
H229 H 0.41146 0.26836 0.31082 0.0
H230 H 0.42163 0.23854 0.34373 0.0
H231 H 0.46024 0.23453 0.21094 0.0
H232 H 0.45039 0.26495 0.17923 0.0
H233 H 0.41314 0.32713 0.26416 0.0
H234 H 0.4607 0.29 0.27943 0.0
O235 O 0.40001 0.29384 0.22951 0.0
H236 H 0.42964 0.34854 0.31879 0.0
H237 H 0.47755 0.31148 0.33263 0.0
C238 C 0.43276 0.29989 0.16109 0.0
C239 C 0.41976 0.3003 0.12116 0.0
C240 C 0.42529 0.30938 0.07446 0.0
C241 C 0.44392 0.31828 0.06704 0.0
C242 C 0.4573 0.31669 0.10631 0.0
C243 C 0.45182 0.30745 0.15263 0.0
C244 C 0.42994 0.2687 0.24233 0.0
C245 C 0.42184 0.2609 0.28833 0.0
C246 C 0.42765 0.24376 0.307 0.0
C247 C 0.44168 0.23398 0.27988 0.0
C248 C 0.44952 0.24173 0.23304 0.0
C249 C 0.44376 0.25903 0.21455 0.0
C250 C 0.43551 0.30685 0.26857 0.0
C251 C 0.42702 0.32349 0.27978 0.0
C252 C 0.43658 0.33579 0.3106 0.0
C253 C 0.45495 0.33174 0.33014 0.0
C254 C 0.46327 0.3149 0.3191 0.0
C255 C 0.45365 0.3026 0.28853 0.0
C256 C 0.02967 0.96554 0.74713 0.0
N257 N 0.00111 0.97621 0.61122 0.0
C258 C 0.01003 0.96124 0.59334 0.0
C259 C 0.00022 0.94952 0.5617 0.0
C260 C 0.98088 0.953 0.54896 0.0
C261 C 0.97202 0.96861 0.56739 0.0
C262 C 0.98253 0.98021 0.59832 0.0
Zn263 Zn 0.01581 0.9912 0.66261 0.0
C264 C 0.98962 0.00177 0.74825 0.0
N265 N 0.04729 0.0201 0.77302 0.0
C266 C 0.06603 0.01673 0.7858 0.0
C267 C 0.03771 0.03462 0.79152 0.0
C268 C 0.04688 0.04637 0.82418 0.0
C269 C 0.06627 0.04345 0.83724 0.0
C270 C 0.07594 0.02844 0.81774 0.0
Zn271 Zn 0.0329 0.0049 0.72152 0.0
O272 O 0.02018 0.96638 0.70648 0.0
C273 C 0.05899 0.99451 0.63553 0.0
O274 O 0.03739 0.98017 0.76337 0.0
H275 H 0.02304 0.03741 0.78001 0.0
H276 H 0.02461 0.95804 0.60478 0.0
H277 H 0.07343 0.00519 0.77047 0.0
O278 O 0.04264 0.98829 0.62077 0.0
O279 O 0.05951 0.00219 0.67786 0.0
H280 H 0.97569 0.99215 0.613 0.0
O281 O 0.02834 0.02946 0.67892 0.0
O282 O 0.01212 0.01622 0.61939 0.0
O283 O 0.00608 0.00725 0.76406 0.0
O284 O 0.98904 0.99459 0.70526 0.0
C285 C 0.01979 0.03067 0.63696 0.0
H286 H 0.00744 0.93745 0.54892 0.0
H287 H 0.95711 0.97171 0.55827 0.0
H288 H 0.03909 0.05801 0.83777 0.0
H289 H 0.09095 0.02583 0.82704 0.0
C290 C 0.49911 0.99012 0.61655 0.0
N291 N 0.51662 0.04529 0.62581 0.0
C292 C 0.51913 0.0462 0.57421 0.0
C293 C 0.5149 0.06219 0.54597 0.0
C294 C 0.50769 0.07731 0.57091 0.0
C295 C 0.50536 0.07611 0.62418 0.0
C296 C 0.51008 0.05991 0.65109 0.0
Zn297 Zn 0.52143 0.02076 0.66419 0.0
C298 C 0.49078 0.01127 0.74623 0.0
N299 N 0.5301 0.96842 0.73935 0.0
C300 C 0.53399 0.95306 0.71376 0.0
C301 C 0.52959 0.96805 0.79108 0.0
C302 C 0.53329 0.95189 0.81915 0.0
C303 C 0.53745 0.93585 0.79386 0.0
C304 C 0.53764 0.93651 0.74044 0.0
Zn305 Zn 0.52547 0.99296 0.70113 0.0
O306 O 0.50319 0.00731 0.61426 0.0
C307 C 0.5558 0.00218 0.61833 0.0
O308 O 0.50666 0.97978 0.65027 0.0
H309 H 0.52636 0.98037 0.81075 0.0
H310 H 0.52403 0.03436 0.55466 0.0
H311 H 0.53438 0.95368 0.67263 0.0
O312 O 0.54604 0.01672 0.61538 0.0
O313 O 0.55064 0.98948 0.65159 0.0
H314 H 0.50819 0.05892 0.69209 0.0
O315 O 0.54365 0.0067 0.75189 0.0
O316 O 0.54004 0.03401 0.71464 0.0
O317 O 0.50053 0.99672 0.74935 0.0
O318 O 0.4964 0.02416 0.714 0.0
C319 C 0.54747 0.02396 0.74915 0.0
H320 H 0.51664 0.06251 0.50489 0.0
H321 H 0.49992 0.08754 0.64474 0.0
H322 H 0.53268 0.9519 0.86029 0.0
H323 H 0.5409 0.92446 0.7195 0.0
C324 C 0.53451 0.47545 0.60714 0.0
N325 N 0.48869 0.5108 0.6332 0.0
C326 C 0.48998 0.51357 0.58172 0.0
C327 C 0.47357 0.51823 0.55481 0.0
C328 C 0.45552 0.52024 0.58089 0.0
C329 C 0.45456 0.5174 0.63418 0.0
C330 C 0.47143 0.51266 0.65974 0.0
Zn331 Zn 0.51394 0.50381 0.66766 0.0
C332 C 0.5097 0.47219 0.74014 0.0
N333 N 0.56869 0.48983 0.72881 0.0
C334 C 0.58572 0.48748 0.70169 0.0
C335 C 0.5675 0.48683 0.78022 0.0
C336 C 0.58363 0.48083 0.80629 0.0
C337 C 0.60127 0.47789 0.77938 0.0
C338 C 0.60234 0.48154 0.72644 0.0
Zn339 Zn 0.54342 0.49685 0.69473 0.0
O340 O 0.51942 0.4851 0.61059 0.0
C341 C 0.5476 0.52834 0.62173 0.0
O342 O 0.54803 0.47736 0.63854 0.0
H343 H 0.55387 0.48883 0.80117 0.0
H344 H 0.5038 0.51203 0.56121 0.0
H345 H 0.58631 0.4899 0.66081 0.0
O346 O 0.52916 0.52514 0.62389 0.0
O347 O 0.55849 0.51802 0.64791 0.0
H348 H 0.47075 0.51044 0.70068 0.0
O349 O 0.5382 0.51623 0.75108 0.0
O350 O 0.50884 0.52242 0.72528 0.0
O351 O 0.52805 0.47584 0.74017 0.0
O352 O 0.49903 0.48215 0.71234 0.0
C353 C 0.52252 0.52504 0.75582 0.0
H354 H 0.47499 0.51986 0.51374 0.0
H355 H 0.44097 0.51892 0.65589 0.0
H356 H 0.58228 0.4785 0.84722 0.0
H357 H 0.61569 0.47937 0.70433 0.0
C358 C 0.02954 0.5214 0.59468 0.0
N359 N 0.02624 0.46428 0.62378 0.0
C360 C 0.025 0.46403 0.57235 0.0
C361 C 0.03237 0.44944 0.54598 0.0
C362 C 0.04076 0.43479 0.57282 0.0
C363 C 0.04135 0.43505 0.62598 0.0
C364 C 0.03411 0.45012 0.65085 0.0
Zn365 Zn 0.017 0.48711 0.65892 0.0
C366 C 0.04739 0.50286 0.72386 0.0
N367 N 0.99849 0.53622 0.72569 0.0
C368 C 0.98855 0.5493 0.69965 0.0
C369 C 0.00178 0.53752 0.77602 0.0
C370 C 0.99501 0.55239 0.80216 0.0
C371 C 0.98461 0.56604 0.77642 0.0
C372 C 0.98136 0.56438 0.7245 0.0
Zn373 Zn 0.00783 0.51343 0.69093 0.0
O374 O 0.02948 0.50392 0.59771 0.0
C375 C 0.97743 0.49738 0.62636 0.0
O376 O 0.02115 0.52997 0.62982 0.0
H377 H 0.00949 0.52686 0.79619 0.0
H378 H 0.01852 0.4753 0.55153 0.0
H379 H 0.98608 0.54798 0.65966 0.0
O380 O 0.99019 0.48517 0.62257 0.0
O381 O 0.981 0.51136 0.65215 0.0
H382 H 0.03504 0.45064 0.69165 0.0
O383 O 0.99501 0.49664 0.75225 0.0
O384 O 0.00419 0.47076 0.72058 0.0
O385 O 0.03459 0.51499 0.72867 0.0
O386 O 0.04392 0.48929 0.69644 0.0
C387 C 0.99552 0.47918 0.75558 0.0
H388 H 0.03148 0.44958 0.50498 0.0
H389 H 0.04781 0.42398 0.64784 0.0
H390 H 0.99758 0.55303 0.84237 0.0
H391 H 0.97351 0.57471 0.70329 0.0
H392 H 0.22112 0.99591 0.3638 0.0
H393 H 0.19207 0.98925 0.41971 0.0
H394 H 0.16192 0.03273 0.34132 0.0
H395 H 0.19131 0.03986 0.2867 0.0
H396 H 0.15513 0.03554 0.43563 0.0
H397 H 0.15089 0.98497 0.32807 0.0
H398 H 0.16221 0.95815 0.28289 0.0
H399 H 0.17213 0.92955 0.42553 0.0
H400 H 0.16111 0.95631 0.47158 0.0
H401 H 0.06219 0.98038 0.54138 0.0
H402 H 0.09026 0.98335 0.48091 0.0
H403 H 0.12421 0.01076 0.59167 0.0
H404 H 0.09604 0.00815 0.65221 0.0
H405 H 0.12702 0.97247 0.47617 0.0
H406 H 0.1516 0.04627 0.52999 0.0
H407 H 0.13669 0.07297 0.56856 0.0
H408 H 0.08018 0.05565 0.51813 0.0
H409 H 0.09484 0.02923 0.47779 0.0
C410 C 0.20817 0.00382 0.35798 0.0
C411 C 0.20843 0.01833 0.32074 0.0
C412 C 0.19153 1e-05 0.38996 0.0
C413 C 0.17461 0.01034 0.38459 0.0
C414 C 0.17475 0.02458 0.34651 0.0
C415 C 0.1915 0.0286 0.31512 0.0
C416 C 0.15712 0.00681 0.41993 0.0
C417 C 0.14902 0.02173 0.44432 0.0
C418 C 0.14873 0.98887 0.43077 0.0
C419 C 0.15534 0.97272 0.40325 0.0
C420 C 0.15562 0.97302 0.34979 0.0
C421 C 0.16196 0.95781 0.32403 0.0
C422 C 0.16793 0.94217 0.35132 0.0
C423 C 0.16752 0.94169 0.40444 0.0
C424 C 0.16121 0.95686 0.4304 0.0
C425 C 0.07569 0.98686 0.55319 0.0
C426 C 0.07679 0.9942 0.60153 0.0
C427 C 0.09176 0.98849 0.51854 0.0
C428 C 0.10925 0.99752 0.53141 0.0
C429 C 0.11075 0.004 0.5806 0.0
C430 C 0.09465 0.00243 0.61525 0.0
C431 C 0.12547 0.00111 0.49245 0.0
C432 C 0.13324 0.98624 0.46739 0.0
C433 C 0.13309 0.01917 0.47962 0.0
C434 C 0.12431 0.0356 0.50149 0.0
C435 C 0.13603 0.04825 0.52674 0.0
C436 C 0.12761 0.06334 0.5489 0.0
C437 C 0.10748 0.06593 0.54608 0.0
C438 C 0.09575 0.05356 0.52058 0.0
C439 C 0.10413 0.03857 0.49787 0.0
H440 H 0.10098 0.07759 0.56339 0.0
H441 H 0.17283 0.93042 0.3313 0.0
H442 H 0.42023 0.20654 0.33411 0.0
H443 H 0.43255 0.17974 0.38049 0.0
H444 H 0.49119 0.19398 0.32178 0.0
H445 H 0.4792 0.22134 0.27685 0.0
H446 H 0.47869 0.1544 0.32255 0.0
H447 H 0.48248 0.20591 0.43168 0.0
H448 H 0.469 0.23228 0.47492 0.0
H449 H 0.42539 0.19639 0.55358 0.0
H450 H 0.43842 0.16983 0.51014 0.0
H451 H 0.52874 0.09651 0.49428 0.0
H452 H 0.51842 0.12295 0.44219 0.0
H453 H 0.46291 0.12139 0.52678 0.0
H454 H 0.4735 0.09537 0.57999 0.0
H455 H 0.47461 0.15515 0.51098 0.0
H456 H 0.46894 0.10395 0.4043 0.0
H457 H 0.48005 0.07688 0.35988 0.0
H458 H 0.52408 0.11065 0.27566 0.0
H459 H 0.5134 0.1379 0.32012 0.0
C460 C 0.43577 0.20406 0.33103 0.0
C461 C 0.44875 0.21631 0.30223 0.0
C462 C 0.44274 0.18865 0.3573 0.0
C463 C 0.46278 0.18503 0.35486 0.0
C464 C 0.47566 0.19657 0.32401 0.0
C465 C 0.46873 0.21216 0.29816 0.0
C466 C 0.47036 0.16984 0.38704 0.0
C467 C 0.47808 0.15461 0.36374 0.0
C468 C 0.46902 0.16999 0.4407 0.0
C469 C 0.46131 0.18591 0.46728 0.0
C470 C 0.46991 0.20366 0.45787 0.0
C471 C 0.46237 0.21864 0.48247 0.0
C472 C 0.44632 0.21602 0.51688 0.0
C473 C 0.43781 0.1984 0.52687 0.0
C474 C 0.44527 0.18338 0.50229 0.0
C475 C 0.51437 0.10188 0.50175 0.0
C476 C 0.50189 0.0939 0.54105 0.0
C477 C 0.50843 0.11692 0.47183 0.0
C478 C 0.48971 0.12398 0.47982 0.0
C479 C 0.4774 0.11621 0.51977 0.0
C480 C 0.48346 0.10136 0.55022 0.0
C481 C 0.48292 0.13945 0.44672 0.0
C482 C 0.47532 0.15483 0.46982 0.0
C483 C 0.48408 0.13926 0.39285 0.0
C484 C 0.4905 0.12292 0.36593 0.0
C485 C 0.48109 0.10558 0.37659 0.0
C486 C 0.48729 0.09021 0.35136 0.0
C487 C 0.5028 0.09204 0.31507 0.0
C488 C 0.51209 0.10925 0.30384 0.0
C489 C 0.50596 0.12467 0.32901 0.0
H490 H 0.50758 0.08012 0.29558 0.0
H491 H 0.4405 0.22764 0.53589 0.0
H492 H 0.32692 0.53046 0.23258 0.0
H493 H 0.35382 0.53857 0.2873 0.0
H494 H 0.32384 0.50834 0.41402 0.0
H495 H 0.29658 0.50113 0.36066 0.0
H496 H 0.34042 0.53803 0.44649 0.0
H497 H 0.36105 0.48961 0.33909 0.0
H498 H 0.36801 0.47545 0.25743 0.0
H499 H 0.41004 0.51926 0.2142 0.0
H500 H 0.40313 0.5338 0.29542 0.0
H501 H 0.4179 0.50618 0.59819 0.0
H502 H 0.38988 0.51055 0.54431 0.0
H503 H 0.42515 0.54773 0.44301 0.0
H504 H 0.45308 0.54391 0.49738 0.0
H505 H 0.40708 0.51927 0.39403 0.0
H506 H 0.38922 0.56472 0.51051 0.0
H507 H 0.38242 0.57706 0.59465 0.0
H508 H 0.33527 0.53685 0.62377 0.0
H509 H 0.34196 0.52408 0.54007 0.0
C510 C 0.32593 0.52581 0.27229 0.0
C511 C 0.30975 0.51485 0.29195 0.0
C512 C 0.34138 0.53032 0.30344 0.0
C513 C 0.34103 0.52377 0.35459 0.0
C514 C 0.32453 0.51348 0.37467 0.0
C515 C 0.30905 0.50914 0.34383 0.0
C516 C 0.35812 0.52671 0.38695 0.0
C517 C 0.35498 0.53386 0.43509 0.0
C518 C 0.37723 0.52163 0.37176 0.0
C519 C 0.3814 0.5129 0.32299 0.0
C520 C 0.37166 0.49629 0.31199 0.0
C521 C 0.37562 0.48819 0.26583 0.0
C522 C 0.38941 0.49648 0.23058 0.0
C523 C 0.39933 0.51287 0.24149 0.0
C524 C 0.3954 0.52105 0.28757 0.0
C525 C 0.41958 0.51567 0.56523 0.0
C526 C 0.43782 0.52454 0.55188 0.0
C527 C 0.40356 0.51811 0.53437 0.0
C528 C 0.40548 0.52945 0.48966 0.0
C529 C 0.42341 0.53885 0.47723 0.0
C530 C 0.43938 0.53655 0.50823 0.0
C531 C 0.38928 0.53024 0.45384 0.0
C532 C 0.39259 0.52375 0.40508 0.0
C533 C 0.37032 0.53568 0.46878 0.0
C534 C 0.3662 0.54335 0.51912 0.0
C535 C 0.3775 0.55841 0.53501 0.0
C536 C 0.37365 0.5655 0.5826 0.0
C537 C 0.35845 0.55773 0.61458 0.0
C538 C 0.34705 0.54286 0.59897 0.0
C539 C 0.35085 0.5357 0.55142 0.0
H540 H 0.35549 0.56324 0.65141 0.0
H541 H 0.39246 0.49018 0.19487 0.0
H542 H 0.08568 0.28627 0.35756 0.0
H543 H 0.07222 0.31214 0.4013 0.0
H544 H 0.12117 0.34713 0.34276 0.0
H545 H 0.13516 0.32087 0.30104 0.0
H546 H 0.11512 0.35378 0.43535 0.0
H547 H 0.07253 0.34972 0.29702 0.0
H548 H 0.05 0.33497 0.23891 0.0
H549 H 0.00929 0.32068 0.36404 0.0
H550 H 0.0317 0.33514 0.42305 0.0
H551 H 0.06734 0.4374 0.493 0.0
H552 H 0.08096 0.41221 0.4458 0.0
H553 H 0.04644 0.37272 0.54201 0.0
H554 H 0.03305 0.3979 0.59009 0.0
H555 H 0.04507 0.36951 0.42864 0.0
H556 H 0.09011 0.37445 0.56583 0.0
H557 H 0.11295 0.39141 0.6186 0.0
H558 H 0.14948 0.40695 0.4861 0.0
H559 H 0.12667 0.3903 0.43241 0.0
C560 C 0.09341 0.29956 0.35358 0.0
C561 C 0.11134 0.30168 0.32567 0.0
C562 C 0.08568 0.31438 0.37842 0.0
C563 C 0.09545 0.33176 0.37466 0.0
C564 C 0.11332 0.3339 0.34625 0.0
C565 C 0.12127 0.31895 0.32227 0.0
C566 C 0.08741 0.34743 0.40208 0.0
C567 C 0.09986 0.35735 0.43309 0.0
C568 C 0.06743 0.35206 0.3999 0.0
C569 C 0.05389 0.34337 0.36453 0.0
C570 C 0.05884 0.34332 0.31221 0.0
C571 C 0.04608 0.33502 0.2791 0.0
C572 C 0.02825 0.32685 0.29779 0.0
C573 C 0.02312 0.327 0.34962 0.0
C574 C 0.03583 0.33526 0.38291 0.0
C575 C 0.0627 0.42334 0.50404 0.0
C576 C 0.04917 0.41952 0.54508 0.0
C577 C 0.07049 0.40901 0.47721 0.0
C578 C 0.06467 0.39068 0.49054 0.0
C579 C 0.05106 0.38682 0.53127 0.0
C580 C 0.04353 0.40114 0.55876 0.0
C581 C 0.07275 0.37555 0.46167 0.0
C582 C 0.06031 0.36584 0.43046 0.0
C583 C 0.09279 0.37139 0.46273 0.0
C584 C 0.10657 0.38129 0.49504 0.0
C585 C 0.10291 0.38162 0.54788 0.0
C586 C 0.11587 0.39115 0.57797 0.0
C587 C 0.13263 0.4003 0.5557 0.0
C588 C 0.13648 0.39988 0.50329 0.0
C589 C 0.12355 0.39039 0.47302 0.0
H590 H 0.14265 0.40766 0.57906 0.0
H591 H 0.01839 0.32044 0.27209 0.0
H592 H 0.81838 0.01943 0.95867 0.0
H593 H 0.84799 0.01312 0.90785 0.0
H594 H 0.8819 0.01375 0.04264 0.0
H595 H 0.85221 0.0199 0.09381 0.0
H596 H 0.89759 0.03686 0.95928 0.0
H597 H 0.87383 0.97433 0.99358 0.0
H598 H 0.84926 0.9486 0.99632 0.0
H599 H 0.84463 0.95468 0.83432 0.0
H600 H 0.86897 0.98065 0.83069 0.0
H601 H 0.98692 0.00965 0.84841 0.0
H602 H 0.95733 0.0119 0.90218 0.0
H603 H 0.92167 0.00027 0.77493 0.0
H604 H 0.95138 0.99729 0.72121 0.0
H605 H 0.90666 0.98235 0.8558 0.0
H606 H 0.92847 0.04486 0.819 0.0
H607 H 0.95193 0.07151 0.8128 0.0
H608 H 0.95869 0.06704 0.97427 0.0
H609 H 0.93547 0.04018 0.98137 0.0
C610 C 0.83212 0.018 0.97751 0.0
C611 C 0.83303 0.02015 0.03015 0.0
C612 C 0.84899 0.01435 0.94851 0.0
C613 C 0.86713 0.01295 0.9715 0.0
C614 C 0.86803 0.01476 0.02422 0.0
C615 C 0.85108 0.01814 0.05341 0.0
C616 C 0.88527 0.01059 0.93994 0.0
C617 C 0.89976 0.02481 0.93728 0.0
C618 C 0.88771 0.99518 0.90986 0.0
C619 C 0.87309 0.97956 0.91194 0.0
C620 C 0.86744 0.9703 0.95859 0.0
C621 C 0.85358 0.95564 0.9603 0.0
C622 C 0.84535 0.95004 0.91554 0.0
C623 C 0.851 0.95905 0.86896 0.0
C624 C 0.86484 0.97373 0.86706 0.0
C625 C 0.97279 0.00761 0.83174 0.0
C626 C 0.97152 0.00341 0.78038 0.0
C627 C 0.95584 0.00898 0.86255 0.0
C628 C 0.93719 0.0066 0.84252 0.0
C629 C 0.93586 0.00222 0.79132 0.0
C630 C 0.95286 0.00058 0.76058 0.0
C631 C 0.91912 0.00863 0.87509 0.0
C632 C 0.90459 0.9944 0.87786 0.0
C633 C 0.91647 0.02419 0.90471 0.0
C634 C 0.93037 0.04039 0.90064 0.0
C635 C 0.93507 0.04947 0.85314 0.0
C636 C 0.9483 0.06463 0.84947 0.0
C637 C 0.95683 0.07093 0.8931 0.0
C638 C 0.9521 0.06212 0.94051 0.0
C639 C 0.93888 0.04694 0.94438 0.0
H640 H 0.96708 0.08267 0.89017 0.0
H641 H 0.83463 0.93869 0.91694 0.0
H642 H 0.56566 0.80172 0.12453 0.0
H643 H 0.56941 0.82941 0.06752 0.0
H644 H 0.52763 0.80601 0.96767 0.0
H645 H 0.52409 0.77826 0.02381 0.0
H646 H 0.55884 0.82341 0.91459 0.0
H647 H 0.5132 0.83619 0.05253 0.0
H648 H 0.50293 0.8387 0.14263 0.0
H649 H 0.54993 0.87838 0.16049 0.0
H650 H 0.56065 0.87591 0.0706 0.0
H651 H 0.52313 0.90101 0.77892 0.0
H652 H 0.52802 0.87292 0.83103 0.0
H653 H 0.56554 0.90353 0.92759 0.0
H654 H 0.5605 0.93169 0.87593 0.0
H655 H 0.54013 0.8829 0.98346 0.0
H656 H 0.58409 0.87252 0.84355 0.0
H657 H 0.59456 0.87014 0.75358 0.0
H658 H 0.55174 0.82624 0.73901 0.0
H659 H 0.5408 0.82853 0.82874 0.0
C660 C 0.55749 0.8024 0.09006 0.0
C661 C 0.54442 0.78792 0.07889 0.0
C662 C 0.55957 0.81825 0.0577 0.0
C663 C 0.54863 0.81983 0.01367 0.0
C664 C 0.53617 0.80509 0.0015 0.0
C665 C 0.53403 0.78932 0.03385 0.0
C666 C 0.54934 0.83713 0.98132 0.0
C667 C 0.55465 0.83642 0.92948 0.0
C668 C 0.54435 0.85416 0.0011 0.0
C669 C 0.53786 0.85571 0.05504 0.0
C670 C 0.52144 0.84534 0.07579 0.0
C671 C 0.51552 0.84677 0.12679 0.0
C672 C 0.5258 0.85865 0.15731 0.0
C673 C 0.542 0.86916 0.13683 0.0
C674 C 0.548 0.86776 0.08587 0.0
C675 C 0.53265 0.90168 0.81081 0.0
C676 C 0.54139 0.91855 0.82341 0.0
C677 C 0.53547 0.88562 0.84055 0.0
C678 C 0.54732 0.88605 0.88301 0.0
C679 C 0.55631 0.90284 0.89511 0.0
C680 C 0.55339 0.91893 0.86563 0.0
C681 C 0.54945 0.86922 0.91634 0.0
C682 C 0.54461 0.86999 0.96847 0.0
C683 C 0.55495 0.85227 0.89678 0.0
C684 C 0.56152 0.85081 0.8428 0.0
C685 C 0.5768 0.86245 0.82107 0.0
C686 C 0.58284 0.8611 0.77012 0.0
C687 C 0.57379 0.84807 0.74057 0.0
C688 C 0.55872 0.83634 0.76194 0.0
C689 C 0.55261 0.83764 0.81287 0.0
H690 H 0.57849 0.84705 0.70113 0.0
H691 H 0.5212 0.85974 0.19678 0.0
H692 H 0.75417 0.44495 0.04218 0.0
H693 H 0.73109 0.45461 0.97828 0.0
H694 H 0.68683 0.41674 0.0482 0.0
H695 H 0.70986 0.40701 0.11234 0.0
H696 H 0.68811 0.41502 0.94622 0.0
H697 H 0.68581 0.46282 0.06644 0.0
H698 H 0.69973 0.48703 0.11824 0.0
H699 H 0.72237 0.51693 0.98282 0.0
H700 H 0.7088 0.49275 0.93022 0.0
H701 H 0.60082 0.45005 0.85237 0.0
H702 H 0.62796 0.43979 0.9029 0.0
H703 H 0.66724 0.47904 0.81912 0.0
H704 H 0.63988 0.4897 0.76889 0.0
H705 H 0.67089 0.48047 0.92127 0.0
H706 H 0.67051 0.43366 0.80061 0.0
H707 H 0.65605 0.40951 0.74953 0.0
H708 H 0.63802 0.37773 0.88596 0.0
H709 H 0.65212 0.40182 0.93793 0.0
C710 C 0.73945 0.43882 0.04429 0.0
C711 C 0.73379 0.4253 0.08254 0.0
C712 C 0.72631 0.44431 0.00765 0.0
C713 C 0.70718 0.43652 0.00877 0.0
C714 C 0.70153 0.4229 0.04658 0.0
C715 C 0.7147 0.41735 0.08317 0.0
C716 C 0.69301 0.44258 0.97063 0.0
C717 C 0.68419 0.4293 0.94108 0.0
C718 C 0.68837 0.4613 0.96289 0.0
C719 C 0.69648 0.47587 0.99444 0.0
C720 C 0.6939 0.47448 0.04773 0.0
C721 C 0.7017 0.48821 0.07723 0.0
C722 C 0.71198 0.50349 0.05385 0.0
C723 C 0.71443 0.50508 0.00089 0.0
C724 C 0.70668 0.49137 0.97121 0.0
C725 C 0.61524 0.45649 0.84462 0.0
C726 C 0.61821 0.47076 0.80691 0.0
C727 C 0.63078 0.45049 0.87321 0.0
C728 C 0.64966 0.45855 0.86449 0.0
C729 C 0.65278 0.47261 0.8263 0.0
C730 C 0.6372 0.47859 0.79746 0.0
C731 C 0.66576 0.45286 0.89735 0.0
C732 C 0.67495 0.46621 0.92597 0.0
C733 C 0.67071 0.4342 0.90431 0.0
C734 C 0.66226 0.41963 0.87318 0.0
C735 C 0.66333 0.42159 0.81975 0.0
C736 C 0.65522 0.4079 0.79063 0.0
C737 C 0.64609 0.39211 0.81449 0.0
C738 C 0.64509 0.38997 0.86753 0.0
C739 C 0.65316 0.40363 0.89684 0.0
H740 H 0.63982 0.38153 0.79187 0.0
H741 H 0.71801 0.51411 0.07675 0.0
H742 H 0.95005 0.66973 0.12623 0.0
H743 H 0.9474 0.64617 0.06352 0.0
H744 H 0.93304 0.68762 0.94966 0.0
H745 H 0.93601 0.71133 0.0121 0.0
H746 H 0.92245 0.63209 0.99192 0.0
H747 H 0.96425 0.68167 0.84768 0.0
H748 H 0.98405 0.7108 0.84548 0.0
H749 H 0.00295 0.69767 0.9962 0.0
H750 H 0.98354 0.66837 0.99887 0.0
H751 H 0.94821 0.58071 0.77325 0.0
H752 H 0.9357 0.60577 0.82312 0.0
H753 H 0.99177 0.61166 0.89212 0.0
H754 H 0.00436 0.58691 0.84214 0.0
H755 H 0.97724 0.64485 0.86428 0.0
H756 H 0.9548 0.58777 0.95369 0.0
H757 H 0.9372 0.55749 0.96045 0.0
H758 H 0.88316 0.58336 0.928 0.0
H759 H 0.90052 0.61378 0.92024 0.0
C760 C 0.94577 0.67373 0.08819 0.0
C761 C 0.94358 0.69238 0.07375 0.0
C762 C 0.94411 0.66023 0.0525 0.0
C763 C 0.94035 0.66521 0.00179 0.0
C764 C 0.93609 0.68354 0.98858 0.0
C765 C 0.93773 0.69706 0.02433 0.0
C766 C 0.94451 0.65203 0.96193 0.0
C767 C 0.93419 0.63497 0.96341 0.0
C768 C 0.96009 0.65566 0.92539 0.0
C769 C 0.97226 0.67298 0.92366 0.0
C770 C 0.9727 0.68499 0.88021 0.0
C771 C 0.98386 0.70152 0.87889 0.0
C772 C 0.99469 0.70611 0.92074 0.0
C773 C 0.99451 0.69413 0.96387 0.0
C774 C 0.98344 0.67756 0.96529 0.0
C775 C 0.9579 0.58754 0.79861 0.0
C776 C 0.97722 0.58182 0.80408 0.0
C777 C 0.95072 0.60175 0.82724 0.0
C778 C 0.96278 0.61047 0.86151 0.0
C779 C 0.98222 0.6051 0.86588 0.0
C780 C 0.98935 0.59088 0.83761 0.0
C781 C 0.95525 0.62485 0.89424 0.0
C782 C 0.96507 0.64214 0.89162 0.0
C783 C 0.93948 0.62124 0.93024 0.0
C784 C 0.92899 0.60302 0.9358 0.0
C785 C 0.93919 0.58698 0.94764 0.0
C786 C 0.92926 0.5698 0.9517 0.0
C787 C 0.90909 0.5685 0.9445 0.0
C788 C 0.89879 0.58439 0.93345 0.0
C789 C 0.90867 0.6016 0.92923 0.0
H790 H 0.90143 0.55518 0.94759 0.0
H791 H 0.00327 0.71893 0.9197 0.0
H792 H 0.1224 0.15491 0.41998 0.0
H793 H 0.1018 0.12947 0.45881 0.0
H794 H 0.05002 0.15616 0.40838 0.0
H795 H 0.07052 0.18156 0.36886 0.0
H796 H 0.0452 0.14293 0.50556 0.0
H797 H 0.0655 0.1196 0.34633 0.0
H798 H 0.08891 0.11209 0.27734 0.0
H799 H 0.11877 0.07656 0.38139 0.0
H800 H 0.09577 0.08421 0.45102 0.0
H801 H 0.01189 0.03711 0.53628 0.0
H802 H 0.02127 0.06486 0.48311 0.0
H803 H 0.04249 0.09112 0.61486 0.0
H804 H 0.03273 0.0639 0.66801 0.0
H805 H 0.05722 0.07834 0.46432 0.0
H806 H 0.04165 0.13641 0.60318 0.0
H807 H 0.01668 0.14368 0.66857 0.0
H808 H 0.97376 0.11005 0.59742 0.0
H809 H 0.99839 0.10276 0.53121 0.0
C810 C 0.10664 0.15533 0.41691 0.0
C811 C 0.09811 0.17027 0.39129 0.0
C812 C 0.09489 0.14078 0.43908 0.0
C813 C 0.0744 0.14083 0.43586 0.0
C814 C 0.06581 0.15586 0.41124 0.0
C815 C 0.07755 0.17042 0.38898 0.0
C816 C 0.062 0.12525 0.45881 0.0
C817 C 0.0477 0.12881 0.49638 0.0
C818 C 0.06494 0.10688 0.44578 0.0
C819 C 0.0789 0.10242 0.40393 0.0
C820 C 0.07713 0.11027 0.35453 0.0
C821 C 0.09033 0.106 0.31529 0.0
C822 C 0.1053 0.09384 0.32495 0.0
C823 C 0.10714 0.08595 0.37389 0.0
C824 C 0.09401 0.09022 0.41323 0.0
C825 C 0.01799 0.04902 0.55409 0.0
C826 C 0.02158 0.04828 0.60634 0.0
C827 C 0.02349 0.06481 0.52361 0.0
C828 C 0.03251 0.08012 0.54499 0.0
C829 C 0.03524 0.07966 0.59754 0.0
C830 C 0.02971 0.06399 0.62792 0.0
C831 C 0.04077 0.09594 0.51234 0.0
C832 C 0.0544 0.09245 0.47301 0.0
C833 C 0.03695 0.11439 0.52315 0.0
C834 C 0.02192 0.11897 0.56234 0.0
C835 C 0.02685 0.13066 0.60126 0.0
C836 C 0.01277 0.13476 0.63854 0.0
C837 C 0.99365 0.12731 0.6372 0.0
C838 C 0.98858 0.11578 0.59849 0.0
C839 C 0.00261 0.11163 0.56112 0.0
H840 H 0.98277 0.13049 0.66612 0.0
H841 H 0.11546 0.0905 0.29454 0.0
H842 H 0.32967 0.99791 0.43092 0.0
H843 H 0.35599 0.98433 0.47916 0.0
H844 H 0.39894 0.00983 0.37103 0.0
H845 H 0.37284 0.02253 0.32137 0.0
H846 H 0.40845 0.97601 0.39367 0.0
H847 H 0.38687 0.02751 0.48984 0.0
H848 H 0.36316 0.04512 0.53902 0.0
H849 H 0.35379 0.99926 0.64713 0.0
H850 H 0.37726 0.98129 0.59816 0.0
H851 H 0.49309 0.00111 0.51913 0.0
H852 H 0.46317 0.99607 0.47312 0.0
H853 H 0.43961 0.9597 0.59644 0.0
H854 H 0.46991 0.96446 0.64242 0.0
H855 H 0.41676 0.99012 0.57407 0.0
H856 H 0.44503 0.94192 0.48522 0.0
H857 H 0.47058 0.92622 0.43692 0.0
H858 H 0.46919 0.96766 0.3155 0.0
H859 H 0.44384 0.98378 0.36335 0.0
C860 C 0.34472 0.00047 0.41717 0.0
C861 C 0.34912 0.01147 0.37243 0.0
C862 C 0.35975 0.99281 0.44503 0.0
C863 C 0.37947 0.99618 0.42898 0.0
C864 C 0.38385 0.00702 0.3842 0.0
C865 C 0.36888 0.01452 0.35619 0.0
C866 C 0.39577 0.9888 0.45869 0.0
C867 C 0.41028 0.97911 0.43313 0.0
C868 C 0.3978 0.9922 0.51077 0.0
C869 C 0.38353 0.00294 0.53983 0.0
C870 C 0.37957 0.02111 0.52376 0.0
C871 C 0.36621 0.03116 0.55165 0.0
C872 C 0.35685 0.02326 0.59595 0.0
C873 C 0.36092 0.00531 0.61259 0.0
C874 C 0.37426 0.99519 0.5848 0.0
C875 C 0.48184 0.99149 0.53552 0.0
C876 C 0.48375 0.98313 0.58412 0.0
C877 C 0.46476 0.9886 0.50923 0.0
C878 C 0.4492 0.9775 0.53139 0.0
C879 C 0.45153 0.96822 0.57864 0.0
C880 C 0.46885 0.97084 0.60464 0.0
C881 C 0.42978 0.9781 0.50832 0.0
C882 C 0.41466 0.98652 0.53508 0.0
C883 C 0.42731 0.97377 0.4572 0.0
C884 C 0.44254 0.9641 0.42804 0.0
C885 C 0.45025 0.94776 0.44837 0.0
C886 C 0.46469 0.93877 0.42103 0.0
C887 C 0.47151 0.94594 0.37319 0.0
C888 C 0.46388 0.96211 0.35255 0.0
C889 C 0.44944 0.97116 0.37974 0.0
H890 H 0.4827 0.93896 0.35209 0.0
H891 H 0.34656 0.03109 0.61759 0.0
H892 H 0.477 0.3252 0.41382 0.0
H893 H 0.49615 0.34765 0.45951 0.0
H894 H 0.47617 0.3915 0.36037 0.0
H895 H 0.45782 0.36913 0.31311 0.0
H896 H 0.51396 0.39592 0.37196 0.0
H897 H 0.45724 0.38224 0.48376 0.0
H898 H 0.43376 0.36297 0.53842 0.0
H899 H 0.4804 0.34624 0.63328 0.0
H900 H 0.50423 0.3652 0.5787 0.0
H901 H 0.51721 0.47521 0.51627 0.0
H902 H 0.51072 0.44845 0.46617 0.0
H903 H 0.54433 0.41505 0.56817 0.0
H904 H 0.55117 0.44199 0.61824 0.0
H905 H 0.50526 0.40219 0.55802 0.0
H906 H 0.56091 0.42048 0.4507 0.0
H907 H 0.58278 0.44196 0.39788 0.0
H908 H 0.53632 0.45216 0.29593 0.0
H909 H 0.51406 0.43094 0.34853 0.0
C910 C 0.47679 0.33962 0.40154 0.0
C911 C 0.46581 0.34536 0.35984 0.0
C912 C 0.48761 0.35245 0.42801 0.0
C913 C 0.48749 0.37128 0.41362 0.0
C914 C 0.47649 0.37704 0.37217 0.0
C915 C 0.46579 0.36424 0.34555 0.0
C916 C 0.49894 0.38511 0.44106 0.0
C917 C 0.51198 0.39734 0.41262 0.0
C918 C 0.49684 0.3866 0.4944 0.0
C919 C 0.48258 0.37488 0.52659 0.0
C920 C 0.46254 0.37425 0.51586 0.0
C921 C 0.44916 0.36343 0.54691 0.0
C922 C 0.4556 0.35329 0.5891 0.0
C923 C 0.47544 0.354 0.6004 0.0
C924 C 0.48889 0.36478 0.56942 0.0
C925 C 0.52373 0.4623 0.52708 0.0
C926 C 0.53467 0.46062 0.57105 0.0
C927 C 0.52004 0.44704 0.49841 0.0
C928 C 0.52705 0.4298 0.51353 0.0
C929 C 0.53888 0.42828 0.55587 0.0
C930 C 0.54287 0.44367 0.58416 0.0
C931 C 0.51983 0.41321 0.48866 0.0
C932 C 0.50756 0.40048 0.51754 0.0
C933 C 0.52242 0.41142 0.4357 0.0
C934 C 0.53577 0.42417 0.40378 0.0
C935 C 0.5553 0.4274 0.41723 0.0
C936 C 0.56778 0.43952 0.38728 0.0
C937 C 0.56094 0.44844 0.34361 0.0
C938 C 0.5416 0.44524 0.32976 0.0
C939 C 0.52905 0.43314 0.35959 0.0
H940 H 0.57062 0.45782 0.32048 0.0
H941 H 0.44521 0.34498 0.61321 0.0
H942 H 0.18901 0.5453 0.33754 0.0
H943 H 0.16167 0.5575 0.38638 0.0
H944 H 0.12126 0.52147 0.31273 0.0
H945 H 0.1482 0.51027 0.26125 0.0
H946 H 0.10475 0.55247 0.32598 0.0
H947 H 0.14189 0.51055 0.43457 0.0
H948 H 0.17176 0.50088 0.47696 0.0
H949 H 0.17534 0.55233 0.55004 0.0
H950 H 0.14552 0.56232 0.50785 0.0
H951 H 0.03559 0.51064 0.49868 0.0
H952 H 0.06109 0.52246 0.43715 0.0
H953 H 0.07679 0.56541 0.53711 0.0
H954 H 0.05087 0.55372 0.59883 0.0
H955 H 0.10732 0.54273 0.51324 0.0
H956 H 0.06263 0.5786 0.42299 0.0
H957 H 0.03161 0.58585 0.38279 0.0
H958 H 0.04096 0.54388 0.27623 0.0
H959 H 0.07189 0.53617 0.31622 0.0
C960 C 0.17426 0.54027 0.33087 0.0
C961 C 0.17088 0.52654 0.29596 0.0
C962 C 0.15865 0.54714 0.35926 0.0
C963 C 0.13942 0.54015 0.35405 0.0
C964 C 0.13595 0.52705 0.31768 0.0
C965 C 0.15146 0.52042 0.28878 0.0
C966 C 0.12295 0.54525 0.38844 0.0
C967 C 0.1053 0.5504 0.36696 0.0
C968 C 0.12386 0.5433 0.44208 0.0
C969 C 0.14169 0.53727 0.46755 0.0
C970 C 0.14913 0.51982 0.45945 0.0
C971 C 0.16603 0.51429 0.48346 0.0
C972 C 0.17551 0.52603 0.51591 0.0
C973 C 0.16805 0.5433 0.52465 0.0
C974 C 0.15114 0.54889 0.5008 0.0
C975 C 0.04402 0.52299 0.50674 0.0
C976 C 0.04135 0.53126 0.55341 0.0
C977 C 0.05853 0.52979 0.47149 0.0
C978 C 0.07079 0.54485 0.48253 0.0
C979 C 0.06737 0.55386 0.52781 0.0
C980 C 0.05254 0.54723 0.56284 0.0
C981 C 0.08885 0.54888 0.45052 0.0
C982 C 0.10687 0.54548 0.47243 0.0
C983 C 0.08818 0.55216 0.39731 0.0
C984 C 0.06961 0.55679 0.37275 0.0
C985 C 0.05803 0.57083 0.39117 0.0
C986 C 0.04046 0.57504 0.36838 0.0
C987 C 0.03431 0.56533 0.32699 0.0
C988 C 0.04575 0.55141 0.30825 0.0
C989 C 0.06333 0.54714 0.33091 0.0
H990 H 0.0207 0.5686 0.30941 0.0
H991 H 0.18857 0.52171 0.53453 0.0
H992 H 0.0104 0.83561 0.09016 0.0
H993 H 0.01734 0.86269 0.03341 0.0
H994 H 0.01091 0.82948 0.90333 0.0
H995 H 0.00472 0.80204 0.96009 0.0
H996 H 0.04122 0.8539 0.88765 0.0
H997 H 0.97405 0.85593 0.94163 0.0
H998 H 0.94551 0.85514 0.00203 0.0
H999 H 0.96878 0.90313 0.07085 0.0
H1000 H 0.99762 0.90406 0.0113 0.0
H1001 H 0.02212 0.93092 0.71515 0.0
H1002 H 0.02012 0.90201 0.7671 0.0
H1003 H 0.03609 0.93137 0.89863 0.0
H1004 H 0.03844 0.9603 0.8469 0.0
H1005 H 0.0007 0.90847 0.91057 0.0
H1006 H 0.06832 0.90563 0.85237 0.0
H1007 H 0.09539 0.90605 0.78762 0.0
H1008 H 0.06898 0.85899 0.72095 0.0
H1009 H 0.04157 0.85846 0.78492 0.0
C1010 C 0.01082 0.83395 0.04951 0.0
C1011 C 0.007 0.81663 0.02969 0.0
C1012 C 0.01457 0.84951 0.01709 0.0
C1013 C 0.01433 0.84816 0.96415 0.0
C1014 C 0.01106 0.83084 0.94409 0.0
C1015 C 0.00737 0.81521 0.97657 0.0
C1016 C 0.01709 0.86495 0.93005 0.0
C1017 C 0.0322 0.86574 0.89223 0.0
C1018 C 0.00541 0.88047 0.93629 0.0
C1019 C 0.98811 0.87995 0.97232 0.0
C1020 C 0.97318 0.86622 0.96993 0.0
C1021 C 0.95692 0.86576 0.00397 0.0
C1022 C 0.95536 0.87904 0.04035 0.0
C1023 C 0.97003 0.89284 0.0427 0.0
C1024 C 0.98633 0.89334 0.00879 0.0
C1025 C 0.02547 0.93118 0.75499 0.0
C1026 C 0.03041 0.94787 0.77701 0.0
C1027 C 0.02436 0.91466 0.78452 0.0
C1028 C 0.02796 0.91462 0.83659 0.0
C1029 C 0.03328 0.93118 0.85845 0.0
C1030 C 0.0347 0.94765 0.82881 0.0
C1031 C 0.025 0.89748 0.86891 0.0
C1032 C 0.00974 0.89662 0.90617 0.0
C1033 C 0.03631 0.88185 0.86154 0.0
C1034 C 0.05278 0.88213 0.82311 0.0
C1035 C 0.06818 0.89548 0.82361 0.0
C1036 C 0.08361 0.89572 0.78711 0.0
C1037 C 0.08388 0.88259 0.7501 0.0
C1038 C 0.06874 0.86917 0.7496 0.0
C1039 C 0.05326 0.86889 0.78599 0.0
H1040 H 0.09584 0.88279 0.72189 0.0
H1041 H 0.94276 0.87867 0.06664 0.0
H1042 H 0.67255 0.05439 0.09009 0.0
H1043 H 0.64267 0.05286 0.04133 0.0
H1044 H 0.67653 0.06871 0.90371 0.0
H1045 H 0.70658 0.06983 0.95218 0.0
H1046 H 0.63445 0.08518 0.92393 0.0
H1047 H 0.67175 0.02886 0.91102 0.0
H1048 H 0.68927 0.00298 0.9499 0.0
H1049 H 0.63744 0.98591 0.03987 0.0
H1050 H 0.61974 0.01191 0.0021 0.0
H1051 H 0.57386 0.05272 0.7304 0.0
H1052 H 0.59958 0.06294 0.78593 0.0
H1053 H 0.57713 0.02368 0.90413 0.0
H1054 H 0.55231 0.01267 0.84734 0.0
H1055 H 0.61314 0.02052 0.89759 0.0
H1056 H 0.57396 0.07333 0.90811 0.0
H1057 H 0.55521 0.09965 0.8768 0.0
H1058 H 0.60731 0.12401 0.80113 0.0
H1059 H 0.62633 0.09771 0.83144 0.0
C1060 C 0.67351 0.05798 0.04966 0.0
C1061 C 0.69178 0.06218 0.02471 0.0
C1062 C 0.65649 0.05711 0.02195 0.0
C1063 C 0.65749 0.06072 0.96912 0.0
C1064 C 0.67553 0.06603 0.94456 0.0
C1065 C 0.69263 0.06655 0.97211 0.0
C1066 C 0.64026 0.0566 0.93886 0.0
C1067 C 0.62977 0.07109 0.9176 0.0
C1068 C 0.63397 0.03822 0.9322 0.0
C1069 C 0.64451 0.02243 0.95421 0.0
C1070 C 0.66416 0.01968 0.93944 0.0
C1071 C 0.67411 0.00498 0.96121 0.0
C1072 C 0.66449 0.99284 0.99745 0.0
C1073 C 0.64489 0.99534 0.01186 0.0
C1074 C 0.63489 0.01005 0.99028 0.0
C1075 C 0.5743 0.04651 0.76854 0.0
C1076 C 0.5612 0.0319 0.78467 0.0
C1077 C 0.58893 0.05242 0.80044 0.0
C1078 C 0.59027 0.04423 0.84963 0.0
C1079 C 0.57654 0.03017 0.86635 0.0
C1080 C 0.56231 0.02392 0.83399 0.0
C1081 C 0.60688 0.04912 0.88209 0.0
C1082 C 0.61746 0.0347 0.90384 0.0
C1083 C 0.61292 0.0676 0.88993 0.0
C1084 C 0.60154 0.08346 0.87169 0.0
C1085 C 0.58139 0.08423 0.88448 0.0
C1086 C 0.57072 0.09916 0.86697 0.0
C1087 C 0.58005 0.11347 0.83689 0.0
C1088 C 0.60009 0.11291 0.82439 0.0
C1089 C 0.61084 0.098 0.84177 0.0
H1090 H 0.57176 0.12501 0.82337 0.0
H1091 H 0.67222 0.98146 0.01426 0.0
H1092 H 0.54409 0.63911 0.10827 0.0
H1093 H 0.54257 0.61388 0.05018 0.0
H1094 H 0.49689 0.6408 0.96943 0.0
H1095 H 0.49825 0.66608 0.02767 0.0
H1096 H 0.48953 0.60251 0.9892 0.0
H1097 H 0.54091 0.64419 0.91877 0.0
H1098 H 0.57141 0.66329 0.92073 0.0
H1099 H 0.60352 0.61525 0.9601 0.0
H1100 H 0.57313 0.59589 0.95912 0.0
H1101 H 0.49464 0.55092 0.76587 0.0
H1102 H 0.49329 0.5749 0.82775 0.0
H1103 H 0.54479 0.55385 0.89715 0.0
H1104 H 0.54653 0.5302 0.83469 0.0
H1105 H 0.54864 0.58956 0.88323 0.0
H1106 H 0.49805 0.54763 0.95434 0.0
H1107 H 0.46781 0.52806 0.95454 0.0
H1108 H 0.43452 0.5755 0.91682 0.0
H1109 H 0.46463 0.59533 0.91571 0.0
C1110 C 0.5336 0.63956 0.07842 0.0
C1111 C 0.52133 0.65457 0.07233 0.0
C1112 C 0.53282 0.62521 0.04516 0.0
C1113 C 0.51971 0.62558 0.00539 0.0
C1114 C 0.50712 0.64031 0.99989 0.0
C1115 C 0.50802 0.65477 0.03288 0.0
C1116 C 0.5195 0.61076 0.96883 0.0
C1117 C 0.50235 0.59978 0.96549 0.0
C1118 C 0.5364 0.60701 0.93893 0.0
C1119 C 0.5547 0.61862 0.93938 0.0
C1120 C 0.55444 0.63772 0.92829 0.0
C1121 C 0.57172 0.64859 0.92914 0.0
C1122 C 0.58938 0.6405 0.94067 0.0
C1123 C 0.58982 0.62151 0.95125 0.0
C1124 C 0.57257 0.61058 0.95052 0.0
C1125 C 0.50556 0.55131 0.79461 0.0
C1126 C 0.52071 0.5387 0.79533 0.0
C1127 C 0.50474 0.56498 0.83009 0.0
C1128 C 0.51886 0.56609 0.86738 0.0
C1129 C 0.53377 0.55329 0.86867 0.0
C1130 C 0.53471 0.53975 0.83299 0.0
C1131 C 0.51868 0.58107 0.90369 0.0
C1132 C 0.53578 0.59218 0.90691 0.0
C1133 C 0.50177 0.58482 0.93374 0.0
C1134 C 0.48363 0.57294 0.93444 0.0
C1135 C 0.48431 0.55387 0.94568 0.0
C1136 C 0.46718 0.54273 0.94603 0.0
C1137 C 0.44926 0.55053 0.93556 0.0
C1138 C 0.44842 0.56948 0.92485 0.0
C1139 C 0.46551 0.58068 0.9244 0.0
H1140 H 0.43602 0.54188 0.93586 0.0
H1141 H 0.60274 0.64893 0.94129 0.0
H1142 H 0.86332 0.38956 0.02927 0.0
H1143 H 0.89113 0.40027 0.97242 0.0
H1144 H 0.90986 0.43806 0.08372 0.0
H1145 H 0.88215 0.42748 0.14053 0.0
H1146 H 0.90532 0.45444 0.98655 0.0
H1147 H 0.93651 0.40254 0.06424 0.0
H1148 H 0.93936 0.36985 0.09129 0.0
H1149 H 0.93731 0.35478 0.93592 0.0
H1150 H 0.93416 0.38737 0.90798 0.0
H1151 H 0.98908 0.49048 0.85133 0.0
H1152 H 0.96843 0.47511 0.91953 0.0
H1153 H 0.95643 0.42999 0.82324 0.0
H1154 H 0.97807 0.44488 0.75599 0.0
H1155 H 0.9582 0.41693 0.9157 0.0
H1156 H 0.92479 0.46726 0.83703 0.0
H1157 H 0.92059 0.49948 0.80694 0.0
H1158 H 0.92454 0.51696 0.95971 0.0
H1159 H 0.92905 0.48486 0.99063 0.0
C1160 C 0.87353 0.39999 0.04176 0.0
C1161 C 0.87061 0.40768 0.08928 0.0
C1162 C 0.88942 0.40602 0.00945 0.0
C1163 C 0.90253 0.41991 0.02405 0.0
C1164 C 0.89992 0.42728 0.07193 0.0
C1165 C 0.88418 0.42114 0.10442 0.0
C1166 C 0.91807 0.42778 0.9879 0.0
C1167 C 0.91708 0.44634 0.97163 0.0
C1168 C 0.93296 0.41699 0.96736 0.0
C1169 C 0.9349 0.39739 0.98407 0.0
C1170 C 0.93649 0.39224 0.03587 0.0
C1171 C 0.9382 0.37373 0.05136 0.0
C1172 C 0.93847 0.36024 0.01537 0.0
C1173 C 0.93708 0.36524 0.96378 0.0
C1174 C 0.93535 0.38373 0.94809 0.0
C1175 C 0.98226 0.47715 0.8451 0.0
C1176 C 0.98497 0.46891 0.79837 0.0
C1177 C 0.97037 0.46842 0.88393 0.0
C1178 C 0.96038 0.45165 0.876 0.0
C1179 C 0.96388 0.44298 0.83017 0.0
C1180 C 0.97621 0.45149 0.79175 0.0
C1181 C 0.94552 0.44369 0.91426 0.0
C1182 C 0.94652 0.4251 0.93077 0.0
C1183 C 0.93038 0.45438 0.93451 0.0
C1184 C 0.92745 0.47368 0.91606 0.0
C1185 C 0.92488 0.47799 0.86416 0.0
C1186 C 0.92244 0.49623 0.84696 0.0
C1187 C 0.92235 0.51026 0.88138 0.0
C1188 C 0.92464 0.50607 0.9331 0.0
C1189 C 0.92713 0.48786 0.95048 0.0
H1190 H 0.92047 0.52437 0.868 0.0
H1191 H 0.9398 0.34592 0.02743 0.0
H1192 H 0.09895 0.1681 0.14161 0.0
H1193 H 0.09221 0.14198 0.09031 0.0
H1194 H 0.13629 0.16259 0.9782 0.0
H1195 H 0.14232 0.18966 0.02805 0.0
H1196 H 0.10549 0.14881 0.9328 0.0
H1197 H 0.14581 0.12711 0.06484 0.0
H1198 H 0.15627 0.12269 0.15303 0.0
H1199 H 0.1025 0.09225 0.19404 0.0
H1200 H 0.09159 0.09669 0.1062 0.0
H1201 H 0.1014 0.0619 0.81684 0.0
H1202 H 0.1156 0.08709 0.86415 0.0
H1203 H 0.0678 0.08016 0.97611 0.0
H1204 H 0.05351 0.05516 0.92879 0.0
H1205 H 0.10537 0.08636 0.0178 0.0
H1206 H 0.06423 0.11144 0.88692 0.0
H1207 H 0.05412 0.11609 0.79846 0.0
H1208 H 0.11103 0.14005 0.75489 0.0
H1209 H 0.12158 0.13527 0.84303 0.0
C1210 C 0.10693 0.16744 0.10548 0.0
C1211 C 0.12118 0.18112 0.08903 0.0
C1212 C 0.10328 0.15225 0.07655 0.0
C1213 C 0.11409 0.15006 0.03103 0.0
C1214 C 0.12792 0.1639 0.01352 0.0
C1215 C 0.13144 0.1793 0.04225 0.0
C1216 C 0.11087 0.13322 0.00226 0.0
C1217 C 0.10588 0.13515 0.95112 0.0
C1218 C 0.1112 0.11536 0.02624 0.0
C1219 C 0.11783 0.11234 0.07895 0.0
C1220 C 0.13617 0.11955 0.09271 0.0
C1221 C 0.14218 0.11703 0.14263 0.0
C1222 C 0.13004 0.10722 0.17913 0.0
C1223 C 0.11189 0.09984 0.16572 0.0
C1224 C 0.1058 0.10233 0.11584 0.0
C1225 C 0.09419 0.06554 0.85211 0.0
C1226 C 0.07636 0.05669 0.86922 0.0
C1227 C 0.10223 0.07995 0.87888 0.0
C1228 C 0.09264 0.08553 0.92335 0.0
C1229 C 0.07541 0.07603 0.94188 0.0
C1230 C 0.06724 0.06183 0.91481 0.0
C1231 C 0.09968 0.10205 0.94891 0.0
C1232 C 0.10536 0.10004 0.99939 0.0
C1233 C 0.10014 0.11979 0.92425 0.0
C1234 C 0.09377 0.12279 0.87139 0.0
C1235 C 0.07464 0.11755 0.85837 0.0
C1236 C 0.06882 0.12023 0.80832 0.0
C1237 C 0.08194 0.1283 0.77104 0.0
C1238 C 0.1009 0.13376 0.78378 0.0
C1239 C 0.1068 0.13107 0.83378 0.0
H1240 H 0.07741 0.13038 0.73231 0.0
H1241 H 0.13473 0.10532 0.21775 0.0
H1242 H 0.33596 0.99166 0.04376 0.0
H1243 H 0.36326 0.98933 0.9819 0.0
H1244 H 0.36352 0.04796 0.94928 0.0
H1245 H 0.33685 0.05064 0.01255 0.0
H1246 H 0.36979 0.02545 0.86027 0.0
H1247 H 0.39388 0.03473 0.02843 0.0
H1248 H 0.39553 0.02729 0.12047 0.0
H1249 H 0.41436 0.97304 0.0901 0.0
H1250 H 0.41251 0.98007 0.99783 0.0
H1251 H 0.46648 0.04051 0.75153 0.0
H1252 H 0.4359 0.0421 0.80253 0.0
H1253 H 0.44297 0.98664 0.86297 0.0
H1254 H 0.47369 0.9851 0.81319 0.0
H1255 H 0.43206 0.00713 0.93636 0.0
H1256 H 0.40949 0.99672 0.7705 0.0
H1257 H 0.40754 0.00249 0.6778 0.0
H1258 H 0.38532 0.05604 0.7013 0.0
H1259 H 0.38736 0.0507 0.79417 0.0
C1260 C 0.34173 0.0041 0.02343 0.0
C1261 C 0.33424 0.02138 0.03392 0.0
C1262 C 0.35725 0.00269 0.98773 0.0
C1263 C 0.36549 0.01849 0.9613 0.0
C1264 C 0.3573 0.03559 0.96912 0.0
C1265 C 0.34194 0.03705 0.00527 0.0
C1266 C 0.38378 0.01743 0.92935 0.0
C1267 C 0.38347 0.02163 0.87681 0.0
C1268 C 0.4015 0.01202 0.95086 0.0
C1269 C 0.40285 0.00786 0.00628 0.0
C1270 C 0.39822 0.02117 0.0414 0.0
C1271 C 0.39921 0.01703 0.0936 0.0
C1272 C 0.40499 0.99969 0.11113 0.0
C1273 C 0.40985 0.98646 0.07647 0.0
C1274 C 0.40884 0.99052 0.02422 0.0
C1275 C 0.46156 0.02867 0.77582 0.0
C1276 C 0.47256 0.01268 0.77823 0.0
C1277 C 0.44398 0.02955 0.8047 0.0
C1278 C 0.43693 0.01439 0.83613 0.0
C1279 C 0.44804 0.99851 0.83901 0.0
C1280 C 0.46564 0.99766 0.81043 0.0
C1281 C 0.41821 0.01512 0.86686 0.0
C1282 C 0.41842 0.0109 0.91942 0.0
C1283 C 0.40038 0.02023 0.8451 0.0
C1284 C 0.3988 0.02339 0.78931 0.0
C1285 C 0.40431 0.00978 0.75591 0.0
C1286 C 0.40318 0.01296 0.70333 0.0
C1287 C 0.39644 0.02966 0.6837 0.0
C1288 C 0.39062 0.04314 0.71659 0.0
C1289 C 0.39173 0.04003 0.76921 0.0
H1290 H 0.39571 0.03215 0.64299 0.0
H1291 H 0.40576 0.99651 0.15156 0.0
H1292 H 0.47963 0.32407 0.01557 0.0
H1293 H 0.48879 0.34869 0.95183 0.0
H1294 H 0.42868 0.36477 0.94884 0.0
H1295 H 0.41943 0.34086 0.01446 0.0
H1296 H 0.45392 0.36562 0.84637 0.0
H1297 H 0.45021 0.38762 0.01899 0.0
H1298 H 0.4579 0.38534 0.10977 0.0
H1299 H 0.51953 0.38855 0.06958 0.0
H1300 H 0.51218 0.39052 0.97846 0.0
H1301 H 0.4715 0.45859 0.74669 0.0
H1302 H 0.45862 0.43079 0.79498 0.0
H1303 H 0.51644 0.42093 0.84878 0.0
H1304 H 0.52926 0.44864 0.80181 0.0
H1305 H 0.4907 0.41645 0.92422 0.0
H1306 H 0.49667 0.39569 0.75525 0.0
H1307 H 0.49152 0.39604 0.66302 0.0
H1308 H 0.42935 0.38871 0.69217 0.0
H1309 H 0.4341 0.38854 0.78464 0.0
C1310 C 0.46827 0.33273 0.00124 0.0
C1311 C 0.44883 0.33061 0.02105 0.0
C1312 C 0.47353 0.34665 0.96435 0.0
C1313 C 0.4594 0.35853 0.94591 0.0
C1314 C 0.43974 0.35561 0.96242 0.0
C1315 C 0.4345 0.34186 0.99993 0.0
C1316 C 0.46564 0.37543 0.91518 0.0
C1317 C 0.46173 0.37689 0.86327 0.0
C1318 C 0.47623 0.38984 0.93724 0.0
C1319 C 0.48065 0.38902 0.99198 0.0
C1320 C 0.4654 0.38768 0.02952 0.0
C1321 C 0.46969 0.38647 0.08102 0.0
C1322 C 0.48919 0.38675 0.09543 0.0
C1323 C 0.50444 0.38831 0.05836 0.0
C1324 C 0.50022 0.38948 0.00679 0.0
C1325 C 0.48142 0.45052 0.76902 0.0
C1326 C 0.50139 0.45587 0.77046 0.0
C1327 C 0.47408 0.43457 0.79627 0.0
C1328 C 0.48661 0.42366 0.82512 0.0
C1329 C 0.50648 0.4291 0.82684 0.0
C1330 C 0.51379 0.44499 0.79987 0.0
C1331 C 0.47912 0.40681 0.85481 0.0
C1332 C 0.4828 0.40532 0.90689 0.0
C1333 C 0.46865 0.39229 0.83248 0.0
C1334 C 0.46572 0.39235 0.7769 0.0
C1335 C 0.48188 0.39432 0.74201 0.0
C1336 C 0.47904 0.39446 0.68969 0.0
C1337 C 0.46011 0.39252 0.67178 0.0
C1338 C 0.444 0.39029 0.70614 0.0
C1339 C 0.44676 0.39015 0.75851 0.0
H1340 H 0.45794 0.3927 0.63127 0.0
H1341 H 0.49249 0.3858 0.13533 0.0
H1342 H 0.19076 0.53451 0.01055 0.0
H1343 H 0.16483 0.5371 0.95033 0.0
H1344 H 0.18835 0.49249 0.86801 0.0
H1345 H 0.21533 0.49058 0.92624 0.0
H1346 H 0.17065 0.51661 0.80406 0.0
H1347 H 0.15438 0.48354 0.96312 0.0
H1348 H 0.15208 0.4792 0.05661 0.0
H1349 H 0.11417 0.52494 0.06522 0.0
H1350 H 0.1165 0.52974 0.97175 0.0
H1351 H 0.07956 0.4816 0.71418 0.0
H1352 H 0.11074 0.48506 0.75633 0.0
H1353 H 0.08909 0.5318 0.83297 0.0
H1354 H 0.05789 0.52843 0.79128 0.0
H1355 H 0.10624 0.50694 0.89736 0.0
H1356 H 0.12149 0.5384 0.73484 0.0
H1357 H 0.12261 0.54035 0.64103 0.0
H1358 H 0.16166 0.49536 0.63827 0.0
H1359 H 0.16053 0.49294 0.73215 0.0
C1360 C 0.19104 0.52571 0.97857 0.0
C1361 C 0.20504 0.51205 0.9741 0.0
C1362 C 0.17598 0.52709 0.94437 0.0
C1363 C 0.1743 0.5146 0.90568 0.0
C1364 C 0.18921 0.50212 0.89804 0.0
C1365 C 0.20451 0.50091 0.9318 0.0
C1366 C 0.15585 0.51304 0.8778 0.0
C1367 C 0.15658 0.51438 0.82438 0.0
C1368 C 0.13746 0.51015 0.90433 0.0
C1369 C 0.13577 0.50711 0.96049 0.0
C1370 C 0.14564 0.49274 0.98497 0.0
C1371 C 0.14433 0.4902 0.03795 0.0
C1372 C 0.13303 0.50181 0.06685 0.0
C1373 C 0.12295 0.51597 0.04279 0.0
C1374 C 0.12425 0.5186 0.98982 0.0
C1375 C 0.08143 0.49262 0.73999 0.0
C1376 C 0.06624 0.50474 0.74939 0.0
C1377 C 0.0993 0.49464 0.7638 0.0
C1378 C 0.10227 0.5088 0.79736 0.0
C1379 C 0.0871 0.52082 0.80707 0.0
C1380 C 0.06929 0.51888 0.78315 0.0
C1381 C 0.12097 0.51078 0.82371 0.0
C1382 C 0.12029 0.50936 0.87698 0.0
C1383 C 0.13933 0.51338 0.79694 0.0
C1384 C 0.14077 0.51536 0.74055 0.0
C1385 C 0.13027 0.52887 0.71425 0.0
C1386 C 0.13089 0.53006 0.66107 0.0
C1387 C 0.1421 0.51791 0.63376 0.0
C1388 C 0.15293 0.50471 0.65953 0.0
C1389 C 0.15232 0.50344 0.71273 0.0
H1390 H 0.14233 0.51868 0.59264 0.0
H1391 H 0.13204 0.49983 0.10787 0.0
H1392 H 0.96942 0.80603 0.36827 0.0
H1393 H 0.96529 0.83355 0.41558 0.0
H1394 H 0.91218 0.8447 0.33768 0.0
H1395 H 0.91625 0.8169 0.28971 0.0
H1396 H 0.93547 0.87445 0.33461 0.0
H1397 H 0.91043 0.83261 0.4665 0.0
H1398 H 0.90917 0.80459 0.52324 0.0
H1399 H 0.96349 0.8216 0.58686 0.0
H1400 H 0.96524 0.8496 0.53002 0.0
H1401 H 0.94458 0.93705 0.57139 0.0
H1402 H 0.92879 0.91151 0.52871 0.0
H1403 H 0.97702 0.91303 0.4177 0.0
H1404 H 0.99278 0.93845 0.46012 0.0
H1405 H 0.9446 0.87799 0.51988 0.0
H1406 H 0.96091 0.89954 0.30533 0.0
H1407 H 0.96064 0.92764 0.24916 0.0
H1408 H 0.91983 0.9515 0.35276 0.0
H1409 H 0.91961 0.92345 0.40918 0.0
C1410 C 0.9565 0.81397 0.36217 0.0
C1411 C 0.94309 0.80916 0.32537 0.0
C1412 C 0.95418 0.82978 0.38929 0.0
C1413 C 0.93828 0.84111 0.38072 0.0
C1414 C 0.92452 0.83613 0.34503 0.0
C1415 C 0.92688 0.82027 0.31763 0.0
C1416 C 0.93729 0.8589 0.40591 0.0
C1417 C 0.9372 0.87523 0.37522 0.0
C1418 C 0.93904 0.85995 0.4591 0.0
C1419 C 0.93797 0.84321 0.49384 0.0
C1420 C 0.92216 0.83034 0.49241 0.0
C1421 C 0.92135 0.81446 0.52462 0.0
C1422 C 0.93624 0.81131 0.55862 0.0
C1423 C 0.95195 0.82406 0.56055 0.0
C1424 C 0.95283 0.83997 0.52841 0.0
C1425 C 0.95152 0.93221 0.53713 0.0
C1426 C 0.9699 0.93965 0.51904 0.0
C1427 C 0.94256 0.91759 0.51299 0.0
C1428 C 0.95168 0.91044 0.46992 0.0
C1429 C 0.96959 0.91847 0.45049 0.0
C1430 C 0.97864 0.93291 0.47489 0.0
C1431 C 0.94381 0.8934 0.44817 0.0
C1432 C 0.94233 0.87722 0.47949 0.0
C1433 C 0.94038 0.89251 0.39572 0.0
C1434 C 0.94034 0.90939 0.36167 0.0
C1435 C 0.95178 0.91073 0.31601 0.0
C1436 C 0.95174 0.92667 0.28414 0.0
C1437 C 0.94026 0.94136 0.29743 0.0
C1438 C 0.92877 0.94013 0.34258 0.0
C1439 C 0.92875 0.92423 0.37457 0.0
H1440 H 0.94024 0.95369 0.27271 0.0
H1441 H 0.9356 0.799 0.58349 0.0
H1442 H 0.72496 4e-05 0.37161 0.0
H1443 H 0.69706 0.99461 0.43319 0.0
H1444 H 0.65741 0.01205 0.31832 0.0
H1445 H 0.685 0.01714 0.25666 0.0
H1446 H 0.65739 0.03108 0.41957 0.0
H1447 H 0.65359 0.97148 0.34284 0.0
H1448 H 0.66715 0.94202 0.31866 0.0
H1449 H 0.67788 0.92802 0.47515 0.0
H1450 H 0.66464 0.95755 0.50015 0.0
H1451 H 0.56275 0.01937 0.52525 0.0
H1452 H 0.59194 0.01829 0.46945 0.0
H1453 H 0.61774 0.98076 0.57757 0.0
H1454 H 0.58791 0.98108 0.63266 0.0
H1455 H 0.62751 0.97121 0.48687 0.0
H1456 H 0.63075 0.02813 0.56745 0.0
H1457 H 0.61913 0.05765 0.59708 0.0
H1458 H 0.61275 0.07735 0.44249 0.0
H1459 H 0.62406 0.04784 0.41193 0.0
C1460 C 0.71024 0.0024 0.35941 0.0
C1461 C 0.70713 0.00889 0.30926 0.0
C1462 C 0.69436 0.99929 0.3945 0.0
C1463 C 0.67522 0.00293 0.38016 0.0
C1464 C 0.67207 0.00909 0.32998 0.0
C1465 C 0.68783 0.01187 0.29475 0.0
C1466 C 0.65854 0.00161 0.41801 0.0
C1467 C 0.65071 0.01801 0.43403 0.0
C1468 C 0.65045 0.98456 0.43833 0.0
C1469 C 0.65837 0.96682 0.42327 0.0
C1470 C 0.65905 0.96222 0.37202 0.0
C1471 C 0.66662 0.94548 0.35818 0.0
C1472 C 0.67344 0.93318 0.39532 0.0
C1473 C 0.67264 0.93757 0.4464 0.0
C1474 C 0.66509 0.9543 0.46043 0.0
C1475 C 0.57459 0.01079 0.53707 0.0
C1476 C 0.57313 0.00046 0.58359 0.0
C1477 C 0.59135 0.01027 0.50523 0.0
C1478 C 0.60736 -0.00013 0.51984 0.0
C1479 C 0.60568 0.989 0.56555 0.0
C1480 C 0.58865 0.98921 0.59704 0.0
C1481 C 0.62587 0.00076 0.48764 0.0
C1482 C 0.63418 0.98433 0.47286 0.0
C1483 C 0.63476 0.01785 0.46927 0.0
C1484 C 0.62812 0.03571 0.48742 0.0
C1485 C 0.62676 0.03871 0.53978 0.0
C1486 C 0.62024 0.05545 0.55674 0.0
C1487 C 0.61517 0.06935 0.52169 0.0
C1488 C 0.61667 0.06656 0.46959 0.0
C1489 C 0.62316 0.04984 0.45242 0.0
H1490 H 0.61012 0.08229 0.5349 0.0
H1491 H 0.67929 0.92023 0.38454 0.0
H1492 H 0.58993 0.66064 0.28957 0.0
H1493 H 0.59706 0.63294 0.33935 0.0
H1494 H 0.57932 0.65871 0.47688 0.0
H1495 H 0.57394 0.68723 0.42792 0.0
H1496 H 0.60387 0.63257 0.49963 0.0
H1497 H 0.54527 0.63729 0.40247 0.0
H1498 H 0.52759 0.64278 0.32347 0.0
H1499 H 0.55604 0.59748 0.25696 0.0
H1500 H 0.57415 0.59194 0.33536 0.0
H1501 H 0.52706 0.55465 0.57315 0.0
H1502 H 0.53953 0.5814 0.52199 0.0
H1503 H 0.59894 0.56532 0.54519 0.0
H1504 H 0.58641 0.53842 0.5984 0.0
H1505 H 0.55892 0.58448 0.43635 0.0
H1506 H 0.62861 0.60574 0.53828 0.0
H1507 H 0.64244 0.60289 0.62346 0.0
H1508 H 0.58432 0.59916 0.69244 0.0
H1509 H 0.57018 0.60221 0.60777 0.0
C1510 C 0.58844 0.66092 0.33055 0.0
C1511 C 0.58061 0.67614 0.35436 0.0
C1512 C 0.59237 0.64486 0.35904 0.0
C1513 C 0.58791 0.64347 0.41157 0.0
C1514 C 0.58251 0.65931 0.43622 0.0
C1515 C 0.57911 0.67557 0.40793 0.0
C1516 C 0.58534 0.62513 0.43889 0.0
C1517 C 0.59427 0.62193 0.48553 0.0
C1518 C 0.57246 0.61136 0.42109 0.0
C1519 C 0.56121 0.61433 0.37448 0.0
C1520 C 0.54779 0.62855 0.37091 0.0
C1521 C 0.53772 0.63168 0.32625 0.0
C1522 C 0.54073 0.62051 0.28517 0.0
C1523 C 0.55376 0.60614 0.28877 0.0
C1524 C 0.56394 0.603 0.33329 0.0
C1525 C 0.54281 0.55669 0.56754 0.0
C1526 C 0.55575 0.54435 0.5899 0.0
C1527 C 0.54993 0.57203 0.53801 0.0
C1528 C 0.57017 0.57542 0.52961 0.0
C1529 C 0.58325 0.56308 0.55152 0.0
C1530 C 0.57608 0.5477 0.58173 0.0
C1531 C 0.5771 0.59198 0.49778 0.0
C1532 C 0.56897 0.59485 0.45002 0.0
C1533 C 0.59007 0.60566 0.5156 0.0
C1534 C 0.59837 0.60395 0.56669 0.0
C1535 C 0.61881 0.60433 0.57166 0.0
C1536 C 0.62669 0.60269 0.61984 0.0
C1537 C 0.61426 0.60076 0.66332 0.0
C1538 C 0.59393 0.60056 0.65873 0.0
C1539 C 0.58597 0.60223 0.61066 0.0
H1540 H 0.62039 0.59948 0.70057 0.0
H1541 H 0.53295 0.62298 0.25058 0.0
H1542 H 0.8383 0.42132 0.427 0.0
H1543 H 0.86026 0.43668 0.48341 0.0
H1544 H 0.84362 0.48961 0.42116 0.0
H1545 H 0.82183 0.47414 0.36338 0.0
H1546 H 0.88116 0.48921 0.42166 0.0
H1547 H 0.83173 0.47464 0.54842 0.0
H1548 H 0.80639 0.45596 0.59862 0.0
H1549 H 0.85007 0.41909 0.65015 0.0
H1550 H 0.87566 0.43737 0.59967 0.0
H1551 H 0.9504 0.52327 0.60304 0.0
H1552 H 0.91848 0.51799 0.56466 0.0
H1553 H 0.9292 0.45998 0.56116 0.0
H1554 H 0.96105 0.46512 0.59807 0.0
H1555 H 0.89022 0.46997 0.60225 0.0
H1556 H 0.93735 0.4826 0.45829 0.0
H1557 H 0.96212 0.50234 0.4091 0.0
H1558 H 0.92061 0.5451 0.39373 0.0
H1559 H 0.89568 0.52567 0.44351 0.0
C1560 C 0.83888 0.43624 0.42628 0.0
C1561 C 0.8283 0.44653 0.39089 0.0
C1562 C 0.85144 0.44504 0.4587 0.0
C1563 C 0.85345 0.46436 0.45716 0.0
C1564 C 0.84231 0.47471 0.42315 0.0
C1565 C 0.82987 0.46587 0.39022 0.0
C1566 C 0.86869 0.47341 0.4873 0.0
C1567 C 0.88277 0.48538 0.46156 0.0
C1568 C 0.87095 0.46845 0.53938 0.0
C1569 C 0.85563 0.45737 0.57002 0.0
C1570 C 0.83593 0.46248 0.57018 0.0
C1571 C 0.82152 0.45197 0.59874 0.0
C1572 C 0.82661 0.43634 0.62751 0.0
C1573 C 0.84615 0.43121 0.62786 0.0
C1574 C 0.86062 0.44167 0.59935 0.0
C1575 C 0.9459 0.50942 0.59399 0.0
C1576 C 0.95824 0.49463 0.6032 0.0
C1577 C 0.92772 0.50643 0.57225 0.0
C1578 C 0.92154 0.48859 0.56042 0.0
C1579 C 0.9337 0.47382 0.57034 0.0
C1580 C 0.95195 0.47682 0.59105 0.0
C1581 C 0.90275 0.48506 0.53594 0.0
C1582 C 0.88811 0.47416 0.56281 0.0
C1583 C 0.89981 0.49121 0.48524 0.0
C1584 C 0.91476 0.5028 0.45517 0.0
C1585 C 0.93358 0.49628 0.44485 0.0
C1586 C 0.94763 0.50739 0.41677 0.0
C1587 C 0.94297 0.52499 0.39846 0.0
C1588 C 0.92422 0.53149 0.40805 0.0
C1589 C 0.91012 0.52043 0.43618 0.0
H1590 H 0.95386 0.53357 0.37671 0.0
H1591 H 0.81543 0.42822 0.64959 0.0
loop_
_geom_bond_atom_site_label_1
_geom_bond_atom_site_label_2
_geom_bond_distance
_geom_bond_site_symmetry_2
_ccdc_geom_bond_type
P0 O11 1.490 . S
P0 C14 1.812 . S
P0 C20 1.803 . S
P0 C26 1.819 . S
H1 C15 0.941 . S
H2 C16 0.939 . S
H3 C18 0.940 . S
H4 C19 0.940 . S
H5 C21 0.939 . S
H6 C22 0.942 . S
H7 C24 0.940 . S
H8 C25 0.939 . S
H9 C27 0.941 . S
H10 C31 0.939 . S
O11 P0 1.490 . S
H12 C28 0.939 . S
H13 C30 0.940 1_556 S
C14 P0 1.812 . S
C14 C15 1.389 . S
C14 C19 1.391 . S
C15 H1 0.941 . S
C15 C14 1.389 . S
C15 C16 1.397 . S
C16 H2 0.939 . S
C16 C15 1.397 . S
C16 C17 1.378 . S
C17 C16 1.378 . S
C17 C18 1.378 . S
C18 H3 0.940 . S
C18 C17 1.378 . S
C18 C19 1.396 . S
C19 H4 0.940 . S
C19 C14 1.391 . S
C19 C18 1.396 . S
C20 P0 1.803 . S
C20 C21 1.378 . S
C20 C25 1.400 . S
C21 H5 0.939 . S
C21 C20 1.378 . S
C21 C22 1.361 . S
C22 H6 0.942 . S
C22 C21 1.361 . S
C22 C23 1.369 . S
C23 C22 1.369 . S
C23 C24 1.404 . S
C24 H7 0.940 . S
C24 C23 1.404 . S
C24 C25 1.389 . S
C25 H8 0.939 . S
C25 C20 1.400 . S
C25 C24 1.389 . S
C26 P0 1.819 . S
C26 C27 1.391 . S
C26 C31 1.391 . S
C27 H9 0.941 . S
C27 C26 1.391 . S
C27 C28 1.396 . S
C28 H12 0.939 . S
C28 C27 1.396 . S
C28 C29 1.397 . S
C29 C28 1.397 . S
C29 C30 1.385 . S
C30 H13 0.940 1_554 S
C30 C29 1.385 . S
C30 C31 1.388 . S
C31 H10 0.939 . S
C31 C26 1.391 . S
C31 C30 1.388 . S
P32 O43 1.490 . S
P32 C46 1.831 . S
P32 C52 1.798 1_554 S
P32 C58 1.804 1_554 S
H33 C47 0.941 . S
H34 C48 0.939 . S
H35 C50 0.940 . S
H36 C51 0.940 . S
H37 C53 0.939 . S
H38 C54 0.942 . S
H39 C56 0.940 1_554 S
H40 C57 0.939 . S
H41 C59 0.941 . S
H42 C63 0.939 . S
O43 P32 1.490 . S
H44 C60 0.939 . S
H45 C62 0.940 . S
C46 P32 1.831 . S
C46 C47 1.389 . S
C46 C51 1.391 . S
C47 H33 0.941 . S
C47 C46 1.389 . S
C47 C48 1.397 . S
C48 H34 0.939 . S
C48 C47 1.397 . S
C48 C49 1.378 . S
C49 C48 1.378 . S
C49 C50 1.378 . S
C50 H35 0.940 . S
C50 C49 1.378 . S
C50 C51 1.396 . S
C51 H36 0.940 . S
C51 C46 1.391 . S
C51 C50 1.396 . S
C52 P32 1.798 1_556 S
C52 C53 1.378 . S
C52 C57 1.400 1_556 S
C53 H37 0.939 . S
C53 C52 1.378 . S
C53 C54 1.361 . S
C54 H38 0.942 . S
C54 C53 1.361 . S
C54 C55 1.369 . S
C55 C54 1.369 . S
C55 C56 1.404 . S
C56 H39 0.940 1_556 S
C56 C55 1.404 . S
C56 C57 1.389 1_556 S
C57 H40 0.939 . S
C57 C52 1.400 1_554 S
C57 C56 1.389 1_554 S
C58 P32 1.804 1_556 S
C58 C59 1.391 . S
C58 C63 1.391 . S
C59 H41 0.941 . S
C59 C58 1.391 . S
C59 C60 1.396 . S
C60 H44 0.939 . S
C60 C59 1.396 . S
C60 C61 1.397 . S
C61 C60 1.397 . S
C61 C62 1.385 . S
C62 H45 0.940 . S
C62 C61 1.385 . S
C62 C63 1.388 . S
C63 H42 0.939 . S
C63 C58 1.391 . S
C63 C62 1.388 . S
P64 O75 1.490 . S
P64 C78 1.812 . S
P64 C84 1.803 . S
P64 C90 1.819 . S
H65 C79 0.941 . S
H66 C80 0.939 . S
H67 C82 0.940 . S
H68 C83 0.951 . S
H69 C85 0.939 . S
H70 C86 0.942 1_556 S
H71 C88 0.940 . S
H72 C89 0.958 . S
H73 C91 0.941 . S
H74 C95 0.928 1_565 S
O75 P64 1.490 . S
H76 C92 0.939 . S
H77 C94 0.940 . S
C78 P64 1.812 . S
C78 C79 1.389 . S
C78 C83 1.375 1_545 S
C79 H65 0.941 . S
C79 C78 1.389 . S
C79 C80 1.397 . S
C80 H66 0.939 . S
C80 C79 1.397 . S
C80 C81 1.378 . S
C81 C80 1.378 . S
C81 C82 1.378 1_545 S
C82 H67 0.940 . S
C82 C81 1.378 1_565 S
C82 C83 1.402 . S
C83 H68 0.951 . S
C83 C78 1.375 1_565 S
C83 C82 1.402 . S
C84 P64 1.803 . S
C84 C85 1.378 . S
C84 C89 1.368 1_545 S
C85 H69 0.939 . S
C85 C84 1.378 . S
C85 C86 1.361 . S
C86 H70 0.942 1_554 S
C86 C85 1.361 . S
C86 C87 1.369 . S
C87 C86 1.369 . S
C87 C88 1.404 1_545 S
C88 H71 0.940 . S
C88 C87 1.404 1_565 S
C88 C89 1.403 . S
C89 H72 0.958 . S
C89 C84 1.368 1_565 S
C89 C88 1.403 . S
C90 P64 1.819 . S
C90 C91 1.391 . S
C90 C95 1.391 1_554 S
C91 H73 0.941 . S
C91 C90 1.391 . S
C91 C92 1.396 1_554 S
C92 H76 0.939 . S
C92 C91 1.396 1_556 S
C92 C93 1.397 . S
C93 C92 1.397 . S
C93 C94 1.385 1_545 S
C94 H77 0.940 . S
C94 C93 1.385 1_565 S
C94 C95 1.388 1_565 S
C95 H74 0.928 1_545 S
C95 C90 1.391 1_556 S
C95 C94 1.388 1_545 S
P96 O107 1.490 . S
P96 C110 1.812 . S
P96 C116 1.803 . S
P96 C122 1.819 . S
H97 C111 0.941 . S
H98 C112 0.939 . S
H99 C114 0.940 . S
H100 C115 0.940 . S
H101 C117 0.939 . S
H102 C118 0.942 . S
H103 C120 0.940 . S
H104 C121 0.939 . S
H105 C123 0.941 . S
H106 C127 0.940 1_556 S
O107 P96 1.490 . S
H108 C124 0.939 . S
H109 C126 0.940 . S
C110 P96 1.812 . S
C110 C111 1.389 . S
C110 C115 1.391 . S
C111 H97 0.941 . S
C111 C110 1.389 . S
C111 C112 1.397 . S
C112 H98 0.939 . S
C112 C111 1.397 . S
C112 C113 1.378 . S
C113 C112 1.378 . S
C113 C114 1.378 . S
C114 H99 0.940 . S
C114 C113 1.378 . S
C114 C115 1.396 . S
C115 H100 0.940 . S
C115 C110 1.391 . S
C115 C114 1.396 . S
C116 P96 1.803 . S
C116 C117 1.378 . S
C116 C121 1.400 . S
C117 H101 0.939 . S
C117 C116 1.378 . S
C117 C118 1.361 . S
C118 H102 0.942 . S
C118 C117 1.361 . S
C118 C119 1.369 . S
C119 C118 1.369 . S
C119 C120 1.404 . S
C120 H103 0.940 . S
C120 C119 1.404 . S
C120 C121 1.389 . S
C121 H104 0.939 . S
C121 C116 1.400 . S
C121 C120 1.389 . S
C122 P96 1.819 . S
C122 C123 1.391 . S
C122 C127 1.403 . S
C123 H105 0.941 . S
C123 C122 1.391 . S
C123 C124 1.396 . S
C124 H108 0.939 . S
C124 C123 1.396 . S
C124 C125 1.397 1_554 S
C125 C124 1.397 1_556 S
C125 C126 1.385 . S
C126 H109 0.940 . S
C126 C125 1.385 . S
C126 C127 1.377 1_556 S
C127 H106 0.940 1_554 S
C127 C122 1.403 . S
C127 C126 1.377 1_554 S
P128 O139 1.490 . S
P128 C142 1.812 . S
P128 C148 1.803 . S
P128 C154 1.819 . S
H129 C143 0.941 . S
H130 C144 0.939 . S
H131 C146 0.940 . S
H132 C147 0.940 . S
H133 C149 0.939 . S
H134 C150 0.942 . S
H135 C152 0.940 . S
H136 C153 0.939 . S
H137 C155 0.941 . S
H138 C159 0.939 . S
O139 P128 1.490 . S
H140 C156 0.939 . S
H141 C158 0.940 . S
C142 P128 1.812 . S
C142 C143 1.389 . S
C142 C147 1.391 . S
C143 H129 0.941 . S
C143 C142 1.389 . S
C143 C144 1.397 . S
C144 H130 0.939 . S
C144 C143 1.397 . S
C144 C145 1.378 . S
C145 C144 1.378 . S
C145 C146 1.378 . S
C146 H131 0.940 . S
C146 C145 1.378 . S
C146 C147 1.396 . S
C147 H132 0.940 . S
C147 C142 1.391 . S
C147 C146 1.396 . S
C148 P128 1.803 . S
C148 C149 1.378 . S
C148 C153 1.400 . S
C149 H133 0.939 . S
C149 C148 1.378 . S
C149 C150 1.361 . S
C150 H134 0.942 . S
C150 C149 1.361 . S
C150 C151 1.369 . S
C151 C150 1.369 . S
C151 C152 1.404 . S
C152 H135 0.940 . S
C152 C151 1.404 . S
C152 C153 1.389 . S
C153 H136 0.939 . S
C153 C148 1.400 . S
C153 C152 1.389 . S
C154 P128 1.819 . S
C154 C155 1.391 . S
C154 C159 1.391 . S
C155 H137 0.941 . S
C155 C154 1.391 . S
C155 C156 1.396 . S
C156 H140 0.939 . S
C156 C155 1.396 . S
C156 C157 1.397 . S
C157 C156 1.397 . S
C157 C158 1.385 . S
C158 H141 0.940 . S
C158 C157 1.385 . S
C158 C159 1.388 . S
C159 H138 0.939 . S
C159 C154 1.391 . S
C159 C158 1.388 . S
P160 O171 1.490 . S
P160 C174 1.812 . S
P160 C180 1.803 . S
P160 C186 1.819 . S
H161 C175 0.941 . S
H162 C176 0.939 . S
H163 C178 0.940 . S
H164 C179 0.940 . S
H165 C181 0.939 . S
H166 C182 0.942 . S
H167 C184 0.940 . S
H168 C185 0.939 . S
H169 C187 0.941 . S
H170 C191 0.939 . S
O171 P160 1.490 . S
H172 C188 0.939 . S
H173 C190 0.940 . S
C174 P160 1.812 . S
C174 C175 1.389 . S
C174 C179 1.391 . S
C175 H161 0.941 . S
C175 C174 1.389 . S
C175 C176 1.397 . S
C176 H162 0.939 . S
C176 C175 1.397 . S
C176 C177 1.378 . S
C177 C176 1.378 . S
C177 C178 1.378 . S
C178 H163 0.940 . S
C178 C177 1.378 . S
C178 C179 1.396 . S
C179 H164 0.940 . S
C179 C174 1.391 . S
C179 C178 1.396 . S
C180 P160 1.803 . S
C180 C181 1.378 . S
C180 C185 1.400 . S
C181 H165 0.939 . S
C181 C180 1.378 . S
C181 C182 1.361 . S
C182 H166 0.942 . S
C182 C181 1.361 . S
C182 C183 1.369 . S
C183 C182 1.369 . S
C183 C184 1.404 . S
C184 H167 0.940 . S
C184 C183 1.404 . S
C184 C185 1.389 . S
C185 H168 0.939 . S
C185 C180 1.400 . S
C185 C184 1.389 . S
C186 P160 1.819 . S
C186 C187 1.391 . S
C186 C191 1.391 . S
C187 H169 0.941 . S
C187 C186 1.391 . S
C187 C188 1.396 . S
C188 H172 0.939 . S
C188 C187 1.396 . S
C188 C189 1.397 . S
C189 C188 1.397 . S
C189 C190 1.385 . S
C190 H173 0.940 . S
C190 C189 1.385 . S
C190 C191 1.388 . S
C191 H170 0.939 . S
C191 C186 1.391 . S
C191 C190 1.388 . S
P192 O203 1.490 . S
P192 C206 1.812 . S
P192 C212 1.803 . S
P192 C218 1.819 . S
H193 C207 0.941 . S
H194 C208 0.939 . S
H195 C210 0.940 . S
H196 C211 0.942 . S
H197 C213 0.939 . S
H198 C214 0.942 . S
H199 C216 0.940 . S
H200 C217 0.952 . S
H201 C219 0.941 . S
H202 C223 0.934 1_565 S
O203 P192 1.490 . S
H204 C220 0.939 . S
H205 C222 0.940 . S
C206 P192 1.812 . S
C206 C207 1.389 . S
C206 C211 1.388 1_545 S
C207 H193 0.941 . S
C207 C206 1.389 . S
C207 C208 1.397 . S
C208 H194 0.939 . S
C208 C207 1.397 . S
C208 C209 1.378 . S
C209 C208 1.378 . S
C209 C210 1.378 1_545 S
C210 H195 0.940 . S
C210 C209 1.378 1_565 S
C210 C211 1.398 . S
C211 H196 0.942 . S
C211 C206 1.388 1_565 S
C211 C210 1.398 . S
C212 P192 1.803 . S
C212 C213 1.378 . S
C212 C217 1.382 1_545 S
C213 H197 0.939 . S
C213 C212 1.378 . S
C213 C214 1.361 . S
C214 H198 0.942 . S
C214 C213 1.361 . S
C214 C215 1.369 . S
C215 C214 1.369 . S
C215 C216 1.404 1_545 S
C216 H199 0.940 . S
C216 C215 1.404 1_565 S
C216 C217 1.395 . S
C217 H200 0.952 . S
C217 C212 1.382 1_565 S
C217 C216 1.395 . S
C218 P192 1.819 . S
C218 C219 1.391 . S
C218 C223 1.391 . S
C219 H201 0.941 . S
C219 C218 1.391 . S
C219 C220 1.396 . S
C220 H204 0.939 . S
C220 C219 1.396 . S
C220 C221 1.397 . S
C221 C220 1.397 . S
C221 C222 1.385 1_545 S
C222 H205 0.940 . S
C222 C221 1.385 1_565 S
C222 C223 1.388 1_565 S
C223 H202 0.934 1_545 S
C223 C218 1.391 . S
C223 C222 1.388 1_545 S
P224 O235 1.490 . S
P224 C238 1.812 . S
P224 C244 1.803 . S
P224 C250 1.819 . S
H225 C239 0.941 . S
H226 C240 0.939 . S
H227 C242 0.940 . S
H228 C243 0.940 . S
H229 C245 0.939 . S
H230 C246 0.942 . S
H231 C248 0.940 . S
H232 C249 0.939 . S
H233 C251 0.941 . S
H234 C255 0.939 . S
O235 P224 1.490 . S
H236 C252 0.939 . S
H237 C254 0.940 . S
C238 P224 1.812 . S
C238 C239 1.389 . S
C238 C243 1.391 . S
C239 H225 0.941 . S
C239 C238 1.389 . S
C239 C240 1.397 . S
C240 H226 0.939 . S
C240 C239 1.397 . S
C240 C241 1.378 . S
C241 C240 1.378 . S
C241 C242 1.378 . S
C242 H227 0.940 . S
C242 C241 1.378 . S
C242 C243 1.396 . S
C243 H228 0.940 . S
C243 C238 1.391 . S
C243 C242 1.396 . S
C244 P224 1.803 . S
C244 C245 1.378 . S
C244 C249 1.400 . S
C245 H229 0.939 . S
C245 C244 1.378 . S
C245 C246 1.361 . S
C246 H230 0.942 . S
C246 C245 1.361 . S
C246 C247 1.369 . S
C247 C246 1.369 . S
C247 C248 1.404 . S
C248 H231 0.940 . S
C248 C247 1.404 . S
C248 C249 1.389 . S
C249 H232 0.939 . S
C249 C244 1.400 . S
C249 C248 1.389 . S
C250 P224 1.819 . S
C250 C251 1.391 . S
C250 C255 1.391 . S
C251 H233 0.941 . S
C251 C250 1.391 . S
C251 C252 1.396 . S
C252 H236 0.939 . S
C252 C251 1.396 . S
C252 C253 1.397 . S
C253 C252 1.397 . S
C253 C254 1.385 . S
C254 H237 0.940 . S
C254 C253 1.385 . S
C254 C255 1.388 . S
C255 H234 0.939 . S
C255 C250 1.391 . S
C255 C254 1.388 . S
C256 O272 1.251 . S
C256 O274 1.254 . S
N257 C258 1.333 . S
N257 C262 1.307 1_455 S
N257 Zn263 2.020 . S
C258 N257 1.333 . S
C258 C259 1.379 . S
C258 H276 0.952 . S
C259 C258 1.379 . S
C259 C260 1.390 1_455 S
C259 H286 0.949 . S
C260 C259 1.390 1_655 S
C260 C261 1.357 . S
C261 C260 1.357 . S
C261 C262 1.370 . S
C261 H287 0.950 . S
C262 N257 1.307 1_655 S
C262 C261 1.370 . S
C262 H280 0.948 . S
Zn263 N257 2.020 . S
Zn263 O272 2.039 . S
Zn263 O278 2.034 . S
Zn263 O282 2.025 1_565 S
Zn263 O284 2.024 1_455 S
C264 O283 1.246 . S
C264 O284 1.249 1_545 S
N265 C266 1.307 . S
N265 C267 1.333 . S
N265 Zn271 2.020 . S
C266 N265 1.307 . S
C266 C270 1.370 . S
C266 H277 0.948 . S
C267 N265 1.333 . S
C267 C268 1.379 . S
C267 H275 0.952 . S
C268 C267 1.379 . S
C268 C269 1.390 . S
C268 H288 0.949 . S
C269 C268 1.390 . S
C269 C270 1.357 . S
C270 C266 1.370 . S
C270 C269 1.357 . S
C270 H289 0.950 . S
Zn271 N265 2.020 . S
Zn271 O274 2.025 1_545 S
Zn271 O279 2.024 . S
Zn271 O281 2.039 . S
Zn271 O283 2.034 1_455 S
O272 C256 1.251 . S
O272 Zn263 2.039 . S
C273 O278 1.246 . S
C273 O279 1.249 1_565 S
O274 C256 1.254 . S
O274 Zn271 2.025 1_565 S
H275 C267 0.952 . S
H276 C258 0.952 . S
H277 C266 0.948 . S
O278 Zn263 2.034 . S
O278 C273 1.246 . S
O279 Zn271 2.024 . S
O279 C273 1.249 1_545 S
H280 C262 0.948 . S
O281 Zn271 2.039 . S
O281 C285 1.251 . S
O282 Zn263 2.025 1_545 S
O282 C285 1.254 . S
O283 C264 1.246 . S
O283 Zn271 2.034 1_655 S
O284 Zn263 2.024 1_655 S
O284 C264 1.249 1_565 S
C285 O281 1.251 . S
C285 O282 1.254 . S
H286 C259 0.949 . S
H287 C261 0.950 . S
H288 C268 0.949 . S
H289 C270 0.950 . S
C290 O306 1.251 1_565 S
C290 O308 1.254 . S
N291 C292 1.333 . S
N291 C296 1.307 . S
N291 Zn297 2.020 . S
C292 N291 1.333 . S
C292 C293 1.379 . S
C292 H310 0.952 . S
C293 C292 1.379 . S
C293 C294 1.390 . S
C293 H320 0.949 . S
C294 C293 1.390 . S
C294 C295 1.357 . S
C295 C294 1.357 . S
C295 C296 1.370 . S
C295 H321 0.950 . S
C296 N291 1.307 . S
C296 C295 1.370 . S
C296 H314 0.948 . S
Zn297 N291 2.020 . S
Zn297 O306 2.039 . S
Zn297 O312 2.034 . S
Zn297 O316 2.025 . S
Zn297 O318 2.024 . S
C298 O317 1.246 1_545 S
C298 O318 1.249 . S
N299 C300 1.307 . S
N299 C301 1.333 . S
N299 Zn305 2.020 . S
C300 N299 1.307 . S
C300 C304 1.370 . S
C300 H311 0.948 . S
C301 N299 1.333 . S
C301 C302 1.379 . S
C301 H309 0.952 . S
C302 C301 1.379 . S
C302 C303 1.390 . S
C302 H322 0.949 . S
C303 C302 1.390 . S
C303 C304 1.357 . S
C304 C300 1.370 . S
C304 C303 1.357 . S
C304 H323 0.950 . S
Zn305 N299 2.020 . S
Zn305 O308 2.025 . S
Zn305 O313 2.024 . S
Zn305 O315 2.039 . S
Zn305 O317 2.034 . S
O306 C290 1.251 1_545 S
O306 Zn297 2.039 . S
C307 O312 1.246 1_565 S
C307 O313 1.249 . S
O308 C290 1.254 . S
O308 Zn305 2.025 . S
H309 C301 0.952 . S
H310 C292 0.952 . S
H311 C300 0.948 . S
O312 Zn297 2.034 . S
O312 C307 1.246 1_545 S
O313 Zn305 2.024 . S
O313 C307 1.249 . S
H314 C296 0.948 . S
O315 Zn305 2.039 . S
O315 C319 1.251 1_565 S
O316 Zn297 2.025 . S
O316 C319 1.254 . S
O317 C298 1.246 1_565 S
O317 Zn305 2.034 . S
O318 Zn297 2.024 . S
O318 C298 1.249 . S
C319 O315 1.251 1_545 S
C319 O316 1.254 . S
H320 C293 0.949 . S
H321 C295 0.950 . S
H322 C302 0.949 . S
H323 C304 0.950 . S
C324 O340 1.251 . S
C324 O342 1.254 . S
N325 C326 1.333 . S
N325 C330 1.307 . S
N325 Zn331 2.020 . S
C326 N325 1.333 . S
C326 C327 1.379 . S
C326 H344 0.952 . S
C327 C326 1.379 . S
C327 C328 1.390 . S
C327 H354 0.949 . S
C328 C327 1.390 . S
C328 C329 1.357 . S
C329 C328 1.357 . S
C329 C330 1.370 . S
C329 H355 0.950 . S
C330 N325 1.307 . S
C330 C329 1.370 . S
C330 H348 0.948 . S
Zn331 N325 2.020 . S
Zn331 O340 2.039 . S
Zn331 O346 2.034 . S
Zn331 O350 2.025 . S
Zn331 O352 2.024 . S
C332 O351 1.246 . S
C332 O352 1.249 . S
N333 C334 1.307 . S
N333 C335 1.333 . S
N333 Zn339 2.020 . S
C334 N333 1.307 . S
C334 C338 1.370 . S
C334 H345 0.948 . S
C335 N333 1.333 . S
C335 C336 1.379 . S
C335 H343 0.952 . S
C336 C335 1.379 . S
C336 C337 1.390 . S
C336 H356 0.949 . S
C337 C336 1.390 . S
C337 C338 1.357 . S
C338 C334 1.370 . S
C338 C337 1.357 . S
C338 H357 0.950 . S
Zn339 N333 2.020 . S
Zn339 O342 2.025 . S
Zn339 O347 2.024 . S
Zn339 O349 2.039 . S
Zn339 O351 2.034 . S
O340 C324 1.251 . S
O340 Zn331 2.039 . S
C341 O346 1.246 . S
C341 O347 1.249 . S
O342 C324 1.254 . S
O342 Zn339 2.025 . S
H343 C335 0.952 . S
H344 C326 0.952 . S
H345 C334 0.948 . S
O346 Zn331 2.034 . S
O346 C341 1.246 . S
O347 Zn339 2.024 . S
O347 C341 1.249 . S
H348 C330 0.948 . S
O349 Zn339 2.039 . S
O349 C353 1.251 . S
O350 Zn331 2.025 . S
O350 C353 1.254 . S
O351 C332 1.246 . S
O351 Zn339 2.034 . S
O352 Zn331 2.024 . S
O352 C332 1.249 . S
C353 O349 1.251 . S
C353 O350 1.254 . S
H354 C327 0.949 . S
H355 C329 0.950 . S
H356 C336 0.949 . S
H357 C338 0.950 . S
C358 O374 1.251 . S
C358 O376 1.254 . S
N359 C360 1.333 . S
N359 C364 1.307 . S
N359 Zn365 2.020 . S
C360 N359 1.333 . S
C360 C361 1.379 . S
C360 H378 0.952 . S
C361 C360 1.379 . S
C361 C362 1.390 . S
C361 H388 0.949 . S
C362 C361 1.390 . S
C362 C363 1.357 . S
C363 C362 1.357 . S
C363 C364 1.370 . S
C363 H389 0.950 . S
C364 N359 1.307 . S
C364 C363 1.370 . S
C364 H382 0.948 . S
Zn365 N359 2.020 . S
Zn365 O374 2.039 . S
Zn365 O380 2.034 . S
Zn365 O384 2.025 . S
Zn365 O386 2.024 . S
C366 O385 1.246 . S
C366 O386 1.249 . S
N367 C368 1.307 . S
N367 C369 1.351 . S
N367 Zn373 2.020 . S
C368 N367 1.307 . S
C368 C372 1.370 . S
C368 H379 0.948 . S
C369 N367 1.351 . S
C369 C370 1.369 1_455 S
C369 H377 0.945 1_455 S
C370 C369 1.369 1_655 S
C370 C371 1.395 . S
C370 H390 0.949 . S
C371 C370 1.395 . S
C371 C372 1.345 1_655 S
C372 C368 1.370 . S
C372 C371 1.345 1_455 S
C372 H391 0.950 . S
Zn373 N367 2.020 . S
Zn373 O376 2.025 . S
Zn373 O381 2.024 1_455 S
Zn373 O383 2.039 1_455 S
Zn373 O385 2.034 . S
O374 C358 1.251 . S
O374 Zn365 2.039 . S
C375 O380 1.246 1_655 S
C375 O381 1.249 . S
O376 C358 1.254 . S
O376 Zn373 2.025 . S
H377 C369 0.945 1_655 S
H378 C360 0.952 . S
H379 C368 0.948 . S
O380 Zn365 2.034 . S
O380 C375 1.246 1_455 S
O381 Zn373 2.024 1_655 S
O381 C375 1.249 . S
H382 C364 0.948 . S
O383 Zn373 2.039 1_655 S
O383 C387 1.251 . S
O384 Zn365 2.025 . S
O384 C387 1.254 1_455 S
O385 C366 1.246 . S
O385 Zn373 2.034 . S
O386 Zn365 2.024 . S
O386 C366 1.249 . S
C387 O383 1.251 . S
C387 O384 1.254 1_655 S
H388 C361 0.949 . S
H389 C363 0.950 . S
H390 C370 0.949 . S
H391 C372 0.950 . S
H392 C410 0.951 . S
H393 C412 0.951 . S
H394 C414 0.950 . S
H395 C415 0.950 . S
H396 C417 0.950 . S
H397 C420 0.950 . S
H398 C421 0.950 . S
H399 C423 0.950 . S
H400 C424 0.950 . S
H401 C425 0.951 . S
H402 C427 0.951 . S
H403 C429 0.950 . S
H404 C430 0.950 . S
H405 C432 0.950 . S
H406 C435 0.950 . S
H407 C436 0.950 . S
H408 C438 0.950 . S
H409 C439 0.950 . S
C410 H392 0.951 . S
C410 C411 1.377 . S
C410 C412 1.388 . S
C411 C410 1.377 . S
C411 C415 1.374 1_565 S
C412 H393 0.951 . S
C412 C410 1.388 . S
C412 C413 1.366 . S
C413 C412 1.366 . S
C413 C414 1.414 1_565 S
C413 C416 1.499 . S
C414 H394 0.950 . S
C414 C413 1.414 1_545 S
C414 C415 1.374 . S
C415 H395 0.950 . S
C415 C411 1.374 1_545 S
C415 C414 1.374 . S
C416 C413 1.499 . S
C416 C417 1.373 1_565 S
C416 C418 1.389 . S
C417 H396 0.950 . S
C417 C416 1.373 1_545 S
C417 C433 1.377 . S
C418 C416 1.389 . S
C418 C419 1.524 . S
C418 C432 1.377 . S
C419 C418 1.524 . S
C419 C420 1.397 . S
C419 C424 1.363 . S
C420 H397 0.950 . S
C420 C419 1.397 . S
C420 C421 1.334 . S
C421 H398 0.950 . S
C421 C420 1.334 . S
C421 C422 1.287 . S
C422 C421 1.287 . S
C422 C423 1.524 . S
C422 H441 0.913 . S
C423 H399 0.950 . S
C423 C422 1.524 . S
C423 C424 1.415 . S
C424 H400 0.950 . S
C424 C419 1.363 . S
C424 C423 1.415 . S
C425 H401 0.951 . S
C425 C426 1.366 1_545 S
C425 C427 1.388 . S
C426 C425 1.366 1_565 S
C426 C430 1.385 . S
C427 H402 0.951 . S
C427 C425 1.388 . S
C427 C428 1.366 1_545 S
C428 C427 1.366 1_565 S
C428 C429 1.414 . S
C428 C431 1.499 . S
C429 H403 0.950 . S
C429 C428 1.414 . S
C429 C430 1.374 . S
C430 H404 0.950 . S
C430 C426 1.385 . S
C430 C429 1.374 . S
C431 C428 1.499 . S
C431 C432 1.373 . S
C431 C433 1.389 1_565 S
C432 H405 0.950 . S
C432 C418 1.377 . S
C432 C431 1.373 . S
C433 C417 1.377 . S
C433 C431 1.389 1_545 S
C433 C434 1.524 . S
C434 C433 1.524 . S
C434 C435 1.397 . S
C434 C439 1.363 . S
C435 H406 0.950 . S
C435 C434 1.397 . S
C435 C436 1.334 . S
C436 H407 0.950 . S
C436 C435 1.334 . S
C436 C437 1.287 . S
C437 C436 1.287 . S
C437 C438 1.524 . S
C437 H440 0.999 . S
C438 H408 0.950 . S
C438 C437 1.524 . S
C438 C439 1.415 . S
C439 H409 0.950 . S
C439 C434 1.363 . S
C439 C438 1.415 . S
H440 C437 0.999 . S
H441 C422 0.913 . S
H442 C460 0.951 . S
H443 C462 0.951 . S
H444 C464 0.950 . S
H445 C465 0.950 . S
H446 C467 0.950 . S
H447 C470 0.950 . S
H448 C471 0.950 . S
H449 C473 0.950 . S
H450 C474 0.950 . S
H451 C475 0.951 . S
H452 C477 0.951 . S
H453 C479 0.950 . S
H454 C480 0.950 . S
H455 C482 0.950 . S
H456 C485 0.950 . S
H457 C486 0.950 . S
H458 C488 0.950 . S
H459 C489 0.950 . S
C460 H442 0.951 . S
C460 C461 1.366 . S
C460 C462 1.388 . S
C461 C460 1.366 . S
C461 C465 1.385 . S
C462 H443 0.951 . S
C462 C460 1.388 . S
C462 C463 1.366 . S
C463 C462 1.366 . S
C463 C464 1.414 . S
C463 C466 1.499 . S
C464 H444 0.950 . S
C464 C463 1.414 . S
C464 C465 1.374 . S
C465 H445 0.950 . S
C465 C461 1.385 . S
C465 C464 1.374 . S
C466 C463 1.499 . S
C466 C467 1.373 . S
C466 C468 1.389 . S
C467 H446 0.950 . S
C467 C466 1.373 . S
C467 C483 1.377 . S
C468 C466 1.389 . S
C468 C469 1.524 . S
C468 C482 1.377 . S
C469 C468 1.524 . S
C469 C470 1.397 . S
C469 C474 1.363 . S
C470 H447 0.950 . S
C470 C469 1.397 . S
C470 C471 1.334 . S
C471 H448 0.950 . S
C471 C470 1.334 . S
C471 C472 1.287 . S
C472 C471 1.287 . S
C472 C473 1.524 . S
C472 H491 0.913 . S
C473 H449 0.950 . S
C473 C472 1.524 . S
C473 C474 1.415 . S
C474 H450 0.950 . S
C474 C469 1.363 . S
C474 C473 1.415 . S
C475 H451 0.951 . S
C475 C476 1.366 . S
C475 C477 1.388 . S
C476 C475 1.366 . S
C476 C480 1.385 . S
C477 H452 0.951 . S
C477 C475 1.388 . S
C477 C478 1.366 . S
C478 C477 1.366 . S
C478 C479 1.414 . S
C478 C481 1.499 . S
C479 H453 0.950 . S
C479 C478 1.414 . S
C479 C480 1.374 . S
C480 H454 0.950 . S
C480 C476 1.385 . S
C480 C479 1.374 . S
C481 C478 1.499 . S
C481 C482 1.373 . S
C481 C483 1.389 . S
C482 H455 0.950 . S
C482 C468 1.377 . S
C482 C481 1.373 . S
C483 C467 1.377 . S
C483 C481 1.389 . S
C483 C484 1.524 . S
C484 C483 1.524 . S
C484 C485 1.397 . S
C484 C489 1.363 . S
C485 H456 0.950 . S
C485 C484 1.397 . S
C485 C486 1.334 . S
C486 H457 0.950 . S
C486 C485 1.334 . S
C486 C487 1.287 . S
C487 C486 1.287 . S
C487 C488 1.524 . S
C487 H490 0.999 . S
C488 H458 0.950 . S
C488 C487 1.524 . S
C488 C489 1.415 . S
C489 H459 0.950 . S
C489 C484 1.363 . S
C489 C488 1.415 . S
H490 C487 0.999 . S
H491 C472 0.913 . S
H492 C510 0.951 . S
H493 C512 0.951 . S
H494 C514 0.950 . S
H495 C515 0.950 . S
H496 C517 0.950 . S
H497 C520 0.950 . S
H498 C521 0.950 . S
H499 C523 0.950 . S
H500 C524 0.950 . S
H501 C525 0.951 . S
H502 C527 0.951 . S
H503 C529 0.950 . S
H504 C530 0.950 . S
H505 C532 0.950 . S
H506 C535 0.950 . S
H507 C536 0.950 . S
H508 C538 0.950 . S
H509 C539 0.950 . S
C510 H492 0.951 . S
C510 C511 1.366 . S
C510 C512 1.388 . S
C511 C510 1.366 . S
C511 C515 1.385 . S
C512 H493 0.951 . S
C512 C510 1.388 . S
C512 C513 1.366 . S
C513 C512 1.366 . S
C513 C514 1.414 . S
C513 C516 1.499 . S
C514 H494 0.950 . S
C514 C513 1.414 . S
C514 C515 1.374 . S
C515 H495 0.950 . S
C515 C511 1.385 . S
C515 C514 1.374 . S
C516 C513 1.499 . S
C516 C517 1.373 . S
C516 C518 1.389 . S
C517 H496 0.950 . S
C517 C516 1.373 . S
C517 C533 1.377 . S
C518 C516 1.389 . S
C518 C519 1.524 . S
C518 C532 1.377 . S
C519 C518 1.524 . S
C519 C520 1.397 . S
C519 C524 1.363 . S
C520 H497 0.950 . S
C520 C519 1.397 . S
C520 C521 1.334 . S
C521 H498 0.950 . S
C521 C520 1.334 . S
C521 C522 1.287 . S
C522 C521 1.287 . S
C522 C523 1.524 . S
C522 H541 0.913 . S
C523 H499 0.950 . S
C523 C522 1.524 . S
C523 C524 1.415 . S
C524 H500 0.950 . S
C524 C519 1.363 . S
C524 C523 1.415 . S
C525 H501 0.951 . S
C525 C526 1.366 . S
C525 C527 1.388 . S
C526 C525 1.366 . S
C526 C530 1.385 . S
C527 H502 0.951 . S
C527 C525 1.388 . S
C527 C528 1.366 . S
C528 C527 1.366 . S
C528 C529 1.414 . S
C528 C531 1.499 . S
C529 H503 0.950 . S
C529 C528 1.414 . S
C529 C530 1.374 . S
C530 H504 0.950 . S
C530 C526 1.385 . S
C530 C529 1.374 . S
C531 C528 1.499 . S
C531 C532 1.373 . S
C531 C533 1.389 . S
C532 H505 0.950 . S
C532 C518 1.377 . S
C532 C531 1.373 . S
C533 C517 1.377 . S
C533 C531 1.389 . S
C533 C534 1.524 . S
C534 C533 1.524 . S
C534 C535 1.397 . S
C534 C539 1.363 . S
C535 H506 0.950 . S
C535 C534 1.397 . S
C535 C536 1.334 . S
C536 H507 0.950 . S
C536 C535 1.334 . S
C536 C537 1.287 . S
C537 C536 1.287 . S
C537 C538 1.524 . S
C537 H540 0.999 . S
C538 H508 0.950 . S
C538 C537 1.524 . S
C538 C539 1.415 . S
C539 H509 0.950 . S
C539 C534 1.363 . S
C539 C538 1.415 . S
H540 C537 0.999 . S
H541 C522 0.913 . S
H542 C560 0.951 . S
H543 C562 0.951 . S
H544 C564 0.950 . S
H545 C565 0.950 . S
H546 C567 0.950 . S
H547 C570 0.950 . S
H548 C571 0.950 . S
H549 C573 0.950 . S
H550 C574 0.950 . S
H551 C575 0.951 . S
H552 C577 0.951 . S
H553 C579 0.950 . S
H554 C580 0.950 . S
H555 C582 0.950 . S
H556 C585 0.950 . S
H557 C586 0.950 . S
H558 C588 0.950 . S
H559 C589 0.950 . S
C560 H542 0.951 . S
C560 C561 1.366 . S
C560 C562 1.388 . S
C561 C560 1.366 . S
C561 C565 1.385 . S
C562 H543 0.951 . S
C562 C560 1.388 . S
C562 C563 1.366 . S
C563 C562 1.366 . S
C563 C564 1.414 . S
C563 C566 1.499 . S
C564 H544 0.950 . S
C564 C563 1.414 . S
C564 C565 1.374 . S
C565 H545 0.950 . S
C565 C561 1.385 . S
C565 C564 1.374 . S
C566 C563 1.499 . S
C566 C567 1.373 . S
C566 C568 1.389 . S
C567 H546 0.950 . S
C567 C566 1.373 . S
C567 C583 1.377 . S
C568 C566 1.389 . S
C568 C569 1.524 . S
C568 C582 1.377 . S
C569 C568 1.524 . S
C569 C570 1.397 . S
C569 C574 1.363 . S
C570 H547 0.950 . S
C570 C569 1.397 . S
C570 C571 1.334 . S
C571 H548 0.950 . S
C571 C570 1.334 . S
C571 C572 1.287 . S
C572 C571 1.287 . S
C572 C573 1.524 . S
C572 H591 0.913 . S
C573 H549 0.950 . S
C573 C572 1.524 . S
C573 C574 1.415 . S
C574 H550 0.950 . S
C574 C569 1.363 . S
C574 C573 1.415 . S
C575 H551 0.951 . S
C575 C576 1.366 . S
C575 C577 1.388 . S
C576 C575 1.366 . S
C576 C580 1.385 . S
C577 H552 0.951 . S
C577 C575 1.388 . S
C577 C578 1.366 . S
C578 C577 1.366 . S
C578 C579 1.414 . S
C578 C581 1.499 . S
C579 H553 0.950 . S
C579 C578 1.414 . S
C579 C580 1.374 . S
C580 H554 0.950 . S
C580 C576 1.385 . S
C580 C579 1.374 . S
C581 C578 1.499 . S
C581 C582 1.373 . S
C581 C583 1.389 . S
C582 H555 0.950 . S
C582 C568 1.377 . S
C582 C581 1.373 . S
C583 C567 1.377 . S
C583 C581 1.389 . S
C583 C584 1.524 . S
C584 C583 1.524 . S
C584 C585 1.397 . S
C584 C589 1.363 . S
C585 H556 0.950 . S
C585 C584 1.397 . S
C585 C586 1.334 . S
C586 H557 0.950 . S
C586 C585 1.334 . S
C586 C587 1.287 . S
C587 C586 1.287 . S
C587 C588 1.524 . S
C587 H590 0.999 . S
C588 H558 0.950 . S
C588 C587 1.524 . S
C588 C589 1.415 . S
C589 H559 0.950 . S
C589 C584 1.363 . S
C589 C588 1.415 . S
H590 C587 0.999 . S
H591 C572 0.913 . S
H592 C610 0.951 . S
H593 C612 0.951 . S
H594 C614 0.954 1_554 S
H595 C615 0.950 . S
H596 C617 0.950 . S
H597 C620 0.950 . S
H598 C621 0.950 . S
H599 C623 0.950 . S
H600 C624 0.950 . S
H601 C625 0.951 . S
H602 C627 0.951 . S
H603 C629 0.950 . S
H604 C630 0.950 . S
H605 C632 0.950 . S
H606 C635 0.950 . S
H607 C636 0.950 . S
H608 C638 0.950 . S
H609 C639 0.950 . S
C610 H592 0.951 . S
C610 C611 1.369 . S
C610 C612 1.388 . S
C611 C610 1.369 . S
C611 C615 1.381 1_546 S
C612 H593 0.951 . S
C612 C610 1.388 . S
C612 C613 1.366 . S
C613 C612 1.366 . S
C613 C614 1.413 1_545 S
C613 C616 1.499 . S
C614 H594 0.954 1_556 S
C614 C613 1.413 1_565 S
C614 C615 1.373 1_556 S
C615 H595 0.950 . S
C615 C611 1.381 1_564 S
C615 C614 1.373 1_554 S
C616 C613 1.499 . S
C616 C617 1.373 . S
C616 C618 1.389 1_545 S
C617 H596 0.950 . S
C617 C616 1.373 . S
C617 C633 1.377 . S
C618 C616 1.389 1_565 S
C618 C619 1.524 . S
C618 C632 1.377 . S
C619 C618 1.524 . S
C619 C620 1.397 . S
C619 C624 1.363 . S
C620 H597 0.950 . S
C620 C619 1.397 . S
C620 C621 1.334 . S
C621 H598 0.950 . S
C621 C620 1.334 . S
C621 C622 1.287 . S
C622 C621 1.287 . S
C622 C623 1.524 . S
C622 H641 0.913 . S
C623 H599 0.950 . S
C623 C622 1.524 . S
C623 C624 1.415 . S
C624 H600 0.950 . S
C624 C619 1.363 . S
C624 C623 1.415 . S
C625 H601 0.951 . S
C625 C626 1.366 . S
C625 C627 1.388 . S
C626 C625 1.366 . S
C626 C630 1.385 . S
C627 H602 0.951 . S
C627 C625 1.388 . S
C627 C628 1.366 . S
C628 C627 1.366 . S
C628 C629 1.414 . S
C628 C631 1.499 . S
C629 H603 0.950 . S
C629 C628 1.414 . S
C629 C630 1.374 . S
C630 H604 0.950 . S
C630 C626 1.385 . S
C630 C629 1.374 . S
C631 C628 1.499 . S
C631 C632 1.373 1_545 S
C631 C633 1.389 . S
C632 H605 0.950 . S
C632 C618 1.377 . S
C632 C631 1.373 1_565 S
C633 C617 1.377 . S
C633 C631 1.389 . S
C633 C634 1.524 . S
C634 C633 1.524 . S
C634 C635 1.397 . S
C634 C639 1.363 . S
C635 H606 0.950 . S
C635 C634 1.397 . S
C635 C636 1.334 . S
C636 H607 0.950 . S
C636 C635 1.334 . S
C636 C637 1.287 . S
C637 C636 1.287 . S
C637 C638 1.524 . S
C637 H640 0.999 . S
C638 H608 0.950 . S
C638 C637 1.524 . S
C638 C639 1.415 . S
C639 H609 0.950 . S
C639 C634 1.363 . S
C639 C638 1.415 . S
H640 C637 0.999 . S
H641 C622 0.913 . S
H642 C660 0.951 . S
H643 C662 0.950 . S
H644 C664 0.950 . S
H645 C665 0.950 . S
H646 C667 0.950 . S
H647 C670 0.950 1_556 S
H648 C671 0.950 . S
H649 C673 0.950 . S
H650 C674 0.950 . S
H651 C675 0.951 . S
H652 C677 0.951 . S
H653 C679 0.950 . S
H654 C680 0.950 . S
H655 C682 0.950 . S
H656 C685 0.950 . S
H657 C686 0.950 . S
H658 C688 0.950 . S
H659 C689 0.950 . S
C660 H642 0.951 . S
C660 C661 1.366 . S
C660 C662 1.387 . S
C661 C660 1.366 . S
C661 C665 1.385 1_554 S
C662 H643 0.950 . S
C662 C660 1.387 . S
C662 C663 1.367 1_554 S
C663 C662 1.367 1_556 S
C663 C664 1.414 . S
C663 C666 1.499 . S
C664 H644 0.950 . S
C664 C663 1.414 . S
C664 C665 1.374 . S
C665 H645 0.950 . S
C665 C661 1.385 1_556 S
C665 C664 1.374 . S
C666 C663 1.499 . S
C666 C667 1.373 . S
C666 C668 1.389 . S
C667 H646 0.950 . S
C667 C666 1.373 . S
C667 C683 1.377 . S
C668 C666 1.389 . S
C668 C669 1.508 1_556 S
C668 C682 1.377 . S
C669 C668 1.508 1_554 S
C669 C670 1.401 . S
C669 C674 1.374 . S
C670 H647 0.950 1_554 S
C670 C669 1.401 . S
C670 C671 1.334 . S
C671 H648 0.950 . S
C671 C670 1.334 . S
C671 C672 1.287 . S
C672 C671 1.287 . S
C672 C673 1.524 . S
C672 H691 0.913 . S
C673 H649 0.950 . S
C673 C672 1.524 . S
C673 C674 1.415 . S
C674 H650 0.950 . S
C674 C669 1.374 . S
C674 C673 1.415 . S
C675 H651 0.951 . S
C675 C676 1.366 . S
C675 C677 1.388 . S
C676 C675 1.366 . S
C676 C680 1.385 . S
C677 H652 0.951 . S
C677 C675 1.388 . S
C677 C678 1.366 . S
C678 C677 1.366 . S
C678 C679 1.414 . S
C678 C681 1.499 . S
C679 H653 0.950 . S
C679 C678 1.414 . S
C679 C680 1.374 . S
C680 H654 0.950 . S
C680 C676 1.385 . S
C680 C679 1.374 . S
C681 C678 1.499 . S
C681 C682 1.373 . S
C681 C683 1.389 . S
C682 H655 0.950 . S
C682 C668 1.377 . S
C682 C681 1.373 . S
C683 C667 1.377 . S
C683 C681 1.389 . S
C683 C684 1.524 . S
C684 C683 1.524 . S
C684 C685 1.397 . S
C684 C689 1.363 . S
C685 H656 0.950 . S
C685 C684 1.397 . S
C685 C686 1.334 . S
C686 H657 0.950 . S
C686 C685 1.334 . S
C686 C687 1.287 . S
C687 C686 1.287 . S
C687 C688 1.524 . S
C687 H690 0.999 . S
C688 H658 0.950 . S
C688 C687 1.524 . S
C688 C689 1.415 . S
C689 H659 0.950 . S
C689 C684 1.363 . S
C689 C688 1.415 . S
H690 C687 0.999 . S
H691 C672 0.913 . S
H692 C710 0.951 . S
H693 C712 0.951 . S
H694 C714 0.950 . S
H695 C715 0.950 . S
H696 C717 0.950 . S
H697 C720 0.950 . S
H698 C721 0.950 . S
H699 C723 0.950 . S
H700 C724 0.950 . S
H701 C725 0.951 . S
H702 C727 0.951 . S
H703 C729 0.950 . S
H704 C730 0.950 . S
H705 C732 0.950 . S
H706 C735 0.950 . S
H707 C736 0.950 . S
H708 C738 0.950 . S
H709 C739 0.950 . S
C710 H692 0.951 . S
C710 C711 1.366 . S
C710 C712 1.388 1_554 S
C711 C710 1.366 . S
C711 C715 1.385 . S
C712 H693 0.951 . S
C712 C710 1.388 1_556 S
C712 C713 1.366 . S
C713 C712 1.366 . S
C713 C714 1.414 1_556 S
C713 C716 1.499 . S
C714 H694 0.950 . S
C714 C713 1.414 1_554 S
C714 C715 1.374 . S
C715 H695 0.950 . S
C715 C711 1.385 . S
C715 C714 1.374 . S
C716 C713 1.499 . S
C716 C717 1.373 . S
C716 C718 1.389 . S
C717 H696 0.950 . S
C717 C716 1.373 . S
C717 C733 1.377 . S
C718 C716 1.389 . S
C718 C719 1.524 . S
C718 C732 1.377 . S
C719 C718 1.524 . S
C719 C720 1.397 1_556 S
C719 C724 1.363 . S
C720 H697 0.950 . S
C720 C719 1.397 1_554 S
C720 C721 1.334 . S
C721 H698 0.950 . S
C721 C720 1.334 . S
C721 C722 1.287 . S
C722 C721 1.287 . S
C722 C723 1.524 1_554 S
C722 H741 0.913 . S
C723 H699 0.950 . S
C723 C722 1.524 1_556 S
C723 C724 1.415 . S
C724 H700 0.950 . S
C724 C719 1.363 . S
C724 C723 1.415 . S
C725 H701 0.951 . S
C725 C726 1.366 . S
C725 C727 1.388 . S
C726 C725 1.366 . S
C726 C730 1.385 . S
C727 H702 0.951 . S
C727 C725 1.388 . S
C727 C728 1.366 . S
C728 C727 1.366 . S
C728 C729 1.414 . S
C728 C731 1.499 . S
C729 H703 0.950 . S
C729 C728 1.414 . S
C729 C730 1.374 . S
C730 H704 0.950 . S
C730 C726 1.385 . S
C730 C729 1.374 . S
C731 C728 1.499 . S
C731 C732 1.373 . S
C731 C733 1.389 . S
C732 H705 0.950 . S
C732 C718 1.377 . S
C732 C731 1.373 . S
C733 C717 1.377 . S
C733 C731 1.389 . S
C733 C734 1.524 . S
C734 C733 1.524 . S
C734 C735 1.397 . S
C734 C739 1.363 . S
C735 H706 0.950 . S
C735 C734 1.397 . S
C735 C736 1.334 . S
C736 H707 0.950 . S
C736 C735 1.334 . S
C736 C737 1.287 . S
C737 C736 1.287 . S
C737 C738 1.524 . S
C737 H740 0.999 . S
C738 H708 0.950 . S
C738 C737 1.524 . S
C738 C739 1.415 . S
C739 H709 0.950 . S
C739 C734 1.363 . S
C739 C738 1.415 . S
H740 C737 0.999 . S
H741 C722 0.913 . S
H742 C760 0.951 . S
H743 C762 0.951 . S
H744 C764 0.950 . S
H745 C765 0.950 . S
H746 C767 0.950 . S
H747 C770 0.950 . S
H748 C771 0.950 . S
H749 C773 0.950 . S
H750 C774 0.950 . S
H751 C775 0.951 . S
H752 C777 0.951 . S
H753 C779 0.950 1_455 S
H754 C780 0.950 . S
H755 C782 1.006 . S
H756 C785 0.950 . S
H757 C786 0.950 . S
H758 C788 0.950 . S
H759 C789 0.950 . S
C760 H742 0.951 . S
C760 C761 1.366 . S
C760 C762 1.388 . S
C761 C760 1.366 . S
C761 C765 1.385 . S
C762 H743 0.951 . S
C762 C760 1.388 . S
C762 C763 1.366 . S
C763 C762 1.366 . S
C763 C764 1.414 . S
C763 C766 1.499 . S
C764 H744 0.950 . S
C764 C763 1.414 . S
C764 C765 1.374 . S
C765 H745 0.950 . S
C765 C761 1.385 . S
C765 C764 1.374 . S
C766 C763 1.499 . S
C766 C767 1.373 . S
C766 C768 1.389 . S
C767 H746 0.950 . S
C767 C766 1.373 . S
C767 C783 1.377 . S
C768 C766 1.389 . S
C768 C769 1.524 . S
C768 C782 1.377 . S
C769 C768 1.524 . S
C769 C770 1.397 . S
C769 C774 1.363 1_655 S
C770 H747 0.950 . S
C770 C769 1.397 . S
C770 C771 1.334 1_655 S
C771 H748 0.950 . S
C771 C770 1.334 1_455 S
C771 C772 1.287 . S
C772 C771 1.287 . S
C772 C773 1.524 . S
C772 H791 0.913 . S
C773 H749 0.950 . S
C773 C772 1.524 . S
C773 C774 1.415 . S
C774 H750 0.950 . S
C774 C769 1.363 1_455 S
C774 C773 1.415 . S
C775 H751 0.951 . S
C775 C776 1.366 . S
C775 C777 1.388 . S
C776 C775 1.366 . S
C776 C780 1.385 1_655 S
C777 H752 0.951 . S
C777 C775 1.388 . S
C777 C778 1.366 . S
C778 C777 1.366 . S
C778 C779 1.414 . S
C778 C781 1.499 . S
C779 H753 0.950 1_655 S
C779 C778 1.414 . S
C779 C780 1.374 1_655 S
C780 H754 0.950 . S
C780 C776 1.385 1_455 S
C780 C779 1.374 1_455 S
C781 C778 1.499 . S
C781 C782 1.373 . S
C781 C783 1.389 . S
C782 H755 1.006 . S
C782 C768 1.377 . S
C782 C781 1.373 . S
C783 C767 1.377 . S
C783 C781 1.389 . S
C783 C784 1.524 . S
C784 C783 1.524 . S
C784 C785 1.397 . S
C784 C789 1.363 . S
C785 H756 0.950 . S
C785 C784 1.397 . S
C785 C786 1.334 . S
C786 H757 0.950 . S
C786 C785 1.334 . S
C786 C787 1.287 . S
C787 C786 1.287 . S
C787 C788 1.524 . S
C787 H790 0.999 . S
C788 H758 0.950 . S
C788 C787 1.524 . S
C788 C789 1.415 . S
C789 H759 0.950 . S
C789 C784 1.363 . S
C789 C788 1.415 . S
H790 C787 0.999 . S
H791 C772 0.913 . S
H792 C810 0.951 . S
H793 C812 0.951 . S
H794 C814 0.950 . S
H795 C815 0.950 . S
H796 C817 0.950 . S
H797 C820 0.950 . S
H798 C821 0.950 . S
H799 C823 0.950 . S
H800 C824 0.950 . S
H801 C825 0.956 1_655 S
H802 C827 0.951 . S
H803 C829 0.950 . S
H804 C830 0.950 . S
H805 C832 0.950 . S
H806 C835 0.950 . S
H807 C836 0.950 . S
H808 C838 0.950 . S
H809 C839 0.950 . S
C810 H792 0.951 . S
C810 C811 1.366 . S
C810 C812 1.388 . S
C811 C810 1.366 . S
C811 C815 1.385 . S
C812 H793 0.951 . S
C812 C810 1.388 . S
C812 C813 1.366 . S
C813 C812 1.366 . S
C813 C814 1.414 . S
C813 C816 1.499 . S
C814 H794 0.950 . S
C814 C813 1.414 . S
C814 C815 1.374 . S
C815 H795 0.950 . S
C815 C811 1.385 . S
C815 C814 1.374 . S
C816 C813 1.499 . S
C816 C817 1.373 . S
C816 C818 1.389 . S
C817 H796 0.950 . S
C817 C816 1.373 . S
C817 C833 1.377 . S
C818 C816 1.389 . S
C818 C819 1.524 . S
C818 C832 1.377 . S
C819 C818 1.524 . S
C819 C820 1.397 . S
C819 C824 1.363 . S
C820 H797 0.950 . S
C820 C819 1.397 . S
C820 C821 1.334 . S
C821 H798 0.950 . S
C821 C820 1.334 . S
C821 C822 1.287 . S
C822 C821 1.287 . S
C822 C823 1.524 . S
C822 H841 0.913 . S
C823 H799 0.950 . S
C823 C822 1.524 . S
C823 C824 1.415 . S
C824 H800 0.950 . S
C824 C819 1.363 . S
C824 C823 1.415 . S
C825 H801 0.956 1_455 S
C825 C826 1.366 . S
C825 C827 1.388 . S
C826 C825 1.366 . S
C826 C830 1.385 . S
C827 H802 0.951 . S
C827 C825 1.388 . S
C827 C828 1.366 . S
C828 C827 1.366 . S
C828 C829 1.414 . S
C828 C831 1.499 . S
C829 H803 0.950 . S
C829 C828 1.414 . S
C829 C830 1.374 . S
C830 H804 0.950 . S
C830 C826 1.385 . S
C830 C829 1.374 . S
C831 C828 1.499 . S
C831 C832 1.373 . S
C831 C833 1.389 . S
C832 H805 0.950 . S
C832 C818 1.377 . S
C832 C831 1.373 . S
C833 C817 1.377 . S
C833 C831 1.389 . S
C833 C834 1.524 . S
C834 C833 1.524 . S
C834 C835 1.397 . S
C834 C839 1.363 . S
C835 H806 0.950 . S
C835 C834 1.397 . S
C835 C836 1.334 . S
C836 H807 0.950 . S
C836 C835 1.334 . S
C836 C837 1.287 1_455 S
C837 C836 1.287 1_655 S
C837 C838 1.524 . S
C837 H840 0.999 . S
C838 H808 0.950 . S
C838 C837 1.524 . S
C838 C839 1.415 1_655 S
C839 H809 0.950 . S
C839 C834 1.363 . S
C839 C838 1.415 1_455 S
H840 C837 0.999 . S
H841 C822 0.913 . S
H842 C860 0.951 . S
H843 C862 0.951 . S
H844 C864 0.950 . S
H845 C865 0.950 . S
H846 C867 0.950 . S
H847 C870 0.950 . S
H848 C871 0.950 . S
H849 C873 0.950 . S
H850 C874 0.964 . S
H851 C875 0.951 . S
H852 C877 0.951 . S
H853 C879 0.950 . S
H854 C880 0.950 . S
H855 C882 0.945 1_545 S
H856 C885 0.950 . S
H857 C886 0.950 . S
H858 C888 0.950 . S
H859 C889 0.950 1_545 S
C860 H842 0.951 . S
C860 C861 1.351 1_565 S
C860 C862 1.388 . S
C861 C860 1.351 1_545 S
C861 C865 1.399 . S
C862 H843 0.951 . S
C862 C860 1.388 . S
C862 C863 1.387 . S
C863 C862 1.387 . S
C863 C864 1.392 1_565 S
C863 C866 1.501 . S
C864 H844 0.950 . S
C864 C863 1.392 1_545 S
C864 C865 1.374 . S
C865 H845 0.950 . S
C865 C861 1.399 . S
C865 C864 1.374 . S
C866 C863 1.501 . S
C866 C867 1.373 . S
C866 C868 1.389 1_565 S
C867 H846 0.950 . S
C867 C866 1.373 . S
C867 C883 1.377 . S
C868 C866 1.389 1_545 S
C868 C869 1.524 . S
C868 C882 1.377 1_545 S
C869 C868 1.524 . S
C869 C870 1.397 . S
C869 C874 1.356 1_545 S
C870 H847 0.950 . S
C870 C869 1.397 . S
C870 C871 1.334 . S
C871 H848 0.950 . S
C871 C870 1.334 . S
C871 C872 1.287 . S
C872 C871 1.287 . S
C872 C873 1.524 . S
C872 H891 0.913 . S
C873 H849 0.950 . S
C873 C872 1.524 . S
C873 C874 1.408 1_545 S
C874 H850 0.964 . S
C874 C869 1.356 1_565 S
C874 C873 1.408 1_565 S
C875 H851 0.951 . S
C875 C876 1.366 1_545 S
C875 C877 1.388 . S
C876 C875 1.366 1_565 S
C876 C880 1.385 . S
C877 H852 0.951 . S
C877 C875 1.388 . S
C877 C878 1.366 1_545 S
C878 C877 1.366 1_565 S
C878 C879 1.414 . S
C878 C881 1.499 . S
C879 H853 0.950 . S
C879 C878 1.414 . S
C879 C880 1.374 . S
C880 H854 0.950 . S
C880 C876 1.385 . S
C880 C879 1.374 . S
C881 C878 1.499 . S
C881 C882 1.373 . S
C881 C883 1.389 . S
C882 H855 0.945 1_565 S
C882 C868 1.377 1_565 S
C882 C881 1.373 . S
C883 C867 1.377 . S
C883 C881 1.389 . S
C883 C884 1.524 . S
C884 C883 1.524 . S
C884 C885 1.397 . S
C884 C889 1.363 . S
C885 H856 0.950 . S
C885 C884 1.397 . S
C885 C886 1.334 . S
C886 H857 0.950 . S
C886 C885 1.334 . S
C886 C887 1.287 . S
C887 C886 1.287 . S
C887 C888 1.524 . S
C887 H890 0.999 . S
C888 H858 0.950 . S
C888 C887 1.524 . S
C888 C889 1.415 . S
C889 H859 0.950 1_565 S
C889 C884 1.363 . S
C889 C888 1.415 . S
H890 C887 0.999 . S
H891 C872 0.913 . S
H892 C910 0.951 . S
H893 C912 0.951 . S
H894 C914 0.950 . S
H895 C915 0.950 . S
H896 C917 0.950 . S
H897 C920 0.950 . S
H898 C921 0.950 . S
H899 C923 0.950 . S
H900 C924 0.950 . S
H901 C925 0.951 . S
H902 C927 0.951 . S
H903 C929 0.950 . S
H904 C930 0.950 . S
H905 C932 0.950 . S
H906 C935 0.950 . S
H907 C936 0.950 . S
H908 C938 0.950 . S
H909 C939 0.950 . S
C910 H892 0.951 . S
C910 C911 1.366 . S
C910 C912 1.388 . S
C911 C910 1.366 . S
C911 C915 1.385 . S
C912 H893 0.951 . S
C912 C910 1.388 . S
C912 C913 1.366 . S
C913 C912 1.366 . S
C913 C914 1.414 . S
C913 C916 1.499 . S
C914 H894 0.950 . S
C914 C913 1.414 . S
C914 C915 1.374 . S
C915 H895 0.950 . S
C915 C911 1.385 . S
C915 C914 1.374 . S
C916 C913 1.499 . S
C916 C917 1.373 . S
C916 C918 1.389 . S
C917 H896 0.950 . S
C917 C916 1.373 . S
C917 C933 1.377 . S
C918 C916 1.389 . S
C918 C919 1.524 . S
C918 C932 1.377 . S
C919 C918 1.524 . S
C919 C920 1.397 . S
C919 C924 1.363 . S
C920 H897 0.950 . S
C920 C919 1.397 . S
C920 C921 1.334 . S
C921 H898 0.950 . S
C921 C920 1.334 . S
C921 C922 1.287 . S
C922 C921 1.287 . S
C922 C923 1.524 . S
C922 H941 0.913 . S
C923 H899 0.950 . S
C923 C922 1.524 . S
C923 C924 1.415 . S
C924 H900 0.950 . S
C924 C919 1.363 . S
C924 C923 1.415 . S
C925 H901 0.951 . S
C925 C926 1.366 . S
C925 C927 1.388 . S
C926 C925 1.366 . S
C926 C930 1.385 . S
C927 H902 0.951 . S
C927 C925 1.388 . S
C927 C928 1.366 . S
C928 C927 1.366 . S
C928 C929 1.414 . S
C928 C931 1.499 . S
C929 H903 0.950 . S
C929 C928 1.414 . S
C929 C930 1.374 . S
C930 H904 0.950 . S
C930 C926 1.385 . S
C930 C929 1.374 . S
C931 C928 1.499 . S
C931 C932 1.373 . S
C931 C933 1.389 . S
C932 H905 0.950 . S
C932 C918 1.377 . S
C932 C931 1.373 . S
C933 C917 1.377 . S
C933 C931 1.389 . S
C933 C934 1.524 . S
C934 C933 1.524 . S
C934 C935 1.397 . S
C934 C939 1.363 . S
C935 H906 0.950 . S
C935 C934 1.397 . S
C935 C936 1.334 . S
C936 H907 0.950 . S
C936 C935 1.334 . S
C936 C937 1.287 . S
C937 C936 1.287 . S
C937 C938 1.524 . S
C937 H940 0.999 . S
C938 H908 0.950 . S
C938 C937 1.524 . S
C938 C939 1.415 . S
C939 H909 0.950 . S
C939 C934 1.363 . S
C939 C938 1.415 . S
H940 C937 0.999 . S
H941 C922 0.913 . S
H942 C960 0.951 . S
H943 C962 0.951 . S
H944 C964 0.950 . S
H945 C965 0.950 . S
H946 C967 0.950 . S
H947 C970 0.950 . S
H948 C971 0.950 . S
H949 C973 0.950 . S
H950 C974 0.950 . S
H951 C975 0.951 . S
H952 C977 0.951 . S
H953 C979 0.950 . S
H954 C980 0.950 . S
H955 C982 0.950 . S
H956 C985 0.950 . S
H957 C986 0.950 . S
H958 C988 0.950 . S
H959 C989 0.950 . S
C960 H942 0.951 . S
C960 C961 1.366 . S
C960 C962 1.388 . S
C961 C960 1.366 . S
C961 C965 1.385 . S
C962 H943 0.951 . S
C962 C960 1.388 . S
C962 C963 1.366 . S
C963 C962 1.366 . S
C963 C964 1.414 . S
C963 C966 1.499 . S
C964 H944 0.950 . S
C964 C963 1.414 . S
C964 C965 1.374 . S
C965 H945 0.950 . S
C965 C961 1.385 . S
C965 C964 1.374 . S
C966 C963 1.499 . S
C966 C967 1.373 . S
C966 C968 1.389 . S
C967 H946 0.950 . S
C967 C966 1.373 . S
C967 C983 1.377 . S
C968 C966 1.389 . S
C968 C969 1.524 . S
C968 C982 1.377 . S
C969 C968 1.524 . S
C969 C970 1.397 . S
C969 C974 1.363 . S
C970 H947 0.950 . S
C970 C969 1.397 . S
C970 C971 1.334 . S
C971 H948 0.950 . S
C971 C970 1.334 . S
C971 C972 1.287 . S
C972 C971 1.287 . S
C972 C973 1.524 . S
C972 H991 0.913 . S
C973 H949 0.950 . S
C973 C972 1.524 . S
C973 C974 1.415 . S
C974 H950 0.950 . S
C974 C969 1.363 . S
C974 C973 1.415 . S
C975 H951 0.951 . S
C975 C976 1.366 . S
C975 C977 1.388 . S
C976 C975 1.366 . S
C976 C980 1.385 . S
C977 H952 0.951 . S
C977 C975 1.388 . S
C977 C978 1.366 . S
C978 C977 1.366 . S
C978 C979 1.414 . S
C978 C981 1.499 . S
C979 H953 0.950 . S
C979 C978 1.414 . S
C979 C980 1.374 . S
C980 H954 0.950 . S
C980 C976 1.385 . S
C980 C979 1.374 . S
C981 C978 1.499 . S
C981 C982 1.373 . S
C981 C983 1.389 . S
C982 H955 0.950 . S
C982 C968 1.377 . S
C982 C981 1.373 . S
C983 C967 1.377 . S
C983 C981 1.389 . S
C983 C984 1.524 . S
C984 C983 1.524 . S
C984 C985 1.397 . S
C984 C989 1.363 . S
C985 H956 0.950 . S
C985 C984 1.397 . S
C985 C986 1.334 . S
C986 H957 0.950 . S
C986 C985 1.334 . S
C986 C987 1.287 . S
C987 C986 1.287 . S
C987 C988 1.524 . S
C987 H990 0.999 . S
C988 H958 0.950 . S
C988 C987 1.524 . S
C988 C989 1.415 . S
C989 H959 0.950 . S
C989 C984 1.363 . S
C989 C988 1.415 . S
H990 C987 0.999 . S
H991 C972 0.913 . S
H992 C1010 0.951 . S
H993 C1012 0.951 . S
H994 C1014 0.950 . S
H995 C1015 0.950 . S
H996 C1017 0.950 . S
H997 C1020 0.950 . S
H998 C1021 0.950 . S
H999 C1023 0.950 . S
H1000 C1024 0.950 . S
H1001 C1025 0.951 . S
H1002 C1027 0.951 . S
H1003 C1029 0.950 . S
H1004 C1030 0.950 . S
H1005 C1032 0.950 . S
H1006 C1035 0.950 . S
H1007 C1036 0.950 . S
H1008 C1038 0.950 . S
H1009 C1039 0.950 . S
C1010 H992 0.951 . S
C1010 C1011 1.366 . S
C1010 C1012 1.388 . S
C1011 C1010 1.366 . S
C1011 C1015 1.385 . S
C1012 H993 0.951 . S
C1012 C1010 1.388 . S
C1012 C1013 1.366 . S
C1013 C1012 1.366 . S
C1013 C1014 1.414 . S
C1013 C1016 1.499 . S
C1014 H994 0.950 . S
C1014 C1013 1.414 . S
C1014 C1015 1.374 . S
C1015 H995 0.950 . S
C1015 C1011 1.385 . S
C1015 C1014 1.374 . S
C1016 C1013 1.499 . S
C1016 C1017 1.373 . S
C1016 C1018 1.389 . S
C1017 H996 0.950 . S
C1017 C1016 1.373 . S
C1017 C1033 1.377 . S
C1018 C1016 1.389 . S
C1018 C1019 1.524 . S
C1018 C1032 1.377 . S
C1019 C1018 1.524 . S
C1019 C1020 1.397 . S
C1019 C1024 1.363 . S
C1020 H997 0.950 . S
C1020 C1019 1.397 . S
C1020 C1021 1.334 . S
C1021 H998 0.950 . S
C1021 C1020 1.334 . S
C1021 C1022 1.287 . S
C1022 C1021 1.287 . S
C1022 C1023 1.524 . S
C1022 H1041 0.913 . S
C1023 H999 0.950 . S
C1023 C1022 1.524 . S
C1023 C1024 1.415 . S
C1024 H1000 0.950 . S
C1024 C1019 1.363 . S
C1024 C1023 1.415 . S
C1025 H1001 0.951 . S
C1025 C1026 1.366 . S
C1025 C1027 1.388 . S
C1026 C1025 1.366 . S
C1026 C1030 1.385 . S
C1027 H1002 0.951 . S
C1027 C1025 1.388 . S
C1027 C1028 1.345 1_455 S
C1028 C1027 1.345 1_655 S
C1028 C1029 1.421 . S
C1028 C1031 1.513 . S
C1029 H1003 0.950 . S
C1029 C1028 1.421 . S
C1029 C1030 1.374 1_655 S
C1030 H1004 0.950 . S
C1030 C1026 1.385 . S
C1030 C1029 1.374 1_455 S
C1031 C1028 1.513 . S
C1031 C1032 1.373 . S
C1031 C1033 1.389 . S
C1032 H1005 0.950 . S
C1032 C1018 1.377 . S
C1032 C1031 1.373 . S
C1033 C1017 1.377 . S
C1033 C1031 1.389 . S
C1033 C1034 1.524 1_655 S
C1034 C1033 1.524 1_455 S
C1034 C1035 1.397 . S
C1034 C1039 1.363 . S
C1035 H1006 0.950 . S
C1035 C1034 1.397 . S
C1035 C1036 1.334 . S
C1036 H1007 0.950 . S
C1036 C1035 1.334 . S
C1036 C1037 1.287 . S
C1037 C1036 1.287 . S
C1037 C1038 1.524 . S
C1037 H1040 0.999 . S
C1038 H1008 0.950 . S
C1038 C1037 1.524 . S
C1038 C1039 1.415 . S
C1039 H1009 0.950 . S
C1039 C1034 1.363 . S
C1039 C1038 1.415 . S
H1040 C1037 0.999 . S
H1041 C1022 0.913 . S
H1042 C1060 0.951 1_554 S
H1043 C1062 0.951 . S
H1044 C1064 0.954 . S
H1045 C1065 0.950 . S
H1046 C1067 0.950 . S
H1047 C1070 0.950 . S
H1048 C1071 0.950 . S
H1049 C1073 0.950 . S
H1050 C1074 0.950 . S
H1051 C1075 0.951 . S
H1052 C1077 0.951 . S
H1053 C1079 0.950 . S
H1054 C1080 0.950 . S
H1055 C1082 0.950 . S
H1056 C1085 0.950 . S
H1057 C1086 0.950 . S
H1058 C1088 0.950 . S
H1059 C1089 0.950 . S
C1060 H1042 0.951 1_556 S
C1060 C1061 1.363 1_545 S
C1060 C1062 1.388 . S
C1061 C1060 1.363 1_565 S
C1061 C1065 1.386 . S
C1062 H1043 0.951 . S
C1062 C1060 1.388 . S
C1062 C1063 1.372 . S
C1063 C1062 1.372 . S
C1063 C1064 1.405 1_545 S
C1063 C1066 1.502 . S
C1064 H1044 0.954 . S
C1064 C1063 1.405 1_565 S
C1064 C1065 1.376 . S
C1065 H1045 0.950 . S
C1065 C1061 1.386 . S
C1065 C1064 1.376 . S
C1066 C1063 1.502 . S
C1066 C1067 1.373 . S
C1066 C1068 1.389 1_545 S
C1067 H1046 0.950 . S
C1067 C1066 1.373 . S
C1067 C1083 1.377 . S
C1068 C1066 1.389 1_565 S
C1068 C1069 1.524 . S
C1068 C1082 1.377 . S
C1069 C1068 1.524 . S
C1069 C1070 1.397 . S
C1069 C1074 1.363 . S
C1070 H1047 0.950 . S
C1070 C1069 1.397 . S
C1070 C1071 1.334 . S
C1071 H1048 0.950 . S
C1071 C1070 1.334 . S
C1071 C1072 1.287 . S
C1072 C1071 1.287 . S
C1072 C1073 1.524 1_556 S
C1072 H1091 0.913 1_556 S
C1073 H1049 0.950 . S
C1073 C1072 1.524 1_554 S
C1073 C1074 1.415 1_554 S
C1074 H1050 0.950 . S
C1074 C1069 1.363 . S
C1074 C1073 1.415 1_556 S
C1075 H1051 0.951 . S
C1075 C1076 1.366 . S
C1075 C1077 1.388 . S
C1076 C1075 1.366 . S
C1076 C1080 1.385 . S
C1077 H1052 0.951 . S
C1077 C1075 1.388 . S
C1077 C1078 1.366 . S
C1078 C1077 1.366 . S
C1078 C1079 1.414 . S
C1078 C1081 1.499 . S
C1079 H1053 0.950 . S
C1079 C1078 1.414 . S
C1079 C1080 1.374 . S
C1080 H1054 0.950 . S
C1080 C1076 1.385 . S
C1080 C1079 1.374 . S
C1081 C1078 1.499 . S
C1081 C1082 1.373 1_545 S
C1081 C1083 1.389 . S
C1082 H1055 0.950 . S
C1082 C1068 1.377 . S
C1082 C1081 1.373 1_565 S
C1083 C1067 1.377 . S
C1083 C1081 1.389 . S
C1083 C1084 1.524 . S
C1084 C1083 1.524 . S
C1084 C1085 1.397 . S
C1084 C1089 1.363 . S
C1085 H1056 0.950 . S
C1085 C1084 1.397 . S
C1085 C1086 1.334 . S
C1086 H1057 0.950 . S
C1086 C1085 1.334 . S
C1086 C1087 1.287 . S
C1087 C1086 1.287 . S
C1087 C1088 1.524 . S
C1087 H1090 0.999 . S
C1088 H1058 0.950 . S
C1088 C1087 1.524 . S
C1088 C1089 1.415 . S
C1089 H1059 0.950 . S
C1089 C1084 1.363 . S
C1089 C1088 1.415 . S
H1090 C1087 0.999 . S
H1091 C1072 0.913 1_554 S
H1092 C1110 0.951 . S
H1093 C1112 0.951 . S
H1094 C1114 0.950 . S
H1095 C1115 0.950 . S
H1096 C1117 0.950 . S
H1097 C1120 0.950 . S
H1098 C1121 0.950 . S
H1099 C1123 0.950 . S
H1100 C1124 0.950 . S
H1101 C1125 0.951 . S
H1102 C1127 0.951 . S
H1103 C1129 0.950 . S
H1104 C1130 0.950 . S
H1105 C1132 0.950 . S
H1106 C1135 0.950 . S
H1107 C1136 0.950 . S
H1108 C1138 0.950 . S
H1109 C1139 0.950 . S
C1110 H1092 0.951 . S
C1110 C1111 1.366 . S
C1110 C1112 1.388 . S
C1111 C1110 1.366 . S
C1111 C1115 1.385 . S
C1112 H1093 0.951 . S
C1112 C1110 1.388 . S
C1112 C1113 1.366 . S
C1113 C1112 1.366 . S
C1113 C1114 1.414 . S
C1113 C1116 1.499 . S
C1114 H1094 0.950 . S
C1114 C1113 1.414 . S
C1114 C1115 1.374 . S
C1115 H1095 0.950 . S
C1115 C1111 1.385 . S
C1115 C1114 1.374 . S
C1116 C1113 1.499 . S
C1116 C1117 1.373 . S
C1116 C1118 1.389 . S
C1117 H1096 0.950 . S
C1117 C1116 1.373 . S
C1117 C1133 1.377 . S
C1118 C1116 1.389 . S
C1118 C1119 1.524 . S
C1118 C1132 1.377 . S
C1119 C1118 1.524 . S
C1119 C1120 1.397 . S
C1119 C1124 1.363 . S
C1120 H1097 0.950 . S
C1120 C1119 1.397 . S
C1120 C1121 1.334 . S
C1121 H1098 0.950 . S
C1121 C1120 1.334 . S
C1121 C1122 1.287 . S
C1122 C1121 1.287 . S
C1122 C1123 1.524 . S
C1122 H1141 0.913 . S
C1123 H1099 0.950 . S
C1123 C1122 1.524 . S
C1123 C1124 1.415 . S
C1124 H1100 0.950 . S
C1124 C1119 1.363 . S
C1124 C1123 1.415 . S
C1125 H1101 0.951 . S
C1125 C1126 1.366 . S
C1125 C1127 1.388 . S
C1126 C1125 1.366 . S
C1126 C1130 1.385 . S
C1127 H1102 0.951 . S
C1127 C1125 1.388 . S
C1127 C1128 1.366 . S
C1128 C1127 1.366 . S
C1128 C1129 1.414 . S
C1128 C1131 1.499 . S
C1129 H1103 0.950 . S
C1129 C1128 1.414 . S
C1129 C1130 1.374 . S
C1130 H1104 0.950 . S
C1130 C1126 1.385 . S
C1130 C1129 1.374 . S
C1131 C1128 1.499 . S
C1131 C1132 1.373 . S
C1131 C1133 1.389 . S
C1132 H1105 0.950 . S
C1132 C1118 1.377 . S
C1132 C1131 1.373 . S
C1133 C1117 1.377 . S
C1133 C1131 1.389 . S
C1133 C1134 1.524 . S
C1134 C1133 1.524 . S
C1134 C1135 1.397 . S
C1134 C1139 1.363 . S
C1135 H1106 0.950 . S
C1135 C1134 1.397 . S
C1135 C1136 1.334 . S
C1136 H1107 0.950 . S
C1136 C1135 1.334 . S
C1136 C1137 1.287 . S
C1137 C1136 1.287 . S
C1137 C1138 1.524 . S
C1137 H1140 0.999 . S
C1138 H1108 0.950 . S
C1138 C1137 1.524 . S
C1138 C1139 1.415 . S
C1139 H1109 0.950 . S
C1139 C1134 1.363 . S
C1139 C1138 1.415 . S
H1140 C1137 0.999 . S
H1141 C1122 0.913 . S
H1142 C1160 0.951 . S
H1143 C1162 0.951 . S
H1144 C1164 0.950 1_554 S
H1145 C1165 0.950 . S
H1146 C1167 0.950 . S
H1147 C1170 0.950 . S
H1148 C1171 0.950 . S
H1149 C1173 0.950 . S
H1150 C1174 0.950 . S
H1151 C1175 0.951 1_455 S
H1152 C1177 0.951 . S
H1153 C1179 0.950 . S
H1154 C1180 0.950 . S
H1155 C1182 0.950 . S
H1156 C1185 0.950 . S
H1157 C1186 0.950 . S
H1158 C1188 0.950 . S
H1159 C1189 0.950 . S
C1160 H1142 0.951 . S
C1160 C1161 1.366 1_556 S
C1160 C1162 1.388 . S
C1161 C1160 1.366 1_554 S
C1161 C1165 1.385 . S
C1162 H1143 0.951 . S
C1162 C1160 1.388 . S
C1162 C1163 1.366 . S
C1163 C1162 1.366 . S
C1163 C1164 1.414 . S
C1163 C1166 1.499 . S
C1164 H1144 0.950 1_556 S
C1164 C1163 1.414 . S
C1164 C1165 1.374 1_556 S
C1165 H1145 0.950 . S
C1165 C1161 1.385 . S
C1165 C1164 1.374 1_554 S
C1166 C1163 1.499 . S
C1166 C1167 1.373 . S
C1166 C1168 1.389 . S
C1167 H1146 0.950 . S
C1167 C1166 1.373 . S
C1167 C1183 1.377 . S
C1168 C1166 1.389 . S
C1168 C1169 1.524 . S
C1168 C1182 1.377 . S
C1169 C1168 1.524 . S
C1169 C1170 1.397 . S
C1169 C1174 1.363 . S
C1170 H1147 0.950 . S
C1170 C1169 1.397 . S
C1170 C1171 1.334 . S
C1171 H1148 0.950 . S
C1171 C1170 1.334 . S
C1171 C1172 1.287 . S
C1172 C1171 1.287 . S
C1172 C1173 1.524 . S
C1172 H1191 0.913 . S
C1173 H1149 0.950 . S
C1173 C1172 1.524 . S
C1173 C1174 1.415 . S
C1174 H1150 0.950 . S
C1174 C1169 1.363 . S
C1174 C1173 1.415 . S
C1175 H1151 0.951 1_655 S
C1175 C1176 1.366 . S
C1175 C1177 1.388 . S
C1176 C1175 1.366 . S
C1176 C1180 1.385 . S
C1177 H1152 0.951 . S
C1177 C1175 1.388 . S
C1177 C1178 1.366 . S
C1178 C1177 1.366 . S
C1178 C1179 1.414 . S
C1178 C1181 1.499 . S
C1179 H1153 0.950 . S
C1179 C1178 1.414 . S
C1179 C1180 1.374 . S
C1180 H1154 0.950 . S
C1180 C1176 1.385 . S
C1180 C1179 1.374 . S
C1181 C1178 1.499 . S
C1181 C1182 1.373 . S
C1181 C1183 1.389 . S
C1182 H1155 0.950 . S
C1182 C1168 1.377 . S
C1182 C1181 1.373 . S
C1183 C1167 1.377 . S
C1183 C1181 1.389 . S
C1183 C1184 1.524 . S
C1184 C1183 1.524 . S
C1184 C1185 1.397 . S
C1184 C1189 1.363 . S
C1185 H1156 0.950 . S
C1185 C1184 1.397 . S
C1185 C1186 1.334 . S
C1186 H1157 0.950 . S
C1186 C1185 1.334 . S
C1186 C1187 1.287 . S
C1187 C1186 1.287 . S
C1187 C1188 1.524 . S
C1187 H1190 0.999 . S
C1188 H1158 0.950 . S
C1188 C1187 1.524 . S
C1188 C1189 1.415 . S
C1189 H1159 0.950 . S
C1189 C1184 1.363 . S
C1189 C1188 1.415 . S
H1190 C1187 0.999 . S
H1191 C1172 0.913 . S
H1192 C1210 0.951 . S
H1193 C1212 0.951 . S
H1194 C1214 0.950 . S
H1195 C1215 0.950 . S
H1196 C1217 0.950 . S
H1197 C1220 0.950 . S
H1198 C1221 0.950 . S
H1199 C1223 0.950 . S
H1200 C1224 0.950 . S
H1201 C1225 0.951 . S
H1202 C1227 0.951 . S
H1203 C1229 0.950 1_554 S
H1204 C1230 0.950 . S
H1205 C1232 0.950 . S
H1206 C1235 0.950 . S
H1207 C1236 0.950 . S
H1208 C1238 0.950 . S
H1209 C1239 0.950 . S
C1210 H1192 0.951 . S
C1210 C1211 1.366 . S
C1210 C1212 1.388 . S
C1211 C1210 1.366 . S
C1211 C1215 1.385 . S
C1212 H1193 0.951 . S
C1212 C1210 1.388 . S
C1212 C1213 1.366 . S
C1213 C1212 1.366 . S
C1213 C1214 1.414 . S
C1213 C1216 1.499 . S
C1214 H1194 0.950 . S
C1214 C1213 1.414 . S
C1214 C1215 1.374 . S
C1215 H1195 0.950 . S
C1215 C1211 1.385 . S
C1215 C1214 1.374 . S
C1216 C1213 1.499 . S
C1216 C1217 1.373 . S
C1216 C1218 1.389 . S
C1217 H1196 0.950 . S
C1217 C1216 1.373 . S
C1217 C1233 1.374 1_554 S
C1218 C1216 1.389 . S
C1218 C1219 1.524 . S
C1218 C1232 1.377 . S
C1219 C1218 1.524 . S
C1219 C1220 1.397 . S
C1219 C1224 1.363 . S
C1220 H1197 0.950 . S
C1220 C1219 1.397 . S
C1220 C1221 1.334 . S
C1221 H1198 0.950 . S
C1221 C1220 1.334 . S
C1221 C1222 1.287 . S
C1222 C1221 1.287 . S
C1222 C1223 1.524 . S
C1222 H1241 0.913 . S
C1223 H1199 0.950 . S
C1223 C1222 1.524 . S
C1223 C1224 1.415 . S
C1224 H1200 0.950 . S
C1224 C1219 1.363 . S
C1224 C1223 1.415 . S
C1225 H1201 0.951 . S
C1225 C1226 1.366 . S
C1225 C1227 1.388 . S
C1226 C1225 1.366 . S
C1226 C1230 1.385 . S
C1227 H1202 0.951 . S
C1227 C1225 1.388 . S
C1227 C1228 1.366 . S
C1228 C1227 1.366 . S
C1228 C1229 1.414 . S
C1228 C1231 1.499 1_556 S
C1229 H1203 0.950 1_556 S
C1229 C1228 1.414 . S
C1229 C1230 1.374 . S
C1230 H1204 0.950 . S
C1230 C1226 1.385 . S
C1230 C1229 1.374 . S
C1231 C1228 1.499 1_554 S
C1231 C1232 1.373 . S
C1231 C1233 1.388 1_554 S
C1232 H1205 0.950 . S
C1232 C1218 1.377 . S
C1232 C1231 1.373 . S
C1233 C1217 1.374 1_556 S
C1233 C1231 1.388 1_556 S
C1233 C1234 1.528 . S
C1234 C1233 1.528 . S
C1234 C1235 1.397 . S
C1234 C1239 1.363 . S
C1235 H1206 0.950 . S
C1235 C1234 1.397 . S
C1235 C1236 1.334 . S
C1236 H1207 0.950 . S
C1236 C1235 1.334 . S
C1236 C1237 1.287 . S
C1237 C1236 1.287 . S
C1237 C1238 1.524 . S
C1237 H1240 0.999 . S
C1238 H1208 0.950 . S
C1238 C1237 1.524 . S
C1238 C1239 1.415 . S
C1239 H1209 0.950 . S
C1239 C1234 1.363 . S
C1239 C1238 1.415 . S
H1240 C1237 0.999 . S
H1241 C1222 0.913 . S
H1242 C1260 0.951 . S
H1243 C1262 0.951 . S
H1244 C1264 0.950 . S
H1245 C1265 0.950 . S
H1246 C1267 0.950 . S
H1247 C1270 0.950 . S
H1248 C1271 0.950 . S
H1249 C1273 0.950 . S
H1250 C1274 0.950 1_556 S
H1251 C1275 0.951 . S
H1252 C1277 0.951 . S
H1253 C1279 0.950 . S
H1254 C1280 0.950 . S
H1255 C1282 0.950 . S
H1256 C1285 0.950 . S
H1257 C1286 0.950 . S
H1258 C1288 0.950 . S
H1259 C1289 0.950 . S
C1260 H1242 0.951 . S
C1260 C1261 1.346 1_565 S
C1260 C1262 1.388 . S
C1261 C1260 1.346 1_545 S
C1261 C1265 1.403 . S
C1262 H1243 0.951 . S
C1262 C1260 1.388 . S
C1262 C1263 1.315 1_565 S
C1263 C1262 1.315 1_545 S
C1263 C1264 1.469 . S
C1263 C1266 1.499 1_554 S
C1264 H1244 0.950 . S
C1264 C1263 1.469 . S
C1264 C1265 1.374 . S
C1265 H1245 0.950 . S
C1265 C1261 1.403 . S
C1265 C1264 1.374 . S
C1266 C1263 1.499 1_556 S
C1266 C1267 1.373 . S
C1266 C1268 1.389 1_545 S
C1267 H1246 0.950 . S
C1267 C1266 1.373 . S
C1267 C1283 1.377 . S
C1268 C1266 1.389 1_565 S
C1268 C1269 1.524 1_556 S
C1268 C1282 1.377 . S
C1269 C1268 1.524 1_554 S
C1269 C1270 1.397 . S
C1269 C1274 1.363 . S
C1270 H1247 0.950 . S
C1270 C1269 1.397 . S
C1270 C1271 1.334 . S
C1271 H1248 0.950 . S
C1271 C1270 1.334 . S
C1271 C1272 1.287 . S
C1272 C1271 1.287 . S
C1272 C1273 1.524 . S
C1272 H1291 0.913 . S
C1273 H1249 0.950 . S
C1273 C1272 1.524 . S
C1273 C1274 1.415 . S
C1274 H1250 0.950 1_554 S
C1274 C1269 1.363 . S
C1274 C1273 1.415 . S
C1275 H1251 0.951 . S
C1275 C1276 1.366 . S
C1275 C1277 1.388 . S
C1276 C1275 1.366 . S
C1276 C1280 1.385 1_545 S
C1277 H1252 0.951 . S
C1277 C1275 1.388 . S
C1277 C1278 1.366 . S
C1278 C1277 1.366 . S
C1278 C1279 1.414 1_545 S
C1278 C1281 1.499 . S
C1279 H1253 0.950 . S
C1279 C1278 1.414 1_565 S
C1279 C1280 1.374 . S
C1280 H1254 0.950 . S
C1280 C1276 1.385 1_565 S
C1280 C1279 1.374 . S
C1281 C1278 1.499 . S
C1281 C1282 1.373 1_545 S
C1281 C1283 1.389 . S
C1282 H1255 0.950 . S
C1282 C1268 1.377 . S
C1282 C1281 1.373 1_565 S
C1283 C1267 1.377 . S
C1283 C1281 1.389 . S
C1283 C1284 1.524 . S
C1284 C1283 1.524 . S
C1284 C1285 1.397 . S
C1284 C1289 1.363 . S
C1285 H1256 0.950 . S
C1285 C1284 1.397 . S
C1285 C1286 1.334 . S
C1286 H1257 0.950 . S
C1286 C1285 1.334 . S
C1286 C1287 1.287 . S
C1287 C1286 1.287 . S
C1287 C1288 1.524 . S
C1287 H1290 0.999 . S
C1288 H1258 0.950 . S
C1288 C1287 1.524 . S
C1288 C1289 1.415 . S
C1289 H1259 0.950 . S
C1289 C1284 1.363 . S
C1289 C1288 1.415 . S
H1290 C1287 0.999 . S
H1291 C1272 0.913 . S
H1292 C1310 0.951 . S
H1293 C1312 0.951 1_556 S
H1294 C1314 0.950 . S
H1295 C1315 0.950 . S
H1296 C1317 0.950 . S
H1297 C1320 0.950 . S
H1298 C1321 0.950 . S
H1299 C1323 0.950 . S
H1300 C1324 0.950 . S
H1301 C1325 0.951 . S
H1302 C1327 0.951 . S
H1303 C1329 0.950 . S
H1304 C1330 0.950 . S
H1305 C1332 0.950 . S
H1306 C1335 0.950 . S
H1307 C1336 0.950 . S
H1308 C1338 0.950 . S
H1309 C1339 0.950 . S
C1310 H1292 0.951 . S
C1310 C1311 1.366 . S
C1310 C1312 1.388 . S
C1311 C1310 1.366 . S
C1311 C1315 1.385 . S
C1312 H1293 0.951 1_554 S
C1312 C1310 1.388 . S
C1312 C1313 1.366 . S
C1313 C1312 1.366 . S
C1313 C1314 1.414 . S
C1313 C1316 1.499 1_554 S
C1314 H1294 0.950 . S
C1314 C1313 1.414 . S
C1314 C1315 1.374 . S
C1315 H1295 0.950 . S
C1315 C1311 1.385 . S
C1315 C1314 1.374 . S
C1316 C1313 1.499 1_556 S
C1316 C1317 1.373 . S
C1316 C1318 1.389 . S
C1317 H1296 0.950 . S
C1317 C1316 1.373 . S
C1317 C1333 1.377 . S
C1318 C1316 1.389 . S
C1318 C1319 1.524 . S
C1318 C1332 1.377 . S
C1319 C1318 1.524 . S
C1319 C1320 1.397 1_556 S
C1319 C1324 1.363 . S
C1320 H1297 0.950 . S
C1320 C1319 1.397 1_554 S
C1320 C1321 1.334 . S
C1321 H1298 0.950 . S
C1321 C1320 1.334 . S
C1321 C1322 1.287 . S
C1322 C1321 1.287 . S
C1322 C1323 1.524 1_554 S
C1322 H1341 0.913 . S
C1323 H1299 0.950 . S
C1323 C1322 1.524 1_556 S
C1323 C1324 1.415 . S
C1324 H1300 0.950 . S
C1324 C1319 1.363 . S
C1324 C1323 1.415 . S
C1325 H1301 0.951 . S
C1325 C1326 1.366 . S
C1325 C1327 1.388 . S
C1326 C1325 1.366 . S
C1326 C1330 1.385 . S
C1327 H1302 0.951 . S
C1327 C1325 1.388 . S
C1327 C1328 1.366 . S
C1328 C1327 1.366 . S
C1328 C1329 1.414 . S
C1328 C1331 1.499 . S
C1329 H1303 0.950 . S
C1329 C1328 1.414 . S
C1329 C1330 1.374 . S
C1330 H1304 0.950 . S
C1330 C1326 1.385 . S
C1330 C1329 1.374 . S
C1331 C1328 1.499 . S
C1331 C1332 1.373 . S
C1331 C1333 1.389 . S
C1332 H1305 0.950 . S
C1332 C1318 1.377 . S
C1332 C1331 1.373 . S
C1333 C1317 1.377 . S
C1333 C1331 1.389 . S
C1333 C1334 1.524 . S
C1334 C1333 1.524 . S
C1334 C1335 1.397 . S
C1334 C1339 1.363 . S
C1335 H1306 0.950 . S
C1335 C1334 1.397 . S
C1335 C1336 1.334 . S
C1336 H1307 0.950 . S
C1336 C1335 1.334 . S
C1336 C1337 1.287 . S
C1337 C1336 1.287 . S
C1337 C1338 1.524 . S
C1337 H1340 0.999 . S
C1338 H1308 0.950 . S
C1338 C1337 1.524 . S
C1338 C1339 1.415 . S
C1339 H1309 0.950 . S
C1339 C1334 1.363 . S
C1339 C1338 1.415 . S
H1340 C1337 0.999 . S
H1341 C1322 0.913 . S
H1342 C1360 0.951 . S
H1343 C1362 0.951 . S
H1344 C1364 0.950 . S
H1345 C1365 0.950 1_556 S
H1346 C1367 0.950 . S
H1347 C1370 0.950 . S
H1348 C1371 0.950 . S
H1349 C1373 0.950 . S
H1350 C1374 0.950 . S
H1351 C1375 0.951 . S
H1352 C1377 0.951 . S
H1353 C1379 0.950 . S
H1354 C1380 0.950 . S
H1355 C1382 0.950 . S
H1356 C1385 0.950 . S
H1357 C1386 0.950 . S
H1358 C1388 0.950 . S
H1359 C1389 0.950 . S
C1360 H1342 0.951 . S
C1360 C1361 1.366 . S
C1360 C1362 1.388 . S
C1361 C1360 1.366 . S
C1361 C1365 1.385 . S
C1362 H1343 0.951 . S
C1362 C1360 1.388 . S
C1362 C1363 1.366 1_554 S
C1363 C1362 1.366 1_556 S
C1363 C1364 1.414 . S
C1363 C1366 1.499 . S
C1364 H1344 0.950 . S
C1364 C1363 1.414 . S
C1364 C1365 1.374 1_556 S
C1365 H1345 0.950 1_554 S
C1365 C1361 1.385 . S
C1365 C1364 1.374 1_554 S
C1366 C1363 1.499 . S
C1366 C1367 1.373 . S
C1366 C1368 1.389 . S
C1367 H1346 0.950 . S
C1367 C1366 1.373 . S
C1367 C1383 1.377 . S
C1368 C1366 1.389 . S
C1368 C1369 1.524 1_556 S
C1368 C1382 1.377 . S
C1369 C1368 1.524 1_554 S
C1369 C1370 1.397 . S
C1369 C1374 1.363 . S
C1370 H1347 0.950 . S
C1370 C1369 1.397 . S
C1370 C1371 1.334 . S
C1371 H1348 0.950 . S
C1371 C1370 1.334 . S
C1371 C1372 1.287 . S
C1372 C1371 1.287 . S
C1372 C1373 1.524 . S
C1372 H1391 0.913 . S
C1373 H1349 0.950 . S
C1373 C1372 1.524 . S
C1373 C1374 1.415 . S
C1374 H1350 0.950 . S
C1374 C1369 1.363 . S
C1374 C1373 1.415 . S
C1375 H1351 0.951 . S
C1375 C1376 1.366 . S
C1375 C1377 1.388 . S
C1376 C1375 1.366 . S
C1376 C1380 1.385 . S
C1377 H1352 0.951 . S
C1377 C1375 1.388 . S
C1377 C1378 1.366 . S
C1378 C1377 1.366 . S
C1378 C1379 1.414 . S
C1378 C1381 1.499 . S
C1379 H1353 0.950 . S
C1379 C1378 1.414 . S
C1379 C1380 1.374 . S
C1380 H1354 0.950 . S
C1380 C1376 1.385 . S
C1380 C1379 1.374 . S
C1381 C1378 1.499 . S
C1381 C1382 1.373 . S
C1381 C1383 1.389 . S
C1382 H1355 0.950 . S
C1382 C1368 1.377 . S
C1382 C1381 1.373 . S
C1383 C1367 1.377 . S
C1383 C1381 1.389 . S
C1383 C1384 1.524 . S
C1384 C1383 1.524 . S
C1384 C1385 1.397 . S
C1384 C1389 1.363 . S
C1385 H1356 0.950 . S
C1385 C1384 1.397 . S
C1385 C1386 1.334 . S
C1386 H1357 0.950 . S
C1386 C1385 1.334 . S
C1386 C1387 1.287 . S
C1387 C1386 1.287 . S
C1387 C1388 1.524 . S
C1387 H1390 0.999 . S
C1388 H1358 0.950 . S
C1388 C1387 1.524 . S
C1388 C1389 1.415 . S
C1389 H1359 0.950 . S
C1389 C1384 1.363 . S
C1389 C1388 1.415 . S
H1390 C1387 0.999 . S
H1391 C1372 0.913 . S
H1392 C1410 0.951 . S
H1393 C1412 0.951 . S
H1394 C1414 0.950 . S
H1395 C1415 0.950 . S
H1396 C1417 0.950 . S
H1397 C1420 0.950 . S
H1398 C1421 0.950 . S
H1399 C1423 0.950 . S
H1400 C1424 0.950 . S
H1401 C1425 0.951 . S
H1402 C1427 0.951 . S
H1403 C1429 0.950 . S
H1404 C1430 0.950 1_455 S
H1405 C1432 0.950 . S
H1406 C1435 0.950 . S
H1407 C1436 0.950 . S
H1408 C1438 0.950 . S
H1409 C1439 0.950 . S
C1410 H1392 0.951 . S
C1410 C1411 1.366 . S
C1410 C1412 1.388 . S
C1411 C1410 1.366 . S
C1411 C1415 1.385 . S
C1412 H1393 0.951 . S
C1412 C1410 1.388 . S
C1412 C1413 1.366 . S
C1413 C1412 1.366 . S
C1413 C1414 1.414 . S
C1413 C1416 1.499 . S
C1414 H1394 0.950 . S
C1414 C1413 1.414 . S
C1414 C1415 1.374 . S
C1415 H1395 0.950 . S
C1415 C1411 1.385 . S
C1415 C1414 1.374 . S
C1416 C1413 1.499 . S
C1416 C1417 1.373 . S
C1416 C1418 1.389 . S
C1417 H1396 0.950 . S
C1417 C1416 1.373 . S
C1417 C1433 1.377 . S
C1418 C1416 1.389 . S
C1418 C1419 1.524 . S
C1418 C1432 1.377 . S
C1419 C1418 1.524 . S
C1419 C1420 1.397 . S
C1419 C1424 1.363 1_655 S
C1420 H1397 0.950 . S
C1420 C1419 1.397 . S
C1420 C1421 1.334 1_655 S
C1421 H1398 0.950 . S
C1421 C1420 1.334 1_455 S
C1421 C1422 1.287 . S
C1422 C1421 1.287 . S
C1422 C1423 1.524 . S
C1422 H1441 0.913 . S
C1423 H1399 0.950 . S
C1423 C1422 1.524 . S
C1423 C1424 1.415 . S
C1424 H1400 0.950 . S
C1424 C1419 1.363 1_455 S
C1424 C1423 1.415 . S
C1425 H1401 0.951 . S
C1425 C1426 1.366 . S
C1425 C1427 1.388 . S
C1426 C1425 1.366 . S
C1426 C1430 1.385 . S
C1427 H1402 0.951 . S
C1427 C1425 1.388 . S
C1427 C1428 1.366 . S
C1428 C1427 1.366 . S
C1428 C1429 1.414 . S
C1428 C1431 1.499 . S
C1429 H1403 0.950 . S
C1429 C1428 1.414 . S
C1429 C1430 1.374 . S
C1430 H1404 0.950 1_655 S
C1430 C1426 1.385 . S
C1430 C1429 1.374 . S
C1431 C1428 1.499 . S
C1431 C1432 1.373 . S
C1431 C1433 1.389 . S
C1432 H1405 0.950 . S
C1432 C1418 1.377 . S
C1432 C1431 1.373 . S
C1433 C1417 1.377 . S
C1433 C1431 1.389 . S
C1433 C1434 1.524 . S
C1434 C1433 1.524 . S
C1434 C1435 1.397 . S
C1434 C1439 1.363 . S
C1435 H1406 0.950 . S
C1435 C1434 1.397 . S
C1435 C1436 1.334 . S
C1436 H1407 0.950 . S
C1436 C1435 1.334 . S
C1436 C1437 1.287 . S
C1437 C1436 1.287 . S
C1437 C1438 1.524 . S
C1437 H1440 0.999 . S
C1438 H1408 0.950 . S
C1438 C1437 1.524 . S
C1438 C1439 1.415 . S
C1439 H1409 0.950 . S
C1439 C1434 1.363 . S
C1439 C1438 1.415 . S
H1440 C1437 0.999 . S
H1441 C1422 0.913 . S
H1442 C1460 0.951 . S
H1443 C1462 0.954 . S
H1444 C1464 0.950 . S
H1445 C1465 0.950 . S
H1446 C1467 0.950 . S
H1447 C1470 0.950 . S
H1448 C1471 0.950 . S
H1449 C1473 0.950 . S
H1450 C1474 0.950 . S
H1451 C1475 0.951 . S
H1452 C1477 0.951 . S
H1453 C1479 0.948 1_545 S
H1454 C1480 0.944 1_545 S
H1455 C1482 0.950 . S
H1456 C1485 0.950 . S
H1457 C1486 0.950 . S
H1458 C1488 0.950 . S
H1459 C1489 0.950 . S
C1460 H1442 0.951 . S
C1460 C1461 1.365 1_545 S
C1460 C1462 1.388 . S
C1461 C1460 1.365 1_565 S
C1461 C1465 1.385 . S
C1462 H1443 0.954 . S
C1462 C1460 1.388 . S
C1462 C1463 1.363 1_545 S
C1463 C1462 1.363 1_565 S
C1463 C1464 1.414 . S
C1463 C1466 1.499 . S
C1464 H1444 0.950 . S
C1464 C1463 1.414 . S
C1464 C1465 1.374 . S
C1465 H1445 0.950 . S
C1465 C1461 1.385 . S
C1465 C1464 1.374 . S
C1466 C1463 1.499 . S
C1466 C1467 1.373 1_565 S
C1466 C1468 1.389 . S
C1467 H1446 0.950 . S
C1467 C1466 1.373 1_545 S
C1467 C1483 1.377 . S
C1468 C1466 1.389 . S
C1468 C1469 1.524 . S
C1468 C1482 1.377 . S
C1469 C1468 1.524 . S
C1469 C1470 1.397 . S
C1469 C1474 1.363 . S
C1470 H1447 0.950 . S
C1470 C1469 1.397 . S
C1470 C1471 1.334 . S
C1471 H1448 0.950 . S
C1471 C1470 1.334 . S
C1471 C1472 1.287 . S
C1472 C1471 1.287 . S
C1472 C1473 1.524 . S
C1472 H1491 0.913 . S
C1473 H1449 0.950 . S
C1473 C1472 1.524 . S
C1473 C1474 1.415 . S
C1474 H1450 0.950 . S
C1474 C1469 1.363 . S
C1474 C1473 1.415 . S
C1475 H1451 0.951 . S
C1475 C1476 1.366 . S
C1475 C1477 1.388 . S
C1476 C1475 1.366 . S
C1476 C1480 1.391 . S
C1477 H1452 0.951 . S
C1477 C1475 1.388 . S
C1477 C1478 1.366 . S
C1478 C1477 1.366 . S
C1478 C1479 1.415 . S
C1478 C1481 1.498 . S
C1479 H1453 0.948 1_565 S
C1479 C1478 1.415 . S
C1479 C1480 1.376 . S
C1480 H1454 0.944 1_565 S
C1480 C1476 1.391 . S
C1480 C1479 1.376 . S
C1481 C1478 1.498 . S
C1481 C1482 1.407 . S
C1481 C1483 1.363 1_565 S
C1482 H1455 0.950 . S
C1482 C1468 1.377 . S
C1482 C1481 1.407 . S
C1483 C1467 1.377 . S
C1483 C1481 1.363 1_545 S
C1483 C1484 1.524 . S
C1484 C1483 1.524 . S
C1484 C1485 1.397 . S
C1484 C1489 1.363 . S
C1485 H1456 0.950 . S
C1485 C1484 1.397 . S
C1485 C1486 1.334 . S
C1486 H1457 0.950 . S
C1486 C1485 1.334 . S
C1486 C1487 1.287 . S
C1487 C1486 1.287 . S
C1487 C1488 1.524 . S
C1487 H1490 0.999 . S
C1488 H1458 0.950 . S
C1488 C1487 1.524 . S
C1488 C1489 1.415 . S
C1489 H1459 0.950 . S
C1489 C1484 1.363 . S
C1489 C1488 1.415 . S
H1490 C1487 0.999 . S
H1491 C1472 0.913 . S
H1492 C1510 0.951 . S
H1493 C1512 0.951 . S
H1494 C1514 0.950 . S
H1495 C1515 0.950 . S
H1496 C1517 0.950 . S
H1497 C1520 0.950 . S
H1498 C1521 0.950 . S
H1499 C1523 0.950 . S
H1500 C1524 0.950 . S
H1501 C1525 0.951 . S
H1502 C1527 0.951 . S
H1503 C1529 0.950 . S
H1504 C1530 0.950 . S
H1505 C1532 0.950 . S
H1506 C1535 0.950 . S
H1507 C1536 0.950 . S
H1508 C1538 0.950 . S
H1509 C1539 0.950 . S
C1510 H1492 0.951 . S
C1510 C1511 1.366 . S
C1510 C1512 1.388 . S
C1511 C1510 1.366 . S
C1511 C1515 1.385 . S
C1512 H1493 0.951 . S
C1512 C1510 1.388 . S
C1512 C1513 1.366 . S
C1513 C1512 1.366 . S
C1513 C1514 1.414 . S
C1513 C1516 1.499 . S
C1514 H1494 0.950 . S
C1514 C1513 1.414 . S
C1514 C1515 1.374 . S
C1515 H1495 0.950 . S
C1515 C1511 1.385 . S
C1515 C1514 1.374 . S
C1516 C1513 1.499 . S
C1516 C1517 1.373 . S
C1516 C1518 1.389 . S
C1517 H1496 0.950 . S
C1517 C1516 1.373 . S
C1517 C1533 1.377 . S
C1518 C1516 1.389 . S
C1518 C1519 1.524 . S
C1518 C1532 1.377 . S
C1519 C1518 1.524 . S
C1519 C1520 1.397 . S
C1519 C1524 1.363 . S
C1520 H1497 0.950 . S
C1520 C1519 1.397 . S
C1520 C1521 1.334 . S
C1521 H1498 0.950 . S
C1521 C1520 1.334 . S
C1521 C1522 1.287 . S
C1522 C1521 1.287 . S
C1522 C1523 1.524 . S
C1522 H1541 0.913 . S
C1523 H1499 0.950 . S
C1523 C1522 1.524 . S
C1523 C1524 1.415 . S
C1524 H1500 0.950 . S
C1524 C1519 1.363 . S
C1524 C1523 1.415 . S
C1525 H1501 0.951 . S
C1525 C1526 1.366 . S
C1525 C1527 1.388 . S
C1526 C1525 1.366 . S
C1526 C1530 1.385 . S
C1527 H1502 0.951 . S
C1527 C1525 1.388 . S
C1527 C1528 1.366 . S
C1528 C1527 1.366 . S
C1528 C1529 1.414 . S
C1528 C1531 1.499 . S
C1529 H1503 0.950 . S
C1529 C1528 1.414 . S
C1529 C1530 1.374 . S
C1530 H1504 0.950 . S
C1530 C1526 1.385 . S
C1530 C1529 1.374 . S
C1531 C1528 1.499 . S
C1531 C1532 1.373 . S
C1531 C1533 1.389 . S
C1532 H1505 0.950 . S
C1532 C1518 1.377 . S
C1532 C1531 1.373 . S
C1533 C1517 1.377 . S
C1533 C1531 1.389 . S
C1533 C1534 1.524 . S
C1534 C1533 1.524 . S
C1534 C1535 1.397 . S
C1534 C1539 1.363 . S
C1535 H1506 0.950 . S
C1535 C1534 1.397 . S
C1535 C1536 1.334 . S
C1536 H1507 0.950 . S
C1536 C1535 1.334 . S
C1536 C1537 1.287 . S
C1537 C1536 1.287 . S
C1537 C1538 1.524 . S
C1537 H1540 0.999 . S
C1538 H1508 0.950 . S
C1538 C1537 1.524 . S
C1538 C1539 1.415 . S
C1539 H1509 0.950 . S
C1539 C1534 1.363 . S
C1539 C1538 1.415 . S
H1540 C1537 0.999 . S
H1541 C1522 0.913 . S
H1542 C1560 0.951 . S
H1543 C1562 0.951 . S
H1544 C1564 0.950 . S
H1545 C1565 0.950 . S
H1546 C1567 0.950 . S
H1547 C1570 0.950 . S
H1548 C1571 0.950 . S
H1549 C1573 0.950 . S
H1550 C1574 0.950 . S
H1551 C1575 0.951 . S
H1552 C1577 0.951 . S
H1553 C1579 0.950 . S
H1554 C1580 0.950 . S
H1555 C1582 0.950 . S
H1556 C1585 0.950 . S
H1557 C1586 0.950 . S
H1558 C1588 0.950 . S
H1559 C1589 0.950 . S
C1560 H1542 0.951 . S
C1560 C1561 1.366 . S
C1560 C1562 1.388 . S
C1561 C1560 1.366 . S
C1561 C1565 1.385 . S
C1562 H1543 0.951 . S
C1562 C1560 1.388 . S
C1562 C1563 1.366 . S
C1563 C1562 1.366 . S
C1563 C1564 1.414 . S
C1563 C1566 1.499 . S
C1564 H1544 0.950 . S
C1564 C1563 1.414 . S
C1564 C1565 1.374 . S
C1565 H1545 0.950 . S
C1565 C1561 1.385 . S
C1565 C1564 1.374 . S
C1566 C1563 1.499 . S
C1566 C1567 1.373 . S
C1566 C1568 1.389 . S
C1567 H1546 0.950 . S
C1567 C1566 1.373 . S
C1567 C1583 1.377 . S
C1568 C1566 1.389 . S
C1568 C1569 1.524 . S
C1568 C1582 1.377 . S
C1569 C1568 1.524 . S
C1569 C1570 1.397 . S
C1569 C1574 1.363 . S
C1570 H1547 0.950 . S
C1570 C1569 1.397 . S
C1570 C1571 1.334 . S
C1571 H1548 0.950 . S
C1571 C1570 1.334 . S
C1571 C1572 1.287 . S
C1572 C1571 1.287 . S
C1572 C1573 1.524 . S
C1572 H1591 0.913 . S
C1573 H1549 0.950 . S
C1573 C1572 1.524 . S
C1573 C1574 1.415 . S
C1574 H1550 0.950 . S
C1574 C1569 1.363 . S
C1574 C1573 1.415 . S
C1575 H1551 0.951 . S
C1575 C1576 1.366 . S
C1575 C1577 1.388 . S
C1576 C1575 1.366 . S
C1576 C1580 1.385 . S
C1577 H1552 0.951 . S
C1577 C1575 1.388 . S
C1577 C1578 1.366 . S
C1578 C1577 1.366 . S
C1578 C1579 1.414 . S
C1578 C1581 1.499 . S
C1579 H1553 0.950 . S
C1579 C1578 1.414 . S
C1579 C1580 1.374 . S
C1580 H1554 0.950 . S
C1580 C1576 1.385 . S
C1580 C1579 1.374 . S
C1581 C1578 1.499 . S
C1581 C1582 1.373 . S
C1581 C1583 1.389 . S
C1582 H1555 0.950 . S
C1582 C1568 1.377 . S
C1582 C1581 1.373 . S
C1583 C1567 1.377 . S
C1583 C1581 1.389 . S
C1583 C1584 1.524 . S
C1584 C1583 1.524 . S
C1584 C1585 1.397 . S
C1584 C1589 1.363 . S
C1585 H1556 0.950 . S
C1585 C1584 1.397 . S
C1585 C1586 1.334 . S
C1586 H1557 0.950 . S
C1586 C1585 1.334 . S
C1586 C1587 1.287 . S
C1587 C1586 1.287 . S
C1587 C1588 1.524 . S
C1587 H1590 0.996 1_655 S
C1588 H1558 0.950 . S
C1588 C1587 1.524 . S
C1588 C1589 1.415 . S
C1589 H1559 0.950 . S
C1589 C1584 1.363 . S
C1589 C1588 1.415 . S
H1590 C1587 0.996 1_455 S
H1591 C1572 0.913 . S
C411 C215 1.769 1_565 S
C426 C273 1.802 . S
C476 C294 1.614 . S
C461 C247 1.607 . S
C526 C328 1.363 . S
C511 C151 1.313 . S
C576 C362 1.608 . S
C561 C183 1.611 . S
C626 C264 1.802 . S
C611 C87 1.765 1_556 S
C661 C119 1.532 . S
C676 C303 1.620 . S
C711 C23 1.355 . S
C726 C337 1.363 . S
C761 C55 1.517 . S
C776 C371 1.620 . S
C826 C285 0.410 . S
C811 C189 0.343 . S
C876 C290 0.213 . S
C861 C221 0.334 . S
C926 C324 0.313 . S
C911 C253 0.267 . S
C961 C157 0.561 . S
C976 C358 0.162 . S
C1011 C61 0.837 . S
C1026 C256 0.407 . S
C1076 C319 0.213 . S
C1061 C93 0.335 1_565 S
C1126 C353 0.314 . S
C1111 C125 0.538 . S
C1161 C29 0.212 . S
C1176 C387 0.162 . S
C1211 C177 1.507 . S
C1226 C269 1.530 . S
C1261 C209 1.873 . S
C1276 C298 1.947 . S
C1326 C332 1.688 . S
C1311 C241 1.650 . S
C1376 C366 1.700 . S
C1361 C145 1.587 . S
C1411 C49 1.431 . S
C1426 C260 1.538 . S
C1476 C307 1.947 . S
C1461 C81 1.873 1_565 S
C1526 C341 1.688 . S
C1511 C113 1.585 . S
C1561 C17 1.657 . S
C1576 C375 1.699 . S
