# Generated by pormake.
# Topology bwt, (3,3)-cn, num edge types: 1
# Building blocks:
#     Node 0, Type 0, BuildingBlock: WUSLED_clean_sbu_0, # of connection points: 3
#     Node 1, Type 0, BuildingBlock: WUSLED_clean_sbu_0, # of connection points: 3
#     Node 2, Type 0, BuildingBlock: WUSLED_clean_sbu_0, # of connection points: 3
#     Node 3, Type 0, BuildingBlock: WUSLED_clean_sbu_0, # of connection points: 3
#     Node 4, Type 0, BuildingBlock: WUSLED_clean_sbu_0, # of connection points: 3
#     Node 5, Type 0, BuildingBlock: WUSLED_clean_sbu_0, # of connection points: 3
#     Node 6, Type 0, BuildingBlock: WUSLED_clean_sbu_0, # of connection points: 3
#     Node 7, Type 0, BuildingBlock: WUSLED_clean_sbu_0, # of connection points: 3
#     Node 8, Type 0, BuildingBlock: WUSLED_clean_sbu_0, # of connection points: 3
#     Node 9, Type 0, BuildingBlock: WUSLED_clean_sbu_0, # of connection points: 3
#     Node 10, Type 0, BuildingBlock: WUSLED_clean_sbu_0, # of connection points: 3
#     Node 11, Type 0, BuildingBlock: WUSLED_clean_sbu_0, # of connection points: 3
#     Node 12, Type 0, BuildingBlock: WUSLED_clean_sbu_0, # of connection points: 3
#     Node 13, Type 0, BuildingBlock: WUSLED_clean_sbu_0, # of connection points: 3
#     Node 14, Type 0, BuildingBlock: WUSLED_clean_sbu_0, # of connection points: 3
#     Node 15, Type 0, BuildingBlock: WUSLED_clean_sbu_0, # of connection points: 3
#     Node 16, Type 0, BuildingBlock: WUSLED_clean_sbu_0, # of connection points: 3
#     Node 17, Type 0, BuildingBlock: WUSLED_clean_sbu_0, # of connection points: 3
#     Node 18, Type 0, BuildingBlock: WUSLED_clean_sbu_0, # of connection points: 3
#     Node 19, Type 0, BuildingBlock: WUSLED_clean_sbu_0, # of connection points: 3
#     Node 20, Type 0, BuildingBlock: WUSLED_clean_sbu_0, # of connection points: 3
#     Node 21, Type 0, BuildingBlock: WUSLED_clean_sbu_0, # of connection points: 3
#     Node 22, Type 0, BuildingBlock: WUSLED_clean_sbu_0, # of connection points: 3
#     Node 23, Type 0, BuildingBlock: WUSLED_clean_sbu_0, # of connection points: 3
#     Node 24, Type 1, BuildingBlock: KAKCAD_clean_linker_0, # of connection points: 3
#     Node 25, Type 1, BuildingBlock: KAKCAD_clean_linker_0, # of connection points: 3
#     Node 26, Type 1, BuildingBlock: KAKCAD_clean_linker_0, # of connection points: 3
#     Node 27, Type 1, BuildingBlock: KAKCAD_clean_linker_0, # of connection points: 3
#     Node 28, Type 1, BuildingBlock: KAKCAD_clean_linker_0, # of connection points: 3
#     Node 29, Type 1, BuildingBlock: KAKCAD_clean_linker_0, # of connection points: 3
#     Node 30, Type 1, BuildingBlock: KAKCAD_clean_linker_0, # of connection points: 3
#     Node 31, Type 1, BuildingBlock: KAKCAD_clean_linker_0, # of connection points: 3
#     Node 32, Type 1, BuildingBlock: KAKCAD_clean_linker_0, # of connection points: 3
#     Node 33, Type 1, BuildingBlock: KAKCAD_clean_linker_0, # of connection points: 3
#     Node 34, Type 1, BuildingBlock: KAKCAD_clean_linker_0, # of connection points: 3
#     Node 35, Type 1, BuildingBlock: KAKCAD_clean_linker_0, # of connection points: 3
#     Node 36, Type 1, BuildingBlock: KAKCAD_clean_linker_0, # of connection points: 3
#     Node 37, Type 1, BuildingBlock: KAKCAD_clean_linker_0, # of connection points: 3
#     Node 38, Type 1, BuildingBlock: KAKCAD_clean_linker_0, # of connection points: 3
#     Node 39, Type 1, BuildingBlock: KAKCAD_clean_linker_0, # of connection points: 3
#     Node 40, Type 1, BuildingBlock: KAKCAD_clean_linker_0, # of connection points: 3
#     Node 41, Type 1, BuildingBlock: KAKCAD_clean_linker_0, # of connection points: 3
#     Node 42, Type 1, BuildingBlock: KAKCAD_clean_linker_0, # of connection points: 3
#     Node 43, Type 1, BuildingBlock: KAKCAD_clean_linker_0, # of connection points: 3
#     Node 44, Type 1, BuildingBlock: KAKCAD_clean_linker_0, # of connection points: 3
#     Node 45, Type 1, BuildingBlock: KAKCAD_clean_linker_0, # of connection points: 3
#     Node 46, Type 1, BuildingBlock: KAKCAD_clean_linker_0, # of connection points: 3
#     Node 47, Type 1, BuildingBlock: KAKCAD_clean_linker_0, # of connection points: 3
#     Edge 48, Type (0, 1), BuildingBlock: TEMPAE_clean_linker_10, # of connection points: 2
#     Edge 49, Type (0, 1), BuildingBlock: TEMPAE_clean_linker_10, # of connection points: 2
#     Edge 50, Type (0, 1), BuildingBlock: TEMPAE_clean_linker_10, # of connection points: 2
#     Edge 51, Type (0, 1), BuildingBlock: TEMPAE_clean_linker_10, # of connection points: 2
#     Edge 52, Type (0, 1), BuildingBlock: TEMPAE_clean_linker_10, # of connection points: 2
#     Edge 53, Type (0, 1), BuildingBlock: TEMPAE_clean_linker_10, # of connection points: 2
#     Edge 54, Type (0, 1), BuildingBlock: TEMPAE_clean_linker_10, # of connection points: 2
#     Edge 55, Type (0, 1), BuildingBlock: TEMPAE_clean_linker_10, # of connection points: 2
#     Edge 56, Type (0, 1), BuildingBlock: TEMPAE_clean_linker_10, # of connection points: 2
#     Edge 57, Type (0, 1), BuildingBlock: TEMPAE_clean_linker_10, # of connection points: 2
#     Edge 58, Type (0, 1), BuildingBlock: TEMPAE_clean_linker_10, # of connection points: 2
#     Edge 59, Type (0, 1), BuildingBlock: TEMPAE_clean_linker_10, # of connection points: 2
#     Edge 60, Type (0, 1), BuildingBlock: TEMPAE_clean_linker_10, # of connection points: 2
#     Edge 61, Type (0, 1), BuildingBlock: TEMPAE_clean_linker_10, # of connection points: 2
#     Edge 62, Type (0, 1), BuildingBlock: TEMPAE_clean_linker_10, # of connection points: 2
#     Edge 63, Type (0, 1), BuildingBlock: TEMPAE_clean_linker_10, # of connection points: 2
#     Edge 64, Type (0, 1), BuildingBlock: TEMPAE_clean_linker_10, # of connection points: 2
#     Edge 65, Type (0, 1), BuildingBlock: TEMPAE_clean_linker_10, # of connection points: 2
#     Edge 66, Type (0, 1), BuildingBlock: TEMPAE_clean_linker_10, # of connection points: 2
#     Edge 67, Type (0, 1), BuildingBlock: TEMPAE_clean_linker_10, # of connection points: 2
#     Edge 68, Type (0, 1), BuildingBlock: TEMPAE_clean_linker_10, # of connection points: 2
#     Edge 69, Type (0, 1), BuildingBlock: TEMPAE_clean_linker_10, # of connection points: 2
#     Edge 70, Type (0, 1), BuildingBlock: TEMPAE_clean_linker_10, # of connection points: 2
#     Edge 71, Type (0, 1), BuildingBlock: TEMPAE_clean_linker_10, # of connection points: 2
#     Edge 72, Type (0, 1), BuildingBlock: TEMPAE_clean_linker_10, # of connection points: 2
#     Edge 73, Type (0, 1), BuildingBlock: TEMPAE_clean_linker_10, # of connection points: 2
#     Edge 74, Type (0, 1), BuildingBlock: TEMPAE_clean_linker_10, # of connection points: 2
#     Edge 75, Type (0, 1), BuildingBlock: TEMPAE_clean_linker_10, # of connection points: 2
#     Edge 76, Type (0, 1), BuildingBlock: TEMPAE_clean_linker_10, # of connection points: 2
#     Edge 77, Type (0, 1), BuildingBlock: TEMPAE_clean_linker_10, # of connection points: 2
#     Edge 78, Type (0, 1), BuildingBlock: TEMPAE_clean_linker_10, # of connection points: 2
#     Edge 79, Type (0, 1), BuildingBlock: TEMPAE_clean_linker_10, # of connection points: 2
#     Edge 80, Type (0, 1), BuildingBlock: TEMPAE_clean_linker_10, # of connection points: 2
#     Edge 81, Type (0, 1), BuildingBlock: TEMPAE_clean_linker_10, # of connection points: 2
#     Edge 82, Type (0, 1), BuildingBlock: TEMPAE_clean_linker_10, # of connection points: 2
#     Edge 83, Type (0, 1), BuildingBlock: TEMPAE_clean_linker_10, # of connection points: 2
#     Edge 84, Type (0, 1), BuildingBlock: TEMPAE_clean_linker_10, # of connection points: 2
#     Edge 85, Type (0, 1), BuildingBlock: TEMPAE_clean_linker_10, # of connection points: 2
#     Edge 86, Type (0, 1), BuildingBlock: TEMPAE_clean_linker_10, # of connection points: 2
#     Edge 87, Type (0, 1), BuildingBlock: TEMPAE_clean_linker_10, # of connection points: 2
#     Edge 88, Type (0, 1), BuildingBlock: TEMPAE_clean_linker_10, # of connection points: 2
#     Edge 89, Type (0, 1), BuildingBlock: TEMPAE_clean_linker_10, # of connection points: 2
#     Edge 90, Type (0, 1), BuildingBlock: TEMPAE_clean_linker_10, # of connection points: 2
#     Edge 91, Type (0, 1), BuildingBlock: TEMPAE_clean_linker_10, # of connection points: 2
#     Edge 92, Type (0, 1), BuildingBlock: TEMPAE_clean_linker_10, # of connection points: 2
#     Edge 93, Type (0, 1), BuildingBlock: TEMPAE_clean_linker_10, # of connection points: 2
#     Edge 94, Type (0, 1), BuildingBlock: TEMPAE_clean_linker_10, # of connection points: 2
#     Edge 95, Type (0, 1), BuildingBlock: TEMPAE_clean_linker_10, # of connection points: 2
#     Edge 96, Type (0, 1), BuildingBlock: TEMPAE_clean_linker_10, # of connection points: 2
#     Edge 97, Type (0, 1), BuildingBlock: TEMPAE_clean_linker_10, # of connection points: 2
#     Edge 98, Type (0, 1), BuildingBlock: TEMPAE_clean_linker_10, # of connection points: 2
#     Edge 99, Type (0, 1), BuildingBlock: TEMPAE_clean_linker_10, # of connection points: 2
#     Edge 100, Type (0, 1), BuildingBlock: TEMPAE_clean_linker_10, # of connection points: 2
#     Edge 101, Type (0, 1), BuildingBlock: TEMPAE_clean_linker_10, # of connection points: 2
#     Edge 102, Type (0, 1), BuildingBlock: TEMPAE_clean_linker_10, # of connection points: 2
#     Edge 103, Type (0, 1), BuildingBlock: TEMPAE_clean_linker_10, # of connection points: 2
#     Edge 104, Type (0, 1), BuildingBlock: TEMPAE_clean_linker_10, # of connection points: 2
#     Edge 105, Type (0, 1), BuildingBlock: TEMPAE_clean_linker_10, # of connection points: 2
#     Edge 106, Type (0, 1), BuildingBlock: TEMPAE_clean_linker_10, # of connection points: 2
#     Edge 107, Type (0, 1), BuildingBlock: TEMPAE_clean_linker_10, # of connection points: 2
#     Edge 108, Type (0, 1), BuildingBlock: TEMPAE_clean_linker_10, # of connection points: 2
#     Edge 109, Type (0, 1), BuildingBlock: TEMPAE_clean_linker_10, # of connection points: 2
#     Edge 110, Type (0, 1), BuildingBlock: TEMPAE_clean_linker_10, # of connection points: 2
#     Edge 111, Type (0, 1), BuildingBlock: TEMPAE_clean_linker_10, # of connection points: 2
#     Edge 112, Type (0, 1), BuildingBlock: TEMPAE_clean_linker_10, # of connection points: 2
#     Edge 113, Type (0, 1), BuildingBlock: TEMPAE_clean_linker_10, # of connection points: 2
#     Edge 114, Type (0, 1), BuildingBlock: TEMPAE_clean_linker_10, # of connection points: 2
#     Edge 115, Type (0, 1), BuildingBlock: TEMPAE_clean_linker_10, # of connection points: 2
#     Edge 116, Type (0, 1), BuildingBlock: TEMPAE_clean_linker_10, # of connection points: 2
#     Edge 117, Type (0, 1), BuildingBlock: TEMPAE_clean_linker_10, # of connection points: 2
#     Edge 118, Type (0, 1), BuildingBlock: TEMPAE_clean_linker_10, # of connection points: 2
#     Edge 119, Type (0, 1), BuildingBlock: TEMPAE_clean_linker_10, # of connection points: 2
# Relax obj value: 0.224
# Max RMSD: 0.277
# Mean RMSD: 0.140
data_MOF--net-bwt--node1-WUSLED_clean_sbu_0--node2-KAKCAD_clean_linker_0--edge1-TEMPAE_clean_linker_10
_symmetry_space_group_name_H-M    P1
_symmetry_Int_Tables_number       1
_symmetry_cell_setting            triclinic
loop_
_symmetry_equiv_pos_as_xyz
'x, y, z'
_cell_length_a     80.274758
_cell_length_b     80.390521
_cell_length_c     80.207557
_cell_angle_alpha  90.220903
_cell_angle_beta   90.209833
_cell_angle_gamma 90.247609
loop_
_atom_site_label
_atom_site_type_symbol
_atom_site_fract_x
_atom_site_fract_y
_atom_site_fract_z
_atom_type_partial_charge
C0 C 0.31487 0.63981 0.43291 0.0
C1 C 0.32087 0.62988 0.41983 0.0
C2 C 0.34434 0.64924 0.41462 0.0
C3 C 0.33524 0.63447 0.41086 0.0
C4 C 0.33899 0.65821 0.42889 0.0
C5 C 0.32479 0.6534 0.43795 0.0
U6 U 0.26622 0.6367 0.44503 0.0
O7 O 0.25034 0.63368 0.42262 0.0
O8 O 0.25362 0.65823 0.43381 0.0
C9 C 0.24582 0.64938 0.42246 0.0
C10 C 0.29921 0.63558 0.44225 0.0
C11 C 0.2279 0.65359 0.41905 0.0
C12 C 0.20736 0.67504 0.41217 0.0
C13 C 0.22305 0.67041 0.41838 0.0
C14 C 0.20022 0.64608 0.40823 0.0
C15 C 0.19585 0.66296 0.40681 0.0
C16 C 0.21609 0.64144 0.41418 0.0
C17 C 0.25713 0.61826 0.48866 0.0
C18 C 0.24926 0.61257 0.51724 0.0
C19 C 0.27428 0.60029 0.5058 0.0
C20 C 0.27133 0.60834 0.49063 0.0
C21 C 0.26309 0.60209 0.51917 0.0
C22 C 0.24631 0.62054 0.50211 0.0
C23 C 0.25265 0.62567 0.47257 0.0
O24 O 0.29106 0.64783 0.44937 0.0
O25 O 0.28916 0.62389 0.4365 0.0
O26 O 0.25486 0.61635 0.45926 0.0
O27 O 0.25704 0.64127 0.47045 0.0
H28 H 0.31421 0.6187 0.41617 0.0
H29 H 0.33855 0.62645 0.40062 0.0
H30 H 0.34558 0.66902 0.43343 0.0
H31 H 0.3213 0.66065 0.44876 0.0
H32 H 0.20435 0.68812 0.41116 0.0
H33 H 0.23172 0.68014 0.42196 0.0
H34 H 0.19152 0.6365 0.4043 0.0
H35 H 0.21927 0.62837 0.41446 0.0
H36 H 0.2406 0.61451 0.52738 0.0
H37 H 0.28501 0.59223 0.50685 0.0
H38 H 0.27988 0.60651 0.48037 0.0
H39 H 0.23534 0.62825 0.50081 0.0
C40 C 0.21297 0.30517 0.62452 0.0
C41 C 0.20518 0.31755 0.63404 0.0
C42 C 0.17833 0.30405 0.62976 0.0
C43 C 0.18799 0.31704 0.63658 0.0
C44 C 0.18619 0.29163 0.62027 0.0
C45 C 0.2034 0.29223 0.61763 0.0
U46 U 0.25462 0.32327 0.6365 0.0
O47 O 0.27834 0.312 0.64296 0.0
O48 O 0.27698 0.32883 0.62133 0.0
C49 C 0.28624 0.31889 0.63043 0.0
C50 C 0.2311 0.30547 0.62229 0.0
C51 C 0.29877 0.30846 0.62227 0.0
C52 C 0.31327 0.28226 0.62503 0.0
C53 C 0.29836 0.29109 0.62418 0.0
C54 C 0.32862 0.30743 0.61866 0.0
C55 C 0.32854 0.29077 0.62392 0.0
C56 C 0.31373 0.31625 0.61785 0.0
C57 C 0.25653 0.35602 0.67063 0.0
C58 C 0.2827 0.36847 0.67982 0.0
C59 C 0.25703 0.37469 0.69437 0.0
C60 C 0.24826 0.36425 0.68353 0.0
C61 C 0.27428 0.37713 0.69251 0.0
C62 C 0.27386 0.35798 0.66891 0.0
C63 C 0.2469 0.34515 0.65942 0.0
O64 O 0.23711 0.31921 0.61573 0.0
O65 O 0.23968 0.3003 0.63525 0.0
O66 O 0.24836 0.32919 0.66246 0.0
O67 O 0.24758 0.34878 0.64346 0.0
H68 H 0.21243 0.32755 0.6396 0.0
H69 H 0.18229 0.32664 0.64413 0.0
H70 H 0.179 0.28155 0.61481 0.0
H71 H 0.20926 0.28255 0.6103 0.0
H72 H 0.31291 0.26927 0.62859 0.0
H73 H 0.28685 0.28476 0.62727 0.0
H74 H 0.34019 0.31431 0.61751 0.0
H75 H 0.31426 0.32961 0.61616 0.0
H76 H 0.29599 0.37008 0.67815 0.0
H77 H 0.25029 0.38087 0.70428 0.0
H78 H 0.23496 0.36261 0.6852 0.0
H79 H 0.28048 0.35149 0.65912 0.0
C80 C 0.79793 0.00849 0.62902 0.0
C81 C 0.80885 0.00708 0.61542 0.0
C82 C 0.83268 0.01112 0.63392 0.0
C83 C 0.82609 0.00839 0.61785 0.0
C84 C 0.8217 0.01147 0.64757 0.0
C85 C 0.80449 0.01022 0.64512 0.0
U86 U 0.75991 0.00288 0.60136 0.0
O87 O 0.73354 0.99717 0.60668 0.0
O88 O 0.74043 0.02068 0.59447 0.0
C89 C 0.72837 0.01131 0.60031 0.0
C90 C 0.7798 0.0098 0.62643 0.0
C91 C 0.71471 0.02012 0.60866 0.0
C92 C 0.70114 0.03243 0.63278 0.0
C93 C 0.71451 0.02358 0.62583 0.0
C94 C 0.6884 0.03445 0.60544 0.0
C95 C 0.68789 0.03797 0.62262 0.0
C96 C 0.70156 0.02556 0.59862 0.0
C97 C 0.76663 0.98556 0.55763 0.0
C98 C 0.74437 0.98019 0.5377 0.0
C99 C 0.77229 0.98625 0.528 0.0
C100 C 0.7778 0.9875 0.54444 0.0
C101 C 0.75547 0.98274 0.52435 0.0
C102 C 0.74987 0.98177 0.55422 0.0
C103 C 0.77256 0.98922 0.57458 0.0
O104 O 0.77533 0.02078 0.6152 0.0
O105 O 0.77145 0.99571 0.6253 0.0
O106 O 0.76609 0.98046 0.58679 0.0
O107 O 0.77377 0.00516 0.57798 0.0
H108 H 0.804 0.00568 0.60287 0.0
H109 H 0.83418 0.00811 0.60708 0.0
H110 H 0.82639 0.01322 0.66013 0.0
H111 H 0.79627 0.01123 0.65575 0.0
H112 H 0.70114 0.03483 0.64607 0.0
H113 H 0.72464 0.01952 0.63377 0.0
H114 H 0.67877 0.03886 0.59708 0.0
H115 H 0.70158 0.02311 0.58532 0.0
H116 H 0.73139 0.97721 0.53543 0.0
H117 H 0.78118 0.98872 0.5182 0.0
H118 H 0.79073 0.99064 0.54686 0.0
H119 H 0.74099 0.9804 0.56426 0.0
C120 C 0.68187 0.9286 0.36872 0.0
C121 C 0.67004 0.94146 0.36923 0.0
C122 C 0.64753 0.92125 0.37199 0.0
C123 C 0.65299 0.93779 0.37037 0.0
C124 C 0.65946 0.90854 0.37252 0.0
C125 C 0.67637 0.91216 0.37074 0.0
U126 U 0.72723 0.94375 0.35409 0.0
O127 O 0.74635 0.95154 0.37226 0.0
O128 O 0.74894 0.92788 0.35881 0.0
C129 C 0.75569 0.93849 0.36934 0.0
C130 C 0.70007 0.93157 0.36794 0.0
C131 C 0.77357 0.94157 0.36719 0.0
C132 C 0.80178 0.93439 0.3751 0.0
C133 C 0.78465 0.93276 0.37731 0.0
C134 C 0.79706 0.95426 0.35292 0.0
C135 C 0.80815 0.94495 0.36276 0.0
C136 C 0.7798 0.95249 0.35505 0.0
C137 C 0.72054 0.96777 0.31101 0.0
C138 C 0.72156 0.99025 0.2908 0.0
C139 C 0.70463 0.96583 0.28523 0.0
C140 C 0.70962 0.95897 0.30044 0.0
C141 C 0.71099 0.98128 0.28008 0.0
C142 C 0.72613 0.98362 0.30621 0.0
C143 C 0.72843 0.96008 0.32572 0.0
O144 O 0.70875 0.9235 0.35666 0.0
O145 O 0.70599 0.94645 0.37129 0.0
O146 O 0.72906 0.94376 0.32668 0.0
O147 O 0.72664 0.96744 0.3402 0.0
H148 H 0.67381 0.95432 0.36881 0.0
H149 H 0.64409 0.94788 0.37024 0.0
H150 H 0.65573 0.89571 0.37393 0.0
H151 H 0.68521 0.90202 0.37099 0.0
H152 H 0.81009 0.92722 0.38292 0.0
H153 H 0.78003 0.92435 0.38677 0.0
H154 H 0.80173 0.96242 0.34328 0.0
H155 H 0.77136 0.95937 0.3471 0.0
H156 H 0.72666 1.00216 0.28703 0.0
H157 H 0.69659 0.95864 0.27703 0.0
H158 H 0.7055 0.94653 0.30356 0.0
H159 H 0.73479 0.99053 0.31403 0.0
C160 C 0.42665 0.30942 0.64398 0.0
C161 C 0.41763 0.31867 0.6321 0.0
C162 C 0.41034 0.33999 0.65288 0.0
C163 C 0.40952 0.33364 0.63648 0.0
C164 C 0.42033 0.33141 0.66444 0.0
C165 C 0.42865 0.31664 0.65993 0.0
U166 U 0.44447 0.26131 0.63796 0.0
O167 O 0.43987 0.24467 0.6596 0.0
O168 O 0.42568 0.24113 0.63636 0.0
C169 C 0.42825 0.23619 0.65176 0.0
C170 C 0.43455 0.29289 0.63943 0.0
C171 C 0.423 0.21916 0.65735 0.0
C172 C 0.40831 0.20277 0.67848 0.0
C173 C 0.41658 0.21736 0.67358 0.0
C174 C 0.41443 0.19036 0.65175 0.0
C175 C 0.40698 0.1891 0.66762 0.0
C176 C 0.42208 0.20533 0.64654 0.0
C177 C 0.48821 0.25844 0.61525 0.0
C178 C 0.51244 0.24855 0.6004 0.0
C179 C 0.50919 0.27807 0.60585 0.0
C180 C 0.4941 0.27486 0.61405 0.0
C181 C 0.51829 0.26489 0.59881 0.0
C182 C 0.49756 0.24537 0.60859 0.0
C183 C 0.47285 0.25387 0.62388 0.0
O184 O 0.44466 0.28586 0.65001 0.0
O185 O 0.42912 0.28253 0.62784 0.0
O186 O 0.45872 0.2544 0.61555 0.0
O187 O 0.47156 0.25806 0.63966 0.0
H188 H 0.4165 0.3141 0.61943 0.0
H189 H 0.40219 0.34 0.62713 0.0
H190 H 0.42171 0.33614 0.67703 0.0
H191 H 0.43652 0.31081 0.6691 0.0
H192 H 0.40288 0.2022 0.69082 0.0
H193 H 0.41708 0.22771 0.68226 0.0
H194 H 0.41377 0.17996 0.64314 0.0
H195 H 0.42693 0.20619 0.63399 0.0
H196 H 0.51936 0.23824 0.59519 0.0
H197 H 0.51357 0.29078 0.60467 0.0
H198 H 0.48708 0.28507 0.61933 0.0
H199 H 0.49329 0.23261 0.6097 0.0
C200 C 0.37198 0.68268 0.93057 0.0
C201 C 0.3711 0.67042 0.94298 0.0
C202 C 0.37806 0.64898 0.92277 0.0
C203 C 0.37349 0.65367 0.93899 0.0
C204 C 0.38071 0.66143 0.91081 0.0
C205 C 0.37725 0.67804 0.91457 0.0
U206 U 0.35381 0.72683 0.94599 0.0
O207 O 0.37132 0.74656 0.95379 0.0
O208 O 0.35734 0.74894 0.93037 0.0
C209 C 0.36771 0.75601 0.94098 0.0
C210 C 0.3692 0.70055 0.93394 0.0
C211 C 0.36485 0.77369 0.94466 0.0
C212 C 0.37606 0.80175 0.94579 0.0
C213 C 0.37838 0.78468 0.94373 0.0
C214 C 0.34658 0.79705 0.95032 0.0
C215 C 0.3601 0.80819 0.94884 0.0
C216 C 0.34895 0.7799 0.94828 0.0
C217 C 0.311 0.71951 0.97082 0.0
C218 C 0.28946 0.72345 0.99174 0.0
C219 C 0.28604 0.70241 0.97026 0.0
C220 C 0.30163 0.70656 0.96367 0.0
C221 C 0.27966 0.71121 0.98398 0.0
C222 C 0.30504 0.72755 0.98519 0.0
C223 C 0.32556 0.72686 0.96248 0.0
O224 O 0.37175 0.70636 0.94903 0.0
O225 O 0.35752 0.7085 0.92568 0.0
O226 O 0.32633 0.72683 0.9461 0.0
O227 O 0.34008 0.72603 0.96984 0.0
H228 H 0.36851 0.67357 0.95571 0.0
H229 H 0.37178 0.64436 0.94857 0.0
H230 H 0.38452 0.65825 0.89827 0.0
H231 H 0.37875 0.68733 0.90492 0.0
H232 H 0.38669 0.80996 0.94438 0.0
H233 H 0.39074 0.78007 0.94095 0.0
H234 H 0.33417 0.80163 0.95287 0.0
H235 H 0.33836 0.77155 0.94919 0.0
H236 H 0.28463 0.73054 1.00216 0.0
H237 H 0.27857 0.69293 0.96412 0.0
H238 H 0.30584 0.70034 0.95249 0.0
H239 H 0.31199 0.73775 0.99076 0.0
C240 C 0.62016 0.20736 0.31138 0.0
C241 C 0.6317 0.20095 0.32277 0.0
C242 C 0.62996 0.17422 0.30872 0.0
C243 C 0.63648 0.18433 0.32152 0.0
C244 C 0.61843 0.18075 0.29739 0.0
C245 C 0.61352 0.19724 0.29876 0.0
U246 U 0.6268 0.25379 0.32167 0.0
O247 O 0.60818 0.27393 0.32332 0.0
O248 O 0.624 0.27103 0.30113 0.0
C249 C 0.61201 0.27938 0.30835 0.0
C250 C 0.61616 0.22491 0.31098 0.0
C251 C 0.61349 0.29707 0.30566 0.0
C252 C 0.61407 0.31825 0.2844 0.0
C253 C 0.60836 0.30298 0.29005 0.0
C254 C 0.62855 0.32251 0.31077 0.0
C255 C 0.62462 0.32773 0.29456 0.0
C256 C 0.62316 0.30703 0.31628 0.0
C257 C 0.66511 0.26501 0.35157 0.0
C258 C 0.67336 0.28808 0.36966 0.0
C259 C 0.69112 0.26394 0.36709 0.0
C260 C 0.67987 0.25683 0.35583 0.0
C261 C 0.68789 0.27948 0.37447 0.0
C262 C 0.66197 0.28084 0.35835 0.0
C263 C 0.65281 0.25556 0.34157 0.0
O264 O 0.61067 0.2318 0.32481 0.0
O265 O 0.62717 0.23397 0.30307 0.0
O266 O 0.65409 0.25559 0.32522 0.0
O267 O 0.63736 0.25498 0.34696 0.0
H268 H 0.63718 0.20883 0.33233 0.0
H269 H 0.64553 0.17947 0.33028 0.0
H270 H 0.61322 0.17309 0.2875 0.0
H271 H 0.6048 0.20222 0.28973 0.0
H272 H 0.61085 0.32235 0.27195 0.0
H273 H 0.60106 0.29519 0.28169 0.0
H274 H 0.63662 0.32996 0.31872 0.0
H275 H 0.62742 0.30243 0.32823 0.0
H276 H 0.67052 0.30009 0.37507 0.0
H277 H 0.70233 0.25712 0.37013 0.0
H278 H 0.6825 0.24459 0.35081 0.0
H279 H 0.6506 0.28736 0.35526 0.0
C280 C 0.62553 0.79691 0.00855 0.0
C281 C 0.61162 0.8071 0.0058 0.0
C282 C 0.62866 0.83188 0.01043 0.0
C283 C 0.61316 0.82444 0.00675 0.0
C284 C 0.64266 0.82158 0.01247 0.0
C285 C 0.64109 0.80427 0.01155 0.0
U286 U 0.59911 0.75818 1.00284 0.0
O287 O 0.60512 0.73229 0.99585 0.0
O288 O 0.59362 0.73779 0.02008 0.0
C289 C 0.59954 0.72634 0.01003 0.0
C290 C 0.62369 0.7787 0.00964 0.0
C291 C 0.60898 0.71291 0.01801 0.0
C292 C 0.63135 0.70283 0.03578 0.0
C293 C 0.62409 0.7157 0.02648 0.0
C294 C 0.60867 0.6844 0.02782 0.0
C295 C 0.62344 0.68724 0.03675 0.0
C296 C 0.60155 0.69712 0.01847 0.0
C297 C 0.55495 0.76357 0.98652 0.0
C298 C 0.53512 0.74071 0.98696 0.0
C299 C 0.52557 0.76887 0.98221 0.0
C300 C 0.54196 0.77462 0.98321 0.0
C301 C 0.52188 0.75189 0.98444 0.0
C302 C 0.55153 0.74653 0.98811 0.0
C303 C 0.57159 0.77027 0.99014 0.0
O304 O 0.61289 0.77365 0.02081 0.0
O305 O 0.62246 0.77062 0.99538 0.0
O306 O 0.58385 0.76461 0.98092 0.0
O307 O 0.57526 0.77094 0.00609 0.0
H308 H 0.59948 0.80162 1.00341 0.0
H309 H 0.60218 0.832 0.00491 0.0
H310 H 0.65474 0.82685 0.01551 0.0
H311 H 0.65194 0.7966 0.01374 0.0
H312 H 0.64272 0.70522 0.04272 0.0
H313 H 0.62992 0.72788 0.02635 0.0
H314 H 0.60238 0.67247 0.0285 0.0
H315 H 0.58984 0.69479 0.0121 0.0
H316 H 0.53278 0.72752 0.98843 0.0
H317 H 0.51573 0.77788 0.98047 0.0
H318 H 0.54442 0.78784 0.98209 0.0
H319 H 0.56146 0.73783 0.99077 0.0
C320 C 0.64759 0.43288 0.31088 0.0
C321 C 0.64547 0.4404 0.32667 0.0
C322 C 0.65549 0.41529 0.3415 0.0
C323 C 0.64919 0.43177 0.34168 0.0
C324 C 0.6579 0.40813 0.32567 0.0
C325 C 0.65367 0.41664 0.31098 0.0
U326 U 0.64382 0.44935 0.26215 0.0
O327 O 0.66543 0.44225 0.24581 0.0
O328 O 0.64098 0.42999 0.24303 0.0
C329 C 0.65652 0.43078 0.2381 0.0
C330 C 0.64339 0.4422 0.29487 0.0
C331 C 0.66115 0.42354 0.22159 0.0
C332 C 0.67896 0.40442 0.20604 0.0
C333 C 0.67519 0.41324 0.22068 0.0
C334 C 0.65484 0.41628 0.19257 0.0
C335 C 0.66889 0.40574 0.19165 0.0
C336 C 0.65094 0.42493 0.20738 0.0
C337 C 0.62067 0.49175 0.25597 0.0
C338 C 0.60555 0.5156 0.24581 0.0
C339 C 0.60891 0.51135 0.27557 0.0
C340 C 0.61792 0.49682 0.27245 0.0
C341 C 0.60254 0.52082 0.26224 0.0
C342 C 0.61459 0.50123 0.24274 0.0
C343 C 0.62966 0.47665 0.25177 0.0
O344 O 0.65474 0.45144 0.28765 0.0
O345 O 0.63272 0.43603 0.28396 0.0
O346 O 0.62155 0.46253 0.25343 0.0
O347 O 0.6454 0.47594 0.25624 0.0
H348 H 0.64073 0.45296 0.32745 0.0
H349 H 0.64687 0.43803 0.35339 0.0
H350 H 0.66313 0.39582 0.32439 0.0
H351 H 0.65519 0.41027 0.29964 0.0
H352 H 0.68959 0.3962 0.20624 0.0
H353 H 0.68301 0.41153 0.23158 0.0
H354 H 0.64681 0.41791 0.18183 0.0
H355 H 0.63986 0.43256 0.20777 0.0
H356 H 0.60062 0.5224 0.23527 0.0
H357 H 0.60696 0.51519 0.28837 0.0
H358 H 0.62266 0.48956 0.28278 0.0
H359 H 0.61668 0.4974 0.22994 0.0
C360 C 0.92977 0.36879 0.68129 0.0
C361 C 0.94257 0.36988 0.66938 0.0
C362 C 0.92217 0.37206 0.64695 0.0
C363 C 0.93878 0.3709 0.65234 0.0
C364 C 0.90949 0.37251 0.65895 0.0
C365 C 0.91324 0.37067 0.67588 0.0
U366 U 0.9452 0.35322 0.72658 0.0
O367 O 0.95289 0.37135 0.74583 0.0
O368 O 0.92921 0.35789 0.74823 0.0
C369 C 0.9398 0.36835 0.75513 0.0
C370 C 0.93298 0.36728 0.69948 0.0
C371 C 0.94291 0.36602 0.77303 0.0
C372 C 0.94158 0.37742 0.80103 0.0
C373 C 0.94022 0.37945 0.78381 0.0
C374 C 0.94893 0.34849 0.7969 0.0
C375 C 0.94573 0.36187 0.80783 0.0
C376 C 0.94752 0.35055 0.77961 0.0
C377 C 0.96968 0.30945 0.72301 0.0
C378 C 0.98113 0.28248 0.73044 0.0
C379 C 0.97995 0.29081 0.7015 0.0
C380 C 0.97327 0.30611 0.70628 0.0
C381 C 0.98364 0.27875 0.71354 0.0
C382 C 0.97408 0.29768 0.73511 0.0
C383 C 0.9615 0.32491 0.72852 0.0
O384 O 0.92493 0.35586 0.708 0.0
O385 O 0.94793 0.37043 0.70535 0.0
O386 O 0.94514 0.32576 0.72871 0.0
O387 O 0.96885 0.33922 0.72578 0.0
H388 H 0.95546 0.3699 0.67305 0.0
H389 H 0.94884 0.3709 0.64337 0.0
H390 H 0.89659 0.3736 0.65522 0.0
H391 H 0.90313 0.3706 0.6848 0.0
H392 H 0.9388 0.38792 0.80903 0.0
H393 H 0.93661 0.39146 0.77892 0.0
H394 H 0.95237 0.33641 0.80172 0.0
H395 H 0.94971 0.34004 0.77142 0.0
H396 H 0.98388 0.27336 0.73996 0.0
H397 H 0.98198 0.28828 0.68838 0.0
H398 H 0.97078 0.31512 0.69691 0.0
H399 H 0.97177 0.30012 0.7482 0.0
C400 C 0.3034 0.62436 0.21525 0.0
C401 C 0.3144 0.63638 0.20895 0.0
C402 C 0.30415 0.63118 0.1808 0.0
C403 C 0.31476 0.63978 0.19189 0.0
C404 C 0.29323 0.61903 0.18719 0.0
C405 C 0.29287 0.61566 0.2043 0.0
U406 U 0.32003 0.63438 0.25779 0.0
O407 O 0.30821 0.64176 0.28098 0.0
O408 O 0.32341 0.619 0.28049 0.0
C409 C 0.31372 0.62883 0.28926 0.0
C410 C 0.30263 0.62139 0.23329 0.0
C411 C 0.30192 0.62159 0.30119 0.0
C412 C 0.27473 0.62626 0.31338 0.0
C413 C 0.28472 0.62433 0.29929 0.0
C414 C 0.29818 0.61915 0.33101 0.0
C415 C 0.28185 0.62509 0.3293 0.0
C416 C 0.30821 0.6174 0.31694 0.0
C417 C 0.35421 0.66769 0.25959 0.0
C418 C 0.36887 0.67681 0.28462 0.0
C419 C 0.37068 0.69297 0.25923 0.0
C420 C 0.36029 0.6816 0.25114 0.0
C421 C 0.37536 0.6906 0.27597 0.0
C422 C 0.35831 0.66543 0.27647 0.0
C423 C 0.34315 0.65622 0.25051 0.0
O424 O 0.31579 0.61408 0.23973 0.0
O425 O 0.29756 0.63422 0.24208 0.0
O426 O 0.32727 0.65989 0.25138 0.0
O427 O 0.3462 0.64022 0.25202 0.0
H428 H 0.32258 0.64328 0.21727 0.0
H429 H 0.32315 0.64936 0.18744 0.0
H430 H 0.28505 0.61206 0.17896 0.0
H431 H 0.28432 0.60634 0.20899 0.0
H432 H 0.26214 0.63083 0.31188 0.0
H433 H 0.27954 0.62739 0.2872 0.0
H434 H 0.30389 0.61824 0.34324 0.0
H435 H 0.32142 0.61518 0.31866 0.0
H436 H 0.37218 0.67467 0.29753 0.0
H437 H 0.37502 0.7037 0.25234 0.0
H438 H 0.35695 0.68371 0.23821 0.0
H439 H 0.35343 0.65487 0.28328 0.0
C440 C 0.00954 0.6274 0.79667 0.0
C441 C 0.00658 0.61416 0.80769 0.0
C442 C 0.01268 0.63225 0.8314 0.0
C443 C 0.00809 0.61658 0.82495 0.0
C444 C 0.01474 0.64562 0.82031 0.0
C445 C 0.0132 0.6432 0.80312 0.0
U446 U 0.0038 0.59961 0.75853 0.0
O447 O 0.99702 0.60521 0.73244 0.0
O448 O 0.02122 0.59389 0.73833 0.0
C449 C 0.01125 0.59957 0.72668 0.0
C450 C 0.01048 0.62466 0.77854 0.0
C451 C 0.0193 0.60872 0.71306 0.0
C452 C 0.03628 0.63137 0.70229 0.0
C453 C 0.02703 0.62429 0.71533 0.0
C454 C 0.02982 0.60754 0.68478 0.0
C455 C 0.038 0.6228 0.68708 0.0
C456 C 0.02049 0.60062 0.69763 0.0
C457 C 0.98749 0.55544 0.76481 0.0
C458 C 0.98471 0.5355 0.74212 0.0
C459 C 0.98558 0.52595 0.77072 0.0
C460 C 0.98686 0.54238 0.77625 0.0
C461 C 0.98473 0.52223 0.75357 0.0
C462 C 0.98623 0.55197 0.74769 0.0
C463 C 0.99111 0.57227 0.77102 0.0
O464 O 0.02162 0.61368 0.77388 0.0
O465 O 0.99621 0.62313 0.77054 0.0
O466 O 0.9819 0.58439 0.76508 0.0
O467 O 0.00704 0.57599 0.77171 0.0
H468 H 0.00375 0.60184 0.80291 0.0
H469 H 0.00648 0.60605 0.83318 0.0
H470 H 0.01803 0.65789 0.82493 0.0
H471 H 0.01548 0.65356 0.79482 0.0
H472 H 0.04263 0.64314 0.70429 0.0
H473 H 0.02633 0.63065 0.72723 0.0
H474 H 0.03102 0.60076 0.67314 0.0
H475 H 0.01467 0.58857 0.69569 0.0
H476 H 0.9838 0.53318 0.72884 0.0
H477 H 0.98598 0.51617 0.77995 0.0
H478 H 0.988 0.54484 0.7895 0.0
H479 H 0.98682 0.56194 0.73864 0.0
C480 C 0.69286 0.3638 0.57741 0.0
C481 C 0.67695 0.36398 0.5699 0.0
C482 C 0.6635 0.35295 0.59526 0.0
C483 C 0.66253 0.35883 0.57867 0.0
C484 C 0.67945 0.35274 0.60263 0.0
C485 C 0.69359 0.35846 0.59406 0.0
U486 U 0.74117 0.37133 0.56395 0.0
O487 O 0.75742 0.35084 0.57294 0.0
O488 O 0.75709 0.37467 0.58637 0.0
C489 C 0.76318 0.35954 0.58563 0.0
C490 C 0.70793 0.36979 0.56765 0.0
C491 C 0.78017 0.35598 0.5925 0.0
C492 C 0.797 0.33913 0.61151 0.0
C493 C 0.78182 0.34256 0.60352 0.0
C494 C 0.80976 0.36222 0.5972 0.0
C495 C 0.81136 0.34882 0.60854 0.0
C496 C 0.79434 0.36583 0.58939 0.0
C497 C 0.74941 0.39241 0.52095 0.0
C498 C 0.75843 0.39904 0.49294 0.0
C499 C 0.73201 0.40943 0.50316 0.0
C500 C 0.73466 0.40134 0.51835 0.0
C501 C 0.74399 0.40845 0.49044 0.0
C502 C 0.76113 0.39114 0.50812 0.0
C503 C 0.75354 0.38483 0.53699 0.0
O504 O 0.71747 0.38155 0.57402 0.0
O505 O 0.71664 0.3589 0.5591 0.0
O506 O 0.75034 0.36887 0.53831 0.0
O507 O 0.7502 0.3934 0.55057 0.0
H508 H 0.67558 0.36839 0.55723 0.0
H509 H 0.6506 0.35976 0.57244 0.0
H510 H 0.68116 0.34822 0.6152 0.0
H511 H 0.7049 0.35887 0.60083 0.0
H512 H 0.79726 0.32899 0.62034 0.0
H513 H 0.77113 0.3348 0.60628 0.0
H514 H 0.82043 0.36992 0.59425 0.0
H515 H 0.79352 0.37631 0.58098 0.0
H516 H 0.76786 0.39824 0.48334 0.0
H517 H 0.72072 0.41654 0.50135 0.0
H518 H 0.72542 0.40231 0.52811 0.0
H519 H 0.77259 0.38429 0.50997 0.0
C520 C 0.79605 0.68989 0.38846 0.0
C521 C 0.8019 0.67903 0.37609 0.0
C522 C 0.8295 0.69162 0.37831 0.0
C523 C 0.81858 0.67984 0.37109 0.0
C524 C 0.82355 0.70216 0.39095 0.0
C525 C 0.80697 0.7013 0.39594 0.0
U526 U 0.74928 0.68007 0.38229 0.0
O527 O 0.72873 0.67808 0.40055 0.0
O528 O 0.73116 0.70003 0.38451 0.0
C529 C 0.72251 0.69255 0.39614 0.0
C530 C 0.77837 0.69095 0.39266 0.0
C531 C 0.70458 0.69388 0.39351 0.0
C532 C 0.6812 0.71286 0.39448 0.0
C533 C 0.69639 0.7074 0.40089 0.0
C534 C 0.68152 0.69023 0.37438 0.0
C535 C 0.67416 0.70483 0.38058 0.0
C536 C 0.69673 0.6848 0.38077 0.0
C537 C 0.73832 0.64858 0.34565 0.0
C538 C 0.71394 0.6423 0.32857 0.0
C539 C 0.73819 0.6245 0.32726 0.0
C540 C 0.74623 0.63454 0.33901 0.0
C541 C 0.72205 0.62832 0.3218 0.0
C542 C 0.72202 0.65237 0.34052 0.0
C543 C 0.74816 0.65917 0.35706 0.0
O544 O 0.76925 0.69864 0.38153 0.0
O545 O 0.77118 0.67758 0.39878 0.0
O546 O 0.74926 0.65439 0.37268 0.0
O547 O 0.74751 0.67542 0.35523 0.0
H548 H 0.7935 0.67029 0.37004 0.0
H549 H 0.82279 0.67164 0.36125 0.0
H550 H 0.83169 0.71118 0.39693 0.0
H551 H 0.80256 0.70986 0.4054 0.0
H552 H 0.67573 0.72413 0.39944 0.0
H553 H 0.70246 0.71466 0.4106 0.0
H554 H 0.67607 0.68371 0.36383 0.0
H555 H 0.70298 0.67442 0.37487 0.0
H556 H 0.70145 0.64544 0.32456 0.0
H557 H 0.7448 0.61396 0.32208 0.0
H558 H 0.75886 0.63151 0.34268 0.0
H559 H 0.71569 0.66315 0.34552 0.0
C560 C 0.20989 0.99117 0.38419 0.0
C561 C 0.19912 0.99317 0.39781 0.0
C562 C 0.17508 0.98911 0.37956 0.0
C563 C 0.18185 0.99214 0.39551 0.0
C564 C 0.18597 0.98768 0.36592 0.0
C565 C 0.2032 0.98871 0.36823 0.0
U566 U 0.24842 0.99787 0.41117 0.0
O567 O 0.26956 0.98142 0.41597 0.0
O568 O 0.2739 0.00595 0.40468 0.0
C569 C 0.28044 0.99177 0.40948 0.0
C570 C 0.22804 0.99059 0.38657 0.0
C571 C 0.29304 0.98427 0.3986 0.0
C572 C 0.30168 0.96282 0.37904 0.0
C573 C 0.28899 0.97184 0.38686 0.0
C574 C 0.32239 0.97915 0.39399 0.0
C575 C 0.31843 0.96609 0.38302 0.0
C576 C 0.30978 0.98822 0.40165 0.0
C577 C 0.24292 0.01437 0.45551 0.0
C578 C 0.26442 0.01218 0.47677 0.0
C579 C 0.23724 0.02314 0.48385 0.0
C580 C 0.23212 0.02123 0.46731 0.0
C581 C 0.25328 0.01825 0.48882 0.0
C582 C 0.25924 0.01018 0.46019 0.0
C583 C 0.23638 0.01019 0.43891 0.0
O584 O 0.23568 0.00504 0.3879 0.0
O585 O 0.23319 0.97961 0.39752 0.0
O586 O 0.23634 0.99423 0.43534 0.0
O587 O 0.2415 0.01955 0.42652 0.0
H588 H 0.20409 0.99514 0.41024 0.0
H589 H 0.17382 0.9935 0.40625 0.0
H590 H 0.18122 0.98512 0.35351 0.0
H591 H 0.21134 0.9871 0.35761 0.0
H592 H 0.29843 0.95268 0.37068 0.0
H593 H 0.2761 0.96859 0.3844 0.0
H594 H 0.33526 0.98182 0.39719 0.0
H595 H 0.31312 0.99774 0.41068 0.0
H596 H 0.27682 0.00823 0.48032 0.0
H597 H 0.22851 0.02802 0.49287 0.0
H598 H 0.2195 0.02453 0.46386 0.0
H599 H 0.26772 0.0048 0.4512 0.0
C600 C 0.32584 0.07337 0.63483 0.0
C601 C 0.339 0.0628 0.63929 0.0
C602 C 0.35931 0.08386 0.631 0.0
C603 C 0.35557 0.06812 0.63772 0.0
C604 C 0.34604 0.09384 0.62549 0.0
C605 C 0.32958 0.08877 0.62765 0.0
U606 U 0.28122 0.05655 0.65051 0.0
O607 O 0.2596 0.07252 0.64613 0.0
O608 O 0.2616 0.04875 0.63276 0.0
C609 C 0.25236 0.0618 0.63604 0.0
C610 C 0.30802 0.06909 0.6366 0.0
C611 C 0.23465 0.05863 0.63934 0.0
C612 C 0.20614 0.05889 0.62922 0.0
C613 C 0.22321 0.0603 0.62624 0.0
C614 C 0.21173 0.0539 0.6585 0.0
C615 C 0.20022 0.05589 0.6454 0.0
C616 C 0.22886 0.05516 0.65547 0.0
C617 C 0.28972 0.03372 0.69367 0.0
C618 C 0.29234 0.01078 0.71325 0.0
C619 C 0.30298 0.03805 0.72068 0.0
C620 C 0.29776 0.0442 0.70525 0.0
C621 C 0.29981 0.02143 0.72505 0.0
C622 C 0.28746 0.01685 0.69767 0.0
C623 C 0.28085 0.04047 0.679 0.0
O624 O 0.30273 0.05387 0.63359 0.0
O625 O 0.2992 0.07714 0.64777 0.0
O626 O 0.27935 0.05671 0.67781 0.0
O627 O 0.28258 0.03295 0.66452 0.0
H628 H 0.33672 0.05059 0.64416 0.0
H629 H 0.36538 0.06003 0.64212 0.0
H630 H 0.34827 0.10573 0.61962 0.0
H631 H 0.31967 0.09696 0.62362 0.0
H632 H 0.19753 0.06068 0.61895 0.0
H633 H 0.22747 0.06311 0.61376 0.0
H634 H 0.20745 0.05149 0.67106 0.0
H635 H 0.23755 0.05383 0.66575 0.0
H636 H 0.28983 0.99789 0.71628 0.0
H637 H 0.30857 0.04658 0.72959 0.0
H638 H 0.29932 0.05734 0.70278 0.0
H639 H 0.28106 0.00855 0.68908 0.0
C640 C 0.5855 0.69494 0.36715 0.0
C641 C 0.59772 0.68797 0.37756 0.0
C642 C 0.60145 0.66427 0.35841 0.0
C643 C 0.6055 0.67286 0.37332 0.0
C644 C 0.58839 0.67085 0.34861 0.0
C645 C 0.58048 0.68579 0.353 0.0
U646 U 0.56711 0.74256 0.37328 0.0
O647 O 0.57331 0.76074 0.3535 0.0
O648 O 0.5851 0.76298 0.37836 0.0
C649 C 0.58305 0.76944 0.36345 0.0
C650 C 0.57916 0.71224 0.36992 0.0
C651 C 0.59213 0.78474 0.35786 0.0
C652 C 0.59861 0.80555 0.33653 0.0
C653 C 0.59034 0.79091 0.34153 0.0
C654 C 0.61044 0.80833 0.36411 0.0
C655 C 0.60881 0.81461 0.34774 0.0
C656 C 0.60217 0.79376 0.36908 0.0
C657 C 0.52089 0.74494 0.39208 0.0
C658 C 0.49381 0.75596 0.39949 0.0
C659 C 0.50126 0.72789 0.40747 0.0
C660 C 0.51683 0.72984 0.39978 0.0
C661 C 0.48971 0.74107 0.40763 0.0
C662 C 0.50923 0.75784 0.39181 0.0
C663 C 0.53732 0.74843 0.38499 0.0
O664 O 0.58121 0.72093 0.38372 0.0
O665 O 0.57036 0.71975 0.35851 0.0
O666 O 0.54004 0.7451 0.3692 0.0
O667 O 0.55058 0.74733 0.39459 0.0
H668 H 0.60163 0.69439 0.38879 0.0
H669 H 0.61493 0.66813 0.3817 0.0
H670 H 0.58475 0.66508 0.33695 0.0
H671 H 0.57096 0.69061 0.34475 0.0
H672 H 0.59668 0.80989 0.32392 0.0
H673 H 0.58258 0.78438 0.33256 0.0
H674 H 0.6183 0.8145 0.37322 0.0
H675 H 0.60367 0.78957 0.38181 0.0
H676 H 0.48513 0.76623 0.39914 0.0
H677 H 0.49847 0.7163 0.41371 0.0
H678 H 0.52574 0.71977 0.40011 0.0
H679 H 0.51219 0.76959 0.3859 0.0
C680 C 0.62951 0.32457 0.07761 0.0
C681 C 0.64412 0.33355 0.08128 0.0
C682 C 0.62776 0.35828 0.08753 0.0
C683 C 0.64316 0.35022 0.08628 0.0
C684 C 0.61317 0.34937 0.08362 0.0
C685 C 0.61407 0.33266 0.07864 0.0
U686 U 0.65002 0.2832 0.0634 0.0
O687 O 0.6486 0.25979 0.07743 0.0
O688 O 0.63828 0.26103 0.05196 0.0
C689 C 0.64067 0.25194 0.06537 0.0
C690 C 0.62986 0.30644 0.07459 0.0
C691 C 0.64377 0.234 0.06347 0.0
C692 C 0.63628 0.2061 0.07228 0.0
C693 C 0.63443 0.22328 0.07352 0.0
C694 C 0.65706 0.20992 0.0508 0.0
C695 C 0.6475 0.19912 0.06084 0.0
C696 C 0.65517 0.22728 0.05207 0.0
C697 C 0.69575 0.28832 0.04496 0.0
C698 C 0.71376 0.28644 0.0206 0.0
C699 C 0.72573 0.29188 0.04785 0.0
C700 C 0.70994 0.29089 0.05498 0.0
C701 C 0.72769 0.29002 0.0306 0.0
C702 C 0.69785 0.28571 0.02771 0.0
C703 C 0.67922 0.29237 0.05198 0.0
O704 O 0.6298 0.30132 0.059 0.0
O705 O 0.6401 0.29799 0.0841 0.0
O706 O 0.67647 0.2892 0.06781 0.0
O707 O 0.66597 0.29054 0.04246 0.0
H708 H 0.65618 0.32757 0.08079 0.0
H709 H 0.65435 0.3568 0.08979 0.0
H710 H 0.60112 0.3553 0.08453 0.0
H711 H 0.60264 0.3259 0.07601 0.0
H712 H 0.62899 0.19829 0.08049 0.0
H713 H 0.62559 0.22823 0.08242 0.0
H714 H 0.66578 0.20496 0.04182 0.0
H715 H 0.6625 0.23538 0.04418 0.0
H716 H 0.71508 0.28507 0.00723 0.0
H717 H 0.73636 0.2948 0.05571 0.0
H718 H 0.70873 0.29343 0.0682 0.0
H719 H 0.68716 0.28405 0.01958 0.0
C720 C 0.38864 0.79524 0.68963 0.0
C721 C 0.37409 0.80026 0.68136 0.0
C722 C 0.37836 0.82861 0.69142 0.0
C723 C 0.369 0.81687 0.68221 0.0
C724 C 0.39326 0.82354 0.6991 0.0
C725 C 0.39831 0.80699 0.69823 0.0
U726 U 0.3798 0.74857 0.68387 0.0
O727 O 0.39612 0.72641 0.684 0.0
O728 O 0.38056 0.73252 0.70564 0.0
C729 C 0.3913 0.72217 0.69909 0.0
C730 C 0.39242 0.77763 0.69197 0.0
C731 C 0.38716 0.70483 0.70238 0.0
C732 C 0.386 0.68353 0.72364 0.0
C733 C 0.39326 0.69788 0.71718 0.0
C734 C 0.36739 0.6822 0.69976 0.0
C735 C 0.37254 0.67596 0.71531 0.0
C736 C 0.37459 0.69666 0.69337 0.0
C737 C 0.34082 0.73841 0.65468 0.0
C738 C 0.33155 0.71644 0.63575 0.0
C739 C 0.31345 0.73971 0.64178 0.0
C740 C 0.3255 0.74637 0.65246 0.0
C741 C 0.31643 0.72489 0.63297 0.0
C742 C 0.34373 0.72322 0.64647 0.0
C743 C 0.3539 0.74768 0.6638 0.0
O744 O 0.38128 0.76974 0.70089 0.0
O745 O 0.39755 0.76907 0.67896 0.0
O746 O 0.36936 0.74634 0.65859 0.0
O747 O 0.35254 0.7493 0.68006 0.0
H748 H 0.36631 0.79123 0.67493 0.0
H749 H 0.3574 0.82035 0.67626 0.0
H750 H 0.40088 0.83231 0.70605 0.0
H751 H 0.40944 0.80323 0.70489 0.0
H752 H 0.39026 0.67895 0.7356 0.0
H753 H 0.40281 0.70425 0.72439 0.0
H754 H 0.35735 0.67626 0.69289 0.0
H755 H 0.36966 0.70199 0.682 0.0
H756 H 0.33422 0.70498 0.62916 0.0
H757 H 0.30184 0.74636 0.64025 0.0
H758 H 0.32305 0.75816 0.65856 0.0
H759 H 0.35553 0.71689 0.64792 0.0
C760 C 0.38432 0.20966 0.99246 0.0
C761 C 0.3981 0.19896 0.99223 0.0
C762 C 0.37959 0.17493 0.99023 0.0
C763 C 0.39575 0.18174 0.99107 0.0
C764 C 0.36585 0.18569 0.99121 0.0
C765 C 0.36821 0.20291 0.99228 0.0
U766 U 0.41127 0.24812 0.99909 0.0
O767 O 0.41632 0.26924 0.9827 0.0
O768 O 0.40488 0.27362 0.00719 0.0
C769 C 0.40959 0.2801 0.99292 0.0
C770 C 0.38659 0.22784 0.99191 0.0
C771 C 0.39846 0.29242 0.9852 0.0
C772 C 0.38203 0.30173 0.96153 0.0
C773 C 0.38976 0.28891 0.97035 0.0
C774 C 0.39048 0.32144 0.9829 0.0
C775 C 0.38277 0.3182 0.96747 0.0
C776 C 0.3983 0.30865 0.99166 0.0
C777 C 0.45565 0.24193 0.01536 0.0
C778 C 0.47538 0.26455 0.01958 0.0
C779 C 0.48498 0.23601 0.01922 0.0
C780 C 0.46866 0.23051 0.01673 0.0
C781 C 0.48861 0.25311 0.02053 0.0
C782 C 0.45903 0.25901 0.01689 0.0
C783 C 0.43894 0.23573 0.01116 0.0
O784 O 0.38801 0.23542 0.0064 0.0
O785 O 0.39738 0.23312 0.98082 0.0
O786 O 0.43534 0.23591 0.99518 0.0
O787 O 0.42667 0.24091 0.02064 0.0
H788 H 0.41067 0.20393 0.9925 0.0
H789 H 0.40658 0.17376 0.99056 0.0
H790 H 0.35325 0.18086 0.99044 0.0
H791 H 0.35745 0.21099 0.99248 0.0
H792 H 0.37598 0.29888 0.94975 0.0
H793 H 0.38962 0.27645 0.96517 0.0
H794 H 0.39134 0.33402 0.98772 0.0
H795 H 0.40499 0.31161 1.00305 0.0
H796 H 0.47766 0.27779 0.02076 0.0
H797 H 0.4948 0.22683 0.01955 0.0
H798 H 0.46626 0.21729 0.0154 0.0
H799 H 0.4491 0.26802 0.01574 0.0
C800 C 0.36685 0.57952 0.69433 0.0
C801 C 0.37629 0.59278 0.68781 0.0
C802 C 0.35763 0.59521 0.66339 0.0
C803 C 0.37171 0.60056 0.6727 0.0
C804 C 0.34897 0.58113 0.6694 0.0
C805 C 0.35364 0.57334 0.68441 0.0
U806 U 0.37129 0.56637 0.74314 0.0
O807 O 0.34964 0.57563 0.7572 0.0
O808 O 0.3736 0.58819 0.75994 0.0
C809 C 0.35802 0.58744 0.76484 0.0
C810 C 0.3718 0.57068 0.71017 0.0
C811 C 0.35413 0.59101 0.78283 0.0
C812 C 0.35242 0.61188 0.80511 0.0
C813 C 0.35828 0.60671 0.78948 0.0
C814 C 0.33877 0.58536 0.80867 0.0
C815 C 0.34231 0.60146 0.81493 0.0
C816 C 0.34445 0.58026 0.79278 0.0
C817 C 0.39297 0.52381 0.75134 0.0
C818 C 0.40931 0.50046 0.76095 0.0
C819 C 0.40193 0.50263 0.73169 0.0
C820 C 0.39343 0.51748 0.73501 0.0
C821 C 0.41012 0.49413 0.74464 0.0
C822 C 0.4008 0.51514 0.76424 0.0
C823 C 0.38441 0.5393 0.75564 0.0
O824 O 0.38306 0.57705 0.72035 0.0
O825 O 0.36031 0.56231 0.71815 0.0
O826 O 0.36868 0.54041 0.75126 0.0
O827 O 0.39288 0.55315 0.75352 0.0
H828 H 0.38705 0.59743 0.69457 0.0
H829 H 0.37893 0.61121 0.66874 0.0
H830 H 0.3385 0.57601 0.66252 0.0
H831 H 0.34657 0.56257 0.68844 0.0
H832 H 0.35585 0.62419 0.80949 0.0
H833 H 0.36569 0.61537 0.78236 0.0
H834 H 0.33111 0.57686 0.81578 0.0
H835 H 0.34089 0.56808 0.78814 0.0
H836 H 0.41526 0.49401 0.77118 0.0
H837 H 0.40241 0.49799 0.719 0.0
H838 H 0.38736 0.52403 0.72491 0.0
H839 H 0.40039 0.51979 0.77694 0.0
C840 C 0.07584 0.62553 0.32483 0.0
C841 C 0.06347 0.62292 0.33691 0.0
C842 C 0.08447 0.62145 0.3589 0.0
C843 C 0.0677 0.62122 0.35384 0.0
C844 C 0.09687 0.62262 0.34666 0.0
C845 C 0.09262 0.62485 0.32989 0.0
U846 U 0.06041 0.64723 0.2832 0.0
O847 O 0.07511 0.64522 0.26028 0.0
O848 O 0.04969 0.63484 0.26097 0.0
C849 C 0.0633 0.63722 0.25216 0.0
C850 C 0.0719 0.62742 0.30678 0.0
C851 C 0.06187 0.64061 0.2342 0.0
C852 C 0.07415 0.63701 0.20681 0.0
C853 C 0.07485 0.63497 0.22402 0.0
C854 C 0.0472 0.65021 0.20945 0.0
C855 C 0.06038 0.64466 0.19933 0.0
C856 C 0.04797 0.64826 0.22685 0.0
C857 C 0.04168 0.69343 0.29047 0.0
C858 C 0.03009 0.71763 0.2764 0.0
C859 C 0.03507 0.71837 0.30618 0.0
C860 C 0.04107 0.70221 0.30547 0.0
C861 C 0.02991 0.7265 0.29163 0.0
C862 C 0.03596 0.7011 0.27582 0.0
C863 C 0.0487 0.67652 0.29123 0.0
O864 O 0.05624 0.62737 0.30184 0.0
O865 O 0.08115 0.63802 0.29849 0.0
O866 O 0.06457 0.674 0.28817 0.0
O867 O 0.03907 0.66341 0.28914 0.0
H868 H 0.05053 0.62271 0.33338 0.0
H869 H 0.05789 0.6203 0.36303 0.0
H870 H 0.1099 0.62262 0.35015 0.0
H871 H 0.10252 0.62616 0.32084 0.0
H872 H 0.08434 0.6324 0.19929 0.0
H873 H 0.08556 0.6288 0.22942 0.0
H874 H 0.03647 0.6562 0.20391 0.0
H875 H 0.03776 0.65262 0.23447 0.0
H876 H 0.02621 0.72362 0.26496 0.0
H877 H 0.03483 0.72465 0.31815 0.0
H878 H 0.04568 0.69661 0.31668 0.0
H879 H 0.03634 0.69451 0.26403 0.0
C880 C 0.69182 0.38715 0.79644 0.0
C881 C 0.67696 0.38431 0.80514 0.0
C882 C 0.693 0.37662 0.82986 0.0
C883 C 0.67755 0.37919 0.82181 0.0
C884 C 0.70774 0.37943 0.82091 0.0
C885 C 0.70713 0.38482 0.80451 0.0
U886 U 0.68258 0.3814 0.74935 0.0
O887 O 0.68283 0.39859 0.72762 0.0
O888 O 0.70435 0.38289 0.73364 0.0
C889 C 0.69811 0.39415 0.72368 0.0
C890 C 0.69238 0.39177 0.7788 0.0
C891 C 0.70283 0.3912 0.70637 0.0
C892 C 0.72619 0.38363 0.68899 0.0
C893 C 0.71992 0.3916 0.70298 0.0
C894 C 0.69799 0.37773 0.67983 0.0
C895 C 0.71538 0.37567 0.67762 0.0
C896 C 0.69175 0.38497 0.6944 0.0
C897 C 0.65179 0.3428 0.7404 0.0
C898 C 0.64155 0.32606 0.71715 0.0
C899 C 0.63071 0.32158 0.74493 0.0
C900 C 0.64107 0.33413 0.75104 0.0
C901 C 0.63071 0.31738 0.72792 0.0
C902 C 0.65204 0.33875 0.72336 0.0
C903 C 0.66226 0.35584 0.74803 0.0
O904 O 0.70057 0.38108 0.76964 0.0
O905 O 0.67894 0.39765 0.77144 0.0
O906 O 0.65708 0.37133 0.74758 0.0
O907 O 0.67855 0.35423 0.74815 0.0
H908 H 0.665 0.38595 0.79909 0.0
H909 H 0.66595 0.37733 0.82839 0.0
H910 H 0.71984 0.37719 0.82644 0.0
H911 H 0.71875 0.38683 0.79795 0.0
H912 H 0.73957 0.38273 0.68808 0.0
H913 H 0.72865 0.39657 0.7121 0.0
H914 H 0.68909 0.37294 0.67086 0.0
H915 H 0.67846 0.38481 0.69669 0.0
H916 H 0.64178 0.32317 0.70395 0.0
H917 H 0.62282 0.31499 0.75364 0.0
H918 H 0.64076 0.33706 0.76424 0.0
H919 H 0.66022 0.34536 0.71493 0.0
C920 C 0.99357 0.38291 0.20979 0.0
C921 C 0.99574 0.39571 0.19812 0.0
C922 C 0.99116 0.37602 0.17537 0.0
C923 C 0.99458 0.39229 0.18101 0.0
C924 C 0.98973 0.36317 0.18713 0.0
C925 C 0.99092 0.3666 0.20418 0.0
U926 U 0.99929 0.41183 0.24738 0.0
O927 O 0.98192 0.41722 0.26774 0.0
O928 O 0.00643 0.40646 0.27338 0.0
C929 C 0.99205 0.41155 0.27927 0.0
C930 C 0.99264 0.38644 0.22778 0.0
C931 C 0.98437 0.40152 0.29246 0.0
C932 C 0.96695 0.37869 0.30203 0.0
C933 C 0.97538 0.38686 0.28911 0.0
C934 C 0.97669 0.39965 0.32159 0.0
C935 C 0.9673 0.38515 0.31841 0.0
C936 C 0.98517 0.40765 0.30878 0.0
C937 C 0.0157 0.45588 0.24189 0.0
C938 C 0.00882 0.47833 0.26095 0.0
C939 C 0.02816 0.48324 0.23833 0.0
C940 C 0.02646 0.46662 0.23331 0.0
C941 C 0.01894 0.48931 0.25187 0.0
C942 C 0.00731 0.46169 0.25608 0.0
C943 C 0.01212 0.43921 0.23511 0.0
O944 O 0.00692 0.38817 0.23571 0.0
O945 O 0.98155 0.39763 0.23204 0.0
O946 O 0.99621 0.43542 0.23416 0.0
O947 O 0.02131 0.427 0.24087 0.0
H948 H 0.99777 0.40841 0.20225 0.0
H949 H 0.99562 0.40245 0.17224 0.0
H950 H 0.98731 0.3505 0.18315 0.0
H951 H 0.98925 0.35657 0.21301 0.0
H952 H 0.96001 0.36745 0.29915 0.0
H953 H 0.97462 0.38197 0.27653 0.0
H954 H 0.97701 0.40526 0.33388 0.0
H955 H 0.99195 0.41903 0.31155 0.0
H956 H 1.00175 0.48276 0.27155 0.0
H957 H 0.03602 0.49152 0.23118 0.0
H958 H 0.03305 0.46231 0.22236 0.0
H959 H 0.99906 0.45354 0.26297 0.0
C960 C 0.28488 0.52104 0.62704 0.0
C961 C 0.29092 0.53645 0.62136 0.0
C962 C 0.29204 0.51353 0.64108 0.0
C963 C 0.30539 0.52129 0.64944 0.0
C964 C 0.31196 0.5362 0.6431 0.0
C965 C 0.30474 0.54374 0.62928 0.0
C966 C 0.31089 0.51559 0.6661 0.0
C967 C 0.31651 0.49941 0.66902 0.0
C968 C 0.3227 0.49483 0.68483 0.0
C969 C 0.3223 0.50672 0.69806 0.0
C970 C 0.31567 0.52291 0.69539 0.0
C971 C 0.31069 0.52707 0.67916 0.0
C972 C 0.31457 0.53638 0.70851 0.0
C973 C 0.32669 0.53829 0.72107 0.0
C974 C 0.30252 0.54912 0.70692 0.0
C975 C 0.30454 0.56442 0.71505 0.0
C976 C 0.31792 0.56706 0.72596 0.0
C977 C 0.33003 0.47777 0.68671 0.0
C978 C 0.32099 0.46367 0.68141 0.0
C979 C 0.34677 0.4756 0.6914 0.0
C980 C 0.35451 0.45994 0.68987 0.0
C981 C 0.34568 0.44586 0.68381 0.0
C982 C 0.32859 0.44799 0.68017 0.0
C983 C 0.32802 0.55335 0.73001 0.0
H984 H 0.27424 0.51519 0.62104 0.0
H985 H 0.28664 0.50215 0.64589 0.0
H986 H 0.3223 0.54239 0.64928 0.0
H987 H 0.30983 0.55544 0.62491 0.0
H988 H 0.31681 0.49061 0.65875 0.0
H989 H 0.30673 0.53961 0.67636 0.0
H990 H 0.32684 0.50326 0.71029 0.0
H991 H 0.33597 0.52878 0.72311 0.0
H992 H 0.2922 0.54788 0.69828 0.0
H993 H 0.29637 0.57462 0.71179 0.0
H994 H 0.30804 0.46487 0.67777 0.0
H995 H 0.35417 0.48622 0.69533 0.0
H996 H 0.3381 0.55468 0.7388 0.0
H997 H 0.32098 0.43761 0.67609 0.0
H998 H 0.36766 0.45916 0.69274 0.0
C999 C 0.32822 0.46227 0.78638 0.0
C1000 C 0.32003 0.44666 0.78658 0.0
C1001 C 0.33512 0.46909 0.80106 0.0
C1002 C 0.33367 0.46059 0.81627 0.0
C1003 C 0.32452 0.44564 0.81655 0.0
C1004 C 0.31835 0.43856 0.802 0.0
C1005 C 0.34207 0.46627 0.83194 0.0
C1006 C 0.34311 0.4831 0.83684 0.0
C1007 C 0.34872 0.48727 0.85303 0.0
C1008 C 0.35242 0.4745 0.86442 0.0
C1009 C 0.35193 0.45773 0.85951 0.0
C1010 C 0.34804 0.45407 0.84288 0.0
C1011 C 0.35447 0.44388 0.87166 0.0
C1012 C 0.36429 0.44594 0.8861 0.0
C1013 C 0.34664 0.42836 0.86901 0.0
C1014 C 0.34911 0.4152 0.87993 0.0
C1015 C 0.35869 0.41726 0.8945 0.0
C1016 C 0.35092 0.50483 0.85848 0.0
C1017 C 0.36075 0.51589 0.84918 0.0
C1018 C 0.34501 0.50994 0.87414 0.0
C1019 C 0.34961 0.52535 0.8808 0.0
C1020 C 0.36031 0.53605 0.87201 0.0
C1021 C 0.36543 0.53135 0.85589 0.0
C1022 C 0.36611 0.43293 0.8975 0.0
H1023 H 0.32949 0.4692 0.77492 0.0
H1024 H 0.34191 0.48074 0.8004 0.0
H1025 H 0.32247 0.43897 0.82807 0.0
H1026 H 0.31269 0.42639 0.80303 0.0
H1027 H 0.3391 0.49281 0.82844 0.0
H1028 H 0.34904 0.44138 0.83844 0.0
H1029 H 0.35573 0.47776 0.8771 0.0
H1030 H 0.37071 0.45752 0.88868 0.0
H1031 H 0.33842 0.4262 0.8585 0.0
H1032 H 0.34348 0.40336 0.87672 0.0
H1033 H 0.36556 0.51221 0.83712 0.0
H1034 H 0.3372 0.50176 0.88148 0.0
H1035 H 0.3733 0.43531 0.90869 0.0
H1036 H 0.37366 0.53928 0.84875 0.0
H1037 H 0.34498 0.52876 0.893 0.0
C1038 C 0.70784 0.00808 0.40079 0.0
C1039 C 0.71889 0.99525 0.40489 0.0
C1040 C 0.7005 0.00858 0.38496 0.0
C1041 C 0.70426 0.99635 0.37292 0.0
C1042 C 0.71617 0.98425 0.37689 0.0
C1043 C 0.72332 0.98362 0.39269 0.0
C1044 C 0.69473 0.99541 0.35696 0.0
C1045 C 0.68973 0.0099 0.34892 0.0
C1046 C 0.67838 0.00936 0.33554 0.0
C1047 C 0.67246 0.9938 0.32971 0.0
C1048 C 0.67807 0.97897 0.33711 0.0
C1049 C 0.68938 0.98007 0.3505 0.0
C1050 C 0.67177 0.96221 0.3318 0.0
C1051 C 0.65468 0.95899 0.32965 0.0
C1052 C 0.68282 0.94881 0.33054 0.0
C1053 C 0.67712 0.93261 0.32757 0.0
C1054 C 0.65995 0.92899 0.32666 0.0
C1055 C 0.67259 0.02532 0.32834 0.0
C1056 C 0.67018 0.03912 0.33891 0.0
C1057 C 0.6704 0.0273 0.31105 0.0
C1058 C 0.66644 0.04293 0.30449 0.0
C1059 C 0.66495 0.05672 0.31513 0.0
C1060 C 0.66667 0.05467 0.33236 0.0
C1061 C 0.64884 0.94262 0.32723 0.0
H1062 H 0.7042 0.01717 0.41008 0.0
H1063 H 0.69126 0.01804 0.38249 0.0
H1064 H 0.71967 0.97491 0.36801 0.0
H1065 H 0.73201 0.97374 0.39554 0.0
H1066 H 0.69467 0.02171 0.35326 0.0
H1067 H 0.69345 0.96889 0.35643 0.0
H1068 H 0.66351 0.99323 0.31959 0.0
H1069 H 0.64574 0.96898 0.33075 0.0
H1070 H 0.69599 0.95074 0.33241 0.0
H1071 H 0.68637 0.92295 0.32649 0.0
H1072 H 0.67121 0.03799 0.35233 0.0
H1073 H 0.67221 0.01695 0.30258 0.0
H1074 H 0.63553 0.94074 0.32651 0.0
H1075 H 0.6652 0.06515 0.34077 0.0
H1076 H 0.66497 0.04435 0.29114 0.0
C1077 C 0.69296 0.98882 0.14662 0.0
C1078 C 0.68592 0.9991 0.15893 0.0
C1079 C 0.688 0.99021 0.12994 0.0
C1080 C 0.67587 1.0019 0.12529 0.0
C1081 C 0.66858 0.01186 0.1377 0.0
C1082 C 0.67357 0.01051 0.15429 0.0
C1083 C 0.67098 0.0041 0.10757 0.0
C1084 C 0.66841 0.99038 0.097 0.0
C1085 C 0.66297 0.99257 0.08044 0.0
C1086 C 0.66012 0.00881 0.07449 0.0
C1087 C 0.66269 0.02265 0.085 0.0
C1088 C 0.66833 0.02013 0.10135 0.0
C1089 C 0.65929 0.03992 0.0795 0.0
C1090 C 0.66641 0.04637 0.06491 0.0
C1091 C 0.65008 0.05055 0.08986 0.0
C1092 C 0.64861 0.06741 0.08617 0.0
C1093 C 0.65641 0.07417 0.07204 0.0
C1094 C 0.65965 0.9777 0.06985 0.0
C1095 C 0.67095 0.9644 0.06972 0.0
C1096 C 0.6447 0.97614 0.06078 0.0
C1097 C 0.64083 0.9613 0.05237 0.0
C1098 C 0.65189 0.94775 0.05273 0.0
C1099 C 0.66717 0.94967 0.06121 0.0
C1100 C 0.66503 0.06336 0.06123 0.0
H1101 H 0.70255 0.97993 0.14984 0.0
H1102 H 0.69391 0.98243 0.12066 0.0
H1103 H 0.65891 0.02069 0.13461 0.0
H1104 H 0.66762 0.01831 0.16354 0.0
H1105 H 0.67003 0.97793 0.10186 0.0
H1106 H 0.67074 0.03082 0.1093 0.0
H1107 H 0.65576 0.01067 0.06184 0.0
H1108 H 0.67367 0.03845 0.05677 0.0
H1109 H 0.64428 0.04585 0.10109 0.0
H1110 H 0.64148 0.07521 0.09453 0.0
H1111 H 0.68267 0.96533 0.0764 0.0
H1112 H 0.63569 0.98612 0.06079 0.0
H1113 H 0.67125 0.06813 0.05028 0.0
H1114 H 0.6762 0.93971 0.06141 0.0
H1115 H 0.6289 0.96026 0.0461 0.0
C1116 C 0.62841 0.28391 0.52014 0.0
C1117 C 0.62184 0.29061 0.53491 0.0
C1118 C 0.64345 0.29008 0.51375 0.0
C1119 C 0.65207 0.30273 0.5223 0.0
C1120 C 0.64542 0.3093 0.5371 0.0
C1121 C 0.63043 0.30333 0.5433 0.0
C1122 C 0.66842 0.30892 0.51669 0.0
C1123 C 0.67024 0.3173 0.50161 0.0
C1124 C 0.68501 0.32617 0.49785 0.0
C1125 C 0.69742 0.32769 0.51073 0.0
C1126 C 0.69533 0.31924 0.52626 0.0
C1127 C 0.68147 0.30877 0.52805 0.0
C1128 C 0.70569 0.32182 0.54185 0.0
C1129 C 0.72325 0.32207 0.54207 0.0
C1130 C 0.69738 0.3224 0.55738 0.0
C1131 C 0.70605 0.32219 0.57244 0.0
C1132 C 0.72344 0.32239 0.57278 0.0
C1133 C 0.68609 0.33425 0.48077 0.0
C1134 C 0.6782 0.32655 0.46691 0.0
C1135 C 0.69327 0.35009 0.47817 0.0
C1136 C 0.69167 0.35823 0.4626 0.0
C1137 C 0.68265 0.35088 0.44931 0.0
C1138 C 0.67625 0.3348 0.45165 0.0
C1139 C 0.73205 0.32258 0.55744 0.0
H1140 H 0.62185 0.27409 0.51353 0.0
H1141 H 0.64847 0.28482 0.50239 0.0
H1142 H 0.65188 0.31908 0.54389 0.0
H1143 H 0.62556 0.30859 0.55475 0.0
H1144 H 0.6597 0.3175 0.49314 0.0
H1145 H 0.67993 0.30149 0.53931 0.0
H1146 H 0.70828 0.33547 0.50885 0.0
H1147 H 0.73012 0.32174 0.53049 0.0
H1148 H 0.68392 0.32294 0.55799 0.0
H1149 H 0.69907 0.32276 0.58398 0.0
H1150 H 0.67302 0.31414 0.46795 0.0
H1151 H 0.69948 0.35652 0.48833 0.0
H1152 H 0.74551 0.32337 0.55732 0.0
H1153 H 0.6695 0.32863 0.44165 0.0
H1154 H 0.69686 0.3706 0.46118 0.0
C1155 C 0.14615 0.69539 0.99202 0.0
C1156 C 0.15859 0.68635 1.0003 0.0
C1157 C 0.12945 0.6904 0.99309 0.0
C1158 C 0.12503 0.67653 1.00274 0.0
C1159 C 0.13756 0.6675 0.01092 0.0
C1160 C 0.1542 0.67231 0.00962 0.0
C1161 C 0.1074 0.67162 0.0049 0.0
C1162 C 0.09683 0.66923 0.99115 0.0
C1163 C 0.08049 0.66322 0.99334 0.0
C1164 C 0.07476 0.6598 0.00958 0.0
C1165 C 0.08524 0.66236 0.02347 0.0
C1166 C 0.10142 0.66848 0.02093 0.0
C1167 C 0.07982 0.65838 0.0407 0.0
C1168 C 0.06402 0.66298 0.04656 0.0
C1169 C 0.09103 0.65077 0.05178 0.0
C1170 C 0.08685 0.6484 0.06844 0.0
C1171 C 0.07122 0.65332 0.07449 0.0
C1172 C 0.06985 0.6598 0.97851 0.0
C1173 C 0.06914 0.67127 0.96534 0.0
C1174 C 0.0611 0.64467 0.97697 0.0
C1175 C 0.05226 0.6409 0.96236 0.0
C1176 C 0.0518 0.65226 0.9491 0.0
C1177 C 0.06016 0.66757 0.95083 0.0
C1178 C 0.05976 0.66048 0.06331 0.0
H1179 H 0.14937 0.70619 0.98465 0.0
H1180 H 0.11999 0.69756 0.98671 0.0
H1181 H 0.13448 0.65668 0.01832 0.0
H1182 H 0.16364 0.66517 0.01608 0.0
H1183 H 0.10159 0.67134 0.9787 0.0
H1184 H 0.10951 0.67083 0.03155 0.0
H1185 H 0.06227 0.65498 0.01137 0.0
H1186 H 0.05514 0.66894 0.03835 0.0
H1187 H 0.10323 0.64684 0.04763 0.0
H1188 H 0.09611 0.64309 0.07668 0.0
H1189 H 0.07568 0.68305 0.9662 0.0
H1190 H 0.06155 0.63552 0.98684 0.0
H1191 H 0.04753 0.66425 0.06751 0.0
H1192 H 0.06016 0.6765 0.94075 0.0
H1193 H 0.04588 0.62903 0.96136 0.0
C1194 C 0.78456 0.33132 0.45714 0.0
C1195 C 0.78391 0.31681 0.44723 0.0
C1196 C 0.79974 0.3369 0.46393 0.0
C1197 C 0.81447 0.32809 0.46085 0.0
C1198 C 0.81366 0.31311 0.45187 0.0
C1199 C 0.79856 0.30745 0.44528 0.0
C1200 C 0.83096 0.3356 0.46444 0.0
C1201 C 0.83664 0.33851 0.48082 0.0
C1202 C 0.85288 0.34476 0.4836 0.0
C1203 C 0.86293 0.34866 0.46985 0.0
C1204 C 0.85732 0.34594 0.45353 0.0
C1205 C 0.84135 0.33935 0.45094 0.0
C1206 C 0.86843 0.34948 0.43926 0.0
C1207 C 0.87822 0.36401 0.43905 0.0
C1208 C 0.86969 0.3381 0.42599 0.0
C1209 C 0.88064 0.34112 0.41286 0.0
C1210 C 0.89056 0.35556 0.41273 0.0
C1211 C 0.85988 0.34702 0.50064 0.0
C1212 C 0.85058 0.35458 0.51334 0.0
C1213 C 0.87653 0.3426 0.5039 0.0
C1214 C 0.88393 0.34627 0.51924 0.0
C1215 C 0.87484 0.35431 0.53178 0.0
C1216 C 0.858 0.3582 0.52877 0.0
C1217 C 0.88918 0.36701 0.42593 0.0
H1218 H 0.77357 0.33888 0.45887 0.0
H1219 H 0.80013 0.34858 0.47069 0.0
H1220 H 0.8249 0.30611 0.44936 0.0
H1221 H 0.79849 0.29598 0.43814 0.0
H1222 H 0.82874 0.33533 0.49128 0.0
H1223 H 0.83688 0.33725 0.43833 0.0
H1224 H 0.87534 0.35364 0.47187 0.0
H1225 H 0.87741 0.37308 0.44904 0.0
H1226 H 0.86244 0.32671 0.4259 0.0
H1227 H 0.88129 0.33216 0.40276 0.0
H1228 H 0.83778 0.35822 0.51117 0.0
H1229 H 0.88394 0.33641 0.4945 0.0
H1230 H 0.89676 0.37819 0.42624 0.0
H1231 H 0.85066 0.36445 0.53819 0.0
H1232 H 0.89678 0.34273 0.52131 0.0
C1233 C 0.39901 0.7028 0.00945 0.0
C1234 C 0.40281 0.71468 0.9973 0.0
C1235 C 0.38325 0.69529 0.00968 0.0
C1236 C 0.37103 0.69962 0.99779 0.0
C1237 C 0.37485 0.71215 0.9863 0.0
C1238 C 0.39057 0.71953 0.98592 0.0
C1239 C 0.35499 0.69015 0.99671 0.0
C1240 C 0.34732 0.68472 0.01127 0.0
C1241 C 0.33432 0.67299 0.01088 0.0
C1242 C 0.32851 0.66701 0.99525 0.0
C1243 C 0.33551 0.67295 0.98016 0.0
C1244 C 0.34828 0.68509 0.98129 0.0
C1245 C 0.33084 0.66571 0.96328 0.0
C1246 C 0.32714 0.64863 0.96122 0.0
C1247 C 0.33156 0.67554 0.94875 0.0
C1248 C 0.32962 0.66846 0.9328 0.0
C1249 C 0.32653 0.65134 0.93074 0.0
C1250 C 0.32781 0.66678 0.02716 0.0
C1251 C 0.33892 0.66457 0.04064 0.0
C1252 C 0.31067 0.66428 0.02992 0.0
C1253 C 0.30482 0.66027 0.04593 0.0
C1254 C 0.31602 0.65885 0.05934 0.0
C1255 C 0.33307 0.66089 0.05653 0.0
C1256 C 0.32492 0.64159 0.94521 0.0
H1257 H 0.40843 0.69883 0.01826 0.0
H1258 H 0.38094 0.68554 0.01868 0.0
H1259 H 0.36591 0.71599 0.97727 0.0
H1260 H 0.39336 0.72865 0.97641 0.0
H1261 H 0.35177 0.68961 0.02309 0.0
H1262 H 0.35369 0.69007 0.97015 0.0
H1263 H 0.31877 0.65766 0.99487 0.0
H1264 H 0.32668 0.64048 0.97192 0.0
H1265 H 0.33411 0.68874 0.94958 0.0
H1266 H 0.33083 0.67642 0.92201 0.0
H1267 H 0.35224 0.66591 0.039 0.0
H1268 H 0.30178 0.66591 0.01988 0.0
H1269 H 0.32271 0.62833 0.94413 0.0
H1270 H 0.34191 0.65964 0.0667 0.0
H1271 H 0.29158 0.65857 0.0479 0.0
C1272 C 0.52437 0.63046 0.28053 0.0
C1273 C 0.53313 0.61997 0.29141 0.0
C1274 C 0.51665 0.64477 0.28666 0.0
C1275 C 0.51741 0.64856 0.30373 0.0
C1276 C 0.52529 0.63759 0.31471 0.0
C1277 C 0.53307 0.62338 0.30861 0.0
C1278 C 0.51353 0.66542 0.30951 0.0
C1279 C 0.49803 0.66944 0.31604 0.0
C1280 C 0.49512 0.68534 0.32274 0.0
C1281 C 0.50808 0.6975 0.32225 0.0
C1282 C 0.5238 0.6936 0.31504 0.0
C1283 C 0.52625 0.67721 0.30937 0.0
C1284 C 0.53842 0.70548 0.31407 0.0
C1285 C 0.54095 0.71848 0.32565 0.0
C1286 C 0.55129 0.70255 0.3024 0.0
C1287 C 0.56713 0.7094 0.30463 0.0
C1288 C 0.57034 0.72044 0.31781 0.0
C1289 C 0.47868 0.68814 0.33096 0.0
C1290 C 0.46387 0.68408 0.32237 0.0
C1291 C 0.47776 0.69144 0.34814 0.0
C1292 C 0.46258 0.68966 0.3567 0.0
C1293 C 0.44792 0.68465 0.34826 0.0
C1294 C 0.44871 0.68241 0.33086 0.0
C1295 C 0.55661 0.7264 0.32695 0.0
H1296 H 0.52435 0.62814 0.26721 0.0
H1297 H 0.51094 0.65336 0.278 0.0
H1298 H 0.52627 0.64056 0.32787 0.0
H1299 H 0.5396 0.61537 0.31726 0.0
H1300 H 0.48843 0.65992 0.31651 0.0
H1301 H 0.53837 0.67309 0.3052 0.0
H1302 H 0.5058 0.70977 0.3273 0.0
H1303 H 0.53132 0.72185 0.33442 0.0
H1304 H 0.54961 0.69394 0.29213 0.0
H1305 H 0.57717 0.70524 0.29666 0.0
H1306 H 0.4642 0.68132 0.30914 0.0
H1307 H 0.48897 0.69433 0.35516 0.0
H1308 H 0.55828 0.73601 0.33626 0.0
H1309 H 0.4378 0.6785 0.32389 0.0
H1310 H 0.46244 0.69173 0.37004 0.0
C1311 C 0.98921 0.14659 0.69066 0.0
C1312 C 1.00176 0.15792 0.68592 0.0
C1313 C 0.9906 0.12963 0.68691 0.0
C1314 C 0.00442 0.12363 0.67805 0.0
C1315 C 0.01673 0.13506 0.67301 0.0
C1316 C 0.01558 0.15185 0.67714 0.0
C1317 C 0.00621 0.10563 0.67385 0.0
C1318 C 0.9924 0.09562 0.6698 0.0
C1319 C 0.99452 0.07909 0.66435 0.0
C1320 C 0.01076 0.07285 0.66215 0.0
C1321 C 0.02472 0.08276 0.6662 0.0
C1322 C 0.02214 0.09866 0.67294 0.0
C1323 C 0.04212 0.0774 0.66269 0.0
C1324 C 0.04746 0.06096 0.66518 0.0
C1325 C 0.0538 0.08927 0.65727 0.0
C1326 C 0.07047 0.08516 0.65528 0.0
C1327 C 0.07601 0.06882 0.65792 0.0
C1328 C 0.97961 0.06873 0.66056 0.0
C1329 C 0.96616 0.06844 0.67174 0.0
C1330 C 0.97833 0.05971 0.64554 0.0
C1331 C 0.96367 0.05102 0.64158 0.0
C1332 C 0.95022 0.05093 0.65273 0.0
C1333 C 0.95166 0.05954 0.66791 0.0
C1334 C 0.06423 0.05669 0.66274 0.0
H1335 H 0.97821 0.15079 0.69718 0.0
H1336 H 0.98089 0.12125 0.69108 0.0
H1337 H 0.02735 0.13112 0.66574 0.0
H1338 H 0.02567 0.16001 0.67348 0.0
H1339 H 0.97997 0.10079 0.67033 0.0
H1340 H 0.03276 0.10589 0.67718 0.0
H1341 H 0.01249 0.06042 0.65719 0.0
H1342 H 0.03881 0.05149 0.66934 0.0
H1343 H 0.05015 0.10197 0.65473 0.0
H1344 H 0.07903 0.09503 0.65196 0.0
H1345 H 0.96682 0.07521 0.68343 0.0
H1346 H 0.98845 0.05981 0.63665 0.0
H1347 H 0.06792 0.04391 0.66467 0.0
H1348 H 0.94137 0.05973 0.67662 0.0
H1349 H 0.96277 0.04445 0.62979 0.0
C1350 C 0.45558 0.78469 0.33461 0.0
C1351 C 0.44773 0.78407 0.31889 0.0
C1352 C 0.46291 0.79949 0.34036 0.0
C1353 C 0.46245 0.81383 0.33048 0.0
C1354 C 0.45562 0.81295 0.3144 0.0
C1355 C 0.44847 0.79818 0.30859 0.0
C1356 C 0.46566 0.83027 0.33798 0.0
C1357 C 0.48185 0.83607 0.34141 0.0
C1358 C 0.48427 0.85216 0.34813 0.0
C1359 C 0.47025 0.86196 0.35169 0.0
C1360 C 0.4541 0.85632 0.34813 0.0
C1361 C 0.45193 0.84041 0.34135 0.0
C1362 C 0.4396 0.86732 0.35099 0.0
C1363 C 0.43904 0.87779 0.36506 0.0
C1364 C 0.42645 0.8678 0.33937 0.0
C1365 C 0.41309 0.87857 0.34173 0.0
C1366 C 0.4127 0.88919 0.35565 0.0
C1367 C 0.50119 0.85917 0.3513 0.0
C1368 C 0.51426 0.84918 0.35724 0.0
C1369 C 0.50414 0.87632 0.34907 0.0
C1370 C 0.51938 0.88344 0.35346 0.0
C1371 C 0.53224 0.87353 0.35967 0.0
C1372 C 0.52972 0.85629 0.36124 0.0
C1373 C 0.42577 0.8887 0.3673 0.0
H1374 H 0.45517 0.77409 0.34289 0.0
H1375 H 0.46788 0.80004 0.35292 0.0
H1376 H 0.45502 0.82396 0.30667 0.0
H1377 H 0.4429 0.79803 0.29627 0.0
H1378 H 0.49241 0.82829 0.33838 0.0
H1379 H 0.43948 0.83575 0.33877 0.0
H1380 H 0.47189 0.87423 0.35707 0.0
H1381 H 0.4488 0.87752 0.3744 0.0
H1382 H 0.42664 0.86013 0.32825 0.0
H1383 H 0.40321 0.87884 0.3325 0.0
H1384 H 0.51246 0.83597 0.35914 0.0
H1385 H 0.49467 0.88436 0.3439 0.0
H1386 H 0.42562 0.89661 0.37827 0.0
H1387 H 0.53964 0.8484 0.36578 0.0
H1388 H 0.52125 0.89667 0.35166 0.0
C1389 C 0.00967 0.39901 0.70585 0.0
C1390 C 0.99688 0.40284 0.71706 0.0
C1391 C 0.00999 0.38347 0.69792 0.0
C1392 C 0.99764 0.37142 0.70129 0.0
C1393 C 0.98568 0.37507 0.71348 0.0
C1394 C 0.98514 0.39064 0.72112 0.0
C1395 C 0.99634 0.3559 0.69102 0.0
C1396 C 0.01065 0.34804 0.68523 0.0
C1397 C 0.00982 0.33523 0.67324 0.0
C1398 C 0.99395 0.32974 0.6675 0.0
C1399 C 0.97918 0.33697 0.67386 0.0
C1400 C 0.98078 0.34974 0.68584 0.0
C1401 C 0.96191 0.33183 0.6682 0.0
C1402 C 0.95813 0.32856 0.65138 0.0
C1403 C 0.94859 0.33145 0.67961 0.0
C1404 C 0.93214 0.3288 0.67441 0.0
C1405 C 0.92796 0.32731 0.65737 0.0
C1406 C 0.02589 0.32836 0.66682 0.0
C1407 C 0.03974 0.33906 0.665 0.0
C1408 C 0.0281 0.31125 0.66374 0.0
C1409 C 0.04393 0.30502 0.65961 0.0
C1410 C 0.05778 0.31576 0.65882 0.0
C1411 C 0.05547 0.33281 0.66137 0.0
C1412 C 0.94149 0.32631 0.64606 0.0
H1413 H 0.01883 0.40835 0.70252 0.0
H1414 H 0.01939 0.38128 0.68853 0.0
H1415 H 0.97634 0.36615 0.71679 0.0
H1416 H 0.97523 0.39334 0.72984 0.0
H1417 H 0.02259 0.35206 0.69015 0.0
H1418 H 0.96979 0.35541 0.69075 0.0
H1419 H 0.99312 0.31997 0.65821 0.0
H1420 H 0.96793 0.32861 0.64214 0.0
H1421 H 0.95069 0.33374 0.69274 0.0
H1422 H 0.92275 0.32851 0.684 0.0
H1423 H 0.03853 0.35237 0.66665 0.0
H1424 H 0.01779 0.30264 0.66505 0.0
H1425 H 0.93944 0.32445 0.63289 0.0
H1426 H 0.0659 0.34138 0.66049 0.0
H1427 H 0.04546 0.29179 0.65753 0.0
C1428 C 0.71271 0.48459 0.38468 0.0
C1429 C 0.72616 0.4735 0.38516 0.0
C1430 C 0.7076 0.49154 0.36964 0.0
C1431 C 0.71592 0.48765 0.35473 0.0
C1432 C 0.73023 0.47762 0.35546 0.0
C1433 C 0.73527 0.47056 0.37054 0.0
C1434 C 0.70779 0.49147 0.33852 0.0
C1435 C 0.69883 0.50617 0.33639 0.0
C1436 C 0.68688 0.50786 0.32362 0.0
C1437 C 0.68457 0.49437 0.31218 0.0
C1438 C 0.69418 0.47956 0.3139 0.0
C1439 C 0.70616 0.47884 0.32666 0.0
C1440 C 0.6907 0.46344 0.30489 0.0
C1441 C 0.69065 0.46184 0.2874 0.0
C1442 C 0.68961 0.44877 0.3144 0.0
C1443 C 0.6887 0.43313 0.30691 0.0
C1444 C 0.68753 0.43138 0.28952 0.0
C1445 C 0.67596 0.52307 0.32441 0.0
C1446 C 0.66962 0.52806 0.34 0.0
C1447 C 0.6737 0.5339 0.31085 0.0
C1448 C 0.66582 0.54949 0.31306 0.0
C1449 C 0.6601 0.55475 0.32893 0.0
C1450 C 0.66218 0.54359 0.34227 0.0
C1451 C 0.68903 0.44596 0.27979 0.0
H1452 H 0.70565 0.4873 0.39584 0.0
H1453 H 0.6964 0.499 0.36958 0.0
H1454 H 0.73699 0.4745 0.34422 0.0
H1455 H 0.7457 0.46205 0.37055 0.0
H1456 H 0.70055 0.5161 0.34543 0.0
H1457 H 0.71319 0.46748 0.32834 0.0
H1458 H 0.67481 0.49496 0.30285 0.0
H1459 H 0.69194 0.47277 0.27965 0.0
H1460 H 0.68961 0.44933 0.3279 0.0
H1461 H 0.68794 0.42241 0.31497 0.0
H1462 H 0.67103 0.52011 0.35079 0.0
H1463 H 0.67855 0.53061 0.2987 0.0
H1464 H 0.68873 0.4451 0.26636 0.0
H1465 H 0.65855 0.54694 0.35481 0.0
H1466 H 0.66435 0.55744 0.30232 0.0
C1467 C 0.69041 0.54714 0.21611 0.0
C1468 C 0.68158 0.56036 0.2235 0.0
C1469 C 0.68531 0.54053 0.20067 0.0
C1470 C 0.67141 0.54714 0.19239 0.0
C1471 C 0.66232 0.55991 0.20004 0.0
C1472 C 0.66735 0.56646 0.21535 0.0
C1473 C 0.66736 0.54253 0.17496 0.0
C1474 C 0.66297 0.52619 0.17033 0.0
C1475 C 0.6577 0.52262 0.15385 0.0
C1476 C 0.65724 0.53572 0.14218 0.0
C1477 C 0.6613 0.5521 0.14678 0.0
C1478 C 0.66672 0.55523 0.16309 0.0
C1479 C 0.65889 0.56612 0.13494 0.0
C1480 C 0.66194 0.56414 0.11777 0.0
C1481 C 0.65298 0.58156 0.14074 0.0
C1482 C 0.65037 0.59469 0.12973 0.0
C1483 C 0.65325 0.59258 0.11264 0.0
C1484 C 0.65207 0.50555 0.14871 0.0
C1485 C 0.65911 0.49118 0.15572 0.0
C1486 C 0.63977 0.50351 0.13628 0.0
C1487 C 0.63545 0.48776 0.13027 0.0
C1488 C 0.64269 0.47335 0.13698 0.0
C1489 C 0.6543 0.47533 0.15013 0.0
C1490 C 0.65898 0.5772 0.10671 0.0
H1491 H 0.70136 0.54208 0.22212 0.0
H1492 H 0.6926 0.53079 0.19489 0.0
H1493 H 0.65159 0.56525 0.19385 0.0
H1494 H 0.6604 0.5768 0.22045 0.0
H1495 H 0.66298 0.51656 0.17973 0.0
H1496 H 0.67033 0.56774 0.16674 0.0
H1497 H 0.65334 0.53326 0.12949 0.0
H1498 H 0.66671 0.55255 0.11285 0.0
H1499 H 0.65003 0.58348 0.15376 0.0
H1500 H 0.64574 0.6064 0.13453 0.0
H1501 H 0.6686 0.4921 0.1653 0.0
H1502 H 0.63346 0.51409 0.13093 0.0
H1503 H 0.66135 0.57537 0.09354 0.0
H1504 H 0.65989 0.46466 0.1561 0.0
H1505 H 0.62666 0.48708 0.12004 0.0
C1506 C 0.28495 1.00129 0.62068 0.0
C1507 C 0.29202 0.01029 0.60752 0.0
C1508 C 0.29268 1.00129 0.63637 0.0
C1509 C 0.30749 0.01033 0.63896 0.0
C1510 C 0.31468 0.01894 0.62557 0.0
C1511 C 0.30695 0.019 0.61 0.0
C1512 C 0.31553 0.01114 0.65557 0.0
C1513 C 0.31952 0.9967 0.66417 0.0
C1514 C 0.32863 0.9974 0.67919 0.0
C1515 C 0.33434 0.01309 0.68517 0.0
C1516 C 0.33012 0.02788 0.67663 0.0
C1517 C 0.32024 0.0265 0.66221 0.0
C1518 C 0.3364 0.04485 0.68161 0.0
C1519 C 0.35302 0.04752 0.68666 0.0
C1520 C 0.3263 0.05893 0.6791 0.0
C1521 C 0.33269 0.07505 0.68064 0.0
C1522 C 0.34949 0.07778 0.68479 0.0
C1523 C 0.33274 0.98136 0.68752 0.0
C1524 C 0.32111 0.96821 0.68719 0.0
C1525 C 0.34877 0.97824 0.6938 0.0
C1526 C 0.35338 0.96209 0.69844 0.0
C1527 C 0.34217 0.94862 0.69661 0.0
C1528 C 0.3258 0.95207 0.69137 0.0
C1529 C 0.35948 0.0638 0.68825 0.0
H1530 H 0.27342 0.99446 0.61886 0.0
H1531 H 0.28694 0.99454 0.64652 0.0
H1532 H 0.32626 0.02574 0.62719 0.0
H1533 H 0.3126 0.02589 0.59989 0.0
H1534 H 0.31609 0.98482 0.65868 0.0
H1535 H 0.31634 0.03746 0.6557 0.0
H1536 H 0.34173 0.01379 0.69648 0.0
H1537 H 0.36128 0.03708 0.68851 0.0
H1538 H 0.31344 0.05758 0.67531 0.0
H1539 H 0.32448 0.08542 0.67822 0.0
H1540 H 0.30849 0.97021 0.68282 0.0
H1541 H 0.35804 0.98805 0.6943 0.0
H1542 H 0.3725 0.06541 0.69147 0.0
H1543 H 0.31673 0.94222 0.68959 0.0
H1544 H 0.36594 0.96012 0.70294 0.0
C1545 C 0.32949 0.01581 0.85455 0.0
C1546 C 0.31839 0.00423 0.84751 0.0
C1547 C 0.334 0.01469 0.87133 0.0
C1548 C 0.32723 1.00214 0.8815 0.0
C1549 C 0.31569 0.99086 0.87445 0.0
C1550 C 0.31146 0.9918 0.85757 0.0
C1551 C 0.3328 1.00039 0.89914 0.0
C1552 C 0.3368 0.01447 0.90877 0.0
C1553 C 0.3436 0.01296 0.9249 0.0
C1554 C 0.34561 0.99695 0.93171 0.0
C1555 C 0.34096 0.98275 0.92247 0.0
C1556 C 0.33485 0.9846 0.90618 0.0
C1557 C 0.34285 0.96576 0.92933 0.0
C1558 C 0.35811 0.96053 0.93612 0.0
C1559 C 0.32972 0.95421 0.92777 0.0
C1560 C 0.33194 0.93766 0.93244 0.0
C1561 C 0.34738 0.93232 0.93855 0.0
C1562 C 0.34864 0.02824 0.93429 0.0
C1563 C 0.35538 0.04194 0.92571 0.0
C1564 C 0.34625 0.02961 0.95164 0.0
C1565 C 0.34995 0.04453 0.96001 0.0
C1566 C 0.35587 0.05836 0.95115 0.0
C1567 C 0.35876 0.05685 0.93399 0.0
C1568 C 0.36041 0.94386 0.94054 0.0
H1569 H 0.33509 0.02542 0.84693 0.0
H1570 H 0.34316 0.02339 0.87616 0.0
H1571 H 0.30995 0.98125 0.88193 0.0
H1572 H 0.30275 0.98283 0.85236 0.0
H1573 H 0.33449 0.02671 0.90369 0.0
H1574 H 0.33222 0.97357 0.8988 0.0
H1575 H 0.35081 0.99549 0.94409 0.0
H1576 H 0.36845 0.96916 0.93733 0.0
H1577 H 0.31783 0.95794 0.9226 0.0
H1578 H 0.32179 0.92889 0.93072 0.0
H1579 H 0.35793 0.04124 0.91247 0.0
H1580 H 0.34101 0.01939 0.95866 0.0
H1581 H 0.37242 0.93991 0.94523 0.0
H1582 H 0.3636 0.06728 0.92696 0.0
H1583 H 0.34764 0.04545 0.97328 0.0
C1584 C 0.38439 0.70921 0.48294 0.0
C1585 C 0.38479 0.72439 0.47429 0.0
C1586 C 0.36982 0.70375 0.49063 0.0
C1587 C 0.35522 0.71328 0.48983 0.0
C1588 C 0.35584 0.7289 0.48197 0.0
C1589 C 0.37046 0.73438 0.47425 0.0
C1590 C 0.33902 0.70539 0.49413 0.0
C1591 C 0.33749 0.69485 0.5079 0.0
C1592 C 0.32384 0.68388 0.5095 0.0
C1593 C 0.31184 0.68319 0.49636 0.0
C1594 C 0.31341 0.69382 0.48227 0.0
C1595 C 0.32621 0.70578 0.48236 0.0
C1596 C 0.30404 0.69143 0.46609 0.0
C1597 C 0.28708 0.68696 0.46519 0.0
C1598 C 0.31258 0.69392 0.45092 0.0
C1599 C 0.3048 0.69165 0.43558 0.0
C1600 C 0.28831 0.68602 0.43456 0.0
C1601 C 0.32357 0.67253 0.52441 0.0
C1602 C 0.33828 0.66435 0.52935 0.0
C1603 C 0.3096 0.67129 0.53493 0.0
C1604 C 0.31065 0.66283 0.55033 0.0
C1605 C 0.32558 0.65511 0.55537 0.0
C1606 C 0.33924 0.65576 0.5445 0.0
C1607 C 0.27922 0.68449 0.44954 0.0
H1608 H 0.39509 0.70105 0.48301 0.0
H1609 H 0.36971 0.69149 0.4962 0.0
H1610 H 0.3448 0.73657 0.48116 0.0
H1611 H 0.37041 0.74626 0.46792 0.0
H1612 H 0.34728 0.69495 0.51724 0.0
H1613 H 0.32727 0.71435 0.47204 0.0
H1614 H 0.30206 0.67387 0.49667 0.0
H1615 H 0.27995 0.68521 0.47649 0.0
H1616 H 0.32575 0.69685 0.45069 0.0
H1617 H 0.31217 0.69316 0.42439 0.0
H1618 H 0.34929 0.6649 0.52159 0.0
H1619 H 0.29809 0.67736 0.53149 0.0
H1620 H 0.26633 0.6807 0.44934 0.0
H1621 H 0.3509 0.64993 0.54794 0.0
H1622 H 0.29981 0.66232 0.55832 0.0
C1623 C 0.85376 0.3293 0.01766 0.0
C1624 C 0.84699 0.31701 0.00709 0.0
C1625 C 0.87035 0.33428 0.01602 0.0
C1626 C 0.88058 0.32701 0.00383 0.0
C1627 C 0.87385 0.31452 0.99344 0.0
C1628 C 0.85721 0.30963 0.99501 0.0
C1629 C 0.89803 0.33281 1.00159 0.0
C1630 C 0.90802 0.3369 0.0154 0.0
C1631 C 0.92426 0.34317 0.01333 0.0
C1632 C 0.93071 0.34481 0.9971 0.0
C1633 C 0.92092 0.34048 0.98312 0.0
C1634 C 0.90457 0.33472 0.98555 0.0
C1635 C 0.92723 0.34239 0.96583 0.0
C1636 C 0.93596 0.35679 0.96099 0.0
C1637 C 0.92332 0.3303 0.95367 0.0
C1638 C 0.92733 0.33287 0.93697 0.0
C1639 C 0.93545 0.3475 0.93213 0.0
C1640 C 0.93414 0.34823 0.02826 0.0
C1641 C 0.92629 0.35652 0.04152 0.0
C1642 C 0.95115 0.34437 0.02973 0.0
C1643 C 0.95999 0.34839 0.04432 0.0
C1644 C 0.95198 0.35636 0.05773 0.0
C1645 C 0.93504 0.36042 0.05607 0.0
C1646 C 0.94001 0.35933 0.94421 0.0
H1647 H 0.8461 0.33535 0.02696 0.0
H1648 H 0.87504 0.34412 0.02404 0.0
H1649 H 0.88145 0.30846 0.98411 0.0
H1650 H 0.85238 0.29996 0.98686 0.0
H1651 H 0.90316 0.33503 0.02784 0.0
H1652 H 0.89669 0.33221 0.97483 0.0
H1653 H 0.94322 0.34957 0.99535 0.0
H1654 H 0.93903 0.36639 0.97001 0.0
H1655 H 0.91682 0.31896 0.95703 0.0
H1656 H 0.92374 0.32361 0.92777 0.0
H1657 H 0.91327 0.35993 0.04073 0.0
H1658 H 0.95754 0.33791 0.01978 0.0
H1659 H 0.94628 0.37072 0.9406 0.0
H1660 H 0.92835 0.3663 0.06618 0.0
H1661 H 0.97306 0.34522 0.0451 0.0
C1662 C 0.21545 0.69132 0.5458 0.0
C1663 C 0.2222 0.68361 0.56 0.0
C1664 C 0.20051 0.68538 0.53872 0.0
C1665 C 0.19227 0.67164 0.54576 0.0
C1666 C 0.19977 0.66334 0.55921 0.0
C1667 C 0.21447 0.66932 0.56633 0.0
C1668 C 0.17494 0.66713 0.54097 0.0
C1669 C 0.17018 0.66363 0.52439 0.0
C1670 C 0.15386 0.65798 0.52081 0.0
C1671 C 0.1424 0.65632 0.53398 0.0
C1672 C 0.14697 0.65986 0.55049 0.0
C1673 C 0.16315 0.66557 0.55374 0.0
C1674 C 0.13515 0.65694 0.56447 0.0
C1675 C 0.11797 0.65987 0.56254 0.0
C1676 C 0.14101 0.65096 0.57989 0.0
C1677 C 0.13007 0.64832 0.5931 0.0
C1678 C 0.11298 0.65125 0.5911 0.0
C1679 C 0.14855 0.65306 0.50363 0.0
C1680 C 0.15296 0.66251 0.48958 0.0
C1681 C 0.13804 0.63915 0.50138 0.0
C1682 C 0.13133 0.63536 0.48578 0.0
C1683 C 0.13517 0.64513 0.47187 0.0
C1684 C 0.14637 0.65854 0.4738 0.0
C1685 C 0.10698 0.65689 0.57569 0.0
H1686 H 0.22125 0.70239 0.54076 0.0
H1687 H 0.19494 0.69206 0.52842 0.0
H1688 H 0.19379 0.65259 0.56476 0.0
H1689 H 0.21956 0.66309 0.57716 0.0
H1690 H 0.17931 0.6646 0.51452 0.0
H1691 H 0.16671 0.66883 0.5664 0.0
H1692 H 0.12989 0.65194 0.53137 0.0
H1693 H 0.113 0.66467 0.55096 0.0
H1694 H 0.15405 0.64809 0.58176 0.0
H1695 H 0.13494 0.64374 0.60482 0.0
H1696 H 0.161 0.67329 0.49086 0.0
H1697 H 0.13478 0.63123 0.51177 0.0
H1698 H 0.09382 0.65929 0.57392 0.0
H1699 H 0.14957 0.66626 0.46323 0.0
H1700 H 0.12306 0.62473 0.4846 0.0
C1701 C 0.62112 0.28517 0.01239 0.0
C1702 C 0.60729 0.29394 0.01857 0.0
C1703 C 0.63665 0.29304 0.011 0.0
C1704 C 0.63859 0.3097 0.01598 0.0
C1705 C 0.62477 0.31852 0.02181 0.0
C1706 C 0.60928 0.3108 0.02295 0.0
C1707 C 0.655 0.31799 0.01549 0.0
C1708 C 0.66383 0.31918 1.00053 0.0
C1709 C 0.67873 0.32846 0.9997 0.0
C1710 C 0.68508 0.3359 0.0144 0.0
C1711 C 0.6763 0.33459 0.02945 0.0
C1712 C 0.66122 0.32583 0.02983 0.0
C1713 C 0.68212 0.34276 0.04493 0.0
C1714 C 0.69265 0.33426 0.05592 0.0
C1715 C 0.67494 0.3578 0.05004 0.0
C1716 C 0.6779 0.36398 0.06611 0.0
C1717 C 0.68742 0.35482 0.0776 0.0
C1718 C 0.68626 0.33193 0.98312 0.0
C1719 C 0.68613 0.31976 0.97044 0.0
C1720 C 0.6917 0.34809 0.97923 0.0
C1721 C 0.69581 0.35227 0.96287 0.0
C1722 C 0.6945 0.34042 0.95 0.0
C1723 C 0.69017 0.32397 0.95403 0.0
C1724 C 0.69505 0.34005 0.07225 0.0
H1725 H 0.62006 0.27216 0.00897 0.0
H1726 H 0.64721 0.28603 0.00647 0.0
H1727 H 0.62597 0.33147 0.02547 0.0
H1728 H 0.59883 0.31811 0.02724 0.0
H1729 H 0.65843 0.3138 0.98932 0.0
H1730 H 0.65431 0.32507 0.04141 0.0
H1731 H 0.69657 0.34301 0.0141 0.0
H1732 H 0.69841 0.32279 0.05208 0.0
H1733 H 0.66654 0.36441 0.04182 0.0
H1734 H 0.67186 0.37539 0.06991 0.0
H1735 H 0.68225 0.30712 0.97305 0.0
H1736 H 0.69185 0.35783 0.98859 0.0
H1737 H 0.7026 0.33285 0.08077 0.0
H1738 H 0.68902 0.31456 0.94439 0.0
H1739 H 0.6994 0.36498 0.96017 0.0
C1740 C 0.48787 0.38719 0.71365 0.0
C1741 C 0.47391 0.38807 0.72423 0.0
C1742 C 0.49375 0.37185 0.70797 0.0
C1743 C 0.48617 0.35698 0.71316 0.0
C1744 C 0.47335 0.35782 0.72504 0.0
C1745 C 0.46705 0.3731 0.73019 0.0
C1746 C 0.49008 0.34083 0.70488 0.0
C1747 C 0.50597 0.33718 0.69899 0.0
C1748 C 0.50879 0.32353 0.6882 0.0
C1749 C 0.4959 0.31111 0.68702 0.0
C1750 C 0.48005 0.31376 0.69486 0.0
C1751 C 0.47724 0.3296 0.7017 0.0
C1752 C 0.46542 0.30158 0.69543 0.0
C1753 C 0.46366 0.28784 0.68466 0.0
C1754 C 0.45201 0.30444 0.70661 0.0
C1755 C 0.43632 0.29723 0.70403 0.0
C1756 C 0.43374 0.28572 0.69111 0.0
C1757 C 0.52476 0.32385 0.67788 0.0
C1758 C 0.53238 0.33935 0.67441 0.0
C1759 C 0.53275 0.30958 0.67146 0.0
C1760 C 0.54787 0.31095 0.66233 0.0
C1761 C 0.55569 0.32658 0.65961 0.0
C1762 C 0.5476 0.34062 0.66618 0.0
C1763 C 0.44817 0.27946 0.68329 0.0
H1764 H 0.49397 0.39836 0.70924 0.0
H1765 H 0.50369 0.37177 0.69887 0.0
H1766 H 0.46753 0.34662 0.72977 0.0
H1767 H 0.45626 0.37301 0.73823 0.0
H1768 H 0.51602 0.34561 0.70223 0.0
H1769 H 0.46469 0.33357 0.7044 0.0
H1770 H 0.49802 0.29992 0.67984 0.0
H1771 H 0.47379 0.28404 0.67667 0.0
H1772 H 0.4531 0.31314 0.71687 0.0
H1773 H 0.42602 0.30137 0.71166 0.0
H1774 H 0.52664 0.35096 0.678 0.0
H1775 H 0.52744 0.29737 0.67351 0.0
H1776 H 0.44724 0.26927 0.67467 0.0
H1777 H 0.55295 0.35293 0.66514 0.0
H1778 H 0.55326 0.29973 0.65726 0.0
C1779 C 0.01272 0.85171 0.33143 0.0
C1780 C 0.00558 0.84667 0.31621 0.0
C1781 C 0.01154 0.86824 0.33673 0.0
C1782 C 1.00292 0.87993 0.32704 0.0
C1783 C 0.99578 0.87488 0.31181 0.0
C1784 C 0.99727 0.85841 0.30634 0.0
C1785 C 1.00099 0.89723 0.33307 0.0
C1786 C 0.0149 0.90652 0.33814 0.0
C1787 C 0.01315 0.92279 0.34443 0.0
C1788 C 0.99708 0.92973 0.34546 0.0
C1789 C 0.98296 0.92052 0.34034 0.0
C1790 C 0.98513 0.90427 0.33419 0.0
C1791 C 0.96582 0.92736 0.34183 0.0
C1792 C 0.961 0.93659 0.35592 0.0
C1793 C 0.95378 0.92367 0.32957 0.0
C1794 C 0.9372 0.9283 0.33172 0.0
C1795 C 0.93221 0.93708 0.34605 0.0
C1796 C 0.02823 0.93229 0.34982 0.0
C1797 C 0.04141 0.924 0.35782 0.0
C1798 C 0.03002 0.94936 0.34633 0.0
C1799 C 0.04494 0.95771 0.35012 0.0
C1800 C 0.05835 0.9491 0.3573 0.0
C1801 C 0.0563 0.93227 0.36139 0.0
C1802 C 0.9444 0.94145 0.35798 0.0
H1803 H 0.01929 0.84287 0.33917 0.0
H1804 H 0.01707 0.87184 0.34855 0.0
H1805 H 0.98913 0.88371 0.30412 0.0
H1806 H 0.99169 0.85477 0.29455 0.0
H1807 H 0.02716 0.90109 0.33687 0.0
H1808 H 0.97439 0.89677 0.33076 0.0
H1809 H 0.99555 0.94222 0.35031 0.0
H1810 H 0.96991 0.93958 0.36566 0.0
H1811 H 0.95708 0.91686 0.3184 0.0
H1812 H 0.92823 0.92448 0.32234 0.0
H1813 H 0.04033 0.91101 0.36115 0.0
H1814 H 0.02017 0.95612 0.34012 0.0
H1815 H 0.94109 0.94844 0.36904 0.0
H1816 H 0.06632 0.92542 0.36726 0.0
H1817 H 0.04622 0.97072 0.34684 0.0
C1818 C 0.54947 0.21047 0.69985 0.0
C1819 C 0.5588 0.22097 0.68937 0.0
C1820 C 0.54255 0.19564 0.69366 0.0
C1821 C 0.54498 0.19106 0.67696 0.0
C1822 C 0.55375 0.20179 0.66636 0.0
C1823 C 0.5605 0.21664 0.67247 0.0
C1824 C 0.54102 0.17407 0.67113 0.0
C1825 C 0.52463 0.169 0.66748 0.0
C1826 C 0.52165 0.15318 0.66046 0.0
C1827 C 0.53513 0.14247 0.65753 0.0
C1828 C 0.55151 0.14724 0.66156 0.0
C1829 C 0.55426 0.16311 0.66839 0.0
C1830 C 0.56573 0.13581 0.65845 0.0
C1831 C 0.56388 0.11851 0.66042 0.0
C1832 C 0.58134 0.14209 0.65356 0.0
C1833 C 0.59478 0.13144 0.651 0.0
C1834 C 0.59291 0.11414 0.65285 0.0
C1835 C 0.50464 0.14765 0.65565 0.0
C1836 C 0.49141 0.14837 0.66704 0.0
C1837 C 0.50192 0.14039 0.63991 0.0
C1838 C 0.48646 0.1335 0.63579 0.0
C1839 C 0.47339 0.13364 0.64735 0.0
C1840 C 0.47593 0.1413 0.66297 0.0
C1841 C 0.57723 0.10782 0.65749 0.0
H1842 H 0.54789 0.21355 0.71291 0.0
H1843 H 0.53603 0.18738 0.70207 0.0
H1844 H 0.55597 0.19831 0.6535 0.0
H1845 H 0.56779 0.22432 0.66413 0.0
H1846 H 0.51439 0.17752 0.66949 0.0
H1847 H 0.56676 0.16707 0.67173 0.0
H1848 H 0.5328 0.13039 0.65195 0.0
H1849 H 0.55215 0.11317 0.66438 0.0
H1850 H 0.58323 0.15528 0.65158 0.0
H1851 H 0.60668 0.13686 0.64769 0.0
H1852 H 0.49322 0.15384 0.67929 0.0
H1853 H 0.51187 0.13977 0.63085 0.0
H1854 H 0.57516 0.09457 0.65875 0.0
H1855 H 0.46597 0.1417 0.67205 0.0
H1856 H 0.48489 0.12761 0.62371 0.0
C1857 C 0.00773 0.62104 0.28645 0.0
C1858 C 0.01359 0.60686 0.29491 0.0
C1859 C 0.0077 0.63665 0.29433 0.0
C1860 C 0.01349 0.63829 0.31079 0.0
C1861 C 0.01877 0.62414 0.31938 0.0
C1862 C 0.01917 0.60871 0.31148 0.0
C1863 C 0.01427 0.65462 0.31932 0.0
C1864 C 0.99982 0.66351 0.32248 0.0
C1865 C 1.00012 0.67807 0.33237 0.0
C1866 C 0.01548 0.68324 0.33973 0.0
C1867 C 0.03019 0.67402 0.3369 0.0
C1868 C 0.02932 0.66021 0.32601 0.0
C1869 C 0.04655 0.67724 0.34565 0.0
C1870 C 0.05382 0.69309 0.34824 0.0
C1871 C 0.05608 0.6634 0.34983 0.0
C1872 C 0.07283 0.66485 0.35366 0.0
C1873 C 0.08073 0.68028 0.3559 0.0
C1874 C 0.98384 0.68644 0.33581 0.0
C1875 C 0.97098 0.68569 0.32384 0.0
C1876 C 0.98017 0.69331 0.3515 0.0
C1877 C 0.96384 0.69809 0.35544 0.0
C1878 C 0.95057 0.69553 0.34403 0.0
C1879 C 0.95463 0.68962 0.328 0.0
C1880 C 0.07072 0.69459 0.35345 0.0
H1881 H 1.00306 0.62009 0.2738 0.0
H1882 H 1.00335 0.64743 0.28756 0.0
H1883 H 0.02259 0.62508 0.3323 0.0
H1884 H 0.02404 0.59826 0.3184 0.0
H1885 H 0.98817 0.65839 0.31788 0.0
H1886 H 0.04045 0.65325 0.32299 0.0
H1887 H 0.01592 0.694 0.34787 0.0
H1888 H 0.04677 0.70423 0.34561 0.0
H1889 H 0.05066 0.6511 0.34937 0.0
H1890 H 0.07942 0.65347 0.35491 0.0
H1891 H 0.97332 0.68117 0.31134 0.0
H1892 H 0.98968 0.6943 0.36105 0.0
H1893 H 0.07597 0.70692 0.35493 0.0
H1894 H 0.94522 0.68716 0.31865 0.0
H1895 H 0.9617 0.70332 0.36767 0.0
C1896 C 0.17841 0.67017 0.38179 0.0
C1897 C 0.17968 0.66804 0.39908 0.0
C1898 C 0.16324 0.67482 0.3742 0.0
C1899 C 0.14864 0.67677 0.38404 0.0
C1900 C 0.15017 0.67538 0.40167 0.0
C1901 C 0.16567 0.6712 0.40893 0.0
C1902 C 0.16288 0.6771 0.35554 0.0
C1903 C 0.13552 0.67809 0.41306 0.0
C1904 C 0.10598 0.69422 0.3701 0.0
C1905 C 0.0989 0.68065 0.36146 0.0
C1906 C 0.12242 0.69358 0.37664 0.0
C1907 C 0.13174 0.67854 0.37578 0.0
C1908 C 0.12471 0.66494 0.36686 0.0
C1909 C 0.10912 0.6666 0.35908 0.0
C1910 C 0.12944 0.70921 0.3844 0.0
C1911 C 0.13293 0.64809 0.36562 0.0
H1912 H 0.18933 0.66814 0.37414 0.0
H1913 H 0.16672 0.66998 0.42235 0.0
H1914 H 0.15322 0.68614 0.35165 0.0
H1915 H 0.17517 0.68145 0.35089 0.0
H1916 H 0.16016 0.66498 0.34944 0.0
H1917 H 0.13427 0.69158 0.41562 0.0
H1918 H 0.12376 0.67355 0.40736 0.0
H1919 H 0.13729 0.67187 0.42526 0.0
H1920 H 0.09876 0.7054 0.37198 0.0
H1921 H 0.10502 0.65641 0.35129 0.0
H1922 H 0.14312 0.70871 0.38629 0.0
H1923 H 0.12329 0.71143 0.39656 0.0
H1924 H 0.12654 0.72008 0.3764 0.0
H1925 H 0.13488 0.64485 0.3523 0.0
H1926 H 0.12441 0.63855 0.37084 0.0
H1927 H 0.14495 0.64707 0.37231 0.0
C1928 C 0.35932 0.2872 0.6261 0.0
C1929 C 0.34346 0.28429 0.63256 0.0
C1930 C 0.37349 0.2855 0.63614 0.0
C1931 C 0.37179 0.28097 0.65315 0.0
C1932 C 0.35593 0.27622 0.65914 0.0
C1933 C 0.34193 0.27809 0.64884 0.0
C1934 C 0.39009 0.28854 0.62822 0.0
C1935 C 0.35368 0.26972 0.67661 0.0
C1936 C 0.41177 0.26834 0.6755 0.0
C1937 C 0.41642 0.28306 0.68388 0.0
C1938 C 0.39698 0.26735 0.66585 0.0
C1939 C 0.38644 0.28123 0.66474 0.0
C1940 C 0.39002 0.29546 0.67448 0.0
C1941 C 0.4049 0.29627 0.6838 0.0
C1942 C 0.39257 0.25167 0.65644 0.0
C1943 C 0.37852 0.31021 0.67452 0.0
H1944 H 0.36059 0.29152 0.61336 0.0
H1945 H 0.32967 0.27572 0.65395 0.0
H1946 H 0.3998 0.29078 0.63765 0.0
H1947 H 0.3936 0.27741 0.62081 0.0
H1948 H 0.38946 0.29926 0.61954 0.0
H1949 H 0.34094 0.26471 0.67865 0.0
H1950 H 0.36282 0.25972 0.6792 0.0
H1951 H 0.35603 0.27987 0.68573 0.0
H1952 H 0.4196 0.25763 0.67669 0.0
H1953 H 0.40783 0.30777 0.69025 0.0
H1954 H 0.39787 0.25239 0.64373 0.0
H1955 H 0.37897 0.24985 0.65492 0.0
H1956 H 0.39718 0.24067 0.66302 0.0
H1957 H 0.38133 0.31805 0.66352 0.0
H1958 H 0.38013 0.31766 0.68609 0.0
H1959 H 0.36525 0.30645 0.67365 0.0
C1960 C 0.67633 0.05987 0.64196 0.0
C1961 C 0.67373 0.04781 0.62949 0.0
C1962 C 0.66333 0.07033 0.64717 0.0
C1963 C 0.64746 0.06889 0.63954 0.0
C1964 C 0.6446 0.05642 0.62737 0.0
C1965 C 0.65766 0.0459 0.6227 0.0
C1966 C 0.66672 0.08328 0.66044 0.0
C1967 C 0.62789 0.05459 0.6188 0.0
C1968 C 0.60917 0.08824 0.65932 0.0
C1969 C 0.60721 0.10275 0.64983 0.0
C1970 C 0.62231 0.07718 0.65625 0.0
C1971 C 0.63399 0.08087 0.64362 0.0
C1972 C 0.63233 0.09566 0.63425 0.0
C1973 C 0.6189 0.10631 0.63734 0.0
C1974 C 0.62357 0.06145 0.66639 0.0
C1975 C 0.64462 0.10011 0.62074 0.0
H1976 H 0.68866 0.06157 0.64725 0.0
H1977 H 0.65532 0.03634 0.61342 0.0
H1978 H 0.66559 0.0959 0.655 0.0
H1979 H 0.65734 0.08232 0.67053 0.0
H1980 H 0.67934 0.08202 0.666 0.0
H1981 H 0.62743 0.04368 0.61026 0.0
H1982 H 0.61783 0.05329 0.62815 0.0
H1983 H 0.62522 0.06594 0.61145 0.0
H1984 H 0.60047 0.08549 0.66924 0.0
H1985 H 0.61741 0.11729 0.6297 0.0
H1986 H 0.63579 0.061 0.67286 0.0
H1987 H 0.62285 0.05043 0.65804 0.0
H1988 H 0.61353 0.06044 0.67583 0.0
H1989 H 0.65734 0.10108 0.62612 0.0
H1990 H 0.64156 0.11208 0.61459 0.0
H1991 H 0.64487 0.09016 0.61113 0.0
C1992 C 0.83476 0.93036 0.35702 0.0
C1993 C 0.82631 0.94533 0.35973 0.0
C1994 C 0.85205 0.93013 0.35476 0.0
C1995 C 0.86117 0.94523 0.35552 0.0
C1996 C 0.85269 0.96042 0.35827 0.0
C1997 C 0.83527 0.96032 0.36013 0.0
C1998 C 0.86054 0.91369 0.35159 0.0
C1999 C 0.86202 0.97673 0.35939 0.0
C2000 C 0.90724 0.93975 0.36476 0.0
C2001 C 0.91423 0.94087 0.34877 0.0
C2002 C 0.89008 0.94192 0.36724 0.0
C2003 C 0.87957 0.94495 0.35338 0.0
C2004 C 0.88656 0.94652 0.3373 0.0
C2005 C 0.90379 0.94466 0.33522 0.0
C2006 C 0.88311 0.94044 0.38464 0.0
C2007 C 0.87574 0.94948 0.32217 0.0
H2008 H 0.82777 0.91879 0.3566 0.0
H2009 H 0.8287 0.97187 0.36232 0.0
H2010 H 0.86773 0.91426 0.33982 0.0
H2011 H 0.86951 0.91106 0.36179 0.0
H2012 H 0.85154 0.90318 0.35073 0.0
H2013 H 0.85383 0.98717 0.36317 0.0
H2014 H 0.87242 0.97577 0.36849 0.0
H2015 H 0.86757 0.97971 0.34711 0.0
H2016 H 0.91507 0.93662 0.37531 0.0
H2017 H 0.90905 0.94593 0.32287 0.0
H2018 H 0.87481 0.9294 0.38538 0.0
H2019 H 0.87548 0.95152 0.38765 0.0
H2020 H 0.89305 0.93921 0.39422 0.0
H2021 H 0.86714 0.93878 0.32035 0.0
H2022 H 0.88317 0.95111 0.31062 0.0
H2023 H 0.86796 0.96069 0.32404 0.0
C2024 C 0.38128 0.1744 0.67857 0.0
C2025 C 0.3978 0.17368 0.67286 0.0
C2026 C 0.37239 0.15986 0.68304 0.0
C2027 C 0.38009 0.14401 0.68162 0.0
C2028 C 0.39721 0.14349 0.67708 0.0
C2029 C 0.40569 0.1582 0.67254 0.0
C2030 C 0.35485 0.1619 0.6894 0.0
C2031 C 0.40676 0.12741 0.67677 0.0
C2032 C 0.36722 0.10074 0.69743 0.0
C2033 C 0.35653 0.09511 0.68473 0.0
C2034 C 0.37383 0.11704 0.69739 0.0
C2035 C 0.3704 0.12794 0.68385 0.0
C2036 C 0.35861 0.12262 0.6716 0.0
C2037 C 0.35202 0.10635 0.67215 0.0
C2038 C 0.38387 0.12247 0.71239 0.0
C2039 C 0.35203 0.13414 0.65831 0.0
H2040 H 0.37515 0.18637 0.67931 0.0
H2041 H 0.41863 0.15761 0.66876 0.0
H2042 H 0.34948 0.15028 0.69456 0.0
H2043 H 0.35464 0.17161 0.69929 0.0
H2044 H 0.34677 0.16642 0.67913 0.0
H2045 H 0.41002 0.12379 0.68967 0.0
H2046 H 0.39924 0.11724 0.67109 0.0
H2047 H 0.41861 0.12874 0.66986 0.0
H2048 H 0.37017 0.0925 0.70769 0.0
H2049 H 0.34338 0.10236 0.66251 0.0
H2050 H 0.38794 0.13566 0.71191 0.0
H2051 H 0.39493 0.11434 0.71375 0.0
H2052 H 0.37627 0.12073 0.7238 0.0
H2053 H 0.36156 0.14308 0.65391 0.0
H2054 H 0.34688 0.12719 0.64746 0.0
H2055 H 0.34152 0.14133 0.66356 0.0
C2056 C 0.34427 0.83374 0.94075 0.0
C2057 C 0.35757 0.82651 0.94944 0.0
C2058 C 0.34258 0.85109 0.93987 0.0
C2059 C 0.35444 0.86148 0.94793 0.0
C2060 C 0.36763 0.85426 0.95711 0.0
C2061 C 0.36904 0.83686 0.95775 0.0
C2062 C 0.32845 0.85831 0.92978 0.0
C2063 C 0.38037 0.86491 0.96609 0.0
C2064 C 0.36016 0.90522 0.93101 0.0
C2065 C 0.35009 0.91448 0.94177 0.0
C2066 C 0.36176 0.88795 0.93295 0.0
C2067 C 0.35337 0.87989 0.94618 0.0
C2068 C 0.34355 0.88934 0.95736 0.0
C2069 C 0.34183 0.90654 0.95487 0.0
C2070 C 0.37213 0.8783 0.9206 0.0
C2071 C 0.33467 0.88125 0.97179 0.0
H2072 H 0.33549 0.82584 0.9341 0.0
H2073 H 0.37923 0.83135 0.96466 0.0
H2074 H 0.32122 0.86719 0.93747 0.0
H2075 H 0.33355 0.86534 0.91906 0.0
H2076 H 0.31983 0.84856 0.92494 0.0
H2077 H 0.39006 0.85737 0.97242 0.0
H2078 H 0.38658 0.87342 0.95717 0.0
H2079 H 0.37408 0.87277 0.97554 0.0
H2080 H 0.36637 0.91144 0.92078 0.0
H2081 H 0.33401 0.9138 0.96311 0.0
H2082 H 0.36431 0.86871 0.91434 0.0
H2083 H 0.3823 0.87171 0.9272 0.0
H2084 H 0.37771 0.88643 0.91092 0.0
H2085 H 0.32521 0.87231 0.96703 0.0
H2086 H 0.32837 0.89049 0.97991 0.0
H2087 H 0.34366 0.8741 0.97945 0.0
C2088 C 0.64447 0.34189 0.27574 0.0
C2089 C 0.63233 0.34272 0.28815 0.0
C2090 C 0.6539 0.35602 0.27179 0.0
C2091 C 0.65126 0.37091 0.28087 0.0
C2092 C 0.6369 0.37214 0.29127 0.0
C2093 C 0.62819 0.35778 0.29537 0.0
C2094 C 0.66644 0.35492 0.25787 0.0
C2095 C 0.6298 0.38805 0.29802 0.0
C2096 C 0.68784 0.39994 0.28971 0.0
C2097 C 0.68219 0.41477 0.28241 0.0
C2098 C 0.67829 0.38519 0.28869 0.0
C2099 C 0.6633 0.38496 0.2793 0.0
C2100 C 0.65918 0.39877 0.26949 0.0
C2101 C 0.66818 0.41374 0.27187 0.0
C2102 C 0.68344 0.37037 0.29892 0.0
C2103 C 0.64392 0.39832 0.25834 0.0
H2104 H 0.64699 0.33013 0.26961 0.0
H2105 H 0.61807 0.3583 0.30431 0.0
H2106 H 0.66842 0.36713 0.25175 0.0
H2107 H 0.67852 0.35056 0.26292 0.0
H2108 H 0.66229 0.34581 0.24824 0.0
H2109 H 0.63407 0.3897 0.31103 0.0
H2110 H 0.63269 0.3989 0.29022 0.0
H2111 H 0.61598 0.38732 0.29861 0.0
H2112 H 0.69873 0.40033 0.29772 0.0
H2113 H 0.66235 0.42505 0.26841 0.0
H2114 H 0.68441 0.35919 0.29086 0.0
H2115 H 0.67379 0.36777 0.30846 0.0
H2116 H 0.69559 0.37237 0.30531 0.0
H2117 H 0.64783 0.39988 0.24524 0.0
H2118 H 0.63519 0.40827 0.2621 0.0
H2119 H 0.63679 0.38652 0.25852 0.0
C2120 C 0.62066 0.67124 0.06293 0.0
C2121 C 0.62945 0.67428 0.04822 0.0
C2122 C 0.62506 0.65807 0.07344 0.0
C2123 C 0.63848 0.64761 0.06898 0.0
C2124 C 0.64753 0.65076 0.05417 0.0
C2125 C 0.64291 0.66415 0.04394 0.0
C2126 C 0.61518 0.6552 0.08916 0.0
C2127 C 0.66179 0.63975 0.04896 0.0
C2128 C 0.65757 0.62194 0.10372 0.0
C2129 C 0.65003 0.60642 0.10104 0.0
C2130 C 0.65423 0.63536 0.09312 0.0
C2131 C 0.64284 0.63324 0.07975 0.0
C2132 C 0.63519 0.61754 0.07702 0.0
C2133 C 0.63902 0.60425 0.08763 0.0
C2134 C 0.66281 0.65183 0.09627 0.0
C2135 C 0.6227 0.61489 0.06314 0.0
H2136 H 0.61017 0.6791 0.06608 0.0
H2137 H 0.64951 0.66645 0.0324 0.0
H2138 H 0.6095 0.64259 0.0889 0.0
H2139 H 0.62355 0.65578 0.10019 0.0
H2140 H 0.60512 0.6645 0.09082 0.0
H2141 H 0.66823 0.6445 0.03769 0.0
H2142 H 0.671 0.63871 0.05925 0.0
H2143 H 0.65706 0.62703 0.04627 0.0
H2144 H 0.66614 0.62353 0.11408 0.0
H2145 H 0.63308 0.59224 0.08572 0.0
H2146 H 0.65341 0.66165 0.09856 0.0
H2147 H 0.67 0.65554 0.08509 0.0
H2148 H 0.67142 0.65137 0.10713 0.0
H2149 H 0.61187 0.62323 0.06499 0.0
H2150 H 0.61811 0.60184 0.06252 0.0
H2151 H 0.62835 0.61814 0.05098 0.0
C2152 C 0.68965 0.39251 0.17172 0.0
C2153 C 0.67303 0.39613 0.17594 0.0
C2154 C 0.69374 0.38362 0.15711 0.0
C2155 C 0.68103 0.37887 0.14569 0.0
C2156 C 0.66416 0.38164 0.15027 0.0
C2157 C 0.66042 0.39017 0.16522 0.0
C2158 C 0.71181 0.37951 0.15411 0.0
C2159 C 0.64985 0.37533 0.1397 0.0
C2160 C 0.69277 0.37641 0.09953 0.0
C2161 C 0.68819 0.36014 0.09538 0.0
C2162 C 0.69184 0.38226 0.11604 0.0
C2163 C 0.68523 0.37182 0.12875 0.0
C2164 C 0.68177 0.35489 0.12471 0.0
C2165 C 0.68332 0.3493 0.10812 0.0
C2166 C 0.69884 0.39937 0.11949 0.0
C2167 C 0.67649 0.34234 0.13761 0.0
H2168 H 0.69969 0.39678 0.17973 0.0
H2169 H 0.64749 0.39203 0.16854 0.0
H2170 H 0.71347 0.36937 0.14486 0.0
H2171 H 0.7184 0.39081 0.14968 0.0
H2172 H 0.71789 0.37576 0.16597 0.0
H2173 H 0.65259 0.37583 0.12617 0.0
H2174 H 0.64724 0.3622 0.14298 0.0
H2175 H 0.63834 0.38242 0.14222 0.0
H2176 H 0.69719 0.38462 0.08978 0.0
H2177 H 0.68001 0.33656 0.10502 0.0
H2178 H 0.69395 0.40513 0.131 0.0
H2179 H 0.69657 0.4078 0.10878 0.0
H2180 H 0.71256 0.39836 0.12081 0.0
H2181 H 0.68468 0.33126 0.13683 0.0
H2182 H 0.66365 0.33796 0.13474 0.0
H2183 H 0.67695 0.34721 0.15055 0.0
C2184 C 0.95213 0.37207 0.83683 0.0
C2185 C 0.94586 0.35955 0.82625 0.0
C2186 C 0.95117 0.3706 0.85424 0.0
C2187 C 0.94388 0.3562 0.86127 0.0
C2188 C 0.93784 0.34336 0.8507 0.0
C2189 C 0.93887 0.3452 0.83333 0.0
C2190 C 0.95776 0.38454 0.86511 0.0
C2191 C 0.92984 0.32788 0.85773 0.0
C2192 C 0.95268 0.34506 0.90649 0.0
C2193 C 0.93821 0.35069 0.9143 0.0
C2194 C 0.95484 0.34702 0.88924 0.0
C2195 C 0.94215 0.3547 0.87968 0.0
C2196 C 0.92756 0.36054 0.88766 0.0
C2197 C 0.92579 0.35848 0.90492 0.0
C2198 C 0.97053 0.34063 0.88119 0.0
C2199 C 0.91379 0.36888 0.87796 0.0
H2200 H 0.95776 0.3831 0.83149 0.0
H2201 H 0.93373 0.33559 0.82529 0.0
H2202 H 0.94767 0.38942 0.87314 0.0
H2203 H 0.96767 0.37978 0.87348 0.0
H2204 H 0.96294 0.39498 0.85768 0.0
H2205 H 0.9265 0.3187 0.84787 0.0
H2206 H 0.93838 0.32186 0.86676 0.0
H2207 H 0.91836 0.33128 0.8646 0.0
H2208 H 0.96217 0.33893 0.91387 0.0
H2209 H 0.91458 0.36272 0.9111 0.0
H2210 H 0.97703 0.35093 0.87469 0.0
H2211 H 0.96736 0.33108 0.87166 0.0
H2212 H 0.97924 0.33508 0.8904 0.0
H2213 H 0.91838 0.38089 0.87294 0.0
H2214 H 0.90267 0.37135 0.88578 0.0
H2215 H 0.90995 0.36105 0.86718 0.0
C2216 C 0.26677 0.62878 0.35625 0.0
C2217 C 0.27525 0.63556 0.34275 0.0
C2218 C 0.2637 0.63851 0.37048 0.0
C2219 C 0.26976 0.65514 0.37134 0.0
C2220 C 0.27728 0.66226 0.35707 0.0
C2221 C 0.27979 0.65238 0.34292 0.0
C2222 C 0.25542 0.63049 0.38514 0.0
C2223 C 0.28522 0.67932 0.35762 0.0
C2224 C 0.26736 0.68271 0.4105 0.0
C2225 C 0.28251 0.67869 0.41832 0.0
C2226 C 0.26277 0.67511 0.39512 0.0
C2227 C 0.2733 0.66294 0.38788 0.0
C2228 C 0.28866 0.65929 0.39558 0.0
C2229 C 0.2931 0.66746 0.41028 0.0
C2230 C 0.2469 0.68016 0.38646 0.0
C2231 C 0.30079 0.64683 0.38839 0.0
H2232 H 0.26335 0.61571 0.356 0.0
H2233 H 0.28664 0.65743 0.33244 0.0
H2234 H 0.26486 0.62851 0.39506 0.0
H2235 H 0.24556 0.63881 0.38989 0.0
H2236 H 0.24971 0.61827 0.3819 0.0
H2237 H 0.28757 0.68422 0.34491 0.0
H2238 H 0.27737 0.68829 0.36453 0.0
H2239 H 0.29737 0.6785 0.36422 0.0
H2240 H 0.25932 0.69186 0.41622 0.0
H2241 H 0.30524 0.66521 0.41536 0.0
H2242 H 0.23842 0.66926 0.38545 0.0
H2243 H 0.24958 0.68425 0.37355 0.0
H2244 H 0.24045 0.69041 0.39309 0.0
H2245 H 0.29823 0.63449 0.39399 0.0
H2246 H 0.31378 0.65056 0.39126 0.0
H2247 H 0.29995 0.64534 0.37471 0.0
C2248 C 0.06373 0.6196 0.67042 0.0
C2249 C 0.04938 0.62876 0.67397 0.0
C2250 C 0.07408 0.62395 0.65708 0.0
C2251 C 0.06981 0.63767 0.64694 0.0
C2252 C 0.0554 0.64711 0.65062 0.0
C2253 C 0.04535 0.64257 0.66421 0.0
C2254 C 0.08943 0.61369 0.6537 0.0
C2255 C 0.05037 0.66167 0.63994 0.0
C2256 C 0.10463 0.65577 0.62067 0.0
C2257 C 0.10149 0.64835 0.60514 0.0
C2258 C 0.09413 0.65278 0.63427 0.0
C2259 C 0.08035 0.64189 0.63233 0.0
C2260 C 0.0771 0.63443 0.61661 0.0
C2261 C 0.08765 0.63788 0.60314 0.0
C2262 C 0.09788 0.66114 0.65076 0.0
C2263 C 0.06273 0.62248 0.61414 0.0
H2264 H 0.06673 0.60888 0.67801 0.0
H2265 H 0.0341 0.64947 0.66691 0.0
H2266 H 0.08874 0.60826 0.64097 0.0
H2267 H 0.10069 0.62173 0.6542 0.0
H2268 H 0.09098 0.60343 0.6628 0.0
H2269 H 0.03948 0.66841 0.64511 0.0
H2270 H 0.06092 0.67054 0.6387 0.0
H2271 H 0.04715 0.65722 0.62721 0.0
H2272 H 0.1153 0.66398 0.62212 0.0
H2273 H 0.08535 0.63204 0.59113 0.0
H2274 H 0.10013 0.65162 0.66047 0.0
H2275 H 0.08699 0.66857 0.65479 0.0
H2276 H 0.10894 0.66946 0.65011 0.0
H2277 H 0.06439 0.61149 0.6223 0.0
H2278 H 0.06164 0.6181 0.60102 0.0
H2279 H 0.05087 0.62851 0.61776 0.0
C2280 C 0.83916 0.35754 0.62156 0.0
C2281 C 0.82774 0.34489 0.61725 0.0
C2282 C 0.85463 0.35398 0.62929 0.0
C2283 C 0.85908 0.33726 0.63291 0.0
C2284 C 0.84702 0.32463 0.62996 0.0
C2285 C 0.83186 0.32847 0.62183 0.0
C2286 C 0.8661 0.36833 0.63348 0.0
C2287 C 0.84993 0.30708 0.63588 0.0
C2288 C 0.90493 0.32303 0.63546 0.0
C2289 C 0.90983 0.32805 0.65159 0.0
C2290 C 0.88854 0.32537 0.62941 0.0
C2291 C 0.87624 0.33299 0.63968 0.0
C2292 C 0.88072 0.33691 0.65637 0.0
C2293 C 0.89722 0.33453 0.66197 0.0
C2294 C 0.88491 0.31931 0.61193 0.0
C2295 C 0.86836 0.34378 0.66873 0.0
H2296 H 0.83606 0.37037 0.61896 0.0
H2297 H 0.8233 0.31842 0.61896 0.0
H2298 H 0.86404 0.37217 0.6466 0.0
H2299 H 0.87934 0.36483 0.63208 0.0
H2300 H 0.86356 0.37932 0.62554 0.0
H2301 H 0.83876 0.29905 0.63418 0.0
H2302 H 0.86042 0.3014 0.62899 0.0
H2303 H 0.85339 0.30724 0.6493 0.0
H2304 H 0.91384 0.31713 0.6273 0.0
H2305 H 0.90005 0.33841 0.67455 0.0
H2306 H 0.89362 0.32529 0.60308 0.0
H2307 H 0.87203 0.32162 0.60763 0.0
H2308 H 0.88729 0.30572 0.61122 0.0
H2309 H 0.8715 0.35698 0.67143 0.0
H2310 H 0.86944 0.33699 0.68073 0.0
H2311 H 0.85525 0.34295 0.66442 0.0
C2312 C 0.66283 0.71587 0.35405 0.0
C2313 C 0.66064 0.71279 0.37108 0.0
C2314 C 0.64981 0.72218 0.34433 0.0
C2315 C 0.63408 0.7248 0.35171 0.0
C2316 C 0.63268 0.72409 0.36935 0.0
C2317 C 0.64597 0.71789 0.37885 0.0
C2318 C 0.65284 0.72599 0.32618 0.0
C2319 C 0.61761 0.73019 0.37857 0.0
C2320 C 0.59426 0.7381 0.32927 0.0
C2321 C 0.58785 0.72265 0.324 0.0
C2322 C 0.60998 0.73923 0.33723 0.0
C2323 C 0.61887 0.72456 0.34093 0.0
C2324 C 0.61312 0.70918 0.33444 0.0
C2325 C 0.5979 0.7085 0.32583 0.0
C2326 C 0.61719 0.75599 0.34164 0.0
C2327 C 0.62292 0.69331 0.33677 0.0
H2328 H 0.67472 0.71313 0.3483 0.0
H2329 H 0.64469 0.71658 0.39224 0.0
H2330 H 0.64389 0.71922 0.31806 0.0
H2331 H 0.65086 0.73947 0.32405 0.0
H2332 H 0.6657 0.7228 0.32227 0.0
H2333 H 0.62097 0.74182 0.38531 0.0
H2334 H 0.607 0.73297 0.37027 0.0
H2335 H 0.61387 0.72106 0.3882 0.0
H2336 H 0.58708 0.74924 0.32703 0.0
H2337 H 0.59341 0.69656 0.32135 0.0
H2338 H 0.63085 0.75626 0.3396 0.0
H2339 H 0.61513 0.75857 0.35504 0.0
H2340 H 0.61152 0.76593 0.334 0.0
H2341 H 0.6164 0.68227 0.33154 0.0
H2342 H 0.62556 0.69128 0.3502 0.0
H2343 H 0.63508 0.69424 0.33037 0.0
C2344 C 0.33993 0.94522 0.38974 0.0
C2345 C 0.33168 0.95467 0.37768 0.0
C2346 C 0.35286 0.93447 0.38532 0.0
C2347 C 0.35784 0.93345 0.36845 0.0
C2348 C 0.34955 0.94301 0.35618 0.0
C2349 C 0.33635 0.95342 0.36093 0.0
C2350 C 0.36126 0.92433 0.39873 0.0
C2351 C 0.35474 0.94236 0.33812 0.0
C2352 C 0.40168 0.91743 0.36217 0.0
C2353 C 0.39866 0.90074 0.35806 0.0
C2354 C 0.38846 0.9284 0.365 0.0
C2355 C 0.37188 0.92244 0.36383 0.0
C2356 C 0.36877 0.90564 0.35941 0.0
C2357 C 0.38223 0.89499 0.3565 0.0
C2358 C 0.39224 0.94628 0.36949 0.0
C2359 C 0.35126 0.89877 0.35836 0.0
H2360 H 0.33617 0.94621 0.40268 0.0
H2361 H 0.32992 0.96083 0.35168 0.0
H2362 H 0.361 0.91094 0.39533 0.0
H2363 H 0.37452 0.9281 0.39988 0.0
H2364 H 0.35523 0.92588 0.41108 0.0
H2365 H 0.34756 0.95117 0.33027 0.0
H2366 H 0.3682 0.94534 0.33701 0.0
H2367 H 0.35289 0.92959 0.33313 0.0
H2368 H 0.41441 0.92191 0.36316 0.0
H2369 H 0.37992 0.88203 0.35346 0.0
H2370 H 0.38742 0.94912 0.38212 0.0
H2371 H 0.38586 0.95472 0.36064 0.0
H2372 H 0.40581 0.94906 0.3693 0.0
H2373 H 0.34535 0.89936 0.37083 0.0
H2374 H 0.35097 0.88566 0.35393 0.0
H2375 H 0.34361 0.90642 0.3498 0.0
C2376 C 0.17144 0.04597 0.6385 0.0
C2377 C 0.18205 0.05563 0.64856 0.0
C2378 C 0.1541 0.04656 0.64052 0.0
C2379 C 0.1472 0.05737 0.65261 0.0
C2380 C 0.15789 0.06696 0.66299 0.0
C2381 C 0.17522 0.06583 0.66096 0.0
C2382 C 0.14314 0.03593 0.62941 0.0
C2383 C 0.15102 0.07889 0.6758 0.0
C2384 C 0.10369 0.07347 0.6441 0.0
C2385 C 0.09407 0.06484 0.65588 0.0
C2386 C 0.12096 0.0713 0.6431 0.0
C2387 C 0.12883 0.05959 0.65357 0.0
C2388 C 0.1192 0.05024 0.66497 0.0
C2389 C 0.10197 0.05312 0.66615 0.0
C2390 C 0.13081 0.08183 0.63104 0.0
C2391 C 0.1271 0.03722 0.67592 0.0
H2392 H 0.17674 0.03802 0.62897 0.0
H2393 H 0.18342 0.07344 0.66862 0.0
H2394 H 0.13402 0.02889 0.63702 0.0
H2395 H 0.13595 0.04397 0.62082 0.0
H2396 H 0.15046 0.02698 0.62184 0.0
H2397 H 0.16101 0.08564 0.6827 0.0
H2398 H 0.14288 0.08815 0.66961 0.0
H2399 H 0.14323 0.07206 0.6849 0.0
H2400 H 0.09777 0.08213 0.63566 0.0
H2401 H 0.09481 0.04644 0.6754 0.0
H2402 H 0.13694 0.07377 0.62166 0.0
H2403 H 0.14078 0.08871 0.6378 0.0
H2404 H 0.12289 0.09097 0.62437 0.0
H2405 H 0.13268 0.02737 0.66801 0.0
H2406 H 0.11799 0.03135 0.6845 0.0
H2407 H 0.13733 0.0428 0.68344 0.0
C2408 C 0.62083 0.84307 0.3545 0.0
C2409 C 0.61745 0.8306 0.34264 0.0
C2410 C 0.62868 0.85812 0.35019 0.0
C2411 C 0.63314 0.86136 0.3334 0.0
C2412 C 0.63056 0.84855 0.32143 0.0
C2413 C 0.6226 0.8335 0.3261 0.0
C2414 C 0.6322 0.87043 0.36395 0.0
C2415 C 0.63683 0.85046 0.30383 0.0
C2416 C 0.63802 0.90696 0.31984 0.0
C2417 C 0.65379 0.91115 0.3263 0.0
C2418 C 0.63156 0.89064 0.32088 0.0
C2419 C 0.64095 0.87788 0.32879 0.0
C2420 C 0.65744 0.88173 0.33399 0.0
C2421 C 0.6635 0.89814 0.33284 0.0
C2422 C 0.61468 0.88764 0.31314 0.0
C2423 C 0.66898 0.86878 0.34114 0.0
H2424 H 0.61693 0.8414 0.36729 0.0
H2425 H 0.62082 0.82387 0.31679 0.0
H2426 H 0.64486 0.86814 0.36895 0.0
H2427 H 0.63156 0.88339 0.35941 0.0
H2428 H 0.62338 0.86885 0.37443 0.0
H2429 H 0.63547 0.8388 0.29647 0.0
H2430 H 0.62988 0.86042 0.29735 0.0
H2431 H 0.65017 0.85417 0.30404 0.0
H2432 H 0.63055 0.91639 0.31384 0.0
H2433 H 0.67582 0.90065 0.33772 0.0
H2434 H 0.60561 0.89671 0.31821 0.0
H2435 H 0.60988 0.87487 0.31493 0.0
H2436 H 0.61545 0.89002 0.29954 0.0
H2437 H 0.67098 0.87134 0.35461 0.0
H2438 H 0.68136 0.86974 0.33508 0.0
H2439 H 0.66432 0.85587 0.33954 0.0
C2440 C 0.66488 0.17315 0.05845 0.0
C2441 C 0.64918 0.18064 0.05982 0.0
C2442 C 0.66661 0.15574 0.05919 0.0
C2443 C 0.65232 0.14558 0.0614 0.0
C2444 C 0.6364 0.15303 0.06221 0.0
C2445 C 0.63503 0.1704 0.0613 0.0
C2446 C 0.68377 0.14824 0.05811 0.0
C2447 C 0.62085 0.1427 0.0647 0.0
C2448 C 0.65395 0.09889 0.05292 0.0
C2449 C 0.65591 0.09248 0.06906 0.0
C2450 C 0.65305 0.11614 0.05018 0.0
C2451 C 0.65405 0.12727 0.06389 0.0
C2452 C 0.65621 0.12088 0.08018 0.0
C2453 C 0.65724 0.10363 0.08253 0.0
C2454 C 0.65072 0.12246 0.03264 0.0
C2455 C 0.65726 0.13227 0.09517 0.0
H2456 H 0.67589 0.1809 0.05741 0.0
H2457 H 0.6228 0.17601 0.06203 0.0
H2458 H 0.68679 0.14175 0.06992 0.0
H2459 H 0.68413 0.13882 0.04798 0.0
H2460 H 0.69355 0.15776 0.05576 0.0
H2461 H 0.60932 0.15022 0.06361 0.0
H2462 H 0.62026 0.13243 0.05545 0.0
H2463 H 0.62115 0.13698 0.07726 0.0
H2464 H 0.65276 0.09041 0.04245 0.0
H2465 H 0.65915 0.09887 0.09502 0.0
H2466 H 0.66048 0.13179 0.02967 0.0
H2467 H 0.6385 0.12878 0.03156 0.0
H2468 H 0.6512 0.1123 0.02323 0.0
H2469 H 0.66794 0.14096 0.09381 0.0
H2470 H 0.65879 0.12531 0.10702 0.0
H2471 H 0.64582 0.1399 0.09603 0.0
C2472 C 0.37212 0.64878 0.73014 0.0
C2473 C 0.36343 0.66199 0.72306 0.0
C2474 C 0.36364 0.63453 0.73548 0.0
C2475 C 0.34605 0.63343 0.73379 0.0
C2476 C 0.33716 0.64759 0.72833 0.0
C2477 C 0.34598 0.66169 0.72298 0.0
C2478 C 0.37363 0.62038 0.74219 0.0
C2479 C 0.31844 0.64738 0.72674 0.0
C2480 C 0.33121 0.59264 0.71529 0.0
C2481 C 0.32392 0.58444 0.72875 0.0
C2482 C 0.3383 0.60848 0.717 0.0
C2483 C 0.33792 0.61668 0.7326 0.0
C2484 C 0.32921 0.60917 0.746 0.0
C2485 C 0.32226 0.59304 0.74392 0.0
C2486 C 0.34592 0.61669 0.70193 0.0
C2487 C 0.32683 0.61822 0.7623 0.0
H2488 H 0.38562 0.64917 0.73064 0.0
H2489 H 0.33923 0.67228 0.71814 0.0
H2490 H 0.36889 0.61774 0.75476 0.0
H2491 H 0.37196 0.60919 0.73421 0.0
H2492 H 0.38715 0.6233 0.74323 0.0
H2493 H 0.31363 0.65861 0.72034 0.0
H2494 H 0.31413 0.63622 0.71973 0.0
H2495 H 0.31288 0.64684 0.73936 0.0
H2496 H 0.33117 0.5866 0.70326 0.0
H2497 H 0.31585 0.58708 0.75417 0.0
H2498 H 0.35959 0.61783 0.70372 0.0
H2499 H 0.341 0.62942 0.70021 0.0
H2500 H 0.34315 0.60969 0.69036 0.0
H2501 H 0.33791 0.62587 0.76559 0.0
H2502 H 0.32409 0.60947 0.77262 0.0
H2503 H 0.31604 0.62671 0.7611 0.0
C2504 C 0.3679 0.34531 0.9636 0.0
C2505 C 0.37718 0.33218 0.95686 0.0
C2506 C 0.36389 0.35928 0.95394 0.0
C2507 C 0.36946 0.36015 0.93724 0.0
C2508 C 0.37856 0.34679 0.93029 0.0
C2509 C 0.38227 0.33295 0.94018 0.0
C2510 C 0.35402 0.37324 0.96168 0.0
C2511 C 0.38477 0.3473 0.91254 0.0
C2512 C 0.34894 0.3904 0.90748 0.0
C2513 C 0.36105 0.40305 0.90625 0.0
C2514 C 0.35156 0.37632 0.91738 0.0
C2515 C 0.36623 0.37521 0.92709 0.0
C2516 C 0.37815 0.38821 0.9266 0.0
C2517 C 0.3756 0.40176 0.91595 0.0
C2518 C 0.33876 0.36249 0.9172 0.0
C2519 C 0.39371 0.38771 0.93723 0.0
H2520 H 0.36389 0.3447 0.97648 0.0
H2521 H 0.3897 0.32296 0.93502 0.0
H2522 H 0.36143 0.38492 0.96146 0.0
H2523 H 0.34253 0.37547 0.95432 0.0
H2524 H 0.35046 0.37056 0.97477 0.0
H2525 H 0.39078 0.33547 0.90872 0.0
H2526 H 0.37431 0.34989 0.90386 0.0
H2527 H 0.39397 0.35754 0.91118 0.0
H2528 H 0.33734 0.39134 0.90064 0.0
H2529 H 0.38526 0.41114 0.91505 0.0
H2530 H 0.33347 0.36088 0.92985 0.0
H2531 H 0.34474 0.35056 0.9137 0.0
H2532 H 0.32841 0.3649 0.90832 0.0
H2533 H 0.39023 0.38712 0.95059 0.0
H2534 H 0.40182 0.39877 0.93534 0.0
H2535 H 0.40099 0.37636 0.93437 0.0
C2536 C 0.33093 0.6243 0.83363 0.0
C2537 C 0.33572 0.6076 0.83151 0.0
C2538 C 0.32639 0.63076 0.84936 0.0
C2539 C 0.32727 0.62058 0.86378 0.0
C2540 C 0.33052 0.60332 0.86143 0.0
C2541 C 0.33459 0.59709 0.84542 0.0
C2542 C 0.32121 0.64876 0.85037 0.0
C2543 C 0.33011 0.59133 0.87578 0.0
C2544 C 0.33878 0.64721 0.90213 0.0
C2545 C 0.32616 0.64361 0.91357 0.0
C2546 C 0.3397 0.63926 0.88646 0.0
C2547 C 0.32668 0.62836 0.8811 0.0
C2548 C 0.31319 0.62553 0.89231 0.0
C2549 C 0.31349 0.63258 0.90854 0.0
C2550 C 0.35499 0.64273 0.87609 0.0
C2551 C 0.29799 0.61556 0.88744 0.0
H2552 H 0.33079 0.63249 0.82293 0.0
H2553 H 0.33776 0.58407 0.84403 0.0
H2554 H 0.31384 0.6515 0.86173 0.0
H2555 H 0.33249 0.65678 0.85036 0.0
H2556 H 0.31366 0.65216 0.83927 0.0
H2557 H 0.3363 0.57941 0.87277 0.0
H2558 H 0.33605 0.59693 0.8869 0.0
H2559 H 0.31701 0.58827 0.87881 0.0
H2560 H 0.34837 0.65599 0.90564 0.0
H2561 H 0.3034 0.62992 0.91709 0.0
H2562 H 0.35528 0.6561 0.87268 0.0
H2563 H 0.35592 0.63512 0.86462 0.0
H2564 H 0.36629 0.64027 0.88364 0.0
H2565 H 0.28657 0.62256 0.89079 0.0
H2566 H 0.29771 0.60387 0.89476 0.0
H2567 H 0.29743 0.61254 0.87395 0.0
C2568 C 0.07386 0.65414 0.17308 0.0
C2569 C 0.06015 0.64681 0.18099 0.0
C2570 C 0.07465 0.65518 0.15566 0.0
C2571 C 0.06147 0.64855 0.14588 0.0
C2572 C 0.04752 0.64122 0.15381 0.0
C2573 C 0.04695 0.64056 0.17132 0.0
C2574 C 0.08967 0.66324 0.14773 0.0
C2575 C 0.03343 0.63368 0.14377 0.0
C2576 C 0.0589 0.66403 0.10122 0.0
C2577 C 0.06729 0.65143 0.09253 0.0
C2578 C 0.05642 0.66299 0.11852 0.0
C2579 C 0.06255 0.64908 0.12736 0.0
C2580 C 0.0706 0.6361 0.1186 0.0
C2581 C 0.0728 0.6374 0.10131 0.0
C2582 C 0.04772 0.67704 0.12743 0.0
C2583 C 0.07744 0.62109 0.12754 0.0
H2584 H 0.08405 0.659 0.18059 0.0
H2585 H 0.03646 0.63467 0.17745 0.0
H2586 H 0.09579 0.65436 0.13911 0.0
H2587 H 0.08571 0.67411 0.14024 0.0
H2588 H 0.09899 0.6675 0.15712 0.0
H2589 H 0.02335 0.62869 0.1518 0.0
H2590 H 0.02807 0.64312 0.13527 0.0
H2591 H 0.03824 0.62341 0.13587 0.0
H2592 H 0.05477 0.67501 0.09462 0.0
H2593 H 0.07904 0.62746 0.09468 0.0
H2594 H 0.05642 0.68303 0.13643 0.0
H2595 H 0.03704 0.67214 0.13467 0.0
H2596 H 0.04308 0.68667 0.11868 0.0
H2597 H 0.08812 0.62494 0.13551 0.0
H2598 H 0.08177 0.61133 0.11874 0.0
H2599 H 0.06786 0.61563 0.13583 0.0
C2600 C 0.73878 0.36485 0.65931 0.0
C2601 C 0.7221 0.36399 0.66473 0.0
C2602 C 0.74504 0.35346 0.64764 0.0
C2603 C 0.73398 0.34215 0.63975 0.0
C2604 C 0.71748 0.34055 0.64575 0.0
C2605 C 0.71203 0.351 0.65856 0.0
C2606 C 0.76327 0.35428 0.64312 0.0
C2607 C 0.70508 0.32857 0.63799 0.0
C2608 C 0.73153 0.34328 0.59368 0.0
C2609 C 0.73151 0.32663 0.58903 0.0
C2610 C 0.73453 0.3487 0.6099 0.0
C2611 C 0.73726 0.33677 0.62237 0.0
C2612 C 0.73882 0.31974 0.61782 0.0
C2613 C 0.73563 0.31476 0.60112 0.0
C2614 C 0.73281 0.36718 0.61378 0.0
C2615 C 0.74371 0.30692 0.63055 0.0
H2616 H 0.74707 0.37453 0.66377 0.0
H2617 H 0.69961 0.34909 0.66337 0.0
H2618 H 0.76757 0.34239 0.63758 0.0
H2619 H 0.76562 0.36445 0.63414 0.0
H2620 H 0.77092 0.3571 0.65435 0.0
H2621 H 0.69224 0.33044 0.64275 0.0
H2622 H 0.70475 0.32993 0.62423 0.0
H2623 H 0.70883 0.31563 0.64082 0.0
H2624 H 0.7286 0.35238 0.5846 0.0
H2625 H 0.73564 0.3017 0.59776 0.0
H2626 H 0.74478 0.37242 0.61817 0.0
H2627 H 0.72337 0.3693 0.62363 0.0
H2628 H 0.72905 0.37457 0.60278 0.0
H2629 H 0.7574 0.30768 0.63249 0.0
H2630 H 0.74053 0.29412 0.62633 0.0
H2631 H 0.73782 0.30927 0.64282 0.0
C2632 C 0.96303 0.37789 0.34856 0.0
C2633 C 0.95717 0.37765 0.33202 0.0
C2634 C 0.95273 0.37319 0.36183 0.0
C2635 C 0.93629 0.36772 0.3585 0.0
C2636 C 0.93062 0.36641 0.34182 0.0
C2637 C 0.94106 0.37154 0.32879 0.0
C2638 C 0.95922 0.37476 0.37948 0.0
C2639 C 0.91322 0.36039 0.33777 0.0
C2640 C 0.91224 0.34571 0.39268 0.0
C2641 C 0.90234 0.35864 0.39889 0.0
C2642 C 0.92339 0.34846 0.37954 0.0
C2643 C 0.92465 0.36452 0.37249 0.0
C2644 C 0.91473 0.37763 0.37877 0.0
C2645 C 0.90369 0.37453 0.39189 0.0
C2646 C 0.93376 0.33418 0.37317 0.0
C2647 C 0.91578 0.39496 0.37161 0.0
H2648 H 0.97559 0.38216 0.3512 0.0
H2649 H 0.93628 0.37143 0.31614 0.0
H2650 H 0.95188 0.38423 0.38633 0.0
H2651 H 0.9577 0.36281 0.38616 0.0
H2652 H 0.97257 0.37846 0.37992 0.0
H2653 H 0.91153 0.35785 0.32424 0.0
H2654 H 0.91029 0.34888 0.34478 0.0
H2655 H 0.90408 0.36997 0.3416 0.0
H2656 H 0.91139 0.33346 0.39822 0.0
H2657 H 0.89593 0.38452 0.39654 0.0
H2658 H 0.94719 0.33727 0.37431 0.0
H2659 H 0.9311 0.33202 0.35975 0.0
H2660 H 0.93132 0.32246 0.38006 0.0
H2661 H 0.92866 0.39986 0.37299 0.0
H2662 H 0.90709 0.40372 0.37782 0.0
H2663 H 0.91285 0.39463 0.35809 0.0
C2664 C 0.2814 0.59075 0.5418 0.0
C2665 C 0.26546 0.59264 0.53489 0.0
C2666 C 0.28384 0.58144 0.55635 0.0
C2667 C 0.26998 0.57388 0.56422 0.0
C2668 C 0.25381 0.57601 0.55753 0.0
C2669 C 0.25176 0.5853 0.54289 0.0
C2670 C 0.30127 0.5796 0.56323 0.0
C2671 C 0.2387 0.56854 0.56584 0.0
C2672 C 0.28098 0.53735 0.59184 0.0
C2673 C 0.28296 0.54524 0.6073 0.0
C2674 C 0.27595 0.54639 0.57777 0.0
C2675 C 0.27261 0.56363 0.57936 0.0
C2676 C 0.27338 0.57133 0.59523 0.0
C2677 C 0.27872 0.56206 0.609 0.0
C2678 C 0.27523 0.53774 0.56105 0.0
C2679 C 0.2695 0.58955 0.59758 0.0
H2680 H 0.292 0.59663 0.53586 0.0
H2681 H 0.23941 0.58656 0.53756 0.0
H2682 H 0.30189 0.58458 0.57614 0.0
H2683 H 0.30462 0.56623 0.5638 0.0
H2684 H 0.31071 0.58621 0.55559 0.0
H2685 H 0.22703 0.57103 0.55882 0.0
H2686 H 0.24019 0.55489 0.56709 0.0
H2687 H 0.23744 0.57372 0.57862 0.0
H2688 H 0.28428 0.52434 0.59056 0.0
H2689 H 0.28004 0.5681 0.62105 0.0
H2690 H 0.28543 0.54249 0.55304 0.0
H2691 H 0.2633 0.54046 0.55461 0.0
H2692 H 0.27654 0.52404 0.56219 0.0
H2693 H 0.28015 0.59714 0.5931 0.0
H2694 H 0.26732 0.59271 0.61089 0.0
H2695 H 0.25836 0.59315 0.59023 0.0
C2696 C 0.27603 0.40438 0.70737 0.0
C2697 C 0.28317 0.3889 0.70374 0.0
C2698 C 0.28312 0.41506 0.71927 0.0
C2699 C 0.2977 0.41013 0.72785 0.0
C2700 C 0.3055 0.3949 0.72363 0.0
C2701 C 0.29815 0.38446 0.71155 0.0
C2702 C 0.27459 0.43131 0.72318 0.0
C2703 C 0.32094 0.38911 0.73266 0.0
C2704 C 0.32107 0.44116 0.75541 0.0
C2705 C 0.31366 0.43833 0.77103 0.0
C2706 C 0.31578 0.43239 0.7411 0.0
C2707 C 0.30342 0.41987 0.74259 0.0
C2708 C 0.29592 0.41693 0.75821 0.0
C2709 C 0.3006 0.42663 0.77197 0.0
C2710 C 0.32347 0.43642 0.72443 0.0
C2711 C 0.28292 0.40346 0.76049 0.0
H2712 H 0.26463 0.408 0.70108 0.0
H2713 H 0.30369 0.37249 0.7088 0.0
H2714 H 0.26938 0.43092 0.73596 0.0
H2715 H 0.2837 0.44171 0.7228 0.0
H2716 H 0.26427 0.434 0.71433 0.0
H2717 H 0.3266 0.37807 0.72657 0.0
H2718 H 0.33038 0.39921 0.73328 0.0
H2719 H 0.31767 0.3858 0.74567 0.0
H2720 H 0.33121 0.45 0.75429 0.0
H2721 H 0.29397 0.42479 0.78354 0.0
H2722 H 0.31358 0.43865 0.71501 0.0
H2723 H 0.33093 0.42572 0.71998 0.0
H2724 H 0.33168 0.44757 0.72505 0.0
H2725 H 0.27131 0.4069 0.75383 0.0
H2726 H 0.27987 0.40139 0.77382 0.0
H2727 H 0.28732 0.39153 0.7551 0.0
C2728 C 0.73373 0.98901 0.50262 0.0
C2729 C 0.74954 0.98278 0.50672 0.0
C2730 C 0.7286 0.99041 0.48596 0.0
C2731 C 0.73973 0.98601 0.47307 0.0
C2732 C 0.75555 0.97943 0.47704 0.0
C2733 C 0.76013 0.97761 0.4938 0.0
C2734 C 0.71138 0.99692 0.48214 0.0
C2735 C 0.76793 0.97492 0.46363 0.0
C2736 C 0.7224 0.97756 0.42993 0.0
C2737 C 0.72466 0.99299 0.4222 0.0
C2738 C 0.72728 0.97511 0.4465 0.0
C2739 C 0.73482 0.98836 0.45541 0.0
C2740 C 0.73743 0.00391 0.44755 0.0
C2741 C 0.73209 0.00612 0.43104 0.0
C2742 C 0.72412 0.95843 0.45452 0.0
C2743 C 0.7458 0.01819 0.45659 0.0
H2744 H 0.72547 0.99327 0.51238 0.0
H2745 H 0.77219 0.97237 0.49674 0.0
H2746 H 0.71235 0.00915 0.47586 0.0
H2747 H 0.70477 0.98833 0.47347 0.0
H2748 H 0.70374 0.99844 0.49356 0.0
H2749 H 0.7788 0.96806 0.4687 0.0
H2750 H 0.76198 0.96722 0.45376 0.0
H2751 H 0.77253 0.98648 0.45765 0.0
H2752 H 0.71647 0.96747 0.42309 0.0
H2753 H 0.73388 0.01801 0.42496 0.0
H2754 H 0.71593 0.96002 0.46552 0.0
H2755 H 0.736 0.95306 0.45904 0.0
H2756 H 0.71816 0.94941 0.4458 0.0
H2757 H 0.73779 0.02247 0.46698 0.0
H2758 H 0.74826 0.02891 0.44823 0.0
H2759 H 0.75778 0.01407 0.46211 0.0
C2760 C 0.72139 0.98967 0.2521 0.0
C2761 C 0.70793 0.98715 0.2629 0.0
C2762 C 0.71873 0.99314 0.23517 0.0
C2763 C 0.70223 0.99437 0.22904 0.0
C2764 C 0.68863 0.99284 0.24016 0.0
C2765 C 0.69165 0.989 0.25695 0.0
C2766 C 0.73354 0.99462 0.22371 0.0
C2767 C 0.67087 0.99452 0.23417 0.0
C2768 C 0.69369 0.01237 0.18617 0.0
C2769 C 0.69117 0.9979 0.17662 0.0
C2770 C 0.69764 0.01147 0.20319 0.0
C2771 C 0.69909 0.99571 0.21083 0.0
C2772 C 0.697 0.98106 0.20116 0.0
C2773 C 0.69307 0.98233 0.18416 0.0
C2774 C 0.69988 0.02736 0.21305 0.0
C2775 C 0.69859 0.96402 0.20885 0.0
H2776 H 0.73399 0.98815 0.25675 0.0
H2777 H 0.68129 0.98717 0.26539 0.0
H2778 H 0.73372 0.98383 0.21503 0.0
H2779 H 0.7326 0.006 0.216 0.0
H2780 H 0.74553 0.99496 0.23067 0.0
H2781 H 0.66194 0.99529 0.24469 0.0
H2782 H 0.66947 0.00576 0.22632 0.0
H2783 H 0.66752 0.98358 0.22635 0.0
H2784 H 0.6925 0.02444 0.18031 0.0
H2785 H 0.69102 0.97112 0.17687 0.0
H2786 H 0.71215 0.02741 0.21946 0.0
H2787 H 0.69019 0.02816 0.22284 0.0
H2788 H 0.69905 0.03859 0.20507 0.0
H2789 H 0.71108 0.96266 0.21464 0.0
H2790 H 0.69679 0.95386 0.19957 0.0
H2791 H 0.68923 0.96249 0.21888 0.0
C2792 C 0.53377 0.26277 0.57225 0.0
C2793 C 0.53339 0.26793 0.58893 0.0
C2794 C 0.54802 0.26512 0.56253 0.0
C2795 C 0.56234 0.27242 0.56987 0.0
C2796 C 0.56216 0.27726 0.58689 0.0
C2797 C 0.54755 0.27515 0.59621 0.0
C2798 C 0.54764 0.25996 0.54441 0.0
C2799 C 0.57735 0.28484 0.59517 0.0
C2800 C 0.60425 0.26892 0.54838 0.0
C2801 C 0.60586 0.2849 0.54171 0.0
C2802 C 0.58994 0.26446 0.55736 0.0
C2803 C 0.57705 0.27626 0.55944 0.0
C2804 C 0.57837 0.29212 0.55197 0.0
C2805 C 0.59286 0.2963 0.54332 0.0
C2806 C 0.58897 0.24748 0.56527 0.0
C2807 C 0.56468 0.30486 0.55352 0.0
H2808 H 0.52276 0.25708 0.56675 0.0
H2809 H 0.54724 0.27887 0.60921 0.0
H2810 H 0.55213 0.27025 0.53639 0.0
H2811 H 0.55609 0.24925 0.54248 0.0
H2812 H 0.53494 0.25628 0.54021 0.0
H2813 H 0.57552 0.28696 0.60873 0.0
H2814 H 0.58828 0.27662 0.59341 0.0
H2815 H 0.58034 0.29691 0.58923 0.0
H2816 H 0.6145 0.26025 0.54724 0.0
H2817 H 0.59426 0.30867 0.53813 0.0
H2818 H 0.5771 0.24121 0.56187 0.0
H2819 H 0.58917 0.24882 0.57905 0.0
H2820 H 0.59948 0.23937 0.56147 0.0
H2821 H 0.55263 0.2994 0.54935 0.0
H2822 H 0.56723 0.31619 0.54605 0.0
H2823 H 0.56325 0.30859 0.56676 0.0
C2824 C 0.25708 0.70266 1.00372 0.0
C2825 C 0.26195 0.70943 0.98843 0.0
C2826 C 0.2401 0.70025 0.00733 0.0
C2827 C 0.22792 0.70487 0.99539 0.0
C2828 C 0.23288 0.71264 0.9804 0.0
C2829 C 0.24986 0.71471 0.97706 0.0
C2830 C 0.23522 0.69221 0.02357 0.0
C2831 C 0.22027 0.71823 0.96759 0.0
C2832 C 0.18779 0.6801 0.9925 0.0
C2833 C 0.17625 0.69127 0.99912 0.0
C2834 C 0.20469 0.68434 0.99147 0.0
C2835 C 0.21018 0.70001 0.99755 0.0
C2836 C 0.19855 0.71125 0.00453 0.0
C2837 C 0.18163 0.70677 0.00511 0.0
C2838 C 0.21662 0.67216 0.98362 0.0
C2839 C 0.20395 0.72782 0.01166 0.0
H2840 H 0.26653 0.69884 0.01259 0.0
H2841 H 0.25375 0.72032 0.96542 0.0
H2842 H 0.22508 0.69934 0.02963 0.0
H2843 H 0.23039 0.67948 0.02111 0.0
H2844 H 0.2459 0.69133 0.03237 0.0
H2845 H 0.22615 0.72497 0.95706 0.0
H2846 H 0.21347 0.70726 0.96255 0.0
H2847 H 0.21095 0.72651 0.97348 0.0
H2848 H 0.18352 0.66811 0.98791 0.0
H2849 H 0.17263 0.71523 0.01049 0.0
H2850 H 0.22645 0.66874 0.99273 0.0
H2851 H 0.2229 0.67801 0.9728 0.0
H2852 H 0.21028 0.66061 0.97929 0.0
H2853 H 0.21045 0.72576 0.0237 0.0
H2854 H 0.1932 0.73618 0.01393 0.0
H2855 H 0.21285 0.7342 1.00325 0.0
C2856 C 0.70438 0.30307 0.38744 0.0
C2857 C 0.69965 0.28624 0.38732 0.0
C2858 C 0.71675 0.309 0.3985 0.0
C2859 C 0.72463 0.29781 0.40962 0.0
C2860 C 0.7193 0.28102 0.41012 0.0
C2861 C 0.70684 0.27549 0.39908 0.0
C2862 C 0.72192 0.32705 0.39774 0.0
C2863 C 0.7272 0.26872 0.4219 0.0
C2864 C 0.76977 0.30597 0.42146 0.0
C2865 C 0.7685 0.31205 0.43784 0.0
C2866 C 0.75561 0.30139 0.41223 0.0
C2867 C 0.73961 0.30312 0.41938 0.0
C2868 C 0.73813 0.30941 0.43585 0.0
C2869 C 0.7526 0.31381 0.44488 0.0
C2870 C 0.75781 0.2946 0.39478 0.0
C2871 C 0.7213 0.31152 0.4439 0.0
H2872 H 0.69892 0.31148 0.37844 0.0
H2873 H 0.70292 0.26258 0.39946 0.0
H2874 H 0.72209 0.3326 0.41043 0.0
H2875 H 0.73475 0.328 0.39272 0.0
H2876 H 0.71348 0.33449 0.38972 0.0
H2877 H 0.72156 0.25611 0.42082 0.0
H2878 H 0.74074 0.26775 0.41933 0.0
H2879 H 0.72586 0.27311 0.43495 0.0
H2880 H 0.78191 0.30495 0.41569 0.0
H2881 H 0.75145 0.31843 0.45753 0.0
H2882 H 0.75103 0.3025 0.38573 0.0
H2883 H 0.75241 0.28189 0.39391 0.0
H2884 H 0.77111 0.29402 0.39105 0.0
H2885 H 0.7141 0.32113 0.43712 0.0
H2886 H 0.72231 0.31532 0.4572 0.0
H2887 H 0.71405 0.29975 0.44313 0.0
C2888 C 0.49951 0.73417 0.99707 0.0
C2889 C 0.50426 0.74615 0.9853 0.0
C2890 C 0.48282 0.72933 0.99876 0.0
C2891 C 0.47051 0.73681 0.98864 0.0
C2892 C 0.47517 0.74881 0.97665 0.0
C2893 C 0.492 0.75327 0.97507 0.0
C2894 C 0.47833 0.71628 0.01151 0.0
C2895 C 0.46238 0.75727 0.96579 0.0
C2896 C 0.43003 0.71304 0.98319 0.0
C2897 C 0.41997 0.72063 0.99517 0.0
C2898 C 0.44646 0.71838 0.98075 0.0
C2899 C 0.45282 0.73174 0.99044 0.0
C2900 C 0.44249 0.73972 1.0023 0.0
C2901 C 0.42612 0.73396 0.00462 0.0
C2902 C 0.45706 0.70963 0.96795 0.0
C2903 C 0.44876 0.75421 0.01259 0.0
H2904 H 0.50879 0.72883 0.00528 0.0
H2905 H 0.49555 0.7624 0.96582 0.0
H2906 H 0.46985 0.72168 0.02097 0.0
H2907 H 0.47158 0.70583 0.0054 0.0
H2908 H 0.48946 0.71125 0.018 0.0
H2909 H 0.46822 0.76431 0.95543 0.0
H2910 H 0.45347 0.7481 0.96042 0.0
H2911 H 0.4551 0.76611 0.9735 0.0
H2912 H 0.42504 0.70281 0.97584 0.0
H2913 H 0.41812 0.73986 0.01373 0.0
H2914 H 0.46818 0.7042 0.97408 0.0
H2915 H 0.46158 0.71869 0.95858 0.0
H2916 H 0.45016 0.69954 0.96137 0.0
H2917 H 0.45899 0.75004 0.02091 0.0
H2918 H 0.4388 0.75978 0.02038 0.0
H2919 H 0.45396 0.76398 0.00435 0.0
C2920 C 0.58054 0.53598 0.27807 0.0
C2921 C 0.59235 0.53583 0.26527 0.0
C2922 C 0.57058 0.54995 0.28085 0.0
C2923 C 0.57226 0.56395 0.27034 0.0
C2924 C 0.58401 0.56384 0.25726 0.0
C2925 C 0.59405 0.54983 0.25499 0.0
C2926 C 0.55848 0.54987 0.29522 0.0
C2927 C 0.58644 0.57876 0.24615 0.0
C2928 C 0.53695 0.59492 0.27317 0.0
C2929 C 0.54341 0.60624 0.28487 0.0
C2930 C 0.5465 0.58138 0.26771 0.0
C2931 C 0.5628 0.57925 0.27412 0.0
C2932 C 0.56967 0.5912 0.28516 0.0
C2933 C 0.55985 0.60449 0.29049 0.0
C2934 C 0.53905 0.56916 0.25543 0.0
C2935 C 0.58716 0.58992 0.292 0.0
H2936 H 0.57897 0.52511 0.28587 0.0
H2937 H 0.60339 0.54993 0.24527 0.0
H2938 H 0.56132 0.56038 0.3038 0.0
H2939 H 0.54561 0.55162 0.2905 0.0
H2940 H 0.55894 0.5381 0.30242 0.0
H2941 H 0.59481 0.57605 0.23549 0.0
H2942 H 0.57427 0.58308 0.24123 0.0
H2943 H 0.59193 0.58913 0.25355 0.0
H2944 H 0.52429 0.59639 0.26868 0.0
H2945 H 0.56506 0.61351 0.29917 0.0
H2946 H 0.53704 0.55701 0.26165 0.0
H2947 H 0.54776 0.56703 0.24493 0.0
H2948 H 0.52695 0.5735 0.25034 0.0
H2949 H 0.58651 0.58602 0.30524 0.0
H2950 H 0.5933 0.60231 0.29152 0.0
H2951 H 0.59514 0.58098 0.28523 0.0
C2952 C 0.97768 0.25275 0.69783 0.0
C2953 C 0.98833 0.26174 0.7084 0.0
C2954 C 0.9808 0.23605 0.694 0.0
C2955 C 0.99514 0.22827 0.70063 0.0
C2956 C 0.00634 0.23751 0.71078 0.0
C2957 C 1.00266 0.25413 0.71478 0.0
C2958 C 0.96836 0.22655 0.68342 0.0
C2959 C 0.02209 0.22979 0.71751 0.0
C2960 C 0.99304 0.18132 0.70486 0.0
C2961 C 1.00052 0.17599 0.68998 0.0
C2962 C 0.99144 0.1983 0.70859 0.0
C2963 C 0.99791 0.21028 0.69743 0.0
C2964 C 0.00599 0.20504 0.6827 0.0
C2965 C 0.00691 0.18801 0.679 0.0
C2966 C 0.98255 0.20342 0.72435 0.0
C2967 C 0.01334 0.21743 0.67065 0.0
H2968 H 0.9665 0.25864 0.69307 0.0
H2969 H 0.01092 0.26118 0.72289 0.0
H2970 H 0.97467 0.22059 0.67269 0.0
H2971 H 0.96266 0.21647 0.69094 0.0
H2972 H 0.95827 0.23465 0.6786 0.0
H2973 H 0.02985 0.23886 0.72461 0.0
H2974 H 0.01895 0.21925 0.72583 0.0
H2975 H 0.02959 0.22468 0.7071 0.0
H2976 H 0.98842 0.17223 0.71365 0.0
H2977 H 0.01242 0.18419 0.6673 0.0
H2978 H 0.97181 0.2115 0.72122 0.0
H2979 H 0.99107 0.21079 0.73244 0.0
H2980 H 0.97792 0.19257 0.73153 0.0
H2981 H 1.00319 0.22439 0.66441 0.0
H2982 H 0.02101 0.21131 0.6609 0.0
H2983 H 0.02121 0.22664 0.6774 0.0
C2984 C 0.40062 0.70879 0.27489 0.0
C2985 C 0.38714 0.70249 0.28403 0.0
C2986 C 0.41101 0.72123 0.28145 0.0
C2987 C 0.40809 0.72734 0.29772 0.0
C2988 C 0.39501 0.72051 0.30738 0.0
C2989 C 0.38464 0.70816 0.3004 0.0
C2990 C 0.4248 0.72817 0.27073 0.0
C2991 C 0.39165 0.72665 0.32485 0.0
C2992 C 0.44295 0.75312 0.31719 0.0
C2993 C 0.43762 0.76936 0.31375 0.0
C2994 C 0.43326 0.73927 0.31245 0.0
C2995 C 0.41795 0.74175 0.30401 0.0
C2996 C 0.41242 0.75809 0.30069 0.0
C2997 C 0.42225 0.77166 0.30568 0.0
C2998 C 0.43947 0.72201 0.31631 0.0
C2999 C 0.39625 0.76127 0.29156 0.0
H3000 H 0.40292 0.70414 0.26241 0.0
H3001 H 0.37424 0.70338 0.30754 0.0
H3002 H 0.42307 0.74175 0.26902 0.0
H3003 H 0.437 0.7264 0.277 0.0
H3004 H 0.42526 0.72218 0.25824 0.0
H3005 H 0.38118 0.71988 0.33082 0.0
H3006 H 0.40297 0.7252 0.33268 0.0
H3007 H 0.38863 0.7401 0.32461 0.0
H3008 H 0.45481 0.75122 0.32337 0.0
H3009 H 0.4178 0.78415 0.30334 0.0
H3010 H 0.44113 0.71485 0.30459 0.0
H3011 H 0.4301 0.71527 0.32387 0.0
H3012 H 0.45149 0.7222 0.32321 0.0
H3013 H 0.39707 0.75629 0.27866 0.0
H3014 H 0.39323 0.77472 0.29088 0.0
H3015 H 0.38582 0.75471 0.29779 0.0
C3016 C 0.99384 0.50003 0.73345 0.0
C3017 C 0.98495 0.50457 0.7478 0.0
C3018 C 0.99523 0.48332 0.72858 0.0
C3019 C 0.98792 0.47076 0.7385 0.0
C3020 C 0.9787 0.4752 0.75283 0.0
C3021 C 0.97717 0.49204 0.75719 0.0
C3022 C 0.00474 0.47908 0.71292 0.0
C3023 C 0.97097 0.46218 0.76395 0.0
C3024 C 0.98021 0.42866 0.71848 0.0
C3025 C 0.99457 0.41998 0.72312 0.0
C3026 C 0.97782 0.44516 0.72352 0.0
C3027 C 0.98993 0.453 0.73377 0.0
C3028 C 0.00422 0.44407 0.73894 0.0
C3029 C 0.00652 0.42768 0.7333 0.0
C3030 C 0.9625 0.4543 0.71764 0.0
C3031 C 0.01709 0.45185 0.75033 0.0
H3032 H 1.00015 0.50949 0.72621 0.0
H3033 H 0.96999 0.49535 0.76811 0.0
H3034 H 0.016 0.4718 0.71616 0.0
H3035 H 0.99695 0.47121 0.70456 0.0
H3036 H 0.0087 0.49035 0.70598 0.0
H3037 H 0.96191 0.46766 0.77283 0.0
H3038 H 0.96455 0.4524 0.75653 0.0
H3039 H 0.98096 0.45603 0.77125 0.0
H3040 H 0.97102 0.42259 0.71056 0.0
H3041 H 0.01753 0.42082 0.73695 0.0
H3042 H 0.96625 0.46543 0.71039 0.0
H3043 H 0.95522 0.45874 0.7285 0.0
H3044 H 0.95429 0.44638 0.70972 0.0
H3045 H 0.02347 0.46221 0.7438 0.0
H3046 H 0.02663 0.44275 0.75443 0.0
H3047 H 0.01099 0.45719 0.76152 0.0
C3048 C 0.73956 0.43504 0.47538 0.0
C3049 C 0.7419 0.41782 0.47482 0.0
C3050 C 0.73819 0.44426 0.46066 0.0
C3051 C 0.73879 0.43594 0.44509 0.0
C3052 C 0.74121 0.41851 0.44448 0.0
C3053 C 0.74294 0.40966 0.45941 0.0
C3054 C 0.73585 0.46286 0.46178 0.0
C3055 C 0.74173 0.4092 0.4281 0.0
C3056 C 0.71641 0.45674 0.40931 0.0
C3057 C 0.72964 0.46396 0.40052 0.0
C3058 C 0.71927 0.44746 0.42375 0.0
C3059 C 0.73579 0.44534 0.42953 0.0
C3060 C 0.74925 0.45243 0.42063 0.0
C3061 C 0.74601 0.46165 0.40616 0.0
C3062 C 0.70462 0.43988 0.43278 0.0
C3063 C 0.76701 0.45047 0.42651 0.0
H3064 H 0.73905 0.44132 0.48736 0.0
H3065 H 0.74484 0.39632 0.45907 0.0
H3066 H 0.74497 0.46935 0.4537 0.0
H3067 H 0.72321 0.46614 0.45724 0.0
H3068 H 0.7373 0.4676 0.47474 0.0
H3069 H 0.74329 0.39559 0.42983 0.0
H3070 H 0.73007 0.41136 0.42097 0.0
H3071 H 0.75218 0.41391 0.42041 0.0
H3072 H 0.70376 0.45815 0.40476 0.0
H3073 H 0.75625 0.46724 0.39937 0.0
H3074 H 0.70415 0.44466 0.44576 0.0
H3075 H 0.70608 0.42618 0.43347 0.0
H3076 H 0.69256 0.44264 0.42656 0.0
H3077 H 0.76855 0.45635 0.43896 0.0
H3078 H 0.77609 0.45619 0.41781 0.0
H3079 H 0.77005 0.43709 0.4279 0.0
C3080 C 0.71369 0.60064 0.31006 0.0
C3081 C 0.71429 0.618 0.30849 0.0
C3082 C 0.70797 0.59054 0.29689 0.0
C3083 C 0.70324 0.59795 0.28162 0.0
C3084 C 0.70347 0.61551 0.28012 0.0
C3085 C 0.70886 0.62535 0.29364 0.0
C3086 C 0.70712 0.57194 0.29926 0.0
C3087 C 0.69813 0.62387 0.26417 0.0
C3088 C 0.70437 0.57194 0.24187 0.0
C3089 C 0.68741 0.5685 0.23921 0.0
C3090 C 0.70971 0.58127 0.25578 0.0
C3091 C 0.6978 0.58737 0.26728 0.0
C3092 C 0.68071 0.58364 0.26479 0.0
C3093 C 0.6758 0.57411 0.25096 0.0
C3094 C 0.72802 0.58515 0.25783 0.0
C3095 C 0.66722 0.58995 0.2762 0.0
H3096 H 0.7178 0.59496 0.32159 0.0
H3097 H 0.70941 0.63876 0.29239 0.0
H3098 H 0.69469 0.56716 0.29542 0.0
H3099 H 0.71651 0.56582 0.29122 0.0
H3100 H 0.70947 0.56828 0.3124 0.0
H3101 H 0.69972 0.63759 0.26473 0.0
H3102 H 0.70545 0.61897 0.25354 0.0
H3103 H 0.68482 0.62099 0.26164 0.0
H3104 H 0.71344 0.56789 0.23275 0.0
H3105 H 0.66268 0.57131 0.24922 0.0
H3106 H 0.73247 0.58085 0.27019 0.0
H3107 H 0.73001 0.59881 0.25736 0.0
H3108 H 0.73572 0.57921 0.24801 0.0
H3109 H 0.66011 0.57924 0.28126 0.0
H3110 H 0.65827 0.59752 0.2689 0.0
H3111 H 0.67193 0.59761 0.28669 0.0
C3112 C 0.24699 0.0108 0.51826 0.0
C3113 C 0.25781 0.01815 0.50672 0.0
C3114 C 0.25136 0.00961 0.53514 0.0
C3115 C 0.26683 0.01614 0.54063 0.0
C3116 C 0.2776 0.02403 0.52912 0.0
C3117 C 0.27303 0.02478 0.51223 0.0
C3118 C 0.23959 1.00106 0.54703 0.0
C3119 C 0.29409 0.03137 0.53459 0.0
C3120 C 0.27434 0.02457 0.58664 0.0
C3121 C 0.28398 0.01082 0.59106 0.0
C3122 C 0.26824 0.02628 0.57033 0.0
C3123 C 0.27212 0.01401 0.55825 0.0
C3124 C 0.28152 0.99987 0.56287 0.0
C3125 C 0.28737 0.99845 0.57929 0.0
C3126 C 0.25822 0.04149 0.56591 0.0
C3127 C 0.2858 0.98649 0.55036 0.0
H3128 H 0.23528 0.00551 0.51398 0.0
H3129 H 0.28134 0.03057 0.50332 0.0
H3130 H 0.24589 0.99033 0.55296 0.0
H3131 H 0.23599 0.00976 0.55715 0.0
H3132 H 0.22809 0.99651 0.54071 0.0
H3133 H 0.3003 0.03838 0.52444 0.0
H3134 H 0.29229 0.03986 0.54537 0.0
H3135 H 0.3025 0.02128 0.53874 0.0
H3136 H 0.27194 0.03416 0.59586 0.0
H3137 H 0.295 0.98794 0.58284 0.0
H3138 H 0.24669 0.03791 0.55911 0.0
H3139 H 0.26562 0.04956 0.55751 0.0
H3140 H 0.25474 0.04885 0.57712 0.0
H3141 H 0.2743 0.9817 0.54427 0.0
H3142 H 0.29248 0.9759 0.55617 0.0
H3143 H 0.29379 0.99179 0.54043 0.0
C3144 C 0.29036 0.00772 0.75139 0.0
C3145 C 0.30297 0.01576 0.74235 0.0
C3146 C 0.29243 0.00414 0.7684 0.0
C3147 C 0.30748 0.00865 0.77649 0.0
C3148 C 0.32058 0.01591 0.7672 0.0
C3149 C 0.31812 0.01952 0.75027 0.0
C3150 C 0.2783 0.99617 0.77786 0.0
C3151 C 0.33708 0.02019 0.77526 0.0
C3152 C 0.3081 0.01944 0.82255 0.0
C3153 C 0.31452 0.00489 0.82953 0.0
C3154 C 0.30517 0.02054 0.80535 0.0
C3155 C 0.30922 0.00691 0.79487 0.0
C3156 C 0.31559 0.99211 0.80195 0.0
C3157 C 0.3179 0.9912 0.81927 0.0
C3158 C 0.29794 0.03636 0.79836 0.0
C3159 C 0.31998 0.97715 0.79143 0.0
H3160 H 0.27858 0.00489 0.74533 0.0
H3161 H 0.32796 0.0255 0.74325 0.0
H3162 H 0.28286 0.98528 0.78498 0.0
H3163 H 0.27324 0.0052 0.78701 0.0
H3164 H 0.26803 0.99203 0.76949 0.0
H3165 H 0.3463 0.02494 0.76612 0.0
H3166 H 0.33524 0.02979 0.78505 0.0
H3167 H 0.34229 0.00901 0.78142 0.0
H3168 H 0.30537 0.02995 0.83058 0.0
H3169 H 0.32287 0.97994 0.82476 0.0
H3170 H 0.2864 0.0335 0.79122 0.0
H3171 H 0.30689 0.04214 0.78959 0.0
H3172 H 0.29493 0.04556 0.80826 0.0
H3173 H 0.30881 0.96906 0.79017 0.0
H3174 H 0.32996 0.9697 0.79742 0.0
H3175 H 0.32413 0.98067 0.77875 0.0
C3176 C 0.46797 0.75295 0.42651 0.0
C3177 C 0.47365 0.73966 0.41667 0.0
C3178 C 0.45295 0.75185 0.43531 0.0
C3179 C 0.44345 0.73701 0.43443 0.0
C3180 C 0.44892 0.72367 0.42426 0.0
C3181 C 0.46397 0.72515 0.41551 0.0
C3182 C 0.44755 0.7664 0.44594 0.0
C3183 C 0.43899 0.70772 0.42284 0.0
C3184 C 0.41577 0.7258 0.47092 0.0
C3185 C 0.39983 0.72913 0.46459 0.0
C3186 C 0.43004 0.72852 0.4613 0.0
C3187 C 0.4284 0.73498 0.44499 0.0
C3188 C 0.41243 0.73904 0.43872 0.0
C3189 C 0.39831 0.73598 0.44856 0.0
C3190 C 0.44687 0.7241 0.46845 0.0
C3191 C 0.41026 0.74639 0.42156 0.0
H3192 H 0.47547 0.76415 0.42762 0.0
H3193 H 0.46815 0.71496 0.40771 0.0
H3194 H 0.43405 0.76885 0.44433 0.0
H3195 H 0.44971 0.76346 0.45927 0.0
H3196 H 0.45459 0.77793 0.44293 0.0
H3197 H 0.44475 0.69867 0.41411 0.0
H3198 H 0.43791 0.70184 0.43528 0.0
H3199 H 0.42617 0.71042 0.41843 0.0
H3200 H 0.41708 0.72084 0.4834 0.0
H3201 H 0.38604 0.73847 0.44349 0.0
H3202 H 0.4551 0.73522 0.46857 0.0
H3203 H 0.4529 0.71457 0.46049 0.0
H3204 H 0.446 0.71921 0.48136 0.0
H3205 H 0.41738 0.75821 0.42068 0.0
H3206 H 0.39699 0.7489 0.41854 0.0
H3207 H 0.41534 0.7378 0.41201 0.0
C3208 C 0.74963 0.30984 0.02171 0.0
C3209 C 0.74409 0.29339 0.02314 0.0
C3210 C 0.76604 0.31341 0.01692 0.0
C3211 C 0.77717 0.30015 0.01377 0.0
C3212 C 0.77132 0.2835 0.01436 0.0
C3213 C 0.75477 0.28031 0.01906 0.0
C3214 C 0.7717 0.33133 0.01613 0.0
C3215 C 0.78278 0.26904 0.01108 0.0
C3216 C 0.81914 0.31043 0.99441 0.0
C3217 C 0.82926 0.31204 0.00863 0.0
C3218 C 0.80218 0.30633 0.9958 0.0
C3219 C 0.79525 0.30369 0.01179 0.0
C3220 C 0.80551 0.30499 0.02614 0.0
C3221 C 0.82237 0.3092 0.02439 0.0
C3222 C 0.79161 0.30519 0.98024 0.0
C3223 C 0.79863 0.30216 0.0434 0.0
H3224 H 0.74125 0.31991 0.0249 0.0
H3225 H 0.75038 0.2676 0.02027 0.0
H3226 H 0.78054 0.33394 0.02649 0.0
H3227 H 0.7784 0.33372 0.0043 0.0
H3228 H 0.76112 0.34014 0.0171 0.0
H3229 H 0.77577 0.25721 0.00927 0.0
H3230 H 0.79053 0.27133 0.99989 0.0
H3231 H 0.79135 0.26754 0.02184 0.0
H3232 H 0.8244 0.31278 0.98221 0.0
H3233 H 0.83021 0.31022 0.03538 0.0
H3234 H 0.782 0.31506 0.98046 0.0
H3235 H 0.78498 0.29306 0.97974 0.0
H3236 H 0.79911 0.30659 0.96871 0.0
H3237 H 0.78904 0.31165 0.04622 0.0
H3238 H 0.80844 0.30283 0.05319 0.0
H3239 H 0.79248 0.28979 0.04405 0.0
C3240 C 0.29961 0.70182 0.61967 0.0
C3241 C 0.30385 0.71874 0.62066 0.0
C3242 C 0.28694 0.69622 0.60883 0.0
C3243 C 0.27824 0.70782 0.59881 0.0
C3244 C 0.2828 0.72483 0.59941 0.0
C3245 C 0.29558 0.73005 0.61023 0.0
C3246 C 0.28261 0.67793 0.60835 0.0
C3247 C 0.2738 0.73764 0.58905 0.0
C3248 C 0.25226 0.69199 0.5621 0.0
C3249 C 0.23642 0.69096 0.56925 0.0
C3250 C 0.26603 0.69753 0.57155 0.0
C3251 C 0.26377 0.70234 0.58841 0.0
C3252 C 0.24762 0.70188 0.59544 0.0
C3253 C 0.23419 0.69603 0.58582 0.0
C3254 C 0.28303 0.69796 0.56364 0.0
C3255 C 0.24455 0.7073 0.61321 0.0
H3256 H 0.30586 0.69302 0.62774 0.0
H3257 H 0.29901 0.7431 0.61063 0.0
H3258 H 0.26938 0.67607 0.61188 0.0
H3259 H 0.28411 0.67306 0.59548 0.0
H3260 H 0.29055 0.6705 0.61688 0.0
H3261 H 0.27957 0.75018 0.59012 0.0
H3262 H 0.27367 0.7339 0.57572 0.0
H3263 H 0.26063 0.73847 0.59313 0.0
H3264 H 0.25395 0.68798 0.54929 0.0
H3265 H 0.22187 0.69529 0.59129 0.0
H3266 H 0.29158 0.68961 0.57052 0.0
H3267 H 0.28838 0.71068 0.56445 0.0
H3268 H 0.28261 0.69414 0.55034 0.0
H3269 H 0.25081 0.69859 0.62188 0.0
H3270 H 0.23107 0.70763 0.61627 0.0
H3271 H 0.24994 0.71985 0.61546 0.0
C3272 C 0.51163 0.27312 0.01356 0.0
C3273 C 0.50622 0.25886 0.02203 0.0
C3274 C 0.52839 0.27809 0.01399 0.0
C3275 C 0.54012 0.26836 0.02278 0.0
C3276 C 0.53478 0.25408 0.03153 0.0
C3277 C 0.51787 0.24961 0.03122 0.0
C3278 C 0.53358 0.2936 0.00476 0.0
C3279 C 0.54696 0.24341 0.04104 0.0
C3280 C 0.58471 0.27452 0.00851 0.0
C3281 C 0.59075 0.2858 0.02051 0.0
C3282 C 0.56847 0.26805 0.00957 0.0
C3283 C 0.55798 0.27323 0.02275 0.0
C3284 C 0.56426 0.28399 0.03528 0.0
C3285 C 0.58061 0.28999 0.03409 0.0
C3286 C 0.56234 0.25614 0.99628 0.0
C3287 C 0.55348 0.29001 0.04945 0.0
H3288 H 0.50285 0.28023 0.0062 0.0
H3289 H 0.5138 0.23878 0.03812 0.0
H3290 H 0.54087 0.30196 0.0131 0.0
H3291 H 0.54175 0.29018 0.99417 0.0
H3292 H 0.52274 0.30059 0.99981 0.0
H3293 H 0.54079 0.23267 0.04719 0.0
H3294 H 0.55663 0.23862 0.03245 0.0
H3295 H 0.55343 0.25095 0.05071 0.0
H3296 H 0.59242 0.2712 0.99796 0.0
H3297 H 0.58532 0.29829 0.0437 0.0
H3298 H 0.55257 0.26223 0.98865 0.0
H3299 H 0.5566 0.245 1.00209 0.0
H3300 H 0.5725 0.25203 0.98788 0.0
H3301 H 0.54475 0.29955 0.04468 0.0
H3302 H 0.56099 0.29566 0.05967 0.0
H3303 H 0.5459 0.27972 0.05467 0.0
C3304 C 0.41292 0.4657 0.73214 0.0
C3305 C 0.41983 0.47887 0.74135 0.0
C3306 C 0.42186 0.45093 0.72967 0.0
C3307 C 0.43811 0.44943 0.73642 0.0
C3308 C 0.44521 0.46279 0.74554 0.0
C3309 C 0.43594 0.47732 0.74797 0.0
C3310 C 0.41376 0.43681 0.72018 0.0
C3311 C 0.46267 0.46184 0.75254 0.0
C3312 C 0.45674 0.40661 0.74285 0.0
C3313 C 0.46574 0.40431 0.72801 0.0
C3314 C 0.44749 0.42111 0.74564 0.0
C3315 C 0.44784 0.434 0.73369 0.0
C3316 C 0.45748 0.43216 0.7191 0.0
C3317 C 0.46597 0.41723 0.71625 0.0
C3318 C 0.43704 0.42247 0.76121 0.0
C3319 C 0.45852 0.44581 0.70625 0.0
H3320 H 0.40039 0.46682 0.7272 0.0
H3321 H 0.44137 0.48759 0.75494 0.0
H3322 H 0.42187 0.43266 0.70982 0.0
H3323 H 0.41205 0.42604 0.72863 0.0
H3324 H 0.40145 0.44033 0.71496 0.0
H3325 H 0.46613 0.47312 0.75984 0.0
H3326 H 0.46394 0.45081 0.7607 0.0
H3327 H 0.47168 0.46035 0.74218 0.0
H3328 H 0.45673 0.39703 0.75229 0.0
H3329 H 0.47243 0.41563 0.70454 0.0
H3330 H 0.42373 0.42391 0.7577 0.0
H3331 H 0.44068 0.43368 0.76847 0.0
H3332 H 0.43825 0.4114 0.76935 0.0
H3333 H 0.44633 0.44706 0.69984 0.0
H3334 H 0.4682 0.4433 0.69671 0.0
H3335 H 0.46137 0.45792 0.71234 0.0
C3336 C 0.0357 0.75521 0.30209 0.0
C3337 C 0.02548 0.74445 0.29271 0.0
C3338 C 0.03133 0.77183 0.30482 0.0
C3339 C 0.01635 0.77803 0.29794 0.0
C3340 C 0.00609 0.7674 0.28814 0.0
C3341 C 0.01084 0.75071 0.28553 0.0
C3342 C 0.04266 0.78269 0.31535 0.0
C3343 C 0.99 0.77358 0.28067 0.0
C3344 C 1.00092 0.81635 0.32087 0.0
C3345 C 0.00688 0.82915 0.31069 0.0
C3346 C 1.00296 0.79961 0.3163 0.0
C3347 C 0.01154 0.7956 0.30142 0.0
C3348 C 0.01718 0.80856 0.29089 0.0
C3349 C 0.01462 0.82521 0.29558 0.0
C3350 C 0.9964 0.7862 0.32769 0.0
C3351 C 0.02666 0.80485 0.2751 0.0
H3352 H 0.04715 0.75052 0.30748 0.0
H3353 H 1.00286 0.74244 0.27835 0.0
H3354 H 0.04629 0.79399 0.30833 0.0
H3355 H 0.03597 0.78686 0.3267 0.0
H3356 H 0.05415 0.77611 0.31929 0.0
H3357 H 0.98276 0.76346 0.27452 0.0
H3358 H 0.98216 0.77937 0.29045 0.0
H3359 H 0.99271 0.78333 0.2713 0.0
H3360 H 0.99477 0.81947 0.33247 0.0
H3361 H 0.01925 0.83517 0.28776 0.0
H3362 H 0.00694 0.77905 0.33298 0.0
H3363 H 0.98849 0.77733 0.32053 0.0
H3364 H 0.98896 0.79137 0.33813 0.0
H3365 H 0.03859 0.79868 0.27825 0.0
H3366 H 0.02943 0.81628 0.26786 0.0
H3367 H 0.01943 0.79614 0.26709 0.0
C3368 C 0.6252 0.29176 0.71058 0.0
C3369 C 0.61946 0.30386 0.72179 0.0
C3370 C 0.61499 0.27831 0.70574 0.0
C3371 C 0.59861 0.27698 0.71216 0.0
C3372 C 0.59267 0.28926 0.72329 0.0
C3373 C 0.60313 0.30254 0.72793 0.0
C3374 C 0.62175 0.26546 0.69381 0.0
C3375 C 0.57531 0.2883 0.73042 0.0
C3376 C 0.56776 0.25078 0.68725 0.0
C3377 C 0.56777 0.23577 0.69609 0.0
C3378 C 0.57752 0.26435 0.69251 0.0
C3379 C 0.58758 0.2629 0.70696 0.0
C3380 C 0.5873 0.24792 0.71621 0.0
C3381 C 0.57738 0.23454 0.71067 0.0
C3382 C 0.57718 0.2802 0.68249 0.0
C3383 C 0.59794 0.24578 0.7316 0.0
H3384 H 0.63783 0.29257 0.70593 0.0
H3385 H 0.5985 0.31195 0.73643 0.0
H3386 H 0.62077 0.25287 0.69938 0.0
H3387 H 0.61421 0.26536 0.68219 0.0
H3388 H 0.63497 0.26786 0.69052 0.0
H3389 H 0.57251 0.29898 0.73877 0.0
H3390 H 0.56598 0.28801 0.72019 0.0
H3391 H 0.57382 0.27662 0.7376 0.0
H3392 H 0.56019 0.25184 0.67608 0.0
H3393 H 0.57763 0.22289 0.71742 0.0
H3394 H 0.59001 0.28408 0.67913 0.0
H3395 H 0.57171 0.29035 0.69009 0.0
H3396 H 0.56977 0.27878 0.67086 0.0
H3397 H 0.61125 0.24525 0.72794 0.0
H3398 H 0.59481 0.23421 0.73846 0.0
H3399 H 0.5965 0.25654 0.74017 0.0
C3400 C 0.03337 0.51576 0.26018 0.0
C3401 C 0.01873 0.50728 0.25576 0.0
C3402 C 0.03289 0.53261 0.26493 0.0
C3403 C 0.01746 0.54113 0.26489 0.0
C3404 C 1.00284 0.53278 0.25951 0.0
C3405 C 0.00362 0.51589 0.25521 0.0
C3406 C 0.04872 0.54109 0.27064 0.0
C3407 C 0.9863 0.54161 0.25864 0.0
C3408 C 0.01087 0.57579 0.29626 0.0
C3409 C 0.01389 0.59013 0.28677 0.0
C3410 C 0.01229 0.55987 0.2893 0.0
C3411 C 0.01622 0.55811 0.27221 0.0
C3412 C 0.01862 0.57248 0.26232 0.0
C3413 C 0.01768 0.58832 0.26977 0.0
C3414 C 0.00972 0.54488 0.30033 0.0
C3415 C 0.02252 0.5712 0.24396 0.0
H3416 H 0.04506 0.50906 0.26048 0.0
H3417 H 0.99237 0.50934 0.25146 0.0
H3418 H 0.0508 0.55262 0.26338 0.0
H3419 H 0.04756 0.54477 0.28394 0.0
H3420 H 0.0598 0.53297 0.26928 0.0
H3421 H 0.97627 0.53356 0.2534 0.0
H3422 H 0.98253 0.54575 0.27128 0.0
H3423 H 0.98746 0.55289 0.25079 0.0
H3424 H 0.00742 0.57695 0.30925 0.0
H3425 H 0.02023 0.59924 0.26231 0.0
H3426 H 0.02096 0.5369 0.30004 0.0
H3427 H 0.99912 0.53729 0.29561 0.0
H3428 H 0.00717 0.54838 0.31348 0.0
H3429 H 0.03591 0.56823 0.2424 0.0
H3430 H 0.01999 0.58307 0.23738 0.0
H3431 H 0.01517 0.56113 0.2379 0.0
C3432 C 0.36675 0.67091 0.40652 0.0
C3433 C 0.35907 0.65518 0.40393 0.0
C3434 C 0.38056 0.67635 0.39704 0.0
C3435 C 0.387 0.66617 0.38418 0.0
C3436 C 0.37909 0.65073 0.38087 0.0
C3437 C 0.36554 0.6454 0.39076 0.0
C3438 C 0.38837 0.69307 0.40085 0.0
C3439 C 0.38518 0.63957 0.367 0.0
C3440 C 0.41645 0.68484 0.35134 0.0
C3441 C 0.43223 0.68055 0.35763 0.0
C3442 C 0.40166 0.68032 0.35974 0.0
C3443 C 0.40254 0.67121 0.37487 0.0
C3444 C 0.41845 0.66681 0.38119 0.0
C3445 C 0.43299 0.67157 0.3726 0.0
C3446 C 0.38516 0.68557 0.35245 0.0
C3447 C 0.42013 0.65689 0.39704 0.0
H3448 H 0.36214 0.67932 0.41591 0.0
H3449 H 0.36034 0.63333 0.38797 0.0
H3450 H 0.40163 0.69147 0.40442 0.0
H3451 H 0.38811 0.70097 0.38953 0.0
H3452 H 0.38191 0.69974 0.4111 0.0
H3453 H 0.37659 0.62896 0.36457 0.0
H3454 H 0.38663 0.64673 0.35528 0.0
H3455 H 0.39761 0.63457 0.37034 0.0
H3456 H 0.41562 0.69186 0.33986 0.0
H3457 H 0.44503 0.66787 0.37745 0.0
H3458 H 0.38051 0.69653 0.35945 0.0
H3459 H 0.3757 0.67554 0.35354 0.0
H3460 H 0.38629 0.68906 0.33911 0.0
H3461 H 0.41489 0.66404 0.40764 0.0
H3462 H 0.4333 0.65382 0.39996 0.0
H3463 H 0.41291 0.64513 0.39597 0.0
C3464 C 0.1505 0.3178 0.63076 0.0
C3465 C 0.16013 0.30345 0.63282 0.0
C3466 C 0.13346 0.31779 0.63453 0.0
C3467 C 0.12589 0.30314 0.64078 0.0
C3468 C 0.13548 0.28849 0.64252 0.0
C3469 C 0.15248 0.28879 0.6384 0.0
C3470 C 0.12367 0.33361 0.63222 0.0
C3471 C 0.12791 0.27267 0.64922 0.0
C3472 C 0.08767 0.31257 0.66669 0.0
C3473 C 0.07477 0.30962 0.65522 0.0
C3474 C 0.10432 0.30942 0.66249 0.0
C3475 C 0.10818 0.30358 0.64628 0.0
C3476 C 0.0951 0.29984 0.63493 0.0
C3477 C 0.0785 0.30282 0.6396 0.0
C3478 C 0.11785 0.31312 0.67513 0.0
C3479 C 0.09862 0.29389 0.61744 0.0
H3480 H 0.15635 0.32909 0.62625 0.0
H3481 H 0.15994 0.27771 0.64008 0.0
H3482 H 0.11199 0.33104 0.6252 0.0
H3483 H 0.12014 0.3387 0.64458 0.0
H3484 H 0.13089 0.34327 0.62546 0.0
H3485 H 0.13688 0.26219 0.64922 0.0
H3486 H 0.12356 0.27476 0.66217 0.0
H3487 H 0.11687 0.26904 0.64166 0.0
H3488 H 0.08474 0.31784 0.67879 0.0
H3489 H 0.06852 0.30074 0.63068 0.0
H3490 H 0.12511 0.32417 0.67112 0.0
H3491 H 0.12663 0.30253 0.67597 0.0
H3492 H 0.11272 0.31565 0.68773 0.0
H3493 H 0.10231 0.3047 0.6097 0.0
H3494 H 0.08748 0.28798 0.61164 0.0
H3495 H 0.10904 0.28488 0.61721 0.0
C3496 C 0.85535 0.02823 0.64695 0.0
C3497 C 0.85067 0.01509 0.63635 0.0
C3498 C 0.87209 0.03281 0.64901 0.0
C3499 C 0.88459 0.02406 0.64024 0.0
C3500 C 0.88003 0.01066 0.62962 0.0
C3501 C 0.8631 0.00636 0.62774 0.0
C3502 C 0.87636 0.04731 0.66031 0.0
C3503 C 0.89304 1.00086 0.62029 0.0
C3504 C 0.9251 0.04796 0.63457 0.0
C3505 C 0.93434 0.04257 0.64834 0.0
C3506 C 0.90907 0.04159 0.63141 0.0
C3507 C 0.90234 0.02928 0.64209 0.0
C3508 C 0.91206 0.02318 0.6555 0.0
C3509 C 0.92786 0.0301 0.65862 0.0
C3510 C 0.89903 0.04861 0.61715 0.0
C3511 C 0.9055 0.00985 0.66696 0.0
H3512 H 0.84582 0.03528 0.65337 0.0
H3513 H 0.8596 0.99611 0.61962 0.0
H3514 H 0.88547 0.04343 0.66995 0.0
H3515 H 0.88227 0.05737 0.65293 0.0
H3516 H 0.86522 0.05244 0.66666 0.0
H3517 H 0.88745 0.99101 0.61227 0.0
H3518 H 0.90056 0.00929 0.61236 0.0
H3519 H 0.90171 0.99497 0.62928 0.0
H3520 H 0.93011 0.05771 0.62672 0.0
H3521 H 0.93509 0.02594 0.66925 0.0
H3522 H 0.88792 0.05512 0.6221 0.0
H3523 H 0.89447 0.03843 0.60893 0.0
H3524 H 0.90634 0.05753 0.60954 0.0
H3525 H 0.89538 0.01504 0.67479 0.0
H3526 H 0.91536 0.00492 0.67532 0.0
H3527 H 0.90011 0.99939 0.65964 0.0
C3528 C 0.61858 0.92307 0.36038 0.0
C3529 C 0.6295 0.91699 0.37256 0.0
C3530 C 0.60212 0.91716 0.35918 0.0
C3531 C 0.59642 0.90489 0.37046 0.0
C3532 C 0.60711 0.89943 0.38339 0.0
C3533 C 0.62348 0.90565 0.38436 0.0
C3534 C 0.59098 0.9236 0.34548 0.0
C3535 C 0.60156 0.88643 0.39575 0.0
C3536 C 0.55011 0.89484 0.37406 0.0
C3537 C 0.5486 0.88113 0.3633 0.0
C3538 C 0.5656 0.90275 0.37655 0.0
C3539 C 0.5798 0.89687 0.36793 0.0
C3540 C 0.57803 0.88315 0.35686 0.0
C3541 C 0.56257 0.87533 0.35491 0.0
C3542 C 0.56666 0.9174 0.38832 0.0
C3543 C 0.59201 0.87648 0.34653 0.0
H3544 H 0.6231 0.93196 0.35137 0.0
H3545 H 0.63183 0.9011 0.39396 0.0
H3546 H 0.58741 0.91324 0.33699 0.0
H3547 H 0.57933 0.9286 0.35093 0.0
H3548 H 0.59709 0.93351 0.33804 0.0
H3549 H 0.5921 0.89184 0.4042 0.0
H3550 H 0.5957 0.8757 0.38921 0.0
H3551 H 0.61207 0.88179 0.40347 0.0
H3552 H 0.53917 0.89936 0.3805 0.0
H3553 H 0.56131 0.86494 0.34631 0.0
H3554 H 0.57467 0.92739 0.38314 0.0
H3555 H 0.57229 0.91334 0.40026 0.0
H3556 H 0.55417 0.92264 0.39104 0.0
H3557 H 0.58791 0.87598 0.33332 0.0
H3558 H 0.59437 0.86347 0.3503 0.0
H3559 H 0.60362 0.88386 0.34746 0.0
C3560 C 0.38961 0.35469 0.67159 0.0
C3561 C 0.40063 0.35524 0.65802 0.0
C3562 C 0.37977 0.36852 0.67617 0.0
C3563 C 0.38169 0.38388 0.66772 0.0
C3564 C 0.39333 0.38473 0.65443 0.0
C3565 C 0.40226 0.37037 0.64946 0.0
C3566 C 0.36704 0.36645 0.68983 0.0
C3567 C 0.3966 0.40096 0.64563 0.0
C3568 C 0.34871 0.41849 0.66781 0.0
C3569 C 0.35432 0.42936 0.68052 0.0
C3570 C 0.357 0.40345 0.66407 0.0
C3571 C 0.37174 0.39909 0.67279 0.0
C3572 C 0.37719 0.40963 0.686 0.0
C3573 C 0.36848 0.42448 0.68969 0.0
C3574 C 0.34989 0.39213 0.65076 0.0
C3575 C 0.3925 0.40559 0.69614 0.0
H3576 H 0.38847 0.34332 0.67854 0.0
H3577 H 0.4109 0.37111 0.63913 0.0
H3578 H 0.36716 0.37723 0.6985 0.0
H3579 H 0.35443 0.36576 0.68412 0.0
H3580 H 0.36909 0.35492 0.69713 0.0
H3581 H 0.40662 0.39989 0.63618 0.0
H3582 H 0.38508 0.40526 0.63933 0.0
H3583 H 0.40021 0.41065 0.65487 0.0
H3584 H 0.33797 0.42184 0.66037 0.0
H3585 H 0.37288 0.43224 0.69986 0.0
H3586 H 0.34795 0.37948 0.65592 0.0
H3587 H 0.35881 0.39098 0.64029 0.0
H3588 H 0.33784 0.39671 0.64576 0.0
H3589 H 0.39432 0.39201 0.69755 0.0
H3590 H 0.39175 0.41115 0.70879 0.0
H3591 H 0.40361 0.41076 0.68977 0.0
C3592 C 0.36476 0.62096 0.92136 0.0
C3593 C 0.37841 0.63121 0.91782 0.0
C3594 C 0.36352 0.60485 0.91472 0.0
C3595 C 0.37667 0.59852 0.90472 0.0
C3596 C 0.39126 0.60834 0.90255 0.0
C3597 C 0.39171 0.62473 0.90868 0.0
C3598 C 0.34794 0.59506 0.91876 0.0
C3599 C 0.40668 0.60184 0.89406 0.0
C3600 C 0.37043 0.55219 0.89696 0.0
C3601 C 0.3663 0.55181 0.87993 0.0
C3602 C 0.37492 0.56709 0.90499 0.0
C3603 C 0.37475 0.58218 0.89593 0.0
C3604 C 0.37174 0.5817 0.87847 0.0
C3605 C 0.36767 0.56651 0.87069 0.0
C3606 C 0.37934 0.56651 0.92328 0.0
C3607 C 0.37231 0.59726 0.86801 0.0
H3608 H 0.3546 0.6258 0.92876 0.0
H3609 H 0.40255 0.63247 0.90636 0.0
H3610 H 0.33678 0.60308 0.91746 0.0
H3611 H 0.34613 0.58381 0.91095 0.0
H3612 H 0.3485 0.59117 0.93202 0.0
H3613 H 0.4175 0.60322 0.90264 0.0
H3614 H 0.40575 0.5886 0.89026 0.0
H3615 H 0.40946 0.60955 0.88295 0.0
H3616 H 0.37014 0.54078 0.90411 0.0
H3617 H 0.36473 0.56633 0.85749 0.0
H3618 H 0.36773 0.56667 0.93073 0.0
H3619 H 0.38729 0.57717 0.92719 0.0
H3620 H 0.38596 0.55479 0.9263 0.0
H3621 H 0.36511 0.60735 0.87402 0.0
H3622 H 0.36748 0.59513 0.8552 0.0
H3623 H 0.38536 0.60158 0.8668 0.0
C3624 C 0.64118 0.15073 0.29198 0.0
C3625 C 0.63512 0.15681 0.30717 0.0
C3626 C 0.64637 0.13419 0.29049 0.0
C3627 C 0.64515 0.12359 0.30447 0.0
C3628 C 0.63861 0.12964 0.3197 0.0
C3629 C 0.63382 0.14628 0.3209 0.0
C3630 C 0.6535 0.12818 0.27417 0.0
C3631 C 0.63697 0.11866 0.33486 0.0
C3632 C 0.64559 0.07671 0.3019 0.0
C3633 C 0.66126 0.07339 0.30873 0.0
C3634 C 0.64045 0.09315 0.29938 0.0
C3635 C 0.65141 0.10636 0.30363 0.0
C3636 C 0.66775 0.10295 0.30928 0.0
C3637 C 0.67244 0.08643 0.31193 0.0
C3638 C 0.62286 0.0964 0.29358 0.0
C3639 C 0.67984 0.11676 0.31365 0.0
H3640 H 0.64218 0.15903 0.2814 0.0
H3641 H 0.62893 0.15106 0.33255 0.0
H3642 H 0.66664 0.12438 0.27602 0.0
H3643 H 0.64655 0.11707 0.26968 0.0
H3644 H 0.65306 0.13789 0.26435 0.0
H3645 H 0.62976 0.12473 0.34498 0.0
H3646 H 0.63076 0.10675 0.33152 0.0
H3647 H 0.64955 0.11567 0.33975 0.0
H3648 H 0.63696 0.06652 0.29965 0.0
H3649 H 0.68456 0.08372 0.31726 0.0
H3650 H 0.62273 0.10584 0.28354 0.0
H3651 H 0.61549 0.10144 0.30411 0.0
H3652 H 0.61663 0.08491 0.28893 0.0
H3653 H 0.68037 0.12604 0.30346 0.0
H3654 H 0.69261 0.11202 0.316 0.0
H3655 H 0.67553 0.12333 0.32502 0.0
C3656 C 0.64413 0.85903 0.00791 0.0
C3657 C 0.6301 0.85016 0.0134 0.0
C3658 C 0.6467 0.87572 0.01252 0.0
C3659 C 0.63498 0.88376 0.02292 0.0
C3660 C 0.62031 0.87521 0.02767 0.0
C3661 C 0.61805 0.85851 0.02288 0.0
C3662 C 0.6624 0.88447 0.00699 0.0
C3663 C 0.60738 0.88343 0.03853 0.0
C3664 C 0.65171 0.91653 0.05287 0.0
C3665 C 0.64734 0.93144 0.04495 0.0
C3666 C 0.64778 0.90103 0.04577 0.0
C3667 C 0.63901 0.9003 0.03043 0.0
C3668 C 0.63426 0.91526 0.02248 0.0
C3669 C 0.63858 0.93065 0.02976 0.0
C3670 C 0.65303 0.88539 0.05472 0.0
C3671 C 0.62489 0.91505 0.00613 0.0
H3672 H 0.65334 0.85278 1.0003 0.0
H3673 H 0.60721 0.85178 0.02728 0.0
H3674 H 0.65943 0.89691 1.00187 0.0
H3675 H 0.67074 0.88639 0.01789 0.0
H3676 H 0.66924 0.87724 0.99739 0.0
H3677 H 0.59606 0.87558 0.04 0.0
H3678 H 0.61274 0.88595 0.05106 0.0
H3679 H 0.60369 0.89556 0.03314 0.0
H3680 H 0.6581 0.91693 0.06479 0.0
H3681 H 0.63529 0.94205 0.02342 0.0
H3682 H 0.66124 0.87787 0.04655 0.0
H3683 H 0.64193 0.87767 0.0576 0.0
H3684 H 0.6598 0.88809 0.06653 0.0
H3685 H 0.63345 0.9113 0.99598 0.0
H3686 H 0.61968 0.92745 1.00305 0.0
H3687 H 0.61456 0.90585 0.00641 0.0
C3688 C 0.66412 0.41354 0.37236 0.0
C3689 C 0.65952 0.40551 0.35736 0.0
C3690 C 0.66805 0.40452 0.38704 0.0
C3691 C 0.66778 0.38684 0.387 0.0
C3692 C 0.66336 0.37859 0.37193 0.0
C3693 C 0.65905 0.38791 0.35757 0.0
C3694 C 0.67252 0.414 0.40271 0.0
C3695 C 0.66295 0.35983 0.37089 0.0
C3696 C 0.69185 0.36475 0.42242 0.0
C3697 C 0.67906 0.36006 0.43335 0.0
C3698 C 0.68837 0.37296 0.40717 0.0
C3699 C 0.67169 0.37713 0.40281 0.0
C3700 C 0.65875 0.37221 0.41381 0.0
C3701 C 0.66255 0.36363 0.42873 0.0
C3702 C 0.70254 0.37682 0.39551 0.0
C3703 C 0.64081 0.37618 0.40993 0.0
H3704 H 0.66489 0.42698 0.37268 0.0
H3705 H 0.65512 0.38118 0.34651 0.0
H3706 H 0.6641 0.41027 0.413 0.0
H3707 H 0.68541 0.4109 0.40663 0.0
H3708 H 0.67168 0.42768 0.40103 0.0
H3709 H 0.66322 0.35536 0.35776 0.0
H3710 H 0.67361 0.35429 0.37771 0.0
H3711 H 0.65134 0.35515 0.3767 0.0
H3712 H 0.7046 0.36168 0.42565 0.0
H3713 H 0.65256 0.35991 0.43699 0.0
H3714 H 0.70291 0.39032 0.39275 0.0
H3715 H 0.70053 0.37017 0.38351 0.0
H3716 H 0.7148 0.37306 0.40072 0.0
H3717 H 0.63927 0.38985 0.40887 0.0
H3718 H 0.63216 0.37148 0.41963 0.0
H3719 H 0.63717 0.37063 0.39777 0.0
C3720 C 0.92356 0.35891 0.61872 0.0
C3721 C 0.91785 0.37182 0.62892 0.0
C3722 C 0.91753 0.35675 0.60241 0.0
C3723 C 0.90624 0.36852 0.59569 0.0
C3724 C 0.9017 0.38253 0.60546 0.0
C3725 C 0.90718 0.38376 0.6221 0.0
C3726 C 0.92325 0.34165 0.59276 0.0
C3727 C 0.89074 0.39612 0.59867 0.0
C3728 C 0.89908 0.36501 0.54874 0.0
C3729 C 0.88287 0.35837 0.54801 0.0
C3730 C 0.90672 0.36877 0.56412 0.0
C3731 C 0.89812 0.36546 0.57914 0.0
C3732 C 0.8817 0.3589 0.57831 0.0
C3733 C 0.8743 0.35552 0.56285 0.0
C3734 C 0.92386 0.37654 0.56426 0.0
C3735 C 0.87151 0.35576 0.59362 0.0
H3736 H 0.93224 0.35004 0.62374 0.0
H3737 H 0.90299 0.394 0.62984 0.0
H3738 H 0.91441 0.33786 0.58278 0.0
H3739 H 0.93549 0.3444 0.587 0.0
H3740 H 0.92514 0.3309 0.60122 0.0
H3741 H 0.89414 0.40833 0.60429 0.0
H3742 H 0.8916 0.39715 0.58491 0.0
H3743 H 0.8776 0.3935 0.60201 0.0
H3744 H 0.90569 0.36753 0.53726 0.0
H3745 H 0.8618 0.35037 0.56241 0.0
H3746 H 0.93311 0.36728 0.56854 0.0
H3747 H 0.92431 0.38722 0.57307 0.0
H3748 H 0.92764 0.3809 0.5517 0.0
H3749 H 0.87945 0.35277 0.60447 0.0
H3750 H 0.8624 0.34549 0.59161 0.0
H3751 H 0.8643 0.36715 0.59643 0.0
C3752 C 0.28955 0.63634 0.15355 0.0
C3753 C 0.30444 0.63502 0.16267 0.0
C3754 C 0.28969 0.64036 0.13651 0.0
C3755 C 0.30509 0.64307 0.12839 0.0
C3756 C 0.32016 0.64164 0.13751 0.0
C3757 C 0.31964 0.63766 0.15452 0.0
C3758 C 0.27337 0.64188 0.12726 0.0
C3759 C 0.33686 0.64444 0.12936 0.0
C3760 C 0.30919 0.63837 0.08142 0.0
C3761 C 0.31037 0.65496 0.07638 0.0
C3762 C 0.30682 0.63432 0.09827 0.0
C3763 C 0.30559 0.64721 0.1103 0.0
C3764 C 0.30611 0.66403 0.10511 0.0
C3765 C 0.30863 0.66771 0.08818 0.0
C3766 C 0.30656 0.61625 0.10331 0.0
C3767 C 0.30468 0.67812 0.11752 0.0
H3768 H 0.27774 0.63454 0.15981 0.0
H3769 H 0.3312 0.63648 0.16143 0.0
H3770 H 0.27201 0.65471 0.12241 0.0
H3771 H 0.27319 0.63334 0.11636 0.0
H3772 H 0.2625 0.63899 0.13528 0.0
H3773 H 0.34741 0.64125 0.13775 0.0
H3774 H 0.33788 0.6369 0.1178 0.0
H3775 H 0.3381 0.6577 0.12578 0.0
H3776 H 0.31086 0.62856 0.07226 0.0
H3777 H 0.30983 0.68055 0.08422 0.0
H3778 H 0.2954 0.61356 0.11096 0.0
H3779 H 0.31767 0.61353 0.11111 0.0
H3780 H 0.30657 0.60774 0.09236 0.0
H3781 H 0.29335 0.67649 0.12524 0.0
H3782 H 0.30413 0.69046 0.11135 0.0
H3783 H 0.31555 0.67801 0.1261 0.0
C3784 C 0.03149 0.64276 0.85394 0.0
C3785 C 0.01676 0.63446 0.84937 0.0
C3786 C 0.03593 0.64492 0.87072 0.0
C3787 C 0.02533 0.63871 0.88334 0.0
C3788 C 0.01042 0.6303 0.87886 0.0
C3789 C 0.00635 0.62816 0.86189 0.0
C3790 C 0.05208 0.65371 0.87492 0.0
C3791 C 0.99868 0.62377 0.89198 0.0
C3792 C 0.04661 0.63272 0.92525 0.0
C3793 C 0.04337 0.64795 0.93314 0.0
C3794 C 0.04019 0.6292 0.9093 0.0
C3795 C 0.0301 0.64112 0.90117 0.0
C3796 C 0.02606 0.65614 0.90948 0.0
C3797 C 0.03289 0.65944 0.9253 0.0
C3798 C 0.0449 0.61311 0.90082 0.0
C3799 C 0.01513 0.66904 0.90138 0.0
H3800 H 0.03974 0.64737 0.84432 0.0
H3801 H 0.99493 0.62178 0.8584 0.0
H3802 H 0.04962 0.66474 0.88287 0.0
H3803 H 0.06029 0.64528 0.88213 0.0
H3804 H 0.05887 0.65786 0.86362 0.0
H3805 H 0.9879 0.61697 0.88647 0.0
H3806 H 0.00537 0.61532 0.90058 0.0
H3807 H 0.99392 0.63428 0.89958 0.0
H3808 H 0.0548 0.62385 0.93123 0.0
H3809 H 0.03021 0.67115 0.93147 0.0
H3810 H 0.05261 0.61581 0.8897 0.0
H3811 H 0.03358 0.60644 0.89642 0.0
H3812 H 0.05203 0.60474 0.9092 0.0
H3813 H 0.02194 0.67494 0.89093 0.0
H3814 H 0.01137 0.67894 0.9103 0.0
H3815 H 0.00374 0.66316 0.8961 0.0
C3816 C 0.63415 0.34041 0.59691 0.0
C3817 C 0.64817 0.34742 0.60498 0.0
C3818 C 0.61977 0.33547 0.60585 0.0
C3819 C 0.61907 0.33746 0.62343 0.0
C3820 C 0.63328 0.34407 0.63174 0.0
C3821 C 0.64745 0.34901 0.62252 0.0
C3822 C 0.60518 0.32813 0.59643 0.0
C3823 C 0.63345 0.34609 0.65046 0.0
C3824 C 0.57563 0.34401 0.64204 0.0
C3825 C 0.57192 0.32876 0.64995 0.0
C3826 C 0.59095 0.347 0.63403 0.0
C3827 C 0.60299 0.33424 0.63283 0.0
C3828 C 0.59935 0.31864 0.64036 0.0
C3829 C 0.58402 0.31614 0.64883 0.0
C3830 C 0.59429 0.36405 0.6269 0.0
C3831 C 0.61143 0.30437 0.63926 0.0
H3832 H 0.63439 0.33862 0.58353 0.0
H3833 H 0.65786 0.35452 0.62918 0.0
H3834 H 0.60172 0.31595 0.60191 0.0
H3835 H 0.59421 0.33641 0.59764 0.0
H3836 H 0.60789 0.32634 0.58297 0.0
H3837 H 0.6452 0.35184 0.65511 0.0
H3838 H 0.62283 0.35391 0.65449 0.0
H3839 H 0.63193 0.33375 0.65643 0.0
H3840 H 0.56649 0.35384 0.64188 0.0
H3841 H 0.58168 0.30427 0.6547 0.0
H3842 H 0.59594 0.36314 0.6132 0.0
H3843 H 0.60601 0.36921 0.63222 0.0
H3844 H 0.58406 0.37294 0.62952 0.0
H3845 H 0.60962 0.29791 0.62713 0.0
H3846 H 0.60933 0.29518 0.64937 0.0
H3847 H 0.62455 0.30873 0.63989 0.0
C3848 C 0.85668 0.67908 0.36968 0.0
C3849 C 0.84699 0.69324 0.37258 0.0
C3850 C 0.87338 0.68053 0.36476 0.0
C3851 C 0.88059 0.69652 0.3628 0.0
C3852 C 0.87083 0.71087 0.36561 0.0
C3853 C 0.85411 0.70904 0.37031 0.0
C3854 C 0.88333 0.66492 0.36173 0.0
C3855 C 0.87785 0.7282 0.36354 0.0
C3856 C 0.92778 0.69695 0.36586 0.0
C3857 C 0.93262 0.69782 0.34901 0.0
C3858 C 0.91095 0.69756 0.37052 0.0
C3859 C 0.89845 0.69809 0.35809 0.0
C3860 C 0.90304 0.69937 0.34117 0.0
C3861 C 0.91999 0.69977 0.33689 0.0
C3862 C 0.9065 0.6973 0.3888 0.0
C3863 C 0.89004 0.69979 0.32751 0.0
H3864 H 0.85128 0.66685 0.37155 0.0
H3865 H 0.84658 0.72005 0.37218 0.0
H3866 H 0.88847 0.66503 0.3489 0.0
H3867 H 0.89403 0.66445 0.3705 0.0
H3868 H 0.87574 0.65345 0.36332 0.0
H3869 H 0.87034 0.73759 0.37034 0.0
H3870 H 0.89093 0.72901 0.36801 0.0
H3871 H 0.8777 0.73151 0.35013 0.0
H3872 H 0.93698 0.69527 0.37556 0.0
H3873 H 0.92315 0.70134 0.32391 0.0
H3874 H 0.89991 0.68554 0.3918 0.0
H3875 H 0.89789 0.70769 0.39172 0.0
H3876 H 0.91764 0.69842 0.39698 0.0
H3877 H 0.88215 0.68843 0.32811 0.0
H3878 H 0.89563 0.70054 0.31489 0.0
H3879 H 0.88172 0.71061 0.32931 0.0
C3880 C 0.14862 0.99244 0.36307 0.0
C3881 C 0.15687 0.98633 0.37723 0.0
C3882 C 0.1319 0.98831 0.3598 0.0
C3883 C 0.1232 0.97786 0.37099 0.0
C3884 C 0.13121 0.9723 0.38569 0.0
C3885 C 0.14794 0.97656 0.38861 0.0
C3886 C 0.12377 0.99456 0.34404 0.0
C3887 C 0.12237 0.96112 0.39793 0.0
C3888 C 0.07608 0.97258 0.36824 0.0
C3889 C 0.07476 0.95725 0.35995 0.0
C3890 C 0.09178 0.97967 0.3717 0.0
C3891 C 0.10639 0.9713 0.36654 0.0
C3892 C 0.10503 0.95609 0.35767 0.0
C3893 C 0.08925 0.94925 0.35454 0.0
C3894 C 0.09276 0.99584 0.38128 0.0
C3895 C 0.12027 0.94689 0.35169 0.0
H3896 H 0.15534 1.00024 0.35437 0.0
H3897 H 0.15423 0.97159 0.39947 0.0
H3898 H 0.12067 0.9839 0.33575 0.0
H3899 H 0.11192 1.00094 0.34703 0.0
H3900 H 0.13192 0.00332 0.33711 0.0
H3901 H 0.12966 0.95939 0.40959 0.0
H3902 H 0.11001 0.9663 0.40117 0.0
H3903 H 0.12023 0.94873 0.39213 0.0
H3904 H 0.06488 0.97876 0.37246 0.0
H3905 H 0.08822 0.93753 0.34786 0.0
H3906 H 0.10004 0.00515 0.37415 0.0
H3907 H 0.09939 0.99386 0.39327 0.0
H3908 H 0.08025 1.00104 0.38395 0.0
H3909 H 0.1277 0.95499 0.34334 0.0
H3910 H 0.11704 0.93527 0.34485 0.0
H3911 H 0.12833 0.94366 0.36246 0.0
C3912 C 0.37982 0.10735 0.63315 0.0
C3913 C 0.37677 0.09035 0.63055 0.0
C3914 C 0.39597 0.11385 0.63387 0.0
C3915 C 0.40972 0.10305 0.63199 0.0
C3916 C 0.40682 0.08606 0.62806 0.0
C3917 C 0.3904 0.07984 0.62767 0.0
C3918 C 0.39784 0.13243 0.63622 0.0
C3919 C 0.42095 0.07438 0.6242 0.0
C3920 C 0.44968 0.12814 0.62774 0.0
C3921 C 0.45737 0.12535 0.64318 0.0
C3922 C 0.43467 0.12019 0.62348 0.0
C3923 C 0.42692 0.10941 0.63511 0.0
C3924 C 0.43505 0.10602 0.65048 0.0
C3925 C 0.45013 0.11409 0.65432 0.0
C3926 C 0.42709 0.12383 0.60664 0.0
C3927 C 0.42808 0.09401 0.66317 0.0
H3928 H 0.36957 0.11575 0.63495 0.0
H3929 H 0.38829 0.06679 0.62495 0.0
H3930 H 0.41011 0.13623 0.64133 0.0
H3931 H 0.39604 0.13859 0.62401 0.0
H3932 H 0.38799 0.13729 0.64451 0.0
H3933 H 0.41683 0.06427 0.61562 0.0
H3934 H 0.43164 0.081 0.61845 0.0
H3935 H 0.42529 0.06849 0.6359 0.0
H3936 H 0.4553 0.13676 0.61902 0.0
H3937 H 0.45634 0.11151 0.66605 0.0
H3938 H 0.42043 0.13588 0.60725 0.0
H3939 H 0.41824 0.11402 0.60246 0.0
H3940 H 0.43698 0.12519 0.59708 0.0
H3941 H 0.43108 0.09819 0.67606 0.0
H3942 H 0.43407 0.08173 0.66141 0.0
H3943 H 0.41441 0.09231 0.66214 0.0
C3944 C 0.60395 0.63704 0.34209 0.0
C3945 C 0.61115 0.64904 0.35279 0.0
C3946 C 0.61287 0.62294 0.33664 0.0
C3947 C 0.62927 0.62003 0.34247 0.0
C3948 C 0.63684 0.63219 0.35291 0.0
C3949 C 0.62787 0.64656 0.35769 0.0
C3950 C 0.60467 0.61107 0.32456 0.0
C3951 C 0.65445 0.62999 0.35911 0.0
C3952 C 0.64049 0.57384 0.34483 0.0
C3953 C 0.65217 0.57164 0.33193 0.0
C3954 C 0.63368 0.58952 0.34867 0.0
C3955 C 0.63774 0.6036 0.33888 0.0
C3956 C 0.64933 0.60157 0.32565 0.0
C3957 C 0.65651 0.58577 0.32252 0.0
C3958 C 0.62219 0.59101 0.36346 0.0
C3959 C 0.65417 0.61581 0.31443 0.0
H3960 H 0.59115 0.63838 0.33807 0.0
H3961 H 0.63411 0.65586 0.36527 0.0
H3962 H 0.61322 0.60853 0.31401 0.0
H3963 H 0.60209 0.59905 0.33079 0.0
H3964 H 0.59276 0.61603 0.31958 0.0
H3965 H 0.6583 0.64 0.36792 0.0
H3966 H 0.6557 0.6178 0.36544 0.0
H3967 H 0.66313 0.63 0.34838 0.0
H3968 H 0.6365 0.56324 0.35208 0.0
H3969 H 0.66575 0.58461 0.31281 0.0
H3970 H 0.60941 0.59401 0.35917 0.0
H3971 H 0.62642 0.60131 0.37174 0.0
H3972 H 0.62163 0.57938 0.37088 0.0
H3973 H 0.64811 0.61398 0.30209 0.0
H3974 H 0.66786 0.61584 0.31238 0.0
H3975 H 0.65047 0.62815 0.31933 0.0
C3976 C 0.63625 0.3881 0.08501 0.0
C3977 C 0.62715 0.37582 0.09336 0.0
C3978 C 0.63714 0.40446 0.09117 0.0
C3979 C 0.62922 0.40853 0.10642 0.0
C3980 C 0.61957 0.39623 0.11464 0.0
C3981 C 0.61846 0.38007 0.10787 0.0
C3982 C 0.64722 0.41713 0.08165 0.0
C3983 C 0.61087 0.39995 0.1309 0.0
C3984 C 0.65067 0.44389 0.13004 0.0
C3985 C 0.6387 0.45652 0.12979 0.0
C3986 C 0.64758 0.42829 0.12281 0.0
C3987 C 0.63228 0.42508 0.11452 0.0
C3988 C 0.62015 0.43782 0.11392 0.0
C3989 C 0.62337 0.45319 0.12182 0.0
C3990 C 0.66146 0.41587 0.1236 0.0
C3991 C 0.60421 0.43596 0.10403 0.0
H3992 H 0.64282 0.38485 0.07368 0.0
H3993 H 0.61145 0.37054 0.11435 0.0
H3994 H 0.64175 0.42974 0.08273 0.0
H3995 H 0.66005 0.41757 0.08682 0.0
H3996 H 0.64811 0.41375 0.06824 0.0
H3997 H 0.60611 0.38848 0.13697 0.0
H3998 H 0.61943 0.40644 0.13969 0.0
H3999 H 0.60017 0.40831 0.1286 0.0
H4000 H 0.66284 0.44621 0.13546 0.0
H4001 H 0.61379 0.46261 0.12152 0.0
H4002 H 0.65817 0.40339 0.1188 0.0
H4003 H 0.66593 0.41477 0.13666 0.0
H4004 H 0.67192 0.42084 0.11612 0.0
H4005 H 0.60629 0.44102 0.09135 0.0
H4006 H 0.59398 0.4432 0.10982 0.0
H4007 H 0.60011 0.42286 0.10261 0.0
C4008 C 0.36555 0.85457 0.67997 0.0
C4009 C 0.37242 0.84596 0.69348 0.0
C4010 C 0.36022 0.87108 0.68172 0.0
C4011 C 0.36192 0.87924 0.69733 0.0
C4012 C 0.36865 0.87055 0.71108 0.0
C4013 C 0.37369 0.85398 0.70902 0.0
C4014 C 0.35298 0.87987 0.66677 0.0
C4015 C 0.37049 0.87862 0.72802 0.0
C4016 C 0.36405 0.9263 0.6946 0.0
C4017 C 0.34772 0.93097 0.69876 0.0
C4018 C 0.36901 0.90958 0.6949 0.0
C4019 C 0.35727 0.89708 0.69893 0.0
C4020 C 0.34095 0.90162 0.70363 0.0
C4021 C 0.33645 0.91849 0.70375 0.0
C4022 C 0.38674 0.90523 0.69048 0.0
C4023 C 0.32808 0.88861 0.70802 0.0
H4024 H 0.36463 0.84849 0.66791 0.0
H4025 H 0.37858 0.84726 0.71965 0.0
H4026 H 0.34048 0.88484 0.66984 0.0
H4027 H 0.36101 0.8906 0.66341 0.0
H4028 H 0.35181 0.87155 0.65574 0.0
H4029 H 0.37912 0.87159 0.73622 0.0
H4030 H 0.37514 0.89159 0.72696 0.0
H4031 H 0.35815 0.87905 0.73416 0.0
H4032 H 0.37291 0.9356 0.6905 0.0
H4033 H 0.32396 0.92183 0.7075 0.0
H4034 H 0.38691 0.89768 0.67887 0.0
H4035 H 0.39235 0.89758 0.70052 0.0
H4036 H 0.39463 0.91645 0.68863 0.0
H4037 H 0.32604 0.88014 0.69724 0.0
H4038 H 0.31595 0.89417 0.71156 0.0
H4039 H 0.33263 0.88091 0.71853 0.0
C4040 C 0.36457 0.14797 0.99558 0.0
C4041 C 0.37703 0.15684 0.98715 0.0
C4042 C 0.36114 0.13125 0.99165 0.0
C4043 C 0.37032 0.12326 0.97891 0.0
C4044 C 0.38327 0.13199 0.97073 0.0
C4045 C 0.38647 0.14865 0.97496 0.0
C4046 C 0.34736 0.12229 1.00075 0.0
C4047 C 0.39324 0.12399 0.95696 0.0
C4048 C 0.36947 0.07624 0.97299 0.0
C4049 C 0.35853 0.07463 0.95943 0.0
C4050 C 0.37318 0.09198 0.97979 0.0
C4051 C 0.36552 0.10631 0.97302 0.0
C4052 C 0.35392 0.10459 0.95977 0.0
C4053 C 0.35067 0.08878 0.95307 0.0
C4054 C 0.38571 0.09335 0.9938 0.0
C4055 C 0.34524 0.11949 0.95239 0.0
H4056 H 0.35737 0.15418 0.00515 0.0
H4057 H 0.39595 0.15548 0.96822 0.0
H4058 H 0.33731 0.1188 0.99186 0.0
H4059 H 0.35215 0.1106 0.00626 0.0
H4060 H 0.3419 0.13001 0.01085 0.0
H4061 H 0.40378 0.13196 0.95285 0.0
H4062 H 0.39826 0.11185 0.96113 0.0
H4063 H 0.38502 0.12152 0.94606 0.0
H4064 H 0.37558 0.06526 0.97783 0.0
H4065 H 0.34206 0.08746 0.94269 0.0
H4066 H 0.38018 0.10003 0.00455 0.0
H4067 H 0.39664 0.10072 0.98964 0.0
H4068 H 0.39011 0.08098 0.99806 0.0
H4069 H 0.33823 0.12616 0.96224 0.0
H4070 H 0.33644 0.11598 0.94224 0.0
H4071 H 0.35457 0.12833 0.94732 0.0
C4072 C 0.36298 0.6131 0.6376 0.0
C4073 C 0.35172 0.60448 0.64793 0.0
C4074 C 0.35761 0.62189 0.6233 0.0
C4075 C 0.3405 0.62206 0.61876 0.0
C4076 C 0.32901 0.61354 0.62911 0.0
C4077 C 0.33468 0.60502 0.64348 0.0
C4078 C 0.37037 0.63098 0.61294 0.0
C4079 C 0.31067 0.61323 0.62488 0.0
C4080 C 0.32616 0.65508 0.58699 0.0
C4081 C 0.32732 0.64638 0.57181 0.0
C4082 C 0.33004 0.64735 0.60237 0.0
C4083 C 0.33491 0.63034 0.60272 0.0
C4084 C 0.33524 0.62137 0.58743 0.0
C4085 C 0.33171 0.62951 0.57226 0.0
C4086 C 0.32956 0.65758 0.61816 0.0
C4087 C 0.33978 0.60319 0.58703 0.0
H4088 H 0.37615 0.61279 0.64048 0.0
H4089 H 0.32561 0.5989 0.65133 0.0
H4090 H 0.37003 0.62633 0.5999 0.0
H4091 H 0.36734 0.64443 0.6126 0.0
H4092 H 0.38322 0.62953 0.61789 0.0
H4093 H 0.30312 0.6071 0.6347 0.0
H4094 H 0.306 0.62607 0.62308 0.0
H4095 H 0.30869 0.60644 0.61296 0.0
H4096 H 0.32288 0.66815 0.58676 0.0
H4097 H 0.33258 0.62269 0.56061 0.0
H4098 H 0.3424 0.65915 0.62312 0.0
H4099 H 0.32217 0.65112 0.62785 0.0
H4100 H 0.32417 0.6701 0.61605 0.0
H4101 H 0.35281 0.6016 0.59138 0.0
H4102 H 0.33858 0.59773 0.57433 0.0
H4103 H 0.33164 0.59609 0.59562 0.0
C4104 C 0.09908 0.6109 0.38443 0.0
C4105 C 0.08923 0.62297 0.37676 0.0
C4106 C 0.10545 0.61341 0.40062 0.0
C4107 C 0.10338 0.62909 0.40861 0.0
C4108 C 0.09326 0.64125 0.40084 0.0
C4109 C 0.0855 0.63753 0.38562 0.0
C4110 C 0.11417 0.599 0.40886 0.0
C4111 C 0.09062 0.65848 0.40794 0.0
C4112 C 0.10993 0.63828 0.45479 0.0
C4113 C 0.12713 0.64133 0.45559 0.0
C4114 C 0.1021 0.63387 0.43974 0.0
C4115 C 0.11165 0.6328 0.42494 0.0
C4116 C 0.12907 0.63584 0.42571 0.0
C4117 C 0.13659 0.64008 0.44102 0.0
C4118 C 0.08356 0.6306 0.43983 0.0
C4119 C 0.13979 0.63481 0.41036 0.0
H4120 H 0.10166 0.59939 0.37785 0.0
H4121 H 0.07699 0.64648 0.38051 0.0
H4122 H 0.11805 0.60153 0.4219 0.0
H4123 H 0.10571 0.58802 0.40885 0.0
H4124 H 0.12526 0.59548 0.40143 0.0
H4125 H 0.07734 0.65992 0.41144 0.0
H4126 H 0.0932 0.66792 0.39819 0.0
H4127 H 0.09851 0.66139 0.41894 0.0
H4128 H 0.10252 0.63939 0.46602 0.0
H4129 H 0.14992 0.64226 0.44163 0.0
H4130 H 0.07987 0.62116 0.43038 0.0
H4131 H 0.07691 0.64234 0.43704 0.0
H4132 H 0.07931 0.62632 0.45227 0.0
H4133 H 0.14026 0.62183 0.40576 0.0
H4134 H 0.15278 0.63895 0.41276 0.0
H4135 H 0.13429 0.64252 0.40037 0.0
C4136 C 0.68242 0.35938 0.85364 0.0
C4137 C 0.69397 0.37092 0.84743 0.0
C4138 C 0.68341 0.35382 0.87016 0.0
C4139 C 0.69643 0.35967 0.88062 0.0
C4140 C 0.70832 0.37104 0.87435 0.0
C4141 C 0.70681 0.37669 0.85793 0.0
C4142 C 0.67032 0.3419 0.87652 0.0
C4143 C 0.72269 0.37722 0.88494 0.0
C4144 C 0.68816 0.36024 0.927 0.0
C4145 C 0.696 0.34562 0.93232 0.0
C4146 C 0.68844 0.36502 0.91025 0.0
C4147 C 0.69679 0.35495 0.89848 0.0
C4148 C 0.70506 0.34036 0.90375 0.0
C4149 C 0.70446 0.33578 0.92063 0.0
C4150 C 0.67957 0.38074 0.90509 0.0
C4151 C 0.71442 0.32957 0.89155 0.0
H4152 H 0.67266 0.35459 0.84557 0.0
H4153 H 0.71567 0.38579 0.85339 0.0
H4154 H 0.67631 0.33042 0.88121 0.0
H4155 H 0.6636 0.34764 0.88714 0.0
H4156 H 0.6611 0.33842 0.86675 0.0
H4157 H 0.72982 0.38733 0.87876 0.0
H4158 H 0.7182 0.38187 0.89716 0.0
H4159 H 0.7313 0.36676 0.88745 0.0
H4160 H 0.68136 0.36776 0.9359 0.0
H4161 H 0.71064 0.32454 0.92471 0.0
H4162 H 0.66994 0.3778 0.89555 0.0
H4163 H 0.68856 0.38952 0.89935 0.0
H4164 H 0.6735 0.38708 0.91577 0.0
H4165 H 0.7057 0.32447 0.88205 0.0
H4166 H 0.72082 0.31904 0.89777 0.0
H4167 H 0.72384 0.33713 0.88485 0.0
C4168 C 0.99796 0.37919 0.14492 0.0
C4169 C 0.98775 0.37261 0.15745 0.0
C4170 C 0.99429 0.37641 0.12796 0.0
C4171 C 0.97988 0.36715 0.1235 0.0
C4172 C 0.96968 0.36032 0.13612 0.0
C4173 C 0.97378 0.36307 0.15291 0.0
C4174 C 0.00563 0.38362 0.11485 0.0
C4175 C 0.95417 0.35044 0.13191 0.0
C4176 C 0.95741 0.37464 0.08259 0.0
C4177 C 0.96091 0.36002 0.07366 0.0
C4178 C 0.96404 0.37739 0.09856 0.0
C4179 C 0.97472 0.3654 0.10573 0.0
C4180 C 0.97908 0.35106 0.09643 0.0
C4181 C 0.97208 0.3485 0.08053 0.0
C4182 C 0.95896 0.3928 0.10808 0.0
C4183 C 0.99081 0.33822 0.10347 0.0
H4184 H 0.00885 0.38646 0.14838 0.0
H4185 H 0.96571 0.35815 0.16253 0.0
H4186 H 0.009 0.37393 0.10559 0.0
H4187 H 0.99906 0.39362 0.10803 0.0
H4188 H 0.01725 0.38889 0.12033 0.0
H4189 H 0.94765 0.34588 0.14321 0.0
H4190 H 0.94542 0.35826 0.12465 0.0
H4191 H 0.95742 0.33958 0.12402 0.0
H4192 H 0.94915 0.38382 0.07723 0.0
H4193 H 0.97485 0.33716 0.07378 0.0
H4194 H 0.97015 0.39979 0.1123 0.0
H4195 H 0.95191 0.38916 0.11939 0.0
H4196 H 0.95105 0.40121 0.1005 0.0
H4197 H 1.00323 0.34396 0.10563 0.0
H4198 H 0.9923 0.32735 0.09501 0.0
H4199 H 0.98625 0.33372 0.1157 0.0
loop_
_geom_bond_atom_site_label_1
_geom_bond_atom_site_label_2
_geom_bond_distance
_geom_bond_site_symmetry_2
_ccdc_geom_bond_type
C0 C1 1.264 . S
C0 C5 1.479 . S
C0 C10 1.465 . S
C1 C0 1.264 . S
C1 C3 1.339 . S
C1 H28 0.931 . S
C2 C3 1.395 . S
C2 C4 1.320 . S
C3 C1 1.339 . S
C3 C2 1.395 . S
C3 H29 0.929 . S
C4 C2 1.320 . S
C4 C5 1.405 . S
C4 H30 0.930 . S
C5 C0 1.479 . S
C5 C4 1.405 . S
C5 H31 0.931 . S
U6 O7 2.454 . S
U6 O8 2.458 . S
U6 C9 2.984 . S
U6 C10 2.847 . S
U6 C23 2.882 . S
U6 O24 2.441 . S
U6 O25 2.420 . S
U6 O26 2.455 . S
U6 O27 2.449 . S
O7 U6 2.454 . S
O7 C9 1.353 . S
O8 U6 2.458 . S
O8 C9 1.286 . S
C9 U6 2.984 . S
C9 O7 1.353 . S
C9 O8 1.286 . S
C9 C11 1.363 . S
C10 C0 1.465 . S
C10 U6 2.847 . S
C10 O24 1.249 . S
C10 O25 1.202 . S
C11 C9 1.363 . S
C11 C13 1.408 . S
C11 C16 1.342 . S
C12 C13 1.310 . S
C12 C15 1.461 . S
C12 H32 0.932 . S
C13 C11 1.408 . S
C13 C12 1.310 . S
C13 H33 0.930 . S
C14 C15 1.474 . S
C14 C16 1.285 . S
C14 H34 0.929 . S
C15 C12 1.461 . S
C15 C14 1.474 . S
C16 C11 1.342 . S
C16 C14 1.285 . S
C16 H35 0.930 . S
C17 C20 1.424 . S
C17 C22 1.245 . S
C17 C23 1.428 . S
C18 C21 1.260 . S
C18 C22 1.477 . S
C18 H36 0.932 . S
C19 C20 1.384 . S
C19 C21 1.479 . S
C19 H37 0.929 . S
C20 C17 1.424 . S
C20 C19 1.384 . S
C20 H38 0.928 . S
C21 C18 1.260 . S
C21 C19 1.479 . S
C22 C17 1.245 . S
C22 C18 1.477 . S
C22 H39 0.932 . S
C23 U6 2.882 . S
C23 C17 1.428 . S
C23 O26 1.301 . S
C23 O27 1.282 . S
O24 U6 2.441 . S
O24 C10 1.249 . S
O25 U6 2.420 . S
O25 C10 1.202 . S
O26 U6 2.455 . S
O26 C23 1.301 . S
O27 U6 2.449 . S
O27 C23 1.282 . S
H28 C1 0.931 . S
H29 C3 0.929 . S
H30 C4 0.930 . S
H31 C5 0.931 . S
H32 C12 0.932 . S
H33 C13 0.930 . S
H34 C14 0.929 . S
H35 C16 0.930 . S
H36 C18 0.932 . S
H37 C19 0.929 . S
H38 C20 0.928 . S
H39 C22 0.932 . S
C40 C41 1.264 . S
C40 C45 1.479 . S
C40 C50 1.465 . S
C41 C40 1.264 . S
C41 C43 1.339 . S
C41 H68 0.931 . S
C42 C43 1.395 . S
C42 C44 1.320 . S
C43 C41 1.339 . S
C43 C42 1.395 . S
C43 H69 0.929 . S
C44 C42 1.320 . S
C44 C45 1.405 . S
C44 H70 0.930 . S
C45 C40 1.479 . S
C45 C44 1.405 . S
C45 H71 0.931 . S
U46 O47 2.454 . S
U46 O48 2.458 . S
U46 C49 2.984 . S
U46 C50 2.847 . S
U46 C63 2.882 . S
U46 O64 2.441 . S
U46 O65 2.420 . S
U46 O66 2.455 . S
U46 O67 2.449 . S
O47 U46 2.454 . S
O47 C49 1.353 . S
O48 U46 2.458 . S
O48 C49 1.286 . S
C49 U46 2.984 . S
C49 O47 1.353 . S
C49 O48 1.286 . S
C49 C51 1.363 . S
C50 C40 1.465 . S
C50 U46 2.847 . S
C50 O64 1.249 . S
C50 O65 1.202 . S
C51 C49 1.363 . S
C51 C53 1.408 . S
C51 C56 1.342 . S
C52 C53 1.310 . S
C52 C55 1.461 . S
C52 H72 0.932 . S
C53 C51 1.408 . S
C53 C52 1.310 . S
C53 H73 0.930 . S
C54 C55 1.474 . S
C54 C56 1.285 . S
C54 H74 0.929 . S
C55 C52 1.461 . S
C55 C54 1.474 . S
C56 C51 1.342 . S
C56 C54 1.285 . S
C56 H75 0.930 . S
C57 C60 1.424 . S
C57 C62 1.245 . S
C57 C63 1.428 . S
C58 C61 1.260 . S
C58 C62 1.477 . S
C58 H76 0.932 . S
C59 C60 1.384 . S
C59 C61 1.479 . S
C59 H77 0.929 . S
C60 C57 1.424 . S
C60 C59 1.384 . S
C60 H78 0.928 . S
C61 C58 1.260 . S
C61 C59 1.479 . S
C62 C57 1.245 . S
C62 C58 1.477 . S
C62 H79 0.932 . S
C63 U46 2.882 . S
C63 C57 1.428 . S
C63 O66 1.301 . S
C63 O67 1.282 . S
O64 U46 2.441 . S
O64 C50 1.249 . S
O65 U46 2.420 . S
O65 C50 1.202 . S
O66 U46 2.455 . S
O66 C63 1.301 . S
O67 U46 2.449 . S
O67 C63 1.282 . S
H68 C41 0.931 . S
H69 C43 0.929 . S
H70 C44 0.930 . S
H71 C45 0.931 . S
H72 C52 0.932 . S
H73 C53 0.930 . S
H74 C54 0.929 . S
H75 C56 0.930 . S
H76 C58 0.932 . S
H77 C59 0.929 . S
H78 C60 0.928 . S
H79 C62 0.932 . S
C80 C81 1.264 . S
C80 C85 1.479 1_565 S
C80 C90 1.465 . S
C81 C80 1.264 . S
C81 C83 1.339 . S
C81 H108 0.931 . S
C82 C83 1.357 1_545 S
C82 C84 1.348 . S
C83 C81 1.339 . S
C83 C82 1.357 1_565 S
C83 H109 0.929 . S
C84 C82 1.348 . S
C84 C85 1.405 . S
C84 H110 0.930 . S
C85 C80 1.479 1_545 S
C85 C84 1.405 . S
C85 H111 0.931 . S
U86 O87 2.454 1_565 S
U86 O88 2.458 1_565 S
U86 C89 2.984 1_565 S
U86 C90 2.847 . S
U86 C103 2.882 . S
U86 O104 2.446 . S
U86 O105 2.420 . S
U86 O106 2.455 . S
U86 O107 2.449 . S
O87 U86 2.454 1_545 S
O87 C89 1.353 . S
O88 U86 2.458 1_545 S
O88 C89 1.286 . S
C89 U86 2.984 1_545 S
C89 O87 1.353 . S
C89 O88 1.286 . S
C89 C91 1.363 . S
C90 C80 1.465 . S
C90 U86 2.847 . S
C90 O104 1.258 . S
C90 O105 1.202 . S
C91 C89 1.363 . S
C91 C93 1.408 . S
C91 C96 1.342 . S
C92 C93 1.310 . S
C92 C95 1.461 . S
C92 H112 0.932 . S
C93 C91 1.408 . S
C93 C92 1.310 . S
C93 H113 0.930 . S
C94 C95 1.474 . S
C94 C96 1.285 . S
C94 H114 0.929 . S
C95 C92 1.461 . S
C95 C94 1.474 . S
C96 C91 1.342 . S
C96 C94 1.285 . S
C96 H115 0.930 . S
C97 C100 1.424 . S
C97 C102 1.245 . S
C97 C103 1.428 . S
C98 C101 1.260 . S
C98 C102 1.477 . S
C98 H116 0.932 . S
C99 C100 1.384 . S
C99 C101 1.479 . S
C99 H117 0.929 . S
C100 C97 1.424 . S
C100 C99 1.384 . S
C100 H118 0.928 . S
C101 C98 1.260 . S
C101 C99 1.479 . S
C102 C97 1.245 . S
C102 C98 1.477 . S
C102 H119 0.932 . S
C103 U86 2.882 . S
C103 C97 1.428 . S
C103 O106 1.301 . S
C103 O107 1.282 . S
O104 U86 2.446 . S
O104 C90 1.258 . S
O105 U86 2.420 . S
O105 C90 1.202 . S
O106 U86 2.455 . S
O106 C103 1.301 . S
O107 U86 2.449 . S
O107 C103 1.282 . S
H108 C81 0.931 . S
H109 C83 0.929 . S
H110 C84 0.930 . S
H111 C85 0.931 . S
H112 C92 0.932 . S
H113 C93 0.930 . S
H114 C94 0.929 . S
H115 C96 0.930 . S
H116 C98 0.932 . S
H117 C99 0.929 . S
H118 C100 0.928 . S
H119 C102 0.932 . S
C120 C121 1.264 . S
C120 C125 1.479 . S
C120 C130 1.465 . S
C121 C120 1.264 . S
C121 C123 1.339 . S
C121 H148 0.931 . S
C122 C123 1.395 . S
C122 C124 1.320 . S
C123 C121 1.339 . S
C123 C122 1.395 . S
C123 H149 0.929 . S
C124 C122 1.320 . S
C124 C125 1.405 . S
C124 H150 0.930 . S
C125 C120 1.479 . S
C125 C124 1.405 . S
C125 H151 0.931 . S
U126 O127 2.454 . S
U126 O128 2.458 . S
U126 C129 2.984 . S
U126 C130 2.847 . S
U126 C143 2.882 . S
U126 O144 2.441 . S
U126 O145 2.420 . S
U126 O146 2.455 . S
U126 O147 2.449 . S
O127 U126 2.454 . S
O127 C129 1.353 . S
O128 U126 2.458 . S
O128 C129 1.286 . S
C129 U126 2.984 . S
C129 O127 1.353 . S
C129 O128 1.286 . S
C129 C131 1.363 . S
C130 C120 1.465 . S
C130 U126 2.847 . S
C130 O144 1.249 . S
C130 O145 1.202 . S
C131 C129 1.363 . S
C131 C133 1.408 . S
C131 C136 1.342 . S
C132 C133 1.310 . S
C132 C135 1.461 . S
C132 H152 0.932 . S
C133 C131 1.408 . S
C133 C132 1.310 . S
C133 H153 0.930 . S
C134 C135 1.474 . S
C134 C136 1.285 . S
C134 H154 0.929 . S
C135 C132 1.461 . S
C135 C134 1.474 . S
C136 C131 1.342 . S
C136 C134 1.285 . S
C136 H155 0.930 . S
C137 C140 1.424 . S
C137 C142 1.245 . S
C137 C143 1.428 . S
C138 C141 1.262 . S
C138 C142 1.490 . S
C138 H156 0.916 1_565 S
C139 C140 1.384 . S
C139 C141 1.479 . S
C139 H157 0.929 . S
C140 C137 1.424 . S
C140 C139 1.384 . S
C140 H158 0.928 . S
C141 C138 1.262 . S
C141 C139 1.479 . S
C142 C137 1.245 . S
C142 C138 1.490 . S
C142 H159 0.932 . S
C143 U126 2.882 . S
C143 C137 1.428 . S
C143 O146 1.301 . S
C143 O147 1.282 . S
O144 U126 2.441 . S
O144 C130 1.249 . S
O145 U126 2.420 . S
O145 C130 1.202 . S
O146 U126 2.455 . S
O146 C143 1.301 . S
O147 U126 2.449 . S
O147 C143 1.282 . S
H148 C121 0.931 . S
H149 C123 0.929 . S
H150 C124 0.930 . S
H151 C125 0.931 . S
H152 C132 0.932 . S
H153 C133 0.930 . S
H154 C134 0.929 . S
H155 C136 0.930 . S
H156 C138 0.916 1_545 S
H157 C139 0.929 . S
H158 C140 0.928 . S
H159 C142 0.932 . S
C160 C161 1.264 . S
C160 C165 1.479 . S
C160 C170 1.465 . S
C161 C160 1.264 . S
C161 C163 1.339 . S
C161 H188 0.931 . S
C162 C163 1.395 . S
C162 C164 1.320 . S
C163 C161 1.339 . S
C163 C162 1.395 . S
C163 H189 0.929 . S
C164 C162 1.320 . S
C164 C165 1.405 . S
C164 H190 0.930 . S
C165 C160 1.479 . S
C165 C164 1.405 . S
C165 H191 0.931 . S
U166 O167 2.454 . S
U166 O168 2.458 . S
U166 C169 2.984 . S
U166 C170 2.847 . S
U166 C183 2.882 . S
U166 O184 2.441 . S
U166 O185 2.420 . S
U166 O186 2.455 . S
U166 O187 2.449 . S
O167 U166 2.454 . S
O167 C169 1.353 . S
O168 U166 2.458 . S
O168 C169 1.286 . S
C169 U166 2.984 . S
C169 O167 1.353 . S
C169 O168 1.286 . S
C169 C171 1.363 . S
C170 C160 1.465 . S
C170 U166 2.847 . S
C170 O184 1.249 . S
C170 O185 1.202 . S
C171 C169 1.363 . S
C171 C173 1.408 . S
C171 C176 1.342 . S
C172 C173 1.310 . S
C172 C175 1.461 . S
C172 H192 0.932 . S
C173 C171 1.408 . S
C173 C172 1.310 . S
C173 H193 0.930 . S
C174 C175 1.474 . S
C174 C176 1.285 . S
C174 H194 0.929 . S
C175 C172 1.461 . S
C175 C174 1.474 . S
C176 C171 1.342 . S
C176 C174 1.285 . S
C176 H195 0.930 . S
C177 C180 1.424 . S
C177 C182 1.245 . S
C177 C183 1.428 . S
C178 C181 1.260 . S
C178 C182 1.477 . S
C178 H196 0.932 . S
C179 C180 1.384 . S
C179 C181 1.479 . S
C179 H197 0.929 . S
C180 C177 1.424 . S
C180 C179 1.384 . S
C180 H198 0.928 . S
C181 C178 1.260 . S
C181 C179 1.479 . S
C182 C177 1.245 . S
C182 C178 1.477 . S
C182 H199 0.932 . S
C183 U166 2.882 . S
C183 C177 1.428 . S
C183 O186 1.301 . S
C183 O187 1.282 . S
O184 U166 2.441 . S
O184 C170 1.249 . S
O185 U166 2.420 . S
O185 C170 1.202 . S
O186 U166 2.455 . S
O186 C183 1.301 . S
O187 U166 2.449 . S
O187 C183 1.282 . S
H188 C161 0.931 . S
H189 C163 0.929 . S
H190 C164 0.930 . S
H191 C165 0.931 . S
H192 C172 0.932 . S
H193 C173 0.930 . S
H194 C174 0.929 . S
H195 C176 0.930 . S
H196 C178 0.932 . S
H197 C179 0.929 . S
H198 C180 0.928 . S
H199 C182 0.932 . S
C200 C201 1.264 . S
C200 C205 1.479 . S
C200 C210 1.465 . S
C201 C200 1.264 . S
C201 C203 1.339 . S
C201 H228 0.931 . S
C202 C203 1.395 . S
C202 C204 1.320 . S
C203 C201 1.339 . S
C203 C202 1.395 . S
C203 H229 0.929 . S
C204 C202 1.320 . S
C204 C205 1.405 . S
C204 H230 0.930 . S
C205 C200 1.479 . S
C205 C204 1.405 . S
C205 H231 0.931 . S
U206 O207 2.454 . S
U206 O208 2.458 . S
U206 C209 2.984 . S
U206 C210 2.847 . S
U206 C223 2.882 . S
U206 O224 2.441 . S
U206 O225 2.420 . S
U206 O226 2.455 . S
U206 O227 2.449 . S
O207 U206 2.454 . S
O207 C209 1.353 . S
O208 U206 2.458 . S
O208 C209 1.286 . S
C209 U206 2.984 . S
C209 O207 1.353 . S
C209 O208 1.286 . S
C209 C211 1.363 . S
C210 C200 1.465 . S
C210 U206 2.847 . S
C210 O224 1.249 . S
C210 O225 1.202 . S
C211 C209 1.363 . S
C211 C213 1.408 . S
C211 C216 1.342 . S
C212 C213 1.310 . S
C212 C215 1.461 . S
C212 H232 0.932 . S
C213 C211 1.408 . S
C213 C212 1.310 . S
C213 H233 0.930 . S
C214 C215 1.474 . S
C214 C216 1.285 . S
C214 H234 0.929 . S
C215 C212 1.461 . S
C215 C214 1.474 . S
C216 C211 1.342 . S
C216 C214 1.285 . S
C216 H235 0.930 . S
C217 C220 1.424 . S
C217 C222 1.245 . S
C217 C223 1.428 . S
C218 C221 1.262 . S
C218 C222 1.490 . S
C218 H236 0.916 1_556 S
C219 C220 1.384 . S
C219 C221 1.479 . S
C219 H237 0.929 . S
C220 C217 1.424 . S
C220 C219 1.384 . S
C220 H238 0.928 . S
C221 C218 1.262 . S
C221 C219 1.479 . S
C222 C217 1.245 . S
C222 C218 1.490 . S
C222 H239 0.932 . S
C223 U206 2.882 . S
C223 C217 1.428 . S
C223 O226 1.301 . S
C223 O227 1.282 . S
O224 U206 2.441 . S
O224 C210 1.249 . S
O225 U206 2.420 . S
O225 C210 1.202 . S
O226 U206 2.455 . S
O226 C223 1.301 . S
O227 U206 2.449 . S
O227 C223 1.282 . S
H228 C201 0.931 . S
H229 C203 0.929 . S
H230 C204 0.930 . S
H231 C205 0.931 . S
H232 C212 0.932 . S
H233 C213 0.930 . S
H234 C214 0.929 . S
H235 C216 0.930 . S
H236 C218 0.916 1_554 S
H237 C219 0.929 . S
H238 C220 0.928 . S
H239 C222 0.932 . S
C240 C241 1.264 . S
C240 C245 1.479 . S
C240 C250 1.465 . S
C241 C240 1.264 . S
C241 C243 1.339 . S
C241 H268 0.931 . S
C242 C243 1.395 . S
C242 C244 1.320 . S
C243 C241 1.339 . S
C243 C242 1.395 . S
C243 H269 0.929 . S
C244 C242 1.320 . S
C244 C245 1.405 . S
C244 H270 0.930 . S
C245 C240 1.479 . S
C245 C244 1.405 . S
C245 H271 0.931 . S
U246 O247 2.454 . S
U246 O248 2.458 . S
U246 C249 2.984 . S
U246 C250 2.847 . S
U246 C263 2.882 . S
U246 O264 2.441 . S
U246 O265 2.420 . S
U246 O266 2.455 . S
U246 O267 2.449 . S
O247 U246 2.454 . S
O247 C249 1.353 . S
O248 U246 2.458 . S
O248 C249 1.286 . S
C249 U246 2.984 . S
C249 O247 1.353 . S
C249 O248 1.286 . S
C249 C251 1.363 . S
C250 C240 1.465 . S
C250 U246 2.847 . S
C250 O264 1.249 . S
C250 O265 1.202 . S
C251 C249 1.363 . S
C251 C253 1.408 . S
C251 C256 1.342 . S
C252 C253 1.310 . S
C252 C255 1.461 . S
C252 H272 0.932 . S
C253 C251 1.408 . S
C253 C252 1.310 . S
C253 H273 0.930 . S
C254 C255 1.474 . S
C254 C256 1.285 . S
C254 H274 0.929 . S
C255 C252 1.461 . S
C255 C254 1.474 . S
C256 C251 1.342 . S
C256 C254 1.285 . S
C256 H275 0.930 . S
C257 C260 1.424 . S
C257 C262 1.245 . S
C257 C263 1.428 . S
C258 C261 1.260 . S
C258 C262 1.477 . S
C258 H276 0.932 . S
C259 C260 1.384 . S
C259 C261 1.479 . S
C259 H277 0.929 . S
C260 C257 1.424 . S
C260 C259 1.384 . S
C260 H278 0.928 . S
C261 C258 1.260 . S
C261 C259 1.479 . S
C262 C257 1.245 . S
C262 C258 1.477 . S
C262 H279 0.932 . S
C263 U246 2.882 . S
C263 C257 1.428 . S
C263 O266 1.301 . S
C263 O267 1.282 . S
O264 U246 2.441 . S
O264 C250 1.249 . S
O265 U246 2.420 . S
O265 C250 1.202 . S
O266 U246 2.455 . S
O266 C263 1.301 . S
O267 U246 2.449 . S
O267 C263 1.282 . S
H268 C241 0.931 . S
H269 C243 0.929 . S
H270 C244 0.930 . S
H271 C245 0.931 . S
H272 C252 0.932 . S
H273 C253 0.930 . S
H274 C254 0.929 . S
H275 C256 0.930 . S
H276 C258 0.932 . S
H277 C259 0.929 . S
H278 C260 0.928 . S
H279 C262 0.932 . S
C280 C281 1.264 . S
C280 C285 1.479 1_556 S
C280 C290 1.465 . S
C281 C280 1.264 . S
C281 C283 1.339 . S
C281 H308 0.931 . S
C282 C283 1.357 1_554 S
C282 C284 1.348 . S
C283 C281 1.339 . S
C283 C282 1.357 1_556 S
C283 H309 0.929 . S
C284 C282 1.348 . S
C284 C285 1.405 . S
C284 H310 0.930 . S
C285 C280 1.479 1_554 S
C285 C284 1.405 . S
C285 H311 0.931 . S
U286 O287 2.454 1_556 S
U286 O288 2.458 1_556 S
U286 C289 2.984 1_556 S
U286 C290 2.847 . S
U286 C303 2.882 . S
U286 O304 2.446 . S
U286 O305 2.420 . S
U286 O306 2.455 . S
U286 O307 2.449 . S
O287 U286 2.454 1_554 S
O287 C289 1.353 . S
O288 U286 2.458 1_554 S
O288 C289 1.286 . S
C289 U286 2.984 1_554 S
C289 O287 1.353 . S
C289 O288 1.286 . S
C289 C291 1.363 . S
C290 C280 1.465 . S
C290 U286 2.847 . S
C290 O304 1.258 . S
C290 O305 1.202 . S
C291 C289 1.363 . S
C291 C293 1.408 . S
C291 C296 1.342 . S
C292 C293 1.310 . S
C292 C295 1.461 . S
C292 H312 0.932 . S
C293 C291 1.408 . S
C293 C292 1.310 . S
C293 H313 0.930 . S
C294 C295 1.474 . S
C294 C296 1.285 . S
C294 H314 0.929 . S
C295 C292 1.461 . S
C295 C294 1.474 . S
C296 C291 1.342 . S
C296 C294 1.285 . S
C296 H315 0.930 . S
C297 C300 1.424 . S
C297 C302 1.245 . S
C297 C303 1.428 . S
C298 C301 1.260 . S
C298 C302 1.477 . S
C298 H316 0.932 . S
C299 C300 1.384 . S
C299 C301 1.479 . S
C299 H317 0.929 . S
C300 C297 1.424 . S
C300 C299 1.384 . S
C300 H318 0.928 . S
C301 C298 1.260 . S
C301 C299 1.479 . S
C302 C297 1.245 . S
C302 C298 1.477 . S
C302 H319 0.932 . S
C303 U286 2.882 . S
C303 C297 1.428 . S
C303 O306 1.301 . S
C303 O307 1.282 . S
O304 U286 2.446 . S
O304 C290 1.258 . S
O305 U286 2.420 . S
O305 C290 1.202 . S
O306 U286 2.455 . S
O306 C303 1.301 . S
O307 U286 2.449 . S
O307 C303 1.282 . S
H308 C281 0.931 . S
H309 C283 0.929 . S
H310 C284 0.930 . S
H311 C285 0.931 . S
H312 C292 0.932 . S
H313 C293 0.930 . S
H314 C294 0.929 . S
H315 C296 0.930 . S
H316 C298 0.932 . S
H317 C299 0.929 . S
H318 C300 0.928 . S
H319 C302 0.932 . S
C320 C321 1.264 . S
C320 C325 1.479 . S
C320 C330 1.465 . S
C321 C320 1.264 . S
C321 C323 1.339 . S
C321 H348 0.931 . S
C322 C323 1.395 . S
C322 C324 1.320 . S
C323 C321 1.339 . S
C323 C322 1.395 . S
C323 H349 0.929 . S
C324 C322 1.320 . S
C324 C325 1.405 . S
C324 H350 0.930 . S
C325 C320 1.479 . S
C325 C324 1.405 . S
C325 H351 0.931 . S
U326 O327 2.454 . S
U326 O328 2.458 . S
U326 C329 2.984 . S
U326 C330 2.847 . S
U326 C343 2.882 . S
U326 O344 2.441 . S
U326 O345 2.420 . S
U326 O346 2.455 . S
U326 O347 2.449 . S
O327 U326 2.454 . S
O327 C329 1.353 . S
O328 U326 2.458 . S
O328 C329 1.286 . S
C329 U326 2.984 . S
C329 O327 1.353 . S
C329 O328 1.286 . S
C329 C331 1.363 . S
C330 C320 1.465 . S
C330 U326 2.847 . S
C330 O344 1.249 . S
C330 O345 1.202 . S
C331 C329 1.363 . S
C331 C333 1.408 . S
C331 C336 1.342 . S
C332 C333 1.310 . S
C332 C335 1.461 . S
C332 H352 0.932 . S
C333 C331 1.408 . S
C333 C332 1.310 . S
C333 H353 0.930 . S
C334 C335 1.474 . S
C334 C336 1.285 . S
C334 H354 0.929 . S
C335 C332 1.461 . S
C335 C334 1.474 . S
C336 C331 1.342 . S
C336 C334 1.285 . S
C336 H355 0.930 . S
C337 C340 1.424 . S
C337 C342 1.245 . S
C337 C343 1.428 . S
C338 C341 1.260 . S
C338 C342 1.477 . S
C338 H356 0.932 . S
C339 C340 1.384 . S
C339 C341 1.479 . S
C339 H357 0.929 . S
C340 C337 1.424 . S
C340 C339 1.384 . S
C340 H358 0.928 . S
C341 C338 1.260 . S
C341 C339 1.479 . S
C342 C337 1.245 . S
C342 C338 1.477 . S
C342 H359 0.932 . S
C343 U326 2.882 . S
C343 C337 1.428 . S
C343 O346 1.301 . S
C343 O347 1.282 . S
O344 U326 2.441 . S
O344 C330 1.249 . S
O345 U326 2.420 . S
O345 C330 1.202 . S
O346 U326 2.455 . S
O346 C343 1.301 . S
O347 U326 2.449 . S
O347 C343 1.282 . S
H348 C321 0.931 . S
H349 C323 0.929 . S
H350 C324 0.930 . S
H351 C325 0.931 . S
H352 C332 0.932 . S
H353 C333 0.930 . S
H354 C334 0.929 . S
H355 C336 0.930 . S
H356 C338 0.932 . S
H357 C339 0.929 . S
H358 C340 0.928 . S
H359 C342 0.932 . S
C360 C361 1.264 . S
C360 C365 1.479 . S
C360 C370 1.465 . S
C361 C360 1.264 . S
C361 C363 1.339 . S
C361 H388 0.931 . S
C362 C363 1.395 . S
C362 C364 1.320 . S
C363 C361 1.339 . S
C363 C362 1.395 . S
C363 H389 0.929 . S
C364 C362 1.320 . S
C364 C365 1.405 . S
C364 H390 0.930 . S
C365 C360 1.479 . S
C365 C364 1.405 . S
C365 H391 0.931 . S
U366 O367 2.454 . S
U366 O368 2.458 . S
U366 C369 2.984 . S
U366 C370 2.847 . S
U366 C383 2.882 . S
U366 O384 2.441 . S
U366 O385 2.420 . S
U366 O386 2.455 . S
U366 O387 2.449 . S
O367 U366 2.454 . S
O367 C369 1.353 . S
O368 U366 2.458 . S
O368 C369 1.286 . S
C369 U366 2.984 . S
C369 O367 1.353 . S
C369 O368 1.286 . S
C369 C371 1.363 . S
C370 C360 1.465 . S
C370 U366 2.847 . S
C370 O384 1.249 . S
C370 O385 1.202 . S
C371 C369 1.363 . S
C371 C373 1.408 . S
C371 C376 1.342 . S
C372 C373 1.310 . S
C372 C375 1.461 . S
C372 H392 0.932 . S
C373 C371 1.408 . S
C373 C372 1.310 . S
C373 H393 0.930 . S
C374 C375 1.474 . S
C374 C376 1.285 . S
C374 H394 0.929 . S
C375 C372 1.461 . S
C375 C374 1.474 . S
C376 C371 1.342 . S
C376 C374 1.285 . S
C376 H395 0.930 . S
C377 C380 1.424 . S
C377 C382 1.245 . S
C377 C383 1.428 . S
C378 C381 1.262 . S
C378 C382 1.490 . S
C378 H396 0.916 1_655 S
C379 C380 1.384 . S
C379 C381 1.479 . S
C379 H397 0.929 . S
C380 C377 1.424 . S
C380 C379 1.384 . S
C380 H398 0.928 . S
C381 C378 1.262 . S
C381 C379 1.479 . S
C382 C377 1.245 . S
C382 C378 1.490 . S
C382 H399 0.932 . S
C383 U366 2.882 . S
C383 C377 1.428 . S
C383 O386 1.301 . S
C383 O387 1.282 . S
O384 U366 2.441 . S
O384 C370 1.249 . S
O385 U366 2.420 . S
O385 C370 1.202 . S
O386 U366 2.455 . S
O386 C383 1.301 . S
O387 U366 2.449 . S
O387 C383 1.282 . S
H388 C361 0.931 . S
H389 C363 0.929 . S
H390 C364 0.930 . S
H391 C365 0.931 . S
H392 C372 0.932 . S
H393 C373 0.930 . S
H394 C374 0.929 . S
H395 C376 0.930 . S
H396 C378 0.916 1_455 S
H397 C379 0.929 . S
H398 C380 0.928 . S
H399 C382 0.932 . S
C400 C401 1.264 . S
C400 C405 1.479 . S
C400 C410 1.465 . S
C401 C400 1.264 . S
C401 C403 1.339 . S
C401 H428 0.931 . S
C402 C403 1.395 . S
C402 C404 1.320 . S
C403 C401 1.339 . S
C403 C402 1.395 . S
C403 H429 0.929 . S
C404 C402 1.320 . S
C404 C405 1.405 . S
C404 H430 0.930 . S
C405 C400 1.479 . S
C405 C404 1.405 . S
C405 H431 0.931 . S
U406 O407 2.454 . S
U406 O408 2.458 . S
U406 C409 2.984 . S
U406 C410 2.847 . S
U406 C423 2.882 . S
U406 O424 2.441 . S
U406 O425 2.420 . S
U406 O426 2.455 . S
U406 O427 2.449 . S
O407 U406 2.454 . S
O407 C409 1.353 . S
O408 U406 2.458 . S
O408 C409 1.286 . S
C409 U406 2.984 . S
C409 O407 1.353 . S
C409 O408 1.286 . S
C409 C411 1.363 . S
C410 C400 1.465 . S
C410 U406 2.847 . S
C410 O424 1.249 . S
C410 O425 1.202 . S
C411 C409 1.363 . S
C411 C413 1.408 . S
C411 C416 1.342 . S
C412 C413 1.310 . S
C412 C415 1.461 . S
C412 H432 0.932 . S
C413 C411 1.408 . S
C413 C412 1.310 . S
C413 H433 0.930 . S
C414 C415 1.474 . S
C414 C416 1.285 . S
C414 H434 0.929 . S
C415 C412 1.461 . S
C415 C414 1.474 . S
C416 C411 1.342 . S
C416 C414 1.285 . S
C416 H435 0.930 . S
C417 C420 1.424 . S
C417 C422 1.245 . S
C417 C423 1.428 . S
C418 C421 1.260 . S
C418 C422 1.477 . S
C418 H436 0.932 . S
C419 C420 1.384 . S
C419 C421 1.479 . S
C419 H437 0.929 . S
C420 C417 1.424 . S
C420 C419 1.384 . S
C420 H438 0.928 . S
C421 C418 1.260 . S
C421 C419 1.479 . S
C422 C417 1.245 . S
C422 C418 1.477 . S
C422 H439 0.932 . S
C423 U406 2.882 . S
C423 C417 1.428 . S
C423 O426 1.301 . S
C423 O427 1.282 . S
O424 U406 2.441 . S
O424 C410 1.249 . S
O425 U406 2.420 . S
O425 C410 1.202 . S
O426 U406 2.455 . S
O426 C423 1.301 . S
O427 U406 2.449 . S
O427 C423 1.282 . S
H428 C401 0.931 . S
H429 C403 0.929 . S
H430 C404 0.930 . S
H431 C405 0.931 . S
H432 C412 0.932 . S
H433 C413 0.930 . S
H434 C414 0.929 . S
H435 C416 0.930 . S
H436 C418 0.932 . S
H437 C419 0.929 . S
H438 C420 0.928 . S
H439 C422 0.932 . S
C440 C441 1.264 . S
C440 C445 1.479 1_655 S
C440 C450 1.465 . S
C441 C440 1.264 . S
C441 C443 1.339 . S
C441 H468 0.931 . S
C442 C443 1.357 1_455 S
C442 C444 1.348 . S
C443 C441 1.339 . S
C443 C442 1.357 1_655 S
C443 H469 0.929 . S
C444 C442 1.348 . S
C444 C445 1.405 . S
C444 H470 0.930 . S
C445 C440 1.479 1_455 S
C445 C444 1.405 . S
C445 H471 0.931 . S
U446 O447 2.454 1_655 S
U446 O448 2.458 1_655 S
U446 C449 2.984 1_655 S
U446 C450 2.847 . S
U446 C463 2.882 . S
U446 O464 2.446 . S
U446 O465 2.420 . S
U446 O466 2.455 . S
U446 O467 2.449 . S
O447 U446 2.454 1_455 S
O447 C449 1.353 . S
O448 U446 2.458 1_455 S
O448 C449 1.286 . S
C449 U446 2.984 1_455 S
C449 O447 1.353 . S
C449 O448 1.286 . S
C449 C451 1.363 . S
C450 C440 1.465 . S
C450 U446 2.847 . S
C450 O464 1.258 . S
C450 O465 1.202 . S
C451 C449 1.363 . S
C451 C453 1.408 . S
C451 C456 1.342 . S
C452 C453 1.310 . S
C452 C455 1.461 . S
C452 H472 0.932 . S
C453 C451 1.408 . S
C453 C452 1.310 . S
C453 H473 0.930 . S
C454 C455 1.474 . S
C454 C456 1.285 . S
C454 H474 0.929 . S
C455 C452 1.461 . S
C455 C454 1.474 . S
C456 C451 1.342 . S
C456 C454 1.285 . S
C456 H475 0.930 . S
C457 C460 1.424 . S
C457 C462 1.245 . S
C457 C463 1.428 . S
C458 C461 1.260 . S
C458 C462 1.477 . S
C458 H476 0.932 . S
C459 C460 1.384 . S
C459 C461 1.479 . S
C459 H477 0.929 . S
C460 C457 1.424 . S
C460 C459 1.384 . S
C460 H478 0.928 . S
C461 C458 1.260 . S
C461 C459 1.479 . S
C462 C457 1.245 . S
C462 C458 1.477 . S
C462 H479 0.932 . S
C463 U446 2.882 . S
C463 C457 1.428 . S
C463 O466 1.301 . S
C463 O467 1.282 . S
O464 U446 2.446 . S
O464 C450 1.258 . S
O465 U446 2.420 . S
O465 C450 1.202 . S
O466 U446 2.455 . S
O466 C463 1.301 . S
O467 U446 2.449 . S
O467 C463 1.282 . S
H468 C441 0.931 . S
H469 C443 0.929 . S
H470 C444 0.930 . S
H471 C445 0.931 . S
H472 C452 0.932 . S
H473 C453 0.930 . S
H474 C454 0.929 . S
H475 C456 0.930 . S
H476 C458 0.932 . S
H477 C459 0.929 . S
H478 C460 0.928 . S
H479 C462 0.932 . S
C480 C481 1.264 . S
C480 C485 1.479 . S
C480 C490 1.465 . S
C481 C480 1.264 . S
C481 C483 1.339 . S
C481 H508 0.931 . S
C482 C483 1.395 . S
C482 C484 1.320 . S
C483 C481 1.339 . S
C483 C482 1.395 . S
C483 H509 0.929 . S
C484 C482 1.320 . S
C484 C485 1.405 . S
C484 H510 0.930 . S
C485 C480 1.479 . S
C485 C484 1.405 . S
C485 H511 0.931 . S
U486 O487 2.454 . S
U486 O488 2.458 . S
U486 C489 2.984 . S
U486 C490 2.847 . S
U486 C503 2.882 . S
U486 O504 2.441 . S
U486 O505 2.420 . S
U486 O506 2.455 . S
U486 O507 2.449 . S
O487 U486 2.454 . S
O487 C489 1.353 . S
O488 U486 2.458 . S
O488 C489 1.286 . S
C489 U486 2.984 . S
C489 O487 1.353 . S
C489 O488 1.286 . S
C489 C491 1.363 . S
C490 C480 1.465 . S
C490 U486 2.847 . S
C490 O504 1.249 . S
C490 O505 1.202 . S
C491 C489 1.363 . S
C491 C493 1.408 . S
C491 C496 1.342 . S
C492 C493 1.310 . S
C492 C495 1.461 . S
C492 H512 0.932 . S
C493 C491 1.408 . S
C493 C492 1.310 . S
C493 H513 0.930 . S
C494 C495 1.474 . S
C494 C496 1.285 . S
C494 H514 0.929 . S
C495 C492 1.461 . S
C495 C494 1.474 . S
C496 C491 1.342 . S
C496 C494 1.285 . S
C496 H515 0.930 . S
C497 C500 1.424 . S
C497 C502 1.245 . S
C497 C503 1.428 . S
C498 C501 1.260 . S
C498 C502 1.477 . S
C498 H516 0.932 . S
C499 C500 1.384 . S
C499 C501 1.479 . S
C499 H517 0.929 . S
C500 C497 1.424 . S
C500 C499 1.384 . S
C500 H518 0.928 . S
C501 C498 1.260 . S
C501 C499 1.479 . S
C502 C497 1.245 . S
C502 C498 1.477 . S
C502 H519 0.932 . S
C503 U486 2.882 . S
C503 C497 1.428 . S
C503 O506 1.301 . S
C503 O507 1.282 . S
O504 U486 2.441 . S
O504 C490 1.249 . S
O505 U486 2.420 . S
O505 C490 1.202 . S
O506 U486 2.455 . S
O506 C503 1.301 . S
O507 U486 2.449 . S
O507 C503 1.282 . S
H508 C481 0.931 . S
H509 C483 0.929 . S
H510 C484 0.930 . S
H511 C485 0.931 . S
H512 C492 0.932 . S
H513 C493 0.930 . S
H514 C494 0.929 . S
H515 C496 0.930 . S
H516 C498 0.932 . S
H517 C499 0.929 . S
H518 C500 0.928 . S
H519 C502 0.932 . S
C520 C521 1.264 . S
C520 C525 1.479 . S
C520 C530 1.465 . S
C521 C520 1.264 . S
C521 C523 1.339 . S
C521 H548 0.931 . S
C522 C523 1.395 . S
C522 C524 1.320 . S
C523 C521 1.339 . S
C523 C522 1.395 . S
C523 H549 0.929 . S
C524 C522 1.320 . S
C524 C525 1.405 . S
C524 H550 0.930 . S
C525 C520 1.479 . S
C525 C524 1.405 . S
C525 H551 0.931 . S
U526 O527 2.454 . S
U526 O528 2.458 . S
U526 C529 2.984 . S
U526 C530 2.847 . S
U526 C543 2.882 . S
U526 O544 2.441 . S
U526 O545 2.420 . S
U526 O546 2.455 . S
U526 O547 2.449 . S
O527 U526 2.454 . S
O527 C529 1.353 . S
O528 U526 2.458 . S
O528 C529 1.286 . S
C529 U526 2.984 . S
C529 O527 1.353 . S
C529 O528 1.286 . S
C529 C531 1.363 . S
C530 C520 1.465 . S
C530 U526 2.847 . S
C530 O544 1.249 . S
C530 O545 1.202 . S
C531 C529 1.363 . S
C531 C533 1.408 . S
C531 C536 1.342 . S
C532 C533 1.310 . S
C532 C535 1.461 . S
C532 H552 0.932 . S
C533 C531 1.408 . S
C533 C532 1.310 . S
C533 H553 0.930 . S
C534 C535 1.474 . S
C534 C536 1.285 . S
C534 H554 0.929 . S
C535 C532 1.461 . S
C535 C534 1.474 . S
C536 C531 1.342 . S
C536 C534 1.285 . S
C536 H555 0.930 . S
C537 C540 1.424 . S
C537 C542 1.245 . S
C537 C543 1.428 . S
C538 C541 1.260 . S
C538 C542 1.477 . S
C538 H556 0.932 . S
C539 C540 1.384 . S
C539 C541 1.479 . S
C539 H557 0.929 . S
C540 C537 1.424 . S
C540 C539 1.384 . S
C540 H558 0.928 . S
C541 C538 1.260 . S
C541 C539 1.479 . S
C542 C537 1.245 . S
C542 C538 1.477 . S
C542 H559 0.932 . S
C543 U526 2.882 . S
C543 C537 1.428 . S
C543 O546 1.301 . S
C543 O547 1.282 . S
O544 U526 2.441 . S
O544 C530 1.249 . S
O545 U526 2.420 . S
O545 C530 1.202 . S
O546 U526 2.455 . S
O546 C543 1.301 . S
O547 U526 2.449 . S
O547 C543 1.282 . S
H548 C521 0.931 . S
H549 C523 0.929 . S
H550 C524 0.930 . S
H551 C525 0.931 . S
H552 C532 0.932 . S
H553 C533 0.930 . S
H554 C534 0.929 . S
H555 C536 0.930 . S
H556 C538 0.932 . S
H557 C539 0.929 . S
H558 C540 0.928 . S
H559 C542 0.932 . S
C560 C561 1.264 . S
C560 C565 1.479 . S
C560 C570 1.465 . S
C561 C560 1.264 . S
C561 C563 1.339 . S
C561 H588 0.931 . S
C562 C563 1.395 . S
C562 C564 1.320 . S
C563 C561 1.339 . S
C563 C562 1.395 . S
C563 H589 0.929 1_565 S
C564 C562 1.320 . S
C564 C565 1.405 . S
C564 H590 0.930 . S
C565 C560 1.479 . S
C565 C564 1.405 . S
C565 H591 0.931 . S
U566 O567 2.454 . S
U566 O568 2.458 . S
U566 C569 2.984 . S
U566 C570 2.847 . S
U566 C583 2.882 1_565 S
U566 O584 2.441 . S
U566 O585 2.420 . S
U566 O586 2.455 . S
U566 O587 2.470 . S
O567 U566 2.454 . S
O567 C569 1.353 . S
O568 U566 2.458 . S
O568 C569 1.286 . S
C569 U566 2.984 . S
C569 O567 1.353 . S
C569 O568 1.286 . S
C569 C571 1.363 . S
C570 C560 1.465 . S
C570 U566 2.847 . S
C570 O584 1.249 . S
C570 O585 1.202 . S
C571 C569 1.363 . S
C571 C573 1.408 . S
C571 C576 1.342 . S
C572 C573 1.310 . S
C572 C575 1.461 . S
C572 H592 0.932 . S
C573 C571 1.408 . S
C573 C572 1.310 . S
C573 H593 0.930 . S
C574 C575 1.474 . S
C574 C576 1.285 . S
C574 H594 0.929 . S
C575 C572 1.461 . S
C575 C574 1.474 . S
C576 C571 1.342 . S
C576 C574 1.285 . S
C576 H595 0.930 . S
C577 C580 1.424 . S
C577 C582 1.245 . S
C577 C583 1.428 . S
C578 C581 1.260 . S
C578 C582 1.477 . S
C578 H596 0.932 . S
C579 C580 1.384 . S
C579 C581 1.479 . S
C579 H597 0.929 . S
C580 C577 1.424 . S
C580 C579 1.384 . S
C580 H598 0.928 . S
C581 C578 1.260 . S
C581 C579 1.479 . S
C582 C577 1.245 . S
C582 C578 1.477 . S
C582 H599 0.932 . S
C583 U566 2.882 1_545 S
C583 C577 1.428 . S
C583 O586 1.301 1_545 S
C583 O587 1.271 1_545 S
O584 U566 2.441 . S
O584 C570 1.249 . S
O585 U566 2.420 . S
O585 C570 1.202 . S
O586 U566 2.455 . S
O586 C583 1.301 1_565 S
O587 U566 2.470 . S
O587 C583 1.271 1_565 S
H588 C561 0.931 . S
H589 C563 0.929 1_545 S
H590 C564 0.930 . S
H591 C565 0.931 . S
H592 C572 0.932 . S
H593 C573 0.930 . S
H594 C574 0.929 . S
H595 C576 0.930 . S
H596 C578 0.932 . S
H597 C579 0.929 . S
H598 C580 0.928 . S
H599 C582 0.932 . S
C600 C601 1.264 . S
C600 C605 1.479 . S
C600 C610 1.465 . S
C601 C600 1.264 . S
C601 C603 1.339 . S
C601 H628 0.931 . S
C602 C603 1.395 . S
C602 C604 1.320 . S
C603 C601 1.339 . S
C603 C602 1.395 . S
C603 H629 0.929 . S
C604 C602 1.320 . S
C604 C605 1.405 . S
C604 H630 0.930 . S
C605 C600 1.479 . S
C605 C604 1.405 . S
C605 H631 0.931 . S
U606 O607 2.454 . S
U606 O608 2.458 . S
U606 C609 2.984 . S
U606 C610 2.847 . S
U606 C623 2.882 . S
U606 O624 2.441 . S
U606 O625 2.420 . S
U606 O626 2.455 . S
U606 O627 2.449 . S
O607 U606 2.454 . S
O607 C609 1.353 . S
O608 U606 2.458 . S
O608 C609 1.286 . S
C609 U606 2.984 . S
C609 O607 1.353 . S
C609 O608 1.286 . S
C609 C611 1.363 . S
C610 C600 1.465 . S
C610 U606 2.847 . S
C610 O624 1.249 . S
C610 O625 1.202 . S
C611 C609 1.363 . S
C611 C613 1.408 . S
C611 C616 1.342 . S
C612 C613 1.310 . S
C612 C615 1.461 . S
C612 H632 0.932 . S
C613 C611 1.408 . S
C613 C612 1.310 . S
C613 H633 0.930 . S
C614 C615 1.474 . S
C614 C616 1.285 . S
C614 H634 0.929 . S
C615 C612 1.461 . S
C615 C614 1.474 . S
C616 C611 1.342 . S
C616 C614 1.285 . S
C616 H635 0.930 . S
C617 C620 1.424 . S
C617 C622 1.245 . S
C617 C623 1.428 . S
C618 C621 1.260 . S
C618 C622 1.477 . S
C618 H636 0.932 . S
C619 C620 1.384 . S
C619 C621 1.479 . S
C619 H637 0.929 . S
C620 C617 1.424 . S
C620 C619 1.384 . S
C620 H638 0.928 . S
C621 C618 1.260 . S
C621 C619 1.479 . S
C622 C617 1.245 . S
C622 C618 1.477 . S
C622 H639 0.932 . S
C623 U606 2.882 . S
C623 C617 1.428 . S
C623 O626 1.301 . S
C623 O627 1.282 . S
O624 U606 2.441 . S
O624 C610 1.249 . S
O625 U606 2.420 . S
O625 C610 1.202 . S
O626 U606 2.455 . S
O626 C623 1.301 . S
O627 U606 2.449 . S
O627 C623 1.282 . S
H628 C601 0.931 . S
H629 C603 0.929 . S
H630 C604 0.930 . S
H631 C605 0.931 . S
H632 C612 0.932 . S
H633 C613 0.930 . S
H634 C614 0.929 . S
H635 C616 0.930 . S
H636 C618 0.932 . S
H637 C619 0.929 . S
H638 C620 0.928 . S
H639 C622 0.932 . S
C640 C641 1.264 . S
C640 C645 1.479 . S
C640 C650 1.465 . S
C641 C640 1.264 . S
C641 C643 1.339 . S
C641 H668 0.931 . S
C642 C643 1.395 . S
C642 C644 1.320 . S
C643 C641 1.339 . S
C643 C642 1.395 . S
C643 H669 0.929 . S
C644 C642 1.320 . S
C644 C645 1.405 . S
C644 H670 0.930 . S
C645 C640 1.479 . S
C645 C644 1.405 . S
C645 H671 0.931 . S
U646 O647 2.454 . S
U646 O648 2.458 . S
U646 C649 2.984 . S
U646 C650 2.847 . S
U646 C663 2.882 . S
U646 O664 2.441 . S
U646 O665 2.420 . S
U646 O666 2.455 . S
U646 O667 2.449 . S
O647 U646 2.454 . S
O647 C649 1.353 . S
O648 U646 2.458 . S
O648 C649 1.286 . S
C649 U646 2.984 . S
C649 O647 1.353 . S
C649 O648 1.286 . S
C649 C651 1.363 . S
C650 C640 1.465 . S
C650 U646 2.847 . S
C650 O664 1.249 . S
C650 O665 1.202 . S
C651 C649 1.363 . S
C651 C653 1.408 . S
C651 C656 1.342 . S
C652 C653 1.310 . S
C652 C655 1.461 . S
C652 H672 0.932 . S
C653 C651 1.408 . S
C653 C652 1.310 . S
C653 H673 0.930 . S
C654 C655 1.474 . S
C654 C656 1.285 . S
C654 H674 0.929 . S
C655 C652 1.461 . S
C655 C654 1.474 . S
C656 C651 1.342 . S
C656 C654 1.285 . S
C656 H675 0.930 . S
C657 C660 1.424 . S
C657 C662 1.245 . S
C657 C663 1.428 . S
C658 C661 1.260 . S
C658 C662 1.477 . S
C658 H676 0.932 . S
C659 C660 1.384 . S
C659 C661 1.479 . S
C659 H677 0.929 . S
C660 C657 1.424 . S
C660 C659 1.384 . S
C660 H678 0.928 . S
C661 C658 1.260 . S
C661 C659 1.479 . S
C662 C657 1.245 . S
C662 C658 1.477 . S
C662 H679 0.932 . S
C663 U646 2.882 . S
C663 C657 1.428 . S
C663 O666 1.301 . S
C663 O667 1.282 . S
O664 U646 2.441 . S
O664 C650 1.249 . S
O665 U646 2.420 . S
O665 C650 1.202 . S
O666 U646 2.455 . S
O666 C663 1.301 . S
O667 U646 2.449 . S
O667 C663 1.282 . S
H668 C641 0.931 . S
H669 C643 0.929 . S
H670 C644 0.930 . S
H671 C645 0.931 . S
H672 C652 0.932 . S
H673 C653 0.930 . S
H674 C654 0.929 . S
H675 C656 0.930 . S
H676 C658 0.932 . S
H677 C659 0.929 . S
H678 C660 0.928 . S
H679 C662 0.932 . S
C680 C681 1.264 . S
C680 C685 1.479 . S
C680 C690 1.465 . S
C681 C680 1.264 . S
C681 C683 1.339 . S
C681 H708 0.931 . S
C682 C683 1.395 . S
C682 C684 1.320 . S
C683 C681 1.339 . S
C683 C682 1.395 . S
C683 H709 0.929 . S
C684 C682 1.320 . S
C684 C685 1.405 . S
C684 H710 0.930 . S
C685 C680 1.479 . S
C685 C684 1.405 . S
C685 H711 0.931 . S
U686 O687 2.454 . S
U686 O688 2.458 . S
U686 C689 2.984 . S
U686 C690 2.847 . S
U686 C703 2.882 . S
U686 O704 2.441 . S
U686 O705 2.420 . S
U686 O706 2.455 . S
U686 O707 2.449 . S
O687 U686 2.454 . S
O687 C689 1.353 . S
O688 U686 2.458 . S
O688 C689 1.286 . S
C689 U686 2.984 . S
C689 O687 1.353 . S
C689 O688 1.286 . S
C689 C691 1.363 . S
C690 C680 1.465 . S
C690 U686 2.847 . S
C690 O704 1.249 . S
C690 O705 1.202 . S
C691 C689 1.363 . S
C691 C693 1.408 . S
C691 C696 1.342 . S
C692 C693 1.310 . S
C692 C695 1.461 . S
C692 H712 0.932 . S
C693 C691 1.408 . S
C693 C692 1.310 . S
C693 H713 0.930 . S
C694 C695 1.474 . S
C694 C696 1.285 . S
C694 H714 0.929 . S
C695 C692 1.461 . S
C695 C694 1.474 . S
C696 C691 1.342 . S
C696 C694 1.285 . S
C696 H715 0.930 . S
C697 C700 1.424 . S
C697 C702 1.245 . S
C697 C703 1.428 . S
C698 C701 1.260 . S
C698 C702 1.477 . S
C698 H716 0.932 . S
C699 C700 1.384 . S
C699 C701 1.479 . S
C699 H717 0.929 . S
C700 C697 1.424 . S
C700 C699 1.384 . S
C700 H718 0.928 . S
C701 C698 1.260 . S
C701 C699 1.479 . S
C702 C697 1.245 . S
C702 C698 1.477 . S
C702 H719 0.932 . S
C703 U686 2.882 . S
C703 C697 1.428 . S
C703 O706 1.301 . S
C703 O707 1.282 . S
O704 U686 2.441 . S
O704 C690 1.249 . S
O705 U686 2.420 . S
O705 C690 1.202 . S
O706 U686 2.455 . S
O706 C703 1.301 . S
O707 U686 2.449 . S
O707 C703 1.282 . S
H708 C681 0.931 . S
H709 C683 0.929 . S
H710 C684 0.930 . S
H711 C685 0.931 . S
H712 C692 0.932 . S
H713 C693 0.930 . S
H714 C694 0.929 . S
H715 C696 0.930 . S
H716 C698 0.932 . S
H717 C699 0.929 . S
H718 C700 0.928 . S
H719 C702 0.932 . S
C720 C721 1.264 . S
C720 C725 1.479 . S
C720 C730 1.465 . S
C721 C720 1.264 . S
C721 C723 1.339 . S
C721 H748 0.931 . S
C722 C723 1.395 . S
C722 C724 1.320 . S
C723 C721 1.339 . S
C723 C722 1.395 . S
C723 H749 0.929 . S
C724 C722 1.320 . S
C724 C725 1.405 . S
C724 H750 0.930 . S
C725 C720 1.479 . S
C725 C724 1.405 . S
C725 H751 0.931 . S
U726 O727 2.454 . S
U726 O728 2.458 . S
U726 C729 2.984 . S
U726 C730 2.847 . S
U726 C743 2.882 . S
U726 O744 2.441 . S
U726 O745 2.420 . S
U726 O746 2.455 . S
U726 O747 2.449 . S
O727 U726 2.454 . S
O727 C729 1.353 . S
O728 U726 2.458 . S
O728 C729 1.286 . S
C729 U726 2.984 . S
C729 O727 1.353 . S
C729 O728 1.286 . S
C729 C731 1.363 . S
C730 C720 1.465 . S
C730 U726 2.847 . S
C730 O744 1.249 . S
C730 O745 1.202 . S
C731 C729 1.363 . S
C731 C733 1.408 . S
C731 C736 1.342 . S
C732 C733 1.310 . S
C732 C735 1.461 . S
C732 H752 0.932 . S
C733 C731 1.408 . S
C733 C732 1.310 . S
C733 H753 0.930 . S
C734 C735 1.474 . S
C734 C736 1.285 . S
C734 H754 0.929 . S
C735 C732 1.461 . S
C735 C734 1.474 . S
C736 C731 1.342 . S
C736 C734 1.285 . S
C736 H755 0.930 . S
C737 C740 1.424 . S
C737 C742 1.245 . S
C737 C743 1.428 . S
C738 C741 1.260 . S
C738 C742 1.477 . S
C738 H756 0.932 . S
C739 C740 1.384 . S
C739 C741 1.479 . S
C739 H757 0.929 . S
C740 C737 1.424 . S
C740 C739 1.384 . S
C740 H758 0.928 . S
C741 C738 1.260 . S
C741 C739 1.479 . S
C742 C737 1.245 . S
C742 C738 1.477 . S
C742 H759 0.932 . S
C743 U726 2.882 . S
C743 C737 1.428 . S
C743 O746 1.301 . S
C743 O747 1.282 . S
O744 U726 2.441 . S
O744 C730 1.249 . S
O745 U726 2.420 . S
O745 C730 1.202 . S
O746 U726 2.455 . S
O746 C743 1.301 . S
O747 U726 2.449 . S
O747 C743 1.282 . S
H748 C721 0.931 . S
H749 C723 0.929 . S
H750 C724 0.930 . S
H751 C725 0.931 . S
H752 C732 0.932 . S
H753 C733 0.930 . S
H754 C734 0.929 . S
H755 C736 0.930 . S
H756 C738 0.932 . S
H757 C739 0.929 . S
H758 C740 0.928 . S
H759 C742 0.932 . S
C760 C761 1.264 . S
C760 C765 1.479 . S
C760 C770 1.465 . S
C761 C760 1.264 . S
C761 C763 1.339 . S
C761 H788 0.931 . S
C762 C763 1.395 . S
C762 C764 1.320 . S
C763 C761 1.339 . S
C763 C762 1.395 . S
C763 H789 0.929 1_556 S
C764 C762 1.320 . S
C764 C765 1.405 . S
C764 H790 0.930 . S
C765 C760 1.479 . S
C765 C764 1.405 . S
C765 H791 0.931 . S
U766 O767 2.454 . S
U766 O768 2.458 . S
U766 C769 2.984 . S
U766 C770 2.847 . S
U766 C783 2.882 1_556 S
U766 O784 2.441 . S
U766 O785 2.420 . S
U766 O786 2.455 . S
U766 O787 2.470 . S
O767 U766 2.454 . S
O767 C769 1.353 . S
O768 U766 2.458 . S
O768 C769 1.286 . S
C769 U766 2.984 . S
C769 O767 1.353 . S
C769 O768 1.286 . S
C769 C771 1.363 . S
C770 C760 1.465 . S
C770 U766 2.847 . S
C770 O784 1.249 . S
C770 O785 1.202 . S
C771 C769 1.363 . S
C771 C773 1.408 . S
C771 C776 1.342 . S
C772 C773 1.310 . S
C772 C775 1.461 . S
C772 H792 0.932 . S
C773 C771 1.408 . S
C773 C772 1.310 . S
C773 H793 0.930 . S
C774 C775 1.474 . S
C774 C776 1.285 . S
C774 H794 0.929 . S
C775 C772 1.461 . S
C775 C774 1.474 . S
C776 C771 1.342 . S
C776 C774 1.285 . S
C776 H795 0.930 . S
C777 C780 1.424 . S
C777 C782 1.245 . S
C777 C783 1.428 . S
C778 C781 1.260 . S
C778 C782 1.477 . S
C778 H796 0.932 . S
C779 C780 1.384 . S
C779 C781 1.479 . S
C779 H797 0.929 . S
C780 C777 1.424 . S
C780 C779 1.384 . S
C780 H798 0.928 . S
C781 C778 1.260 . S
C781 C779 1.479 . S
C782 C777 1.245 . S
C782 C778 1.477 . S
C782 H799 0.932 . S
C783 U766 2.882 1_554 S
C783 C777 1.428 . S
C783 O786 1.301 1_554 S
C783 O787 1.271 1_554 S
O784 U766 2.441 . S
O784 C770 1.249 . S
O785 U766 2.420 . S
O785 C770 1.202 . S
O786 U766 2.455 . S
O786 C783 1.301 1_556 S
O787 U766 2.470 . S
O787 C783 1.271 1_556 S
H788 C761 0.931 . S
H789 C763 0.929 1_554 S
H790 C764 0.930 . S
H791 C765 0.931 . S
H792 C772 0.932 . S
H793 C773 0.930 . S
H794 C774 0.929 . S
H795 C776 0.930 . S
H796 C778 0.932 . S
H797 C779 0.929 . S
H798 C780 0.928 . S
H799 C782 0.932 . S
C800 C801 1.264 . S
C800 C805 1.479 . S
C800 C810 1.465 . S
C801 C800 1.264 . S
C801 C803 1.339 . S
C801 H828 0.931 . S
C802 C803 1.395 . S
C802 C804 1.320 . S
C803 C801 1.339 . S
C803 C802 1.395 . S
C803 H829 0.929 . S
C804 C802 1.320 . S
C804 C805 1.405 . S
C804 H830 0.930 . S
C805 C800 1.479 . S
C805 C804 1.405 . S
C805 H831 0.931 . S
U806 O807 2.454 . S
U806 O808 2.458 . S
U806 C809 2.984 . S
U806 C810 2.847 . S
U806 C823 2.882 . S
U806 O824 2.441 . S
U806 O825 2.420 . S
U806 O826 2.455 . S
U806 O827 2.449 . S
O807 U806 2.454 . S
O807 C809 1.353 . S
O808 U806 2.458 . S
O808 C809 1.286 . S
C809 U806 2.984 . S
C809 O807 1.353 . S
C809 O808 1.286 . S
C809 C811 1.363 . S
C810 C800 1.465 . S
C810 U806 2.847 . S
C810 O824 1.249 . S
C810 O825 1.202 . S
C811 C809 1.363 . S
C811 C813 1.408 . S
C811 C816 1.342 . S
C812 C813 1.310 . S
C812 C815 1.461 . S
C812 H832 0.932 . S
C813 C811 1.408 . S
C813 C812 1.310 . S
C813 H833 0.930 . S
C814 C815 1.474 . S
C814 C816 1.285 . S
C814 H834 0.929 . S
C815 C812 1.461 . S
C815 C814 1.474 . S
C816 C811 1.342 . S
C816 C814 1.285 . S
C816 H835 0.930 . S
C817 C820 1.424 . S
C817 C822 1.245 . S
C817 C823 1.428 . S
C818 C821 1.260 . S
C818 C822 1.477 . S
C818 H836 0.932 . S
C819 C820 1.384 . S
C819 C821 1.479 . S
C819 H837 0.929 . S
C820 C817 1.424 . S
C820 C819 1.384 . S
C820 H838 0.928 . S
C821 C818 1.260 . S
C821 C819 1.479 . S
C822 C817 1.245 . S
C822 C818 1.477 . S
C822 H839 0.932 . S
C823 U806 2.882 . S
C823 C817 1.428 . S
C823 O826 1.301 . S
C823 O827 1.282 . S
O824 U806 2.441 . S
O824 C810 1.249 . S
O825 U806 2.420 . S
O825 C810 1.202 . S
O826 U806 2.455 . S
O826 C823 1.301 . S
O827 U806 2.449 . S
O827 C823 1.282 . S
H828 C801 0.931 . S
H829 C803 0.929 . S
H830 C804 0.930 . S
H831 C805 0.931 . S
H832 C812 0.932 . S
H833 C813 0.930 . S
H834 C814 0.929 . S
H835 C816 0.930 . S
H836 C818 0.932 . S
H837 C819 0.929 . S
H838 C820 0.928 . S
H839 C822 0.932 . S
C840 C841 1.264 . S
C840 C845 1.479 . S
C840 C850 1.465 . S
C841 C840 1.264 . S
C841 C843 1.339 . S
C841 H868 0.931 . S
C842 C843 1.395 . S
C842 C844 1.320 . S
C843 C841 1.339 . S
C843 C842 1.395 . S
C843 H869 0.929 . S
C844 C842 1.320 . S
C844 C845 1.405 . S
C844 H870 0.930 . S
C845 C840 1.479 . S
C845 C844 1.405 . S
C845 H871 0.931 . S
U846 O847 2.454 . S
U846 O848 2.458 . S
U846 C849 2.984 . S
U846 C850 2.847 . S
U846 C863 2.882 . S
U846 O864 2.441 . S
U846 O865 2.420 . S
U846 O866 2.455 . S
U846 O867 2.449 . S
O847 U846 2.454 . S
O847 C849 1.353 . S
O848 U846 2.458 . S
O848 C849 1.286 . S
C849 U846 2.984 . S
C849 O847 1.353 . S
C849 O848 1.286 . S
C849 C851 1.363 . S
C850 C840 1.465 . S
C850 U846 2.847 . S
C850 O864 1.249 . S
C850 O865 1.202 . S
C851 C849 1.363 . S
C851 C853 1.408 . S
C851 C856 1.342 . S
C852 C853 1.310 . S
C852 C855 1.461 . S
C852 H872 0.932 . S
C853 C851 1.408 . S
C853 C852 1.310 . S
C853 H873 0.930 . S
C854 C855 1.474 . S
C854 C856 1.285 . S
C854 H874 0.929 . S
C855 C852 1.461 . S
C855 C854 1.474 . S
C856 C851 1.342 . S
C856 C854 1.285 . S
C856 H875 0.930 . S
C857 C860 1.424 . S
C857 C862 1.245 . S
C857 C863 1.428 . S
C858 C861 1.260 . S
C858 C862 1.477 . S
C858 H876 0.932 . S
C859 C860 1.384 . S
C859 C861 1.479 . S
C859 H877 0.929 . S
C860 C857 1.424 . S
C860 C859 1.384 . S
C860 H878 0.928 . S
C861 C858 1.260 . S
C861 C859 1.479 . S
C862 C857 1.245 . S
C862 C858 1.477 . S
C862 H879 0.932 . S
C863 U846 2.882 . S
C863 C857 1.428 . S
C863 O866 1.301 . S
C863 O867 1.282 . S
O864 U846 2.441 . S
O864 C850 1.249 . S
O865 U846 2.420 . S
O865 C850 1.202 . S
O866 U846 2.455 . S
O866 C863 1.301 . S
O867 U846 2.449 . S
O867 C863 1.282 . S
H868 C841 0.931 . S
H869 C843 0.929 . S
H870 C844 0.930 . S
H871 C845 0.931 . S
H872 C852 0.932 . S
H873 C853 0.930 . S
H874 C854 0.929 . S
H875 C856 0.930 . S
H876 C858 0.932 . S
H877 C859 0.929 . S
H878 C860 0.928 . S
H879 C862 0.932 . S
C880 C881 1.264 . S
C880 C885 1.479 . S
C880 C890 1.465 . S
C881 C880 1.264 . S
C881 C883 1.339 . S
C881 H908 0.931 . S
C882 C883 1.395 . S
C882 C884 1.320 . S
C883 C881 1.339 . S
C883 C882 1.395 . S
C883 H909 0.929 . S
C884 C882 1.320 . S
C884 C885 1.405 . S
C884 H910 0.930 . S
C885 C880 1.479 . S
C885 C884 1.405 . S
C885 H911 0.931 . S
U886 O887 2.454 . S
U886 O888 2.458 . S
U886 C889 2.984 . S
U886 C890 2.847 . S
U886 C903 2.882 . S
U886 O904 2.441 . S
U886 O905 2.420 . S
U886 O906 2.455 . S
U886 O907 2.449 . S
O887 U886 2.454 . S
O887 C889 1.353 . S
O888 U886 2.458 . S
O888 C889 1.286 . S
C889 U886 2.984 . S
C889 O887 1.353 . S
C889 O888 1.286 . S
C889 C891 1.363 . S
C890 C880 1.465 . S
C890 U886 2.847 . S
C890 O904 1.249 . S
C890 O905 1.202 . S
C891 C889 1.363 . S
C891 C893 1.408 . S
C891 C896 1.342 . S
C892 C893 1.310 . S
C892 C895 1.461 . S
C892 H912 0.932 . S
C893 C891 1.408 . S
C893 C892 1.310 . S
C893 H913 0.930 . S
C894 C895 1.474 . S
C894 C896 1.285 . S
C894 H914 0.929 . S
C895 C892 1.461 . S
C895 C894 1.474 . S
C896 C891 1.342 . S
C896 C894 1.285 . S
C896 H915 0.930 . S
C897 C900 1.424 . S
C897 C902 1.245 . S
C897 C903 1.428 . S
C898 C901 1.260 . S
C898 C902 1.477 . S
C898 H916 0.932 . S
C899 C900 1.384 . S
C899 C901 1.479 . S
C899 H917 0.929 . S
C900 C897 1.424 . S
C900 C899 1.384 . S
C900 H918 0.928 . S
C901 C898 1.260 . S
C901 C899 1.479 . S
C902 C897 1.245 . S
C902 C898 1.477 . S
C902 H919 0.932 . S
C903 U886 2.882 . S
C903 C897 1.428 . S
C903 O906 1.301 . S
C903 O907 1.282 . S
O904 U886 2.441 . S
O904 C890 1.249 . S
O905 U886 2.420 . S
O905 C890 1.202 . S
O906 U886 2.455 . S
O906 C903 1.301 . S
O907 U886 2.449 . S
O907 C903 1.282 . S
H908 C881 0.931 . S
H909 C883 0.929 . S
H910 C884 0.930 . S
H911 C885 0.931 . S
H912 C892 0.932 . S
H913 C893 0.930 . S
H914 C894 0.929 . S
H915 C896 0.930 . S
H916 C898 0.932 . S
H917 C899 0.929 . S
H918 C900 0.928 . S
H919 C902 0.932 . S
C920 C921 1.264 . S
C920 C925 1.479 . S
C920 C930 1.465 . S
C921 C920 1.264 . S
C921 C923 1.339 . S
C921 H948 0.931 . S
C922 C923 1.395 . S
C922 C924 1.320 . S
C923 C921 1.339 . S
C923 C922 1.395 . S
C923 H949 0.929 1_655 S
C924 C922 1.320 . S
C924 C925 1.405 . S
C924 H950 0.930 . S
C925 C920 1.479 . S
C925 C924 1.405 . S
C925 H951 0.931 . S
U926 O927 2.454 . S
U926 O928 2.458 . S
U926 C929 2.984 . S
U926 C930 2.847 . S
U926 C943 2.882 1_655 S
U926 O944 2.441 . S
U926 O945 2.420 . S
U926 O946 2.455 . S
U926 O947 2.470 . S
O927 U926 2.454 . S
O927 C929 1.353 . S
O928 U926 2.458 . S
O928 C929 1.286 . S
C929 U926 2.984 . S
C929 O927 1.353 . S
C929 O928 1.286 . S
C929 C931 1.363 . S
C930 C920 1.465 . S
C930 U926 2.847 . S
C930 O944 1.249 . S
C930 O945 1.202 . S
C931 C929 1.363 . S
C931 C933 1.408 . S
C931 C936 1.342 . S
C932 C933 1.310 . S
C932 C935 1.461 . S
C932 H952 0.932 . S
C933 C931 1.408 . S
C933 C932 1.310 . S
C933 H953 0.930 . S
C934 C935 1.474 . S
C934 C936 1.285 . S
C934 H954 0.929 . S
C935 C932 1.461 . S
C935 C934 1.474 . S
C936 C931 1.342 . S
C936 C934 1.285 . S
C936 H955 0.930 . S
C937 C940 1.424 . S
C937 C942 1.245 . S
C937 C943 1.428 . S
C938 C941 1.260 . S
C938 C942 1.477 . S
C938 H956 0.932 . S
C939 C940 1.384 . S
C939 C941 1.479 . S
C939 H957 0.929 . S
C940 C937 1.424 . S
C940 C939 1.384 . S
C940 H958 0.928 . S
C941 C938 1.260 . S
C941 C939 1.479 . S
C942 C937 1.245 . S
C942 C938 1.477 . S
C942 H959 0.932 . S
C943 U926 2.882 1_455 S
C943 C937 1.428 . S
C943 O946 1.301 1_455 S
C943 O947 1.271 1_455 S
O944 U926 2.441 . S
O944 C930 1.249 . S
O945 U926 2.420 . S
O945 C930 1.202 . S
O946 U926 2.455 . S
O946 C943 1.301 1_655 S
O947 U926 2.470 . S
O947 C943 1.271 1_655 S
H948 C921 0.931 . S
H949 C923 0.929 1_455 S
H950 C924 0.930 . S
H951 C925 0.931 . S
H952 C932 0.932 . S
H953 C933 0.930 . S
H954 C934 0.929 . S
H955 C936 0.930 . S
H956 C938 0.932 . S
H957 C939 0.929 . S
H958 C940 0.928 . S
H959 C942 0.932 . S
C960 C961 1.386 . S
C960 C962 1.397 . S
C960 H984 0.931 . S
C961 C960 1.386 . S
C961 C965 1.397 . S
C962 C960 1.397 . S
C962 C963 1.384 . S
C962 H985 0.930 . S
C963 C962 1.384 . S
C963 C964 1.377 . S
C963 C966 1.481 . S
C964 C963 1.377 . S
C964 C965 1.389 . S
C964 H986 0.929 . S
C965 C961 1.397 . S
C965 C964 1.389 . S
C965 H987 0.931 . S
C966 C963 1.481 . S
C966 C967 1.387 . S
C966 C971 1.390 . S
C967 C966 1.387 . S
C967 C968 1.401 . S
C967 H988 0.930 . S
C968 C967 1.401 . S
C968 C969 1.376 . S
C968 C977 1.511 . S
C969 C968 1.376 . S
C969 C970 1.392 . S
C969 H990 0.931 . S
C970 C969 1.392 . S
C970 C971 1.361 . S
C970 C972 1.500 . S
C971 C966 1.390 . S
C971 C970 1.361 . S
C971 H989 0.931 . S
C972 C970 1.500 . S
C972 C973 1.371 . S
C972 C974 1.365 . S
C973 C972 1.371 . S
C973 C983 1.386 . S
C973 H991 0.931 . S
C974 C972 1.365 . S
C974 C975 1.409 . S
C974 H992 0.929 . S
C975 C974 1.409 . S
C975 C976 1.380 . S
C975 H993 0.930 . S
C976 C975 1.380 . S
C976 C983 1.357 . S
C977 C968 1.511 . S
C977 C978 1.341 . S
C977 C979 1.371 . S
C978 C977 1.341 . S
C978 C982 1.394 . S
C978 H994 0.930 . S
C979 C977 1.371 . S
C979 C980 1.392 . S
C979 H995 0.931 . S
C980 C979 1.392 . S
C980 C981 1.331 . S
C980 H998 0.932 . S
C981 C980 1.331 . S
C981 C982 1.336 . S
C982 C978 1.394 . S
C982 C981 1.336 . S
C982 H997 0.929 . S
C983 C973 1.386 . S
C983 C976 1.357 . S
C983 H996 0.928 . S
H984 C960 0.931 . S
H985 C962 0.930 . S
H986 C964 0.929 . S
H987 C965 0.931 . S
H988 C967 0.930 . S
H989 C971 0.931 . S
H990 C969 0.931 . S
H991 C973 0.931 . S
H992 C974 0.929 . S
H993 C975 0.930 . S
H994 C978 0.930 . S
H995 C979 0.931 . S
H996 C983 0.928 . S
H997 C982 0.929 . S
H998 C980 0.932 . S
C999 C1000 1.386 . S
C999 C1001 1.397 . S
C999 H1023 0.931 . S
C1000 C999 1.386 . S
C1000 C1004 1.397 . S
C1001 C999 1.397 . S
C1001 C1002 1.384 . S
C1001 H1024 0.930 . S
C1002 C1001 1.384 . S
C1002 C1003 1.377 . S
C1002 C1005 1.481 . S
C1003 C1002 1.377 . S
C1003 C1004 1.389 . S
C1003 H1025 0.929 . S
C1004 C1000 1.397 . S
C1004 C1003 1.389 . S
C1004 H1026 0.931 . S
C1005 C1002 1.481 . S
C1005 C1006 1.387 . S
C1005 C1010 1.390 . S
C1006 C1005 1.387 . S
C1006 C1007 1.401 . S
C1006 H1027 0.930 . S
C1007 C1006 1.401 . S
C1007 C1008 1.376 . S
C1007 C1016 1.511 . S
C1008 C1007 1.376 . S
C1008 C1009 1.392 . S
C1008 H1029 0.931 . S
C1009 C1008 1.392 . S
C1009 C1010 1.361 . S
C1009 C1011 1.500 . S
C1010 C1005 1.390 . S
C1010 C1009 1.361 . S
C1010 H1028 0.931 . S
C1011 C1009 1.500 . S
C1011 C1012 1.371 . S
C1011 C1013 1.365 . S
C1012 C1011 1.371 . S
C1012 C1022 1.386 . S
C1012 H1030 0.931 . S
C1013 C1011 1.365 . S
C1013 C1014 1.409 . S
C1013 H1031 0.929 . S
C1014 C1013 1.409 . S
C1014 C1015 1.380 . S
C1014 H1032 0.930 . S
C1015 C1014 1.380 . S
C1015 C1022 1.357 . S
C1016 C1007 1.511 . S
C1016 C1017 1.341 . S
C1016 C1018 1.371 . S
C1017 C1016 1.341 . S
C1017 C1021 1.394 . S
C1017 H1033 0.930 . S
C1018 C1016 1.371 . S
C1018 C1019 1.392 . S
C1018 H1034 0.931 . S
C1019 C1018 1.392 . S
C1019 C1020 1.331 . S
C1019 H1037 0.932 . S
C1020 C1019 1.331 . S
C1020 C1021 1.336 . S
C1021 C1017 1.394 . S
C1021 C1020 1.336 . S
C1021 H1036 0.929 . S
C1022 C1012 1.386 . S
C1022 C1015 1.357 . S
C1022 H1035 0.928 . S
H1023 C999 0.931 . S
H1024 C1001 0.930 . S
H1025 C1003 0.929 . S
H1026 C1004 0.931 . S
H1027 C1006 0.930 . S
H1028 C1010 0.931 . S
H1029 C1008 0.931 . S
H1030 C1012 0.931 . S
H1031 C1013 0.929 . S
H1032 C1014 0.930 . S
H1033 C1017 0.930 . S
H1034 C1018 0.931 . S
H1035 C1022 0.928 . S
H1036 C1021 0.929 . S
H1037 C1019 0.932 . S
C1038 C1039 1.349 1_545 S
C1038 C1040 1.397 . S
C1038 H1062 0.931 . S
C1039 C1038 1.349 1_565 S
C1039 C1043 1.432 . S
C1040 C1038 1.397 . S
C1040 C1041 1.400 . S
C1040 H1063 0.930 . S
C1041 C1040 1.400 . S
C1041 C1042 1.360 1_545 S
C1041 C1044 1.480 . S
C1042 C1041 1.360 1_565 S
C1042 C1043 1.389 . S
C1042 H1064 0.929 . S
C1043 C1039 1.432 . S
C1043 C1042 1.389 . S
C1043 H1065 0.931 . S
C1044 C1041 1.480 . S
C1044 C1045 1.422 . S
C1044 C1049 1.356 1_545 S
C1045 C1044 1.422 . S
C1045 C1046 1.401 . S
C1045 H1066 0.930 . S
C1046 C1045 1.401 . S
C1046 C1047 1.412 . S
C1046 C1055 1.511 . S
C1047 C1046 1.412 . S
C1047 C1048 1.356 1_545 S
C1047 H1068 0.931 . S
C1048 C1047 1.356 1_565 S
C1048 C1049 1.361 . S
C1048 C1050 1.500 . S
C1049 C1044 1.356 1_565 S
C1049 C1048 1.361 . S
C1049 H1067 0.931 . S
C1050 C1048 1.500 . S
C1050 C1051 1.371 . S
C1050 C1052 1.365 . S
C1051 C1050 1.371 . S
C1051 C1061 1.386 . S
C1051 H1069 0.931 . S
C1052 C1050 1.365 . S
C1052 C1053 1.409 . S
C1052 H1070 0.929 . S
C1053 C1052 1.409 . S
C1053 C1054 1.380 . S
C1053 H1071 0.930 . S
C1054 C1053 1.380 . S
C1054 C1061 1.357 . S
C1055 C1046 1.511 . S
C1055 C1056 1.341 . S
C1055 C1057 1.371 . S
C1056 C1055 1.341 . S
C1056 C1060 1.394 . S
C1056 H1072 0.930 . S
C1057 C1055 1.371 . S
C1057 C1058 1.392 . S
C1057 H1073 0.931 . S
C1058 C1057 1.392 . S
C1058 C1059 1.331 . S
C1058 H1076 0.932 . S
C1059 C1058 1.331 . S
C1059 C1060 1.336 . S
C1060 C1056 1.394 . S
C1060 C1059 1.336 . S
C1060 H1075 0.929 . S
C1061 C1051 1.386 . S
C1061 C1054 1.357 . S
C1061 H1074 0.928 . S
H1062 C1038 0.931 . S
H1063 C1040 0.930 . S
H1064 C1042 0.929 . S
H1065 C1043 0.931 . S
H1066 C1045 0.930 . S
H1067 C1049 0.931 . S
H1068 C1047 0.931 . S
H1069 C1051 0.931 . S
H1070 C1052 0.929 . S
H1071 C1053 0.930 . S
H1072 C1056 0.930 . S
H1073 C1057 0.931 . S
H1074 C1061 0.928 . S
H1075 C1060 0.929 . S
H1076 C1058 0.932 . S
C1077 C1078 1.386 . S
C1077 C1079 1.397 . S
C1077 H1101 0.931 . S
C1078 C1077 1.386 . S
C1078 C1082 1.397 1_565 S
C1079 C1077 1.397 . S
C1079 C1080 1.384 . S
C1079 H1102 0.930 . S
C1080 C1079 1.384 . S
C1080 C1081 1.377 1_565 S
C1080 C1083 1.481 . S
C1081 C1080 1.377 1_545 S
C1081 C1082 1.389 . S
C1081 H1103 0.929 . S
C1082 C1078 1.397 1_545 S
C1082 C1081 1.389 . S
C1082 H1104 0.931 . S
C1083 C1080 1.481 . S
C1083 C1084 1.387 . S
C1083 C1088 1.390 1_565 S
C1084 C1083 1.387 . S
C1084 C1085 1.401 . S
C1084 H1105 0.930 . S
C1085 C1084 1.401 . S
C1085 C1086 1.376 1_565 S
C1085 C1094 1.511 . S
C1086 C1085 1.376 1_545 S
C1086 C1087 1.392 . S
C1086 H1107 0.931 . S
C1087 C1086 1.392 . S
C1087 C1088 1.361 . S
C1087 C1089 1.500 . S
C1088 C1083 1.390 1_545 S
C1088 C1087 1.361 . S
C1088 H1106 0.931 . S
C1089 C1087 1.500 . S
C1089 C1090 1.371 . S
C1089 C1091 1.365 . S
C1090 C1089 1.371 . S
C1090 C1100 1.386 . S
C1090 H1108 0.931 . S
C1091 C1089 1.365 . S
C1091 C1092 1.409 . S
C1091 H1109 0.929 . S
C1092 C1091 1.409 . S
C1092 C1093 1.380 . S
C1092 H1110 0.930 . S
C1093 C1092 1.380 . S
C1093 C1100 1.357 . S
C1094 C1085 1.511 . S
C1094 C1095 1.341 . S
C1094 C1096 1.371 . S
C1095 C1094 1.341 . S
C1095 C1099 1.394 . S
C1095 H1111 0.930 . S
C1096 C1094 1.371 . S
C1096 C1097 1.392 . S
C1096 H1112 0.931 . S
C1097 C1096 1.392 . S
C1097 C1098 1.331 . S
C1097 H1115 0.932 . S
C1098 C1097 1.331 . S
C1098 C1099 1.336 . S
C1099 C1095 1.394 . S
C1099 C1098 1.336 . S
C1099 H1114 0.929 . S
C1100 C1090 1.386 . S
C1100 C1093 1.357 . S
C1100 H1113 0.928 . S
H1101 C1077 0.931 . S
H1102 C1079 0.930 . S
H1103 C1081 0.929 . S
H1104 C1082 0.931 . S
H1105 C1084 0.930 . S
H1106 C1088 0.931 . S
H1107 C1086 0.931 . S
H1108 C1090 0.931 . S
H1109 C1091 0.929 . S
H1110 C1092 0.930 . S
H1111 C1095 0.930 . S
H1112 C1096 0.931 . S
H1113 C1100 0.928 . S
H1114 C1099 0.929 . S
H1115 C1097 0.932 . S
C1116 C1117 1.386 . S
C1116 C1118 1.397 . S
C1116 H1140 0.931 . S
C1117 C1116 1.386 . S
C1117 C1121 1.397 . S
C1118 C1116 1.397 . S
C1118 C1119 1.384 . S
C1118 H1141 0.930 . S
C1119 C1118 1.384 . S
C1119 C1120 1.377 . S
C1119 C1122 1.481 . S
C1120 C1119 1.377 . S
C1120 C1121 1.389 . S
C1120 H1142 0.929 . S
C1121 C1117 1.397 . S
C1121 C1120 1.389 . S
C1121 H1143 0.931 . S
C1122 C1119 1.481 . S
C1122 C1123 1.387 . S
C1122 C1127 1.390 . S
C1123 C1122 1.387 . S
C1123 C1124 1.401 . S
C1123 H1144 0.930 . S
C1124 C1123 1.401 . S
C1124 C1125 1.376 . S
C1124 C1133 1.511 . S
C1125 C1124 1.376 . S
C1125 C1126 1.392 . S
C1125 H1146 0.931 . S
C1126 C1125 1.392 . S
C1126 C1127 1.361 . S
C1126 C1128 1.500 . S
C1127 C1122 1.390 . S
C1127 C1126 1.361 . S
C1127 H1145 0.931 . S
C1128 C1126 1.500 . S
C1128 C1129 1.371 . S
C1128 C1130 1.365 . S
C1129 C1128 1.371 . S
C1129 C1139 1.386 . S
C1129 H1147 0.931 . S
C1130 C1128 1.365 . S
C1130 C1131 1.409 . S
C1130 H1148 0.929 . S
C1131 C1130 1.409 . S
C1131 C1132 1.380 . S
C1131 H1149 0.930 . S
C1132 C1131 1.380 . S
C1132 C1139 1.357 . S
C1133 C1124 1.511 . S
C1133 C1134 1.341 . S
C1133 C1135 1.371 . S
C1134 C1133 1.341 . S
C1134 C1138 1.394 . S
C1134 H1150 0.930 . S
C1135 C1133 1.371 . S
C1135 C1136 1.392 . S
C1135 H1151 0.931 . S
C1136 C1135 1.392 . S
C1136 C1137 1.331 . S
C1136 H1154 0.932 . S
C1137 C1136 1.331 . S
C1137 C1138 1.336 . S
C1138 C1134 1.394 . S
C1138 C1137 1.336 . S
C1138 H1153 0.929 . S
C1139 C1129 1.386 . S
C1139 C1132 1.357 . S
C1139 H1152 0.928 . S
H1140 C1116 0.931 . S
H1141 C1118 0.930 . S
H1142 C1120 0.929 . S
H1143 C1121 0.931 . S
H1144 C1123 0.930 . S
H1145 C1127 0.931 . S
H1146 C1125 0.931 . S
H1147 C1129 0.931 . S
H1148 C1130 0.929 . S
H1149 C1131 0.930 . S
H1150 C1134 0.930 . S
H1151 C1135 0.931 . S
H1152 C1139 0.928 . S
H1153 C1138 0.929 . S
H1154 C1136 0.932 . S
C1155 C1156 1.386 . S
C1155 C1157 1.397 . S
C1155 H1179 0.931 . S
C1156 C1155 1.386 . S
C1156 C1160 1.397 1_556 S
C1157 C1155 1.397 . S
C1157 C1158 1.384 . S
C1157 H1180 0.930 . S
C1158 C1157 1.384 . S
C1158 C1159 1.377 1_556 S
C1158 C1161 1.481 . S
C1159 C1158 1.377 1_554 S
C1159 C1160 1.389 . S
C1159 H1181 0.929 . S
C1160 C1156 1.397 1_554 S
C1160 C1159 1.389 . S
C1160 H1182 0.931 . S
C1161 C1158 1.481 . S
C1161 C1162 1.387 . S
C1161 C1166 1.390 1_556 S
C1162 C1161 1.387 . S
C1162 C1163 1.401 . S
C1162 H1183 0.930 . S
C1163 C1162 1.401 . S
C1163 C1164 1.376 1_556 S
C1163 C1172 1.511 . S
C1164 C1163 1.376 1_554 S
C1164 C1165 1.392 . S
C1164 H1185 0.931 . S
C1165 C1164 1.392 . S
C1165 C1166 1.361 . S
C1165 C1167 1.500 . S
C1166 C1161 1.390 1_554 S
C1166 C1165 1.361 . S
C1166 H1184 0.931 . S
C1167 C1165 1.500 . S
C1167 C1168 1.371 . S
C1167 C1169 1.365 . S
C1168 C1167 1.371 . S
C1168 C1178 1.386 . S
C1168 H1186 0.931 . S
C1169 C1167 1.365 . S
C1169 C1170 1.409 . S
C1169 H1187 0.929 . S
C1170 C1169 1.409 . S
C1170 C1171 1.380 . S
C1170 H1188 0.930 . S
C1171 C1170 1.380 . S
C1171 C1178 1.357 . S
C1172 C1163 1.511 . S
C1172 C1173 1.341 . S
C1172 C1174 1.371 . S
C1173 C1172 1.341 . S
C1173 C1177 1.394 . S
C1173 H1189 0.930 . S
C1174 C1172 1.371 . S
C1174 C1175 1.392 . S
C1174 H1190 0.931 . S
C1175 C1174 1.392 . S
C1175 C1176 1.331 . S
C1175 H1193 0.932 . S
C1176 C1175 1.331 . S
C1176 C1177 1.336 . S
C1177 C1173 1.394 . S
C1177 C1176 1.336 . S
C1177 H1192 0.929 . S
C1178 C1168 1.386 . S
C1178 C1171 1.357 . S
C1178 H1191 0.928 . S
H1179 C1155 0.931 . S
H1180 C1157 0.930 . S
H1181 C1159 0.929 . S
H1182 C1160 0.931 . S
H1183 C1162 0.930 . S
H1184 C1166 0.931 . S
H1185 C1164 0.931 . S
H1186 C1168 0.931 . S
H1187 C1169 0.929 . S
H1188 C1170 0.930 . S
H1189 C1173 0.930 . S
H1190 C1174 0.931 . S
H1191 C1178 0.928 . S
H1192 C1177 0.929 . S
H1193 C1175 0.932 . S
C1194 C1195 1.386 . S
C1194 C1196 1.397 . S
C1194 H1218 0.931 . S
C1195 C1194 1.386 . S
C1195 C1199 1.397 . S
C1196 C1194 1.397 . S
C1196 C1197 1.384 . S
C1196 H1219 0.930 . S
C1197 C1196 1.384 . S
C1197 C1198 1.377 . S
C1197 C1200 1.481 . S
C1198 C1197 1.377 . S
C1198 C1199 1.389 . S
C1198 H1220 0.929 . S
C1199 C1195 1.397 . S
C1199 C1198 1.389 . S
C1199 H1221 0.931 . S
C1200 C1197 1.481 . S
C1200 C1201 1.387 . S
C1200 C1205 1.390 . S
C1201 C1200 1.387 . S
C1201 C1202 1.401 . S
C1201 H1222 0.930 . S
C1202 C1201 1.401 . S
C1202 C1203 1.376 . S
C1202 C1211 1.511 . S
C1203 C1202 1.376 . S
C1203 C1204 1.392 . S
C1203 H1224 0.931 . S
C1204 C1203 1.392 . S
C1204 C1205 1.361 . S
C1204 C1206 1.500 . S
C1205 C1200 1.390 . S
C1205 C1204 1.361 . S
C1205 H1223 0.931 . S
C1206 C1204 1.500 . S
C1206 C1207 1.371 . S
C1206 C1208 1.365 . S
C1207 C1206 1.371 . S
C1207 C1217 1.386 . S
C1207 H1225 0.931 . S
C1208 C1206 1.365 . S
C1208 C1209 1.409 . S
C1208 H1226 0.929 . S
C1209 C1208 1.409 . S
C1209 C1210 1.380 . S
C1209 H1227 0.930 . S
C1210 C1209 1.380 . S
C1210 C1217 1.357 . S
C1211 C1202 1.511 . S
C1211 C1212 1.341 . S
C1211 C1213 1.371 . S
C1212 C1211 1.341 . S
C1212 C1216 1.394 . S
C1212 H1228 0.930 . S
C1213 C1211 1.371 . S
C1213 C1214 1.392 . S
C1213 H1229 0.931 . S
C1214 C1213 1.392 . S
C1214 C1215 1.331 . S
C1214 H1232 0.932 . S
C1215 C1214 1.331 . S
C1215 C1216 1.336 . S
C1216 C1212 1.394 . S
C1216 C1215 1.336 . S
C1216 H1231 0.929 . S
C1217 C1207 1.386 . S
C1217 C1210 1.357 . S
C1217 H1230 0.928 . S
H1218 C1194 0.931 . S
H1219 C1196 0.930 . S
H1220 C1198 0.929 . S
H1221 C1199 0.931 . S
H1222 C1201 0.930 . S
H1223 C1205 0.931 . S
H1224 C1203 0.931 . S
H1225 C1207 0.931 . S
H1226 C1208 0.929 . S
H1227 C1209 0.930 . S
H1228 C1212 0.930 . S
H1229 C1213 0.931 . S
H1230 C1217 0.928 . S
H1231 C1216 0.929 . S
H1232 C1214 0.932 . S
C1233 C1234 1.349 1_554 S
C1233 C1235 1.397 . S
C1233 H1257 0.931 . S
C1234 C1233 1.349 1_556 S
C1234 C1238 1.432 . S
C1235 C1233 1.397 . S
C1235 C1236 1.400 . S
C1235 H1258 0.930 . S
C1236 C1235 1.400 . S
C1236 C1237 1.360 1_554 S
C1236 C1239 1.480 . S
C1237 C1236 1.360 1_556 S
C1237 C1238 1.389 . S
C1237 H1259 0.929 . S
C1238 C1234 1.432 . S
C1238 C1237 1.389 . S
C1238 H1260 0.931 . S
C1239 C1236 1.480 . S
C1239 C1240 1.422 . S
C1239 C1244 1.356 1_554 S
C1240 C1239 1.422 . S
C1240 C1241 1.401 . S
C1240 H1261 0.930 . S
C1241 C1240 1.401 . S
C1241 C1242 1.412 . S
C1241 C1250 1.511 . S
C1242 C1241 1.412 . S
C1242 C1243 1.356 1_554 S
C1242 H1263 0.931 . S
C1243 C1242 1.356 1_556 S
C1243 C1244 1.361 . S
C1243 C1245 1.500 . S
C1244 C1239 1.356 1_556 S
C1244 C1243 1.361 . S
C1244 H1262 0.931 . S
C1245 C1243 1.500 . S
C1245 C1246 1.371 . S
C1245 C1247 1.365 . S
C1246 C1245 1.371 . S
C1246 C1256 1.386 . S
C1246 H1264 0.931 . S
C1247 C1245 1.365 . S
C1247 C1248 1.409 . S
C1247 H1265 0.929 . S
C1248 C1247 1.409 . S
C1248 C1249 1.380 . S
C1248 H1266 0.930 . S
C1249 C1248 1.380 . S
C1249 C1256 1.357 . S
C1250 C1241 1.511 . S
C1250 C1251 1.341 . S
C1250 C1252 1.371 . S
C1251 C1250 1.341 . S
C1251 C1255 1.394 . S
C1251 H1267 0.930 . S
C1252 C1250 1.371 . S
C1252 C1253 1.392 . S
C1252 H1268 0.931 . S
C1253 C1252 1.392 . S
C1253 C1254 1.331 . S
C1253 H1271 0.932 . S
C1254 C1253 1.331 . S
C1254 C1255 1.336 . S
C1255 C1251 1.394 . S
C1255 C1254 1.336 . S
C1255 H1270 0.929 . S
C1256 C1246 1.386 . S
C1256 C1249 1.357 . S
C1256 H1269 0.928 . S
H1257 C1233 0.931 . S
H1258 C1235 0.930 . S
H1259 C1237 0.929 . S
H1260 C1238 0.931 . S
H1261 C1240 0.930 . S
H1262 C1244 0.931 . S
H1263 C1242 0.931 . S
H1264 C1246 0.931 . S
H1265 C1247 0.929 . S
H1266 C1248 0.930 . S
H1267 C1251 0.930 . S
H1268 C1252 0.931 . S
H1269 C1256 0.928 . S
H1270 C1255 0.929 . S
H1271 C1253 0.932 . S
C1272 C1273 1.386 . S
C1272 C1274 1.397 . S
C1272 H1296 0.931 . S
C1273 C1272 1.386 . S
C1273 C1277 1.397 . S
C1274 C1272 1.397 . S
C1274 C1275 1.384 . S
C1274 H1297 0.930 . S
C1275 C1274 1.384 . S
C1275 C1276 1.377 . S
C1275 C1278 1.481 . S
C1276 C1275 1.377 . S
C1276 C1277 1.389 . S
C1276 H1298 0.929 . S
C1277 C1273 1.397 . S
C1277 C1276 1.389 . S
C1277 H1299 0.931 . S
C1278 C1275 1.481 . S
C1278 C1279 1.387 . S
C1278 C1283 1.390 . S
C1279 C1278 1.387 . S
C1279 C1280 1.401 . S
C1279 H1300 0.930 . S
C1280 C1279 1.401 . S
C1280 C1281 1.376 . S
C1280 C1289 1.511 . S
C1281 C1280 1.376 . S
C1281 C1282 1.392 . S
C1281 H1302 0.931 . S
C1282 C1281 1.392 . S
C1282 C1283 1.361 . S
C1282 C1284 1.500 . S
C1283 C1278 1.390 . S
C1283 C1282 1.361 . S
C1283 H1301 0.931 . S
C1284 C1282 1.500 . S
C1284 C1285 1.371 . S
C1284 C1286 1.365 . S
C1285 C1284 1.371 . S
C1285 C1295 1.386 . S
C1285 H1303 0.931 . S
C1286 C1284 1.365 . S
C1286 C1287 1.409 . S
C1286 H1304 0.929 . S
C1287 C1286 1.409 . S
C1287 C1288 1.380 . S
C1287 H1305 0.930 . S
C1288 C1287 1.380 . S
C1288 C1295 1.357 . S
C1289 C1280 1.511 . S
C1289 C1290 1.341 . S
C1289 C1291 1.371 . S
C1290 C1289 1.341 . S
C1290 C1294 1.394 . S
C1290 H1306 0.930 . S
C1291 C1289 1.371 . S
C1291 C1292 1.392 . S
C1291 H1307 0.931 . S
C1292 C1291 1.392 . S
C1292 C1293 1.331 . S
C1292 H1310 0.932 . S
C1293 C1292 1.331 . S
C1293 C1294 1.336 . S
C1294 C1290 1.394 . S
C1294 C1293 1.336 . S
C1294 H1309 0.929 . S
C1295 C1285 1.386 . S
C1295 C1288 1.357 . S
C1295 H1308 0.928 . S
H1296 C1272 0.931 . S
H1297 C1274 0.930 . S
H1298 C1276 0.929 . S
H1299 C1277 0.931 . S
H1300 C1279 0.930 . S
H1301 C1283 0.931 . S
H1302 C1281 0.931 . S
H1303 C1285 0.931 . S
H1304 C1286 0.929 . S
H1305 C1287 0.930 . S
H1306 C1290 0.930 . S
H1307 C1291 0.931 . S
H1308 C1295 0.928 . S
H1309 C1294 0.929 . S
H1310 C1292 0.932 . S
C1311 C1312 1.386 . S
C1311 C1313 1.397 . S
C1311 H1335 0.931 . S
C1312 C1311 1.386 . S
C1312 C1316 1.397 1_655 S
C1313 C1311 1.397 . S
C1313 C1314 1.384 . S
C1313 H1336 0.930 . S
C1314 C1313 1.384 . S
C1314 C1315 1.377 1_655 S
C1314 C1317 1.481 . S
C1315 C1314 1.377 1_455 S
C1315 C1316 1.389 . S
C1315 H1337 0.929 . S
C1316 C1312 1.397 1_455 S
C1316 C1315 1.389 . S
C1316 H1338 0.931 . S
C1317 C1314 1.481 . S
C1317 C1318 1.387 . S
C1317 C1322 1.390 1_655 S
C1318 C1317 1.387 . S
C1318 C1319 1.401 . S
C1318 H1339 0.930 . S
C1319 C1318 1.401 . S
C1319 C1320 1.376 1_655 S
C1319 C1328 1.511 . S
C1320 C1319 1.376 1_455 S
C1320 C1321 1.392 . S
C1320 H1341 0.931 . S
C1321 C1320 1.392 . S
C1321 C1322 1.361 . S
C1321 C1323 1.500 . S
C1322 C1317 1.390 1_455 S
C1322 C1321 1.361 . S
C1322 H1340 0.931 . S
C1323 C1321 1.500 . S
C1323 C1324 1.371 . S
C1323 C1325 1.365 . S
C1324 C1323 1.371 . S
C1324 C1334 1.386 . S
C1324 H1342 0.931 . S
C1325 C1323 1.365 . S
C1325 C1326 1.409 . S
C1325 H1343 0.929 . S
C1326 C1325 1.409 . S
C1326 C1327 1.380 . S
C1326 H1344 0.930 . S
C1327 C1326 1.380 . S
C1327 C1334 1.357 . S
C1328 C1319 1.511 . S
C1328 C1329 1.341 . S
C1328 C1330 1.371 . S
C1329 C1328 1.341 . S
C1329 C1333 1.394 . S
C1329 H1345 0.930 . S
C1330 C1328 1.371 . S
C1330 C1331 1.392 . S
C1330 H1346 0.931 . S
C1331 C1330 1.392 . S
C1331 C1332 1.331 . S
C1331 H1349 0.932 . S
C1332 C1331 1.331 . S
C1332 C1333 1.336 . S
C1333 C1329 1.394 . S
C1333 C1332 1.336 . S
C1333 H1348 0.929 . S
C1334 C1324 1.386 . S
C1334 C1327 1.357 . S
C1334 H1347 0.928 . S
H1335 C1311 0.931 . S
H1336 C1313 0.930 . S
H1337 C1315 0.929 . S
H1338 C1316 0.931 . S
H1339 C1318 0.930 . S
H1340 C1322 0.931 . S
H1341 C1320 0.931 . S
H1342 C1324 0.931 . S
H1343 C1325 0.929 . S
H1344 C1326 0.930 . S
H1345 C1329 0.930 . S
H1346 C1330 0.931 . S
H1347 C1334 0.928 . S
H1348 C1333 0.929 . S
H1349 C1331 0.932 . S
C1350 C1351 1.386 . S
C1350 C1352 1.397 . S
C1350 H1374 0.931 . S
C1351 C1350 1.386 . S
C1351 C1355 1.397 . S
C1352 C1350 1.397 . S
C1352 C1353 1.384 . S
C1352 H1375 0.930 . S
C1353 C1352 1.384 . S
C1353 C1354 1.377 . S
C1353 C1356 1.481 . S
C1354 C1353 1.377 . S
C1354 C1355 1.389 . S
C1354 H1376 0.929 . S
C1355 C1351 1.397 . S
C1355 C1354 1.389 . S
C1355 H1377 0.931 . S
C1356 C1353 1.481 . S
C1356 C1357 1.387 . S
C1356 C1361 1.390 . S
C1357 C1356 1.387 . S
C1357 C1358 1.401 . S
C1357 H1378 0.930 . S
C1358 C1357 1.401 . S
C1358 C1359 1.376 . S
C1358 C1367 1.511 . S
C1359 C1358 1.376 . S
C1359 C1360 1.392 . S
C1359 H1380 0.931 . S
C1360 C1359 1.392 . S
C1360 C1361 1.361 . S
C1360 C1362 1.500 . S
C1361 C1356 1.390 . S
C1361 C1360 1.361 . S
C1361 H1379 0.931 . S
C1362 C1360 1.500 . S
C1362 C1363 1.371 . S
C1362 C1364 1.365 . S
C1363 C1362 1.371 . S
C1363 C1373 1.386 . S
C1363 H1381 0.931 . S
C1364 C1362 1.365 . S
C1364 C1365 1.409 . S
C1364 H1382 0.929 . S
C1365 C1364 1.409 . S
C1365 C1366 1.380 . S
C1365 H1383 0.930 . S
C1366 C1365 1.380 . S
C1366 C1373 1.357 . S
C1367 C1358 1.511 . S
C1367 C1368 1.341 . S
C1367 C1369 1.371 . S
C1368 C1367 1.341 . S
C1368 C1372 1.394 . S
C1368 H1384 0.930 . S
C1369 C1367 1.371 . S
C1369 C1370 1.392 . S
C1369 H1385 0.931 . S
C1370 C1369 1.392 . S
C1370 C1371 1.331 . S
C1370 H1388 0.932 . S
C1371 C1370 1.331 . S
C1371 C1372 1.336 . S
C1372 C1368 1.394 . S
C1372 C1371 1.336 . S
C1372 H1387 0.929 . S
C1373 C1363 1.386 . S
C1373 C1366 1.357 . S
C1373 H1386 0.928 . S
H1374 C1350 0.931 . S
H1375 C1352 0.930 . S
H1376 C1354 0.929 . S
H1377 C1355 0.931 . S
H1378 C1357 0.930 . S
H1379 C1361 0.931 . S
H1380 C1359 0.931 . S
H1381 C1363 0.931 . S
H1382 C1364 0.929 . S
H1383 C1365 0.930 . S
H1384 C1368 0.930 . S
H1385 C1369 0.931 . S
H1386 C1373 0.928 . S
H1387 C1372 0.929 . S
H1388 C1370 0.932 . S
C1389 C1390 1.349 1_455 S
C1389 C1391 1.397 . S
C1389 H1413 0.931 . S
C1390 C1389 1.349 1_655 S
C1390 C1394 1.432 . S
C1391 C1389 1.397 . S
C1391 C1392 1.400 . S
C1391 H1414 0.930 . S
C1392 C1391 1.400 . S
C1392 C1393 1.360 1_455 S
C1392 C1395 1.480 . S
C1393 C1392 1.360 1_655 S
C1393 C1394 1.389 . S
C1393 H1415 0.929 . S
C1394 C1390 1.432 . S
C1394 C1393 1.389 . S
C1394 H1416 0.931 . S
C1395 C1392 1.480 . S
C1395 C1396 1.422 . S
C1395 C1400 1.356 1_455 S
C1396 C1395 1.422 . S
C1396 C1397 1.401 . S
C1396 H1417 0.930 . S
C1397 C1396 1.401 . S
C1397 C1398 1.412 . S
C1397 C1406 1.511 . S
C1398 C1397 1.412 . S
C1398 C1399 1.356 1_455 S
C1398 H1419 0.931 . S
C1399 C1398 1.356 1_655 S
C1399 C1400 1.361 . S
C1399 C1401 1.500 . S
C1400 C1395 1.356 1_655 S
C1400 C1399 1.361 . S
C1400 H1418 0.931 . S
C1401 C1399 1.500 . S
C1401 C1402 1.371 . S
C1401 C1403 1.365 . S
C1402 C1401 1.371 . S
C1402 C1412 1.386 . S
C1402 H1420 0.931 . S
C1403 C1401 1.365 . S
C1403 C1404 1.409 . S
C1403 H1421 0.929 . S
C1404 C1403 1.409 . S
C1404 C1405 1.380 . S
C1404 H1422 0.930 . S
C1405 C1404 1.380 . S
C1405 C1412 1.357 . S
C1406 C1397 1.511 . S
C1406 C1407 1.341 . S
C1406 C1408 1.371 . S
C1407 C1406 1.341 . S
C1407 C1411 1.394 . S
C1407 H1423 0.930 . S
C1408 C1406 1.371 . S
C1408 C1409 1.392 . S
C1408 H1424 0.931 . S
C1409 C1408 1.392 . S
C1409 C1410 1.331 . S
C1409 H1427 0.932 . S
C1410 C1409 1.331 . S
C1410 C1411 1.336 . S
C1411 C1407 1.394 . S
C1411 C1410 1.336 . S
C1411 H1426 0.929 . S
C1412 C1402 1.386 . S
C1412 C1405 1.357 . S
C1412 H1425 0.928 . S
H1413 C1389 0.931 . S
H1414 C1391 0.930 . S
H1415 C1393 0.929 . S
H1416 C1394 0.931 . S
H1417 C1396 0.930 . S
H1418 C1400 0.931 . S
H1419 C1398 0.931 . S
H1420 C1402 0.931 . S
H1421 C1403 0.929 . S
H1422 C1404 0.930 . S
H1423 C1407 0.930 . S
H1424 C1408 0.931 . S
H1425 C1412 0.928 . S
H1426 C1411 0.929 . S
H1427 C1409 0.932 . S
C1428 C1429 1.386 . S
C1428 C1430 1.397 . S
C1428 H1452 0.931 . S
C1429 C1428 1.386 . S
C1429 C1433 1.397 . S
C1430 C1428 1.397 . S
C1430 C1431 1.384 . S
C1430 H1453 0.930 . S
C1431 C1430 1.384 . S
C1431 C1432 1.377 . S
C1431 C1434 1.481 . S
C1432 C1431 1.377 . S
C1432 C1433 1.389 . S
C1432 H1454 0.929 . S
C1433 C1429 1.397 . S
C1433 C1432 1.389 . S
C1433 H1455 0.931 . S
C1434 C1431 1.481 . S
C1434 C1435 1.387 . S
C1434 C1439 1.390 . S
C1435 C1434 1.387 . S
C1435 C1436 1.401 . S
C1435 H1456 0.930 . S
C1436 C1435 1.401 . S
C1436 C1437 1.376 . S
C1436 C1445 1.511 . S
C1437 C1436 1.376 . S
C1437 C1438 1.392 . S
C1437 H1458 0.931 . S
C1438 C1437 1.392 . S
C1438 C1439 1.361 . S
C1438 C1440 1.500 . S
C1439 C1434 1.390 . S
C1439 C1438 1.361 . S
C1439 H1457 0.931 . S
C1440 C1438 1.500 . S
C1440 C1441 1.371 . S
C1440 C1442 1.365 . S
C1441 C1440 1.371 . S
C1441 C1451 1.386 . S
C1441 H1459 0.931 . S
C1442 C1440 1.365 . S
C1442 C1443 1.409 . S
C1442 H1460 0.929 . S
C1443 C1442 1.409 . S
C1443 C1444 1.380 . S
C1443 H1461 0.930 . S
C1444 C1443 1.380 . S
C1444 C1451 1.357 . S
C1445 C1436 1.511 . S
C1445 C1446 1.341 . S
C1445 C1447 1.371 . S
C1446 C1445 1.341 . S
C1446 C1450 1.394 . S
C1446 H1462 0.930 . S
C1447 C1445 1.371 . S
C1447 C1448 1.392 . S
C1447 H1463 0.931 . S
C1448 C1447 1.392 . S
C1448 C1449 1.331 . S
C1448 H1466 0.932 . S
C1449 C1448 1.331 . S
C1449 C1450 1.336 . S
C1450 C1446 1.394 . S
C1450 C1449 1.336 . S
C1450 H1465 0.929 . S
C1451 C1441 1.386 . S
C1451 C1444 1.357 . S
C1451 H1464 0.928 . S
H1452 C1428 0.931 . S
H1453 C1430 0.930 . S
H1454 C1432 0.929 . S
H1455 C1433 0.931 . S
H1456 C1435 0.930 . S
H1457 C1439 0.931 . S
H1458 C1437 0.931 . S
H1459 C1441 0.931 . S
H1460 C1442 0.929 . S
H1461 C1443 0.930 . S
H1462 C1446 0.930 . S
H1463 C1447 0.931 . S
H1464 C1451 0.928 . S
H1465 C1450 0.929 . S
H1466 C1448 0.932 . S
C1467 C1468 1.386 . S
C1467 C1469 1.397 . S
C1467 H1491 0.931 . S
C1468 C1467 1.386 . S
C1468 C1472 1.397 . S
C1469 C1467 1.397 . S
C1469 C1470 1.384 . S
C1469 H1492 0.930 . S
C1470 C1469 1.384 . S
C1470 C1471 1.377 . S
C1470 C1473 1.481 . S
C1471 C1470 1.377 . S
C1471 C1472 1.389 . S
C1471 H1493 0.929 . S
C1472 C1468 1.397 . S
C1472 C1471 1.389 . S
C1472 H1494 0.931 . S
C1473 C1470 1.481 . S
C1473 C1474 1.387 . S
C1473 C1478 1.390 . S
C1474 C1473 1.387 . S
C1474 C1475 1.401 . S
C1474 H1495 0.930 . S
C1475 C1474 1.401 . S
C1475 C1476 1.376 . S
C1475 C1484 1.511 . S
C1476 C1475 1.376 . S
C1476 C1477 1.392 . S
C1476 H1497 0.931 . S
C1477 C1476 1.392 . S
C1477 C1478 1.361 . S
C1477 C1479 1.500 . S
C1478 C1473 1.390 . S
C1478 C1477 1.361 . S
C1478 H1496 0.931 . S
C1479 C1477 1.500 . S
C1479 C1480 1.371 . S
C1479 C1481 1.365 . S
C1480 C1479 1.371 . S
C1480 C1490 1.386 . S
C1480 H1498 0.931 . S
C1481 C1479 1.365 . S
C1481 C1482 1.409 . S
C1481 H1499 0.929 . S
C1482 C1481 1.409 . S
C1482 C1483 1.380 . S
C1482 H1500 0.930 . S
C1483 C1482 1.380 . S
C1483 C1490 1.357 . S
C1484 C1475 1.511 . S
C1484 C1485 1.341 . S
C1484 C1486 1.371 . S
C1485 C1484 1.341 . S
C1485 C1489 1.394 . S
C1485 H1501 0.930 . S
C1486 C1484 1.371 . S
C1486 C1487 1.392 . S
C1486 H1502 0.931 . S
C1487 C1486 1.392 . S
C1487 C1488 1.331 . S
C1487 H1505 0.932 . S
C1488 C1487 1.331 . S
C1488 C1489 1.336 . S
C1489 C1485 1.394 . S
C1489 C1488 1.336 . S
C1489 H1504 0.929 . S
C1490 C1480 1.386 . S
C1490 C1483 1.357 . S
C1490 H1503 0.928 . S
H1491 C1467 0.931 . S
H1492 C1469 0.930 . S
H1493 C1471 0.929 . S
H1494 C1472 0.931 . S
H1495 C1474 0.930 . S
H1496 C1478 0.931 . S
H1497 C1476 0.931 . S
H1498 C1480 0.931 . S
H1499 C1481 0.929 . S
H1500 C1482 0.930 . S
H1501 C1485 0.930 . S
H1502 C1486 0.931 . S
H1503 C1490 0.928 . S
H1504 C1489 0.929 . S
H1505 C1487 0.932 . S
C1506 C1507 1.356 1_565 S
C1506 C1508 1.397 . S
C1506 H1530 0.931 . S
C1507 C1506 1.356 1_545 S
C1507 C1511 1.425 . S
C1508 C1506 1.397 . S
C1508 C1509 1.395 . S
C1508 H1531 0.930 . S
C1509 C1508 1.395 . S
C1509 C1510 1.366 1_565 S
C1509 C1512 1.481 . S
C1510 C1509 1.366 1_545 S
C1510 C1511 1.389 . S
C1510 H1532 0.929 . S
C1511 C1507 1.425 . S
C1511 C1510 1.389 . S
C1511 H1533 0.931 . S
C1512 C1509 1.481 . S
C1512 C1513 1.413 . S
C1512 C1517 1.365 1_565 S
C1513 C1512 1.413 . S
C1513 C1514 1.401 . S
C1513 H1534 0.930 . S
C1514 C1513 1.401 . S
C1514 C1515 1.400 . S
C1514 C1523 1.511 . S
C1515 C1514 1.400 . S
C1515 C1516 1.369 1_565 S
C1515 H1536 0.931 . S
C1516 C1515 1.369 1_545 S
C1516 C1517 1.361 . S
C1516 C1518 1.500 . S
C1517 C1512 1.365 1_545 S
C1517 C1516 1.361 . S
C1517 H1535 0.931 . S
C1518 C1516 1.500 . S
C1518 C1519 1.371 . S
C1518 C1520 1.365 . S
C1519 C1518 1.371 . S
C1519 C1529 1.386 . S
C1519 H1537 0.931 . S
C1520 C1518 1.365 . S
C1520 C1521 1.409 . S
C1520 H1538 0.929 . S
C1521 C1520 1.409 . S
C1521 C1522 1.380 . S
C1521 H1539 0.930 . S
C1522 C1521 1.380 . S
C1522 C1529 1.357 . S
C1523 C1514 1.511 . S
C1523 C1524 1.341 . S
C1523 C1525 1.371 . S
C1524 C1523 1.341 . S
C1524 C1528 1.394 . S
C1524 H1540 0.930 . S
C1525 C1523 1.371 . S
C1525 C1526 1.392 . S
C1525 H1541 0.931 . S
C1526 C1525 1.392 . S
C1526 C1527 1.331 . S
C1526 H1544 0.932 . S
C1527 C1526 1.331 . S
C1527 C1528 1.336 . S
C1528 C1524 1.394 . S
C1528 C1527 1.336 . S
C1528 H1543 0.929 . S
C1529 C1519 1.386 . S
C1529 C1522 1.357 . S
C1529 H1542 0.928 . S
H1530 C1506 0.931 . S
H1531 C1508 0.930 . S
H1532 C1510 0.929 . S
H1533 C1511 0.931 . S
H1534 C1513 0.930 . S
H1535 C1517 0.931 . S
H1536 C1515 0.931 . S
H1537 C1519 0.931 . S
H1538 C1520 0.929 . S
H1539 C1521 0.930 . S
H1540 C1524 0.930 . S
H1541 C1525 0.931 . S
H1542 C1529 0.928 . S
H1543 C1528 0.929 . S
H1544 C1526 0.932 . S
C1545 C1546 1.386 . S
C1545 C1547 1.397 . S
C1545 H1569 0.931 . S
C1546 C1545 1.386 . S
C1546 C1550 1.373 1_545 S
C1547 C1545 1.397 . S
C1547 C1548 1.384 . S
C1547 H1570 0.930 . S
C1548 C1547 1.384 . S
C1548 C1549 1.377 1_545 S
C1548 C1551 1.481 . S
C1549 C1548 1.377 1_565 S
C1549 C1550 1.395 . S
C1549 H1571 0.929 . S
C1550 C1546 1.373 1_565 S
C1550 C1549 1.395 . S
C1550 H1572 0.951 . S
C1551 C1548 1.481 . S
C1551 C1552 1.387 . S
C1551 C1556 1.390 1_545 S
C1552 C1551 1.387 . S
C1552 C1553 1.401 . S
C1552 H1573 0.930 . S
C1553 C1552 1.401 . S
C1553 C1554 1.376 1_545 S
C1553 C1562 1.511 . S
C1554 C1553 1.376 1_565 S
C1554 C1555 1.392 . S
C1554 H1575 0.931 . S
C1555 C1554 1.392 . S
C1555 C1556 1.361 . S
C1555 C1557 1.500 . S
C1556 C1551 1.390 1_565 S
C1556 C1555 1.361 . S
C1556 H1574 0.931 . S
C1557 C1555 1.500 . S
C1557 C1558 1.371 . S
C1557 C1559 1.365 . S
C1558 C1557 1.371 . S
C1558 C1568 1.386 . S
C1558 H1576 0.931 . S
C1559 C1557 1.365 . S
C1559 C1560 1.409 . S
C1559 H1577 0.929 . S
C1560 C1559 1.409 . S
C1560 C1561 1.380 . S
C1560 H1578 0.930 . S
C1561 C1560 1.380 . S
C1561 C1568 1.357 . S
C1562 C1553 1.511 . S
C1562 C1563 1.341 . S
C1562 C1564 1.371 . S
C1563 C1562 1.341 . S
C1563 C1567 1.394 . S
C1563 H1579 0.930 . S
C1564 C1562 1.371 . S
C1564 C1565 1.392 . S
C1564 H1580 0.931 . S
C1565 C1564 1.392 . S
C1565 C1566 1.331 . S
C1565 H1583 0.932 . S
C1566 C1565 1.331 . S
C1566 C1567 1.336 . S
C1567 C1563 1.394 . S
C1567 C1566 1.336 . S
C1567 H1582 0.929 . S
C1568 C1558 1.386 . S
C1568 C1561 1.357 . S
C1568 H1581 0.928 . S
H1569 C1545 0.931 . S
H1570 C1547 0.930 . S
H1571 C1549 0.929 . S
H1572 C1550 0.951 . S
H1573 C1552 0.930 . S
H1574 C1556 0.931 . S
H1575 C1554 0.931 . S
H1576 C1558 0.931 . S
H1577 C1559 0.929 . S
H1578 C1560 0.930 . S
H1579 C1563 0.930 . S
H1580 C1564 0.931 . S
H1581 C1568 0.928 . S
H1582 C1567 0.929 . S
H1583 C1565 0.932 . S
C1584 C1585 1.386 . S
C1584 C1586 1.397 . S
C1584 H1608 0.931 . S
C1585 C1584 1.386 . S
C1585 C1589 1.397 . S
C1586 C1584 1.397 . S
C1586 C1587 1.384 . S
C1586 H1609 0.930 . S
C1587 C1586 1.384 . S
C1587 C1588 1.377 . S
C1587 C1590 1.481 . S
C1588 C1587 1.377 . S
C1588 C1589 1.389 . S
C1588 H1610 0.929 . S
C1589 C1585 1.397 . S
C1589 C1588 1.389 . S
C1589 H1611 0.931 . S
C1590 C1587 1.481 . S
C1590 C1591 1.387 . S
C1590 C1595 1.390 . S
C1591 C1590 1.387 . S
C1591 C1592 1.401 . S
C1591 H1612 0.930 . S
C1592 C1591 1.401 . S
C1592 C1593 1.376 . S
C1592 C1601 1.511 . S
C1593 C1592 1.376 . S
C1593 C1594 1.392 . S
C1593 H1614 0.931 . S
C1594 C1593 1.392 . S
C1594 C1595 1.361 . S
C1594 C1596 1.500 . S
C1595 C1590 1.390 . S
C1595 C1594 1.361 . S
C1595 H1613 0.931 . S
C1596 C1594 1.500 . S
C1596 C1597 1.371 . S
C1596 C1598 1.365 . S
C1597 C1596 1.371 . S
C1597 C1607 1.386 . S
C1597 H1615 0.931 . S
C1598 C1596 1.365 . S
C1598 C1599 1.409 . S
C1598 H1616 0.929 . S
C1599 C1598 1.409 . S
C1599 C1600 1.380 . S
C1599 H1617 0.930 . S
C1600 C1599 1.380 . S
C1600 C1607 1.357 . S
C1601 C1592 1.511 . S
C1601 C1602 1.341 . S
C1601 C1603 1.371 . S
C1602 C1601 1.341 . S
C1602 C1606 1.394 . S
C1602 H1618 0.930 . S
C1603 C1601 1.371 . S
C1603 C1604 1.392 . S
C1603 H1619 0.931 . S
C1604 C1603 1.392 . S
C1604 C1605 1.331 . S
C1604 H1622 0.932 . S
C1605 C1604 1.331 . S
C1605 C1606 1.336 . S
C1606 C1602 1.394 . S
C1606 C1605 1.336 . S
C1606 H1621 0.929 . S
C1607 C1597 1.386 . S
C1607 C1600 1.357 . S
C1607 H1620 0.928 . S
H1608 C1584 0.931 . S
H1609 C1586 0.930 . S
H1610 C1588 0.929 . S
H1611 C1589 0.931 . S
H1612 C1591 0.930 . S
H1613 C1595 0.931 . S
H1614 C1593 0.931 . S
H1615 C1597 0.931 . S
H1616 C1598 0.929 . S
H1617 C1599 0.930 . S
H1618 C1602 0.930 . S
H1619 C1603 0.931 . S
H1620 C1607 0.928 . S
H1621 C1606 0.929 . S
H1622 C1604 0.932 . S
C1623 C1624 1.386 . S
C1623 C1625 1.397 . S
C1623 H1647 0.931 . S
C1624 C1623 1.386 . S
C1624 C1628 1.373 1_554 S
C1625 C1623 1.397 . S
C1625 C1626 1.384 . S
C1625 H1648 0.930 . S
C1626 C1625 1.384 . S
C1626 C1627 1.377 1_554 S
C1626 C1629 1.481 . S
C1627 C1626 1.377 1_556 S
C1627 C1628 1.395 . S
C1627 H1649 0.929 . S
C1628 C1624 1.373 1_556 S
C1628 C1627 1.395 . S
C1628 H1650 0.951 . S
C1629 C1626 1.481 . S
C1629 C1630 1.387 . S
C1629 C1634 1.390 1_554 S
C1630 C1629 1.387 . S
C1630 C1631 1.401 . S
C1630 H1651 0.930 . S
C1631 C1630 1.401 . S
C1631 C1632 1.376 1_554 S
C1631 C1640 1.511 . S
C1632 C1631 1.376 1_556 S
C1632 C1633 1.392 . S
C1632 H1653 0.931 . S
C1633 C1632 1.392 . S
C1633 C1634 1.361 . S
C1633 C1635 1.500 . S
C1634 C1629 1.390 1_556 S
C1634 C1633 1.361 . S
C1634 H1652 0.931 . S
C1635 C1633 1.500 . S
C1635 C1636 1.371 . S
C1635 C1637 1.365 . S
C1636 C1635 1.371 . S
C1636 C1646 1.386 . S
C1636 H1654 0.931 . S
C1637 C1635 1.365 . S
C1637 C1638 1.409 . S
C1637 H1655 0.929 . S
C1638 C1637 1.409 . S
C1638 C1639 1.380 . S
C1638 H1656 0.930 . S
C1639 C1638 1.380 . S
C1639 C1646 1.357 . S
C1640 C1631 1.511 . S
C1640 C1641 1.341 . S
C1640 C1642 1.371 . S
C1641 C1640 1.341 . S
C1641 C1645 1.394 . S
C1641 H1657 0.930 . S
C1642 C1640 1.371 . S
C1642 C1643 1.392 . S
C1642 H1658 0.931 . S
C1643 C1642 1.392 . S
C1643 C1644 1.331 . S
C1643 H1661 0.932 . S
C1644 C1643 1.331 . S
C1644 C1645 1.336 . S
C1645 C1641 1.394 . S
C1645 C1644 1.336 . S
C1645 H1660 0.929 . S
C1646 C1636 1.386 . S
C1646 C1639 1.357 . S
C1646 H1659 0.928 . S
H1647 C1623 0.931 . S
H1648 C1625 0.930 . S
H1649 C1627 0.929 . S
H1650 C1628 0.951 . S
H1651 C1630 0.930 . S
H1652 C1634 0.931 . S
H1653 C1632 0.931 . S
H1654 C1636 0.931 . S
H1655 C1637 0.929 . S
H1656 C1638 0.930 . S
H1657 C1641 0.930 . S
H1658 C1642 0.931 . S
H1659 C1646 0.928 . S
H1660 C1645 0.929 . S
H1661 C1643 0.932 . S
C1662 C1663 1.386 . S
C1662 C1664 1.397 . S
C1662 H1686 0.931 . S
C1663 C1662 1.386 . S
C1663 C1667 1.397 . S
C1664 C1662 1.397 . S
C1664 C1665 1.384 . S
C1664 H1687 0.930 . S
C1665 C1664 1.384 . S
C1665 C1666 1.377 . S
C1665 C1668 1.481 . S
C1666 C1665 1.377 . S
C1666 C1667 1.389 . S
C1666 H1688 0.929 . S
C1667 C1663 1.397 . S
C1667 C1666 1.389 . S
C1667 H1689 0.931 . S
C1668 C1665 1.481 . S
C1668 C1669 1.387 . S
C1668 C1673 1.390 . S
C1669 C1668 1.387 . S
C1669 C1670 1.401 . S
C1669 H1690 0.930 . S
C1670 C1669 1.401 . S
C1670 C1671 1.376 . S
C1670 C1679 1.511 . S
C1671 C1670 1.376 . S
C1671 C1672 1.392 . S
C1671 H1692 0.931 . S
C1672 C1671 1.392 . S
C1672 C1673 1.361 . S
C1672 C1674 1.500 . S
C1673 C1668 1.390 . S
C1673 C1672 1.361 . S
C1673 H1691 0.931 . S
C1674 C1672 1.500 . S
C1674 C1675 1.371 . S
C1674 C1676 1.365 . S
C1675 C1674 1.371 . S
C1675 C1685 1.386 . S
C1675 H1693 0.931 . S
C1676 C1674 1.365 . S
C1676 C1677 1.409 . S
C1676 H1694 0.929 . S
C1677 C1676 1.409 . S
C1677 C1678 1.380 . S
C1677 H1695 0.930 . S
C1678 C1677 1.380 . S
C1678 C1685 1.357 . S
C1679 C1670 1.511 . S
C1679 C1680 1.341 . S
C1679 C1681 1.371 . S
C1680 C1679 1.341 . S
C1680 C1684 1.394 . S
C1680 H1696 0.930 . S
C1681 C1679 1.371 . S
C1681 C1682 1.392 . S
C1681 H1697 0.931 . S
C1682 C1681 1.392 . S
C1682 C1683 1.331 . S
C1682 H1700 0.932 . S
C1683 C1682 1.331 . S
C1683 C1684 1.336 . S
C1684 C1680 1.394 . S
C1684 C1683 1.336 . S
C1684 H1699 0.929 . S
C1685 C1675 1.386 . S
C1685 C1678 1.357 . S
C1685 H1698 0.928 . S
H1686 C1662 0.931 . S
H1687 C1664 0.930 . S
H1688 C1666 0.929 . S
H1689 C1667 0.931 . S
H1690 C1669 0.930 . S
H1691 C1673 0.931 . S
H1692 C1671 0.931 . S
H1693 C1675 0.931 . S
H1694 C1676 0.929 . S
H1695 C1677 0.930 . S
H1696 C1680 0.930 . S
H1697 C1681 0.931 . S
H1698 C1685 0.928 . S
H1699 C1684 0.929 . S
H1700 C1682 0.932 . S
C1701 C1702 1.356 1_556 S
C1701 C1703 1.397 . S
C1701 H1725 0.931 . S
C1702 C1701 1.356 1_554 S
C1702 C1706 1.425 . S
C1703 C1701 1.397 . S
C1703 C1704 1.395 . S
C1703 H1726 0.930 . S
C1704 C1703 1.395 . S
C1704 C1705 1.366 1_556 S
C1704 C1707 1.481 . S
C1705 C1704 1.366 1_554 S
C1705 C1706 1.389 . S
C1705 H1727 0.929 . S
C1706 C1702 1.425 . S
C1706 C1705 1.389 . S
C1706 H1728 0.931 . S
C1707 C1704 1.481 . S
C1707 C1708 1.413 . S
C1707 C1712 1.365 1_556 S
C1708 C1707 1.413 . S
C1708 C1709 1.401 . S
C1708 H1729 0.930 . S
C1709 C1708 1.401 . S
C1709 C1710 1.400 . S
C1709 C1718 1.511 . S
C1710 C1709 1.400 . S
C1710 C1711 1.369 1_556 S
C1710 H1731 0.931 . S
C1711 C1710 1.369 1_554 S
C1711 C1712 1.361 . S
C1711 C1713 1.500 . S
C1712 C1707 1.365 1_554 S
C1712 C1711 1.361 . S
C1712 H1730 0.931 . S
C1713 C1711 1.500 . S
C1713 C1714 1.371 . S
C1713 C1715 1.365 . S
C1714 C1713 1.371 . S
C1714 C1724 1.386 . S
C1714 H1732 0.931 . S
C1715 C1713 1.365 . S
C1715 C1716 1.409 . S
C1715 H1733 0.929 . S
C1716 C1715 1.409 . S
C1716 C1717 1.380 . S
C1716 H1734 0.930 . S
C1717 C1716 1.380 . S
C1717 C1724 1.357 . S
C1718 C1709 1.511 . S
C1718 C1719 1.341 . S
C1718 C1720 1.371 . S
C1719 C1718 1.341 . S
C1719 C1723 1.394 . S
C1719 H1735 0.930 . S
C1720 C1718 1.371 . S
C1720 C1721 1.392 . S
C1720 H1736 0.931 . S
C1721 C1720 1.392 . S
C1721 C1722 1.331 . S
C1721 H1739 0.932 . S
C1722 C1721 1.331 . S
C1722 C1723 1.336 . S
C1723 C1719 1.394 . S
C1723 C1722 1.336 . S
C1723 H1738 0.929 . S
C1724 C1714 1.386 . S
C1724 C1717 1.357 . S
C1724 H1737 0.928 . S
H1725 C1701 0.931 . S
H1726 C1703 0.930 . S
H1727 C1705 0.929 . S
H1728 C1706 0.931 . S
H1729 C1708 0.930 . S
H1730 C1712 0.931 . S
H1731 C1710 0.931 . S
H1732 C1714 0.931 . S
H1733 C1715 0.929 . S
H1734 C1716 0.930 . S
H1735 C1719 0.930 . S
H1736 C1720 0.931 . S
H1737 C1724 0.928 . S
H1738 C1723 0.929 . S
H1739 C1721 0.932 . S
C1740 C1741 1.386 . S
C1740 C1742 1.397 . S
C1740 H1764 0.931 . S
C1741 C1740 1.386 . S
C1741 C1745 1.397 . S
C1742 C1740 1.397 . S
C1742 C1743 1.384 . S
C1742 H1765 0.930 . S
C1743 C1742 1.384 . S
C1743 C1744 1.377 . S
C1743 C1746 1.481 . S
C1744 C1743 1.377 . S
C1744 C1745 1.389 . S
C1744 H1766 0.929 . S
C1745 C1741 1.397 . S
C1745 C1744 1.389 . S
C1745 H1767 0.931 . S
C1746 C1743 1.481 . S
C1746 C1747 1.387 . S
C1746 C1751 1.390 . S
C1747 C1746 1.387 . S
C1747 C1748 1.401 . S
C1747 H1768 0.930 . S
C1748 C1747 1.401 . S
C1748 C1749 1.376 . S
C1748 C1757 1.511 . S
C1749 C1748 1.376 . S
C1749 C1750 1.392 . S
C1749 H1770 0.931 . S
C1750 C1749 1.392 . S
C1750 C1751 1.361 . S
C1750 C1752 1.500 . S
C1751 C1746 1.390 . S
C1751 C1750 1.361 . S
C1751 H1769 0.931 . S
C1752 C1750 1.500 . S
C1752 C1753 1.371 . S
C1752 C1754 1.365 . S
C1753 C1752 1.371 . S
C1753 C1763 1.386 . S
C1753 H1771 0.931 . S
C1754 C1752 1.365 . S
C1754 C1755 1.409 . S
C1754 H1772 0.929 . S
C1755 C1754 1.409 . S
C1755 C1756 1.380 . S
C1755 H1773 0.930 . S
C1756 C1755 1.380 . S
C1756 C1763 1.357 . S
C1757 C1748 1.511 . S
C1757 C1758 1.341 . S
C1757 C1759 1.371 . S
C1758 C1757 1.341 . S
C1758 C1762 1.394 . S
C1758 H1774 0.930 . S
C1759 C1757 1.371 . S
C1759 C1760 1.392 . S
C1759 H1775 0.931 . S
C1760 C1759 1.392 . S
C1760 C1761 1.331 . S
C1760 H1778 0.932 . S
C1761 C1760 1.331 . S
C1761 C1762 1.336 . S
C1762 C1758 1.394 . S
C1762 C1761 1.336 . S
C1762 H1777 0.929 . S
C1763 C1753 1.386 . S
C1763 C1756 1.357 . S
C1763 H1776 0.928 . S
H1764 C1740 0.931 . S
H1765 C1742 0.930 . S
H1766 C1744 0.929 . S
H1767 C1745 0.931 . S
H1768 C1747 0.930 . S
H1769 C1751 0.931 . S
H1770 C1749 0.931 . S
H1771 C1753 0.931 . S
H1772 C1754 0.929 . S
H1773 C1755 0.930 . S
H1774 C1758 0.930 . S
H1775 C1759 0.931 . S
H1776 C1763 0.928 . S
H1777 C1762 0.929 . S
H1778 C1760 0.932 . S
C1779 C1780 1.386 . S
C1779 C1781 1.397 . S
C1779 H1803 0.931 . S
C1780 C1779 1.386 . S
C1780 C1784 1.373 1_455 S
C1781 C1779 1.397 . S
C1781 C1782 1.384 . S
C1781 H1804 0.930 . S
C1782 C1781 1.384 . S
C1782 C1783 1.377 1_455 S
C1782 C1785 1.481 . S
C1783 C1782 1.377 1_655 S
C1783 C1784 1.395 . S
C1783 H1805 0.929 . S
C1784 C1780 1.373 1_655 S
C1784 C1783 1.395 . S
C1784 H1806 0.951 . S
C1785 C1782 1.481 . S
C1785 C1786 1.387 . S
C1785 C1790 1.390 1_455 S
C1786 C1785 1.387 . S
C1786 C1787 1.401 . S
C1786 H1807 0.930 . S
C1787 C1786 1.401 . S
C1787 C1788 1.376 1_455 S
C1787 C1796 1.511 . S
C1788 C1787 1.376 1_655 S
C1788 C1789 1.392 . S
C1788 H1809 0.931 . S
C1789 C1788 1.392 . S
C1789 C1790 1.361 . S
C1789 C1791 1.500 . S
C1790 C1785 1.390 1_655 S
C1790 C1789 1.361 . S
C1790 H1808 0.931 . S
C1791 C1789 1.500 . S
C1791 C1792 1.371 . S
C1791 C1793 1.365 . S
C1792 C1791 1.371 . S
C1792 C1802 1.386 . S
C1792 H1810 0.931 . S
C1793 C1791 1.365 . S
C1793 C1794 1.409 . S
C1793 H1811 0.929 . S
C1794 C1793 1.409 . S
C1794 C1795 1.380 . S
C1794 H1812 0.930 . S
C1795 C1794 1.380 . S
C1795 C1802 1.357 . S
C1796 C1787 1.511 . S
C1796 C1797 1.341 . S
C1796 C1798 1.371 . S
C1797 C1796 1.341 . S
C1797 C1801 1.394 . S
C1797 H1813 0.930 . S
C1798 C1796 1.371 . S
C1798 C1799 1.392 . S
C1798 H1814 0.931 . S
C1799 C1798 1.392 . S
C1799 C1800 1.331 . S
C1799 H1817 0.932 . S
C1800 C1799 1.331 . S
C1800 C1801 1.336 . S
C1801 C1797 1.394 . S
C1801 C1800 1.336 . S
C1801 H1816 0.929 . S
C1802 C1792 1.386 . S
C1802 C1795 1.357 . S
C1802 H1815 0.928 . S
H1803 C1779 0.931 . S
H1804 C1781 0.930 . S
H1805 C1783 0.929 . S
H1806 C1784 0.951 . S
H1807 C1786 0.930 . S
H1808 C1790 0.931 . S
H1809 C1788 0.931 . S
H1810 C1792 0.931 . S
H1811 C1793 0.929 . S
H1812 C1794 0.930 . S
H1813 C1797 0.930 . S
H1814 C1798 0.931 . S
H1815 C1802 0.928 . S
H1816 C1801 0.929 . S
H1817 C1799 0.932 . S
C1818 C1819 1.386 . S
C1818 C1820 1.397 . S
C1818 H1842 0.931 . S
C1819 C1818 1.386 . S
C1819 C1823 1.397 . S
C1820 C1818 1.397 . S
C1820 C1821 1.384 . S
C1820 H1843 0.930 . S
C1821 C1820 1.384 . S
C1821 C1822 1.377 . S
C1821 C1824 1.481 . S
C1822 C1821 1.377 . S
C1822 C1823 1.389 . S
C1822 H1844 0.929 . S
C1823 C1819 1.397 . S
C1823 C1822 1.389 . S
C1823 H1845 0.931 . S
C1824 C1821 1.481 . S
C1824 C1825 1.387 . S
C1824 C1829 1.390 . S
C1825 C1824 1.387 . S
C1825 C1826 1.401 . S
C1825 H1846 0.930 . S
C1826 C1825 1.401 . S
C1826 C1827 1.376 . S
C1826 C1835 1.511 . S
C1827 C1826 1.376 . S
C1827 C1828 1.392 . S
C1827 H1848 0.931 . S
C1828 C1827 1.392 . S
C1828 C1829 1.361 . S
C1828 C1830 1.500 . S
C1829 C1824 1.390 . S
C1829 C1828 1.361 . S
C1829 H1847 0.931 . S
C1830 C1828 1.500 . S
C1830 C1831 1.371 . S
C1830 C1832 1.365 . S
C1831 C1830 1.371 . S
C1831 C1841 1.386 . S
C1831 H1849 0.931 . S
C1832 C1830 1.365 . S
C1832 C1833 1.409 . S
C1832 H1850 0.929 . S
C1833 C1832 1.409 . S
C1833 C1834 1.380 . S
C1833 H1851 0.930 . S
C1834 C1833 1.380 . S
C1834 C1841 1.357 . S
C1835 C1826 1.511 . S
C1835 C1836 1.341 . S
C1835 C1837 1.371 . S
C1836 C1835 1.341 . S
C1836 C1840 1.394 . S
C1836 H1852 0.930 . S
C1837 C1835 1.371 . S
C1837 C1838 1.392 . S
C1837 H1853 0.931 . S
C1838 C1837 1.392 . S
C1838 C1839 1.331 . S
C1838 H1856 0.932 . S
C1839 C1838 1.331 . S
C1839 C1840 1.336 . S
C1840 C1836 1.394 . S
C1840 C1839 1.336 . S
C1840 H1855 0.929 . S
C1841 C1831 1.386 . S
C1841 C1834 1.357 . S
C1841 H1854 0.928 . S
H1842 C1818 0.931 . S
H1843 C1820 0.930 . S
H1844 C1822 0.929 . S
H1845 C1823 0.931 . S
H1846 C1825 0.930 . S
H1847 C1829 0.931 . S
H1848 C1827 0.931 . S
H1849 C1831 0.931 . S
H1850 C1832 0.929 . S
H1851 C1833 0.930 . S
H1852 C1836 0.930 . S
H1853 C1837 0.931 . S
H1854 C1841 0.928 . S
H1855 C1840 0.929 . S
H1856 C1838 0.932 . S
C1857 C1858 1.356 1_655 S
C1857 C1859 1.397 . S
C1857 H1881 0.931 . S
C1858 C1857 1.356 1_455 S
C1858 C1862 1.425 . S
C1859 C1857 1.397 . S
C1859 C1860 1.395 . S
C1859 H1882 0.930 . S
C1860 C1859 1.395 . S
C1860 C1861 1.366 1_655 S
C1860 C1863 1.481 . S
C1861 C1860 1.366 1_455 S
C1861 C1862 1.389 . S
C1861 H1883 0.929 . S
C1862 C1858 1.425 . S
C1862 C1861 1.389 . S
C1862 H1884 0.931 . S
C1863 C1860 1.481 . S
C1863 C1864 1.413 . S
C1863 C1868 1.365 1_655 S
C1864 C1863 1.413 . S
C1864 C1865 1.401 . S
C1864 H1885 0.930 . S
C1865 C1864 1.401 . S
C1865 C1866 1.400 . S
C1865 C1874 1.511 . S
C1866 C1865 1.400 . S
C1866 C1867 1.369 1_655 S
C1866 H1887 0.931 . S
C1867 C1866 1.369 1_455 S
C1867 C1868 1.361 . S
C1867 C1869 1.500 . S
C1868 C1863 1.365 1_455 S
C1868 C1867 1.361 . S
C1868 H1886 0.931 . S
C1869 C1867 1.500 . S
C1869 C1870 1.371 . S
C1869 C1871 1.365 . S
C1870 C1869 1.371 . S
C1870 C1880 1.386 . S
C1870 H1888 0.931 . S
C1871 C1869 1.365 . S
C1871 C1872 1.409 . S
C1871 H1889 0.929 . S
C1872 C1871 1.409 . S
C1872 C1873 1.380 . S
C1872 H1890 0.930 . S
C1873 C1872 1.380 . S
C1873 C1880 1.357 . S
C1874 C1865 1.511 . S
C1874 C1875 1.341 . S
C1874 C1876 1.371 . S
C1875 C1874 1.341 . S
C1875 C1879 1.394 . S
C1875 H1891 0.930 . S
C1876 C1874 1.371 . S
C1876 C1877 1.392 . S
C1876 H1892 0.931 . S
C1877 C1876 1.392 . S
C1877 C1878 1.331 . S
C1877 H1895 0.932 . S
C1878 C1877 1.331 . S
C1878 C1879 1.336 . S
C1879 C1875 1.394 . S
C1879 C1878 1.336 . S
C1879 H1894 0.929 . S
C1880 C1870 1.386 . S
C1880 C1873 1.357 . S
C1880 H1893 0.928 . S
H1881 C1857 0.931 . S
H1882 C1859 0.930 . S
H1883 C1861 0.929 . S
H1884 C1862 0.931 . S
H1885 C1864 0.930 . S
H1886 C1868 0.931 . S
H1887 C1866 0.931 . S
H1888 C1870 0.931 . S
H1889 C1871 0.929 . S
H1890 C1872 0.930 . S
H1891 C1875 0.930 . S
H1892 C1876 0.931 . S
H1893 C1880 0.928 . S
H1894 C1879 0.929 . S
H1895 C1877 0.932 . S
C1896 C1897 1.391 . S
C1896 C1898 1.394 . S
C1896 H1912 0.931 . S
C1897 C1896 1.391 . S
C1897 C1901 1.376 . S
C1898 C1896 1.394 . S
C1898 C1899 1.369 . S
C1898 C1902 1.531 . S
C1899 C1898 1.369 . S
C1899 C1900 1.410 . S
C1899 C1907 1.503 . S
C1900 C1899 1.410 . S
C1900 C1901 1.392 . S
C1900 C1903 1.511 . S
C1901 C1897 1.376 . S
C1901 C1900 1.392 . S
C1901 H1913 0.929 . S
C1902 C1898 1.531 . S
C1902 H1914 0.960 . S
C1902 H1915 0.962 . S
C1902 H1916 0.960 . S
C1903 C1900 1.511 . S
C1903 H1917 0.961 . S
C1903 H1918 0.961 . S
C1903 H1919 0.961 . S
C1904 C1905 1.370 . S
C1904 C1906 1.363 . S
C1904 H1920 0.931 . S
C1905 C1904 1.370 . S
C1905 C1909 1.408 . S
C1906 C1904 1.363 . S
C1906 C1907 1.370 . S
C1906 C1910 1.524 . S
C1907 C1899 1.503 . S
C1907 C1906 1.370 . S
C1907 C1908 1.403 . S
C1908 C1907 1.403 . S
C1908 C1909 1.404 . S
C1908 C1911 1.539 . S
C1909 C1905 1.408 . S
C1909 C1908 1.404 . S
C1909 H1921 0.930 . S
C1910 C1906 1.524 . S
C1910 H1922 0.956 . S
C1910 H1923 0.961 . S
C1910 H1924 0.961 . S
C1911 C1908 1.539 . S
C1911 H1925 0.958 . S
C1911 H1926 0.961 . S
C1911 H1927 0.960 . S
H1912 C1896 0.931 . S
H1913 C1901 0.929 . S
H1914 C1902 0.960 . S
H1915 C1902 0.962 . S
H1916 C1902 0.960 . S
H1917 C1903 0.961 . S
H1918 C1903 0.961 . S
H1919 C1903 0.961 . S
H1920 C1904 0.931 . S
H1921 C1909 0.930 . S
H1922 C1910 0.956 . S
H1923 C1910 0.961 . S
H1924 C1910 0.961 . S
H1925 C1911 0.958 . S
H1926 C1911 0.961 . S
H1927 C1911 0.960 . S
C1928 C1929 1.391 . S
C1928 C1930 1.394 . S
C1928 H1944 0.931 . S
C1929 C1928 1.391 . S
C1929 C1933 1.376 . S
C1930 C1928 1.394 . S
C1930 C1931 1.369 . S
C1930 C1934 1.531 . S
C1931 C1930 1.369 . S
C1931 C1932 1.410 . S
C1931 C1939 1.503 . S
C1932 C1931 1.410 . S
C1932 C1933 1.392 . S
C1932 C1935 1.511 . S
C1933 C1929 1.376 . S
C1933 C1932 1.392 . S
C1933 H1945 0.929 . S
C1934 C1930 1.531 . S
C1934 H1946 0.960 . S
C1934 H1947 0.962 . S
C1934 H1948 0.960 . S
C1935 C1932 1.511 . S
C1935 H1949 0.961 . S
C1935 H1950 0.961 . S
C1935 H1951 0.961 . S
C1936 C1937 1.370 . S
C1936 C1938 1.363 . S
C1936 H1952 0.931 . S
C1937 C1936 1.370 . S
C1937 C1941 1.408 . S
C1938 C1936 1.363 . S
C1938 C1939 1.370 . S
C1938 C1942 1.524 . S
C1939 C1931 1.503 . S
C1939 C1938 1.370 . S
C1939 C1940 1.403 . S
C1940 C1939 1.403 . S
C1940 C1941 1.404 . S
C1940 C1943 1.539 . S
C1941 C1937 1.408 . S
C1941 C1940 1.404 . S
C1941 H1953 0.930 . S
C1942 C1938 1.524 . S
C1942 H1954 0.956 . S
C1942 H1955 0.961 . S
C1942 H1956 0.961 . S
C1943 C1940 1.539 . S
C1943 H1957 0.958 . S
C1943 H1958 0.961 . S
C1943 H1959 0.960 . S
H1944 C1928 0.931 . S
H1945 C1933 0.929 . S
H1946 C1934 0.960 . S
H1947 C1934 0.962 . S
H1948 C1934 0.960 . S
H1949 C1935 0.961 . S
H1950 C1935 0.961 . S
H1951 C1935 0.961 . S
H1952 C1936 0.931 . S
H1953 C1941 0.930 . S
H1954 C1942 0.956 . S
H1955 C1942 0.961 . S
H1956 C1942 0.961 . S
H1957 C1943 0.958 . S
H1958 C1943 0.961 . S
H1959 C1943 0.960 . S
C1960 C1961 1.391 . S
C1960 C1962 1.394 . S
C1960 H1976 0.931 . S
C1961 C1960 1.391 . S
C1961 C1965 1.376 . S
C1962 C1960 1.394 . S
C1962 C1963 1.369 . S
C1962 C1966 1.531 . S
C1963 C1962 1.369 . S
C1963 C1964 1.410 . S
C1963 C1971 1.503 . S
C1964 C1963 1.410 . S
C1964 C1965 1.392 . S
C1964 C1967 1.511 . S
C1965 C1961 1.376 . S
C1965 C1964 1.392 . S
C1965 H1977 0.929 . S
C1966 C1962 1.531 . S
C1966 H1978 0.960 . S
C1966 H1979 0.962 . S
C1966 H1980 0.960 . S
C1967 C1964 1.511 . S
C1967 H1981 0.961 . S
C1967 H1982 0.961 . S
C1967 H1983 0.961 . S
C1968 C1969 1.370 . S
C1968 C1970 1.363 . S
C1968 H1984 0.931 . S
C1969 C1968 1.370 . S
C1969 C1973 1.408 . S
C1970 C1968 1.363 . S
C1970 C1971 1.370 . S
C1970 C1974 1.524 . S
C1971 C1963 1.503 . S
C1971 C1970 1.370 . S
C1971 C1972 1.403 . S
C1972 C1971 1.403 . S
C1972 C1973 1.404 . S
C1972 C1975 1.539 . S
C1973 C1969 1.408 . S
C1973 C1972 1.404 . S
C1973 H1985 0.930 . S
C1974 C1970 1.524 . S
C1974 H1986 0.956 . S
C1974 H1987 0.961 . S
C1974 H1988 0.961 . S
C1975 C1972 1.539 . S
C1975 H1989 0.958 . S
C1975 H1990 0.961 . S
C1975 H1991 0.960 . S
H1976 C1960 0.931 . S
H1977 C1965 0.929 . S
H1978 C1966 0.960 . S
H1979 C1966 0.962 . S
H1980 C1966 0.960 . S
H1981 C1967 0.961 . S
H1982 C1967 0.961 . S
H1983 C1967 0.961 . S
H1984 C1968 0.931 . S
H1985 C1973 0.930 . S
H1986 C1974 0.956 . S
H1987 C1974 0.961 . S
H1988 C1974 0.961 . S
H1989 C1975 0.958 . S
H1990 C1975 0.961 . S
H1991 C1975 0.960 . S
C1992 C1993 1.391 . S
C1992 C1994 1.394 . S
C1992 H2008 0.931 . S
C1993 C1992 1.391 . S
C1993 C1997 1.376 . S
C1994 C1992 1.394 . S
C1994 C1995 1.369 . S
C1994 C1998 1.531 . S
C1995 C1994 1.369 . S
C1995 C1996 1.410 . S
C1995 C2003 1.503 . S
C1996 C1995 1.410 . S
C1996 C1997 1.392 . S
C1996 C1999 1.511 . S
C1997 C1993 1.376 . S
C1997 C1996 1.392 . S
C1997 H2009 0.929 . S
C1998 C1994 1.531 . S
C1998 H2010 0.960 . S
C1998 H2011 0.962 . S
C1998 H2012 0.960 . S
C1999 C1996 1.511 . S
C1999 H2013 0.961 . S
C1999 H2014 0.961 . S
C1999 H2015 0.961 . S
C2000 C2001 1.370 . S
C2000 C2002 1.363 . S
C2000 H2016 0.931 . S
C2001 C2000 1.370 . S
C2001 C2005 1.408 . S
C2002 C2000 1.363 . S
C2002 C2003 1.370 . S
C2002 C2006 1.524 . S
C2003 C1995 1.503 . S
C2003 C2002 1.370 . S
C2003 C2004 1.403 . S
C2004 C2003 1.403 . S
C2004 C2005 1.404 . S
C2004 C2007 1.539 . S
C2005 C2001 1.408 . S
C2005 C2004 1.404 . S
C2005 H2017 0.930 . S
C2006 C2002 1.524 . S
C2006 H2018 0.956 . S
C2006 H2019 0.961 . S
C2006 H2020 0.961 . S
C2007 C2004 1.539 . S
C2007 H2021 0.958 . S
C2007 H2022 0.961 . S
C2007 H2023 0.960 . S
H2008 C1992 0.931 . S
H2009 C1997 0.929 . S
H2010 C1998 0.960 . S
H2011 C1998 0.962 . S
H2012 C1998 0.960 . S
H2013 C1999 0.961 . S
H2014 C1999 0.961 . S
H2015 C1999 0.961 . S
H2016 C2000 0.931 . S
H2017 C2005 0.930 . S
H2018 C2006 0.956 . S
H2019 C2006 0.961 . S
H2020 C2006 0.961 . S
H2021 C2007 0.958 . S
H2022 C2007 0.961 . S
H2023 C2007 0.960 . S
C2024 C2025 1.391 . S
C2024 C2026 1.394 . S
C2024 H2040 0.931 . S
C2025 C2024 1.391 . S
C2025 C2029 1.376 . S
C2026 C2024 1.394 . S
C2026 C2027 1.369 . S
C2026 C2030 1.531 . S
C2027 C2026 1.369 . S
C2027 C2028 1.410 . S
C2027 C2035 1.503 . S
C2028 C2027 1.410 . S
C2028 C2029 1.392 . S
C2028 C2031 1.511 . S
C2029 C2025 1.376 . S
C2029 C2028 1.392 . S
C2029 H2041 0.929 . S
C2030 C2026 1.531 . S
C2030 H2042 0.960 . S
C2030 H2043 0.962 . S
C2030 H2044 0.960 . S
C2031 C2028 1.511 . S
C2031 H2045 0.961 . S
C2031 H2046 0.961 . S
C2031 H2047 0.961 . S
C2032 C2033 1.370 . S
C2032 C2034 1.363 . S
C2032 H2048 0.931 . S
C2033 C2032 1.370 . S
C2033 C2037 1.408 . S
C2034 C2032 1.363 . S
C2034 C2035 1.370 . S
C2034 C2038 1.524 . S
C2035 C2027 1.503 . S
C2035 C2034 1.370 . S
C2035 C2036 1.403 . S
C2036 C2035 1.403 . S
C2036 C2037 1.404 . S
C2036 C2039 1.539 . S
C2037 C2033 1.408 . S
C2037 C2036 1.404 . S
C2037 H2049 0.930 . S
C2038 C2034 1.524 . S
C2038 H2050 0.956 . S
C2038 H2051 0.961 . S
C2038 H2052 0.961 . S
C2039 C2036 1.539 . S
C2039 H2053 0.958 . S
C2039 H2054 0.961 . S
C2039 H2055 0.960 . S
H2040 C2024 0.931 . S
H2041 C2029 0.929 . S
H2042 C2030 0.960 . S
H2043 C2030 0.962 . S
H2044 C2030 0.960 . S
H2045 C2031 0.961 . S
H2046 C2031 0.961 . S
H2047 C2031 0.961 . S
H2048 C2032 0.931 . S
H2049 C2037 0.930 . S
H2050 C2038 0.956 . S
H2051 C2038 0.961 . S
H2052 C2038 0.961 . S
H2053 C2039 0.958 . S
H2054 C2039 0.961 . S
H2055 C2039 0.960 . S
C2056 C2057 1.391 . S
C2056 C2058 1.394 . S
C2056 H2072 0.931 . S
C2057 C2056 1.391 . S
C2057 C2061 1.376 . S
C2058 C2056 1.394 . S
C2058 C2059 1.369 . S
C2058 C2062 1.531 . S
C2059 C2058 1.369 . S
C2059 C2060 1.410 . S
C2059 C2067 1.503 . S
C2060 C2059 1.410 . S
C2060 C2061 1.392 . S
C2060 C2063 1.511 . S
C2061 C2057 1.376 . S
C2061 C2060 1.392 . S
C2061 H2073 0.929 . S
C2062 C2058 1.531 . S
C2062 H2074 0.960 . S
C2062 H2075 0.962 . S
C2062 H2076 0.960 . S
C2063 C2060 1.511 . S
C2063 H2077 0.961 . S
C2063 H2078 0.961 . S
C2063 H2079 0.961 . S
C2064 C2065 1.370 . S
C2064 C2066 1.363 . S
C2064 H2080 0.931 . S
C2065 C2064 1.370 . S
C2065 C2069 1.408 . S
C2066 C2064 1.363 . S
C2066 C2067 1.370 . S
C2066 C2070 1.524 . S
C2067 C2059 1.503 . S
C2067 C2066 1.370 . S
C2067 C2068 1.403 . S
C2068 C2067 1.403 . S
C2068 C2069 1.404 . S
C2068 C2071 1.539 . S
C2069 C2065 1.408 . S
C2069 C2068 1.404 . S
C2069 H2081 0.930 . S
C2070 C2066 1.524 . S
C2070 H2082 0.956 . S
C2070 H2083 0.961 . S
C2070 H2084 0.961 . S
C2071 C2068 1.539 . S
C2071 H2085 0.958 . S
C2071 H2086 0.961 . S
C2071 H2087 0.960 . S
H2072 C2056 0.931 . S
H2073 C2061 0.929 . S
H2074 C2062 0.960 . S
H2075 C2062 0.962 . S
H2076 C2062 0.960 . S
H2077 C2063 0.961 . S
H2078 C2063 0.961 . S
H2079 C2063 0.961 . S
H2080 C2064 0.931 . S
H2081 C2069 0.930 . S
H2082 C2070 0.956 . S
H2083 C2070 0.961 . S
H2084 C2070 0.961 . S
H2085 C2071 0.958 . S
H2086 C2071 0.961 . S
H2087 C2071 0.960 . S
C2088 C2089 1.391 . S
C2088 C2090 1.394 . S
C2088 H2104 0.931 . S
C2089 C2088 1.391 . S
C2089 C2093 1.376 . S
C2090 C2088 1.394 . S
C2090 C2091 1.369 . S
C2090 C2094 1.531 . S
C2091 C2090 1.369 . S
C2091 C2092 1.410 . S
C2091 C2099 1.503 . S
C2092 C2091 1.410 . S
C2092 C2093 1.392 . S
C2092 C2095 1.511 . S
C2093 C2089 1.376 . S
C2093 C2092 1.392 . S
C2093 H2105 0.929 . S
C2094 C2090 1.531 . S
C2094 H2106 0.960 . S
C2094 H2107 0.962 . S
C2094 H2108 0.960 . S
C2095 C2092 1.511 . S
C2095 H2109 0.961 . S
C2095 H2110 0.961 . S
C2095 H2111 0.961 . S
C2096 C2097 1.370 . S
C2096 C2098 1.363 . S
C2096 H2112 0.931 . S
C2097 C2096 1.370 . S
C2097 C2101 1.408 . S
C2098 C2096 1.363 . S
C2098 C2099 1.370 . S
C2098 C2102 1.524 . S
C2099 C2091 1.503 . S
C2099 C2098 1.370 . S
C2099 C2100 1.403 . S
C2100 C2099 1.403 . S
C2100 C2101 1.404 . S
C2100 C2103 1.539 . S
C2101 C2097 1.408 . S
C2101 C2100 1.404 . S
C2101 H2113 0.930 . S
C2102 C2098 1.524 . S
C2102 H2114 0.956 . S
C2102 H2115 0.961 . S
C2102 H2116 0.961 . S
C2103 C2100 1.539 . S
C2103 H2117 0.958 . S
C2103 H2118 0.961 . S
C2103 H2119 0.960 . S
H2104 C2088 0.931 . S
H2105 C2093 0.929 . S
H2106 C2094 0.960 . S
H2107 C2094 0.962 . S
H2108 C2094 0.960 . S
H2109 C2095 0.961 . S
H2110 C2095 0.961 . S
H2111 C2095 0.961 . S
H2112 C2096 0.931 . S
H2113 C2101 0.930 . S
H2114 C2102 0.956 . S
H2115 C2102 0.961 . S
H2116 C2102 0.961 . S
H2117 C2103 0.958 . S
H2118 C2103 0.961 . S
H2119 C2103 0.960 . S
C2120 C2121 1.391 . S
C2120 C2122 1.394 . S
C2120 H2136 0.931 . S
C2121 C2120 1.391 . S
C2121 C2125 1.376 . S
C2122 C2120 1.394 . S
C2122 C2123 1.369 . S
C2122 C2126 1.531 . S
C2123 C2122 1.369 . S
C2123 C2124 1.410 . S
C2123 C2131 1.503 . S
C2124 C2123 1.410 . S
C2124 C2125 1.392 . S
C2124 C2127 1.511 . S
C2125 C2121 1.376 . S
C2125 C2124 1.392 . S
C2125 H2137 0.929 . S
C2126 C2122 1.531 . S
C2126 H2138 0.960 . S
C2126 H2139 0.962 . S
C2126 H2140 0.960 . S
C2127 C2124 1.511 . S
C2127 H2141 0.961 . S
C2127 H2142 0.961 . S
C2127 H2143 0.961 . S
C2128 C2129 1.370 . S
C2128 C2130 1.363 . S
C2128 H2144 0.931 . S
C2129 C2128 1.370 . S
C2129 C2133 1.408 . S
C2130 C2128 1.363 . S
C2130 C2131 1.370 . S
C2130 C2134 1.524 . S
C2131 C2123 1.503 . S
C2131 C2130 1.370 . S
C2131 C2132 1.403 . S
C2132 C2131 1.403 . S
C2132 C2133 1.404 . S
C2132 C2135 1.539 . S
C2133 C2129 1.408 . S
C2133 C2132 1.404 . S
C2133 H2145 0.930 . S
C2134 C2130 1.524 . S
C2134 H2146 0.956 . S
C2134 H2147 0.961 . S
C2134 H2148 0.961 . S
C2135 C2132 1.539 . S
C2135 H2149 0.958 . S
C2135 H2150 0.961 . S
C2135 H2151 0.960 . S
H2136 C2120 0.931 . S
H2137 C2125 0.929 . S
H2138 C2126 0.960 . S
H2139 C2126 0.962 . S
H2140 C2126 0.960 . S
H2141 C2127 0.961 . S
H2142 C2127 0.961 . S
H2143 C2127 0.961 . S
H2144 C2128 0.931 . S
H2145 C2133 0.930 . S
H2146 C2134 0.956 . S
H2147 C2134 0.961 . S
H2148 C2134 0.961 . S
H2149 C2135 0.958 . S
H2150 C2135 0.961 . S
H2151 C2135 0.960 . S
C2152 C2153 1.391 . S
C2152 C2154 1.394 . S
C2152 H2168 0.931 . S
C2153 C2152 1.391 . S
C2153 C2157 1.376 . S
C2154 C2152 1.394 . S
C2154 C2155 1.369 . S
C2154 C2158 1.531 . S
C2155 C2154 1.369 . S
C2155 C2156 1.410 . S
C2155 C2163 1.503 . S
C2156 C2155 1.410 . S
C2156 C2157 1.392 . S
C2156 C2159 1.511 . S
C2157 C2153 1.376 . S
C2157 C2156 1.392 . S
C2157 H2169 0.929 . S
C2158 C2154 1.531 . S
C2158 H2170 0.960 . S
C2158 H2171 0.962 . S
C2158 H2172 0.960 . S
C2159 C2156 1.511 . S
C2159 H2173 0.961 . S
C2159 H2174 0.961 . S
C2159 H2175 0.961 . S
C2160 C2161 1.370 . S
C2160 C2162 1.363 . S
C2160 H2176 0.931 . S
C2161 C2160 1.370 . S
C2161 C2165 1.408 . S
C2162 C2160 1.363 . S
C2162 C2163 1.370 . S
C2162 C2166 1.524 . S
C2163 C2155 1.503 . S
C2163 C2162 1.370 . S
C2163 C2164 1.403 . S
C2164 C2163 1.403 . S
C2164 C2165 1.404 . S
C2164 C2167 1.539 . S
C2165 C2161 1.408 . S
C2165 C2164 1.404 . S
C2165 H2177 0.930 . S
C2166 C2162 1.524 . S
C2166 H2178 0.956 . S
C2166 H2179 0.961 . S
C2166 H2180 0.961 . S
C2167 C2164 1.539 . S
C2167 H2181 0.958 . S
C2167 H2182 0.961 . S
C2167 H2183 0.960 . S
H2168 C2152 0.931 . S
H2169 C2157 0.929 . S
H2170 C2158 0.960 . S
H2171 C2158 0.962 . S
H2172 C2158 0.960 . S
H2173 C2159 0.961 . S
H2174 C2159 0.961 . S
H2175 C2159 0.961 . S
H2176 C2160 0.931 . S
H2177 C2165 0.930 . S
H2178 C2166 0.956 . S
H2179 C2166 0.961 . S
H2180 C2166 0.961 . S
H2181 C2167 0.958 . S
H2182 C2167 0.961 . S
H2183 C2167 0.960 . S
C2184 C2185 1.391 . S
C2184 C2186 1.394 . S
C2184 H2200 0.931 . S
C2185 C2184 1.391 . S
C2185 C2189 1.376 . S
C2186 C2184 1.394 . S
C2186 C2187 1.369 . S
C2186 C2190 1.531 . S
C2187 C2186 1.369 . S
C2187 C2188 1.410 . S
C2187 C2195 1.503 . S
C2188 C2187 1.410 . S
C2188 C2189 1.392 . S
C2188 C2191 1.511 . S
C2189 C2185 1.376 . S
C2189 C2188 1.392 . S
C2189 H2201 0.929 . S
C2190 C2186 1.531 . S
C2190 H2202 0.960 . S
C2190 H2203 0.962 . S
C2190 H2204 0.960 . S
C2191 C2188 1.511 . S
C2191 H2205 0.961 . S
C2191 H2206 0.961 . S
C2191 H2207 0.961 . S
C2192 C2193 1.370 . S
C2192 C2194 1.363 . S
C2192 H2208 0.931 . S
C2193 C2192 1.370 . S
C2193 C2197 1.408 . S
C2194 C2192 1.363 . S
C2194 C2195 1.370 . S
C2194 C2198 1.524 . S
C2195 C2187 1.503 . S
C2195 C2194 1.370 . S
C2195 C2196 1.403 . S
C2196 C2195 1.403 . S
C2196 C2197 1.404 . S
C2196 C2199 1.539 . S
C2197 C2193 1.408 . S
C2197 C2196 1.404 . S
C2197 H2209 0.930 . S
C2198 C2194 1.524 . S
C2198 H2210 0.956 . S
C2198 H2211 0.961 . S
C2198 H2212 0.961 . S
C2199 C2196 1.539 . S
C2199 H2213 0.958 . S
C2199 H2214 0.961 . S
C2199 H2215 0.960 . S
H2200 C2184 0.931 . S
H2201 C2189 0.929 . S
H2202 C2190 0.960 . S
H2203 C2190 0.962 . S
H2204 C2190 0.960 . S
H2205 C2191 0.961 . S
H2206 C2191 0.961 . S
H2207 C2191 0.961 . S
H2208 C2192 0.931 . S
H2209 C2197 0.930 . S
H2210 C2198 0.956 . S
H2211 C2198 0.961 . S
H2212 C2198 0.961 . S
H2213 C2199 0.958 . S
H2214 C2199 0.961 . S
H2215 C2199 0.960 . S
C2216 C2217 1.391 . S
C2216 C2218 1.394 . S
C2216 H2232 0.931 . S
C2217 C2216 1.391 . S
C2217 C2221 1.376 . S
C2218 C2216 1.394 . S
C2218 C2219 1.369 . S
C2218 C2222 1.531 . S
C2219 C2218 1.369 . S
C2219 C2220 1.410 . S
C2219 C2227 1.503 . S
C2220 C2219 1.410 . S
C2220 C2221 1.392 . S
C2220 C2223 1.511 . S
C2221 C2217 1.376 . S
C2221 C2220 1.392 . S
C2221 H2233 0.929 . S
C2222 C2218 1.531 . S
C2222 H2234 0.960 . S
C2222 H2235 0.962 . S
C2222 H2236 0.960 . S
C2223 C2220 1.511 . S
C2223 H2237 0.961 . S
C2223 H2238 0.961 . S
C2223 H2239 0.961 . S
C2224 C2225 1.370 . S
C2224 C2226 1.363 . S
C2224 H2240 0.931 . S
C2225 C2224 1.370 . S
C2225 C2229 1.408 . S
C2226 C2224 1.363 . S
C2226 C2227 1.370 . S
C2226 C2230 1.524 . S
C2227 C2219 1.503 . S
C2227 C2226 1.370 . S
C2227 C2228 1.403 . S
C2228 C2227 1.403 . S
C2228 C2229 1.404 . S
C2228 C2231 1.539 . S
C2229 C2225 1.408 . S
C2229 C2228 1.404 . S
C2229 H2241 0.930 . S
C2230 C2226 1.524 . S
C2230 H2242 0.956 . S
C2230 H2243 0.961 . S
C2230 H2244 0.961 . S
C2231 C2228 1.539 . S
C2231 H2245 0.958 . S
C2231 H2246 0.961 . S
C2231 H2247 0.960 . S
H2232 C2216 0.931 . S
H2233 C2221 0.929 . S
H2234 C2222 0.960 . S
H2235 C2222 0.962 . S
H2236 C2222 0.960 . S
H2237 C2223 0.961 . S
H2238 C2223 0.961 . S
H2239 C2223 0.961 . S
H2240 C2224 0.931 . S
H2241 C2229 0.930 . S
H2242 C2230 0.956 . S
H2243 C2230 0.961 . S
H2244 C2230 0.961 . S
H2245 C2231 0.958 . S
H2246 C2231 0.961 . S
H2247 C2231 0.960 . S
C2248 C2249 1.391 . S
C2248 C2250 1.394 . S
C2248 H2264 0.931 . S
C2249 C2248 1.391 . S
C2249 C2253 1.376 . S
C2250 C2248 1.394 . S
C2250 C2251 1.369 . S
C2250 C2254 1.531 . S
C2251 C2250 1.369 . S
C2251 C2252 1.410 . S
C2251 C2259 1.503 . S
C2252 C2251 1.410 . S
C2252 C2253 1.392 . S
C2252 C2255 1.511 . S
C2253 C2249 1.376 . S
C2253 C2252 1.392 . S
C2253 H2265 0.929 . S
C2254 C2250 1.531 . S
C2254 H2266 0.960 . S
C2254 H2267 0.962 . S
C2254 H2268 0.960 . S
C2255 C2252 1.511 . S
C2255 H2269 0.961 . S
C2255 H2270 0.961 . S
C2255 H2271 0.961 . S
C2256 C2257 1.370 . S
C2256 C2258 1.363 . S
C2256 H2272 0.931 . S
C2257 C2256 1.370 . S
C2257 C2261 1.408 . S
C2258 C2256 1.363 . S
C2258 C2259 1.370 . S
C2258 C2262 1.524 . S
C2259 C2251 1.503 . S
C2259 C2258 1.370 . S
C2259 C2260 1.403 . S
C2260 C2259 1.403 . S
C2260 C2261 1.404 . S
C2260 C2263 1.539 . S
C2261 C2257 1.408 . S
C2261 C2260 1.404 . S
C2261 H2273 0.930 . S
C2262 C2258 1.524 . S
C2262 H2274 0.956 . S
C2262 H2275 0.961 . S
C2262 H2276 0.961 . S
C2263 C2260 1.539 . S
C2263 H2277 0.958 . S
C2263 H2278 0.961 . S
C2263 H2279 0.960 . S
H2264 C2248 0.931 . S
H2265 C2253 0.929 . S
H2266 C2254 0.960 . S
H2267 C2254 0.962 . S
H2268 C2254 0.960 . S
H2269 C2255 0.961 . S
H2270 C2255 0.961 . S
H2271 C2255 0.961 . S
H2272 C2256 0.931 . S
H2273 C2261 0.930 . S
H2274 C2262 0.956 . S
H2275 C2262 0.961 . S
H2276 C2262 0.961 . S
H2277 C2263 0.958 . S
H2278 C2263 0.961 . S
H2279 C2263 0.960 . S
C2280 C2281 1.391 . S
C2280 C2282 1.394 . S
C2280 H2296 0.931 . S
C2281 C2280 1.391 . S
C2281 C2285 1.376 . S
C2282 C2280 1.394 . S
C2282 C2283 1.369 . S
C2282 C2286 1.531 . S
C2283 C2282 1.369 . S
C2283 C2284 1.410 . S
C2283 C2291 1.503 . S
C2284 C2283 1.410 . S
C2284 C2285 1.392 . S
C2284 C2287 1.511 . S
C2285 C2281 1.376 . S
C2285 C2284 1.392 . S
C2285 H2297 0.929 . S
C2286 C2282 1.531 . S
C2286 H2298 0.960 . S
C2286 H2299 0.962 . S
C2286 H2300 0.960 . S
C2287 C2284 1.511 . S
C2287 H2301 0.961 . S
C2287 H2302 0.961 . S
C2287 H2303 0.961 . S
C2288 C2289 1.370 . S
C2288 C2290 1.363 . S
C2288 H2304 0.931 . S
C2289 C2288 1.370 . S
C2289 C2293 1.408 . S
C2290 C2288 1.363 . S
C2290 C2291 1.370 . S
C2290 C2294 1.524 . S
C2291 C2283 1.503 . S
C2291 C2290 1.370 . S
C2291 C2292 1.403 . S
C2292 C2291 1.403 . S
C2292 C2293 1.404 . S
C2292 C2295 1.539 . S
C2293 C2289 1.408 . S
C2293 C2292 1.404 . S
C2293 H2305 0.930 . S
C2294 C2290 1.524 . S
C2294 H2306 0.956 . S
C2294 H2307 0.961 . S
C2294 H2308 0.961 . S
C2295 C2292 1.539 . S
C2295 H2309 0.958 . S
C2295 H2310 0.961 . S
C2295 H2311 0.960 . S
H2296 C2280 0.931 . S
H2297 C2285 0.929 . S
H2298 C2286 0.960 . S
H2299 C2286 0.962 . S
H2300 C2286 0.960 . S
H2301 C2287 0.961 . S
H2302 C2287 0.961 . S
H2303 C2287 0.961 . S
H2304 C2288 0.931 . S
H2305 C2293 0.930 . S
H2306 C2294 0.956 . S
H2307 C2294 0.961 . S
H2308 C2294 0.961 . S
H2309 C2295 0.958 . S
H2310 C2295 0.961 . S
H2311 C2295 0.960 . S
C2312 C2313 1.391 . S
C2312 C2314 1.394 . S
C2312 H2328 0.931 . S
C2313 C2312 1.391 . S
C2313 C2317 1.376 . S
C2314 C2312 1.394 . S
C2314 C2315 1.369 . S
C2314 C2318 1.531 . S
C2315 C2314 1.369 . S
C2315 C2316 1.410 . S
C2315 C2323 1.503 . S
C2316 C2315 1.410 . S
C2316 C2317 1.392 . S
C2316 C2319 1.511 . S
C2317 C2313 1.376 . S
C2317 C2316 1.392 . S
C2317 H2329 0.929 . S
C2318 C2314 1.531 . S
C2318 H2330 0.960 . S
C2318 H2331 0.962 . S
C2318 H2332 0.960 . S
C2319 C2316 1.511 . S
C2319 H2333 0.961 . S
C2319 H2334 0.961 . S
C2319 H2335 0.961 . S
C2320 C2321 1.370 . S
C2320 C2322 1.363 . S
C2320 H2336 0.931 . S
C2321 C2320 1.370 . S
C2321 C2325 1.408 . S
C2322 C2320 1.363 . S
C2322 C2323 1.370 . S
C2322 C2326 1.524 . S
C2323 C2315 1.503 . S
C2323 C2322 1.370 . S
C2323 C2324 1.403 . S
C2324 C2323 1.403 . S
C2324 C2325 1.404 . S
C2324 C2327 1.539 . S
C2325 C2321 1.408 . S
C2325 C2324 1.404 . S
C2325 H2337 0.930 . S
C2326 C2322 1.524 . S
C2326 H2338 0.956 . S
C2326 H2339 0.961 . S
C2326 H2340 0.961 . S
C2327 C2324 1.539 . S
C2327 H2341 0.958 . S
C2327 H2342 0.961 . S
C2327 H2343 0.960 . S
H2328 C2312 0.931 . S
H2329 C2317 0.929 . S
H2330 C2318 0.960 . S
H2331 C2318 0.962 . S
H2332 C2318 0.960 . S
H2333 C2319 0.961 . S
H2334 C2319 0.961 . S
H2335 C2319 0.961 . S
H2336 C2320 0.931 . S
H2337 C2325 0.930 . S
H2338 C2326 0.956 . S
H2339 C2326 0.961 . S
H2340 C2326 0.961 . S
H2341 C2327 0.958 . S
H2342 C2327 0.961 . S
H2343 C2327 0.960 . S
C2344 C2345 1.391 . S
C2344 C2346 1.394 . S
C2344 H2360 0.931 . S
C2345 C2344 1.391 . S
C2345 C2349 1.376 . S
C2346 C2344 1.394 . S
C2346 C2347 1.369 . S
C2346 C2350 1.531 . S
C2347 C2346 1.369 . S
C2347 C2348 1.410 . S
C2347 C2355 1.503 . S
C2348 C2347 1.410 . S
C2348 C2349 1.392 . S
C2348 C2351 1.511 . S
C2349 C2345 1.376 . S
C2349 C2348 1.392 . S
C2349 H2361 0.929 . S
C2350 C2346 1.531 . S
C2350 H2362 0.960 . S
C2350 H2363 0.962 . S
C2350 H2364 0.960 . S
C2351 C2348 1.511 . S
C2351 H2365 0.961 . S
C2351 H2366 0.961 . S
C2351 H2367 0.961 . S
C2352 C2353 1.370 . S
C2352 C2354 1.363 . S
C2352 H2368 0.931 . S
C2353 C2352 1.370 . S
C2353 C2357 1.408 . S
C2354 C2352 1.363 . S
C2354 C2355 1.370 . S
C2354 C2358 1.524 . S
C2355 C2347 1.503 . S
C2355 C2354 1.370 . S
C2355 C2356 1.403 . S
C2356 C2355 1.403 . S
C2356 C2357 1.404 . S
C2356 C2359 1.539 . S
C2357 C2353 1.408 . S
C2357 C2356 1.404 . S
C2357 H2369 0.930 . S
C2358 C2354 1.524 . S
C2358 H2370 0.956 . S
C2358 H2371 0.961 . S
C2358 H2372 0.961 . S
C2359 C2356 1.539 . S
C2359 H2373 0.958 . S
C2359 H2374 0.961 . S
C2359 H2375 0.960 . S
H2360 C2344 0.931 . S
H2361 C2349 0.929 . S
H2362 C2350 0.960 . S
H2363 C2350 0.962 . S
H2364 C2350 0.960 . S
H2365 C2351 0.961 . S
H2366 C2351 0.961 . S
H2367 C2351 0.961 . S
H2368 C2352 0.931 . S
H2369 C2357 0.930 . S
H2370 C2358 0.956 . S
H2371 C2358 0.961 . S
H2372 C2358 0.961 . S
H2373 C2359 0.958 . S
H2374 C2359 0.961 . S
H2375 C2359 0.960 . S
C2376 C2377 1.391 . S
C2376 C2378 1.394 . S
C2376 H2392 0.931 . S
C2377 C2376 1.391 . S
C2377 C2381 1.376 . S
C2378 C2376 1.394 . S
C2378 C2379 1.369 . S
C2378 C2382 1.531 . S
C2379 C2378 1.369 . S
C2379 C2380 1.410 . S
C2379 C2387 1.503 . S
C2380 C2379 1.410 . S
C2380 C2381 1.392 . S
C2380 C2383 1.511 . S
C2381 C2377 1.376 . S
C2381 C2380 1.392 . S
C2381 H2393 0.929 . S
C2382 C2378 1.531 . S
C2382 H2394 0.960 . S
C2382 H2395 0.962 . S
C2382 H2396 0.960 . S
C2383 C2380 1.511 . S
C2383 H2397 0.961 . S
C2383 H2398 0.961 . S
C2383 H2399 0.961 . S
C2384 C2385 1.370 . S
C2384 C2386 1.363 . S
C2384 H2400 0.931 . S
C2385 C2384 1.370 . S
C2385 C2389 1.408 . S
C2386 C2384 1.363 . S
C2386 C2387 1.370 . S
C2386 C2390 1.524 . S
C2387 C2379 1.503 . S
C2387 C2386 1.370 . S
C2387 C2388 1.403 . S
C2388 C2387 1.403 . S
C2388 C2389 1.404 . S
C2388 C2391 1.539 . S
C2389 C2385 1.408 . S
C2389 C2388 1.404 . S
C2389 H2401 0.930 . S
C2390 C2386 1.524 . S
C2390 H2402 0.956 . S
C2390 H2403 0.961 . S
C2390 H2404 0.961 . S
C2391 C2388 1.539 . S
C2391 H2405 0.958 . S
C2391 H2406 0.961 . S
C2391 H2407 0.960 . S
H2392 C2376 0.931 . S
H2393 C2381 0.929 . S
H2394 C2382 0.960 . S
H2395 C2382 0.962 . S
H2396 C2382 0.960 . S
H2397 C2383 0.961 . S
H2398 C2383 0.961 . S
H2399 C2383 0.961 . S
H2400 C2384 0.931 . S
H2401 C2389 0.930 . S
H2402 C2390 0.956 . S
H2403 C2390 0.961 . S
H2404 C2390 0.961 . S
H2405 C2391 0.958 . S
H2406 C2391 0.961 . S
H2407 C2391 0.960 . S
C2408 C2409 1.391 . S
C2408 C2410 1.394 . S
C2408 H2424 0.931 . S
C2409 C2408 1.391 . S
C2409 C2413 1.376 . S
C2410 C2408 1.394 . S
C2410 C2411 1.369 . S
C2410 C2414 1.531 . S
C2411 C2410 1.369 . S
C2411 C2412 1.410 . S
C2411 C2419 1.503 . S
C2412 C2411 1.410 . S
C2412 C2413 1.392 . S
C2412 C2415 1.511 . S
C2413 C2409 1.376 . S
C2413 C2412 1.392 . S
C2413 H2425 0.929 . S
C2414 C2410 1.531 . S
C2414 H2426 0.960 . S
C2414 H2427 0.962 . S
C2414 H2428 0.960 . S
C2415 C2412 1.511 . S
C2415 H2429 0.961 . S
C2415 H2430 0.961 . S
C2415 H2431 0.961 . S
C2416 C2417 1.370 . S
C2416 C2418 1.363 . S
C2416 H2432 0.931 . S
C2417 C2416 1.370 . S
C2417 C2421 1.408 . S
C2418 C2416 1.363 . S
C2418 C2419 1.370 . S
C2418 C2422 1.524 . S
C2419 C2411 1.503 . S
C2419 C2418 1.370 . S
C2419 C2420 1.403 . S
C2420 C2419 1.403 . S
C2420 C2421 1.404 . S
C2420 C2423 1.539 . S
C2421 C2417 1.408 . S
C2421 C2420 1.404 . S
C2421 H2433 0.930 . S
C2422 C2418 1.524 . S
C2422 H2434 0.956 . S
C2422 H2435 0.961 . S
C2422 H2436 0.961 . S
C2423 C2420 1.539 . S
C2423 H2437 0.958 . S
C2423 H2438 0.961 . S
C2423 H2439 0.960 . S
H2424 C2408 0.931 . S
H2425 C2413 0.929 . S
H2426 C2414 0.960 . S
H2427 C2414 0.962 . S
H2428 C2414 0.960 . S
H2429 C2415 0.961 . S
H2430 C2415 0.961 . S
H2431 C2415 0.961 . S
H2432 C2416 0.931 . S
H2433 C2421 0.930 . S
H2434 C2422 0.956 . S
H2435 C2422 0.961 . S
H2436 C2422 0.961 . S
H2437 C2423 0.958 . S
H2438 C2423 0.961 . S
H2439 C2423 0.960 . S
C2440 C2441 1.391 . S
C2440 C2442 1.394 . S
C2440 H2456 0.931 . S
C2441 C2440 1.391 . S
C2441 C2445 1.376 . S
C2442 C2440 1.394 . S
C2442 C2443 1.369 . S
C2442 C2446 1.531 . S
C2443 C2442 1.369 . S
C2443 C2444 1.410 . S
C2443 C2451 1.503 . S
C2444 C2443 1.410 . S
C2444 C2445 1.392 . S
C2444 C2447 1.511 . S
C2445 C2441 1.376 . S
C2445 C2444 1.392 . S
C2445 H2457 0.929 . S
C2446 C2442 1.531 . S
C2446 H2458 0.960 . S
C2446 H2459 0.962 . S
C2446 H2460 0.960 . S
C2447 C2444 1.511 . S
C2447 H2461 0.961 . S
C2447 H2462 0.961 . S
C2447 H2463 0.961 . S
C2448 C2449 1.370 . S
C2448 C2450 1.363 . S
C2448 H2464 0.931 . S
C2449 C2448 1.370 . S
C2449 C2453 1.408 . S
C2450 C2448 1.363 . S
C2450 C2451 1.370 . S
C2450 C2454 1.524 . S
C2451 C2443 1.503 . S
C2451 C2450 1.370 . S
C2451 C2452 1.403 . S
C2452 C2451 1.403 . S
C2452 C2453 1.404 . S
C2452 C2455 1.539 . S
C2453 C2449 1.408 . S
C2453 C2452 1.404 . S
C2453 H2465 0.930 . S
C2454 C2450 1.524 . S
C2454 H2466 0.956 . S
C2454 H2467 0.961 . S
C2454 H2468 0.961 . S
C2455 C2452 1.539 . S
C2455 H2469 0.958 . S
C2455 H2470 0.961 . S
C2455 H2471 0.960 . S
H2456 C2440 0.931 . S
H2457 C2445 0.929 . S
H2458 C2446 0.960 . S
H2459 C2446 0.962 . S
H2460 C2446 0.960 . S
H2461 C2447 0.961 . S
H2462 C2447 0.961 . S
H2463 C2447 0.961 . S
H2464 C2448 0.931 . S
H2465 C2453 0.930 . S
H2466 C2454 0.956 . S
H2467 C2454 0.961 . S
H2468 C2454 0.961 . S
H2469 C2455 0.958 . S
H2470 C2455 0.961 . S
H2471 C2455 0.960 . S
C2472 C2473 1.391 . S
C2472 C2474 1.394 . S
C2472 H2488 0.931 . S
C2473 C2472 1.391 . S
C2473 C2477 1.376 . S
C2474 C2472 1.394 . S
C2474 C2475 1.369 . S
C2474 C2478 1.531 . S
C2475 C2474 1.369 . S
C2475 C2476 1.410 . S
C2475 C2483 1.503 . S
C2476 C2475 1.410 . S
C2476 C2477 1.392 . S
C2476 C2479 1.511 . S
C2477 C2473 1.376 . S
C2477 C2476 1.392 . S
C2477 H2489 0.929 . S
C2478 C2474 1.531 . S
C2478 H2490 0.960 . S
C2478 H2491 0.962 . S
C2478 H2492 0.960 . S
C2479 C2476 1.511 . S
C2479 H2493 0.961 . S
C2479 H2494 0.961 . S
C2479 H2495 0.961 . S
C2480 C2481 1.370 . S
C2480 C2482 1.363 . S
C2480 H2496 0.931 . S
C2481 C2480 1.370 . S
C2481 C2485 1.408 . S
C2482 C2480 1.363 . S
C2482 C2483 1.370 . S
C2482 C2486 1.524 . S
C2483 C2475 1.503 . S
C2483 C2482 1.370 . S
C2483 C2484 1.403 . S
C2484 C2483 1.403 . S
C2484 C2485 1.404 . S
C2484 C2487 1.539 . S
C2485 C2481 1.408 . S
C2485 C2484 1.404 . S
C2485 H2497 0.930 . S
C2486 C2482 1.524 . S
C2486 H2498 0.956 . S
C2486 H2499 0.961 . S
C2486 H2500 0.961 . S
C2487 C2484 1.539 . S
C2487 H2501 0.958 . S
C2487 H2502 0.961 . S
C2487 H2503 0.960 . S
H2488 C2472 0.931 . S
H2489 C2477 0.929 . S
H2490 C2478 0.960 . S
H2491 C2478 0.962 . S
H2492 C2478 0.960 . S
H2493 C2479 0.961 . S
H2494 C2479 0.961 . S
H2495 C2479 0.961 . S
H2496 C2480 0.931 . S
H2497 C2485 0.930 . S
H2498 C2486 0.956 . S
H2499 C2486 0.961 . S
H2500 C2486 0.961 . S
H2501 C2487 0.958 . S
H2502 C2487 0.961 . S
H2503 C2487 0.960 . S
C2504 C2505 1.391 . S
C2504 C2506 1.394 . S
C2504 H2520 0.931 . S
C2505 C2504 1.391 . S
C2505 C2509 1.376 . S
C2506 C2504 1.394 . S
C2506 C2507 1.369 . S
C2506 C2510 1.531 . S
C2507 C2506 1.369 . S
C2507 C2508 1.410 . S
C2507 C2515 1.503 . S
C2508 C2507 1.410 . S
C2508 C2509 1.392 . S
C2508 C2511 1.511 . S
C2509 C2505 1.376 . S
C2509 C2508 1.392 . S
C2509 H2521 0.929 . S
C2510 C2506 1.531 . S
C2510 H2522 0.960 . S
C2510 H2523 0.962 . S
C2510 H2524 0.960 . S
C2511 C2508 1.511 . S
C2511 H2525 0.961 . S
C2511 H2526 0.961 . S
C2511 H2527 0.961 . S
C2512 C2513 1.370 . S
C2512 C2514 1.363 . S
C2512 H2528 0.931 . S
C2513 C2512 1.370 . S
C2513 C2517 1.408 . S
C2514 C2512 1.363 . S
C2514 C2515 1.370 . S
C2514 C2518 1.524 . S
C2515 C2507 1.503 . S
C2515 C2514 1.370 . S
C2515 C2516 1.403 . S
C2516 C2515 1.403 . S
C2516 C2517 1.404 . S
C2516 C2519 1.539 . S
C2517 C2513 1.408 . S
C2517 C2516 1.404 . S
C2517 H2529 0.930 . S
C2518 C2514 1.524 . S
C2518 H2530 0.956 . S
C2518 H2531 0.961 . S
C2518 H2532 0.961 . S
C2519 C2516 1.539 . S
C2519 H2533 0.958 . S
C2519 H2534 0.961 . S
C2519 H2535 0.960 . S
H2520 C2504 0.931 . S
H2521 C2509 0.929 . S
H2522 C2510 0.960 . S
H2523 C2510 0.962 . S
H2524 C2510 0.960 . S
H2525 C2511 0.961 . S
H2526 C2511 0.961 . S
H2527 C2511 0.961 . S
H2528 C2512 0.931 . S
H2529 C2517 0.930 . S
H2530 C2518 0.956 . S
H2531 C2518 0.961 . S
H2532 C2518 0.961 . S
H2533 C2519 0.958 . S
H2534 C2519 0.961 . S
H2535 C2519 0.960 . S
C2536 C2537 1.391 . S
C2536 C2538 1.394 . S
C2536 H2552 0.931 . S
C2537 C2536 1.391 . S
C2537 C2541 1.376 . S
C2538 C2536 1.394 . S
C2538 C2539 1.369 . S
C2538 C2542 1.531 . S
C2539 C2538 1.369 . S
C2539 C2540 1.410 . S
C2539 C2547 1.503 . S
C2540 C2539 1.410 . S
C2540 C2541 1.392 . S
C2540 C2543 1.511 . S
C2541 C2537 1.376 . S
C2541 C2540 1.392 . S
C2541 H2553 0.929 . S
C2542 C2538 1.531 . S
C2542 H2554 0.960 . S
C2542 H2555 0.962 . S
C2542 H2556 0.960 . S
C2543 C2540 1.511 . S
C2543 H2557 0.961 . S
C2543 H2558 0.961 . S
C2543 H2559 0.961 . S
C2544 C2545 1.370 . S
C2544 C2546 1.363 . S
C2544 H2560 0.931 . S
C2545 C2544 1.370 . S
C2545 C2549 1.408 . S
C2546 C2544 1.363 . S
C2546 C2547 1.370 . S
C2546 C2550 1.524 . S
C2547 C2539 1.503 . S
C2547 C2546 1.370 . S
C2547 C2548 1.403 . S
C2548 C2547 1.403 . S
C2548 C2549 1.404 . S
C2548 C2551 1.539 . S
C2549 C2545 1.408 . S
C2549 C2548 1.404 . S
C2549 H2561 0.930 . S
C2550 C2546 1.524 . S
C2550 H2562 0.956 . S
C2550 H2563 0.961 . S
C2550 H2564 0.961 . S
C2551 C2548 1.539 . S
C2551 H2565 0.958 . S
C2551 H2566 0.961 . S
C2551 H2567 0.960 . S
H2552 C2536 0.931 . S
H2553 C2541 0.929 . S
H2554 C2542 0.960 . S
H2555 C2542 0.962 . S
H2556 C2542 0.960 . S
H2557 C2543 0.961 . S
H2558 C2543 0.961 . S
H2559 C2543 0.961 . S
H2560 C2544 0.931 . S
H2561 C2549 0.930 . S
H2562 C2550 0.956 . S
H2563 C2550 0.961 . S
H2564 C2550 0.961 . S
H2565 C2551 0.958 . S
H2566 C2551 0.961 . S
H2567 C2551 0.960 . S
C2568 C2569 1.391 . S
C2568 C2570 1.394 . S
C2568 H2584 0.931 . S
C2569 C2568 1.391 . S
C2569 C2573 1.376 . S
C2570 C2568 1.394 . S
C2570 C2571 1.369 . S
C2570 C2574 1.531 . S
C2571 C2570 1.369 . S
C2571 C2572 1.410 . S
C2571 C2579 1.503 . S
C2572 C2571 1.410 . S
C2572 C2573 1.392 . S
C2572 C2575 1.511 . S
C2573 C2569 1.376 . S
C2573 C2572 1.392 . S
C2573 H2585 0.929 . S
C2574 C2570 1.531 . S
C2574 H2586 0.960 . S
C2574 H2587 0.962 . S
C2574 H2588 0.960 . S
C2575 C2572 1.511 . S
C2575 H2589 0.961 . S
C2575 H2590 0.961 . S
C2575 H2591 0.961 . S
C2576 C2577 1.370 . S
C2576 C2578 1.363 . S
C2576 H2592 0.931 . S
C2577 C2576 1.370 . S
C2577 C2581 1.408 . S
C2578 C2576 1.363 . S
C2578 C2579 1.370 . S
C2578 C2582 1.524 . S
C2579 C2571 1.503 . S
C2579 C2578 1.370 . S
C2579 C2580 1.403 . S
C2580 C2579 1.403 . S
C2580 C2581 1.404 . S
C2580 C2583 1.539 . S
C2581 C2577 1.408 . S
C2581 C2580 1.404 . S
C2581 H2593 0.930 . S
C2582 C2578 1.524 . S
C2582 H2594 0.956 . S
C2582 H2595 0.961 . S
C2582 H2596 0.961 . S
C2583 C2580 1.539 . S
C2583 H2597 0.958 . S
C2583 H2598 0.961 . S
C2583 H2599 0.960 . S
H2584 C2568 0.931 . S
H2585 C2573 0.929 . S
H2586 C2574 0.960 . S
H2587 C2574 0.962 . S
H2588 C2574 0.960 . S
H2589 C2575 0.961 . S
H2590 C2575 0.961 . S
H2591 C2575 0.961 . S
H2592 C2576 0.931 . S
H2593 C2581 0.930 . S
H2594 C2582 0.956 . S
H2595 C2582 0.961 . S
H2596 C2582 0.961 . S
H2597 C2583 0.958 . S
H2598 C2583 0.961 . S
H2599 C2583 0.960 . S
C2600 C2601 1.391 . S
C2600 C2602 1.394 . S
C2600 H2616 0.931 . S
C2601 C2600 1.391 . S
C2601 C2605 1.376 . S
C2602 C2600 1.394 . S
C2602 C2603 1.369 . S
C2602 C2606 1.531 . S
C2603 C2602 1.369 . S
C2603 C2604 1.410 . S
C2603 C2611 1.503 . S
C2604 C2603 1.410 . S
C2604 C2605 1.392 . S
C2604 C2607 1.511 . S
C2605 C2601 1.376 . S
C2605 C2604 1.392 . S
C2605 H2617 0.929 . S
C2606 C2602 1.531 . S
C2606 H2618 0.960 . S
C2606 H2619 0.962 . S
C2606 H2620 0.960 . S
C2607 C2604 1.511 . S
C2607 H2621 0.961 . S
C2607 H2622 0.961 . S
C2607 H2623 0.961 . S
C2608 C2609 1.370 . S
C2608 C2610 1.363 . S
C2608 H2624 0.931 . S
C2609 C2608 1.370 . S
C2609 C2613 1.408 . S
C2610 C2608 1.363 . S
C2610 C2611 1.370 . S
C2610 C2614 1.524 . S
C2611 C2603 1.503 . S
C2611 C2610 1.370 . S
C2611 C2612 1.403 . S
C2612 C2611 1.403 . S
C2612 C2613 1.404 . S
C2612 C2615 1.539 . S
C2613 C2609 1.408 . S
C2613 C2612 1.404 . S
C2613 H2625 0.930 . S
C2614 C2610 1.524 . S
C2614 H2626 0.956 . S
C2614 H2627 0.961 . S
C2614 H2628 0.961 . S
C2615 C2612 1.539 . S
C2615 H2629 0.958 . S
C2615 H2630 0.961 . S
C2615 H2631 0.960 . S
H2616 C2600 0.931 . S
H2617 C2605 0.929 . S
H2618 C2606 0.960 . S
H2619 C2606 0.962 . S
H2620 C2606 0.960 . S
H2621 C2607 0.961 . S
H2622 C2607 0.961 . S
H2623 C2607 0.961 . S
H2624 C2608 0.931 . S
H2625 C2613 0.930 . S
H2626 C2614 0.956 . S
H2627 C2614 0.961 . S
H2628 C2614 0.961 . S
H2629 C2615 0.958 . S
H2630 C2615 0.961 . S
H2631 C2615 0.960 . S
C2632 C2633 1.391 . S
C2632 C2634 1.394 . S
C2632 H2648 0.931 . S
C2633 C2632 1.391 . S
C2633 C2637 1.376 . S
C2634 C2632 1.394 . S
C2634 C2635 1.369 . S
C2634 C2638 1.531 . S
C2635 C2634 1.369 . S
C2635 C2636 1.410 . S
C2635 C2643 1.503 . S
C2636 C2635 1.410 . S
C2636 C2637 1.392 . S
C2636 C2639 1.511 . S
C2637 C2633 1.376 . S
C2637 C2636 1.392 . S
C2637 H2649 0.929 . S
C2638 C2634 1.531 . S
C2638 H2650 0.960 . S
C2638 H2651 0.962 . S
C2638 H2652 0.960 . S
C2639 C2636 1.511 . S
C2639 H2653 0.961 . S
C2639 H2654 0.961 . S
C2639 H2655 0.961 . S
C2640 C2641 1.370 . S
C2640 C2642 1.363 . S
C2640 H2656 0.931 . S
C2641 C2640 1.370 . S
C2641 C2645 1.408 . S
C2642 C2640 1.363 . S
C2642 C2643 1.370 . S
C2642 C2646 1.524 . S
C2643 C2635 1.503 . S
C2643 C2642 1.370 . S
C2643 C2644 1.403 . S
C2644 C2643 1.403 . S
C2644 C2645 1.404 . S
C2644 C2647 1.539 . S
C2645 C2641 1.408 . S
C2645 C2644 1.404 . S
C2645 H2657 0.930 . S
C2646 C2642 1.524 . S
C2646 H2658 0.956 . S
C2646 H2659 0.961 . S
C2646 H2660 0.961 . S
C2647 C2644 1.539 . S
C2647 H2661 0.958 . S
C2647 H2662 0.961 . S
C2647 H2663 0.960 . S
H2648 C2632 0.931 . S
H2649 C2637 0.929 . S
H2650 C2638 0.960 . S
H2651 C2638 0.962 . S
H2652 C2638 0.960 . S
H2653 C2639 0.961 . S
H2654 C2639 0.961 . S
H2655 C2639 0.961 . S
H2656 C2640 0.931 . S
H2657 C2645 0.930 . S
H2658 C2646 0.956 . S
H2659 C2646 0.961 . S
H2660 C2646 0.961 . S
H2661 C2647 0.958 . S
H2662 C2647 0.961 . S
H2663 C2647 0.960 . S
C2664 C2665 1.391 . S
C2664 C2666 1.394 . S
C2664 H2680 0.931 . S
C2665 C2664 1.391 . S
C2665 C2669 1.376 . S
C2666 C2664 1.394 . S
C2666 C2667 1.369 . S
C2666 C2670 1.531 . S
C2667 C2666 1.369 . S
C2667 C2668 1.410 . S
C2667 C2675 1.503 . S
C2668 C2667 1.410 . S
C2668 C2669 1.392 . S
C2668 C2671 1.511 . S
C2669 C2665 1.376 . S
C2669 C2668 1.392 . S
C2669 H2681 0.929 . S
C2670 C2666 1.531 . S
C2670 H2682 0.960 . S
C2670 H2683 0.962 . S
C2670 H2684 0.960 . S
C2671 C2668 1.511 . S
C2671 H2685 0.961 . S
C2671 H2686 0.961 . S
C2671 H2687 0.961 . S
C2672 C2673 1.370 . S
C2672 C2674 1.363 . S
C2672 H2688 0.931 . S
C2673 C2672 1.370 . S
C2673 C2677 1.408 . S
C2674 C2672 1.363 . S
C2674 C2675 1.370 . S
C2674 C2678 1.524 . S
C2675 C2667 1.503 . S
C2675 C2674 1.370 . S
C2675 C2676 1.403 . S
C2676 C2675 1.403 . S
C2676 C2677 1.404 . S
C2676 C2679 1.539 . S
C2677 C2673 1.408 . S
C2677 C2676 1.404 . S
C2677 H2689 0.930 . S
C2678 C2674 1.524 . S
C2678 H2690 0.956 . S
C2678 H2691 0.961 . S
C2678 H2692 0.961 . S
C2679 C2676 1.539 . S
C2679 H2693 0.958 . S
C2679 H2694 0.961 . S
C2679 H2695 0.960 . S
H2680 C2664 0.931 . S
H2681 C2669 0.929 . S
H2682 C2670 0.960 . S
H2683 C2670 0.962 . S
H2684 C2670 0.960 . S
H2685 C2671 0.961 . S
H2686 C2671 0.961 . S
H2687 C2671 0.961 . S
H2688 C2672 0.931 . S
H2689 C2677 0.930 . S
H2690 C2678 0.956 . S
H2691 C2678 0.961 . S
H2692 C2678 0.961 . S
H2693 C2679 0.958 . S
H2694 C2679 0.961 . S
H2695 C2679 0.960 . S
C2696 C2697 1.391 . S
C2696 C2698 1.394 . S
C2696 H2712 0.931 . S
C2697 C2696 1.391 . S
C2697 C2701 1.376 . S
C2698 C2696 1.394 . S
C2698 C2699 1.369 . S
C2698 C2702 1.531 . S
C2699 C2698 1.369 . S
C2699 C2700 1.410 . S
C2699 C2707 1.503 . S
C2700 C2699 1.410 . S
C2700 C2701 1.392 . S
C2700 C2703 1.511 . S
C2701 C2697 1.376 . S
C2701 C2700 1.392 . S
C2701 H2713 0.929 . S
C2702 C2698 1.531 . S
C2702 H2714 0.960 . S
C2702 H2715 0.962 . S
C2702 H2716 0.960 . S
C2703 C2700 1.511 . S
C2703 H2717 0.961 . S
C2703 H2718 0.961 . S
C2703 H2719 0.961 . S
C2704 C2705 1.370 . S
C2704 C2706 1.363 . S
C2704 H2720 0.931 . S
C2705 C2704 1.370 . S
C2705 C2709 1.408 . S
C2706 C2704 1.363 . S
C2706 C2707 1.370 . S
C2706 C2710 1.524 . S
C2707 C2699 1.503 . S
C2707 C2706 1.370 . S
C2707 C2708 1.403 . S
C2708 C2707 1.403 . S
C2708 C2709 1.404 . S
C2708 C2711 1.539 . S
C2709 C2705 1.408 . S
C2709 C2708 1.404 . S
C2709 H2721 0.930 . S
C2710 C2706 1.524 . S
C2710 H2722 0.956 . S
C2710 H2723 0.961 . S
C2710 H2724 0.961 . S
C2711 C2708 1.539 . S
C2711 H2725 0.958 . S
C2711 H2726 0.961 . S
C2711 H2727 0.960 . S
H2712 C2696 0.931 . S
H2713 C2701 0.929 . S
H2714 C2702 0.960 . S
H2715 C2702 0.962 . S
H2716 C2702 0.960 . S
H2717 C2703 0.961 . S
H2718 C2703 0.961 . S
H2719 C2703 0.961 . S
H2720 C2704 0.931 . S
H2721 C2709 0.930 . S
H2722 C2710 0.956 . S
H2723 C2710 0.961 . S
H2724 C2710 0.961 . S
H2725 C2711 0.958 . S
H2726 C2711 0.961 . S
H2727 C2711 0.960 . S
C2728 C2729 1.391 . S
C2728 C2730 1.394 . S
C2728 H2744 0.931 . S
C2729 C2728 1.391 . S
C2729 C2733 1.376 . S
C2730 C2728 1.394 . S
C2730 C2731 1.369 . S
C2730 C2734 1.531 . S
C2731 C2730 1.369 . S
C2731 C2732 1.410 . S
C2731 C2739 1.503 . S
C2732 C2731 1.410 . S
C2732 C2733 1.392 . S
C2732 C2735 1.511 . S
C2733 C2729 1.376 . S
C2733 C2732 1.392 . S
C2733 H2745 0.929 . S
C2734 C2730 1.531 . S
C2734 H2746 1.011 . S
C2734 H2747 0.962 . S
C2734 H2748 0.960 . S
C2735 C2732 1.511 . S
C2735 H2749 0.961 . S
C2735 H2750 0.961 . S
C2735 H2751 0.961 . S
C2736 C2737 1.370 . S
C2736 C2738 1.363 . S
C2736 H2752 0.931 . S
C2737 C2736 1.370 . S
C2737 C2741 1.408 1_565 S
C2738 C2736 1.363 . S
C2738 C2739 1.370 . S
C2738 C2742 1.524 . S
C2739 C2731 1.503 . S
C2739 C2738 1.370 . S
C2739 C2740 1.403 1_565 S
C2740 C2739 1.403 1_545 S
C2740 C2741 1.404 . S
C2740 C2743 1.539 . S
C2741 C2737 1.408 1_545 S
C2741 C2740 1.404 . S
C2741 H2753 0.930 . S
C2742 C2738 1.524 . S
C2742 H2754 0.956 . S
C2742 H2755 0.961 . S
C2742 H2756 0.961 . S
C2743 C2740 1.539 . S
C2743 H2757 0.958 . S
C2743 H2758 0.961 . S
C2743 H2759 0.960 . S
H2744 C2728 0.931 . S
H2745 C2733 0.929 . S
H2746 C2734 1.011 . S
H2747 C2734 0.962 . S
H2748 C2734 0.960 . S
H2749 C2735 0.961 . S
H2750 C2735 0.961 . S
H2751 C2735 0.961 . S
H2752 C2736 0.931 . S
H2753 C2741 0.930 . S
H2754 C2742 0.956 . S
H2755 C2742 0.961 . S
H2756 C2742 0.961 . S
H2757 C2743 0.958 . S
H2758 C2743 0.961 . S
H2759 C2743 0.960 . S
C2760 C2761 1.393 . S
C2760 C2762 1.394 . S
C2760 H2776 0.932 . S
C2761 C2760 1.393 . S
C2761 C2765 1.379 . S
C2762 C2760 1.394 . S
C2762 C2763 1.369 . S
C2762 C2766 1.531 . S
C2763 C2762 1.369 . S
C2763 C2764 1.410 . S
C2763 C2771 1.503 . S
C2764 C2763 1.410 . S
C2764 C2765 1.392 . S
C2764 C2767 1.511 . S
C2765 C2761 1.379 . S
C2765 C2764 1.392 . S
C2765 H2777 0.929 . S
C2766 C2762 1.531 . S
C2766 H2778 0.960 . S
C2766 H2779 0.962 1_565 S
C2766 H2780 0.960 . S
C2767 C2764 1.511 . S
C2767 H2781 0.961 . S
C2767 H2782 0.961 . S
C2767 H2783 0.961 . S
C2768 C2769 1.370 1_545 S
C2768 C2770 1.363 . S
C2768 H2784 0.931 . S
C2769 C2768 1.370 1_565 S
C2769 C2773 1.408 . S
C2770 C2768 1.363 . S
C2770 C2771 1.370 1_545 S
C2770 C2774 1.524 . S
C2771 C2763 1.503 . S
C2771 C2770 1.370 1_565 S
C2771 C2772 1.403 . S
C2772 C2771 1.403 . S
C2772 C2773 1.404 . S
C2772 C2775 1.539 . S
C2773 C2769 1.408 . S
C2773 C2772 1.404 . S
C2773 H2785 0.930 . S
C2774 C2770 1.524 . S
C2774 H2786 0.956 . S
C2774 H2787 0.961 . S
C2774 H2788 0.961 . S
C2775 C2772 1.539 . S
C2775 H2789 0.958 . S
C2775 H2790 0.961 . S
C2775 H2791 0.960 . S
H2776 C2760 0.932 . S
H2777 C2765 0.929 . S
H2778 C2766 0.960 . S
H2779 C2766 0.962 1_545 S
H2780 C2766 0.960 . S
H2781 C2767 0.961 . S
H2782 C2767 0.961 . S
H2783 C2767 0.961 . S
H2784 C2768 0.931 . S
H2785 C2773 0.930 . S
H2786 C2774 0.956 . S
H2787 C2774 0.961 . S
H2788 C2774 0.961 . S
H2789 C2775 0.958 . S
H2790 C2775 0.961 . S
H2791 C2775 0.960 . S
C2792 C2793 1.391 . S
C2792 C2794 1.394 . S
C2792 H2808 0.931 . S
C2793 C2792 1.391 . S
C2793 C2797 1.376 . S
C2794 C2792 1.394 . S
C2794 C2795 1.369 . S
C2794 C2798 1.531 . S
C2795 C2794 1.369 . S
C2795 C2796 1.410 . S
C2795 C2803 1.503 . S
C2796 C2795 1.410 . S
C2796 C2797 1.392 . S
C2796 C2799 1.511 . S
C2797 C2793 1.376 . S
C2797 C2796 1.392 . S
C2797 H2809 0.929 . S
C2798 C2794 1.531 . S
C2798 H2810 0.960 . S
C2798 H2811 0.962 . S
C2798 H2812 0.960 . S
C2799 C2796 1.511 . S
C2799 H2813 0.961 . S
C2799 H2814 0.961 . S
C2799 H2815 0.961 . S
C2800 C2801 1.370 . S
C2800 C2802 1.363 . S
C2800 H2816 0.931 . S
C2801 C2800 1.370 . S
C2801 C2805 1.408 . S
C2802 C2800 1.363 . S
C2802 C2803 1.370 . S
C2802 C2806 1.524 . S
C2803 C2795 1.503 . S
C2803 C2802 1.370 . S
C2803 C2804 1.403 . S
C2804 C2803 1.403 . S
C2804 C2805 1.404 . S
C2804 C2807 1.539 . S
C2805 C2801 1.408 . S
C2805 C2804 1.404 . S
C2805 H2817 0.930 . S
C2806 C2802 1.524 . S
C2806 H2818 0.956 . S
C2806 H2819 0.961 . S
C2806 H2820 0.961 . S
C2807 C2804 1.539 . S
C2807 H2821 0.958 . S
C2807 H2822 0.961 . S
C2807 H2823 0.960 . S
H2808 C2792 0.931 . S
H2809 C2797 0.929 . S
H2810 C2798 0.960 . S
H2811 C2798 0.962 . S
H2812 C2798 0.960 . S
H2813 C2799 0.961 . S
H2814 C2799 0.961 . S
H2815 C2799 0.961 . S
H2816 C2800 0.931 . S
H2817 C2805 0.930 . S
H2818 C2806 0.956 . S
H2819 C2806 0.961 . S
H2820 C2806 0.961 . S
H2821 C2807 0.958 . S
H2822 C2807 0.961 . S
H2823 C2807 0.960 . S
C2824 C2825 1.391 . S
C2824 C2826 1.394 . S
C2824 H2840 0.931 . S
C2825 C2824 1.391 . S
C2825 C2829 1.376 1_554 S
C2826 C2824 1.394 . S
C2826 C2827 1.369 1_554 S
C2826 C2830 1.531 . S
C2827 C2826 1.369 1_556 S
C2827 C2828 1.410 . S
C2827 C2835 1.503 . S
C2828 C2827 1.410 . S
C2828 C2829 1.392 . S
C2828 C2831 1.511 . S
C2829 C2825 1.376 1_556 S
C2829 C2828 1.392 . S
C2829 H2841 0.929 . S
C2830 C2826 1.531 . S
C2830 H2842 0.960 . S
C2830 H2843 0.962 . S
C2830 H2844 0.960 . S
C2831 C2828 1.511 . S
C2831 H2845 0.961 . S
C2831 H2846 0.961 . S
C2831 H2847 0.961 . S
C2832 C2833 1.370 . S
C2832 C2834 1.363 . S
C2832 H2848 0.931 . S
C2833 C2832 1.370 . S
C2833 C2837 1.408 . S
C2834 C2832 1.363 . S
C2834 C2835 1.370 . S
C2834 C2838 1.524 . S
C2835 C2827 1.503 . S
C2835 C2834 1.370 . S
C2835 C2836 1.403 1_556 S
C2836 C2835 1.403 1_554 S
C2836 C2837 1.404 1_554 S
C2836 C2839 1.539 . S
C2837 C2833 1.408 . S
C2837 C2836 1.404 1_556 S
C2837 H2849 0.930 1_556 S
C2838 C2834 1.524 . S
C2838 H2850 0.956 . S
C2838 H2851 0.961 . S
C2838 H2852 0.961 . S
C2839 C2836 1.539 . S
C2839 H2853 0.958 . S
C2839 H2854 0.961 . S
C2839 H2855 0.960 . S
H2840 C2824 0.931 . S
H2841 C2829 0.929 . S
H2842 C2830 0.960 . S
H2843 C2830 0.962 . S
H2844 C2830 0.960 . S
H2845 C2831 0.961 . S
H2846 C2831 0.961 . S
H2847 C2831 0.961 . S
H2848 C2832 0.931 . S
H2849 C2837 0.930 1_554 S
H2850 C2838 0.956 . S
H2851 C2838 0.961 . S
H2852 C2838 0.961 . S
H2853 C2839 0.958 . S
H2854 C2839 0.961 . S
H2855 C2839 0.960 . S
C2856 C2857 1.391 . S
C2856 C2858 1.394 . S
C2856 H2872 0.931 . S
C2857 C2856 1.391 . S
C2857 C2861 1.376 . S
C2858 C2856 1.394 . S
C2858 C2859 1.369 . S
C2858 C2862 1.531 . S
C2859 C2858 1.369 . S
C2859 C2860 1.410 . S
C2859 C2867 1.503 . S
C2860 C2859 1.410 . S
C2860 C2861 1.392 . S
C2860 C2863 1.511 . S
C2861 C2857 1.376 . S
C2861 C2860 1.392 . S
C2861 H2873 0.929 . S
C2862 C2858 1.531 . S
C2862 H2874 0.960 . S
C2862 H2875 0.962 . S
C2862 H2876 0.960 . S
C2863 C2860 1.511 . S
C2863 H2877 0.961 . S
C2863 H2878 0.961 . S
C2863 H2879 0.961 . S
C2864 C2865 1.370 . S
C2864 C2866 1.363 . S
C2864 H2880 0.931 . S
C2865 C2864 1.370 . S
C2865 C2869 1.408 . S
C2866 C2864 1.363 . S
C2866 C2867 1.370 . S
C2866 C2870 1.524 . S
C2867 C2859 1.503 . S
C2867 C2866 1.370 . S
C2867 C2868 1.403 . S
C2868 C2867 1.403 . S
C2868 C2869 1.404 . S
C2868 C2871 1.539 . S
C2869 C2865 1.408 . S
C2869 C2868 1.404 . S
C2869 H2881 0.930 . S
C2870 C2866 1.524 . S
C2870 H2882 0.956 . S
C2870 H2883 0.961 . S
C2870 H2884 0.961 . S
C2871 C2868 1.539 . S
C2871 H2885 0.958 . S
C2871 H2886 0.961 . S
C2871 H2887 0.960 . S
H2872 C2856 0.931 . S
H2873 C2861 0.929 . S
H2874 C2862 0.960 . S
H2875 C2862 0.962 . S
H2876 C2862 0.960 . S
H2877 C2863 0.961 . S
H2878 C2863 0.961 . S
H2879 C2863 0.961 . S
H2880 C2864 0.931 . S
H2881 C2869 0.930 . S
H2882 C2870 0.956 . S
H2883 C2870 0.961 . S
H2884 C2870 0.961 . S
H2885 C2871 0.958 . S
H2886 C2871 0.961 . S
H2887 C2871 0.960 . S
C2888 C2889 1.391 . S
C2888 C2890 1.394 . S
C2888 H2904 0.931 . S
C2889 C2888 1.391 . S
C2889 C2893 1.376 . S
C2890 C2888 1.394 . S
C2890 C2891 1.369 . S
C2890 C2894 1.531 1_556 S
C2891 C2890 1.369 . S
C2891 C2892 1.410 . S
C2891 C2899 1.503 . S
C2892 C2891 1.410 . S
C2892 C2893 1.392 . S
C2892 C2895 1.511 . S
C2893 C2889 1.376 . S
C2893 C2892 1.392 . S
C2893 H2905 0.929 . S
C2894 C2890 1.531 1_554 S
C2894 H2906 0.960 . S
C2894 H2907 0.953 1_554 S
C2894 H2908 0.960 . S
C2895 C2892 1.511 . S
C2895 H2909 0.961 . S
C2895 H2910 0.961 . S
C2895 H2911 0.961 . S
C2896 C2897 1.370 . S
C2896 C2898 1.363 . S
C2896 H2912 0.931 . S
C2897 C2896 1.370 . S
C2897 C2901 1.408 1_556 S
C2898 C2896 1.363 . S
C2898 C2899 1.370 . S
C2898 C2902 1.524 . S
C2899 C2891 1.503 . S
C2899 C2898 1.370 . S
C2899 C2900 1.445 . S
C2900 C2899 1.445 . S
C2900 C2901 1.388 1_556 S
C2900 C2903 1.517 1_556 S
C2901 C2897 1.408 1_554 S
C2901 C2900 1.388 1_554 S
C2901 H2913 0.930 . S
C2902 C2898 1.524 . S
C2902 H2914 0.956 . S
C2902 H2915 0.961 . S
C2902 H2916 0.961 . S
C2903 C2900 1.517 1_554 S
C2903 H2917 0.958 . S
C2903 H2918 0.961 . S
C2903 H2919 0.918 1_554 S
H2904 C2888 0.931 . S
H2905 C2893 0.929 . S
H2906 C2894 0.960 . S
H2907 C2894 0.953 1_556 S
H2908 C2894 0.960 . S
H2909 C2895 0.961 . S
H2910 C2895 0.961 . S
H2911 C2895 0.961 . S
H2912 C2896 0.931 . S
H2913 C2901 0.930 . S
H2914 C2902 0.956 . S
H2915 C2902 0.961 . S
H2916 C2902 0.961 . S
H2917 C2903 0.958 . S
H2918 C2903 0.961 . S
H2919 C2903 0.918 1_556 S
C2920 C2921 1.391 . S
C2920 C2922 1.394 . S
C2920 H2936 0.931 . S
C2921 C2920 1.391 . S
C2921 C2925 1.376 . S
C2922 C2920 1.394 . S
C2922 C2923 1.369 . S
C2922 C2926 1.531 . S
C2923 C2922 1.369 . S
C2923 C2924 1.410 . S
C2923 C2931 1.503 . S
C2924 C2923 1.410 . S
C2924 C2925 1.392 . S
C2924 C2927 1.511 . S
C2925 C2921 1.376 . S
C2925 C2924 1.392 . S
C2925 H2937 0.929 . S
C2926 C2922 1.531 . S
C2926 H2938 0.960 . S
C2926 H2939 0.962 . S
C2926 H2940 0.960 . S
C2927 C2924 1.511 . S
C2927 H2941 0.961 . S
C2927 H2942 0.961 . S
C2927 H2943 0.961 . S
C2928 C2929 1.370 . S
C2928 C2930 1.363 . S
C2928 H2944 0.931 . S
C2929 C2928 1.370 . S
C2929 C2933 1.408 . S
C2930 C2928 1.363 . S
C2930 C2931 1.370 . S
C2930 C2934 1.524 . S
C2931 C2923 1.503 . S
C2931 C2930 1.370 . S
C2931 C2932 1.403 . S
C2932 C2931 1.403 . S
C2932 C2933 1.404 . S
C2932 C2935 1.539 . S
C2933 C2929 1.408 . S
C2933 C2932 1.404 . S
C2933 H2945 0.930 . S
C2934 C2930 1.524 . S
C2934 H2946 0.956 . S
C2934 H2947 0.961 . S
C2934 H2948 0.961 . S
C2935 C2932 1.539 . S
C2935 H2949 0.958 . S
C2935 H2950 0.961 . S
C2935 H2951 0.960 . S
H2936 C2920 0.931 . S
H2937 C2925 0.929 . S
H2938 C2926 0.960 . S
H2939 C2926 0.962 . S
H2940 C2926 0.960 . S
H2941 C2927 0.961 . S
H2942 C2927 0.961 . S
H2943 C2927 0.961 . S
H2944 C2928 0.931 . S
H2945 C2933 0.930 . S
H2946 C2934 0.956 . S
H2947 C2934 0.961 . S
H2948 C2934 0.961 . S
H2949 C2935 0.958 . S
H2950 C2935 0.961 . S
H2951 C2935 0.960 . S
C2952 C2953 1.391 1_655 S
C2952 C2954 1.394 . S
C2952 H2968 0.931 . S
C2953 C2952 1.391 1_455 S
C2953 C2957 1.376 . S
C2954 C2952 1.394 . S
C2954 C2955 1.369 . S
C2954 C2958 1.531 . S
C2955 C2954 1.369 . S
C2955 C2956 1.410 1_655 S
C2955 C2963 1.503 . S
C2956 C2955 1.410 1_455 S
C2956 C2957 1.392 . S
C2956 C2959 1.511 . S
C2957 C2953 1.376 . S
C2957 C2956 1.392 . S
C2957 H2969 0.929 . S
C2958 C2954 1.531 . S
C2958 H2970 0.960 . S
C2958 H2971 0.962 . S
C2958 H2972 0.960 . S
C2959 C2956 1.511 . S
C2959 H2973 0.961 . S
C2959 H2974 0.961 . S
C2959 H2975 0.961 . S
C2960 C2961 1.370 . S
C2960 C2962 1.363 . S
C2960 H2976 0.931 . S
C2961 C2960 1.370 . S
C2961 C2965 1.408 . S
C2962 C2960 1.363 . S
C2962 C2963 1.370 . S
C2962 C2966 1.524 . S
C2963 C2955 1.503 . S
C2963 C2962 1.370 . S
C2963 C2964 1.403 1_655 S
C2964 C2963 1.403 1_455 S
C2964 C2965 1.404 1_455 S
C2964 C2967 1.539 . S
C2965 C2961 1.408 . S
C2965 C2964 1.404 1_655 S
C2965 H2977 0.930 1_655 S
C2966 C2962 1.524 . S
C2966 H2978 0.956 . S
C2966 H2979 0.961 . S
C2966 H2980 0.961 . S
C2967 C2964 1.539 . S
C2967 H2981 0.958 . S
C2967 H2982 0.961 . S
C2967 H2983 0.960 . S
H2968 C2952 0.931 . S
H2969 C2957 0.929 . S
H2970 C2958 0.960 . S
H2971 C2958 0.962 . S
H2972 C2958 0.960 . S
H2973 C2959 0.961 . S
H2974 C2959 0.961 . S
H2975 C2959 0.961 . S
H2976 C2960 0.931 . S
H2977 C2965 0.930 1_455 S
H2978 C2966 0.956 . S
H2979 C2966 0.961 . S
H2980 C2966 0.961 . S
H2981 C2967 0.958 . S
H2982 C2967 0.961 . S
H2983 C2967 0.960 . S
C2984 C2985 1.391 . S
C2984 C2986 1.394 . S
C2984 H3000 0.931 . S
C2985 C2984 1.391 . S
C2985 C2989 1.376 . S
C2986 C2984 1.394 . S
C2986 C2987 1.369 . S
C2986 C2990 1.531 . S
C2987 C2986 1.369 . S
C2987 C2988 1.410 . S
C2987 C2995 1.503 . S
C2988 C2987 1.410 . S
C2988 C2989 1.392 . S
C2988 C2991 1.511 . S
C2989 C2985 1.376 . S
C2989 C2988 1.392 . S
C2989 H3001 0.929 . S
C2990 C2986 1.531 . S
C2990 H3002 0.960 . S
C2990 H3003 0.962 . S
C2990 H3004 0.960 . S
C2991 C2988 1.511 . S
C2991 H3005 0.961 . S
C2991 H3006 0.961 . S
C2991 H3007 0.961 . S
C2992 C2993 1.370 . S
C2992 C2994 1.363 . S
C2992 H3008 0.931 . S
C2993 C2992 1.370 . S
C2993 C2997 1.408 . S
C2994 C2992 1.363 . S
C2994 C2995 1.370 . S
C2994 C2998 1.524 . S
C2995 C2987 1.503 . S
C2995 C2994 1.370 . S
C2995 C2996 1.403 . S
C2996 C2995 1.403 . S
C2996 C2997 1.404 . S
C2996 C2999 1.539 . S
C2997 C2993 1.408 . S
C2997 C2996 1.404 . S
C2997 H3009 0.930 . S
C2998 C2994 1.524 . S
C2998 H3010 0.956 . S
C2998 H3011 0.961 . S
C2998 H3012 0.961 . S
C2999 C2996 1.539 . S
C2999 H3013 0.958 . S
C2999 H3014 0.961 . S
C2999 H3015 0.960 . S
H3000 C2984 0.931 . S
H3001 C2989 0.929 . S
H3002 C2990 0.960 . S
H3003 C2990 0.962 . S
H3004 C2990 0.960 . S
H3005 C2991 0.961 . S
H3006 C2991 0.961 . S
H3007 C2991 0.961 . S
H3008 C2992 0.931 . S
H3009 C2997 0.930 . S
H3010 C2998 0.956 . S
H3011 C2998 0.961 . S
H3012 C2998 0.961 . S
H3013 C2999 0.958 . S
H3014 C2999 0.961 . S
H3015 C2999 0.960 . S
C3016 C3017 1.391 . S
C3016 C3018 1.394 . S
C3016 H3032 0.931 . S
C3017 C3016 1.391 . S
C3017 C3021 1.376 . S
C3018 C3016 1.394 . S
C3018 C3019 1.369 . S
C3018 C3022 1.531 . S
C3019 C3018 1.369 . S
C3019 C3020 1.410 . S
C3019 C3027 1.503 . S
C3020 C3019 1.410 . S
C3020 C3021 1.392 . S
C3020 C3023 1.511 . S
C3021 C3017 1.376 . S
C3021 C3020 1.392 . S
C3021 H3033 0.929 . S
C3022 C3018 1.531 . S
C3022 H3034 0.960 1_655 S
C3022 H3035 0.962 . S
C3022 H3036 0.960 1_655 S
C3023 C3020 1.511 . S
C3023 H3037 0.961 . S
C3023 H3038 0.961 . S
C3023 H3039 0.961 . S
C3024 C3025 1.370 . S
C3024 C3026 1.363 . S
C3024 H3040 0.931 . S
C3025 C3024 1.370 . S
C3025 C3029 1.408 1_655 S
C3026 C3024 1.363 . S
C3026 C3027 1.370 . S
C3026 C3030 1.524 . S
C3027 C3019 1.503 . S
C3027 C3026 1.370 . S
C3027 C3028 1.403 1_655 S
C3028 C3027 1.403 1_455 S
C3028 C3029 1.404 . S
C3028 C3031 1.539 . S
C3029 C3025 1.408 1_455 S
C3029 C3028 1.404 . S
C3029 H3041 0.930 . S
C3030 C3026 1.524 . S
C3030 H3042 0.956 . S
C3030 H3043 0.961 . S
C3030 H3044 0.961 . S
C3031 C3028 1.539 . S
C3031 H3045 0.958 . S
C3031 H3046 0.961 . S
C3031 H3047 0.960 . S
H3032 C3016 0.931 . S
H3033 C3021 0.929 . S
H3034 C3022 0.960 1_455 S
H3035 C3022 0.962 . S
H3036 C3022 0.960 1_455 S
H3037 C3023 0.961 . S
H3038 C3023 0.961 . S
H3039 C3023 0.961 . S
H3040 C3024 0.931 . S
H3041 C3029 0.930 . S
H3042 C3030 0.956 . S
H3043 C3030 0.961 . S
H3044 C3030 0.961 . S
H3045 C3031 0.958 . S
H3046 C3031 0.961 . S
H3047 C3031 0.960 . S
C3048 C3049 1.391 . S
C3048 C3050 1.394 . S
C3048 H3064 0.931 . S
C3049 C3048 1.391 . S
C3049 C3053 1.376 . S
C3050 C3048 1.394 . S
C3050 C3051 1.369 . S
C3050 C3054 1.531 . S
C3051 C3050 1.369 . S
C3051 C3052 1.410 . S
C3051 C3059 1.503 . S
C3052 C3051 1.410 . S
C3052 C3053 1.392 . S
C3052 C3055 1.511 . S
C3053 C3049 1.376 . S
C3053 C3052 1.392 . S
C3053 H3065 0.929 . S
C3054 C3050 1.531 . S
C3054 H3066 0.960 . S
C3054 H3067 0.962 . S
C3054 H3068 0.960 . S
C3055 C3052 1.511 . S
C3055 H3069 0.961 . S
C3055 H3070 0.961 . S
C3055 H3071 0.961 . S
C3056 C3057 1.370 . S
C3056 C3058 1.363 . S
C3056 H3072 0.931 . S
C3057 C3056 1.370 . S
C3057 C3061 1.408 . S
C3058 C3056 1.363 . S
C3058 C3059 1.370 . S
C3058 C3062 1.524 . S
C3059 C3051 1.503 . S
C3059 C3058 1.370 . S
C3059 C3060 1.403 . S
C3060 C3059 1.403 . S
C3060 C3061 1.404 . S
C3060 C3063 1.539 . S
C3061 C3057 1.408 . S
C3061 C3060 1.404 . S
C3061 H3073 0.930 . S
C3062 C3058 1.524 . S
C3062 H3074 0.956 . S
C3062 H3075 0.961 . S
C3062 H3076 0.961 . S
C3063 C3060 1.539 . S
C3063 H3077 0.958 . S
C3063 H3078 0.961 . S
C3063 H3079 0.960 . S
H3064 C3048 0.931 . S
H3065 C3053 0.929 . S
H3066 C3054 0.960 . S
H3067 C3054 0.962 . S
H3068 C3054 0.960 . S
H3069 C3055 0.961 . S
H3070 C3055 0.961 . S
H3071 C3055 0.961 . S
H3072 C3056 0.931 . S
H3073 C3061 0.930 . S
H3074 C3062 0.956 . S
H3075 C3062 0.961 . S
H3076 C3062 0.961 . S
H3077 C3063 0.958 . S
H3078 C3063 0.961 . S
H3079 C3063 0.960 . S
C3080 C3081 1.391 . S
C3080 C3082 1.394 . S
C3080 H3096 0.931 . S
C3081 C3080 1.391 . S
C3081 C3085 1.376 . S
C3082 C3080 1.394 . S
C3082 C3083 1.369 . S
C3082 C3086 1.531 . S
C3083 C3082 1.369 . S
C3083 C3084 1.410 . S
C3083 C3091 1.503 . S
C3084 C3083 1.410 . S
C3084 C3085 1.392 . S
C3084 C3087 1.511 . S
C3085 C3081 1.376 . S
C3085 C3084 1.392 . S
C3085 H3097 0.929 . S
C3086 C3082 1.531 . S
C3086 H3098 0.960 . S
C3086 H3099 0.962 . S
C3086 H3100 0.960 . S
C3087 C3084 1.511 . S
C3087 H3101 0.961 . S
C3087 H3102 0.961 . S
C3087 H3103 0.961 . S
C3088 C3089 1.370 . S
C3088 C3090 1.363 . S
C3088 H3104 0.931 . S
C3089 C3088 1.370 . S
C3089 C3093 1.408 . S
C3090 C3088 1.363 . S
C3090 C3091 1.370 . S
C3090 C3094 1.524 . S
C3091 C3083 1.503 . S
C3091 C3090 1.370 . S
C3091 C3092 1.403 . S
C3092 C3091 1.403 . S
C3092 C3093 1.404 . S
C3092 C3095 1.539 . S
C3093 C3089 1.408 . S
C3093 C3092 1.404 . S
C3093 H3105 0.930 . S
C3094 C3090 1.524 . S
C3094 H3106 0.956 . S
C3094 H3107 0.961 . S
C3094 H3108 0.961 . S
C3095 C3092 1.539 . S
C3095 H3109 0.958 . S
C3095 H3110 0.961 . S
C3095 H3111 0.960 . S
H3096 C3080 0.931 . S
H3097 C3085 0.929 . S
H3098 C3086 0.960 . S
H3099 C3086 0.962 . S
H3100 C3086 0.960 . S
H3101 C3087 0.961 . S
H3102 C3087 0.961 . S
H3103 C3087 0.961 . S
H3104 C3088 0.931 . S
H3105 C3093 0.930 . S
H3106 C3094 0.956 . S
H3107 C3094 0.961 . S
H3108 C3094 0.961 . S
H3109 C3095 0.958 . S
H3110 C3095 0.961 . S
H3111 C3095 0.960 . S
C3112 C3113 1.391 . S
C3112 C3114 1.394 . S
C3112 H3128 0.931 . S
C3113 C3112 1.391 . S
C3113 C3117 1.376 . S
C3114 C3112 1.394 . S
C3114 C3115 1.369 . S
C3114 C3118 1.531 . S
C3115 C3114 1.369 . S
C3115 C3116 1.410 . S
C3115 C3123 1.503 . S
C3116 C3115 1.410 . S
C3116 C3117 1.392 . S
C3116 C3119 1.511 . S
C3117 C3113 1.376 . S
C3117 C3116 1.392 . S
C3117 H3129 0.929 . S
C3118 C3114 1.531 . S
C3118 H3130 0.960 1_545 S
C3118 H3131 0.962 . S
C3118 H3132 0.960 1_545 S
C3119 C3116 1.511 . S
C3119 H3133 0.961 . S
C3119 H3134 0.961 . S
C3119 H3135 0.961 . S
C3120 C3121 1.370 . S
C3120 C3122 1.363 . S
C3120 H3136 0.931 . S
C3121 C3120 1.370 . S
C3121 C3125 1.408 1_545 S
C3122 C3120 1.363 . S
C3122 C3123 1.370 . S
C3122 C3126 1.524 . S
C3123 C3115 1.503 . S
C3123 C3122 1.370 . S
C3123 C3124 1.403 1_545 S
C3124 C3123 1.403 1_565 S
C3124 C3125 1.404 . S
C3124 C3127 1.539 . S
C3125 C3121 1.408 1_565 S
C3125 C3124 1.404 . S
C3125 H3137 0.930 . S
C3126 C3122 1.524 . S
C3126 H3138 0.956 . S
C3126 H3139 0.961 . S
C3126 H3140 0.961 . S
C3127 C3124 1.539 . S
C3127 H3141 0.958 . S
C3127 H3142 0.961 . S
C3127 H3143 0.960 . S
H3128 C3112 0.931 . S
H3129 C3117 0.929 . S
H3130 C3118 0.960 1_565 S
H3131 C3118 0.962 . S
H3132 C3118 0.960 1_565 S
H3133 C3119 0.961 . S
H3134 C3119 0.961 . S
H3135 C3119 0.961 . S
H3136 C3120 0.931 . S
H3137 C3125 0.930 . S
H3138 C3126 0.956 . S
H3139 C3126 0.961 . S
H3140 C3126 0.961 . S
H3141 C3127 0.958 . S
H3142 C3127 0.961 . S
H3143 C3127 0.960 . S
C3144 C3145 1.391 . S
C3144 C3146 1.394 . S
C3144 H3160 0.931 . S
C3145 C3144 1.391 . S
C3145 C3149 1.376 1_565 S
C3146 C3144 1.394 . S
C3146 C3147 1.370 1_565 S
C3146 C3150 1.531 . S
C3147 C3146 1.370 1_545 S
C3147 C3148 1.408 . S
C3147 C3155 1.503 . S
C3148 C3147 1.408 . S
C3148 C3149 1.392 . S
C3148 C3151 1.511 . S
C3149 C3145 1.376 1_545 S
C3149 C3148 1.392 . S
C3149 H3161 0.929 . S
C3150 C3146 1.531 . S
C3150 H3162 0.960 . S
C3150 H3163 0.962 . S
C3150 H3164 0.960 . S
C3151 C3148 1.511 . S
C3151 H3165 0.961 . S
C3151 H3166 0.961 . S
C3151 H3167 0.961 . S
C3152 C3153 1.370 . S
C3152 C3154 1.363 . S
C3152 H3168 0.931 . S
C3153 C3152 1.370 . S
C3153 C3157 1.408 1_545 S
C3154 C3152 1.363 . S
C3154 C3155 1.370 . S
C3154 C3158 1.524 . S
C3155 C3147 1.503 . S
C3155 C3154 1.370 . S
C3155 C3156 1.403 1_545 S
C3156 C3155 1.403 1_565 S
C3156 C3157 1.404 . S
C3156 C3159 1.539 . S
C3157 C3153 1.408 1_565 S
C3157 C3156 1.404 . S
C3157 H3169 0.930 . S
C3158 C3154 1.524 . S
C3158 H3170 0.956 . S
C3158 H3171 0.961 . S
C3158 H3172 0.961 . S
C3159 C3156 1.539 . S
C3159 H3173 0.958 . S
C3159 H3174 0.961 . S
C3159 H3175 0.960 . S
H3160 C3144 0.931 . S
H3161 C3149 0.929 . S
H3162 C3150 0.960 . S
H3163 C3150 0.962 . S
H3164 C3150 0.960 . S
H3165 C3151 0.961 . S
H3166 C3151 0.961 . S
H3167 C3151 0.961 . S
H3168 C3152 0.931 . S
H3169 C3157 0.930 . S
H3170 C3158 0.956 . S
H3171 C3158 0.961 . S
H3172 C3158 0.961 . S
H3173 C3159 0.958 . S
H3174 C3159 0.961 . S
H3175 C3159 0.960 . S
C3176 C3177 1.391 . S
C3176 C3178 1.394 . S
C3176 H3192 0.931 . S
C3177 C3176 1.391 . S
C3177 C3181 1.376 . S
C3178 C3176 1.394 . S
C3178 C3179 1.369 . S
C3178 C3182 1.531 . S
C3179 C3178 1.369 . S
C3179 C3180 1.410 . S
C3179 C3187 1.503 . S
C3180 C3179 1.410 . S
C3180 C3181 1.392 . S
C3180 C3183 1.511 . S
C3181 C3177 1.376 . S
C3181 C3180 1.392 . S
C3181 H3193 0.929 . S
C3182 C3178 1.531 . S
C3182 H3194 0.960 . S
C3182 H3195 0.962 . S
C3182 H3196 0.960 . S
C3183 C3180 1.511 . S
C3183 H3197 0.961 . S
C3183 H3198 0.961 . S
C3183 H3199 0.961 . S
C3184 C3185 1.370 . S
C3184 C3186 1.363 . S
C3184 H3200 0.931 . S
C3185 C3184 1.370 . S
C3185 C3189 1.408 . S
C3186 C3184 1.363 . S
C3186 C3187 1.370 . S
C3186 C3190 1.524 . S
C3187 C3179 1.503 . S
C3187 C3186 1.370 . S
C3187 C3188 1.403 . S
C3188 C3187 1.403 . S
C3188 C3189 1.404 . S
C3188 C3191 1.539 . S
C3189 C3185 1.408 . S
C3189 C3188 1.404 . S
C3189 H3201 0.930 . S
C3190 C3186 1.524 . S
C3190 H3202 0.956 . S
C3190 H3203 0.961 . S
C3190 H3204 0.961 . S
C3191 C3188 1.539 . S
C3191 H3205 0.958 . S
C3191 H3206 0.961 . S
C3191 H3207 0.960 . S
H3192 C3176 0.931 . S
H3193 C3181 0.929 . S
H3194 C3182 0.960 . S
H3195 C3182 0.962 . S
H3196 C3182 0.960 . S
H3197 C3183 0.961 . S
H3198 C3183 0.961 . S
H3199 C3183 0.961 . S
H3200 C3184 0.931 . S
H3201 C3189 0.930 . S
H3202 C3190 0.956 . S
H3203 C3190 0.961 . S
H3204 C3190 0.961 . S
H3205 C3191 0.958 . S
H3206 C3191 0.961 . S
H3207 C3191 0.960 . S
C3208 C3209 1.398 . S
C3208 C3210 1.394 . S
C3208 H3224 0.931 . S
C3209 C3208 1.398 . S
C3209 C3213 1.376 . S
C3210 C3208 1.394 . S
C3210 C3211 1.369 . S
C3210 C3214 1.531 . S
C3211 C3210 1.369 . S
C3211 C3212 1.410 . S
C3211 C3219 1.503 . S
C3212 C3211 1.410 . S
C3212 C3213 1.404 . S
C3212 C3215 1.511 . S
C3213 C3209 1.376 . S
C3213 C3212 1.404 . S
C3213 H3225 0.920 1_554 S
C3214 C3210 1.531 . S
C3214 H3226 0.960 . S
C3214 H3227 0.962 . S
C3214 H3228 0.960 . S
C3215 C3212 1.511 . S
C3215 H3229 0.961 1_554 S
C3215 H3230 0.980 . S
C3215 H3231 0.961 . S
C3216 C3217 1.370 1_556 S
C3216 C3218 1.363 . S
C3216 H3232 0.931 . S
C3217 C3216 1.370 1_554 S
C3217 C3221 1.408 . S
C3218 C3216 1.363 . S
C3218 C3219 1.370 1_556 S
C3218 C3222 1.524 . S
C3219 C3211 1.503 . S
C3219 C3218 1.370 1_554 S
C3219 C3220 1.403 . S
C3220 C3219 1.403 . S
C3220 C3221 1.404 . S
C3220 C3223 1.539 . S
C3221 C3217 1.408 . S
C3221 C3220 1.404 . S
C3221 H3233 0.930 . S
C3222 C3218 1.524 . S
C3222 H3234 0.956 . S
C3222 H3235 0.961 . S
C3222 H3236 0.961 . S
C3223 C3220 1.539 . S
C3223 H3237 0.958 . S
C3223 H3238 0.961 . S
C3223 H3239 0.960 . S
H3224 C3208 0.931 . S
H3225 C3213 0.920 1_556 S
H3226 C3214 0.960 . S
H3227 C3214 0.962 . S
H3228 C3214 0.960 . S
H3229 C3215 0.961 1_556 S
H3230 C3215 0.980 . S
H3231 C3215 0.961 . S
H3232 C3216 0.931 . S
H3233 C3221 0.930 . S
H3234 C3222 0.956 . S
H3235 C3222 0.961 . S
H3236 C3222 0.961 . S
H3237 C3223 0.958 . S
H3238 C3223 0.961 . S
H3239 C3223 0.960 . S
C3240 C3241 1.391 . S
C3240 C3242 1.394 . S
C3240 H3256 0.931 . S
C3241 C3240 1.391 . S
C3241 C3245 1.376 . S
C3242 C3240 1.394 . S
C3242 C3243 1.369 . S
C3242 C3246 1.531 . S
C3243 C3242 1.369 . S
C3243 C3244 1.410 . S
C3243 C3251 1.503 . S
C3244 C3243 1.410 . S
C3244 C3245 1.392 . S
C3244 C3247 1.511 . S
C3245 C3241 1.376 . S
C3245 C3244 1.392 . S
C3245 H3257 0.929 . S
C3246 C3242 1.531 . S
C3246 H3258 0.960 . S
C3246 H3259 0.962 . S
C3246 H3260 0.960 . S
C3247 C3244 1.511 . S
C3247 H3261 0.961 . S
C3247 H3262 0.961 . S
C3247 H3263 0.961 . S
C3248 C3249 1.370 . S
C3248 C3250 1.363 . S
C3248 H3264 0.931 . S
C3249 C3248 1.370 . S
C3249 C3253 1.408 . S
C3250 C3248 1.363 . S
C3250 C3251 1.370 . S
C3250 C3254 1.524 . S
C3251 C3243 1.503 . S
C3251 C3250 1.370 . S
C3251 C3252 1.403 . S
C3252 C3251 1.403 . S
C3252 C3253 1.404 . S
C3252 C3255 1.539 . S
C3253 C3249 1.408 . S
C3253 C3252 1.404 . S
C3253 H3265 0.930 . S
C3254 C3250 1.524 . S
C3254 H3266 0.956 . S
C3254 H3267 0.961 . S
C3254 H3268 0.961 . S
C3255 C3252 1.539 . S
C3255 H3269 0.958 . S
C3255 H3270 0.961 . S
C3255 H3271 0.960 . S
H3256 C3240 0.931 . S
H3257 C3245 0.929 . S
H3258 C3246 0.960 . S
H3259 C3246 0.962 . S
H3260 C3246 0.960 . S
H3261 C3247 0.961 . S
H3262 C3247 0.961 . S
H3263 C3247 0.961 . S
H3264 C3248 0.931 . S
H3265 C3253 0.930 . S
H3266 C3254 0.956 . S
H3267 C3254 0.961 . S
H3268 C3254 0.961 . S
H3269 C3255 0.958 . S
H3270 C3255 0.961 . S
H3271 C3255 0.960 . S
C3272 C3273 1.391 . S
C3272 C3274 1.394 . S
C3272 H3288 0.931 . S
C3273 C3272 1.391 . S
C3273 C3277 1.376 . S
C3274 C3272 1.394 . S
C3274 C3275 1.369 . S
C3274 C3278 1.531 . S
C3275 C3274 1.369 . S
C3275 C3276 1.410 . S
C3275 C3283 1.503 . S
C3276 C3275 1.410 . S
C3276 C3277 1.392 . S
C3276 C3279 1.511 . S
C3277 C3273 1.376 . S
C3277 C3276 1.392 . S
C3277 H3289 0.929 . S
C3278 C3274 1.531 . S
C3278 H3290 0.960 . S
C3278 H3291 0.962 1_554 S
C3278 H3292 0.960 . S
C3279 C3276 1.511 . S
C3279 H3293 0.961 . S
C3279 H3294 0.961 . S
C3279 H3295 0.961 . S
C3280 C3281 1.370 1_556 S
C3280 C3282 1.363 1_556 S
C3280 H3296 0.931 . S
C3281 C3280 1.370 1_554 S
C3281 C3285 1.408 . S
C3282 C3280 1.363 1_554 S
C3282 C3283 1.370 . S
C3282 C3286 1.524 1_554 S
C3283 C3275 1.503 . S
C3283 C3282 1.370 . S
C3283 C3284 1.403 . S
C3284 C3283 1.403 . S
C3284 C3285 1.404 . S
C3284 C3287 1.539 . S
C3285 C3281 1.408 . S
C3285 C3284 1.404 . S
C3285 H3297 0.930 . S
C3286 C3282 1.524 1_556 S
C3286 H3298 0.956 . S
C3286 H3299 0.961 1_556 S
C3286 H3300 0.961 . S
C3287 C3284 1.539 . S
C3287 H3301 0.958 . S
C3287 H3302 0.961 . S
C3287 H3303 0.960 . S
H3288 C3272 0.931 . S
H3289 C3277 0.929 . S
H3290 C3278 0.960 . S
H3291 C3278 0.962 1_556 S
H3292 C3278 0.960 . S
H3293 C3279 0.961 . S
H3294 C3279 0.961 . S
H3295 C3279 0.961 . S
H3296 C3280 0.931 . S
H3297 C3285 0.930 . S
H3298 C3286 0.956 . S
H3299 C3286 0.961 1_554 S
H3300 C3286 0.961 . S
H3301 C3287 0.958 . S
H3302 C3287 0.961 . S
H3303 C3287 0.960 . S
C3304 C3305 1.391 . S
C3304 C3306 1.394 . S
C3304 H3320 0.931 . S
C3305 C3304 1.391 . S
C3305 C3309 1.376 . S
C3306 C3304 1.394 . S
C3306 C3307 1.369 . S
C3306 C3310 1.531 . S
C3307 C3306 1.369 . S
C3307 C3308 1.410 . S
C3307 C3315 1.503 . S
C3308 C3307 1.410 . S
C3308 C3309 1.392 . S
C3308 C3311 1.511 . S
C3309 C3305 1.376 . S
C3309 C3308 1.392 . S
C3309 H3321 0.929 . S
C3310 C3306 1.531 . S
C3310 H3322 0.960 . S
C3310 H3323 0.962 . S
C3310 H3324 0.960 . S
C3311 C3308 1.511 . S
C3311 H3325 0.961 . S
C3311 H3326 0.961 . S
C3311 H3327 0.961 . S
C3312 C3313 1.370 . S
C3312 C3314 1.363 . S
C3312 H3328 0.931 . S
C3313 C3312 1.370 . S
C3313 C3317 1.408 . S
C3314 C3312 1.363 . S
C3314 C3315 1.370 . S
C3314 C3318 1.524 . S
C3315 C3307 1.503 . S
C3315 C3314 1.370 . S
C3315 C3316 1.403 . S
C3316 C3315 1.403 . S
C3316 C3317 1.404 . S
C3316 C3319 1.539 . S
C3317 C3313 1.408 . S
C3317 C3316 1.404 . S
C3317 H3329 0.930 . S
C3318 C3314 1.524 . S
C3318 H3330 0.956 . S
C3318 H3331 0.961 . S
C3318 H3332 0.961 . S
C3319 C3316 1.539 . S
C3319 H3333 0.958 . S
C3319 H3334 0.961 . S
C3319 H3335 0.960 . S
H3320 C3304 0.931 . S
H3321 C3309 0.929 . S
H3322 C3310 0.960 . S
H3323 C3310 0.962 . S
H3324 C3310 0.960 . S
H3325 C3311 0.961 . S
H3326 C3311 0.961 . S
H3327 C3311 0.961 . S
H3328 C3312 0.931 . S
H3329 C3317 0.930 . S
H3330 C3318 0.956 . S
H3331 C3318 0.961 . S
H3332 C3318 0.961 . S
H3333 C3319 0.958 . S
H3334 C3319 0.961 . S
H3335 C3319 0.960 . S
C3336 C3337 1.380 1_455 S
C3336 C3338 1.394 . S
C3336 H3352 0.931 . S
C3337 C3336 1.380 1_655 S
C3337 C3341 1.384 . S
C3338 C3336 1.394 . S
C3338 C3339 1.369 . S
C3338 C3342 1.531 . S
C3339 C3338 1.369 . S
C3339 C3340 1.410 1_455 S
C3339 C3347 1.503 . S
C3340 C3339 1.410 1_655 S
C3340 C3341 1.392 . S
C3340 C3343 1.511 . S
C3341 C3337 1.384 . S
C3341 C3340 1.392 . S
C3341 H3353 0.929 . S
C3342 C3338 1.531 . S
C3342 H3354 0.960 . S
C3342 H3355 0.962 . S
C3342 H3356 0.960 . S
C3343 C3340 1.511 . S
C3343 H3357 0.961 . S
C3343 H3358 0.961 . S
C3343 H3359 0.961 . S
C3344 C3345 1.370 . S
C3344 C3346 1.364 . S
C3344 H3360 0.931 1_455 S
C3345 C3344 1.370 . S
C3345 C3349 1.408 . S
C3346 C3344 1.364 . S
C3346 C3347 1.372 . S
C3346 C3350 1.522 1_455 S
C3347 C3339 1.503 . S
C3347 C3346 1.372 . S
C3347 C3348 1.403 . S
C3348 C3347 1.403 . S
C3348 C3349 1.404 . S
C3348 C3351 1.539 . S
C3349 C3345 1.408 . S
C3349 C3348 1.404 . S
C3349 H3361 0.930 . S
C3350 C3346 1.522 1_655 S
C3350 H3362 0.956 . S
C3350 H3363 0.961 . S
C3350 H3364 0.961 . S
C3351 C3348 1.539 . S
C3351 H3365 0.958 . S
C3351 H3366 0.961 . S
C3351 H3367 0.960 . S
H3352 C3336 0.931 . S
H3353 C3341 0.929 . S
H3354 C3342 0.960 . S
H3355 C3342 0.962 . S
H3356 C3342 0.960 . S
H3357 C3343 0.961 . S
H3358 C3343 0.961 . S
H3359 C3343 0.961 . S
H3360 C3344 0.931 1_655 S
H3361 C3349 0.930 . S
H3362 C3350 0.956 . S
H3363 C3350 0.961 . S
H3364 C3350 0.961 . S
H3365 C3351 0.958 . S
H3366 C3351 0.961 . S
H3367 C3351 0.960 . S
C3368 C3369 1.391 . S
C3368 C3370 1.394 . S
C3368 H3384 0.931 . S
C3369 C3368 1.391 . S
C3369 C3373 1.376 . S
C3370 C3368 1.394 . S
C3370 C3371 1.369 . S
C3370 C3374 1.531 . S
C3371 C3370 1.369 . S
C3371 C3372 1.410 . S
C3371 C3379 1.503 . S
C3372 C3371 1.410 . S
C3372 C3373 1.392 . S
C3372 C3375 1.511 . S
C3373 C3369 1.376 . S
C3373 C3372 1.392 . S
C3373 H3385 0.929 . S
C3374 C3370 1.531 . S
C3374 H3386 0.960 . S
C3374 H3387 0.962 . S
C3374 H3388 0.960 . S
C3375 C3372 1.511 . S
C3375 H3389 0.961 . S
C3375 H3390 0.961 . S
C3375 H3391 0.961 . S
C3376 C3377 1.370 . S
C3376 C3378 1.363 . S
C3376 H3392 0.931 . S
C3377 C3376 1.370 . S
C3377 C3381 1.408 . S
C3378 C3376 1.363 . S
C3378 C3379 1.370 . S
C3378 C3382 1.524 . S
C3379 C3371 1.503 . S
C3379 C3378 1.370 . S
C3379 C3380 1.403 . S
C3380 C3379 1.403 . S
C3380 C3381 1.404 . S
C3380 C3383 1.539 . S
C3381 C3377 1.408 . S
C3381 C3380 1.404 . S
C3381 H3393 0.930 . S
C3382 C3378 1.524 . S
C3382 H3394 0.956 . S
C3382 H3395 0.961 . S
C3382 H3396 0.961 . S
C3383 C3380 1.539 . S
C3383 H3397 0.958 . S
C3383 H3398 0.961 . S
C3383 H3399 0.960 . S
H3384 C3368 0.931 . S
H3385 C3373 0.929 . S
H3386 C3374 0.960 . S
H3387 C3374 0.962 . S
H3388 C3374 0.960 . S
H3389 C3375 0.961 . S
H3390 C3375 0.961 . S
H3391 C3375 0.961 . S
H3392 C3376 0.931 . S
H3393 C3381 0.930 . S
H3394 C3382 0.956 . S
H3395 C3382 0.961 . S
H3396 C3382 0.961 . S
H3397 C3383 0.958 . S
H3398 C3383 0.961 . S
H3399 C3383 0.960 . S
C3400 C3401 1.391 . S
C3400 C3402 1.394 . S
C3400 H3416 0.931 . S
C3401 C3400 1.391 . S
C3401 C3405 1.376 . S
C3402 C3400 1.394 . S
C3402 C3403 1.369 . S
C3402 C3406 1.531 . S
C3403 C3402 1.369 . S
C3403 C3404 1.410 . S
C3403 C3411 1.503 . S
C3404 C3403 1.410 . S
C3404 C3405 1.392 . S
C3404 C3407 1.511 1_455 S
C3405 C3401 1.376 . S
C3405 C3404 1.392 . S
C3405 H3417 0.929 . S
C3406 C3402 1.531 . S
C3406 H3418 0.960 . S
C3406 H3419 0.962 . S
C3406 H3420 0.960 . S
C3407 C3404 1.511 1_655 S
C3407 H3421 0.961 . S
C3407 H3422 0.961 . S
C3407 H3423 0.961 . S
C3408 C3409 1.370 . S
C3408 C3410 1.363 . S
C3408 H3424 0.931 . S
C3409 C3408 1.370 . S
C3409 C3413 1.408 . S
C3410 C3408 1.363 . S
C3410 C3411 1.370 . S
C3410 C3414 1.524 . S
C3411 C3403 1.503 . S
C3411 C3410 1.370 . S
C3411 C3412 1.403 . S
C3412 C3411 1.403 . S
C3412 C3413 1.404 . S
C3412 C3415 1.539 . S
C3413 C3409 1.408 . S
C3413 C3412 1.404 . S
C3413 H3425 0.930 . S
C3414 C3410 1.524 . S
C3414 H3426 0.956 . S
C3414 H3427 0.961 . S
C3414 H3428 0.961 . S
C3415 C3412 1.539 . S
C3415 H3429 0.958 . S
C3415 H3430 0.961 . S
C3415 H3431 0.960 . S
H3416 C3400 0.931 . S
H3417 C3405 0.929 . S
H3418 C3406 0.960 . S
H3419 C3406 0.962 . S
H3420 C3406 0.960 . S
H3421 C3407 0.961 . S
H3422 C3407 0.961 . S
H3423 C3407 0.961 . S
H3424 C3408 0.931 . S
H3425 C3413 0.930 . S
H3426 C3414 0.956 . S
H3427 C3414 0.961 . S
H3428 C3414 0.961 . S
H3429 C3415 0.958 . S
H3430 C3415 0.961 . S
H3431 C3415 0.960 . S
C3432 C3433 1.391 . S
C3432 C3434 1.394 . S
C3432 H3448 0.931 . S
C3433 C3432 1.391 . S
C3433 C3437 1.376 . S
C3434 C3432 1.394 . S
C3434 C3435 1.369 . S
C3434 C3438 1.531 . S
C3435 C3434 1.369 . S
C3435 C3436 1.410 . S
C3435 C3443 1.503 . S
C3436 C3435 1.410 . S
C3436 C3437 1.392 . S
C3436 C3439 1.511 . S
C3437 C3433 1.376 . S
C3437 C3436 1.392 . S
C3437 H3449 0.929 . S
C3438 C3434 1.531 . S
C3438 H3450 0.960 . S
C3438 H3451 0.962 . S
C3438 H3452 0.960 . S
C3439 C3436 1.511 . S
C3439 H3453 0.961 . S
C3439 H3454 0.961 . S
C3439 H3455 0.961 . S
C3440 C3441 1.370 . S
C3440 C3442 1.363 . S
C3440 H3456 0.931 . S
C3441 C3440 1.370 . S
C3441 C3445 1.408 . S
C3442 C3440 1.363 . S
C3442 C3443 1.370 . S
C3442 C3446 1.524 . S
C3443 C3435 1.503 . S
C3443 C3442 1.370 . S
C3443 C3444 1.403 . S
C3444 C3443 1.403 . S
C3444 C3445 1.404 . S
C3444 C3447 1.539 . S
C3445 C3441 1.408 . S
C3445 C3444 1.404 . S
C3445 H3457 0.930 . S
C3446 C3442 1.524 . S
C3446 H3458 0.956 . S
C3446 H3459 0.961 . S
C3446 H3460 0.961 . S
C3447 C3444 1.539 . S
C3447 H3461 0.958 . S
C3447 H3462 0.961 . S
C3447 H3463 0.960 . S
H3448 C3432 0.931 . S
H3449 C3437 0.929 . S
H3450 C3438 0.960 . S
H3451 C3438 0.962 . S
H3452 C3438 0.960 . S
H3453 C3439 0.961 . S
H3454 C3439 0.961 . S
H3455 C3439 0.961 . S
H3456 C3440 0.931 . S
H3457 C3445 0.930 . S
H3458 C3446 0.956 . S
H3459 C3446 0.961 . S
H3460 C3446 0.961 . S
H3461 C3447 0.958 . S
H3462 C3447 0.961 . S
H3463 C3447 0.960 . S
C3464 C3465 1.391 . S
C3464 C3466 1.394 . S
C3464 H3480 0.931 . S
C3465 C3464 1.391 . S
C3465 C3469 1.376 . S
C3466 C3464 1.394 . S
C3466 C3467 1.369 . S
C3466 C3470 1.531 . S
C3467 C3466 1.369 . S
C3467 C3468 1.410 . S
C3467 C3475 1.503 . S
C3468 C3467 1.410 . S
C3468 C3469 1.392 . S
C3468 C3471 1.511 . S
C3469 C3465 1.376 . S
C3469 C3468 1.392 . S
C3469 H3481 0.929 . S
C3470 C3466 1.531 . S
C3470 H3482 0.960 . S
C3470 H3483 0.962 . S
C3470 H3484 0.960 . S
C3471 C3468 1.511 . S
C3471 H3485 0.961 . S
C3471 H3486 0.961 . S
C3471 H3487 0.961 . S
C3472 C3473 1.370 . S
C3472 C3474 1.363 . S
C3472 H3488 0.931 . S
C3473 C3472 1.370 . S
C3473 C3477 1.408 . S
C3474 C3472 1.363 . S
C3474 C3475 1.370 . S
C3474 C3478 1.524 . S
C3475 C3467 1.503 . S
C3475 C3474 1.370 . S
C3475 C3476 1.403 . S
C3476 C3475 1.403 . S
C3476 C3477 1.404 . S
C3476 C3479 1.539 . S
C3477 C3473 1.408 . S
C3477 C3476 1.404 . S
C3477 H3489 0.930 . S
C3478 C3474 1.524 . S
C3478 H3490 0.956 . S
C3478 H3491 0.961 . S
C3478 H3492 0.961 . S
C3479 C3476 1.539 . S
C3479 H3493 0.958 . S
C3479 H3494 0.961 . S
C3479 H3495 0.960 . S
H3480 C3464 0.931 . S
H3481 C3469 0.929 . S
H3482 C3470 0.960 . S
H3483 C3470 0.962 . S
H3484 C3470 0.960 . S
H3485 C3471 0.961 . S
H3486 C3471 0.961 . S
H3487 C3471 0.961 . S
H3488 C3472 0.931 . S
H3489 C3477 0.930 . S
H3490 C3478 0.956 . S
H3491 C3478 0.961 . S
H3492 C3478 0.961 . S
H3493 C3479 0.958 . S
H3494 C3479 0.961 . S
H3495 C3479 0.960 . S
C3496 C3497 1.391 . S
C3496 C3498 1.394 . S
C3496 H3512 0.931 . S
C3497 C3496 1.391 . S
C3497 C3501 1.358 1_545 S
C3498 C3496 1.394 . S
C3498 C3499 1.369 . S
C3498 C3502 1.531 . S
C3499 C3498 1.369 . S
C3499 C3500 1.410 . S
C3499 C3507 1.503 . S
C3500 C3499 1.410 . S
C3500 C3501 1.375 1_545 S
C3500 C3503 1.511 1_545 S
C3501 C3497 1.358 1_565 S
C3501 C3500 1.375 1_565 S
C3501 H3513 0.966 . S
C3502 C3498 1.531 . S
C3502 H3514 0.960 . S
C3502 H3515 0.962 . S
C3502 H3516 0.960 . S
C3503 C3500 1.511 1_565 S
C3503 H3517 0.961 . S
C3503 H3518 0.961 1_565 S
C3503 H3519 0.961 . S
C3504 C3505 1.370 . S
C3504 C3506 1.363 . S
C3504 H3520 0.931 . S
C3505 C3504 1.370 . S
C3505 C3509 1.408 . S
C3506 C3504 1.363 . S
C3506 C3507 1.370 . S
C3506 C3510 1.524 . S
C3507 C3499 1.503 . S
C3507 C3506 1.370 . S
C3507 C3508 1.403 . S
C3508 C3507 1.403 . S
C3508 C3509 1.404 . S
C3508 C3511 1.539 . S
C3509 C3505 1.408 . S
C3509 C3508 1.404 . S
C3509 H3521 0.930 . S
C3510 C3506 1.524 . S
C3510 H3522 0.956 . S
C3510 H3523 0.961 . S
C3510 H3524 0.961 . S
C3511 C3508 1.539 . S
C3511 H3525 0.958 . S
C3511 H3526 0.961 . S
C3511 H3527 1.004 . S
H3512 C3496 0.931 . S
H3513 C3501 0.966 . S
H3514 C3502 0.960 . S
H3515 C3502 0.962 . S
H3516 C3502 0.960 . S
H3517 C3503 0.961 . S
H3518 C3503 0.961 1_545 S
H3519 C3503 0.961 . S
H3520 C3504 0.931 . S
H3521 C3509 0.930 . S
H3522 C3510 0.956 . S
H3523 C3510 0.961 . S
H3524 C3510 0.961 . S
H3525 C3511 0.958 . S
H3526 C3511 0.961 . S
H3527 C3511 1.004 . S
C3528 C3529 1.391 . S
C3528 C3530 1.394 . S
C3528 H3544 0.931 . S
C3529 C3528 1.391 . S
C3529 C3533 1.376 . S
C3530 C3528 1.394 . S
C3530 C3531 1.369 . S
C3530 C3534 1.531 . S
C3531 C3530 1.369 . S
C3531 C3532 1.410 . S
C3531 C3539 1.503 . S
C3532 C3531 1.410 . S
C3532 C3533 1.392 . S
C3532 C3535 1.511 . S
C3533 C3529 1.376 . S
C3533 C3532 1.392 . S
C3533 H3545 0.929 . S
C3534 C3530 1.531 . S
C3534 H3546 0.960 . S
C3534 H3547 0.962 . S
C3534 H3548 0.960 . S
C3535 C3532 1.511 . S
C3535 H3549 0.961 . S
C3535 H3550 0.961 . S
C3535 H3551 0.961 . S
C3536 C3537 1.370 . S
C3536 C3538 1.363 . S
C3536 H3552 0.931 . S
C3537 C3536 1.370 . S
C3537 C3541 1.408 . S
C3538 C3536 1.363 . S
C3538 C3539 1.370 . S
C3538 C3542 1.524 . S
C3539 C3531 1.503 . S
C3539 C3538 1.370 . S
C3539 C3540 1.403 . S
C3540 C3539 1.403 . S
C3540 C3541 1.404 . S
C3540 C3543 1.539 . S
C3541 C3537 1.408 . S
C3541 C3540 1.404 . S
C3541 H3553 0.930 . S
C3542 C3538 1.524 . S
C3542 H3554 0.956 . S
C3542 H3555 0.961 . S
C3542 H3556 0.961 . S
C3543 C3540 1.539 . S
C3543 H3557 0.958 . S
C3543 H3558 0.961 . S
C3543 H3559 0.960 . S
H3544 C3528 0.931 . S
H3545 C3533 0.929 . S
H3546 C3534 0.960 . S
H3547 C3534 0.962 . S
H3548 C3534 0.960 . S
H3549 C3535 0.961 . S
H3550 C3535 0.961 . S
H3551 C3535 0.961 . S
H3552 C3536 0.931 . S
H3553 C3541 0.930 . S
H3554 C3542 0.956 . S
H3555 C3542 0.961 . S
H3556 C3542 0.961 . S
H3557 C3543 0.958 . S
H3558 C3543 0.961 . S
H3559 C3543 0.960 . S
C3560 C3561 1.391 . S
C3560 C3562 1.394 . S
C3560 H3576 0.931 . S
C3561 C3560 1.391 . S
C3561 C3565 1.376 . S
C3562 C3560 1.394 . S
C3562 C3563 1.369 . S
C3562 C3566 1.531 . S
C3563 C3562 1.369 . S
C3563 C3564 1.410 . S
C3563 C3571 1.503 . S
C3564 C3563 1.410 . S
C3564 C3565 1.392 . S
C3564 C3567 1.511 . S
C3565 C3561 1.376 . S
C3565 C3564 1.392 . S
C3565 H3577 0.929 . S
C3566 C3562 1.531 . S
C3566 H3578 0.960 . S
C3566 H3579 0.962 . S
C3566 H3580 0.960 . S
C3567 C3564 1.511 . S
C3567 H3581 0.961 . S
C3567 H3582 0.961 . S
C3567 H3583 0.961 . S
C3568 C3569 1.370 . S
C3568 C3570 1.363 . S
C3568 H3584 0.931 . S
C3569 C3568 1.370 . S
C3569 C3573 1.408 . S
C3570 C3568 1.363 . S
C3570 C3571 1.370 . S
C3570 C3574 1.524 . S
C3571 C3563 1.503 . S
C3571 C3570 1.370 . S
C3571 C3572 1.403 . S
C3572 C3571 1.403 . S
C3572 C3573 1.404 . S
C3572 C3575 1.539 . S
C3573 C3569 1.408 . S
C3573 C3572 1.404 . S
C3573 H3585 0.930 . S
C3574 C3570 1.524 . S
C3574 H3586 0.956 . S
C3574 H3587 0.961 . S
C3574 H3588 0.961 . S
C3575 C3572 1.539 . S
C3575 H3589 0.958 . S
C3575 H3590 0.961 . S
C3575 H3591 0.960 . S
H3576 C3560 0.931 . S
H3577 C3565 0.929 . S
H3578 C3566 0.960 . S
H3579 C3566 0.962 . S
H3580 C3566 0.960 . S
H3581 C3567 0.961 . S
H3582 C3567 0.961 . S
H3583 C3567 0.961 . S
H3584 C3568 0.931 . S
H3585 C3573 0.930 . S
H3586 C3574 0.956 . S
H3587 C3574 0.961 . S
H3588 C3574 0.961 . S
H3589 C3575 0.958 . S
H3590 C3575 0.961 . S
H3591 C3575 0.960 . S
C3592 C3593 1.391 . S
C3592 C3594 1.394 . S
C3592 H3608 0.931 . S
C3593 C3592 1.391 . S
C3593 C3597 1.376 . S
C3594 C3592 1.394 . S
C3594 C3595 1.369 . S
C3594 C3598 1.531 . S
C3595 C3594 1.369 . S
C3595 C3596 1.410 . S
C3595 C3603 1.503 . S
C3596 C3595 1.410 . S
C3596 C3597 1.392 . S
C3596 C3599 1.511 . S
C3597 C3593 1.376 . S
C3597 C3596 1.392 . S
C3597 H3609 0.929 . S
C3598 C3594 1.531 . S
C3598 H3610 0.960 . S
C3598 H3611 0.962 . S
C3598 H3612 0.960 . S
C3599 C3596 1.511 . S
C3599 H3613 0.961 . S
C3599 H3614 0.961 . S
C3599 H3615 0.961 . S
C3600 C3601 1.370 . S
C3600 C3602 1.363 . S
C3600 H3616 0.931 . S
C3601 C3600 1.370 . S
C3601 C3605 1.408 . S
C3602 C3600 1.363 . S
C3602 C3603 1.370 . S
C3602 C3606 1.524 . S
C3603 C3595 1.503 . S
C3603 C3602 1.370 . S
C3603 C3604 1.403 . S
C3604 C3603 1.403 . S
C3604 C3605 1.404 . S
C3604 C3607 1.539 . S
C3605 C3601 1.408 . S
C3605 C3604 1.404 . S
C3605 H3617 0.930 . S
C3606 C3602 1.524 . S
C3606 H3618 0.956 . S
C3606 H3619 0.961 . S
C3606 H3620 0.961 . S
C3607 C3604 1.539 . S
C3607 H3621 0.958 . S
C3607 H3622 0.961 . S
C3607 H3623 0.960 . S
H3608 C3592 0.931 . S
H3609 C3597 0.929 . S
H3610 C3598 0.960 . S
H3611 C3598 0.962 . S
H3612 C3598 0.960 . S
H3613 C3599 0.961 . S
H3614 C3599 0.961 . S
H3615 C3599 0.961 . S
H3616 C3600 0.931 . S
H3617 C3605 0.930 . S
H3618 C3606 0.956 . S
H3619 C3606 0.961 . S
H3620 C3606 0.961 . S
H3621 C3607 0.958 . S
H3622 C3607 0.961 . S
H3623 C3607 0.960 . S
C3624 C3625 1.391 . S
C3624 C3626 1.394 . S
C3624 H3640 0.931 . S
C3625 C3624 1.391 . S
C3625 C3629 1.376 . S
C3626 C3624 1.394 . S
C3626 C3627 1.369 . S
C3626 C3630 1.531 . S
C3627 C3626 1.369 . S
C3627 C3628 1.410 . S
C3627 C3635 1.503 . S
C3628 C3627 1.410 . S
C3628 C3629 1.392 . S
C3628 C3631 1.511 . S
C3629 C3625 1.376 . S
C3629 C3628 1.392 . S
C3629 H3641 0.929 . S
C3630 C3626 1.531 . S
C3630 H3642 0.960 . S
C3630 H3643 0.962 . S
C3630 H3644 0.960 . S
C3631 C3628 1.511 . S
C3631 H3645 0.961 . S
C3631 H3646 0.961 . S
C3631 H3647 0.961 . S
C3632 C3633 1.370 . S
C3632 C3634 1.363 . S
C3632 H3648 0.931 . S
C3633 C3632 1.370 . S
C3633 C3637 1.408 . S
C3634 C3632 1.363 . S
C3634 C3635 1.370 . S
C3634 C3638 1.524 . S
C3635 C3627 1.503 . S
C3635 C3634 1.370 . S
C3635 C3636 1.403 . S
C3636 C3635 1.403 . S
C3636 C3637 1.404 . S
C3636 C3639 1.539 . S
C3637 C3633 1.408 . S
C3637 C3636 1.404 . S
C3637 H3649 0.930 . S
C3638 C3634 1.524 . S
C3638 H3650 0.956 . S
C3638 H3651 0.961 . S
C3638 H3652 0.961 . S
C3639 C3636 1.539 . S
C3639 H3653 0.958 . S
C3639 H3654 0.961 . S
C3639 H3655 0.960 . S
H3640 C3624 0.931 . S
H3641 C3629 0.929 . S
H3642 C3630 0.960 . S
H3643 C3630 0.962 . S
H3644 C3630 0.960 . S
H3645 C3631 0.961 . S
H3646 C3631 0.961 . S
H3647 C3631 0.961 . S
H3648 C3632 0.931 . S
H3649 C3637 0.930 . S
H3650 C3638 0.956 . S
H3651 C3638 0.961 . S
H3652 C3638 0.961 . S
H3653 C3639 0.958 . S
H3654 C3639 0.961 . S
H3655 C3639 0.960 . S
C3656 C3657 1.408 . S
C3656 C3658 1.416 . S
C3656 H3672 0.895 1_554 S
C3657 C3656 1.408 . S
C3657 C3661 1.376 . S
C3658 C3656 1.416 . S
C3658 C3659 1.369 . S
C3658 C3662 1.531 . S
C3659 C3658 1.369 . S
C3659 C3660 1.410 . S
C3659 C3667 1.503 . S
C3660 C3659 1.410 . S
C3660 C3661 1.392 . S
C3660 C3663 1.511 . S
C3661 C3657 1.376 . S
C3661 C3660 1.392 . S
C3661 H3673 0.929 . S
C3662 C3658 1.531 . S
C3662 H3674 0.960 . S
C3662 H3675 0.962 . S
C3662 H3676 0.960 1_554 S
C3663 C3660 1.511 . S
C3663 H3677 0.961 . S
C3663 H3678 0.961 . S
C3663 H3679 0.961 . S
C3664 C3665 1.370 . S
C3664 C3666 1.363 . S
C3664 H3680 0.931 . S
C3665 C3664 1.370 . S
C3665 C3669 1.408 . S
C3666 C3664 1.363 . S
C3666 C3667 1.370 . S
C3666 C3670 1.524 . S
C3667 C3659 1.503 . S
C3667 C3666 1.370 . S
C3667 C3668 1.403 . S
C3668 C3667 1.403 . S
C3668 C3669 1.404 . S
C3668 C3671 1.539 . S
C3669 C3665 1.408 . S
C3669 C3668 1.404 . S
C3669 H3681 0.930 . S
C3670 C3666 1.524 . S
C3670 H3682 0.956 . S
C3670 H3683 0.961 . S
C3670 H3684 0.961 . S
C3671 C3668 1.539 . S
C3671 H3685 0.958 1_554 S
C3671 H3686 0.961 . S
C3671 H3687 0.960 . S
H3672 C3656 0.895 1_556 S
H3673 C3661 0.929 . S
H3674 C3662 0.960 . S
H3675 C3662 0.962 . S
H3676 C3662 0.960 1_556 S
H3677 C3663 0.961 . S
H3678 C3663 0.961 . S
H3679 C3663 0.961 . S
H3680 C3664 0.931 . S
H3681 C3669 0.930 . S
H3682 C3670 0.956 . S
H3683 C3670 0.961 . S
H3684 C3670 0.961 . S
H3685 C3671 0.958 1_556 S
H3686 C3671 0.961 . S
H3687 C3671 0.960 . S
C3688 C3689 1.391 . S
C3688 C3690 1.394 . S
C3688 H3704 0.931 . S
C3689 C3688 1.391 . S
C3689 C3693 1.376 . S
C3690 C3688 1.394 . S
C3690 C3691 1.369 . S
C3690 C3694 1.531 . S
C3691 C3690 1.369 . S
C3691 C3692 1.410 . S
C3691 C3699 1.503 . S
C3692 C3691 1.410 . S
C3692 C3693 1.392 . S
C3692 C3695 1.511 . S
C3693 C3689 1.376 . S
C3693 C3692 1.392 . S
C3693 H3705 0.929 . S
C3694 C3690 1.531 . S
C3694 H3706 0.960 . S
C3694 H3707 0.962 . S
C3694 H3708 0.960 . S
C3695 C3692 1.511 . S
C3695 H3709 0.961 . S
C3695 H3710 0.961 . S
C3695 H3711 0.961 . S
C3696 C3697 1.370 . S
C3696 C3698 1.363 . S
C3696 H3712 0.931 . S
C3697 C3696 1.370 . S
C3697 C3701 1.408 . S
C3698 C3696 1.363 . S
C3698 C3699 1.370 . S
C3698 C3702 1.524 . S
C3699 C3691 1.503 . S
C3699 C3698 1.370 . S
C3699 C3700 1.403 . S
C3700 C3699 1.403 . S
C3700 C3701 1.404 . S
C3700 C3703 1.539 . S
C3701 C3697 1.408 . S
C3701 C3700 1.404 . S
C3701 H3713 0.930 . S
C3702 C3698 1.524 . S
C3702 H3714 0.956 . S
C3702 H3715 0.961 . S
C3702 H3716 0.961 . S
C3703 C3700 1.539 . S
C3703 H3717 0.958 . S
C3703 H3718 0.961 . S
C3703 H3719 0.960 . S
H3704 C3688 0.931 . S
H3705 C3693 0.929 . S
H3706 C3694 0.960 . S
H3707 C3694 0.962 . S
H3708 C3694 0.960 . S
H3709 C3695 0.961 . S
H3710 C3695 0.961 . S
H3711 C3695 0.961 . S
H3712 C3696 0.931 . S
H3713 C3701 0.930 . S
H3714 C3702 0.956 . S
H3715 C3702 0.961 . S
H3716 C3702 0.961 . S
H3717 C3703 0.958 . S
H3718 C3703 0.961 . S
H3719 C3703 0.960 . S
C3720 C3721 1.391 . S
C3720 C3722 1.394 . S
C3720 H3736 0.931 . S
C3721 C3720 1.391 . S
C3721 C3725 1.376 . S
C3722 C3720 1.394 . S
C3722 C3723 1.369 . S
C3722 C3726 1.531 . S
C3723 C3722 1.369 . S
C3723 C3724 1.410 . S
C3723 C3731 1.503 . S
C3724 C3723 1.410 . S
C3724 C3725 1.392 . S
C3724 C3727 1.511 . S
C3725 C3721 1.376 . S
C3725 C3724 1.392 . S
C3725 H3737 0.929 . S
C3726 C3722 1.531 . S
C3726 H3738 0.960 . S
C3726 H3739 0.962 . S
C3726 H3740 0.960 . S
C3727 C3724 1.511 . S
C3727 H3741 0.961 . S
C3727 H3742 0.961 . S
C3727 H3743 0.961 . S
C3728 C3729 1.370 . S
C3728 C3730 1.363 . S
C3728 H3744 0.931 . S
C3729 C3728 1.370 . S
C3729 C3733 1.408 . S
C3730 C3728 1.363 . S
C3730 C3731 1.370 . S
C3730 C3734 1.524 . S
C3731 C3723 1.503 . S
C3731 C3730 1.370 . S
C3731 C3732 1.403 . S
C3732 C3731 1.403 . S
C3732 C3733 1.404 . S
C3732 C3735 1.539 . S
C3733 C3729 1.408 . S
C3733 C3732 1.404 . S
C3733 H3745 0.930 . S
C3734 C3730 1.524 . S
C3734 H3746 0.956 . S
C3734 H3747 0.961 . S
C3734 H3748 0.961 . S
C3735 C3732 1.539 . S
C3735 H3749 0.958 . S
C3735 H3750 0.961 . S
C3735 H3751 0.960 . S
H3736 C3720 0.931 . S
H3737 C3725 0.929 . S
H3738 C3726 0.960 . S
H3739 C3726 0.962 . S
H3740 C3726 0.960 . S
H3741 C3727 0.961 . S
H3742 C3727 0.961 . S
H3743 C3727 0.961 . S
H3744 C3728 0.931 . S
H3745 C3733 0.930 . S
H3746 C3734 0.956 . S
H3747 C3734 0.961 . S
H3748 C3734 0.961 . S
H3749 C3735 0.958 . S
H3750 C3735 0.961 . S
H3751 C3735 0.960 . S
C3752 C3753 1.391 . S
C3752 C3754 1.394 . S
C3752 H3768 0.931 . S
C3753 C3752 1.391 . S
C3753 C3757 1.376 . S
C3754 C3752 1.394 . S
C3754 C3755 1.369 . S
C3754 C3758 1.531 . S
C3755 C3754 1.369 . S
C3755 C3756 1.410 . S
C3755 C3763 1.503 . S
C3756 C3755 1.410 . S
C3756 C3757 1.392 . S
C3756 C3759 1.511 . S
C3757 C3753 1.376 . S
C3757 C3756 1.392 . S
C3757 H3769 0.929 . S
C3758 C3754 1.531 . S
C3758 H3770 0.960 . S
C3758 H3771 0.962 . S
C3758 H3772 0.960 . S
C3759 C3756 1.511 . S
C3759 H3773 0.961 . S
C3759 H3774 0.961 . S
C3759 H3775 0.961 . S
C3760 C3761 1.370 . S
C3760 C3762 1.363 . S
C3760 H3776 0.931 . S
C3761 C3760 1.370 . S
C3761 C3765 1.408 . S
C3762 C3760 1.363 . S
C3762 C3763 1.370 . S
C3762 C3766 1.524 . S
C3763 C3755 1.503 . S
C3763 C3762 1.370 . S
C3763 C3764 1.403 . S
C3764 C3763 1.403 . S
C3764 C3765 1.404 . S
C3764 C3767 1.539 . S
C3765 C3761 1.408 . S
C3765 C3764 1.404 . S
C3765 H3777 0.930 . S
C3766 C3762 1.524 . S
C3766 H3778 0.956 . S
C3766 H3779 0.961 . S
C3766 H3780 0.961 . S
C3767 C3764 1.539 . S
C3767 H3781 0.958 . S
C3767 H3782 0.961 . S
C3767 H3783 0.960 . S
H3768 C3752 0.931 . S
H3769 C3757 0.929 . S
H3770 C3758 0.960 . S
H3771 C3758 0.962 . S
H3772 C3758 0.960 . S
H3773 C3759 0.961 . S
H3774 C3759 0.961 . S
H3775 C3759 0.961 . S
H3776 C3760 0.931 . S
H3777 C3765 0.930 . S
H3778 C3766 0.956 . S
H3779 C3766 0.961 . S
H3780 C3766 0.961 . S
H3781 C3767 0.958 . S
H3782 C3767 0.961 . S
H3783 C3767 0.960 . S
C3784 C3785 1.391 . S
C3784 C3786 1.394 . S
C3784 H3800 0.931 . S
C3785 C3784 1.391 . S
C3785 C3789 1.376 1_455 S
C3786 C3784 1.394 . S
C3786 C3787 1.369 . S
C3786 C3790 1.531 . S
C3787 C3786 1.369 . S
C3787 C3788 1.410 . S
C3787 C3795 1.503 . S
C3788 C3787 1.410 . S
C3788 C3789 1.392 1_455 S
C3788 C3791 1.511 1_455 S
C3789 C3785 1.376 1_655 S
C3789 C3788 1.392 1_655 S
C3789 H3801 0.929 . S
C3790 C3786 1.531 . S
C3790 H3802 0.960 . S
C3790 H3803 0.962 . S
C3790 H3804 0.960 . S
C3791 C3788 1.511 1_655 S
C3791 H3805 0.961 . S
C3791 H3806 0.961 1_655 S
C3791 H3807 0.961 . S
C3792 C3793 1.370 . S
C3792 C3794 1.363 . S
C3792 H3808 0.931 . S
C3793 C3792 1.370 . S
C3793 C3797 1.408 . S
C3794 C3792 1.363 . S
C3794 C3795 1.370 . S
C3794 C3798 1.524 . S
C3795 C3787 1.503 . S
C3795 C3794 1.370 . S
C3795 C3796 1.403 . S
C3796 C3795 1.403 . S
C3796 C3797 1.404 . S
C3796 C3799 1.539 . S
C3797 C3793 1.408 . S
C3797 C3796 1.404 . S
C3797 H3809 0.930 . S
C3798 C3794 1.524 . S
C3798 H3810 0.956 . S
C3798 H3811 0.961 . S
C3798 H3812 0.961 . S
C3799 C3796 1.539 . S
C3799 H3813 0.958 . S
C3799 H3814 0.961 . S
C3799 H3815 0.960 . S
H3800 C3784 0.931 . S
H3801 C3789 0.929 . S
H3802 C3790 0.960 . S
H3803 C3790 0.962 . S
H3804 C3790 0.960 . S
H3805 C3791 0.961 . S
H3806 C3791 0.961 1_455 S
H3807 C3791 0.961 . S
H3808 C3792 0.931 . S
H3809 C3797 0.930 . S
H3810 C3798 0.956 . S
H3811 C3798 0.961 . S
H3812 C3798 0.961 . S
H3813 C3799 0.958 . S
H3814 C3799 0.961 . S
H3815 C3799 0.960 . S
C3816 C3817 1.391 . S
C3816 C3818 1.394 . S
C3816 H3832 0.931 . S
C3817 C3816 1.391 . S
C3817 C3821 1.376 . S
C3818 C3816 1.394 . S
C3818 C3819 1.369 . S
C3818 C3822 1.531 . S
C3819 C3818 1.369 . S
C3819 C3820 1.410 . S
C3819 C3827 1.503 . S
C3820 C3819 1.410 . S
C3820 C3821 1.392 . S
C3820 C3823 1.511 . S
C3821 C3817 1.376 . S
C3821 C3820 1.392 . S
C3821 H3833 0.929 . S
C3822 C3818 1.531 . S
C3822 H3834 0.960 . S
C3822 H3835 0.962 . S
C3822 H3836 0.960 . S
C3823 C3820 1.511 . S
C3823 H3837 0.961 . S
C3823 H3838 0.961 . S
C3823 H3839 0.961 . S
C3824 C3825 1.370 . S
C3824 C3826 1.363 . S
C3824 H3840 0.931 . S
C3825 C3824 1.370 . S
C3825 C3829 1.408 . S
C3826 C3824 1.363 . S
C3826 C3827 1.370 . S
C3826 C3830 1.524 . S
C3827 C3819 1.503 . S
C3827 C3826 1.370 . S
C3827 C3828 1.403 . S
C3828 C3827 1.403 . S
C3828 C3829 1.404 . S
C3828 C3831 1.539 . S
C3829 C3825 1.408 . S
C3829 C3828 1.404 . S
C3829 H3841 0.930 . S
C3830 C3826 1.524 . S
C3830 H3842 0.956 . S
C3830 H3843 0.961 . S
C3830 H3844 0.961 . S
C3831 C3828 1.539 . S
C3831 H3845 0.958 . S
C3831 H3846 0.961 . S
C3831 H3847 0.960 . S
H3832 C3816 0.931 . S
H3833 C3821 0.929 . S
H3834 C3822 0.960 . S
H3835 C3822 0.962 . S
H3836 C3822 0.960 . S
H3837 C3823 0.961 . S
H3838 C3823 0.961 . S
H3839 C3823 0.961 . S
H3840 C3824 0.931 . S
H3841 C3829 0.930 . S
H3842 C3830 0.956 . S
H3843 C3830 0.961 . S
H3844 C3830 0.961 . S
H3845 C3831 0.958 . S
H3846 C3831 0.961 . S
H3847 C3831 0.960 . S
C3848 C3849 1.391 . S
C3848 C3850 1.394 . S
C3848 H3864 0.931 . S
C3849 C3848 1.391 . S
C3849 C3853 1.376 . S
C3850 C3848 1.394 . S
C3850 C3851 1.369 . S
C3850 C3854 1.531 . S
C3851 C3850 1.369 . S
C3851 C3852 1.410 . S
C3851 C3859 1.503 . S
C3852 C3851 1.410 . S
C3852 C3853 1.392 . S
C3852 C3855 1.511 . S
C3853 C3849 1.376 . S
C3853 C3852 1.392 . S
C3853 H3865 0.929 . S
C3854 C3850 1.531 . S
C3854 H3866 0.960 . S
C3854 H3867 0.962 . S
C3854 H3868 0.960 . S
C3855 C3852 1.511 . S
C3855 H3869 0.961 . S
C3855 H3870 0.961 . S
C3855 H3871 0.961 . S
C3856 C3857 1.370 . S
C3856 C3858 1.363 . S
C3856 H3872 0.931 . S
C3857 C3856 1.370 . S
C3857 C3861 1.408 . S
C3858 C3856 1.363 . S
C3858 C3859 1.370 . S
C3858 C3862 1.524 . S
C3859 C3851 1.503 . S
C3859 C3858 1.370 . S
C3859 C3860 1.403 . S
C3860 C3859 1.403 . S
C3860 C3861 1.404 . S
C3860 C3863 1.539 . S
C3861 C3857 1.408 . S
C3861 C3860 1.404 . S
C3861 H3873 0.930 . S
C3862 C3858 1.524 . S
C3862 H3874 0.956 . S
C3862 H3875 0.961 . S
C3862 H3876 0.961 . S
C3863 C3860 1.539 . S
C3863 H3877 0.958 . S
C3863 H3878 0.961 . S
C3863 H3879 0.960 . S
H3864 C3848 0.931 . S
H3865 C3853 0.929 . S
H3866 C3854 0.960 . S
H3867 C3854 0.962 . S
H3868 C3854 0.960 . S
H3869 C3855 0.961 . S
H3870 C3855 0.961 . S
H3871 C3855 0.961 . S
H3872 C3856 0.931 . S
H3873 C3861 0.930 . S
H3874 C3862 0.956 . S
H3875 C3862 0.961 . S
H3876 C3862 0.961 . S
H3877 C3863 0.958 . S
H3878 C3863 0.961 . S
H3879 C3863 0.960 . S
C3880 C3881 1.391 . S
C3880 C3882 1.394 . S
C3880 H3896 0.931 1_565 S
C3881 C3880 1.391 . S
C3881 C3885 1.376 . S
C3882 C3880 1.394 . S
C3882 C3883 1.369 . S
C3882 C3886 1.531 . S
C3883 C3882 1.369 . S
C3883 C3884 1.410 . S
C3883 C3891 1.503 . S
C3884 C3883 1.410 . S
C3884 C3885 1.392 . S
C3884 C3887 1.511 . S
C3885 C3881 1.376 . S
C3885 C3884 1.392 . S
C3885 H3897 0.929 . S
C3886 C3882 1.531 . S
C3886 H3898 0.960 . S
C3886 H3899 0.951 1_565 S
C3886 H3900 0.960 . S
C3887 C3884 1.511 . S
C3887 H3901 0.961 . S
C3887 H3902 0.961 . S
C3887 H3903 0.961 . S
C3888 C3889 1.370 . S
C3888 C3890 1.363 . S
C3888 H3904 0.931 . S
C3889 C3888 1.370 . S
C3889 C3893 1.408 . S
C3890 C3888 1.363 . S
C3890 C3891 1.370 . S
C3890 C3894 1.524 . S
C3891 C3883 1.503 . S
C3891 C3890 1.370 . S
C3891 C3892 1.403 . S
C3892 C3891 1.403 . S
C3892 C3893 1.404 . S
C3892 C3895 1.539 . S
C3893 C3889 1.408 . S
C3893 C3892 1.404 . S
C3893 H3905 0.930 . S
C3894 C3890 1.524 . S
C3894 H3906 0.922 1_565 S
C3894 H3907 0.961 . S
C3894 H3908 0.961 . S
C3895 C3892 1.539 . S
C3895 H3909 0.958 . S
C3895 H3910 0.961 . S
C3895 H3911 0.960 . S
H3896 C3880 0.931 1_545 S
H3897 C3885 0.929 . S
H3898 C3886 0.960 . S
H3899 C3886 0.951 1_545 S
H3900 C3886 0.960 . S
H3901 C3887 0.961 . S
H3902 C3887 0.961 . S
H3903 C3887 0.961 . S
H3904 C3888 0.931 . S
H3905 C3893 0.930 . S
H3906 C3894 0.922 1_545 S
H3907 C3894 0.961 . S
H3908 C3894 0.961 . S
H3909 C3895 0.958 . S
H3910 C3895 0.961 . S
H3911 C3895 0.960 . S
C3912 C3913 1.391 . S
C3912 C3914 1.394 . S
C3912 H3928 0.931 . S
C3913 C3912 1.391 . S
C3913 C3917 1.376 . S
C3914 C3912 1.394 . S
C3914 C3915 1.369 . S
C3914 C3918 1.531 . S
C3915 C3914 1.369 . S
C3915 C3916 1.410 . S
C3915 C3923 1.503 . S
C3916 C3915 1.410 . S
C3916 C3917 1.392 . S
C3916 C3919 1.511 . S
C3917 C3913 1.376 . S
C3917 C3916 1.392 . S
C3917 H3929 0.929 . S
C3918 C3914 1.531 . S
C3918 H3930 0.960 . S
C3918 H3931 0.962 . S
C3918 H3932 0.960 . S
C3919 C3916 1.511 . S
C3919 H3933 0.961 . S
C3919 H3934 0.961 . S
C3919 H3935 0.961 . S
C3920 C3921 1.370 . S
C3920 C3922 1.363 . S
C3920 H3936 0.931 . S
C3921 C3920 1.370 . S
C3921 C3925 1.408 . S
C3922 C3920 1.363 . S
C3922 C3923 1.370 . S
C3922 C3926 1.524 . S
C3923 C3915 1.503 . S
C3923 C3922 1.370 . S
C3923 C3924 1.403 . S
C3924 C3923 1.403 . S
C3924 C3925 1.404 . S
C3924 C3927 1.539 . S
C3925 C3921 1.408 . S
C3925 C3924 1.404 . S
C3925 H3937 0.930 . S
C3926 C3922 1.524 . S
C3926 H3938 0.956 . S
C3926 H3939 0.961 . S
C3926 H3940 0.961 . S
C3927 C3924 1.539 . S
C3927 H3941 0.958 . S
C3927 H3942 0.961 . S
C3927 H3943 0.960 . S
H3928 C3912 0.931 . S
H3929 C3917 0.929 . S
H3930 C3918 0.960 . S
H3931 C3918 0.962 . S
H3932 C3918 0.960 . S
H3933 C3919 0.961 . S
H3934 C3919 0.961 . S
H3935 C3919 0.961 . S
H3936 C3920 0.931 . S
H3937 C3925 0.930 . S
H3938 C3926 0.956 . S
H3939 C3926 0.961 . S
H3940 C3926 0.961 . S
H3941 C3927 0.958 . S
H3942 C3927 0.961 . S
H3943 C3927 0.960 . S
C3944 C3945 1.391 . S
C3944 C3946 1.394 . S
C3944 H3960 0.931 . S
C3945 C3944 1.391 . S
C3945 C3949 1.376 . S
C3946 C3944 1.394 . S
C3946 C3947 1.369 . S
C3946 C3950 1.531 . S
C3947 C3946 1.369 . S
C3947 C3948 1.410 . S
C3947 C3955 1.503 . S
C3948 C3947 1.410 . S
C3948 C3949 1.392 . S
C3948 C3951 1.511 . S
C3949 C3945 1.376 . S
C3949 C3948 1.392 . S
C3949 H3961 0.929 . S
C3950 C3946 1.531 . S
C3950 H3962 0.960 . S
C3950 H3963 0.962 . S
C3950 H3964 0.960 . S
C3951 C3948 1.511 . S
C3951 H3965 0.961 . S
C3951 H3966 0.961 . S
C3951 H3967 0.961 . S
C3952 C3953 1.370 . S
C3952 C3954 1.363 . S
C3952 H3968 0.931 . S
C3953 C3952 1.370 . S
C3953 C3957 1.408 . S
C3954 C3952 1.363 . S
C3954 C3955 1.370 . S
C3954 C3958 1.524 . S
C3955 C3947 1.503 . S
C3955 C3954 1.370 . S
C3955 C3956 1.403 . S
C3956 C3955 1.403 . S
C3956 C3957 1.404 . S
C3956 C3959 1.539 . S
C3957 C3953 1.408 . S
C3957 C3956 1.404 . S
C3957 H3969 0.930 . S
C3958 C3954 1.524 . S
C3958 H3970 0.956 . S
C3958 H3971 0.961 . S
C3958 H3972 0.961 . S
C3959 C3956 1.539 . S
C3959 H3973 0.958 . S
C3959 H3974 0.961 . S
C3959 H3975 0.960 . S
H3960 C3944 0.931 . S
H3961 C3949 0.929 . S
H3962 C3950 0.960 . S
H3963 C3950 0.962 . S
H3964 C3950 0.960 . S
H3965 C3951 0.961 . S
H3966 C3951 0.961 . S
H3967 C3951 0.961 . S
H3968 C3952 0.931 . S
H3969 C3957 0.930 . S
H3970 C3958 0.956 . S
H3971 C3958 0.961 . S
H3972 C3958 0.961 . S
H3973 C3959 0.958 . S
H3974 C3959 0.961 . S
H3975 C3959 0.960 . S
C3976 C3977 1.391 . S
C3976 C3978 1.394 . S
C3976 H3992 0.931 . S
C3977 C3976 1.391 . S
C3977 C3981 1.376 . S
C3978 C3976 1.394 . S
C3978 C3979 1.369 . S
C3978 C3982 1.531 . S
C3979 C3978 1.369 . S
C3979 C3980 1.410 . S
C3979 C3987 1.503 . S
C3980 C3979 1.410 . S
C3980 C3981 1.392 . S
C3980 C3983 1.511 . S
C3981 C3977 1.376 . S
C3981 C3980 1.392 . S
C3981 H3993 0.929 . S
C3982 C3978 1.531 . S
C3982 H3994 0.960 . S
C3982 H3995 0.962 . S
C3982 H3996 0.960 . S
C3983 C3980 1.511 . S
C3983 H3997 0.961 . S
C3983 H3998 0.961 . S
C3983 H3999 0.961 . S
C3984 C3985 1.370 . S
C3984 C3986 1.363 . S
C3984 H4000 0.931 . S
C3985 C3984 1.370 . S
C3985 C3989 1.408 . S
C3986 C3984 1.363 . S
C3986 C3987 1.370 . S
C3986 C3990 1.524 . S
C3987 C3979 1.503 . S
C3987 C3986 1.370 . S
C3987 C3988 1.403 . S
C3988 C3987 1.403 . S
C3988 C3989 1.404 . S
C3988 C3991 1.539 . S
C3989 C3985 1.408 . S
C3989 C3988 1.404 . S
C3989 H4001 0.930 . S
C3990 C3986 1.524 . S
C3990 H4002 0.956 . S
C3990 H4003 0.961 . S
C3990 H4004 0.961 . S
C3991 C3988 1.539 . S
C3991 H4005 0.958 . S
C3991 H4006 0.961 . S
C3991 H4007 0.960 . S
H3992 C3976 0.931 . S
H3993 C3981 0.929 . S
H3994 C3982 0.960 . S
H3995 C3982 0.962 . S
H3996 C3982 0.960 . S
H3997 C3983 0.961 . S
H3998 C3983 0.961 . S
H3999 C3983 0.961 . S
H4000 C3984 0.931 . S
H4001 C3989 0.930 . S
H4002 C3990 0.956 . S
H4003 C3990 0.961 . S
H4004 C3990 0.961 . S
H4005 C3991 0.958 . S
H4006 C3991 0.961 . S
H4007 C3991 0.960 . S
C4008 C4009 1.391 . S
C4008 C4010 1.394 . S
C4008 H4024 0.931 . S
C4009 C4008 1.391 . S
C4009 C4013 1.376 . S
C4010 C4008 1.394 . S
C4010 C4011 1.369 . S
C4010 C4014 1.531 . S
C4011 C4010 1.369 . S
C4011 C4012 1.410 . S
C4011 C4019 1.503 . S
C4012 C4011 1.410 . S
C4012 C4013 1.392 . S
C4012 C4015 1.511 . S
C4013 C4009 1.376 . S
C4013 C4012 1.392 . S
C4013 H4025 0.929 . S
C4014 C4010 1.531 . S
C4014 H4026 0.960 . S
C4014 H4027 0.962 . S
C4014 H4028 0.960 . S
C4015 C4012 1.511 . S
C4015 H4029 0.961 . S
C4015 H4030 0.961 . S
C4015 H4031 0.961 . S
C4016 C4017 1.370 . S
C4016 C4018 1.363 . S
C4016 H4032 0.931 . S
C4017 C4016 1.370 . S
C4017 C4021 1.408 . S
C4018 C4016 1.363 . S
C4018 C4019 1.370 . S
C4018 C4022 1.524 . S
C4019 C4011 1.503 . S
C4019 C4018 1.370 . S
C4019 C4020 1.403 . S
C4020 C4019 1.403 . S
C4020 C4021 1.404 . S
C4020 C4023 1.539 . S
C4021 C4017 1.408 . S
C4021 C4020 1.404 . S
C4021 H4033 0.930 . S
C4022 C4018 1.524 . S
C4022 H4034 0.956 . S
C4022 H4035 0.961 . S
C4022 H4036 0.961 . S
C4023 C4020 1.539 . S
C4023 H4037 0.958 . S
C4023 H4038 0.961 . S
C4023 H4039 0.960 . S
H4024 C4008 0.931 . S
H4025 C4013 0.929 . S
H4026 C4014 0.960 . S
H4027 C4014 0.962 . S
H4028 C4014 0.960 . S
H4029 C4015 0.961 . S
H4030 C4015 0.961 . S
H4031 C4015 0.961 . S
H4032 C4016 0.931 . S
H4033 C4021 0.930 . S
H4034 C4022 0.956 . S
H4035 C4022 0.961 . S
H4036 C4022 0.961 . S
H4037 C4023 0.958 . S
H4038 C4023 0.961 . S
H4039 C4023 0.960 . S
C4040 C4041 1.391 . S
C4040 C4042 1.394 . S
C4040 H4056 0.931 1_556 S
C4041 C4040 1.391 . S
C4041 C4045 1.376 . S
C4042 C4040 1.394 . S
C4042 C4043 1.369 . S
C4042 C4046 1.531 . S
C4043 C4042 1.369 . S
C4043 C4044 1.410 . S
C4043 C4051 1.503 . S
C4044 C4043 1.410 . S
C4044 C4045 1.392 . S
C4044 C4047 1.511 . S
C4045 C4041 1.376 . S
C4045 C4044 1.392 . S
C4045 H4057 0.929 . S
C4046 C4042 1.531 . S
C4046 H4058 0.960 . S
C4046 H4059 0.962 1_556 S
C4046 H4060 0.960 1_556 S
C4047 C4044 1.511 . S
C4047 H4061 0.961 . S
C4047 H4062 0.961 . S
C4047 H4063 0.961 . S
C4048 C4049 1.370 . S
C4048 C4050 1.363 . S
C4048 H4064 0.931 . S
C4049 C4048 1.370 . S
C4049 C4053 1.408 . S
C4050 C4048 1.363 . S
C4050 C4051 1.370 . S
C4050 C4054 1.524 . S
C4051 C4043 1.503 . S
C4051 C4050 1.370 . S
C4051 C4052 1.403 . S
C4052 C4051 1.403 . S
C4052 C4053 1.404 . S
C4052 C4055 1.539 . S
C4053 C4049 1.408 . S
C4053 C4052 1.404 . S
C4053 H4065 0.930 . S
C4054 C4050 1.524 . S
C4054 H4066 0.956 . S
C4054 H4067 0.961 . S
C4054 H4068 0.961 . S
C4055 C4052 1.539 . S
C4055 H4069 0.958 . S
C4055 H4070 0.961 . S
C4055 H4071 0.960 . S
H4056 C4040 0.931 1_554 S
H4057 C4045 0.929 . S
H4058 C4046 0.960 . S
H4059 C4046 0.962 1_554 S
H4060 C4046 0.960 1_554 S
H4061 C4047 0.961 . S
H4062 C4047 0.961 . S
H4063 C4047 0.961 . S
H4064 C4048 0.931 . S
H4065 C4053 0.930 . S
H4066 C4054 0.956 . S
H4067 C4054 0.961 . S
H4068 C4054 0.961 . S
H4069 C4055 0.958 . S
H4070 C4055 0.961 . S
H4071 C4055 0.960 . S
C4072 C4073 1.391 . S
C4072 C4074 1.394 . S
C4072 H4088 0.931 . S
C4073 C4072 1.391 . S
C4073 C4077 1.376 . S
C4074 C4072 1.394 . S
C4074 C4075 1.369 . S
C4074 C4078 1.531 . S
C4075 C4074 1.369 . S
C4075 C4076 1.410 . S
C4075 C4083 1.503 . S
C4076 C4075 1.410 . S
C4076 C4077 1.392 . S
C4076 C4079 1.511 . S
C4077 C4073 1.376 . S
C4077 C4076 1.392 . S
C4077 H4089 0.929 . S
C4078 C4074 1.531 . S
C4078 H4090 0.960 . S
C4078 H4091 0.962 . S
C4078 H4092 0.960 . S
C4079 C4076 1.511 . S
C4079 H4093 0.961 . S
C4079 H4094 0.961 . S
C4079 H4095 0.961 . S
C4080 C4081 1.370 . S
C4080 C4082 1.363 . S
C4080 H4096 0.931 . S
C4081 C4080 1.370 . S
C4081 C4085 1.408 . S
C4082 C4080 1.363 . S
C4082 C4083 1.370 . S
C4082 C4086 1.524 . S
C4083 C4075 1.503 . S
C4083 C4082 1.370 . S
C4083 C4084 1.403 . S
C4084 C4083 1.403 . S
C4084 C4085 1.404 . S
C4084 C4087 1.539 . S
C4085 C4081 1.408 . S
C4085 C4084 1.404 . S
C4085 H4097 0.930 . S
C4086 C4082 1.524 . S
C4086 H4098 0.956 . S
C4086 H4099 0.961 . S
C4086 H4100 0.961 . S
C4087 C4084 1.539 . S
C4087 H4101 0.958 . S
C4087 H4102 0.961 . S
C4087 H4103 0.960 . S
H4088 C4072 0.931 . S
H4089 C4077 0.929 . S
H4090 C4078 0.960 . S
H4091 C4078 0.962 . S
H4092 C4078 0.960 . S
H4093 C4079 0.961 . S
H4094 C4079 0.961 . S
H4095 C4079 0.961 . S
H4096 C4080 0.931 . S
H4097 C4085 0.930 . S
H4098 C4086 0.956 . S
H4099 C4086 0.961 . S
H4100 C4086 0.961 . S
H4101 C4087 0.958 . S
H4102 C4087 0.961 . S
H4103 C4087 0.960 . S
C4104 C4105 1.391 . S
C4104 C4106 1.394 . S
C4104 H4120 0.931 . S
C4105 C4104 1.391 . S
C4105 C4109 1.376 . S
C4106 C4104 1.394 . S
C4106 C4107 1.369 . S
C4106 C4110 1.531 . S
C4107 C4106 1.369 . S
C4107 C4108 1.410 . S
C4107 C4115 1.503 . S
C4108 C4107 1.410 . S
C4108 C4109 1.392 . S
C4108 C4111 1.511 . S
C4109 C4105 1.376 . S
C4109 C4108 1.392 . S
C4109 H4121 0.929 . S
C4110 C4106 1.531 . S
C4110 H4122 0.960 . S
C4110 H4123 0.962 . S
C4110 H4124 0.960 . S
C4111 C4108 1.511 . S
C4111 H4125 0.961 . S
C4111 H4126 0.961 . S
C4111 H4127 0.961 . S
C4112 C4113 1.370 . S
C4112 C4114 1.363 . S
C4112 H4128 0.931 . S
C4113 C4112 1.370 . S
C4113 C4117 1.408 . S
C4114 C4112 1.363 . S
C4114 C4115 1.370 . S
C4114 C4118 1.524 . S
C4115 C4107 1.503 . S
C4115 C4114 1.370 . S
C4115 C4116 1.403 . S
C4116 C4115 1.403 . S
C4116 C4117 1.404 . S
C4116 C4119 1.539 . S
C4117 C4113 1.408 . S
C4117 C4116 1.404 . S
C4117 H4129 0.930 . S
C4118 C4114 1.524 . S
C4118 H4130 0.956 . S
C4118 H4131 0.961 . S
C4118 H4132 0.961 . S
C4119 C4116 1.539 . S
C4119 H4133 0.958 . S
C4119 H4134 0.961 . S
C4119 H4135 0.960 . S
H4120 C4104 0.931 . S
H4121 C4109 0.929 . S
H4122 C4110 0.960 . S
H4123 C4110 0.962 . S
H4124 C4110 0.960 . S
H4125 C4111 0.961 . S
H4126 C4111 0.961 . S
H4127 C4111 0.961 . S
H4128 C4112 0.931 . S
H4129 C4117 0.930 . S
H4130 C4118 0.956 . S
H4131 C4118 0.961 . S
H4132 C4118 0.961 . S
H4133 C4119 0.958 . S
H4134 C4119 0.961 . S
H4135 C4119 0.960 . S
C4136 C4137 1.391 . S
C4136 C4138 1.394 . S
C4136 H4152 0.931 . S
C4137 C4136 1.391 . S
C4137 C4141 1.376 . S
C4138 C4136 1.394 . S
C4138 C4139 1.369 . S
C4138 C4142 1.531 . S
C4139 C4138 1.369 . S
C4139 C4140 1.410 . S
C4139 C4147 1.503 . S
C4140 C4139 1.410 . S
C4140 C4141 1.392 . S
C4140 C4143 1.511 . S
C4141 C4137 1.376 . S
C4141 C4140 1.392 . S
C4141 H4153 0.929 . S
C4142 C4138 1.531 . S
C4142 H4154 0.960 . S
C4142 H4155 0.962 . S
C4142 H4156 0.960 . S
C4143 C4140 1.511 . S
C4143 H4157 0.961 . S
C4143 H4158 0.961 . S
C4143 H4159 0.961 . S
C4144 C4145 1.370 . S
C4144 C4146 1.363 . S
C4144 H4160 0.931 . S
C4145 C4144 1.370 . S
C4145 C4149 1.408 . S
C4146 C4144 1.363 . S
C4146 C4147 1.370 . S
C4146 C4150 1.524 . S
C4147 C4139 1.503 . S
C4147 C4146 1.370 . S
C4147 C4148 1.403 . S
C4148 C4147 1.403 . S
C4148 C4149 1.404 . S
C4148 C4151 1.539 . S
C4149 C4145 1.408 . S
C4149 C4148 1.404 . S
C4149 H4161 0.930 . S
C4150 C4146 1.524 . S
C4150 H4162 0.956 . S
C4150 H4163 0.961 . S
C4150 H4164 0.961 . S
C4151 C4148 1.539 . S
C4151 H4165 0.958 . S
C4151 H4166 0.961 . S
C4151 H4167 0.960 . S
H4152 C4136 0.931 . S
H4153 C4141 0.929 . S
H4154 C4142 0.960 . S
H4155 C4142 0.962 . S
H4156 C4142 0.960 . S
H4157 C4143 0.961 . S
H4158 C4143 0.961 . S
H4159 C4143 0.961 . S
H4160 C4144 0.931 . S
H4161 C4149 0.930 . S
H4162 C4150 0.956 . S
H4163 C4150 0.961 . S
H4164 C4150 0.961 . S
H4165 C4151 0.958 . S
H4166 C4151 0.961 . S
H4167 C4151 0.960 . S
C4168 C4169 1.391 1_455 S
C4168 C4170 1.394 1_455 S
C4168 H4184 0.931 . S
C4169 C4168 1.391 1_655 S
C4169 C4173 1.376 . S
C4170 C4168 1.394 1_655 S
C4170 C4171 1.369 . S
C4170 C4174 1.531 1_655 S
C4171 C4170 1.369 . S
C4171 C4172 1.410 . S
C4171 C4179 1.503 . S
C4172 C4171 1.410 . S
C4172 C4173 1.392 . S
C4172 C4175 1.511 . S
C4173 C4169 1.376 . S
C4173 C4172 1.392 . S
C4173 H4185 0.929 . S
C4174 C4170 1.531 1_455 S
C4174 H4186 0.960 . S
C4174 H4187 0.967 . S
C4174 H4188 0.960 . S
C4175 C4172 1.511 . S
C4175 H4189 0.961 . S
C4175 H4190 0.961 . S
C4175 H4191 0.961 . S
C4176 C4177 1.370 . S
C4176 C4178 1.363 . S
C4176 H4192 0.931 . S
C4177 C4176 1.370 . S
C4177 C4181 1.408 . S
C4178 C4176 1.363 . S
C4178 C4179 1.370 . S
C4178 C4182 1.524 . S
C4179 C4171 1.503 . S
C4179 C4178 1.370 . S
C4179 C4180 1.403 . S
C4180 C4179 1.403 . S
C4180 C4181 1.404 . S
C4180 C4183 1.539 . S
C4181 C4177 1.408 . S
C4181 C4180 1.404 . S
C4181 H4193 0.930 . S
C4182 C4178 1.524 . S
C4182 H4194 0.956 . S
C4182 H4195 0.961 . S
C4182 H4196 0.961 . S
C4183 C4180 1.539 . S
C4183 H4197 0.958 . S
C4183 H4198 0.961 . S
C4183 H4199 0.960 . S
H4184 C4168 0.931 . S
H4185 C4173 0.929 . S
H4186 C4174 0.960 . S
H4187 C4174 0.967 . S
H4188 C4174 0.960 . S
H4189 C4175 0.961 . S
H4190 C4175 0.961 . S
H4191 C4175 0.961 . S
H4192 C4176 0.931 . S
H4193 C4181 0.930 . S
H4194 C4182 0.956 . S
H4195 C4182 0.961 . S
H4196 C4182 0.961 . S
H4197 C4183 0.958 . S
H4198 C4183 0.961 . S
H4199 C4183 0.960 . S
C1905 C1873 1.883 . S
C1897 C15 1.999 . S
C1937 C1756 2.331 . S
C1929 C55 2.019 . S
C1969 C1834 1.905 . S
C1961 C95 1.802 . S
C2001 C1795 2.187 . S
C1993 C135 2.083 . S
C2033 C1522 1.883 . S
C2025 C175 1.998 . S
C2057 C215 2.085 . S
C2065 C1561 2.195 . S
C2097 C1444 2.332 . S
C2089 C255 2.092 . S
C2121 C295 1.824 . S
C2129 C1483 1.898 . S
C2161 C1717 1.891 . S
C2153 C335 1.988 . S
C2185 C375 2.114 . S
C2193 C1639 2.183 . S
C2217 C415 2.048 . S
C2225 C1600 2.325 . S
C2257 C1678 1.904 . S
C2249 C455 1.821 . S
C2289 C1405 1.895 . S
C2281 C495 1.991 . S
C2313 C535 2.042 . S
C2321 C1288 2.316 . S
C2353 C1366 1.895 . S
C2345 C575 1.807 . S
C2377 C615 2.076 . S
C2385 C1327 2.191 . S
C2417 C1054 1.897 . S
C2409 C655 1.990 . S
C2449 C1093 2.172 . S
C2441 C695 2.098 . S
C2473 C735 2.067 . S
C2481 C976 2.338 . S
C2505 C775 1.812 . S
C2513 C1015 1.897 . S
C2537 C815 1.987 . S
C2545 C1249 1.912 . S
C2569 C855 2.116 . S
C2577 C1171 2.178 . S
C2609 C1132 2.337 . S
C2601 C895 2.046 . S
C2633 C935 1.792 . S
C2641 C1210 1.897 . S
C2673 C961 1.607 . S
C2665 C21 1.701 . S
C2705 C1000 1.040 . S
C2697 C61 1.046 . S
C2729 C101 1.370 . S
C2737 C1039 1.410 . S
C2761 C141 0.798 . S
C2769 C1078 0.850 . S
C2801 C1117 1.606 . S
C2793 C181 1.694 . S
C2825 C221 0.865 1_554 S
C2833 C1156 0.840 . S
C2865 C1195 1.066 . S
C2857 C261 1.076 . S
C2897 C1234 1.413 . S
C2889 C301 1.378 . S
C2929 C1273 1.601 . S
C2921 C341 1.700 . S
C2953 C381 0.848 1_455 S
C2961 C1312 0.831 . S
C2985 C421 1.044 . S
C2993 C1351 1.039 . S
C3017 C461 1.373 . S
C3025 C1390 1.412 . S
C3049 C501 1.624 . S
C3057 C1429 1.617 . S
C3081 C541 1.040 . S
C3089 C1468 1.054 . S
C3113 C581 1.230 . S
C3121 C1507 1.403 . S
C3145 C621 0.884 1_565 S
C3153 C1546 0.829 . S
C3177 C661 1.654 . S
C3185 C1585 1.601 . S
C3217 C1624 0.852 . S
C3209 C701 0.739 . S
C3249 C1663 1.037 . S
C3241 C741 1.079 . S
C3281 C1702 1.396 . S
C3273 C781 1.323 . S
C3313 C1741 1.604 . S
C3305 C821 1.611 . S
C3337 C861 0.761 1_655 S
C3345 C1780 0.849 . S
C3369 C901 1.081 . S
C3377 C1819 1.043 . S
C3401 C941 1.280 . S
C3409 C1858 1.417 . S
C3433 C2 2.045 . S
C3441 C1293 2.005 . S
C3473 C1410 2.231 . S
C3465 C42 2.162 . S
C3497 C82 1.537 . S
C3505 C1332 1.507 . S
C3537 C1371 2.345 . S
C3529 C122 2.283 . S
C3561 C162 2.032 . S
C3569 C981 2.013 . S
C3593 C202 2.300 . S
C3601 C1020 2.341 . S
C3625 C242 2.108 . S
C3633 C1059 2.229 . S
C3657 C282 1.538 . S
C3665 C1098 1.511 . S
C3697 C1137 2.005 . S
C3689 C322 2.048 . S
C3729 C1215 2.342 . S
C3721 C362 2.296 . S
C3753 C402 2.105 . S
C3761 C1254 2.233 . S
C3785 C442 1.535 . S
C3793 C1176 1.506 . S
C3825 C1761 2.005 . S
C3817 C482 2.035 . S
C3857 C1878 2.265 . S
C3849 C522 2.206 . S
C3881 C562 1.401 . S
C3889 C1800 1.505 . S
C3921 C1839 2.347 . S
C3913 C602 2.162 . S
C3945 C642 2.033 . S
C3953 C1449 2.006 . S
C3977 C682 2.204 . S
C3985 C1488 2.342 . S
C4009 C722 2.219 . S
C4017 C1527 2.260 . S
C4049 C1566 1.516 . S
C4041 C762 1.401 . S
C4081 C1605 1.991 . S
C4073 C802 2.039 . S
C4113 C1683 2.354 . S
C4105 C842 2.162 . S
C4137 C882 2.223 . S
C4145 C1722 2.261 . S
C4177 C1644 1.519 . S
C4169 C922 1.448 . S
