# Generated by pormake.
# Topology ctn, (3,4)-cn, num edge types: 1
# Building blocks:
#     Node 0, Type 0, BuildingBlock: QEWDON_clean_linker_0, # of connection points: 3
#     Node 1, Type 0, BuildingBlock: QEWDON_clean_linker_0, # of connection points: 3
#     Node 2, Type 0, BuildingBlock: QEWDON_clean_linker_0, # of connection points: 3
#     Node 3, Type 0, BuildingBlock: QEWDON_clean_linker_0, # of connection points: 3
#     Node 4, Type 0, BuildingBlock: QEWDON_clean_linker_0, # of connection points: 3
#     Node 5, Type 0, BuildingBlock: QEWDON_clean_linker_0, # of connection points: 3
#     Node 6, Type 0, BuildingBlock: QEWDON_clean_linker_0, # of connection points: 3
#     Node 7, Type 0, BuildingBlock: QEWDON_clean_linker_0, # of connection points: 3
#     Node 8, Type 0, BuildingBlock: QEWDON_clean_linker_0, # of connection points: 3
#     Node 9, Type 0, BuildingBlock: QEWDON_clean_linker_0, # of connection points: 3
#     Node 10, Type 0, BuildingBlock: QEWDON_clean_linker_0, # of connection points: 3
#     Node 11, Type 0, BuildingBlock: QEWDON_clean_linker_0, # of connection points: 3
#     Node 12, Type 0, BuildingBlock: QEWDON_clean_linker_0, # of connection points: 3
#     Node 13, Type 0, BuildingBlock: QEWDON_clean_linker_0, # of connection points: 3
#     Node 14, Type 0, BuildingBlock: QEWDON_clean_linker_0, # of connection points: 3
#     Node 15, Type 0, BuildingBlock: QEWDON_clean_linker_0, # of connection points: 3
#     Node 16, Type 1, BuildingBlock: AZAVOO_clean_sbu_0, # of connection points: 4
#     Node 17, Type 1, BuildingBlock: AZAVOO_clean_sbu_0, # of connection points: 4
#     Node 18, Type 1, BuildingBlock: AZAVOO_clean_sbu_0, # of connection points: 4
#     Node 19, Type 1, BuildingBlock: AZAVOO_clean_sbu_0, # of connection points: 4
#     Node 20, Type 1, BuildingBlock: AZAVOO_clean_sbu_0, # of connection points: 4
#     Node 21, Type 1, BuildingBlock: AZAVOO_clean_sbu_0, # of connection points: 4
#     Node 22, Type 1, BuildingBlock: AZAVOO_clean_sbu_0, # of connection points: 4
#     Node 23, Type 1, BuildingBlock: AZAVOO_clean_sbu_0, # of connection points: 4
#     Node 24, Type 1, BuildingBlock: AZAVOO_clean_sbu_0, # of connection points: 4
#     Node 25, Type 1, BuildingBlock: AZAVOO_clean_sbu_0, # of connection points: 4
#     Node 26, Type 1, BuildingBlock: AZAVOO_clean_sbu_0, # of connection points: 4
#     Node 27, Type 1, BuildingBlock: AZAVOO_clean_sbu_0, # of connection points: 4
#     Edge 28, Type (0, 1), BuildingBlock: MIFKUJ_clean_linker_0, # of connection points: 2
#     Edge 29, Type (0, 1), BuildingBlock: MIFKUJ_clean_linker_0, # of connection points: 2
#     Edge 30, Type (0, 1), BuildingBlock: MIFKUJ_clean_linker_0, # of connection points: 2
#     Edge 31, Type (0, 1), BuildingBlock: MIFKUJ_clean_linker_0, # of connection points: 2
#     Edge 32, Type (0, 1), BuildingBlock: MIFKUJ_clean_linker_0, # of connection points: 2
#     Edge 33, Type (0, 1), BuildingBlock: MIFKUJ_clean_linker_0, # of connection points: 2
#     Edge 34, Type (0, 1), BuildingBlock: MIFKUJ_clean_linker_0, # of connection points: 2
#     Edge 35, Type (0, 1), BuildingBlock: MIFKUJ_clean_linker_0, # of connection points: 2
#     Edge 36, Type (0, 1), BuildingBlock: MIFKUJ_clean_linker_0, # of connection points: 2
#     Edge 37, Type (0, 1), BuildingBlock: MIFKUJ_clean_linker_0, # of connection points: 2
#     Edge 38, Type (0, 1), BuildingBlock: MIFKUJ_clean_linker_0, # of connection points: 2
#     Edge 39, Type (0, 1), BuildingBlock: MIFKUJ_clean_linker_0, # of connection points: 2
#     Edge 40, Type (0, 1), BuildingBlock: MIFKUJ_clean_linker_0, # of connection points: 2
#     Edge 41, Type (0, 1), BuildingBlock: MIFKUJ_clean_linker_0, # of connection points: 2
#     Edge 42, Type (0, 1), BuildingBlock: MIFKUJ_clean_linker_0, # of connection points: 2
#     Edge 43, Type (0, 1), BuildingBlock: MIFKUJ_clean_linker_0, # of connection points: 2
#     Edge 44, Type (0, 1), BuildingBlock: MIFKUJ_clean_linker_0, # of connection points: 2
#     Edge 45, Type (0, 1), BuildingBlock: MIFKUJ_clean_linker_0, # of connection points: 2
#     Edge 46, Type (0, 1), BuildingBlock: MIFKUJ_clean_linker_0, # of connection points: 2
#     Edge 47, Type (0, 1), BuildingBlock: MIFKUJ_clean_linker_0, # of connection points: 2
#     Edge 48, Type (0, 1), BuildingBlock: MIFKUJ_clean_linker_0, # of connection points: 2
#     Edge 49, Type (0, 1), BuildingBlock: MIFKUJ_clean_linker_0, # of connection points: 2
#     Edge 50, Type (0, 1), BuildingBlock: MIFKUJ_clean_linker_0, # of connection points: 2
#     Edge 51, Type (0, 1), BuildingBlock: MIFKUJ_clean_linker_0, # of connection points: 2
#     Edge 52, Type (0, 1), BuildingBlock: MIFKUJ_clean_linker_0, # of connection points: 2
#     Edge 53, Type (0, 1), BuildingBlock: MIFKUJ_clean_linker_0, # of connection points: 2
#     Edge 54, Type (0, 1), BuildingBlock: MIFKUJ_clean_linker_0, # of connection points: 2
#     Edge 55, Type (0, 1), BuildingBlock: MIFKUJ_clean_linker_0, # of connection points: 2
#     Edge 56, Type (0, 1), BuildingBlock: MIFKUJ_clean_linker_0, # of connection points: 2
#     Edge 57, Type (0, 1), BuildingBlock: MIFKUJ_clean_linker_0, # of connection points: 2
#     Edge 58, Type (0, 1), BuildingBlock: MIFKUJ_clean_linker_0, # of connection points: 2
#     Edge 59, Type (0, 1), BuildingBlock: MIFKUJ_clean_linker_0, # of connection points: 2
#     Edge 60, Type (0, 1), BuildingBlock: MIFKUJ_clean_linker_0, # of connection points: 2
#     Edge 61, Type (0, 1), BuildingBlock: MIFKUJ_clean_linker_0, # of connection points: 2
#     Edge 62, Type (0, 1), BuildingBlock: MIFKUJ_clean_linker_0, # of connection points: 2
#     Edge 63, Type (0, 1), BuildingBlock: MIFKUJ_clean_linker_0, # of connection points: 2
#     Edge 64, Type (0, 1), BuildingBlock: MIFKUJ_clean_linker_0, # of connection points: 2
#     Edge 65, Type (0, 1), BuildingBlock: MIFKUJ_clean_linker_0, # of connection points: 2
#     Edge 66, Type (0, 1), BuildingBlock: MIFKUJ_clean_linker_0, # of connection points: 2
#     Edge 67, Type (0, 1), BuildingBlock: MIFKUJ_clean_linker_0, # of connection points: 2
#     Edge 68, Type (0, 1), BuildingBlock: MIFKUJ_clean_linker_0, # of connection points: 2
#     Edge 69, Type (0, 1), BuildingBlock: MIFKUJ_clean_linker_0, # of connection points: 2
#     Edge 70, Type (0, 1), BuildingBlock: MIFKUJ_clean_linker_0, # of connection points: 2
#     Edge 71, Type (0, 1), BuildingBlock: MIFKUJ_clean_linker_0, # of connection points: 2
#     Edge 72, Type (0, 1), BuildingBlock: MIFKUJ_clean_linker_0, # of connection points: 2
#     Edge 73, Type (0, 1), BuildingBlock: MIFKUJ_clean_linker_0, # of connection points: 2
#     Edge 74, Type (0, 1), BuildingBlock: MIFKUJ_clean_linker_0, # of connection points: 2
#     Edge 75, Type (0, 1), BuildingBlock: MIFKUJ_clean_linker_0, # of connection points: 2
# Relax obj value: 0.112
# Max RMSD: 0.291
# Mean RMSD: 0.159
data_MOF--net-ctn--node1-AZAVOO_clean_sbu_0--node2-QEWDON_clean_linker_0--edge1-MIFKUJ_clean_linker_0
_symmetry_space_group_name_H-M    P1
_symmetry_Int_Tables_number       1
_symmetry_cell_setting            triclinic
loop_
_symmetry_equiv_pos_as_xyz
'x, y, z'
_cell_length_a     68.06736
_cell_length_b     71.685553
_cell_length_c     76.120676
_cell_angle_alpha  97.937391
_cell_angle_beta   94.28763
_cell_angle_gamma 98.256409
loop_
_atom_site_label
_atom_site_type_symbol
_atom_site_fract_x
_atom_site_fract_y
_atom_site_fract_z
_atom_type_partial_charge
H0 H 0.08906 0.02581 0.04021 0.0
C1 C 0.07776 0.0222 0.04901 0.0
C2 C 0.0747 0.00386 0.05398 0.0
C3 C 0.06749 0.03647 0.05648 0.0
H4 H 0.05798 0.98586 0.07012 0.0
C5 C 0.06065 0.99992 0.06624 0.0
C6 C 0.0501 0.01411 0.07366 0.0
C7 C 0.05369 0.03234 0.06868 0.0
C8 C 0.07286 0.05633 0.05328 0.0
H9 H 0.0463 0.04364 0.07484 0.0
C10 C 0.06981 0.06136 0.03617 0.0
C11 C 0.07496 0.08044 0.03349 0.0
C12 C 0.08108 0.07042 0.06765 0.0
H13 H 0.08352 0.06679 0.08091 0.0
C14 C 0.0864 0.08926 0.065 0.0
H15 H 0.06336 0.05053 0.02508 0.0
C16 C 0.08338 0.09428 0.04806 0.0
H17 H 0.08725 0.10909 0.04643 0.0
H18 H 0.09275 0.10005 0.07614 0.0
H19 H 0.35098 0.75276 0.24779 0.0
C20 C 0.3395 0.74035 0.24439 0.0
C21 C 0.34246 0.72301 0.24999 0.0
C22 C 0.32172 0.74203 0.23458 0.0
H23 H 0.32904 0.69392 0.25022 0.0
C24 C 0.32737 0.70712 0.24526 0.0
C25 C 0.30953 0.70844 0.2352 0.0
C26 C 0.30689 0.72599 0.22979 0.0
C27 C 0.31817 0.76106 0.23083 0.0
H28 H 0.29309 0.72735 0.22235 0.0
C29 C 0.31365 0.76445 0.21331 0.0
C30 C 0.31142 0.78296 0.21 0.0
C31 C 0.31993 0.77614 0.24503 0.0
H32 H 0.3233 0.77381 0.25862 0.0
C33 C 0.31724 0.79433 0.24186 0.0
H34 H 0.31263 0.75291 0.20231 0.0
C35 C 0.31308 0.79777 0.22449 0.0
H36 H 0.31105 0.81204 0.22241 0.0
H37 H 0.3185 0.80584 0.2529 0.0
H38 H 0.0327 0.47907 0.03906 0.0
C39 C 0.02014 0.4868 0.03886 0.0
C40 C 0.01397 0.49526 0.05495 0.0
C41 C 0.01064 0.48879 0.02239 0.0
H42 H 0.99267 0.51196 0.06642 0.0
C43 C 0.99751 0.50517 0.05423 0.0
C44 C 0.98747 0.50669 0.03776 0.0
C45 C 0.99428 0.49857 0.02196 0.0
C46 C 0.01851 0.48184 0.0055 0.0
H47 H 0.98708 0.50024 0.00919 0.0
C48 C 0.02061 0.46257 1.00103 0.0
C49 C 0.02741 0.45605 0.98457 0.0
C50 C 0.02356 0.49464 0.99355 0.0
H51 H 0.02212 0.50955 0.99677 0.0
C52 C 0.0306 0.48833 0.9774 0.0
H53 H 0.01669 0.45269 0.01023 0.0
C54 C 0.03246 0.46919 0.97288 0.0
H55 H 0.03741 0.4646 0.96001 0.0
H56 H 0.03443 0.49829 0.96826 0.0
H57 H 0.77774 0.81456 0.24387 0.0
C58 C 0.77713 0.80672 0.23055 0.0
C59 C 0.78512 0.81575 0.2168 0.0
C60 C 0.76899 0.78733 0.22735 0.0
H61 H 0.79131 0.81172 0.18922 0.0
C62 C 0.78444 0.80512 0.1997 0.0
C63 C 0.7763 0.78565 0.19637 0.0
C64 C 0.7685 0.77693 0.21031 0.0
C65 C 0.76317 0.7772 0.24218 0.0
H66 H 0.76237 0.76189 0.20805 0.0
C67 C 0.74433 0.77752 0.24851 0.0
C68 C 0.73846 0.76639 0.26163 0.0
C69 C 0.77628 0.76615 0.24931 0.0
H70 H 0.79082 0.76573 0.24448 0.0
C71 C 0.77066 0.75543 0.26257 0.0
H72 H 0.73407 0.78582 0.24281 0.0
C73 C 0.75183 0.75543 0.26864 0.0
H74 H 0.7477 0.7469 0.27887 0.0
H75 H 0.78085 0.74694 0.26803 0.0
H76 H 0.10463 0.97319 0.49396 0.0
C77 C 0.09324 0.97652 0.48467 0.0
C78 C 0.0949 0.99482 0.47963 0.0
C79 C 0.07765 0.96208 0.47685 0.0
H80 H 0.08192 0.01238 0.4625 0.0
C81 C 0.08029 0.99864 0.46709 0.0
C82 C 0.06462 0.98434 0.45914 0.0
C83 C 0.06338 0.96613 0.4642 0.0
C84 C 0.07808 0.94205 0.47942 0.0
H85 H 0.05165 0.95482 0.45785 0.0
C86 C 0.07635 0.93602 0.49619 0.0
C87 C 0.07715 0.91682 0.49805 0.0
C88 C 0.08053 0.92881 0.46465 0.0
H89 H 0.08195 0.93318 0.45168 0.0
C90 C 0.08143 0.90989 0.46649 0.0
H91 H 0.07437 0.94615 0.50763 0.0
C92 C 0.07979 0.90391 0.48304 0.0
H93 H 0.08023 0.88905 0.48406 0.0
H94 H 0.08336 0.8998 0.45503 0.0
H95 H 0.26158 0.67125 0.76937 0.0
C96 C 0.2585 0.68081 0.7808 0.0
C97 C 0.26788 0.67996 0.79767 0.0
C98 C 0.24573 0.69423 0.7784 0.0
H99 H 0.27151 0.69217 0.82538 0.0
C100 C 0.26404 0.69257 0.8124 0.0
C101 C 0.25091 0.70584 0.81045 0.0
C102 C 0.24179 0.7065 0.79335 0.0
C103 C 0.23751 0.69598 0.76009 0.0
H104 H 0.23188 0.71679 0.79161 0.0
C105 C 0.21767 0.69906 0.75646 0.0
C106 C 0.21011 0.70007 0.73891 0.0
C107 C 0.24974 0.69452 0.746 0.0
H108 H 0.26519 0.6927 0.74836 0.0
C109 C 0.24232 0.69564 0.72868 0.0
H110 H 0.20797 0.70013 0.76709 0.0
C111 C 0.22264 0.69829 0.72511 0.0
H112 H 0.21728 0.69926 0.71156 0.0
H113 H 0.2519 0.6945 0.71798 0.0
H114 H 0.97013 0.55733 0.45311 0.0
C115 C 0.96178 0.54447 0.45644 0.0
C116 C 0.9579 0.54323 0.47424 0.0
C117 C 0.95355 0.5297 0.44262 0.0
H118 H 0.9433 0.52515 0.49152 0.0
C119 C 0.94633 0.52653 0.47795 0.0
C120 C 0.93756 0.51198 0.46417 0.0
C121 C 0.94125 0.51367 0.44655 0.0
C122 C 0.95531 0.532 0.42378 0.0
H123 H 0.93422 0.50266 0.4358 0.0
C124 C 0.97292 0.52968 0.41568 0.0
C125 C 0.97372 0.53066 0.39731 0.0
C126 C 0.93862 0.53558 0.4136 0.0
H127 H 0.92493 0.5373 0.41962 0.0
C128 C 0.93936 0.53678 0.39555 0.0
H129 H 0.98578 0.52691 0.42361 0.0
C130 C 0.95666 0.53422 0.38742 0.0
H131 H 0.95646 0.5346 0.37324 0.0
H132 H 0.92635 0.53941 0.38775 0.0
H133 H 0.83758 0.80798 0.78602 0.0
C134 C 0.83493 0.79671 0.7941 0.0
C135 C 0.84367 0.78009 0.79051 0.0
C136 C 0.82399 0.79947 0.80889 0.0
H137 H 0.84726 0.75303 0.79888 0.0
C138 C 0.84078 0.76595 0.80167 0.0
C139 C 0.82935 0.76833 0.81625 0.0
C140 C 0.82119 0.78523 0.81977 0.0
C141 C 0.81747 0.81803 0.81448 0.0
H142 H 0.81311 0.78767 0.83141 0.0
C143 C 0.8027 0.82477 0.80416 0.0
C144 C 0.79575 0.84183 0.8106 0.0
C145 C 0.82562 0.82869 0.83094 0.0
H146 H 0.837 0.82374 0.83904 0.0
C147 C 0.81919 0.84578 0.8371 0.0
H148 H 0.79617 0.81644 0.79157 0.0
C149 C 0.80434 0.8523 0.82707 0.0
H150 H 0.79963 0.86564 0.83219 0.0
H151 H 0.82564 0.85395 0.84976 0.0
H152 H 0.3327 0.3084 0.28893 0.0
C153 C 0.33072 0.29732 0.29728 0.0
C154 C 0.33983 0.28091 0.29369 0.0
C155 C 0.32036 0.30018 0.31246 0.0
H156 H 0.34489 0.25448 0.30266 0.0
C157 C 0.33783 0.26708 0.30522 0.0
C158 C 0.32739 0.26974 0.3204 0.0
C159 C 0.31863 0.28629 0.32379 0.0
C160 C 0.31345 0.31862 0.31798 0.0
H161 H 0.31064 0.28858 0.3355 0.0
C162 C 0.29909 0.3255 0.30729 0.0
C163 C 0.29186 0.34246 0.31365 0.0
C164 C 0.32094 0.3291 0.3347 0.0
H165 H 0.33205 0.32412 0.34308 0.0
C166 C 0.31424 0.34607 0.34078 0.0
H167 H 0.29308 0.31737 0.29447 0.0
C168 C 0.29978 0.35268 0.33041 0.0
H169 H 0.29487 0.36594 0.33547 0.0
H170 H 0.3202 0.35407 0.35365 0.0
H171 H 0.53234 0.97975 0.54116 0.0
C172 C 0.52016 0.98779 0.53962 0.0
C173 C 0.51195 0.99595 0.55477 0.0
C174 C 0.51373 0.99111 0.52254 0.0
H175 H 0.49026 0.01346 0.56399 0.0
C176 C 0.49665 0.00701 0.55247 0.0
C177 C 0.49005 0.01032 0.53538 0.0
C178 C 0.49868 0.00229 0.52056 0.0
C179 C 0.52355 0.98406 0.50676 0.0
H180 H 0.49366 0.00476 0.50734 0.0
C181 C 0.52491 0.9646 0.50238 0.0
C182 C 0.53334 0.95795 0.48678 0.0
C183 C 0.53109 0.99693 0.49567 0.0
H184 H 0.53029 0.012 0.49883 0.0
C185 C 0.53973 0.99051 0.4804 0.0
H186 H 0.51913 0.95467 0.51097 0.0
C187 C 0.54077 0.97118 0.4759 0.0
H188 H 0.547 0.96657 0.46365 0.0
H189 H 0.54543 1.00053 0.47189 0.0
H190 H 0.27593 0.31297 0.74639 0.0
C191 C 0.27563 0.30507 0.73314 0.0
C192 C 0.28338 0.31427 0.71939 0.0
C193 C 0.26849 0.28545 0.73012 0.0
H194 H 0.2898 0.3104 0.69188 0.0
C195 C 0.28316 0.30363 0.70236 0.0
C196 C 0.27589 0.28396 0.69914 0.0
C197 C 0.26855 0.27503 0.71314 0.0
C198 C 0.26331 0.27533 0.74516 0.0
H199 H 0.26313 0.25983 0.71097 0.0
C200 C 0.24687 0.27879 0.75458 0.0
C201 C 0.24247 0.26916 0.76906 0.0
C202 C 0.27521 0.26216 0.75022 0.0
H203 H 0.28794 0.25934 0.7431 0.0
C204 C 0.27098 0.25273 0.76465 0.0
H205 H 0.23757 0.28888 0.75065 0.0
C206 C 0.25476 0.25622 0.77406 0.0
H207 H 0.25156 0.24852 0.78507 0.0
H208 H 0.28027 0.24265 0.76853 0.0
H209 H 0.84151 0.25432 0.74485 0.0
C210 C 0.83102 0.24127 0.74075 0.0
C211 C 0.836 0.22379 0.74452 0.0
C212 C 0.81238 0.24213 0.73201 0.0
H213 H 0.82532 0.19381 0.74323 0.0
C214 C 0.82197 0.20713 0.73947 0.0
C215 C 0.80307 0.20781 0.73093 0.0
C216 C 0.79855 0.2254 0.72697 0.0
C217 C 0.80645 0.26081 0.73015 0.0
H218 H 0.78399 0.22626 0.72058 0.0
C219 C 0.8045 0.26689 0.71341 0.0
C220 C 0.7985 0.2847 0.71182 0.0
C221 C 0.80246 0.27252 0.74537 0.0
H222 H 0.80389 0.268 0.75835 0.0
C223 C 0.79625 0.28998 0.7439 0.0
H224 H 0.80805 0.2579 0.70181 0.0
C225 C 0.79417 0.29601 0.7273 0.0
H226 H 0.78893 0.30947 0.72661 0.0
H227 H 0.79292 0.29884 0.75567 0.0
H228 H 0.58846 0.53118 0.54292 0.0
C229 C 0.57829 0.52627 0.55222 0.0
C230 C 0.57804 0.50794 0.55698 0.0
C231 C 0.56599 0.53858 0.5599 0.0
H232 H 0.56475 0.48793 0.57324 0.0
C233 C 0.56487 0.50189 0.56925 0.0
C234 C 0.55221 0.51404 0.57677 0.0
C235 C 0.55296 0.53233 0.57201 0.0
C236 C 0.56764 0.55852 0.55648 0.0
H237 H 0.54376 0.54205 0.57818 0.0
C238 C 0.56417 0.56281 0.53913 0.0
C239 C 0.56427 0.58186 0.53637 0.0
C240 C 0.57185 0.57341 0.57094 0.0
H241 H 0.57462 0.57039 0.58439 0.0
C242 C 0.57252 0.59229 0.56819 0.0
H243 H 0.56056 0.55135 0.52797 0.0
C244 C 0.56867 0.59653 0.55106 0.0
H245 H 0.56917 0.61132 0.54928 0.0
H246 H 0.57585 0.60369 0.5794 0.0
H247 H 0.60483 0.47243 0.99699 0.0
C248 C 0.59361 0.47565 0.98747 0.0
C249 C 0.59596 0.49349 0.98148 0.0
C250 C 0.57744 0.46149 0.98041 0.0
H251 H 0.58365 0.51049 0.9634 0.0
C252 C 0.58151 0.49714 0.9687 0.0
C253 C 0.56527 0.48309 0.96149 0.0
C254 C 0.56335 0.46531 0.96749 0.0
C255 C 0.57701 0.44175 0.98414 0.0
H256 H 0.55118 0.45415 0.96173 0.0
C257 C 0.57355 0.43677 1.00106 0.0
C258 C 0.57361 0.41781 0.00406 0.0
C259 C 0.58036 0.4277 0.9704 0.0
H260 H 0.58305 0.43129 0.95732 0.0
C261 C 0.58057 0.409 0.97344 0.0
H262 H 0.57081 0.44748 0.01171 0.0
C263 C 0.57728 0.40407 0.99017 0.0
H264 H 0.57736 0.38943 0.99225 0.0
H265 H 0.58327 0.39829 0.96279 0.0
H266 H 0.76151 0.17472 0.26918 0.0
C267 C 0.75836 0.18399 0.28078 0.0
C268 C 0.76769 0.18277 0.29756 0.0
C269 C 0.74552 0.19743 0.27869 0.0
H270 H 0.77119 0.1943 0.32544 0.0
C271 C 0.76376 0.19501 0.31251 0.0
C272 C 0.75056 0.20826 0.31087 0.0
C273 C 0.74148 0.20932 0.29385 0.0
C274 C 0.73737 0.19962 0.26049 0.0
H275 H 0.73152 0.21962 0.29235 0.0
C276 C 0.71742 0.20238 0.25684 0.0
C277 C 0.70994 0.20373 0.23935 0.0
C278 C 0.74978 0.19885 0.2465 0.0
H279 H 0.7653 0.19725 0.24891 0.0
C280 C 0.74246 0.20035 0.22926 0.0
H281 H 0.70759 0.20291 0.2674 0.0
C282 C 0.72267 0.20268 0.22566 0.0
H283 H 0.71738 0.20393 0.21216 0.0
H284 H 0.75218 0.19975 0.21864 0.0
H285 H 0.47681 0.05653 0.95352 0.0
C286 C 0.46613 0.0453 0.95711 0.0
C287 C 0.46203 0.04538 0.97502 0.0
C288 C 0.4557 0.03128 0.94357 0.0
H289 H 0.44409 0.03062 0.99273 0.0
C290 C 0.44796 0.03058 0.97918 0.0
C291 C 0.43767 0.01635 0.96579 0.0
C292 C 0.44148 0.01692 0.94801 0.0
C293 C 0.45765 0.03288 0.92458 0.0
H294 H 0.43324 0.00624 0.93754 0.0
C295 C 0.47553 0.03081 0.91681 0.0
C296 C 0.47675 0.03219 0.89858 0.0
C297 C 0.44111 0.03634 0.91408 0.0
H298 H 0.42725 0.03796 0.91982 0.0
C299 C 0.44233 0.03788 0.89614 0.0
H300 H 0.48831 0.02805 0.92486 0.0
C301 C 0.45997 0.03582 0.88841 0.0
H302 H 0.46036 0.0367 0.87435 0.0
H303 H 0.42949 0.04057 0.88814 0.0
Mg304 Mg 0.24404 0.8494 0.01304 0.0
O305 O 0.27267 0.8697 0.00983 0.0
O306 O 0.29779 0.85282 0.01146 0.0
Mg307 Mg 0.28575 0.82234 0.01546 0.0
C308 C 0.29118 0.8683 0.0096 0.0
C309 C 0.20998 0.87062 0.0165 0.0
O310 O 0.20891 0.85798 0.02751 0.0
O311 O 0.24388 0.83487 0.98411 0.0
O312 O 0.26801 0.81716 0.98785 0.0
O313 O 0.24888 0.85626 0.04286 0.0
O314 O 0.26039 0.83273 0.02724 0.0
C315 C 0.25419 0.82223 0.9781 0.0
C316 C 0.25894 0.84226 0.04256 0.0
O317 O 0.22387 0.87095 0.00618 0.0
Mg318 Mg 0.15782 0.50975 0.25716 0.0
O319 O 0.14043 0.50304 0.22906 0.0
O320 O 0.16337 0.50334 0.20954 0.0
Mg321 Mg 0.19459 0.50996 0.22433 0.0
C322 C 0.14519 0.5014 0.21303 0.0
C323 C 0.13032 0.4965 0.2858 0.0
O324 O 0.14756 0.49328 0.29271 0.0
O325 O 0.16624 0.47956 0.25498 0.0
O326 O 0.1896 0.48184 0.23589 0.0
O327 O 0.1589 0.54101 0.25661 0.0
O328 O 0.18213 0.52473 0.24706 0.0
C329 C 0.17947 0.4725 0.24622 0.0
C330 C 0.17537 0.54068 0.2492 0.0
O331 O 0.12933 0.50196 0.27058 0.0
Mg332 Mg 0.81608 0.65673 0.00306 0.0
O333 O 0.78525 0.63731 0.99951 0.0
O334 O 0.76251 0.65692 0.9996 0.0
Mg335 Mg 0.77782 0.68779 0.00258 0.0
C336 C 0.76709 0.64018 0.99871 0.0
C337 C 0.8496 0.63495 0.00672 0.0
O338 O 0.85485 0.65205 0.01602 0.0
O339 O 0.81296 0.66189 0.97388 0.0
O340 O 0.79027 0.68161 0.97542 0.0
O341 O 0.81583 0.65973 0.03253 0.0
O342 O 0.80394 0.67945 0.01619 0.0
C343 C 0.80215 0.6725 0.96667 0.0
C344 C 0.80684 0.67433 0.03162 0.0
O345 O 0.83271 0.63128 0.99754 0.0
Mg346 Mg 0.94224 0.03389 0.26537 0.0
O347 O 0.92295 0.00422 0.25735 0.0
O348 O 0.94358 0.98364 0.24926 0.0
Mg349 Mg 0.97545 0.99941 0.25231 0.0
C350 C 0.92611 0.98736 0.2517 0.0
C351 C 0.91917 0.06248 0.28666 0.0
O352 O 0.93774 0.07073 0.29108 0.0
O353 O 0.95329 0.02544 0.29206 0.0
O354 O 0.97369 0.00519 0.28253 0.0
O355 O 0.93953 0.03895 0.23698 0.0
O356 O 0.96362 0.02563 0.24866 0.0
C357 C 0.96566 0.01414 0.29509 0.0
C358 C 0.95502 0.03064 0.23479 0.0
O359 O 0.91585 0.04626 0.27686 0.0
Mg360 Mg 0.31558 0.15636 0.50473 0.0
O361 O 0.28413 0.13838 0.50183 0.0
O362 O 0.26234 0.15895 0.50266 0.0
Mg363 Mg 0.27915 0.18935 0.50566 0.0
C364 C 0.26623 0.14194 0.5015 0.0
C365 C 0.34821 0.13221 0.49485 0.0
O366 O 0.35664 0.14941 0.49298 0.0
O367 O 0.3118 0.16181 0.47569 0.0
O368 O 0.29063 0.18297 0.47807 0.0
O369 O 0.31631 0.15924 0.53426 0.0
O370 O 0.30501 0.17972 0.51847 0.0
C371 C 0.30167 0.17322 0.46888 0.0
C372 C 0.308 0.17431 0.53377 0.0
O373 O 0.33006 0.12971 0.49814 0.0
Mg374 Mg 0.4427 0.53078 0.76707 0.0
O375 O 0.42281 0.50143 0.75911 0.0
O376 O 0.44283 0.48021 0.75122 0.0
Mg377 Mg 0.47502 0.49528 0.75454 0.0
C378 C 0.42551 0.48441 0.75354 0.0
C379 C 0.41995 0.56031 0.78748 0.0
O380 O 0.43856 0.56861 0.79147 0.0
O381 O 0.45319 0.52235 0.79393 0.0
O382 O 0.473 0.50137 0.7847 0.0
O383 O 0.44061 0.53554 0.73856 0.0
O384 O 0.46413 0.5219 0.75075 0.0
C385 C 0.46512 0.51069 0.79713 0.0
C386 C 0.45595 0.52692 0.73671 0.0
O387 O 0.41648 0.54379 0.77823 0.0
Mg388 Mg 0.74033 0.35188 0.51325 0.0
O389 O 0.77012 0.37002 0.50953 0.0
O390 O 0.79388 0.35185 0.51267 0.0
Mg391 Mg 0.77971 0.32251 0.51823 0.0
C392 C 0.78836 0.36754 0.50976 0.0
C393 C 0.72574 0.39096 0.51179 0.0
O394 O 0.74193 0.39633 0.52289 0.0
O395 O 0.74018 0.3355 0.48506 0.0
O396 O 0.76288 0.31665 0.49019 0.0
O397 O 0.74493 0.36063 0.54292 0.0
O398 O 0.75499 0.3353 0.52875 0.0
C399 C 0.74982 0.32201 0.47984 0.0
C400 C 0.75403 0.34605 0.54354 0.0
O401 O 0.72191 0.37373 0.50413 0.0
Mg402 Mg 0.65724 0.00573 0.75496 0.0
O403 O 0.63871 0.99882 0.72733 0.0
O404 O 0.66102 0.99865 0.70722 0.0
Mg405 Mg 0.69269 0.00561 0.721 0.0
C406 C 0.643 0.99684 0.71115 0.0
C407 C 0.63347 1.00039 0.78669 0.0
O408 O 0.65212 0.00527 0.79351 0.0
O409 O 0.66579 0.97562 0.75264 0.0
O410 O 0.68848 0.97769 0.73293 0.0
O411 O 0.6581 0.03695 0.75436 0.0
O412 O 0.6809 0.02058 0.744 0.0
C413 C 0.67876 0.96849 0.7436 0.0
C414 C 0.67421 0.03655 0.74639 0.0
O415 O 0.62981 0.99795 0.76981 0.0
Mg416 Mg 0.04477 0.22541 0.89054 0.0
O417 O 0.01564 0.2189 0.87182 0.0
O418 O 0.99089 0.21284 0.88892 0.0
Mg419 Mg 0.00384 0.21421 0.91776 0.0
C420 C 0.99709 0.2148 0.87375 0.0
C421 C 0.07934 0.24716 0.87538 0.0
O422 O 0.08422 0.24978 0.89267 0.0
O423 O 0.03699 0.2544 0.90146 0.0
O424 O 0.01339 0.24663 0.91925 0.0
O425 O 0.04869 0.19467 0.88744 0.0
O426 O 0.03232 0.20847 0.90816 0.0
C427 C 0.02489 0.25908 0.91273 0.0
C428 C 0.03845 0.19329 0.901 0.0
O429 O 0.06238 0.23769 0.8693 0.0
Mg430 Mg 0.55383 0.72804 0.39439 0.0
O431 O 0.52417 0.72063 0.3765 0.0
O432 O 0.50009 0.71288 0.39381 0.0
Mg433 Mg 0.51407 0.71537 0.42246 0.0
C434 C 0.50586 0.71538 0.37861 0.0
C435 C 0.57189 0.72984 0.35825 0.0
O436 O 0.56431 0.71169 0.35649 0.0
O437 O 0.54514 0.75654 0.40557 0.0
O438 O 0.52193 0.74795 0.42346 0.0
O439 O 0.55868 0.69752 0.39098 0.0
O440 O 0.54267 0.71071 0.41234 0.0
C441 C 0.53286 0.76074 0.41683 0.0
C442 C 0.54883 0.69574 0.40472 0.0
O443 O 0.56944 0.7408 0.37226 0.0
Mg444 Mg 0.99964 0.74626 0.62257 0.0
O445 O 0.02747 0.74097 0.63951 0.0
O446 O 0.04996 0.7344 0.62056 0.0
Mg447 Mg 0.03698 0.7346 0.59212 0.0
C448 C 0.04468 0.7369 0.63635 0.0
C449 C 0.96843 0.76145 0.64591 0.0
O450 O 0.95953 0.75954 0.62969 0.0
O451 O 0.01552 0.77579 0.61829 0.0
O452 O 0.0368 0.76673 0.59895 0.0
O453 O 0.98712 0.71509 0.61825 0.0
O454 O 0.00678 0.72857 0.60034 0.0
C455 C 0.02921 0.77971 0.60812 0.0
C456 C 0.99677 0.71331 0.60425 0.0
O457 O 0.98623 0.75802 0.64784 0.0
Mg458 Mg 0.49528 0.24481 0.12526 0.0
O459 O 0.5241 0.24109 0.14172 0.0
O460 O 0.5467 0.23616 0.12244 0.0
Mg461 Mg 0.53301 0.2366 0.09423 0.0
C462 C 0.54158 0.23803 0.13831 0.0
C463 C 0.46421 0.25995 0.14879 0.0
O464 O 0.45608 0.25981 0.13255 0.0
O465 O 0.50892 0.27518 0.12137 0.0
O466 O 0.53111 0.26831 0.10208 0.0
O467 O 0.4855 0.21305 0.12056 0.0
O468 O 0.50322 0.22864 0.10259 0.0
C469 C 0.52254 0.28031 0.11152 0.0
C470 C 0.49486 0.21262 0.10635 0.0
O471 O 0.48145 0.25518 0.15076 0.0
H472 H 0.24669 0.74367 0.8122 0.0
H473 H 0.24196 0.76584 0.83836 0.0
H474 H 0.24344 0.72113 0.8708 0.0
H475 H 0.24683 0.69862 0.84455 0.0
H476 H 0.21657 0.74114 0.88098 0.0
H477 H 0.28499 0.75634 0.86822 0.0
H478 H 0.312 0.76562 0.84978 0.0
H479 H 0.28964 0.81785 0.84464 0.0
H480 H 0.26234 0.80876 0.86289 0.0
H481 H 0.26016 0.78646 0.96559 0.0
H482 H 0.25418 0.76982 0.93508 0.0
H483 H 0.2329 0.81872 0.91772 0.0
H484 H 0.23845 0.83552 0.94864 0.0
H485 H 0.265 0.80084 0.89778 0.0
H486 H 0.19937 0.7862 0.91587 0.0
H487 H 0.1748 0.77604 0.93622 0.0
H488 H 0.19457 0.72154 0.93312 0.0
H489 H 0.21949 0.73147 0.91296 0.0
C490 C 0.24562 0.73843 0.82482 0.0
C491 C 0.2473 0.71932 0.82622 0.0
C492 C 0.24316 0.75122 0.83984 0.0
C493 C 0.24269 0.74529 0.85666 0.0
C494 C 0.24383 0.72612 0.85801 0.0
C495 C 0.24603 0.71329 0.84298 0.0
C496 C 0.24159 0.75899 0.87303 0.0
C497 C 0.22719 0.75417 0.88462 0.0
C498 C 0.25511 0.77629 0.87767 0.0
C499 C 0.27149 0.78176 0.86671 0.0
C500 C 0.28575 0.76973 0.86304 0.0
C501 C 0.30112 0.77497 0.85264 0.0
C502 C 0.30249 0.79228 0.84599 0.0
C503 C 0.28853 0.80442 0.84977 0.0
C504 C 0.27311 0.79924 0.86013 0.0
C505 C 0.25415 0.79372 0.95534 0.0
C506 C 0.24984 0.81234 0.95951 0.0
C507 C 0.25067 0.78414 0.93792 0.0
C508 C 0.24307 0.79303 0.92421 0.0
C509 C 0.23874 0.81164 0.92819 0.0
C510 C 0.24185 0.82117 0.94581 0.0
C511 C 0.24033 0.78268 0.90575 0.0
C512 C 0.25407 0.78806 0.89384 0.0
C513 C 0.22646 0.76574 0.90094 0.0
C514 C 0.21139 0.75964 0.91298 0.0
C515 C 0.1986 0.7721 0.91963 0.0
C516 C 0.18458 0.76637 0.93112 0.0
C517 C 0.18315 0.74816 0.93598 0.0
C518 C 0.1957 0.73564 0.92934 0.0
C519 C 0.20976 0.7413 0.91786 0.0
H520 H 0.17229 0.74376 0.94487 0.0
H521 H 0.31441 0.79631 0.83796 0.0
H522 H 0.9892 0.54862 0.37069 0.0
H523 H 0.01585 0.54031 0.35284 0.0
H524 H 0.02665 0.49739 0.38524 0.0
H525 H 0.99929 0.50499 0.4028 0.0
H526 H 0.06249 0.52232 0.37599 0.0
H527 H 0.00243 0.48111 0.3491 0.0
H528 H 0.96714 0.47422 0.33687 0.0
H529 H 0.97993 0.50992 0.29696 0.0
H530 H 0.01526 0.51728 0.30915 0.0
H531 H 0.12549 0.48147 0.31664 0.0
H532 H 0.09906 0.48484 0.33636 0.0
H533 H 0.07054 0.51616 0.30003 0.0
H534 H 0.09648 0.51217 0.27995 0.0
H535 H 0.04326 0.49469 0.31253 0.0
H536 H 0.10143 0.5382 0.33931 0.0
H537 H 0.13656 0.5479 0.35156 0.0
H538 H 0.12765 0.51127 0.39133 0.0
H539 H 0.0925 0.50117 0.37917 0.0
C540 C 0.99711 0.53733 0.37403 0.0
C541 C 0.99178 0.52727 0.38806 0.0
C542 C 0.01245 0.5327 0.36386 0.0
C543 C 0.02305 0.5181 0.36759 0.0
C544 C 0.0186 0.50869 0.38214 0.0
C545 C 0.00302 0.51315 0.39222 0.0
C546 C 0.03811 0.51224 0.35571 0.0
C547 C 0.05832 0.51595 0.3622 0.0
C548 C 0.03265 0.50444 0.33761 0.0
C549 C 0.01145 0.49987 0.33014 0.0
C550 C 0.99769 0.48762 0.33781 0.0
C551 C 0.97768 0.4836 0.33087 0.0
C552 C 0.97129 0.49166 0.31617 0.0
C553 C 0.9849 0.5037 0.30835 0.0
C554 C 0.00492 0.50779 0.31526 0.0
C555 C 0.11345 0.48887 0.31274 0.0
C556 C 0.11317 0.49664 0.29676 0.0
C557 C 0.09841 0.49093 0.32412 0.0
C558 C 0.08299 0.50117 0.31995 0.0
C559 C 0.08228 0.50827 0.30363 0.0
C560 C 0.09715 0.50597 0.29214 0.0
C561 C 0.06786 0.50493 0.33268 0.0
C562 C 0.04755 0.50086 0.32636 0.0
C563 C 0.07329 0.51272 0.35087 0.0
C564 C 0.0944 0.51876 0.3582 0.0
C565 C 0.107 0.5321 0.35058 0.0
C566 C 0.12691 0.53769 0.35752 0.0
C567 C 0.13435 0.53016 0.37218 0.0
C568 C 0.12187 0.51706 0.37995 0.0
C569 C 0.10196 0.51141 0.37305 0.0
H570 H 0.14977 0.53451 0.37753 0.0
H571 H 0.95579 0.48853 0.31081 0.0
H572 H 0.85713 0.74857 0.83005 0.0
H573 H 0.85303 0.7278 0.85301 0.0
H574 H 0.79118 0.73486 0.85321 0.0
H575 H 0.79511 0.75539 0.83026 0.0
H576 H 0.81054 0.74309 0.88624 0.0
H577 H 0.80471 0.69252 0.83639 0.0
H578 H 0.81576 0.67488 0.80972 0.0
H579 H 0.86805 0.66599 0.84068 0.0
H580 H 0.85744 0.68382 0.8675 0.0
H581 H 0.77452 0.68266 0.94365 0.0
H582 H 0.77983 0.69436 0.91552 0.0
H583 H 0.84043 0.6831 0.9198 0.0
H584 H 0.835 0.67079 0.94791 0.0
H585 H 0.8244 0.67683 0.88485 0.0
H586 H 0.83111 0.72703 0.93428 0.0
H587 H 0.82116 0.74506 0.96128 0.0
H588 H 0.76897 0.75566 0.93133 0.0
H589 H 0.77846 0.73744 0.90418 0.0
C590 C 0.84255 0.74533 0.8347 0.0
C591 C 0.82649 0.75379 0.82844 0.0
C592 C 0.84024 0.73348 0.84785 0.0
C593 C 0.8218 0.7298 0.85488 0.0
C594 C 0.80558 0.73759 0.84808 0.0
C595 C 0.80787 0.74938 0.83499 0.0
C596 C 0.81962 0.71919 0.87028 0.0
C597 C 0.81331 0.72851 0.8858 0.0
C598 C 0.82401 0.70042 0.87002 0.0
C599 C 0.83038 0.68968 0.85391 0.0
C600 C 0.81865 0.68696 0.83748 0.0
C601 C 0.82482 0.67689 0.82234 0.0
C602 C 0.84263 0.66937 0.82349 0.0
C603 C 0.85428 0.67185 0.8398 0.0
C604 C 0.84818 0.68192 0.85498 0.0
C605 C 0.78887 0.6823 0.93845 0.0
C606 C 0.80442 0.67603 0.94813 0.0
C607 C 0.79191 0.68905 0.92238 0.0
C608 C 0.81069 0.69009 0.91577 0.0
C609 C 0.82585 0.68255 0.9247 0.0
C610 C 0.82273 0.67551 0.94075 0.0
C611 C 0.81478 0.70061 0.90055 0.0
C612 C 0.82161 0.6914 0.88521 0.0
C613 C 0.81108 0.71961 0.90097 0.0
C614 C 0.80542 0.73073 0.91723 0.0
C615 C 0.81745 0.7331 0.93347 0.0
C616 C 0.8119 0.74336 0.9488 0.0
C617 C 0.79442 0.75146 0.94803 0.0
C618 C 0.78249 0.74936 0.93191 0.0
C619 C 0.78796 0.73908 0.91655 0.0
H620 H 0.79015 0.7594 0.95991 0.0
H621 H 0.84738 0.66158 0.81176 0.0
H622 H 0.04553 0.01529 0.45674 0.0
H623 H 0.02579 0.02199 0.43063 0.0
H624 H 0.03396 0.96815 0.40135 0.0
H625 H 0.05372 0.96147 0.42719 0.0
H626 H 0.04393 0.99885 0.3835 0.0
H627 H 0.98978 0.97355 0.41541 0.0
H628 H 0.9701 0.97249 0.44127 0.0
H629 H 0.95879 0.02946 0.43846 0.0
H630 H 0.97865 0.03096 0.41271 0.0
H631 H 0.98147 0.98431 0.3056 0.0
H632 H 0.99531 0.98124 0.33527 0.0
H633 H 0.97809 0.03487 0.35635 0.0
H634 H 0.96368 0.0379 0.32645 0.0
H635 H 0.97314 0.00875 0.37975 0.0
H636 H 0.02528 0.03406 0.3474 0.0
H637 H 0.04527 0.03618 0.32184 0.0
H638 H 0.06142 0.98115 0.3262 0.0
H639 H 0.04128 0.97856 0.35163 0.0
C640 C 0.04294 0.00483 0.44477 0.0
C641 C 0.05111 0.98781 0.44405 0.0
C642 C 0.0316 0.00863 0.42991 0.0
C643 C 0.02837 0.99553 0.41407 0.0
C644 C 0.03623 0.97843 0.41345 0.0
C645 C 0.04739 0.97456 0.42829 0.0
C646 C 0.01786 0.99998 0.39772 0.0
C647 C 0.0284 1.00083 0.38264 0.0
C648 C 0.99785 0.00336 0.39683 0.0
C649 C 0.9859 0.00245 0.41227 0.0
C650 C 0.98326 0.98592 0.42041 0.0
C651 C 0.97203 0.98522 0.43502 0.0
C652 C 0.96326 1.00092 0.44154 0.0
C653 C 0.96563 0.01733 0.43342 0.0
C654 C 0.97686 0.0181 0.41881 0.0
C655 C 0.98042 0.99542 0.31654 0.0
C656 C 0.97172 0.01151 0.3136 0.0
C657 C 0.98839 0.99364 0.33351 0.0
C658 C 0.98819 0.00804 0.34796 0.0
C659 C 0.97854 0.02365 0.34535 0.0
C660 C 0.97032 0.02537 0.32828 0.0
C661 C 0.99907 0.007 0.36539 0.0
C662 C 0.98871 0.00691 0.38066 0.0
C663 C 0.01939 0.00453 0.36659 0.0
C664 C 0.03164 0.00607 0.35135 0.0
C665 C 0.03298 0.02235 0.34284 0.0
C666 C 0.04436 0.02364 0.32838 0.0
C667 C 0.05458 0.0088 0.32238 0.0
C668 C 0.05349 0.99264 0.33086 0.0
C669 C 0.04211 0.99126 0.34531 0.0
H670 H 0.06338 0.00982 0.31118 0.0
H671 H 0.95457 1.00035 0.45285 0.0
H672 H 0.2877 0.24897 0.69278 0.0
H673 H 0.29115 0.23049 0.6641 0.0
H674 H 0.27186 0.2747 0.63703 0.0
H675 H 0.2677 0.29308 0.66579 0.0
H676 H 0.25503 0.23924 0.62022 0.0
H677 H 0.32057 0.27135 0.64237 0.0
H678 H 0.34992 0.28155 0.66441 0.0
H679 H 0.35735 0.22314 0.66489 0.0
H680 H 0.32786 0.21257 0.64304 0.0
H681 H 0.29208 0.20749 0.53739 0.0
H682 H 0.28469 0.22589 0.56495 0.0
H683 H 0.30365 0.18364 0.59486 0.0
H684 H 0.31116 0.16522 0.5674 0.0
H685 H 0.3205 0.2192 0.60968 0.0
H686 H 0.25457 0.18715 0.58755 0.0
H687 H 0.22537 0.1772 0.56532 0.0
H688 H 0.21888 0.23578 0.56445 0.0
H689 H 0.24825 0.2461 0.58649 0.0
C690 C 0.28387 0.25466 0.68074 0.0
C691 C 0.27739 0.27251 0.68158 0.0
C692 C 0.28605 0.24416 0.66434 0.0
C693 C 0.28201 0.25133 0.64843 0.0
C694 C 0.27513 0.26893 0.64916 0.0
C695 C 0.27291 0.27948 0.66559 0.0
C696 C 0.2854 0.24055 0.63113 0.0
C697 C 0.26941 0.23508 0.6178 0.0
C698 C 0.30409 0.23485 0.6281 0.0
C699 C 0.32189 0.24116 0.64119 0.0
C700 C 0.32837 0.26067 0.64728 0.0
C701 C 0.34505 0.26652 0.65972 0.0
C702 C 0.35546 0.253 0.66608 0.0
C703 C 0.34925 0.2336 0.65997 0.0
C704 C 0.33257 0.22767 0.64754 0.0
C705 C 0.29444 0.20198 0.54979 0.0
C706 C 0.30217 0.18485 0.55019 0.0
C707 C 0.29018 0.21251 0.56554 0.0
C708 C 0.29351 0.20608 0.58195 0.0
C709 C 0.30098 0.18887 0.58234 0.0
C710 C 0.30521 0.17833 0.56662 0.0
C711 C 0.29006 0.21766 0.59883 0.0
C712 C 0.3061 0.22335 0.61208 0.0
C713 C 0.27145 0.22359 0.60173 0.0
C714 C 0.25374 0.21741 0.58854 0.0
C715 C 0.24702 0.19792 0.58251 0.0
C716 C 0.23042 0.19221 0.56996 0.0
C717 C 0.22031 0.20585 0.56344 0.0
C718 C 0.22675 0.22523 0.56949 0.0
C719 C 0.24336 0.23102 0.58202 0.0
H720 H 0.20746 0.2014 0.55373 0.0
H721 H 0.36837 0.25756 0.67571 0.0
H722 H 0.51307 0.51776 0.5784 0.0
H723 H 0.49367 0.51529 0.60398 0.0
H724 H 0.54251 0.49625 0.63227 0.0
H725 H 0.56202 0.49865 0.60662 0.0
H726 H 0.50472 0.47852 0.63948 0.0
H727 H 0.53958 0.54181 0.63814 0.0
H728 H 0.54899 0.57032 0.62401 0.0
H729 H 0.48774 0.5787 0.61866 0.0
H730 H 0.47791 0.54998 0.63245 0.0
H731 H 0.48872 0.51035 0.72911 0.0
H732 H 0.50171 0.50391 0.70025 0.0
H733 H 0.45357 0.52716 0.67543 0.0
H734 H 0.44039 0.53363 0.70435 0.0
H735 H 0.48909 0.5415 0.66543 0.0
H736 H 0.45413 0.47963 0.66841 0.0
H737 H 0.44421 0.45078 0.68191 0.0
H738 H 0.50457 0.43957 0.68407 0.0
H739 H 0.51492 0.46851 0.6708 0.0
C740 C 0.51952 0.51268 0.58994 0.0
C741 C 0.53915 0.50863 0.59062 0.0
C742 C 0.50842 0.51126 0.60453 0.0
C743 C 0.5168 0.50594 0.62014 0.0
C744 C 0.53579 0.50043 0.62036 0.0
C745 C 0.54691 0.50177 0.60569 0.0
C746 C 0.50668 0.5082 0.63676 0.0
C747 C 0.50144 0.49229 0.64527 0.0
C748 C 0.50204 0.52613 0.64409 0.0
C749 C 0.50799 0.54364 0.63616 0.0
C750 C 0.5281 0.54966 0.63385 0.0
C751 C 0.53351 0.56586 0.6259 0.0
C752 C 0.51896 0.57629 0.6204 0.0
C753 C 0.49898 0.57058 0.6229 0.0
C754 C 0.49349 0.55435 0.63078 0.0
C755 C 0.48069 0.51385 0.71751 0.0
C756 C 0.46341 0.52239 0.71905 0.0
C757 C 0.48815 0.51013 0.70098 0.0
C758 C 0.4785 0.51485 0.68563 0.0
C759 C 0.46122 0.52334 0.6871 0.0
C760 C 0.4537 0.52701 0.70363 0.0
C761 C 0.48708 0.51181 0.66825 0.0
C762 C 0.49216 0.52765 0.65962 0.0
C763 C 0.49149 0.49382 0.66084 0.0
C764 C 0.48534 0.47635 0.66875 0.0
C765 C 0.46533 0.4711 0.6719 0.0
C766 C 0.45962 0.45471 0.67948 0.0
C767 C 0.47376 0.44337 0.68389 0.0
C768 C 0.49364 0.44837 0.68067 0.0
C769 C 0.49943 0.46476 0.67309 0.0
H770 H 0.46932 0.43069 0.68976 0.0
H771 H 0.52318 0.58882 0.61425 0.0
H772 H 0.7862 0.26363 0.6787 0.0
H773 H 0.78227 0.27536 0.65015 0.0
H774 H 0.80153 0.33301 0.6764 0.0
H775 H 0.80668 0.32148 0.70482 0.0
H776 H 0.76316 0.32513 0.65307 0.0
H777 H 0.83245 0.31716 0.6539 0.0
H778 H 0.86049 0.29913 0.65653 0.0
H779 H 0.83343 0.25807 0.61168 0.0
H780 H 0.80505 0.27572 0.60895 0.0
H781 H 0.7621 0.36924 0.57579 0.0
H782 H 0.77308 0.36034 0.60442 0.0
H783 H 0.77448 0.30309 0.57854 0.0
H784 H 0.76452 0.31219 0.54987 0.0
H785 H 0.80368 0.31178 0.60259 0.0
H786 H 0.73408 0.3166 0.60197 0.0
H787 H 0.70415 0.33208 0.59901 0.0
H788 H 0.72886 0.37561 0.64276 0.0
H789 H 0.75906 0.36051 0.64583 0.0
C790 C 0.79003 0.27877 0.67843 0.0
C791 C 0.79665 0.29157 0.69421 0.0
C792 C 0.78762 0.28544 0.66209 0.0
C793 C 0.79156 0.30503 0.66124 0.0
C794 C 0.7983 0.31784 0.67684 0.0
C795 C 0.80106 0.31118 0.69311 0.0
C796 C 0.78802 0.31224 0.64416 0.0
C797 C 0.77217 0.32249 0.64209 0.0
C798 C 0.79944 0.30824 0.62975 0.0
C799 C 0.81652 0.29765 0.63134 0.0
C800 C 0.83237 0.30418 0.64471 0.0
C801 C 0.84835 0.29405 0.64619 0.0
C802 C 0.84871 0.27743 0.63431 0.0
C803 C 0.83311 0.27093 0.62089 0.0
C804 C 0.81708 0.281 0.61936 0.0
C805 C 0.765 0.35483 0.57621 0.0
C806 C 0.76235 0.34138 0.56061 0.0
C807 C 0.77114 0.3497 0.5926 0.0
C808 C 0.77416 0.33089 0.59376 0.0
C809 C 0.77221 0.31767 0.57806 0.0
C810 C 0.76648 0.32289 0.56165 0.0
C811 C 0.77866 0.32471 0.61133 0.0
C812 C 0.79467 0.31457 0.61354 0.0
C813 C 0.76708 0.32846 0.62578 0.0
C814 C 0.74892 0.33754 0.624 0.0
C815 C 0.73319 0.32955 0.61088 0.0
C816 C 0.71617 0.33824 0.60919 0.0
C817 C 0.71463 0.35485 0.62065 0.0
C818 C 0.73009 0.36277 0.63387 0.0
C819 C 0.74715 0.35414 0.63559 0.0
H820 H 0.70144 0.36156 0.61933 0.0
H821 H 0.8611 0.26961 0.63548 0.0
H822 H 0.52113 0.024 0.5837 0.0
H823 H 0.53957 0.02237 0.61211 0.0
H824 H 0.54191 0.96287 0.59517 0.0
H825 H 0.52305 0.96426 0.56681 0.0
H826 H 0.53684 0.97045 0.6313 0.0
H827 H 0.57996 0.99453 0.58941 0.0
H828 H 0.59091 0.0161 0.56824 0.0
H829 H 0.59723 0.06419 0.60981 0.0
H830 H 0.58601 0.0429 0.63118 0.0
H831 H 0.64652 0.98781 0.67564 0.0
H832 H 0.62119 0.98557 0.65083 0.0
H833 H 0.57754 0.99657 0.68762 0.0
H834 H 0.60293 0.99867 0.71275 0.0
H835 H 0.60218 0.01301 0.64199 0.0
H836 H 0.5307 0.97536 0.66634 0.0
H837 H 0.52084 0.95177 0.68607 0.0
H838 H 0.57391 0.9272 0.67747 0.0
H839 H 0.58394 0.95047 0.65752 0.0
C840 C 0.52508 0.01043 0.58617 0.0
C841 C 0.52072 0.99428 0.57291 0.0
C842 C 0.53575 0.00955 0.6024 0.0
C843 C 0.54233 0.99255 0.60569 0.0
C844 C 0.53701 0.97614 0.59292 0.0
C845 C 0.52638 0.97701 0.57665 0.0
C846 C 0.55631 0.99237 0.62161 0.0
C847 C 0.55108 0.97983 0.63373 0.0
C848 C 0.57504 0.00435 0.62462 0.0
C849 C 0.58195 0.01715 0.61184 0.0
C850 C 0.58354 0.00972 0.594 0.0
C851 C 0.58982 0.02189 0.58197 0.0
C852 C 0.59471 0.04151 0.58766 0.0
C853 C 0.5934 0.04899 0.60541 0.0
C854 C 0.58709 0.03688 0.61749 0.0
C855 C 0.63151 0.98959 0.67856 0.0
C856 C 0.62685 0.99355 0.69626 0.0
C857 C 0.61703 0.98834 0.6643 0.0
C858 C 0.59746 0.99097 0.6673 0.0
C859 C 0.5925 0.99434 0.68495 0.0
C860 C 0.60705 0.99555 0.69931 0.0
C861 C 0.58275 0.99115 0.65185 0.0
C862 C 0.58786 0.00374 0.63976 0.0
C863 C 0.56411 0.97898 0.64877 0.0
C864 C 0.55816 0.96481 0.66061 0.0
C865 C 0.54023 0.96489 0.66863 0.0
C866 C 0.53462 0.95158 0.67985 0.0
C867 C 0.54678 0.93804 0.68307 0.0
C868 C 0.56454 0.93775 0.67503 0.0
C869 C 0.57021 0.95102 0.66379 0.0
H870 H 0.54241 0.92776 0.69177 0.0
H871 H 0.59957 0.05091 0.57833 0.0
H872 H 0.86145 0.19764 0.739 0.0
H873 H 0.89136 0.1951 0.75798 0.0
H874 H 0.88328 0.24555 0.79301 0.0
H875 H 0.85352 0.24819 0.77412 0.0
H876 H 0.92185 0.24579 0.78892 0.0
H877 H 0.86712 0.20085 0.80232 0.0
H878 H 0.83958 0.17381 0.79499 0.0
H879 H 0.88073 0.13706 0.77656 0.0
H880 H 0.90848 0.16397 0.78356 0.0
H881 H 0.95654 0.20619 0.87282 0.0
H882 H 0.93171 0.20637 0.84814 0.0
H883 H 0.97847 0.2198 0.81456 0.0
H884 H 0.00358 0.22 0.83938 0.0
H885 H 0.92225 0.18658 0.8158 0.0
H886 H 0.96266 0.2499 0.78682 0.0
H887 H 0.98827 0.2783 0.79635 0.0
H888 H 0.97256 0.28047 0.85011 0.0
H889 H 0.94671 0.25225 0.84085 0.0
C890 C 0.86614 0.20824 0.75071 0.0
C891 C 0.85508 0.22308 0.75509 0.0
C892 C 0.88323 0.20679 0.76152 0.0
C893 C 0.88944 0.22002 0.77703 0.0
C894 C 0.87883 0.23522 0.78107 0.0
C895 C 0.86182 0.23673 0.77024 0.0
C896 C 0.9063 0.21757 0.78963 0.0
C897 C 0.92203 0.23278 0.79467 0.0
C898 C 0.90645 0.20068 0.79732 0.0
C899 C 0.88982 0.18446 0.79328 0.0
C900 C 0.87026 0.18703 0.79659 0.0
C901 C 0.85462 0.17173 0.79251 0.0
C902 C 0.85839 0.15374 0.78527 0.0
C903 C 0.87782 0.15101 0.78214 0.0
C904 C 0.89351 0.16628 0.78617 0.0
C905 C 0.96164 0.20906 0.86018 0.0
C906 C 0.98212 0.21325 0.85818 0.0
C907 C 0.94737 0.20908 0.84603 0.0
C908 C 0.9532 0.21329 0.82955 0.0
C909 C 0.97362 0.21677 0.82724 0.0
C910 C 0.98796 0.2168 0.84144 0.0
C911 C 0.93776 0.21485 0.81518 0.0
C912 C 0.92228 0.19947 0.8098 0.0
C913 C 0.93762 0.23173 0.80748 0.0
C914 C 0.95294 0.24884 0.81317 0.0
C915 C 0.96466 0.25648 0.80066 0.0
C916 C 0.97921 0.27254 0.80601 0.0
C917 C 0.9821 0.28114 0.82383 0.0
C918 C 0.97037 0.27375 0.83632 0.0
C919 C 0.95578 0.25771 0.83103 0.0
H920 H 0.99338 0.29356 0.82795 0.0
H921 H 0.84626 0.14191 0.78211 0.0
H922 H 0.50437 0.92776 0.48916 0.0
H923 H 0.50407 0.89404 0.47793 0.0
H924 H 0.56235 0.90759 0.4601 0.0
H925 H 0.56307 0.94121 0.47171 0.0
H926 H 0.5349 0.88504 0.43394 0.0
H927 H 0.55796 0.8861 0.49555 0.0
H928 H 0.55633 0.89261 0.52803 0.0
H929 H 0.50022 0.85532 0.52285 0.0
H930 H 0.50138 0.84879 0.49029 0.0
H931 H 0.55872 0.79219 0.41196 0.0
H932 H 0.55805 0.82545 0.42399 0.0
H933 H 0.50381 0.80869 0.44761 0.0
H934 H 0.50468 0.77534 0.43607 0.0
H935 H 0.52815 0.83298 0.47079 0.0
H936 H 0.50432 0.83137 0.40991 0.0
H937 H 0.50452 0.82489 0.37726 0.0
H938 H 0.55978 0.86315 0.38056 0.0
H939 H 0.56004 0.86967 0.41327 0.0
C940 C 0.51731 0.92354 0.48319 0.0
C941 C 0.53372 0.93725 0.48129 0.0
C942 C 0.51705 0.90427 0.47669 0.0
C943 C 0.53318 0.89835 0.46815 0.0
C944 C 0.5497 0.9119 0.46652 0.0
C945 C 0.55004 0.93112 0.47313 0.0
C946 C 0.53259 0.87811 0.46041 0.0
C947 C 0.53368 0.87365 0.442 0.0
C948 C 0.53035 0.86325 0.47088 0.0
C949 C 0.52966 0.86712 0.49046 0.0
C950 C 0.54519 0.87942 0.50132 0.0
C951 C 0.54437 0.88309 0.51975 0.0
C952 C 0.52815 0.87443 0.52749 0.0
C953 C 0.51275 0.86204 0.51683 0.0
C954 C 0.5135 0.85834 0.49839 0.0
C955 C 0.54654 0.79557 0.41958 0.0
C956 C 0.53176 0.78107 0.42304 0.0
C957 C 0.54614 0.81463 0.42642 0.0
C958 C 0.53076 0.81963 0.43658 0.0
C959 C 0.51585 0.8052 0.43985 0.0
C960 C 0.51635 0.78613 0.43318 0.0
C961 C 0.53056 0.83983 0.44425 0.0
C962 C 0.52932 0.84431 0.46266 0.0
C963 C 0.53242 0.85471 0.43374 0.0
C964 C 0.53229 0.85086 0.41406 0.0
C965 C 0.51659 0.83829 0.40369 0.0
C966 C 0.51661 0.83463 0.38517 0.0
C967 C 0.53218 0.84356 0.37685 0.0
C968 C 0.54774 0.85622 0.38703 0.0
C969 C 0.5478 0.85992 0.40556 0.0
H970 H 0.53216 0.84071 0.36251 0.0
H971 H 0.52754 0.87729 0.54176 0.0
H972 H 0.24153 0.27818 0.80481 0.0
H973 H 0.21208 0.27791 0.82134 0.0
H974 H 0.17409 0.26511 0.77186 0.0
H975 H 0.20371 0.26596 0.75523 0.0
H976 H 0.15809 0.28797 0.79612 0.0
H977 H 0.1841 0.22954 0.79446 0.0
H978 H 0.20987 0.20903 0.79777 0.0
H979 H 0.21993 0.23015 0.85381 0.0
H980 H 0.19443 0.25104 0.85078 0.0
H981 H 0.07491 0.24373 0.83879 0.0
H982 H 0.10107 0.25087 0.81911 0.0
H983 H 0.14369 0.27109 0.86499 0.0
H984 H 0.11781 0.26417 0.88466 0.0
H985 H 0.15555 0.24325 0.84048 0.0
H986 H 0.12846 0.30208 0.84095 0.0
H987 H 0.10171 0.32128 0.83647 0.0
H988 H 0.09191 0.29696 0.78115 0.0
H989 H 0.11843 0.2774 0.78536 0.0
C990 C 0.22689 0.27564 0.79748 0.0
C991 C 0.22483 0.2719 0.77879 0.0
C992 C 0.21008 0.27542 0.80691 0.0
C993 C 0.19086 0.27101 0.79785 0.0
C994 C 0.18877 0.26844 0.77913 0.0
C995 C 0.20566 0.26893 0.76965 0.0
C996 C 0.17318 0.26766 0.80798 0.0
C997 C 0.1574 0.27803 0.80566 0.0
C998 C 0.17225 0.25466 0.82043 0.0
C999 C 0.18747 0.24198 0.82236 0.0
C1000 C 0.1919 0.22991 0.80747 0.0
C1001 C 0.20645 0.21821 0.8093 0.0
C1002 C 0.21656 0.21832 0.82598 0.0
C1003 C 0.2121 0.2301 0.84089 0.0
C1004 C 0.19759 0.24186 0.83912 0.0
C1005 C 0.08979 0.24995 0.84467 0.0
C1006 C 0.0943 0.25325 0.8633 0.0
C1007 C 0.10469 0.25406 0.83342 0.0
C1008 C 0.12431 0.26147 0.84062 0.0
C1009 C 0.12866 0.26533 0.85917 0.0
C1010 C 0.1138 0.26138 0.87039 0.0
C1011 C 0.14074 0.26393 0.829 0.0
C1012 C 0.15623 0.25321 0.83094 0.0
C1013 C 0.14117 0.27634 0.81606 0.0
C1014 C 0.12527 0.28812 0.81352 0.0
C1015 C 0.12047 0.30069 0.82787 0.0
C1016 C 0.10538 0.31167 0.82537 0.0
C1017 C 0.09508 0.3103 0.80855 0.0
C1018 C 0.09988 0.29798 0.79418 0.0
C1019 C 0.11495 0.28696 0.79661 0.0
H1020 H 0.0834 0.31881 0.80664 0.0
H1021 H 0.22782 0.20925 0.82737 0.0
H1022 H 0.57865 0.56916 0.50488 0.0
H1023 H 0.57295 0.58026 0.47606 0.0
H1024 H 0.53325 0.61673 0.49882 0.0
H1025 H 0.53865 0.60554 0.52738 0.0
H1026 H 0.51953 0.6006 0.46473 0.0
H1027 H 0.58212 0.63366 0.4974 0.0
H1028 H 0.61594 0.63497 0.51211 0.0
H1029 H 0.63433 0.60803 0.46342 0.0
H1030 H 0.6005 0.60636 0.44849 0.0
H1031 H 0.52651 0.68719 0.43174 0.0
H1032 H 0.5259 0.65959 0.4471 0.0
H1033 H 0.56465 0.63582 0.41074 0.0
H1034 H 0.56528 0.66357 0.39512 0.0
H1035 H 0.57901 0.63773 0.44512 0.0
H1036 H 0.51788 0.6127 0.41082 0.0
H1037 H 0.48418 0.61264 0.39649 0.0
H1038 H 0.46274 0.62491 0.44781 0.0
H1039 H 0.49638 0.62534 0.46246 0.0
C1040 C 0.56843 0.57927 0.50358 0.0
C1041 C 0.55932 0.58671 0.51841 0.0
C1042 C 0.56524 0.58564 0.48716 0.0
C1043 C 0.55283 0.59948 0.48535 0.0
C1044 C 0.54288 0.60607 0.4999 0.0
C1045 C 0.54613 0.5998 0.51626 0.0
C1046 C 0.55143 0.60855 0.46902 0.0
C1047 C 0.53251 0.60868 0.46036 0.0
C1048 C 0.56844 0.61859 0.46297 0.0
C1049 C 0.58875 0.61965 0.47191 0.0
C1050 C 0.59334 0.62788 0.48988 0.0
C1051 C 0.61251 0.62871 0.49825 0.0
C1052 C 0.62726 0.62153 0.48872 0.0
C1053 C 0.62287 0.61355 0.47079 0.0
C1054 C 0.60371 0.61265 0.46237 0.0
C1055 C 0.53452 0.67594 0.42667 0.0
C1056 C 0.54596 0.67764 0.41219 0.0
C1057 C 0.5341 0.66007 0.43546 0.0
C1058 C 0.54512 0.64555 0.43001 0.0
C1059 C 0.55596 0.64682 0.41512 0.0
C1060 C 0.55626 0.66267 0.40619 0.0
C1061 C 0.547 0.6304 0.44122 0.0
C1062 C 0.56603 0.62917 0.44899 0.0
C1063 C 0.53006 0.61941 0.44646 0.0
C1064 C 0.50973 0.61913 0.43775 0.0
C1065 C 0.50602 0.61552 0.41906 0.0
C1066 C 0.48691 0.6154 0.41087 0.0
C1067 C 0.47133 0.61879 0.42123 0.0
C1068 C 0.47482 0.62228 0.4398 0.0
C1069 C 0.49391 0.62243 0.44806 0.0
H1070 H 0.45655 0.61869 0.41487 0.0
H1071 H 0.64209 0.62219 0.49522 0.0
H1072 H 0.88036 0.7687 0.79127 0.0
H1073 H 0.90218 0.76625 0.76715 0.0
H1074 H 0.85828 0.78443 0.7322 0.0
H1075 H 0.83635 0.78687 0.75629 0.0
H1076 H 0.87409 0.75296 0.71634 0.0
H1077 H 0.89776 0.81528 0.74955 0.0
H1078 H 0.91034 0.83827 0.77658 0.0
H1079 H 0.9612 0.80997 0.78373 0.0
H1080 H 0.94876 0.78662 0.75687 0.0
H1081 H 0.9314 0.77187 0.64599 0.0
H1082 H 0.9112 0.77573 0.67101 0.0
H1083 H 0.95891 0.76367 0.70617 0.0
H1084 H 0.97946 0.76015 0.68117 0.0
H1085 H 0.94157 0.79152 0.72246 0.0
H1086 H 0.91874 0.72934 0.68994 0.0
H1087 H 0.90643 0.70539 0.6635 0.0
H1088 H 0.85444 0.73196 0.65577 0.0
H1089 H 0.86657 0.75625 0.68203 0.0
C1090 C 0.87529 0.77202 0.7784 0.0
C1091 C 0.85662 0.77797 0.77567 0.0
C1092 C 0.88783 0.77075 0.76467 0.0
C1093 C 0.88193 0.7753 0.74791 0.0
C1094 C 0.86315 0.7809 0.74504 0.0
C1095 C 0.85069 0.78237 0.75883 0.0
C1096 C 0.89532 0.7742 0.73336 0.0
C1097 C 0.88874 0.76158 0.71757 0.0
C1098 C 0.91468 0.78501 0.73519 0.0
C1099 C 0.92222 0.79908 0.75131 0.0
C1100 C 0.91154 0.81385 0.75697 0.0
C1101 C 0.91866 0.82697 0.77225 0.0
C1102 C 0.93653 0.82555 0.7819 0.0
C1103 C 0.94734 0.81104 0.77626 0.0
C1104 C 0.94027 0.79786 0.761 0.0
C1105 C 0.93771 0.77018 0.65906 0.0
C1106 C 0.95702 0.76554 0.66152 0.0
C1107 C 0.92607 0.7723 0.67336 0.0
C1108 C 0.93334 0.7696 0.69044 0.0
C1109 C 0.95292 0.76572 0.69311 0.0
C1110 C 0.96465 0.7637 0.67879 0.0
C1111 C 0.92029 0.77037 0.70532 0.0
C1112 C 0.92693 0.78289 0.72119 0.0
C1113 C 0.90103 0.75931 0.70365 0.0
C1114 C 0.89366 0.74472 0.68785 0.0
C1115 C 0.90475 0.73017 0.68252 0.0
C1116 C 0.8978 0.71652 0.66758 0.0
C1117 C 0.87969 0.71719 0.65793 0.0
C1118 C 0.86847 0.73148 0.66324 0.0
C1119 C 0.87538 0.74518 0.67816 0.0
H1120 H 0.87433 0.7066 0.64637 0.0
H1121 H 0.94202 0.83573 0.79372 0.0
H1122 H 0.04709 0.9204 0.51976 0.0
H1123 H 0.03957 0.90237 0.54431 0.0
H1124 H 0.09393 0.87854 0.53918 0.0
H1125 H 0.10131 0.89629 0.51467 0.0
H1126 H 0.06219 0.85134 0.53601 0.0
H1127 H 0.08734 0.9092 0.57623 0.0
H1128 H 0.08906 0.94309 0.58868 0.0
H1129 H 0.02815 0.9324 0.60059 0.0
H1130 H 0.02598 0.89848 0.58797 0.0
H1131 H 0.06599 0.7955 0.60152 0.0
H1132 H 0.07453 0.82463 0.58872 0.0
H1133 H 0.01514 0.83761 0.59395 0.0
H1134 H 0.00654 0.80842 0.60719 0.0
H1135 H 0.04638 0.87124 0.59776 0.0
H1136 H 0.02096 0.81392 0.55709 0.0
H1137 H 0.01903 0.77994 0.54487 0.0
H1138 H 0.08009 0.79006 0.53325 0.0
H1139 H 0.08247 0.82407 0.5457 0.0
C1140 C 0.05769 0.91175 0.52428 0.0
C1141 C 0.07469 0.90958 0.51524 0.0
C1142 C 0.05338 0.90144 0.53828 0.0
C1143 C 0.06612 0.88898 0.54353 0.0
C1144 C 0.0838 0.88793 0.5353 0.0
C1145 C 0.08803 0.89809 0.52131 0.0
C1146 C 0.06012 0.87528 0.55591 0.0
C1147 C 0.059 0.85579 0.54958 0.0
C1148 C 0.05515 0.88096 0.57339 0.0
C1149 C 0.05643 0.90134 0.58097 0.0
C1150 C 0.07425 0.91411 0.58135 0.0
C1151 C 0.07532 0.93332 0.58847 0.0
C1152 C 0.0587 0.93991 0.59537 0.0
C1153 C 0.041 0.92729 0.59521 0.0
C1154 C 0.03985 0.90806 0.58809 0.0
C1155 C 0.05492 0.80486 0.60049 0.0
C1156 C 0.03552 0.79958 0.60514 0.0
C1157 C 0.05983 0.82152 0.59318 0.0
C1158 C 0.04536 0.83309 0.59006 0.0
C1159 C 0.02651 0.82886 0.59623 0.0
C1160 C 0.02163 0.81219 0.60379 0.0
C1161 C 0.04913 0.8475 0.57792 0.0
C1162 C 0.0496 0.86694 0.58418 0.0
C1163 C 0.05342 0.84188 0.56024 0.0
C1164 C 0.05194 0.8215 0.55247 0.0
C1165 C 0.03401 0.80887 0.55204 0.0
C1166 C 0.03284 0.78961 0.54507 0.0
C1167 C 0.04944 0.78284 0.53833 0.0
C1168 C 0.06724 0.79533 0.5385 0.0
C1169 C 0.06851 0.8146 0.5455 0.0
H1170 H 0.0485 0.76792 0.53294 0.0
H1171 H 0.05956 0.95478 0.60089 0.0
H1172 H 0.19068 0.7277 0.75505 0.0
H1173 H 0.15813 0.73549 0.74478 0.0
H1174 H 0.15061 0.68753 0.70255 0.0
H1175 H 0.18287 0.67971 0.71278 0.0
H1176 H 0.14914 0.74586 0.71283 0.0
H1177 H 0.10219 0.67015 0.6916 0.0
H1178 H 0.09724 0.63929 0.70277 0.0
H1179 H 0.11662 0.66753 0.75601 0.0
H1180 H 0.12141 0.69859 0.74523 0.0
H1181 H 0.0846 0.73662 0.6356 0.0
H1182 H 0.10864 0.73271 0.65962 0.0
H1183 H 0.0622 0.72886 0.69509 0.0
H1184 H 0.0378 0.73287 0.67095 0.0
H1185 H 0.08618 0.70038 0.69632 0.0
H1186 H 0.0949 0.76777 0.70209 0.0
H1187 H 0.09932 0.79921 0.69199 0.0
H1188 H 0.15504 0.78897 0.67262 0.0
H1189 H 0.15083 0.75735 0.68235 0.0
C1190 C 0.1818 0.71859 0.74385 0.0
C1191 C 0.1893 0.70316 0.73464 0.0
C1192 C 0.16329 0.72309 0.73795 0.0
C1193 C 0.15187 0.71204 0.72295 0.0
C1194 C 0.15899 0.69612 0.71429 0.0
C1195 C 0.17749 0.69173 0.72007 0.0
C1196 C 0.13358 0.71805 0.71506 0.0
C1197 C 0.13529 0.73601 0.70944 0.0
C1198 C 0.11534 0.70536 0.71094 0.0
C1199 C 0.11225 0.68672 0.71756 0.0
C1200 C 0.10527 0.66981 0.70571 0.0
C1201 C 0.10252 0.65226 0.71197 0.0
C1202 C 0.10665 0.65144 0.73008 0.0
C1203 C 0.11349 0.66817 0.74198 0.0
C1204 C 0.11625 0.68575 0.73579 0.0
C1205 C 0.07941 0.73501 0.6485 0.0
C1206 C 0.05922 0.73505 0.65132 0.0
C1207 C 0.09324 0.73288 0.66226 0.0
C1208 C 0.08726 0.73067 0.67919 0.0
C1209 C 0.06713 0.73063 0.68213 0.0
C1210 C 0.05324 0.73298 0.66835 0.0
C1211 C 0.10218 0.72776 0.69341 0.0
C1212 C 0.09986 0.71039 0.70012 0.0
C1213 C 0.1198 0.74106 0.69871 0.0
C1214 C 0.12249 0.76013 0.6929 0.0
C1215 C 0.10804 0.77217 0.69557 0.0
C1216 C 0.11052 0.79003 0.68992 0.0
C1217 C 0.12744 0.79608 0.68165 0.0
C1218 C 0.14194 0.78428 0.67903 0.0
C1219 C 0.13953 0.76639 0.68464 0.0
H1220 H 0.12933 0.80991 0.67728 0.0
H1221 H 0.10452 0.63785 0.7349 0.0
H1222 H 0.93726 0.55503 0.50227 0.0
H1223 H 0.94646 0.58259 0.5252 0.0
H1224 H 1.00075 0.59834 0.50133 0.0
H1225 H 0.99235 0.56974 0.47889 0.0
H1226 H 0.0081 0.60548 0.53612 0.0
H1227 H 0.95881 0.62039 0.4948 0.0
H1228 H 0.92688 0.61573 0.476 0.0
H1229 H 0.89493 0.61577 0.52255 0.0
H1230 H 0.92668 0.62017 0.54163 0.0
H1231 H 0.01886 0.70416 0.57647 0.0
H1232 H 0.01465 0.67428 0.55584 0.0
H1233 H 0.96736 0.65049 0.58461 0.0
H1234 H 0.97174 0.68025 0.6056 0.0
H1235 H 0.95757 0.64815 0.54699 0.0
H1236 H 0.0089 0.63407 0.58805 0.0
H1237 H 0.04171 0.64039 0.60562 0.0
H1238 H 0.07092 0.64119 0.55759 0.0
H1239 H 0.03825 0.63516 0.53973 0.0
C1240 C 0.95144 0.56398 0.50203 0.0
C1241 C 0.96408 0.55995 0.48863 0.0
C1242 C 0.95652 0.58002 0.51507 0.0
C1243 C 0.97409 0.59285 0.51482 0.0
C1244 C 0.98703 0.58874 0.50175 0.0
C1245 C 0.98209 0.57246 0.4888 0.0
C1246 C 0.97859 0.61068 0.52801 0.0
C1247 C 0.99714 0.61493 0.5383 0.0
C1248 C 0.96427 0.62301 0.53105 0.0
C1249 C 0.94513 0.62044 0.51963 0.0
C1250 C 0.94497 0.61927 0.50102 0.0
C1251 C 0.92691 0.61669 0.49031 0.0
C1252 C 0.90889 0.61541 0.49807 0.0
C1253 C 0.9089 0.61675 0.51656 0.0
C1254 C 0.92693 0.6193 0.52733 0.0
C1255 C 0.00781 0.69251 0.57866 0.0
C1256 C 0.99568 0.69462 0.59276 0.0
C1257 C 0.00543 0.67541 0.56682 0.0
C1258 C 0.99072 0.66017 0.56871 0.0
C1259 C 0.97882 0.66209 0.58294 0.0
C1260 C 0.9814 0.67908 0.59496 0.0
C1261 C 0.98688 0.64272 0.5552 0.0
C1262 C 0.96849 0.63864 0.54478 0.0
C1263 C 1.00147 0.63081 0.55185 0.0
C1264 C 0.02112 0.63436 0.56256 0.0
C1265 C 0.02231 0.63577 0.58124 0.0
C1266 C 0.04088 0.63926 0.59125 0.0
C1267 C 0.05839 0.64124 0.58273 0.0
C1268 C 0.05735 0.63968 0.56417 0.0
C1269 C 0.03881 0.63621 0.5541 0.0
H1270 H 0.07275 0.64394 0.59051 0.0
H1271 H 0.89491 0.61341 0.48976 0.0
H1272 H 0.81081 0.8325 0.24588 0.0
H1273 H 0.83035 0.86438 0.25102 0.0
H1274 H 0.80379 0.87601 0.20123 0.0
H1275 H 0.78398 0.84407 0.19604 0.0
H1276 H 0.84323 0.88568 0.20388 0.0
H1277 H 0.79171 0.89804 0.24064 0.0
H1278 H 0.76876 0.89261 0.26364 0.0
H1279 H 0.81854 0.89962 0.30336 0.0
H1280 H 0.84181 0.90482 0.28056 0.0
H1281 H 0.88602 0.98905 0.25245 0.0
H1282 H 0.85827 0.9625 0.24537 0.0
H1283 H 0.90005 0.92324 0.23558 0.0
H1284 H 0.92767 0.94949 0.24224 0.0
H1285 H 0.84818 0.93097 0.26016 0.0
H1286 H 0.88174 0.88839 0.20228 0.0
H1287 H 0.90396 0.89494 0.17897 0.0
H1288 H 0.88722 0.95054 0.17983 0.0
H1289 H 0.86466 0.94422 0.20293 0.0
C1290 C 0.80875 0.84196 0.2362 0.0
C1291 C 0.79576 0.83574 0.22057 0.0
C1292 C 0.81999 0.8602 0.23914 0.0
C1293 C 0.81842 0.87267 0.22659 0.0
C1294 C 0.80524 0.86663 0.2111 0.0
C1295 C 0.79398 0.84837 0.20814 0.0
C1296 C 0.83144 0.89152 0.22922 0.0
C1297 C 0.84419 0.89565 0.21613 0.0
C1298 C 0.83246 0.90472 0.24505 0.0
C1299 C 0.81852 0.9017 0.25885 0.0
C1300 C 0.79778 0.89829 0.25426 0.0
C1301 C 0.7847 0.89528 0.26726 0.0
C1302 C 0.79218 0.89574 0.28494 0.0
C1303 C 0.81276 0.89926 0.28966 0.0
C1304 C 0.8259 0.90227 0.2767 0.0
C1305 C 0.88929 0.97477 0.24875 0.0
C1306 C 0.9091 0.97146 0.2478 0.0
C1307 C 0.87341 0.95961 0.24475 0.0
C1308 C 0.87707 0.94093 0.23967 0.0
C1309 C 0.89683 0.93758 0.23908 0.0
C1310 C 0.91264 0.95265 0.24298 0.0
C1311 C 0.86039 0.92477 0.23509 0.0
C1312 C 0.847 0.92113 0.24781 0.0
C1313 C 0.85856 0.91216 0.21879 0.0
C1314 C 0.87159 0.91586 0.20444 0.0
C1315 C 0.88267 0.90196 0.1974 0.0
C1316 C 0.89536 0.90565 0.18424 0.0
C1317 C 0.89704 0.92316 0.17796 0.0
C1318 C 0.88594 0.937 0.18474 0.0
C1319 C 0.87321 0.93337 0.19787 0.0
H1320 H 0.90691 0.92601 0.16781 0.0
H1321 H 0.78204 0.89339 0.29499 0.0
H1322 H 0.764 0.1454 0.28214 0.0
H1323 H 0.78897 0.12408 0.28312 0.0
H1324 H 0.82923 0.16826 0.31772 0.0
H1325 H 0.80447 0.18978 0.31651 0.0
H1326 H 0.84742 0.15246 0.29036 0.0
H1327 H 0.80646 0.12973 0.33381 0.0
H1328 H 0.77509 0.11744 0.34546 0.0
H1329 H 0.76659 0.06823 0.30493 0.0
H1330 H 0.79778 0.08036 0.29288 0.0
H1331 H 0.92129 0.09661 0.30829 0.0
H1332 H 0.89475 0.11583 0.31289 0.0
H1333 H 0.85297 0.072 0.27939 0.0
H1334 H 0.8794 0.05246 0.27498 0.0
H1335 H 0.83553 0.08765 0.30726 0.0
H1336 H 0.87499 0.11082 0.26282 0.0
H1337 H 0.90594 0.12297 0.25044 0.0
H1338 H 0.91664 0.17129 0.292 0.0
H1339 H 0.88587 0.15928 0.30477 0.0
C1340 C 0.77815 0.15055 0.29 0.0
C1341 C 0.78225 0.1693 0.29924 0.0
C1342 C 0.79235 0.13829 0.29067 0.0
C1343 C 0.81094 0.14451 0.3006 0.0
C1344 C 0.81497 0.16313 0.31002 0.0
C1345 C 0.80074 0.17537 0.30942 0.0
C1346 C 0.82655 0.13194 0.3004 0.0
C1347 C 0.84493 0.13842 0.29436 0.0
C1348 C 0.82312 0.1134 0.30511 0.0
C1349 C 0.80437 0.10605 0.31234 0.0
C1350 C 0.79782 0.11636 0.32729 0.0
C1351 C 0.78008 0.10941 0.33398 0.0
C1352 C 0.76883 0.09209 0.32591 0.0
C1353 C 0.77531 0.08166 0.31116 0.0
C1354 C 0.79303 0.08855 0.3044 0.0
C1355 C 0.90641 0.09092 0.30205 0.0
C1356 C 0.90254 0.07306 0.29111 0.0
C1357 C 0.89125 0.10199 0.30465 0.0
C1358 C 0.87193 0.09555 0.29619 0.0
C1359 C 0.86777 0.07731 0.28598 0.0
C1360 C 0.88292 0.06617 0.28345 0.0
C1361 C 0.8564 0.10822 0.29729 0.0
C1362 C 0.83804 0.10174 0.30339 0.0
C1363 C 0.85977 0.12676 0.29254 0.0
C1364 C 0.87824 0.13404 0.28486 0.0
C1365 C 0.88402 0.12396 0.2694 0.0
C1366 C 0.90152 0.13083 0.2623 0.0
C1367 C 0.91328 0.14786 0.27046 0.0
C1368 C 0.90753 0.15808 0.28571 0.0
C1369 C 0.89006 0.15125 0.29288 0.0
H1370 H 0.92681 0.15316 0.26493 0.0
H1371 H 0.7551 0.08673 0.33112 0.0
H1372 H 0.44119 0.99342 0.99126 0.0
H1373 H 0.41556 0.9689 0.99891 0.0
H1374 H 0.37358 0.98159 0.95865 0.0
H1375 H 0.39925 0.00594 0.95077 0.0
H1376 H 0.35895 0.97863 0.99377 0.0
H1377 H 0.3916 0.94427 0.94835 0.0
H1378 H 0.42078 0.93387 0.93482 0.0
H1379 H 0.43568 0.90837 0.98088 0.0
H1380 H 0.40675 0.91888 0.99481 0.0
H1381 H 0.28359 0.89831 0.99279 0.0
H1382 H 0.30784 0.92417 0.98569 0.0
H1383 H 0.35529 0.90192 0.01284 0.0
H1384 H 0.33125 0.87561 0.01919 0.0
H1385 H 0.36709 0.91042 0.98387 0.0
H1386 H 0.33605 0.9442 0.03005 0.0
H1387 H 0.30832 0.95539 0.04543 0.0
H1388 H 0.29194 0.98275 1.00098 0.0
H1389 H 0.31942 0.97151 0.98523 0.0
C1390 C 0.42648 0.99096 0.98407 0.0
C1391 C 0.42221 0.00147 0.97037 0.0
C1392 C 0.4119 0.97697 0.98842 0.0
C1393 C 0.39271 0.97345 0.97932 0.0
C1394 C 0.3883 0.98412 0.96583 0.0
C1395 C 0.40299 0.9979 0.96126 0.0
C1396 C 0.37738 0.95838 0.98372 0.0
C1397 C 0.36053 0.96367 0.99143 0.0
C1398 C 0.37981 0.93897 0.9811 0.0
C1399 C 0.39713 0.93253 0.97269 0.0
C1400 C 0.4012 0.93659 0.95566 0.0
C1401 C 0.41768 0.93065 0.94791 0.0
C1402 C 0.43011 0.92051 0.957 0.0
C1403 C 0.42606 0.91625 0.97386 0.0
C1404 C 0.40961 0.92218 0.98169 0.0
C1405 C 0.29918 0.89905 0.99738 0.0
C1406 C 0.3055 0.8849 0.00654 0.0
C1407 C 0.31305 0.91391 0.99338 0.0
C1408 C 0.33347 0.91521 0.99888 0.0
C1409 C 0.33968 0.90126 0.00836 0.0
C1410 C 0.3259 0.88623 0.01204 0.0
C1411 C 0.3485 0.93055 0.99417 0.0
C1412 C 0.36536 0.92534 0.98632 0.0
C1413 C 0.34622 0.95007 0.99696 0.0
C1414 C 0.32967 0.95684 0.00639 0.0
C1415 C 0.32644 0.95248 0.0235 0.0
C1416 C 0.31078 0.95885 0.03229 0.0
C1417 C 0.29834 0.96973 0.02417 0.0
C1418 C 0.30157 0.9743 0.00725 0.0
C1419 C 0.31719 0.96795 0.99839 0.0
H1420 H 0.28623 0.97465 0.031 0.0
H1421 H 0.44285 0.91592 0.95098 0.0
H1422 H 0.28925 0.34631 0.27816 0.0
H1423 H 0.26584 0.36298 0.26256 0.0
H1424 H 0.23588 0.37232 0.31024 0.0
H1425 H 0.25882 0.35538 0.32566 0.0
H1426 H 0.2093 0.3656 0.2811 0.0
H1427 H 0.27243 0.40601 0.30091 0.0
H1428 H 0.309 0.41474 0.30279 0.0
H1429 H 0.30609 0.41292 0.24602 0.0
H1430 H 0.26949 0.40393 0.24378 0.0
H1431 H 0.17185 0.45306 0.27432 0.0
H1432 H 0.18674 0.42571 0.28188 0.0
H1433 H 0.21486 0.42254 0.23284 0.0
H1434 H 0.20037 0.44997 0.22537 0.0
H1435 H 0.24148 0.4237 0.25968 0.0
H1436 H 0.17724 0.38716 0.24054 0.0
H1437 H 0.14067 0.379 0.23928 0.0
H1438 H 0.14524 0.37405 0.29496 0.0
H1439 H 0.18184 0.38243 0.29661 0.0
C1440 C 0.27738 0.35153 0.28515 0.0
C1441 C 0.27607 0.34981 0.30321 0.0
C1442 C 0.26408 0.36116 0.27628 0.0
C1443 C 0.2493 0.36921 0.28533 0.0
C1444 C 0.24718 0.36634 0.30299 0.0
C1445 C 0.26043 0.35678 0.31183 0.0
C1446 C 0.23721 0.38209 0.27714 0.0
C1447 C 0.2163 0.37834 0.27645 0.0
C1448 C 0.24631 0.39858 0.27082 0.0
C1449 C 0.26827 0.40408 0.27216 0.0
C1450 C 0.27961 0.40734 0.28881 0.0
C1451 C 0.30033 0.41235 0.28995 0.0
C1452 C 0.30987 0.41433 0.27452 0.0
C1453 C 0.29869 0.41135 0.25794 0.0
C1454 C 0.27796 0.4063 0.25674 0.0
C1455 C 0.1808 0.44625 0.26494 0.0
C1456 C 0.18505 0.45384 0.24932 0.0
C1457 C 0.18931 0.43057 0.26927 0.0
C1458 C 0.202 0.42204 0.25794 0.0
C1459 C 0.20526 0.42893 0.24186 0.0
C1460 C 0.19691 0.44462 0.23759 0.0
C1461 C 0.21346 0.40729 0.2636 0.0
C1462 C 0.23435 0.41079 0.26398 0.0
C1463 C 0.2043 0.39065 0.26966 0.0
C1464 C 0.18229 0.38559 0.26873 0.0
C1465 C 0.17045 0.38448 0.25255 0.0
C1466 C 0.14971 0.37979 0.25176 0.0
C1467 C 0.14064 0.37605 0.26704 0.0
C1468 C 0.15229 0.37696 0.28314 0.0
C1469 C 0.17303 0.38166 0.284 0.0
H1470 H 0.12458 0.37242 0.2664 0.0
H1471 H 0.32591 0.41821 0.27543 0.0
H1472 H 0.13392 0.98922 0.48248 0.0
H1473 H 0.16371 0.01347 0.48826 0.0
H1474 H 0.12676 0.05753 0.49533 0.0
H1475 H 0.09687 0.03331 0.48969 0.0
H1476 H 0.15368 0.06475 0.47207 0.0
H1477 H 0.15488 0.04654 0.53056 0.0
H1478 H 0.15486 0.02412 0.55238 0.0
H1479 H 0.2091 0.00743 0.53473 0.0
H1480 H 0.2093 0.02958 0.51262 0.0
H1481 H 0.22667 0.14445 0.50289 0.0
H1482 H 0.19876 0.11862 0.50063 0.0
H1483 H 0.23903 0.0774 0.49451 0.0
H1484 H 0.26731 0.10332 0.49707 0.0
H1485 H 0.21137 0.06773 0.5168 0.0
H1486 H 0.2106 0.08558 0.4586 0.0
H1487 H 0.2109 0.10755 0.43636 0.0
H1488 H 0.15608 0.12409 0.45271 0.0
H1489 H 0.15559 0.10241 0.47524 0.0
C1490 C 0.13212 0.00403 0.48574 0.0
C1491 C 0.11298 0.00932 0.48562 0.0
C1492 C 0.14919 0.0179 0.48898 0.0
C1493 C 0.14749 0.03734 0.49225 0.0
C1494 C 0.12844 0.04262 0.49275 0.0
C1495 C 0.11137 0.02877 0.48952 0.0
C1496 C 0.16545 0.05222 0.49394 0.0
C1497 C 0.16616 0.06556 0.48204 0.0
C1498 C 0.18206 0.05287 0.5065 0.0
C1499 C 0.18199 0.03958 0.51981 0.0
C1500 C 0.16671 0.03798 0.53123 0.0
C1501 C 0.16669 0.02534 0.54367 0.0
C1502 C 0.18194 0.01432 0.54491 0.0
C1503 C 0.19728 0.01596 0.53374 0.0
C1504 C 0.19737 0.02856 0.52126 0.0
C1505 C 0.2297 0.12992 0.50102 0.0
C1506 C 0.24931 0.12601 0.50003 0.0
C1507 C 0.21365 0.11513 0.4997 0.0
C1508 C 0.21673 0.09605 0.49714 0.0
C1509 C 0.23629 0.09203 0.49642 0.0
C1510 C 0.25243 0.10686 0.49782 0.0
C1511 C 0.19943 0.08041 0.4951 0.0
C1512 C 0.19888 0.0669 0.50685 0.0
C1513 C 0.18297 0.07949 0.48232 0.0
C1514 C 0.18316 0.09249 0.46872 0.0
C1515 C 0.19868 0.09401 0.45755 0.0
C1516 C 0.19888 0.10639 0.44487 0.0
C1517 C 0.18355 0.11724 0.44315 0.0
C1518 C 0.16796 0.11569 0.45407 0.0
C1519 C 0.1677 0.10334 0.46679 0.0
H1520 H 0.18372 0.12682 0.43333 0.0
H1521 H 0.18189 0.00454 0.55455 0.0
H1522 H 0.80733 0.17088 0.71877 0.0
H1523 H 0.78276 0.14217 0.71765 0.0
H1524 H 0.73906 0.17686 0.73513 0.0
H1525 H 0.76371 0.20554 0.73689 0.0
H1526 H 0.74093 0.14928 0.7547 0.0
H1527 H 0.73519 0.15275 0.6923 0.0
H1528 H 0.74713 0.15536 0.66282 0.0
H1529 H 0.7711 0.10318 0.66324 0.0
H1530 H 0.75955 0.10038 0.69286 0.0
H1531 H 0.66275 0.07177 0.74822 0.0
H1532 H 0.682 0.10111 0.74169 0.0
H1533 H 0.72908 0.07007 0.72557 0.0
H1534 H 0.70986 0.04066 0.73188 0.0
H1535 H 0.72353 0.09647 0.70401 0.0
H1536 H 0.73206 0.09459 0.76713 0.0
H1537 H 0.72073 0.09187 0.79682 0.0
H1538 H 0.69213 0.1413 0.79503 0.0
H1539 H 0.70308 0.14415 0.7652 0.0
C1540 C 0.79244 0.1724 0.72224 0.0
C1541 C 0.78751 0.19052 0.72794 0.0
C1542 C 0.77834 0.15598 0.72144 0.0
C1543 C 0.759 0.15735 0.7262 0.0
C1544 C 0.75387 0.17545 0.73135 0.0
C1545 C 0.76795 0.19186 0.73219 0.0
C1546 C 0.74465 0.1399 0.72717 0.0
C1547 C 0.73683 0.13791 0.74348 0.0
C1548 C 0.73969 0.12483 0.71271 0.0
C1549 C 0.74665 0.12645 0.69488 0.0
C1550 C 0.74315 0.14191 0.68618 0.0
C1551 C 0.74982 0.1434 0.66943 0.0
C1552 C 0.75991 0.12947 0.66118 0.0
C1553 C 0.7633 0.11397 0.66965 0.0
C1554 C 0.75667 0.11241 0.68642 0.0
C1555 C 0.67709 0.07113 0.74307 0.0
C1556 C 0.68482 0.05389 0.74067 0.0
C1557 C 0.6881 0.08793 0.73938 0.0
C1558 C 0.70711 0.08783 0.73338 0.0
C1559 C 0.71445 0.07048 0.73019 0.0
C1560 C 0.70344 0.05367 0.73384 0.0
C1561 C 0.71988 0.10594 0.7315 0.0
C1562 C 0.72747 0.10799 0.71511 0.0
C1563 C 0.72471 0.12109 0.74589 0.0
C1564 C 0.71819 0.11945 0.76386 0.0
C1565 C 0.72322 0.10479 0.77301 0.0
C1566 C 0.71689 0.10324 0.78987 0.0
C1567 C 0.70566 0.11637 0.79779 0.0
C1568 C 0.70079 0.13112 0.78887 0.0
C1569 C 0.70707 0.13271 0.77199 0.0
H1570 H 0.70077 0.11515 0.81084 0.0
H1571 H 0.76506 0.13065 0.64821 0.0
H1572 H 0.49214 0.03964 0.51608 0.0
H1573 H 0.46646 0.05905 0.50994 0.0
H1574 H 0.42771 0.02873 0.54242 0.0
H1575 H 0.45352 0.00908 0.54858 0.0
H1576 H 0.40877 0.03275 0.50896 0.0
H1577 H 0.44848 0.07214 0.55865 0.0
H1578 H 0.47965 0.08895 0.57581 0.0
H1579 H 0.49113 0.12246 0.53403 0.0
H1580 H 0.46015 0.10564 0.51649 0.0
H1581 H 0.33902 0.09896 0.50857 0.0
H1582 H 0.3617 0.0769 0.51555 0.0
H1583 H 0.40835 0.10914 0.49173 0.0
H1584 H 0.38594 0.13154 0.48521 0.0
H1585 H 0.42214 0.10333 0.52289 0.0
H1586 H 0.38395 0.06333 0.47239 0.0
H1587 H 0.35346 0.04618 0.45434 0.0
H1588 H 0.33965 0.01371 0.49642 0.0
H1589 H 0.36994 0.03085 0.51482 0.0
C1590 C 0.47816 0.03712 0.52195 0.0
C1591 C 0.47479 0.02282 0.53278 0.0
C1592 C 0.46354 0.04827 0.51849 0.0
C1593 C 0.4452 0.04537 0.52576 0.0
C1594 C 0.44177 0.03117 0.53668 0.0
C1595 C 0.45654 0.02009 0.5403 0.0
C1596 C 0.42968 0.05714 0.52168 0.0
C1597 C 0.4115 0.04817 0.51226 0.0
C1598 C 0.43348 0.07727 0.52562 0.0
C1599 C 0.45206 0.08751 0.53619 0.0
C1600 C 0.45772 0.08299 0.55306 0.0
C1601 C 0.47535 0.09254 0.56286 0.0
C1602 C 0.48738 0.10674 0.556 0.0
C1603 C 0.48179 0.11145 0.53933 0.0
C1604 C 0.46419 0.10193 0.52945 0.0
C1605 C 0.354 0.10115 0.50451 0.0
C1606 C 0.3607 0.11706 0.49638 0.0
C1607 C 0.36696 0.08848 0.5085 0.0
C1608 C 0.38678 0.0913 0.50416 0.0
C1609 C 0.39319 0.10671 0.49533 0.0
C1610 C 0.38032 0.11947 0.49152 0.0
C1611 C 0.40126 0.07901 0.5098 0.0
C1612 C 0.41927 0.08791 0.51961 0.0
C1613 C 0.39733 0.05883 0.50609 0.0
C1614 C 0.3791 0.04852 0.49506 0.0
C1615 C 0.37432 0.05265 0.47785 0.0
C1616 C 0.35709 0.0429 0.46755 0.0
C1617 C 0.34459 0.0289 0.47425 0.0
C1618 C 0.34933 0.02458 0.49125 0.0
C1619 C 0.36654 0.03429 0.50162 0.0
H1620 H 0.33126 0.02138 0.46625 0.0
H1621 H 0.50102 0.11412 0.56361 0.0
H1622 H 0.61783 0.51813 0.55463 0.0
H1623 H 0.64152 0.49798 0.54337 0.0
H1624 H 0.5943 0.44971 0.53185 0.0
H1625 H 0.57055 0.46984 0.5435 0.0
H1626 H 0.62562 0.43925 0.54677 0.0
H1627 H 0.61481 0.47325 0.49833 0.0
H1628 H 0.61227 0.50138 0.48346 0.0
H1629 H 0.67402 0.52293 0.49991 0.0
H1630 H 0.67687 0.49506 0.51512 0.0
H1631 H 0.6862 0.38117 0.49955 0.0
H1632 H 0.65996 0.40098 0.50353 0.0
H1633 H 0.70404 0.44911 0.52677 0.0
H1634 H 0.73038 0.42936 0.52304 0.0
H1635 H 0.67271 0.45827 0.50334 0.0
H1636 H 0.68178 0.42492 0.55383 0.0
H1637 H 0.68379 0.39631 0.56812 0.0
H1638 H 0.62393 0.37284 0.54629 0.0
H1639 H 0.62169 0.40121 0.53165 0.0
C1640 C 0.61245 0.50327 0.54952 0.0
C1641 C 0.59229 0.4956 0.54983 0.0
C1642 C 0.62601 0.49175 0.54303 0.0
C1643 C 0.61968 0.47236 0.53641 0.0
C1644 C 0.59956 0.46463 0.53681 0.0
C1645 C 0.586 0.47612 0.54349 0.0
C1646 C 0.63426 0.46007 0.52975 0.0
C1647 C 0.63562 0.44327 0.53701 0.0
C1648 C 0.6476 0.46537 0.5172 0.0
C1649 C 0.646 0.48212 0.50799 0.0
C1650 C 0.62781 0.48405 0.49889 0.0
C1651 C 0.62633 0.49994 0.49038 0.0
C1652 C 0.64296 0.51395 0.49077 0.0
C1653 C 0.66114 0.51207 0.49964 0.0
C1654 C 0.66271 0.49622 0.50818 0.0
C1655 C 0.69039 0.39607 0.50516 0.0
C1656 C 0.71039 0.40365 0.51111 0.0
C1657 C 0.67535 0.40735 0.50749 0.0
C1658 C 0.68005 0.42644 0.51563 0.0
C1659 C 0.70011 0.43439 0.52049 0.0
C1660 C 0.71513 0.42307 0.51837 0.0
C1661 C 0.66402 0.43766 0.52046 0.0
C1662 C 0.66247 0.45423 0.51292 0.0
C1663 C 0.65036 0.43208 0.5326 0.0
C1664 C 0.65166 0.41507 0.54147 0.0
C1665 C 0.66912 0.41358 0.55195 0.0
C1666 C 0.67028 0.39743 0.56014 0.0
C1667 C 0.65402 0.38274 0.55807 0.0
C1668 C 0.63653 0.38421 0.54785 0.0
C1669 C 0.6353 0.40032 0.53961 0.0
H1670 H 0.65495 0.37024 0.56442 0.0
H1671 H 0.64178 0.52625 0.48418 0.0
H1672 H 0.74614 0.19988 0.34454 0.0
H1673 H 0.74205 0.22147 0.37117 0.0
H1674 H 0.74128 0.26754 0.34027 0.0
H1675 H 0.74661 0.24622 0.31367 0.0
H1676 H 0.76352 0.28001 0.36991 0.0
H1677 H 0.69801 0.24572 0.3561 0.0
H1678 H 0.67173 0.21768 0.34808 0.0
H1679 H 0.68799 0.19758 0.39691 0.0
H1680 H 0.71456 0.22536 0.40511 0.0
H1681 H 0.73699 0.33555 0.44956 0.0
H1682 H 0.73278 0.31854 0.41877 0.0
H1683 H 0.74918 0.2685 0.43792 0.0
H1684 H 0.7538 0.28536 0.46839 0.0
H1685 H 0.7144 0.26172 0.41192 0.0
H1686 H 0.78319 0.29453 0.42251 0.0
H1687 H 0.80861 0.32331 0.43031 0.0
H1688 H 0.78389 0.34733 0.38661 0.0
H1689 H 0.75813 0.31878 0.37873 0.0
C1690 C 0.74524 0.21463 0.34337 0.0
C1691 C 0.74676 0.22126 0.3269 0.0
C1692 C 0.7426 0.22693 0.35861 0.0
C1693 C 0.74099 0.24611 0.35773 0.0
C1694 C 0.74235 0.25279 0.34129 0.0
C1695 C 0.7452 0.2405 0.32604 0.0
C1696 C 0.73876 0.25924 0.37417 0.0
C1697 C 0.75245 0.27618 0.37887 0.0
C1698 C 0.7244 0.25432 0.38599 0.0
C1699 C 0.70837 0.23759 0.38117 0.0
C1700 C 0.69607 0.23526 0.36508 0.0
C1701 C 0.68111 0.21942 0.3605 0.0
C1702 C 0.67821 0.20584 0.37196 0.0
C1703 C 0.69025 0.2081 0.38804 0.0
C1704 C 0.70525 0.22392 0.39267 0.0
C1705 C 0.73952 0.32088 0.44716 0.0
C1706 C 0.74584 0.31182 0.46135 0.0
C1707 C 0.73716 0.31122 0.42962 0.0
C1708 C 0.74069 0.29228 0.42613 0.0
C1709 C 0.74634 0.28308 0.44035 0.0
C1710 C 0.74908 0.29279 0.45774 0.0
C1711 C 0.73942 0.28203 0.4077 0.0
C1712 C 0.72511 0.26566 0.40269 0.0
C1713 C 0.75301 0.28759 0.39552 0.0
C1714 C 0.76859 0.30465 0.40018 0.0
C1715 C 0.78307 0.30603 0.41467 0.0
C1716 C 0.79756 0.32228 0.41909 0.0
C1717 C 0.79782 0.33717 0.409 0.0
C1718 C 0.78364 0.33581 0.39444 0.0
C1719 C 0.76909 0.3196 0.38999 0.0
H1720 H 0.80905 0.34974 0.41244 0.0
H1721 H 0.66662 0.19358 0.3684 0.0
H1722 H 0.49511 0.05388 0.87599 0.0
H1723 H 0.52237 0.04697 0.85823 0.0
H1724 H 0.52715 0.9971 0.88317 0.0
H1725 H 0.49954 0.00382 0.90083 0.0
H1726 H 0.56068 0.04375 0.86567 0.0
H1727 H 0.53807 0.96205 0.85077 0.0
H1728 H 0.50798 0.93787 0.84905 0.0
H1729 H 0.47116 0.97884 0.83599 0.0
H1730 H 0.50103 0.00316 0.8374 0.0
H1731 H 0.63714 0.00488 0.82302 0.0
H1732 H 0.61107 0.00852 0.84297 0.0
H1733 H 0.5669 0.99957 0.79775 0.0
H1734 H 0.59298 0.99576 0.77757 0.0
H1735 H 0.55298 0.982 0.82531 0.0
H1736 H 0.58507 0.04399 0.81714 0.0
H1737 H 0.61369 0.0693 0.81693 0.0
H1738 H 0.6288 0.06992 0.87282 0.0
H1739 H 0.60042 0.04442 0.8733 0.0
C1740 C 0.50205 0.0415 0.87778 0.0
C1741 C 0.49507 0.02931 0.8897 0.0
C1742 C 0.5177 0.03762 0.86768 0.0
C1743 C 0.52665 0.02137 0.86917 0.0
C1744 C 0.5203 0.00958 0.88162 0.0
C1745 C 0.50466 0.01353 0.89183 0.0
C1746 C 0.54208 0.01657 0.85717 0.0
C1747 C 0.55905 0.03018 0.85696 0.0
C1748 C 0.53982 0.99903 0.84552 0.0
C1749 C 0.52177 0.98446 0.8444 0.0
C1750 C 0.52355 0.96587 0.84748 0.0
C1751 C 0.50654 0.95215 0.84656 0.0
C1752 C 0.48767 0.95684 0.84248 0.0
C1753 C 0.48578 0.97524 0.83923 0.0
C1754 C 0.50274 0.989 0.8401 0.0
C1755 C 0.62186 0.00345 0.81726 0.0
C1756 C 0.61719 1.00021 0.79865 0.0
C1757 C 0.60697 0.00559 0.82872 0.0
C1758 C 0.58707 0.00463 0.82187 0.0
C1759 C 0.58217 1.00043 0.80334 0.0
C1760 C 0.5971 0.99828 0.79182 0.0
C1761 C 0.57166 0.00909 0.834 0.0
C1762 C 0.55471 0.99546 0.8342 0.0
C1763 C 0.57374 0.02676 0.84544 0.0
C1764 C 0.59074 0.04217 0.84521 0.0
C1765 C 0.59459 0.04943 0.82936 0.0
C1766 C 0.61075 0.06382 0.82919 0.0
C1767 C 0.62308 0.07118 0.84485 0.0
C1768 C 0.61925 0.06419 0.8607 0.0
C1769 C 0.60312 0.04978 0.86093 0.0
H1770 H 0.63559 0.08232 0.84469 0.0
H1771 H 0.47452 0.9462 0.84179 0.0
H1772 H 0.33312 0.27768 0.3567 0.0
H1773 H 0.33043 0.2554 0.37818 0.0
H1774 H 0.31755 0.20814 0.33521 0.0
H1775 H 0.31975 0.23055 0.31349 0.0
H1776 H 0.29247 0.20367 0.36051 0.0
H1777 H 0.3625 0.21661 0.3594 0.0
H1778 H 0.39545 0.23626 0.35994 0.0
H1779 H 0.39012 0.26327 0.41297 0.0
H1780 H 0.357 0.24398 0.41266 0.0
H1781 H 0.33002 0.16306 0.44695 0.0
H1782 H 0.33561 0.17272 0.41781 0.0
H1783 H 0.28411 0.2014 0.41992 0.0
H1784 H 0.2783 0.19167 0.44869 0.0
H1785 H 0.34465 0.20793 0.41066 0.0
H1786 H 0.26268 0.20262 0.37936 0.0
H1787 H 0.23063 0.1812 0.37779 0.0
H1788 H 0.26166 0.13494 0.38732 0.0
H1789 H 0.29391 0.15598 0.38869 0.0
C1790 C 0.32961 0.26255 0.35177 0.0
C1791 C 0.32651 0.2559 0.33336 0.0
C1792 C 0.3283 0.2498 0.36409 0.0
C1793 C 0.32401 0.23005 0.35834 0.0
C1794 C 0.32096 0.22331 0.33996 0.0
C1795 C 0.32234 0.23611 0.32757 0.0
C1796 C 0.32204 0.21672 0.37169 0.0
C1797 C 0.30393 0.20447 0.3714 0.0
C1798 C 0.33721 0.21732 0.38564 0.0
C1799 C 0.3572 0.2289 0.38597 0.0
C1800 C 0.36829 0.22683 0.37114 0.0
C1801 C 0.38701 0.23789 0.37141 0.0
C1802 C 0.39486 0.25102 0.38647 0.0
C1803 C 0.38402 0.25309 0.40131 0.0
C1804 C 0.36528 0.24207 0.40111 0.0
C1805 C 0.31965 0.17108 0.44102 0.0
C1806 C 0.30375 0.17664 0.45023 0.0
C1807 C 0.32292 0.17667 0.4244 0.0
C1808 C 0.31022 0.18771 0.41658 0.0
C1809 C 0.29395 0.19264 0.42548 0.0
C1810 C 0.29072 0.18714 0.44205 0.0
C1811 C 0.31471 0.19554 0.39993 0.0
C1812 C 0.3333 0.20682 0.39962 0.0
C1813 C 0.3001 0.19377 0.38528 0.0
C1814 C 0.28074 0.18094 0.38423 0.0
C1815 C 0.26269 0.18785 0.38101 0.0
C1816 C 0.24447 0.17578 0.38018 0.0
C1817 C 0.24411 0.15673 0.38249 0.0
C1818 C 0.26196 0.14971 0.38559 0.0
C1819 C 0.28021 0.16171 0.38642 0.0
H1820 H 0.22999 0.14742 0.38186 0.0
H1821 H 0.40936 0.25957 0.38666 0.0
H1822 H 0.54793 0.51484 0.95788 0.0
H1823 H 0.52802 0.52096 0.93164 0.0
H1824 H 0.53244 0.46496 0.9046 0.0
H1825 H 0.55244 0.45886 0.93057 0.0
H1826 H 0.54304 0.49346 0.88471 0.0
H1827 H 0.48931 0.47414 0.91966 0.0
H1828 H 0.47083 0.47612 0.94633 0.0
H1829 H 0.46323 0.53357 0.94097 0.0
H1830 H 0.48193 0.53202 0.91438 0.0
H1831 H 0.47842 0.47991 0.80815 0.0
H1832 H 0.49241 0.47692 0.83782 0.0
H1833 H 0.47982 0.53279 0.85794 0.0
H1834 H 0.46521 0.53571 0.82808 0.0
H1835 H 0.47395 0.50828 0.88242 0.0
H1836 H 0.52603 0.52793 0.8474 0.0
H1837 H 0.54497 0.52711 0.821 0.0
H1838 H 0.55688 0.47103 0.82716 0.0
H1839 H 0.53775 0.4714 0.85345 0.0
C1840 C 0.5445 0.5038 0.94638 0.0
C1841 C 0.5517 0.48634 0.94633 0.0
C1842 C 0.53305 0.50727 0.93145 0.0
C1843 C 0.52869 0.49338 0.91619 0.0
C1844 C 0.53558 0.47586 0.91625 0.0
C1845 C 0.54688 0.47233 0.93117 0.0
C1846 C 0.51799 0.49737 0.89972 0.0
C1847 C 0.52785 0.4965 0.88418 0.0
C1848 C 0.49848 0.50211 0.89921 0.0
C1849 C 0.48721 0.50303 0.91515 0.0
C1850 C 0.48386 0.48726 0.92426 0.0
C1851 C 0.47331 0.48829 0.93934 0.0
C1852 C 0.46591 0.50498 0.94537 0.0
C1853 C 0.469 0.52066 0.9363 0.0
C1854 C 0.47956 0.51971 0.92122 0.0
C1855 C 0.47839 0.49151 0.8189 0.0
C1856 C 0.47096 0.50818 0.8157 0.0
C1857 C 0.48644 0.48979 0.83587 0.0
C1858 C 0.48764 0.50483 0.85001 0.0
C1859 C 0.47918 0.52107 0.84718 0.0
C1860 C 0.47084 0.52272 0.83013 0.0
C1861 C 0.49883 0.50378 0.86731 0.0
C1862 C 0.48916 0.50534 0.88299 0.0
C1863 C 0.51867 0.49988 0.86807 0.0
C1864 C 0.53032 0.49964 0.85233 0.0
C1865 C 0.53257 0.51537 0.84306 0.0
C1866 C 0.54336 0.51499 0.82812 0.0
C1867 C 0.55209 0.49901 0.82239 0.0
C1868 C 0.55009 0.48339 0.83161 0.0
C1869 C 0.5393 0.48369 0.84654 0.0
H1870 H 0.56043 0.49875 0.81082 0.0
H1871 H 0.45774 0.50576 0.95705 0.0
H1872 H 0.78653 0.75003 0.18988 0.0
H1873 H 0.78933 0.73132 0.16116 0.0
H1874 H 0.77219 0.77648 0.13424 0.0
H1875 H 0.76871 0.79516 0.16306 0.0
H1876 H 0.75408 0.7411 0.11736 0.0
H1877 H 0.82024 0.77165 0.13948 0.0
H1878 H 0.84963 0.78117 0.16155 0.0
H1879 H 0.85518 0.72235 0.1622 0.0
H1880 H 0.82563 0.71246 0.14031 0.0
H1881 H 0.7906 0.70733 0.03465 0.0
H1882 H 0.78306 0.72606 0.06199 0.0
H1883 H 0.80134 0.68399 0.09249 0.0
H1884 H 0.80909 0.6653 0.06528 0.0
H1885 H 0.8187 0.71914 0.10693 0.0
H1886 H 0.75221 0.68856 0.085 0.0
H1887 H 0.72287 0.67912 0.06286 0.0
H1888 H 0.71808 0.73801 0.0616 0.0
H1889 H 0.74758 0.74781 0.08355 0.0
C1890 C 0.78302 0.75589 0.17787 0.0
C1891 C 0.77736 0.77409 0.17877 0.0
C1892 C 0.78482 0.74524 0.16145 0.0
C1893 C 0.7812 0.7526 0.14557 0.0
C1894 C 0.77511 0.77057 0.14635 0.0
C1895 C 0.77329 0.78127 0.16281 0.0
C1896 C 0.78432 0.74165 0.12827 0.0
C1897 C 0.76828 0.73651 0.11495 0.0
C1898 C 0.80276 0.73542 0.12527 0.0
C1899 C 0.82061 0.74132 0.13837 0.0
C1900 C 0.82763 0.76074 0.14443 0.0
C1901 C 0.84433 0.7662 0.15689 0.0
C1902 C 0.85424 0.75237 0.16331 0.0
C1903 C 0.84748 0.73304 0.15723 0.0
C1904 C 0.83077 0.7275 0.14478 0.0
C1905 C 0.79274 0.70192 0.04714 0.0
C1906 C 0.80045 0.68482 0.04779 0.0
C1907 C 0.78839 0.71264 0.06276 0.0
C1908 C 0.79156 0.70638 0.07928 0.0
C1909 C 0.79882 0.6891 0.07989 0.0
C1910 C 0.80319 0.67841 0.06431 0.0
C1911 C 0.78838 0.71829 0.09608 0.0
C1912 C 0.80448 0.72371 0.1093 0.0
C1913 C 0.77002 0.72478 0.09893 0.0
C1914 C 0.75224 0.71892 0.08578 0.0
C1915 C 0.745 0.6995 0.07989 0.0
C1916 C 0.72832 0.69409 0.0674 0.0
C1917 C 0.71865 0.70796 0.06079 0.0
C1918 C 0.72561 0.72728 0.06671 0.0
C1919 C 0.7423 0.73277 0.07919 0.0
H1920 H 0.70574 0.70374 0.05112 0.0
H1921 H 0.86717 0.75663 0.17295 0.0
H1922 H 0.01315 0.0243 0.07642 0.0
H1923 H 0.99341 0.02353 0.10195 0.0
H1924 H 0.03684 0.99594 0.12843 0.0
H1925 H 0.05663 0.9966 0.10287 0.0
H1926 H 0.99844 0.98228 0.13496 0.0
H1927 H 0.03964 0.04332 0.13691 0.0
H1928 H 0.05247 0.0724 0.12483 0.0
H1929 H 0.99355 0.0872 0.1205 0.0
H1930 H 0.9803 0.05802 0.13229 0.0
H1931 H 0.98662 0.01266 0.22596 0.0
H1932 H 0.99873 0.00641 0.1967 0.0
H1933 H 0.9523 0.03334 0.17389 0.0
H1934 H 0.93981 0.0394 0.20317 0.0
H1935 H 0.9896 0.0464 0.16432 0.0
H1936 H 0.9487 0.98675 0.16467 0.0
H1937 H 0.93577 0.95775 0.1768 0.0
H1938 H 0.9936 0.9404 0.17708 0.0
H1939 H 0.00697 0.96948 0.16521 0.0
C1940 C 0.01835 0.01783 0.08759 0.0
C1941 C 0.03656 0.01071 0.08773 0.0
C1942 C 0.00706 0.01738 0.10215 0.0
C1943 C 0.01384 0.01 0.11724 0.0
C1944 C 0.03134 0.00174 0.11695 0.0
C1945 C 0.04262 0.00209 0.10231 0.0
C1946 C 0.00368 0.01243 0.13384 0.0
C1947 C 0.99664 0.9963 0.14147 0.0
C1948 C 1.00096 0.0307 0.14214 0.0
C1949 C 0.00895 0.04839 0.1353 0.0
C1950 C 0.0294 0.05271 0.13327 0.0
C1951 C 0.03675 0.06921 0.12648 0.0
C1952 C 0.02383 0.08162 0.12186 0.0
C1953 C 0.00354 0.07756 0.12406 0.0
C1954 C 0.9961 0.06105 0.1308 0.0
C1955 C 0.97874 0.01701 0.21473 0.0
C1956 C 0.9621 0.02639 0.21693 0.0
C1957 C 0.98572 0.01342 0.19797 0.0
C1958 C 0.9763 0.01924 0.18308 0.0
C1959 C 0.95973 0.02866 0.1852 0.0
C1960 C 0.95261 0.03209 0.20194 0.0
C1961 C 0.98442 0.01628 0.16551 0.0
C1962 C 0.99118 0.03235 0.15774 0.0
C1963 C 0.98687 0.99797 0.15713 0.0
C1964 C 0.97889 0.9804 0.16419 0.0
C1965 C 0.95871 0.97684 0.16746 0.0
C1966 C 0.95129 0.96036 0.17426 0.0
C1967 C 0.96386 0.94726 0.17774 0.0
C1968 C 0.98388 0.95058 0.17439 0.0
C1969 C 0.99138 0.96705 0.16761 0.0
H1970 H 0.95808 0.93451 0.18301 0.0
H1971 H 0.02955 0.09438 0.1166 0.0
H1972 H 0.28555 0.76208 0.18257 0.0
H1973 H 0.27846 0.77018 0.1527 0.0
H1974 H 0.32147 0.82158 0.16622 0.0
H1975 H 0.32895 0.81337 0.19579 0.0
H1976 H 0.26338 0.80053 0.1435 0.0
H1977 H 0.34294 0.83231 0.12933 0.0
H1978 H 0.37774 0.82754 0.13597 0.0
H1979 H 0.35768 0.76932 0.14178 0.0
H1980 H 0.32279 0.77366 0.13492 0.0
H1981 H 0.2573 0.85913 0.07678 0.0
H1982 H 0.26797 0.84776 0.10426 0.0
H1983 H 0.29009 0.80139 0.07356 0.0
H1984 H 0.27953 0.81266 0.04604 0.0
H1985 H 0.31527 0.81658 0.1032 0.0
H1986 H 0.24553 0.79334 0.08875 0.0
H1987 H 0.21029 0.79598 0.08108 0.0
H1988 H 0.2099 0.83266 0.13063 0.0
H1989 H 0.24524 0.83045 0.13849 0.0
C1990 C 0.2937 0.77495 0.17905 0.0
C1991 C 0.30774 0.78712 0.19156 0.0
C1992 C 0.28953 0.77963 0.16205 0.0
C1993 C 0.29951 0.79644 0.15719 0.0
C1994 C 0.31375 0.80844 0.16958 0.0
C1995 C 0.31787 0.80381 0.18654 0.0
C1996 C 0.29451 0.80193 0.13948 0.0
C1997 C 0.27472 0.80398 0.13467 0.0
C1998 C 0.30927 0.80622 0.12785 0.0
C1999 C 0.33023 0.80338 0.13176 0.0
C2000 C 0.34596 0.81847 0.13194 0.0
C2001 C 0.3657 0.81584 0.13576 0.0
C2002 C 0.36991 0.79815 0.13935 0.0
C2003 C 0.35439 0.78304 0.13906 0.0
C2004 C 0.33463 0.78558 0.13524 0.0
C2005 C 0.26468 0.84666 0.07587 0.0
C2006 C 0.26752 0.83678 0.0592 0.0
C2007 C 0.27068 0.84013 0.09159 0.0
C2008 C 0.27957 0.82357 0.09094 0.0
C2009 C 0.28323 0.81418 0.07436 0.0
C2010 C 0.27719 0.82067 0.05864 0.0
C2011 C 0.28424 0.81559 0.10746 0.0
C2012 C 0.30395 0.81309 0.11203 0.0
C2013 C 0.26936 0.8106 0.11876 0.0
C2014 C 0.24808 0.81186 0.11413 0.0
C2015 C 0.23797 0.80208 0.09795 0.0
C2016 C 0.21797 0.80348 0.09358 0.0
C2017 C 0.20788 0.81452 0.10534 0.0
C2018 C 0.21775 0.82414 0.12153 0.0
C2019 C 0.23775 0.8228 0.12595 0.0
H2020 H 0.1924 0.81559 0.10193 0.0
H2021 H 0.3852 0.79616 0.14231 0.0
H2022 H 0.05441 0.49807 0.06224 0.0
H2023 H 0.07306 0.49613 0.09034 0.0
H2024 H 0.01839 0.48955 0.11558 0.0
H2025 H 0.99937 0.49089 0.08723 0.0
H2026 H 0.04905 0.51603 0.13586 0.0
H2027 H 0.03971 0.4517 0.10645 0.0
H2028 H 0.03998 0.42591 0.08147 0.0
H2029 H 0.10334 0.44133 0.08166 0.0
H2030 H 0.10341 0.4674 0.10648 0.0
H2031 H 0.1044 0.49783 0.21402 0.0
H2032 H 0.07892 0.49408 0.18872 0.0
H2033 H 0.12474 0.49412 0.15253 0.0
H2034 H 0.15009 0.49746 0.17748 0.0
H2035 H 0.09414 0.46782 0.13943 0.0
H2036 H 0.10306 0.53426 0.16565 0.0
H2037 H 0.10341 0.56098 0.18992 0.0
H2038 H 0.04159 0.54231 0.19517 0.0
H2039 H 0.04095 0.51533 0.17107 0.0
C2040 C 0.04622 0.49588 0.07364 0.0
C2041 C 0.0253 0.4944 0.07233 0.0
C2042 C 0.05697 0.49489 0.08976 0.0
C2043 C 0.04711 0.49247 0.10501 0.0
C2044 C 0.02629 0.49138 0.10395 0.0
C2045 C 0.01546 0.49223 0.08774 0.0
C2046 C 0.05877 0.49124 0.12201 0.0
C2047 C 0.05861 0.50526 0.13679 0.0
C2048 C 0.07148 0.47737 0.12311 0.0
C2049 C 0.07154 0.4616 0.10826 0.0
C2050 C 0.05368 0.44968 0.10109 0.0
C2051 C 0.05378 0.435 0.08696 0.0
C2052 C 0.07166 0.432 0.07996 0.0
C2053 C 0.08949 0.44367 0.0871 0.0
C2054 C 0.08948 0.45839 0.10121 0.0
C2055 C 0.10903 0.49689 0.20066 0.0
C2056 C 0.12936 0.49804 0.19786 0.0
C2057 C 0.09444 0.49484 0.18621 0.0
C2058 C 0.09991 0.49403 0.16869 0.0
C2059 C 0.12011 0.49469 0.16588 0.0
C2060 C 0.13464 0.49667 0.18024 0.0
C2061 C 0.08486 0.49293 0.15318 0.0
C2062 C 0.08436 0.47843 0.13864 0.0
C2063 C 0.07166 0.50644 0.15227 0.0
C2064 C 0.07202 0.52266 0.16672 0.0
C2065 C 0.08958 0.53577 0.17208 0.0
C2066 C 0.08983 0.55098 0.18579 0.0
C2067 C 0.07255 0.5533 0.19412 0.0
C2068 C 0.05497 0.54047 0.18873 0.0
C2069 C 0.05466 0.52522 0.17505 0.0
H2070 H 0.07277 0.56508 0.20473 0.0
H2071 H 0.0717 0.42063 0.06903 0.0
H2072 H 0.36251 0.75019 0.27672 0.0
H2073 H 0.39194 0.74825 0.29613 0.0
H2074 H 0.39232 0.69072 0.27056 0.0
H2075 H 0.36365 0.69304 0.25014 0.0
H2076 H 0.39683 0.72794 0.32021 0.0
H2077 H 0.43907 0.67932 0.27413 0.0
H2078 H 0.44434 0.67257 0.24231 0.0
H2079 H 0.43259 0.72838 0.2349 0.0
H2080 H 0.42751 0.73555 0.26671 0.0
H2081 H 0.46773 0.69627 0.37518 0.0
H2082 H 0.44143 0.69587 0.35145 0.0
H2083 H 0.48272 0.73007 0.32393 0.0
H2084 H 0.50934 0.72997 0.34736 0.0
H2085 H 0.45841 0.70558 0.30042 0.0
H2086 H 0.45048 0.75041 0.35098 0.0
H2087 H 0.44719 0.76155 0.3826 0.0
H2088 H 0.39351 0.72131 0.38032 0.0
H2089 H 0.39664 0.70974 0.34873 0.0
C2090 C 0.3691 0.73727 0.27485 0.0
C2091 C 0.3607 0.72183 0.26168 0.0
C2092 C 0.38583 0.73609 0.28616 0.0
C2093 C 0.39451 0.71939 0.28479 0.0
C2094 C 0.38615 0.7039 0.27173 0.0
C2095 C 0.36955 0.70516 0.2602 0.0
C2096 C 0.41176 0.71806 0.29753 0.0
C2097 C 0.41027 0.72304 0.31582 0.0
C2098 C 0.4295 0.71198 0.29189 0.0
C2099 C 0.4327 0.70788 0.27277 0.0
C2100 C 0.43768 0.69017 0.26572 0.0
C2101 C 0.44062 0.68627 0.24768 0.0
C2102 C 0.43873 0.70002 0.23657 0.0
C2103 C 0.43396 0.71772 0.2435 0.0
C2104 C 0.43103 0.72169 0.26153 0.0
C2105 C 0.47129 0.70353 0.36397 0.0
C2106 C 0.49057 0.71336 0.36327 0.0
C2107 C 0.45621 0.70333 0.35043 0.0
C2108 C 0.45995 0.71332 0.3361 0.0
C2109 C 0.47944 0.72233 0.33489 0.0
C2110 C 0.49464 0.72229 0.34832 0.0
C2111 C 0.44331 0.7153 0.32302 0.0
C2112 C 0.44492 0.71042 0.30473 0.0
C2113 C 0.4259 0.72211 0.32858 0.0
C2114 C 0.4239 0.72909 0.34755 0.0
C2115 C 0.43805 0.74385 0.35726 0.0
C2116 C 0.43621 0.75025 0.37517 0.0
C2117 C 0.42018 0.74211 0.38347 0.0
C2118 C 0.40594 0.72758 0.37387 0.0
C2119 C 0.40773 0.7211 0.35596 0.0
H2120 H 0.41878 0.74709 0.39734 0.0
H2121 H 0.441 0.69697 0.22261 0.0
H2122 H 0.05665 0.44045 0.96765 0.0
H2123 H 0.05659 0.40695 0.95585 0.0
H2124 H 1.00059 0.39163 0.97722 0.0
H2125 H 1.0004 0.42517 0.98889 0.0
H2126 H 0.02667 0.36644 0.98229 0.0
H2127 H 1.00107 0.39572 0.93404 0.0
H2128 H 0.0017 0.41974 0.91373 0.0
H2129 H 0.05551 0.40359 0.89453 0.0
H2130 H 0.05535 0.37965 0.91493 0.0
H2131 H 0.99796 0.27469 0.93279 0.0
H2132 H 0.99889 0.30809 0.9451 0.0
H2133 H 0.05254 0.32328 0.92012 0.0
H2134 H 0.05149 0.28987 0.90735 0.0
H2135 H 0.02823 0.34869 0.91709 0.0
H2136 H 0.05404 0.31935 0.96487 0.0
H2137 H 0.05398 0.29547 0.98528 0.0
H2138 H 1.00074 0.3118 0.00556 0.0
H2139 H 1.00034 0.33561 0.98508 0.0
C2140 C 0.04431 0.42996 0.96984 0.0
C2141 C 0.02843 0.43551 0.97907 0.0
C2142 C 0.04433 0.41082 0.96312 0.0
C2143 C 0.02844 0.39686 0.96542 0.0
C2144 C 0.01298 0.40221 0.97527 0.0
C2145 C 0.01294 0.42137 0.982 0.0
C2146 C 0.02764 0.37677 0.95708 0.0
C2147 C 0.02677 0.36251 0.96802 0.0
C2148 C 0.02825 0.37173 0.9385 0.0
C2149 C 0.0283 0.38603 0.92614 0.0
C2150 C 0.01312 0.39739 0.92558 0.0
C2151 C 0.01338 0.41098 0.91404 0.0
C2152 C 0.02866 0.41322 0.90288 0.0
C2153 C 0.04369 0.40185 0.9032 0.0
C2154 C 0.04352 0.38827 0.91474 0.0
C2155 C 0.00993 0.28511 0.92981 0.0
C2156 C 0.02474 0.27955 0.91918 0.0
C2157 C 0.01048 0.30422 0.93696 0.0
C2158 C 0.02601 0.31815 0.93385 0.0
C2159 C 0.04047 0.31276 0.92277 0.0
C2160 C 0.03985 0.29364 0.91549 0.0
C2161 C 0.02724 0.3383 0.94229 0.0
C2162 C 0.02818 0.35259 0.93137 0.0
C2163 C 0.02679 0.34337 0.96091 0.0
C2164 C 0.02706 0.32914 0.97332 0.0
C2165 C 0.04225 0.31776 0.97359 0.0
C2166 C 0.04231 0.30425 0.98519 0.0
C2167 C 0.02734 0.30208 0.99668 0.0
C2168 C 0.01231 0.31347 0.99663 0.0
C2169 C 0.01217 0.32699 0.98505 0.0
H2170 H 0.02741 0.29161 0.00565 0.0
H2171 H 0.02884 0.42375 0.89395 0.0
H2172 H 0.71986 0.79628 0.27407 0.0
H2173 H 0.68787 0.79457 0.28728 0.0
H2174 H 0.67992 0.73315 0.27636 0.0
H2175 H 0.71181 0.7348 0.26334 0.0
H2176 H 0.64445 0.74874 0.26924 0.0
H2177 H 0.69905 0.75376 0.31579 0.0
H2178 H 0.73063 0.76957 0.33294 0.0
H2179 H 0.70438 0.8198 0.34766 0.0
H2180 H 0.6727 0.80435 0.33036 0.0
H2181 H 0.58491 0.70887 0.33001 0.0
H2182 H 0.60949 0.71969 0.31051 0.0
H2183 H 0.6131 0.77755 0.33688 0.0
H2184 H 0.58885 0.76666 0.35691 0.0
H2185 H 0.6487 0.76965 0.33451 0.0
H2186 H 0.59221 0.76293 0.29259 0.0
H2187 H 0.56048 0.74771 0.27538 0.0
H2188 H 0.58912 0.70228 0.25146 0.0
H2189 H 0.62097 0.71708 0.26872 0.0
C2190 C 0.71108 0.78246 0.27427 0.0
C2191 C 0.71831 0.76566 0.26786 0.0
C2192 C 0.69289 0.7815 0.28182 0.0
C2193 C 0.68162 0.76373 0.28286 0.0
C2194 C 0.68838 0.747 0.27566 0.0
C2195 C 0.70663 0.74794 0.26835 0.0
C2196 C 0.66358 0.76229 0.29265 0.0
C2197 C 0.64529 0.75328 0.28351 0.0
C2198 C 0.66463 0.76878 0.31115 0.0
C2199 C 0.68362 0.778 0.32161 0.0
C2200 C 0.70007 0.76824 0.32255 0.0
C2201 C 0.71798 0.77712 0.33232 0.0
C2202 C 0.71953 0.7957 0.34133 0.0
C2203 C 0.70317 0.80542 0.34064 0.0
C2204 C 0.68524 0.79661 0.33086 0.0
C2205 C 0.59068 0.72395 0.33153 0.0
C2206 C 0.58497 0.73688 0.34509 0.0
C2207 C 0.60468 0.73016 0.32024 0.0
C2208 C 0.61303 0.7495 0.32204 0.0
C2209 C 0.60686 0.76256 0.33521 0.0
C2210 C 0.59297 0.75632 0.34663 0.0
C2211 C 0.62943 0.75564 0.31122 0.0
C2212 C 0.64753 0.76549 0.32017 0.0
C2213 C 0.62811 0.75006 0.29251 0.0
C2214 C 0.60898 0.74108 0.28205 0.0
C2215 C 0.59172 0.74963 0.28376 0.0
C2216 C 0.57372 0.74108 0.27398 0.0
C2217 C 0.57278 0.72402 0.26236 0.0
C2218 C 0.58987 0.71549 0.26047 0.0
C2219 C 0.60792 0.72397 0.27023 0.0
H2220 H 0.55882 0.71743 0.2548 0.0
H2221 H 0.73341 0.80256 0.3489 0.0
H2222 H 0.04053 0.07156 0.01102 0.0
H2223 H 0.0324 0.08571 0.98436 0.0
H2224 H 0.09215 0.11699 0.98967 0.0
H2225 H 0.10023 0.10308 0.01634 0.0
H2226 H 0.06596 0.14019 0.98761 0.0
H2227 H 0.07539 0.08057 0.95499 0.0
H2228 H 0.07005 0.04561 0.94662 0.0
H2229 H 0.00808 0.04598 0.93148 0.0
H2230 H 0.01299 0.08093 0.94 0.0
H2231 H 0.05624 0.16161 0.89335 0.0
H2232 H 0.05918 0.13694 0.91221 0.0
H2233 H 0.0188 0.1608 0.94677 0.0
H2234 H 0.01607 0.18565 0.92826 0.0
H2235 H 0.03553 0.10894 0.92754 0.0
H2236 H 0.0408 0.16699 0.98866 0.0
H2237 H 0.04832 0.20204 0.99619 0.0
H2238 H 0.0857 0.20436 0.95328 0.0
H2239 H 0.07863 0.16932 0.94568 0.0
C2240 C 0.05204 0.0811 0.00621 0.0
C2241 C 0.07095 0.08638 0.01582 0.0
C2242 C 0.04739 0.08917 0.99098 0.0
C2243 C 0.06165 0.10247 0.98504 0.0
C2244 C 0.08086 0.10688 0.99408 0.0
C2245 C 0.08546 0.09894 0.00932 0.0
C2246 C 0.05613 0.1133 0.9706 0.0
C2247 C 0.05932 0.13327 0.97449 0.0
C2248 C 0.04752 0.10436 0.95344 0.0
C2249 C 0.04453 0.08335 0.9483 0.0
C2250 C 0.06059 0.07318 0.95002 0.0
C2251 C 0.05765 0.05337 0.94522 0.0
C2252 C 0.03873 0.04358 0.93857 0.0
C2253 C 0.02272 0.05359 0.93666 0.0
C2254 C 0.02558 0.0734 0.94145 0.0
C2255 C 0.04752 0.16129 0.90467 0.0
C2256 C 0.0362 0.17582 0.90949 0.0
C2257 C 0.04918 0.14712 0.9154 0.0
C2258 C 0.03951 0.14727 0.93106 0.0
C2259 C 0.0266 0.16059 0.93486 0.0
C2260 C 0.02506 0.17481 0.92424 0.0
C2261 C 0.04526 0.13567 0.94473 0.0
C2262 C 0.0421 0.11569 0.94072 0.0
C2263 C 0.05425 0.14454 0.96176 0.0
C2264 C 0.05902 0.16557 0.96651 0.0
C2265 C 0.0507 0.17499 0.9809 0.0
C2266 C 0.05487 0.19485 0.98517 0.0
C2267 C 0.06743 0.20543 0.97519 0.0
C2268 C 0.07593 0.19616 0.96097 0.0
C2269 C 0.07184 0.1763 0.95667 0.0
H2270 H 0.07061 0.2208 0.97849 0.0
H2271 H 0.03648 0.02824 0.93485 0.0
H2272 H 0.33246 0.28824 0.25954 0.0
H2273 H 0.35405 0.28553 0.23525 0.0
H2274 H 0.39773 0.26627 0.26962 0.0
H2275 H 0.37645 0.26932 0.29402 0.0
H2276 H 0.41514 0.29272 0.25096 0.0
H2277 H 0.36794 0.23489 0.2381 0.0
H2278 H 0.33446 0.21556 0.23265 0.0
H2279 H 0.32133 0.24284 0.18731 0.0
H2280 H 0.35466 0.26254 0.19264 0.0
H2281 H 0.47386 0.25666 0.18384 0.0
H2282 H 0.45327 0.26114 0.20867 0.0
H2283 H 0.40781 0.27707 0.17364 0.0
H2284 H 0.42807 0.27228 0.14876 0.0
H2285 H 0.39134 0.25242 0.19284 0.0
H2286 H 0.43846 0.31023 0.20547 0.0
H2287 H 0.47182 0.3298 0.21092 0.0
H2288 H 0.48504 0.30301 0.25656 0.0
H2289 H 0.45184 0.28309 0.25124 0.0
C2290 C 0.34668 0.28348 0.26193 0.0
C2291 C 0.35263 0.27885 0.27869 0.0
C2292 C 0.35897 0.28182 0.24801 0.0
C2293 C 0.37746 0.27553 0.25055 0.0
C2294 C 0.38352 0.2711 0.26731 0.0
C2295 C 0.37122 0.27267 0.2812 0.0
C2296 C 0.39053 0.27358 0.23578 0.0
C2297 C 0.41003 0.28373 0.23832 0.0
C2298 C 0.38375 0.26218 0.21914 0.0
C2299 C 0.36372 0.25033 0.21588 0.0
C2300 C 0.35785 0.23688 0.22706 0.0
C2301 C 0.33891 0.22583 0.22397 0.0
C2302 C 0.32575 0.228 0.20967 0.0
C2303 C 0.33153 0.24119 0.1984 0.0
C2304 C 0.35045 0.25229 0.20144 0.0
C2305 C 0.45956 0.2613 0.18146 0.0
C2306 C 0.45263 0.26409 0.16428 0.0
C2307 C 0.44781 0.2639 0.19569 0.0
C2308 C 0.42898 0.26956 0.19309 0.0
C2309 C 0.42222 0.27264 0.17601 0.0
C2310 C 0.43389 0.26996 0.16179 0.0
C2311 C 0.41599 0.27164 0.20795 0.0
C2312 C 0.39649 0.26147 0.20545 0.0
C2313 C 0.42277 0.28306 0.2246 0.0
C2314 C 0.44274 0.29503 0.22784 0.0
C2315 C 0.44854 0.3084 0.21658 0.0
C2316 C 0.46741 0.31957 0.21966 0.0
C2317 C 0.48057 0.31761 0.23405 0.0
C2318 C 0.47485 0.30449 0.24541 0.0
C2319 C 0.456 0.29327 0.24237 0.0
H2320 H 0.49517 0.32628 0.23641 0.0
H2321 H 0.3111 0.21944 0.20731 0.0
H2322 H 0.53823 0.41417 0.01875 0.0
H2323 H 0.5299 0.39646 0.04329 0.0
H2324 H 0.59157 0.38935 0.05235 0.0
H2325 H 0.59965 0.40645 0.02748 0.0
H2326 H 0.56887 0.35645 0.04728 0.0
H2327 H 0.56669 0.41643 0.08355 0.0
H2328 H 0.55588 0.44772 0.09106 0.0
H2329 H 0.49506 0.42048 0.08833 0.0
H2330 H 0.50546 0.38903 0.08056 0.0
H2331 H 0.55958 0.30049 0.11329 0.0
H2332 H 0.56875 0.33031 0.10162 0.0
H2333 H 0.50649 0.33456 0.09123 0.0
H2334 H 0.49731 0.30507 0.10379 0.0
H2335 H 0.52911 0.37006 0.09825 0.0
H2336 H 0.53027 0.31123 0.05962 0.0
H2337 H 0.53993 0.27954 0.05137 0.0
H2338 H 0.60167 0.30474 0.05722 0.0
H2339 H 0.59238 0.33656 0.06577 0.0
C2340 C 0.55005 0.40935 0.02642 0.0
C2341 C 0.56957 0.4117 0.02138 0.0
C2342 C 0.54532 0.39924 0.04045 0.0
C2343 C 0.56011 0.39154 0.04974 0.0
C2344 C 0.57988 0.39508 0.04539 0.0
C2345 C 0.58454 0.40494 0.03127 0.0
C2346 C 0.55473 0.3777 0.06219 0.0
C2347 C 0.56055 0.35966 0.05864 0.0
C2348 C 0.54311 0.38149 0.0766 0.0
C2349 C 0.53684 0.40038 0.08132 0.0
C2350 C 0.55099 0.41712 0.08441 0.0
C2351 C 0.54494 0.43488 0.08874 0.0
C2352 C 0.52479 0.43609 0.09013 0.0
C2353 C 0.51065 0.41952 0.08723 0.0
C2354 C 0.51662 0.40172 0.08289 0.0
C2355 C 0.54789 0.3082 0.10916 0.0
C2356 C 0.52776 0.30051 0.10935 0.0
C2357 C 0.55312 0.32517 0.10239 0.0
C2358 C 0.5383 0.33438 0.09505 0.0
C2359 C 0.51818 0.32765 0.09672 0.0
C2360 C 0.51294 0.31084 0.10392 0.0
C2361 C 0.54375 0.34913 0.08351 0.0
C2362 C 0.53771 0.3671 0.08704 0.0
C2363 C 0.55505 0.34532 0.06889 0.0
C2364 C 0.56064 0.32624 0.06349 0.0
C2365 C 0.54591 0.30999 0.05924 0.0
C2366 C 0.55132 0.29201 0.05451 0.0
C2367 C 0.57141 0.29013 0.05381 0.0
C2368 C 0.58612 0.30622 0.05779 0.0
C2369 C 0.5808 0.32423 0.06257 0.0
H2370 H 0.57557 0.27619 0.05015 0.0
H2371 H 0.52014 0.44985 0.09348 0.0
H2372 H 0.68947 0.23027 0.25591 0.0
H2373 H 0.65659 0.23736 0.24567 0.0
H2374 H 0.65083 0.19058 0.20244 0.0
H2375 H 0.6834 0.18344 0.21265 0.0
H2376 H 0.6472 0.24842 0.21408 0.0
H2377 H 0.60281 0.17194 0.19091 0.0
H2378 H 0.599 0.14058 0.20117 0.0
H2379 H 0.61744 0.16761 0.25495 0.0
H2380 H 0.62108 0.19916 0.24508 0.0
H2381 H 0.58175 0.23978 0.13726 0.0
H2382 H 0.60643 0.23605 0.16085 0.0
H2383 H 0.56042 0.22875 0.19639 0.0
H2384 H 0.53539 0.23256 0.17271 0.0
H2385 H 0.58554 0.20137 0.19654 0.0
H2386 H 0.59189 0.26875 0.20424 0.0
H2387 H 0.59512 0.30066 0.19512 0.0
H2388 H 0.65131 0.29309 0.17528 0.0
H2389 H 0.64829 0.26102 0.18403 0.0
C2390 C 0.68092 0.22126 0.24449 0.0
C2391 C 0.68898 0.20637 0.23501 0.0
C2392 C 0.66222 0.22537 0.2386 0.0
C2393 C 0.65118 0.21445 0.22334 0.0
C2394 C 0.65889 0.19905 0.21438 0.0
C2395 C 0.67758 0.19506 0.22015 0.0
C2396 C 0.63259 0.22005 0.21557 0.0
C2397 C 0.63363 0.23821 0.21045 0.0
C2398 C 0.61472 0.20688 0.21114 0.0
C2399 C 0.61232 0.18793 0.21722 0.0
C2400 C 0.60593 0.17122 0.20495 0.0
C2401 C 0.60383 0.15339 0.21069 0.0
C2402 C 0.60801 0.1521 0.22869 0.0
C2403 C 0.61426 0.16863 0.241 0.0
C2404 C 0.61637 0.18648 0.23533 0.0
C2405 C 0.5768 0.23747 0.15009 0.0
C2406 C 0.55654 0.23645 0.15306 0.0
C2407 C 0.59099 0.23544 0.16362 0.0
C2408 C 0.58531 0.23229 0.18043 0.0
C2409 C 0.56512 0.23125 0.18352 0.0
C2410 C 0.55086 0.23349 0.17 0.0
C2411 C 0.60058 0.22938 0.19436 0.0
C2412 C 0.59894 0.21171 0.20055 0.0
C2413 C 0.61783 0.24308 0.19995 0.0
C2414 C 0.61981 0.26242 0.19473 0.0
C2415 C 0.60488 0.27383 0.19782 0.0
C2416 C 0.60668 0.29196 0.19273 0.0
C2417 C 0.6234 0.29889 0.18461 0.0
C2418 C 0.63837 0.28771 0.18158 0.0
C2419 C 0.63663 0.26956 0.18663 0.0
H2420 H 0.62476 0.31293 0.18068 0.0
H2421 H 0.60638 0.13829 0.23311 0.0
H2422 H 0.47048 0.08345 0.97196 0.0
H2423 H 0.48103 0.11032 0.99577 0.0
H2424 H 0.48263 0.07164 0.03425 0.0
H2425 H 0.47316 0.04452 0.01044 0.0
H2426 H 0.4581 0.10178 0.04123 0.0
H2427 H 0.52431 0.09297 0.02769 0.0
H2428 H 0.55107 0.08925 0.00798 0.0
H2429 H 0.54737 0.14433 0.99302 0.0
H2430 H 0.52037 0.14827 0.01245 0.0
H2431 H 0.48711 0.17608 0.11385 0.0
H2432 H 0.48609 0.14638 0.09333 0.0
H2433 H 0.50201 0.1788 0.05134 0.0
H2434 H 0.50409 0.20835 0.07201 0.0
H2435 H 0.51941 0.14978 0.04755 0.0
H2436 H 0.45193 0.15806 0.0567 0.0
H2437 H 0.42337 0.16272 0.07404 0.0
H2438 H 0.42698 0.11019 0.09432 0.0
H2439 H 0.45574 0.10533 0.07725 0.0
C2440 C 0.47366 0.08051 0.98536 0.0
C2441 C 0.4708 0.06167 0.98918 0.0
C2442 C 0.47955 0.09596 0.999 0.0
C2443 C 0.48251 0.09296 0.01676 0.0
C2444 C 0.4803 0.07425 0.02062 0.0
C2445 C 0.47475 0.05877 0.00697 0.0
C2446 C 0.48651 0.1094 0.03138 0.0
C2447 C 0.47166 0.11212 0.04287 0.0
C2448 C 0.5039 0.12314 0.03307 0.0
C2449 C 0.52018 0.12083 0.02141 0.0
C2450 C 0.52907 0.10422 0.02008 0.0
C2451 C 0.54432 0.10208 0.00898 0.0
C2452 C 0.55088 0.11652 0.99922 0.0
C2453 C 0.54225 0.13315 1.00057 0.0
C2454 C 0.52699 0.13535 0.01164 0.0
C2455 C 0.4906 0.17683 0.10029 0.0
C2456 C 0.49557 0.19455 0.09452 0.0
C2457 C 0.48989 0.15984 0.08851 0.0
C2458 C 0.49352 0.16026 0.0706 0.0
C2459 C 0.49911 0.17799 0.06504 0.0
C2460 C 0.50024 0.19493 0.07688 0.0
C2461 C 0.49086 0.14239 0.05743 0.0
C2462 C 0.50591 0.13939 0.04612 0.0
C2463 C 0.4734 0.12858 0.0556 0.0
C2464 C 0.45612 0.13145 0.06587 0.0
C2465 C 0.44672 0.14758 0.06496 0.0
C2466 C 0.43049 0.15024 0.07472 0.0
C2467 C 0.42341 0.13679 0.08532 0.0
C2468 C 0.43251 0.12061 0.08614 0.0
C2469 C 0.44877 0.11789 0.07641 0.0
H2470 H 0.41083 0.13888 0.09287 0.0
H2471 H 0.56269 0.11484 0.99064 0.0
H2472 H 0.30891 0.33134 0.74841 0.0
H2473 H 0.32816 0.36332 0.7534 0.0
H2474 H 0.30091 0.37468 0.70377 0.0
H2475 H 0.28146 0.34256 0.69869 0.0
H2476 H 0.33995 0.38454 0.70581 0.0
H2477 H 0.28969 0.39711 0.74376 0.0
H2478 H 0.26728 0.39186 0.76719 0.0
H2479 H 0.31781 0.39845 0.80607 0.0
H2480 H 0.34055 0.40347 0.78283 0.0
H2481 H 0.38569 0.48705 0.75498 0.0
H2482 H 0.35731 0.46112 0.74797 0.0
H2483 H 0.3977 0.4208 0.73663 0.0
H2484 H 0.42594 0.44644 0.74325 0.0
H2485 H 0.34683 0.42947 0.76248 0.0
H2486 H 0.37815 0.38681 0.70314 0.0
H2487 H 0.3996 0.39336 0.67929 0.0
H2488 H 0.38364 0.44938 0.68147 0.0
H2489 H 0.36186 0.44308 0.70515 0.0
C2490 C 0.30661 0.34077 0.73874 0.0
C2491 C 0.29356 0.3344 0.72317 0.0
C2492 C 0.31768 0.35908 0.74161 0.0
C2493 C 0.31586 0.3715 0.72905 0.0
C2494 C 0.30256 0.36534 0.71365 0.0
C2495 C 0.29148 0.34699 0.71075 0.0
C2496 C 0.32892 0.39034 0.7315 0.0
C2497 C 0.34131 0.39444 0.71814 0.0
C2498 C 0.33045 0.40347 0.74744 0.0
C2499 C 0.31684 0.40056 0.76151 0.0
C2500 C 0.29603 0.39731 0.75728 0.0
C2501 C 0.28327 0.3944 0.77054 0.0
C2502 C 0.29111 0.39479 0.7881 0.0
C2503 C 0.31175 0.39815 0.79246 0.0
C2504 C 0.32459 0.40106 0.77925 0.0
C2505 C 0.38852 0.47267 0.75094 0.0
C2506 C 0.40813 0.46889 0.74958 0.0
C2507 C 0.37228 0.45787 0.74698 0.0
C2508 C 0.37536 0.43907 0.74152 0.0
C2509 C 0.39491 0.43525 0.74046 0.0
C2510 C 0.41109 0.44997 0.74434 0.0
C2511 C 0.3583 0.42325 0.73708 0.0
C2512 C 0.34521 0.41971 0.75005 0.0
C2513 C 0.35587 0.41079 0.72066 0.0
C2514 C 0.36846 0.41449 0.70601 0.0
C2515 C 0.37909 0.40047 0.69844 0.0
C2516 C 0.39134 0.40416 0.68497 0.0
C2517 C 0.39302 0.42179 0.6789 0.0
C2518 C 0.38237 0.43575 0.68622 0.0
C2519 C 0.37008 0.43213 0.69968 0.0
H2520 H 0.40256 0.42464 0.66852 0.0
H2521 H 0.2812 0.39253 0.79835 0.0
H2522 H 0.30452 0.68706 0.81693 0.0
H2523 H 0.3294 0.6657 0.81818 0.0
H2524 H 0.28938 0.6213 0.78362 0.0
H2525 H 0.26421 0.64244 0.78267 0.0
H2526 H 0.30921 0.60706 0.81019 0.0
H2527 H 0.32575 0.6481 0.76673 0.0
H2528 H 0.3332 0.67901 0.75595 0.0
H2529 H 0.38393 0.69535 0.79492 0.0
H2530 H 0.37659 0.66463 0.80611 0.0
H2531 H 0.37999 0.54991 0.77678 0.0
H2532 H 0.3535 0.56926 0.78146 0.0
H2533 H 0.39588 0.61426 0.81288 0.0
H2534 H 0.42248 0.59517 0.80797 0.0
H2535 H 0.37479 0.62832 0.78912 0.0
H2536 H 0.35928 0.58659 0.83179 0.0
H2537 H 0.35174 0.55572 0.84262 0.0
H2538 H 0.29936 0.54056 0.80543 0.0
H2539 H 0.30673 0.57125 0.7942 0.0
C2540 C 0.30085 0.67264 0.80986 0.0
C2541 C 0.2824 0.6665 0.79961 0.0
C2542 C 0.31516 0.66049 0.81047 0.0
C2543 C 0.31136 0.64197 0.8008 0.0
C2544 C 0.29268 0.63554 0.79114 0.0
C2545 C 0.27837 0.64769 0.79049 0.0
C2546 C 0.3272 0.62965 0.80004 0.0
C2547 C 0.32349 0.61161 0.80543 0.0
C2548 C 0.34598 0.63573 0.79416 0.0
C2549 C 0.3505 0.65415 0.78738 0.0
C2550 C 0.3384 0.65835 0.77309 0.0
C2551 C 0.34262 0.67582 0.76689 0.0
C2552 C 0.359 0.68915 0.77478 0.0
C2553 C 0.37123 0.68502 0.78884 0.0
C2554 C 0.36705 0.66757 0.79511 0.0
C2555 C 0.38363 0.56382 0.78489 0.0
C2556 C 0.4034 0.571 0.79194 0.0
C2557 C 0.36843 0.57486 0.78762 0.0
C2558 C 0.37263 0.59323 0.79761 0.0
C2559 C 0.39225 0.60017 0.80508 0.0
C2560 C 0.40745 0.58919 0.8023 0.0
C2561 C 0.35691 0.60568 0.79935 0.0
C2562 C 0.3606 0.62376 0.79404 0.0
C2563 C 0.33815 0.59961 0.80531 0.0
C2564 C 0.33366 0.58115 0.81204 0.0
C2565 C 0.34624 0.57661 0.82582 0.0
C2566 C 0.34198 0.55916 0.83205 0.0
C2567 C 0.32511 0.54617 0.82468 0.0
C2568 C 0.31244 0.55063 0.8111 0.0
C2569 C 0.31663 0.56806 0.80482 0.0
H2570 H 0.32184 0.53266 0.82953 0.0
H2571 H 0.36224 0.70267 0.76996 0.0
H2572 H 0.89946 0.50072 0.44913 0.0
H2573 H 0.8743 0.47598 0.45705 0.0
H2574 H 0.91744 0.46262 0.49592 0.0
H2575 H 0.9426 0.4877 0.4883 0.0
H2576 H 0.89184 0.42973 0.47071 0.0
H2577 H 0.88862 0.48663 0.51255 0.0
H2578 H 0.88553 0.52058 0.52021 0.0
H2579 H 0.82852 0.5108 0.48946 0.0
H2580 H 0.83143 0.47683 0.48136 0.0
H2581 H 0.8288 0.37156 0.517 0.0
H2582 H 0.85406 0.39609 0.50938 0.0
H2583 H 0.80794 0.42275 0.48558 0.0
H2584 H 0.78249 0.3986 0.4938 0.0
H2585 H 0.8352 0.44914 0.50246 0.0
H2586 H 0.83638 0.39406 0.46007 0.0
H2587 H 0.83811 0.36033 0.44928 0.0
H2588 H 0.89664 0.36638 0.47675 0.0
H2589 H 0.89516 0.4001 0.4879 0.0
C2590 C 0.90362 0.49234 0.45921 0.0
C2591 C 0.92296 0.49602 0.46808 0.0
C2592 C 0.88924 0.47831 0.46377 0.0
C2593 C 0.89405 0.46755 0.47708 0.0
C2594 C 0.9135 0.4708 0.4856 0.0
C2595 C 0.9278 0.4851 0.48129 0.0
C2596 C 0.87853 0.45333 0.48244 0.0
C2597 C 0.87959 0.43391 0.47788 0.0
C2598 C 0.8622 0.45887 0.49116 0.0
C2599 C 0.86034 0.47924 0.4962 0.0
C2600 C 0.87551 0.49176 0.50729 0.0
C2601 C 0.87378 0.511 0.51173 0.0
C2602 C 0.85686 0.51785 0.50528 0.0
C2603 C 0.84162 0.50547 0.49442 0.0
C2604 C 0.8433 0.48622 0.48991 0.0
C2605 C 0.824 0.38268 0.5102 0.0
C2606 C 0.80361 0.38303 0.5059 0.0
C2607 C 0.83849 0.39665 0.50575 0.0
C2608 C 0.83298 0.41107 0.49652 0.0
C2609 C 0.8126 0.41175 0.49262 0.0
C2610 C 0.79806 0.39791 0.49732 0.0
C2611 C 0.84849 0.42533 0.49091 0.0
C2612 C 0.84742 0.44482 0.49533 0.0
C2613 C 0.86458 0.41982 0.48166 0.0
C2614 C 0.86557 0.39956 0.47496 0.0
C2615 C 0.84956 0.38816 0.46392 0.0
C2616 C 0.85051 0.36905 0.45772 0.0
C2617 C 0.86746 0.36121 0.46237 0.0
C2618 C 0.88351 0.37248 0.47319 0.0
C2619 C 0.88264 0.39159 0.47943 0.0
H2620 H 0.86816 0.34641 0.45756 0.0
H2621 H 0.85555 0.53276 0.50874 0.0
H2622 H 0.79149 0.84464 0.77493 0.0
H2623 H 0.76719 0.86061 0.75961 0.0
H2624 H 0.73956 0.87156 0.80839 0.0
H2625 H 0.76341 0.85532 0.82358 0.0
H2626 H 0.71171 0.86338 0.77989 0.0
H2627 H 0.77478 0.90485 0.79701 0.0
H2628 H 0.8112 0.91392 0.79762 0.0
H2629 H 0.80589 0.91014 0.74062 0.0
H2630 H 0.76943 0.90079 0.73966 0.0
H2631 H 0.67247 0.94969 0.77229 0.0
H2632 H 0.68802 0.92274 0.7799 0.0
H2633 H 0.7141 0.9186 0.72984 0.0
H2634 H 0.69897 0.94566 0.72233 0.0
H2635 H 0.74176 0.92071 0.75598 0.0
H2636 H 0.67759 0.88317 0.73939 0.0
H2637 H 0.64118 0.8746 0.73928 0.0
H2638 H 0.64807 0.87135 0.79526 0.0
H2639 H 0.68452 0.88017 0.79576 0.0
C2640 C 0.77995 0.85009 0.78225 0.0
C2641 C 0.77955 0.849 0.80052 0.0
C2642 C 0.76615 0.8593 0.77353 0.0
C2643 C 0.75174 0.86756 0.78294 0.0
C2644 C 0.75056 0.86538 0.80087 0.0
C2645 C 0.76432 0.85624 0.80957 0.0
C2646 C 0.73907 0.87994 0.77473 0.0
C2647 C 0.71824 0.87595 0.77469 0.0
C2648 C 0.74755 0.89619 0.76768 0.0
C2649 C 0.76943 0.90191 0.76825 0.0
C2650 C 0.78141 0.90582 0.7846 0.0
C2651 C 0.80205 0.91103 0.78501 0.0
C2652 C 0.81086 0.91255 0.76916 0.0
C2653 C 0.79904 0.90891 0.75288 0.0
C2654 C 0.77839 0.90366 0.75239 0.0
C2655 C 0.6811 0.94273 0.76271 0.0
C2656 C 0.68461 0.94997 0.74677 0.0
C2657 C 0.68998 0.92728 0.76706 0.0
C2658 C 0.70231 0.91861 0.75546 0.0
C2659 C 0.70479 0.9251 0.73907 0.0
C2660 C 0.69607 0.94058 0.73478 0.0
C2661 C 0.71427 0.90424 0.76111 0.0
C2662 C 0.73507 0.90795 0.76082 0.0
C2663 C 0.70571 0.88781 0.76787 0.0
C2664 C 0.68379 0.88249 0.76764 0.0
C2665 C 0.67134 0.88078 0.75171 0.0
C2666 C 0.65069 0.87585 0.75157 0.0
C2667 C 0.64232 0.87247 0.76726 0.0
C2668 C 0.65458 0.87398 0.78312 0.0
C2669 C 0.67524 0.87893 0.78333 0.0
H2670 H 0.62633 0.86865 0.76713 0.0
H2671 H 0.82685 0.91659 0.7695 0.0
H2672 H 0.59928 0.53228 0.9899 0.0
H2673 H 0.6298 0.55566 0.9941 0.0
H2674 H 0.66508 0.51016 0.98915 0.0
H2675 H 0.6346 0.48666 0.98476 0.0
H2676 H 0.68234 0.54065 0.01506 0.0
H2677 H 0.65557 0.53032 0.95388 0.0
H2678 H 0.62926 0.52777 0.92919 0.0
H2679 H 0.62283 0.58629 0.94489 0.0
H2680 H 0.64889 0.5891 0.96987 0.0
H2681 H 0.76954 0.60187 0.9969 0.0
H2682 H 0.74192 0.57538 0.9949 0.0
H2683 H 0.69986 0.61505 0.99541 0.0
H2684 H 0.72709 0.64137 0.9971 0.0
H2685 H 0.68749 0.58523 0.97061 0.0
H2686 H 0.71306 0.59515 0.03264 0.0
H2687 H 0.73891 0.59761 0.0577 0.0
H2688 H 0.74763 0.54002 0.0405 0.0
H2689 H 0.722 0.53731 0.01518 0.0
C2690 C 0.61353 0.52724 0.98987 0.0
C2691 C 0.61447 0.5076 0.98684 0.0
C2692 C 0.63097 0.54061 0.99229 0.0
C2693 C 0.6497 0.53464 0.99164 0.0
C2694 C 0.65078 0.51507 0.98968 0.0
C2695 C 0.63332 0.50166 0.98724 0.0
C2696 C 0.66795 0.54882 0.99178 0.0
C2697 C 0.68361 0.55024 0.00522 0.0
C2698 C 0.66954 0.56143 0.97901 0.0
C2699 C 0.65407 0.55987 0.96384 0.0
C2700 C 0.64845 0.54261 0.95214 0.0
C2701 C 0.63359 0.54112 0.93809 0.0
C2702 C 0.62435 0.55684 0.9355 0.0
C2703 C 0.62999 0.57411 0.94693 0.0
C2704 C 0.64482 0.57567 0.96103 0.0
C2705 C 0.75441 0.60494 0.99654 0.0
C2706 C 0.75061 0.62381 0.99717 0.0
C2707 C 0.73863 0.58978 0.99549 0.0
C2708 C 0.71879 0.59322 0.99516 0.0
C2709 C 0.71501 0.612 0.99562 0.0
C2710 C 0.73068 0.62708 0.99663 0.0
C2711 C 0.70177 0.57743 0.99416 0.0
C2712 C 0.68632 0.57562 0.98045 0.0
C2713 C 0.70042 0.56451 0.00668 0.0
C2714 C 0.71578 0.5661 0.02191 0.0
C2715 C 0.72061 0.58307 0.03412 0.0
C2716 C 0.7352 0.5845 0.04839 0.0
C2717 C 0.74495 0.569 0.05066 0.0
C2718 C 0.74009 0.55202 0.0387 0.0
C2719 C 0.72553 0.55053 0.0244 0.0
H2720 H 0.75624 0.57013 0.06171 0.0
H2721 H 0.61284 0.55566 0.92462 0.0
H2722 H 0.26966 0.7083 0.23828 0.0
H2723 H 0.24361 0.68057 0.23624 0.0
H2724 H 0.28648 0.64326 0.22314 0.0
H2725 H 0.31249 0.67095 0.22464 0.0
H2726 H 0.25033 0.63 0.20423 0.0
H2727 H 0.27557 0.65315 0.26552 0.0
H2728 H 0.28385 0.67738 0.29238 0.0
H2729 H 0.22237 0.68485 0.29232 0.0
H2730 H 0.21378 0.66084 0.26529 0.0
H2731 H 0.21136 0.54475 0.23527 0.0
H2732 H 0.23058 0.57396 0.22869 0.0
H2733 H 0.18347 0.60524 0.24422 0.0
H2734 H 0.16415 0.57601 0.25099 0.0
H2735 H 0.21873 0.62291 0.2601 0.0
H2736 H 0.19293 0.59664 0.2005 0.0
H2737 H 0.185 0.57195 0.17397 0.0
H2738 H 0.24738 0.56979 0.17087 0.0
H2739 H 0.25568 0.59427 0.19756 0.0
C2740 C 0.27345 0.69422 0.23453 0.0
C2741 C 0.2932 0.69182 0.23177 0.0
C2742 C 0.25857 0.67837 0.23351 0.0
C2743 C 0.26317 0.65983 0.22981 0.0
C2744 C 0.28261 0.65743 0.22608 0.0
C2745 C 0.29749 0.67326 0.22709 0.0
C2746 C 0.24821 0.64295 0.23113 0.0
C2747 C 0.24348 0.62837 0.21646 0.0
C2748 C 0.23895 0.64102 0.24697 0.0
C2749 C 0.24407 0.65537 0.26328 0.0
C2750 C 0.26385 0.66007 0.27116 0.0
C2751 C 0.26859 0.67375 0.28643 0.0
C2752 C 0.25366 0.68269 0.29403 0.0
C2753 C 0.23393 0.67794 0.2864 0.0
C2754 C 0.22911 0.66429 0.27111 0.0
C2755 C 0.2049 0.55775 0.23701 0.0
C2756 C 0.18619 0.55802 0.24363 0.0
C2757 C 0.21591 0.57446 0.23318 0.0
C2758 C 0.2084 0.59179 0.2358 0.0
C2759 C 0.18954 0.59203 0.24206 0.0
C2760 C 0.17851 0.5753 0.24589 0.0
C2761 C 0.2209 0.60981 0.23323 0.0
C2762 C 0.22527 0.6246 0.24773 0.0
C2763 C 0.22983 0.61188 0.21724 0.0
C2764 C 0.22492 0.59721 0.20112 0.0
C2765 C 0.20495 0.59081 0.19425 0.0
C2766 C 0.20039 0.57686 0.17916 0.0
C2767 C 0.21567 0.56928 0.17076 0.0
C2768 C 0.23556 0.57567 0.1774 0.0
C2769 C 0.2402 0.5896 0.19249 0.0
H2770 H 0.21211 0.55849 0.15909 0.0
H2771 H 0.25736 0.69328 0.30585 0.0
H2772 H 0.95178 0.49582 0.01754 0.0
H2773 H 0.92571 0.51524 0.01258 0.0
H2774 H 0.95904 0.56174 0.05 0.0
H2775 H 0.98506 0.54223 0.05518 0.0
H2776 H 0.91999 0.55938 0.05346 0.0
H2777 H 0.96122 0.55957 0.00475 0.0
H2778 H 0.97772 0.54483 0.97983 0.0
H2779 H 0.9207 0.51852 0.953 0.0
H2780 H 0.90387 0.53288 0.97791 0.0
H2781 H 0.88531 0.63929 0.02654 0.0
H2782 H 0.90573 0.61501 0.03167 0.0
H2783 H 0.86396 0.57275 0.99645 0.0
H2784 H 0.84317 0.59718 0.99118 0.0
H2785 H 0.90419 0.57041 0.99135 0.0
H2786 H 0.863 0.57294 0.03953 0.0
H2787 H 0.84718 0.58845 0.06451 0.0
H2788 H 0.90482 0.61054 0.09235 0.0
H2789 H 0.92101 0.59539 0.06741 0.0
C2790 C 0.95344 0.51013 0.02484 0.0
C2791 C 0.97053 0.51758 0.03664 0.0
C2792 C 0.93857 0.52123 0.02195 0.0
C2793 C 0.94061 0.5401 0.03062 0.0
C2794 C 0.95718 0.54724 0.0431 0.0
C2795 C 0.97201 0.53608 0.0461 0.0
C2796 C 0.92597 0.55266 0.02612 0.0
C2797 C 0.91667 0.5619 0.0399 0.0
C2798 C 0.92122 0.55561 0.00835 0.0
C2799 C 0.9313 0.54713 0.99328 0.0
C2800 C 0.95221 0.55053 0.99359 0.0
C2801 C 0.96162 0.54226 0.97947 0.0
C2802 C 0.95026 0.5307 0.96487 0.0
C2803 C 0.92947 0.52745 0.96434 0.0
C2804 C 0.91999 0.53565 0.97845 0.0
C2805 C 0.88041 0.62487 0.01977 0.0
C2806 C 0.8625 0.62017 0.00851 0.0
C2807 C 0.89211 0.61097 0.0228 0.0
C2808 C 0.88621 0.59202 0.01468 0.0
C2809 C 0.86871 0.5873 0.00294 0.0
C2810 C 0.85686 0.60126 0.99994 0.0
C2811 C 0.89845 0.5773 0.01873 0.0
C2812 C 0.90733 0.5677 0.00487 0.0
C2813 C 0.90291 0.57409 0.03644 0.0
C2814 C 0.89322 0.58314 0.05153 0.0
C2815 C 0.87232 0.58122 0.05091 0.0
C2816 C 0.86328 0.58993 0.06508 0.0
C2817 C 0.87499 0.60051 0.07999 0.0
C2818 C 0.89577 0.60236 0.08079 0.0
C2819 C 0.90488 0.59369 0.06665 0.0
H2820 H 0.86797 0.60724 0.09094 0.0
H2821 H 0.95757 0.52431 0.95394 0.0
H2822 H 0.09088 0.97886 0.07278 0.0
H2823 H 0.11377 0.95721 0.06314 0.0
H2824 H 0.11157 0.9754 0.01143 0.0
H2825 H 0.08772 0.99646 0.02069 0.0
H2826 H 0.11242 0.93816 0.0078 0.0
H2827 H 0.15109 0.99297 0.04266 0.0
H2828 H 0.16063 0.01838 0.06845 0.0
H2829 H 0.16931 0.97651 0.10234 0.0
H2830 H 0.15953 0.9508 0.07679 0.0
H2831 H 0.20281 0.89561 0.99303 0.0
H2832 H 0.18007 0.91948 0.99602 0.0
H2833 H 0.16385 0.90182 0.04556 0.0
H2834 H 0.18596 0.87802 0.0426 0.0
H2835 H 0.17505 0.94214 0.04688 0.0
H2836 H 0.13266 0.88744 0.01107 0.0
H2837 H 0.12379 0.86293 0.98447 0.0
H2838 H 0.124 0.90662 0.95112 0.0
H2839 H 0.13315 0.9314 0.97754 0.0
C2840 C 0.09486 0.978 0.05922 0.0
C2841 C 0.08745 0.98953 0.04756 0.0
C2842 C 0.10822 0.96578 0.05379 0.0
C2843 C 0.11479 0.96498 0.03668 0.0
C2844 C 0.10688 0.97589 0.02475 0.0
C2845 C 0.09336 0.98805 0.03013 0.0
C2846 C 0.13026 0.95308 0.03155 0.0
C2847 C 0.12627 0.93928 0.01619 0.0
C2848 C 0.14841 0.95452 0.0424 0.0
C2849 C 0.15444 0.96994 0.05782 0.0
C2850 C 0.15491 0.98916 0.05563 0.0
C2851 C 0.16037 0.00363 0.0702 0.0
C2852 C 0.16554 0.99906 0.08703 0.0
C2853 C 0.1653 0.98002 0.0893 0.0
C2854 C 0.15981 0.96549 0.07477 0.0
C2855 C 0.19431 0.89681 0.00449 0.0
C2856 C 0.19618 0.88489 0.01755 0.0
C2857 C 0.18134 0.9104 0.00617 0.0
C2858 C 0.17032 0.9124 0.02104 0.0
C2859 C 0.17224 0.90054 0.03402 0.0
C2860 C 0.18487 0.88687 0.03224 0.0
C2861 C 0.15689 0.92691 0.02353 0.0
C2862 C 0.16132 0.94126 0.03839 0.0
C2863 C 0.13935 0.92613 0.01208 0.0
C2864 C 0.13385 0.91125 0.99624 0.0
C2865 C 0.13102 0.89181 0.99805 0.0
C2866 C 0.12589 0.87788 0.98301 0.0
C2867 C 0.12341 0.88321 0.96611 0.0
C2868 C 0.12598 0.90251 0.96421 0.0
C2869 C 0.13113 0.9165 0.97921 0.0
H2870 H 0.11943 0.87241 0.95448 0.0
H2871 H 0.16977 0.01028 0.09829 0.0
loop_
_geom_bond_atom_site_label_1
_geom_bond_atom_site_label_2
_geom_bond_distance
_geom_bond_site_symmetry_2
_ccdc_geom_bond_type
H0 C1 0.949 . S
C1 H0 0.949 . S
C1 C2 1.395 . S
C1 C3 1.391 . S
C2 C1 1.395 . S
C2 C5 1.390 . S
C3 C1 1.391 . S
C3 C7 1.387 . S
C3 C8 1.491 . S
H4 C5 0.950 1_565 S
C5 C2 1.390 . S
C5 H4 0.950 1_545 S
C5 C6 1.378 . S
C6 C5 1.378 . S
C6 C7 1.409 . S
C7 C3 1.387 . S
C7 C6 1.409 . S
C7 H9 0.951 . S
C8 C3 1.491 . S
C8 C10 1.382 . S
C8 C12 1.404 . S
H9 C7 0.951 . S
C10 C8 1.382 . S
C10 C11 1.357 1_554 S
C10 H15 0.949 . S
C11 C10 1.357 1_556 S
C11 C16 1.376 1_556 S
C12 C8 1.404 . S
C12 H13 0.950 . S
C12 C14 1.375 . S
H13 C12 0.950 . S
C14 C12 1.375 . S
C14 C16 1.382 . S
C14 H18 0.950 . S
H15 C10 0.949 . S
C16 C11 1.376 1_554 S
C16 C14 1.382 . S
C16 H17 0.952 . S
H17 C16 0.952 . S
H18 C14 0.950 . S
H19 C20 0.949 . S
C20 H19 0.949 . S
C20 C21 1.395 . S
C20 C22 1.391 . S
C21 C20 1.395 . S
C21 C24 1.390 . S
C22 C20 1.391 . S
C22 C26 1.387 . S
C22 C27 1.491 . S
H23 C24 0.950 . S
C24 C21 1.390 . S
C24 H23 0.950 . S
C24 C25 1.378 . S
C25 C24 1.378 . S
C25 C26 1.409 . S
C26 C22 1.387 . S
C26 C25 1.409 . S
C26 H28 0.951 . S
C27 C22 1.491 . S
C27 C29 1.382 . S
C27 C31 1.404 . S
H28 C26 0.951 . S
C29 C27 1.382 . S
C29 C30 1.390 . S
C29 H34 0.949 . S
C30 C29 1.390 . S
C30 C35 1.399 . S
C31 C27 1.404 . S
C31 H32 0.950 . S
C31 C33 1.375 . S
H32 C31 0.950 . S
C33 C31 1.375 . S
C33 C35 1.382 . S
C33 H37 0.950 . S
H34 C29 0.949 . S
C35 C30 1.399 . S
C35 C33 1.382 . S
C35 H36 0.952 . S
H36 C35 0.952 . S
H37 C33 0.950 . S
H38 C39 0.949 . S
C39 H38 0.949 . S
C39 C40 1.395 . S
C39 C41 1.391 1_455 S
C40 C39 1.395 . S
C40 C43 1.390 1_455 S
C41 C39 1.391 1_655 S
C41 C45 1.387 . S
C41 C46 1.480 1_655 S
H42 C43 0.950 . S
C43 C40 1.390 1_655 S
C43 H42 0.950 . S
C43 C44 1.378 . S
C44 C43 1.378 . S
C44 C45 1.409 . S
C45 C41 1.387 . S
C45 C44 1.409 . S
C45 H47 0.951 . S
C46 C41 1.480 1_455 S
C46 C48 1.393 . S
C46 C50 1.407 1_554 S
H47 C45 0.951 . S
C48 C46 1.393 . S
C48 C49 1.390 1_554 S
C48 H53 0.949 . S
C49 C48 1.390 1_556 S
C49 C54 1.399 . S
C50 C46 1.407 1_556 S
C50 H51 0.951 1_455 S
C50 C52 1.375 . S
H51 C50 0.951 1_655 S
C52 C50 1.375 . S
C52 C54 1.382 . S
C52 H56 0.950 . S
H53 C48 0.949 . S
C54 C49 1.399 . S
C54 C52 1.382 . S
C54 H55 0.952 . S
H55 C54 0.952 . S
H56 C52 0.950 . S
H57 C58 0.949 . S
C58 H57 0.949 . S
C58 C59 1.395 . S
C58 C60 1.391 . S
C59 C58 1.395 . S
C59 C62 1.390 . S
C60 C58 1.391 . S
C60 C64 1.387 . S
C60 C65 1.491 . S
H61 C62 0.950 . S
C62 C59 1.390 . S
C62 H61 0.950 . S
C62 C63 1.378 . S
C63 C62 1.378 . S
C63 C64 1.409 . S
C64 C60 1.387 . S
C64 C63 1.409 . S
C64 H66 0.951 . S
C65 C60 1.491 . S
C65 C67 1.382 . S
C65 C69 1.404 . S
H66 C64 0.951 . S
C67 C65 1.382 . S
C67 C68 1.390 . S
C67 H72 0.949 . S
C68 C67 1.390 . S
C68 C73 1.399 . S
C69 C65 1.404 . S
C69 H70 0.950 . S
C69 C71 1.375 . S
H70 C69 0.950 . S
C71 C69 1.375 . S
C71 C73 1.382 . S
C71 H75 0.950 . S
H72 C67 0.949 . S
C73 C68 1.399 . S
C73 C71 1.382 . S
C73 H74 0.952 . S
H74 C73 0.952 . S
H75 C71 0.950 . S
H76 C77 0.949 . S
C77 H76 0.949 . S
C77 C78 1.395 . S
C77 C79 1.391 . S
C78 C77 1.395 . S
C78 C81 1.390 . S
C79 C77 1.391 . S
C79 C83 1.387 . S
C79 C84 1.491 . S
H80 C81 0.953 . S
C81 C78 1.390 . S
C81 H80 0.953 . S
C81 C82 1.378 . S
C82 C81 1.378 . S
C82 C83 1.409 . S
C83 C79 1.387 . S
C83 C82 1.409 . S
C83 H85 0.951 . S
C84 C79 1.491 . S
C84 C86 1.382 . S
C84 C88 1.404 . S
H85 C83 0.951 . S
C86 C84 1.382 . S
C86 C87 1.390 . S
C86 H91 0.949 . S
C87 C86 1.390 . S
C87 C92 1.399 . S
C88 C84 1.404 . S
C88 H89 0.950 . S
C88 C90 1.375 . S
H89 C88 0.950 . S
C90 C88 1.375 . S
C90 C92 1.382 . S
C90 H94 0.950 . S
H91 C86 0.949 . S
C92 C87 1.399 . S
C92 C90 1.382 . S
C92 H93 0.952 . S
H93 C92 0.952 . S
H94 C90 0.950 . S
H95 C96 0.949 . S
C96 H95 0.949 . S
C96 C97 1.395 . S
C96 C98 1.391 . S
C97 C96 1.395 . S
C97 C100 1.390 . S
C98 C96 1.391 . S
C98 C102 1.387 . S
C98 C103 1.491 . S
H99 C100 0.950 . S
C100 C97 1.390 . S
C100 H99 0.950 . S
C100 C101 1.378 . S
C101 C100 1.378 . S
C101 C102 1.409 . S
C102 C98 1.387 . S
C102 C101 1.409 . S
C102 H104 0.951 . S
C103 C98 1.491 . S
C103 C105 1.382 . S
C103 C107 1.404 . S
H104 C102 0.951 . S
C105 C103 1.382 . S
C105 C106 1.390 . S
C105 H110 0.949 . S
C106 C105 1.390 . S
C106 C111 1.399 . S
C107 C103 1.404 . S
C107 H108 0.950 . S
C107 C109 1.375 . S
H108 C107 0.950 . S
C109 C107 1.375 . S
C109 C111 1.382 . S
C109 H113 0.950 . S
H110 C105 0.949 . S
C111 C106 1.399 . S
C111 C109 1.382 . S
C111 H112 0.952 . S
H112 C111 0.952 . S
H113 C109 0.950 . S
H114 C115 0.949 . S
C115 H114 0.949 . S
C115 C116 1.395 . S
C115 C117 1.391 . S
C116 C115 1.395 . S
C116 C119 1.390 . S
C117 C115 1.391 . S
C117 C121 1.387 . S
C117 C122 1.491 . S
H118 C119 0.950 . S
C119 C116 1.390 . S
C119 H118 0.950 . S
C119 C120 1.378 . S
C120 C119 1.378 . S
C120 C121 1.409 . S
C121 C117 1.387 . S
C121 C120 1.409 . S
C121 H123 0.951 . S
C122 C117 1.491 . S
C122 C124 1.382 . S
C122 C126 1.404 . S
H123 C121 0.951 . S
C124 C122 1.382 . S
C124 C125 1.393 . S
C124 H129 0.949 1_655 S
C125 C124 1.393 . S
C125 C130 1.405 . S
C126 C122 1.404 . S
C126 H127 0.950 . S
C126 C128 1.375 . S
H127 C126 0.950 . S
C128 C126 1.375 . S
C128 C130 1.382 . S
C128 H132 0.950 . S
H129 C124 0.949 1_455 S
C130 C125 1.405 . S
C130 C128 1.382 . S
C130 H131 0.952 . S
H131 C130 0.952 . S
H132 C128 0.950 . S
H133 C134 0.949 . S
C134 H133 0.949 . S
C134 C135 1.395 . S
C134 C136 1.391 . S
C135 C134 1.395 . S
C135 C138 1.390 . S
C136 C134 1.391 . S
C136 C140 1.387 . S
C136 C141 1.491 . S
H137 C138 0.950 . S
C138 C135 1.390 . S
C138 H137 0.950 . S
C138 C139 1.378 . S
C139 C138 1.378 . S
C139 C140 1.409 . S
C140 C136 1.387 . S
C140 C139 1.409 . S
C140 H142 0.951 . S
C141 C136 1.491 . S
C141 C143 1.382 . S
C141 C145 1.404 . S
H142 C140 0.951 . S
C143 C141 1.382 . S
C143 C144 1.390 . S
C143 H148 0.949 . S
C144 C143 1.390 . S
C144 C149 1.399 . S
C145 C141 1.404 . S
C145 H146 0.950 . S
C145 C147 1.375 . S
H146 C145 0.950 . S
C147 C145 1.375 . S
C147 C149 1.382 . S
C147 H151 0.950 . S
H148 C143 0.949 . S
C149 C144 1.399 . S
C149 C147 1.382 . S
C149 H150 0.952 . S
H150 C149 0.952 . S
H151 C147 0.950 . S
H152 C153 0.949 . S
C153 H152 0.949 . S
C153 C154 1.395 . S
C153 C155 1.391 . S
C154 C153 1.395 . S
C154 C157 1.390 . S
C155 C153 1.391 . S
C155 C159 1.387 . S
C155 C160 1.491 . S
H156 C157 0.950 . S
C157 C154 1.390 . S
C157 H156 0.950 . S
C157 C158 1.378 . S
C158 C157 1.378 . S
C158 C159 1.409 . S
C159 C155 1.387 . S
C159 C158 1.409 . S
C159 H161 0.951 . S
C160 C155 1.491 . S
C160 C162 1.382 . S
C160 C164 1.404 . S
H161 C159 0.951 . S
C162 C160 1.382 . S
C162 C163 1.390 . S
C162 H167 0.949 . S
C163 C162 1.390 . S
C163 C168 1.399 . S
C164 C160 1.404 . S
C164 H165 0.950 . S
C164 C166 1.375 . S
H165 C164 0.950 . S
C166 C164 1.375 . S
C166 C168 1.382 . S
C166 H170 0.950 . S
H167 C162 0.949 . S
C168 C163 1.399 . S
C168 C166 1.382 . S
C168 H169 0.952 . S
H169 C168 0.952 . S
H170 C166 0.950 . S
H171 C172 0.949 . S
C172 H171 0.949 . S
C172 C173 1.395 . S
C172 C174 1.391 . S
C173 C172 1.395 . S
C173 C176 1.390 . S
C174 C172 1.391 . S
C174 C178 1.387 . S
C174 C179 1.491 . S
H175 C176 0.950 . S
C176 C173 1.390 . S
C176 H175 0.950 . S
C176 C177 1.378 . S
C177 C176 1.378 . S
C177 C178 1.409 . S
C178 C174 1.387 . S
C178 C177 1.409 . S
C178 H180 0.951 . S
C179 C174 1.491 . S
C179 C181 1.382 . S
C179 C183 1.404 . S
H180 C178 0.951 . S
C181 C179 1.382 . S
C181 C182 1.390 . S
C181 H186 0.949 . S
C182 C181 1.390 . S
C182 C187 1.399 . S
C183 C179 1.404 . S
C183 H184 0.950 . S
C183 C185 1.375 . S
H184 C183 0.950 . S
C185 C183 1.375 . S
C185 C187 1.382 . S
C185 H189 0.950 . S
H186 C181 0.949 . S
C187 C182 1.399 . S
C187 C185 1.382 . S
C187 H188 0.952 . S
H188 C187 0.952 . S
H189 C185 0.950 . S
H190 C191 0.949 . S
C191 H190 0.949 . S
C191 C192 1.395 . S
C191 C193 1.391 . S
C192 C191 1.395 . S
C192 C195 1.390 . S
C193 C191 1.391 . S
C193 C197 1.387 . S
C193 C198 1.491 . S
H194 C195 0.950 . S
C195 C192 1.390 . S
C195 H194 0.950 . S
C195 C196 1.378 . S
C196 C195 1.378 . S
C196 C197 1.409 . S
C197 C193 1.387 . S
C197 C196 1.409 . S
C197 H199 0.951 . S
C198 C193 1.491 . S
C198 C200 1.382 . S
C198 C202 1.404 . S
H199 C197 0.951 . S
C200 C198 1.382 . S
C200 C201 1.390 . S
C200 H205 0.949 . S
C201 C200 1.390 . S
C201 C206 1.399 . S
C202 C198 1.404 . S
C202 H203 0.950 . S
C202 C204 1.375 . S
H203 C202 0.950 . S
C204 C202 1.375 . S
C204 C206 1.382 . S
C204 H208 0.950 . S
H205 C200 0.949 . S
C206 C201 1.399 . S
C206 C204 1.382 . S
C206 H207 0.952 . S
H207 C206 0.952 . S
H208 C204 0.950 . S
H209 C210 0.949 . S
C210 H209 0.949 . S
C210 C211 1.395 . S
C210 C212 1.391 . S
C211 C210 1.395 . S
C211 C214 1.390 . S
C212 C210 1.391 . S
C212 C216 1.387 . S
C212 C217 1.491 . S
H213 C214 0.950 . S
C214 C211 1.390 . S
C214 H213 0.950 . S
C214 C215 1.378 . S
C215 C214 1.378 . S
C215 C216 1.409 . S
C216 C212 1.387 . S
C216 C215 1.409 . S
C216 H218 0.951 . S
C217 C212 1.491 . S
C217 C219 1.382 . S
C217 C221 1.404 . S
H218 C216 0.951 . S
C219 C217 1.382 . S
C219 C220 1.390 . S
C219 H224 0.949 . S
C220 C219 1.390 . S
C220 C225 1.399 . S
C221 C217 1.404 . S
C221 H222 0.950 . S
C221 C223 1.375 . S
H222 C221 0.950 . S
C223 C221 1.375 . S
C223 C225 1.382 . S
C223 H227 0.950 . S
H224 C219 0.949 . S
C225 C220 1.399 . S
C225 C223 1.382 . S
C225 H226 0.952 . S
H226 C225 0.952 . S
H227 C223 0.950 . S
H228 C229 0.949 . S
C229 H228 0.949 . S
C229 C230 1.395 . S
C229 C231 1.391 . S
C230 C229 1.395 . S
C230 C233 1.390 . S
C231 C229 1.391 . S
C231 C235 1.387 . S
C231 C236 1.491 . S
H232 C233 0.950 . S
C233 C230 1.390 . S
C233 H232 0.950 . S
C233 C234 1.378 . S
C234 C233 1.378 . S
C234 C235 1.409 . S
C235 C231 1.387 . S
C235 C234 1.409 . S
C235 H237 0.951 . S
C236 C231 1.491 . S
C236 C238 1.382 . S
C236 C240 1.404 . S
H237 C235 0.951 . S
C238 C236 1.382 . S
C238 C239 1.390 . S
C238 H243 0.949 . S
C239 C238 1.390 . S
C239 C244 1.399 . S
C240 C236 1.404 . S
C240 H241 0.950 . S
C240 C242 1.375 . S
H241 C240 0.950 . S
C242 C240 1.375 . S
C242 C244 1.382 . S
C242 H246 0.950 . S
H243 C238 0.949 . S
C244 C239 1.399 . S
C244 C242 1.382 . S
C244 H245 0.952 . S
H245 C244 0.952 . S
H246 C242 0.950 . S
H247 C248 0.949 1_554 S
C248 H247 0.949 1_556 S
C248 C249 1.395 . S
C248 C250 1.391 . S
C249 C248 1.395 . S
C249 C252 1.390 . S
C250 C248 1.391 . S
C250 C254 1.387 . S
C250 C255 1.491 . S
H251 C252 0.950 . S
C252 C249 1.390 . S
C252 H251 0.950 . S
C252 C253 1.378 . S
C253 C252 1.378 . S
C253 C254 1.409 . S
C254 C250 1.387 . S
C254 C253 1.409 . S
C254 H256 0.951 . S
C255 C250 1.491 . S
C255 C257 1.382 1_556 S
C255 C259 1.404 . S
H256 C254 0.951 . S
C257 C255 1.382 1_554 S
C257 C258 1.390 . S
C257 H262 0.949 . S
C258 C257 1.390 . S
C258 C263 1.399 . S
C259 C255 1.404 . S
C259 H260 0.950 . S
C259 C261 1.375 . S
H260 C259 0.950 . S
C261 C259 1.375 . S
C261 C263 1.382 1_556 S
C261 H265 0.950 . S
H262 C257 0.949 . S
C263 C258 1.399 . S
C263 C261 1.382 1_554 S
C263 H264 0.952 . S
H264 C263 0.952 . S
H265 C261 0.950 . S
H266 C267 0.949 . S
C267 H266 0.949 . S
C267 C268 1.395 . S
C267 C269 1.391 . S
C268 C267 1.395 . S
C268 C271 1.390 . S
C269 C267 1.391 . S
C269 C273 1.387 . S
C269 C274 1.491 . S
H270 C271 0.950 . S
C271 C268 1.390 . S
C271 H270 0.950 . S
C271 C272 1.378 . S
C272 C271 1.378 . S
C272 C273 1.409 . S
C273 C269 1.387 . S
C273 C272 1.409 . S
C273 H275 0.951 . S
C274 C269 1.491 . S
C274 C276 1.382 . S
C274 C278 1.404 . S
H275 C273 0.951 . S
C276 C274 1.382 . S
C276 C277 1.390 . S
C276 H281 0.949 . S
C277 C276 1.390 . S
C277 C282 1.399 . S
C278 C274 1.404 . S
C278 H279 0.950 . S
C278 C280 1.375 . S
H279 C278 0.950 . S
C280 C278 1.375 . S
C280 C282 1.382 . S
C280 H284 0.950 . S
H281 C276 0.949 . S
C282 C277 1.399 . S
C282 C280 1.382 . S
C282 H283 0.952 . S
H283 C282 0.952 . S
H284 C280 0.950 . S
H285 C286 0.949 . S
C286 H285 0.949 . S
C286 C287 1.395 . S
C286 C288 1.391 . S
C287 C286 1.395 . S
C287 C290 1.390 . S
C288 C286 1.391 . S
C288 C292 1.387 . S
C288 C293 1.491 . S
H289 C290 0.950 . S
C290 C287 1.390 . S
C290 H289 0.950 . S
C290 C291 1.378 . S
C291 C290 1.378 . S
C291 C292 1.409 . S
C292 C288 1.387 . S
C292 C291 1.409 . S
C292 H294 0.951 . S
C293 C288 1.491 . S
C293 C295 1.382 . S
C293 C297 1.404 . S
H294 C292 0.951 . S
C295 C293 1.382 . S
C295 C296 1.390 . S
C295 H300 0.949 . S
C296 C295 1.390 . S
C296 C301 1.399 . S
C297 C293 1.404 . S
C297 H298 0.950 . S
C297 C299 1.375 . S
H298 C297 0.950 . S
C299 C297 1.375 . S
C299 C301 1.382 . S
C299 H303 0.950 . S
H300 C295 0.949 . S
C301 C296 1.399 . S
C301 C299 1.382 . S
C301 H302 0.952 . S
H302 C301 0.952 . S
H303 C299 0.950 . S
Mg304 O305 2.028 . S
Mg304 O311 1.986 . S
Mg304 O313 2.114 . S
Mg304 O314 2.251 . S
Mg304 O317 2.010 . S
O305 Mg304 2.028 . S
O305 C308 1.250 . S
O306 Mg307 2.028 . S
O306 C308 1.248 . S
Mg307 O306 2.028 . S
Mg307 O312 2.032 . S
Mg307 O314 2.079 . S
C308 O305 1.250 . S
C308 O306 1.248 . S
C309 O310 1.264 . S
C309 O317 1.249 . S
O310 C309 1.264 . S
O311 Mg304 1.986 . S
O311 C315 1.246 1_554 S
O312 Mg307 2.032 . S
O312 C315 1.259 1_554 S
O313 Mg304 2.114 . S
O313 C316 1.252 . S
O314 Mg304 2.251 . S
O314 Mg307 2.079 . S
O314 C316 1.273 . S
C315 O311 1.246 1_556 S
C315 O312 1.259 1_556 S
C316 O313 1.252 . S
C316 O314 1.273 . S
O317 Mg304 2.010 . S
O317 C309 1.249 . S
Mg318 O319 2.028 . S
Mg318 O325 1.986 . S
Mg318 O327 2.114 . S
Mg318 O328 2.251 . S
Mg318 O331 2.010 . S
O319 Mg318 2.028 . S
O319 C322 1.250 . S
O320 Mg321 2.028 . S
O320 C322 1.248 . S
Mg321 O320 2.028 . S
Mg321 O326 2.032 . S
Mg321 O328 2.079 . S
C322 O319 1.250 . S
C322 O320 1.248 . S
C323 O324 1.264 . S
C323 O331 1.249 . S
O324 C323 1.264 . S
O325 Mg318 1.986 . S
O325 C329 1.246 . S
O326 Mg321 2.032 . S
O326 C329 1.259 . S
O327 Mg318 2.114 . S
O327 C330 1.252 . S
O328 Mg318 2.251 . S
O328 Mg321 2.079 . S
O328 C330 1.273 . S
C329 O325 1.246 . S
C329 O326 1.259 . S
C330 O327 1.252 . S
C330 O328 1.273 . S
O331 Mg318 2.010 . S
O331 C323 1.249 . S
Mg332 O333 2.029 1_554 S
Mg332 O339 1.986 1_554 S
Mg332 O341 2.114 . S
Mg332 O342 2.251 . S
Mg332 O345 2.010 . S
O333 Mg332 2.029 1_556 S
O333 C336 1.250 . S
O334 Mg335 2.024 . S
O334 C336 1.248 . S
Mg335 O334 2.024 . S
Mg335 O340 2.068 . S
Mg335 O342 2.055 1_556 S
C336 O333 1.250 . S
C336 O334 1.248 . S
C337 O338 1.264 . S
C337 O345 1.249 . S
O338 C337 1.264 . S
O339 Mg332 1.986 1_556 S
O339 C343 1.246 . S
O340 Mg335 2.068 . S
O340 C343 1.259 . S
O341 Mg332 2.114 . S
O341 C344 1.252 . S
O342 Mg332 2.251 . S
O342 Mg335 2.055 1_554 S
O342 C344 1.273 . S
C343 O339 1.246 . S
C343 O340 1.259 . S
C344 O341 1.252 . S
C344 O342 1.273 . S
O345 Mg332 2.010 . S
O345 C337 1.249 . S
Mg346 O347 2.028 . S
Mg346 O353 1.986 . S
Mg346 O355 2.114 . S
Mg346 O356 2.251 . S
Mg346 O359 2.010 . S
O347 Mg346 2.028 . S
O347 C350 1.250 1_545 S
O348 Mg349 2.028 . S
O348 C350 1.248 . S
Mg349 O348 2.028 . S
Mg349 O354 2.032 1_565 S
Mg349 O356 2.079 1_565 S
C350 O347 1.250 1_565 S
C350 O348 1.248 . S
C351 O352 1.264 . S
C351 O359 1.249 . S
O352 C351 1.264 . S
O353 Mg346 1.986 . S
O353 C357 1.246 . S
O354 Mg349 2.032 1_545 S
O354 C357 1.259 . S
O355 Mg346 2.114 . S
O355 C358 1.252 . S
O356 Mg346 2.251 . S
O356 Mg349 2.079 1_545 S
O356 C358 1.273 . S
C357 O353 1.246 . S
C357 O354 1.259 . S
C358 O355 1.252 . S
C358 O356 1.273 . S
O359 Mg346 2.010 . S
O359 C351 1.249 . S
Mg360 O361 2.028 . S
Mg360 O367 1.986 . S
Mg360 O369 2.114 . S
Mg360 O370 2.251 . S
Mg360 O373 2.010 . S
O361 Mg360 2.028 . S
O361 C364 1.250 . S
O362 Mg363 2.028 . S
O362 C364 1.248 . S
Mg363 O362 2.028 . S
Mg363 O368 2.032 . S
Mg363 O370 2.079 . S
C364 O361 1.250 . S
C364 O362 1.248 . S
C365 O366 1.264 . S
C365 O373 1.249 . S
O366 C365 1.264 . S
O367 Mg360 1.986 . S
O367 C371 1.246 . S
O368 Mg363 2.032 . S
O368 C371 1.259 . S
O369 Mg360 2.114 . S
O369 C372 1.252 . S
O370 Mg360 2.251 . S
O370 Mg363 2.079 . S
O370 C372 1.273 . S
C371 O367 1.246 . S
C371 O368 1.259 . S
C372 O369 1.252 . S
C372 O370 1.273 . S
O373 Mg360 2.010 . S
O373 C365 1.249 . S
Mg374 O375 2.028 . S
Mg374 O381 1.986 . S
Mg374 O383 2.114 . S
Mg374 O384 2.251 . S
Mg374 O387 2.010 . S
O375 Mg374 2.028 . S
O375 C378 1.250 . S
O376 Mg377 2.028 . S
O376 C378 1.248 . S
Mg377 O376 2.028 . S
Mg377 O382 2.032 . S
Mg377 O384 2.079 . S
C378 O375 1.250 . S
C378 O376 1.248 . S
C379 O380 1.264 . S
C379 O387 1.249 . S
O380 C379 1.264 . S
O381 Mg374 1.986 . S
O381 C385 1.246 . S
O382 Mg377 2.032 . S
O382 C385 1.259 . S
O383 Mg374 2.114 . S
O383 C386 1.252 . S
O384 Mg374 2.251 . S
O384 Mg377 2.079 . S
O384 C386 1.273 . S
C385 O381 1.246 . S
C385 O382 1.259 . S
C386 O383 1.252 . S
C386 O384 1.273 . S
O387 Mg374 2.010 . S
O387 C379 1.249 . S
Mg388 O389 2.028 . S
Mg388 O395 1.986 . S
Mg388 O397 2.114 . S
Mg388 O398 2.251 . S
Mg388 O401 2.010 . S
O389 Mg388 2.028 . S
O389 C392 1.250 . S
O390 Mg391 2.028 . S
O390 C392 1.248 . S
Mg391 O390 2.028 . S
Mg391 O396 2.032 . S
Mg391 O398 2.079 . S
C392 O389 1.250 . S
C392 O390 1.248 . S
C393 O394 1.264 . S
C393 O401 1.249 . S
O394 C393 1.264 . S
O395 Mg388 1.986 . S
O395 C399 1.246 . S
O396 Mg391 2.032 . S
O396 C399 1.259 . S
O397 Mg388 2.114 . S
O397 C400 1.252 . S
O398 Mg388 2.251 . S
O398 Mg391 2.079 . S
O398 C400 1.273 . S
C399 O395 1.246 . S
C399 O396 1.259 . S
C400 O397 1.252 . S
C400 O398 1.273 . S
O401 Mg388 2.010 . S
O401 C393 1.249 . S
Mg402 O403 2.028 . S
Mg402 O409 1.986 1_545 S
Mg402 O411 2.114 . S
Mg402 O412 2.251 . S
Mg402 O415 2.010 . S
O403 Mg402 2.028 . S
O403 C406 1.250 . S
O404 Mg405 2.028 . S
O404 C406 1.248 . S
Mg405 O404 2.028 . S
Mg405 O410 2.032 1_545 S
Mg405 O412 2.079 . S
C406 O403 1.250 . S
C406 O404 1.248 . S
C407 O408 1.264 . S
C407 O415 1.249 . S
O408 C407 1.264 . S
O409 Mg402 1.986 1_565 S
O409 C413 1.246 . S
O410 Mg405 2.032 1_565 S
O410 C413 1.259 . S
O411 Mg402 2.114 . S
O411 C414 1.252 . S
O412 Mg402 2.251 . S
O412 Mg405 2.079 . S
O412 C414 1.273 . S
C413 O409 1.246 . S
C413 O410 1.259 . S
C414 O411 1.252 . S
C414 O412 1.273 . S
O415 Mg402 2.010 . S
O415 C407 1.249 . S
Mg416 O417 2.028 . S
Mg416 O423 1.986 . S
Mg416 O425 2.114 . S
Mg416 O426 2.251 . S
Mg416 O429 2.010 . S
O417 Mg416 2.028 . S
O417 C420 1.250 1_455 S
O418 Mg419 2.028 . S
O418 C420 1.248 . S
Mg419 O418 2.028 . S
Mg419 O424 2.032 . S
Mg419 O426 2.079 1_655 S
C420 O417 1.250 1_655 S
C420 O418 1.248 . S
C421 O422 1.264 . S
C421 O429 1.249 . S
O422 C421 1.264 . S
O423 Mg416 1.986 . S
O423 C427 1.246 . S
O424 Mg419 2.032 . S
O424 C427 1.259 1_655 S
O425 Mg416 2.114 . S
O425 C428 1.252 . S
O426 Mg416 2.251 . S
O426 Mg419 2.079 1_455 S
O426 C428 1.273 . S
C427 O423 1.246 . S
C427 O424 1.259 1_455 S
C428 O425 1.252 . S
C428 O426 1.273 . S
O429 Mg416 2.010 . S
O429 C421 1.249 . S
Mg430 O431 2.028 . S
Mg430 O437 1.986 . S
Mg430 O439 2.114 . S
Mg430 O440 2.251 . S
Mg430 O443 2.010 . S
O431 Mg430 2.028 . S
O431 C434 1.250 . S
O432 Mg433 2.028 . S
O432 C434 1.248 . S
Mg433 O432 2.028 . S
Mg433 O438 2.032 . S
Mg433 O440 2.079 . S
C434 O431 1.250 . S
C434 O432 1.248 . S
C435 O436 1.264 . S
C435 O443 1.249 . S
O436 C435 1.264 . S
O437 Mg430 1.986 . S
O437 C441 1.246 . S
O438 Mg433 2.032 . S
O438 C441 1.259 . S
O439 Mg430 2.114 . S
O439 C442 1.252 . S
O440 Mg430 2.251 . S
O440 Mg433 2.079 . S
O440 C442 1.273 . S
C441 O437 1.246 . S
C441 O438 1.259 . S
C442 O439 1.252 . S
C442 O440 1.273 . S
O443 Mg430 2.010 . S
O443 C435 1.249 . S
Mg444 O445 2.028 1_655 S
Mg444 O451 1.986 1_655 S
Mg444 O453 2.114 . S
Mg444 O454 2.251 1_655 S
Mg444 O457 2.010 . S
O445 Mg444 2.028 1_455 S
O445 C448 1.250 . S
O446 Mg447 2.028 . S
O446 C448 1.248 . S
Mg447 O446 2.028 . S
Mg447 O452 2.032 . S
Mg447 O454 2.079 . S
C448 O445 1.250 . S
C448 O446 1.248 . S
C449 O450 1.264 . S
C449 O457 1.249 . S
O450 C449 1.264 . S
O451 Mg444 1.986 1_455 S
O451 C455 1.246 . S
O452 Mg447 2.032 . S
O452 C455 1.259 . S
O453 Mg444 2.114 . S
O453 C456 1.252 . S
O454 Mg444 2.251 1_455 S
O454 Mg447 2.079 . S
O454 C456 1.273 1_455 S
C455 O451 1.246 . S
C455 O452 1.259 . S
C456 O453 1.252 . S
C456 O454 1.273 1_655 S
O457 Mg444 2.010 . S
O457 C449 1.249 . S
Mg458 O459 2.028 . S
Mg458 O465 1.986 . S
Mg458 O467 2.114 . S
Mg458 O468 2.251 . S
Mg458 O471 2.010 . S
O459 Mg458 2.028 . S
O459 C462 1.250 . S
O460 Mg461 2.028 . S
O460 C462 1.248 . S
Mg461 O460 2.028 . S
Mg461 O466 2.032 . S
Mg461 O468 2.079 . S
C462 O459 1.250 . S
C462 O460 1.248 . S
C463 O464 1.264 . S
C463 O471 1.249 . S
O464 C463 1.264 . S
O465 Mg458 1.986 . S
O465 C469 1.246 . S
O466 Mg461 2.032 . S
O466 C469 1.259 . S
O467 Mg458 2.114 . S
O467 C470 1.252 . S
O468 Mg458 2.251 . S
O468 Mg461 2.079 . S
O468 C470 1.273 . S
C469 O465 1.246 . S
C469 O466 1.259 . S
C470 O467 1.252 . S
C470 O468 1.273 . S
O471 Mg458 2.010 . S
O471 C463 1.249 . S
H472 C490 0.951 . S
H473 C492 0.951 . S
H474 C494 0.950 . S
H475 C495 0.950 . S
H476 C497 0.950 . S
H477 C500 0.950 . S
H478 C501 0.950 . S
H479 C503 0.950 . S
H480 C504 0.950 . S
H481 C505 0.951 . S
H482 C507 0.951 . S
H483 C509 0.950 . S
H484 C510 0.950 . S
H485 C512 0.950 . S
H486 C515 0.950 . S
H487 C516 0.950 . S
H488 C518 0.950 . S
H489 C519 0.950 . S
C490 H472 0.951 . S
C490 C491 1.366 . S
C490 C492 1.388 . S
C491 C490 1.366 . S
C491 C495 1.385 . S
C492 H473 0.951 . S
C492 C490 1.388 . S
C492 C493 1.366 . S
C493 C492 1.366 . S
C493 C494 1.414 . S
C493 C496 1.499 . S
C494 H474 0.950 . S
C494 C493 1.414 . S
C494 C495 1.374 . S
C495 H475 0.950 . S
C495 C491 1.385 . S
C495 C494 1.374 . S
C496 C493 1.499 . S
C496 C497 1.373 . S
C496 C498 1.389 . S
C497 H476 0.950 . S
C497 C496 1.373 . S
C497 C513 1.377 . S
C498 C496 1.389 . S
C498 C499 1.524 . S
C498 C512 1.377 . S
C499 C498 1.524 . S
C499 C500 1.397 . S
C499 C504 1.363 . S
C500 H477 0.950 . S
C500 C499 1.397 . S
C500 C501 1.334 . S
C501 H478 0.950 . S
C501 C500 1.334 . S
C501 C502 1.287 . S
C502 C501 1.287 . S
C502 C503 1.524 . S
C502 H521 0.913 . S
C503 H479 0.950 . S
C503 C502 1.524 . S
C503 C504 1.415 . S
C504 H480 0.950 . S
C504 C499 1.363 . S
C504 C503 1.415 . S
C505 H481 0.951 . S
C505 C506 1.366 . S
C505 C507 1.388 . S
C506 C505 1.366 . S
C506 C510 1.385 . S
C507 H482 0.951 . S
C507 C505 1.388 . S
C507 C508 1.366 . S
C508 C507 1.366 . S
C508 C509 1.414 . S
C508 C511 1.499 . S
C509 H483 0.950 . S
C509 C508 1.414 . S
C509 C510 1.374 . S
C510 H484 0.950 . S
C510 C506 1.385 . S
C510 C509 1.374 . S
C511 C508 1.499 . S
C511 C512 1.373 . S
C511 C513 1.389 . S
C512 H485 0.950 . S
C512 C498 1.377 . S
C512 C511 1.373 . S
C513 C497 1.377 . S
C513 C511 1.389 . S
C513 C514 1.524 . S
C514 C513 1.524 . S
C514 C515 1.397 . S
C514 C519 1.363 . S
C515 H486 0.950 . S
C515 C514 1.397 . S
C515 C516 1.334 . S
C516 H487 0.950 . S
C516 C515 1.334 . S
C516 C517 1.287 . S
C517 C516 1.287 . S
C517 C518 1.524 . S
C517 H520 0.999 . S
C518 H488 0.950 . S
C518 C517 1.524 . S
C518 C519 1.415 . S
C519 H489 0.950 . S
C519 C514 1.363 . S
C519 C518 1.415 . S
H520 C517 0.999 . S
H521 C502 0.913 . S
H522 C540 0.951 1_655 S
H523 C542 0.951 . S
H524 C544 0.950 . S
H525 C545 0.950 . S
H526 C547 0.950 . S
H527 C550 0.950 . S
H528 C551 0.950 . S
H529 C553 0.950 . S
H530 C554 0.950 . S
H531 C555 0.951 . S
H532 C557 0.951 . S
H533 C559 0.950 . S
H534 C560 0.950 . S
H535 C562 0.950 . S
H536 C565 0.950 . S
H537 C566 0.950 . S
H538 C568 0.950 . S
H539 C569 0.950 . S
C540 H522 0.951 1_455 S
C540 C541 1.366 . S
C540 C542 1.388 . S
C541 C540 1.366 . S
C541 C545 1.385 . S
C542 H523 0.951 . S
C542 C540 1.388 . S
C542 C543 1.366 . S
C543 C542 1.366 . S
C543 C544 1.414 . S
C543 C546 1.499 . S
C544 H524 0.950 . S
C544 C543 1.414 . S
C544 C545 1.374 . S
C545 H525 0.950 . S
C545 C541 1.385 . S
C545 C544 1.374 . S
C546 C543 1.499 . S
C546 C547 1.373 . S
C546 C548 1.389 . S
C547 H526 0.950 . S
C547 C546 1.373 . S
C547 C563 1.377 . S
C548 C546 1.389 . S
C548 C549 1.524 . S
C548 C562 1.377 . S
C549 C548 1.524 . S
C549 C550 1.397 . S
C549 C554 1.363 . S
C550 H527 0.950 . S
C550 C549 1.397 . S
C550 C551 1.334 1_455 S
C551 H528 0.950 . S
C551 C550 1.334 1_655 S
C551 C552 1.287 . S
C552 C551 1.287 . S
C552 C553 1.524 . S
C552 H571 0.913 . S
C553 H529 0.950 . S
C553 C552 1.524 . S
C553 C554 1.415 1_655 S
C554 H530 0.950 . S
C554 C549 1.363 . S
C554 C553 1.415 1_455 S
C555 H531 0.951 . S
C555 C556 1.366 . S
C555 C557 1.388 . S
C556 C555 1.366 . S
C556 C560 1.385 . S
C557 H532 0.951 . S
C557 C555 1.388 . S
C557 C558 1.366 . S
C558 C557 1.366 . S
C558 C559 1.414 . S
C558 C561 1.499 . S
C559 H533 0.950 . S
C559 C558 1.414 . S
C559 C560 1.374 . S
C560 H534 0.950 . S
C560 C556 1.385 . S
C560 C559 1.374 . S
C561 C558 1.499 . S
C561 C562 1.373 . S
C561 C563 1.389 . S
C562 H535 0.950 . S
C562 C548 1.377 . S
C562 C561 1.373 . S
C563 C547 1.377 . S
C563 C561 1.389 . S
C563 C564 1.524 . S
C564 C563 1.524 . S
C564 C565 1.397 . S
C564 C569 1.363 . S
C565 H536 0.950 . S
C565 C564 1.397 . S
C565 C566 1.334 . S
C566 H537 0.950 . S
C566 C565 1.334 . S
C566 C567 1.287 . S
C567 C566 1.287 . S
C567 C568 1.524 . S
C567 H570 0.999 . S
C568 H538 0.950 . S
C568 C567 1.524 . S
C568 C569 1.415 . S
C569 H539 0.950 . S
C569 C564 1.363 . S
C569 C568 1.415 . S
H570 C567 0.999 . S
H571 C552 0.913 . S
H572 C590 0.951 . S
H573 C592 0.951 . S
H574 C594 0.950 . S
H575 C595 0.950 . S
H576 C597 0.950 . S
H577 C600 0.950 . S
H578 C601 0.950 . S
H579 C603 0.950 . S
H580 C604 0.950 . S
H581 C605 0.951 . S
H582 C607 0.951 . S
H583 C609 0.950 . S
H584 C610 0.950 . S
H585 C612 0.950 . S
H586 C615 0.950 . S
H587 C616 0.950 . S
H588 C618 0.950 . S
H589 C619 0.950 . S
C590 H572 0.951 . S
C590 C591 1.366 . S
C590 C592 1.388 . S
C591 C590 1.366 . S
C591 C595 1.385 . S
C592 H573 0.951 . S
C592 C590 1.388 . S
C592 C593 1.366 . S
C593 C592 1.366 . S
C593 C594 1.414 . S
C593 C596 1.499 . S
C594 H574 0.950 . S
C594 C593 1.414 . S
C594 C595 1.374 . S
C595 H575 0.950 . S
C595 C591 1.385 . S
C595 C594 1.374 . S
C596 C593 1.499 . S
C596 C597 1.373 . S
C596 C598 1.389 . S
C597 H576 0.950 . S
C597 C596 1.373 . S
C597 C613 1.377 . S
C598 C596 1.389 . S
C598 C599 1.524 . S
C598 C612 1.377 . S
C599 C598 1.524 . S
C599 C600 1.397 . S
C599 C604 1.363 . S
C600 H577 0.950 . S
C600 C599 1.397 . S
C600 C601 1.334 . S
C601 H578 0.950 . S
C601 C600 1.334 . S
C601 C602 1.287 . S
C602 C601 1.287 . S
C602 C603 1.524 . S
C602 H621 0.913 . S
C603 H579 0.950 . S
C603 C602 1.524 . S
C603 C604 1.415 . S
C604 H580 0.950 . S
C604 C599 1.363 . S
C604 C603 1.415 . S
C605 H581 0.951 . S
C605 C606 1.366 . S
C605 C607 1.388 . S
C606 C605 1.366 . S
C606 C610 1.385 . S
C607 H582 0.951 . S
C607 C605 1.388 . S
C607 C608 1.366 . S
C608 C607 1.366 . S
C608 C609 1.414 . S
C608 C611 1.499 . S
C609 H583 0.950 . S
C609 C608 1.414 . S
C609 C610 1.374 . S
C610 H584 0.950 . S
C610 C606 1.385 . S
C610 C609 1.374 . S
C611 C608 1.499 . S
C611 C612 1.373 . S
C611 C613 1.389 . S
C612 H585 0.950 . S
C612 C598 1.377 . S
C612 C611 1.373 . S
C613 C597 1.377 . S
C613 C611 1.389 . S
C613 C614 1.524 . S
C614 C613 1.524 . S
C614 C615 1.397 . S
C614 C619 1.363 . S
C615 H586 0.950 . S
C615 C614 1.397 . S
C615 C616 1.334 . S
C616 H587 0.950 . S
C616 C615 1.334 . S
C616 C617 1.287 . S
C617 C616 1.287 . S
C617 C618 1.524 . S
C617 H620 0.999 . S
C618 H588 0.950 . S
C618 C617 1.524 . S
C618 C619 1.415 . S
C619 H589 0.950 . S
C619 C614 1.363 . S
C619 C618 1.415 . S
H620 C617 0.999 . S
H621 C602 0.913 . S
H622 C640 0.935 1_545 S
H623 C642 0.926 1_545 S
H624 C644 0.950 . S
H625 C645 0.950 . S
H626 C647 0.950 . S
H627 C650 0.950 . S
H628 C651 0.950 . S
H629 C653 0.950 . S
H630 C654 0.950 1_545 S
H631 C655 0.951 . S
H632 C657 0.951 1_565 S
H633 C659 0.950 . S
H634 C660 0.950 . S
H635 C662 0.947 1_655 S
H636 C665 0.950 . S
H637 C666 0.950 . S
H638 C668 0.950 . S
H639 C669 0.950 1_565 S
C640 H622 0.935 1_565 S
C640 C641 1.366 . S
C640 C642 1.402 . S
C641 C640 1.366 . S
C641 C645 1.385 . S
C642 H623 0.926 1_565 S
C642 C640 1.402 . S
C642 C643 1.377 . S
C643 C642 1.377 . S
C643 C644 1.414 . S
C643 C646 1.499 . S
C644 H624 0.950 . S
C644 C643 1.414 . S
C644 C645 1.374 . S
C645 H625 0.950 . S
C645 C641 1.385 . S
C645 C644 1.374 . S
C646 C643 1.499 . S
C646 C647 1.373 1_565 S
C646 C648 1.389 . S
C647 H626 0.950 . S
C647 C646 1.373 1_545 S
C647 C663 1.377 . S
C648 C646 1.389 . S
C648 C649 1.524 . S
C648 C662 1.377 1_565 S
C649 C648 1.524 . S
C649 C650 1.397 . S
C649 C654 1.363 1_455 S
C650 H627 0.950 . S
C650 C649 1.397 . S
C650 C651 1.334 1_455 S
C651 H628 0.950 . S
C651 C650 1.334 1_655 S
C651 C652 1.287 . S
C652 C651 1.287 . S
C652 C653 1.524 . S
C652 H671 0.913 . S
C653 H629 0.950 . S
C653 C652 1.524 . S
C653 C654 1.415 . S
C654 H630 0.950 1_565 S
C654 C649 1.363 1_655 S
C654 C653 1.415 . S
C655 H631 0.951 . S
C655 C656 1.366 1_455 S
C655 C657 1.388 . S
C656 C655 1.366 1_655 S
C656 C660 1.385 . S
C657 H632 0.951 1_545 S
C657 C655 1.388 . S
C657 C658 1.366 . S
C658 C657 1.366 . S
C658 C659 1.414 1_455 S
C658 C661 1.499 . S
C659 H633 0.950 . S
C659 C658 1.414 1_655 S
C659 C660 1.374 . S
C660 H634 0.950 . S
C660 C656 1.385 . S
C660 C659 1.374 . S
C661 C658 1.499 . S
C661 C662 1.373 . S
C661 C663 1.389 . S
C662 H635 0.947 1_455 S
C662 C648 1.377 1_545 S
C662 C661 1.373 . S
C663 C647 1.377 . S
C663 C661 1.389 . S
C663 C664 1.524 . S
C664 C663 1.524 . S
C664 C665 1.397 . S
C664 C669 1.363 . S
C665 H636 0.950 . S
C665 C664 1.397 . S
C665 C666 1.334 . S
C666 H637 0.950 . S
C666 C665 1.334 . S
C666 C667 1.287 . S
C667 C666 1.287 . S
C667 C668 1.524 . S
C667 H670 0.999 . S
C668 H638 0.950 . S
C668 C667 1.524 . S
C668 C669 1.415 . S
C669 H639 0.950 1_545 S
C669 C664 1.363 . S
C669 C668 1.415 . S
H670 C667 0.999 . S
H671 C652 0.913 . S
H672 C690 0.951 . S
H673 C692 0.951 . S
H674 C694 0.950 . S
H675 C695 0.950 . S
H676 C697 0.950 . S
H677 C700 0.950 . S
H678 C701 0.950 . S
H679 C703 0.950 . S
H680 C704 0.950 . S
H681 C705 0.951 . S
H682 C707 0.951 . S
H683 C709 0.950 . S
H684 C710 0.950 . S
H685 C712 0.950 . S
H686 C715 0.950 . S
H687 C716 0.950 . S
H688 C718 0.950 . S
H689 C719 0.950 . S
C690 H672 0.951 . S
C690 C691 1.366 . S
C690 C692 1.388 . S
C691 C690 1.366 . S
C691 C695 1.385 . S
C692 H673 0.951 . S
C692 C690 1.388 . S
C692 C693 1.366 . S
C693 C692 1.366 . S
C693 C694 1.414 . S
C693 C696 1.499 . S
C694 H674 0.950 . S
C694 C693 1.414 . S
C694 C695 1.374 . S
C695 H675 0.950 . S
C695 C691 1.385 . S
C695 C694 1.374 . S
C696 C693 1.499 . S
C696 C697 1.373 . S
C696 C698 1.389 . S
C697 H676 0.950 . S
C697 C696 1.373 . S
C697 C713 1.377 . S
C698 C696 1.389 . S
C698 C699 1.524 . S
C698 C712 1.377 . S
C699 C698 1.524 . S
C699 C700 1.397 . S
C699 C704 1.363 . S
C700 H677 0.950 . S
C700 C699 1.397 . S
C700 C701 1.334 . S
C701 H678 0.950 . S
C701 C700 1.334 . S
C701 C702 1.287 . S
C702 C701 1.287 . S
C702 C703 1.524 . S
C702 H721 0.913 . S
C703 H679 0.950 . S
C703 C702 1.524 . S
C703 C704 1.415 . S
C704 H680 0.950 . S
C704 C699 1.363 . S
C704 C703 1.415 . S
C705 H681 0.951 . S
C705 C706 1.366 . S
C705 C707 1.388 . S
C706 C705 1.366 . S
C706 C710 1.385 . S
C707 H682 0.951 . S
C707 C705 1.388 . S
C707 C708 1.366 . S
C708 C707 1.366 . S
C708 C709 1.414 . S
C708 C711 1.499 . S
C709 H683 0.950 . S
C709 C708 1.414 . S
C709 C710 1.374 . S
C710 H684 0.950 . S
C710 C706 1.385 . S
C710 C709 1.374 . S
C711 C708 1.499 . S
C711 C712 1.373 . S
C711 C713 1.389 . S
C712 H685 0.950 . S
C712 C698 1.377 . S
C712 C711 1.373 . S
C713 C697 1.377 . S
C713 C711 1.389 . S
C713 C714 1.524 . S
C714 C713 1.524 . S
C714 C715 1.397 . S
C714 C719 1.363 . S
C715 H686 0.950 . S
C715 C714 1.397 . S
C715 C716 1.334 . S
C716 H687 0.950 . S
C716 C715 1.334 . S
C716 C717 1.287 . S
C717 C716 1.287 . S
C717 C718 1.524 . S
C717 H720 0.999 . S
C718 H688 0.950 . S
C718 C717 1.524 . S
C718 C719 1.415 . S
C719 H689 0.950 . S
C719 C714 1.363 . S
C719 C718 1.415 . S
H720 C717 0.999 . S
H721 C702 0.913 . S
H722 C740 0.951 . S
H723 C742 0.951 . S
H724 C744 0.950 . S
H725 C745 0.950 . S
H726 C747 0.950 . S
H727 C750 0.950 . S
H728 C751 0.950 . S
H729 C753 0.950 . S
H730 C754 0.950 . S
H731 C755 0.951 . S
H732 C757 0.951 . S
H733 C759 0.950 . S
H734 C760 0.950 . S
H735 C762 0.950 . S
H736 C765 0.950 . S
H737 C766 0.950 . S
H738 C768 0.950 . S
H739 C769 0.950 . S
C740 H722 0.951 . S
C740 C741 1.366 . S
C740 C742 1.388 . S
C741 C740 1.366 . S
C741 C745 1.385 . S
C742 H723 0.951 . S
C742 C740 1.388 . S
C742 C743 1.366 . S
C743 C742 1.366 . S
C743 C744 1.414 . S
C743 C746 1.499 . S
C744 H724 0.950 . S
C744 C743 1.414 . S
C744 C745 1.374 . S
C745 H725 0.950 . S
C745 C741 1.385 . S
C745 C744 1.374 . S
C746 C743 1.499 . S
C746 C747 1.373 . S
C746 C748 1.389 . S
C747 H726 0.950 . S
C747 C746 1.373 . S
C747 C763 1.377 . S
C748 C746 1.389 . S
C748 C749 1.524 . S
C748 C762 1.377 . S
C749 C748 1.524 . S
C749 C750 1.397 . S
C749 C754 1.363 . S
C750 H727 0.950 . S
C750 C749 1.397 . S
C750 C751 1.334 . S
C751 H728 0.950 . S
C751 C750 1.334 . S
C751 C752 1.287 . S
C752 C751 1.287 . S
C752 C753 1.524 . S
C752 H771 0.913 . S
C753 H729 0.950 . S
C753 C752 1.524 . S
C753 C754 1.415 . S
C754 H730 0.950 . S
C754 C749 1.363 . S
C754 C753 1.415 . S
C755 H731 0.951 . S
C755 C756 1.366 . S
C755 C757 1.388 . S
C756 C755 1.366 . S
C756 C760 1.385 . S
C757 H732 0.951 . S
C757 C755 1.388 . S
C757 C758 1.366 . S
C758 C757 1.366 . S
C758 C759 1.414 . S
C758 C761 1.499 . S
C759 H733 0.950 . S
C759 C758 1.414 . S
C759 C760 1.374 . S
C760 H734 0.950 . S
C760 C756 1.385 . S
C760 C759 1.374 . S
C761 C758 1.499 . S
C761 C762 1.373 . S
C761 C763 1.389 . S
C762 H735 0.950 . S
C762 C748 1.377 . S
C762 C761 1.373 . S
C763 C747 1.377 . S
C763 C761 1.389 . S
C763 C764 1.524 . S
C764 C763 1.524 . S
C764 C765 1.397 . S
C764 C769 1.363 . S
C765 H736 0.950 . S
C765 C764 1.397 . S
C765 C766 1.334 . S
C766 H737 0.950 . S
C766 C765 1.334 . S
C766 C767 1.287 . S
C767 C766 1.287 . S
C767 C768 1.524 . S
C767 H770 0.999 . S
C768 H738 0.950 . S
C768 C767 1.524 . S
C768 C769 1.415 . S
C769 H739 0.950 . S
C769 C764 1.363 . S
C769 C768 1.415 . S
H770 C767 0.999 . S
H771 C752 0.913 . S
H772 C790 0.951 . S
H773 C792 0.951 . S
H774 C794 0.950 . S
H775 C795 0.950 . S
H776 C797 0.950 . S
H777 C800 0.950 . S
H778 C801 0.950 . S
H779 C803 0.950 . S
H780 C804 0.950 . S
H781 C805 0.951 . S
H782 C807 0.951 . S
H783 C809 0.950 . S
H784 C810 0.950 . S
H785 C812 0.950 . S
H786 C815 0.950 . S
H787 C816 0.950 . S
H788 C818 0.950 . S
H789 C819 0.950 . S
C790 H772 0.951 . S
C790 C791 1.366 . S
C790 C792 1.388 . S
C791 C790 1.366 . S
C791 C795 1.385 . S
C792 H773 0.951 . S
C792 C790 1.388 . S
C792 C793 1.366 . S
C793 C792 1.366 . S
C793 C794 1.414 . S
C793 C796 1.499 . S
C794 H774 0.950 . S
C794 C793 1.414 . S
C794 C795 1.374 . S
C795 H775 0.950 . S
C795 C791 1.385 . S
C795 C794 1.374 . S
C796 C793 1.499 . S
C796 C797 1.373 . S
C796 C798 1.389 . S
C797 H776 0.950 . S
C797 C796 1.373 . S
C797 C813 1.377 . S
C798 C796 1.389 . S
C798 C799 1.524 . S
C798 C812 1.377 . S
C799 C798 1.524 . S
C799 C800 1.397 . S
C799 C804 1.363 . S
C800 H777 0.950 . S
C800 C799 1.397 . S
C800 C801 1.334 . S
C801 H778 0.950 . S
C801 C800 1.334 . S
C801 C802 1.287 . S
C802 C801 1.287 . S
C802 C803 1.524 . S
C802 H821 0.913 . S
C803 H779 0.950 . S
C803 C802 1.524 . S
C803 C804 1.415 . S
C804 H780 0.950 . S
C804 C799 1.363 . S
C804 C803 1.415 . S
C805 H781 0.951 . S
C805 C806 1.366 . S
C805 C807 1.388 . S
C806 C805 1.366 . S
C806 C810 1.385 . S
C807 H782 0.951 . S
C807 C805 1.388 . S
C807 C808 1.366 . S
C808 C807 1.366 . S
C808 C809 1.414 . S
C808 C811 1.499 . S
C809 H783 0.950 . S
C809 C808 1.414 . S
C809 C810 1.374 . S
C810 H784 0.950 . S
C810 C806 1.385 . S
C810 C809 1.374 . S
C811 C808 1.499 . S
C811 C812 1.373 . S
C811 C813 1.389 . S
C812 H785 0.950 . S
C812 C798 1.377 . S
C812 C811 1.373 . S
C813 C797 1.377 . S
C813 C811 1.389 . S
C813 C814 1.524 . S
C814 C813 1.524 . S
C814 C815 1.397 . S
C814 C819 1.363 . S
C815 H786 0.950 . S
C815 C814 1.397 . S
C815 C816 1.334 . S
C816 H787 0.950 . S
C816 C815 1.334 . S
C816 C817 1.287 . S
C817 C816 1.287 . S
C817 C818 1.524 . S
C817 H820 0.999 . S
C818 H788 0.950 . S
C818 C817 1.524 . S
C818 C819 1.415 . S
C819 H789 0.950 . S
C819 C814 1.363 . S
C819 C818 1.415 . S
H820 C817 0.999 . S
H821 C802 0.913 . S
H822 C840 0.951 1_545 S
H823 C842 0.898 1_545 S
H824 C844 0.950 . S
H825 C845 0.950 . S
H826 C847 0.950 . S
H827 C850 0.950 . S
H828 C851 0.950 1_565 S
H829 C853 0.950 . S
H830 C854 0.950 . S
H831 C855 0.951 . S
H832 C857 0.951 . S
H833 C859 0.950 . S
H834 C860 0.950 . S
H835 C862 0.950 . S
H836 C865 0.950 . S
H837 C866 0.950 . S
H838 C868 0.950 . S
H839 C869 0.950 . S
C840 H822 0.951 1_565 S
C840 C841 1.366 . S
C840 C842 1.388 . S
C841 C840 1.366 . S
C841 C845 1.385 . S
C842 H823 0.898 1_565 S
C842 C840 1.388 . S
C842 C843 1.420 . S
C843 C842 1.420 . S
C843 C844 1.414 . S
C843 C846 1.499 . S
C844 H824 0.950 . S
C844 C843 1.414 . S
C844 C845 1.374 . S
C845 H825 0.950 . S
C845 C841 1.385 . S
C845 C844 1.374 . S
C846 C843 1.499 . S
C846 C847 1.373 . S
C846 C848 1.371 1_565 S
C847 H826 0.950 . S
C847 C846 1.373 . S
C847 C863 1.377 . S
C848 C846 1.371 1_545 S
C848 C849 1.542 . S
C848 C862 1.378 . S
C849 C848 1.542 . S
C849 C850 1.397 1_545 S
C849 C854 1.363 . S
C850 H827 0.950 . S
C850 C849 1.397 1_565 S
C850 C851 1.334 1_565 S
C851 H828 0.950 1_545 S
C851 C850 1.334 1_545 S
C851 C852 1.287 . S
C852 C851 1.287 . S
C852 C853 1.524 . S
C852 H871 0.913 . S
C853 H829 0.950 . S
C853 C852 1.524 . S
C853 C854 1.415 . S
C854 H830 0.950 . S
C854 C849 1.363 . S
C854 C853 1.415 . S
C855 H831 0.951 . S
C855 C856 1.366 1_565 S
C855 C857 1.388 . S
C856 C855 1.366 1_545 S
C856 C860 1.385 . S
C857 H832 0.951 . S
C857 C855 1.388 . S
C857 C858 1.366 . S
C858 C857 1.366 . S
C858 C859 1.414 1_565 S
C858 C861 1.499 . S
C859 H833 0.950 . S
C859 C858 1.414 1_545 S
C859 C860 1.374 . S
C860 H834 0.950 . S
C860 C856 1.385 . S
C860 C859 1.374 . S
C861 C858 1.499 . S
C861 C862 1.373 1_565 S
C861 C863 1.389 . S
C862 H835 0.950 . S
C862 C848 1.378 . S
C862 C861 1.373 1_545 S
C863 C847 1.377 . S
C863 C861 1.389 . S
C863 C864 1.524 . S
C864 C863 1.524 . S
C864 C865 1.397 . S
C864 C869 1.363 . S
C865 H836 0.950 . S
C865 C864 1.397 . S
C865 C866 1.334 . S
C866 H837 0.950 . S
C866 C865 1.334 . S
C866 C867 1.287 . S
C867 C866 1.287 . S
C867 C868 1.524 . S
C867 H870 0.999 . S
C868 H838 0.950 . S
C868 C867 1.524 . S
C868 C869 1.415 . S
C869 H839 0.950 . S
C869 C864 1.363 . S
C869 C868 1.415 . S
H870 C867 0.999 . S
H871 C852 0.913 . S
H872 C890 0.951 . S
H873 C892 0.951 . S
H874 C894 0.950 . S
H875 C895 0.950 . S
H876 C897 0.950 . S
H877 C900 0.950 . S
H878 C901 0.950 . S
H879 C903 0.950 . S
H880 C904 0.950 . S
H881 C905 0.951 . S
H882 C907 0.951 . S
H883 C909 0.950 . S
H884 C910 0.950 . S
H885 C912 0.950 . S
H886 C915 0.950 . S
H887 C916 0.950 . S
H888 C918 0.950 . S
H889 C919 0.950 . S
C890 H872 0.951 . S
C890 C891 1.366 . S
C890 C892 1.388 . S
C891 C890 1.366 . S
C891 C895 1.385 . S
C892 H873 0.951 . S
C892 C890 1.388 . S
C892 C893 1.366 . S
C893 C892 1.366 . S
C893 C894 1.414 . S
C893 C896 1.499 . S
C894 H874 0.950 . S
C894 C893 1.414 . S
C894 C895 1.374 . S
C895 H875 0.950 . S
C895 C891 1.385 . S
C895 C894 1.374 . S
C896 C893 1.499 . S
C896 C897 1.373 . S
C896 C898 1.389 . S
C897 H876 0.950 . S
C897 C896 1.373 . S
C897 C913 1.377 . S
C898 C896 1.389 . S
C898 C899 1.524 . S
C898 C912 1.377 . S
C899 C898 1.524 . S
C899 C900 1.397 . S
C899 C904 1.363 . S
C900 H877 0.950 . S
C900 C899 1.397 . S
C900 C901 1.334 . S
C901 H878 0.950 . S
C901 C900 1.334 . S
C901 C902 1.287 . S
C902 C901 1.287 . S
C902 C903 1.524 . S
C902 H921 0.913 . S
C903 H879 0.950 . S
C903 C902 1.524 . S
C903 C904 1.415 . S
C904 H880 0.950 . S
C904 C899 1.363 . S
C904 C903 1.415 . S
C905 H881 0.951 . S
C905 C906 1.366 . S
C905 C907 1.388 . S
C906 C905 1.366 . S
C906 C910 1.385 . S
C907 H882 0.951 . S
C907 C905 1.388 . S
C907 C908 1.366 . S
C908 C907 1.366 . S
C908 C909 1.414 . S
C908 C911 1.499 . S
C909 H883 0.950 . S
C909 C908 1.414 . S
C909 C910 1.374 . S
C910 H884 0.950 . S
C910 C906 1.385 . S
C910 C909 1.374 . S
C911 C908 1.499 . S
C911 C912 1.373 . S
C911 C913 1.389 . S
C912 H885 0.950 . S
C912 C898 1.377 . S
C912 C911 1.373 . S
C913 C897 1.377 . S
C913 C911 1.389 . S
C913 C914 1.524 . S
C914 C913 1.524 . S
C914 C915 1.397 . S
C914 C919 1.363 . S
C915 H886 0.950 . S
C915 C914 1.397 . S
C915 C916 1.334 . S
C916 H887 0.950 . S
C916 C915 1.334 . S
C916 C917 1.287 . S
C917 C916 1.287 . S
C917 C918 1.524 . S
C917 H920 0.999 . S
C918 H888 0.950 . S
C918 C917 1.524 . S
C918 C919 1.415 . S
C919 H889 0.950 . S
C919 C914 1.363 . S
C919 C918 1.415 . S
H920 C917 0.999 . S
H921 C902 0.913 . S
H922 C940 0.951 . S
H923 C942 0.951 . S
H924 C944 0.950 . S
H925 C945 0.950 . S
H926 C947 0.950 . S
H927 C950 0.950 . S
H928 C951 0.950 . S
H929 C953 0.950 . S
H930 C954 0.950 . S
H931 C955 0.951 . S
H932 C957 0.951 . S
H933 C959 0.950 . S
H934 C960 0.950 . S
H935 C962 0.950 . S
H936 C965 0.950 . S
H937 C966 0.950 . S
H938 C968 0.950 . S
H939 C969 0.950 . S
C940 H922 0.951 . S
C940 C941 1.366 . S
C940 C942 1.388 . S
C941 C940 1.366 . S
C941 C945 1.385 . S
C942 H923 0.951 . S
C942 C940 1.388 . S
C942 C943 1.366 . S
C943 C942 1.366 . S
C943 C944 1.414 . S
C943 C946 1.499 . S
C944 H924 0.950 . S
C944 C943 1.414 . S
C944 C945 1.374 . S
C945 H925 0.950 . S
C945 C941 1.385 . S
C945 C944 1.374 . S
C946 C943 1.499 . S
C946 C947 1.373 . S
C946 C948 1.389 . S
C947 H926 0.950 . S
C947 C946 1.373 . S
C947 C963 1.377 . S
C948 C946 1.389 . S
C948 C949 1.524 . S
C948 C962 1.377 . S
C949 C948 1.524 . S
C949 C950 1.397 . S
C949 C954 1.363 . S
C950 H927 0.950 . S
C950 C949 1.397 . S
C950 C951 1.334 . S
C951 H928 0.950 . S
C951 C950 1.334 . S
C951 C952 1.287 . S
C952 C951 1.287 . S
C952 C953 1.524 . S
C952 H971 0.913 . S
C953 H929 0.950 . S
C953 C952 1.524 . S
C953 C954 1.415 . S
C954 H930 0.950 . S
C954 C949 1.363 . S
C954 C953 1.415 . S
C955 H931 0.951 . S
C955 C956 1.366 . S
C955 C957 1.388 . S
C956 C955 1.366 . S
C956 C960 1.385 . S
C957 H932 0.951 . S
C957 C955 1.388 . S
C957 C958 1.366 . S
C958 C957 1.366 . S
C958 C959 1.414 . S
C958 C961 1.499 . S
C959 H933 0.950 . S
C959 C958 1.414 . S
C959 C960 1.374 . S
C960 H934 0.950 . S
C960 C956 1.385 . S
C960 C959 1.374 . S
C961 C958 1.499 . S
C961 C962 1.373 . S
C961 C963 1.389 . S
C962 H935 0.950 . S
C962 C948 1.377 . S
C962 C961 1.373 . S
C963 C947 1.377 . S
C963 C961 1.389 . S
C963 C964 1.524 . S
C964 C963 1.524 . S
C964 C965 1.397 . S
C964 C969 1.363 . S
C965 H936 0.950 . S
C965 C964 1.397 . S
C965 C966 1.334 . S
C966 H937 0.950 . S
C966 C965 1.334 . S
C966 C967 1.287 . S
C967 C966 1.287 . S
C967 C968 1.524 . S
C967 H970 0.999 . S
C968 H938 0.950 . S
C968 C967 1.524 . S
C968 C969 1.415 . S
C969 H939 0.950 . S
C969 C964 1.363 . S
C969 C968 1.415 . S
H970 C967 0.999 . S
H971 C952 0.913 . S
H972 C990 0.951 . S
H973 C992 0.951 . S
H974 C994 0.950 . S
H975 C995 0.950 . S
H976 C997 0.950 . S
H977 C1000 0.950 . S
H978 C1001 0.950 . S
H979 C1003 0.950 . S
H980 C1004 0.950 . S
H981 C1005 0.951 . S
H982 C1007 0.951 . S
H983 C1009 0.950 . S
H984 C1010 0.950 . S
H985 C1012 0.950 . S
H986 C1015 0.950 . S
H987 C1016 0.950 . S
H988 C1018 0.950 . S
H989 C1019 0.950 . S
C990 H972 0.951 . S
C990 C991 1.366 . S
C990 C992 1.388 . S
C991 C990 1.366 . S
C991 C995 1.385 . S
C992 H973 0.951 . S
C992 C990 1.388 . S
C992 C993 1.366 . S
C993 C992 1.366 . S
C993 C994 1.414 . S
C993 C996 1.499 . S
C994 H974 0.950 . S
C994 C993 1.414 . S
C994 C995 1.374 . S
C995 H975 0.950 . S
C995 C991 1.385 . S
C995 C994 1.374 . S
C996 C993 1.499 . S
C996 C997 1.373 . S
C996 C998 1.389 . S
C997 H976 0.950 . S
C997 C996 1.373 . S
C997 C1013 1.377 . S
C998 C996 1.389 . S
C998 C999 1.524 . S
C998 C1012 1.377 . S
C999 C998 1.524 . S
C999 C1000 1.397 . S
C999 C1004 1.363 . S
C1000 H977 0.950 . S
C1000 C999 1.397 . S
C1000 C1001 1.334 . S
C1001 H978 0.950 . S
C1001 C1000 1.334 . S
C1001 C1002 1.287 . S
C1002 C1001 1.287 . S
C1002 C1003 1.524 . S
C1002 H1021 0.913 . S
C1003 H979 0.950 . S
C1003 C1002 1.524 . S
C1003 C1004 1.415 . S
C1004 H980 0.950 . S
C1004 C999 1.363 . S
C1004 C1003 1.415 . S
C1005 H981 0.951 . S
C1005 C1006 1.366 . S
C1005 C1007 1.388 . S
C1006 C1005 1.366 . S
C1006 C1010 1.385 . S
C1007 H982 0.951 . S
C1007 C1005 1.388 . S
C1007 C1008 1.366 . S
C1008 C1007 1.366 . S
C1008 C1009 1.414 . S
C1008 C1011 1.499 . S
C1009 H983 0.950 . S
C1009 C1008 1.414 . S
C1009 C1010 1.374 . S
C1010 H984 0.950 . S
C1010 C1006 1.385 . S
C1010 C1009 1.374 . S
C1011 C1008 1.499 . S
C1011 C1012 1.373 . S
C1011 C1013 1.389 . S
C1012 H985 0.950 . S
C1012 C998 1.377 . S
C1012 C1011 1.373 . S
C1013 C997 1.377 . S
C1013 C1011 1.389 . S
C1013 C1014 1.524 . S
C1014 C1013 1.524 . S
C1014 C1015 1.397 . S
C1014 C1019 1.363 . S
C1015 H986 0.950 . S
C1015 C1014 1.397 . S
C1015 C1016 1.334 . S
C1016 H987 0.950 . S
C1016 C1015 1.334 . S
C1016 C1017 1.287 . S
C1017 C1016 1.287 . S
C1017 C1018 1.524 . S
C1017 H1020 0.999 . S
C1018 H988 0.950 . S
C1018 C1017 1.524 . S
C1018 C1019 1.415 . S
C1019 H989 0.950 . S
C1019 C1014 1.363 . S
C1019 C1018 1.415 . S
H1020 C1017 0.999 . S
H1021 C1002 0.913 . S
H1022 C1040 0.951 . S
H1023 C1042 0.951 . S
H1024 C1044 0.950 . S
H1025 C1045 0.950 . S
H1026 C1047 0.950 . S
H1027 C1050 0.950 . S
H1028 C1051 0.950 . S
H1029 C1053 0.950 . S
H1030 C1054 0.950 . S
H1031 C1055 0.951 . S
H1032 C1057 0.951 . S
H1033 C1059 0.950 . S
H1034 C1060 0.950 . S
H1035 C1062 0.950 . S
H1036 C1065 0.950 . S
H1037 C1066 0.950 . S
H1038 C1068 0.950 . S
H1039 C1069 0.950 . S
C1040 H1022 0.951 . S
C1040 C1041 1.366 . S
C1040 C1042 1.388 . S
C1041 C1040 1.366 . S
C1041 C1045 1.385 . S
C1042 H1023 0.951 . S
C1042 C1040 1.388 . S
C1042 C1043 1.366 . S
C1043 C1042 1.366 . S
C1043 C1044 1.414 . S
C1043 C1046 1.499 . S
C1044 H1024 0.950 . S
C1044 C1043 1.414 . S
C1044 C1045 1.374 . S
C1045 H1025 0.950 . S
C1045 C1041 1.385 . S
C1045 C1044 1.374 . S
C1046 C1043 1.499 . S
C1046 C1047 1.373 . S
C1046 C1048 1.389 . S
C1047 H1026 0.950 . S
C1047 C1046 1.373 . S
C1047 C1063 1.377 . S
C1048 C1046 1.389 . S
C1048 C1049 1.524 . S
C1048 C1062 1.377 . S
C1049 C1048 1.524 . S
C1049 C1050 1.397 . S
C1049 C1054 1.363 . S
C1050 H1027 0.950 . S
C1050 C1049 1.397 . S
C1050 C1051 1.334 . S
C1051 H1028 0.950 . S
C1051 C1050 1.334 . S
C1051 C1052 1.287 . S
C1052 C1051 1.287 . S
C1052 C1053 1.524 . S
C1052 H1071 0.913 . S
C1053 H1029 0.950 . S
C1053 C1052 1.524 . S
C1053 C1054 1.415 . S
C1054 H1030 0.950 . S
C1054 C1049 1.363 . S
C1054 C1053 1.415 . S
C1055 H1031 0.951 . S
C1055 C1056 1.366 . S
C1055 C1057 1.388 . S
C1056 C1055 1.366 . S
C1056 C1060 1.385 . S
C1057 H1032 0.951 . S
C1057 C1055 1.388 . S
C1057 C1058 1.366 . S
C1058 C1057 1.366 . S
C1058 C1059 1.414 . S
C1058 C1061 1.499 . S
C1059 H1033 0.950 . S
C1059 C1058 1.414 . S
C1059 C1060 1.374 . S
C1060 H1034 0.950 . S
C1060 C1056 1.385 . S
C1060 C1059 1.374 . S
C1061 C1058 1.499 . S
C1061 C1062 1.373 . S
C1061 C1063 1.389 . S
C1062 H1035 0.950 . S
C1062 C1048 1.377 . S
C1062 C1061 1.373 . S
C1063 C1047 1.377 . S
C1063 C1061 1.389 . S
C1063 C1064 1.524 . S
C1064 C1063 1.524 . S
C1064 C1065 1.397 . S
C1064 C1069 1.363 . S
C1065 H1036 0.950 . S
C1065 C1064 1.397 . S
C1065 C1066 1.334 . S
C1066 H1037 0.950 . S
C1066 C1065 1.334 . S
C1066 C1067 1.287 . S
C1067 C1066 1.287 . S
C1067 C1068 1.524 . S
C1067 H1070 0.999 . S
C1068 H1038 0.950 . S
C1068 C1067 1.524 . S
C1068 C1069 1.415 . S
C1069 H1039 0.950 . S
C1069 C1064 1.363 . S
C1069 C1068 1.415 . S
H1070 C1067 0.999 . S
H1071 C1052 0.913 . S
H1072 C1090 0.951 . S
H1073 C1092 0.951 . S
H1074 C1094 0.950 . S
H1075 C1095 0.950 . S
H1076 C1097 0.950 . S
H1077 C1100 0.950 . S
H1078 C1101 0.950 . S
H1079 C1103 0.950 . S
H1080 C1104 0.950 . S
H1081 C1105 0.951 . S
H1082 C1107 0.951 . S
H1083 C1109 0.950 . S
H1084 C1110 0.950 . S
H1085 C1112 0.950 . S
H1086 C1115 0.950 . S
H1087 C1116 0.950 . S
H1088 C1118 0.950 . S
H1089 C1119 0.950 . S
C1090 H1072 0.951 . S
C1090 C1091 1.366 . S
C1090 C1092 1.388 . S
C1091 C1090 1.366 . S
C1091 C1095 1.385 . S
C1092 H1073 0.951 . S
C1092 C1090 1.388 . S
C1092 C1093 1.366 . S
C1093 C1092 1.366 . S
C1093 C1094 1.414 . S
C1093 C1096 1.499 . S
C1094 H1074 0.950 . S
C1094 C1093 1.414 . S
C1094 C1095 1.374 . S
C1095 H1075 0.950 . S
C1095 C1091 1.385 . S
C1095 C1094 1.374 . S
C1096 C1093 1.499 . S
C1096 C1097 1.373 . S
C1096 C1098 1.389 . S
C1097 H1076 0.950 . S
C1097 C1096 1.373 . S
C1097 C1113 1.377 . S
C1098 C1096 1.389 . S
C1098 C1099 1.524 . S
C1098 C1112 1.377 . S
C1099 C1098 1.524 . S
C1099 C1100 1.397 . S
C1099 C1104 1.363 . S
C1100 H1077 0.950 . S
C1100 C1099 1.397 . S
C1100 C1101 1.334 . S
C1101 H1078 0.950 . S
C1101 C1100 1.334 . S
C1101 C1102 1.287 . S
C1102 C1101 1.287 . S
C1102 C1103 1.524 . S
C1102 H1121 0.913 . S
C1103 H1079 0.950 . S
C1103 C1102 1.524 . S
C1103 C1104 1.415 . S
C1104 H1080 0.950 . S
C1104 C1099 1.363 . S
C1104 C1103 1.415 . S
C1105 H1081 0.951 . S
C1105 C1106 1.366 . S
C1105 C1107 1.388 . S
C1106 C1105 1.366 . S
C1106 C1110 1.385 . S
C1107 H1082 0.951 . S
C1107 C1105 1.388 . S
C1107 C1108 1.366 . S
C1108 C1107 1.366 . S
C1108 C1109 1.414 . S
C1108 C1111 1.499 . S
C1109 H1083 0.950 . S
C1109 C1108 1.414 . S
C1109 C1110 1.374 . S
C1110 H1084 0.950 . S
C1110 C1106 1.385 . S
C1110 C1109 1.374 . S
C1111 C1108 1.499 . S
C1111 C1112 1.373 . S
C1111 C1113 1.389 . S
C1112 H1085 0.950 . S
C1112 C1098 1.377 . S
C1112 C1111 1.373 . S
C1113 C1097 1.377 . S
C1113 C1111 1.389 . S
C1113 C1114 1.524 . S
C1114 C1113 1.524 . S
C1114 C1115 1.397 . S
C1114 C1119 1.363 . S
C1115 H1086 0.950 . S
C1115 C1114 1.397 . S
C1115 C1116 1.334 . S
C1116 H1087 0.950 . S
C1116 C1115 1.334 . S
C1116 C1117 1.287 . S
C1117 C1116 1.287 . S
C1117 C1118 1.524 . S
C1117 H1120 0.999 . S
C1118 H1088 0.950 . S
C1118 C1117 1.524 . S
C1118 C1119 1.415 . S
C1119 H1089 0.950 . S
C1119 C1114 1.363 . S
C1119 C1118 1.415 . S
H1120 C1117 0.999 . S
H1121 C1102 0.913 . S
H1122 C1140 0.951 . S
H1123 C1142 0.951 . S
H1124 C1144 0.950 . S
H1125 C1145 0.950 . S
H1126 C1147 0.950 . S
H1127 C1150 0.950 . S
H1128 C1151 0.950 . S
H1129 C1153 0.950 . S
H1130 C1154 0.950 . S
H1131 C1155 0.951 . S
H1132 C1157 0.951 . S
H1133 C1159 0.950 . S
H1134 C1160 0.950 . S
H1135 C1162 0.950 . S
H1136 C1165 0.952 . S
H1137 C1166 0.950 . S
H1138 C1168 0.950 . S
H1139 C1169 0.950 . S
C1140 H1122 0.951 . S
C1140 C1141 1.366 . S
C1140 C1142 1.388 . S
C1141 C1140 1.366 . S
C1141 C1145 1.385 . S
C1142 H1123 0.951 . S
C1142 C1140 1.388 . S
C1142 C1143 1.366 . S
C1143 C1142 1.366 . S
C1143 C1144 1.414 . S
C1143 C1146 1.499 . S
C1144 H1124 0.950 . S
C1144 C1143 1.414 . S
C1144 C1145 1.374 . S
C1145 H1125 0.950 . S
C1145 C1141 1.385 . S
C1145 C1144 1.374 . S
C1146 C1143 1.499 . S
C1146 C1147 1.373 . S
C1146 C1148 1.389 . S
C1147 H1126 0.950 . S
C1147 C1146 1.373 . S
C1147 C1163 1.377 . S
C1148 C1146 1.389 . S
C1148 C1149 1.524 . S
C1148 C1162 1.377 . S
C1149 C1148 1.524 . S
C1149 C1150 1.397 . S
C1149 C1154 1.363 . S
C1150 H1127 0.950 . S
C1150 C1149 1.397 . S
C1150 C1151 1.334 . S
C1151 H1128 0.950 . S
C1151 C1150 1.334 . S
C1151 C1152 1.287 . S
C1152 C1151 1.287 . S
C1152 C1153 1.524 . S
C1152 H1171 0.913 . S
C1153 H1129 0.950 . S
C1153 C1152 1.524 . S
C1153 C1154 1.415 . S
C1154 H1130 0.950 . S
C1154 C1149 1.363 . S
C1154 C1153 1.415 . S
C1155 H1131 0.951 . S
C1155 C1156 1.366 . S
C1155 C1157 1.388 . S
C1156 C1155 1.366 . S
C1156 C1160 1.385 . S
C1157 H1132 0.951 . S
C1157 C1155 1.388 . S
C1157 C1158 1.366 . S
C1158 C1157 1.366 . S
C1158 C1159 1.414 . S
C1158 C1161 1.499 . S
C1159 H1133 0.950 . S
C1159 C1158 1.414 . S
C1159 C1160 1.374 . S
C1160 H1134 0.950 . S
C1160 C1156 1.385 . S
C1160 C1159 1.374 . S
C1161 C1158 1.499 . S
C1161 C1162 1.373 . S
C1161 C1163 1.389 . S
C1162 H1135 0.950 . S
C1162 C1148 1.377 . S
C1162 C1161 1.373 . S
C1163 C1147 1.377 . S
C1163 C1161 1.389 . S
C1163 C1164 1.524 . S
C1164 C1163 1.524 . S
C1164 C1165 1.397 . S
C1164 C1169 1.363 . S
C1165 H1136 0.952 . S
C1165 C1164 1.397 . S
C1165 C1166 1.334 1_455 S
C1166 H1137 0.950 . S
C1166 C1165 1.334 1_655 S
C1166 C1167 1.287 . S
C1167 C1166 1.287 . S
C1167 C1168 1.524 1_655 S
C1167 H1170 0.999 . S
C1168 H1138 0.950 . S
C1168 C1167 1.524 1_455 S
C1168 C1169 1.415 . S
C1169 H1139 0.950 . S
C1169 C1164 1.363 . S
C1169 C1168 1.415 . S
H1170 C1167 0.999 . S
H1171 C1152 0.913 . S
H1172 C1190 0.951 . S
H1173 C1192 0.951 . S
H1174 C1194 0.950 . S
H1175 C1195 0.950 . S
H1176 C1197 0.950 . S
H1177 C1200 0.950 . S
H1178 C1201 0.950 . S
H1179 C1203 0.950 . S
H1180 C1204 0.950 . S
H1181 C1205 0.951 . S
H1182 C1207 0.951 . S
H1183 C1209 0.950 . S
H1184 C1210 0.950 . S
H1185 C1212 0.950 . S
H1186 C1215 0.950 . S
H1187 C1216 0.950 . S
H1188 C1218 0.950 . S
H1189 C1219 0.950 . S
C1190 H1172 0.951 . S
C1190 C1191 1.366 . S
C1190 C1192 1.388 . S
C1191 C1190 1.366 . S
C1191 C1195 1.385 . S
C1192 H1173 0.951 . S
C1192 C1190 1.388 . S
C1192 C1193 1.366 . S
C1193 C1192 1.366 . S
C1193 C1194 1.414 . S
C1193 C1196 1.499 . S
C1194 H1174 0.950 . S
C1194 C1193 1.414 . S
C1194 C1195 1.374 . S
C1195 H1175 0.950 . S
C1195 C1191 1.385 . S
C1195 C1194 1.374 . S
C1196 C1193 1.499 . S
C1196 C1197 1.373 . S
C1196 C1198 1.389 . S
C1197 H1176 0.950 . S
C1197 C1196 1.373 . S
C1197 C1213 1.377 . S
C1198 C1196 1.389 . S
C1198 C1199 1.524 . S
C1198 C1212 1.377 . S
C1199 C1198 1.524 . S
C1199 C1200 1.397 . S
C1199 C1204 1.363 . S
C1200 H1177 0.950 . S
C1200 C1199 1.397 . S
C1200 C1201 1.334 . S
C1201 H1178 0.950 . S
C1201 C1200 1.334 . S
C1201 C1202 1.287 . S
C1202 C1201 1.287 . S
C1202 C1203 1.524 . S
C1202 H1221 0.913 . S
C1203 H1179 0.950 . S
C1203 C1202 1.524 . S
C1203 C1204 1.415 . S
C1204 H1180 0.950 . S
C1204 C1199 1.363 . S
C1204 C1203 1.415 . S
C1205 H1181 0.951 . S
C1205 C1206 1.366 . S
C1205 C1207 1.388 . S
C1206 C1205 1.366 . S
C1206 C1210 1.385 . S
C1207 H1182 0.951 . S
C1207 C1205 1.388 . S
C1207 C1208 1.366 . S
C1208 C1207 1.366 . S
C1208 C1209 1.414 . S
C1208 C1211 1.499 . S
C1209 H1183 0.950 . S
C1209 C1208 1.414 . S
C1209 C1210 1.374 . S
C1210 H1184 0.950 . S
C1210 C1206 1.385 . S
C1210 C1209 1.374 . S
C1211 C1208 1.499 . S
C1211 C1212 1.373 . S
C1211 C1213 1.389 . S
C1212 H1185 0.950 . S
C1212 C1198 1.377 . S
C1212 C1211 1.373 . S
C1213 C1197 1.377 . S
C1213 C1211 1.389 . S
C1213 C1214 1.524 . S
C1214 C1213 1.524 . S
C1214 C1215 1.397 . S
C1214 C1219 1.363 . S
C1215 H1186 0.950 . S
C1215 C1214 1.397 . S
C1215 C1216 1.334 . S
C1216 H1187 0.950 . S
C1216 C1215 1.334 . S
C1216 C1217 1.287 . S
C1217 C1216 1.287 . S
C1217 C1218 1.524 . S
C1217 H1220 0.999 . S
C1218 H1188 0.950 . S
C1218 C1217 1.524 . S
C1218 C1219 1.415 . S
C1219 H1189 0.950 . S
C1219 C1214 1.363 . S
C1219 C1218 1.415 . S
H1220 C1217 0.999 . S
H1221 C1202 0.913 . S
H1222 C1240 0.951 . S
H1223 C1242 0.951 . S
H1224 C1244 0.950 1_455 S
H1225 C1245 0.904 1_455 S
H1226 C1247 0.950 1_455 S
H1227 C1250 0.950 . S
H1228 C1251 0.950 . S
H1229 C1253 0.950 . S
H1230 C1254 0.950 . S
H1231 C1255 0.951 . S
H1232 C1257 0.951 . S
H1233 C1259 0.950 . S
H1234 C1260 0.950 . S
H1235 C1262 0.950 . S
H1236 C1265 0.950 1_655 S
H1237 C1266 0.950 . S
H1238 C1268 0.950 . S
H1239 C1269 0.950 . S
C1240 H1222 0.951 . S
C1240 C1241 1.366 . S
C1240 C1242 1.388 . S
C1241 C1240 1.366 . S
C1241 C1245 1.385 . S
C1242 H1223 0.951 . S
C1242 C1240 1.388 . S
C1242 C1243 1.366 . S
C1243 C1242 1.366 . S
C1243 C1244 1.414 . S
C1243 C1246 1.499 . S
C1244 H1224 0.950 1_655 S
C1244 C1243 1.414 . S
C1244 C1245 1.374 . S
C1245 H1225 0.904 1_655 S
C1245 C1241 1.385 . S
C1245 C1244 1.374 . S
C1246 C1243 1.499 . S
C1246 C1247 1.373 . S
C1246 C1248 1.389 . S
C1247 H1226 0.950 1_655 S
C1247 C1246 1.373 . S
C1247 C1263 1.377 . S
C1248 C1246 1.389 . S
C1248 C1249 1.524 . S
C1248 C1262 1.377 . S
C1249 C1248 1.524 . S
C1249 C1250 1.397 . S
C1249 C1254 1.363 . S
C1250 H1227 0.950 . S
C1250 C1249 1.397 . S
C1250 C1251 1.334 . S
C1251 H1228 0.950 . S
C1251 C1250 1.334 . S
C1251 C1252 1.287 . S
C1252 C1251 1.287 . S
C1252 C1253 1.524 . S
C1252 H1271 0.913 . S
C1253 H1229 0.950 . S
C1253 C1252 1.524 . S
C1253 C1254 1.415 . S
C1254 H1230 0.950 . S
C1254 C1249 1.363 . S
C1254 C1253 1.415 . S
C1255 H1231 0.951 . S
C1255 C1256 1.366 1_455 S
C1255 C1257 1.388 . S
C1256 C1255 1.366 1_655 S
C1256 C1260 1.385 . S
C1257 H1232 0.951 . S
C1257 C1255 1.388 . S
C1257 C1258 1.366 1_455 S
C1258 C1257 1.366 1_655 S
C1258 C1259 1.414 . S
C1258 C1261 1.499 . S
C1259 H1233 0.950 . S
C1259 C1258 1.414 . S
C1259 C1260 1.374 . S
C1260 H1234 0.950 . S
C1260 C1256 1.385 . S
C1260 C1259 1.374 . S
C1261 C1258 1.499 . S
C1261 C1262 1.373 . S
C1261 C1263 1.389 . S
C1262 H1235 0.950 . S
C1262 C1248 1.377 . S
C1262 C1261 1.373 . S
C1263 C1247 1.377 . S
C1263 C1261 1.389 . S
C1263 C1264 1.524 1_655 S
C1264 C1263 1.524 1_455 S
C1264 C1265 1.397 . S
C1264 C1269 1.363 . S
C1265 H1236 0.950 1_455 S
C1265 C1264 1.397 . S
C1265 C1266 1.334 . S
C1266 H1237 0.950 . S
C1266 C1265 1.334 . S
C1266 C1267 1.287 . S
C1267 C1266 1.287 . S
C1267 C1268 1.524 . S
C1267 H1270 0.999 . S
C1268 H1238 0.950 . S
C1268 C1267 1.524 . S
C1268 C1269 1.415 . S
C1269 H1239 0.950 . S
C1269 C1264 1.363 . S
C1269 C1268 1.415 . S
H1270 C1267 0.999 . S
H1271 C1252 0.913 . S
H1272 C1290 0.951 . S
H1273 C1292 0.951 . S
H1274 C1294 0.950 . S
H1275 C1295 0.950 . S
H1276 C1297 0.950 . S
H1277 C1300 0.950 . S
H1278 C1301 0.950 . S
H1279 C1303 0.950 . S
H1280 C1304 0.950 . S
H1281 C1305 0.951 . S
H1282 C1307 0.951 . S
H1283 C1309 0.950 . S
H1284 C1310 0.950 . S
H1285 C1312 0.950 . S
H1286 C1315 0.950 . S
H1287 C1316 0.950 . S
H1288 C1318 0.950 . S
H1289 C1319 0.950 . S
C1290 H1272 0.951 . S
C1290 C1291 1.366 . S
C1290 C1292 1.388 . S
C1291 C1290 1.366 . S
C1291 C1295 1.385 . S
C1292 H1273 0.951 . S
C1292 C1290 1.388 . S
C1292 C1293 1.366 . S
C1293 C1292 1.366 . S
C1293 C1294 1.414 . S
C1293 C1296 1.499 . S
C1294 H1274 0.950 . S
C1294 C1293 1.414 . S
C1294 C1295 1.374 . S
C1295 H1275 0.950 . S
C1295 C1291 1.385 . S
C1295 C1294 1.374 . S
C1296 C1293 1.499 . S
C1296 C1297 1.373 . S
C1296 C1298 1.389 . S
C1297 H1276 0.950 . S
C1297 C1296 1.373 . S
C1297 C1313 1.377 . S
C1298 C1296 1.389 . S
C1298 C1299 1.524 . S
C1298 C1312 1.377 . S
C1299 C1298 1.524 . S
C1299 C1300 1.397 . S
C1299 C1304 1.363 . S
C1300 H1277 0.950 . S
C1300 C1299 1.397 . S
C1300 C1301 1.334 . S
C1301 H1278 0.950 . S
C1301 C1300 1.334 . S
C1301 C1302 1.287 . S
C1302 C1301 1.287 . S
C1302 C1303 1.524 . S
C1302 H1321 0.913 . S
C1303 H1279 0.950 . S
C1303 C1302 1.524 . S
C1303 C1304 1.415 . S
C1304 H1280 0.950 . S
C1304 C1299 1.363 . S
C1304 C1303 1.415 . S
C1305 H1281 0.951 . S
C1305 C1306 1.366 . S
C1305 C1307 1.388 . S
C1306 C1305 1.366 . S
C1306 C1310 1.385 . S
C1307 H1282 0.951 . S
C1307 C1305 1.388 . S
C1307 C1308 1.366 . S
C1308 C1307 1.366 . S
C1308 C1309 1.414 . S
C1308 C1311 1.499 . S
C1309 H1283 0.950 . S
C1309 C1308 1.414 . S
C1309 C1310 1.374 . S
C1310 H1284 0.950 . S
C1310 C1306 1.385 . S
C1310 C1309 1.374 . S
C1311 C1308 1.499 . S
C1311 C1312 1.373 . S
C1311 C1313 1.389 . S
C1312 H1285 0.950 . S
C1312 C1298 1.377 . S
C1312 C1311 1.373 . S
C1313 C1297 1.377 . S
C1313 C1311 1.389 . S
C1313 C1314 1.524 . S
C1314 C1313 1.524 . S
C1314 C1315 1.397 . S
C1314 C1319 1.363 . S
C1315 H1286 0.950 . S
C1315 C1314 1.397 . S
C1315 C1316 1.334 . S
C1316 H1287 0.950 . S
C1316 C1315 1.334 . S
C1316 C1317 1.287 . S
C1317 C1316 1.287 . S
C1317 C1318 1.524 . S
C1317 H1320 0.999 . S
C1318 H1288 0.950 . S
C1318 C1317 1.524 . S
C1318 C1319 1.415 . S
C1319 H1289 0.950 . S
C1319 C1314 1.363 . S
C1319 C1318 1.415 . S
H1320 C1317 0.999 . S
H1321 C1302 0.913 . S
H1322 C1340 0.951 . S
H1323 C1342 0.951 . S
H1324 C1344 0.950 . S
H1325 C1345 0.950 . S
H1326 C1347 0.950 . S
H1327 C1350 0.950 . S
H1328 C1351 0.950 . S
H1329 C1353 0.950 . S
H1330 C1354 0.950 . S
H1331 C1355 0.951 . S
H1332 C1357 0.951 . S
H1333 C1359 0.950 . S
H1334 C1360 0.950 . S
H1335 C1362 0.950 . S
H1336 C1365 0.950 . S
H1337 C1366 0.950 . S
H1338 C1368 0.950 . S
H1339 C1369 0.950 . S
C1340 H1322 0.951 . S
C1340 C1341 1.366 . S
C1340 C1342 1.388 . S
C1341 C1340 1.366 . S
C1341 C1345 1.385 . S
C1342 H1323 0.951 . S
C1342 C1340 1.388 . S
C1342 C1343 1.366 . S
C1343 C1342 1.366 . S
C1343 C1344 1.414 . S
C1343 C1346 1.499 . S
C1344 H1324 0.950 . S
C1344 C1343 1.414 . S
C1344 C1345 1.374 . S
C1345 H1325 0.950 . S
C1345 C1341 1.385 . S
C1345 C1344 1.374 . S
C1346 C1343 1.499 . S
C1346 C1347 1.373 . S
C1346 C1348 1.389 . S
C1347 H1326 0.950 . S
C1347 C1346 1.373 . S
C1347 C1363 1.377 . S
C1348 C1346 1.389 . S
C1348 C1349 1.524 . S
C1348 C1362 1.377 . S
C1349 C1348 1.524 . S
C1349 C1350 1.397 . S
C1349 C1354 1.363 . S
C1350 H1327 0.950 . S
C1350 C1349 1.397 . S
C1350 C1351 1.334 . S
C1351 H1328 0.950 . S
C1351 C1350 1.334 . S
C1351 C1352 1.287 . S
C1352 C1351 1.287 . S
C1352 C1353 1.524 . S
C1352 H1371 0.913 . S
C1353 H1329 0.950 . S
C1353 C1352 1.524 . S
C1353 C1354 1.415 . S
C1354 H1330 0.950 . S
C1354 C1349 1.363 . S
C1354 C1353 1.415 . S
C1355 H1331 0.951 . S
C1355 C1356 1.366 . S
C1355 C1357 1.388 . S
C1356 C1355 1.366 . S
C1356 C1360 1.385 . S
C1357 H1332 0.951 . S
C1357 C1355 1.388 . S
C1357 C1358 1.366 . S
C1358 C1357 1.366 . S
C1358 C1359 1.414 . S
C1358 C1361 1.499 . S
C1359 H1333 0.950 . S
C1359 C1358 1.414 . S
C1359 C1360 1.374 . S
C1360 H1334 0.950 . S
C1360 C1356 1.385 . S
C1360 C1359 1.374 . S
C1361 C1358 1.499 . S
C1361 C1362 1.373 . S
C1361 C1363 1.389 . S
C1362 H1335 0.950 . S
C1362 C1348 1.377 . S
C1362 C1361 1.373 . S
C1363 C1347 1.377 . S
C1363 C1361 1.389 . S
C1363 C1364 1.524 . S
C1364 C1363 1.524 . S
C1364 C1365 1.397 . S
C1364 C1369 1.363 . S
C1365 H1336 0.950 . S
C1365 C1364 1.397 . S
C1365 C1366 1.334 . S
C1366 H1337 0.950 . S
C1366 C1365 1.334 . S
C1366 C1367 1.287 . S
C1367 C1366 1.287 . S
C1367 C1368 1.524 . S
C1367 H1370 0.999 . S
C1368 H1338 0.950 . S
C1368 C1367 1.524 . S
C1368 C1369 1.415 . S
C1369 H1339 0.950 . S
C1369 C1364 1.363 . S
C1369 C1368 1.415 . S
H1370 C1367 0.999 . S
H1371 C1352 0.913 . S
H1372 C1390 0.951 . S
H1373 C1392 0.997 . S
H1374 C1394 0.950 . S
H1375 C1395 0.950 . S
H1376 C1397 0.950 . S
H1377 C1400 0.950 . S
H1378 C1401 0.950 . S
H1379 C1403 0.950 . S
H1380 C1404 0.950 1_554 S
H1381 C1405 0.951 . S
H1382 C1407 0.951 1_556 S
H1383 C1409 0.950 . S
H1384 C1410 0.950 . S
H1385 C1412 0.950 . S
H1386 C1415 0.950 . S
H1387 C1416 0.950 . S
H1388 C1418 0.950 1_545 S
H1389 C1419 0.950 1_556 S
C1390 H1372 0.951 . S
C1390 C1391 1.366 1_565 S
C1390 C1392 1.388 . S
C1391 C1390 1.366 1_545 S
C1391 C1395 1.385 . S
C1392 H1373 0.997 . S
C1392 C1390 1.388 . S
C1392 C1393 1.366 . S
C1393 C1392 1.366 . S
C1393 C1394 1.414 . S
C1393 C1396 1.499 . S
C1394 H1374 0.950 . S
C1394 C1393 1.414 . S
C1394 C1395 1.374 1_565 S
C1395 H1375 0.950 . S
C1395 C1391 1.385 . S
C1395 C1394 1.374 1_545 S
C1396 C1393 1.499 . S
C1396 C1397 1.373 . S
C1396 C1398 1.389 . S
C1397 H1376 0.950 . S
C1397 C1396 1.373 . S
C1397 C1413 1.377 1_556 S
C1398 C1396 1.389 . S
C1398 C1399 1.524 . S
C1398 C1412 1.377 . S
C1399 C1398 1.524 . S
C1399 C1400 1.397 . S
C1399 C1404 1.363 . S
C1400 H1377 0.950 . S
C1400 C1399 1.397 . S
C1400 C1401 1.334 . S
C1401 H1378 0.950 . S
C1401 C1400 1.334 . S
C1401 C1402 1.287 . S
C1402 C1401 1.287 . S
C1402 C1403 1.524 . S
C1402 H1421 0.913 . S
C1403 H1379 0.950 . S
C1403 C1402 1.524 . S
C1403 C1404 1.415 . S
C1404 H1380 0.950 1_556 S
C1404 C1399 1.363 . S
C1404 C1403 1.415 . S
C1405 H1381 0.951 . S
C1405 C1406 1.366 . S
C1405 C1407 1.388 . S
C1406 C1405 1.366 . S
C1406 C1410 1.385 . S
C1407 H1382 0.951 1_554 S
C1407 C1405 1.388 . S
C1407 C1408 1.366 . S
C1408 C1407 1.366 . S
C1408 C1409 1.414 . S
C1408 C1411 1.499 . S
C1409 H1383 0.950 . S
C1409 C1408 1.414 . S
C1409 C1410 1.374 . S
C1410 H1384 0.950 . S
C1410 C1406 1.385 . S
C1410 C1409 1.374 . S
C1411 C1408 1.499 . S
C1411 C1412 1.373 1_554 S
C1411 C1413 1.389 . S
C1412 H1385 0.950 . S
C1412 C1398 1.377 . S
C1412 C1411 1.373 1_556 S
C1413 C1397 1.377 1_554 S
C1413 C1411 1.389 . S
C1413 C1414 1.524 . S
C1414 C1413 1.524 . S
C1414 C1415 1.397 . S
C1414 C1419 1.363 . S
C1415 H1386 0.950 . S
C1415 C1414 1.397 . S
C1415 C1416 1.334 . S
C1416 H1387 0.950 . S
C1416 C1415 1.334 . S
C1416 C1417 1.287 . S
C1417 C1416 1.287 . S
C1417 C1418 1.524 . S
C1417 H1420 0.999 1_565 S
C1418 H1388 0.950 1_565 S
C1418 C1417 1.524 . S
C1418 C1419 1.415 . S
C1419 H1389 0.950 1_554 S
C1419 C1414 1.363 . S
C1419 C1418 1.415 . S
H1420 C1417 0.999 1_545 S
H1421 C1402 0.913 . S
H1422 C1440 0.951 . S
H1423 C1442 0.951 . S
H1424 C1444 0.950 . S
H1425 C1445 0.950 . S
H1426 C1447 0.950 . S
H1427 C1450 0.950 . S
H1428 C1451 0.950 . S
H1429 C1453 0.950 . S
H1430 C1454 0.950 . S
H1431 C1455 0.951 . S
H1432 C1457 0.951 . S
H1433 C1459 0.950 . S
H1434 C1460 0.950 . S
H1435 C1462 0.950 . S
H1436 C1465 0.950 . S
H1437 C1466 0.950 . S
H1438 C1468 0.950 . S
H1439 C1469 0.950 . S
C1440 H1422 0.951 . S
C1440 C1441 1.366 . S
C1440 C1442 1.388 . S
C1441 C1440 1.366 . S
C1441 C1445 1.385 . S
C1442 H1423 0.951 . S
C1442 C1440 1.388 . S
C1442 C1443 1.366 . S
C1443 C1442 1.366 . S
C1443 C1444 1.414 . S
C1443 C1446 1.499 . S
C1444 H1424 0.950 . S
C1444 C1443 1.414 . S
C1444 C1445 1.374 . S
C1445 H1425 0.950 . S
C1445 C1441 1.385 . S
C1445 C1444 1.374 . S
C1446 C1443 1.499 . S
C1446 C1447 1.373 . S
C1446 C1448 1.389 . S
C1447 H1426 0.950 . S
C1447 C1446 1.373 . S
C1447 C1463 1.377 . S
C1448 C1446 1.389 . S
C1448 C1449 1.524 . S
C1448 C1462 1.377 . S
C1449 C1448 1.524 . S
C1449 C1450 1.397 . S
C1449 C1454 1.363 . S
C1450 H1427 0.950 . S
C1450 C1449 1.397 . S
C1450 C1451 1.334 . S
C1451 H1428 0.950 . S
C1451 C1450 1.334 . S
C1451 C1452 1.287 . S
C1452 C1451 1.287 . S
C1452 C1453 1.524 . S
C1452 H1471 0.913 . S
C1453 H1429 0.950 . S
C1453 C1452 1.524 . S
C1453 C1454 1.415 . S
C1454 H1430 0.950 . S
C1454 C1449 1.363 . S
C1454 C1453 1.415 . S
C1455 H1431 0.951 . S
C1455 C1456 1.366 . S
C1455 C1457 1.388 . S
C1456 C1455 1.366 . S
C1456 C1460 1.385 . S
C1457 H1432 0.951 . S
C1457 C1455 1.388 . S
C1457 C1458 1.366 . S
C1458 C1457 1.366 . S
C1458 C1459 1.414 . S
C1458 C1461 1.499 . S
C1459 H1433 0.950 . S
C1459 C1458 1.414 . S
C1459 C1460 1.374 . S
C1460 H1434 0.950 . S
C1460 C1456 1.385 . S
C1460 C1459 1.374 . S
C1461 C1458 1.499 . S
C1461 C1462 1.373 . S
C1461 C1463 1.389 . S
C1462 H1435 0.950 . S
C1462 C1448 1.377 . S
C1462 C1461 1.373 . S
C1463 C1447 1.377 . S
C1463 C1461 1.389 . S
C1463 C1464 1.524 . S
C1464 C1463 1.524 . S
C1464 C1465 1.397 . S
C1464 C1469 1.363 . S
C1465 H1436 0.950 . S
C1465 C1464 1.397 . S
C1465 C1466 1.334 . S
C1466 H1437 0.950 . S
C1466 C1465 1.334 . S
C1466 C1467 1.287 . S
C1467 C1466 1.287 . S
C1467 C1468 1.524 . S
C1467 H1470 0.999 . S
C1468 H1438 0.950 . S
C1468 C1467 1.524 . S
C1468 C1469 1.415 . S
C1469 H1439 0.950 . S
C1469 C1464 1.363 . S
C1469 C1468 1.415 . S
H1470 C1467 0.999 . S
H1471 C1452 0.913 . S
H1472 C1490 0.947 . S
H1473 C1492 0.951 . S
H1474 C1494 0.950 . S
H1475 C1495 0.950 . S
H1476 C1497 0.950 . S
H1477 C1500 0.950 . S
H1478 C1501 0.950 . S
H1479 C1503 0.950 . S
H1480 C1504 0.950 . S
H1481 C1505 0.951 . S
H1482 C1507 0.951 . S
H1483 C1509 0.950 . S
H1484 C1510 0.950 . S
H1485 C1512 0.950 . S
H1486 C1515 0.950 . S
H1487 C1516 0.950 . S
H1488 C1518 0.950 . S
H1489 C1519 0.950 . S
C1490 H1472 0.947 . S
C1490 C1491 1.367 1_565 S
C1490 C1492 1.391 1_565 S
C1491 C1490 1.367 1_545 S
C1491 C1495 1.385 . S
C1492 H1473 0.951 . S
C1492 C1490 1.391 1_545 S
C1492 C1493 1.366 . S
C1493 C1492 1.366 . S
C1493 C1494 1.414 . S
C1493 C1496 1.499 . S
C1494 H1474 0.950 . S
C1494 C1493 1.414 . S
C1494 C1495 1.374 . S
C1495 H1475 0.950 . S
C1495 C1491 1.385 . S
C1495 C1494 1.374 . S
C1496 C1493 1.499 . S
C1496 C1497 1.373 . S
C1496 C1498 1.389 . S
C1497 H1476 0.950 . S
C1497 C1496 1.373 . S
C1497 C1513 1.377 . S
C1498 C1496 1.389 . S
C1498 C1499 1.524 . S
C1498 C1512 1.377 . S
C1499 C1498 1.524 . S
C1499 C1500 1.397 . S
C1499 C1504 1.363 . S
C1500 H1477 0.950 . S
C1500 C1499 1.397 . S
C1500 C1501 1.334 1_545 S
C1501 H1478 0.950 . S
C1501 C1500 1.334 1_565 S
C1501 C1502 1.287 . S
C1502 C1501 1.287 . S
C1502 C1503 1.524 . S
C1502 H1521 0.913 . S
C1503 H1479 0.950 . S
C1503 C1502 1.524 . S
C1503 C1504 1.415 1_565 S
C1504 H1480 0.950 . S
C1504 C1499 1.363 . S
C1504 C1503 1.415 1_545 S
C1505 H1481 0.951 . S
C1505 C1506 1.366 . S
C1505 C1507 1.388 . S
C1506 C1505 1.366 . S
C1506 C1510 1.385 . S
C1507 H1482 0.951 . S
C1507 C1505 1.388 . S
C1507 C1508 1.366 . S
C1508 C1507 1.366 . S
C1508 C1509 1.414 . S
C1508 C1511 1.499 . S
C1509 H1483 0.950 . S
C1509 C1508 1.414 . S
C1509 C1510 1.374 . S
C1510 H1484 0.950 . S
C1510 C1506 1.385 . S
C1510 C1509 1.374 . S
C1511 C1508 1.499 . S
C1511 C1512 1.373 . S
C1511 C1513 1.389 . S
C1512 H1485 0.950 . S
C1512 C1498 1.377 . S
C1512 C1511 1.373 . S
C1513 C1497 1.377 . S
C1513 C1511 1.389 . S
C1513 C1514 1.524 . S
C1514 C1513 1.524 . S
C1514 C1515 1.397 . S
C1514 C1519 1.363 . S
C1515 H1486 0.950 . S
C1515 C1514 1.397 . S
C1515 C1516 1.334 . S
C1516 H1487 0.950 . S
C1516 C1515 1.334 . S
C1516 C1517 1.287 . S
C1517 C1516 1.287 . S
C1517 C1518 1.524 . S
C1517 H1520 0.999 . S
C1518 H1488 0.950 . S
C1518 C1517 1.524 . S
C1518 C1519 1.415 . S
C1519 H1489 0.950 . S
C1519 C1514 1.363 . S
C1519 C1518 1.415 . S
H1520 C1517 0.999 . S
H1521 C1502 0.913 . S
H1522 C1540 0.951 . S
H1523 C1542 0.951 . S
H1524 C1544 0.950 . S
H1525 C1545 0.950 . S
H1526 C1547 0.950 . S
H1527 C1550 0.950 . S
H1528 C1551 0.950 . S
H1529 C1553 0.950 . S
H1530 C1554 0.950 . S
H1531 C1555 0.951 . S
H1532 C1557 0.951 . S
H1533 C1559 0.950 . S
H1534 C1560 0.950 . S
H1535 C1562 0.950 . S
H1536 C1565 0.950 . S
H1537 C1566 0.950 . S
H1538 C1568 0.950 . S
H1539 C1569 0.950 . S
C1540 H1522 0.951 . S
C1540 C1541 1.366 . S
C1540 C1542 1.388 . S
C1541 C1540 1.366 . S
C1541 C1545 1.385 . S
C1542 H1523 0.951 . S
C1542 C1540 1.388 . S
C1542 C1543 1.366 . S
C1543 C1542 1.366 . S
C1543 C1544 1.414 . S
C1543 C1546 1.499 . S
C1544 H1524 0.950 . S
C1544 C1543 1.414 . S
C1544 C1545 1.374 . S
C1545 H1525 0.950 . S
C1545 C1541 1.385 . S
C1545 C1544 1.374 . S
C1546 C1543 1.499 . S
C1546 C1547 1.373 . S
C1546 C1548 1.389 . S
C1547 H1526 0.950 . S
C1547 C1546 1.373 . S
C1547 C1563 1.377 . S
C1548 C1546 1.389 . S
C1548 C1549 1.524 . S
C1548 C1562 1.377 . S
C1549 C1548 1.524 . S
C1549 C1550 1.397 . S
C1549 C1554 1.363 . S
C1550 H1527 0.950 . S
C1550 C1549 1.397 . S
C1550 C1551 1.334 . S
C1551 H1528 0.950 . S
C1551 C1550 1.334 . S
C1551 C1552 1.287 . S
C1552 C1551 1.287 . S
C1552 C1553 1.524 . S
C1552 H1571 0.913 . S
C1553 H1529 0.950 . S
C1553 C1552 1.524 . S
C1553 C1554 1.415 . S
C1554 H1530 0.950 . S
C1554 C1549 1.363 . S
C1554 C1553 1.415 . S
C1555 H1531 0.951 . S
C1555 C1556 1.366 . S
C1555 C1557 1.388 . S
C1556 C1555 1.366 . S
C1556 C1560 1.385 . S
C1557 H1532 0.951 . S
C1557 C1555 1.388 . S
C1557 C1558 1.366 . S
C1558 C1557 1.366 . S
C1558 C1559 1.414 . S
C1558 C1561 1.499 . S
C1559 H1533 0.950 . S
C1559 C1558 1.414 . S
C1559 C1560 1.374 . S
C1560 H1534 0.950 . S
C1560 C1556 1.385 . S
C1560 C1559 1.374 . S
C1561 C1558 1.499 . S
C1561 C1562 1.373 . S
C1561 C1563 1.389 . S
C1562 H1535 0.950 . S
C1562 C1548 1.377 . S
C1562 C1561 1.373 . S
C1563 C1547 1.377 . S
C1563 C1561 1.389 . S
C1563 C1564 1.524 . S
C1564 C1563 1.524 . S
C1564 C1565 1.397 . S
C1564 C1569 1.363 . S
C1565 H1536 0.950 . S
C1565 C1564 1.397 . S
C1565 C1566 1.334 . S
C1566 H1537 0.950 . S
C1566 C1565 1.334 . S
C1566 C1567 1.287 . S
C1567 C1566 1.287 . S
C1567 C1568 1.524 . S
C1567 H1570 0.999 . S
C1568 H1538 0.950 . S
C1568 C1567 1.524 . S
C1568 C1569 1.415 . S
C1569 H1539 0.950 . S
C1569 C1564 1.363 . S
C1569 C1568 1.415 . S
H1570 C1567 0.999 . S
H1571 C1552 0.913 . S
H1572 C1590 0.951 . S
H1573 C1592 0.951 . S
H1574 C1594 0.950 . S
H1575 C1595 0.950 1_565 S
H1576 C1597 0.950 . S
H1577 C1600 0.950 . S
H1578 C1601 0.950 . S
H1579 C1603 0.950 . S
H1580 C1604 0.950 . S
H1581 C1605 0.951 . S
H1582 C1607 0.951 . S
H1583 C1609 0.950 . S
H1584 C1610 0.950 . S
H1585 C1612 0.950 . S
H1586 C1615 0.950 . S
H1587 C1616 0.950 . S
H1588 C1618 0.950 . S
H1589 C1619 0.950 . S
C1590 H1572 0.951 . S
C1590 C1591 1.366 . S
C1590 C1592 1.388 . S
C1591 C1590 1.366 . S
C1591 C1595 1.385 . S
C1592 H1573 0.951 . S
C1592 C1590 1.388 . S
C1592 C1593 1.366 . S
C1593 C1592 1.366 . S
C1593 C1594 1.414 . S
C1593 C1596 1.499 . S
C1594 H1574 0.950 . S
C1594 C1593 1.414 . S
C1594 C1595 1.374 . S
C1595 H1575 0.950 1_545 S
C1595 C1591 1.385 . S
C1595 C1594 1.374 . S
C1596 C1593 1.499 . S
C1596 C1597 1.373 . S
C1596 C1598 1.389 . S
C1597 H1576 0.950 . S
C1597 C1596 1.373 . S
C1597 C1613 1.377 . S
C1598 C1596 1.389 . S
C1598 C1599 1.524 . S
C1598 C1612 1.377 . S
C1599 C1598 1.524 . S
C1599 C1600 1.397 . S
C1599 C1604 1.363 . S
C1600 H1577 0.950 . S
C1600 C1599 1.397 . S
C1600 C1601 1.334 . S
C1601 H1578 0.950 . S
C1601 C1600 1.334 . S
C1601 C1602 1.287 . S
C1602 C1601 1.287 . S
C1602 C1603 1.524 . S
C1602 H1621 0.913 . S
C1603 H1579 0.950 . S
C1603 C1602 1.524 . S
C1603 C1604 1.415 . S
C1604 H1580 0.950 . S
C1604 C1599 1.363 . S
C1604 C1603 1.415 . S
C1605 H1581 0.951 . S
C1605 C1606 1.366 . S
C1605 C1607 1.388 . S
C1606 C1605 1.366 . S
C1606 C1610 1.385 . S
C1607 H1582 0.951 . S
C1607 C1605 1.388 . S
C1607 C1608 1.366 . S
C1608 C1607 1.366 . S
C1608 C1609 1.414 . S
C1608 C1611 1.499 . S
C1609 H1583 0.950 . S
C1609 C1608 1.414 . S
C1609 C1610 1.374 . S
C1610 H1584 0.950 . S
C1610 C1606 1.385 . S
C1610 C1609 1.374 . S
C1611 C1608 1.499 . S
C1611 C1612 1.373 . S
C1611 C1613 1.389 . S
C1612 H1585 0.950 . S
C1612 C1598 1.377 . S
C1612 C1611 1.373 . S
C1613 C1597 1.377 . S
C1613 C1611 1.389 . S
C1613 C1614 1.524 . S
C1614 C1613 1.524 . S
C1614 C1615 1.397 . S
C1614 C1619 1.363 . S
C1615 H1586 0.950 . S
C1615 C1614 1.397 . S
C1615 C1616 1.334 . S
C1616 H1587 0.950 . S
C1616 C1615 1.334 . S
C1616 C1617 1.287 . S
C1617 C1616 1.287 . S
C1617 C1618 1.524 . S
C1617 H1620 0.999 . S
C1618 H1588 0.950 . S
C1618 C1617 1.524 . S
C1618 C1619 1.415 . S
C1619 H1589 0.950 . S
C1619 C1614 1.363 . S
C1619 C1618 1.415 . S
H1620 C1617 0.999 . S
H1621 C1602 0.913 . S
H1622 C1640 0.951 . S
H1623 C1642 0.951 . S
H1624 C1644 0.950 . S
H1625 C1645 0.950 . S
H1626 C1647 0.950 . S
H1627 C1650 0.950 . S
H1628 C1651 0.950 . S
H1629 C1653 0.950 . S
H1630 C1654 0.950 . S
H1631 C1655 0.951 . S
H1632 C1657 0.951 . S
H1633 C1659 0.950 . S
H1634 C1660 0.950 . S
H1635 C1662 0.950 . S
H1636 C1665 0.950 . S
H1637 C1666 0.950 . S
H1638 C1668 0.950 . S
H1639 C1669 0.950 . S
C1640 H1622 0.951 . S
C1640 C1641 1.366 . S
C1640 C1642 1.388 . S
C1641 C1640 1.366 . S
C1641 C1645 1.385 . S
C1642 H1623 0.951 . S
C1642 C1640 1.388 . S
C1642 C1643 1.366 . S
C1643 C1642 1.366 . S
C1643 C1644 1.414 . S
C1643 C1646 1.499 . S
C1644 H1624 0.950 . S
C1644 C1643 1.414 . S
C1644 C1645 1.374 . S
C1645 H1625 0.950 . S
C1645 C1641 1.385 . S
C1645 C1644 1.374 . S
C1646 C1643 1.499 . S
C1646 C1647 1.373 . S
C1646 C1648 1.389 . S
C1647 H1626 0.950 . S
C1647 C1646 1.373 . S
C1647 C1663 1.377 . S
C1648 C1646 1.389 . S
C1648 C1649 1.524 . S
C1648 C1662 1.377 . S
C1649 C1648 1.524 . S
C1649 C1650 1.397 . S
C1649 C1654 1.363 . S
C1650 H1627 0.950 . S
C1650 C1649 1.397 . S
C1650 C1651 1.334 . S
C1651 H1628 0.950 . S
C1651 C1650 1.334 . S
C1651 C1652 1.287 . S
C1652 C1651 1.287 . S
C1652 C1653 1.524 . S
C1652 H1671 0.913 . S
C1653 H1629 0.950 . S
C1653 C1652 1.524 . S
C1653 C1654 1.415 . S
C1654 H1630 0.950 . S
C1654 C1649 1.363 . S
C1654 C1653 1.415 . S
C1655 H1631 0.951 . S
C1655 C1656 1.366 . S
C1655 C1657 1.388 . S
C1656 C1655 1.366 . S
C1656 C1660 1.385 . S
C1657 H1632 0.951 . S
C1657 C1655 1.388 . S
C1657 C1658 1.366 . S
C1658 C1657 1.366 . S
C1658 C1659 1.414 . S
C1658 C1661 1.499 . S
C1659 H1633 0.950 . S
C1659 C1658 1.414 . S
C1659 C1660 1.374 . S
C1660 H1634 0.950 . S
C1660 C1656 1.385 . S
C1660 C1659 1.374 . S
C1661 C1658 1.499 . S
C1661 C1662 1.373 . S
C1661 C1663 1.389 . S
C1662 H1635 0.950 . S
C1662 C1648 1.377 . S
C1662 C1661 1.373 . S
C1663 C1647 1.377 . S
C1663 C1661 1.389 . S
C1663 C1664 1.524 . S
C1664 C1663 1.524 . S
C1664 C1665 1.397 . S
C1664 C1669 1.363 . S
C1665 H1636 0.950 . S
C1665 C1664 1.397 . S
C1665 C1666 1.334 . S
C1666 H1637 0.950 . S
C1666 C1665 1.334 . S
C1666 C1667 1.287 . S
C1667 C1666 1.287 . S
C1667 C1668 1.524 . S
C1667 H1670 0.999 . S
C1668 H1638 0.950 . S
C1668 C1667 1.524 . S
C1668 C1669 1.415 . S
C1669 H1639 0.950 . S
C1669 C1664 1.363 . S
C1669 C1668 1.415 . S
H1670 C1667 0.999 . S
H1671 C1652 0.913 . S
H1672 C1690 0.951 . S
H1673 C1692 0.951 . S
H1674 C1694 0.950 . S
H1675 C1695 0.950 . S
H1676 C1697 0.950 . S
H1677 C1700 0.950 . S
H1678 C1701 0.950 . S
H1679 C1703 0.950 . S
H1680 C1704 0.950 . S
H1681 C1705 0.951 . S
H1682 C1707 0.951 . S
H1683 C1709 0.950 . S
H1684 C1710 0.950 . S
H1685 C1712 0.950 . S
H1686 C1715 0.950 . S
H1687 C1716 0.950 . S
H1688 C1718 0.950 . S
H1689 C1719 0.950 . S
C1690 H1672 0.951 . S
C1690 C1691 1.366 . S
C1690 C1692 1.388 . S
C1691 C1690 1.366 . S
C1691 C1695 1.385 . S
C1692 H1673 0.951 . S
C1692 C1690 1.388 . S
C1692 C1693 1.366 . S
C1693 C1692 1.366 . S
C1693 C1694 1.414 . S
C1693 C1696 1.499 . S
C1694 H1674 0.950 . S
C1694 C1693 1.414 . S
C1694 C1695 1.374 . S
C1695 H1675 0.950 . S
C1695 C1691 1.385 . S
C1695 C1694 1.374 . S
C1696 C1693 1.499 . S
C1696 C1697 1.373 . S
C1696 C1698 1.389 . S
C1697 H1676 0.950 . S
C1697 C1696 1.373 . S
C1697 C1713 1.377 . S
C1698 C1696 1.389 . S
C1698 C1699 1.524 . S
C1698 C1712 1.377 . S
C1699 C1698 1.524 . S
C1699 C1700 1.397 . S
C1699 C1704 1.363 . S
C1700 H1677 0.950 . S
C1700 C1699 1.397 . S
C1700 C1701 1.334 . S
C1701 H1678 0.950 . S
C1701 C1700 1.334 . S
C1701 C1702 1.287 . S
C1702 C1701 1.287 . S
C1702 C1703 1.524 . S
C1702 H1721 0.913 . S
C1703 H1679 0.950 . S
C1703 C1702 1.524 . S
C1703 C1704 1.415 . S
C1704 H1680 0.950 . S
C1704 C1699 1.363 . S
C1704 C1703 1.415 . S
C1705 H1681 0.951 . S
C1705 C1706 1.366 . S
C1705 C1707 1.388 . S
C1706 C1705 1.366 . S
C1706 C1710 1.385 . S
C1707 H1682 0.951 . S
C1707 C1705 1.388 . S
C1707 C1708 1.366 . S
C1708 C1707 1.366 . S
C1708 C1709 1.414 . S
C1708 C1711 1.499 . S
C1709 H1683 0.950 . S
C1709 C1708 1.414 . S
C1709 C1710 1.374 . S
C1710 H1684 0.950 . S
C1710 C1706 1.385 . S
C1710 C1709 1.374 . S
C1711 C1708 1.499 . S
C1711 C1712 1.373 . S
C1711 C1713 1.389 . S
C1712 H1685 0.950 . S
C1712 C1698 1.377 . S
C1712 C1711 1.373 . S
C1713 C1697 1.377 . S
C1713 C1711 1.389 . S
C1713 C1714 1.524 . S
C1714 C1713 1.524 . S
C1714 C1715 1.397 . S
C1714 C1719 1.363 . S
C1715 H1686 0.950 . S
C1715 C1714 1.397 . S
C1715 C1716 1.334 . S
C1716 H1687 0.950 . S
C1716 C1715 1.334 . S
C1716 C1717 1.287 . S
C1717 C1716 1.287 . S
C1717 C1718 1.524 . S
C1717 H1720 0.999 . S
C1718 H1688 0.950 . S
C1718 C1717 1.524 . S
C1718 C1719 1.415 . S
C1719 H1689 0.950 . S
C1719 C1714 1.363 . S
C1719 C1718 1.415 . S
H1720 C1717 0.999 . S
H1721 C1702 0.913 . S
H1722 C1740 0.951 . S
H1723 C1742 0.951 . S
H1724 C1744 0.950 . S
H1725 C1745 0.950 . S
H1726 C1747 0.950 . S
H1727 C1750 0.950 . S
H1728 C1751 0.950 . S
H1729 C1753 0.950 . S
H1730 C1754 0.950 1_545 S
H1731 C1755 0.951 . S
H1732 C1757 0.951 . S
H1733 C1759 0.950 . S
H1734 C1760 0.950 . S
H1735 C1762 0.950 . S
H1736 C1765 0.950 . S
H1737 C1766 0.950 . S
H1738 C1768 0.950 . S
H1739 C1769 0.950 . S
C1740 H1722 0.951 . S
C1740 C1741 1.366 . S
C1740 C1742 1.388 . S
C1741 C1740 1.366 . S
C1741 C1745 1.385 . S
C1742 H1723 0.951 . S
C1742 C1740 1.388 . S
C1742 C1743 1.366 . S
C1743 C1742 1.366 . S
C1743 C1744 1.414 . S
C1743 C1746 1.499 . S
C1744 H1724 0.950 . S
C1744 C1743 1.414 . S
C1744 C1745 1.374 . S
C1745 H1725 0.950 . S
C1745 C1741 1.385 . S
C1745 C1744 1.374 . S
C1746 C1743 1.499 . S
C1746 C1747 1.373 . S
C1746 C1748 1.389 . S
C1747 H1726 0.950 . S
C1747 C1746 1.373 . S
C1747 C1763 1.377 . S
C1748 C1746 1.389 . S
C1748 C1749 1.524 1_545 S
C1748 C1762 1.377 . S
C1749 C1748 1.524 1_565 S
C1749 C1750 1.397 . S
C1749 C1754 1.363 . S
C1750 H1727 0.950 . S
C1750 C1749 1.397 . S
C1750 C1751 1.334 . S
C1751 H1728 0.950 . S
C1751 C1750 1.334 . S
C1751 C1752 1.287 . S
C1752 C1751 1.287 . S
C1752 C1753 1.524 . S
C1752 H1771 0.913 . S
C1753 H1729 0.950 . S
C1753 C1752 1.524 . S
C1753 C1754 1.415 . S
C1754 H1730 0.950 1_565 S
C1754 C1749 1.363 . S
C1754 C1753 1.415 . S
C1755 H1731 0.951 . S
C1755 C1756 1.366 . S
C1755 C1757 1.388 . S
C1756 C1755 1.366 . S
C1756 C1760 1.385 . S
C1757 H1732 0.951 . S
C1757 C1755 1.388 . S
C1757 C1758 1.366 . S
C1758 C1757 1.366 . S
C1758 C1759 1.414 . S
C1758 C1761 1.499 . S
C1759 H1733 0.950 . S
C1759 C1758 1.414 . S
C1759 C1760 1.374 . S
C1760 H1734 0.950 . S
C1760 C1756 1.385 . S
C1760 C1759 1.374 . S
C1761 C1758 1.499 . S
C1761 C1762 1.373 . S
C1761 C1763 1.389 . S
C1762 H1735 0.950 . S
C1762 C1748 1.377 . S
C1762 C1761 1.373 . S
C1763 C1747 1.377 . S
C1763 C1761 1.389 . S
C1763 C1764 1.524 . S
C1764 C1763 1.524 . S
C1764 C1765 1.397 . S
C1764 C1769 1.363 . S
C1765 H1736 0.950 . S
C1765 C1764 1.397 . S
C1765 C1766 1.334 . S
C1766 H1737 0.950 . S
C1766 C1765 1.334 . S
C1766 C1767 1.287 . S
C1767 C1766 1.287 . S
C1767 C1768 1.524 . S
C1767 H1770 0.999 . S
C1768 H1738 0.950 . S
C1768 C1767 1.524 . S
C1768 C1769 1.415 . S
C1769 H1739 0.950 . S
C1769 C1764 1.363 . S
C1769 C1768 1.415 . S
H1770 C1767 0.999 . S
H1771 C1752 0.913 . S
H1772 C1790 0.951 . S
H1773 C1792 0.951 . S
H1774 C1794 0.950 . S
H1775 C1795 0.950 . S
H1776 C1797 0.950 . S
H1777 C1800 0.950 . S
H1778 C1801 0.950 . S
H1779 C1803 0.950 . S
H1780 C1804 0.950 . S
H1781 C1805 0.951 . S
H1782 C1807 0.951 . S
H1783 C1809 0.950 . S
H1784 C1810 0.950 . S
H1785 C1812 0.950 . S
H1786 C1815 0.950 . S
H1787 C1816 0.950 . S
H1788 C1818 0.950 . S
H1789 C1819 0.950 . S
C1790 H1772 0.951 . S
C1790 C1791 1.366 . S
C1790 C1792 1.388 . S
C1791 C1790 1.366 . S
C1791 C1795 1.385 . S
C1792 H1773 0.951 . S
C1792 C1790 1.388 . S
C1792 C1793 1.366 . S
C1793 C1792 1.366 . S
C1793 C1794 1.414 . S
C1793 C1796 1.499 . S
C1794 H1774 0.950 . S
C1794 C1793 1.414 . S
C1794 C1795 1.374 . S
C1795 H1775 0.950 . S
C1795 C1791 1.385 . S
C1795 C1794 1.374 . S
C1796 C1793 1.499 . S
C1796 C1797 1.373 . S
C1796 C1798 1.389 . S
C1797 H1776 0.950 . S
C1797 C1796 1.373 . S
C1797 C1813 1.377 . S
C1798 C1796 1.389 . S
C1798 C1799 1.524 . S
C1798 C1812 1.377 . S
C1799 C1798 1.524 . S
C1799 C1800 1.397 . S
C1799 C1804 1.363 . S
C1800 H1777 0.950 . S
C1800 C1799 1.397 . S
C1800 C1801 1.334 . S
C1801 H1778 0.950 . S
C1801 C1800 1.334 . S
C1801 C1802 1.287 . S
C1802 C1801 1.287 . S
C1802 C1803 1.524 . S
C1802 H1821 0.913 . S
C1803 H1779 0.950 . S
C1803 C1802 1.524 . S
C1803 C1804 1.415 . S
C1804 H1780 0.950 . S
C1804 C1799 1.363 . S
C1804 C1803 1.415 . S
C1805 H1781 0.951 . S
C1805 C1806 1.366 . S
C1805 C1807 1.388 . S
C1806 C1805 1.366 . S
C1806 C1810 1.385 . S
C1807 H1782 0.951 . S
C1807 C1805 1.388 . S
C1807 C1808 1.366 . S
C1808 C1807 1.366 . S
C1808 C1809 1.414 . S
C1808 C1811 1.499 . S
C1809 H1783 0.950 . S
C1809 C1808 1.414 . S
C1809 C1810 1.374 . S
C1810 H1784 0.950 . S
C1810 C1806 1.385 . S
C1810 C1809 1.374 . S
C1811 C1808 1.499 . S
C1811 C1812 1.373 . S
C1811 C1813 1.389 . S
C1812 H1785 0.950 . S
C1812 C1798 1.377 . S
C1812 C1811 1.373 . S
C1813 C1797 1.377 . S
C1813 C1811 1.389 . S
C1813 C1814 1.524 . S
C1814 C1813 1.524 . S
C1814 C1815 1.397 . S
C1814 C1819 1.363 . S
C1815 H1786 0.950 . S
C1815 C1814 1.397 . S
C1815 C1816 1.334 . S
C1816 H1787 0.950 . S
C1816 C1815 1.334 . S
C1816 C1817 1.287 . S
C1817 C1816 1.287 . S
C1817 C1818 1.524 . S
C1817 H1820 0.999 . S
C1818 H1788 0.950 . S
C1818 C1817 1.524 . S
C1818 C1819 1.415 . S
C1819 H1789 0.950 . S
C1819 C1814 1.363 . S
C1819 C1818 1.415 . S
H1820 C1817 0.999 . S
H1821 C1802 0.913 . S
H1822 C1840 0.951 . S
H1823 C1842 0.951 . S
H1824 C1844 0.950 . S
H1825 C1845 0.950 . S
H1826 C1847 0.950 . S
H1827 C1850 0.950 . S
H1828 C1851 0.950 . S
H1829 C1853 0.950 . S
H1830 C1854 0.950 . S
H1831 C1855 0.951 . S
H1832 C1857 0.951 . S
H1833 C1859 0.950 . S
H1834 C1860 0.950 . S
H1835 C1862 0.950 . S
H1836 C1865 0.950 . S
H1837 C1866 0.950 . S
H1838 C1868 0.950 . S
H1839 C1869 0.950 . S
C1840 H1822 0.951 . S
C1840 C1841 1.366 . S
C1840 C1842 1.388 . S
C1841 C1840 1.366 . S
C1841 C1845 1.385 . S
C1842 H1823 0.951 . S
C1842 C1840 1.388 . S
C1842 C1843 1.366 . S
C1843 C1842 1.366 . S
C1843 C1844 1.414 . S
C1843 C1846 1.499 . S
C1844 H1824 0.950 . S
C1844 C1843 1.414 . S
C1844 C1845 1.374 . S
C1845 H1825 0.950 . S
C1845 C1841 1.385 . S
C1845 C1844 1.374 . S
C1846 C1843 1.499 . S
C1846 C1847 1.373 . S
C1846 C1848 1.389 . S
C1847 H1826 0.950 . S
C1847 C1846 1.373 . S
C1847 C1863 1.377 . S
C1848 C1846 1.389 . S
C1848 C1849 1.524 . S
C1848 C1862 1.377 . S
C1849 C1848 1.524 . S
C1849 C1850 1.397 . S
C1849 C1854 1.363 . S
C1850 H1827 0.950 . S
C1850 C1849 1.397 . S
C1850 C1851 1.334 . S
C1851 H1828 0.950 . S
C1851 C1850 1.334 . S
C1851 C1852 1.287 . S
C1852 C1851 1.287 . S
C1852 C1853 1.524 . S
C1852 H1871 0.913 . S
C1853 H1829 0.950 . S
C1853 C1852 1.524 . S
C1853 C1854 1.415 . S
C1854 H1830 0.950 . S
C1854 C1849 1.363 . S
C1854 C1853 1.415 . S
C1855 H1831 0.951 . S
C1855 C1856 1.366 . S
C1855 C1857 1.388 . S
C1856 C1855 1.366 . S
C1856 C1860 1.385 . S
C1857 H1832 0.951 . S
C1857 C1855 1.388 . S
C1857 C1858 1.366 . S
C1858 C1857 1.366 . S
C1858 C1859 1.414 . S
C1858 C1861 1.499 . S
C1859 H1833 0.950 . S
C1859 C1858 1.414 . S
C1859 C1860 1.374 . S
C1860 H1834 0.950 . S
C1860 C1856 1.385 . S
C1860 C1859 1.374 . S
C1861 C1858 1.499 . S
C1861 C1862 1.373 . S
C1861 C1863 1.389 . S
C1862 H1835 0.950 . S
C1862 C1848 1.377 . S
C1862 C1861 1.373 . S
C1863 C1847 1.377 . S
C1863 C1861 1.389 . S
C1863 C1864 1.524 . S
C1864 C1863 1.524 . S
C1864 C1865 1.397 . S
C1864 C1869 1.363 . S
C1865 H1836 0.950 . S
C1865 C1864 1.397 . S
C1865 C1866 1.334 . S
C1866 H1837 0.950 . S
C1866 C1865 1.334 . S
C1866 C1867 1.287 . S
C1867 C1866 1.287 . S
C1867 C1868 1.524 . S
C1867 H1870 0.999 . S
C1868 H1838 0.950 . S
C1868 C1867 1.524 . S
C1868 C1869 1.415 . S
C1869 H1839 0.950 . S
C1869 C1864 1.363 . S
C1869 C1868 1.415 . S
H1870 C1867 0.999 . S
H1871 C1852 0.913 . S
H1872 C1890 0.951 . S
H1873 C1892 0.951 . S
H1874 C1894 0.950 . S
H1875 C1895 0.950 . S
H1876 C1897 0.950 . S
H1877 C1900 0.950 . S
H1878 C1901 0.950 . S
H1879 C1903 0.950 . S
H1880 C1904 0.950 . S
H1881 C1905 0.951 . S
H1882 C1907 0.951 . S
H1883 C1909 0.950 . S
H1884 C1910 0.950 . S
H1885 C1912 0.950 . S
H1886 C1915 0.950 . S
H1887 C1916 0.950 . S
H1888 C1918 0.950 . S
H1889 C1919 0.950 . S
C1890 H1872 0.951 . S
C1890 C1891 1.366 . S
C1890 C1892 1.388 . S
C1891 C1890 1.366 . S
C1891 C1895 1.385 . S
C1892 H1873 0.951 . S
C1892 C1890 1.388 . S
C1892 C1893 1.366 . S
C1893 C1892 1.366 . S
C1893 C1894 1.414 . S
C1893 C1896 1.499 . S
C1894 H1874 0.950 . S
C1894 C1893 1.414 . S
C1894 C1895 1.374 . S
C1895 H1875 0.950 . S
C1895 C1891 1.385 . S
C1895 C1894 1.374 . S
C1896 C1893 1.499 . S
C1896 C1897 1.373 . S
C1896 C1898 1.389 . S
C1897 H1876 0.950 . S
C1897 C1896 1.373 . S
C1897 C1913 1.377 . S
C1898 C1896 1.389 . S
C1898 C1899 1.524 . S
C1898 C1912 1.377 . S
C1899 C1898 1.524 . S
C1899 C1900 1.397 . S
C1899 C1904 1.363 . S
C1900 H1877 0.950 . S
C1900 C1899 1.397 . S
C1900 C1901 1.334 . S
C1901 H1878 0.950 . S
C1901 C1900 1.334 . S
C1901 C1902 1.287 . S
C1902 C1901 1.287 . S
C1902 C1903 1.524 . S
C1902 H1921 0.913 . S
C1903 H1879 0.950 . S
C1903 C1902 1.524 . S
C1903 C1904 1.415 . S
C1904 H1880 0.950 . S
C1904 C1899 1.363 . S
C1904 C1903 1.415 . S
C1905 H1881 0.951 . S
C1905 C1906 1.366 . S
C1905 C1907 1.388 . S
C1906 C1905 1.366 . S
C1906 C1910 1.385 . S
C1907 H1882 0.951 . S
C1907 C1905 1.388 . S
C1907 C1908 1.366 . S
C1908 C1907 1.366 . S
C1908 C1909 1.414 . S
C1908 C1911 1.499 . S
C1909 H1883 0.950 . S
C1909 C1908 1.414 . S
C1909 C1910 1.374 . S
C1910 H1884 0.950 . S
C1910 C1906 1.385 . S
C1910 C1909 1.374 . S
C1911 C1908 1.499 . S
C1911 C1912 1.373 . S
C1911 C1913 1.389 . S
C1912 H1885 0.950 . S
C1912 C1898 1.377 . S
C1912 C1911 1.373 . S
C1913 C1897 1.377 . S
C1913 C1911 1.389 . S
C1913 C1914 1.524 . S
C1914 C1913 1.524 . S
C1914 C1915 1.397 . S
C1914 C1919 1.363 . S
C1915 H1886 0.950 . S
C1915 C1914 1.397 . S
C1915 C1916 1.334 . S
C1916 H1887 0.950 . S
C1916 C1915 1.334 . S
C1916 C1917 1.287 . S
C1917 C1916 1.287 . S
C1917 C1918 1.524 . S
C1917 H1920 0.999 . S
C1918 H1888 0.950 . S
C1918 C1917 1.524 . S
C1918 C1919 1.415 . S
C1919 H1889 0.950 . S
C1919 C1914 1.363 . S
C1919 C1918 1.415 . S
H1920 C1917 0.999 . S
H1921 C1902 0.913 . S
H1922 C1940 0.951 . S
H1923 C1942 0.951 1_655 S
H1924 C1944 0.950 . S
H1925 C1945 0.950 . S
H1926 C1947 0.944 1_565 S
H1927 C1950 0.950 . S
H1928 C1951 0.950 . S
H1929 C1953 0.950 . S
H1930 C1954 0.950 . S
H1931 C1955 0.951 1_455 S
H1932 C1957 0.951 . S
H1933 C1959 0.950 . S
H1934 C1960 0.950 . S
H1935 C1962 0.950 . S
H1936 C1965 0.950 . S
H1937 C1966 0.950 . S
H1938 C1968 0.950 . S
H1939 C1969 0.950 . S
C1940 H1922 0.951 . S
C1940 C1941 1.366 . S
C1940 C1942 1.388 . S
C1941 C1940 1.366 . S
C1941 C1945 1.385 . S
C1942 H1923 0.951 1_455 S
C1942 C1940 1.388 . S
C1942 C1943 1.366 . S
C1943 C1942 1.366 . S
C1943 C1944 1.414 . S
C1943 C1946 1.499 . S
C1944 H1924 0.950 . S
C1944 C1943 1.414 . S
C1944 C1945 1.374 . S
C1945 H1925 0.950 . S
C1945 C1941 1.385 . S
C1945 C1944 1.374 . S
C1946 C1943 1.499 . S
C1946 C1947 1.373 . S
C1946 C1948 1.412 . S
C1947 H1926 0.944 1_545 S
C1947 C1946 1.373 . S
C1947 C1963 1.377 . S
C1948 C1946 1.412 . S
C1948 C1949 1.519 1_455 S
C1948 C1962 1.361 1_455 S
C1949 C1948 1.519 1_655 S
C1949 C1950 1.397 1_655 S
C1949 C1954 1.363 . S
C1950 H1927 0.950 . S
C1950 C1949 1.397 1_455 S
C1950 C1951 1.334 . S
C1951 H1928 0.950 . S
C1951 C1950 1.334 . S
C1951 C1952 1.305 . S
C1952 C1951 1.305 . S
C1952 C1953 1.507 1_455 S
C1952 H1971 0.913 . S
C1953 H1929 0.950 . S
C1953 C1952 1.507 1_655 S
C1953 C1954 1.415 . S
C1954 H1930 0.950 . S
C1954 C1949 1.363 . S
C1954 C1953 1.415 . S
C1955 H1931 0.951 1_655 S
C1955 C1956 1.366 . S
C1955 C1957 1.388 1_655 S
C1956 C1955 1.366 . S
C1956 C1960 1.385 . S
C1957 H1932 0.951 . S
C1957 C1955 1.388 1_455 S
C1957 C1958 1.366 1_455 S
C1958 C1957 1.366 1_655 S
C1958 C1959 1.414 . S
C1958 C1961 1.499 . S
C1959 H1933 0.950 . S
C1959 C1958 1.414 . S
C1959 C1960 1.374 . S
C1960 H1934 0.950 . S
C1960 C1956 1.385 . S
C1960 C1959 1.374 . S
C1961 C1958 1.499 . S
C1961 C1962 1.373 . S
C1961 C1963 1.389 1_655 S
C1962 H1935 0.950 . S
C1962 C1948 1.361 1_655 S
C1962 C1961 1.373 . S
C1963 C1947 1.377 . S
C1963 C1961 1.389 1_455 S
C1963 C1964 1.524 1_545 S
C1964 C1963 1.524 1_565 S
C1964 C1965 1.397 1_455 S
C1964 C1969 1.363 . S
C1965 H1936 0.950 . S
C1965 C1964 1.397 1_655 S
C1965 C1966 1.334 . S
C1966 H1937 0.950 . S
C1966 C1965 1.334 . S
C1966 C1967 1.287 1_655 S
C1967 C1966 1.287 1_455 S
C1967 C1968 1.524 . S
C1967 H1970 0.999 . S
C1968 H1938 0.950 . S
C1968 C1967 1.524 . S
C1968 C1969 1.415 . S
C1969 H1939 0.950 . S
C1969 C1964 1.363 . S
C1969 C1968 1.415 . S
H1970 C1967 0.999 . S
H1971 C1952 0.913 . S
H1972 C1990 0.951 . S
H1973 C1992 0.951 . S
H1974 C1994 0.950 . S
H1975 C1995 0.950 . S
H1976 C1997 0.950 . S
H1977 C2000 0.950 . S
H1978 C2001 0.950 . S
H1979 C2003 0.950 . S
H1980 C2004 0.950 . S
H1981 C2005 0.951 . S
H1982 C2007 0.951 . S
H1983 C2009 0.950 . S
H1984 C2010 0.950 . S
H1985 C2012 0.950 . S
H1986 C2015 0.950 . S
H1987 C2016 0.950 . S
H1988 C2018 0.950 . S
H1989 C2019 0.950 . S
C1990 H1972 0.951 . S
C1990 C1991 1.366 . S
C1990 C1992 1.388 . S
C1991 C1990 1.366 . S
C1991 C1995 1.385 . S
C1992 H1973 0.951 . S
C1992 C1990 1.388 . S
C1992 C1993 1.366 . S
C1993 C1992 1.366 . S
C1993 C1994 1.414 . S
C1993 C1996 1.499 . S
C1994 H1974 0.950 . S
C1994 C1993 1.414 . S
C1994 C1995 1.374 . S
C1995 H1975 0.950 . S
C1995 C1991 1.385 . S
C1995 C1994 1.374 . S
C1996 C1993 1.499 . S
C1996 C1997 1.373 . S
C1996 C1998 1.389 . S
C1997 H1976 0.950 . S
C1997 C1996 1.373 . S
C1997 C2013 1.377 . S
C1998 C1996 1.389 . S
C1998 C1999 1.524 . S
C1998 C2012 1.377 . S
C1999 C1998 1.524 . S
C1999 C2000 1.397 . S
C1999 C2004 1.363 . S
C2000 H1977 0.950 . S
C2000 C1999 1.397 . S
C2000 C2001 1.334 . S
C2001 H1978 0.950 . S
C2001 C2000 1.334 . S
C2001 C2002 1.287 . S
C2002 C2001 1.287 . S
C2002 C2003 1.524 . S
C2002 H2021 0.913 . S
C2003 H1979 0.950 . S
C2003 C2002 1.524 . S
C2003 C2004 1.415 . S
C2004 H1980 0.950 . S
C2004 C1999 1.363 . S
C2004 C2003 1.415 . S
C2005 H1981 0.951 . S
C2005 C2006 1.366 . S
C2005 C2007 1.388 . S
C2006 C2005 1.366 . S
C2006 C2010 1.385 . S
C2007 H1982 0.951 . S
C2007 C2005 1.388 . S
C2007 C2008 1.366 . S
C2008 C2007 1.366 . S
C2008 C2009 1.414 . S
C2008 C2011 1.499 . S
C2009 H1983 0.950 . S
C2009 C2008 1.414 . S
C2009 C2010 1.374 . S
C2010 H1984 0.950 . S
C2010 C2006 1.385 . S
C2010 C2009 1.374 . S
C2011 C2008 1.499 . S
C2011 C2012 1.373 . S
C2011 C2013 1.389 . S
C2012 H1985 0.950 . S
C2012 C1998 1.377 . S
C2012 C2011 1.373 . S
C2013 C1997 1.377 . S
C2013 C2011 1.389 . S
C2013 C2014 1.524 . S
C2014 C2013 1.524 . S
C2014 C2015 1.397 . S
C2014 C2019 1.363 . S
C2015 H1986 0.950 . S
C2015 C2014 1.397 . S
C2015 C2016 1.334 . S
C2016 H1987 0.950 . S
C2016 C2015 1.334 . S
C2016 C2017 1.287 . S
C2017 C2016 1.287 . S
C2017 C2018 1.524 . S
C2017 H2020 0.999 . S
C2018 H1988 0.950 . S
C2018 C2017 1.524 . S
C2018 C2019 1.415 . S
C2019 H1989 0.950 . S
C2019 C2014 1.363 . S
C2019 C2018 1.415 . S
H2020 C2017 0.999 . S
H2021 C2002 0.913 . S
H2022 C2040 0.951 . S
H2023 C2042 0.951 . S
H2024 C2044 0.950 . S
H2025 C2045 0.950 1_655 S
H2026 C2047 0.950 . S
H2027 C2050 0.950 . S
H2028 C2051 0.950 . S
H2029 C2053 0.950 . S
H2030 C2054 0.950 . S
H2031 C2055 0.951 . S
H2032 C2057 0.951 . S
H2033 C2059 0.950 . S
H2034 C2060 0.950 . S
H2035 C2062 0.950 . S
H2036 C2065 0.950 . S
H2037 C2066 0.950 . S
H2038 C2068 0.950 . S
H2039 C2069 0.950 . S
C2040 H2022 0.951 . S
C2040 C2041 1.366 . S
C2040 C2042 1.388 . S
C2041 C2040 1.366 . S
C2041 C2045 1.385 . S
C2042 H2023 0.951 . S
C2042 C2040 1.388 . S
C2042 C2043 1.366 . S
C2043 C2042 1.366 . S
C2043 C2044 1.414 . S
C2043 C2046 1.499 . S
C2044 H2024 0.950 . S
C2044 C2043 1.414 . S
C2044 C2045 1.374 . S
C2045 H2025 0.950 1_455 S
C2045 C2041 1.385 . S
C2045 C2044 1.374 . S
C2046 C2043 1.499 . S
C2046 C2047 1.373 . S
C2046 C2048 1.389 . S
C2047 H2026 0.950 . S
C2047 C2046 1.373 . S
C2047 C2063 1.377 . S
C2048 C2046 1.389 . S
C2048 C2049 1.524 . S
C2048 C2062 1.377 . S
C2049 C2048 1.524 . S
C2049 C2050 1.397 . S
C2049 C2054 1.363 . S
C2050 H2027 0.950 . S
C2050 C2049 1.397 . S
C2050 C2051 1.334 . S
C2051 H2028 0.950 . S
C2051 C2050 1.334 . S
C2051 C2052 1.287 . S
C2052 C2051 1.287 . S
C2052 C2053 1.524 . S
C2052 H2071 0.913 . S
C2053 H2029 0.950 . S
C2053 C2052 1.524 . S
C2053 C2054 1.415 . S
C2054 H2030 0.950 . S
C2054 C2049 1.363 . S
C2054 C2053 1.415 . S
C2055 H2031 0.951 . S
C2055 C2056 1.366 . S
C2055 C2057 1.388 . S
C2056 C2055 1.366 . S
C2056 C2060 1.385 . S
C2057 H2032 0.951 . S
C2057 C2055 1.388 . S
C2057 C2058 1.366 . S
C2058 C2057 1.366 . S
C2058 C2059 1.414 . S
C2058 C2061 1.499 . S
C2059 H2033 0.950 . S
C2059 C2058 1.414 . S
C2059 C2060 1.374 . S
C2060 H2034 0.950 . S
C2060 C2056 1.385 . S
C2060 C2059 1.374 . S
C2061 C2058 1.499 . S
C2061 C2062 1.373 . S
C2061 C2063 1.389 . S
C2062 H2035 0.950 . S
C2062 C2048 1.377 . S
C2062 C2061 1.373 . S
C2063 C2047 1.377 . S
C2063 C2061 1.389 . S
C2063 C2064 1.524 . S
C2064 C2063 1.524 . S
C2064 C2065 1.397 . S
C2064 C2069 1.363 . S
C2065 H2036 0.950 . S
C2065 C2064 1.397 . S
C2065 C2066 1.334 . S
C2066 H2037 0.950 . S
C2066 C2065 1.334 . S
C2066 C2067 1.287 . S
C2067 C2066 1.287 . S
C2067 C2068 1.524 . S
C2067 H2070 0.999 . S
C2068 H2038 0.950 . S
C2068 C2067 1.524 . S
C2068 C2069 1.415 . S
C2069 H2039 0.950 . S
C2069 C2064 1.363 . S
C2069 C2068 1.415 . S
H2070 C2067 0.999 . S
H2071 C2052 0.913 . S
H2072 C2090 0.951 . S
H2073 C2092 0.951 . S
H2074 C2094 0.950 . S
H2075 C2095 0.950 . S
H2076 C2097 0.950 . S
H2077 C2100 0.950 . S
H2078 C2101 0.950 . S
H2079 C2103 0.950 . S
H2080 C2104 0.950 . S
H2081 C2105 0.951 . S
H2082 C2107 0.951 . S
H2083 C2109 0.950 . S
H2084 C2110 0.950 . S
H2085 C2112 0.950 . S
H2086 C2115 0.950 . S
H2087 C2116 0.950 . S
H2088 C2118 0.950 . S
H2089 C2119 0.950 . S
C2090 H2072 0.951 . S
C2090 C2091 1.366 . S
C2090 C2092 1.388 . S
C2091 C2090 1.366 . S
C2091 C2095 1.385 . S
C2092 H2073 0.951 . S
C2092 C2090 1.388 . S
C2092 C2093 1.366 . S
C2093 C2092 1.366 . S
C2093 C2094 1.414 . S
C2093 C2096 1.499 . S
C2094 H2074 0.950 . S
C2094 C2093 1.414 . S
C2094 C2095 1.374 . S
C2095 H2075 0.950 . S
C2095 C2091 1.385 . S
C2095 C2094 1.374 . S
C2096 C2093 1.499 . S
C2096 C2097 1.373 . S
C2096 C2098 1.389 . S
C2097 H2076 0.950 . S
C2097 C2096 1.373 . S
C2097 C2113 1.377 . S
C2098 C2096 1.389 . S
C2098 C2099 1.524 . S
C2098 C2112 1.377 . S
C2099 C2098 1.524 . S
C2099 C2100 1.397 . S
C2099 C2104 1.363 . S
C2100 H2077 0.950 . S
C2100 C2099 1.397 . S
C2100 C2101 1.334 . S
C2101 H2078 0.950 . S
C2101 C2100 1.334 . S
C2101 C2102 1.287 . S
C2102 C2101 1.287 . S
C2102 C2103 1.524 . S
C2102 H2121 0.913 . S
C2103 H2079 0.950 . S
C2103 C2102 1.524 . S
C2103 C2104 1.415 . S
C2104 H2080 0.950 . S
C2104 C2099 1.363 . S
C2104 C2103 1.415 . S
C2105 H2081 0.951 . S
C2105 C2106 1.366 . S
C2105 C2107 1.388 . S
C2106 C2105 1.366 . S
C2106 C2110 1.385 . S
C2107 H2082 0.951 . S
C2107 C2105 1.388 . S
C2107 C2108 1.366 . S
C2108 C2107 1.366 . S
C2108 C2109 1.414 . S
C2108 C2111 1.499 . S
C2109 H2083 0.950 . S
C2109 C2108 1.414 . S
C2109 C2110 1.374 . S
C2110 H2084 0.950 . S
C2110 C2106 1.385 . S
C2110 C2109 1.374 . S
C2111 C2108 1.499 . S
C2111 C2112 1.373 . S
C2111 C2113 1.389 . S
C2112 H2085 0.950 . S
C2112 C2098 1.377 . S
C2112 C2111 1.373 . S
C2113 C2097 1.377 . S
C2113 C2111 1.389 . S
C2113 C2114 1.524 . S
C2114 C2113 1.524 . S
C2114 C2115 1.397 . S
C2114 C2119 1.363 . S
C2115 H2086 0.950 . S
C2115 C2114 1.397 . S
C2115 C2116 1.334 . S
C2116 H2087 0.950 . S
C2116 C2115 1.334 . S
C2116 C2117 1.287 . S
C2117 C2116 1.287 . S
C2117 C2118 1.524 . S
C2117 H2120 0.999 . S
C2118 H2088 0.950 . S
C2118 C2117 1.524 . S
C2118 C2119 1.415 . S
C2119 H2089 0.950 . S
C2119 C2114 1.363 . S
C2119 C2118 1.415 . S
H2120 C2117 0.999 . S
H2121 C2102 0.913 . S
H2122 C2140 0.951 . S
H2123 C2142 0.951 . S
H2124 C2144 0.950 . S
H2125 C2145 0.950 . S
H2126 C2147 0.950 . S
H2127 C2150 0.950 . S
H2128 C2151 0.950 . S
H2129 C2153 0.950 . S
H2130 C2154 0.950 . S
H2131 C2155 0.951 . S
H2132 C2157 0.951 . S
H2133 C2159 0.950 . S
H2134 C2160 0.950 . S
H2135 C2162 0.950 . S
H2136 C2165 0.950 . S
H2137 C2166 0.950 . S
H2138 C2168 0.950 . S
H2139 C2169 0.950 . S
C2140 H2122 0.951 . S
C2140 C2141 1.366 . S
C2140 C2142 1.388 . S
C2141 C2140 1.366 . S
C2141 C2145 1.385 1_455 S
C2142 H2123 0.951 . S
C2142 C2140 1.388 . S
C2142 C2143 1.366 . S
C2143 C2142 1.366 . S
C2143 C2144 1.414 1_455 S
C2143 C2146 1.499 . S
C2144 H2124 0.950 . S
C2144 C2143 1.414 1_655 S
C2144 C2145 1.374 . S
C2145 H2125 0.950 . S
C2145 C2141 1.385 1_655 S
C2145 C2144 1.374 . S
C2146 C2143 1.499 . S
C2146 C2147 1.373 1_455 S
C2146 C2148 1.389 . S
C2147 H2126 0.950 . S
C2147 C2146 1.373 1_655 S
C2147 C2163 1.377 . S
C2148 C2146 1.389 . S
C2148 C2149 1.524 . S
C2148 C2162 1.377 . S
C2149 C2148 1.524 . S
C2149 C2150 1.397 . S
C2149 C2154 1.363 . S
C2150 H2127 0.950 . S
C2150 C2149 1.397 . S
C2150 C2151 1.334 . S
C2151 H2128 0.950 . S
C2151 C2150 1.334 . S
C2151 C2152 1.287 . S
C2152 C2151 1.287 . S
C2152 C2153 1.524 . S
C2152 H2171 0.913 . S
C2153 H2129 0.950 . S
C2153 C2152 1.524 . S
C2153 C2154 1.415 . S
C2154 H2130 0.950 . S
C2154 C2149 1.363 . S
C2154 C2153 1.415 . S
C2155 H2131 0.951 . S
C2155 C2156 1.366 1_655 S
C2155 C2157 1.388 . S
C2156 C2155 1.366 1_455 S
C2156 C2160 1.385 . S
C2157 H2132 0.951 . S
C2157 C2155 1.388 . S
C2157 C2158 1.366 1_655 S
C2158 C2157 1.366 1_455 S
C2158 C2159 1.414 . S
C2158 C2161 1.499 . S
C2159 H2133 0.950 . S
C2159 C2158 1.414 . S
C2159 C2160 1.374 . S
C2160 H2134 0.950 . S
C2160 C2156 1.385 . S
C2160 C2159 1.374 . S
C2161 C2158 1.499 . S
C2161 C2162 1.373 . S
C2161 C2163 1.389 1_455 S
C2162 H2135 0.950 . S
C2162 C2148 1.377 . S
C2162 C2161 1.373 . S
C2163 C2147 1.377 . S
C2163 C2161 1.389 1_655 S
C2163 C2164 1.524 . S
C2164 C2163 1.524 . S
C2164 C2165 1.397 . S
C2164 C2169 1.363 . S
C2165 H2136 0.950 . S
C2165 C2164 1.397 . S
C2165 C2166 1.334 . S
C2166 H2137 0.950 . S
C2166 C2165 1.334 . S
C2166 C2167 1.287 . S
C2167 C2166 1.287 . S
C2167 C2168 1.524 . S
C2167 H2170 0.999 . S
C2168 H2138 0.950 . S
C2168 C2167 1.524 . S
C2168 C2169 1.415 . S
C2169 H2139 0.950 . S
C2169 C2164 1.363 . S
C2169 C2168 1.415 . S
H2170 C2167 0.999 . S
H2171 C2152 0.913 . S
H2172 C2190 0.951 . S
H2173 C2192 0.951 . S
H2174 C2194 0.950 . S
H2175 C2195 0.950 . S
H2176 C2197 0.950 . S
H2177 C2200 0.950 . S
H2178 C2201 0.950 . S
H2179 C2203 0.950 . S
H2180 C2204 0.950 . S
H2181 C2205 0.951 . S
H2182 C2207 0.951 . S
H2183 C2209 0.950 . S
H2184 C2210 0.950 . S
H2185 C2212 0.950 . S
H2186 C2215 0.950 . S
H2187 C2216 0.950 . S
H2188 C2218 0.950 . S
H2189 C2219 0.950 . S
C2190 H2172 0.951 . S
C2190 C2191 1.366 . S
C2190 C2192 1.388 . S
C2191 C2190 1.366 . S
C2191 C2195 1.385 . S
C2192 H2173 0.951 . S
C2192 C2190 1.388 . S
C2192 C2193 1.366 . S
C2193 C2192 1.366 . S
C2193 C2194 1.414 . S
C2193 C2196 1.499 . S
C2194 H2174 0.950 . S
C2194 C2193 1.414 . S
C2194 C2195 1.374 . S
C2195 H2175 0.950 . S
C2195 C2191 1.385 . S
C2195 C2194 1.374 . S
C2196 C2193 1.499 . S
C2196 C2197 1.373 . S
C2196 C2198 1.389 . S
C2197 H2176 0.950 . S
C2197 C2196 1.373 . S
C2197 C2213 1.377 . S
C2198 C2196 1.389 . S
C2198 C2199 1.524 . S
C2198 C2212 1.377 . S
C2199 C2198 1.524 . S
C2199 C2200 1.397 . S
C2199 C2204 1.363 . S
C2200 H2177 0.950 . S
C2200 C2199 1.397 . S
C2200 C2201 1.334 . S
C2201 H2178 0.950 . S
C2201 C2200 1.334 . S
C2201 C2202 1.287 . S
C2202 C2201 1.287 . S
C2202 C2203 1.524 . S
C2202 H2221 0.913 . S
C2203 H2179 0.950 . S
C2203 C2202 1.524 . S
C2203 C2204 1.415 . S
C2204 H2180 0.950 . S
C2204 C2199 1.363 . S
C2204 C2203 1.415 . S
C2205 H2181 0.951 . S
C2205 C2206 1.366 . S
C2205 C2207 1.388 . S
C2206 C2205 1.366 . S
C2206 C2210 1.385 . S
C2207 H2182 0.951 . S
C2207 C2205 1.388 . S
C2207 C2208 1.366 . S
C2208 C2207 1.366 . S
C2208 C2209 1.414 . S
C2208 C2211 1.499 . S
C2209 H2183 0.950 . S
C2209 C2208 1.414 . S
C2209 C2210 1.374 . S
C2210 H2184 0.950 . S
C2210 C2206 1.385 . S
C2210 C2209 1.374 . S
C2211 C2208 1.499 . S
C2211 C2212 1.373 . S
C2211 C2213 1.389 . S
C2212 H2185 0.950 . S
C2212 C2198 1.377 . S
C2212 C2211 1.373 . S
C2213 C2197 1.377 . S
C2213 C2211 1.389 . S
C2213 C2214 1.524 . S
C2214 C2213 1.524 . S
C2214 C2215 1.397 . S
C2214 C2219 1.363 . S
C2215 H2186 0.950 . S
C2215 C2214 1.397 . S
C2215 C2216 1.334 . S
C2216 H2187 0.950 . S
C2216 C2215 1.334 . S
C2216 C2217 1.287 . S
C2217 C2216 1.287 . S
C2217 C2218 1.524 . S
C2217 H2220 0.999 . S
C2218 H2188 0.950 . S
C2218 C2217 1.524 . S
C2218 C2219 1.415 . S
C2219 H2189 0.950 . S
C2219 C2214 1.363 . S
C2219 C2218 1.415 . S
H2220 C2217 0.999 . S
H2221 C2202 0.913 . S
H2222 C2240 0.951 . S
H2223 C2242 0.951 . S
H2224 C2244 0.950 . S
H2225 C2245 0.950 . S
H2226 C2247 0.950 . S
H2227 C2250 0.950 . S
H2228 C2251 0.950 . S
H2229 C2253 0.950 . S
H2230 C2254 0.950 . S
H2231 C2255 0.951 . S
H2232 C2257 0.951 . S
H2233 C2259 0.950 1_655 S
H2234 C2260 0.950 1_655 S
H2235 C2262 0.950 . S
H2236 C2265 0.950 1_655 S
H2237 C2266 0.950 1_655 S
H2238 C2268 0.950 . S
H2239 C2269 0.950 . S
C2240 H2222 0.951 . S
C2240 C2241 1.366 . S
C2240 C2242 1.388 . S
C2241 C2240 1.366 . S
C2241 C2245 1.385 . S
C2242 H2223 0.951 . S
C2242 C2240 1.388 . S
C2242 C2243 1.366 . S
C2243 C2242 1.366 . S
C2243 C2244 1.414 . S
C2243 C2246 1.499 . S
C2244 H2224 0.950 . S
C2244 C2243 1.414 . S
C2244 C2245 1.374 . S
C2245 H2225 0.950 . S
C2245 C2241 1.385 . S
C2245 C2244 1.374 . S
C2246 C2243 1.499 . S
C2246 C2247 1.373 . S
C2246 C2248 1.389 . S
C2247 H2226 0.950 . S
C2247 C2246 1.373 . S
C2247 C2263 1.377 . S
C2248 C2246 1.389 . S
C2248 C2249 1.524 . S
C2248 C2262 1.377 . S
C2249 C2248 1.524 . S
C2249 C2250 1.397 . S
C2249 C2254 1.363 . S
C2250 H2227 0.950 . S
C2250 C2249 1.397 . S
C2250 C2251 1.334 . S
C2251 H2228 0.950 . S
C2251 C2250 1.334 . S
C2251 C2252 1.287 . S
C2252 C2251 1.287 . S
C2252 C2253 1.524 . S
C2252 H2271 0.913 . S
C2253 H2229 0.950 . S
C2253 C2252 1.524 . S
C2253 C2254 1.415 . S
C2254 H2230 0.950 . S
C2254 C2249 1.363 . S
C2254 C2253 1.415 . S
C2255 H2231 0.951 . S
C2255 C2256 1.366 . S
C2255 C2257 1.388 . S
C2256 C2255 1.366 . S
C2256 C2260 1.385 . S
C2257 H2232 0.951 . S
C2257 C2255 1.388 . S
C2257 C2258 1.366 . S
C2258 C2257 1.366 . S
C2258 C2259 1.414 . S
C2258 C2261 1.499 . S
C2259 H2233 0.950 1_455 S
C2259 C2258 1.414 . S
C2259 C2260 1.374 . S
C2260 H2234 0.950 1_455 S
C2260 C2256 1.385 . S
C2260 C2259 1.374 . S
C2261 C2258 1.499 . S
C2261 C2262 1.373 . S
C2261 C2263 1.389 . S
C2262 H2235 0.950 . S
C2262 C2248 1.377 . S
C2262 C2261 1.373 . S
C2263 C2247 1.377 . S
C2263 C2261 1.389 . S
C2263 C2264 1.524 . S
C2264 C2263 1.524 . S
C2264 C2265 1.397 . S
C2264 C2269 1.363 . S
C2265 H2236 0.950 1_455 S
C2265 C2264 1.397 . S
C2265 C2266 1.334 . S
C2266 H2237 0.950 1_455 S
C2266 C2265 1.334 . S
C2266 C2267 1.287 . S
C2267 C2266 1.287 . S
C2267 C2268 1.524 . S
C2267 H2270 0.999 . S
C2268 H2238 0.950 . S
C2268 C2267 1.524 . S
C2268 C2269 1.415 . S
C2269 H2239 0.950 . S
C2269 C2264 1.363 . S
C2269 C2268 1.415 . S
H2270 C2267 0.999 . S
H2271 C2252 0.913 . S
H2272 C2290 0.951 . S
H2273 C2292 0.951 . S
H2274 C2294 0.950 . S
H2275 C2295 0.950 . S
H2276 C2297 0.950 . S
H2277 C2300 0.950 . S
H2278 C2301 0.950 . S
H2279 C2303 0.950 . S
H2280 C2304 0.950 . S
H2281 C2305 0.951 . S
H2282 C2307 0.951 . S
H2283 C2309 0.950 . S
H2284 C2310 0.950 . S
H2285 C2312 0.950 . S
H2286 C2315 0.950 . S
H2287 C2316 0.950 . S
H2288 C2318 0.950 . S
H2289 C2319 0.950 . S
C2290 H2272 0.951 . S
C2290 C2291 1.366 . S
C2290 C2292 1.388 . S
C2291 C2290 1.366 . S
C2291 C2295 1.385 . S
C2292 H2273 0.951 . S
C2292 C2290 1.388 . S
C2292 C2293 1.366 . S
C2293 C2292 1.366 . S
C2293 C2294 1.414 . S
C2293 C2296 1.499 . S
C2294 H2274 0.950 . S
C2294 C2293 1.414 . S
C2294 C2295 1.374 . S
C2295 H2275 0.950 . S
C2295 C2291 1.385 . S
C2295 C2294 1.374 . S
C2296 C2293 1.499 . S
C2296 C2297 1.373 . S
C2296 C2298 1.389 . S
C2297 H2276 0.950 . S
C2297 C2296 1.373 . S
C2297 C2313 1.377 . S
C2298 C2296 1.389 . S
C2298 C2299 1.524 . S
C2298 C2312 1.377 . S
C2299 C2298 1.524 . S
C2299 C2300 1.397 . S
C2299 C2304 1.363 . S
C2300 H2277 0.950 . S
C2300 C2299 1.397 . S
C2300 C2301 1.334 . S
C2301 H2278 0.950 . S
C2301 C2300 1.334 . S
C2301 C2302 1.287 . S
C2302 C2301 1.287 . S
C2302 C2303 1.524 . S
C2302 H2321 0.913 . S
C2303 H2279 0.950 . S
C2303 C2302 1.524 . S
C2303 C2304 1.415 . S
C2304 H2280 0.950 . S
C2304 C2299 1.363 . S
C2304 C2303 1.415 . S
C2305 H2281 0.951 . S
C2305 C2306 1.366 . S
C2305 C2307 1.388 . S
C2306 C2305 1.366 . S
C2306 C2310 1.385 . S
C2307 H2282 0.951 . S
C2307 C2305 1.388 . S
C2307 C2308 1.366 . S
C2308 C2307 1.366 . S
C2308 C2309 1.414 . S
C2308 C2311 1.499 . S
C2309 H2283 0.950 . S
C2309 C2308 1.414 . S
C2309 C2310 1.374 . S
C2310 H2284 0.950 . S
C2310 C2306 1.385 . S
C2310 C2309 1.374 . S
C2311 C2308 1.499 . S
C2311 C2312 1.373 . S
C2311 C2313 1.389 . S
C2312 H2285 0.950 . S
C2312 C2298 1.377 . S
C2312 C2311 1.373 . S
C2313 C2297 1.377 . S
C2313 C2311 1.389 . S
C2313 C2314 1.524 . S
C2314 C2313 1.524 . S
C2314 C2315 1.397 . S
C2314 C2319 1.363 . S
C2315 H2286 0.950 . S
C2315 C2314 1.397 . S
C2315 C2316 1.334 . S
C2316 H2287 0.950 . S
C2316 C2315 1.334 . S
C2316 C2317 1.287 . S
C2317 C2316 1.287 . S
C2317 C2318 1.524 . S
C2317 H2320 0.999 . S
C2318 H2288 0.950 . S
C2318 C2317 1.524 . S
C2318 C2319 1.415 . S
C2319 H2289 0.950 . S
C2319 C2314 1.363 . S
C2319 C2318 1.415 . S
H2320 C2317 0.999 . S
H2321 C2302 0.913 . S
H2322 C2340 0.951 . S
H2323 C2342 0.951 . S
H2324 C2344 0.950 . S
H2325 C2345 0.950 . S
H2326 C2347 0.950 . S
H2327 C2350 0.950 . S
H2328 C2351 0.950 . S
H2329 C2353 0.950 . S
H2330 C2354 0.950 . S
H2331 C2355 0.951 . S
H2332 C2357 0.951 . S
H2333 C2359 0.950 . S
H2334 C2360 0.950 . S
H2335 C2362 0.950 . S
H2336 C2365 0.950 . S
H2337 C2366 0.950 . S
H2338 C2368 0.950 . S
H2339 C2369 0.950 . S
C2340 H2322 0.951 . S
C2340 C2341 1.366 . S
C2340 C2342 1.388 . S
C2341 C2340 1.366 . S
C2341 C2345 1.385 . S
C2342 H2323 0.951 . S
C2342 C2340 1.388 . S
C2342 C2343 1.366 . S
C2343 C2342 1.366 . S
C2343 C2344 1.414 . S
C2343 C2346 1.499 . S
C2344 H2324 0.950 . S
C2344 C2343 1.414 . S
C2344 C2345 1.374 . S
C2345 H2325 0.950 . S
C2345 C2341 1.385 . S
C2345 C2344 1.374 . S
C2346 C2343 1.499 . S
C2346 C2347 1.373 . S
C2346 C2348 1.389 . S
C2347 H2326 0.950 . S
C2347 C2346 1.373 . S
C2347 C2363 1.377 . S
C2348 C2346 1.389 . S
C2348 C2349 1.524 . S
C2348 C2362 1.377 . S
C2349 C2348 1.524 . S
C2349 C2350 1.397 . S
C2349 C2354 1.363 . S
C2350 H2327 0.950 . S
C2350 C2349 1.397 . S
C2350 C2351 1.334 . S
C2351 H2328 0.950 . S
C2351 C2350 1.334 . S
C2351 C2352 1.287 . S
C2352 C2351 1.287 . S
C2352 C2353 1.524 . S
C2352 H2371 0.913 . S
C2353 H2329 0.950 . S
C2353 C2352 1.524 . S
C2353 C2354 1.415 . S
C2354 H2330 0.950 . S
C2354 C2349 1.363 . S
C2354 C2353 1.415 . S
C2355 H2331 0.951 . S
C2355 C2356 1.366 . S
C2355 C2357 1.388 . S
C2356 C2355 1.366 . S
C2356 C2360 1.385 . S
C2357 H2332 0.951 . S
C2357 C2355 1.388 . S
C2357 C2358 1.366 . S
C2358 C2357 1.366 . S
C2358 C2359 1.414 . S
C2358 C2361 1.499 . S
C2359 H2333 0.950 . S
C2359 C2358 1.414 . S
C2359 C2360 1.374 . S
C2360 H2334 0.950 . S
C2360 C2356 1.385 . S
C2360 C2359 1.374 . S
C2361 C2358 1.499 . S
C2361 C2362 1.373 . S
C2361 C2363 1.389 . S
C2362 H2335 0.950 . S
C2362 C2348 1.377 . S
C2362 C2361 1.373 . S
C2363 C2347 1.377 . S
C2363 C2361 1.389 . S
C2363 C2364 1.524 . S
C2364 C2363 1.524 . S
C2364 C2365 1.397 . S
C2364 C2369 1.363 . S
C2365 H2336 0.950 . S
C2365 C2364 1.397 . S
C2365 C2366 1.334 . S
C2366 H2337 0.950 . S
C2366 C2365 1.334 . S
C2366 C2367 1.287 . S
C2367 C2366 1.287 . S
C2367 C2368 1.524 . S
C2367 H2370 0.999 . S
C2368 H2338 0.950 . S
C2368 C2367 1.524 . S
C2368 C2369 1.415 . S
C2369 H2339 0.950 . S
C2369 C2364 1.363 . S
C2369 C2368 1.415 . S
H2370 C2367 0.999 . S
H2371 C2352 0.913 . S
H2372 C2390 0.951 . S
H2373 C2392 0.951 . S
H2374 C2394 0.950 . S
H2375 C2395 0.950 . S
H2376 C2397 0.950 . S
H2377 C2400 0.950 . S
H2378 C2401 0.950 . S
H2379 C2403 0.950 . S
H2380 C2404 0.950 . S
H2381 C2405 0.951 . S
H2382 C2407 0.951 . S
H2383 C2409 0.950 . S
H2384 C2410 0.950 . S
H2385 C2412 0.950 . S
H2386 C2415 0.950 . S
H2387 C2416 0.950 . S
H2388 C2418 0.950 . S
H2389 C2419 0.950 . S
C2390 H2372 0.951 . S
C2390 C2391 1.366 . S
C2390 C2392 1.388 . S
C2391 C2390 1.366 . S
C2391 C2395 1.385 . S
C2392 H2373 0.951 . S
C2392 C2390 1.388 . S
C2392 C2393 1.366 . S
C2393 C2392 1.366 . S
C2393 C2394 1.414 . S
C2393 C2396 1.499 . S
C2394 H2374 0.950 . S
C2394 C2393 1.414 . S
C2394 C2395 1.374 . S
C2395 H2375 0.950 . S
C2395 C2391 1.385 . S
C2395 C2394 1.374 . S
C2396 C2393 1.499 . S
C2396 C2397 1.373 . S
C2396 C2398 1.389 . S
C2397 H2376 0.950 . S
C2397 C2396 1.373 . S
C2397 C2413 1.377 . S
C2398 C2396 1.389 . S
C2398 C2399 1.524 . S
C2398 C2412 1.377 . S
C2399 C2398 1.524 . S
C2399 C2400 1.397 . S
C2399 C2404 1.363 . S
C2400 H2377 0.950 . S
C2400 C2399 1.397 . S
C2400 C2401 1.334 . S
C2401 H2378 0.950 . S
C2401 C2400 1.334 . S
C2401 C2402 1.287 . S
C2402 C2401 1.287 . S
C2402 C2403 1.524 . S
C2402 H2421 0.913 . S
C2403 H2379 0.950 . S
C2403 C2402 1.524 . S
C2403 C2404 1.415 . S
C2404 H2380 0.950 . S
C2404 C2399 1.363 . S
C2404 C2403 1.415 . S
C2405 H2381 0.951 . S
C2405 C2406 1.366 . S
C2405 C2407 1.388 . S
C2406 C2405 1.366 . S
C2406 C2410 1.385 . S
C2407 H2382 0.951 . S
C2407 C2405 1.388 . S
C2407 C2408 1.366 . S
C2408 C2407 1.366 . S
C2408 C2409 1.414 . S
C2408 C2411 1.499 . S
C2409 H2383 0.950 . S
C2409 C2408 1.414 . S
C2409 C2410 1.374 . S
C2410 H2384 0.950 . S
C2410 C2406 1.385 . S
C2410 C2409 1.374 . S
C2411 C2408 1.499 . S
C2411 C2412 1.373 . S
C2411 C2413 1.389 . S
C2412 H2385 0.950 . S
C2412 C2398 1.377 . S
C2412 C2411 1.373 . S
C2413 C2397 1.377 . S
C2413 C2411 1.389 . S
C2413 C2414 1.524 . S
C2414 C2413 1.524 . S
C2414 C2415 1.397 . S
C2414 C2419 1.363 . S
C2415 H2386 0.950 . S
C2415 C2414 1.397 . S
C2415 C2416 1.334 . S
C2416 H2387 0.950 . S
C2416 C2415 1.334 . S
C2416 C2417 1.287 . S
C2417 C2416 1.287 . S
C2417 C2418 1.524 . S
C2417 H2420 0.999 . S
C2418 H2388 0.950 . S
C2418 C2417 1.524 . S
C2418 C2419 1.415 . S
C2419 H2389 0.950 . S
C2419 C2414 1.363 . S
C2419 C2418 1.415 . S
H2420 C2417 0.999 . S
H2421 C2402 0.913 . S
H2422 C2440 0.951 . S
H2423 C2442 0.951 . S
H2424 C2444 0.950 . S
H2425 C2445 0.950 . S
H2426 C2447 0.950 . S
H2427 C2450 0.950 . S
H2428 C2451 0.950 . S
H2429 C2453 0.947 . S
H2430 C2454 0.950 . S
H2431 C2455 0.951 . S
H2432 C2457 0.951 . S
H2433 C2459 0.950 . S
H2434 C2460 0.950 . S
H2435 C2462 0.950 . S
H2436 C2465 0.950 . S
H2437 C2466 0.950 . S
H2438 C2468 0.950 . S
H2439 C2469 0.950 . S
C2440 H2422 0.951 . S
C2440 C2441 1.366 . S
C2440 C2442 1.388 . S
C2441 C2440 1.366 . S
C2441 C2445 1.385 1_556 S
C2442 H2423 0.951 . S
C2442 C2440 1.388 . S
C2442 C2443 1.366 1_556 S
C2443 C2442 1.366 1_554 S
C2443 C2444 1.414 . S
C2443 C2446 1.499 . S
C2444 H2424 0.950 . S
C2444 C2443 1.414 . S
C2444 C2445 1.374 . S
C2445 H2425 0.950 . S
C2445 C2441 1.385 1_554 S
C2445 C2444 1.374 . S
C2446 C2443 1.499 . S
C2446 C2447 1.373 . S
C2446 C2448 1.389 . S
C2447 H2426 0.950 . S
C2447 C2446 1.373 . S
C2447 C2463 1.377 . S
C2448 C2446 1.389 . S
C2448 C2449 1.524 . S
C2448 C2462 1.377 . S
C2449 C2448 1.524 . S
C2449 C2450 1.397 . S
C2449 C2454 1.363 . S
C2450 H2427 0.950 . S
C2450 C2449 1.397 . S
C2450 C2451 1.334 . S
C2451 H2428 0.950 . S
C2451 C2450 1.334 . S
C2451 C2452 1.253 1_554 S
C2452 C2451 1.253 1_556 S
C2452 C2453 1.527 . S
C2452 H2471 0.958 . S
C2453 H2429 0.947 . S
C2453 C2452 1.527 . S
C2453 C2454 1.418 1_556 S
C2454 H2430 0.950 . S
C2454 C2449 1.363 . S
C2454 C2453 1.418 1_554 S
C2455 H2431 0.951 . S
C2455 C2456 1.366 . S
C2455 C2457 1.388 . S
C2456 C2455 1.366 . S
C2456 C2460 1.385 . S
C2457 H2432 0.951 . S
C2457 C2455 1.388 . S
C2457 C2458 1.366 . S
C2458 C2457 1.366 . S
C2458 C2459 1.414 . S
C2458 C2461 1.499 . S
C2459 H2433 0.950 . S
C2459 C2458 1.414 . S
C2459 C2460 1.374 . S
C2460 H2434 0.950 . S
C2460 C2456 1.385 . S
C2460 C2459 1.374 . S
C2461 C2458 1.499 . S
C2461 C2462 1.373 . S
C2461 C2463 1.389 . S
C2462 H2435 0.950 . S
C2462 C2448 1.377 . S
C2462 C2461 1.373 . S
C2463 C2447 1.377 . S
C2463 C2461 1.389 . S
C2463 C2464 1.524 . S
C2464 C2463 1.524 . S
C2464 C2465 1.397 . S
C2464 C2469 1.363 . S
C2465 H2436 0.950 . S
C2465 C2464 1.397 . S
C2465 C2466 1.334 . S
C2466 H2437 0.950 . S
C2466 C2465 1.334 . S
C2466 C2467 1.287 . S
C2467 C2466 1.287 . S
C2467 C2468 1.524 . S
C2467 H2470 0.999 . S
C2468 H2438 0.950 . S
C2468 C2467 1.524 . S
C2468 C2469 1.415 . S
C2469 H2439 0.950 . S
C2469 C2464 1.363 . S
C2469 C2468 1.415 . S
H2470 C2467 0.999 . S
H2471 C2452 0.958 . S
H2472 C2490 0.951 . S
H2473 C2492 0.951 . S
H2474 C2494 0.950 . S
H2475 C2495 0.950 . S
H2476 C2497 0.950 . S
H2477 C2500 0.950 . S
H2478 C2501 0.950 . S
H2479 C2503 0.950 . S
H2480 C2504 0.950 . S
H2481 C2505 0.951 . S
H2482 C2507 0.951 . S
H2483 C2509 0.950 . S
H2484 C2510 0.950 . S
H2485 C2512 0.950 . S
H2486 C2515 0.950 . S
H2487 C2516 0.950 . S
H2488 C2518 0.950 . S
H2489 C2519 0.950 . S
C2490 H2472 0.951 . S
C2490 C2491 1.366 . S
C2490 C2492 1.388 . S
C2491 C2490 1.366 . S
C2491 C2495 1.385 . S
C2492 H2473 0.951 . S
C2492 C2490 1.388 . S
C2492 C2493 1.366 . S
C2493 C2492 1.366 . S
C2493 C2494 1.414 . S
C2493 C2496 1.499 . S
C2494 H2474 0.950 . S
C2494 C2493 1.414 . S
C2494 C2495 1.374 . S
C2495 H2475 0.950 . S
C2495 C2491 1.385 . S
C2495 C2494 1.374 . S
C2496 C2493 1.499 . S
C2496 C2497 1.373 . S
C2496 C2498 1.389 . S
C2497 H2476 0.950 . S
C2497 C2496 1.373 . S
C2497 C2513 1.377 . S
C2498 C2496 1.389 . S
C2498 C2499 1.524 . S
C2498 C2512 1.377 . S
C2499 C2498 1.524 . S
C2499 C2500 1.397 . S
C2499 C2504 1.363 . S
C2500 H2477 0.950 . S
C2500 C2499 1.397 . S
C2500 C2501 1.334 . S
C2501 H2478 0.950 . S
C2501 C2500 1.334 . S
C2501 C2502 1.287 . S
C2502 C2501 1.287 . S
C2502 C2503 1.524 . S
C2502 H2521 0.913 . S
C2503 H2479 0.950 . S
C2503 C2502 1.524 . S
C2503 C2504 1.415 . S
C2504 H2480 0.950 . S
C2504 C2499 1.363 . S
C2504 C2503 1.415 . S
C2505 H2481 0.951 . S
C2505 C2506 1.366 . S
C2505 C2507 1.388 . S
C2506 C2505 1.366 . S
C2506 C2510 1.385 . S
C2507 H2482 0.951 . S
C2507 C2505 1.388 . S
C2507 C2508 1.366 . S
C2508 C2507 1.366 . S
C2508 C2509 1.414 . S
C2508 C2511 1.499 . S
C2509 H2483 0.950 . S
C2509 C2508 1.414 . S
C2509 C2510 1.374 . S
C2510 H2484 0.950 . S
C2510 C2506 1.385 . S
C2510 C2509 1.374 . S
C2511 C2508 1.499 . S
C2511 C2512 1.373 . S
C2511 C2513 1.389 . S
C2512 H2485 0.950 . S
C2512 C2498 1.377 . S
C2512 C2511 1.373 . S
C2513 C2497 1.377 . S
C2513 C2511 1.389 . S
C2513 C2514 1.524 . S
C2514 C2513 1.524 . S
C2514 C2515 1.397 . S
C2514 C2519 1.363 . S
C2515 H2486 0.950 . S
C2515 C2514 1.397 . S
C2515 C2516 1.334 . S
C2516 H2487 0.950 . S
C2516 C2515 1.334 . S
C2516 C2517 1.287 . S
C2517 C2516 1.287 . S
C2517 C2518 1.524 . S
C2517 H2520 0.999 . S
C2518 H2488 0.950 . S
C2518 C2517 1.524 . S
C2518 C2519 1.415 . S
C2519 H2489 0.950 . S
C2519 C2514 1.363 . S
C2519 C2518 1.415 . S
H2520 C2517 0.999 . S
H2521 C2502 0.913 . S
H2522 C2540 0.951 . S
H2523 C2542 0.951 . S
H2524 C2544 0.950 . S
H2525 C2545 0.950 . S
H2526 C2547 0.950 . S
H2527 C2550 0.950 . S
H2528 C2551 0.950 . S
H2529 C2553 0.950 . S
H2530 C2554 0.950 . S
H2531 C2555 0.951 . S
H2532 C2557 0.951 . S
H2533 C2559 0.950 . S
H2534 C2560 0.950 . S
H2535 C2562 0.950 . S
H2536 C2565 0.950 . S
H2537 C2566 0.950 . S
H2538 C2568 0.950 . S
H2539 C2569 0.950 . S
C2540 H2522 0.951 . S
C2540 C2541 1.366 . S
C2540 C2542 1.388 . S
C2541 C2540 1.366 . S
C2541 C2545 1.385 . S
C2542 H2523 0.951 . S
C2542 C2540 1.388 . S
C2542 C2543 1.366 . S
C2543 C2542 1.366 . S
C2543 C2544 1.414 . S
C2543 C2546 1.499 . S
C2544 H2524 0.950 . S
C2544 C2543 1.414 . S
C2544 C2545 1.374 . S
C2545 H2525 0.950 . S
C2545 C2541 1.385 . S
C2545 C2544 1.374 . S
C2546 C2543 1.499 . S
C2546 C2547 1.373 . S
C2546 C2548 1.389 . S
C2547 H2526 0.950 . S
C2547 C2546 1.373 . S
C2547 C2563 1.377 . S
C2548 C2546 1.389 . S
C2548 C2549 1.524 . S
C2548 C2562 1.377 . S
C2549 C2548 1.524 . S
C2549 C2550 1.397 . S
C2549 C2554 1.363 . S
C2550 H2527 0.950 . S
C2550 C2549 1.397 . S
C2550 C2551 1.334 . S
C2551 H2528 0.950 . S
C2551 C2550 1.334 . S
C2551 C2552 1.287 . S
C2552 C2551 1.287 . S
C2552 C2553 1.524 . S
C2552 H2571 0.913 . S
C2553 H2529 0.950 . S
C2553 C2552 1.524 . S
C2553 C2554 1.415 . S
C2554 H2530 0.950 . S
C2554 C2549 1.363 . S
C2554 C2553 1.415 . S
C2555 H2531 0.951 . S
C2555 C2556 1.366 . S
C2555 C2557 1.388 . S
C2556 C2555 1.366 . S
C2556 C2560 1.385 . S
C2557 H2532 0.951 . S
C2557 C2555 1.388 . S
C2557 C2558 1.366 . S
C2558 C2557 1.366 . S
C2558 C2559 1.414 . S
C2558 C2561 1.499 . S
C2559 H2533 0.950 . S
C2559 C2558 1.414 . S
C2559 C2560 1.374 . S
C2560 H2534 0.950 . S
C2560 C2556 1.385 . S
C2560 C2559 1.374 . S
C2561 C2558 1.499 . S
C2561 C2562 1.373 . S
C2561 C2563 1.389 . S
C2562 H2535 0.950 . S
C2562 C2548 1.377 . S
C2562 C2561 1.373 . S
C2563 C2547 1.377 . S
C2563 C2561 1.389 . S
C2563 C2564 1.524 . S
C2564 C2563 1.524 . S
C2564 C2565 1.397 . S
C2564 C2569 1.363 . S
C2565 H2536 0.950 . S
C2565 C2564 1.397 . S
C2565 C2566 1.334 . S
C2566 H2537 0.950 . S
C2566 C2565 1.334 . S
C2566 C2567 1.287 . S
C2567 C2566 1.287 . S
C2567 C2568 1.524 . S
C2567 H2570 0.999 . S
C2568 H2538 0.950 . S
C2568 C2567 1.524 . S
C2568 C2569 1.415 . S
C2569 H2539 0.950 . S
C2569 C2564 1.363 . S
C2569 C2568 1.415 . S
H2570 C2567 0.999 . S
H2571 C2552 0.913 . S
H2572 C2590 0.951 . S
H2573 C2592 0.951 . S
H2574 C2594 0.950 . S
H2575 C2595 0.950 . S
H2576 C2597 0.950 . S
H2577 C2600 0.950 . S
H2578 C2601 0.950 . S
H2579 C2603 0.950 . S
H2580 C2604 0.950 . S
H2581 C2605 0.951 . S
H2582 C2607 0.951 . S
H2583 C2609 0.950 . S
H2584 C2610 0.950 . S
H2585 C2612 0.950 . S
H2586 C2615 0.950 . S
H2587 C2616 0.950 . S
H2588 C2618 0.950 . S
H2589 C2619 0.950 . S
C2590 H2572 0.951 . S
C2590 C2591 1.366 . S
C2590 C2592 1.388 . S
C2591 C2590 1.366 . S
C2591 C2595 1.385 . S
C2592 H2573 0.951 . S
C2592 C2590 1.388 . S
C2592 C2593 1.366 . S
C2593 C2592 1.366 . S
C2593 C2594 1.414 . S
C2593 C2596 1.499 . S
C2594 H2574 0.950 . S
C2594 C2593 1.414 . S
C2594 C2595 1.374 . S
C2595 H2575 0.950 . S
C2595 C2591 1.385 . S
C2595 C2594 1.374 . S
C2596 C2593 1.499 . S
C2596 C2597 1.373 . S
C2596 C2598 1.389 . S
C2597 H2576 0.950 . S
C2597 C2596 1.373 . S
C2597 C2613 1.377 . S
C2598 C2596 1.389 . S
C2598 C2599 1.524 . S
C2598 C2612 1.377 . S
C2599 C2598 1.524 . S
C2599 C2600 1.397 . S
C2599 C2604 1.363 . S
C2600 H2577 0.950 . S
C2600 C2599 1.397 . S
C2600 C2601 1.334 . S
C2601 H2578 0.950 . S
C2601 C2600 1.334 . S
C2601 C2602 1.287 . S
C2602 C2601 1.287 . S
C2602 C2603 1.524 . S
C2602 H2621 0.913 . S
C2603 H2579 0.950 . S
C2603 C2602 1.524 . S
C2603 C2604 1.415 . S
C2604 H2580 0.950 . S
C2604 C2599 1.363 . S
C2604 C2603 1.415 . S
C2605 H2581 0.951 . S
C2605 C2606 1.366 . S
C2605 C2607 1.388 . S
C2606 C2605 1.366 . S
C2606 C2610 1.385 . S
C2607 H2582 0.951 . S
C2607 C2605 1.388 . S
C2607 C2608 1.366 . S
C2608 C2607 1.366 . S
C2608 C2609 1.414 . S
C2608 C2611 1.499 . S
C2609 H2583 0.950 . S
C2609 C2608 1.414 . S
C2609 C2610 1.374 . S
C2610 H2584 0.950 . S
C2610 C2606 1.385 . S
C2610 C2609 1.374 . S
C2611 C2608 1.499 . S
C2611 C2612 1.373 . S
C2611 C2613 1.389 . S
C2612 H2585 0.950 . S
C2612 C2598 1.377 . S
C2612 C2611 1.373 . S
C2613 C2597 1.377 . S
C2613 C2611 1.389 . S
C2613 C2614 1.524 . S
C2614 C2613 1.524 . S
C2614 C2615 1.397 . S
C2614 C2619 1.363 . S
C2615 H2586 0.950 . S
C2615 C2614 1.397 . S
C2615 C2616 1.334 . S
C2616 H2587 0.950 . S
C2616 C2615 1.334 . S
C2616 C2617 1.287 . S
C2617 C2616 1.287 . S
C2617 C2618 1.524 . S
C2617 H2620 0.999 . S
C2618 H2588 0.950 . S
C2618 C2617 1.524 . S
C2618 C2619 1.415 . S
C2619 H2589 0.950 . S
C2619 C2614 1.363 . S
C2619 C2618 1.415 . S
H2620 C2617 0.999 . S
H2621 C2602 0.913 . S
H2622 C2640 0.951 . S
H2623 C2642 0.951 . S
H2624 C2644 0.950 . S
H2625 C2645 0.950 . S
H2626 C2647 0.950 . S
H2627 C2650 0.950 . S
H2628 C2651 0.950 . S
H2629 C2653 0.950 . S
H2630 C2654 0.950 . S
H2631 C2655 0.951 . S
H2632 C2657 0.951 . S
H2633 C2659 0.950 . S
H2634 C2660 0.950 . S
H2635 C2662 0.950 . S
H2636 C2665 0.950 . S
H2637 C2666 0.950 . S
H2638 C2668 0.950 . S
H2639 C2669 0.950 . S
C2640 H2622 0.951 . S
C2640 C2641 1.366 . S
C2640 C2642 1.388 . S
C2641 C2640 1.366 . S
C2641 C2645 1.385 . S
C2642 H2623 0.951 . S
C2642 C2640 1.388 . S
C2642 C2643 1.366 . S
C2643 C2642 1.366 . S
C2643 C2644 1.414 . S
C2643 C2646 1.499 . S
C2644 H2624 0.950 . S
C2644 C2643 1.414 . S
C2644 C2645 1.374 . S
C2645 H2625 0.950 . S
C2645 C2641 1.385 . S
C2645 C2644 1.374 . S
C2646 C2643 1.499 . S
C2646 C2647 1.373 . S
C2646 C2648 1.389 . S
C2647 H2626 0.950 . S
C2647 C2646 1.373 . S
C2647 C2663 1.377 . S
C2648 C2646 1.389 . S
C2648 C2649 1.524 . S
C2648 C2662 1.377 . S
C2649 C2648 1.524 . S
C2649 C2650 1.397 . S
C2649 C2654 1.363 . S
C2650 H2627 0.950 . S
C2650 C2649 1.397 . S
C2650 C2651 1.334 . S
C2651 H2628 0.950 . S
C2651 C2650 1.334 . S
C2651 C2652 1.287 . S
C2652 C2651 1.287 . S
C2652 C2653 1.524 . S
C2652 H2671 0.913 . S
C2653 H2629 0.950 . S
C2653 C2652 1.524 . S
C2653 C2654 1.415 . S
C2654 H2630 0.950 . S
C2654 C2649 1.363 . S
C2654 C2653 1.415 . S
C2655 H2631 0.951 . S
C2655 C2656 1.366 . S
C2655 C2657 1.388 . S
C2656 C2655 1.366 . S
C2656 C2660 1.385 . S
C2657 H2632 0.951 . S
C2657 C2655 1.388 . S
C2657 C2658 1.366 . S
C2658 C2657 1.366 . S
C2658 C2659 1.414 . S
C2658 C2661 1.499 . S
C2659 H2633 0.950 . S
C2659 C2658 1.414 . S
C2659 C2660 1.374 . S
C2660 H2634 0.950 . S
C2660 C2656 1.385 . S
C2660 C2659 1.374 . S
C2661 C2658 1.499 . S
C2661 C2662 1.373 . S
C2661 C2663 1.389 . S
C2662 H2635 0.950 . S
C2662 C2648 1.377 . S
C2662 C2661 1.373 . S
C2663 C2647 1.377 . S
C2663 C2661 1.389 . S
C2663 C2664 1.524 . S
C2664 C2663 1.524 . S
C2664 C2665 1.397 . S
C2664 C2669 1.363 . S
C2665 H2636 0.950 . S
C2665 C2664 1.397 . S
C2665 C2666 1.334 . S
C2666 H2637 0.950 . S
C2666 C2665 1.334 . S
C2666 C2667 1.287 . S
C2667 C2666 1.287 . S
C2667 C2668 1.524 . S
C2667 H2670 0.999 . S
C2668 H2638 0.950 . S
C2668 C2667 1.524 . S
C2668 C2669 1.415 . S
C2669 H2639 0.950 . S
C2669 C2664 1.363 . S
C2669 C2668 1.415 . S
H2670 C2667 0.999 . S
H2671 C2652 0.913 . S
H2672 C2690 0.951 . S
H2673 C2692 0.951 . S
H2674 C2694 0.950 1_554 S
H2675 C2695 0.950 1_554 S
H2676 C2697 0.950 . S
H2677 C2700 0.950 . S
H2678 C2701 0.950 . S
H2679 C2703 0.950 . S
H2680 C2704 0.950 . S
H2681 C2705 0.951 . S
H2682 C2707 0.951 . S
H2683 C2709 0.950 . S
H2684 C2710 0.950 . S
H2685 C2712 0.950 . S
H2686 C2715 0.950 . S
H2687 C2716 0.950 . S
H2688 C2718 0.950 . S
H2689 C2719 0.950 . S
C2690 H2672 0.951 . S
C2690 C2691 1.366 . S
C2690 C2692 1.388 . S
C2691 C2690 1.366 . S
C2691 C2695 1.385 . S
C2692 H2673 0.951 . S
C2692 C2690 1.388 . S
C2692 C2693 1.366 . S
C2693 C2692 1.366 . S
C2693 C2694 1.414 . S
C2693 C2696 1.499 . S
C2694 H2674 0.950 1_556 S
C2694 C2693 1.414 . S
C2694 C2695 1.374 . S
C2695 H2675 0.950 1_556 S
C2695 C2691 1.385 . S
C2695 C2694 1.374 . S
C2696 C2693 1.499 . S
C2696 C2697 1.373 1_556 S
C2696 C2698 1.389 . S
C2697 H2676 0.950 . S
C2697 C2696 1.373 1_554 S
C2697 C2713 1.377 . S
C2698 C2696 1.389 . S
C2698 C2699 1.524 . S
C2698 C2712 1.377 . S
C2699 C2698 1.524 . S
C2699 C2700 1.397 . S
C2699 C2704 1.363 . S
C2700 H2677 0.950 . S
C2700 C2699 1.397 . S
C2700 C2701 1.334 . S
C2701 H2678 0.950 . S
C2701 C2700 1.334 . S
C2701 C2702 1.287 . S
C2702 C2701 1.287 . S
C2702 C2703 1.524 . S
C2702 H2721 0.913 . S
C2703 H2679 0.950 . S
C2703 C2702 1.524 . S
C2703 C2704 1.415 . S
C2704 H2680 0.950 . S
C2704 C2699 1.363 . S
C2704 C2703 1.415 . S
C2705 H2681 0.951 . S
C2705 C2706 1.366 1_554 S
C2705 C2707 1.388 . S
C2706 C2705 1.366 1_556 S
C2706 C2710 1.385 . S
C2707 H2682 0.951 . S
C2707 C2705 1.388 . S
C2707 C2708 1.366 1_554 S
C2708 C2707 1.366 1_556 S
C2708 C2709 1.414 . S
C2708 C2711 1.499 . S
C2709 H2683 0.950 . S
C2709 C2708 1.414 . S
C2709 C2710 1.374 . S
C2710 H2684 0.950 . S
C2710 C2706 1.385 . S
C2710 C2709 1.374 . S
C2711 C2708 1.499 . S
C2711 C2712 1.373 . S
C2711 C2713 1.389 1_556 S
C2712 H2685 0.950 . S
C2712 C2698 1.377 . S
C2712 C2711 1.373 . S
C2713 C2697 1.377 . S
C2713 C2711 1.389 1_554 S
C2713 C2714 1.524 . S
C2714 C2713 1.524 . S
C2714 C2715 1.397 . S
C2714 C2719 1.363 . S
C2715 H2686 0.950 . S
C2715 C2714 1.397 . S
C2715 C2716 1.334 . S
C2716 H2687 0.950 . S
C2716 C2715 1.334 . S
C2716 C2717 1.287 . S
C2717 C2716 1.287 . S
C2717 C2718 1.524 . S
C2717 H2720 0.999 . S
C2718 H2688 0.950 . S
C2718 C2717 1.524 . S
C2718 C2719 1.415 . S
C2719 H2689 0.950 . S
C2719 C2714 1.363 . S
C2719 C2718 1.415 . S
H2720 C2717 0.999 . S
H2721 C2702 0.913 . S
H2722 C2740 0.951 . S
H2723 C2742 0.951 . S
H2724 C2744 0.950 . S
H2725 C2745 0.950 . S
H2726 C2747 0.950 . S
H2727 C2750 0.950 . S
H2728 C2751 0.950 . S
H2729 C2753 0.950 . S
H2730 C2754 0.950 . S
H2731 C2755 0.951 . S
H2732 C2757 0.951 . S
H2733 C2759 0.950 . S
H2734 C2760 0.950 . S
H2735 C2762 0.950 . S
H2736 C2765 0.950 . S
H2737 C2766 0.950 . S
H2738 C2768 0.950 . S
H2739 C2769 0.950 . S
C2740 H2722 0.951 . S
C2740 C2741 1.366 . S
C2740 C2742 1.388 . S
C2741 C2740 1.366 . S
C2741 C2745 1.385 . S
C2742 H2723 0.951 . S
C2742 C2740 1.388 . S
C2742 C2743 1.366 . S
C2743 C2742 1.366 . S
C2743 C2744 1.414 . S
C2743 C2746 1.499 . S
C2744 H2724 0.950 . S
C2744 C2743 1.414 . S
C2744 C2745 1.374 . S
C2745 H2725 0.950 . S
C2745 C2741 1.385 . S
C2745 C2744 1.374 . S
C2746 C2743 1.499 . S
C2746 C2747 1.373 . S
C2746 C2748 1.389 . S
C2747 H2726 0.950 . S
C2747 C2746 1.373 . S
C2747 C2763 1.377 . S
C2748 C2746 1.389 . S
C2748 C2749 1.524 . S
C2748 C2762 1.377 . S
C2749 C2748 1.524 . S
C2749 C2750 1.397 . S
C2749 C2754 1.363 . S
C2750 H2727 0.950 . S
C2750 C2749 1.397 . S
C2750 C2751 1.334 . S
C2751 H2728 0.950 . S
C2751 C2750 1.334 . S
C2751 C2752 1.287 . S
C2752 C2751 1.287 . S
C2752 C2753 1.524 . S
C2752 H2771 0.913 . S
C2753 H2729 0.950 . S
C2753 C2752 1.524 . S
C2753 C2754 1.415 . S
C2754 H2730 0.950 . S
C2754 C2749 1.363 . S
C2754 C2753 1.415 . S
C2755 H2731 0.951 . S
C2755 C2756 1.366 . S
C2755 C2757 1.388 . S
C2756 C2755 1.366 . S
C2756 C2760 1.385 . S
C2757 H2732 0.951 . S
C2757 C2755 1.388 . S
C2757 C2758 1.366 . S
C2758 C2757 1.366 . S
C2758 C2759 1.414 . S
C2758 C2761 1.499 . S
C2759 H2733 0.950 . S
C2759 C2758 1.414 . S
C2759 C2760 1.374 . S
C2760 H2734 0.950 . S
C2760 C2756 1.385 . S
C2760 C2759 1.374 . S
C2761 C2758 1.499 . S
C2761 C2762 1.373 . S
C2761 C2763 1.389 . S
C2762 H2735 0.950 . S
C2762 C2748 1.377 . S
C2762 C2761 1.373 . S
C2763 C2747 1.377 . S
C2763 C2761 1.389 . S
C2763 C2764 1.524 . S
C2764 C2763 1.524 . S
C2764 C2765 1.397 . S
C2764 C2769 1.363 . S
C2765 H2736 0.950 . S
C2765 C2764 1.397 . S
C2765 C2766 1.334 . S
C2766 H2737 0.950 . S
C2766 C2765 1.334 . S
C2766 C2767 1.287 . S
C2767 C2766 1.287 . S
C2767 C2768 1.524 . S
C2767 H2770 0.999 . S
C2768 H2738 0.950 . S
C2768 C2767 1.524 . S
C2768 C2769 1.415 . S
C2769 H2739 0.950 . S
C2769 C2764 1.363 . S
C2769 C2768 1.415 . S
H2770 C2767 0.999 . S
H2771 C2752 0.913 . S
H2772 C2790 0.951 . S
H2773 C2792 0.951 . S
H2774 C2794 0.950 . S
H2775 C2795 0.950 . S
H2776 C2797 0.950 . S
H2777 C2800 0.950 . S
H2778 C2801 0.950 . S
H2779 C2803 0.950 . S
H2780 C2804 0.950 . S
H2781 C2805 0.951 . S
H2782 C2807 0.951 . S
H2783 C2809 0.945 1_556 S
H2784 C2810 0.937 1_556 S
H2785 C2812 0.950 1_556 S
H2786 C2815 0.950 . S
H2787 C2816 0.950 . S
H2788 C2818 0.950 . S
H2789 C2819 0.950 . S
C2790 H2772 0.951 . S
C2790 C2791 1.366 . S
C2790 C2792 1.388 . S
C2791 C2790 1.366 . S
C2791 C2795 1.385 . S
C2792 H2773 0.951 . S
C2792 C2790 1.388 . S
C2792 C2793 1.366 . S
C2793 C2792 1.366 . S
C2793 C2794 1.414 . S
C2793 C2796 1.499 . S
C2794 H2774 0.950 . S
C2794 C2793 1.414 . S
C2794 C2795 1.374 . S
C2795 H2775 0.950 . S
C2795 C2791 1.385 . S
C2795 C2794 1.374 . S
C2796 C2793 1.499 . S
C2796 C2797 1.373 . S
C2796 C2798 1.389 . S
C2797 H2776 0.950 . S
C2797 C2796 1.373 . S
C2797 C2813 1.377 . S
C2798 C2796 1.389 . S
C2798 C2799 1.524 1_554 S
C2798 C2812 1.377 . S
C2799 C2798 1.524 1_556 S
C2799 C2800 1.397 . S
C2799 C2804 1.363 . S
C2800 H2777 0.950 . S
C2800 C2799 1.397 . S
C2800 C2801 1.334 . S
C2801 H2778 0.950 . S
C2801 C2800 1.334 . S
C2801 C2802 1.287 . S
C2802 C2801 1.287 . S
C2802 C2803 1.524 . S
C2802 H2821 0.913 . S
C2803 H2779 0.950 . S
C2803 C2802 1.524 . S
C2803 C2804 1.415 . S
C2804 H2780 0.950 . S
C2804 C2799 1.363 . S
C2804 C2803 1.415 . S
C2805 H2781 0.951 . S
C2805 C2806 1.366 . S
C2805 C2807 1.388 . S
C2806 C2805 1.366 . S
C2806 C2810 1.390 . S
C2807 H2782 0.951 . S
C2807 C2805 1.388 . S
C2807 C2808 1.366 . S
C2808 C2807 1.366 . S
C2808 C2809 1.414 . S
C2808 C2811 1.499 . S
C2809 H2783 0.945 1_554 S
C2809 C2808 1.414 . S
C2809 C2810 1.382 . S
C2810 H2784 0.937 1_554 S
C2810 C2806 1.390 . S
C2810 C2809 1.382 . S
C2811 C2808 1.499 . S
C2811 C2812 1.373 . S
C2811 C2813 1.389 . S
C2812 H2785 0.950 1_554 S
C2812 C2798 1.377 . S
C2812 C2811 1.373 . S
C2813 C2797 1.377 . S
C2813 C2811 1.389 . S
C2813 C2814 1.524 . S
C2814 C2813 1.524 . S
C2814 C2815 1.397 . S
C2814 C2819 1.363 . S
C2815 H2786 0.950 . S
C2815 C2814 1.397 . S
C2815 C2816 1.334 . S
C2816 H2787 0.950 . S
C2816 C2815 1.334 . S
C2816 C2817 1.287 . S
C2817 C2816 1.287 . S
C2817 C2818 1.524 . S
C2817 H2820 0.999 . S
C2818 H2788 0.950 . S
C2818 C2817 1.524 . S
C2818 C2819 1.415 . S
C2819 H2789 0.950 . S
C2819 C2814 1.363 . S
C2819 C2818 1.415 . S
H2820 C2817 0.999 . S
H2821 C2802 0.913 . S
H2822 C2840 0.951 . S
H2823 C2842 0.951 . S
H2824 C2844 0.950 . S
H2825 C2845 0.950 . S
H2826 C2847 0.950 . S
H2827 C2850 0.950 . S
H2828 C2851 0.950 . S
H2829 C2853 0.950 . S
H2830 C2854 0.950 . S
H2831 C2855 0.951 . S
H2832 C2857 0.951 . S
H2833 C2859 0.950 . S
H2834 C2860 0.950 . S
H2835 C2862 0.950 . S
H2836 C2865 0.950 . S
H2837 C2866 0.950 . S
H2838 C2868 0.950 . S
H2839 C2869 0.950 . S
C2840 H2822 0.951 . S
C2840 C2841 1.366 . S
C2840 C2842 1.388 . S
C2841 C2840 1.366 . S
C2841 C2845 1.385 . S
C2842 H2823 0.951 . S
C2842 C2840 1.388 . S
C2842 C2843 1.366 . S
C2843 C2842 1.366 . S
C2843 C2844 1.414 . S
C2843 C2846 1.499 . S
C2844 H2824 0.950 . S
C2844 C2843 1.414 . S
C2844 C2845 1.374 . S
C2845 H2825 0.950 . S
C2845 C2841 1.385 . S
C2845 C2844 1.374 . S
C2846 C2843 1.499 . S
C2846 C2847 1.373 . S
C2846 C2848 1.389 . S
C2847 H2826 0.950 . S
C2847 C2846 1.373 . S
C2847 C2863 1.377 . S
C2848 C2846 1.389 . S
C2848 C2849 1.524 . S
C2848 C2862 1.377 . S
C2849 C2848 1.524 . S
C2849 C2850 1.397 1_565 S
C2849 C2854 1.363 . S
C2850 H2827 0.950 . S
C2850 C2849 1.397 1_545 S
C2850 C2851 1.334 . S
C2851 H2828 0.950 . S
C2851 C2850 1.334 . S
C2851 C2852 1.287 . S
C2852 C2851 1.287 . S
C2852 C2853 1.524 . S
C2852 H2871 0.913 . S
C2853 H2829 0.950 . S
C2853 C2852 1.524 . S
C2853 C2854 1.415 1_545 S
C2854 H2830 0.950 . S
C2854 C2849 1.363 . S
C2854 C2853 1.415 1_565 S
C2855 H2831 0.951 . S
C2855 C2856 1.366 . S
C2855 C2857 1.388 . S
C2856 C2855 1.366 . S
C2856 C2860 1.385 . S
C2857 H2832 0.951 . S
C2857 C2855 1.388 . S
C2857 C2858 1.366 . S
C2858 C2857 1.366 . S
C2858 C2859 1.414 . S
C2858 C2861 1.499 . S
C2859 H2833 0.950 . S
C2859 C2858 1.414 . S
C2859 C2860 1.374 . S
C2860 H2834 0.950 . S
C2860 C2856 1.385 . S
C2860 C2859 1.374 . S
C2861 C2858 1.499 . S
C2861 C2862 1.373 . S
C2861 C2863 1.389 . S
C2862 H2835 0.950 . S
C2862 C2848 1.377 . S
C2862 C2861 1.373 . S
C2863 C2847 1.377 . S
C2863 C2861 1.389 . S
C2863 C2864 1.524 . S
C2864 C2863 1.524 . S
C2864 C2865 1.397 . S
C2864 C2869 1.363 1_554 S
C2865 H2836 0.950 . S
C2865 C2864 1.397 . S
C2865 C2866 1.334 . S
C2866 H2837 0.950 . S
C2866 C2865 1.334 . S
C2866 C2867 1.287 1_554 S
C2867 C2866 1.287 1_556 S
C2867 C2868 1.524 . S
C2867 H2870 0.999 . S
C2868 H2838 0.950 . S
C2868 C2867 1.524 . S
C2868 C2869 1.415 . S
C2869 H2839 0.950 . S
C2869 C2864 1.363 1_556 S
C2869 C2868 1.415 . S
H2870 C2867 0.999 . S
H2871 C2852 0.913 . S
C506 C315 1.810 . S
C491 C101 1.839 . S
C556 C323 0.872 . S
C541 C125 0.947 1_455 S
C591 C139 2.037 . S
C606 C343 1.994 . S
C656 C357 1.812 . S
C641 C82 1.858 . S
C706 C372 1.600 . S
C691 C196 1.605 . S
C756 C386 1.905 . S
C741 C234 1.907 . S
C791 C220 0.759 . S
C806 C400 0.766 . S
C856 C406 1.629 . S
C841 C173 1.684 . S
C891 C211 1.054 . S
C906 C420 1.041 . S
C956 C441 1.019 . S
C941 C182 0.973 . S
C991 C201 1.261 . S
C1006 C421 1.119 . S
C1056 C442 1.290 . S
C1041 C239 1.193 . S
C1091 C135 1.656 . S
C1106 C449 1.421 . S
C1141 C87 1.887 . S
C1156 C455 2.028 . S
C1191 C106 1.069 . S
C1206 C448 1.162 . S
C1241 C116 1.120 . S
C1256 C456 1.130 . S
C1291 C59 1.970 . S
C1306 C350 1.938 . S
C1341 C268 2.357 . S
C1356 C351 2.144 . S
C1406 C308 1.118 . S
C1391 C291 1.145 . S
C1456 C329 1.404 . S
C1441 C163 1.295 . S
C1491 C78 2.145 1_545 S
C1506 C364 2.129 . S
C1556 C414 1.102 . S
C1541 C215 1.102 . S
C1606 C365 1.397 . S
C1591 C177 1.559 1_545 S
C1656 C393 1.596 . S
C1641 C230 1.895 . S
C1706 C399 1.832 . S
C1691 C272 1.861 . S
C1741 C296 0.968 . S
C1756 C407 0.880 . S
C1791 C158 2.034 . S
C1806 C371 1.991 . S
C1856 C385 1.784 . S
C1841 C253 1.828 . S
C1891 C63 1.589 . S
C1906 C344 1.584 . S
C1956 C358 1.912 . S
C1941 C6 1.913 . S
C2006 C316 0.763 . S
C1991 C30 0.757 . S
C2056 C322 1.661 . S
C2041 C40 1.717 . S
C2091 C21 1.091 . S
C2106 C434 1.079 . S
C2141 C49 0.960 . S
C2156 C427 1.005 . S
C2191 C68 1.244 . S
C2206 C435 1.102 . S
C2241 C11 1.241 . S
C2256 C428 1.284 . S
C2306 C463 1.390 . S
C2291 C154 1.623 . S
C2356 C469 2.041 . S
C2341 C258 1.897 . S
C2406 C462 1.219 . S
C2391 C277 1.116 . S
C2441 C287 1.116 . S
C2456 C470 1.128 . S
C2491 C192 1.967 . S
C2506 C378 1.936 . S
C2556 C379 2.114 . S
C2541 C97 2.328 . S
C2606 C392 1.124 . S
C2591 C120 1.151 . S
C2656 C413 1.412 . S
C2641 C144 1.302 . S
C2691 C249 2.142 . S
C2706 C336 2.128 . S
C2756 C330 1.129 . S
C2741 C25 1.129 . S
C2791 C44 1.511 . S
C2806 C337 1.359 . S
C2856 C309 1.595 . S
C2841 C2 1.894 1_565 S
