# Generated by pormake.
# Topology pyr, (3,6)-cn, num edge types: 1
# Building blocks:
#     Node 0, Type 0, BuildingBlock: KAKCAD_clean_linker_0, # of connection points: 3
#     Node 1, Type 0, BuildingBlock: KAKCAD_clean_linker_0, # of connection points: 3
#     Node 2, Type 0, BuildingBlock: KAKCAD_clean_linker_0, # of connection points: 3
#     Node 3, Type 0, BuildingBlock: KAKCAD_clean_linker_0, # of connection points: 3
#     Node 4, Type 0, BuildingBlock: KAKCAD_clean_linker_0, # of connection points: 3
#     Node 5, Type 0, BuildingBlock: KAKCAD_clean_linker_0, # of connection points: 3
#     Node 6, Type 0, BuildingBlock: KAKCAD_clean_linker_0, # of connection points: 3
#     Node 7, Type 0, BuildingBlock: KAKCAD_clean_linker_0, # of connection points: 3
#     Node 8, Type 1, BuildingBlock: GEDQOX_clean_sbu_0, # of connection points: 6
#     Node 9, Type 1, BuildingBlock: GEDQOX_clean_sbu_0, # of connection points: 6
#     Node 10, Type 1, BuildingBlock: GEDQOX_clean_sbu_0, # of connection points: 6
#     Node 11, Type 1, BuildingBlock: GEDQOX_clean_sbu_0, # of connection points: 6
#     Edge 12, Type (0, 1), BuildingBlock: KIFKEQ_clean_linker_1, # of connection points: 2
#     Edge 13, Type (0, 1), BuildingBlock: KIFKEQ_clean_linker_1, # of connection points: 2
#     Edge 14, Type (0, 1), BuildingBlock: KIFKEQ_clean_linker_1, # of connection points: 2
#     Edge 15, Type (0, 1), BuildingBlock: KIFKEQ_clean_linker_1, # of connection points: 2
#     Edge 16, Type (0, 1), BuildingBlock: KIFKEQ_clean_linker_1, # of connection points: 2
#     Edge 17, Type (0, 1), BuildingBlock: KIFKEQ_clean_linker_1, # of connection points: 2
#     Edge 18, Type (0, 1), BuildingBlock: KIFKEQ_clean_linker_1, # of connection points: 2
#     Edge 19, Type (0, 1), BuildingBlock: KIFKEQ_clean_linker_1, # of connection points: 2
#     Edge 20, Type (0, 1), BuildingBlock: KIFKEQ_clean_linker_1, # of connection points: 2
#     Edge 21, Type (0, 1), BuildingBlock: KIFKEQ_clean_linker_1, # of connection points: 2
#     Edge 22, Type (0, 1), BuildingBlock: KIFKEQ_clean_linker_1, # of connection points: 2
#     Edge 23, Type (0, 1), BuildingBlock: KIFKEQ_clean_linker_1, # of connection points: 2
#     Edge 24, Type (0, 1), BuildingBlock: KIFKEQ_clean_linker_1, # of connection points: 2
#     Edge 25, Type (0, 1), BuildingBlock: KIFKEQ_clean_linker_1, # of connection points: 2
#     Edge 26, Type (0, 1), BuildingBlock: KIFKEQ_clean_linker_1, # of connection points: 2
#     Edge 27, Type (0, 1), BuildingBlock: KIFKEQ_clean_linker_1, # of connection points: 2
#     Edge 28, Type (0, 1), BuildingBlock: KIFKEQ_clean_linker_1, # of connection points: 2
#     Edge 29, Type (0, 1), BuildingBlock: KIFKEQ_clean_linker_1, # of connection points: 2
#     Edge 30, Type (0, 1), BuildingBlock: KIFKEQ_clean_linker_1, # of connection points: 2
#     Edge 31, Type (0, 1), BuildingBlock: KIFKEQ_clean_linker_1, # of connection points: 2
#     Edge 32, Type (0, 1), BuildingBlock: KIFKEQ_clean_linker_1, # of connection points: 2
#     Edge 33, Type (0, 1), BuildingBlock: KIFKEQ_clean_linker_1, # of connection points: 2
#     Edge 34, Type (0, 1), BuildingBlock: KIFKEQ_clean_linker_1, # of connection points: 2
#     Edge 35, Type (0, 1), BuildingBlock: KIFKEQ_clean_linker_1, # of connection points: 2
# Relax obj value: 0.101
# Max RMSD: 0.152
# Mean RMSD: 0.061
data_MOF--net-pyr--node1-GEDQOX_clean_sbu_0--node2-KAKCAD_clean_linker_0--edge1-KIFKEQ_clean_linker_1
_symmetry_space_group_name_H-M    P1
_symmetry_Int_Tables_number       1
_symmetry_cell_setting            triclinic
loop_
_symmetry_equiv_pos_as_xyz
'x, y, z'
_cell_length_a     49.023179
_cell_length_b     49.399522
_cell_length_c     42.720611
_cell_angle_alpha  87.202986
_cell_angle_beta   89.791972
_cell_angle_gamma 85.871418
loop_
_atom_site_label
_atom_site_type_symbol
_atom_site_fract_x
_atom_site_fract_y
_atom_site_fract_z
_atom_type_partial_charge
C0 C 0.13523 0.14926 0.25456 0.0
C1 C 0.1505 0.13794 0.28054 0.0
C2 C 0.14809 0.16146 0.2286 0.0
C3 C 0.17671 0.16263 0.22754 0.0
C4 C 0.19205 0.15106 0.25327 0.0
C5 C 0.17917 0.13901 0.27936 0.0
C6 C 0.19037 0.17626 0.19999 0.0
C7 C 0.17869 0.20084 0.18615 0.0
C8 C 0.19102 0.21416 0.16035 0.0
C9 C 0.2161 0.20246 0.14878 0.0
C10 C 0.2285 0.1777 0.16211 0.0
C11 C 0.21506 0.16486 0.18759 0.0
C12 C 0.2553 0.16503 0.14968 0.0
C13 C 0.26279 0.16819 0.11783 0.0
C14 C 0.27369 0.14917 0.16964 0.0
C15 C 0.29814 0.13663 0.15826 0.0
C16 C 0.30577 0.13985 0.12647 0.0
C17 C 0.17743 0.24028 0.14596 0.0
C18 C 0.14867 0.24412 0.14406 0.0
C19 C 0.19271 0.26188 0.13481 0.0
C20 C 0.17965 0.28658 0.12284 0.0
C21 C 0.15087 0.29056 0.12174 0.0
C22 C 0.13566 0.26878 0.13231 0.0
C23 C 0.28757 0.15601 0.10652 0.0
H24 H 0.11323 0.14845 0.254 0.0
H25 H 0.13555 0.16972 0.2091 0.0
H26 H 0.21407 0.15184 0.2536 0.0
H27 H 0.19178 0.13102 0.29891 0.0
H28 H 0.16014 0.21004 0.19615 0.0
H29 H 0.22341 0.14545 0.19749 0.0
H30 H 0.22592 0.21271 0.12932 0.0
H31 H 0.24937 0.17983 0.10131 0.0
H32 H 0.26942 0.14643 0.19442 0.0
H33 H 0.31087 0.12409 0.17466 0.0
H34 H 0.136 0.22793 0.15155 0.0
H35 H 0.21482 0.26004 0.13607 0.0
H36 H 0.29246 0.15959 0.08202 0.0
H37 H 0.11354 0.27066 0.13128 0.0
H38 H 0.19216 0.30284 0.1152 0.0
C39 C 0.4171 0.82485 0.86069 0.0
C40 C 0.41658 0.85277 0.85221 0.0
C41 C 0.40628 0.80671 0.84067 0.0
C42 C 0.3946 0.81614 0.81179 0.0
C43 C 0.39435 0.84401 0.80324 0.0
C44 C 0.40512 0.86208 0.8232 0.0
C45 C 0.38239 0.79723 0.79063 0.0
C46 C 0.35777 0.80533 0.77482 0.0
C47 C 0.34695 0.78863 0.75312 0.0
C48 C 0.36028 0.76324 0.74804 0.0
C49 C 0.38453 0.75442 0.76395 0.0
C50 C 0.39566 0.7716 0.78511 0.0
C51 C 0.39869 0.72805 0.75614 0.0
C52 C 0.38348 0.7053 0.75276 0.0
C53 C 0.42651 0.72634 0.7479 0.0
C54 C 0.43831 0.70304 0.73435 0.0
C55 C 0.42245 0.68112 0.7288 0.0
C56 C 0.32266 0.79817 0.73416 0.0
C57 C 0.29839 0.80821 0.74841 0.0
C58 C 0.32369 0.7969 0.7014 0.0
C59 C 0.30089 0.80552 0.68317 0.0
C60 C 0.27651 0.81531 0.69735 0.0
C61 C 0.27538 0.81651 0.73014 0.0
C62 C 0.39521 0.68213 0.73916 0.0
H63 H 0.42605 0.81695 0.88272 0.0
H64 H 0.40667 0.78539 0.84801 0.0
H65 H 0.38591 0.85192 0.78096 0.0
H66 H 0.40408 0.88346 0.81602 0.0
H67 H 0.34732 0.82496 0.77875 0.0
H68 H 0.41481 0.76523 0.79677 0.0
H69 H 0.35201 0.75053 0.73093 0.0
H70 H 0.3621 0.7059 0.75939 0.0
H71 H 0.43866 0.74362 0.75002 0.0
H72 H 0.45935 0.70288 0.72649 0.0
H73 H 0.29713 0.80928 0.77364 0.0
H74 H 0.34225 0.78942 0.68986 0.0
H75 H 0.38266 0.66534 0.73575 0.0
H76 H 0.25684 0.82419 0.74156 0.0
H77 H 0.30224 0.80427 0.65795 0.0
C78 C 0.82527 0.44507 0.87244 0.0
C79 C 0.84837 0.42766 0.88085 0.0
C80 C 0.80153 0.43461 0.86156 0.0
C81 C 0.8002 0.4065 0.85936 0.0
C82 C 0.82317 0.38904 0.86754 0.0
C83 C 0.84708 0.39951 0.87789 0.0
C84 C 0.77465 0.39534 0.84929 0.0
C85 C 0.76163 0.40532 0.82136 0.0
C86 C 0.73736 0.39473 0.81177 0.0
C87 C 0.72579 0.37472 0.83093 0.0
C88 C 0.73831 0.36486 0.85909 0.0
C89 C 0.76304 0.37492 0.8679 0.0
C90 C 0.72517 0.34409 0.87895 0.0
C91 C 0.69687 0.3469 0.88439 0.0
C92 C 0.74027 0.32056 0.89069 0.0
C93 C 0.72699 0.29957 0.90608 0.0
C94 C 0.69843 0.30185 0.91014 0.0
C95 C 0.72351 0.40453 0.78211 0.0
C96 C 0.71951 0.43245 0.77411 0.0
C97 C 0.71248 0.38593 0.76269 0.0
C98 C 0.69657 0.39502 0.73677 0.0
C99 C 0.69142 0.42297 0.72953 0.0
C100 C 0.70359 0.44158 0.74807 0.0
C101 C 0.68365 0.32603 0.89976 0.0
H102 H 0.82523 0.46678 0.87492 0.0
H103 H 0.78394 0.44843 0.85566 0.0
H104 H 0.82266 0.36728 0.86571 0.0
H105 H 0.86457 0.38548 0.88345 0.0
H106 H 0.77076 0.42082 0.80678 0.0
H107 H 0.77277 0.36752 0.88972 0.0
H108 H 0.7068 0.36679 0.82394 0.0
H109 H 0.68479 0.36501 0.87598 0.0
H110 H 0.76212 0.31788 0.88679 0.0
H111 H 0.73898 0.2813 0.91414 0.0
H112 H 0.72772 0.44725 0.78867 0.0
H113 H 0.71558 0.36426 0.76801 0.0
H114 H 0.66162 0.3284 0.90218 0.0
H115 H 0.70034 0.46324 0.74283 0.0
H116 H 0.68738 0.38012 0.72321 0.0
C117 C 0.82985 0.77388 0.20485 0.0
C118 C 0.85688 0.76258 0.2028 0.0
C119 C 0.82249 0.79176 0.22827 0.0
C120 C 0.84202 0.79868 0.24996 0.0
C121 C 0.86953 0.7896 0.24588 0.0
C122 C 0.87689 0.77165 0.2225 0.0
C123 C 0.83306 0.81066 0.27972 0.0
C124 C 0.81236 0.79869 0.29703 0.0
C125 C 0.80565 0.8066 0.32731 0.0
C126 C 0.81952 0.82737 0.34004 0.0
C127 C 0.84027 0.83981 0.32302 0.0
C128 C 0.847 0.83124 0.29282 0.0
C129 C 0.85591 0.86043 0.33788 0.0
C130 C 0.84242 0.87998 0.35641 0.0
C131 C 0.88457 0.8597 0.33526 0.0
C132 C 0.89943 0.87759 0.35161 0.0
C133 C 0.88595 0.89644 0.37101 0.0
C134 C 0.78622 0.79103 0.34639 0.0
C135 C 0.7626 0.78229 0.33262 0.0
C136 C 0.79257 0.78241 0.37752 0.0
C137 C 0.7764 0.76438 0.39395 0.0
C138 C 0.75362 0.75447 0.37956 0.0
C139 C 0.74654 0.76414 0.34896 0.0
C140 C 0.85727 0.89773 0.37285 0.0
H141 H 0.81397 0.76728 0.19004 0.0
H142 H 0.80116 0.79871 0.23079 0.0
H143 H 0.88499 0.79454 0.2623 0.0
H144 H 0.89798 0.76359 0.22106 0.0
H145 H 0.80274 0.78171 0.28769 0.0
H146 H 0.86319 0.84034 0.27959 0.0
H147 H 0.81474 0.8332 0.36367 0.0
H148 H 0.82035 0.88139 0.35848 0.0
H149 H 0.89562 0.84466 0.32151 0.0
H150 H 0.92153 0.876 0.34993 0.0
H151 H 0.75701 0.78881 0.30878 0.0
H152 H 0.81075 0.78857 0.38874 0.0
H153 H 0.8463 0.9124 0.38717 0.0
H154 H 0.72926 0.75682 0.33704 0.0
H155 H 0.78214 0.7577 0.41769 0.0
C156 C 0.92525 0.90299 0.79463 0.0
C157 C 0.91008 0.91739 0.77043 0.0
C158 C 0.91216 0.89003 0.81993 0.0
C159 C 0.88339 0.89092 0.82191 0.0
C160 C 0.86821 0.90551 0.79781 0.0
C161 C 0.88132 0.91855 0.77255 0.0
C162 C 0.86934 0.87632 0.84859 0.0
C163 C 0.88031 0.85085 0.8609 0.0
C164 C 0.86745 0.83668 0.88565 0.0
C165 C 0.84276 0.84844 0.89802 0.0
C166 C 0.83094 0.87393 0.8861 0.0
C167 C 0.84485 0.88765 0.86165 0.0
C168 C 0.80403 0.88624 0.89862 0.0
C169 C 0.79591 0.88164 0.93007 0.0
C170 C 0.78605 0.90301 0.87908 0.0
C171 C 0.76135 0.91498 0.8905 0.0
C172 C 0.75307 0.9103 0.92185 0.0
C173 C 0.88006 0.80954 0.89819 0.0
C174 C 0.89178 0.79041 0.87772 0.0
C175 C 0.88156 0.80287 0.93061 0.0
C176 C 0.89496 0.7782 0.94216 0.0
C177 C 0.90718 0.75927 0.92166 0.0
C178 C 0.90501 0.76575 0.88921 0.0
C179 C 0.77089 0.89331 0.9414 0.0
H180 H 0.94739 0.90197 0.79429 0.0
H181 H 0.9247 0.87954 0.83816 0.0
H182 H 0.84608 0.90641 0.79804 0.0
H183 H 0.86883 0.92906 0.75428 0.0
H184 H 0.89907 0.84191 0.8511 0.0
H185 H 0.83697 0.90765 0.85307 0.0
H186 H 0.83237 0.83723 0.9163 0.0
H187 H 0.80899 0.86922 0.94625 0.0
H188 H 0.79081 0.90685 0.85459 0.0
H189 H 0.7489 0.92821 0.87447 0.0
H190 H 0.89064 0.79443 0.85259 0.0
H191 H 0.87306 0.81709 0.94718 0.0
H192 H 0.7655 0.88866 0.96555 0.0
H193 H 0.91338 0.75166 0.87244 0.0
H194 H 0.89631 0.77435 0.96728 0.0
C195 C 0.67811 0.18328 0.20388 0.0
C196 C 0.65366 0.19121 0.18775 0.0
C197 C 0.68953 0.20064 0.22415 0.0
C198 C 0.67747 0.22699 0.22821 0.0
C199 C 0.65351 0.23535 0.21124 0.0
C200 C 0.64162 0.21761 0.19155 0.0
C201 C 0.68935 0.24484 0.25116 0.0
C202 C 0.71763 0.24224 0.25765 0.0
C203 C 0.72863 0.25525 0.28275 0.0
C204 C 0.71127 0.27278 0.29996 0.0
C205 C 0.6834 0.27708 0.29271 0.0
C206 C 0.67245 0.26295 0.26853 0.0
C207 C 0.66588 0.29585 0.31145 0.0
C208 C 0.66673 0.29333 0.34431 0.0
C209 C 0.65008 0.31765 0.29681 0.0
C210 C 0.63645 0.33737 0.31477 0.0
C211 C 0.63817 0.33546 0.34772 0.0
C212 C 0.75743 0.24845 0.29316 0.0
C213 C 0.76916 0.2217 0.2918 0.0
C214 C 0.77247 0.26779 0.30731 0.0
C215 C 0.79755 0.2601 0.3218 0.0
C216 C 0.80846 0.23297 0.32198 0.0
C217 C 0.79445 0.21416 0.30568 0.0
C218 C 0.65292 0.31281 0.36224 0.0
H219 H 0.68856 0.16349 0.20114 0.0
H220 H 0.70756 0.19291 0.23716 0.0
H221 H 0.64373 0.25553 0.21323 0.0
H222 H 0.62265 0.22453 0.17988 0.0
H223 H 0.73116 0.22956 0.24352 0.0
H224 H 0.6506 0.26521 0.26444 0.0
H225 H 0.71922 0.28278 0.31964 0.0
H226 H 0.67851 0.27647 0.35613 0.0
H227 H 0.64928 0.32009 0.27148 0.0
H228 H 0.62544 0.35461 0.30278 0.0
H229 H 0.75828 0.20608 0.28138 0.0
H230 H 0.76447 0.28875 0.30815 0.0
H231 H 0.65409 0.31025 0.38753 0.0
H232 H 0.80257 0.19327 0.30448 0.0
H233 H 0.80767 0.2752 0.33408 0.0
C234 C 0.22111 0.61616 0.19166 0.0
C235 C 0.21989 0.60921 0.16025 0.0
C236 C 0.24516 0.62512 0.20372 0.0
C237 C 0.26806 0.62783 0.18431 0.0
C238 C 0.26677 0.62105 0.15285 0.0
C239 C 0.24294 0.6115 0.14099 0.0
C240 C 0.29317 0.63815 0.19668 0.0
C241 C 0.30659 0.62488 0.22274 0.0
C242 C 0.33086 0.63432 0.23391 0.0
C243 C 0.34099 0.6577 0.21967 0.0
C244 C 0.32727 0.67171 0.19434 0.0
C245 C 0.30365 0.66146 0.18247 0.0
C246 C 0.33743 0.69743 0.18123 0.0
C247 C 0.34586 0.7167 0.20157 0.0
C248 C 0.33961 0.70261 0.14872 0.0
C249 C 0.3509 0.72625 0.13685 0.0
C250 C 0.35999 0.74517 0.15731 0.0
C251 C 0.34595 0.62017 0.26053 0.0
C252 C 0.33294 0.6153 0.28937 0.0
C253 C 0.37413 0.61337 0.2578 0.0
C254 C 0.38923 0.60263 0.28367 0.0
C255 C 0.37651 0.59873 0.31288 0.0
C256 C 0.34816 0.60485 0.31545 0.0
C257 C 0.35704 0.74024 0.18978 0.0
H258 H 0.20354 0.61442 0.2069 0.0
H259 H 0.24576 0.63037 0.22802 0.0
H260 H 0.28427 0.62296 0.13755 0.0
H261 H 0.24234 0.60632 0.11666 0.0
H262 H 0.29861 0.60682 0.23369 0.0
H263 H 0.29286 0.6721 0.16289 0.0
H264 H 0.35958 0.66516 0.22859 0.0
H265 H 0.34405 0.71346 0.22673 0.0
H266 H 0.33331 0.68805 0.13252 0.0
H267 H 0.35271 0.7296 0.11171 0.0
H268 H 0.31124 0.62054 0.29202 0.0
H269 H 0.38457 0.61688 0.23573 0.0
H270 H 0.36416 0.75417 0.20623 0.0
H271 H 0.33785 0.60185 0.33769 0.0
H272 H 0.41108 0.59831 0.28106 0.0
C273 C 0.1896 0.14782 0.71436 0.0
C274 C 0.16215 0.14464 0.72243 0.0
C275 C 0.204 0.16762 0.72795 0.0
C276 C 0.1913 0.18461 0.74996 0.0
C277 C 0.16431 0.18053 0.75922 0.0
C278 C 0.14985 0.16079 0.74553 0.0
C279 C 0.2052 0.2081 0.76095 0.0
C280 C 0.2184 0.22493 0.7391 0.0
C281 C 0.22919 0.24875 0.74834 0.0
C282 C 0.22736 0.25545 0.77975 0.0
C283 C 0.21501 0.23859 0.80225 0.0
C284 C 0.20376 0.21494 0.79257 0.0
C285 C 0.21235 0.24726 0.83508 0.0
C286 C 0.23311 0.26123 0.84839 0.0
C287 C 0.18792 0.24468 0.85191 0.0
C288 C 0.1834 0.25802 0.8798 0.0
C289 C 0.20291 0.27475 0.89109 0.0
C290 C 0.24202 0.2672 0.72532 0.0
C291 C 0.26363 0.25742 0.70637 0.0
C292 C 0.2339 0.29508 0.72376 0.0
C293 C 0.24781 0.31306 0.70445 0.0
C294 C 0.2703 0.30351 0.68665 0.0
C295 C 0.27781 0.27548 0.68735 0.0
C296 C 0.22835 0.27508 0.87576 0.0
H297 H 0.19961 0.13587 0.69647 0.0
H298 H 0.22487 0.17015 0.72058 0.0
H299 H 0.15392 0.19344 0.77598 0.0
H300 H 0.12882 0.1586 0.75247 0.0
H301 H 0.21915 0.22024 0.71456 0.0
H302 H 0.19392 0.20184 0.80953 0.0
H303 H 0.23528 0.27425 0.78648 0.0
H304 H 0.25258 0.26283 0.83663 0.0
H305 H 0.17154 0.2339 0.84259 0.0
H306 H 0.16393 0.25638 0.89152 0.0
H307 H 0.27025 0.23599 0.70727 0.0
H308 H 0.21714 0.30303 0.73802 0.0
H309 H 0.24404 0.28758 0.88344 0.0
H310 H 0.29498 0.26762 0.67364 0.0
H311 H 0.24172 0.33458 0.70448 0.0
Nd312 Nd 0.0482 1.00312 0.52493 0.0
Nd313 Nd 1.01585 0.05668 0.5341 0.0
C314 C 0.07179 0.95576 0.51017 0.0
C315 C 0.08552 0.93322 0.52896 0.0
C316 C 0.09909 0.91132 0.51441 0.0
C317 C 0.11559 0.89201 0.5321 0.0
C318 C 0.11902 0.8946 0.56455 0.0
C319 C 0.10415 0.91596 0.57911 0.0
C320 C 0.08746 0.93497 0.56149 0.0
C321 C 0.06724 0.03173 0.57305 0.0
C322 C 1.00537 1.00679 0.58276 0.0
C323 C 0.99692 0.10783 0.53977 0.0
C324 C 0.98611 0.12907 0.51687 0.0
C325 C 0.96391 0.14687 0.52493 0.0
C326 C 0.95007 0.16349 0.50179 0.0
C327 C 0.95819 0.16238 0.47022 0.0
C328 C 0.98155 0.14583 0.46263 0.0
C329 C 0.9953 0.12926 0.48573 0.0
C330 C 0.98857 0.02015 0.50166 0.0
C331 C 0.05688 0.05324 0.4727 0.0
O332 O 0.04534 0.95989 0.51438 0.0
O333 O 0.08447 0.97822 0.5094 0.0
O334 O 0.06756 1.00551 0.57384 0.0
O335 O 0.05877 0.04168 0.54696 0.0
O336 O 1.01431 0.99143 0.55976 0.0
O337 O 1.00882 0.03318 0.58126 0.0
O338 O 1.02296 0.10032 0.53792 0.0
O339 O 0.98188 0.08722 0.54379 0.0
O340 O 0.97682 0.03621 0.52148 0.0
O341 O 1.01329 0.02475 0.49822 0.0
O342 O 0.038 0.06801 0.48786 0.0
O343 O 0.0642 0.02786 0.48218 0.0
H344 H 0.09771 0.90968 0.48928 0.0
H345 H 0.12629 0.87555 0.5202 0.0
H346 H 0.10648 0.91897 0.60386 0.0
H347 H 0.07706 0.95177 0.57309 0.0
H348 H 0.95637 0.14683 0.54881 0.0
H349 H 0.93199 0.17586 0.5083 0.0
H350 H 0.98846 0.14478 0.43858 0.0
H351 H 1.01225 0.11563 0.4789 0.0
Nd352 Nd 0.53054 1.00513 0.05012 0.0
Nd353 Nd 0.52619 0.04093 0.99773 0.0
C354 C 0.53388 0.96214 0.0897 0.0
C355 C 0.51642 0.93932 0.09636 0.0
C356 C 0.51785 0.91664 0.0776 0.0
C357 C 0.50013 0.89597 0.08291 0.0
C358 C 0.48062 0.89751 0.10708 0.0
C359 C 0.47956 0.91998 0.12614 0.0
C360 C 0.49735 0.94055 0.12095 0.0
C361 C 0.48694 0.04368 0.0561 0.0
C362 C 0.49519 0.98844 0.98984 0.0
C363 C 0.52263 0.08441 0.959 0.0
C364 C 0.5403 0.10722 0.95362 0.0
C365 C 0.53219 0.13283 0.96481 0.0
C366 C 0.5498 0.15385 0.96266 0.0
C367 C 0.57584 0.14976 0.94904 0.0
C368 C 0.5836 0.12436 0.93702 0.0
C369 C 0.56606 0.10331 0.93931 0.0
C370 C 0.5699 1.00255 0.99179 0.0
C371 C 0.5621 0.05725 0.0579 0.0
O372 O 0.54639 0.96284 0.06265 0.0
O373 O 0.5239 0.98613 0.09734 0.0
O374 O 0.50511 0.03703 0.07752 0.0
O375 O 0.49236 0.03067 0.03172 0.0
O376 O 0.51073 0.9795 1.01375 0.0
O377 O 0.49376 1.01433 0.98105 0.0
O378 O 0.51015 0.0833 0.98605 0.0
O379 O 0.53232 0.0605 0.95066 0.0
O380 O 0.55184 1.00926 0.97024 0.0
O381 O 0.56436 1.0155 1.01619 0.0
O382 O 0.54715 0.06632 0.03355 0.0
O383 O 0.56283 0.03153 0.06721 0.0
H384 H 0.53246 0.91492 0.0586 0.0
H385 H 0.50185 0.87871 0.06815 0.0
H386 H 0.46459 0.92199 0.14475 0.0
H387 H 0.49582 0.95769 0.13591 0.0
H388 H 0.51246 0.13642 0.97595 0.0
H389 H 0.54325 0.1731 0.97238 0.0
H390 H 0.60328 0.12071 0.9258 0.0
H391 H 0.57294 0.08386 0.93031 0.0
Nd392 Nd 0.50129 0.49509 0.53134 0.0
Nd393 Nd 0.55058 0.5302 0.52957 0.0
C394 C 0.45295 0.4751 0.52735 0.0
C395 C 0.43201 0.46336 0.54742 0.0
C396 C 0.40445 0.46738 0.5387 0.0
C397 C 0.38455 0.45387 0.55546 0.0
C398 C 0.39196 0.43593 0.58112 0.0
C399 C 0.41957 0.43284 0.59048 0.0
C400 C 0.43938 0.44653 0.57387 0.0
C401 C 0.54268 0.47744 0.5723 0.0
C402 C 0.5023 0.54612 0.57774 0.0
C403 C 0.59879 0.5509 0.53173 0.0
C404 C 0.61588 0.56804 0.51213 0.0
C405 C 0.64412 0.56678 0.51739 0.0
C406 C 0.66035 0.58483 0.5011 0.0
C407 C 0.64851 0.60457 0.47939 0.0
C408 C 0.62026 0.60506 0.47343 0.0
C409 C 0.6041 0.58688 0.48959 0.0
C410 C 0.50934 0.54727 0.48797 0.0
C411 C 0.55077 0.47726 0.48664 0.0
O412 O 0.45591 0.50112 0.52899 0.0
O413 O 0.47618 0.46053 0.52524 0.0
O414 O 0.52699 0.461 0.55959 0.0
O415 O 0.53434 0.50162 0.56595 0.0
O416 O 0.48667 0.53114 0.56148 0.0
O417 O 0.52902 0.54499 0.5736 0.0
O418 O 0.59566 0.52646 0.52253 0.0
O419 O 0.5762 0.5629 0.54222 0.0
O420 O 0.52474 0.56391 0.50074 0.0
O421 O 0.51794 0.52325 0.49469 0.0
O422 O 0.5659 0.49159 0.50425 0.0
O423 O 0.52386 0.47992 0.48818 0.0
H424 H 0.39841 0.48042 0.51839 0.0
H425 H 0.36344 0.45712 0.54798 0.0
H426 H 0.42612 0.41897 0.60985 0.0
H427 H 0.46058 0.44322 0.58107 0.0
H428 H 0.65353 0.55224 0.53464 0.0
H429 H 0.68211 0.58357 0.50582 0.0
H430 H 0.61041 0.62014 0.45713 0.0
H431 H 0.58227 0.58808 0.4852 0.0
Nd432 Nd 1.0063 0.52069 0.04344 0.0
Nd433 Nd 0.0543 0.53068 1.00173 0.0
C434 C 0.95689 0.52122 0.06804 0.0
C435 C 0.93962 0.54521 0.07657 0.0
C436 C 0.91274 0.54326 0.08726 0.0
C437 C 0.89717 0.56666 0.0959 0.0
C438 C 0.90827 0.5922 0.09347 0.0
C439 C 0.93504 0.59392 0.08219 0.0
C440 C 0.95058 0.57067 0.07408 0.0
C441 C 0.04829 0.5435 0.0721 0.0
C442 C 1.00741 0.57898 0.99965 0.0
C443 C 0.10451 0.52822 0.98037 0.0
C444 C 0.12022 0.50239 0.97475 0.0
C445 C 0.14782 0.49797 0.98347 0.0
C446 C 0.16086 0.47171 0.98351 0.0
C447 C 0.14625 0.44958 0.97532 0.0
C448 C 0.11888 0.45437 0.96581 0.0
C449 C 0.10602 0.48037 0.96565 0.0
C450 C 1.01277 0.50704 0.97302 0.0
C451 C 0.05295 0.47202 0.04457 0.0
O452 O 0.96143 0.51949 0.03798 0.0
O453 O 0.97919 0.51648 0.08473 0.0
O454 O 0.03453 0.52474 0.08552 0.0
O455 O 0.03918 0.55029 0.04514 0.0
O456 O 0.99279 0.56034 1.01369 0.0
O457 O 0.03404 0.57407 0.99558 0.0
O458 O 0.09887 0.53182 1.0099 0.0
O459 O 0.08333 0.53424 0.96204 0.0
O460 O 1.02723 0.52495 0.95891 0.0
O461 O 1.02152 0.50096 1.00027 0.0
O462 O 0.06765 0.49067 0.03078 0.0
O463 O 1.0263 0.47704 0.04843 0.0
H464 H 0.904 0.52373 0.08931 0.0
H465 H 0.87659 0.5648 0.10466 0.0
H466 H 0.94441 0.61315 0.08077 0.0
H467 H 0.97147 0.57253 0.06646 0.0
H468 H 0.15894 0.51457 0.99129 0.0
H469 H 0.18201 0.46856 0.99088 0.0
H470 H 0.10722 0.43789 0.95871 0.0
H471 H 0.08452 0.48301 0.95952 0.0
H472 H 0.10027 0.15317 0.3064 0.0
H473 H 0.16889 0.09378 0.31909 0.0
H474 H 0.07749 0.13239 0.3511 0.0
H475 H 0.14681 0.07402 0.36499 0.0
H476 H 0.08978 0.0275 0.42922 0.0
H477 H 0.11162 0.04739 0.38308 0.0
H478 H 0.07695 0.1269 0.4059 0.0
H479 H 0.05457 0.10684 0.45141 0.0
C480 C 0.1106 0.13565 0.3186 0.0
C481 C 0.13659 0.12528 0.30866 0.0
C482 C 0.0976 0.12389 0.34475 0.0
C483 C 0.11014 0.10139 0.36212 0.0
C484 C 0.13615 0.09104 0.35222 0.0
C485 C 0.1491 0.10272 0.32597 0.0
C486 C 0.08672 0.04923 0.42438 0.0
C487 C 0.07014 0.06544 0.44416 0.0
C488 C 0.09947 0.06075 0.39789 0.0
C489 C 0.09625 0.08893 0.39037 0.0
C490 C 0.07967 0.1051 0.41027 0.0
C491 C 0.0668 0.09355 0.43664 0.0
H492 H 0.41175 0.85388 0.91619 0.0
H493 H 0.44674 0.8959 0.83633 0.0
H494 H 0.42903 0.88681 0.95062 0.0
H495 H 0.46373 0.92883 0.87064 0.0
H496 H 0.46617 0.99863 0.93544 0.0
H497 H 0.44618 0.96577 0.90324 0.0
H498 H 0.47264 0.90109 0.97039 0.0
H499 H 0.49233 0.93395 1.00286 0.0
C500 C 0.42332 0.86998 0.906 0.0
C501 C 0.42775 0.87228 0.87345 0.0
C502 C 0.43315 0.88889 0.92572 0.0
C503 C 0.44756 0.91057 0.91334 0.0
C504 C 0.45221 0.9127 0.88086 0.0
C505 C 0.44248 0.89379 0.86118 0.0
C506 C 0.4675 0.97745 0.94351 0.0
C507 C 0.48098 0.96892 0.97164 0.0
C508 C 0.45621 0.95859 0.92493 0.0
C509 C 0.45805 0.93078 0.9341 0.0
C510 C 0.47074 0.92237 0.96275 0.0
C511 C 0.48213 0.94122 0.98128 0.0
H512 H 0.65224 0.46515 0.73017 0.0
H513 H 0.68592 0.40196 0.67176 0.0
H514 H 0.61759 0.47844 0.69065 0.0
H515 H 0.65087 0.41512 0.63232 0.0
H516 H 0.56251 0.42613 0.59126 0.0
H517 H 0.60028 0.41359 0.62775 0.0
H518 H 0.61284 0.49853 0.63683 0.0
H519 H 0.57512 0.51097 0.60079 0.0
C520 C 0.65259 0.4544 0.70865 0.0
C521 C 0.67189 0.43249 0.70414 0.0
C522 C 0.63264 0.46196 0.68605 0.0
C523 C 0.63145 0.44773 0.65845 0.0
C524 C 0.65105 0.42618 0.65359 0.0
C525 C 0.67111 0.41869 0.67615 0.0
C526 C 0.57343 0.44203 0.60106 0.0
C527 C 0.56579 0.46948 0.5935 0.0
C528 C 0.59512 0.43489 0.62174 0.0
C529 C 0.60942 0.4551 0.63523 0.0
C530 C 0.60197 0.48253 0.62717 0.0
C531 C 0.58042 0.48963 0.60648 0.0
H532 H 0.84092 0.75495 0.14237 0.0
H533 H 0.8862 0.71576 0.22067 0.0
H534 H 0.84814 0.71329 0.11347 0.0
H535 H 0.89368 0.67469 0.19184 0.0
H536 H 0.88083 0.59683 0.14872 0.0
H537 H 0.86511 0.63881 0.1731 0.0
H538 H 0.88789 0.68531 0.09006 0.0
H539 H 0.90312 0.64323 0.06539 0.0
C540 C 0.85255 0.73755 0.15326 0.0
C541 C 0.8632 0.73868 0.18366 0.0
C542 C 0.85667 0.71378 0.13677 0.0
C543 C 0.87113 0.69067 0.15062 0.0
C544 C 0.88202 0.69201 0.1808 0.0
C545 C 0.87815 0.71572 0.1971 0.0
C546 C 0.88169 0.61594 0.13531 0.0
C547 C 0.89346 0.61682 0.10532 0.0
C548 C 0.87299 0.63998 0.14938 0.0
C549 C 0.87579 0.66531 0.13367 0.0
C550 C 0.88554 0.66608 0.10273 0.0
C551 C 0.89437 0.64203 0.0887 0.0
H552 H 0.35438 0.12679 0.15863 0.0
H553 H 0.3188 0.12226 0.06681 0.0
H554 H 0.39613 0.10376 0.1408 0.0
H555 H 0.36183 0.10153 0.048 0.0
H556 H 0.43603 0.04152 0.02875 0.0
H557 H 0.39262 0.06446 0.04477 0.0
H558 H 0.43564 0.1059 0.11426 0.0
H559 H 0.47816 0.0816 0.09953 0.0
C560 C 0.35524 0.121 0.13454 0.0
C561 C 0.33247 0.12653 0.11452 0.0
C562 C 0.37981 0.10812 0.12394 0.0
C563 C 0.38312 0.10069 0.09257 0.0
C564 C 0.36047 0.10643 0.07239 0.0
C565 C 0.33563 0.11892 0.08318 0.0
C566 C 0.43608 0.05564 0.04736 0.0
C567 C 0.4606 0.05954 0.06298 0.0
C568 C 0.4111 0.069 0.05659 0.0
C569 C 0.40995 0.08708 0.08137 0.0
C570 C 0.43493 0.09163 0.09592 0.0
C571 C 0.45964 0.07787 0.08717 0.0
H572 H 0.22378 0.80155 0.70455 0.0
H573 H 0.27538 0.84991 0.64592 0.0
H574 H 0.18457 0.81611 0.67106 0.0
H575 H 0.23632 0.86531 0.61317 0.0
H576 H 0.16927 0.87458 0.54437 0.0
H577 H 0.20601 0.85168 0.57552 0.0
H578 H 0.15432 0.85432 0.65768 0.0
H579 H 0.11676 0.87524 0.62593 0.0
C580 C 0.22661 0.81549 0.68463 0.0
C581 C 0.25253 0.82458 0.67771 0.0
C582 C 0.2042 0.82386 0.66545 0.0
C583 C 0.20725 0.84175 0.63921 0.0
C584 C 0.23326 0.85097 0.63262 0.0
C585 C 0.25565 0.84234 0.65152 0.0
C586 C 0.16534 0.86952 0.56883 0.0
C587 C 0.14003 0.87711 0.58263 0.0
C588 C 0.18667 0.8568 0.58689 0.0
C589 C 0.18341 0.85172 0.61932 0.0
C590 C 0.15764 0.85789 0.63279 0.0
C591 C 0.13615 0.87025 0.61462 0.0
H592 H 0.88325 0.4047 0.92645 0.0
H593 H 0.87043 0.47581 0.86369 0.0
H594 H 0.92399 0.42262 0.94682 0.0
H595 H 0.90986 0.49482 0.88605 0.0
H596 H 0.99626 0.5119 0.91205 0.0
H597 H 0.95768 0.4917 0.88874 0.0
H598 H 0.93765 0.45556 0.97947 0.0
H599 H 0.97714 0.47445 1.0021 0.0
C600 C 0.88909 0.42414 0.91689 0.0
C601 C 0.87343 0.43872 0.8933 0.0
C602 C 0.91229 0.43468 0.92902 0.0
C603 C 0.92024 0.46032 0.91832 0.0
C604 C 0.90464 0.47487 0.89465 0.0
C605 C 0.88167 0.46414 0.88216 0.0
C606 C 0.98365 0.49948 0.92686 0.0
C607 C 0.98961 0.49472 0.95883 0.0
C608 C 0.96138 0.48806 0.9136 0.0
C609 C 0.94438 0.47198 0.93217 0.0
C610 C 0.9505 0.46735 0.96424 0.0
C611 C 0.973 0.47839 0.97734 0.0
H612 H 0.77431 0.71051 0.41562 0.0
H613 H 0.69829 0.74931 0.37928 0.0
H614 H 0.74953 0.67385 0.43967 0.0
H615 H 0.67366 0.71224 0.40283 0.0
H616 H 0.64556 0.62572 0.41883 0.0
H617 H 0.67101 0.66223 0.39532 0.0
H618 H 0.71482 0.66708 0.48213 0.0
H619 H 0.68906 0.63105 0.50593 0.0
C620 C 0.75228 0.71144 0.4131 0.0
C621 C 0.73828 0.73292 0.39556 0.0
C622 C 0.73814 0.69035 0.42675 0.0
C623 C 0.70972 0.69015 0.42296 0.0
C624 C 0.69564 0.71168 0.4057 0.0
C625 C 0.70975 0.7329 0.39224 0.0
C626 C 0.6605 0.63466 0.43297 0.0
C627 C 0.66521 0.62547 0.46429 0.0
C628 C 0.67506 0.65555 0.4195 0.0
C629 C 0.69478 0.66754 0.43697 0.0
C630 C 0.69993 0.65801 0.46803 0.0
C631 C 0.68524 0.63728 0.48159 0.0
H632 H 0.1647 0.32468 0.07183 0.0
H633 H 0.10459 0.31737 0.1452 0.0
H634 H 0.14115 0.36749 0.05281 0.0
H635 H 0.0813 0.36027 0.12662 0.0
H636 H 0.03022 0.42647 0.07035 0.0
H637 H 0.05347 0.38301 0.08777 0.0
H638 H 0.1312 0.41354 0.06174 0.0
H639 H 0.10786 0.45643 0.0433 0.0
C640 C 0.1466 0.33228 0.08414 0.0
C641 C 0.13664 0.31725 0.11009 0.0
C642 C 0.133 0.357 0.0732 0.0
C643 C 0.10903 0.36771 0.08794 0.0
C644 C 0.09923 0.3527 0.11403 0.0
C645 C 0.11273 0.32794 0.12483 0.0
C646 C 0.05226 0.4239 0.06827 0.0
C647 C 0.06701 0.44519 0.0554 0.0
C648 C 0.06574 0.39891 0.07852 0.0
C649 C 0.09446 0.39438 0.07644 0.0
C650 C 0.10913 0.41576 0.06347 0.0
C651 C 0.09565 0.44064 0.05303 0.0
H652 H 0.65477 0.30241 0.95042 0.0
H653 H 0.70812 0.2484 0.89716 0.0
H654 H 0.62606 0.26513 0.96369 0.0
H655 H 0.67963 0.21117 0.91078 0.0
H656 H 0.63118 0.14553 0.95902 0.0
H657 H 0.66267 0.18162 0.95446 0.0
H658 H 0.59503 0.24002 0.93152 0.0
H659 H 0.56361 0.204 0.93554 0.0
C660 C 0.66053 0.28254 0.94182 0.0
C661 C 0.68358 0.27844 0.92248 0.0
C662 C 0.64409 0.26123 0.94941 0.0
C663 C 0.65046 0.23534 0.938 0.0
C664 C 0.67434 0.23085 0.92014 0.0
C665 C 0.69071 0.25219 0.91241 0.0
C666 C 0.62305 0.16605 0.95281 0.0
C667 C 0.59489 0.17185 0.94745 0.0
C668 C 0.64107 0.1867 0.95036 0.0
C669 C 0.6313 0.21362 0.94272 0.0
C670 C 0.6031 0.21953 0.93796 0.0
C671 C 0.58511 0.19887 0.94024 0.0
H672 H 0.87823 0.90699 0.43253 0.0
H673 H 0.92939 0.92541 0.35294 0.0
H674 H 0.90371 0.93602 0.46435 0.0
H675 H 0.95471 0.95494 0.38464 0.0
H676 H 1.01048 0.98519 0.45929 0.0
H677 H 0.9863 0.95445 0.42794 0.0
H678 H 0.90981 0.98317 0.46973 0.0
H679 H 0.93413 1.01316 0.50162 0.0
C680 C 0.89477 0.9175 0.42176 0.0
C681 C 0.9017 0.9141 0.39019 0.0
C682 C 0.90937 0.93416 0.43998 0.0
C683 C 0.93117 0.94796 0.42702 0.0
C684 C 0.93827 0.94435 0.39548 0.0
C685 C 0.92373 0.92752 0.37728 0.0
C686 C 0.98851 0.98481 0.46176 0.0
C687 C 0.97413 1.0015 0.48282 0.0
C688 C 0.97463 0.96735 0.44369 0.0
C689 C 0.9461 0.96634 0.44629 0.0
C690 C 0.93182 0.98311 0.46747 0.0
C691 C 0.94571 1.00043 0.48561 0.0
H692 H 0.39726 0.65917 0.68041 0.0
H693 H 0.47245 0.65255 0.73341 0.0
H694 H 0.41606 0.6249 0.64582 0.0
H695 H 0.49119 0.61757 0.69924 0.0
H696 H 0.52726 0.58426 0.60892 0.0
H697 H 0.50757 0.61467 0.64717 0.0
H698 H 0.43031 0.57835 0.64026 0.0
H699 H 0.4499 0.54839 0.60091 0.0
C700 C 0.41764 0.64992 0.68507 0.0
C701 C 0.4334 0.65854 0.70964 0.0
C702 C 0.42843 0.6302 0.66525 0.0
C703 C 0.4552 0.61845 0.66961 0.0
C704 C 0.47068 0.62653 0.69481 0.0
C705 C 0.45995 0.64648 0.71448 0.0
C706 C 0.50608 0.58263 0.6156 0.0
C707 C 0.49013 0.56392 0.60177 0.0
C708 C 0.49483 0.59998 0.6378 0.0
C709 C 0.46735 0.59896 0.647 0.0
C710 C 0.45145 0.57996 0.63345 0.0
C711 C 0.46269 0.5627 0.61098 0.0
H712 H 0.95646 0.89882 0.7391 0.0
H713 H 0.89584 0.96667 0.73927 0.0
H714 H 0.97947 0.92061 0.695 0.0
H715 H 0.9184 0.98809 0.69446 0.0
H716 H 0.98157 0.03162 0.63355 0.0
H717 H 0.95898 1.01052 0.67864 0.0
H718 H 0.97459 0.93184 0.6398 0.0
H719 H 0.99743 0.95284 0.59508 0.0
C720 C 0.94802 0.91844 0.72987 0.0
C721 C 0.92418 0.93088 0.74306 0.0
C722 C 0.9611 0.93085 0.70419 0.0
C723 C 0.95089 0.95621 0.69085 0.0
C724 C 0.92713 0.96873 0.70413 0.0
C725 C 0.91395 0.95624 0.72972 0.0
C726 C 0.98022 1.00981 0.63461 0.0
C727 C 0.99144 0.99404 0.61049 0.0
C728 C 0.96707 0.99767 0.66047 0.0
C729 C 0.96484 0.96934 0.66314 0.0
C730 C 0.97613 0.95362 0.63899 0.0
C731 C 0.98915 0.96575 0.6131 0.0
H732 H 0.65432 0.13564 0.19645 0.0
H733 H 0.62296 0.20202 0.13385 0.0
H734 H 0.63492 0.10369 0.16368 0.0
H735 H 0.60067 0.17009 0.10296 0.0
H736 H 0.58224 0.1049 0.03659 0.0
H737 H 0.60541 0.13697 0.06691 0.0
H738 H 0.59543 0.08577 0.15076 0.0
H739 H 0.5743 0.05307 0.1199 0.0
C740 C 0.64331 0.14358 0.17568 0.0
C741 C 0.6406 0.17166 0.16786 0.0
C742 C 0.63153 0.1251 0.15711 0.0
C743 C 0.61587 0.13408 0.13058 0.0
C744 C 0.61288 0.16218 0.12286 0.0
C745 C 0.6253 0.18067 0.14104 0.0
C746 C 0.58535 0.10049 0.06148 0.0
C747 C 0.57676 0.07641 0.07588 0.0
C748 C 0.59839 0.11901 0.079 0.0
C749 C 0.60247 0.11417 0.1115 0.0
C750 C 0.59349 0.09006 0.12576 0.0
C751 C 0.58116 0.07127 0.10809 0.0
H752 H 0.37525 0.6204 0.3705 0.0
H753 H 0.41588 0.55687 0.31776 0.0
H754 H 0.40566 0.60775 0.41497 0.0
H755 H 0.44643 0.54448 0.36193 0.0
H756 H 0.47928 0.51313 0.45707 0.0
H757 H 0.44493 0.52485 0.41664 0.0
H758 H 0.45599 0.61006 0.42587 0.0
H759 H 0.49047 0.59826 0.46663 0.0
C760 C 0.39043 0.60351 0.36861 0.0
C761 C 0.39324 0.58959 0.34073 0.0
C762 C 0.40799 0.59648 0.39389 0.0
C763 C 0.42844 0.5752 0.39186 0.0
C764 C 0.43072 0.56083 0.36427 0.0
C765 C 0.41336 0.56801 0.33893 0.0
C766 C 0.47433 0.53438 0.45054 0.0
C767 C 0.48769 0.55482 0.4647 0.0
C768 C 0.45471 0.54106 0.42735 0.0
C769 C 0.44791 0.56834 0.41798 0.0
C770 C 0.46071 0.58886 0.43281 0.0
C771 C 0.48051 0.58214 0.45596 0.0
H772 H 0.15271 0.3008 0.90158 0.0
H773 H 0.23625 0.2952 0.9352 0.0
H774 H 0.14223 0.33946 0.933 0.0
H775 H 0.22573 0.33543 0.96539 0.0
H776 H 0.1245 0.40345 0.99842 0.0
H777 H 0.14038 0.35675 0.98853 0.0
H778 H 0.21262 0.38517 0.9434 0.0
H779 H 0.19663 0.43207 0.9531 0.0
C780 C 0.16874 0.30711 0.91635 0.0
C781 C 0.1955 0.29477 0.91536 0.0
C782 C 0.16267 0.32954 0.93432 0.0
C783 C 0.18323 0.34055 0.95143 0.0
C784 C 0.20959 0.32744 0.95213 0.0
C785 C 0.21558 0.30452 0.93461 0.0
C786 C 0.14406 0.3997 0.98698 0.0
C787 C 0.15905 0.42143 0.97587 0.0
C788 C 0.15316 0.37297 0.98145 0.0
C789 C 0.1775 0.36744 0.96484 0.0
C790 C 0.19384 0.3889 0.95643 0.0
C791 C 0.18467 0.41574 0.9619 0.0
H792 H 0.70502 0.92408 0.88896 0.0
H793 H 0.7388 0.92557 0.98208 0.0
H794 H 0.66271 0.94608 0.90679 0.0
H795 H 0.69525 0.94538 1.00071 0.0
H796 H 0.62035 1.00458 1.02027 0.0
H797 H 0.66421 0.98246 1.00442 0.0
H798 H 0.62278 0.94236 0.93251 0.0
H799 H 0.57976 0.96579 0.9472 0.0
C800 C 0.70364 0.929 0.91334 0.0
C801 C 0.72606 0.92295 0.93374 0.0
C802 C 0.67876 0.94128 0.92389 0.0
C803 C 0.67482 0.94759 0.95554 0.0
C804 C 0.69713 0.94133 0.97611 0.0
C805 C 0.72226 0.92939 0.9654 0.0
C806 C 0.62073 0.99092 1.00116 0.0
C807 C 0.59651 0.98715 0.98488 0.0
C808 C 0.64597 0.97804 0.99203 0.0
C809 C 0.64769 0.96061 0.96665 0.0
C810 C 0.62302 0.95616 0.95138 0.0
C811 C 0.59804 0.96942 0.96008 0.0
H812 H 0.85436 0.26052 0.3328 0.0
H813 H 0.81805 0.1847 0.35549 0.0
H814 H 0.89321 0.24558 0.36686 0.0
H815 H 0.85722 0.16964 0.38794 0.0
H816 H 0.94262 0.13992 0.41697 0.0
H817 H 0.90903 0.15865 0.37847 0.0
H818 H 0.89892 0.23269 0.4282 0.0
H819 H 0.93294 0.21397 0.46697 0.0
C820 C 0.85462 0.24071 0.34484 0.0
C821 C 0.83307 0.22376 0.34106 0.0
C822 C 0.87691 0.23218 0.36421 0.0
C823 C 0.87823 0.20641 0.3797 0.0
C824 C 0.85691 0.18943 0.37577 0.0
C825 C 0.83453 0.19805 0.35692 0.0
C826 C 0.93379 0.16046 0.41934 0.0
C827 C 0.94041 0.17549 0.44501 0.0
C828 C 0.91441 0.17106 0.39743 0.0
C829 C 0.90135 0.197 0.40054 0.0
C830 C 0.90886 0.21267 0.42526 0.0
C831 C 0.92812 0.20191 0.44749 0.0
H832 H 0.16931 0.6357 0.15891 0.0
H833 H 0.21365 0.56152 0.13287 0.0
H834 H 0.12722 0.62016 0.13703 0.0
H835 H 0.17142 0.54567 0.11177 0.0
H836 H 0.07999 0.51969 0.11915 0.0
H837 H 0.12197 0.53575 0.14034 0.0
H838 H 0.11386 0.60642 0.0767 0.0
H839 H 0.07223 0.58999 0.05477 0.0
C840 C 0.16992 0.61604 0.14865 0.0
C841 C 0.19453 0.59973 0.14749 0.0
C842 C 0.146 0.60726 0.13607 0.0
C843 C 0.14627 0.58179 0.12284 0.0
C844 C 0.17081 0.56536 0.12198 0.0
C845 C 0.19486 0.57441 0.1339 0.0
C846 C 0.08716 0.53868 0.10977 0.0
C847 C 0.07295 0.5537 0.08545 0.0
C848 C 0.11115 0.54775 0.12176 0.0
C849 C 0.12094 0.57226 0.11009 0.0
C850 C 0.10653 0.5875 0.08609 0.0
C851 C 0.08286 0.57811 0.07358 0.0
H852 H 0.25279 0.34626 0.64686 0.0
H853 H 0.32554 0.30499 0.68824 0.0
H854 H 0.2807 0.38019 0.62131 0.0
H855 H 0.35333 0.33878 0.6628 0.0
H856 H 0.38783 0.42161 0.64371 0.0
H857 H 0.35748 0.38988 0.66843 0.0
H858 H 0.3189 0.38091 0.57926 0.0
H859 H 0.3498 0.41189 0.55414 0.0
C860 C 0.27473 0.34442 0.65034 0.0
C861 C 0.28707 0.323 0.66939 0.0
C862 C 0.29065 0.36373 0.6357 0.0
C863 C 0.31908 0.36216 0.64034 0.0
C864 C 0.3314 0.3406 0.65915 0.0
C865 C 0.31557 0.32113 0.6734 0.0
C866 C 0.37297 0.41283 0.6293 0.0
C867 C 0.37147 0.41914 0.59687 0.0
C868 C 0.35557 0.39474 0.64349 0.0
C869 C 0.33606 0.38283 0.62565 0.0
C870 C 0.33368 0.38997 0.59354 0.0
C871 C 0.35131 0.40782 0.57924 0.0
H872 H 0.95304 0.732 0.89713 0.0
H873 H 0.89612 0.72666 0.97419 0.0
H874 H 0.97664 0.6893 0.91564 0.0
H875 H 0.92072 0.68468 0.99374 0.0
H876 H 0.95278 0.59532 1.0036 0.0
H877 H 0.92927 0.6382 0.98544 0.0
H878 H 1.00618 0.66711 0.95354 0.0
H879 H 0.02961 0.62372 0.971 0.0
C880 C 0.94542 0.7218 0.91804 0.0
C881 C 0.92231 0.7331 0.93386 0.0
C882 C 0.95935 0.6973 0.92902 0.0
C883 C 0.95084 0.68313 0.95637 0.0
C884 C 0.92788 0.69454 0.97238 0.0
C885 C 0.91387 0.71902 0.96132 0.0
C886 C 0.96478 0.61076 0.99269 0.0
C887 C 0.99324 0.60576 0.98874 0.0
C888 C 0.95122 0.63563 0.98241 0.0
C889 C 0.96559 0.65654 0.96784 0.0
C890 C 0.99413 0.65157 0.9641 0.0
C891 C 1.00771 0.62662 0.97435 0.0
H892 H 0.35385 0.79689 0.17761 0.0
H893 H 0.39791 0.74792 0.11027 0.0
H894 H 0.38154 0.83468 0.16343 0.0
H895 H 0.42529 0.78597 0.09575 0.0
H896 H 0.45452 0.86994 0.06312 0.0
H897 H 0.42299 0.83424 0.07229 0.0
H898 H 0.43132 0.84082 0.17215 0.0
H899 H 0.46324 0.87589 0.16319 0.0
C900 C 0.3693 0.79426 0.15962 0.0
C901 C 0.37393 0.76929 0.14536 0.0
C902 C 0.38512 0.8159 0.1515 0.0
C903 C 0.40577 0.81311 0.12879 0.0
C904 C 0.40941 0.7887 0.11323 0.0
C905 C 0.39367 0.76695 0.1215 0.0
C906 C 0.44985 0.86357 0.08704 0.0
C907 C 0.4614 0.87582 0.11243 0.0
C908 C 0.4317 0.84324 0.09224 0.0
C909 C 0.42456 0.83496 0.1229 0.0
C910 C 0.43605 0.84719 0.14824 0.0
C911 C 0.45433 0.86731 0.14308 0.0
H912 H 0.17753 0.09307 0.70511 0.0
H913 H 0.11028 0.15463 0.69965 0.0
H914 H 0.15275 0.06501 0.67106 0.0
H915 H 0.08523 0.12627 0.66641 0.0
H916 H 0.0701 0.0865 0.57283 0.0
H917 H 0.09113 0.11258 0.61204 0.0
H918 H 0.11184 0.0386 0.66766 0.0
H919 H 0.09086 1.01245 0.62816 0.0
C920 C 0.15733 0.10045 0.69693 0.0
C921 C 0.14593 0.12611 0.70495 0.0
C922 C 0.14304 0.08429 0.67767 0.0
C923 C 0.11711 0.09352 0.6659 0.0
C924 C 0.10531 0.11876 0.67482 0.0
C925 C 0.11954 0.13485 0.69416 0.0
C926 C 0.07896 0.07585 0.59354 0.0
C927 C 0.07895 0.04749 0.59745 0.0
C928 C 0.09087 0.09079 0.61609 0.0
C929 C 0.10312 0.07764 0.64297 0.0
C930 C 0.10278 0.04925 0.64705 0.0
C931 C 0.09071 0.03432 0.62453 0.0
H932 H 0.65894 0.35582 0.40038 0.0
H933 H 0.58897 0.36505 0.33851 0.0
H934 H 0.63795 0.39052 0.43291 0.0
H935 H 0.5687 0.40104 0.37004 0.0
H936 H 0.52621 0.4398 0.45382 0.0
H937 H 0.54752 0.40659 0.41963 0.0
H938 H 0.62619 0.43797 0.43505 0.0
H939 H 0.60489 0.47071 0.47029 0.0
C940 C 0.63905 0.36524 0.39368 0.0
C941 C 0.62553 0.35736 0.36695 0.0
C942 C 0.6272 0.38551 0.4121 0.0
C943 C 0.60161 0.39865 0.40415 0.0
C944 C 0.58827 0.39111 0.37713 0.0
C945 C 0.60005 0.37067 0.35881 0.0
C946 C 0.54806 0.43973 0.44986 0.0
C947 C 0.56387 0.45788 0.46486 0.0
C948 C 0.56027 0.42075 0.43003 0.0
C949 C 0.58859 0.41956 0.42448 0.0
C950 C 0.60438 0.43802 0.43915 0.0
C951 C 0.59216 0.4569 0.45923 0.0
loop_
_geom_bond_atom_site_label_1
_geom_bond_atom_site_label_2
_geom_bond_distance
_geom_bond_site_symmetry_2
_ccdc_geom_bond_type
C0 C1 1.386 . S
C0 C2 1.397 . S
C0 H24 0.931 . S
C1 C0 1.386 . S
C1 C5 1.397 . S
C2 C0 1.397 . S
C2 C3 1.384 . S
C2 H25 0.930 . S
C3 C2 1.384 . S
C3 C4 1.377 . S
C3 C6 1.481 . S
C4 C3 1.377 . S
C4 C5 1.389 . S
C4 H26 0.929 . S
C5 C1 1.397 . S
C5 C4 1.389 . S
C5 H27 0.931 . S
C6 C3 1.481 . S
C6 C7 1.387 . S
C6 C11 1.390 . S
C7 C6 1.387 . S
C7 C8 1.401 . S
C7 H28 0.930 . S
C8 C7 1.401 . S
C8 C9 1.376 . S
C8 C17 1.511 . S
C9 C8 1.376 . S
C9 C10 1.392 . S
C9 H30 0.931 . S
C10 C9 1.392 . S
C10 C11 1.361 . S
C10 C12 1.500 . S
C11 C6 1.390 . S
C11 C10 1.361 . S
C11 H29 0.931 . S
C12 C10 1.500 . S
C12 C13 1.371 . S
C12 C14 1.365 . S
C13 C12 1.371 . S
C13 C23 1.386 . S
C13 H31 0.931 . S
C14 C12 1.365 . S
C14 C15 1.409 . S
C14 H32 0.929 . S
C15 C14 1.409 . S
C15 C16 1.380 . S
C15 H33 0.930 . S
C16 C15 1.380 . S
C16 C23 1.357 . S
C17 C8 1.511 . S
C17 C18 1.341 . S
C17 C19 1.371 . S
C18 C17 1.341 . S
C18 C22 1.394 . S
C18 H34 0.930 . S
C19 C17 1.371 . S
C19 C20 1.392 . S
C19 H35 0.931 . S
C20 C19 1.392 . S
C20 C21 1.331 . S
C20 H38 0.932 . S
C21 C20 1.331 . S
C21 C22 1.336 . S
C22 C18 1.394 . S
C22 C21 1.336 . S
C22 H37 0.929 . S
C23 C13 1.386 . S
C23 C16 1.357 . S
C23 H36 0.928 . S
H24 C0 0.931 . S
H25 C2 0.930 . S
H26 C4 0.929 . S
H27 C5 0.931 . S
H28 C7 0.930 . S
H29 C11 0.931 . S
H30 C9 0.931 . S
H31 C13 0.931 . S
H32 C14 0.929 . S
H33 C15 0.930 . S
H34 C18 0.930 . S
H35 C19 0.931 . S
H36 C23 0.928 . S
H37 C22 0.929 . S
H38 C20 0.932 . S
C39 C40 1.386 . S
C39 C41 1.397 . S
C39 H63 0.931 . S
C40 C39 1.386 . S
C40 C44 1.397 . S
C41 C39 1.397 . S
C41 C42 1.384 . S
C41 H64 0.930 . S
C42 C41 1.384 . S
C42 C43 1.377 . S
C42 C45 1.481 . S
C43 C42 1.377 . S
C43 C44 1.389 . S
C43 H65 0.929 . S
C44 C40 1.397 . S
C44 C43 1.389 . S
C44 H66 0.931 . S
C45 C42 1.481 . S
C45 C46 1.387 . S
C45 C50 1.390 . S
C46 C45 1.387 . S
C46 C47 1.401 . S
C46 H67 0.930 . S
C47 C46 1.401 . S
C47 C48 1.376 . S
C47 C56 1.511 . S
C48 C47 1.376 . S
C48 C49 1.392 . S
C48 H69 0.931 . S
C49 C48 1.392 . S
C49 C50 1.361 . S
C49 C51 1.500 . S
C50 C45 1.390 . S
C50 C49 1.361 . S
C50 H68 0.931 . S
C51 C49 1.500 . S
C51 C52 1.371 . S
C51 C53 1.365 . S
C52 C51 1.371 . S
C52 C62 1.386 . S
C52 H70 0.931 . S
C53 C51 1.365 . S
C53 C54 1.409 . S
C53 H71 0.929 . S
C54 C53 1.409 . S
C54 C55 1.380 . S
C54 H72 0.930 . S
C55 C54 1.380 . S
C55 C62 1.357 . S
C56 C47 1.511 . S
C56 C57 1.341 . S
C56 C58 1.371 . S
C57 C56 1.341 . S
C57 C61 1.394 . S
C57 H73 0.930 . S
C58 C56 1.371 . S
C58 C59 1.392 . S
C58 H74 0.931 . S
C59 C58 1.392 . S
C59 C60 1.331 . S
C59 H77 0.932 . S
C60 C59 1.331 . S
C60 C61 1.336 . S
C61 C57 1.394 . S
C61 C60 1.336 . S
C61 H76 0.929 . S
C62 C52 1.386 . S
C62 C55 1.357 . S
C62 H75 0.928 . S
H63 C39 0.931 . S
H64 C41 0.930 . S
H65 C43 0.929 . S
H66 C44 0.931 . S
H67 C46 0.930 . S
H68 C50 0.931 . S
H69 C48 0.931 . S
H70 C52 0.931 . S
H71 C53 0.929 . S
H72 C54 0.930 . S
H73 C57 0.930 . S
H74 C58 0.931 . S
H75 C62 0.928 . S
H76 C61 0.929 . S
H77 C59 0.932 . S
C78 C79 1.386 . S
C78 C80 1.397 . S
C78 H102 0.931 . S
C79 C78 1.386 . S
C79 C83 1.397 . S
C80 C78 1.397 . S
C80 C81 1.384 . S
C80 H103 0.930 . S
C81 C80 1.384 . S
C81 C82 1.377 . S
C81 C84 1.481 . S
C82 C81 1.377 . S
C82 C83 1.389 . S
C82 H104 0.929 . S
C83 C79 1.397 . S
C83 C82 1.389 . S
C83 H105 0.931 . S
C84 C81 1.481 . S
C84 C85 1.387 . S
C84 C89 1.390 . S
C85 C84 1.387 . S
C85 C86 1.401 . S
C85 H106 0.930 . S
C86 C85 1.401 . S
C86 C87 1.376 . S
C86 C95 1.511 . S
C87 C86 1.376 . S
C87 C88 1.392 . S
C87 H108 0.931 . S
C88 C87 1.392 . S
C88 C89 1.361 . S
C88 C90 1.500 . S
C89 C84 1.390 . S
C89 C88 1.361 . S
C89 H107 0.931 . S
C90 C88 1.500 . S
C90 C91 1.371 . S
C90 C92 1.365 . S
C91 C90 1.371 . S
C91 C101 1.386 . S
C91 H109 0.931 . S
C92 C90 1.365 . S
C92 C93 1.409 . S
C92 H110 0.929 . S
C93 C92 1.409 . S
C93 C94 1.380 . S
C93 H111 0.930 . S
C94 C93 1.380 . S
C94 C101 1.357 . S
C95 C86 1.511 . S
C95 C96 1.341 . S
C95 C97 1.371 . S
C96 C95 1.341 . S
C96 C100 1.394 . S
C96 H112 0.930 . S
C97 C95 1.371 . S
C97 C98 1.392 . S
C97 H113 0.931 . S
C98 C97 1.392 . S
C98 C99 1.331 . S
C98 H116 0.932 . S
C99 C98 1.331 . S
C99 C100 1.336 . S
C100 C96 1.394 . S
C100 C99 1.336 . S
C100 H115 0.929 . S
C101 C91 1.386 . S
C101 C94 1.357 . S
C101 H114 0.928 . S
H102 C78 0.931 . S
H103 C80 0.930 . S
H104 C82 0.929 . S
H105 C83 0.931 . S
H106 C85 0.930 . S
H107 C89 0.931 . S
H108 C87 0.931 . S
H109 C91 0.931 . S
H110 C92 0.929 . S
H111 C93 0.930 . S
H112 C96 0.930 . S
H113 C97 0.931 . S
H114 C101 0.928 . S
H115 C100 0.929 . S
H116 C98 0.932 . S
C117 C118 1.386 . S
C117 C119 1.397 . S
C117 H141 0.931 . S
C118 C117 1.386 . S
C118 C122 1.397 . S
C119 C117 1.397 . S
C119 C120 1.384 . S
C119 H142 0.930 . S
C120 C119 1.384 . S
C120 C121 1.377 . S
C120 C123 1.481 . S
C121 C120 1.377 . S
C121 C122 1.389 . S
C121 H143 0.929 . S
C122 C118 1.397 . S
C122 C121 1.389 . S
C122 H144 0.931 . S
C123 C120 1.481 . S
C123 C124 1.387 . S
C123 C128 1.390 . S
C124 C123 1.387 . S
C124 C125 1.401 . S
C124 H145 0.930 . S
C125 C124 1.401 . S
C125 C126 1.376 . S
C125 C134 1.511 . S
C126 C125 1.376 . S
C126 C127 1.392 . S
C126 H147 0.931 . S
C127 C126 1.392 . S
C127 C128 1.361 . S
C127 C129 1.500 . S
C128 C123 1.390 . S
C128 C127 1.361 . S
C128 H146 0.931 . S
C129 C127 1.500 . S
C129 C130 1.371 . S
C129 C131 1.365 . S
C130 C129 1.371 . S
C130 C140 1.386 . S
C130 H148 0.931 . S
C131 C129 1.365 . S
C131 C132 1.409 . S
C131 H149 0.929 . S
C132 C131 1.409 . S
C132 C133 1.380 . S
C132 H150 0.930 . S
C133 C132 1.380 . S
C133 C140 1.357 . S
C134 C125 1.511 . S
C134 C135 1.341 . S
C134 C136 1.371 . S
C135 C134 1.341 . S
C135 C139 1.394 . S
C135 H151 0.930 . S
C136 C134 1.371 . S
C136 C137 1.392 . S
C136 H152 0.931 . S
C137 C136 1.392 . S
C137 C138 1.331 . S
C137 H155 0.932 . S
C138 C137 1.331 . S
C138 C139 1.336 . S
C139 C135 1.394 . S
C139 C138 1.336 . S
C139 H154 0.929 . S
C140 C130 1.386 . S
C140 C133 1.357 . S
C140 H153 0.928 . S
H141 C117 0.931 . S
H142 C119 0.930 . S
H143 C121 0.929 . S
H144 C122 0.931 . S
H145 C124 0.930 . S
H146 C128 0.931 . S
H147 C126 0.931 . S
H148 C130 0.931 . S
H149 C131 0.929 . S
H150 C132 0.930 . S
H151 C135 0.930 . S
H152 C136 0.931 . S
H153 C140 0.928 . S
H154 C139 0.929 . S
H155 C137 0.932 . S
C156 C157 1.386 . S
C156 C158 1.397 . S
C156 H180 0.931 . S
C157 C156 1.386 . S
C157 C161 1.397 . S
C158 C156 1.397 . S
C158 C159 1.384 . S
C158 H181 0.930 . S
C159 C158 1.384 . S
C159 C160 1.377 . S
C159 C162 1.481 . S
C160 C159 1.377 . S
C160 C161 1.389 . S
C160 H182 0.929 . S
C161 C157 1.397 . S
C161 C160 1.389 . S
C161 H183 0.931 . S
C162 C159 1.481 . S
C162 C163 1.387 . S
C162 C167 1.390 . S
C163 C162 1.387 . S
C163 C164 1.401 . S
C163 H184 0.930 . S
C164 C163 1.401 . S
C164 C165 1.376 . S
C164 C173 1.511 . S
C165 C164 1.376 . S
C165 C166 1.392 . S
C165 H186 0.931 . S
C166 C165 1.392 . S
C166 C167 1.361 . S
C166 C168 1.500 . S
C167 C162 1.390 . S
C167 C166 1.361 . S
C167 H185 0.931 . S
C168 C166 1.500 . S
C168 C169 1.371 . S
C168 C170 1.365 . S
C169 C168 1.371 . S
C169 C179 1.386 . S
C169 H187 0.931 . S
C170 C168 1.365 . S
C170 C171 1.409 . S
C170 H188 0.929 . S
C171 C170 1.409 . S
C171 C172 1.380 . S
C171 H189 0.930 . S
C172 C171 1.380 . S
C172 C179 1.357 . S
C173 C164 1.511 . S
C173 C174 1.341 . S
C173 C175 1.371 . S
C174 C173 1.341 . S
C174 C178 1.394 . S
C174 H190 0.930 . S
C175 C173 1.371 . S
C175 C176 1.392 . S
C175 H191 0.931 . S
C176 C175 1.392 . S
C176 C177 1.331 . S
C176 H194 0.932 . S
C177 C176 1.331 . S
C177 C178 1.336 . S
C178 C174 1.394 . S
C178 C177 1.336 . S
C178 H193 0.929 . S
C179 C169 1.386 . S
C179 C172 1.357 . S
C179 H192 0.928 . S
H180 C156 0.931 . S
H181 C158 0.930 . S
H182 C160 0.929 . S
H183 C161 0.931 . S
H184 C163 0.930 . S
H185 C167 0.931 . S
H186 C165 0.931 . S
H187 C169 0.931 . S
H188 C170 0.929 . S
H189 C171 0.930 . S
H190 C174 0.930 . S
H191 C175 0.931 . S
H192 C179 0.928 . S
H193 C178 0.929 . S
H194 C176 0.932 . S
C195 C196 1.386 . S
C195 C197 1.397 . S
C195 H219 0.931 . S
C196 C195 1.386 . S
C196 C200 1.397 . S
C197 C195 1.397 . S
C197 C198 1.384 . S
C197 H220 0.930 . S
C198 C197 1.384 . S
C198 C199 1.377 . S
C198 C201 1.481 . S
C199 C198 1.377 . S
C199 C200 1.389 . S
C199 H221 0.929 . S
C200 C196 1.397 . S
C200 C199 1.389 . S
C200 H222 0.931 . S
C201 C198 1.481 . S
C201 C202 1.387 . S
C201 C206 1.390 . S
C202 C201 1.387 . S
C202 C203 1.401 . S
C202 H223 0.930 . S
C203 C202 1.401 . S
C203 C204 1.376 . S
C203 C212 1.511 . S
C204 C203 1.376 . S
C204 C205 1.392 . S
C204 H225 0.931 . S
C205 C204 1.392 . S
C205 C206 1.361 . S
C205 C207 1.500 . S
C206 C201 1.390 . S
C206 C205 1.361 . S
C206 H224 0.931 . S
C207 C205 1.500 . S
C207 C208 1.371 . S
C207 C209 1.365 . S
C208 C207 1.371 . S
C208 C218 1.386 . S
C208 H226 0.931 . S
C209 C207 1.365 . S
C209 C210 1.409 . S
C209 H227 0.929 . S
C210 C209 1.409 . S
C210 C211 1.380 . S
C210 H228 0.930 . S
C211 C210 1.380 . S
C211 C218 1.357 . S
C212 C203 1.511 . S
C212 C213 1.341 . S
C212 C214 1.371 . S
C213 C212 1.341 . S
C213 C217 1.394 . S
C213 H229 0.930 . S
C214 C212 1.371 . S
C214 C215 1.392 . S
C214 H230 0.931 . S
C215 C214 1.392 . S
C215 C216 1.331 . S
C215 H233 0.932 . S
C216 C215 1.331 . S
C216 C217 1.336 . S
C217 C213 1.394 . S
C217 C216 1.336 . S
C217 H232 0.929 . S
C218 C208 1.386 . S
C218 C211 1.357 . S
C218 H231 0.928 . S
H219 C195 0.931 . S
H220 C197 0.930 . S
H221 C199 0.929 . S
H222 C200 0.931 . S
H223 C202 0.930 . S
H224 C206 0.931 . S
H225 C204 0.931 . S
H226 C208 0.931 . S
H227 C209 0.929 . S
H228 C210 0.930 . S
H229 C213 0.930 . S
H230 C214 0.931 . S
H231 C218 0.928 . S
H232 C217 0.929 . S
H233 C215 0.932 . S
C234 C235 1.386 . S
C234 C236 1.397 . S
C234 H258 0.931 . S
C235 C234 1.386 . S
C235 C239 1.397 . S
C236 C234 1.397 . S
C236 C237 1.384 . S
C236 H259 0.930 . S
C237 C236 1.384 . S
C237 C238 1.377 . S
C237 C240 1.481 . S
C238 C237 1.377 . S
C238 C239 1.389 . S
C238 H260 0.929 . S
C239 C235 1.397 . S
C239 C238 1.389 . S
C239 H261 0.931 . S
C240 C237 1.481 . S
C240 C241 1.387 . S
C240 C245 1.390 . S
C241 C240 1.387 . S
C241 C242 1.401 . S
C241 H262 0.930 . S
C242 C241 1.401 . S
C242 C243 1.376 . S
C242 C251 1.511 . S
C243 C242 1.376 . S
C243 C244 1.392 . S
C243 H264 0.931 . S
C244 C243 1.392 . S
C244 C245 1.361 . S
C244 C246 1.500 . S
C245 C240 1.390 . S
C245 C244 1.361 . S
C245 H263 0.931 . S
C246 C244 1.500 . S
C246 C247 1.371 . S
C246 C248 1.365 . S
C247 C246 1.371 . S
C247 C257 1.386 . S
C247 H265 0.931 . S
C248 C246 1.365 . S
C248 C249 1.409 . S
C248 H266 0.929 . S
C249 C248 1.409 . S
C249 C250 1.380 . S
C249 H267 0.930 . S
C250 C249 1.380 . S
C250 C257 1.357 . S
C251 C242 1.511 . S
C251 C252 1.341 . S
C251 C253 1.371 . S
C252 C251 1.341 . S
C252 C256 1.394 . S
C252 H268 0.930 . S
C253 C251 1.371 . S
C253 C254 1.392 . S
C253 H269 0.931 . S
C254 C253 1.392 . S
C254 C255 1.331 . S
C254 H272 0.932 . S
C255 C254 1.331 . S
C255 C256 1.336 . S
C256 C252 1.394 . S
C256 C255 1.336 . S
C256 H271 0.929 . S
C257 C247 1.386 . S
C257 C250 1.357 . S
C257 H270 0.928 . S
H258 C234 0.931 . S
H259 C236 0.930 . S
H260 C238 0.929 . S
H261 C239 0.931 . S
H262 C241 0.930 . S
H263 C245 0.931 . S
H264 C243 0.931 . S
H265 C247 0.931 . S
H266 C248 0.929 . S
H267 C249 0.930 . S
H268 C252 0.930 . S
H269 C253 0.931 . S
H270 C257 0.928 . S
H271 C256 0.929 . S
H272 C254 0.932 . S
C273 C274 1.386 . S
C273 C275 1.397 . S
C273 H297 0.931 . S
C274 C273 1.386 . S
C274 C278 1.397 . S
C275 C273 1.397 . S
C275 C276 1.384 . S
C275 H298 0.930 . S
C276 C275 1.384 . S
C276 C277 1.377 . S
C276 C279 1.481 . S
C277 C276 1.377 . S
C277 C278 1.389 . S
C277 H299 0.929 . S
C278 C274 1.397 . S
C278 C277 1.389 . S
C278 H300 0.931 . S
C279 C276 1.481 . S
C279 C280 1.387 . S
C279 C284 1.390 . S
C280 C279 1.387 . S
C280 C281 1.401 . S
C280 H301 0.930 . S
C281 C280 1.401 . S
C281 C282 1.376 . S
C281 C290 1.511 . S
C282 C281 1.376 . S
C282 C283 1.392 . S
C282 H303 0.931 . S
C283 C282 1.392 . S
C283 C284 1.361 . S
C283 C285 1.500 . S
C284 C279 1.390 . S
C284 C283 1.361 . S
C284 H302 0.931 . S
C285 C283 1.500 . S
C285 C286 1.371 . S
C285 C287 1.365 . S
C286 C285 1.371 . S
C286 C296 1.386 . S
C286 H304 0.931 . S
C287 C285 1.365 . S
C287 C288 1.409 . S
C287 H305 0.929 . S
C288 C287 1.409 . S
C288 C289 1.380 . S
C288 H306 0.930 . S
C289 C288 1.380 . S
C289 C296 1.357 . S
C290 C281 1.511 . S
C290 C291 1.341 . S
C290 C292 1.371 . S
C291 C290 1.341 . S
C291 C295 1.394 . S
C291 H307 0.930 . S
C292 C290 1.371 . S
C292 C293 1.392 . S
C292 H308 0.931 . S
C293 C292 1.392 . S
C293 C294 1.331 . S
C293 H311 0.932 . S
C294 C293 1.331 . S
C294 C295 1.336 . S
C295 C291 1.394 . S
C295 C294 1.336 . S
C295 H310 0.929 . S
C296 C286 1.386 . S
C296 C289 1.357 . S
C296 H309 0.928 . S
H297 C273 0.931 . S
H298 C275 0.930 . S
H299 C277 0.929 . S
H300 C278 0.931 . S
H301 C280 0.930 . S
H302 C284 0.931 . S
H303 C282 0.931 . S
H304 C286 0.931 . S
H305 C287 0.929 . S
H306 C288 0.930 . S
H307 C291 0.930 . S
H308 C292 0.931 . S
H309 C296 0.928 . S
H310 C295 0.929 . S
H311 C293 0.932 . S
Nd312 C314 2.836 . S
Nd312 O332 2.500 . S
Nd312 O333 2.492 . S
Nd312 O334 2.487 1_565 S
Nd312 O335 2.682 1_565 S
Nd312 O336 2.410 . S
Nd312 O341 2.414 1_455 S
Nd312 O343 2.424 1_565 S
Nd313 C323 2.836 . S
Nd313 O335 2.414 1_655 S
Nd313 O337 2.424 1_545 S
Nd313 O338 2.500 . S
Nd313 O339 2.492 . S
Nd313 O340 2.487 1_545 S
Nd313 O341 2.682 1_545 S
Nd313 O342 2.410 . S
C314 Nd312 2.836 . S
C314 C315 1.498 . S
C314 O332 1.258 . S
C314 O333 1.239 . S
C315 C314 1.498 . S
C315 C316 1.366 . S
C315 C320 1.407 . S
C316 C315 1.366 . S
C316 C317 1.392 . S
C316 H344 0.930 . S
C317 C316 1.392 . S
C317 C318 1.398 . S
C317 H345 0.929 . S
C318 C317 1.398 . S
C318 C319 1.352 . S
C319 C318 1.352 . S
C319 C320 1.384 . S
C319 H346 0.930 . S
C320 C315 1.407 . S
C320 C319 1.384 . S
C320 H347 0.929 . S
C321 O334 1.241 . S
C321 O335 1.273 . S
C322 O336 1.251 1_655 S
C322 O337 1.268 . S
C323 Nd313 2.836 . S
C323 C324 1.498 . S
C323 O338 1.258 . S
C323 O339 1.239 . S
C324 C323 1.498 . S
C324 C325 1.366 . S
C324 C329 1.407 . S
C325 C324 1.366 . S
C325 C326 1.392 . S
C325 H348 0.930 . S
C326 C325 1.392 . S
C326 C327 1.398 . S
C326 H349 0.929 . S
C327 C326 1.398 . S
C327 C328 1.352 . S
C328 C327 1.352 . S
C328 C329 1.384 . S
C328 H350 0.930 . S
C329 C324 1.407 . S
C329 C328 1.384 . S
C329 H351 0.929 . S
C330 O340 1.241 . S
C330 O341 1.273 . S
C331 O342 1.251 1_455 S
C331 O343 1.268 . S
O332 Nd312 2.500 . S
O332 C314 1.258 . S
O333 Nd312 2.492 . S
O333 C314 1.239 . S
O334 Nd312 2.487 1_545 S
O334 C321 1.241 . S
O335 Nd312 2.682 1_545 S
O335 Nd313 2.414 1_455 S
O335 C321 1.273 . S
O336 Nd312 2.410 . S
O336 C322 1.251 1_455 S
O337 Nd313 2.424 1_565 S
O337 C322 1.268 . S
O338 Nd313 2.500 . S
O338 C323 1.258 . S
O339 Nd313 2.492 . S
O339 C323 1.239 . S
O340 Nd313 2.487 1_565 S
O340 C330 1.241 . S
O341 Nd312 2.414 1_655 S
O341 Nd313 2.682 1_565 S
O341 C330 1.273 . S
O342 Nd313 2.410 . S
O342 C331 1.251 1_655 S
O343 Nd312 2.424 1_545 S
O343 C331 1.268 . S
H344 C316 0.930 . S
H345 C317 0.929 . S
H346 C319 0.930 . S
H347 C320 0.929 . S
H348 C325 0.930 . S
H349 C326 0.929 . S
H350 C328 0.930 . S
H351 C329 0.929 . S
Nd352 C354 2.836 . S
Nd352 O372 2.500 . S
Nd352 O373 2.492 . S
Nd352 O374 2.487 1_565 S
Nd352 O375 2.682 1_565 S
Nd352 O376 2.410 1_554 S
Nd352 O381 2.414 1_554 S
Nd352 O383 2.424 1_565 S
Nd353 C363 2.836 . S
Nd353 O375 2.414 1_556 S
Nd353 O377 2.424 1_545 S
Nd353 O378 2.500 . S
Nd353 O379 2.492 . S
Nd353 O380 2.486 1_545 S
Nd353 O381 2.682 1_545 S
Nd353 O382 2.410 1_556 S
C354 Nd352 2.836 . S
C354 C355 1.498 . S
C354 O372 1.258 . S
C354 O373 1.239 . S
C355 C354 1.498 . S
C355 C356 1.366 . S
C355 C360 1.407 . S
C356 C355 1.366 . S
C356 C357 1.392 . S
C356 H384 0.930 . S
C357 C356 1.392 . S
C357 C358 1.398 . S
C357 H385 0.929 . S
C358 C357 1.398 . S
C358 C359 1.352 . S
C359 C358 1.352 . S
C359 C360 1.384 . S
C359 H386 0.930 . S
C360 C355 1.407 . S
C360 C359 1.384 . S
C360 H387 0.929 . S
C361 O374 1.241 . S
C361 O375 1.273 . S
C362 O376 1.251 . S
C362 O377 1.268 . S
C363 Nd353 2.836 . S
C363 C364 1.498 . S
C363 O378 1.258 . S
C363 O379 1.239 . S
C364 C363 1.498 . S
C364 C365 1.366 . S
C364 C369 1.407 . S
C365 C364 1.366 . S
C365 C366 1.392 . S
C365 H388 0.930 . S
C366 C365 1.392 . S
C366 C367 1.398 . S
C366 H389 0.929 . S
C367 C366 1.398 . S
C367 C368 1.352 . S
C368 C367 1.352 . S
C368 C369 1.384 . S
C368 H390 0.930 . S
C369 C364 1.407 . S
C369 C368 1.384 . S
C369 H391 0.929 . S
C370 O380 1.243 . S
C370 O381 1.273 . S
C371 O382 1.251 . S
C371 O383 1.268 . S
O372 Nd352 2.500 . S
O372 C354 1.258 . S
O373 Nd352 2.492 . S
O373 C354 1.239 . S
O374 Nd352 2.487 1_545 S
O374 C361 1.241 . S
O375 Nd352 2.682 1_545 S
O375 Nd353 2.414 1_554 S
O375 C361 1.273 . S
O376 Nd352 2.410 1_556 S
O376 C362 1.251 . S
O377 Nd353 2.424 1_565 S
O377 C362 1.268 . S
O378 Nd353 2.500 . S
O378 C363 1.258 . S
O379 Nd353 2.492 . S
O379 C363 1.239 . S
O380 Nd353 2.486 1_565 S
O380 C370 1.243 . S
O381 Nd352 2.414 1_556 S
O381 Nd353 2.682 1_565 S
O381 C370 1.273 . S
O382 Nd353 2.410 1_554 S
O382 C371 1.251 . S
O383 Nd352 2.424 1_545 S
O383 C371 1.268 . S
H384 C356 0.930 . S
H385 C357 0.929 . S
H386 C359 0.930 . S
H387 C360 0.929 . S
H388 C365 0.930 . S
H389 C366 0.929 . S
H390 C368 0.930 . S
H391 C369 0.929 . S
Nd392 C394 2.836 . S
Nd392 O412 2.500 . S
Nd392 O413 2.492 . S
Nd392 O414 2.487 . S
Nd392 O415 2.682 . S
Nd392 O416 2.410 . S
Nd392 O421 2.414 . S
Nd392 O423 2.424 . S
Nd393 C403 2.836 . S
Nd393 O415 2.414 . S
Nd393 O417 2.424 . S
Nd393 O418 2.500 . S
Nd393 O419 2.492 . S
Nd393 O420 2.487 . S
Nd393 O421 2.682 . S
Nd393 O422 2.410 . S
C394 Nd392 2.836 . S
C394 C395 1.498 . S
C394 O412 1.258 . S
C394 O413 1.239 . S
C395 C394 1.498 . S
C395 C396 1.366 . S
C395 C400 1.407 . S
C396 C395 1.366 . S
C396 C397 1.392 . S
C396 H424 0.930 . S
C397 C396 1.392 . S
C397 C398 1.398 . S
C397 H425 0.929 . S
C398 C397 1.398 . S
C398 C399 1.352 . S
C399 C398 1.352 . S
C399 C400 1.384 . S
C399 H426 0.930 . S
C400 C395 1.407 . S
C400 C399 1.384 . S
C400 H427 0.929 . S
C401 O414 1.241 . S
C401 O415 1.273 . S
C402 O416 1.251 . S
C402 O417 1.268 . S
C403 Nd393 2.836 . S
C403 C404 1.498 . S
C403 O418 1.258 . S
C403 O419 1.239 . S
C404 C403 1.498 . S
C404 C405 1.366 . S
C404 C409 1.407 . S
C405 C404 1.366 . S
C405 C406 1.392 . S
C405 H428 0.930 . S
C406 C405 1.392 . S
C406 C407 1.398 . S
C406 H429 0.929 . S
C407 C406 1.398 . S
C407 C408 1.352 . S
C408 C407 1.352 . S
C408 C409 1.384 . S
C408 H430 0.930 . S
C409 C404 1.407 . S
C409 C408 1.384 . S
C409 H431 0.929 . S
C410 O420 1.241 . S
C410 O421 1.273 . S
C411 O422 1.251 . S
C411 O423 1.268 . S
O412 Nd392 2.500 . S
O412 C394 1.258 . S
O413 Nd392 2.492 . S
O413 C394 1.239 . S
O414 Nd392 2.487 . S
O414 C401 1.241 . S
O415 Nd392 2.682 . S
O415 Nd393 2.414 . S
O415 C401 1.273 . S
O416 Nd392 2.410 . S
O416 C402 1.251 . S
O417 Nd393 2.424 . S
O417 C402 1.268 . S
O418 Nd393 2.500 . S
O418 C403 1.258 . S
O419 Nd393 2.492 . S
O419 C403 1.239 . S
O420 Nd393 2.487 . S
O420 C410 1.241 . S
O421 Nd392 2.414 . S
O421 Nd393 2.682 . S
O421 C410 1.273 . S
O422 Nd393 2.410 . S
O422 C411 1.251 . S
O423 Nd392 2.424 . S
O423 C411 1.268 . S
H424 C396 0.930 . S
H425 C397 0.929 . S
H426 C399 0.930 . S
H427 C400 0.929 . S
H428 C405 0.930 . S
H429 C406 0.929 . S
H430 C408 0.930 . S
H431 C409 0.929 . S
Nd432 C434 2.836 . S
Nd432 O452 2.500 . S
Nd432 O453 2.492 . S
Nd432 O454 2.487 1_655 S
Nd432 O455 2.682 1_655 S
Nd432 O456 2.410 . S
Nd432 O461 2.414 1_554 S
Nd432 O463 2.424 1_655 S
Nd433 C443 2.836 . S
Nd433 O455 2.414 1_556 S
Nd433 O457 2.424 1_455 S
Nd433 O458 2.500 . S
Nd433 O459 2.492 . S
Nd433 O460 2.487 1_455 S
Nd433 O461 2.682 1_455 S
Nd433 O462 2.410 . S
C434 Nd432 2.836 . S
C434 C435 1.498 . S
C434 O452 1.258 . S
C434 O453 1.239 . S
C435 C434 1.498 . S
C435 C436 1.366 . S
C435 C440 1.407 . S
C436 C435 1.366 . S
C436 C437 1.392 . S
C436 H464 0.930 . S
C437 C436 1.392 . S
C437 C438 1.398 . S
C437 H465 0.929 . S
C438 C437 1.398 . S
C438 C439 1.352 . S
C439 C438 1.352 . S
C439 C440 1.384 . S
C439 H466 0.930 . S
C440 C435 1.407 . S
C440 C439 1.384 . S
C440 H467 0.929 . S
C441 O454 1.241 . S
C441 O455 1.273 . S
C442 O456 1.251 1_556 S
C442 O457 1.268 . S
C443 Nd433 2.836 . S
C443 C444 1.498 . S
C443 O458 1.258 . S
C443 O459 1.239 . S
C444 C443 1.498 . S
C444 C445 1.366 . S
C444 C449 1.407 . S
C445 C444 1.366 . S
C445 C446 1.392 . S
C445 H468 0.930 . S
C446 C445 1.392 . S
C446 C447 1.398 . S
C446 H469 0.929 . S
C447 C446 1.398 . S
C447 C448 1.352 . S
C448 C447 1.352 . S
C448 C449 1.384 . S
C448 H470 0.930 . S
C449 C444 1.407 . S
C449 C448 1.384 . S
C449 H471 0.929 . S
C450 O460 1.241 . S
C450 O461 1.273 . S
C451 O462 1.251 1_554 S
C451 O463 1.268 . S
O452 Nd432 2.500 . S
O452 C434 1.258 . S
O453 Nd432 2.492 . S
O453 C434 1.239 . S
O454 Nd432 2.487 1_455 S
O454 C441 1.241 . S
O455 Nd432 2.682 1_455 S
O455 Nd433 2.414 1_554 S
O455 C441 1.273 . S
O456 Nd432 2.410 . S
O456 C442 1.251 1_554 S
O457 Nd433 2.424 1_655 S
O457 C442 1.268 . S
O458 Nd433 2.500 . S
O458 C443 1.258 . S
O459 Nd433 2.492 . S
O459 C443 1.239 . S
O460 Nd433 2.487 1_655 S
O460 C450 1.241 . S
O461 Nd432 2.414 1_556 S
O461 Nd433 2.682 1_655 S
O461 C450 1.273 . S
O462 Nd433 2.410 . S
O462 C451 1.251 1_556 S
O463 Nd432 2.424 1_455 S
O463 C451 1.268 . S
H464 C436 0.930 . S
H465 C437 0.929 . S
H466 C439 0.930 . S
H467 C440 0.929 . S
H468 C445 0.930 . S
H469 C446 0.929 . S
H470 C448 0.930 . S
H471 C449 0.929 . S
H472 C480 0.950 . S
H473 C485 0.950 . S
H474 C482 0.950 . S
H475 C484 0.950 . S
H476 C486 0.950 . S
H477 C488 0.950 . S
H478 C490 0.950 . S
H479 C491 0.950 . S
C480 H472 0.950 . S
C480 C481 1.386 . S
C480 C482 1.391 . S
C481 C480 1.386 . S
C481 C485 1.393 . S
C482 H474 0.950 . S
C482 C480 1.391 . S
C482 C483 1.400 . S
C483 C482 1.400 . S
C483 C484 1.398 . S
C483 C489 1.491 . S
C484 H475 0.950 . S
C484 C483 1.398 . S
C484 C485 1.391 . S
C485 H473 0.950 . S
C485 C481 1.393 . S
C485 C484 1.391 . S
C486 H476 0.950 . S
C486 C487 1.386 . S
C486 C488 1.391 . S
C487 C486 1.386 . S
C487 C491 1.393 . S
C488 H477 0.950 . S
C488 C486 1.391 . S
C488 C489 1.400 . S
C489 C483 1.491 . S
C489 C488 1.400 . S
C489 C490 1.398 . S
C490 H478 0.950 . S
C490 C489 1.398 . S
C490 C491 1.391 . S
C491 H479 0.950 . S
C491 C487 1.393 . S
C491 C490 1.391 . S
H492 C500 0.950 . S
H493 C505 0.950 . S
H494 C502 0.950 . S
H495 C504 0.950 . S
H496 C506 0.950 . S
H497 C508 0.950 . S
H498 C510 0.950 . S
H499 C511 0.950 . S
C500 H492 0.950 . S
C500 C501 1.386 . S
C500 C502 1.391 . S
C501 C500 1.386 . S
C501 C505 1.393 . S
C502 H494 0.950 . S
C502 C500 1.391 . S
C502 C503 1.400 . S
C503 C502 1.400 . S
C503 C504 1.398 . S
C503 C509 1.491 . S
C504 H495 0.950 . S
C504 C503 1.398 . S
C504 C505 1.391 . S
C505 H493 0.950 . S
C505 C501 1.393 . S
C505 C504 1.391 . S
C506 H496 0.950 . S
C506 C507 1.386 . S
C506 C508 1.391 . S
C507 C506 1.386 . S
C507 C511 1.393 . S
C508 H497 0.950 . S
C508 C506 1.391 . S
C508 C509 1.400 . S
C509 C503 1.491 . S
C509 C508 1.400 . S
C509 C510 1.398 . S
C510 H498 0.950 . S
C510 C509 1.398 . S
C510 C511 1.391 . S
C511 H499 0.950 . S
C511 C507 1.393 . S
C511 C510 1.391 . S
H512 C520 0.950 . S
H513 C525 0.950 . S
H514 C522 0.950 . S
H515 C524 0.950 . S
H516 C526 0.950 . S
H517 C528 0.950 . S
H518 C530 0.950 . S
H519 C531 0.950 . S
C520 H512 0.950 . S
C520 C521 1.386 . S
C520 C522 1.391 . S
C521 C520 1.386 . S
C521 C525 1.393 . S
C522 H514 0.950 . S
C522 C520 1.391 . S
C522 C523 1.400 . S
C523 C522 1.400 . S
C523 C524 1.398 . S
C523 C529 1.491 . S
C524 H515 0.950 . S
C524 C523 1.398 . S
C524 C525 1.391 . S
C525 H513 0.950 . S
C525 C521 1.393 . S
C525 C524 1.391 . S
C526 H516 0.950 . S
C526 C527 1.386 . S
C526 C528 1.391 . S
C527 C526 1.386 . S
C527 C531 1.393 . S
C528 H517 0.950 . S
C528 C526 1.391 . S
C528 C529 1.400 . S
C529 C523 1.491 . S
C529 C528 1.400 . S
C529 C530 1.398 . S
C530 H518 0.950 . S
C530 C529 1.398 . S
C530 C531 1.391 . S
C531 H519 0.950 . S
C531 C527 1.393 . S
C531 C530 1.391 . S
H532 C540 0.950 . S
H533 C545 0.950 . S
H534 C542 0.950 . S
H535 C544 0.950 . S
H536 C546 0.950 . S
H537 C548 0.950 . S
H538 C550 0.950 . S
H539 C551 0.950 . S
C540 H532 0.950 . S
C540 C541 1.386 . S
C540 C542 1.391 . S
C541 C540 1.386 . S
C541 C545 1.393 . S
C542 H534 0.950 . S
C542 C540 1.391 . S
C542 C543 1.400 . S
C543 C542 1.400 . S
C543 C544 1.398 . S
C543 C549 1.491 . S
C544 H535 0.950 . S
C544 C543 1.398 . S
C544 C545 1.391 . S
C545 H533 0.950 . S
C545 C541 1.393 . S
C545 C544 1.391 . S
C546 H536 0.950 . S
C546 C547 1.386 . S
C546 C548 1.391 . S
C547 C546 1.386 . S
C547 C551 1.393 . S
C548 H537 0.950 . S
C548 C546 1.391 . S
C548 C549 1.400 . S
C549 C543 1.491 . S
C549 C548 1.400 . S
C549 C550 1.398 . S
C550 H538 0.950 . S
C550 C549 1.398 . S
C550 C551 1.391 . S
C551 H539 0.950 . S
C551 C547 1.393 . S
C551 C550 1.391 . S
H552 C560 0.950 . S
H553 C565 0.950 . S
H554 C562 0.950 . S
H555 C564 0.950 . S
H556 C566 0.950 1_556 S
H557 C568 0.959 . S
H558 C570 0.950 . S
H559 C571 0.950 . S
C560 H552 0.950 . S
C560 C561 1.386 . S
C560 C562 1.391 . S
C561 C560 1.386 . S
C561 C565 1.393 . S
C562 H554 0.950 . S
C562 C560 1.391 . S
C562 C563 1.400 . S
C563 C562 1.400 . S
C563 C564 1.398 . S
C563 C569 1.491 . S
C564 H555 0.950 . S
C564 C563 1.398 . S
C564 C565 1.391 . S
C565 H553 0.950 . S
C565 C561 1.393 . S
C565 C564 1.391 . S
C566 H556 0.950 1_554 S
C566 C567 1.386 . S
C566 C568 1.391 . S
C567 C566 1.386 . S
C567 C571 1.393 . S
C568 H557 0.959 . S
C568 C566 1.391 . S
C568 C569 1.400 . S
C569 C563 1.491 . S
C569 C568 1.400 . S
C569 C570 1.398 . S
C570 H558 0.950 . S
C570 C569 1.398 . S
C570 C571 1.391 . S
C571 H559 0.950 . S
C571 C567 1.393 . S
C571 C570 1.391 . S
H572 C580 0.950 . S
H573 C585 0.950 . S
H574 C582 0.950 . S
H575 C584 0.950 . S
H576 C586 0.950 . S
H577 C588 0.950 . S
H578 C590 0.950 . S
H579 C591 0.950 . S
C580 H572 0.950 . S
C580 C581 1.386 . S
C580 C582 1.391 . S
C581 C580 1.386 . S
C581 C585 1.393 . S
C582 H574 0.950 . S
C582 C580 1.391 . S
C582 C583 1.400 . S
C583 C582 1.400 . S
C583 C584 1.398 . S
C583 C589 1.491 . S
C584 H575 0.950 . S
C584 C583 1.398 . S
C584 C585 1.391 . S
C585 H573 0.950 . S
C585 C581 1.393 . S
C585 C584 1.391 . S
C586 H576 0.950 . S
C586 C587 1.386 . S
C586 C588 1.391 . S
C587 C586 1.386 . S
C587 C591 1.393 . S
C588 H577 0.950 . S
C588 C586 1.391 . S
C588 C589 1.400 . S
C589 C583 1.491 . S
C589 C588 1.400 . S
C589 C590 1.398 . S
C590 H578 0.950 . S
C590 C589 1.398 . S
C590 C591 1.391 . S
C591 H579 0.950 . S
C591 C587 1.393 . S
C591 C590 1.391 . S
H592 C600 0.950 . S
H593 C605 0.950 . S
H594 C602 0.950 . S
H595 C604 0.950 . S
H596 C606 0.950 . S
H597 C608 0.950 . S
H598 C610 0.950 . S
H599 C611 0.950 1_554 S
C600 H592 0.950 . S
C600 C601 1.386 . S
C600 C602 1.391 . S
C601 C600 1.386 . S
C601 C605 1.393 . S
C602 H594 0.950 . S
C602 C600 1.391 . S
C602 C603 1.400 . S
C603 C602 1.400 . S
C603 C604 1.398 . S
C603 C609 1.491 . S
C604 H595 0.950 . S
C604 C603 1.398 . S
C604 C605 1.391 . S
C605 H593 0.950 . S
C605 C601 1.393 . S
C605 C604 1.391 . S
C606 H596 0.950 . S
C606 C607 1.386 . S
C606 C608 1.391 . S
C607 C606 1.386 . S
C607 C611 1.393 . S
C608 H597 0.950 . S
C608 C606 1.391 . S
C608 C609 1.400 . S
C609 C603 1.491 . S
C609 C608 1.400 . S
C609 C610 1.398 . S
C610 H598 0.950 . S
C610 C609 1.398 . S
C610 C611 1.391 . S
C611 H599 0.950 1_556 S
C611 C607 1.393 . S
C611 C610 1.391 . S
H612 C620 0.950 . S
H613 C625 0.950 . S
H614 C622 0.950 . S
H615 C624 0.950 . S
H616 C626 0.950 . S
H617 C628 0.950 . S
H618 C630 0.950 . S
H619 C631 0.950 . S
C620 H612 0.950 . S
C620 C621 1.386 . S
C620 C622 1.391 . S
C621 C620 1.386 . S
C621 C625 1.393 . S
C622 H614 0.950 . S
C622 C620 1.391 . S
C622 C623 1.400 . S
C623 C622 1.400 . S
C623 C624 1.398 . S
C623 C629 1.491 . S
C624 H615 0.950 . S
C624 C623 1.398 . S
C624 C625 1.391 . S
C625 H613 0.950 . S
C625 C621 1.393 . S
C625 C624 1.391 . S
C626 H616 0.950 . S
C626 C627 1.386 . S
C626 C628 1.391 . S
C627 C626 1.386 . S
C627 C631 1.393 . S
C628 H617 0.950 . S
C628 C626 1.391 . S
C628 C629 1.400 . S
C629 C623 1.491 . S
C629 C628 1.400 . S
C629 C630 1.398 . S
C630 H618 0.950 . S
C630 C629 1.398 . S
C630 C631 1.391 . S
C631 H619 0.950 . S
C631 C627 1.393 . S
C631 C630 1.391 . S
H632 C640 0.950 . S
H633 C645 0.950 . S
H634 C642 0.950 . S
H635 C644 0.950 . S
H636 C646 0.950 . S
H637 C648 0.950 . S
H638 C650 0.950 . S
H639 C651 0.973 . S
C640 H632 0.950 . S
C640 C641 1.386 . S
C640 C642 1.391 . S
C641 C640 1.386 . S
C641 C645 1.393 . S
C642 H634 0.950 . S
C642 C640 1.391 . S
C642 C643 1.400 . S
C643 C642 1.400 . S
C643 C644 1.398 . S
C643 C649 1.491 . S
C644 H635 0.950 . S
C644 C643 1.398 . S
C644 C645 1.391 . S
C645 H633 0.950 . S
C645 C641 1.393 . S
C645 C644 1.391 . S
C646 H636 0.950 . S
C646 C647 1.386 . S
C646 C648 1.391 . S
C647 C646 1.386 . S
C647 C651 1.393 . S
C648 H637 0.950 . S
C648 C646 1.391 . S
C648 C649 1.400 . S
C649 C643 1.491 . S
C649 C648 1.400 . S
C649 C650 1.398 . S
C650 H638 0.950 . S
C650 C649 1.398 . S
C650 C651 1.391 . S
C651 H639 0.973 . S
C651 C647 1.393 . S
C651 C650 1.391 . S
H652 C660 0.950 . S
H653 C665 0.950 . S
H654 C662 0.950 . S
H655 C664 0.950 . S
H656 C666 0.950 . S
H657 C668 0.950 . S
H658 C670 0.950 . S
H659 C671 0.950 . S
C660 H652 0.950 . S
C660 C661 1.386 . S
C660 C662 1.391 . S
C661 C660 1.386 . S
C661 C665 1.393 . S
C662 H654 0.950 . S
C662 C660 1.391 . S
C662 C663 1.400 . S
C663 C662 1.400 . S
C663 C664 1.398 . S
C663 C669 1.491 . S
C664 H655 0.950 . S
C664 C663 1.398 . S
C664 C665 1.391 . S
C665 H653 0.950 . S
C665 C661 1.393 . S
C665 C664 1.391 . S
C666 H656 0.950 . S
C666 C667 1.386 . S
C666 C668 1.391 . S
C667 C666 1.386 . S
C667 C671 1.393 . S
C668 H657 0.950 . S
C668 C666 1.391 . S
C668 C669 1.400 . S
C669 C663 1.491 . S
C669 C668 1.400 . S
C669 C670 1.398 . S
C670 H658 0.950 . S
C670 C669 1.398 . S
C670 C671 1.391 . S
C671 H659 0.950 . S
C671 C667 1.393 . S
C671 C670 1.391 . S
H672 C680 0.950 . S
H673 C685 0.950 . S
H674 C682 0.950 . S
H675 C684 0.950 . S
H676 C686 0.950 . S
H677 C688 0.950 . S
H678 C690 0.950 . S
H679 C691 0.950 . S
C680 H672 0.950 . S
C680 C681 1.386 . S
C680 C682 1.391 . S
C681 C680 1.386 . S
C681 C685 1.393 . S
C682 H674 0.950 . S
C682 C680 1.391 . S
C682 C683 1.400 . S
C683 C682 1.400 . S
C683 C684 1.398 . S
C683 C689 1.491 . S
C684 H675 0.950 . S
C684 C683 1.398 . S
C684 C685 1.391 . S
C685 H673 0.950 . S
C685 C681 1.393 . S
C685 C684 1.391 . S
C686 H676 0.950 . S
C686 C687 1.386 . S
C686 C688 1.391 . S
C687 C686 1.386 . S
C687 C691 1.393 . S
C688 H677 0.950 . S
C688 C686 1.391 . S
C688 C689 1.400 . S
C689 C683 1.491 . S
C689 C688 1.400 . S
C689 C690 1.398 . S
C690 H678 0.950 . S
C690 C689 1.398 . S
C690 C691 1.391 . S
C691 H679 0.950 . S
C691 C687 1.393 . S
C691 C690 1.391 . S
H692 C700 0.950 . S
H693 C705 0.950 . S
H694 C702 0.950 . S
H695 C704 0.950 . S
H696 C706 0.950 . S
H697 C708 0.950 . S
H698 C710 0.950 . S
H699 C711 0.950 . S
C700 H692 0.950 . S
C700 C701 1.386 . S
C700 C702 1.391 . S
C701 C700 1.386 . S
C701 C705 1.393 . S
C702 H694 0.950 . S
C702 C700 1.391 . S
C702 C703 1.400 . S
C703 C702 1.400 . S
C703 C704 1.398 . S
C703 C709 1.491 . S
C704 H695 0.950 . S
C704 C703 1.398 . S
C704 C705 1.391 . S
C705 H693 0.950 . S
C705 C701 1.393 . S
C705 C704 1.391 . S
C706 H696 0.950 . S
C706 C707 1.386 . S
C706 C708 1.391 . S
C707 C706 1.386 . S
C707 C711 1.393 . S
C708 H697 0.950 . S
C708 C706 1.391 . S
C708 C709 1.400 . S
C709 C703 1.491 . S
C709 C708 1.400 . S
C709 C710 1.398 . S
C710 H698 0.950 . S
C710 C709 1.398 . S
C710 C711 1.391 . S
C711 H699 0.950 . S
C711 C707 1.393 . S
C711 C710 1.391 . S
H712 C720 0.950 . S
H713 C725 0.950 . S
H714 C722 0.950 . S
H715 C724 0.950 . S
H716 C726 0.950 . S
H717 C728 0.950 . S
H718 C730 0.950 . S
H719 C731 0.968 . S
C720 H712 0.950 . S
C720 C721 1.386 . S
C720 C722 1.391 . S
C721 C720 1.386 . S
C721 C725 1.393 . S
C722 H714 0.950 . S
C722 C720 1.391 . S
C722 C723 1.400 . S
C723 C722 1.400 . S
C723 C724 1.398 . S
C723 C729 1.491 . S
C724 H715 0.950 . S
C724 C723 1.398 . S
C724 C725 1.391 . S
C725 H713 0.950 . S
C725 C721 1.393 . S
C725 C724 1.391 . S
C726 H716 0.950 . S
C726 C727 1.386 . S
C726 C728 1.391 . S
C727 C726 1.386 . S
C727 C731 1.393 . S
C728 H717 0.950 . S
C728 C726 1.391 . S
C728 C729 1.400 . S
C729 C723 1.491 . S
C729 C728 1.400 . S
C729 C730 1.398 . S
C730 H718 0.950 . S
C730 C729 1.398 . S
C730 C731 1.391 . S
C731 H719 0.968 . S
C731 C727 1.393 . S
C731 C730 1.391 . S
H732 C740 0.950 . S
H733 C745 0.950 . S
H734 C742 0.950 . S
H735 C744 0.950 . S
H736 C746 0.950 . S
H737 C748 0.950 . S
H738 C750 0.950 . S
H739 C751 0.950 . S
C740 H732 0.950 . S
C740 C741 1.386 . S
C740 C742 1.391 . S
C741 C740 1.386 . S
C741 C745 1.393 . S
C742 H734 0.950 . S
C742 C740 1.391 . S
C742 C743 1.400 . S
C743 C742 1.400 . S
C743 C744 1.398 . S
C743 C749 1.491 . S
C744 H735 0.950 . S
C744 C743 1.398 . S
C744 C745 1.391 . S
C745 H733 0.950 . S
C745 C741 1.393 . S
C745 C744 1.391 . S
C746 H736 0.950 . S
C746 C747 1.386 . S
C746 C748 1.391 . S
C747 C746 1.386 . S
C747 C751 1.393 . S
C748 H737 0.950 . S
C748 C746 1.391 . S
C748 C749 1.400 . S
C749 C743 1.491 . S
C749 C748 1.400 . S
C749 C750 1.398 . S
C750 H738 0.950 . S
C750 C749 1.398 . S
C750 C751 1.391 . S
C751 H739 0.950 . S
C751 C747 1.393 . S
C751 C750 1.391 . S
H752 C760 0.950 . S
H753 C765 0.950 . S
H754 C762 0.950 . S
H755 C764 0.950 . S
H756 C766 0.950 . S
H757 C768 0.950 . S
H758 C770 0.950 . S
H759 C771 0.950 . S
C760 H752 0.950 . S
C760 C761 1.386 . S
C760 C762 1.391 . S
C761 C760 1.386 . S
C761 C765 1.393 . S
C762 H754 0.950 . S
C762 C760 1.391 . S
C762 C763 1.400 . S
C763 C762 1.400 . S
C763 C764 1.398 . S
C763 C769 1.491 . S
C764 H755 0.950 . S
C764 C763 1.398 . S
C764 C765 1.391 . S
C765 H753 0.950 . S
C765 C761 1.393 . S
C765 C764 1.391 . S
C766 H756 0.950 . S
C766 C767 1.386 . S
C766 C768 1.391 . S
C767 C766 1.386 . S
C767 C771 1.393 . S
C768 H757 0.950 . S
C768 C766 1.391 . S
C768 C769 1.400 . S
C769 C763 1.491 . S
C769 C768 1.400 . S
C769 C770 1.398 . S
C770 H758 0.950 . S
C770 C769 1.398 . S
C770 C771 1.391 . S
C771 H759 0.950 . S
C771 C767 1.393 . S
C771 C770 1.391 . S
H772 C780 0.950 . S
H773 C785 0.950 . S
H774 C782 0.950 . S
H775 C784 0.950 . S
H776 C786 0.950 . S
H777 C788 0.950 . S
H778 C790 0.950 . S
H779 C791 0.950 . S
C780 H772 0.950 . S
C780 C781 1.386 . S
C780 C782 1.391 . S
C781 C780 1.386 . S
C781 C785 1.393 . S
C782 H774 0.950 . S
C782 C780 1.391 . S
C782 C783 1.400 . S
C783 C782 1.400 . S
C783 C784 1.398 . S
C783 C789 1.491 . S
C784 H775 0.950 . S
C784 C783 1.398 . S
C784 C785 1.391 . S
C785 H773 0.950 . S
C785 C781 1.393 . S
C785 C784 1.391 . S
C786 H776 0.950 . S
C786 C787 1.386 . S
C786 C788 1.391 . S
C787 C786 1.386 . S
C787 C791 1.393 . S
C788 H777 0.950 . S
C788 C786 1.391 . S
C788 C789 1.400 . S
C789 C783 1.491 . S
C789 C788 1.400 . S
C789 C790 1.398 . S
C790 H778 0.950 . S
C790 C789 1.398 . S
C790 C791 1.391 . S
C791 H779 0.950 . S
C791 C787 1.393 . S
C791 C790 1.391 . S
H792 C800 0.950 . S
H793 C805 0.950 . S
H794 C802 0.950 . S
H795 C804 0.950 . S
H796 C806 0.950 1_554 S
H797 C808 0.950 . S
H798 C810 0.950 . S
H799 C811 0.950 . S
C800 H792 0.950 . S
C800 C801 1.386 . S
C800 C802 1.391 . S
C801 C800 1.386 . S
C801 C805 1.393 . S
C802 H794 0.950 . S
C802 C800 1.391 . S
C802 C803 1.400 . S
C803 C802 1.400 . S
C803 C804 1.398 . S
C803 C809 1.491 . S
C804 H795 0.950 . S
C804 C803 1.398 . S
C804 C805 1.391 . S
C805 H793 0.950 . S
C805 C801 1.393 . S
C805 C804 1.391 . S
C806 H796 0.950 1_556 S
C806 C807 1.386 . S
C806 C808 1.391 . S
C807 C806 1.386 . S
C807 C811 1.393 . S
C808 H797 0.950 . S
C808 C806 1.391 . S
C808 C809 1.400 . S
C809 C803 1.491 . S
C809 C808 1.400 . S
C809 C810 1.398 . S
C810 H798 0.950 . S
C810 C809 1.398 . S
C810 C811 1.391 . S
C811 H799 0.950 . S
C811 C807 1.393 . S
C811 C810 1.391 . S
H812 C820 0.950 . S
H813 C825 0.950 . S
H814 C822 0.950 . S
H815 C824 0.950 . S
H816 C826 0.950 . S
H817 C828 0.950 . S
H818 C830 0.950 . S
H819 C831 0.950 . S
C820 H812 0.950 . S
C820 C821 1.386 . S
C820 C822 1.391 . S
C821 C820 1.386 . S
C821 C825 1.393 . S
C822 H814 0.950 . S
C822 C820 1.391 . S
C822 C823 1.400 . S
C823 C822 1.400 . S
C823 C824 1.398 . S
C823 C829 1.491 . S
C824 H815 0.950 . S
C824 C823 1.398 . S
C824 C825 1.391 . S
C825 H813 0.950 . S
C825 C821 1.393 . S
C825 C824 1.391 . S
C826 H816 0.950 . S
C826 C827 1.386 . S
C826 C828 1.391 . S
C827 C826 1.386 . S
C827 C831 1.393 . S
C828 H817 0.950 . S
C828 C826 1.391 . S
C828 C829 1.400 . S
C829 C823 1.491 . S
C829 C828 1.400 . S
C829 C830 1.398 . S
C830 H818 0.950 . S
C830 C829 1.398 . S
C830 C831 1.391 . S
C831 H819 0.950 . S
C831 C827 1.393 . S
C831 C830 1.391 . S
H832 C840 0.950 . S
H833 C845 0.950 . S
H834 C842 0.950 . S
H835 C844 0.950 . S
H836 C846 0.950 . S
H837 C848 0.950 . S
H838 C850 0.950 . S
H839 C851 0.950 . S
C840 H832 0.950 . S
C840 C841 1.386 . S
C840 C842 1.391 . S
C841 C840 1.386 . S
C841 C845 1.393 . S
C842 H834 0.950 . S
C842 C840 1.391 . S
C842 C843 1.400 . S
C843 C842 1.400 . S
C843 C844 1.398 . S
C843 C849 1.491 . S
C844 H835 0.950 . S
C844 C843 1.398 . S
C844 C845 1.391 . S
C845 H833 0.950 . S
C845 C841 1.393 . S
C845 C844 1.391 . S
C846 H836 0.950 . S
C846 C847 1.386 . S
C846 C848 1.391 . S
C847 C846 1.386 . S
C847 C851 1.393 . S
C848 H837 0.950 . S
C848 C846 1.391 . S
C848 C849 1.400 . S
C849 C843 1.491 . S
C849 C848 1.400 . S
C849 C850 1.398 . S
C850 H838 0.950 . S
C850 C849 1.398 . S
C850 C851 1.391 . S
C851 H839 0.950 . S
C851 C847 1.393 . S
C851 C850 1.391 . S
H852 C860 0.950 . S
H853 C865 0.950 . S
H854 C862 0.950 . S
H855 C864 0.950 . S
H856 C866 0.950 . S
H857 C868 0.950 . S
H858 C870 0.950 . S
H859 C871 0.950 . S
C860 H852 0.950 . S
C860 C861 1.386 . S
C860 C862 1.391 . S
C861 C860 1.386 . S
C861 C865 1.393 . S
C862 H854 0.950 . S
C862 C860 1.391 . S
C862 C863 1.400 . S
C863 C862 1.400 . S
C863 C864 1.398 . S
C863 C869 1.491 . S
C864 H855 0.950 . S
C864 C863 1.398 . S
C864 C865 1.391 . S
C865 H853 0.950 . S
C865 C861 1.393 . S
C865 C864 1.391 . S
C866 H856 0.950 . S
C866 C867 1.386 . S
C866 C868 1.391 . S
C867 C866 1.386 . S
C867 C871 1.393 . S
C868 H857 0.950 . S
C868 C866 1.391 . S
C868 C869 1.400 . S
C869 C863 1.491 . S
C869 C868 1.400 . S
C869 C870 1.398 . S
C870 H858 0.950 . S
C870 C869 1.398 . S
C870 C871 1.391 . S
C871 H859 0.950 . S
C871 C867 1.393 . S
C871 C870 1.391 . S
H872 C880 0.950 . S
H873 C885 0.950 . S
H874 C882 0.950 . S
H875 C884 0.950 . S
H876 C886 0.954 . S
H877 C888 0.950 1_554 S
H878 C890 0.950 . S
H879 C891 0.950 . S
C880 H872 0.950 . S
C880 C881 1.386 . S
C880 C882 1.391 . S
C881 C880 1.386 . S
C881 C885 1.393 . S
C882 H874 0.950 . S
C882 C880 1.391 . S
C882 C883 1.400 . S
C883 C882 1.400 . S
C883 C884 1.398 . S
C883 C889 1.491 . S
C884 H875 0.950 . S
C884 C883 1.398 . S
C884 C885 1.391 . S
C885 H873 0.950 . S
C885 C881 1.393 . S
C885 C884 1.391 . S
C886 H876 0.954 . S
C886 C887 1.382 1_554 S
C886 C888 1.390 1_554 S
C887 C886 1.382 1_556 S
C887 C891 1.393 . S
C888 H877 0.950 1_556 S
C888 C886 1.390 1_556 S
C888 C889 1.400 . S
C889 C883 1.491 . S
C889 C888 1.400 . S
C889 C890 1.398 . S
C890 H878 0.950 . S
C890 C889 1.398 . S
C890 C891 1.391 . S
C891 H879 0.950 . S
C891 C887 1.393 . S
C891 C890 1.391 . S
H892 C900 0.950 . S
H893 C905 0.950 . S
H894 C902 0.950 . S
H895 C904 0.950 . S
H896 C906 0.950 . S
H897 C908 0.950 . S
H898 C910 0.950 . S
H899 C911 0.950 . S
C900 H892 0.950 . S
C900 C901 1.386 . S
C900 C902 1.391 . S
C901 C900 1.386 . S
C901 C905 1.393 . S
C902 H894 0.950 . S
C902 C900 1.391 . S
C902 C903 1.400 . S
C903 C902 1.400 . S
C903 C904 1.398 . S
C903 C909 1.491 . S
C904 H895 0.950 . S
C904 C903 1.398 . S
C904 C905 1.391 . S
C905 H893 0.950 . S
C905 C901 1.393 . S
C905 C904 1.391 . S
C906 H896 0.950 . S
C906 C907 1.386 . S
C906 C908 1.391 . S
C907 C906 1.386 . S
C907 C911 1.393 . S
C908 H897 0.950 . S
C908 C906 1.391 . S
C908 C909 1.400 . S
C909 C903 1.491 . S
C909 C908 1.400 . S
C909 C910 1.398 . S
C910 H898 0.950 . S
C910 C909 1.398 . S
C910 C911 1.391 . S
C911 H899 0.950 . S
C911 C907 1.393 . S
C911 C910 1.391 . S
H912 C920 0.950 . S
H913 C925 0.950 . S
H914 C922 0.950 . S
H915 C924 0.950 . S
H916 C926 0.950 . S
H917 C928 0.950 . S
H918 C930 0.950 . S
H919 C931 0.950 1_655 S
C920 H912 0.950 . S
C920 C921 1.386 . S
C920 C922 1.391 . S
C921 C920 1.386 . S
C921 C925 1.393 . S
C922 H914 0.950 . S
C922 C920 1.391 . S
C922 C923 1.400 . S
C923 C922 1.400 . S
C923 C924 1.398 . S
C923 C929 1.491 . S
C924 H915 0.950 . S
C924 C923 1.398 . S
C924 C925 1.391 . S
C925 H913 0.950 . S
C925 C921 1.393 . S
C925 C924 1.391 . S
C926 H916 0.950 . S
C926 C927 1.386 . S
C926 C928 1.391 . S
C927 C926 1.386 . S
C927 C931 1.393 . S
C928 H917 0.950 . S
C928 C926 1.391 . S
C928 C929 1.400 . S
C929 C923 1.491 . S
C929 C928 1.400 . S
C929 C930 1.398 . S
C930 H918 0.950 . S
C930 C929 1.398 . S
C930 C931 1.391 . S
C931 H919 0.950 1_455 S
C931 C927 1.393 . S
C931 C930 1.391 . S
H932 C940 0.950 . S
H933 C945 0.950 . S
H934 C942 0.950 . S
H935 C944 0.950 . S
H936 C946 0.950 . S
H937 C948 0.950 . S
H938 C950 0.950 . S
H939 C951 0.950 . S
C940 H932 0.950 . S
C940 C941 1.386 . S
C940 C942 1.391 . S
C941 C940 1.386 . S
C941 C945 1.393 . S
C942 H934 0.950 . S
C942 C940 1.391 . S
C942 C943 1.400 . S
C943 C942 1.400 . S
C943 C944 1.398 . S
C943 C949 1.491 . S
C944 H935 0.950 . S
C944 C943 1.398 . S
C944 C945 1.391 . S
C945 H933 0.950 . S
C945 C941 1.393 . S
C945 C944 1.391 . S
C946 H936 0.950 . S
C946 C947 1.386 . S
C946 C948 1.391 . S
C947 C946 1.386 . S
C947 C951 1.393 . S
C948 H937 0.950 . S
C948 C946 1.391 . S
C948 C949 1.400 . S
C949 C943 1.491 . S
C949 C948 1.400 . S
C949 C950 1.398 . S
C950 H938 0.950 . S
C950 C949 1.398 . S
C950 C951 1.391 . S
C951 H939 0.950 . S
C951 C947 1.393 . S
C951 C950 1.391 . S
C481 C1 2.918 . S
C487 C331 2.895 . S
C501 C40 2.430 . S
C507 C362 2.511 . S
C527 C401 1.357 . S
C521 C99 1.394 . S
C541 C118 0.506 . S
C547 C438 0.503 . S
C567 C361 2.835 . S
C561 C16 2.911 . S
C587 C318 1.540 . S
C581 C60 1.513 . S
C607 C450 1.420 . S
C601 C79 1.469 . S
C627 C407 1.045 . S
C621 C138 1.058 . S
C641 C21 2.301 . S
C647 C451 2.299 . S
C667 C367 1.300 . S
C661 C94 1.295 . S
C681 C133 0.514 . S
C687 C330 0.545 . S
C701 C55 2.514 . S
C707 C402 2.559 . S
C727 C322 2.893 . S
C721 C157 2.918 . S
C741 C196 2.406 . S
C747 C371 2.505 . S
C761 C255 1.398 . S
C767 C410 1.357 . S
C781 C289 0.498 . S
C787 C447 0.514 . S
C801 C172 2.910 . S
C807 C370 2.825 . S
C827 C327 1.544 . S
C821 C216 1.510 . S
C847 C441 1.413 . S
C841 C235 1.474 . S
C867 C398 1.010 . S
C861 C294 1.023 . S
C881 C177 2.296 . S
C887 C442 2.301 . S
C907 C358 1.298 . S
C901 C250 1.302 . S
C927 C321 0.568 . S
C921 C274 0.522 . S
C941 C211 2.528 . S
C947 C411 2.559 . S
