# Generated by pormake.
# Topology zzz, (3,6)-cn, num edge types: 1
# Building blocks:
#     Node 0, Type 0, BuildingBlock: CUQRIR_clean_linker_1, # of connection points: 3
#     Node 1, Type 0, BuildingBlock: CUQRIR_clean_linker_1, # of connection points: 3
#     Node 2, Type 0, BuildingBlock: CUQRIR_clean_linker_1, # of connection points: 3
#     Node 3, Type 0, BuildingBlock: CUQRIR_clean_linker_1, # of connection points: 3
#     Node 4, Type 0, BuildingBlock: CUQRIR_clean_linker_1, # of connection points: 3
#     Node 5, Type 0, BuildingBlock: CUQRIR_clean_linker_1, # of connection points: 3
#     Node 6, Type 0, BuildingBlock: CUQRIR_clean_linker_1, # of connection points: 3
#     Node 7, Type 0, BuildingBlock: CUQRIR_clean_linker_1, # of connection points: 3
#     Node 8, Type 1, BuildingBlock: CUWYAW_clean_sbu_0, # of connection points: 6
#     Node 9, Type 1, BuildingBlock: CUWYAW_clean_sbu_0, # of connection points: 6
#     Node 10, Type 1, BuildingBlock: CUWYAW_clean_sbu_0, # of connection points: 6
#     Node 11, Type 1, BuildingBlock: CUWYAW_clean_sbu_0, # of connection points: 6
#     Edge 12, Type (0, 1), BuildingBlock: UVAHIK_clean_linker_0, # of connection points: 2
#     Edge 13, Type (0, 1), BuildingBlock: UVAHIK_clean_linker_0, # of connection points: 2
#     Edge 14, Type (0, 1), BuildingBlock: UVAHIK_clean_linker_0, # of connection points: 2
#     Edge 15, Type (0, 1), BuildingBlock: UVAHIK_clean_linker_0, # of connection points: 2
#     Edge 16, Type (0, 1), BuildingBlock: UVAHIK_clean_linker_0, # of connection points: 2
#     Edge 17, Type (0, 1), BuildingBlock: UVAHIK_clean_linker_0, # of connection points: 2
#     Edge 18, Type (0, 1), BuildingBlock: UVAHIK_clean_linker_0, # of connection points: 2
#     Edge 19, Type (0, 1), BuildingBlock: UVAHIK_clean_linker_0, # of connection points: 2
#     Edge 20, Type (0, 1), BuildingBlock: UVAHIK_clean_linker_0, # of connection points: 2
#     Edge 21, Type (0, 1), BuildingBlock: UVAHIK_clean_linker_0, # of connection points: 2
#     Edge 22, Type (0, 1), BuildingBlock: UVAHIK_clean_linker_0, # of connection points: 2
#     Edge 23, Type (0, 1), BuildingBlock: UVAHIK_clean_linker_0, # of connection points: 2
#     Edge 24, Type (0, 1), BuildingBlock: UVAHIK_clean_linker_0, # of connection points: 2
#     Edge 25, Type (0, 1), BuildingBlock: UVAHIK_clean_linker_0, # of connection points: 2
#     Edge 26, Type (0, 1), BuildingBlock: UVAHIK_clean_linker_0, # of connection points: 2
#     Edge 27, Type (0, 1), BuildingBlock: UVAHIK_clean_linker_0, # of connection points: 2
#     Edge 28, Type (0, 1), BuildingBlock: UVAHIK_clean_linker_0, # of connection points: 2
#     Edge 29, Type (0, 1), BuildingBlock: UVAHIK_clean_linker_0, # of connection points: 2
#     Edge 30, Type (0, 1), BuildingBlock: UVAHIK_clean_linker_0, # of connection points: 2
#     Edge 31, Type (0, 1), BuildingBlock: UVAHIK_clean_linker_0, # of connection points: 2
#     Edge 32, Type (0, 1), BuildingBlock: UVAHIK_clean_linker_0, # of connection points: 2
#     Edge 33, Type (0, 1), BuildingBlock: UVAHIK_clean_linker_0, # of connection points: 2
#     Edge 34, Type (0, 1), BuildingBlock: UVAHIK_clean_linker_0, # of connection points: 2
#     Edge 35, Type (0, 1), BuildingBlock: UVAHIK_clean_linker_0, # of connection points: 2
# Relax obj value: 0.236
# Max RMSD: 0.152
# Mean RMSD: 0.133
data_MOF--net-zzz--node1-CUWYAW_clean_sbu_0--node2-CUQRIR_clean_linker_1--edge1-UVAHIK_clean_linker_0
_symmetry_space_group_name_H-M    P1
_symmetry_Int_Tables_number       1
_symmetry_cell_setting            triclinic
loop_
_symmetry_equiv_pos_as_xyz
'x, y, z'
_cell_length_a     63.831179
_cell_length_b     63.826951
_cell_length_c     16.516886
_cell_angle_alpha  89.948695
_cell_angle_beta   89.888419
_cell_angle_gamma 89.968987
loop_
_atom_site_label
_atom_site_type_symbol
_atom_site_fract_x
_atom_site_fract_y
_atom_site_fract_z
_atom_type_partial_charge
C0 C 0.75002 0.50881 0.31421 0.0
N1 N 0.76692 0.4973 0.33668 0.0
N2 N 0.73588 0.49672 0.27389 0.0
C3 C 0.74771 0.53186 0.32928 0.0
C4 C 0.74506 0.47752 0.2721 0.0
N5 N 0.76374 0.47789 0.31062 0.0
C6 C 0.73628 0.45877 0.22858 0.0
H7 H 0.75557 0.53632 0.38661 0.0
H8 H 0.73093 0.53638 0.33176 0.0
H9 H 0.75534 0.54056 0.27908 0.0
H10 H 0.72994 0.46354 0.16882 0.0
H11 H 0.72321 0.45214 0.26475 0.0
H12 H 0.74813 0.44628 0.22002 0.0
C13 C 0.01898 0.74291 0.32711 0.0
N14 N 0.02854 0.7616 0.3406 0.0
N15 N 0.03002 0.73131 0.27236 0.0
C16 C 0.99927 0.73584 0.36835 0.0
C17 C 0.04641 0.74385 0.25248 0.0
N18 N 0.04551 0.76205 0.29399 0.0
C19 C 0.06219 0.73914 0.18715 0.0
H20 H 0.99882 0.7185 0.37316 0.0
H21 H 0.98563 0.74105 0.33196 0.0
H22 H 0.99795 0.74293 0.42948 0.0
H23 H 0.05509 0.72951 0.13852 0.0
H24 H 0.07537 0.7302 0.214 0.0
H25 H 0.06859 0.75374 0.1603 0.0
C26 C 0.78556 0.0165 0.32838 0.0
N27 N 0.76851 0.02762 0.35205 0.0
N28 N 0.79964 0.02909 0.28976 0.0
C29 C 0.78807 0.99334 0.34046 0.0
C30 C 0.79026 0.04819 0.29026 0.0
N31 N 0.77151 0.04729 0.3285 0.0
C32 C 0.79887 0.06739 0.24896 0.0
H33 H 0.78025 0.98831 0.3973 0.0
H34 H 0.80489 0.98895 0.34217 0.0
H35 H 0.78051 0.98503 0.28931 0.0
H36 H 0.80509 0.06322 0.18828 0.0
H37 H 0.812 0.07371 0.28535 0.0
H38 H 0.78695 0.07991 0.24272 0.0
C39 C 0.51181 0.78069 0.33308 0.0
N40 N 0.50103 0.76273 0.34803 0.0
N41 N 0.50053 0.79374 0.28449 0.0
C42 C 0.53313 0.78551 0.36606 0.0
C43 C 0.48276 0.7828 0.26945 0.0
N44 N 0.48298 0.7642 0.30858 0.0
C45 C 0.46603 0.78953 0.21071 0.0
H46 H 0.53538 0.80268 0.37205 0.0
H47 H 0.54513 0.77936 0.3236 0.0
H48 H 0.53541 0.77781 0.42568 0.0
H49 H 0.45631 0.77616 0.19024 0.0
H50 H 0.47318 0.79729 0.15722 0.0
H51 H 0.45558 0.80102 0.24092 0.0
C52 C 0.28653 0.51148 0.1201 0.0
N53 N 0.26805 0.52154 0.10775 0.0
N54 N 0.29875 0.52243 0.17253 0.0
C55 C 0.2927 0.4912 0.08103 0.0
C56 C 0.28693 0.53932 0.19215 0.0
N57 N 0.26841 0.53877 0.15287 0.0
C58 C 0.29296 0.55565 0.25338 0.0
H59 H 0.31 0.4899 0.07643 0.0
H60 H 0.28557 0.48984 0.02004 0.0
H61 H 0.28686 0.47807 0.11886 0.0
H62 H 0.29996 0.56921 0.22109 0.0
H63 H 0.30466 0.54949 0.29693 0.0
H64 H 0.279 0.56129 0.28702 0.0
C65 C 1.01148 0.2793 0.13174 0.0
N66 N 1.00009 0.26178 0.11581 0.0
N67 N 1.00052 0.29265 0.18035 0.0
C68 C 0.03307 0.28341 0.0996 0.0
C69 C 0.98231 0.28232 0.19446 0.0
N70 N 0.98197 0.26384 0.15468 0.0
C71 C 0.96557 0.28956 0.25243 0.0
H72 H 0.04469 0.27683 0.14255 0.0
H73 H 0.03592 0.30049 0.09375 0.0
H74 H 0.0353 0.27566 0.04008 0.0
H75 H 0.95546 0.30119 0.22142 0.0
H76 H 0.97272 0.29728 0.30583 0.0
H77 H 0.95552 0.27643 0.2731 0.0
C78 C 0.24662 1.00768 0.12248 0.0
N79 N 0.26537 0.99844 0.10718 0.0
N80 N 0.23517 0.99594 0.17551 0.0
C81 C 0.23945 0.02787 0.08527 0.0
C82 C 0.24792 0.97949 0.19259 0.0
N83 N 0.26602 0.98096 0.15068 0.0
C84 C 0.24344 0.96298 0.25536 0.0
H85 H 0.22213 0.02816 0.07971 0.0
H86 H 0.24677 0.03015 0.02489 0.0
H87 H 0.24431 0.04102 0.12488 0.0
H88 H 0.23402 0.95033 0.22726 0.0
H89 H 0.2343 0.96966 0.3064 0.0
H90 H 0.25811 0.95595 0.279 0.0
C91 C 0.51295 0.24275 0.13637 0.0
N92 N 0.50204 0.25999 0.11321 0.0
N93 N 0.50066 0.22972 0.18103 0.0
C94 C 0.53574 0.23919 0.11924 0.0
C95 C 0.48209 0.23993 0.18547 0.0
N96 N 0.48288 0.25821 0.14406 0.0
C97 C 0.46393 0.23302 0.237 0.0
H98 H 0.53934 0.22218 0.11793 0.0
H99 H 0.54509 0.24652 0.16815 0.0
H100 H 0.54027 0.24656 0.06088 0.0
H101 H 0.46803 0.23522 0.3017 0.0
H102 H 0.46081 0.21611 0.22744 0.0
H103 H 0.44957 0.24212 0.22312 0.0
C104 C 1.00553 0.02944 0.48526 0.0
Eu105 Eu 1.00839 0.01932 0.63705 0.0
C106 C 0.99143 0.04227 0.43604 0.0
C107 C 0.9921 0.04084 0.35148 0.0
C108 C 0.97936 0.05376 0.30411 0.0
C109 C 0.96579 0.06832 0.34082 0.0
C110 C 0.96465 0.06906 0.42592 0.0
C111 C 0.97733 0.05611 0.4731 0.0
C112 C 0.97615 0.0156 0.74756 0.0
C113 C 0.01583 0.05413 0.77701 0.0
C114 C 0.02895 0.99409 0.96761 0.0
Eu115 Eu 0.0248 1.00435 0.81653 0.0
C116 C 0.0445 0.9821 0.01358 0.0
C117 C 0.0637 0.9766 0.97802 0.0
C118 C 0.0778 0.9638 0.01955 0.0
C119 C 0.07284 0.95619 0.09714 0.0
C120 C 0.05395 0.96254 0.13385 0.0
C121 C 0.03988 0.9754 0.09226 0.0
C122 C 0.05699 1.00813 0.70524 0.0
C123 C 0.01574 0.9693 0.67891 0.0
O124 O 0.01729 0.03965 0.53714 0.0
O125 O 0.99723 0.01239 0.51575 0.0
O126 O 0.97359 0.02192 0.67339 0.0
O127 O 0.99528 1.01168 0.75592 0.0
O128 O 0.01562 0.05053 0.69768 0.0
O129 O 0.01628 0.03879 0.83148 0.0
O130 O 0.01759 0.98324 0.91639 0.0
O131 O 0.03563 1.01191 0.93749 0.0
O132 O 0.05961 1.00197 0.77941 0.0
O133 O 0.03784 1.01194 0.69744 0.0
O134 O 0.01655 0.97323 0.75789 0.0
O135 O 0.01547 0.98445 0.62356 0.0
H136 H 1.00276 0.03002 0.32211 0.0
H137 H 0.98046 0.05267 0.2388 0.0
H138 H 0.95467 0.08032 0.4563 0.0
H139 H 0.97653 0.05726 0.53849 0.0
H140 H 0.06755 0.98173 0.91733 0.0
H141 H 0.09227 0.95931 0.98992 0.0
H142 H 0.04948 0.95667 0.19295 0.0
H143 H 0.02511 0.97954 0.1205 0.0
C144 C 0.49979 1.00106 0.49375 0.0
Eu145 Eu 0.50968 1.00438 0.64527 0.0
C146 C 0.48691 0.98685 0.44468 0.0
C147 C 0.4942 0.98011 0.36889 0.0
C148 C 0.48189 0.96696 0.32082 0.0
C149 C 0.46199 0.96044 0.34771 0.0
C150 C 0.45509 0.96683 0.42494 0.0
C151 C 0.46747 0.97976 0.47309 0.0
C152 C 0.51326 0.97192 0.75504 0.0
C153 C 0.47455 0.01301 0.7832 0.0
C154 C 0.5345 0.02042 0.97881 0.0
Eu155 Eu 0.52465 0.0201 0.82636 0.0
C156 C 0.54778 0.03189 0.03565 0.0
C157 C 0.54808 0.02584 0.11714 0.0
C158 C 0.5616 0.03569 0.17145 0.0
C159 C 0.57502 0.05176 0.1449 0.0
C160 C 0.57409 0.05827 0.06352 0.0
C161 C 0.56057 0.04837 0.00921 0.0
C162 C 0.52098 0.05267 0.71777 0.0
C163 C 0.55955 0.01348 0.68504 0.0
O164 O 0.48977 0.01337 0.54458 0.0
O165 O 0.51683 0.9928 0.52448 0.0
O166 O 0.5072 0.96943 0.68065 0.0
O167 O 0.51702 0.99106 0.7636 0.0
O168 O 0.47848 0.01214 0.70419 0.0
O169 O 0.48964 0.01344 0.83868 0.0
O170 O 0.5443 1.00894 0.9247 0.0
O171 O 0.51852 0.03078 0.94902 0.0
O172 O 0.52716 0.05508 0.7923 0.0
O173 O 0.51722 0.03352 0.70827 0.0
O174 O 0.55602 0.01416 0.76447 0.0
O175 O 0.5442 0.01239 0.63095 0.0
H176 H 0.50933 0.98522 0.34651 0.0
H177 H 0.48781 0.96218 0.26219 0.0
H178 H 0.43971 0.96257 0.44728 0.0
H179 H 0.46161 0.98454 0.53186 0.0
H180 H 0.53816 0.01319 0.13841 0.0
H181 H 0.56186 0.03046 0.23385 0.0
H182 H 0.58444 0.07039 0.04099 0.0
H183 H 0.56046 0.0532 0.94629 0.0
C184 C 0.52551 0.49382 0.48831 0.0
Eu185 Eu 0.52482 0.50374 0.64096 0.0
C186 C 0.51287 0.48064 0.4347 0.0
C187 C 0.51411 0.48327 0.35057 0.0
C188 C 0.50229 0.47051 0.29921 0.0
C189 C 0.48883 0.45523 0.33166 0.0
C190 C 0.48731 0.45301 0.41613 0.0
C191 C 0.49939 0.46548 0.46719 0.0
C192 C 0.55773 0.51111 0.74432 0.0
C193 C 0.51594 0.46862 0.7763 0.0
C194 C 0.49764 0.52503 0.96018 0.0
Eu195 Eu 0.50761 0.51862 0.80946 0.0
C196 C 0.48419 0.53952 0.00504 0.0
C197 C 0.48186 0.53729 0.08892 0.0
C198 C 0.46959 0.55151 0.13249 0.0
C199 C 0.45946 0.56814 0.09253 0.0
C200 C 0.46137 0.56985 0.00785 0.0
C201 C 0.47364 0.55564 0.96448 0.0
C202 C 0.4792 0.51735 0.68697 0.0
C203 C 0.5202 0.55417 0.68103 0.0
O204 O 0.51609 0.51055 0.51635 0.0
O205 O 0.53642 0.48393 0.54365 0.0
O206 O 0.55998 0.505 0.6699 0.0
O207 O 0.53847 0.51328 0.75737 0.0
O208 O 0.51738 0.47222 0.69749 0.0
O209 O 0.51473 0.48408 0.82951 0.0
O210 O 0.51423 0.53325 0.92565 0.0
O211 O 0.48781 0.51178 0.91329 0.0
O212 O 0.47916 0.53128 0.74411 0.0
O213 O 0.49348 0.504 0.69967 0.0
O214 O 0.51784 0.55008 0.75929 0.0
O215 O 0.52114 0.53904 0.62605 0.0
H216 H 0.52443 0.49498 0.32465 0.0
H217 H 0.50378 0.47243 0.23428 0.0
H218 H 0.47738 0.44106 0.44265 0.0
H219 H 0.49845 0.46308 0.53202 0.0
H220 H 0.48979 0.52475 0.12085 0.0
H221 H 0.4683 0.54972 0.19753 0.0
H222 H 0.45411 0.58268 0.9754 0.0
H223 H 0.47525 0.55748 0.89952 0.0
C224 C 0.03611 0.52492 0.48641 0.0
Eu225 Eu 0.02502 0.52026 0.63648 0.0
C226 C 0.04861 0.54057 0.44296 0.0
C227 C 0.05508 0.55893 0.48224 0.0
C228 C 0.06837 0.57305 0.44306 0.0
C229 C 0.07553 0.56895 0.36411 0.0
C230 C 0.06823 0.55094 0.32378 0.0
C231 C 0.05487 0.53686 0.36303 0.0
C232 C 0.02058 0.55214 0.74839 0.0
C233 C 0.06007 0.51076 0.77377 0.0
C234 C 0.99989 0.50181 0.96749 0.0
Eu235 Eu 1.01009 0.50322 0.81534 0.0
C236 C 0.98667 0.4897 0.02275 0.0
C237 C 0.98699 0.49432 0.10557 0.0
C238 C 0.97359 0.48383 0.15875 0.0
C239 C 0.95965 0.46855 0.12971 0.0
C240 C 0.96 0.46339 0.04686 0.0
C241 C 0.97341 0.47393 0.99369 0.0
C242 C 0.01455 0.47118 0.7051 0.0
C243 C 0.97531 0.51007 0.6739 0.0
O244 O 0.0465 0.51312 0.53775 0.0
O245 O 0.01821 0.53168 0.51548 0.0
O246 O 0.02629 0.55511 0.67385 0.0
O247 O 0.01757 0.53285 0.75622 0.0
O248 O 0.05616 0.51218 0.69497 0.0
O249 O 0.04495 0.50999 0.82915 0.0
O250 O 0.99007 0.51352 0.91422 0.0
O251 O 0.01612 0.49192 0.93721 0.0
O252 O 1.00853 0.4684 0.7797 0.0
O253 O 0.01774 0.49046 0.69589 0.0
O254 O 0.97874 0.50895 0.75329 0.0
O255 O 0.99073 0.51172 0.62008 0.0
H256 H 0.05033 0.56206 0.54399 0.0
H257 H 0.07358 0.58683 0.47548 0.0
H258 H 0.07371 0.54713 0.26347 0.0
H259 H 0.04999 0.52275 0.33193 0.0
H260 H 0.9973 0.50637 0.12886 0.0
H261 H 0.97379 0.488 0.22231 0.0
H262 H 0.94924 0.45191 0.02249 0.0
H263 H 0.97308 0.47016 0.92974 0.0
C264 C 0.19932 0.98411 0.20825 0.0
C265 C 0.21467 0.99986 0.21003 0.0
C266 C 0.18069 0.98619 0.25244 0.0
C267 C 0.14608 0.02353 0.36239 0.0
H268 H 0.13163 0.97445 0.48925 0.0
C269 C 0.07023 0.01634 0.56388 0.0
C270 C 0.07362 1.00828 0.64202 0.0
C271 C 0.08643 0.01619 0.50582 0.0
C272 C 0.1354 0.9883 0.45422 0.0
H273 H 0.22215 0.03058 0.25662 0.0
H274 H 0.18934 0.03449 0.3334 0.0
H275 H 0.16131 0.97311 0.39644 0.0
H276 H 0.09664 0.99375 0.72036 0.0
H277 H 0.12454 0.99317 0.61961 0.0
H278 H 0.12011 0.03872 0.42149 0.0
C279 C 0.19171 0.02048 0.29762 0.0
C280 C 0.15235 0.98749 0.40036 0.0
C281 C 0.21048 0.01831 0.25354 0.0
C282 C 0.09347 1.00005 0.6607 0.0
C283 C 0.10947 0.99963 0.60275 0.0
C284 C 0.12887 0.02426 0.41575 0.0
C285 C 0.17683 1.00417 0.29946 0.0
C286 C 0.15808 1.00512 0.35412 0.0
C287 C 0.10622 1.00764 0.52446 0.0
C288 C 0.1235 1.00671 0.46317 0.0
H289 H 0.20209 0.96985 0.17446 0.0
H290 H 0.16946 0.97348 0.25106 0.0
H291 H 0.14995 0.03737 0.32745 0.0
H292 H 0.05513 0.02275 0.54769 0.0
H293 H 0.08337 0.0224 0.44596 0.0
C294 C 0.49759 0.19153 0.20064 0.0
C295 C 0.50626 0.21079 0.22378 0.0
C296 C 0.50071 0.17351 0.24779 0.0
C297 C 0.53268 0.15184 0.41971 0.0
H298 H 0.4861 0.11319 0.43965 0.0
C299 C 0.5275 0.08973 0.67528 0.0
C300 C 0.52021 0.06958 0.65576 0.0
C301 C 0.52682 0.10602 0.61841 0.0
C302 C 0.49937 0.12366 0.43409 0.0
H303 H 0.52505 0.22649 0.31353 0.0
H304 H 0.53034 0.19524 0.39737 0.0
H305 H 0.48331 0.14321 0.3491 0.0
H306 H 0.50659 0.05074 0.56075 0.0
H307 H 0.50505 0.0793 0.46122 0.0
H308 H 0.54844 0.13251 0.50679 0.0
C309 C 0.52151 0.19371 0.34183 0.0
C310 C 0.49782 0.14094 0.38177 0.0
C311 C 0.51851 0.21168 0.29405 0.0
C312 C 0.51222 0.06608 0.57771 0.0
C313 C 0.51131 0.08249 0.52085 0.0
C314 C 0.53414 0.13467 0.47259 0.0
C315 C 0.5124 0.17436 0.32014 0.0
C316 C 0.51441 0.15541 0.37395 0.0
C317 C 0.51863 0.10269 0.54046 0.0
C318 C 0.51745 0.12041 0.48096 0.0
H319 H 0.488 0.19058 0.14675 0.0
H320 H 0.49377 0.15895 0.22771 0.0
H321 H 0.54599 0.16226 0.41459 0.0
H322 H 0.53375 0.09297 0.7349 0.0
H323 H 0.53236 0.12137 0.63616 0.0
C324 C 0.33655 0.52954 0.18285 0.0
C325 C 0.31914 0.51739 0.20465 0.0
C326 C 0.3556 0.52743 0.22415 0.0
C327 C 0.38439 0.49458 0.37776 0.0
H328 H 0.41382 0.54672 0.41569 0.0
C329 C 0.46082 0.49877 0.57202 0.0
C330 C 0.46285 0.51624 0.62304 0.0
C331 C 0.44476 0.49787 0.51386 0.0
C332 C 0.40578 0.53198 0.40638 0.0
H333 H 0.30785 0.49338 0.2856 0.0
H334 H 0.34093 0.4898 0.35957 0.0
H335 H 0.38324 0.54646 0.32913 0.0
H336 H 0.44953 0.54646 0.65325 0.0
H337 H 0.42147 0.54481 0.55439 0.0
H338 H 0.40651 0.48037 0.45864 0.0
C339 C 0.34025 0.50062 0.30913 0.0
C340 C 0.38831 0.53176 0.35526 0.0
C341 C 0.32125 0.5026 0.26692 0.0
C342 C 0.44851 0.5328 0.61462 0.0
C343 C 0.43246 0.5319 0.55714 0.0
C344 C 0.40186 0.49483 0.42948 0.0
C345 C 0.35761 0.51337 0.28968 0.0
C346 C 0.37714 0.51311 0.34059 0.0
C347 C 0.43027 0.51445 0.50571 0.0
C348 C 0.41264 0.51363 0.4456 0.0
H349 H 0.33513 0.54119 0.13545 0.0
H350 H 0.36861 0.53721 0.2057 0.0
H351 H 0.37649 0.47982 0.36738 0.0
H352 H 0.47143 0.48567 0.57807 0.0
H353 H 0.44376 0.48422 0.4752 0.0
C354 C 0.02449 0.31415 0.26445 0.0
C355 C 1.00666 0.31254 0.2152 0.0
C356 C 0.02838 0.33252 0.30895 0.0
C357 C 1.01114 0.38873 0.33469 0.0
H358 H 0.03116 0.38048 0.55362 0.0
C359 C 0.02166 0.45829 0.5624 0.0
C360 C 0.01598 0.45428 0.64322 0.0
C361 C 0.02265 0.44186 0.50556 0.0
C362 C 0.02542 0.38314 0.49284 0.0
H363 H 0.97957 0.32918 0.17063 0.0
H364 H 0.98592 0.36095 0.24875 0.0
H365 H 0.02914 0.3508 0.46211 0.0
H366 H 1.00671 0.42993 0.72737 0.0
H367 H 1.00805 0.40163 0.62935 0.0
H368 H 1.00655 0.42097 0.36703 0.0
C369 C 0.99717 0.3483 0.25295 0.0
C370 C 0.02457 0.36606 0.43958 0.0
C371 C 0.99338 0.33001 0.20842 0.0
C372 C 1.01129 0.43357 0.66575 0.0
C373 C 0.01223 0.41725 0.60937 0.0
C374 C 0.01192 0.40584 0.38819 0.0
C375 C 0.01447 0.34973 0.3055 0.0
C376 C 0.01712 0.36846 0.35989 0.0
C377 C 0.018 0.42103 0.52834 0.0
C378 C 0.01873 0.40325 0.46865 0.0
H379 H 0.03489 0.30086 0.27127 0.0
H380 H 0.04209 0.33304 0.34736 0.0
H381 H 1.00562 0.39141 0.27362 0.0
H382 H 0.02531 0.47409 0.54311 0.0
H383 H 0.02728 0.44546 0.44401 0.0
C384 C 0.81895 1.00804 0.18773 0.0
C385 C 0.81885 0.02352 0.24806 0.0
C386 C 0.83689 1.00458 0.14021 0.0
C387 C 0.89435 0.01795 0.122 0.0
H388 H 0.88456 1.00561 0.89569 0.0
C389 C 0.96286 1.00746 0.88886 0.0
C390 C 0.95936 0.01504 0.81012 0.0
C391 C 0.94642 1.00687 0.94587 0.0
C392 C 0.88768 1.00926 0.95852 0.0
H393 H 0.83775 0.04678 0.30853 0.0
H394 H 0.86873 0.04148 0.22431 0.0
H395 H 0.85514 1.00755 0.98824 0.0
H396 H 0.93603 0.02837 0.73014 0.0
H397 H 0.90781 0.02791 0.82874 0.0
H398 H 0.92688 0.02066 0.09086 0.0
C399 C 0.85519 0.03165 0.21389 0.0
C400 C 0.8707 1.01001 0.01234 0.0
C401 C 0.83732 0.03492 0.2618 0.0
C402 C 0.93923 0.02225 0.79005 0.0
C403 C 0.92293 0.0218 0.84673 0.0
C404 C 0.91136 0.01736 0.06785 0.0
C405 C 0.85518 0.01669 0.15115 0.0
C406 C 0.87367 0.01457 0.09493 0.0
C407 C 0.92613 0.01393 0.92542 0.0
C408 C 0.90827 0.01329 0.98493 0.0
H409 H 0.80489 0.99914 0.17534 0.0
H410 H 0.83626 0.99259 0.09397 0.0
H411 H 0.89746 0.02118 0.18515 0.0
H412 H 0.97822 1.00184 0.90615 0.0
H413 H 0.94956 1.00057 0.00549 0.0
C414 C 0.52412 0.81581 0.20069 0.0
C415 C 0.5062 0.81376 0.2494 0.0
C416 C 0.52757 0.83419 0.15556 0.0
C417 C 0.5086 0.8897 0.12662 0.0
H418 H 0.52998 0.88158 0.90926 0.0
C419 C 0.51891 0.95916 0.89864 0.0
C420 C 0.51424 0.95502 0.8171 0.0
C421 C 0.5197 0.94278 0.95571 0.0
C422 C 0.52382 0.8842 0.96953 0.0
H423 H 0.47845 0.82963 0.29245 0.0
H424 H 0.48403 0.86139 0.21309 0.0
H425 H 0.52833 0.85206 1.00176 0.0
H426 H 0.50634 0.93051 0.73193 0.0
H427 H 0.50727 0.90223 0.83049 0.0
H428 H 0.5032 0.9217 0.09276 0.0
C429 C 0.49569 0.8491 0.20983 0.0
C430 C 0.5232 0.86722 0.02341 0.0
C431 C 0.49235 0.83081 0.25507 0.0
C432 C 0.51017 0.93424 0.79414 0.0
C433 C 0.51089 0.91793 0.85083 0.0
C434 C 0.50912 0.9067 0.07247 0.0
C435 C 0.51311 0.85094 0.15777 0.0
C436 C 0.51534 0.86959 0.10261 0.0
C437 C 0.51578 0.92186 0.93254 0.0
C438 C 0.51646 0.90415 0.9926 0.0
H439 H 0.53495 0.80285 0.1947 0.0
H440 H 0.54139 0.83505 0.11761 0.0
H441 H 0.50272 0.89236 0.18727 0.0
H442 H 0.52184 0.97502 0.91842 0.0
H443 H 0.52361 0.94651 0.01779 0.0
C444 C 0.69817 0.49139 0.24625 0.0
C445 C 0.71669 0.5028 0.2334 0.0
C446 C 0.68031 0.49513 0.19914 0.0
C447 C 0.66459 0.51863 1.00084 0.0
H448 H 0.60864 0.50688 0.08027 0.0
C449 C 0.59548 0.50708 0.78065 0.0
C450 C 0.57512 0.51298 0.80374 0.0
C451 C 0.6121 0.50791 0.8357 0.0
C452 C 0.62407 0.51053 0.05698 0.0
H453 H 0.73075 0.52769 0.16323 0.0
H454 H 0.69936 0.53506 0.08332 0.0
H455 H 0.63815 0.50582 0.17319 0.0
H456 H 0.5563 0.52464 0.90299 0.0
H457 H 0.58544 0.52669 0.99921 0.0
H458 H 0.6505 0.52397 0.88532 0.0
C459 C 0.69869 0.52271 0.12818 0.0
C460 C 0.64117 0.5096 0.11034 0.0
C461 C 0.71665 0.51876 0.17488 0.0
C462 C 0.5718 0.51997 0.88339 0.0
C463 C 0.58854 0.52098 0.93867 0.0
C464 C 0.6475 0.51976 0.94777 0.0
C465 C 0.68034 0.51061 0.13818 0.0
C466 C 0.66179 0.51329 0.08292 0.0
C467 C 0.60899 0.5149 0.91571 0.0
C468 C 0.62698 0.51533 0.97445 0.0
H469 H 0.69771 0.47915 0.29157 0.0
H470 H 0.66674 0.48527 0.20876 0.0
H471 H 0.6801 0.52138 0.97647 0.0
H472 H 0.59857 0.50145 0.71992 0.0
H473 H 0.62735 0.5026 0.81557 0.0
C474 C 0.0408 0.69522 0.23717 0.0
C475 C 0.02538 0.71094 0.23816 0.0
C476 C 0.03783 0.67664 0.19344 0.0
C477 C 1.00729 0.65594 0.01953 0.0
H478 H 0.03256 0.60311 0.08213 0.0
C479 C 0.02131 0.58991 0.78727 0.0
C480 C 0.01888 0.56889 0.81078 0.0
C481 C 0.02024 0.60612 0.84415 0.0
C482 C 0.02518 0.61764 0.06391 0.0
H483 H 0.99439 0.71917 0.19665 0.0
H484 H 0.98877 0.68649 0.12172 0.0
H485 H 0.03324 0.63271 0.17563 0.0
H486 H 0.0137 0.5484 0.91324 0.0
H487 H 1.01155 0.57679 0.01331 0.0
H488 H 0.99909 0.64091 0.90822 0.0
C489 C 1.00342 0.68862 0.15357 0.0
C490 C 0.02578 0.63477 0.11735 0.0
C491 C 1.00646 0.70725 0.19741 0.0
C492 C 0.0154 0.56444 0.89309 0.0
C493 C 0.01437 0.58074 0.95047 0.0
C494 C 1.00668 0.63885 0.96626 0.0
C495 C 0.01927 0.6732 0.14936 0.0
C496 C 0.0171 0.65431 0.09556 0.0
C497 C 0.01672 0.60187 0.92671 0.0
C498 C 0.01593 0.61952 0.9869 0.0
H499 H 0.05552 0.69768 0.26821 0.0
H500 H 0.05052 0.6654 0.19143 0.0
H501 H 1.0006 0.67067 0.99972 0.0
H502 H 0.02417 0.59391 0.72445 0.0
H503 H 0.02258 0.62204 0.82329 0.0
C504 C 0.9519 0.2418 0.11623 0.0
C505 C 0.968 0.24674 0.17057 0.0
C506 C 0.94098 0.22291 0.12421 0.0
C507 C 0.93962 0.17448 0.1227 0.0
H508 H 0.92558 0.15105 0.33246 0.0
C509 C 0.96548 0.09471 0.22889 0.0
C510 C 0.95478 0.08443 0.29184 0.0
C511 C 0.95742 0.11308 0.19542 0.0
C512 C 0.92879 0.15729 0.27272 0.0
H513 H 0.98459 0.23718 0.27795 0.0
H514 H 0.96516 0.20445 0.2942 0.0
H515 H 0.92854 0.18879 0.31692 0.0
H516 H 0.92597 0.08381 0.36158 0.0
H517 H 0.91197 0.11613 0.30359 0.0
H518 H 0.94143 0.14287 0.07987 0.0
C519 C 0.96093 0.21492 0.24523 0.0
C520 C 0.93064 0.17894 0.26413 0.0
C521 C 0.97208 0.23351 0.23611 0.0
C522 C 0.93482 0.0917 0.3146 0.0
C523 C 0.92676 0.11014 0.28118 0.0
C524 C 0.93788 0.15277 0.13135 0.0
C525 C 0.94572 0.20913 0.18803 0.0
C526 C 0.93723 0.18761 0.1903 0.0
C527 C 0.93852 0.1216 0.22434 0.0
C528 C 0.93364 0.14392 0.20765 0.0
H529 H 0.94861 0.25204 0.06554 0.0
H530 H 0.92936 0.21874 0.07933 0.0
H531 H 0.9447 0.18081 0.06504 0.0
H532 H 0.98093 0.08963 0.21008 0.0
H533 H 0.96701 0.12156 0.15227 0.0
C534 C 0.30113 0.9789 0.20697 0.0
C535 C 0.28488 0.96931 0.16421 0.0
C536 C 0.32127 0.97069 0.20367 0.0
C537 C 0.35422 0.92634 0.17467 0.0
H538 H 0.39421 0.96962 0.11747 0.0
C539 C 0.43256 0.93507 0.32532 0.0
C540 C 0.44737 0.94909 0.29315 0.0
C541 C 0.41495 0.92943 0.28049 0.0
C542 C 0.3835 0.95696 0.13119 0.0
H543 H 0.27617 0.94322 0.08825 0.0
H544 H 0.31184 0.92814 0.08427 0.0
H545 H 0.35721 0.97596 0.09918 0.0
H546 H 0.45713 0.9652 0.18346 0.0
H547 H 0.42709 0.9544 0.10402 0.0
H548 H 0.38051 0.90762 0.21019 0.0
C549 C 0.30889 0.94212 0.11967 0.0
C550 C 0.3622 0.96078 0.12149 0.0
C551 C 0.28862 0.95053 0.1225 0.0
C552 C 0.44589 0.95465 0.21095 0.0
C553 C 0.42848 0.94863 0.16547 0.0
C554 C 0.37566 0.92242 0.18419 0.0
C555 C 0.32546 0.95266 0.15782 0.0
C556 C 0.34741 0.94601 0.1476 0.0
C557 C 0.41199 0.9374 0.20188 0.0
C558 C 0.39048 0.93821 0.16723 0.0
H559 H 0.29839 0.99351 0.23858 0.0
H560 H 0.33378 0.97889 0.23457 0.0
H561 H 0.34299 0.91466 0.19434 0.0
H562 H 0.43367 0.92978 0.38749 0.0
H563 H 0.4028 0.92057 0.31082 0.0
C564 C 0.45922 0.28447 0.08493 0.0
C565 C 0.46893 0.2757 0.15305 0.0
C566 C 0.45127 0.30488 0.08807 0.0
C567 C 0.44034 0.34937 0.22781 0.0
H568 H 0.46793 0.3827 0.06274 0.0
C569 C 0.48955 0.42865 0.22134 0.0
C570 C 0.47801 0.44006 0.27865 0.0
C571 C 0.48081 0.41106 0.1844 0.0
C572 C 0.45997 0.37367 0.10902 0.0
H573 H 0.47644 0.28013 0.27911 0.0
H574 H 0.4622 0.31548 0.28611 0.0
H575 H 0.4652 0.34494 0.04569 0.0
H576 H 0.44765 0.44366 0.33559 0.0
H577 H 0.43204 0.41331 0.26894 0.0
H578 H 0.43695 0.37759 0.29512 0.0
C579 C 0.46059 0.30686 0.23003 0.0
C580 C 0.45813 0.35202 0.09868 0.0
C581 C 0.4687 0.28661 0.22643 0.0
C582 C 0.45694 0.43485 0.29248 0.0
C583 C 0.44808 0.41743 0.25455 0.0
C584 C 0.44235 0.37094 0.23854 0.0
C585 C 0.45268 0.31657 0.15992 0.0
C586 C 0.44923 0.33955 0.15996 0.0
C587 C 0.46026 0.40467 0.20337 0.0
C588 C 0.45315 0.38322 0.1812 0.0
H589 H 0.45922 0.27611 0.02795 0.0
H590 H 0.44509 0.31189 0.03335 0.0
H591 H 0.43312 0.34017 0.27543 0.0
H592 H 0.50587 0.43229 0.20992 0.0
H593 H 0.49082 0.40159 0.1462 0.0
C594 C 0.25017 0.57294 0.14782 0.0
C595 C 0.25038 0.55161 0.16868 0.0
C596 C 0.23146 0.58441 0.1528 0.0
C597 C 0.18862 0.60131 0.23431 0.0
H598 H 0.14286 0.57348 0.12399 0.0
C599 C 0.11013 0.58686 0.37592 0.0
C600 C 0.09272 0.58156 0.32822 0.0
C601 C 0.12856 0.59394 0.33986 0.0
C602 C 0.15533 0.58207 0.15337 0.0
H603 H 0.23216 0.52575 0.21503 0.0
H604 H 0.19945 0.54551 0.2225 0.0
H605 H 0.17871 0.56428 0.09093 0.0
H606 H 0.08002 0.58224 0.20663 0.0
H607 H 0.11234 0.59469 0.14331 0.0
H608 H 0.16518 0.61802 0.3012 0.0
C609 C 0.21352 0.55337 0.20174 0.0
C610 C 0.1759 0.57664 0.13463 0.0
C611 C 0.23212 0.54213 0.19791 0.0
C612 C 0.09338 0.58571 0.24467 0.0
C613 C 0.11186 0.59291 0.20851 0.0
C614 C 0.16795 0.60679 0.25325 0.0
C615 C 0.21293 0.57444 0.17764 0.0
C616 C 0.19258 0.5853 0.17834 0.0
C617 C 0.13003 0.59588 0.25522 0.0
C618 C 0.15108 0.5962 0.21663 0.0
H619 H 0.26422 0.58039 0.12493 0.0
H620 H 0.23128 0.60072 0.13464 0.0
H621 H 0.20134 0.60819 0.26855 0.0
H622 H 0.11022 0.58376 0.4404 0.0
H623 H 0.14222 0.59587 0.37795 0.0
C624 C 0.04796 0.79867 0.25242 0.0
C625 C 0.05787 0.78049 0.28009 0.0
C626 C 0.05861 0.81763 0.25166 0.0
C627 C 0.08004 0.85564 0.32247 0.0
H628 H 0.12381 0.86791 0.16658 0.0
C629 C 0.08853 0.93862 0.21911 0.0
C630 C 0.08563 0.93941 0.13483 0.0
C631 C 0.0958 0.92028 0.25593 0.0
C632 C 0.11188 0.86471 0.21163 0.0
H633 H 0.08683 0.76719 0.32419 0.0
H634 H 0.10615 0.80078 0.31982 0.0
H635 H 0.11433 0.83143 0.19476 0.0
H636 H 0.09021 0.9224 0.02249 0.0
H637 H 0.10242 0.89061 0.086 0.0
H638 H 0.07595 0.88855 0.33435 0.0
C639 C 0.08996 0.80025 0.30051 0.0
C640 C 0.10659 0.84385 0.22801 0.0
C641 C 0.07907 0.78118 0.30239 0.0
C642 C 0.09231 0.92238 0.08754 0.0
C643 C 0.09945 0.90406 0.12425 0.0
C644 C 0.08529 0.87639 0.30625 0.0
C645 C 0.07952 0.81868 0.27738 0.0
C646 C 0.08977 0.83933 0.27981 0.0
C647 C 0.10008 0.90236 0.2091 0.0
C648 C 0.10031 0.8812 0.24664 0.0
H649 H 0.03166 0.79826 0.23438 0.0
H650 H 0.0504 0.8316 0.23205 0.0
H651 H 0.0671 0.85239 0.36321 0.0
H652 H 0.08398 0.95172 0.25693 0.0
H653 H 0.09656 0.91963 0.32139 0.0
C654 C 0.745 0.06775 0.25702 0.0
C655 C 0.75529 0.06287 0.32934 0.0
C656 C 0.72509 0.07672 0.25877 0.0
C657 C 0.67951 0.07285 0.38873 0.0
H658 H 0.65425 0.10212 0.20798 0.0
C659 C 0.60353 0.04638 0.24609 0.0
C660 C 0.59143 0.06019 0.19926 0.0
C661 C 0.62127 0.05353 0.28663 0.0
C662 C 0.66084 0.09436 0.26041 0.0
H663 H 0.75411 0.06513 0.45963 0.0
H664 H 0.71922 0.08114 0.46345 0.0
H665 H 0.6916 0.10538 0.23165 0.0
H666 H 0.58723 0.09265 0.16437 0.0
H667 H 0.61815 0.10529 0.23634 0.0
H668 H 0.64887 0.06136 0.41637 0.0
C669 C 0.72639 0.07792 0.4053 0.0
C670 C 0.68237 0.09607 0.27336 0.0
C671 C 0.74637 0.06898 0.40328 0.0
C672 C 0.59653 0.0816 0.19882 0.0
C673 C 0.61423 0.08881 0.24002 0.0
C674 C 0.65793 0.07133 0.37637 0.0
C675 C 0.7151 0.08086 0.33314 0.0
C676 C 0.69211 0.08436 0.33469 0.0
C677 C 0.62729 0.0747 0.2817 0.0
C678 C 0.64855 0.08106 0.30915 0.0
H679 H 0.75148 0.06269 0.19962 0.0
H680 H 0.71682 0.07847 0.202 0.0
H681 H 0.68645 0.06357 0.4366 0.0
H682 H 0.60014 0.02976 0.24708 0.0
H683 H 0.63102 0.04208 0.31696 0.0
C684 C 0.45303 0.74127 0.34089 0.0
C685 C 0.46987 0.74661 0.29041 0.0
C686 C 0.44198 0.72265 0.32766 0.0
C687 C 0.43256 0.68136 0.17554 0.0
H688 H 0.436 0.6423 0.35496 0.0
C689 C 0.43071 0.59465 0.10936 0.0
C690 C 0.44897 0.58503 0.13898 0.0
C691 C 0.42363 0.61349 0.1427 0.0
C692 C 0.43458 0.65307 0.30457 0.0
H693 H 0.48803 0.73788 0.18559 0.0
H694 H 0.46858 0.70555 0.16066 0.0
H695 H 0.44191 0.67961 0.37859 0.0
H696 H 0.47296 0.58656 0.23161 0.0
H697 H 0.46086 0.6193 0.28896 0.0
H698 H 0.4271 0.65487 0.10008 0.0
C699 C 0.46376 0.71554 0.21032 0.0
C700 C 0.43779 0.67444 0.31823 0.0
C701 C 0.47496 0.73387 0.2245 0.0
C702 C 0.45879 0.5935 0.20755 0.0
C703 C 0.45176 0.61232 0.24073 0.0
C704 C 0.42934 0.66006 0.16187 0.0
C705 C 0.44742 0.70953 0.26261 0.0
C706 C 0.43796 0.68856 0.25296 0.0
C707 C 0.43475 0.62307 0.20607 0.0
C708 C 0.43151 0.64554 0.22545 0.0
H709 H 0.44898 0.75113 0.39188 0.0
H710 H 0.42949 0.71831 0.36886 0.0
H711 H 0.43236 0.69201 0.12441 0.0
H712 H 0.42254 0.58821 0.05764 0.0
H713 H 0.41024 0.6212 0.11568 0.0
C714 C 0.78812 0.45495 0.38347 0.0
C715 C 0.77971 0.46206 0.31008 0.0
C716 C 0.80769 0.44513 0.38494 0.0
C717 C 0.85122 0.42617 0.25152 0.0
H718 H 0.8859 0.45729 0.40165 0.0
C719 C 0.93746 0.43854 0.17842 0.0
C720 C 0.94323 0.45974 0.18336 0.0
C721 C 0.91961 0.43126 0.21885 0.0
C722 C 0.87649 0.44832 0.35961 0.0
H723 H 0.78402 0.46338 0.18064 0.0
H724 H 0.818 0.44617 0.18203 0.0
H725 H 0.84821 0.45673 0.42049 0.0
H726 H 0.93561 0.48962 0.2384 0.0
H727 H 0.90449 0.47726 0.3068 0.0
H728 H 0.87919 0.41969 0.18551 0.0
C729 C 0.8096 0.44772 0.23873 0.0
C730 C 0.85483 0.44772 0.37114 0.0
C731 C 0.7901 0.45754 0.23752 0.0
C732 C 0.93169 0.47315 0.2339 0.0
C733 C 0.91381 0.46596 0.27363 0.0
C734 C 0.87285 0.42703 0.23929 0.0
C735 C 0.81909 0.44234 0.3128 0.0
C736 C 0.84186 0.4376 0.3146 0.0
C737 C 0.90707 0.44511 0.2642 0.0
C738 C 0.88559 0.43912 0.29062 0.0
H739 H 0.7803 0.45853 0.44001 0.0
H740 H 0.81446 0.44097 0.44284 0.0
H741 H 0.84169 0.41785 0.20793 0.0
H742 H 0.94631 0.42777 0.14097 0.0
H743 H 0.91514 0.41501 0.21162 0.0
C744 C 0.99301 0.23673 0.0055 0.0
C745 C 1.00588 0.24335 0.06944 0.0
C746 C 0.99539 0.21679 0.97123 0.0
C747 C 0.03085 0.17321 0.93213 0.0
H748 H 0.98123 0.13818 0.94067 0.0
C749 C 0.02234 0.0931 0.76047 0.0
C750 C 0.01507 0.07619 0.80758 0.0
C751 C 0.02218 0.11366 0.79138 0.0
C752 C 0.99522 0.14774 0.93769 0.0
H753 H 0.03219 0.23472 0.14448 0.0
H754 H 0.03725 0.20005 0.08117 0.0
H755 H 0.97999 0.1739 0.99455 0.0
H756 H 1.00153 0.06792 0.92383 0.0
H757 H 1.00063 0.10369 0.97622 0.0
H758 H 0.04594 0.14715 0.87335 0.0
C759 C 0.02497 0.21024 0.05888 0.0
C760 C 0.99449 0.16824 0.96835 0.0
C761 C 0.02223 0.23011 0.09464 0.0
C762 C 1.00734 0.08048 0.88579 0.0
C763 C 1.00674 0.10103 0.91585 0.0
C764 C 0.03145 0.15284 0.8996 0.0
C765 C 1.01114 0.20312 0.9984 0.0
C766 C 0.01229 0.18123 0.9662 0.0
C767 C 0.01428 0.11791 0.86939 0.0
C768 C 0.01366 0.13979 0.90228 0.0
H769 H 0.98051 0.24676 0.98423 0.0
H770 H 0.98466 0.21191 0.92414 0.0
H771 H 0.0448 0.18285 0.92942 0.0
H772 H 0.02847 0.09041 0.70018 0.0
H773 H 0.02798 0.12631 0.75378 0.0
C774 C 0.29509 0.02241 0.07953 0.0
C775 C 0.28256 1.00537 0.0564 0.0
C776 C 0.31499 0.02544 0.04444 0.0
C777 C 0.35002 1.00722 0.87403 0.0
H778 H 0.39437 0.02519 0.01769 0.0
C779 C 0.43567 0.01749 0.75825 0.0
C780 C 0.45225 0.01315 0.81171 0.0
C781 C 0.4148 0.01785 0.78572 0.0
C782 C 0.3823 0.01992 0.97659 0.0
H783 H 0.28066 0.97862 0.97713 0.0
H784 H 0.31507 0.98363 0.91608 0.0
H785 H 0.3585 0.02383 0.06702 0.0
H786 H 0.45958 1.00536 0.93632 0.0
H787 H 0.42346 1.00523 0.98334 0.0
H788 H 0.37387 1.00232 0.78482 0.0
C789 C 0.30968 0.99502 0.95995 0.0
C790 C 0.3615 0.01951 0.0047 0.0
C791 C 0.28985 0.99212 0.99469 0.0
C792 C 0.44731 1.00897 0.89329 0.0
C793 C 0.42646 1.00907 0.92053 0.0
C794 C 0.37082 1.00747 0.84612 0.0
C795 C 0.32286 1.01142 0.98558 0.0
C796 C 0.34499 0.01305 0.95406 0.0
C797 C 0.40979 0.01361 0.8674 0.0
C798 C 0.38739 0.01374 0.89693 0.0
H799 H 0.29003 0.03256 0.12829 0.0
H800 H 0.32441 0.03846 0.06514 0.0
H801 H 0.33786 1.00238 0.83247 0.0
H802 H 0.4388 0.02091 0.69514 0.0
H803 H 0.40263 0.02177 0.74275 0.0
C804 C 0.51963 0.29448 0.11585 0.0
C805 C 0.50958 0.27857 0.07224 0.0
C806 C 0.5224 0.31448 0.08171 0.0
C807 C 0.51695 0.3448 0.88531 0.0
H808 H 0.51517 0.39217 0.0312 0.0
C809 C 0.52501 0.43018 0.76385 0.0
C810 C 0.51564 0.44663 0.80731 0.0
C811 C 0.52534 0.4097 0.79536 0.0
C812 C 0.51533 0.37926 0.98889 0.0
H813 H 0.49488 0.27081 0.95889 0.0
H814 H 0.49896 0.30554 0.89959 0.0
H815 H 0.5136 0.35703 0.08553 0.0
H816 H 0.49864 0.45421 0.91709 0.0
H817 H 0.49803 0.41868 0.96957 0.0
H818 H 0.51712 0.367 0.7884 0.0
C819 C 0.50544 0.30279 0.95912 0.0
C820 C 0.51493 0.35884 0.02058 0.0
C821 C 0.50306 0.28276 0.99288 0.0
C822 C 0.50622 0.44198 0.88225 0.0
C823 C 0.50608 0.42146 0.91285 0.0
C824 C 0.51686 0.36522 0.85353 0.0
C825 C 0.51479 0.31921 1.00343 0.0
C826 C 0.51578 0.34117 0.96945 0.0
C827 C 0.51584 0.4049 0.87053 0.0
C828 C 0.51606 0.3829 0.90463 0.0
H829 H 0.52445 0.29168 0.17774 0.0
H830 H 0.53013 0.32633 0.11769 0.0
H831 H 0.518 0.33187 0.84322 0.0
H832 H 0.53257 0.43322 0.70627 0.0
H833 H 0.53342 0.39775 0.76094 0.0
C834 C 0.24296 0.53076 1.00031 0.0
C835 C 0.25071 0.51592 0.05547 0.0
C836 C 0.22343 0.52809 0.96327 0.0
C837 C 0.17278 0.49998 0.99264 0.0
H838 H 0.16038 0.52365 0.78196 0.0
C839 C 0.08712 0.51227 0.88498 0.0
C840 C 0.08234 0.51022 0.80215 0.0
C841 C 0.10792 0.51169 0.91224 0.0
C842 C 0.16348 0.51669 0.84051 0.0
H843 H 0.24443 0.48615 0.11267 0.0
H844 H 0.21056 0.48081 0.0454 0.0
H845 H 0.19626 0.52343 0.83099 0.0
H846 H 0.09606 0.50577 0.68326 0.0
H847 H 0.1322 0.50425 0.7307 0.0
H848 H 0.14009 0.49277 1.00133 0.0
C849 C 0.21939 0.49487 0.0319 0.0
C850 C 0.18417 0.51682 0.86932 0.0
C851 C 0.23899 0.49765 0.06934 0.0
C852 C 0.09905 0.50752 0.74742 0.0
C853 C 0.11989 0.50676 0.77479 0.0
C854 C 0.15211 0.49973 0.96361 0.0
C855 C 0.21104 0.51033 0.9798 0.0
C856 C 0.18916 0.50869 0.94631 0.0
C857 C 0.12471 0.50885 0.85776 0.0
C858 C 0.14703 0.50831 0.88739 0.0
H859 H 0.2516 0.5451 0.98947 0.0
H860 H 0.21765 0.54054 0.92483 0.0
H861 H 0.17577 0.49378 0.05255 0.0
H862 H 0.07476 0.51453 0.92916 0.0
H863 H 0.1108 0.51381 0.97627 0.0
C864 C 0.03724 0.7863 0.45011 0.0
C865 C 0.02256 0.77858 0.39433 0.0
C866 C 0.03441 0.80579 0.48755 0.0
C867 C 1.0063 0.85651 0.45804 0.0
H868 H 0.02928 0.86889 0.66965 0.0
C869 C 0.01772 0.94227 0.56741 0.0
C870 C 0.01539 0.94701 0.65023 0.0
C871 C 0.01736 0.92146 0.53983 0.0
C872 C 0.02252 0.8658 0.61082 0.0
H873 H 0.99293 0.7849 0.33652 0.0
H874 H 0.98734 0.8187 0.40438 0.0
H875 H 0.02939 0.83302 0.62007 0.0
H876 H 1.0107 0.93316 0.76875 0.0
H877 H 1.0096 0.89702 0.72078 0.0
H878 H 0.99898 0.8892 0.44951 0.0
C879 C 1.00137 0.80987 0.41814 0.0
C880 C 0.02284 0.84511 0.58171 0.0
C881 C 1.00429 0.79029 0.38038 0.0
C882 C 0.01266 0.93022 0.70462 0.0
C883 C 0.01214 0.90938 0.67693 0.0
C884 C 1.00588 0.87719 0.48733 0.0
C885 C 0.01668 0.81822 0.47075 0.0
C886 C 0.01493 0.84011 0.50442 0.0
C887 C 0.0145 0.90461 0.59396 0.0
C888 C 0.01419 0.88227 0.56393 0.0
H889 H 0.05161 0.77772 0.46088 0.0
H890 H 0.04676 0.81156 0.52641 0.0
H891 H 1.00028 0.85354 0.39792 0.0
H892 H 0.02002 0.95465 0.52344 0.0
H893 H 0.01969 0.91864 0.47583 0.0
C894 C 0.73112 0.01891 0.33566 0.0
C895 C 0.74894 0.01996 0.38521 0.0
C896 C 0.71105 0.0168 0.36949 0.0
C897 C 0.6819 0.02606 0.56209 0.0
H898 H 0.63805 0.99474 0.45466 0.0
C899 C 0.59899 0.01401 0.70585 0.0
C900 C 0.58159 0.01423 0.65356 0.0
C901 C 0.61956 0.01435 0.67485 0.0
C902 C 0.65 1.00379 0.48523 0.0
H903 H 0.75984 0.01929 0.50865 0.0
H904 H 0.72489 0.01473 0.56853 0.0
H905 H 0.67329 0.99496 0.39807 0.0
H906 H 0.57255 0.01543 0.5269 0.0
H907 H 0.60801 0.01632 0.47369 0.0
H908 H 0.65852 0.03496 0.64907 0.0
C909 C 0.72629 0.01583 0.50334 0.0
C910 C 0.67032 1.00389 0.45262 0.0
C911 C 0.74637 0.01801 0.46924 0.0
C912 C 0.58541 0.01505 0.56952 0.0
C913 C 0.60589 0.01543 0.53867 0.0
C914 C 0.66155 0.02595 0.59477 0.0
C915 C 0.70825 0.01565 0.45406 0.0
C916 C 0.68662 0.01504 0.49039 0.0
C917 C 0.62333 0.01493 0.59066 0.0
C918 C 0.64523 0.01486 0.55674 0.0
H919 H 0.7327 0.02095 0.27085 0.0
H920 H 0.69767 0.01708 0.32933 0.0
H921 H 0.69384 0.03521 0.59223 0.0
H922 H 0.59676 0.01337 0.77081 0.0
H923 H 0.63251 0.01377 0.71701 0.0
C924 C 0.52464 0.73225 0.37019 0.0
C925 C 0.50738 0.74443 0.394 0.0
C926 C 0.52846 0.71264 0.40652 0.0
C927 C 0.51177 0.6781 0.58171 0.0
H928 H 0.53331 0.63385 0.44465 0.0
C929 C 0.52396 0.59325 0.70546 0.0
C930 C 0.52077 0.5764 0.65201 0.0
C931 C 0.52413 0.61406 0.677 0.0
C932 C 0.52703 0.64588 0.48396 0.0
H933 H 0.48118 0.74614 0.47636 0.0
H934 H 0.48713 0.71195 0.53767 0.0
H935 H 0.53018 0.66912 0.39126 0.0
H936 H 0.51488 0.56853 0.52636 0.0
H937 H 0.51442 0.60436 0.47772 0.0
H938 H 0.50752 0.65463 0.67295 0.0
C939 C 0.49814 0.71738 0.4924 0.0
C940 C 0.52559 0.66639 0.45348 0.0
C941 C 0.49454 0.73699 0.45676 0.0
C942 C 0.51766 0.58099 0.5695 0.0
C943 C 0.51754 0.60172 0.54129 0.0
C944 C 0.51297 0.65753 0.61187 0.0
C945 C 0.51497 0.70464 0.46715 0.0
C946 C 0.51776 0.68288 0.50151 0.0
C947 C 0.52084 0.61869 0.59431 0.0
C948 C 0.52044 0.64097 0.56335 0.0
H949 H 0.53467 0.73753 0.32135 0.0
H950 H 0.54183 0.70365 0.38604 0.0
H951 H 0.50602 0.69024 0.62169 0.0
H952 H 0.52648 0.59038 0.76934 0.0
H953 H 0.52706 0.62648 0.72005 0.0
C954 C 0.78887 0.50555 0.45557 0.0
C955 C 0.78648 0.50443 0.37127 0.0
C956 C 0.80887 0.50745 0.49027 0.0
C957 C 0.86474 0.52053 0.44236 0.0
H958 H 0.87666 0.4875 0.63392 0.0
C959 C 0.94961 0.50926 0.5581 0.0
C960 C 0.95332 0.50928 0.64221 0.0
C961 C 0.92918 0.50892 0.52713 0.0
C962 C 0.8736 0.49704 0.58103 0.0
H963 H 0.80295 0.50451 0.25712 0.0
H964 H 0.83786 0.50798 0.31669 0.0
H965 H 0.84144 0.48734 0.57655 0.0
H966 H 0.93799 0.50872 0.75943 0.0
H967 H 0.90231 0.50837 0.70541 0.0
H968 H 0.89686 0.53015 0.44636 0.0
C969 C 0.82439 0.5078 0.35661 0.0
C970 C 0.8533 0.49698 0.54805 0.0
C971 C 0.8044 0.50593 0.32219 0.0
C972 C 0.93585 0.50872 0.69441 0.0
C973 C 0.91533 0.5084 0.66328 0.0
C974 C 0.885 0.52058 0.47527 0.0
C975 C 0.82701 0.5082 0.44134 0.0
C976 C 0.84855 0.5087 0.47805 0.0
C977 C 0.91167 0.50865 0.57905 0.0
C978 C 0.88981 0.50879 0.54501 0.0
H979 H 0.77531 0.5039 0.49455 0.0
H980 H 0.81015 0.50794 0.55559 0.0
H981 H 0.86173 0.53 0.38923 0.0
H982 H 0.96253 0.50951 0.51554 0.0
H983 H 0.92715 0.50868 0.46206 0.0
loop_
_geom_bond_atom_site_label_1
_geom_bond_atom_site_label_2
_geom_bond_distance
_geom_bond_site_symmetry_2
_ccdc_geom_bond_type
C0 N1 1.317 . S
C0 N2 1.348 . S
C0 C3 1.485 . S
N1 C0 1.317 . S
N1 N5 1.370 . S
N2 C0 1.348 . S
N2 C4 1.346 . S
C3 C0 1.485 . S
C3 H7 0.960 . S
C3 H8 0.961 . S
C3 H9 0.960 . S
C4 N2 1.346 . S
C4 N5 1.307 . S
C4 C6 1.486 . S
N5 N1 1.370 . S
N5 C4 1.307 . S
C6 C4 1.486 . S
C6 H10 0.960 . S
C6 H11 0.960 . S
C6 H12 0.959 . S
H7 C3 0.960 . S
H8 C3 0.961 . S
H9 C3 0.960 . S
H10 C6 0.960 . S
H11 C6 0.960 . S
H12 C6 0.959 . S
C13 N14 1.317 . S
C13 N15 1.350 . S
C13 C16 1.485 . S
N14 C13 1.317 . S
N14 N18 1.371 . S
N15 C13 1.350 . S
N15 C17 1.345 1_655 S
C16 C13 1.485 . S
C16 H20 0.960 1_655 S
C16 H21 0.961 . S
C16 H22 0.960 . S
C17 N15 1.345 1_455 S
C17 N18 1.307 1_455 S
C17 C19 1.486 . S
N18 N14 1.371 . S
N18 C17 1.307 1_655 S
C19 C17 1.486 . S
C19 H23 0.925 1_455 S
C19 H24 0.989 . S
C19 H25 0.967 . S
H20 C16 0.960 1_455 S
H21 C16 0.961 . S
H22 C16 0.960 . S
H23 C19 0.925 1_655 S
H24 C19 0.989 . S
H25 C19 0.967 . S
C26 N27 1.317 . S
C26 N28 1.350 . S
C26 C29 1.485 . S
N27 C26 1.317 . S
N27 N31 1.371 . S
N28 C26 1.350 . S
N28 C30 1.345 1_565 S
C29 C26 1.485 . S
C29 H33 0.960 1_565 S
C29 H34 0.961 . S
C29 H35 0.960 . S
C30 N28 1.345 1_545 S
C30 N31 1.307 1_545 S
C30 C32 1.486 . S
N31 N27 1.371 . S
N31 C30 1.307 1_565 S
C32 C30 1.486 . S
C32 H36 0.925 1_545 S
C32 H37 0.989 . S
C32 H38 0.967 . S
H33 C29 0.960 1_545 S
H34 C29 0.961 . S
H35 C29 0.960 . S
H36 C32 0.925 1_565 S
H37 C32 0.989 . S
H38 C32 0.967 . S
C39 N40 1.317 . S
C39 N41 1.348 . S
C39 C42 1.485 . S
N40 C39 1.317 . S
N40 N44 1.370 . S
N41 C39 1.348 . S
N41 C43 1.346 . S
C42 C39 1.485 . S
C42 H46 0.960 . S
C42 H47 0.961 . S
C42 H48 0.960 . S
C43 N41 1.346 . S
C43 N44 1.307 . S
C43 C45 1.486 . S
N44 N40 1.370 . S
N44 C43 1.307 . S
C45 C43 1.486 . S
C45 H49 0.960 . S
C45 H50 0.960 . S
C45 H51 0.959 . S
H46 C42 0.960 . S
H47 C42 0.961 . S
H48 C42 0.960 . S
H49 C45 0.960 . S
H50 C45 0.960 . S
H51 C45 0.959 . S
C52 N53 1.318 . S
C52 N54 1.352 . S
C52 C55 1.481 1_554 S
N53 C52 1.318 . S
N53 N57 1.370 . S
N54 C52 1.352 . S
N54 C56 1.346 . S
C55 C52 1.481 1_556 S
C55 H59 0.960 . S
C55 H60 0.961 . S
C55 H61 0.960 . S
C56 N54 1.346 . S
C56 N57 1.307 . S
C56 C58 1.486 . S
N57 N53 1.370 . S
N57 C56 1.307 . S
C58 C56 1.486 . S
C58 H62 0.960 . S
C58 H63 0.960 . S
C58 H64 0.959 . S
H59 C55 0.960 . S
H60 C55 0.961 . S
H61 C55 0.960 . S
H62 C58 0.960 . S
H63 C58 0.960 . S
H64 C58 0.959 . S
C65 N66 1.317 . S
C65 N67 1.350 . S
C65 C68 1.485 1_554 S
N66 C65 1.317 . S
N66 N70 1.370 . S
N67 C65 1.350 . S
N67 C69 1.345 1_655 S
C68 C65 1.485 1_556 S
C68 H72 0.960 1_655 S
C68 H73 0.961 . S
C68 H74 0.960 . S
C69 N67 1.345 1_455 S
C69 N70 1.307 1_455 S
C69 C71 1.485 . S
N70 N66 1.370 . S
N70 C69 1.307 1_655 S
C71 C69 1.485 . S
C71 H75 0.913 1_455 S
C71 H76 0.999 . S
C71 H77 0.970 . S
H72 C68 0.960 1_455 S
H73 C68 0.961 . S
H74 C68 0.960 . S
H75 C71 0.913 1_655 S
H76 C71 0.999 . S
H77 C71 0.970 . S
C78 N79 1.317 . S
C78 N80 1.350 . S
C78 C81 1.485 1_554 S
N79 C78 1.317 . S
N79 N83 1.370 . S
N80 C78 1.350 . S
N80 C82 1.345 1_565 S
C81 C78 1.485 1_556 S
C81 H85 0.960 1_565 S
C81 H86 0.961 . S
C81 H87 0.960 . S
C82 N80 1.345 1_545 S
C82 N83 1.307 1_545 S
C82 C84 1.485 . S
N83 N79 1.370 . S
N83 C82 1.307 1_565 S
C84 C82 1.485 . S
C84 H88 0.913 1_545 S
C84 H89 0.999 . S
C84 H90 0.970 . S
H85 C81 0.960 1_545 S
H86 C81 0.961 . S
H87 C81 0.960 . S
H88 C84 0.913 1_565 S
H89 C84 0.999 . S
H90 C84 0.970 . S
C91 N92 1.316 1_556 S
C91 N93 1.342 1_556 S
C91 C94 1.491 . S
N92 C91 1.316 1_554 S
N92 N96 1.370 . S
N93 C91 1.342 1_554 S
N93 C95 1.346 . S
C94 C91 1.491 . S
C94 H98 0.960 . S
C94 H99 0.961 . S
C94 H100 0.960 . S
C95 N93 1.346 . S
C95 N96 1.307 . S
C95 C97 1.486 . S
N96 N92 1.370 . S
N96 C95 1.307 . S
C97 C95 1.486 . S
C97 H101 0.960 . S
C97 H102 0.960 . S
C97 H103 0.959 . S
H98 C94 0.960 . S
H99 C94 0.961 . S
H100 C94 0.960 . S
H101 C97 0.960 . S
H102 C97 0.960 . S
H103 C97 0.959 . S
C104 Eu105 2.835 . S
C104 C106 1.500 . S
C104 O124 1.277 . S
C104 O125 1.260 . S
Eu105 C104 2.835 . S
Eu105 O124 2.481 . S
Eu105 O125 2.480 . S
Eu105 O126 2.430 . S
Eu105 O127 2.670 1_545 S
Eu105 O128 2.394 . S
Eu105 O133 2.355 1_655 S
Eu105 O135 2.374 1_545 S
C106 C104 1.500 . S
C106 C107 1.377 . S
C106 C111 1.377 . S
C107 C106 1.377 . S
C107 C108 1.395 . S
C107 H136 0.931 . S
C108 C107 1.395 . S
C108 C109 1.383 . S
C108 H137 0.931 . S
C109 C108 1.383 . S
C109 C110 1.394 . S
C110 C109 1.394 . S
C110 C111 1.378 . S
C110 H138 0.931 1_655 S
C111 C106 1.377 . S
C111 C110 1.378 . S
C111 H139 0.931 1_655 S
C112 O126 1.284 . S
C112 O127 1.252 1_545 S
C113 O128 1.251 1_455 S
C113 O129 1.251 . S
C114 Eu115 2.835 . S
C114 C116 1.500 . S
C114 O130 1.289 . S
C114 O131 1.260 . S
Eu115 C114 2.835 . S
Eu115 O127 2.355 1_455 S
Eu115 O129 2.374 1_565 S
Eu115 O130 2.487 . S
Eu115 O131 2.480 . S
Eu115 O132 2.430 . S
Eu115 O133 2.670 1_565 S
Eu115 O134 2.394 . S
C116 C114 1.500 . S
C116 C117 1.377 . S
C116 C121 1.377 . S
C117 C116 1.377 . S
C117 C118 1.395 . S
C117 H140 0.931 . S
C118 C117 1.395 . S
C118 C119 1.383 1_556 S
C118 H141 0.931 . S
C119 C118 1.383 1_554 S
C119 C120 1.392 1_554 S
C120 C119 1.392 1_556 S
C120 C121 1.383 . S
C120 H142 0.927 1_456 S
C121 C116 1.377 . S
C121 C120 1.383 . S
C121 H143 0.931 1_455 S
C122 O132 1.278 . S
C122 O133 1.256 1_565 S
C123 O134 1.251 1_655 S
C123 O135 1.251 . S
O124 C104 1.277 . S
O124 Eu105 2.481 . S
O125 C104 1.260 . S
O125 Eu105 2.480 . S
O126 Eu105 2.430 . S
O126 C112 1.284 . S
O127 Eu105 2.670 1_565 S
O127 C112 1.252 1_565 S
O127 Eu115 2.355 1_655 S
O128 Eu105 2.394 . S
O128 C113 1.251 1_655 S
O129 C113 1.251 . S
O129 Eu115 2.374 1_545 S
O130 C114 1.289 . S
O130 Eu115 2.487 . S
O131 C114 1.260 . S
O131 Eu115 2.480 . S
O132 Eu115 2.430 . S
O132 C122 1.278 . S
O133 Eu105 2.355 1_455 S
O133 Eu115 2.670 1_545 S
O133 C122 1.256 1_545 S
O134 Eu115 2.394 . S
O134 C123 1.251 1_455 S
O135 Eu105 2.374 1_565 S
O135 C123 1.251 . S
H136 C107 0.931 . S
H137 C108 0.931 . S
H138 C110 0.931 1_455 S
H139 C111 0.931 1_455 S
H140 C117 0.931 . S
H141 C118 0.931 . S
H142 C120 0.927 1_654 S
H143 C121 0.931 1_655 S
C144 Eu145 2.835 . S
C144 C146 1.500 . S
C144 O164 1.270 . S
C144 O165 1.260 . S
Eu145 C144 2.835 . S
Eu145 O164 2.478 . S
Eu145 O165 2.480 . S
Eu145 O166 2.430 . S
Eu145 O167 2.670 . S
Eu145 O168 2.394 . S
Eu145 O173 2.355 1_565 S
Eu145 O175 2.374 . S
C146 C144 1.500 . S
C146 C147 1.377 . S
C146 C151 1.377 . S
C147 C146 1.377 . S
C147 C148 1.395 . S
C147 H176 0.931 . S
C148 C147 1.395 . S
C148 C149 1.383 . S
C148 H177 0.931 . S
C149 C148 1.383 . S
C149 C150 1.394 . S
C150 C149 1.394 . S
C150 C151 1.378 . S
C150 H178 0.931 1_565 S
C151 C146 1.377 . S
C151 C150 1.378 . S
C151 H179 0.931 1_565 S
C152 O166 1.259 . S
C152 O167 1.270 . S
C153 O168 1.251 1_545 S
C153 O169 1.251 . S
C154 Eu155 2.835 . S
C154 C156 1.500 . S
C154 O170 1.281 . S
C154 O171 1.260 . S
Eu155 C154 2.835 . S
Eu155 O167 2.355 1_545 S
Eu155 O169 2.374 . S
Eu155 O170 2.483 . S
Eu155 O171 2.480 . S
Eu155 O172 2.430 . S
Eu155 O173 2.670 . S
Eu155 O174 2.394 . S
C156 C154 1.500 . S
C156 C157 1.377 . S
C156 C161 1.377 . S
C157 C156 1.377 . S
C157 C158 1.395 . S
C157 H180 0.931 . S
C158 C157 1.395 . S
C158 C159 1.383 1_556 S
C158 H181 0.931 . S
C159 C158 1.383 1_554 S
C159 C160 1.394 1_554 S
C160 C159 1.394 1_556 S
C160 C161 1.378 . S
C160 H182 0.931 1_546 S
C161 C156 1.377 . S
C161 C160 1.378 . S
C161 H183 0.931 1_545 S
C162 O172 1.259 . S
C162 O173 1.270 . S
C163 O174 1.251 1_565 S
C163 O175 1.251 . S
O164 C144 1.270 . S
O164 Eu145 2.478 . S
O165 C144 1.260 . S
O165 Eu145 2.480 . S
O166 Eu145 2.430 . S
O166 C152 1.259 . S
O167 Eu145 2.670 . S
O167 C152 1.270 . S
O167 Eu155 2.355 1_565 S
O168 Eu145 2.394 . S
O168 C153 1.251 1_565 S
O169 C153 1.251 . S
O169 Eu155 2.374 . S
O170 C154 1.281 . S
O170 Eu155 2.483 . S
O171 C154 1.260 . S
O171 Eu155 2.480 . S
O172 Eu155 2.430 . S
O172 C162 1.259 . S
O173 Eu145 2.355 1_545 S
O173 Eu155 2.670 . S
O173 C162 1.270 . S
O174 Eu155 2.394 . S
O174 C163 1.251 1_545 S
O175 Eu145 2.374 . S
O175 C163 1.251 . S
H176 C147 0.931 . S
H177 C148 0.931 . S
H178 C150 0.931 1_545 S
H179 C151 0.931 1_545 S
H180 C157 0.931 . S
H181 C158 0.931 . S
H182 C160 0.931 1_564 S
H183 C161 0.931 1_565 S
C184 Eu185 2.835 . S
C184 C186 1.500 . S
C184 O204 1.257 . S
C184 O205 1.260 . S
Eu185 C184 2.835 . S
Eu185 O204 2.473 . S
Eu185 O205 2.480 . S
Eu185 O206 2.430 . S
Eu185 O207 2.670 . S
Eu185 O208 2.394 . S
Eu185 O213 2.355 . S
Eu185 O215 2.374 . S
C186 C184 1.500 . S
C186 C187 1.377 . S
C186 C191 1.377 . S
C187 C186 1.377 . S
C187 C188 1.395 . S
C187 H216 0.931 . S
C188 C187 1.395 . S
C188 C189 1.383 . S
C188 H217 0.931 . S
C189 C188 1.383 . S
C189 C190 1.394 . S
C190 C189 1.394 . S
C190 C191 1.378 . S
C190 H218 0.931 . S
C191 C186 1.377 . S
C191 C190 1.378 . S
C191 H219 0.931 . S
C192 O206 1.259 . S
C192 O207 1.270 . S
C193 O208 1.251 . S
C193 O209 1.251 . S
C194 Eu195 2.835 . S
C194 C196 1.500 . S
C194 O210 1.257 . S
C194 O211 1.260 . S
Eu195 C194 2.835 . S
Eu195 O207 2.355 . S
Eu195 O209 2.374 . S
Eu195 O210 2.473 . S
Eu195 O211 2.480 . S
Eu195 O212 2.430 . S
Eu195 O213 2.670 . S
Eu195 O214 2.394 . S
C196 C194 1.500 . S
C196 C197 1.377 . S
C196 C201 1.377 . S
C197 C196 1.377 . S
C197 C198 1.395 . S
C197 H220 0.931 . S
C198 C197 1.395 . S
C198 C199 1.383 1_556 S
C198 H221 0.931 . S
C199 C198 1.383 1_554 S
C199 C200 1.395 . S
C200 C199 1.395 . S
C200 C201 1.374 1_554 S
C200 H222 0.934 . S
C201 C196 1.377 . S
C201 C200 1.374 1_556 S
C201 H223 0.931 . S
C202 O212 1.259 . S
C202 O213 1.270 . S
C203 O214 1.251 . S
C203 O215 1.251 . S
O204 C184 1.257 . S
O204 Eu185 2.473 . S
O205 C184 1.260 . S
O205 Eu185 2.480 . S
O206 Eu185 2.430 . S
O206 C192 1.259 . S
O207 Eu185 2.670 . S
O207 C192 1.270 . S
O207 Eu195 2.355 . S
O208 Eu185 2.394 . S
O208 C193 1.251 . S
O209 C193 1.251 . S
O209 Eu195 2.374 . S
O210 C194 1.257 . S
O210 Eu195 2.473 . S
O211 C194 1.260 . S
O211 Eu195 2.480 . S
O212 Eu195 2.430 . S
O212 C202 1.259 . S
O213 Eu185 2.355 . S
O213 Eu195 2.670 . S
O213 C202 1.270 . S
O214 Eu195 2.394 . S
O214 C203 1.251 . S
O215 Eu185 2.374 . S
O215 C203 1.251 . S
H216 C187 0.931 . S
H217 C188 0.931 . S
H218 C190 0.931 . S
H219 C191 0.931 . S
H220 C197 0.931 . S
H221 C198 0.931 . S
H222 C200 0.934 . S
H223 C201 0.931 . S
C224 Eu225 2.835 . S
C224 C226 1.500 . S
C224 O244 1.257 . S
C224 O245 1.260 . S
Eu225 C224 2.835 . S
Eu225 O244 2.473 . S
Eu225 O245 2.480 . S
Eu225 O246 2.430 . S
Eu225 O247 2.670 1_455 S
Eu225 O248 2.394 . S
Eu225 O253 2.355 . S
Eu225 O255 2.374 1_455 S
C226 C224 1.500 . S
C226 C227 1.377 . S
C226 C231 1.377 . S
C227 C226 1.377 . S
C227 C228 1.395 . S
C227 H256 0.931 . S
C228 C227 1.395 . S
C228 C229 1.383 . S
C228 H257 0.931 . S
C229 C228 1.383 . S
C229 C230 1.394 . S
C230 C229 1.394 . S
C230 C231 1.378 . S
C230 H258 0.931 . S
C231 C226 1.377 . S
C231 C230 1.378 . S
C231 H259 0.931 . S
C232 O246 1.275 . S
C232 O247 1.258 1_455 S
C233 O248 1.251 . S
C233 O249 1.251 . S
C234 Eu235 2.835 . S
C234 C236 1.500 . S
C234 O250 1.257 . S
C234 O251 1.260 . S
Eu235 C234 2.835 . S
Eu235 O247 2.355 . S
Eu235 O249 2.374 1_655 S
Eu235 O250 2.473 . S
Eu235 O251 2.480 . S
Eu235 O252 2.430 . S
Eu235 O253 2.670 1_655 S
Eu235 O254 2.394 . S
C236 C234 1.500 . S
C236 C237 1.377 . S
C236 C241 1.377 . S
C237 C236 1.377 . S
C237 C238 1.395 . S
C237 H260 0.931 . S
C238 C237 1.395 . S
C238 C239 1.383 1_556 S
C238 H261 0.931 . S
C239 C238 1.383 1_554 S
C239 C240 1.394 . S
C240 C239 1.394 . S
C240 C241 1.379 1_554 S
C240 H262 0.930 . S
C241 C236 1.377 . S
C241 C240 1.379 1_556 S
C241 H263 0.931 . S
C242 O252 1.269 . S
C242 O253 1.263 1_655 S
C243 O254 1.251 . S
C243 O255 1.251 . S
O244 C224 1.257 . S
O244 Eu225 2.473 . S
O245 C224 1.260 . S
O245 Eu225 2.480 . S
O246 Eu225 2.430 . S
O246 C232 1.275 . S
O247 Eu225 2.670 1_655 S
O247 C232 1.258 1_655 S
O247 Eu235 2.355 . S
O248 Eu225 2.394 . S
O248 C233 1.251 . S
O249 C233 1.251 . S
O249 Eu235 2.374 1_455 S
O250 C234 1.257 . S
O250 Eu235 2.473 . S
O251 C234 1.260 . S
O251 Eu235 2.480 . S
O252 Eu235 2.430 . S
O252 C242 1.269 . S
O253 Eu225 2.355 . S
O253 Eu235 2.670 1_455 S
O253 C242 1.263 1_455 S
O254 Eu235 2.394 . S
O254 C243 1.251 . S
O255 Eu225 2.374 1_655 S
O255 C243 1.251 . S
H256 C227 0.931 . S
H257 C228 0.931 . S
H258 C230 0.931 . S
H259 C231 0.931 . S
H260 C237 0.931 . S
H261 C238 0.931 . S
H262 C240 0.930 . S
H263 C241 0.931 . S
C264 C265 1.347 1_565 S
C264 C266 1.327 . S
C264 H289 0.950 . S
C265 C264 1.347 1_545 S
C265 C281 1.350 . S
C266 C264 1.327 . S
C266 C285 1.423 1_565 S
C266 H290 0.950 . S
C267 C284 1.574 . S
C267 C286 1.376 . S
C267 H291 0.949 . S
H268 C272 0.949 . S
C269 C270 1.366 . S
C269 C271 1.327 . S
C269 H292 0.950 . S
C270 C269 1.366 . S
C270 C282 1.332 1_545 S
C271 C269 1.327 . S
C271 C287 1.441 . S
C271 H293 0.950 . S
C272 H268 0.949 . S
C272 C280 1.574 . S
C272 C288 1.357 1_565 S
H273 C281 0.950 . S
H274 C279 0.950 . S
H275 C280 0.949 . S
H276 C282 0.950 . S
H277 C283 0.950 . S
H278 C284 0.949 . S
C279 H274 0.950 . S
C279 C281 1.327 . S
C279 C285 1.434 . S
C280 C272 1.574 . S
C280 H275 0.949 . S
C280 C286 1.360 1_565 S
C281 C265 1.350 . S
C281 H273 0.950 . S
C281 C279 1.327 . S
C282 C270 1.332 1_565 S
C282 H276 0.950 . S
C282 C283 1.327 . S
C283 H277 0.950 . S
C283 C282 1.327 . S
C283 C287 1.416 1_565 S
C284 C267 1.574 . S
C284 H278 0.949 . S
C284 C288 1.380 . S
C285 C266 1.423 1_545 S
C285 C279 1.434 . S
C285 C286 1.523 . S
C286 C267 1.376 . S
C286 C280 1.360 1_545 S
C286 C285 1.523 . S
C287 C271 1.441 . S
C287 C283 1.416 1_545 S
C287 C288 1.523 . S
C288 C272 1.357 1_545 S
C288 C284 1.380 . S
C288 C287 1.523 . S
H289 C264 0.950 . S
H290 C266 0.950 . S
H291 C267 0.949 . S
H292 C269 0.950 . S
H293 C271 0.950 . S
C294 C295 1.349 . S
C294 C296 1.327 . S
C294 H319 0.950 . S
C295 C294 1.349 . S
C295 C311 1.349 . S
C296 C294 1.327 . S
C296 C315 1.429 . S
C296 H320 0.950 . S
C297 C314 1.574 . S
C297 C316 1.368 . S
C297 H321 0.949 . S
H298 C302 0.949 . S
C299 C300 1.349 . S
C299 C301 1.327 . S
C299 H322 0.950 . S
C300 C299 1.349 . S
C300 C312 1.349 . S
C301 C299 1.327 . S
C301 C317 1.429 . S
C301 H323 0.950 . S
C302 H298 0.949 . S
C302 C310 1.574 . S
C302 C318 1.368 . S
H303 C311 0.950 . S
H304 C309 0.950 . S
H305 C310 0.949 . S
H306 C312 0.950 . S
H307 C313 0.950 . S
H308 C314 0.949 . S
C309 H304 0.950 . S
C309 C311 1.327 . S
C309 C315 1.429 . S
C310 C302 1.574 . S
C310 H305 0.949 . S
C310 C316 1.368 . S
C311 C295 1.349 . S
C311 H303 0.950 . S
C311 C309 1.327 . S
C312 C300 1.349 . S
C312 H306 0.950 . S
C312 C313 1.327 . S
C313 H307 0.950 . S
C313 C312 1.327 . S
C313 C317 1.429 . S
C314 C297 1.574 . S
C314 H308 0.949 . S
C314 C318 1.368 . S
C315 C296 1.429 . S
C315 C309 1.429 . S
C315 C316 1.523 . S
C316 C297 1.368 . S
C316 C310 1.368 . S
C316 C315 1.523 . S
C317 C301 1.429 . S
C317 C313 1.429 . S
C317 C318 1.523 . S
C318 C302 1.368 . S
C318 C314 1.368 . S
C318 C317 1.523 . S
H319 C294 0.950 . S
H320 C296 0.950 . S
H321 C297 0.949 . S
H322 C299 0.950 . S
H323 C301 0.950 . S
C324 C325 1.349 . S
C324 C326 1.327 . S
C324 H349 0.950 . S
C325 C324 1.349 . S
C325 C341 1.349 . S
C326 C324 1.327 . S
C326 C345 1.429 . S
C326 H350 0.950 . S
C327 C344 1.574 . S
C327 C346 1.368 . S
C327 H351 0.949 . S
H328 C332 0.949 . S
C329 C330 1.349 . S
C329 C331 1.327 . S
C329 H352 0.950 . S
C330 C329 1.349 . S
C330 C342 1.349 . S
C331 C329 1.327 . S
C331 C347 1.429 . S
C331 H353 0.950 . S
C332 H328 0.949 . S
C332 C340 1.574 . S
C332 C348 1.368 . S
H333 C341 0.950 . S
H334 C339 0.950 . S
H335 C340 0.949 . S
H336 C342 0.950 . S
H337 C343 0.950 . S
H338 C344 0.949 . S
C339 H334 0.950 . S
C339 C341 1.327 . S
C339 C345 1.429 . S
C340 C332 1.574 . S
C340 H335 0.949 . S
C340 C346 1.368 . S
C341 C325 1.349 . S
C341 H333 0.950 . S
C341 C339 1.327 . S
C342 C330 1.349 . S
C342 H336 0.950 . S
C342 C343 1.327 . S
C343 H337 0.950 . S
C343 C342 1.327 . S
C343 C347 1.429 . S
C344 C327 1.574 . S
C344 H338 0.949 . S
C344 C348 1.368 . S
C345 C326 1.429 . S
C345 C339 1.429 . S
C345 C346 1.523 . S
C346 C327 1.368 . S
C346 C340 1.368 . S
C346 C345 1.523 . S
C347 C331 1.429 . S
C347 C343 1.429 . S
C347 C348 1.523 . S
C348 C332 1.368 . S
C348 C344 1.368 . S
C348 C347 1.523 . S
H349 C324 0.950 . S
H350 C326 0.950 . S
H351 C327 0.949 . S
H352 C329 0.950 . S
H353 C331 0.950 . S
C354 C355 1.352 . S
C354 C356 1.327 . S
C354 H379 0.950 . S
C355 C354 1.352 . S
C355 C371 1.346 1_455 S
C356 C354 1.327 . S
C356 C375 1.438 . S
C356 H380 0.950 . S
C357 C374 1.574 . S
C357 C376 1.354 1_655 S
C357 H381 0.949 . S
H358 C362 0.949 . S
C359 C360 1.318 1_655 S
C359 C361 1.327 . S
C359 H382 0.950 . S
C360 C359 1.318 1_455 S
C360 C372 1.380 . S
C361 C359 1.327 . S
C361 C377 1.405 1_655 S
C361 H383 0.950 . S
C362 H358 0.949 . S
C362 C370 1.574 . S
C362 C378 1.390 . S
H363 C371 0.950 . S
H364 C369 0.950 . S
H365 C370 0.949 . S
H366 C372 0.950 . S
H367 C373 0.950 . S
H368 C374 0.949 . S
C369 H364 0.950 . S
C369 C371 1.327 . S
C369 C375 1.419 1_655 S
C370 C362 1.574 . S
C370 H365 0.949 . S
C370 C376 1.383 . S
C371 C355 1.346 1_655 S
C371 H363 0.950 . S
C371 C369 1.327 . S
C372 C360 1.380 . S
C372 H366 0.950 . S
C372 C373 1.327 . S
C373 H367 0.950 . S
C373 C372 1.327 . S
C373 C377 1.452 . S
C374 C357 1.574 . S
C374 H368 0.949 . S
C374 C378 1.347 1_655 S
C375 C356 1.438 . S
C375 C369 1.419 1_455 S
C375 C376 1.523 . S
C376 C357 1.354 1_455 S
C376 C370 1.383 . S
C376 C375 1.523 . S
C377 C361 1.405 1_455 S
C377 C373 1.452 . S
C377 C378 1.523 . S
C378 C362 1.390 . S
C378 C374 1.347 1_455 S
C378 C377 1.523 . S
H379 C354 0.950 . S
H380 C356 0.950 . S
H381 C357 0.949 . S
H382 C359 0.950 . S
H383 C361 0.950 . S
C384 C385 1.350 1_565 S
C384 C386 1.327 . S
C384 H409 0.950 . S
C385 C384 1.350 1_545 S
C385 C401 1.347 . S
C386 C384 1.327 . S
C386 C405 1.425 . S
C386 H410 0.950 . S
C387 C404 1.574 . S
C387 C406 1.370 1_545 S
C387 H411 0.949 . S
H388 C392 0.949 1_556 S
C389 C390 1.341 1_545 S
C389 C391 1.327 . S
C389 H412 0.950 . S
C390 C389 1.341 1_565 S
C390 C402 1.357 . S
C391 C389 1.327 . S
C391 C407 1.425 1_545 S
C391 H413 0.950 1_556 S
C392 H388 0.949 1_554 S
C392 C400 1.574 . S
C392 C408 1.370 . S
H393 C401 0.950 . S
H394 C399 0.950 . S
H395 C400 0.949 . S
H396 C402 0.950 . S
H397 C403 0.950 . S
H398 C404 0.949 . S
C399 H394 0.950 . S
C399 C401 1.327 . S
C399 C405 1.432 1_545 S
C400 C392 1.574 . S
C400 H395 0.949 . S
C400 C406 1.366 . S
C401 C385 1.347 . S
C401 H393 0.950 . S
C401 C399 1.327 . S
C402 C390 1.357 . S
C402 H396 0.950 . S
C402 C403 1.327 . S
C403 H397 0.950 . S
C403 C402 1.327 . S
C403 C407 1.432 . S
C404 C387 1.574 . S
C404 H398 0.949 . S
C404 C408 1.366 1_545 S
C405 C386 1.425 . S
C405 C399 1.432 1_565 S
C405 C406 1.523 . S
C406 C387 1.370 1_565 S
C406 C400 1.366 . S
C406 C405 1.523 . S
C407 C391 1.425 1_565 S
C407 C403 1.432 . S
C407 C408 1.523 1_556 S
C408 C392 1.370 . S
C408 C404 1.366 1_565 S
C408 C407 1.523 1_554 S
H409 C384 0.950 . S
H410 C386 0.950 . S
H411 C387 0.949 . S
H412 C389 0.950 . S
H413 C391 0.950 1_554 S
C414 C415 1.349 . S
C414 C416 1.327 . S
C414 H439 0.950 . S
C415 C414 1.349 . S
C415 C431 1.349 . S
C416 C414 1.327 . S
C416 C435 1.429 . S
C416 H440 0.950 . S
C417 C434 1.574 . S
C417 C436 1.368 . S
C417 H441 0.949 . S
H418 C422 0.949 1_556 S
C419 C420 1.349 . S
C419 C421 1.327 . S
C419 H442 0.950 . S
C420 C419 1.349 . S
C420 C432 1.349 . S
C421 C419 1.327 . S
C421 C437 1.429 . S
C421 H443 0.950 1_556 S
C422 H418 0.949 1_554 S
C422 C430 1.574 . S
C422 C438 1.368 . S
H423 C431 0.950 . S
H424 C429 0.950 . S
H425 C430 0.949 . S
H426 C432 0.950 . S
H427 C433 0.950 . S
H428 C434 0.949 . S
C429 H424 0.950 . S
C429 C431 1.327 . S
C429 C435 1.429 . S
C430 C422 1.574 . S
C430 H425 0.949 . S
C430 C436 1.368 . S
C431 C415 1.349 . S
C431 H423 0.950 . S
C431 C429 1.327 . S
C432 C420 1.349 . S
C432 H426 0.950 . S
C432 C433 1.327 . S
C433 H427 0.950 . S
C433 C432 1.327 . S
C433 C437 1.429 . S
C434 C417 1.574 . S
C434 H428 0.949 . S
C434 C438 1.368 . S
C435 C416 1.429 . S
C435 C429 1.429 . S
C435 C436 1.523 . S
C436 C417 1.368 . S
C436 C430 1.368 . S
C436 C435 1.523 . S
C437 C421 1.429 . S
C437 C433 1.429 . S
C437 C438 1.523 1_556 S
C438 C422 1.368 . S
C438 C434 1.368 . S
C438 C437 1.523 1_554 S
H439 C414 0.950 . S
H440 C416 0.950 . S
H441 C417 0.949 . S
H442 C419 0.950 . S
H443 C421 0.950 1_554 S
C444 C445 1.349 . S
C444 C446 1.327 . S
C444 H469 0.950 . S
C445 C444 1.349 . S
C445 C461 1.349 . S
C446 C444 1.327 . S
C446 C465 1.429 . S
C446 H470 0.950 . S
C447 C464 1.574 . S
C447 C466 1.368 . S
C447 H471 0.949 . S
H448 C452 0.949 . S
C449 C450 1.349 . S
C449 C451 1.327 . S
C449 H472 0.950 . S
C450 C449 1.349 . S
C450 C462 1.349 . S
C451 C449 1.327 . S
C451 C467 1.429 . S
C451 H473 0.950 . S
C452 H448 0.949 . S
C452 C460 1.574 . S
C452 C468 1.368 . S
H453 C461 0.950 . S
H454 C459 0.950 . S
H455 C460 0.949 . S
H456 C462 0.950 . S
H457 C463 0.950 1_554 S
H458 C464 0.949 1_556 S
C459 H454 0.950 . S
C459 C461 1.327 . S
C459 C465 1.429 . S
C460 C452 1.574 . S
C460 H455 0.949 . S
C460 C466 1.368 . S
C461 C445 1.349 . S
C461 H453 0.950 . S
C461 C459 1.327 . S
C462 C450 1.349 . S
C462 H456 0.950 . S
C462 C463 1.327 . S
C463 H457 0.950 1_556 S
C463 C462 1.327 . S
C463 C467 1.429 . S
C464 C447 1.574 . S
C464 H458 0.949 1_554 S
C464 C468 1.368 . S
C465 C446 1.429 . S
C465 C459 1.429 . S
C465 C466 1.523 . S
C466 C447 1.368 . S
C466 C460 1.368 . S
C466 C465 1.523 . S
C467 C451 1.429 . S
C467 C463 1.429 . S
C467 C468 1.523 1_556 S
C468 C452 1.368 . S
C468 C464 1.368 . S
C468 C467 1.523 1_554 S
H469 C444 0.950 . S
H470 C446 0.950 . S
H471 C447 0.949 . S
H472 C449 0.950 . S
H473 C451 0.950 . S
C474 C475 1.348 1_455 S
C474 C476 1.327 . S
C474 H499 0.950 . S
C475 C474 1.348 1_655 S
C475 C491 1.350 . S
C476 C474 1.327 . S
C476 C495 1.426 1_455 S
C476 H500 0.950 . S
C477 C494 1.574 . S
C477 C496 1.373 . S
C477 H501 0.949 . S
H478 C482 0.949 . S
C479 C480 1.358 . S
C479 C481 1.327 . S
C479 H502 0.950 . S
C480 C479 1.358 . S
C480 C492 1.341 1_655 S
C481 C479 1.327 . S
C481 C497 1.436 . S
C481 H503 0.950 . S
C482 H478 0.949 . S
C482 C490 1.574 . S
C482 C498 1.362 1_455 S
H483 C491 0.950 . S
H484 C489 0.950 . S
H485 C490 0.949 . S
H486 C492 0.950 . S
H487 C493 0.950 1_554 S
H488 C494 0.949 1_556 S
C489 H484 0.950 . S
C489 C491 1.327 . S
C489 C495 1.431 . S
C490 C482 1.574 . S
C490 H485 0.949 . S
C490 C496 1.364 1_455 S
C491 C475 1.350 . S
C491 H483 0.950 . S
C491 C489 1.327 . S
C492 C480 1.341 1_455 S
C492 H486 0.950 . S
C492 C493 1.327 . S
C493 H487 0.950 1_556 S
C493 C492 1.327 . S
C493 C497 1.422 1_455 S
C494 C477 1.574 . S
C494 H488 0.949 1_554 S
C494 C498 1.375 . S
C495 C476 1.426 1_655 S
C495 C489 1.431 . S
C495 C496 1.523 . S
C496 C477 1.373 . S
C496 C490 1.364 1_655 S
C496 C495 1.523 . S
C497 C481 1.436 . S
C497 C493 1.422 1_655 S
C497 C498 1.523 1_556 S
C498 C482 1.362 1_655 S
C498 C494 1.375 . S
C498 C497 1.523 1_554 S
H499 C474 0.950 . S
H500 C476 0.950 . S
H501 C477 0.949 . S
H502 C479 0.950 . S
H503 C481 0.950 . S
C504 C505 1.349 1_655 S
C504 C506 1.327 . S
C504 H529 0.950 . S
C505 C504 1.349 1_455 S
C505 C521 1.349 . S
C506 C504 1.327 . S
C506 C525 1.429 . S
C506 H530 0.950 . S
C507 C524 1.574 . S
C507 C526 1.368 . S
C507 H531 0.949 . S
H508 C512 0.949 . S
C509 C510 1.349 . S
C509 C511 1.327 . S
C509 H532 0.950 . S
C510 C509 1.349 . S
C510 C522 1.349 . S
C511 C509 1.327 . S
C511 C527 1.429 . S
C511 H533 0.950 . S
C512 H508 0.949 . S
C512 C520 1.574 . S
C512 C528 1.368 . S
H513 C521 0.950 1_556 S
H514 C519 0.950 . S
H515 C520 0.949 . S
H516 C522 0.950 . S
H517 C523 0.950 . S
H518 C524 0.949 . S
C519 H514 0.950 . S
C519 C521 1.327 1_655 S
C519 C525 1.429 . S
C520 C512 1.574 . S
C520 H515 0.949 . S
C520 C526 1.368 . S
C521 C505 1.349 . S
C521 H513 0.950 1_554 S
C521 C519 1.327 1_455 S
C522 C510 1.349 . S
C522 H516 0.950 . S
C522 C523 1.327 . S
C523 H517 0.950 . S
C523 C522 1.327 . S
C523 C527 1.429 . S
C524 C507 1.574 . S
C524 H518 0.949 . S
C524 C528 1.368 . S
C525 C506 1.429 . S
C525 C519 1.429 . S
C525 C526 1.523 . S
C526 C507 1.368 . S
C526 C520 1.368 . S
C526 C525 1.523 . S
C527 C511 1.429 . S
C527 C523 1.429 . S
C527 C528 1.523 . S
C528 C512 1.368 . S
C528 C524 1.368 . S
C528 C527 1.523 . S
H529 C504 0.950 . S
H530 C506 0.950 . S
H531 C507 0.949 . S
H532 C509 0.950 . S
H533 C511 0.950 . S
C534 C535 1.349 . S
C534 C536 1.327 . S
C534 H559 0.950 . S
C535 C534 1.349 . S
C535 C551 1.349 1_545 S
C536 C534 1.327 . S
C536 C555 1.429 1_545 S
C536 H560 0.950 . S
C537 C554 1.574 . S
C537 C556 1.368 . S
C537 H561 0.949 . S
H538 C542 0.949 . S
C539 C540 1.349 . S
C539 C541 1.327 . S
C539 H562 0.950 . S
C540 C539 1.349 . S
C540 C552 1.349 . S
C541 C539 1.327 . S
C541 C557 1.429 . S
C541 H563 0.950 . S
C542 H538 0.949 . S
C542 C550 1.574 . S
C542 C558 1.368 1_545 S
H543 C551 0.950 . S
H544 C549 0.950 . S
H545 C550 0.949 . S
H546 C552 0.950 1_545 S
H547 C553 0.950 1_545 S
H548 C554 0.949 . S
C549 H544 0.950 . S
C549 C551 1.327 . S
C549 C555 1.429 . S
C550 C542 1.574 . S
C550 H545 0.949 . S
C550 C556 1.368 1_545 S
C551 C535 1.349 1_565 S
C551 H543 0.950 . S
C551 C549 1.327 . S
C552 C540 1.349 . S
C552 H546 0.950 1_565 S
C552 C553 1.327 . S
C553 H547 0.950 1_565 S
C553 C552 1.327 . S
C553 C557 1.429 . S
C554 C537 1.574 . S
C554 H548 0.949 . S
C554 C558 1.368 . S
C555 C536 1.429 1_565 S
C555 C549 1.429 . S
C555 C556 1.523 . S
C556 C537 1.368 . S
C556 C550 1.368 1_565 S
C556 C555 1.523 . S
C557 C541 1.429 . S
C557 C553 1.429 . S
C557 C558 1.523 . S
C558 C542 1.368 1_565 S
C558 C554 1.368 . S
C558 C557 1.523 . S
H559 C534 0.950 . S
H560 C536 0.950 . S
H561 C537 0.949 . S
H562 C539 0.950 . S
H563 C541 0.950 . S
C564 C565 1.349 . S
C564 C566 1.327 . S
C564 H589 0.950 . S
C565 C564 1.349 . S
C565 C581 1.349 . S
C566 C564 1.327 . S
C566 C585 1.429 . S
C566 H590 0.950 . S
C567 C584 1.574 . S
C567 C586 1.368 . S
C567 H591 0.949 . S
H568 C572 0.949 . S
C569 C570 1.349 . S
C569 C571 1.327 . S
C569 H592 0.950 . S
C570 C569 1.349 . S
C570 C582 1.349 . S
C571 C569 1.327 . S
C571 C587 1.429 . S
C571 H593 0.950 . S
C572 H568 0.949 . S
C572 C580 1.574 . S
C572 C588 1.368 . S
H573 C581 0.950 . S
H574 C579 0.950 . S
H575 C580 0.949 . S
H576 C582 0.950 . S
H577 C583 0.950 . S
H578 C584 0.949 . S
C579 H574 0.950 . S
C579 C581 1.327 . S
C579 C585 1.429 . S
C580 C572 1.574 . S
C580 H575 0.949 . S
C580 C586 1.368 . S
C581 C565 1.349 . S
C581 H573 0.950 . S
C581 C579 1.327 . S
C582 C570 1.349 . S
C582 H576 0.950 . S
C582 C583 1.327 . S
C583 H577 0.950 . S
C583 C582 1.327 . S
C583 C587 1.429 . S
C584 C567 1.574 . S
C584 H578 0.949 . S
C584 C588 1.368 . S
C585 C566 1.429 . S
C585 C579 1.429 . S
C585 C586 1.523 . S
C586 C567 1.368 . S
C586 C580 1.368 . S
C586 C585 1.523 . S
C587 C571 1.429 . S
C587 C583 1.429 . S
C587 C588 1.523 . S
C588 C572 1.368 . S
C588 C584 1.368 . S
C588 C587 1.523 . S
H589 C564 0.950 . S
H590 C566 0.950 . S
H591 C567 0.949 . S
H592 C569 0.950 . S
H593 C571 0.950 . S
C594 C595 1.349 . S
C594 C596 1.327 . S
C594 H619 0.950 . S
C595 C594 1.349 . S
C595 C611 1.349 . S
C596 C594 1.327 . S
C596 C615 1.429 . S
C596 H620 0.950 . S
C597 C614 1.574 . S
C597 C616 1.368 . S
C597 H621 0.949 . S
H598 C602 0.949 . S
C599 C600 1.349 . S
C599 C601 1.327 . S
C599 H622 0.950 . S
C600 C599 1.349 . S
C600 C612 1.349 . S
C601 C599 1.327 . S
C601 C617 1.429 . S
C601 H623 0.950 . S
C602 H598 0.949 . S
C602 C610 1.574 . S
C602 C618 1.368 . S
H603 C611 0.950 . S
H604 C609 0.950 . S
H605 C610 0.949 . S
H606 C612 0.950 . S
H607 C613 0.950 . S
H608 C614 0.949 . S
C609 H604 0.950 . S
C609 C611 1.327 . S
C609 C615 1.429 . S
C610 C602 1.574 . S
C610 H605 0.949 . S
C610 C616 1.368 . S
C611 C595 1.349 . S
C611 H603 0.950 . S
C611 C609 1.327 . S
C612 C600 1.349 . S
C612 H606 0.950 . S
C612 C613 1.327 . S
C613 H607 0.950 . S
C613 C612 1.327 . S
C613 C617 1.429 . S
C614 C597 1.574 . S
C614 H608 0.949 . S
C614 C618 1.368 . S
C615 C596 1.429 . S
C615 C609 1.429 . S
C615 C616 1.523 . S
C616 C597 1.368 . S
C616 C610 1.368 . S
C616 C615 1.523 . S
C617 C601 1.429 . S
C617 C613 1.429 . S
C617 C618 1.523 . S
C618 C602 1.368 . S
C618 C614 1.368 . S
C618 C617 1.523 . S
H619 C594 0.950 . S
H620 C596 0.950 . S
H621 C597 0.949 . S
H622 C599 0.950 . S
H623 C601 0.950 . S
C624 C625 1.349 . S
C624 C626 1.327 . S
C624 H649 0.950 . S
C625 C624 1.349 . S
C625 C641 1.349 1_655 S
C626 C624 1.327 . S
C626 C645 1.429 1_655 S
C626 H650 0.950 . S
C627 C644 1.574 . S
C627 C646 1.368 . S
C627 H651 0.949 . S
H628 C632 0.941 1_655 S
C629 C630 1.349 . S
C629 C631 1.327 . S
C629 H652 0.950 . S
C630 C629 1.349 . S
C630 C642 1.349 1_554 S
C631 C629 1.327 . S
C631 C647 1.429 . S
C631 H653 0.950 . S
C632 H628 0.941 1_455 S
C632 C640 1.571 1_455 S
C632 C648 1.381 . S
H633 C641 0.950 . S
H634 C639 0.950 . S
H635 C640 0.949 . S
H636 C642 0.950 . S
H637 C643 0.950 1_655 S
H638 C644 0.949 . S
C639 H634 0.950 . S
C639 C641 1.327 . S
C639 C645 1.429 . S
C640 C632 1.571 1_655 S
C640 H635 0.949 . S
C640 C646 1.368 1_655 S
C641 C625 1.349 1_455 S
C641 H633 0.950 . S
C641 C639 1.327 . S
C642 C630 1.349 1_556 S
C642 H636 0.950 . S
C642 C643 1.327 1_556 S
C643 H637 0.950 1_455 S
C643 C642 1.327 1_554 S
C643 C647 1.429 . S
C644 C627 1.574 . S
C644 H638 0.949 . S
C644 C648 1.368 . S
C645 C626 1.429 1_455 S
C645 C639 1.429 . S
C645 C646 1.523 . S
C646 C627 1.368 . S
C646 C640 1.368 1_455 S
C646 C645 1.523 . S
C647 C631 1.429 . S
C647 C643 1.429 . S
C647 C648 1.523 . S
C648 C632 1.381 . S
C648 C644 1.368 . S
C648 C647 1.523 . S
H649 C624 0.950 . S
H650 C626 0.950 . S
H651 C627 0.949 . S
H652 C629 0.950 . S
H653 C631 0.950 . S
C654 C655 1.349 . S
C654 C656 1.327 . S
C654 H679 0.950 . S
C655 C654 1.349 . S
C655 C671 1.349 1_565 S
C656 C654 1.327 . S
C656 C675 1.429 1_565 S
C656 H680 0.950 . S
C657 C674 1.574 . S
C657 C676 1.368 . S
C657 H681 0.949 . S
H658 C662 0.949 . S
C659 C660 1.349 . S
C659 C661 1.327 . S
C659 H682 0.950 . S
C660 C659 1.349 . S
C660 C672 1.349 . S
C661 C659 1.327 . S
C661 C677 1.429 . S
C661 H683 0.950 . S
C662 H658 0.949 . S
C662 C670 1.574 . S
C662 C678 1.368 1_565 S
H663 C671 0.950 . S
H664 C669 0.950 . S
H665 C670 0.949 . S
H666 C672 0.929 1_566 S
H667 C673 0.950 1_565 S
H668 C674 0.949 . S
C669 H664 0.950 . S
C669 C671 1.327 . S
C669 C675 1.429 . S
C670 C662 1.574 . S
C670 H665 0.949 . S
C670 C676 1.368 1_565 S
C671 C655 1.349 1_545 S
C671 H663 0.950 . S
C671 C669 1.327 . S
C672 C660 1.349 . S
C672 H666 0.929 1_544 S
C672 C673 1.327 . S
C673 H667 0.950 1_545 S
C673 C672 1.327 . S
C673 C677 1.429 . S
C674 C657 1.574 . S
C674 H668 0.949 . S
C674 C678 1.368 . S
C675 C656 1.429 1_545 S
C675 C669 1.429 . S
C675 C676 1.523 . S
C676 C657 1.368 . S
C676 C670 1.368 1_545 S
C676 C675 1.523 . S
C677 C661 1.429 . S
C677 C673 1.429 . S
C677 C678 1.523 . S
C678 C662 1.368 1_545 S
C678 C674 1.368 . S
C678 C677 1.523 . S
H679 C654 0.950 . S
H680 C656 0.950 . S
H681 C657 0.949 . S
H682 C659 0.950 . S
H683 C661 0.950 . S
C684 C685 1.349 . S
C684 C686 1.327 . S
C684 H709 0.950 . S
C685 C684 1.349 . S
C685 C701 1.349 . S
C686 C684 1.327 . S
C686 C705 1.429 . S
C686 H710 0.950 . S
C687 C704 1.574 . S
C687 C706 1.368 . S
C687 H711 0.949 . S
H688 C692 0.949 . S
C689 C690 1.349 . S
C689 C691 1.327 . S
C689 H712 0.950 1_554 S
C690 C689 1.349 . S
C690 C702 1.349 . S
C691 C689 1.327 . S
C691 C707 1.429 . S
C691 H713 0.950 . S
C692 H688 0.949 . S
C692 C700 1.574 . S
C692 C708 1.368 . S
H693 C701 0.950 . S
H694 C699 0.950 . S
H695 C700 0.949 . S
H696 C702 0.950 . S
H697 C703 0.950 . S
H698 C704 0.949 . S
C699 H694 0.950 . S
C699 C701 1.327 . S
C699 C705 1.429 . S
C700 C692 1.574 . S
C700 H695 0.949 . S
C700 C706 1.368 . S
C701 C685 1.349 . S
C701 H693 0.950 . S
C701 C699 1.327 . S
C702 C690 1.349 . S
C702 H696 0.950 . S
C702 C703 1.327 . S
C703 H697 0.950 . S
C703 C702 1.327 . S
C703 C707 1.429 . S
C704 C687 1.574 . S
C704 H698 0.949 . S
C704 C708 1.368 . S
C705 C686 1.429 . S
C705 C699 1.429 . S
C705 C706 1.523 . S
C706 C687 1.368 . S
C706 C700 1.368 . S
C706 C705 1.523 . S
C707 C691 1.429 . S
C707 C703 1.429 . S
C707 C708 1.523 . S
C708 C692 1.368 . S
C708 C704 1.368 . S
C708 C707 1.523 . S
H709 C684 0.950 . S
H710 C686 0.950 . S
H711 C687 0.949 . S
H712 C689 0.950 1_556 S
H713 C691 0.950 . S
C714 C715 1.349 . S
C714 C716 1.327 . S
C714 H739 0.950 . S
C715 C714 1.349 . S
C715 C731 1.349 . S
C716 C714 1.327 . S
C716 C735 1.429 . S
C716 H740 0.950 . S
C717 C734 1.574 . S
C717 C736 1.368 . S
C717 H741 0.949 . S
H718 C722 0.949 . S
C719 C720 1.349 1_556 S
C719 C721 1.327 1_556 S
C719 H742 0.950 . S
C720 C719 1.349 1_554 S
C720 C732 1.349 . S
C721 C719 1.327 1_554 S
C721 C737 1.429 . S
C721 H743 0.950 1_554 S
C722 H718 0.949 . S
C722 C730 1.574 . S
C722 C738 1.368 . S
H723 C731 0.950 . S
H724 C729 0.950 . S
H725 C730 0.949 . S
H726 C732 0.950 . S
H727 C733 0.950 . S
H728 C734 0.949 . S
C729 H724 0.950 . S
C729 C731 1.327 . S
C729 C735 1.429 . S
C730 C722 1.574 . S
C730 H725 0.949 . S
C730 C736 1.368 . S
C731 C715 1.349 . S
C731 H723 0.950 . S
C731 C729 1.327 . S
C732 C720 1.349 . S
C732 H726 0.950 . S
C732 C733 1.327 . S
C733 H727 0.950 . S
C733 C732 1.327 . S
C733 C737 1.429 . S
C734 C717 1.574 . S
C734 H728 0.949 . S
C734 C738 1.368 . S
C735 C716 1.429 . S
C735 C729 1.429 . S
C735 C736 1.523 . S
C736 C717 1.368 . S
C736 C730 1.368 . S
C736 C735 1.523 . S
C737 C721 1.429 . S
C737 C733 1.429 . S
C737 C738 1.523 . S
C738 C722 1.368 . S
C738 C734 1.368 . S
C738 C737 1.523 . S
H739 C714 0.950 . S
H740 C716 0.950 . S
H741 C717 0.949 . S
H742 C719 0.950 . S
H743 C721 0.950 1_556 S
C744 C745 1.326 1_654 S
C744 C746 1.327 1_554 S
C744 H769 0.950 . S
C745 C744 1.326 1_456 S
C745 C761 1.375 . S
C746 C744 1.327 1_556 S
C746 C765 1.429 1_655 S
C746 H770 0.950 1_556 S
C747 C764 1.574 . S
C747 C766 1.368 . S
C747 H771 0.949 . S
H748 C752 0.949 . S
C749 C750 1.349 . S
C749 C751 1.327 . S
C749 H772 0.950 . S
C750 C749 1.349 . S
C750 C762 1.349 1_455 S
C751 C749 1.327 . S
C751 C767 1.429 . S
C751 H773 0.950 . S
C752 H748 0.949 . S
C752 C760 1.574 . S
C752 C768 1.368 1_655 S
H753 C761 0.950 . S
H754 C759 0.950 . S
H755 C760 0.941 1_554 S
H756 C762 0.950 . S
H757 C763 0.950 . S
H758 C764 0.949 . S
C759 H754 0.950 . S
C759 C761 1.327 . S
C759 C765 1.429 . S
C760 C752 1.574 . S
C760 H755 0.941 1_556 S
C760 C766 1.368 1_655 S
C761 C745 1.375 . S
C761 H753 0.950 . S
C761 C759 1.327 . S
C762 C750 1.349 1_655 S
C762 H756 0.950 . S
C762 C763 1.327 . S
C763 H757 0.950 . S
C763 C762 1.327 . S
C763 C767 1.429 1_655 S
C764 C747 1.574 . S
C764 H758 0.949 . S
C764 C768 1.368 . S
C765 C746 1.429 1_455 S
C765 C759 1.429 . S
C765 C766 1.523 . S
C766 C747 1.368 . S
C766 C760 1.368 1_455 S
C766 C765 1.523 . S
C767 C751 1.429 . S
C767 C763 1.429 1_455 S
C767 C768 1.523 . S
C768 C752 1.368 1_455 S
C768 C764 1.368 . S
C768 C767 1.523 . S
H769 C744 0.950 . S
H770 C746 0.950 1_554 S
H771 C747 0.949 . S
H772 C749 0.950 . S
H773 C751 0.950 . S
C774 C775 1.393 . S
C774 C776 1.327 . S
C774 H799 0.950 . S
C775 C774 1.393 . S
C775 C791 1.307 1_545 S
C776 C774 1.327 . S
C776 C795 1.429 . S
C776 H800 0.950 . S
C777 C794 1.574 . S
C777 C796 1.368 1_565 S
C777 H801 0.949 . S
H778 C782 0.949 . S
C779 C780 1.349 1_565 S
C779 C781 1.327 . S
C779 H802 0.950 . S
C780 C779 1.349 1_545 S
C780 C792 1.349 . S
C781 C779 1.327 . S
C781 C797 1.429 1_565 S
C781 H803 0.950 . S
C782 H778 0.949 . S
C782 C790 1.574 . S
C782 C798 1.368 . S
H783 C791 0.950 . S
H784 C789 0.950 . S
H785 C790 0.949 . S
H786 C792 0.950 . S
H787 C793 0.950 . S
H788 C794 0.949 . S
C789 H784 0.950 . S
C789 C791 1.327 . S
C789 C795 1.429 1_565 S
C790 C782 1.574 . S
C790 H785 0.949 . S
C790 C796 1.368 . S
C791 C775 1.307 1_565 S
C791 H783 0.950 . S
C791 C789 1.327 . S
C792 C780 1.349 . S
C792 H786 0.950 . S
C792 C793 1.327 . S
C793 H787 0.950 . S
C793 C792 1.327 . S
C793 C797 1.429 . S
C794 C777 1.574 . S
C794 H788 0.949 . S
C794 C798 1.368 1_565 S
C795 C776 1.429 . S
C795 C789 1.429 1_545 S
C795 C796 1.523 . S
C796 C777 1.368 1_545 S
C796 C790 1.368 . S
C796 C795 1.523 . S
C797 C781 1.429 1_545 S
C797 C793 1.429 . S
C797 C798 1.523 . S
C798 C782 1.368 . S
C798 C794 1.368 1_545 S
C798 C797 1.523 . S
H799 C774 0.950 . S
H800 C776 0.950 . S
H801 C777 0.949 . S
H802 C779 0.950 . S
H803 C781 0.950 . S
C804 C805 1.349 1_554 S
C804 C806 1.327 1_554 S
C804 H829 0.950 . S
C805 C804 1.349 1_556 S
C805 C821 1.349 . S
C806 C804 1.327 1_556 S
C806 C825 1.429 . S
C806 H830 0.950 1_556 S
C807 C824 1.574 . S
C807 C826 1.368 . S
C807 H831 0.949 . S
H808 C812 0.949 . S
C809 C810 1.349 . S
C809 C811 1.327 . S
C809 H832 0.950 . S
C810 C809 1.349 . S
C810 C822 1.349 . S
C811 C809 1.327 . S
C811 C827 1.429 . S
C811 H833 0.950 . S
C812 H808 0.949 . S
C812 C820 1.574 . S
C812 C828 1.368 . S
H813 C821 0.950 . S
H814 C819 0.950 . S
H815 C820 0.949 . S
H816 C822 0.950 . S
H817 C823 0.950 . S
H818 C824 0.949 . S
C819 H814 0.950 . S
C819 C821 1.327 . S
C819 C825 1.429 . S
C820 C812 1.574 . S
C820 H815 0.949 . S
C820 C826 1.368 . S
C821 C805 1.349 . S
C821 H813 0.950 . S
C821 C819 1.327 . S
C822 C810 1.349 . S
C822 H816 0.950 . S
C822 C823 1.327 . S
C823 H817 0.950 . S
C823 C822 1.327 . S
C823 C827 1.429 . S
C824 C807 1.574 . S
C824 H818 0.949 . S
C824 C828 1.368 . S
C825 C806 1.429 . S
C825 C819 1.429 . S
C825 C826 1.523 . S
C826 C807 1.368 . S
C826 C820 1.368 . S
C826 C825 1.523 . S
C827 C811 1.429 . S
C827 C823 1.429 . S
C827 C828 1.523 . S
C828 C812 1.368 . S
C828 C824 1.368 . S
C828 C827 1.523 . S
H829 C804 0.950 . S
H830 C806 0.950 1_554 S
H831 C807 0.949 . S
H832 C809 0.950 . S
H833 C811 0.950 . S
C834 C835 1.349 . S
C834 C836 1.327 . S
C834 H859 0.950 . S
C835 C834 1.349 . S
C835 C851 1.349 1_556 S
C836 C834 1.327 . S
C836 C855 1.429 . S
C836 H860 0.950 . S
C837 C854 1.574 . S
C837 C856 1.368 . S
C837 H861 0.949 . S
H838 C842 0.949 . S
C839 C840 1.349 . S
C839 C841 1.327 . S
C839 H862 0.950 . S
C840 C839 1.349 . S
C840 C852 1.349 . S
C841 C839 1.327 . S
C841 C857 1.429 . S
C841 H863 0.950 . S
C842 H838 0.949 . S
C842 C850 1.574 . S
C842 C858 1.368 . S
H843 C851 0.950 . S
H844 C849 0.950 1_554 S
H845 C850 0.949 . S
H846 C852 0.950 . S
H847 C853 0.950 . S
H848 C854 0.949 . S
C849 H844 0.950 1_556 S
C849 C851 1.327 1_556 S
C849 C855 1.429 . S
C850 C842 1.574 . S
C850 H845 0.949 . S
C850 C856 1.368 . S
C851 C835 1.349 1_554 S
C851 H843 0.950 . S
C851 C849 1.327 1_554 S
C852 C840 1.349 . S
C852 H846 0.950 . S
C852 C853 1.327 . S
C853 H847 0.950 . S
C853 C852 1.327 . S
C853 C857 1.429 . S
C854 C837 1.574 . S
C854 H848 0.949 . S
C854 C858 1.368 . S
C855 C836 1.429 . S
C855 C849 1.429 . S
C855 C856 1.523 . S
C856 C837 1.368 . S
C856 C850 1.368 . S
C856 C855 1.523 . S
C857 C841 1.429 . S
C857 C853 1.429 . S
C857 C858 1.523 . S
C858 C842 1.368 . S
C858 C854 1.368 . S
C858 C857 1.523 . S
H859 C834 0.950 . S
H860 C836 0.950 . S
H861 C837 0.949 . S
H862 C839 0.950 . S
H863 C841 0.950 . S
C864 C865 1.324 1_455 S
C864 C866 1.327 . S
C864 H889 0.950 . S
C865 C864 1.324 1_655 S
C865 C881 1.377 . S
C866 C864 1.327 . S
C866 C885 1.429 1_455 S
C866 H890 0.950 . S
C867 C884 1.574 . S
C867 C886 1.368 . S
C867 H891 0.949 . S
H868 C872 0.949 . S
C869 C870 1.349 . S
C869 C871 1.327 . S
C869 H892 0.950 . S
C870 C869 1.349 . S
C870 C882 1.349 1_655 S
C871 C869 1.327 . S
C871 C887 1.429 . S
C871 H893 0.950 . S
C872 H868 0.949 . S
C872 C880 1.574 . S
C872 C888 1.368 1_455 S
H873 C881 0.950 . S
H874 C879 0.950 . S
H875 C880 0.949 . S
H876 C882 0.950 . S
H877 C883 0.950 . S
H878 C884 0.949 . S
C879 H874 0.950 . S
C879 C881 1.327 . S
C879 C885 1.429 . S
C880 C872 1.574 . S
C880 H875 0.949 . S
C880 C886 1.368 1_455 S
C881 C865 1.377 . S
C881 H873 0.950 . S
C881 C879 1.327 . S
C882 C870 1.349 1_455 S
C882 H876 0.950 . S
C882 C883 1.327 . S
C883 H877 0.950 . S
C883 C882 1.327 . S
C883 C887 1.429 1_455 S
C884 C867 1.574 . S
C884 H878 0.949 . S
C884 C888 1.368 . S
C885 C866 1.429 1_655 S
C885 C879 1.429 . S
C885 C886 1.523 . S
C886 C867 1.368 . S
C886 C880 1.368 1_655 S
C886 C885 1.523 . S
C887 C871 1.429 . S
C887 C883 1.429 1_655 S
C887 C888 1.523 . S
C888 C872 1.368 1_655 S
C888 C884 1.368 . S
C888 C887 1.523 . S
H889 C864 0.950 . S
H890 C866 0.950 . S
H891 C867 0.949 . S
H892 C869 0.950 . S
H893 C871 0.950 . S
C894 C895 1.381 . S
C894 C896 1.327 . S
C894 H919 0.950 . S
C895 C894 1.381 . S
C895 C911 1.318 1_565 S
C896 C894 1.327 . S
C896 C915 1.429 . S
C896 H920 0.950 . S
C897 C914 1.574 . S
C897 C916 1.368 1_545 S
C897 H921 0.949 . S
H898 C902 0.949 . S
C899 C900 1.349 1_545 S
C899 C901 1.327 . S
C899 H922 0.950 . S
C900 C899 1.349 1_565 S
C900 C912 1.349 . S
C901 C899 1.327 . S
C901 C917 1.429 1_545 S
C901 H923 0.950 . S
C902 H898 0.949 . S
C902 C910 1.574 . S
C902 C918 1.368 . S
H903 C911 0.950 . S
H904 C909 0.950 . S
H905 C910 0.949 . S
H906 C912 0.950 . S
H907 C913 0.950 . S
H908 C914 0.949 . S
C909 H904 0.950 . S
C909 C911 1.327 . S
C909 C915 1.429 1_545 S
C910 C902 1.574 . S
C910 H905 0.949 . S
C910 C916 1.368 . S
C911 C895 1.318 1_545 S
C911 H903 0.950 . S
C911 C909 1.327 . S
C912 C900 1.349 . S
C912 H906 0.950 . S
C912 C913 1.327 . S
C913 H907 0.950 . S
C913 C912 1.327 . S
C913 C917 1.429 . S
C914 C897 1.574 . S
C914 H908 0.949 . S
C914 C918 1.368 1_545 S
C915 C896 1.429 . S
C915 C909 1.429 1_565 S
C915 C916 1.523 . S
C916 C897 1.368 1_565 S
C916 C910 1.368 . S
C916 C915 1.523 . S
C917 C901 1.429 1_565 S
C917 C913 1.429 . S
C917 C918 1.523 . S
C918 C902 1.368 . S
C918 C914 1.368 1_565 S
C918 C917 1.523 . S
H919 C894 0.950 . S
H920 C896 0.950 . S
H921 C897 0.949 . S
H922 C899 0.950 . S
H923 C901 0.950 . S
C924 C925 1.349 . S
C924 C926 1.327 . S
C924 H949 0.950 . S
C925 C924 1.349 . S
C925 C941 1.349 . S
C926 C924 1.327 . S
C926 C945 1.429 . S
C926 H950 0.950 . S
C927 C944 1.574 . S
C927 C946 1.368 . S
C927 H951 0.949 . S
H928 C932 0.949 . S
C929 C930 1.349 . S
C929 C931 1.327 . S
C929 H952 0.950 . S
C930 C929 1.349 . S
C930 C942 1.349 . S
C931 C929 1.327 . S
C931 C947 1.429 . S
C931 H953 0.950 . S
C932 H928 0.949 . S
C932 C940 1.574 . S
C932 C948 1.368 . S
H933 C941 0.950 . S
H934 C939 0.950 . S
H935 C940 0.949 . S
H936 C942 0.950 . S
H937 C943 0.950 . S
H938 C944 0.949 . S
C939 H934 0.950 . S
C939 C941 1.327 . S
C939 C945 1.429 . S
C940 C932 1.574 . S
C940 H935 0.949 . S
C940 C946 1.368 . S
C941 C925 1.349 . S
C941 H933 0.950 . S
C941 C939 1.327 . S
C942 C930 1.349 . S
C942 H936 0.950 . S
C942 C943 1.327 . S
C943 H937 0.950 . S
C943 C942 1.327 . S
C943 C947 1.429 . S
C944 C927 1.574 . S
C944 H938 0.949 . S
C944 C948 1.368 . S
C945 C926 1.429 . S
C945 C939 1.429 . S
C945 C946 1.523 . S
C946 C927 1.368 . S
C946 C940 1.368 . S
C946 C945 1.523 . S
C947 C931 1.429 . S
C947 C943 1.429 . S
C947 C948 1.523 . S
C948 C932 1.368 . S
C948 C944 1.368 . S
C948 C947 1.523 . S
H949 C924 0.950 . S
H950 C926 0.950 . S
H951 C927 0.949 . S
H952 C929 0.950 . S
H953 C931 0.950 . S
C954 C955 1.349 . S
C954 C956 1.327 . S
C954 H979 0.950 . S
C955 C954 1.349 . S
C955 C971 1.349 . S
C956 C954 1.327 . S
C956 C975 1.429 . S
C956 H980 0.950 . S
C957 C974 1.574 . S
C957 C976 1.368 . S
C957 H981 0.949 . S
H958 C962 0.949 . S
C959 C960 1.349 . S
C959 C961 1.327 . S
C959 H982 0.950 . S
C960 C959 1.349 . S
C960 C972 1.349 . S
C961 C959 1.327 . S
C961 C977 1.429 . S
C961 H983 0.950 . S
C962 H958 0.949 . S
C962 C970 1.574 . S
C962 C978 1.368 . S
H963 C971 0.950 . S
H964 C969 0.950 . S
H965 C970 0.949 . S
H966 C972 0.950 . S
H967 C973 0.950 . S
H968 C974 0.949 . S
C969 H964 0.950 . S
C969 C971 1.327 . S
C969 C975 1.429 . S
C970 C962 1.574 . S
C970 H965 0.949 . S
C970 C976 1.368 . S
C971 C955 1.349 . S
C971 H963 0.950 . S
C971 C969 1.327 . S
C972 C960 1.349 . S
C972 H966 0.950 . S
C972 C973 1.327 . S
C973 H967 0.950 . S
C973 C972 1.327 . S
C973 C977 1.429 . S
C974 C957 1.574 . S
C974 H968 0.949 . S
C974 C978 1.368 . S
C975 C956 1.429 . S
C975 C969 1.429 . S
C975 C976 1.523 . S
C976 C957 1.368 . S
C976 C970 1.368 . S
C976 C975 1.523 . S
C977 C961 1.429 . S
C977 C973 1.429 . S
C977 C978 1.523 . S
C978 C962 1.368 . S
C978 C974 1.368 . S
C978 C977 1.523 . S
H979 C954 0.950 . S
H980 C956 0.950 . S
H981 C957 0.949 . S
H982 C959 0.950 . S
H983 C961 0.950 . S
C265 N80 1.822 1_545 S
C270 C122 1.861 1_545 S
C300 C162 1.873 . S
C295 N93 1.824 . S
C330 C202 1.877 . S
C325 N54 1.834 . S
C360 C242 1.869 1_455 S
C355 N67 1.827 1_455 S
C390 C112 1.866 1_565 S
C385 N28 1.828 1_545 S
C415 N41 1.828 . S
C420 C152 1.876 . S
C445 N2 1.833 . S
C450 C192 1.877 . S
C475 N15 1.828 . S
C480 C232 1.871 1_655 S
C510 C109 0.264 . S
C505 N70 0.225 1_455 S
C540 C149 0.270 . S
C535 N83 0.239 1_545 S
C570 C189 0.275 . S
C565 N96 0.244 . S
C595 N57 0.235 . S
C600 C229 0.266 . S
C625 N18 0.225 . S
C630 C119 0.259 . S
C660 C159 0.270 . S
C655 N31 0.231 . S
C690 C199 0.275 . S
C685 N44 0.237 . S
C715 N5 0.227 . S
C720 C239 0.272 . S
C745 N66 2.015 1_456 S
C750 C113 2.065 . S
C775 N79 1.997 1_546 S
C780 C153 2.053 . S
C810 C193 2.042 . S
C805 N92 1.989 1_556 S
C840 C233 2.060 . S
C835 N53 2.001 1_556 S
C865 N14 2.015 . S
C870 C123 2.079 . S
C900 C163 2.053 . S
C895 N27 1.997 . S
C930 C203 2.041 . S
C925 N40 1.983 . S
C955 N1 2.002 . S
C960 C243 2.066 . S
