# Generated by pormake.
# Topology pyr, (3,6)-cn, num edge types: 1
# Building blocks:
#     Node 0, Type 0, BuildingBlock: BETDIP_clean_linker_0, # of connection points: 3
#     Node 1, Type 0, BuildingBlock: BETDIP_clean_linker_0, # of connection points: 3
#     Node 2, Type 0, BuildingBlock: BETDIP_clean_linker_0, # of connection points: 3
#     Node 3, Type 0, BuildingBlock: BETDIP_clean_linker_0, # of connection points: 3
#     Node 4, Type 0, BuildingBlock: BETDIP_clean_linker_0, # of connection points: 3
#     Node 5, Type 0, BuildingBlock: BETDIP_clean_linker_0, # of connection points: 3
#     Node 6, Type 0, BuildingBlock: BETDIP_clean_linker_0, # of connection points: 3
#     Node 7, Type 0, BuildingBlock: BETDIP_clean_linker_0, # of connection points: 3
#     Node 8, Type 1, BuildingBlock: BETDIP_clean_sbu_0, # of connection points: 6
#     Node 9, Type 1, BuildingBlock: BETDIP_clean_sbu_0, # of connection points: 6
#     Node 10, Type 1, BuildingBlock: BETDIP_clean_sbu_0, # of connection points: 6
#     Node 11, Type 1, BuildingBlock: BETDIP_clean_sbu_0, # of connection points: 6
#     Edge 12, Type (0, 1), BuildingBlock: XIVTED_clean_linker_0, # of connection points: 2
#     Edge 13, Type (0, 1), BuildingBlock: XIVTED_clean_linker_0, # of connection points: 2
#     Edge 14, Type (0, 1), BuildingBlock: XIVTED_clean_linker_0, # of connection points: 2
#     Edge 15, Type (0, 1), BuildingBlock: XIVTED_clean_linker_0, # of connection points: 2
#     Edge 16, Type (0, 1), BuildingBlock: XIVTED_clean_linker_0, # of connection points: 2
#     Edge 17, Type (0, 1), BuildingBlock: XIVTED_clean_linker_0, # of connection points: 2
#     Edge 18, Type (0, 1), BuildingBlock: XIVTED_clean_linker_0, # of connection points: 2
#     Edge 19, Type (0, 1), BuildingBlock: XIVTED_clean_linker_0, # of connection points: 2
#     Edge 20, Type (0, 1), BuildingBlock: XIVTED_clean_linker_0, # of connection points: 2
#     Edge 21, Type (0, 1), BuildingBlock: XIVTED_clean_linker_0, # of connection points: 2
#     Edge 22, Type (0, 1), BuildingBlock: XIVTED_clean_linker_0, # of connection points: 2
#     Edge 23, Type (0, 1), BuildingBlock: XIVTED_clean_linker_0, # of connection points: 2
#     Edge 24, Type (0, 1), BuildingBlock: XIVTED_clean_linker_0, # of connection points: 2
#     Edge 25, Type (0, 1), BuildingBlock: XIVTED_clean_linker_0, # of connection points: 2
#     Edge 26, Type (0, 1), BuildingBlock: XIVTED_clean_linker_0, # of connection points: 2
#     Edge 27, Type (0, 1), BuildingBlock: XIVTED_clean_linker_0, # of connection points: 2
#     Edge 28, Type (0, 1), BuildingBlock: XIVTED_clean_linker_0, # of connection points: 2
#     Edge 29, Type (0, 1), BuildingBlock: XIVTED_clean_linker_0, # of connection points: 2
#     Edge 30, Type (0, 1), BuildingBlock: XIVTED_clean_linker_0, # of connection points: 2
#     Edge 31, Type (0, 1), BuildingBlock: XIVTED_clean_linker_0, # of connection points: 2
#     Edge 32, Type (0, 1), BuildingBlock: XIVTED_clean_linker_0, # of connection points: 2
#     Edge 33, Type (0, 1), BuildingBlock: XIVTED_clean_linker_0, # of connection points: 2
#     Edge 34, Type (0, 1), BuildingBlock: XIVTED_clean_linker_0, # of connection points: 2
#     Edge 35, Type (0, 1), BuildingBlock: XIVTED_clean_linker_0, # of connection points: 2
# Relax obj value: 0.168
# Max RMSD: 0.237
# Mean RMSD: 0.149
data_MOF--net-pyr--node1-BETDIP_clean_sbu_0--node2-BETDIP_clean_linker_0--edge1-XIVTED_clean_linker_0
_symmetry_space_group_name_H-M    P1
_symmetry_Int_Tables_number       1
_symmetry_cell_setting            triclinic
loop_
_symmetry_equiv_pos_as_xyz
'x, y, z'
_cell_length_a     35.981651
_cell_length_b     39.06036
_cell_length_c     39.269577
_cell_angle_alpha  89.133336
_cell_angle_beta   90.836808
_cell_angle_gamma 110.29729
loop_
_atom_site_label
_atom_site_type_symbol
_atom_site_fract_x
_atom_site_fract_y
_atom_site_fract_z
_atom_type_partial_charge
H0 H 0.33337 0.2968 0.27992 0.0
H1 H 0.37935 0.28893 0.18134 0.0
H2 H 0.40043 0.22603 0.26525 0.0
H3 H 0.36372 0.34029 0.16899 0.0
C4 C 0.33731 0.33498 0.18421 0.0
C5 C 0.35161 0.28663 0.2641 0.0
C6 C 0.36711 0.26067 0.27719 0.0
C7 C 0.35628 0.2974 0.22986 0.0
C8 C 0.3771 0.28221 0.20824 0.0
C9 C 0.39333 0.25658 0.221 0.0
C10 C 0.38896 0.2466 0.25562 0.0
N11 N 0.33516 0.31977 0.21749 0.0
H12 H 0.11282 0.75535 0.77795 0.0
H13 H 0.15044 0.71812 0.68686 0.0
H14 H 0.21661 0.7244 0.77962 0.0
H15 H 0.12581 0.75617 0.66144 0.0
C16 C 0.10515 0.76268 0.67772 0.0
C17 C 0.133 0.74461 0.76543 0.0
C18 C 0.16473 0.73969 0.78368 0.0
C19 C 0.1287 0.73861 0.73033 0.0
C20 C 0.15441 0.72433 0.71368 0.0
C21 C 0.18578 0.71835 0.73155 0.0
C22 C 0.19075 0.72632 0.76644 0.0
N23 N 0.101 0.75088 0.71233 0.0
H24 H 0.69337 0.43135 0.85151 0.0
H25 H 0.59461 0.33167 0.83492 0.0
H26 H 0.67823 0.33781 0.91616 0.0
H27 H 0.59043 0.35787 0.78257 0.0
C28 C 0.60411 0.3873 0.78437 0.0
C29 C 0.67718 0.40316 0.8583 0.0
C30 C 0.69008 0.38704 0.88631 0.0
C31 C 0.64314 0.38366 0.83912 0.0
C32 C 0.62129 0.347 0.84873 0.0
C33 C 0.63407 0.33008 0.87657 0.0
C34 C 0.66843 0.3505 0.89479 0.0
N35 N 0.63182 0.40264 0.81139 0.0
H36 H 0.83052 0.6687 0.34247 0.0
H37 H 0.93824 0.76249 0.34532 0.0
H38 H 0.84815 0.74899 0.42034 0.0
H39 H 0.84489 0.67779 0.28311 0.0
C40 C 0.87603 0.68068 0.28418 0.0
C41 C 0.84861 0.69417 0.35394 0.0
C42 C 0.83479 0.70655 0.38304 0.0
C43 C 0.88579 0.71454 0.33983 0.0
C44 C 0.90943 0.74719 0.35573 0.0
C45 C 0.89612 0.75995 0.38495 0.0
C46 C 0.85874 0.73938 0.39801 0.0
N47 N 0.90059 0.70221 0.31053 0.0
H48 H 0.59078 0.75843 0.93286 0.0
H49 H 0.65856 0.74701 0.84739 0.0
H50 H 0.61063 0.83357 0.84824 0.0
H51 H 0.62789 0.68355 0.86498 0.0
C52 C 0.63912 0.69056 0.89075 0.0
C53 C 0.60248 0.76708 0.90765 0.0
C54 C 0.59747 0.79778 0.89203 0.0
C55 C 0.62296 0.74767 0.891 0.0
C56 C 0.64012 0.7602 0.85912 0.0
C57 C 0.63636 0.79152 0.84369 0.0
C58 C 0.61379 0.80936 0.85986 0.0
N59 N 0.62952 0.71796 0.90814 0.0
H60 H 0.84523 0.26038 0.33942 0.0
H61 H 0.84835 0.31381 0.43479 0.0
H62 H 0.78696 0.33889 0.34851 0.0
H63 H 0.90041 0.29341 0.44647 0.0
C64 C 0.89264 0.26798 0.43263 0.0
C65 C 0.83845 0.28077 0.35404 0.0
C66 C 0.81521 0.29957 0.33958 0.0
C67 C 0.85111 0.28606 0.38797 0.0
C68 C 0.8403 0.31063 0.40807 0.0
C69 C 0.81747 0.33017 0.39374 0.0
C70 C 0.80556 0.32477 0.3594 0.0
N71 N 0.87141 0.26346 0.40135 0.0
H72 H 0.31661 0.6549 0.2292 0.0
H73 H 0.41705 0.75461 0.23994 0.0
H74 H 0.3312 0.74392 0.15945 0.0
H75 H 0.43093 0.72788 0.28819 0.0
C76 C 0.41096 0.69994 0.29131 0.0
C77 C 0.33315 0.68245 0.22071 0.0
C78 C 0.32031 0.69669 0.19151 0.0
C79 C 0.36765 0.70287 0.23884 0.0
C80 C 0.39 0.73871 0.22698 0.0
C81 C 0.37759 0.75362 0.19744 0.0
C82 C 0.34226 0.73237 0.18088 0.0
N83 N 0.37845 0.68541 0.26802 0.0
H84 H 0.09925 0.30857 0.75329 0.0
H85 H 0.19284 0.41197 0.73938 0.0
H86 H 0.18611 0.32113 0.6757 0.0
H87 H 0.18503 0.40941 0.80105 0.0
C88 C 0.15302 0.40219 0.80141 0.0
C89 C 0.12554 0.32532 0.73991 0.0
C90 C 0.1405 0.3103 0.71319 0.0
C91 C 0.14511 0.36153 0.75042 0.0
C92 C 0.17896 0.38359 0.73255 0.0
C93 C 0.19364 0.36955 0.70486 0.0
C94 C 0.17464 0.33262 0.69625 0.0
N95 N 0.12938 0.3754 0.77818 0.0
Tb96 Tb 0.96788 1.00718 0.5681 0.0
Tb97 Tb 0.05887 0.04769 0.55512 0.0
C98 C 0.8975 0.96372 0.57099 0.0
C99 C 0.86914 0.94445 0.59771 0.0
C100 C 0.87293 0.9144 0.61571 0.0
C101 C 0.84578 0.89679 0.641 0.0
C102 C 0.81448 0.90897 0.64883 0.0
C103 C 0.81042 0.93864 0.63046 0.0
C104 C 0.83734 0.95605 0.60506 0.0
C105 C 0.00367 0.06328 0.60834 0.0
C106 C 0.0312 0.97601 0.60108 0.0
C107 C 0.12858 0.09228 0.55744 0.0
C108 C 0.158 0.11107 0.53177 0.0
C109 C 0.19379 0.13782 0.54162 0.0
C110 C 0.2223 0.15516 0.51721 0.0
C111 C 0.2154 0.14571 0.48268 0.0
C112 C 0.17921 0.11912 0.473 0.0
C113 C 0.15072 0.10202 0.49733 0.0
C114 C 0.02409 0.99851 0.50667 0.0
C115 C 0.99465 0.07513 0.52057 0.0
O116 O 0.92793 0.95338 0.56621 0.0
O117 O 0.90731 0.99927 0.56991 0.0
O118 O 0.01873 0.04132 0.59643 0.0
O119 O 0.9661 0.05097 0.60153 0.0
O120 O 0.99339 0.97079 0.59444 0.0
O121 O 0.06062 1.006 0.59191 0.0
O122 O 0.09722 0.10201 0.55844 0.0
O123 O 0.11956 0.05678 0.55906 0.0
O124 O 0.00975 1.01017 0.53079 0.0
O125 O 0.0616 1.01773 0.50749 0.0
O126 O 0.03044 0.08462 0.53453 0.0
O127 O 0.96844 0.0417 0.52393 0.0
H128 H 0.89695 0.9046 0.61049 0.0
H129 H 0.84976 0.87413 0.65491 0.0
H130 H 0.78626 0.94828 0.6356 0.0
H131 H 0.83337 0.97878 0.59124 0.0
H132 H 0.19976 0.14509 0.56817 0.0
H133 H 0.24997 0.17545 0.52538 0.0
H134 H 0.17277 0.11176 0.44652 0.0
H135 H 0.12306 0.08162 0.4893 0.0
Tb136 Tb 0.54461 0.05981 0.0476 0.0
Tb137 Tb 0.45554 0.02512 1.02594 0.0
C138 C 0.61408 0.10437 0.05081 0.0
C139 C 0.63721 0.13036 0.07661 0.0
C140 C 0.62246 0.15571 0.09108 0.0
C141 C 0.6441 0.17942 0.11621 0.0
C142 C 0.68074 0.17806 0.12774 0.0
C143 C 0.69572 0.15302 0.11284 0.0
C144 C 0.67416 0.12947 0.08743 0.0
C145 C 0.50521 1.00399 0.08901 0.0
C146 C 0.47946 0.08573 0.08187 0.0
C147 C 0.38519 0.98577 1.01411 0.0
C148 C 0.36058 0.94844 1.00484 0.0
C149 C 0.3742 0.92781 0.98248 0.0
C150 C 0.3478 0.89539 0.96906 0.0
C151 C 0.30746 0.88322 0.97783 0.0
C152 C 0.2948 0.90257 1.00231 0.0
C153 C 0.32117 0.93495 1.01563 0.0
C154 C 0.49677 0.08786 0.9957 0.0
C155 C 0.51933 0.99188 0.99991 0.0
O156 O 0.58456 0.11184 1.03657 0.0
O157 O 0.60476 0.06962 0.05854 0.0
O158 O 0.49317 1.01793 0.0641 0.0
O159 O 0.54234 0.02385 0.09284 0.0
O160 O 0.51743 0.0928 0.07533 0.0
O161 O 0.4506 0.05785 0.06856 0.0
O162 O 0.40088 0.99057 0.04482 0.0
O163 O 0.4094 1.00521 0.9907 0.0
O164 O 0.50919 0.06211 1.00365 0.0
O165 O 0.45946 0.07756 1.00287 0.0
O166 O 0.48148 0.98698 1.00516 0.0
O167 O 0.5488 1.02105 1.01035 0.0
H168 H 0.59403 0.15712 0.08324 0.0
H169 H 0.63198 0.19875 0.12669 0.0
H170 H 0.72357 0.15089 0.12144 0.0
H171 H 0.68605 0.11011 0.07662 0.0
H172 H 0.40462 0.93773 0.97396 0.0
H173 H 0.35844 0.88127 0.9501 0.0
H174 H 0.26406 0.89357 1.00994 0.0
H175 H 0.31025 0.95045 1.03306 0.0
Tb176 Tb 0.51112 0.58288 0.55528 0.0
Tb177 Tb 0.50468 0.51022 0.52083 0.0
C178 C 0.49673 0.64039 0.56426 0.0
C179 C 0.47105 0.65102 0.58733 0.0
C180 C 0.46554 0.68448 0.58232 0.0
C181 C 0.43629 0.69237 0.60027 0.0
C182 C 0.41175 0.66667 0.62327 0.0
C183 C 0.41864 0.63373 0.62922 0.0
C184 C 0.44812 0.62604 0.61144 0.0
C185 C 0.5353 0.541 0.59875 0.0
C186 C 0.43627 0.51019 0.56955 0.0
C187 C 0.5185 0.45539 0.50023 0.0
C188 C 0.55487 0.44672 0.49502 0.0
C189 C 0.57988 0.44501 0.52241 0.0
C190 C 0.61442 0.43726 0.51666 0.0
C191 C 0.62479 0.43146 0.48344 0.0
C192 C 0.59973 0.43315 0.45616 0.0
C193 C 0.56507 0.44053 0.46192 0.0
C194 C 0.47212 0.55248 0.48677 0.0
C195 C 0.584 0.58049 0.51366 0.0
O196 O 0.47741 0.61518 0.54244 0.0
O197 O 0.5275 0.63444 0.57797 0.0
O198 O 0.5226 0.53467 0.5685 0.0
O199 O 0.53553 0.57358 0.60535 0.0
O200 O 0.45211 0.54633 0.57073 0.0
O201 O 0.45278 0.48992 0.55301 0.0
O202 O 0.50911 0.45912 0.53173 0.0
O203 O 0.51351 0.48027 0.47977 0.0
O204 O 0.50372 0.56241 0.50433 0.0
O205 O 0.45822 0.517 0.48706 0.0
O206 O 0.56708 0.54439 0.51261 0.0
O207 O 0.56619 0.60155 0.52714 0.0
H208 H 0.48291 0.70399 0.56366 0.0
H209 H 0.43236 0.7183 0.59558 0.0
H210 H 0.40015 0.61316 0.64647 0.0
H211 H 0.45196 0.59998 0.61547 0.0
H212 H 0.57294 0.44976 0.54827 0.0
H213 H 0.63327 0.43627 0.53814 0.0
H214 H 0.6066 0.4282 0.43034 0.0
H215 H 0.54623 0.44149 0.44042 0.0
Tb216 Tb 0.00629 0.56881 1.0164 0.0
Tb217 Tb 0.00501 0.5077 0.06234 0.0
C218 C 0.98798 0.614 0.97956 0.0
C219 C 0.9524 0.62385 0.97501 0.0
C220 C 0.91981 0.60937 0.99663 0.0
C221 C 0.88472 0.61622 0.99007 0.0
C222 C 0.88156 0.63719 0.9615 0.0
C223 C 0.91454 0.6521 0.94026 0.0
C224 C 0.9497 0.64552 0.94702 0.0
C225 C 0.07493 0.57849 0.04819 0.0
C226 C 0.97184 0.56446 0.09141 0.0
C227 C 0.02038 0.46086 0.09918 0.0
C228 C 0.05152 0.44473 0.10229 0.0
C229 C 0.08054 0.45045 0.07726 0.0
C230 C 0.11114 0.43635 0.08177 0.0
C231 C 0.11327 0.4165 0.11151 0.0
C232 C 0.08387 0.41082 0.13638 0.0
C233 C 0.05328 0.42474 0.13174 0.0
C234 C 0.93633 0.49906 1.03069 0.0
C235 C 0.0407 0.51245 0.9879 0.0
O236 O 0.98383 0.58097 0.97015 0.0
O237 O 0.00686 0.62237 1.00868 0.0
O238 O 0.04071 0.56408 0.06017 0.0
O239 O 0.07144 0.59062 1.01784 0.0
O240 O 0.9691 0.57398 0.05914 0.0
O241 O 0.98933 0.54082 0.09956 0.0
O242 O 0.03133 0.49547 0.10656 0.0
O243 O 0.99784 0.45276 0.07193 0.0
O244 O 0.97058 0.51262 1.01863 0.0
O245 O 0.93969 0.48758 0.06131 0.0
O246 O 0.04261 0.50244 1.0201 0.0
O247 O 0.02321 0.53605 0.97952 0.0
H248 H 0.92109 0.59201 1.01801 0.0
H249 H 0.85965 0.60408 1.00665 0.0
H250 H 0.91303 0.66865 0.91825 0.0
H251 H 0.9745 0.65666 0.92995 0.0
H252 H 0.07981 0.46607 0.05446 0.0
H253 H 0.13304 0.44098 0.06198 0.0
H254 H 0.08495 0.39638 0.15992 0.0
H255 H 0.03134 0.42043 0.15148 0.0
H256 H 0.3447 0.1887 0.29605 0.0
H257 H 0.25974 0.21841 0.47547 0.0
H258 H 0.36092 0.29523 0.33638 0.0
H259 H 0.23965 0.11327 0.43058 0.0
H260 H 0.30517 0.24727 0.4291 0.0
H261 H 0.3156 0.16115 0.34965 0.0
C262 C 0.34302 0.20645 0.31643 0.0
C263 C 0.35517 0.24442 0.31154 0.0
C264 C 0.29108 0.21786 0.42959 0.0
C265 C 0.32053 0.21274 0.37292 0.0
C266 C 0.26529 0.20138 0.4561 0.0
C267 C 0.24553 0.16345 0.45659 0.0
C268 C 0.29718 0.19619 0.40352 0.0
C269 C 0.25364 0.14268 0.43079 0.0
C270 C 0.32593 0.1906 0.34701 0.0
C271 C 0.35138 0.26581 0.33882 0.0
N272 N 0.27862 0.15934 0.40522 0.0
N273 N 0.33399 0.24964 0.36823 0.0
H274 H 0.15479 0.7998 0.81201 0.0
H275 H 0.31203 0.81781 0.95689 0.0
H276 H 0.19766 0.71165 0.83633 0.0
H277 H 0.23638 0.88273 0.95248 0.0
H278 H 0.26827 0.77596 0.91551 0.0
H279 H 0.18063 0.82758 0.86609 0.0
C280 C 0.16872 0.78565 0.82896 0.0
C281 C 0.17433 0.75336 0.81912 0.0
C282 C 0.26084 0.79895 0.92421 0.0
C283 C 0.20558 0.78618 0.88101 0.0
C284 C 0.28589 0.8229 0.94766 0.0
C285 C 0.27805 0.85397 0.95793 0.0
C286 C 0.22819 0.80654 0.91056 0.0
C287 C 0.24354 0.85906 0.94547 0.0
C288 C 0.18385 0.80183 0.8599 0.0
C289 C 0.19354 0.73705 0.8423 0.0
N290 N 0.22029 0.83597 0.92205 0.0
N291 N 0.20916 0.754 0.87187 0.0
H292 H 0.62836 0.46291 0.77903 0.0
H293 H 0.52255 0.46636 0.5966 0.0
H294 H 0.56033 0.36501 0.72592 0.0
H295 H 0.57466 0.56115 0.65892 0.0
H296 H 0.54023 0.42898 0.6408 0.0
H297 H 0.61301 0.49938 0.73311 0.0
C298 C 0.61026 0.449 0.75771 0.0
C299 C 0.59563 0.41065 0.75654 0.0
C300 C 0.54798 0.45801 0.64472 0.0
C301 C 0.57791 0.4526 0.70328 0.0
C302 C 0.5381 0.47942 0.61927 0.0
C303 C 0.5473 0.51712 0.62374 0.0
C304 C 0.56745 0.47436 0.67492 0.0
C305 C 0.56694 0.53227 0.65417 0.0
C306 C 0.60142 0.46991 0.73139 0.0
C307 C 0.57224 0.39444 0.72803 0.0
N308 N 0.57632 0.51104 0.67834 0.0
N309 N 0.56421 0.41534 0.70267 0.0
H310 H 0.94735 0.66855 0.2807 0.0
H311 H 0.91761 0.60007 0.08738 0.0
H312 H 0.84109 0.65719 0.22288 0.0
H313 H 0.99253 0.56903 0.15907 0.0
H314 H 0.89505 0.62927 0.13395 0.0
H315 H 0.97063 0.64053 0.23359 0.0
C316 C 0.92907 0.66045 0.25802 0.0
C317 C 0.89221 0.66527 0.25572 0.0
C318 C 0.91638 0.61599 0.13944 0.0
C319 C 0.91881 0.63347 0.20157 0.0
C320 C 0.92931 0.59935 0.11284 0.0
C321 C 0.95684 0.58176 0.11924 0.0
C322 C 0.93169 0.61583 0.17261 0.0
C323 C 0.971 0.58188 0.15288 0.0
C324 C 0.94227 0.64429 0.23121 0.0
C325 C 0.86968 0.65397 0.22574 0.0
N326 N 0.95854 0.5988 0.17813 0.0
N327 N 0.88337 0.63887 0.19984 0.0
H328 H 0.36102 0.22418 0.16144 0.0
H329 H 0.52731 0.1377 0.12497 0.0
H330 H 0.46201 0.24138 0.2282 0.0
H331 H 0.40704 0.09309 0.08689 0.0
H332 H 0.50888 0.18245 0.15741 0.0
H333 H 0.38357 0.18381 0.12691 0.0
C334 C 0.38838 0.21999 0.16843 0.0
C335 C 0.40977 0.23616 0.19765 0.0
C336 C 0.4866 0.16273 0.14201 0.0
C337 C 0.43534 0.18957 0.15862 0.0
C338 C 0.49703 0.1372 0.12353 0.0
C339 C 0.4686 0.11148 0.10332 0.0
C340 C 0.44769 0.16289 0.13975 0.0
C341 C 0.42986 0.11216 0.10234 0.0
C342 C 0.40096 0.19663 0.14897 0.0
C343 C 0.44463 0.22927 0.20592 0.0
N344 N 0.42063 0.13758 0.12013 0.0
N345 N 0.45638 0.20641 0.18649 0.0
H346 H 0.13186 0.80843 0.62411 0.0
H347 H 0.98284 0.91654 0.63701 0.0
H348 H 0.04733 0.78471 0.70566 0.0
H349 H 0.10251 0.96615 0.60055 0.0
H350 H 0.9993 0.86346 0.65681 0.0
H351 H 0.11363 0.86126 0.60773 0.0
C352 C 0.10918 0.8142 0.63834 0.0
C353 C 0.09122 0.79242 0.66632 0.0
C354 C 0.02192 0.88622 0.64478 0.0
C355 C 0.07016 0.85256 0.64774 0.0
C356 C 0.01263 0.91649 0.63352 0.0
C357 C 0.04139 0.94589 0.61717 0.0
C358 C 0.05983 0.88509 0.63881 0.0
C359 C 0.07946 0.94429 0.6132 0.0
C360 C 0.09903 0.84444 0.62918 0.0
C361 C 0.06203 0.80104 0.68401 0.0
N362 N 0.0874 0.91421 0.62353 0.0
N363 N 0.05222 0.83046 0.67433 0.0
H364 H 0.76252 0.43525 0.8647 0.0
H365 H 0.86116 0.46088 0.05216 0.0
H366 H 0.69966 0.38673 0.95595 0.0
H367 H 0.9266 0.50878 0.96198 0.0
H368 H 0.80088 0.43682 1.01735 0.0
H369 H 0.82167 0.46575 0.89963 0.0
C370 C 0.76095 0.43122 0.89205 0.0
C371 C 0.72591 0.40796 0.90721 0.0
C372 C 0.82832 0.45274 1.00509 0.0
C373 C 0.7939 0.44273 0.9475 0.0
C374 C 0.8628 0.46655 1.02503 0.0
C375 C 0.89908 0.48675 1.01 0.0
C376 C 0.8299 0.45903 0.96966 0.0
C377 C 0.8993 0.49329 0.97466 0.0
C378 C 0.79488 0.44851 0.912 0.0
C379 C 0.72604 0.40373 0.94288 0.0
N380 N 0.86538 0.47935 0.95571 0.0
N381 N 0.75933 0.42073 0.96164 0.0
H382 H 0.80143 0.63229 0.39544 0.0
H383 H 0.62488 0.65363 0.50551 0.0
H384 H 0.77918 0.73311 0.40707 0.0
H385 H 0.63062 0.54824 0.48078 0.0
H386 H 0.68429 0.68275 0.47226 0.0
H387 H 0.74071 0.60035 0.42747 0.0
C388 C 0.78359 0.64764 0.40432 0.0
C389 C 0.79578 0.68557 0.39881 0.0
C390 C 0.6727 0.65324 0.4741 0.0
C391 C 0.72671 0.64933 0.43601 0.0
C392 C 0.63875 0.63651 0.49335 0.0
C393 C 0.62245 0.5983 0.49607 0.0
C394 C 0.69094 0.63182 0.45734 0.0
C395 C 0.64202 0.57777 0.47948 0.0
C396 C 0.74911 0.62943 0.42284 0.0
C397 C 0.77154 0.70402 0.41123 0.0
N398 N 0.67518 0.59477 0.46082 0.0
N399 N 0.73852 0.68584 0.42933 0.0
H400 H 0.26126 0.31177 0.20719 0.0
H401 H 0.192 0.4496 0.09523 0.0
H402 H 0.33755 0.38151 0.13142 0.0
H403 H 0.11048 0.35171 0.14125 0.0
H404 H 0.2467 0.42813 0.10966 0.0
H405 H 0.20672 0.32974 0.18597 0.0
C406 C 0.26658 0.33102 0.18611 0.0
C407 C 0.30405 0.3455 0.17117 0.0
C408 C 0.21676 0.4113 0.1163 0.0
C409 C 0.2416 0.36618 0.14673 0.0
C410 C 0.18546 0.42341 0.10794 0.0
C411 C 0.1465 0.40264 0.11737 0.0
C412 C 0.20908 0.37843 0.13453 0.0
C413 C 0.14003 0.36912 0.13421 0.0
C414 C 0.23532 0.34106 0.17385 0.0
C415 C 0.30905 0.36991 0.14364 0.0
N416 N 0.171 0.35828 0.14253 0.0
N417 N 0.27821 0.37983 0.13244 0.0
H418 H 0.55386 0.29672 0.88813 0.0
H419 H 0.57244 0.11151 0.96816 0.0
H420 H 0.66381 0.27579 0.893 0.0
H421 H 0.46941 0.14265 0.97848 0.0
H422 H 0.60502 0.16867 0.93621 0.0
H423 H 0.52048 0.23701 0.91537 0.0
C424 C 0.57087 0.27936 0.89434 0.0
C425 C 0.61182 0.29159 0.8883 0.0
C426 C 0.57527 0.16298 0.9455 0.0
C427 C 0.5738 0.22301 0.92006 0.0
C428 C 0.55675 0.13039 0.96393 0.0
C429 C 0.51823 0.12231 0.97645 0.0
C430 C 0.55501 0.18758 0.93912 0.0
C431 C 0.49916 0.14766 0.96952 0.0
C432 C 0.55188 0.24534 0.91026 0.0
C433 C 0.6323 0.26781 0.89742 0.0
N434 N 0.5176 0.1789 0.95143 0.0
N435 N 0.61322 0.23494 0.91284 0.0
H436 H 0.90651 0.77243 0.45357 0.0
H437 H 0.03756 0.98497 0.44071 0.0
H438 H 0.94075 0.82686 0.3566 0.0
H439 H 0.97141 0.93359 0.52922 0.0
H440 H 0.00939 0.92693 0.40995 0.0
H441 H 0.93784 0.83041 0.48218 0.0
C442 C 0.92065 0.79658 0.43819 0.0
C443 C 0.9202 0.79463 0.40243 0.0
C444 C 1.00066 0.92851 0.43598 0.0
C445 C 0.95695 0.86167 0.43546 0.0
C446 C 0.01666 0.96157 0.45351 0.0
C447 C 0.00567 0.96436 0.48725 0.0
C448 C 0.97429 0.89774 0.45267 0.0
C449 C 0.97918 0.93312 0.50287 0.0
C450 C 0.93863 0.82979 0.45464 0.0
C451 C 0.94025 0.82691 0.38415 0.0
N452 N 0.96458 0.90117 0.48558 0.0
N453 N 0.95762 0.85912 0.40083 0.0
H454 H 0.21761 0.74076 0.66844 0.0
H455 H 0.38358 0.64896 0.6884 0.0
H456 H 0.22327 0.67151 0.75366 0.0
H457 H 0.3619 0.69904 0.59497 0.0
H458 H 0.32629 0.65856 0.71355 0.0
H459 H 0.27113 0.72664 0.64147 0.0
C460 C 0.22963 0.72212 0.68129 0.0
C461 C 0.21584 0.70734 0.71345 0.0
C462 C 0.33409 0.66741 0.68753 0.0
C463 C 0.27799 0.6918 0.683 0.0
C464 C 0.36677 0.66187 0.67311 0.0
C465 C 0.37781 0.67333 0.63951 0.0
C466 C 0.31232 0.68469 0.66831 0.0
C467 C 0.3551 0.69037 0.62115 0.0
C468 C 0.26048 0.71432 0.66597 0.0
C469 C 0.2333 0.68396 0.7291 0.0
N470 N 0.32355 0.69559 0.63581 0.0
N471 N 0.2636 0.67711 0.71383 0.0
H472 H 0.65007 0.75667 0.78723 0.0
H473 H 0.78748 0.9424 0.69836 0.0
H474 H 0.67648 0.86375 0.8302 0.0
H475 H 0.7783 0.83583 0.66256 0.0
H476 H 0.74182 0.91354 0.74415 0.0
H477 H 0.69236 0.78471 0.73875 0.0
C478 C 0.66459 0.78603 0.78643 0.0
C479 C 0.65949 0.80786 0.8128 0.0
C480 C 0.74969 0.89639 0.72629 0.0
C481 C 0.70768 0.84005 0.75741 0.0
C482 C 0.7756 0.91287 0.70002 0.0
C483 C 0.78663 0.89147 0.6766 0.0
C484 C 0.73449 0.85816 0.72917 0.0
C485 C 0.77082 0.85333 0.68029 0.0
C486 C 0.68864 0.802 0.75874 0.0
C487 C 0.67878 0.84581 0.81023 0.0
N488 N 0.74546 0.83785 0.70608 0.0
N489 N 0.70199 0.86062 0.78312 0.0
H490 H 0.73873 0.28799 0.32001 0.0
H491 H 0.76117 0.21282 0.13605 0.0
H492 H 0.85019 0.28714 0.28156 0.0
H493 H 0.64934 0.19646 0.18475 0.0
H494 H 0.79554 0.24819 0.18522 0.0
H495 H 0.70716 0.26406 0.26593 0.0
C496 C 0.75677 0.28344 0.29994 0.0
C497 C 0.79716 0.28947 0.30535 0.0
C498 C 0.76347 0.23704 0.18494 0.0
C499 C 0.76091 0.2612 0.24355 0.0
C500 C 0.74382 0.21668 0.157 0.0
C501 C 0.70225 0.20147 0.15626 0.0
C502 C 0.74138 0.24232 0.21226 0.0
C503 C 0.68134 0.20799 0.18388 0.0
C504 C 0.7386 0.26941 0.26916 0.0
C505 C 0.81885 0.28243 0.27857 0.0
N506 N 0.70113 0.22777 0.21075 0.0
N507 N 0.80038 0.26841 0.24886 0.0
H508 H 0.36905 0.62787 0.30981 0.0
H509 H 0.50965 0.62564 0.47163 0.0
H510 H 0.46941 0.72091 0.3401 0.0
H511 H 0.41073 0.53195 0.44015 0.0
H512 H 0.49414 0.66143 0.42505 0.0
H513 H 0.38264 0.59291 0.35798 0.0
C514 C 0.39394 0.64105 0.32655 0.0
C515 C 0.41812 0.67758 0.32066 0.0
C516 C 0.47567 0.63309 0.42836 0.0
C517 C 0.43396 0.63738 0.37638 0.0
C518 C 0.48446 0.61262 0.45513 0.0
C519 C 0.46149 0.57559 0.46004 0.0
C520 C 0.44358 0.6166 0.40603 0.0
C521 C 0.42932 0.56034 0.43751 0.0
C522 C 0.40172 0.62099 0.35417 0.0
C523 C 0.44994 0.6929 0.34349 0.0
N524 N 0.42145 0.58074 0.41164 0.0
N525 N 0.4569 0.67288 0.37012 0.0
H526 H 0.18865 0.43247 0.86057 0.0
H527 H 0.01923 0.50513 0.92043 0.0
H528 H 0.07771 0.40599 0.80591 0.0
H529 H 0.09919 0.48179 0.99237 0.0
H530 H 0.04506 0.47686 0.87548 0.0
H531 H 0.1612 0.45822 0.90643 0.0
C532 C 0.15845 0.43202 0.85826 0.0
C533 C 0.1354 0.41685 0.82943 0.0
C534 C 0.05691 0.47789 0.90111 0.0
C535 C 0.104 0.44706 0.88162 0.0
C536 C 0.04239 0.49426 0.92679 0.0
C537 C 0.05705 0.49595 0.96037 0.0
C538 C 0.08706 0.46375 0.90869 0.0
C539 C 0.08686 0.48104 0.96698 0.0
C540 C 0.14279 0.44665 0.88449 0.0
C541 C 0.09646 0.41713 0.82776 0.0
N542 N 0.10111 0.46592 0.94138 0.0
N543 N 0.08213 0.43231 0.8533 0.0
H544 H 0.53747 0.82097 0.87052 0.0
H545 H 0.58816 0.97789 1.00638 0.0
H546 H 0.61803 0.82782 0.9546 0.0
H547 H 0.47305 0.93816 0.95758 0.0
H548 H 0.60333 0.92699 0.98243 0.0
H549 H 0.51562 0.86681 0.89788 0.0
C550 C 0.55001 0.83175 0.89501 0.0
C551 C 0.57941 0.82066 0.91049 0.0
C552 C 0.57473 0.9294 0.97703 0.0
C553 C 0.55555 0.87345 0.94124 0.0
C554 C 0.56619 0.95864 0.99036 0.0
C555 C 0.52933 0.96234 0.98381 0.0
C556 C 0.54653 0.90401 0.95647 0.0
C557 C 0.50179 0.93627 0.96326 0.0
C558 C 0.53762 0.85782 0.91053 0.0
C559 C 0.59501 0.83546 0.94207 0.0
N560 N 0.51108 0.90829 0.95002 0.0
N561 N 0.58331 0.86154 0.9562 0.0
H562 H 0.87023 0.1973 0.41095 0.0
H563 H 0.03268 0.14897 0.52254 0.0
H564 H 0.94984 0.27325 0.48064 0.0
H565 H 0.92844 0.06669 0.48116 0.0
H566 H 0.00874 0.19623 0.50009 0.0
H567 H 0.89677 0.15051 0.42996 0.0
C568 C 0.89342 0.20418 0.43021 0.0
C569 C 0.90803 0.23925 0.44425 0.0
C570 C 0.99124 0.16783 0.49579 0.0
C571 C 0.9386 0.18581 0.46591 0.0
C572 C 0.00499 0.14079 0.50834 0.0
C573 C 0.98247 0.10374 0.50376 0.0
C574 C 0.95491 0.15784 0.4782 0.0
C575 C 0.9467 0.09488 0.48537 0.0
C576 C 0.90845 0.17739 0.44109 0.0
C577 C 0.93783 0.24651 0.46927 0.0
N578 N 0.93401 0.12176 0.47325 0.0
N579 N 0.95233 0.22004 0.47922 0.0
H580 H 0.24734 0.65052 0.21448 0.0
H581 H 0.15004 0.61641 1.02668 0.0
H582 H 0.3113 0.69237 0.12201 0.0
H583 H 0.0842 0.57085 0.11731 0.0
H584 H 0.21001 0.64181 0.06155 0.0
H585 H 0.18822 0.61841 0.18001 0.0
C586 C 0.24914 0.65274 0.18699 0.0
C587 C 0.28445 0.67465 0.17128 0.0
C588 C 0.18255 0.62612 0.07391 0.0
C589 C 0.21661 0.63806 0.13155 0.0
C590 C 0.14826 0.61155 0.05394 0.0
C591 C 0.11197 0.59158 0.06906 0.0
C592 C 0.18078 0.6209 0.10948 0.0
C593 C 0.11153 0.58609 0.10456 0.0
C594 C 0.21526 0.63453 0.1673 0.0
C595 C 0.28469 0.67652 0.13544 0.0
N596 N 0.14529 0.60083 0.12356 0.0
N597 N 0.25146 0.65873 0.11697 0.0
H598 H 0.20559 0.3669 0.63592 0.0
H599 H 0.40828 0.53512 0.62516 0.0
H600 H 0.26064 0.42659 0.72584 0.0
H601 H 0.38022 0.44272 0.55835 0.0
H602 H 0.34871 0.50277 0.6582 0.0
H603 H 0.26377 0.40153 0.60322 0.0
C604 C 0.22992 0.38702 0.64904 0.0
C605 C 0.22817 0.39298 0.68418 0.0
C606 C 0.35562 0.4897 0.63625 0.0
C607 C 0.29476 0.43398 0.64599 0.0
C608 C 0.38944 0.5082 0.61721 0.0
C609 C 0.3993 0.49164 0.58884 0.0
C610 C 0.33095 0.45468 0.62646 0.0
C611 C 0.37391 0.45651 0.58004 0.0
C612 C 0.2631 0.40701 0.63012 0.0
C613 C 0.26031 0.42085 0.69895 0.0
N614 N 0.34083 0.43934 0.59861 0.0
N615 N 0.29223 0.44029 0.6798 0.0
H616 H 0.67355 0.64969 0.85708 0.0
H617 H 0.83219 0.6559 1.00422 0.0
H618 H 0.67688 0.70252 0.95332 0.0
H619 H 0.8444 0.62976 0.89958 0.0
H620 H 0.76988 0.66505 0.98896 0.0
H621 H 0.73057 0.63342 0.87553 0.0
C622 C 0.68609 0.65751 0.88225 0.0
C623 C 0.67077 0.67765 0.9036 0.0
C624 C 0.78622 0.65727 0.96939 0.0
C625 C 0.73599 0.65937 0.92485 0.0
C626 C 0.82163 0.65193 0.97809 0.0
C627 C 0.84359 0.64238 0.95304 0.0
C628 C 0.77251 0.65257 0.9355 0.0
C629 C 0.8287 0.63769 0.91955 0.0
C630 C 0.71871 0.6484 0.8927 0.0
C631 C 0.688 0.68715 0.93598 0.0
N632 N 0.7941 0.6428 0.91178 0.0
N633 N 0.71986 0.67803 0.9456 0.0
H634 H 0.38829 0.77394 0.12983 0.0
H635 H 0.52277 0.98244 0.15187 0.0
H636 H 0.4198 0.81901 0.23024 0.0
H637 H 0.44189 0.9447 0.06734 0.0
H638 H 0.49324 0.92241 0.17979 0.0
H639 H 0.41659 0.83494 0.1053 0.0
C640 C 0.40098 0.7966 0.14695 0.0
C641 C 0.40041 0.79087 0.18255 0.0
C642 C 0.4817 0.92736 0.1553 0.0
C643 C 0.43449 0.86171 0.15382 0.0
C644 C 0.49849 0.96163 0.13932 0.0
C645 C 0.48454 0.96882 0.10731 0.0
C646 C 0.45138 0.89951 0.13877 0.0
C647 C 0.45325 0.94065 0.09216 0.0
C648 C 0.41729 0.8316 0.13271 0.0
C649 C 0.4192 0.8217 0.2028 0.0
N650 N 0.43813 0.90723 0.10779 0.0
N651 N 0.4354 0.85569 0.18819 0.0
H652 H 0.17451 0.25968 0.69648 0.0
H653 H 0.97137 0.11274 0.62858 0.0
H654 H 0.06074 0.27289 0.70338 0.0
H655 H 0.08253 0.09393 0.62806 0.0
H656 H 0.00396 0.17105 0.65647 0.0
H657 H 0.14196 0.19897 0.67246 0.0
C658 C 0.14263 0.2498 0.69305 0.0
C659 C 0.12042 0.27173 0.70183 0.0
C660 C 0.02137 0.15427 0.65039 0.0
C661 C 0.08282 0.20184 0.67421 0.0
C662 C 0.00275 0.12087 0.63441 0.0
C663 C 0.02428 0.09841 0.6258 0.0
C664 C 0.06208 0.16568 0.65794 0.0
C665 C 0.06486 0.11049 0.63399 0.0
C666 C 0.12405 0.21502 0.67939 0.0
C667 C 0.07912 0.25704 0.69726 0.0
N668 N 0.08249 0.14335 0.6495 0.0
N669 N 0.06178 0.22325 0.68358 0.0
H670 H 0.81726 0.39872 0.37944 0.0
H671 H 0.65228 0.38354 0.51835 0.0
H672 H 0.78024 0.31285 0.45521 0.0
H673 H 0.67988 0.45977 0.43385 0.0
H674 H 0.70845 0.36516 0.50324 0.0
H675 H 0.77749 0.42954 0.40722 0.0
C676 C 0.80133 0.38676 0.40237 0.0
C677 C 0.80159 0.353 0.41482 0.0
C678 C 0.70247 0.38621 0.48826 0.0
C679 C 0.7555 0.38774 0.44646 0.0
C680 C 0.67054 0.3968 0.49694 0.0
C681 C 0.6611 0.42284 0.477 0.0
C682 C 0.72518 0.40189 0.45953 0.0
C683 C 0.68563 0.43905 0.44947 0.0
C684 C 0.77852 0.40426 0.41815 0.0
C685 C 0.78082 0.33886 0.4448 0.0
N686 N 0.71631 0.42811 0.4414 0.0
N687 N 0.75804 0.356 0.45931 0.0
loop_
_geom_bond_atom_site_label_1
_geom_bond_atom_site_label_2
_geom_bond_distance
_geom_bond_site_symmetry_2
_ccdc_geom_bond_type
H0 C5 0.930 . S
H1 C8 0.930 . S
H2 C10 0.930 . S
H3 C4 1.016 . S
C4 H3 1.016 . S
C4 N11 1.286 . S
C5 H0 0.930 . S
C5 C6 1.397 . S
C5 C7 1.361 . S
C6 C5 1.397 . S
C6 C10 1.390 . S
C7 C5 1.361 . S
C7 C8 1.393 . S
C7 N11 1.413 . S
C8 H1 0.930 . S
C8 C7 1.393 . S
C8 C9 1.399 . S
C9 C8 1.399 . S
C9 C10 1.381 . S
C10 H2 0.930 . S
C10 C6 1.390 . S
C10 C9 1.381 . S
N11 C4 1.286 . S
N11 C7 1.413 . S
H12 C17 0.930 . S
H13 C20 0.930 . S
H14 C22 0.930 . S
H15 C16 1.016 . S
C16 H15 1.016 . S
C16 N23 1.286 . S
C17 H12 0.930 . S
C17 C18 1.397 . S
C17 C19 1.361 . S
C18 C17 1.397 . S
C18 C22 1.390 . S
C19 C17 1.361 . S
C19 C20 1.393 . S
C19 N23 1.413 . S
C20 H13 0.930 . S
C20 C19 1.393 . S
C20 C21 1.399 . S
C21 C20 1.399 . S
C21 C22 1.381 . S
C22 H14 0.930 . S
C22 C18 1.390 . S
C22 C21 1.381 . S
N23 C16 1.286 . S
N23 C19 1.413 . S
H24 C29 0.930 . S
H25 C32 0.930 . S
H26 C34 0.930 . S
H27 C28 1.016 . S
C28 H27 1.016 . S
C28 N35 1.286 . S
C29 H24 0.930 . S
C29 C30 1.397 . S
C29 C31 1.361 . S
C30 C29 1.397 . S
C30 C34 1.390 . S
C31 C29 1.361 . S
C31 C32 1.393 . S
C31 N35 1.413 . S
C32 H25 0.930 . S
C32 C31 1.393 . S
C32 C33 1.399 . S
C33 C32 1.399 . S
C33 C34 1.381 . S
C34 H26 0.930 . S
C34 C30 1.390 . S
C34 C33 1.381 . S
N35 C28 1.286 . S
N35 C31 1.413 . S
H36 C41 0.930 . S
H37 C44 0.930 . S
H38 C46 0.930 . S
H39 C40 1.016 . S
C40 H39 1.016 . S
C40 N47 1.286 . S
C41 H36 0.930 . S
C41 C42 1.397 . S
C41 C43 1.361 . S
C42 C41 1.397 . S
C42 C46 1.390 . S
C43 C41 1.361 . S
C43 C44 1.393 . S
C43 N47 1.413 . S
C44 H37 0.930 . S
C44 C43 1.393 . S
C44 C45 1.399 . S
C45 C44 1.399 . S
C45 C46 1.381 . S
C46 H38 0.930 . S
C46 C42 1.390 . S
C46 C45 1.381 . S
N47 C40 1.286 . S
N47 C43 1.413 . S
H48 C53 0.930 . S
H49 C56 0.930 . S
H50 C58 0.930 . S
H51 C52 1.016 . S
C52 H51 1.016 . S
C52 N59 1.286 . S
C53 H48 0.930 . S
C53 C54 1.397 . S
C53 C55 1.361 . S
C54 C53 1.397 . S
C54 C58 1.390 . S
C55 C53 1.361 . S
C55 C56 1.393 . S
C55 N59 1.413 . S
C56 H49 0.930 . S
C56 C55 1.393 . S
C56 C57 1.399 . S
C57 C56 1.399 . S
C57 C58 1.381 . S
C58 H50 0.930 . S
C58 C54 1.390 . S
C58 C57 1.381 . S
N59 C52 1.286 . S
N59 C55 1.413 . S
H60 C65 0.930 . S
H61 C68 0.930 . S
H62 C70 0.930 . S
H63 C64 1.016 . S
C64 H63 1.016 . S
C64 N71 1.286 . S
C65 H60 0.930 . S
C65 C66 1.397 . S
C65 C67 1.361 . S
C66 C65 1.397 . S
C66 C70 1.390 . S
C67 C65 1.361 . S
C67 C68 1.393 . S
C67 N71 1.413 . S
C68 H61 0.930 . S
C68 C67 1.393 . S
C68 C69 1.399 . S
C69 C68 1.399 . S
C69 C70 1.381 . S
C70 H62 0.930 . S
C70 C66 1.390 . S
C70 C69 1.381 . S
N71 C64 1.286 . S
N71 C67 1.413 . S
H72 C77 0.930 . S
H73 C80 0.930 . S
H74 C82 0.930 . S
H75 C76 1.016 . S
C76 H75 1.016 . S
C76 N83 1.286 . S
C77 H72 0.930 . S
C77 C78 1.397 . S
C77 C79 1.361 . S
C78 C77 1.397 . S
C78 C82 1.390 . S
C79 C77 1.361 . S
C79 C80 1.393 . S
C79 N83 1.413 . S
C80 H73 0.930 . S
C80 C79 1.393 . S
C80 C81 1.399 . S
C81 C80 1.399 . S
C81 C82 1.381 . S
C82 H74 0.930 . S
C82 C78 1.390 . S
C82 C81 1.381 . S
N83 C76 1.286 . S
N83 C79 1.413 . S
H84 C89 0.930 . S
H85 C92 0.930 . S
H86 C94 0.930 . S
H87 C88 1.016 . S
C88 H87 1.016 . S
C88 N95 1.286 . S
C89 H84 0.930 . S
C89 C90 1.397 . S
C89 C91 1.361 . S
C90 C89 1.397 . S
C90 C94 1.390 . S
C91 C89 1.361 . S
C91 C92 1.393 . S
C91 N95 1.413 . S
C92 H85 0.930 . S
C92 C91 1.393 . S
C92 C93 1.399 . S
C93 C92 1.399 . S
C93 C94 1.381 . S
C94 H86 0.930 . S
C94 C90 1.390 . S
C94 C93 1.381 . S
N95 C88 1.286 . S
N95 C91 1.413 . S
Tb96 C98 2.790 1_545 S
Tb96 O116 2.456 1_545 S
Tb96 O117 2.435 1_545 S
Tb96 O118 2.668 1_655 S
Tb96 O119 2.428 . S
Tb96 O120 2.357 1_545 S
Tb96 O124 2.304 1_545 S
Tb96 O127 2.364 . S
Tb97 C107 2.809 . S
Tb97 O118 2.325 . S
Tb97 O121 2.341 1_545 S
Tb97 O122 2.484 . S
Tb97 O123 2.440 . S
Tb97 O124 2.658 1_445 S
Tb97 O125 2.409 1_545 S
Tb97 O126 2.378 . S
C98 Tb96 2.790 1_565 S
C98 C99 1.514 . S
C98 O116 1.248 . S
C98 O117 1.266 . S
C99 C98 1.514 . S
C99 C100 1.359 . S
C99 C104 1.348 . S
C100 C99 1.359 . S
C100 C101 1.380 . S
C100 H128 0.929 . S
C101 C100 1.380 . S
C101 C102 1.347 . S
C101 H129 0.931 . S
C102 C101 1.347 . S
C102 C103 1.369 . S
C103 C102 1.369 . S
C103 C104 1.408 . S
C103 H130 0.930 . S
C104 C99 1.348 . S
C104 C103 1.408 . S
C104 H131 0.930 . S
C105 O118 1.281 . S
C105 O119 1.254 1_455 S
C106 O120 1.236 1_455 S
C106 O121 1.266 . S
C107 Tb97 2.809 . S
C107 C108 1.514 . S
C107 O122 1.248 . S
C107 O123 1.266 . S
C108 C107 1.514 . S
C108 C109 1.359 . S
C108 C113 1.348 . S
C109 C108 1.359 . S
C109 C110 1.380 . S
C109 H132 0.929 . S
C110 C109 1.380 . S
C110 C111 1.347 . S
C110 H133 0.931 . S
C111 C110 1.347 . S
C111 C112 1.369 . S
C112 C111 1.369 . S
C112 C113 1.408 . S
C112 H134 0.930 . S
C113 C108 1.348 . S
C113 C112 1.408 . S
C113 H135 0.930 . S
C114 O124 1.281 . S
C114 O125 1.254 1_655 S
C115 O126 1.236 1_655 S
C115 O127 1.266 . S
O116 Tb96 2.456 1_565 S
O116 C98 1.248 . S
O117 Tb96 2.435 1_565 S
O117 C98 1.266 . S
O118 Tb96 2.668 1_455 S
O118 Tb97 2.325 . S
O118 C105 1.281 . S
O119 Tb96 2.428 . S
O119 C105 1.254 1_655 S
O120 Tb96 2.357 1_565 S
O120 C106 1.236 1_655 S
O121 Tb97 2.341 1_565 S
O121 C106 1.266 . S
O122 Tb97 2.484 . S
O122 C107 1.248 . S
O123 Tb97 2.440 . S
O123 C107 1.266 . S
O124 Tb96 2.304 1_565 S
O124 Tb97 2.658 1_665 S
O124 C114 1.281 . S
O125 Tb97 2.409 1_565 S
O125 C114 1.254 1_455 S
O126 Tb97 2.378 . S
O126 C115 1.236 1_455 S
O127 Tb96 2.364 . S
O127 C115 1.266 . S
H128 C100 0.929 . S
H129 C101 0.931 . S
H130 C103 0.930 . S
H131 C104 0.930 . S
H132 C109 0.929 . S
H133 C110 0.931 . S
H134 C112 0.930 . S
H135 C113 0.930 . S
Tb136 C138 2.809 . S
Tb136 O156 2.484 . S
Tb136 O157 2.440 . S
Tb136 O158 2.658 1_545 S
Tb136 O159 2.409 1_545 S
Tb136 O160 2.378 . S
Tb136 O164 2.325 1_554 S
Tb136 O167 2.341 1_544 S
Tb137 C147 2.809 1_545 S
Tb137 O158 2.325 1_546 S
Tb137 O161 2.341 1_556 S
Tb137 O162 2.484 1_545 S
Tb137 O163 2.440 1_545 S
Tb137 O164 2.658 . S
Tb137 O165 2.409 . S
Tb137 O166 2.378 1_545 S
C138 Tb136 2.809 . S
C138 C139 1.514 . S
C138 O156 1.248 . S
C138 O157 1.266 . S
C139 C138 1.514 . S
C139 C140 1.359 . S
C139 C144 1.348 . S
C140 C139 1.359 . S
C140 C141 1.380 . S
C140 H168 0.929 . S
C141 C140 1.380 . S
C141 C142 1.347 . S
C141 H169 0.931 . S
C142 C141 1.347 . S
C142 C143 1.369 . S
C143 C142 1.369 . S
C143 C144 1.408 . S
C143 H170 0.930 . S
C144 C139 1.348 . S
C144 C143 1.408 . S
C144 H171 0.930 . S
C145 O158 1.281 . S
C145 O159 1.254 . S
C146 O160 1.236 . S
C146 O161 1.266 . S
C147 Tb137 2.809 1_565 S
C147 C148 1.514 . S
C147 O162 1.248 . S
C147 O163 1.266 . S
C148 C147 1.514 . S
C148 C149 1.359 . S
C148 C153 1.348 . S
C149 C148 1.359 . S
C149 C150 1.380 . S
C149 H172 0.929 . S
C150 C149 1.380 . S
C150 C151 1.347 . S
C150 H173 0.931 . S
C151 C150 1.347 . S
C151 C152 1.369 . S
C152 C151 1.369 . S
C152 C153 1.408 . S
C152 H174 0.930 . S
C153 C148 1.348 . S
C153 C152 1.408 . S
C153 H175 0.930 . S
C154 O164 1.281 . S
C154 O165 1.254 . S
C155 O166 1.236 . S
C155 O167 1.266 . S
O156 Tb136 2.484 . S
O156 C138 1.248 . S
O157 Tb136 2.440 . S
O157 C138 1.266 . S
O158 Tb136 2.658 1_565 S
O158 Tb137 2.325 1_564 S
O158 C145 1.281 . S
O159 Tb136 2.409 1_565 S
O159 C145 1.254 . S
O160 Tb136 2.378 . S
O160 C146 1.236 . S
O161 Tb137 2.341 1_554 S
O161 C146 1.266 . S
O162 Tb137 2.484 1_565 S
O162 C147 1.248 . S
O163 Tb137 2.440 1_565 S
O163 C147 1.266 . S
O164 Tb136 2.325 1_556 S
O164 Tb137 2.658 . S
O164 C154 1.281 . S
O165 Tb137 2.409 . S
O165 C154 1.254 . S
O166 Tb137 2.378 1_565 S
O166 C155 1.236 . S
O167 Tb136 2.341 1_566 S
O167 C155 1.266 . S
H168 C140 0.929 . S
H169 C141 0.931 . S
H170 C143 0.930 . S
H171 C144 0.930 . S
H172 C149 0.929 . S
H173 C150 0.931 . S
H174 C152 0.930 . S
H175 C153 0.930 . S
Tb176 C178 2.809 . S
Tb176 O196 2.484 . S
Tb176 O197 2.440 . S
Tb176 O198 2.658 . S
Tb176 O199 2.409 . S
Tb176 O200 2.378 . S
Tb176 O204 2.325 . S
Tb176 O207 2.341 . S
Tb177 C187 2.809 . S
Tb177 O198 2.325 . S
Tb177 O201 2.341 . S
Tb177 O202 2.484 . S
Tb177 O203 2.440 . S
Tb177 O204 2.658 . S
Tb177 O205 2.409 . S
Tb177 O206 2.378 . S
C178 Tb176 2.809 . S
C178 C179 1.514 . S
C178 O196 1.248 . S
C178 O197 1.266 . S
C179 C178 1.514 . S
C179 C180 1.359 . S
C179 C184 1.348 . S
C180 C179 1.359 . S
C180 C181 1.380 . S
C180 H208 0.929 . S
C181 C180 1.380 . S
C181 C182 1.347 . S
C181 H209 0.931 . S
C182 C181 1.347 . S
C182 C183 1.369 . S
C183 C182 1.369 . S
C183 C184 1.408 . S
C183 H210 0.930 . S
C184 C179 1.348 . S
C184 C183 1.408 . S
C184 H211 0.930 . S
C185 O198 1.281 . S
C185 O199 1.254 . S
C186 O200 1.236 . S
C186 O201 1.266 . S
C187 Tb177 2.809 . S
C187 C188 1.514 . S
C187 O202 1.248 . S
C187 O203 1.266 . S
C188 C187 1.514 . S
C188 C189 1.359 . S
C188 C193 1.348 . S
C189 C188 1.359 . S
C189 C190 1.380 . S
C189 H212 0.929 . S
C190 C189 1.380 . S
C190 C191 1.347 . S
C190 H213 0.931 . S
C191 C190 1.347 . S
C191 C192 1.369 . S
C192 C191 1.369 . S
C192 C193 1.408 . S
C192 H214 0.930 . S
C193 C188 1.348 . S
C193 C192 1.408 . S
C193 H215 0.930 . S
C194 O204 1.281 . S
C194 O205 1.254 . S
C195 O206 1.236 . S
C195 O207 1.266 . S
O196 Tb176 2.484 . S
O196 C178 1.248 . S
O197 Tb176 2.440 . S
O197 C178 1.266 . S
O198 Tb176 2.658 . S
O198 Tb177 2.325 . S
O198 C185 1.281 . S
O199 Tb176 2.409 . S
O199 C185 1.254 . S
O200 Tb176 2.378 . S
O200 C186 1.236 . S
O201 Tb177 2.341 . S
O201 C186 1.266 . S
O202 Tb177 2.484 . S
O202 C187 1.248 . S
O203 Tb177 2.440 . S
O203 C187 1.266 . S
O204 Tb176 2.325 . S
O204 Tb177 2.658 . S
O204 C194 1.281 . S
O205 Tb177 2.409 . S
O205 C194 1.254 . S
O206 Tb177 2.378 . S
O206 C195 1.236 . S
O207 Tb176 2.341 . S
O207 C195 1.266 . S
H208 C180 0.929 . S
H209 C181 0.931 . S
H210 C183 0.930 . S
H211 C184 0.930 . S
H212 C189 0.929 . S
H213 C190 0.931 . S
H214 C192 0.930 . S
H215 C193 0.930 . S
Tb216 C218 2.809 1_455 S
Tb216 O236 2.484 1_455 S
Tb216 O237 2.440 . S
Tb216 O238 2.658 1_556 S
Tb216 O239 2.409 1_556 S
Tb216 O240 2.378 1_456 S
Tb216 O244 2.325 1_455 S
Tb216 O247 2.341 . S
Tb217 C227 2.809 . S
Tb217 O238 2.325 . S
Tb217 O241 2.341 1_455 S
Tb217 O242 2.484 . S
Tb217 O243 2.440 . S
Tb217 O244 2.658 1_454 S
Tb217 O245 2.409 1_454 S
Tb217 O246 2.378 1_554 S
C218 Tb216 2.809 1_655 S
C218 C219 1.514 . S
C218 O236 1.248 . S
C218 O237 1.266 1_655 S
C219 C218 1.514 . S
C219 C220 1.359 . S
C219 C224 1.348 . S
C220 C219 1.359 . S
C220 C221 1.380 . S
C220 H248 0.929 . S
C221 C220 1.380 . S
C221 C222 1.347 . S
C221 H249 0.931 . S
C222 C221 1.347 . S
C222 C223 1.369 . S
C223 C222 1.369 . S
C223 C224 1.408 . S
C223 H250 0.930 . S
C224 C219 1.348 . S
C224 C223 1.408 . S
C224 H251 0.939 . S
C225 O238 1.281 . S
C225 O239 1.254 . S
C226 O240 1.236 . S
C226 O241 1.266 . S
C227 Tb217 2.809 . S
C227 C228 1.514 . S
C227 O242 1.248 . S
C227 O243 1.266 . S
C228 C227 1.514 . S
C228 C229 1.359 . S
C228 C233 1.348 . S
C229 C228 1.359 . S
C229 C230 1.380 . S
C229 H252 0.929 . S
C230 C229 1.380 . S
C230 C231 1.347 . S
C230 H253 0.931 . S
C231 C230 1.347 . S
C231 C232 1.369 . S
C232 C231 1.369 . S
C232 C233 1.408 . S
C232 H254 0.930 . S
C233 C228 1.348 . S
C233 C232 1.408 . S
C233 H255 0.930 . S
C234 O244 1.281 . S
C234 O245 1.254 . S
C235 O246 1.236 . S
C235 O247 1.266 . S
O236 Tb216 2.484 1_655 S
O236 C218 1.248 . S
O237 Tb216 2.440 . S
O237 C218 1.266 1_455 S
O238 Tb216 2.658 1_554 S
O238 Tb217 2.325 . S
O238 C225 1.281 . S
O239 Tb216 2.409 1_554 S
O239 C225 1.254 . S
O240 Tb216 2.378 1_654 S
O240 C226 1.236 . S
O241 Tb217 2.341 1_655 S
O241 C226 1.266 . S
O242 Tb217 2.484 . S
O242 C227 1.248 . S
O243 Tb217 2.440 . S
O243 C227 1.266 . S
O244 Tb216 2.325 1_655 S
O244 Tb217 2.658 1_656 S
O244 C234 1.281 . S
O245 Tb217 2.409 1_656 S
O245 C234 1.254 . S
O246 Tb217 2.378 1_556 S
O246 C235 1.236 . S
O247 Tb216 2.341 . S
O247 C235 1.266 . S
H248 C220 0.929 . S
H249 C221 0.931 . S
H250 C223 0.930 . S
H251 C224 0.939 . S
H252 C229 0.929 . S
H253 C230 0.931 . S
H254 C232 0.930 . S
H255 C233 0.930 . S
H256 C262 0.930 . S
H257 C266 0.930 . S
H258 C271 0.929 . S
H259 C269 0.929 . S
H260 C264 0.929 . S
H261 C270 0.929 . S
C262 H256 0.930 . S
C262 C263 1.367 . S
C262 C270 1.378 . S
C263 C262 1.367 . S
C263 C271 1.433 . S
C264 H260 0.929 . S
C264 C266 1.378 . S
C264 C268 1.350 . S
C265 C268 1.463 . S
C265 C270 1.350 . S
C265 N273 1.427 . S
C266 H257 0.930 . S
C266 C264 1.378 . S
C266 C267 1.367 . S
C267 C266 1.367 . S
C267 C269 1.433 . S
C268 C264 1.350 . S
C268 C265 1.463 . S
C268 N272 1.427 . S
C269 H259 0.929 . S
C269 C267 1.433 . S
C269 N272 1.384 . S
C270 H261 0.929 . S
C270 C262 1.378 . S
C270 C265 1.350 . S
C271 H258 0.929 . S
C271 C263 1.433 . S
C271 N273 1.384 . S
N272 C268 1.427 . S
N272 C269 1.384 . S
N273 C265 1.427 . S
N273 C271 1.384 . S
H274 C280 0.930 . S
H275 C284 0.930 . S
H276 C289 0.929 . S
H277 C287 0.929 . S
H278 C282 0.929 . S
H279 C288 0.929 . S
C280 H274 0.930 . S
C280 C281 1.367 . S
C280 C288 1.378 . S
C281 C280 1.367 . S
C281 C289 1.433 . S
C282 H278 0.929 . S
C282 C284 1.378 . S
C282 C286 1.350 . S
C283 C286 1.463 . S
C283 C288 1.350 . S
C283 N291 1.427 . S
C284 H275 0.930 . S
C284 C282 1.378 . S
C284 C285 1.367 . S
C285 C284 1.367 . S
C285 C287 1.433 . S
C286 C282 1.350 . S
C286 C283 1.463 . S
C286 N290 1.427 . S
C287 H277 0.929 . S
C287 C285 1.433 . S
C287 N290 1.384 . S
C288 H279 0.929 . S
C288 C280 1.378 . S
C288 C283 1.350 . S
C289 H276 0.929 . S
C289 C281 1.433 . S
C289 N291 1.384 . S
N290 C286 1.427 . S
N290 C287 1.384 . S
N291 C283 1.427 . S
N291 C289 1.384 . S
H292 C298 0.930 . S
H293 C302 0.930 . S
H294 C307 0.929 . S
H295 C305 0.929 . S
H296 C300 0.929 . S
H297 C306 0.929 . S
C298 H292 0.930 . S
C298 C299 1.367 . S
C298 C306 1.378 . S
C299 C298 1.367 . S
C299 C307 1.433 . S
C300 H296 0.929 . S
C300 C302 1.378 . S
C300 C304 1.350 . S
C301 C304 1.463 . S
C301 C306 1.350 . S
C301 N309 1.427 . S
C302 H293 0.930 . S
C302 C300 1.378 . S
C302 C303 1.367 . S
C303 C302 1.367 . S
C303 C305 1.433 . S
C304 C300 1.350 . S
C304 C301 1.463 . S
C304 N308 1.427 . S
C305 H295 0.929 . S
C305 C303 1.433 . S
C305 N308 1.384 . S
C306 H297 0.929 . S
C306 C298 1.378 . S
C306 C301 1.350 . S
C307 H294 0.929 . S
C307 C299 1.433 . S
C307 N309 1.384 . S
N308 C304 1.427 . S
N308 C305 1.384 . S
N309 C301 1.427 . S
N309 C307 1.384 . S
H310 C316 0.930 . S
H311 C320 0.930 . S
H312 C325 0.929 . S
H313 C323 0.929 . S
H314 C318 0.929 . S
H315 C324 0.929 . S
C316 H310 0.930 . S
C316 C317 1.367 . S
C316 C324 1.378 . S
C317 C316 1.367 . S
C317 C325 1.433 . S
C318 H314 0.929 . S
C318 C320 1.378 . S
C318 C322 1.350 . S
C319 C322 1.463 . S
C319 C324 1.350 . S
C319 N327 1.427 . S
C320 H311 0.930 . S
C320 C318 1.378 . S
C320 C321 1.367 . S
C321 C320 1.367 . S
C321 C323 1.433 . S
C322 C318 1.350 . S
C322 C319 1.463 . S
C322 N326 1.427 . S
C323 H313 0.929 . S
C323 C321 1.433 . S
C323 N326 1.384 . S
C324 H315 0.929 . S
C324 C316 1.378 . S
C324 C319 1.350 . S
C325 H312 0.929 . S
C325 C317 1.433 . S
C325 N327 1.384 . S
N326 C322 1.427 . S
N326 C323 1.384 . S
N327 C319 1.427 . S
N327 C325 1.384 . S
H328 C334 0.930 . S
H329 C338 0.930 . S
H330 C343 0.929 . S
H331 C341 0.929 . S
H332 C336 0.929 . S
H333 C342 0.929 . S
C334 H328 0.930 . S
C334 C335 1.367 . S
C334 C342 1.378 . S
C335 C334 1.367 . S
C335 C343 1.433 . S
C336 H332 0.929 . S
C336 C338 1.378 . S
C336 C340 1.350 . S
C337 C340 1.463 . S
C337 C342 1.350 . S
C337 N345 1.427 . S
C338 H329 0.930 . S
C338 C336 1.378 . S
C338 C339 1.367 . S
C339 C338 1.367 . S
C339 C341 1.433 . S
C340 C336 1.350 . S
C340 C337 1.463 . S
C340 N344 1.427 . S
C341 H331 0.929 . S
C341 C339 1.433 . S
C341 N344 1.384 . S
C342 H333 0.929 . S
C342 C334 1.378 . S
C342 C337 1.350 . S
C343 H330 0.929 . S
C343 C335 1.433 . S
C343 N345 1.384 . S
N344 C340 1.427 . S
N344 C341 1.384 . S
N345 C337 1.427 . S
N345 C343 1.384 . S
H346 C352 0.930 . S
H347 C356 0.930 . S
H348 C361 0.929 1_655 S
H349 C359 0.929 . S
H350 C354 0.929 . S
H351 C360 0.929 . S
C352 H346 0.930 . S
C352 C353 1.367 . S
C352 C360 1.378 . S
C353 C352 1.367 . S
C353 C361 1.433 . S
C354 H350 0.929 . S
C354 C356 1.378 . S
C354 C358 1.350 1_655 S
C355 C358 1.463 . S
C355 C360 1.350 . S
C355 N363 1.427 . S
C356 H347 0.930 . S
C356 C354 1.378 . S
C356 C357 1.367 1_655 S
C357 C356 1.367 1_455 S
C357 C359 1.433 . S
C358 C354 1.350 1_455 S
C358 C355 1.463 . S
C358 N362 1.427 . S
C359 H349 0.929 . S
C359 C357 1.433 . S
C359 N362 1.384 . S
C360 H351 0.929 . S
C360 C352 1.378 . S
C360 C355 1.350 . S
C361 H348 0.929 1_455 S
C361 C353 1.433 . S
C361 N363 1.384 . S
N362 C358 1.427 . S
N362 C359 1.384 . S
N363 C355 1.427 . S
N363 C361 1.384 . S
H364 C370 0.930 . S
H365 C374 0.930 . S
H366 C379 0.929 . S
H367 C377 0.929 . S
H368 C372 0.929 . S
H369 C378 0.929 . S
C370 H364 0.930 . S
C370 C371 1.367 . S
C370 C378 1.378 . S
C371 C370 1.367 . S
C371 C379 1.433 . S
C372 H368 0.929 . S
C372 C374 1.378 . S
C372 C376 1.350 . S
C373 C376 1.463 . S
C373 C378 1.350 . S
C373 N381 1.427 . S
C374 H365 0.930 . S
C374 C372 1.378 . S
C374 C375 1.367 . S
C375 C374 1.367 . S
C375 C377 1.433 . S
C376 C372 1.350 . S
C376 C373 1.463 . S
C376 N380 1.427 . S
C377 H367 0.929 . S
C377 C375 1.433 . S
C377 N380 1.384 . S
C378 H369 0.929 . S
C378 C370 1.378 . S
C378 C373 1.350 . S
C379 H366 0.929 . S
C379 C371 1.433 . S
C379 N381 1.384 . S
N380 C376 1.427 . S
N380 C377 1.384 . S
N381 C373 1.427 . S
N381 C379 1.384 . S
H382 C388 0.930 . S
H383 C392 0.930 . S
H384 C397 0.929 . S
H385 C395 0.929 . S
H386 C390 0.929 . S
H387 C396 0.929 . S
C388 H382 0.930 . S
C388 C389 1.367 . S
C388 C396 1.378 . S
C389 C388 1.367 . S
C389 C397 1.433 . S
C390 H386 0.929 . S
C390 C392 1.378 . S
C390 C394 1.350 . S
C391 C394 1.463 . S
C391 C396 1.350 . S
C391 N399 1.427 . S
C392 H383 0.930 . S
C392 C390 1.378 . S
C392 C393 1.367 . S
C393 C392 1.367 . S
C393 C395 1.433 . S
C394 C390 1.350 . S
C394 C391 1.463 . S
C394 N398 1.427 . S
C395 H385 0.929 . S
C395 C393 1.433 . S
C395 N398 1.384 . S
C396 H387 0.929 . S
C396 C388 1.378 . S
C396 C391 1.350 . S
C397 H384 0.929 . S
C397 C389 1.433 . S
C397 N399 1.384 . S
N398 C394 1.427 . S
N398 C395 1.384 . S
N399 C391 1.427 . S
N399 C397 1.384 . S
H400 C406 0.930 . S
H401 C410 0.930 . S
H402 C415 0.929 . S
H403 C413 0.929 . S
H404 C408 0.929 . S
H405 C414 0.929 . S
C406 H400 0.930 . S
C406 C407 1.367 . S
C406 C414 1.378 . S
C407 C406 1.367 . S
C407 C415 1.433 . S
C408 H404 0.929 . S
C408 C410 1.378 . S
C408 C412 1.350 . S
C409 C412 1.463 . S
C409 C414 1.350 . S
C409 N417 1.427 . S
C410 H401 0.930 . S
C410 C408 1.378 . S
C410 C411 1.367 . S
C411 C410 1.367 . S
C411 C413 1.433 . S
C412 C408 1.350 . S
C412 C409 1.463 . S
C412 N416 1.427 . S
C413 H403 0.929 . S
C413 C411 1.433 . S
C413 N416 1.384 . S
C414 H405 0.929 . S
C414 C406 1.378 . S
C414 C409 1.350 . S
C415 H402 0.929 . S
C415 C407 1.433 . S
C415 N417 1.384 . S
N416 C412 1.427 . S
N416 C413 1.384 . S
N417 C409 1.427 . S
N417 C415 1.384 . S
H418 C424 0.930 . S
H419 C428 0.930 . S
H420 C433 0.929 . S
H421 C431 0.929 . S
H422 C426 0.929 . S
H423 C432 0.929 . S
C424 H418 0.930 . S
C424 C425 1.367 . S
C424 C432 1.378 . S
C425 C424 1.367 . S
C425 C433 1.433 . S
C426 H422 0.929 . S
C426 C428 1.378 . S
C426 C430 1.350 . S
C427 C430 1.463 . S
C427 C432 1.350 . S
C427 N435 1.427 . S
C428 H419 0.930 . S
C428 C426 1.378 . S
C428 C429 1.367 . S
C429 C428 1.367 . S
C429 C431 1.433 . S
C430 C426 1.350 . S
C430 C427 1.463 . S
C430 N434 1.427 . S
C431 H421 0.929 . S
C431 C429 1.433 . S
C431 N434 1.384 . S
C432 H423 0.929 . S
C432 C424 1.378 . S
C432 C427 1.350 . S
C433 H420 0.929 . S
C433 C425 1.433 . S
C433 N435 1.384 . S
N434 C430 1.427 . S
N434 C431 1.384 . S
N435 C427 1.427 . S
N435 C433 1.384 . S
H436 C442 0.930 . S
H437 C446 0.930 . S
H438 C451 0.929 . S
H439 C449 0.929 . S
H440 C444 0.929 . S
H441 C450 0.929 . S
C442 H436 0.930 . S
C442 C443 1.367 . S
C442 C450 1.378 . S
C443 C442 1.367 . S
C443 C451 1.433 . S
C444 H440 0.929 . S
C444 C446 1.378 . S
C444 C448 1.350 . S
C445 C448 1.463 . S
C445 C450 1.350 . S
C445 N453 1.427 . S
C446 H437 0.930 . S
C446 C444 1.378 . S
C446 C447 1.367 . S
C447 C446 1.367 . S
C447 C449 1.433 . S
C448 C444 1.350 . S
C448 C445 1.463 . S
C448 N452 1.427 . S
C449 H439 0.929 . S
C449 C447 1.433 . S
C449 N452 1.384 . S
C450 H441 0.929 . S
C450 C442 1.378 . S
C450 C445 1.350 . S
C451 H438 0.929 . S
C451 C443 1.433 . S
C451 N453 1.384 . S
N452 C448 1.427 . S
N452 C449 1.384 . S
N453 C445 1.427 . S
N453 C451 1.384 . S
H454 C460 0.930 . S
H455 C464 0.930 . S
H456 C469 0.929 . S
H457 C467 0.929 . S
H458 C462 0.929 . S
H459 C468 0.929 . S
C460 H454 0.930 . S
C460 C461 1.367 . S
C460 C468 1.378 . S
C461 C460 1.367 . S
C461 C469 1.433 . S
C462 H458 0.929 . S
C462 C464 1.378 . S
C462 C466 1.350 . S
C463 C466 1.463 . S
C463 C468 1.350 . S
C463 N471 1.427 . S
C464 H455 0.930 . S
C464 C462 1.378 . S
C464 C465 1.367 . S
C465 C464 1.367 . S
C465 C467 1.433 . S
C466 C462 1.350 . S
C466 C463 1.463 . S
C466 N470 1.427 . S
C467 H457 0.929 . S
C467 C465 1.433 . S
C467 N470 1.384 . S
C468 H459 0.929 . S
C468 C460 1.378 . S
C468 C463 1.350 . S
C469 H456 0.929 . S
C469 C461 1.433 . S
C469 N471 1.384 . S
N470 C466 1.427 . S
N470 C467 1.384 . S
N471 C463 1.427 . S
N471 C469 1.384 . S
H472 C478 0.930 . S
H473 C482 0.930 . S
H474 C487 0.929 . S
H475 C485 0.929 . S
H476 C480 0.929 . S
H477 C486 0.929 . S
C478 H472 0.930 . S
C478 C479 1.367 . S
C478 C486 1.378 . S
C479 C478 1.367 . S
C479 C487 1.433 . S
C480 H476 0.929 . S
C480 C482 1.378 . S
C480 C484 1.350 . S
C481 C484 1.463 . S
C481 C486 1.350 . S
C481 N489 1.427 . S
C482 H473 0.930 . S
C482 C480 1.378 . S
C482 C483 1.367 . S
C483 C482 1.367 . S
C483 C485 1.433 . S
C484 C480 1.350 . S
C484 C481 1.463 . S
C484 N488 1.427 . S
C485 H475 0.929 . S
C485 C483 1.433 . S
C485 N488 1.384 . S
C486 H477 0.929 . S
C486 C478 1.378 . S
C486 C481 1.350 . S
C487 H474 0.929 . S
C487 C479 1.433 . S
C487 N489 1.384 . S
N488 C484 1.427 . S
N488 C485 1.384 . S
N489 C481 1.427 . S
N489 C487 1.384 . S
H490 C496 0.930 . S
H491 C500 0.930 . S
H492 C505 0.929 . S
H493 C503 0.929 . S
H494 C498 0.929 . S
H495 C504 0.929 . S
C496 H490 0.930 . S
C496 C497 1.367 . S
C496 C504 1.378 . S
C497 C496 1.367 . S
C497 C505 1.433 . S
C498 H494 0.929 . S
C498 C500 1.378 . S
C498 C502 1.350 . S
C499 C502 1.463 . S
C499 C504 1.350 . S
C499 N507 1.427 . S
C500 H491 0.930 . S
C500 C498 1.378 . S
C500 C501 1.367 . S
C501 C500 1.367 . S
C501 C503 1.433 . S
C502 C498 1.350 . S
C502 C499 1.463 . S
C502 N506 1.427 . S
C503 H493 0.929 . S
C503 C501 1.433 . S
C503 N506 1.384 . S
C504 H495 0.929 . S
C504 C496 1.378 . S
C504 C499 1.350 . S
C505 H492 0.929 . S
C505 C497 1.433 . S
C505 N507 1.384 . S
N506 C502 1.427 . S
N506 C503 1.384 . S
N507 C499 1.427 . S
N507 C505 1.384 . S
H508 C514 0.930 . S
H509 C518 0.930 . S
H510 C523 0.929 . S
H511 C521 0.929 . S
H512 C516 0.929 . S
H513 C522 0.929 . S
C514 H508 0.930 . S
C514 C515 1.367 . S
C514 C522 1.378 . S
C515 C514 1.367 . S
C515 C523 1.433 . S
C516 H512 0.929 . S
C516 C518 1.378 . S
C516 C520 1.350 . S
C517 C520 1.463 . S
C517 C522 1.350 . S
C517 N525 1.427 . S
C518 H509 0.930 . S
C518 C516 1.378 . S
C518 C519 1.367 . S
C519 C518 1.367 . S
C519 C521 1.433 . S
C520 C516 1.350 . S
C520 C517 1.463 . S
C520 N524 1.427 . S
C521 H511 0.929 . S
C521 C519 1.433 . S
C521 N524 1.384 . S
C522 H513 0.929 . S
C522 C514 1.378 . S
C522 C517 1.350 . S
C523 H510 0.929 . S
C523 C515 1.433 . S
C523 N525 1.384 . S
N524 C520 1.427 . S
N524 C521 1.384 . S
N525 C517 1.427 . S
N525 C523 1.384 . S
H526 C532 0.930 . S
H527 C536 0.930 . S
H528 C541 0.929 . S
H529 C539 0.929 . S
H530 C534 0.929 . S
H531 C540 0.929 . S
C532 H526 0.930 . S
C532 C533 1.367 . S
C532 C540 1.378 . S
C533 C532 1.367 . S
C533 C541 1.433 . S
C534 H530 0.929 . S
C534 C536 1.378 . S
C534 C538 1.350 . S
C535 C538 1.463 . S
C535 C540 1.350 . S
C535 N543 1.427 . S
C536 H527 0.930 . S
C536 C534 1.378 . S
C536 C537 1.367 . S
C537 C536 1.367 . S
C537 C539 1.433 . S
C538 C534 1.350 . S
C538 C535 1.463 . S
C538 N542 1.427 . S
C539 H529 0.929 . S
C539 C537 1.433 . S
C539 N542 1.384 . S
C540 H531 0.929 . S
C540 C532 1.378 . S
C540 C535 1.350 . S
C541 H528 0.929 . S
C541 C533 1.433 . S
C541 N543 1.384 . S
N542 C538 1.427 . S
N542 C539 1.384 . S
N543 C535 1.427 . S
N543 C541 1.384 . S
H544 C550 0.930 . S
H545 C554 0.930 . S
H546 C559 0.929 . S
H547 C557 0.929 . S
H548 C552 0.929 . S
H549 C558 0.929 . S
C550 H544 0.930 . S
C550 C551 1.367 . S
C550 C558 1.378 . S
C551 C550 1.367 . S
C551 C559 1.433 . S
C552 H548 0.929 . S
C552 C554 1.378 . S
C552 C556 1.350 . S
C553 C556 1.463 . S
C553 C558 1.350 . S
C553 N561 1.427 . S
C554 H545 0.930 . S
C554 C552 1.378 . S
C554 C555 1.367 . S
C555 C554 1.367 . S
C555 C557 1.433 . S
C556 C552 1.350 . S
C556 C553 1.463 . S
C556 N560 1.427 . S
C557 H547 0.929 . S
C557 C555 1.433 . S
C557 N560 1.384 . S
C558 H549 0.929 . S
C558 C550 1.378 . S
C558 C553 1.350 . S
C559 H546 0.929 . S
C559 C551 1.433 . S
C559 N561 1.384 . S
N560 C556 1.427 . S
N560 C557 1.384 . S
N561 C553 1.427 . S
N561 C559 1.384 . S
H562 C568 0.930 . S
H563 C572 0.930 1_455 S
H564 C577 0.929 . S
H565 C575 0.929 . S
H566 C570 0.929 . S
H567 C576 0.929 . S
C568 H562 0.930 . S
C568 C569 1.367 . S
C568 C576 1.378 . S
C569 C568 1.367 . S
C569 C577 1.433 . S
C570 H566 0.929 . S
C570 C572 1.378 . S
C570 C574 1.350 . S
C571 C574 1.463 . S
C571 C576 1.350 . S
C571 N579 1.427 . S
C572 H563 0.930 1_655 S
C572 C570 1.378 . S
C572 C573 1.367 . S
C573 C572 1.367 . S
C573 C575 1.433 . S
C574 C570 1.350 . S
C574 C571 1.463 . S
C574 N578 1.427 . S
C575 H565 0.929 . S
C575 C573 1.433 . S
C575 N578 1.384 . S
C576 H567 0.929 . S
C576 C568 1.378 . S
C576 C571 1.350 . S
C577 H564 0.929 . S
C577 C569 1.433 . S
C577 N579 1.384 . S
N578 C574 1.427 . S
N578 C575 1.384 . S
N579 C571 1.427 . S
N579 C577 1.384 . S
H580 C586 0.930 . S
H581 C590 0.930 . S
H582 C595 0.929 . S
H583 C593 0.929 . S
H584 C588 0.929 . S
H585 C594 0.929 . S
C586 H580 0.930 . S
C586 C587 1.367 . S
C586 C594 1.378 . S
C587 C586 1.367 . S
C587 C595 1.433 . S
C588 H584 0.929 . S
C588 C590 1.378 . S
C588 C592 1.350 . S
C589 C592 1.463 . S
C589 C594 1.350 . S
C589 N597 1.427 . S
C590 H581 0.930 . S
C590 C588 1.378 . S
C590 C591 1.367 . S
C591 C590 1.367 . S
C591 C593 1.433 . S
C592 C588 1.350 . S
C592 C589 1.463 . S
C592 N596 1.427 . S
C593 H583 0.929 . S
C593 C591 1.433 . S
C593 N596 1.384 . S
C594 H585 0.929 . S
C594 C586 1.378 . S
C594 C589 1.350 . S
C595 H582 0.929 . S
C595 C587 1.433 . S
C595 N597 1.384 . S
N596 C592 1.427 . S
N596 C593 1.384 . S
N597 C589 1.427 . S
N597 C595 1.384 . S
H598 C604 0.930 . S
H599 C608 0.930 . S
H600 C613 0.929 . S
H601 C611 0.929 . S
H602 C606 0.929 . S
H603 C612 0.929 . S
C604 H598 0.930 . S
C604 C605 1.367 . S
C604 C612 1.378 . S
C605 C604 1.367 . S
C605 C613 1.433 . S
C606 H602 0.929 . S
C606 C608 1.378 . S
C606 C610 1.350 . S
C607 C610 1.463 . S
C607 C612 1.350 . S
C607 N615 1.427 . S
C608 H599 0.930 . S
C608 C606 1.378 . S
C608 C609 1.367 . S
C609 C608 1.367 . S
C609 C611 1.433 . S
C610 C606 1.350 . S
C610 C607 1.463 . S
C610 N614 1.427 . S
C611 H601 0.929 . S
C611 C609 1.433 . S
C611 N614 1.384 . S
C612 H603 0.929 . S
C612 C604 1.378 . S
C612 C607 1.350 . S
C613 H600 0.929 . S
C613 C605 1.433 . S
C613 N615 1.384 . S
N614 C610 1.427 . S
N614 C611 1.384 . S
N615 C607 1.427 . S
N615 C613 1.384 . S
H616 C622 0.930 . S
H617 C626 0.930 . S
H618 C631 0.929 . S
H619 C629 0.929 . S
H620 C624 0.929 . S
H621 C630 0.929 . S
C622 H616 0.930 . S
C622 C623 1.367 . S
C622 C630 1.378 . S
C623 C622 1.367 . S
C623 C631 1.433 . S
C624 H620 0.929 . S
C624 C626 1.378 . S
C624 C628 1.350 . S
C625 C628 1.463 . S
C625 C630 1.350 . S
C625 N633 1.427 . S
C626 H617 0.930 . S
C626 C624 1.378 . S
C626 C627 1.367 . S
C627 C626 1.367 . S
C627 C629 1.433 . S
C628 C624 1.350 . S
C628 C625 1.463 . S
C628 N632 1.427 . S
C629 H619 0.929 . S
C629 C627 1.433 . S
C629 N632 1.384 . S
C630 H621 0.929 . S
C630 C622 1.378 . S
C630 C625 1.350 . S
C631 H618 0.929 . S
C631 C623 1.433 . S
C631 N633 1.384 . S
N632 C628 1.427 . S
N632 C629 1.384 . S
N633 C625 1.427 . S
N633 C631 1.384 . S
H634 C640 0.930 . S
H635 C644 0.930 . S
H636 C649 0.929 . S
H637 C647 0.929 . S
H638 C642 0.929 . S
H639 C648 0.929 . S
C640 H634 0.930 . S
C640 C641 1.367 . S
C640 C648 1.378 . S
C641 C640 1.367 . S
C641 C649 1.433 . S
C642 H638 0.929 . S
C642 C644 1.378 . S
C642 C646 1.350 . S
C643 C646 1.463 . S
C643 C648 1.350 . S
C643 N651 1.427 . S
C644 H635 0.930 . S
C644 C642 1.378 . S
C644 C645 1.367 . S
C645 C644 1.367 . S
C645 C647 1.433 . S
C646 C642 1.350 . S
C646 C643 1.463 . S
C646 N650 1.427 . S
C647 H637 0.929 . S
C647 C645 1.433 . S
C647 N650 1.384 . S
C648 H639 0.929 . S
C648 C640 1.378 . S
C648 C643 1.350 . S
C649 H636 0.929 . S
C649 C641 1.433 . S
C649 N651 1.384 . S
N650 C646 1.427 . S
N650 C647 1.384 . S
N651 C643 1.427 . S
N651 C649 1.384 . S
H652 C658 0.930 . S
H653 C662 0.930 . S
H654 C667 0.929 . S
H655 C665 0.929 . S
H656 C660 0.929 . S
H657 C666 0.929 . S
C658 H652 0.930 . S
C658 C659 1.367 . S
C658 C666 1.378 . S
C659 C658 1.367 . S
C659 C667 1.433 . S
C660 H656 0.929 . S
C660 C662 1.378 . S
C660 C664 1.350 . S
C661 C664 1.463 . S
C661 C666 1.350 . S
C661 N669 1.427 . S
C662 H653 0.930 . S
C662 C660 1.378 . S
C662 C663 1.367 . S
C663 C662 1.367 . S
C663 C665 1.433 . S
C664 C660 1.350 . S
C664 C661 1.463 . S
C664 N668 1.427 . S
C665 H655 0.929 . S
C665 C663 1.433 . S
C665 N668 1.384 . S
C666 H657 0.929 . S
C666 C658 1.378 . S
C666 C661 1.350 . S
C667 H654 0.929 . S
C667 C659 1.433 . S
C667 N669 1.384 . S
N668 C664 1.427 . S
N668 C665 1.384 . S
N669 C661 1.427 . S
N669 C667 1.384 . S
H670 C676 0.930 . S
H671 C680 0.930 . S
H672 C685 0.929 . S
H673 C683 0.929 . S
H674 C678 0.929 . S
H675 C684 0.929 . S
C676 H670 0.930 . S
C676 C677 1.367 . S
C676 C684 1.378 . S
C677 C676 1.367 . S
C677 C685 1.433 . S
C678 H674 0.929 . S
C678 C680 1.378 . S
C678 C682 1.350 . S
C679 C682 1.463 . S
C679 C684 1.350 . S
C679 N687 1.427 . S
C680 H671 0.930 . S
C680 C678 1.378 . S
C680 C681 1.367 . S
C681 C680 1.367 . S
C681 C683 1.433 . S
C682 C678 1.350 . S
C682 C679 1.463 . S
C682 N686 1.427 . S
C683 H673 0.929 . S
C683 C681 1.433 . S
C683 N686 1.384 . S
C684 H675 0.929 . S
C684 C676 1.378 . S
C684 C679 1.350 . S
C685 H672 0.929 . S
C685 C677 1.433 . S
C685 N687 1.384 . S
N686 C682 1.427 . S
N686 C683 1.384 . S
N687 C679 1.427 . S
N687 C685 1.384 . S
C263 C6 1.234 . S
C267 C111 1.254 . S
C281 C18 1.278 . S
C285 C151 1.292 . S
C303 C185 2.404 . S
C299 C28 2.425 . S
C317 C40 2.059 . S
C321 C226 2.011 . S
C339 C146 1.569 . S
C335 C9 1.523 . S
C357 C106 1.993 . S
C353 C16 1.882 . S
C375 C234 1.589 . S
C371 C30 1.593 . S
C393 C195 1.481 . S
C389 C42 1.527 . S
C407 C4 1.351 . S
C411 C231 1.336 . S
C429 C154 2.201 . S
C425 C33 2.247 . S
C443 C45 2.122 . S
C447 C114 2.073 . S
C461 C21 1.657 . S
C465 C182 1.708 . S
C483 C102 1.284 . S
C479 C57 1.289 . S
C497 C66 1.241 . S
C501 C142 1.271 . S
C515 C76 2.472 . S
C519 C194 2.458 . S
C533 C88 1.965 . S
C537 C235 1.923 . S
C551 C54 1.540 . S
C555 C155 1.575 . S
C573 C115 2.082 . S
C569 C64 2.006 . S
C591 C225 1.512 . S
C587 C78 1.512 . S
C609 C186 1.540 . S
C605 C93 1.583 . S
C623 C52 1.377 . S
C627 C222 1.396 . S
C645 C145 2.186 . S
C641 C81 2.239 . S
C663 C105 2.044 . S
C659 C90 2.096 . S
C677 C69 1.651 . S
C681 C191 1.718 . S
