# Generated by pormake.
# Topology anh, (6,3)-cn, num edge types: 1
# Building blocks:
#     Node 0, Type 0, BuildingBlock: BETGAK_clean_sbu_0, # of connection points: 6
#     Node 1, Type 0, BuildingBlock: BETGAK_clean_sbu_0, # of connection points: 6
#     Node 2, Type 0, BuildingBlock: BETGAK_clean_sbu_0, # of connection points: 6
#     Node 3, Type 1, BuildingBlock: BETDAH_clean_linker_0, # of connection points: 3
#     Node 4, Type 1, BuildingBlock: BETDAH_clean_linker_0, # of connection points: 3
#     Node 5, Type 1, BuildingBlock: BETDAH_clean_linker_0, # of connection points: 3
#     Node 6, Type 1, BuildingBlock: BETDAH_clean_linker_0, # of connection points: 3
#     Node 7, Type 1, BuildingBlock: BETDAH_clean_linker_0, # of connection points: 3
#     Node 8, Type 1, BuildingBlock: BETDAH_clean_linker_0, # of connection points: 3
#     Edge 9, Type (0, 1), BuildingBlock: UVAHIK_clean_linker_0, # of connection points: 2
#     Edge 10, Type (0, 1), BuildingBlock: UVAHIK_clean_linker_0, # of connection points: 2
#     Edge 11, Type (0, 1), BuildingBlock: UVAHIK_clean_linker_0, # of connection points: 2
#     Edge 12, Type (0, 1), BuildingBlock: UVAHIK_clean_linker_0, # of connection points: 2
#     Edge 13, Type (0, 1), BuildingBlock: UVAHIK_clean_linker_0, # of connection points: 2
#     Edge 14, Type (0, 1), BuildingBlock: UVAHIK_clean_linker_0, # of connection points: 2
#     Edge 15, Type (0, 1), BuildingBlock: UVAHIK_clean_linker_0, # of connection points: 2
#     Edge 16, Type (0, 1), BuildingBlock: UVAHIK_clean_linker_0, # of connection points: 2
#     Edge 17, Type (0, 1), BuildingBlock: UVAHIK_clean_linker_0, # of connection points: 2
#     Edge 18, Type (0, 1), BuildingBlock: UVAHIK_clean_linker_0, # of connection points: 2
#     Edge 19, Type (0, 1), BuildingBlock: UVAHIK_clean_linker_0, # of connection points: 2
#     Edge 20, Type (0, 1), BuildingBlock: UVAHIK_clean_linker_0, # of connection points: 2
#     Edge 21, Type (0, 1), BuildingBlock: UVAHIK_clean_linker_0, # of connection points: 2
#     Edge 22, Type (0, 1), BuildingBlock: UVAHIK_clean_linker_0, # of connection points: 2
#     Edge 23, Type (0, 1), BuildingBlock: UVAHIK_clean_linker_0, # of connection points: 2
#     Edge 24, Type (0, 1), BuildingBlock: UVAHIK_clean_linker_0, # of connection points: 2
#     Edge 25, Type (0, 1), BuildingBlock: UVAHIK_clean_linker_0, # of connection points: 2
#     Edge 26, Type (0, 1), BuildingBlock: UVAHIK_clean_linker_0, # of connection points: 2
# Relax obj value: 0.121
# Max RMSD: 0.164
# Mean RMSD: 0.106
data_MOF--net-anh--node1-BETGAK_clean_sbu_0--node2-BETDAH_clean_linker_0--edge1-UVAHIK_clean_linker_0
_symmetry_space_group_name_H-M    P1
_symmetry_Int_Tables_number       1
_symmetry_cell_setting            triclinic
loop_
_symmetry_equiv_pos_as_xyz
'x, y, z'
_cell_length_a     39.499418
_cell_length_b     47.246256
_cell_length_c     63.778914
_cell_angle_alpha  94.376453
_cell_angle_beta   89.715267
_cell_angle_gamma 127.70984
loop_
_atom_site_label
_atom_site_type_symbol
_atom_site_fract_x
_atom_site_fract_y
_atom_site_fract_z
_atom_type_partial_charge
La0 La 0.11764 0.54816 0.15266 0.0
La1 La 0.07097 0.57575 0.16991 0.0
C2 C 0.16301 0.5385 0.13037 0.0
C3 C 0.20825 0.55368 0.13135 0.0
C4 C 0.23546 0.57715 0.14866 0.0
C5 C 0.27653 0.58674 0.15118 0.0
C6 C 0.29078 0.57292 0.13644 0.0
C7 C 0.26422 0.55139 0.11841 0.0
C8 C 0.22328 0.54184 0.11592 0.0
C9 C 0.11273 0.54942 0.19373 0.0
C10 C 0.16815 0.63323 0.16473 0.0
C11 C 1.02263 0.58301 0.1912 0.0
C12 C 0.9761 0.5576 0.19305 0.0
C13 C 0.94996 0.53301 0.17587 0.0
C14 C 0.90613 0.5074 0.17776 0.0
C15 C 0.88741 0.50538 0.19696 0.0
C16 C 0.91377 0.52993 0.21425 0.0
C17 C 0.95787 0.55584 0.21228 0.0
C18 C 0.07611 0.57308 0.1286 0.0
C19 C 1.02084 0.49108 0.15923 0.0
O20 O 0.14115 0.51928 0.14583 0.0
O21 O 0.15461 0.56037 0.12617 0.0
O22 O 0.1149 0.52676 0.18234 0.0
O23 O 0.11815 0.57247 0.18244 0.0
O24 O 0.16766 0.6071 0.15498 0.0
O25 O 0.13451 0.62664 0.17425 0.0
O26 O 1.03527 0.59506 0.1727 0.0
O27 O 1.04421 0.57317 0.19892 0.0
O28 O 0.07627 0.59735 0.13964 0.0
O29 O 0.06991 0.55047 0.14043 0.0
O30 O 1.02316 0.51718 0.17024 0.0
O31 O 1.05265 0.49815 0.14764 0.0
H32 H 0.22419 0.58659 0.16069 0.0
H33 H 0.29632 0.60358 0.16513 0.0
H34 H 0.27376 0.53974 0.1069 0.0
H35 H 0.20254 0.52366 0.10251 0.0
H36 H 0.96343 0.53346 0.16095 0.0
H37 H 0.88683 0.48956 0.16396 0.0
H38 H 0.90042 0.52893 0.22928 0.0
H39 H 0.97777 0.57424 0.22581 0.0
La40 La 0.65308 0.05744 0.48529 0.0
La41 La 0.59522 0.07639 0.47604 0.0
C42 C 0.6871 0.03199 0.50057 0.0
C43 C 0.6732 0.997 0.50659 0.0
C44 C 0.63671 0.96463 0.49682 0.0
C45 C 0.62534 0.93169 0.50206 0.0
C46 C 0.65027 0.93052 0.51716 0.0
C47 C 0.68628 0.96309 0.52718 0.0
C48 C 0.69758 0.99598 0.52194 0.0
C49 C 0.64936 0.06851 0.44591 0.0
C50 C 0.55261 0.996 0.47522 0.0
C51 C 0.5619 0.10354 0.46264 0.0
C52 C 0.56977 0.13796 0.46824 0.0
C53 C 0.59205 0.15834 0.48725 0.0
C54 C 0.59841 0.1905 0.4929 0.0
C55 C 0.58299 0.20316 0.47954 0.0
C56 C 0.56139 0.18288 0.46027 0.0
C57 C 0.55477 0.15052 0.45471 0.0
C58 C 0.60177 0.0676 0.51575 0.0
C59 C 0.69685 0.13872 0.4843 0.0
O60 O 0.68421 0.03432 0.48044 0.0
O61 O 0.67413 0.04756 0.51204 0.0
O62 O 0.6834 0.07661 0.45561 0.0
O63 O 0.61821 0.05244 0.45768 0.0
O64 O 0.58786 0.00619 0.48572 0.0
O65 O 0.55124 0.01949 0.46611 0.0
O66 O 0.54611 0.08146 0.47739 0.0
O67 O 0.59299 0.10558 0.45351 0.0
O68 O 0.56715 0.05916 0.50666 0.0
O69 O 0.63135 0.08262 0.50321 0.0
O70 O 0.65904 0.12883 0.47753 0.0
O71 O 0.70172 0.11532 0.49062 0.0
H72 H 0.6174 0.96483 0.48493 0.0
H73 H 0.59709 0.90713 0.49424 0.0
H74 H 0.70651 0.96324 0.53867 0.0
H75 H 0.72588 0.02069 0.52962 0.0
H76 H 0.60405 0.1491 0.49787 0.0
H77 H 0.61463 0.205 0.50797 0.0
H78 H 0.54973 0.19205 0.44942 0.0
H79 H 0.53781 0.13525 0.43989 0.0
La80 La 0.63469 0.57927 0.84372 0.0
La81 La 0.57309 0.49895 0.84349 0.0
C82 C 0.67511 0.64324 0.83466 0.0
C83 C 0.66665 0.66802 0.82898 0.0
C84 C 0.70075 0.70478 0.82984 0.0
C85 C 0.6939 0.72904 0.82438 0.0
C86 C 0.65262 0.717 0.81805 0.0
C87 C 0.61842 0.67995 0.81716 0.0
C88 C 0.62543 0.65565 0.82253 0.0
C89 C 0.62237 0.55412 0.88068 0.0
C90 C 0.53311 0.53902 0.84643 0.0
C91 C 0.5362 0.43469 0.85078 0.0
C92 C 0.54525 0.40908 0.84582 0.0
C93 C 0.57009 0.41305 0.82882 0.0
C94 C 0.57821 0.3884 0.82408 0.0
C95 C 0.56201 0.35947 0.8364 0.0
C96 C 0.53785 0.35613 0.8537 0.0
C97 C 0.5295 0.38069 0.85832 0.0
C98 C 0.58497 0.52369 0.80646 0.0
C99 C 0.67542 0.5395 0.84296 0.0
O100 O 0.66732 0.63383 0.85391 0.0
O101 O 0.66196 0.61605 0.82081 0.0
O102 O 0.65882 0.58258 0.87552 0.0
O103 O 0.59461 0.54258 0.86602 0.0
O104 O 0.57082 0.5673 0.84061 0.0
O105 O 0.52836 0.51019 0.85169 0.0
O106 O 0.52578 0.44403 0.83469 0.0
O107 O 0.56374 0.46232 0.86409 0.0
O108 O 0.549 0.49525 0.81187 0.0
O109 O 0.61329 0.53544 0.82092 0.0
O110 O 0.63615 0.50972 0.84528 0.0
O111 O 0.68238 0.57011 0.84009 0.0
H112 H 0.73285 0.71475 0.83464 0.0
H113 H 0.72113 0.75722 0.82487 0.0
H114 H 0.58617 0.66974 0.81255 0.0
H115 H 0.59877 0.62728 0.82161 0.0
H116 H 0.58291 0.43506 0.81908 0.0
H117 H 0.59649 0.39166 0.81052 0.0
H118 H 0.52556 0.33466 0.86379 0.0
H119 H 0.51072 0.3775 0.87167 0.0
H120 H 0.54616 0.99279 0.22633 0.0
H121 H 0.63457 0.1035 0.21314 0.0
H122 H 0.54438 0.02239 0.16462 0.0
C123 C 0.55953 0.01321 0.21536 0.0
C124 C 0.5419 0.0033 0.19467 0.0
C125 C 0.59257 0.04933 0.22229 0.0
C126 C 0.6089 0.07566 0.20796 0.0
C127 C 0.5918 0.06587 0.18701 0.0
C128 C 0.55787 0.02983 0.18066 0.0
N129 N 0.60728 0.09133 0.1719 0.0
C130 C 0.64448 0.12673 0.17448 0.0
H131 H 0.6251 0.5102 0.58727 0.0
H132 H 0.6108 0.59174 0.57801 0.0
H133 H 0.60318 0.52616 0.52477 0.0
C134 C 0.62093 0.52497 0.57676 0.0
C135 C 0.61468 0.51496 0.555 0.0
C136 C 0.61916 0.5524 0.5852 0.0
C137 C 0.61224 0.57064 0.57155 0.0
C138 C 0.60685 0.56133 0.54967 0.0
C139 C 0.6077 0.53337 0.54162 0.0
N140 N 0.59977 0.57887 0.53522 0.0
C141 C 0.60226 0.60924 0.54038 0.0
H142 H 1.03096 0.54763 0.90567 0.0
H143 H 0.14027 0.54976 0.89561 0.0
H144 H 0.06357 0.53773 0.84257 0.0
C145 C 1.05169 0.54662 0.89496 0.0
C146 C 1.04267 0.54217 0.87321 0.0
C147 C 0.08692 0.54973 0.90315 0.0
C148 C 0.11328 0.54758 0.88929 0.0
C149 C 0.10525 0.5434 0.86733 0.0
C150 C 0.07005 0.54108 0.85943 0.0
N151 N 0.13158 0.5414 0.85276 0.0
C152 C 0.16737 0.54299 0.85768 0.0
H153 H 0.17461 0.63585 0.4135 0.0
H154 H 0.07507 0.52836 0.42887 0.0
H155 H 0.16326 0.61014 0.47758 0.0
C156 C 0.15784 0.61666 0.42514 0.0
C157 C 0.17286 0.62757 0.4463 0.0
C158 C 0.12263 0.58102 0.41866 0.0
C159 C 0.10229 0.55585 0.43373 0.0
C160 C 0.11702 0.56642 0.45506 0.0
C161 C 0.15225 0.60214 0.46114 0.0
N162 N 0.09744 0.54211 0.4709 0.0
C163 C 1.06207 0.50605 0.46755 0.0
H164 H 0.62006 0.10314 0.73656 0.0
H165 H 0.59836 0.00348 0.74381 0.0
H166 H 0.58426 0.05789 0.79617 0.0
C167 C 0.61281 0.08262 0.7465 0.0
C168 C 0.60281 0.08437 0.76747 0.0
C169 C 0.61082 0.05337 0.73782 0.0
C170 C 0.60016 0.02618 0.75052 0.0
C171 C 0.59106 0.02811 0.77171 0.0
C172 C 0.59179 0.05684 0.7799 0.0
N173 N 0.57984 0.00128 0.78516 0.0
C174 C 0.58897 0.97723 0.78173 0.0
H175 H 0.54927 0.37904 0.07854 0.0
H176 H 0.42964 0.35741 0.06147 0.0
H177 H 0.44367 0.32425 0.11929 0.0
C178 C 0.51598 0.3664 0.08149 0.0
C179 C 0.49925 0.35061 0.10044 0.0
C180 C 0.4911 0.36902 0.06729 0.0
C181 C 0.44886 0.35466 0.07191 0.0
C182 C 0.43169 0.33797 0.09044 0.0
C183 C 0.4567 0.33574 0.10454 0.0
N184 N 0.39208 0.32891 0.09662 0.0
C185 C 0.39154 0.35631 0.10547 0.0
C186 C 0.33601 0.56874 0.16128 0.0
C187 C 0.32935 0.57549 0.14121 0.0
C188 C 0.36287 0.55933 0.16417 0.0
C189 C 0.43186 0.54094 0.13575 0.0
H190 H 0.35544 0.44909 0.15892 0.0
C191 C 0.40638 0.4139 0.10105 0.0
C192 C 0.39666 0.38771 0.11418 0.0
C193 C 0.41219 0.44486 0.10939 0.0
C194 C 0.37793 0.47494 0.15283 0.0
H195 H 0.35091 0.5835 0.10938 0.0
H196 H 0.39636 0.56584 0.11414 0.0
H197 H 0.34523 0.4943 0.166 0.0
H198 H 0.3872 0.37316 0.1462 0.0
H199 H 0.39712 0.42742 0.16099 0.0
H200 H 0.46271 0.5202 0.12145 0.0
C201 C 0.38107 0.56774 0.12772 0.0
C202 C 0.3722 0.50111 0.15698 0.0
C203 C 0.35454 0.57747 0.12488 0.0
C204 C 0.39398 0.39301 0.13583 0.0
C205 C 0.39982 0.42402 0.14424 0.0
C206 C 0.43756 0.51465 0.13157 0.0
C207 C 0.38313 0.55613 0.14701 0.0
C208 C 0.39773 0.53374 0.14764 0.0
C209 C 0.40852 0.45011 0.13105 0.0
C210 C 0.4093 0.48075 0.13925 0.0
H211 H 0.31735 0.5672 0.17428 0.0
H212 H 0.36472 0.55146 0.17938 0.0
H213 H 0.45257 0.56606 0.12865 0.0
H214 H 0.40908 0.41027 0.0843 0.0
H215 H 0.4181 0.46406 0.09874 0.0
C216 C 0.77636 0.18818 0.48806 0.0
C217 C 0.73467 0.17702 0.4841 0.0
C218 C 0.81204 0.22382 0.4862 0.0
C219 C 0.84488 0.30468 0.46086 0.0
H220 H 0.94399 0.3538 0.49994 0.0
C221 C 0.9842 0.45735 0.46292 0.0
C222 C 1.02578 0.46848 0.46674 0.0
C223 C 0.94879 0.4214 0.46423 0.0
C224 C 0.9168 0.34033 0.48872 0.0
H225 H 0.69785 0.19504 0.4757 0.0
H226 H 0.75984 0.25705 0.47281 0.0
H227 H 0.8821 0.29231 0.5046 0.0
H228 H 0.06375 0.45155 0.47454 0.0
H229 H 1.00204 0.38855 0.47656 0.0
H230 H 0.87954 0.3528 0.44505 0.0
C231 C 0.76509 0.23814 0.47693 0.0
C232 C 0.88126 0.30505 0.49141 0.0
C233 C 0.72948 0.20256 0.47874 0.0
C234 C 1.03178 0.44331 0.47146 0.0
C235 C 0.99646 0.40741 0.4728 0.0
C236 C 0.8804 0.33999 0.45819 0.0
C237 C 0.80687 0.24916 0.48037 0.0
C238 C 0.8448 0.28677 0.47754 0.0
C239 C 0.95447 0.39607 0.46948 0.0
C240 C 0.91682 0.35828 0.47209 0.0
H241 H 0.78157 0.16921 0.49211 0.0
H242 H 0.84374 0.23126 0.48878 0.0
H243 H 0.81768 0.29124 0.44965 0.0
H244 H 0.97903 0.47658 0.45944 0.0
H245 H 0.91695 0.41372 0.46178 0.0
C246 C 0.61727 0.73476 0.79548 0.0
C247 C 0.64558 0.74315 0.81243 0.0
C248 C 0.61164 0.75983 0.79 0.0
C249 C 0.66468 0.85711 0.79519 0.0
H250 H 0.55061 0.82813 0.7839 0.0
C251 C 0.63049 0.95931 0.79548 0.0
C252 C 0.59868 0.95237 0.78138 0.0
C253 C 0.63751 0.93389 0.79691 0.0
C254 C 0.58276 0.83661 0.78663 0.0
H255 H 0.6891 0.78424 0.83729 0.0
H256 H 0.67964 0.82791 0.82757 0.0
H257 H 0.55973 0.78309 0.79107 0.0
H258 H 0.5496 0.91433 0.75741 0.0
H259 H 0.56221 0.86977 0.75954 0.0
H260 H 0.68782 0.91059 0.79087 0.0
C261 C 0.66232 0.80215 0.81831 0.0
C262 C 0.58794 0.81077 0.7908 0.0
C263 C 0.66776 0.77709 0.82387 0.0
C264 C 0.57446 0.92011 0.76834 0.0
C265 C 0.58149 0.8946 0.76971 0.0
C266 C 0.65954 0.88288 0.79092 0.0
C267 C 0.63436 0.7939 0.80127 0.0
C268 C 0.62891 0.82084 0.79546 0.0
C269 C 0.61276 0.901 0.78423 0.0
C270 C 0.61847 0.87308 0.78693 0.0
H271 H 0.60008 0.70909 0.78616 0.0
H272 H 0.59011 0.75278 0.77668 0.0
H273 H 0.69674 0.8656 0.79833 0.0
H274 H 0.64917 0.984 0.80583 0.0
H275 H 0.66135 0.93956 0.8085 0.0
C276 C 0.81755 0.44504 0.18681 0.0
C277 C 0.84023 0.479 0.19821 0.0
C278 C 0.77308 0.42337 0.18389 0.0
C279 C 0.69082 0.43674 0.18159 0.0
H280 H 0.61896 0.33541 0.16193 0.0
C281 C 0.52905 0.36865 0.13761 0.0
C282 C 0.52788 0.3544 0.1172 0.0
C283 C 0.55963 0.37677 0.15289 0.0
C284 C 0.63858 0.36364 0.16759 0.0
H285 H 0.83346 0.51477 0.21776 0.0
H286 H 0.75569 0.476 0.21372 0.0
H287 H 0.68644 0.36236 0.18186 0.0
H288 H 0.55612 0.33573 0.09707 0.0
H289 H 0.60969 0.34976 0.12396 0.0
H290 H 0.64313 0.43799 0.16711 0.0
C291 C 0.77242 0.46686 0.20612 0.0
C292 C 0.6773 0.37917 0.17889 0.0
C293 C 0.81708 0.48892 0.20869 0.0
C294 C 0.55648 0.34676 0.11267 0.0
C295 C 0.58677 0.35447 0.12807 0.0
C296 C 0.65182 0.42107 0.17069 0.0
C297 C 0.75008 0.43478 0.19268 0.0
C298 C 0.70482 0.41631 0.18524 0.0
C299 C 0.5893 0.37044 0.14812 0.0
C300 C 0.62617 0.38473 0.16292 0.0
H301 H 0.83435 0.43604 0.17911 0.0
H302 H 0.75737 0.39893 0.17345 0.0
H303 H 0.71113 0.46546 0.18581 0.0
H304 H 0.5077 0.37521 0.14146 0.0
H305 H 0.56107 0.38915 0.16822 0.0
C306 C 0.51341 0.93235 0.48419 0.0
C307 C 0.5141 0.95775 0.47363 0.0
C308 C 0.47651 0.89649 0.48307 0.0
C309 C 0.35929 0.83928 0.47118 0.0
H310 H 0.36782 0.76173 0.46293 0.0
C311 C 0.21413 0.69382 0.44418 0.0
C312 C 0.21047 0.66544 0.45258 0.0
C313 C 0.25065 0.72931 0.44882 0.0
C314 C 0.36489 0.78305 0.46556 0.0
H315 H 0.47648 0.9652 0.45347 0.0
H316 H 0.41255 0.90285 0.45139 0.0
H317 H 0.43296 0.82389 0.46679 0.0
H318 H 0.24204 0.65223 0.4728 0.0
H319 H 0.3058 0.71446 0.48115 0.0
H320 H 0.29129 0.79854 0.46972 0.0
C321 C 0.44028 0.91067 0.46078 0.0
C322 C 0.40225 0.8187 0.46775 0.0
C323 C 0.47712 0.94643 0.46186 0.0
C324 C 0.24379 0.67351 0.46618 0.0
C325 C 0.28049 0.70911 0.47078 0.0
C326 C 0.322 0.80369 0.469 0.0
C327 C 0.43941 0.88527 0.47144 0.0
C328 C 0.39988 0.84727 0.47029 0.0
C329 C 0.28451 0.73741 0.46199 0.0
C330 C 0.32429 0.77513 0.46588 0.0
H331 H 0.54118 0.94017 0.49353 0.0
H332 H 0.47681 0.8777 0.49162 0.0
H333 H 0.35631 0.8606 0.47356 0.0
H334 H 0.18882 0.68853 0.43383 0.0
H335 H 0.2528 0.75035 0.44161 0.0
C336 C 0.60876 0.34309 0.82315 0.0
C337 C 0.56955 0.33255 0.83096 0.0
C338 C 0.61515 0.31757 0.81736 0.0
C339 C 0.57587 0.22584 0.82539 0.0
H340 H 0.62289 0.22883 0.77136 0.0
C341 C 0.56779 0.10683 0.78779 0.0
C342 C 0.60215 0.11413 0.7761 0.0
C343 C 0.56627 0.13457 0.79534 0.0
C344 C 0.61039 0.22789 0.78665 0.0
H345 H 0.50629 0.28662 0.8387 0.0
H346 H 0.51782 0.24235 0.829 0.0
H347 H 0.61632 0.27549 0.78323 0.0
H348 H 0.66236 0.15631 0.76357 0.0
H349 H 0.66021 0.20493 0.77707 0.0
H350 H 0.57012 0.17844 0.82894 0.0
C351 C 0.5437 0.27044 0.8275 0.0
C352 C 0.60653 0.25461 0.79342 0.0
C353 C 0.53716 0.29588 0.83312 0.0
C354 C 0.63524 0.14985 0.77233 0.0
C355 C 0.6339 0.17766 0.78003 0.0
C356 C 0.58004 0.19928 0.81871 0.0
C357 C 0.58263 0.28096 0.81942 0.0
C358 C 0.5888 0.25365 0.81275 0.0
C359 C 0.59925 0.17036 0.79153 0.0
C360 C 0.59689 0.1997 0.79914 0.0
H361 H 0.63473 0.37113 0.82163 0.0
H362 H 0.64568 0.32652 0.81141 0.0
H363 H 0.56266 0.22469 0.8405 0.0
H364 H 0.54147 0.07951 0.79067 0.0
H365 H 0.53868 0.12777 0.80377 0.0
C366 C 0.64436 0.88956 0.54254 0.0
C367 C 0.63992 0.89567 0.52185 0.0
C368 C 0.63705 0.85763 0.54672 0.0
C369 C 0.58625 0.76437 0.524 0.0
H370 H 0.66723 0.77096 0.5623 0.0
C371 C 0.56733 0.63813 0.54329 0.0
C372 C 0.60483 0.64109 0.54297 0.0
C373 C 0.56957 0.66885 0.54319 0.0
C374 C 0.64438 0.76865 0.55153 0.0
H375 H 0.62407 0.87276 0.48933 0.0
H376 H 0.61129 0.81718 0.4966 0.0
H377 H 0.67431 0.82483 0.55673 0.0
H378 H 0.67393 0.6777 0.54265 0.0
H379 H 0.67816 0.73156 0.54238 0.0
H380 H 0.55721 0.70847 0.51822 0.0
C381 C 0.61983 0.83684 0.50968 0.0
C382 C 0.64815 0.79948 0.54851 0.0
C383 C 0.62715 0.86875 0.5055 0.0
C384 C 0.64468 0.67504 0.54312 0.0
C385 C 0.647 0.70579 0.54303 0.0
C386 C 0.58245 0.73355 0.52703 0.0
C387 C 0.62508 0.83101 0.53031 0.0
C388 C 0.61943 0.7978 0.53451 0.0
C389 C 0.60942 0.70302 0.54269 0.0
C390 C 0.61176 0.73537 0.54065 0.0
H391 H 0.6535 0.90948 0.55555 0.0
H392 H 0.64071 0.85377 0.56284 0.0
H393 H 0.56328 0.76202 0.51329 0.0
H394 H 0.53626 0.61201 0.54306 0.0
H395 H 0.54007 0.66579 0.54322 0.0
C396 C 0.7539 0.56791 0.83874 0.0
C397 C 0.7126 0.5384 0.84375 0.0
C398 C 0.78896 0.56724 0.84016 0.0
C399 C 0.82676 0.52332 0.8669 0.0
H400 H 0.91141 0.56036 0.82453 0.0
C401 C 0.96341 0.51088 0.87239 0.0
C402 C 1.00406 0.53831 0.86562 0.0
C403 C 0.92772 0.50969 0.86809 0.0
C404 C 0.88855 0.55031 0.83673 0.0
H405 H 0.67631 0.48479 0.85405 0.0
H406 H 0.73725 0.48382 0.85674 0.0
H407 H 0.85055 0.56116 0.82049 0.0
H408 H 1.03887 0.58587 0.84877 0.0
H409 H 0.97703 0.58462 0.84168 0.0
H410 H 0.8649 0.51346 0.88356 0.0
C411 C 0.7426 0.50761 0.85174 0.0
C412 C 0.85337 0.55068 0.83433 0.0
C413 C 0.70747 0.5081 0.85008 0.0
C414 C 1.00786 0.56409 0.85393 0.0
C415 C 0.97218 0.56328 0.84989 0.0
C416 C 0.8621 0.52335 0.86944 0.0
C417 C 0.78399 0.53722 0.8469 0.0
C418 C 0.82177 0.53701 0.84934 0.0
C419 C 0.93151 0.53639 0.85725 0.0
C420 C 0.89363 0.53662 0.85435 0.0
H421 H 0.7593 0.59175 0.8338 0.0
H422 H 0.82026 0.59067 0.83645 0.0
H423 H 0.80367 0.51317 0.87901 0.0
H424 H 0.95939 0.49059 0.88142 0.0
H425 H 0.89714 0.48784 0.87355 0.0
C426 C 0.2481 0.67818 0.16368 0.0
C427 C 0.20795 0.67071 0.16572 0.0
C428 C 0.28565 0.71376 0.16511 0.0
C429 C 0.32771 0.80537 0.15752 0.0
H430 H 0.41618 0.83539 0.20003 0.0
C431 C 0.46655 0.95547 0.18049 0.0
C432 C 0.50595 0.96522 0.1881 0.0
C433 C 0.43143 0.91923 0.17613 0.0
C434 C 0.39242 0.82752 0.18772 0.0
H435 H 0.17555 0.69456 0.17027 0.0
H436 H 0.24108 0.75665 0.17216 0.0
H437 H 0.35321 0.7726 0.19493 0.0
H438 H 0.54038 0.94517 0.19628 0.0
H439 H 0.48006 0.88205 0.18763 0.0
H440 H 0.36698 0.85978 0.14979 0.0
C441 C 0.24345 0.73498 0.16973 0.0
C442 C 0.35615 0.79147 0.18494 0.0
C443 C 0.20604 0.69948 0.16878 0.0
C444 C 0.51013 0.93822 0.19057 0.0
C445 C 0.47535 0.90203 0.18579 0.0
C446 C 0.36438 0.84131 0.15998 0.0
C447 C 0.28361 0.74245 0.16808 0.0
C448 C 0.32324 0.78017 0.17002 0.0
C449 C 0.43516 0.89188 0.17889 0.0
C450 C 0.39708 0.85308 0.17533 0.0
H451 H 0.25058 0.65657 0.16134 0.0
H452 H 0.31628 0.71889 0.16375 0.0
H453 H 0.30287 0.7972 0.14577 0.0
H454 H 0.46248 0.97586 0.17867 0.0
H455 H 0.40106 0.91276 0.17123 0.0
C456 C 0.55608 0.23976 0.48133 0.0
C457 C 0.58867 0.23692 0.48594 0.0
C458 C 0.56079 0.27096 0.48796 0.0
C459 C 0.61697 0.34776 0.52809 0.0
H460 H 0.58606 0.3903 0.49055 0.0
C461 C 0.64505 0.48116 0.55298 0.0
C462 C 0.61378 0.48439 0.54634 0.0
C463 C 0.64367 0.45201 0.54503 0.0
C464 C 0.59433 0.37854 0.50135 0.0
H465 H 0.65239 0.26543 0.50068 0.0
H466 H 0.66004 0.31945 0.51262 0.0
H467 H 0.58012 0.33738 0.47772 0.0
H468 H 0.55615 0.45932 0.52645 0.0
H469 H 0.55309 0.40813 0.51294 0.0
H470 H 0.63015 0.38816 0.5519 0.0
C471 C 0.63075 0.29733 0.50399 0.0
C472 C 0.59104 0.34827 0.49394 0.0
C473 C 0.62624 0.26629 0.49718 0.0
C474 C 0.58108 0.45785 0.53162 0.0
C475 C 0.57944 0.42854 0.52383 0.0
C476 C 0.61986 0.37781 0.53557 0.0
C477 C 0.598 0.29995 0.49953 0.0
C478 C 0.60227 0.33252 0.50724 0.0
C479 C 0.6107 0.42518 0.53043 0.0
C480 C 0.60848 0.39359 0.52232 0.0
H481 H 0.5264 0.21755 0.47304 0.0
H482 H 0.53479 0.27203 0.4845 0.0
H483 H 0.62532 0.33592 0.53879 0.0
H484 H 0.67088 0.50141 0.56415 0.0
H485 H 0.66872 0.45073 0.55022 0.0
C486 C 0.45548 0.51007 0.85337 0.0
C487 C 0.49596 0.54018 0.84796 0.0
C488 C 0.42064 0.51101 0.85502 0.0
C489 C 0.38162 0.56222 0.83971 0.0
H490 H 0.29934 0.51091 0.88209 0.0
C491 C 0.24567 0.57511 0.85487 0.0
C492 C 0.20517 0.54414 0.85922 0.0
C493 C 0.28145 0.57531 0.85426 0.0
C494 C 0.32165 0.52512 0.86998 0.0
H495 H 0.53093 0.59512 0.84016 0.0
H496 H 0.47065 0.59693 0.84321 0.0
H497 H 0.36026 0.51002 0.87939 0.0
H498 H 0.17025 0.48903 0.86635 0.0
H499 H 0.23237 0.48911 0.86533 0.0
H500 H 0.34299 0.5773 0.8303 0.0
C501 C 0.46551 0.57223 0.84589 0.0
C502 C 0.35682 0.52459 0.8684 0.0
C503 C 0.50038 0.57127 0.84423 0.0
C504 C 0.20123 0.51345 0.86323 0.0
C505 C 0.237 0.5136 0.86266 0.0
C506 C 0.34648 0.56279 0.84131 0.0
C507 C 0.42496 0.54212 0.85135 0.0
C508 C 0.38745 0.54305 0.8532 0.0
C509 C 0.27772 0.54444 0.85794 0.0
C510 C 0.31577 0.5442 0.85645 0.0
H511 H 0.45051 0.48552 0.85629 0.0
H512 H 0.39005 0.48699 0.8589 0.0
H513 H 0.4038 0.57631 0.82754 0.0
H514 H 0.24958 0.59909 0.85156 0.0
H515 H 0.3121 0.59978 0.85089 0.0
C516 C 0.97872 0.42457 0.1497 0.0
C517 C 0.98159 0.45345 0.15995 0.0
C518 C 0.94244 0.38907 0.15134 0.0
C519 C 0.85013 0.33347 0.18471 0.0
H520 H 0.80363 0.26299 0.13624 0.0
C521 C 0.71376 0.18131 0.19028 0.0
C522 C 0.68221 0.16353 0.17379 0.0
C523 C 0.75073 0.21669 0.18891 0.0
C524 C 0.81603 0.28237 0.14991 0.0
H525 H 0.94803 0.46747 0.17972 0.0
H526 H 0.88475 0.40584 0.18224 0.0
H527 H 0.86639 0.32467 0.13284 0.0
H528 H 0.66362 0.168 0.14313 0.0
H529 H 0.72769 0.22974 0.14074 0.0
H530 H 0.79918 0.29128 0.20166 0.0
C531 C 0.91082 0.41052 0.17324 0.0
C532 C 0.85236 0.31769 0.14802 0.0
C533 C 0.94706 0.44596 0.17164 0.0
C534 C 0.68775 0.18137 0.15602 0.0
C535 C 0.72457 0.21659 0.15461 0.0
C536 C 0.81382 0.2981 0.18661 0.0
C537 C 0.90813 0.38157 0.16326 0.0
C538 C 0.86978 0.34377 0.16536 0.0
C539 C 0.7567 0.2347 0.17098 0.0
C540 C 0.79613 0.27214 0.1692 0.0
H541 H 1.00476 0.42931 0.14066 0.0
H542 H 0.94168 0.36745 0.14362 0.0
H543 H 0.86297 0.35271 0.19847 0.0
H544 H 0.71003 0.16781 0.20409 0.0
H545 H 0.77496 0.22969 0.20172 0.0
C546 C 0.0796 0.54323 0.09545 0.0
C547 C 0.08118 0.57146 0.10566 0.0
C548 C 0.08482 0.54179 0.07378 0.0
C549 C 0.12407 0.59794 0.0284 0.0
H550 H 1.05469 0.50558 0.99527 0.0
C551 C 0.09608 0.58194 0.93817 0.0
C552 C 0.09547 0.5553 0.92632 0.0
C553 C 0.09961 0.58513 0.96015 0.0
C554 C 0.07477 0.53153 0.00434 0.0
H555 H 0.08897 0.62008 0.10125 0.0
H556 H 0.09681 0.61713 0.06333 0.0
H557 H 1.04924 0.5084 0.03334 0.0
H558 H 0.09923 0.51171 0.92811 0.0
H559 H 0.10512 0.51709 0.96675 0.0
H560 H 0.1485 0.62105 -0.0008 0.0
C561 C 0.09266 0.59652 0.07206 0.0
C562 C 0.07169 0.53319 0.0262 0.0
C563 C 0.08778 0.59809 0.09378 0.0
C564 C 0.09981 0.53257 0.93689 0.0
C565 C 0.10281 0.53547 0.95895 0.0
C566 C 0.12687 0.59628 0.00652 0.0
C567 C 0.09132 0.56837 0.06175 0.0
C568 C 0.09598 0.56646 0.03853 0.0
C569 C 0.1022 0.56152 0.97082 0.0
C570 C 0.10194 0.56309 0.99421 0.0
H571 H 0.07448 0.52227 0.10422 0.0
H572 H 0.08417 0.51998 0.06651 0.0
H573 H 0.14398 0.62398 0.03736 0.0
H574 H 0.093 0.59993 0.93041 0.0
H575 H 0.09869 0.60527 0.9688 0.0
C576 C 0.60707 0.05764 0.41297 0.0
C577 C 0.64663 0.07271 0.42344 0.0
C578 C 0.60477 0.05998 0.39133 0.0
C579 C 0.66449 0.07257 0.34365 0.0
H580 H 0.5854 0.0843 0.31812 0.0
C581 C 0.61191 0.08743 0.25649 0.0
C582 C 0.60801 0.05904 0.24479 0.0
C583 C 0.62086 0.09339 0.2783 0.0
C584 C 0.60807 0.08147 0.32502 0.0
H585 H 0.71493 0.10334 0.41983 0.0
H586 H 0.71109 0.10792 0.38225 0.0
H587 H 0.5921 0.0872 0.35641 0.0
H588 H 0.61268 0.0159 0.24654 0.0
H589 H 0.62791 0.02601 0.28445 0.0
H590 H 0.68064 0.067 0.31235 0.0
C591 C 0.68169 0.09359 0.39053 0.0
C592 C 0.61149 0.08266 0.34696 0.0
C593 C 0.68393 0.09113 0.41209 0.0
C594 C 0.61514 0.0378 0.25517 0.0
C595 C 0.6242 0.0438 0.27689 0.0
C596 C 0.66107 0.07137 0.32176 0.0
C597 C 0.64203 0.07756 0.37979 0.0
C598 C 0.63949 0.07791 0.35653 0.0
C599 C 0.62639 0.07122 0.2888 0.0
C600 C 0.63248 0.0754 0.31215 0.0
H601 H 0.57783 0.04334 0.42139 0.0
H602 H 0.57365 0.04707 0.38354 0.0
H603 H 0.68604 0.06839 0.35044 0.0
H604 H 0.60631 0.1041 0.24895 0.0
H605 H 0.62287 0.11502 0.28698 0.0
C606 C 0.55799 0.5271 0.77244 0.0
C607 C 0.59249 0.5356 0.78511 0.0
C608 C 0.56347 0.53524 0.75153 0.0
C609 C 0.64619 0.58485 0.71168 0.0
H610 H 0.55001 0.51407 0.67283 0.0
C611 C 0.65394 0.56452 0.62099 0.0
C612 C 0.62152 0.55988 0.60837 0.0
C613 C 0.65322 0.56732 0.64296 0.0
C614 C 0.57697 0.53429 0.68351 0.0
H615 H 0.66012 0.56021 0.78625 0.0
H616 H 0.66951 0.5729 0.74934 0.0
H617 H 0.5434 0.50748 0.7103 0.0
H618 H 0.56362 0.55548 0.60875 0.0
H619 H 0.5619 0.55969 0.64719 0.0
H620 H 0.68026 0.61034 0.68433 0.0
C621 C 0.63836 0.56087 0.7556 0.0
C622 C 0.57319 0.5307 0.70508 0.0
C623 C 0.63302 0.55344 0.77674 0.0
C624 C 0.58916 0.5593 0.61812 0.0
C625 C 0.58804 0.56149 0.64006 0.0
C626 C 0.65018 0.58804 0.68997 0.0
C627 C 0.60339 0.55123 0.74257 0.0
C628 C 0.60766 0.55595 0.71955 0.0
C629 C 0.61964 0.56489 0.65267 0.0
C630 C 0.61553 0.5628 0.67572 0.0
H631 H 0.52653 0.51379 0.77867 0.0
H632 H 0.53607 0.52847 0.74234 0.0
H633 H 0.67327 0.60513 0.72225 0.0
H634 H 0.6793 0.56515 0.61383 0.0
H635 H 0.67781 0.56972 0.65232 0.0
C636 C 0.64739 0.08331 0.54817 0.0
C637 C 0.60661 0.06317 0.53788 0.0
C638 C 0.6517 0.08023 0.56946 0.0
C639 C 0.59948 0.02146 0.61184 0.0
H640 H 0.65975 0.10941 0.64906 0.0
C641 C 0.5832 0.02103 0.70188 0.0
C642 C 0.61666 0.05034 0.71506 0.0
C643 C 0.58578 0.0208 0.68 0.0
C644 C 0.64367 0.08458 0.63897 0.0
H645 H 0.53854 0.02324 0.54137 0.0
H646 H 0.54616 0.01725 0.57854 0.0
H647 H 0.65754 0.11209 0.61123 0.0
H648 H 0.68005 0.10133 0.71602 0.0
H649 H 0.68588 0.10021 0.67791 0.0
H650 H 0.58608 0.99383 0.63941 0.0
C651 C 0.57468 0.03558 0.57019 0.0
C652 C 0.64222 0.0862 0.61725 0.0
C653 C 0.57031 0.03917 0.54902 0.0
C654 C 0.65375 0.07852 0.7061 0.0
C655 C 0.65677 0.07797 0.68425 0.0
C656 C 0.60159 0.01985 0.63357 0.0
C657 C 0.61536 0.05643 0.58068 0.0
C658 C 0.61956 0.05464 0.60351 0.0
C659 C 0.62227 0.04965 0.67083 0.0
C660 C 0.62312 0.05135 0.64751 0.0
H661 H 0.67586 0.10202 0.5399 0.0
H662 H 0.68341 0.09651 0.5772 0.0
H663 H 0.58211 0.99676 0.60152 0.0
H664 H 0.55405 0.9992 0.70846 0.0
H665 H 0.55825 0.99873 0.67033 0.0
C666 C 0.64715 0.55068 0.91586 0.0
C667 C 0.61402 0.53727 0.90054 0.0
C668 C 0.63874 0.53382 0.93443 0.0
C669 C 0.59954 0.50404 0.97709 0.0
H670 H 0.53369 0.40031 0.97278 0.0
C671 C 0.50678 0.41674 0.04505 0.0
C672 C 0.51039 0.38972 0.04873 0.0
C673 C 0.52472 0.43636 0.02758 0.0
C674 C 0.55245 0.4293 0.97422 0.0
H675 H 0.54606 0.49652 0.89281 0.0
H676 H 0.53171 0.4666 0.92484 0.0
H677 H 0.55528 0.43167 0.94078 0.0
H678 H 0.5359 0.36222 0.03723 0.0
H679 H 0.56657 0.39612 0.00623 0.0
H680 H 0.59539 0.5015 0.01053 0.0
C681 C 0.56414 0.48992 0.92249 0.0
C682 C 0.56455 0.44718 0.95595 0.0
C683 C 0.57237 0.50708 0.90419 0.0
C684 C 0.53265 0.38289 0.0347 0.0
C685 C 0.55004 0.40216 0.01699 0.0
C686 C 0.58684 0.48607 0.99538 0.0
C687 C 0.59721 0.50303 0.93777 0.0
C688 C 0.58773 0.48465 0.9572 0.0
C689 C 0.54618 0.42905 0.01328 0.0
C690 C 0.56276 0.44849 0.99409 0.0
H691 H 0.67951 0.57402 0.91345 0.0
H692 H 0.66474 0.54445 0.94602 0.0
H693 H 0.61723 0.53292 0.97846 0.0
H694 H 0.49023 0.42283 0.05578 0.0
H695 H 0.52096 0.45672 0.02499 0.0
C696 C 0.11213 0.57787 0.22838 0.0
C697 C 0.10787 0.54938 0.21666 0.0
C698 C 0.10746 0.57744 0.25015 0.0
C699 C 0.11563 0.53867 0.29591 0.0
H700 H 1.05396 0.56939 0.32352 0.0
C701 C 0.10038 0.53925 0.38578 0.0
C702 C 0.10876 0.57055 0.39594 0.0
C703 C 0.09338 0.53229 0.36387 0.0
C704 C 0.0715 0.56092 0.31607 0.0
H705 H 0.09526 0.49809 0.21835 0.0
H706 H 0.08733 0.49737 0.25632 0.0
H707 H 1.05667 0.5669 0.28522 0.0
H708 H 0.11329 0.61773 0.39127 0.0
H709 H 0.10212 0.60613 0.35319 0.0
H710 H 0.13153 0.5336 0.32667 0.0
C711 C 0.09445 0.52012 0.24878 0.0
C712 C 0.07307 0.55953 0.29413 0.0
C713 C 0.0989 0.52049 0.22704 0.0
C714 C 0.10758 0.59365 0.38386 0.0
C715 C 0.10069 0.58676 0.36202 0.0
C716 C 0.11425 0.54022 0.31784 0.0
C717 C 0.0988 0.54862 0.2606 0.0
C718 C 0.0955 0.54872 0.28383 0.0
C719 C 0.09456 0.55647 0.35167 0.0
C720 C 0.09257 0.55173 0.32823 0.0
H721 H 0.1195 0.60065 0.22078 0.0
H722 H 0.11156 0.60002 0.25887 0.0
H723 H 0.13363 0.53065 0.28847 0.0
H724 H 0.10117 0.52097 0.39464 0.0
H725 H 0.08801 0.50837 0.35644 0.0
loop_
_geom_bond_atom_site_label_1
_geom_bond_atom_site_label_2
_geom_bond_distance
_geom_bond_site_symmetry_2
_ccdc_geom_bond_type
La0 C2 2.928 . S
La0 O20 2.521 . S
La0 O21 2.628 . S
La0 O22 2.554 . S
La0 O23 2.757 . S
La0 O24 2.470 . S
La0 O29 2.482 . S
La0 O31 2.503 1_455 S
La1 C11 2.928 1_455 S
La1 O23 2.482 . S
La1 O25 2.503 . S
La1 O26 2.521 1_455 S
La1 O27 2.628 1_455 S
La1 O28 2.554 . S
La1 O29 2.757 . S
La1 O30 2.470 1_455 S
C2 La0 2.928 . S
C2 C3 1.503 . S
C2 O20 1.261 . S
C2 O21 1.243 . S
C3 C2 1.503 . S
C3 C4 1.394 . S
C3 C8 1.373 . S
C4 C3 1.394 . S
C4 C5 1.380 . S
C4 H32 0.930 . S
C5 C4 1.380 . S
C5 C6 1.376 . S
C5 H33 0.930 . S
C6 C5 1.376 . S
C6 C7 1.370 . S
C7 C6 1.370 . S
C7 C8 1.396 . S
C7 H34 0.929 . S
C8 C3 1.373 . S
C8 C7 1.396 . S
C8 H35 0.929 . S
C9 O22 1.240 . S
C9 O23 1.289 . S
C10 O24 1.258 . S
C10 O25 1.256 . S
C11 La1 2.928 1_655 S
C11 C12 1.503 . S
C11 O26 1.261 . S
C11 O27 1.243 . S
C12 C11 1.503 . S
C12 C13 1.394 . S
C12 C17 1.373 . S
C13 C12 1.394 . S
C13 C14 1.380 . S
C13 H36 0.930 . S
C14 C13 1.380 . S
C14 C15 1.376 . S
C14 H37 0.930 . S
C15 C14 1.376 . S
C15 C16 1.370 . S
C16 C15 1.370 . S
C16 C17 1.396 . S
C16 H38 0.929 . S
C17 C12 1.373 . S
C17 C16 1.396 . S
C17 H39 0.929 . S
C18 O28 1.240 . S
C18 O29 1.289 . S
C19 O30 1.258 . S
C19 O31 1.256 . S
O20 La0 2.521 . S
O20 C2 1.261 . S
O21 La0 2.628 . S
O21 C2 1.243 . S
O22 La0 2.554 . S
O22 C9 1.240 . S
O23 La0 2.757 . S
O23 La1 2.482 . S
O23 C9 1.289 . S
O24 La0 2.470 . S
O24 C10 1.258 . S
O25 La1 2.503 . S
O25 C10 1.256 . S
O26 La1 2.521 1_655 S
O26 C11 1.261 . S
O27 La1 2.628 1_655 S
O27 C11 1.243 . S
O28 La1 2.554 . S
O28 C18 1.240 . S
O29 La0 2.482 . S
O29 La1 2.757 . S
O29 C18 1.289 . S
O30 La1 2.470 1_655 S
O30 C19 1.258 . S
O31 La0 2.503 1_655 S
O31 C19 1.256 . S
H32 C4 0.930 . S
H33 C5 0.930 . S
H34 C7 0.929 . S
H35 C8 0.929 . S
H36 C13 0.930 . S
H37 C14 0.930 . S
H38 C16 0.929 . S
H39 C17 0.929 . S
La40 C42 2.928 1_545 S
La40 O60 2.521 1_545 S
La40 O61 2.628 1_545 S
La40 O62 2.554 . S
La40 O63 2.757 . S
La40 O64 2.470 1_545 S
La40 O69 2.482 . S
La40 O71 2.503 . S
La41 C51 2.928 . S
La41 O63 2.482 . S
La41 O65 2.503 1_545 S
La41 O66 2.521 . S
La41 O67 2.628 . S
La41 O68 2.554 . S
La41 O69 2.757 . S
La41 O70 2.470 . S
C42 La40 2.928 1_565 S
C42 C43 1.503 . S
C42 O60 1.261 . S
C42 O61 1.243 . S
C43 C42 1.503 . S
C43 C44 1.394 . S
C43 C48 1.373 . S
C44 C43 1.394 . S
C44 C45 1.380 . S
C44 H72 0.930 . S
C45 C44 1.380 . S
C45 C46 1.376 . S
C45 H73 0.930 . S
C46 C45 1.376 . S
C46 C47 1.370 . S
C47 C46 1.370 . S
C47 C48 1.396 . S
C47 H74 0.929 . S
C48 C43 1.373 . S
C48 C47 1.396 . S
C48 H75 0.929 . S
C49 O62 1.240 . S
C49 O63 1.289 . S
C50 O64 1.258 . S
C50 O65 1.256 . S
C51 La41 2.928 . S
C51 C52 1.503 . S
C51 O66 1.261 . S
C51 O67 1.243 . S
C52 C51 1.503 . S
C52 C53 1.394 . S
C52 C57 1.373 . S
C53 C52 1.394 . S
C53 C54 1.380 . S
C53 H76 0.930 . S
C54 C53 1.380 . S
C54 C55 1.376 . S
C54 H77 0.930 . S
C55 C54 1.376 . S
C55 C56 1.370 . S
C56 C55 1.370 . S
C56 C57 1.396 . S
C56 H78 0.929 . S
C57 C52 1.373 . S
C57 C56 1.396 . S
C57 H79 0.929 . S
C58 O68 1.240 . S
C58 O69 1.289 . S
C59 O70 1.258 . S
C59 O71 1.256 . S
O60 La40 2.521 1_565 S
O60 C42 1.261 . S
O61 La40 2.628 1_565 S
O61 C42 1.243 . S
O62 La40 2.554 . S
O62 C49 1.240 . S
O63 La40 2.757 . S
O63 La41 2.482 . S
O63 C49 1.289 . S
O64 La40 2.470 1_565 S
O64 C50 1.258 . S
O65 La41 2.503 1_565 S
O65 C50 1.256 . S
O66 La41 2.521 . S
O66 C51 1.261 . S
O67 La41 2.628 . S
O67 C51 1.243 . S
O68 La41 2.554 . S
O68 C58 1.240 . S
O69 La40 2.482 . S
O69 La41 2.757 . S
O69 C58 1.289 . S
O70 La41 2.470 . S
O70 C59 1.258 . S
O71 La40 2.503 . S
O71 C59 1.256 . S
H72 C44 0.930 . S
H73 C45 0.930 . S
H74 C47 0.929 . S
H75 C48 0.929 . S
H76 C53 0.930 . S
H77 C54 0.930 . S
H78 C56 0.929 . S
H79 C57 0.929 . S
La80 C82 2.928 . S
La80 O100 2.521 . S
La80 O101 2.628 . S
La80 O102 2.554 . S
La80 O103 2.757 . S
La80 O104 2.470 . S
La80 O109 2.482 . S
La80 O111 2.503 . S
La81 C91 2.928 . S
La81 O103 2.482 . S
La81 O105 2.503 . S
La81 O106 2.521 . S
La81 O107 2.628 . S
La81 O108 2.554 . S
La81 O109 2.757 . S
La81 O110 2.470 . S
C82 La80 2.928 . S
C82 C83 1.503 . S
C82 O100 1.261 . S
C82 O101 1.243 . S
C83 C82 1.503 . S
C83 C84 1.394 . S
C83 C88 1.373 . S
C84 C83 1.394 . S
C84 C85 1.380 . S
C84 H112 0.930 . S
C85 C84 1.380 . S
C85 C86 1.376 . S
C85 H113 0.930 . S
C86 C85 1.376 . S
C86 C87 1.370 . S
C87 C86 1.370 . S
C87 C88 1.396 . S
C87 H114 0.929 . S
C88 C83 1.373 . S
C88 C87 1.396 . S
C88 H115 0.929 . S
C89 O102 1.240 . S
C89 O103 1.289 . S
C90 O104 1.258 . S
C90 O105 1.256 . S
C91 La81 2.928 . S
C91 C92 1.503 . S
C91 O106 1.261 . S
C91 O107 1.243 . S
C92 C91 1.503 . S
C92 C93 1.394 . S
C92 C97 1.373 . S
C93 C92 1.394 . S
C93 C94 1.380 . S
C93 H116 0.930 . S
C94 C93 1.380 . S
C94 C95 1.376 . S
C94 H117 0.930 . S
C95 C94 1.376 . S
C95 C96 1.370 . S
C96 C95 1.370 . S
C96 C97 1.396 . S
C96 H118 0.929 . S
C97 C92 1.373 . S
C97 C96 1.396 . S
C97 H119 0.929 . S
C98 O108 1.240 . S
C98 O109 1.289 . S
C99 O110 1.258 . S
C99 O111 1.256 . S
O100 La80 2.521 . S
O100 C82 1.261 . S
O101 La80 2.628 . S
O101 C82 1.243 . S
O102 La80 2.554 . S
O102 C89 1.240 . S
O103 La80 2.757 . S
O103 La81 2.482 . S
O103 C89 1.289 . S
O104 La80 2.470 . S
O104 C90 1.258 . S
O105 La81 2.503 . S
O105 C90 1.256 . S
O106 La81 2.521 . S
O106 C91 1.261 . S
O107 La81 2.628 . S
O107 C91 1.243 . S
O108 La81 2.554 . S
O108 C98 1.240 . S
O109 La80 2.482 . S
O109 La81 2.757 . S
O109 C98 1.289 . S
O110 La81 2.470 . S
O110 C99 1.258 . S
O111 La80 2.503 . S
O111 C99 1.256 . S
H112 C84 0.930 . S
H113 C85 0.930 . S
H114 C87 0.929 . S
H115 C88 0.929 . S
H116 C93 0.930 . S
H117 C94 0.930 . S
H118 C96 0.929 . S
H119 C97 0.929 . S
H120 C123 0.929 1_565 S
H121 C126 0.929 . S
H122 C128 0.930 . S
C123 H120 0.929 1_545 S
C123 C124 1.398 . S
C123 C125 1.396 . S
C124 C123 1.398 . S
C124 C128 1.407 . S
C125 C123 1.396 . S
C125 C126 1.394 . S
C126 H121 0.929 . S
C126 C125 1.394 . S
C126 C127 1.382 . S
C127 C126 1.382 . S
C127 C128 1.392 . S
C127 N129 1.420 . S
C128 H122 0.930 . S
C128 C124 1.407 . S
C128 C127 1.392 . S
N129 C127 1.420 . S
N129 C130 1.244 . S
C130 N129 1.244 . S
H131 C134 0.929 . S
H132 C137 0.929 . S
H133 C139 0.930 . S
C134 H131 0.929 . S
C134 C135 1.398 . S
C134 C136 1.396 . S
C135 C134 1.398 . S
C135 C139 1.407 . S
C136 C134 1.396 . S
C136 C137 1.394 . S
C137 H132 0.929 . S
C137 C136 1.394 . S
C137 C138 1.382 . S
C138 C137 1.382 . S
C138 C139 1.392 . S
C138 N140 1.420 . S
C139 H133 0.930 . S
C139 C135 1.407 . S
C139 C138 1.392 . S
N140 C138 1.420 . S
N140 C141 1.244 . S
C141 N140 1.244 . S
H142 C145 0.929 . S
H143 C148 0.929 . S
H144 C150 0.930 . S
C145 H142 0.929 . S
C145 C146 1.398 . S
C145 C147 1.396 . S
C146 C145 1.398 . S
C146 C150 1.407 . S
C147 C145 1.396 . S
C147 C148 1.394 . S
C148 H143 0.929 . S
C148 C147 1.394 . S
C148 C149 1.382 . S
C149 C148 1.382 . S
C149 C150 1.392 . S
C149 N151 1.420 . S
C150 H144 0.930 . S
C150 C146 1.407 . S
C150 C149 1.392 . S
N151 C149 1.420 . S
N151 C152 1.244 . S
C152 N151 1.244 . S
H153 C156 0.929 . S
H154 C159 0.929 . S
H155 C161 0.930 . S
C156 H153 0.929 . S
C156 C157 1.398 . S
C156 C158 1.396 . S
C157 C156 1.398 . S
C157 C161 1.407 . S
C158 C156 1.396 . S
C158 C159 1.394 1_455 S
C159 H154 0.929 . S
C159 C158 1.394 1_655 S
C159 C160 1.382 . S
C160 C159 1.382 . S
C160 C161 1.392 1_655 S
C160 N162 1.420 . S
C161 H155 0.930 . S
C161 C157 1.407 . S
C161 C160 1.392 1_455 S
N162 C160 1.420 . S
N162 C163 1.244 . S
C163 N162 1.244 . S
H164 C167 0.929 . S
H165 C170 0.916 1_565 S
H166 C172 0.930 . S
C167 H164 0.929 . S
C167 C168 1.398 . S
C167 C169 1.396 . S
C168 C167 1.398 . S
C168 C172 1.407 . S
C169 C167 1.396 . S
C169 C170 1.394 . S
C170 H165 0.916 1_545 S
C170 C169 1.394 . S
C170 C171 1.382 . S
C171 C170 1.382 . S
C171 C172 1.392 . S
C171 N173 1.420 . S
C172 H166 0.930 . S
C172 C168 1.407 . S
C172 C171 1.392 . S
N173 C171 1.420 . S
N173 C174 1.244 1_545 S
C174 N173 1.244 1_565 S
H175 C178 0.929 . S
H176 C181 0.929 . S
H177 C183 0.930 . S
C178 H175 0.929 . S
C178 C179 1.398 . S
C178 C180 1.396 . S
C179 C178 1.398 . S
C179 C183 1.407 . S
C180 C178 1.396 . S
C180 C181 1.394 . S
C181 H176 0.929 . S
C181 C180 1.394 . S
C181 C182 1.382 . S
C182 C181 1.382 . S
C182 C183 1.392 . S
C182 N184 1.420 . S
C183 H177 0.930 . S
C183 C179 1.407 . S
C183 C182 1.392 . S
N184 C182 1.420 . S
N184 C185 1.244 . S
C185 N184 1.244 . S
C186 C187 1.349 . S
C186 C188 1.327 . S
C186 H211 0.950 . S
C187 C186 1.349 . S
C187 C203 1.349 . S
C188 C186 1.327 . S
C188 C207 1.429 . S
C188 H212 0.950 . S
C189 C206 1.574 . S
C189 C208 1.368 . S
C189 H213 0.949 . S
H190 C194 0.949 . S
C191 C192 1.349 . S
C191 C193 1.327 . S
C191 H214 0.950 . S
C192 C191 1.349 . S
C192 C204 1.349 . S
C193 C191 1.327 . S
C193 C209 1.429 . S
C193 H215 0.950 . S
C194 H190 0.949 . S
C194 C202 1.574 . S
C194 C210 1.368 . S
H195 C203 0.950 . S
H196 C201 0.950 . S
H197 C202 0.949 . S
H198 C204 0.950 . S
H199 C205 0.950 . S
H200 C206 0.949 . S
C201 H196 0.950 . S
C201 C203 1.327 . S
C201 C207 1.429 . S
C202 C194 1.574 . S
C202 H197 0.949 . S
C202 C208 1.368 . S
C203 C187 1.349 . S
C203 H195 0.950 . S
C203 C201 1.327 . S
C204 C192 1.349 . S
C204 H198 0.950 . S
C204 C205 1.327 . S
C205 H199 0.950 . S
C205 C204 1.327 . S
C205 C209 1.429 . S
C206 C189 1.574 . S
C206 H200 0.949 . S
C206 C210 1.368 . S
C207 C188 1.429 . S
C207 C201 1.429 . S
C207 C208 1.523 . S
C208 C189 1.368 . S
C208 C202 1.368 . S
C208 C207 1.523 . S
C209 C193 1.429 . S
C209 C205 1.429 . S
C209 C210 1.523 . S
C210 C194 1.368 . S
C210 C206 1.368 . S
C210 C209 1.523 . S
H211 C186 0.950 . S
H212 C188 0.950 . S
H213 C189 0.949 . S
H214 C191 0.950 . S
H215 C193 0.950 . S
C216 C217 1.349 . S
C216 C218 1.327 . S
C216 H241 0.950 . S
C217 C216 1.349 . S
C217 C233 1.349 . S
C218 C216 1.327 . S
C218 C237 1.429 . S
C218 H242 0.950 . S
C219 C236 1.574 . S
C219 C238 1.368 . S
C219 H243 0.949 . S
H220 C224 0.949 . S
C221 C222 1.349 . S
C221 C223 1.327 . S
C221 H244 0.950 . S
C222 C221 1.349 . S
C222 C234 1.349 . S
C223 C221 1.327 . S
C223 C239 1.429 . S
C223 H245 0.950 . S
C224 H220 0.949 . S
C224 C232 1.574 . S
C224 C240 1.368 . S
H225 C233 0.950 . S
H226 C231 0.950 . S
H227 C232 0.949 . S
H228 C234 0.950 . S
H229 C235 0.950 . S
H230 C236 0.949 . S
C231 H226 0.950 . S
C231 C233 1.327 . S
C231 C237 1.429 . S
C232 C224 1.574 . S
C232 H227 0.949 . S
C232 C238 1.368 . S
C233 C217 1.349 . S
C233 H225 0.950 . S
C233 C231 1.327 . S
C234 C222 1.349 . S
C234 H228 0.950 . S
C234 C235 1.327 . S
C235 H229 0.950 . S
C235 C234 1.327 . S
C235 C239 1.429 . S
C236 C219 1.574 . S
C236 H230 0.949 . S
C236 C240 1.368 . S
C237 C218 1.429 . S
C237 C231 1.429 . S
C237 C238 1.523 . S
C238 C219 1.368 . S
C238 C232 1.368 . S
C238 C237 1.523 . S
C239 C223 1.429 . S
C239 C235 1.429 . S
C239 C240 1.523 . S
C240 C224 1.368 . S
C240 C236 1.368 . S
C240 C239 1.523 . S
H241 C216 0.950 . S
H242 C218 0.950 . S
H243 C219 0.949 . S
H244 C221 0.950 . S
H245 C223 0.950 . S
C246 C247 1.349 . S
C246 C248 1.327 . S
C246 H271 0.950 . S
C247 C246 1.349 . S
C247 C263 1.349 . S
C248 C246 1.327 . S
C248 C267 1.429 . S
C248 H272 0.950 . S
C249 C266 1.574 . S
C249 C268 1.368 . S
C249 H273 0.949 . S
H250 C254 0.949 . S
C251 C252 1.349 . S
C251 C253 1.327 . S
C251 H274 0.950 . S
C252 C251 1.349 . S
C252 C264 1.349 . S
C253 C251 1.327 . S
C253 C269 1.429 . S
C253 H275 0.950 . S
C254 H250 0.949 . S
C254 C262 1.574 . S
C254 C270 1.368 . S
H255 C263 0.950 . S
H256 C261 0.950 . S
H257 C262 0.949 . S
H258 C264 0.950 . S
H259 C265 0.950 . S
H260 C266 0.949 . S
C261 H256 0.950 . S
C261 C263 1.327 . S
C261 C267 1.429 . S
C262 C254 1.574 . S
C262 H257 0.949 . S
C262 C268 1.368 . S
C263 C247 1.349 . S
C263 H255 0.950 . S
C263 C261 1.327 . S
C264 C252 1.349 . S
C264 H258 0.950 . S
C264 C265 1.327 . S
C265 H259 0.950 . S
C265 C264 1.327 . S
C265 C269 1.429 . S
C266 C249 1.574 . S
C266 H260 0.949 . S
C266 C270 1.368 . S
C267 C248 1.429 . S
C267 C261 1.429 . S
C267 C268 1.523 . S
C268 C249 1.368 . S
C268 C262 1.368 . S
C268 C267 1.523 . S
C269 C253 1.429 . S
C269 C265 1.429 . S
C269 C270 1.523 . S
C270 C254 1.368 . S
C270 C266 1.368 . S
C270 C269 1.523 . S
H271 C246 0.950 . S
H272 C248 0.950 . S
H273 C249 0.949 . S
H274 C251 0.950 . S
H275 C253 0.950 . S
C276 C277 1.349 . S
C276 C278 1.327 . S
C276 H301 0.950 . S
C277 C276 1.349 . S
C277 C293 1.349 . S
C278 C276 1.327 . S
C278 C297 1.429 . S
C278 H302 0.950 . S
C279 C296 1.574 . S
C279 C298 1.368 . S
C279 H303 0.949 . S
H280 C284 0.949 . S
C281 C282 1.349 . S
C281 C283 1.327 . S
C281 H304 0.950 . S
C282 C281 1.349 . S
C282 C294 1.349 . S
C283 C281 1.327 . S
C283 C299 1.429 . S
C283 H305 0.950 . S
C284 H280 0.949 . S
C284 C292 1.574 . S
C284 C300 1.368 . S
H285 C293 0.950 . S
H286 C291 0.950 . S
H287 C292 0.949 . S
H288 C294 0.950 . S
H289 C295 0.950 . S
H290 C296 0.949 . S
C291 H286 0.950 . S
C291 C293 1.327 . S
C291 C297 1.429 . S
C292 C284 1.574 . S
C292 H287 0.949 . S
C292 C298 1.368 . S
C293 C277 1.349 . S
C293 H285 0.950 . S
C293 C291 1.327 . S
C294 C282 1.349 . S
C294 H288 0.950 . S
C294 C295 1.327 . S
C295 H289 0.950 . S
C295 C294 1.327 . S
C295 C299 1.429 . S
C296 C279 1.574 . S
C296 H290 0.949 . S
C296 C300 1.368 . S
C297 C278 1.429 . S
C297 C291 1.429 . S
C297 C298 1.523 . S
C298 C279 1.368 . S
C298 C292 1.368 . S
C298 C297 1.523 . S
C299 C283 1.429 . S
C299 C295 1.429 . S
C299 C300 1.523 . S
C300 C284 1.368 . S
C300 C296 1.368 . S
C300 C299 1.523 . S
H301 C276 0.950 . S
H302 C278 0.950 . S
H303 C279 0.949 . S
H304 C281 0.950 . S
H305 C283 0.950 . S
C306 C307 1.349 . S
C306 C308 1.327 . S
C306 H331 0.950 . S
C307 C306 1.349 . S
C307 C323 1.349 . S
C308 C306 1.327 . S
C308 C327 1.429 . S
C308 H332 0.950 . S
C309 C326 1.574 . S
C309 C328 1.368 . S
C309 H333 0.949 . S
H310 C314 0.949 . S
C311 C312 1.349 . S
C311 C313 1.327 . S
C311 H334 0.950 . S
C312 C311 1.349 . S
C312 C324 1.349 . S
C313 C311 1.327 . S
C313 C329 1.429 . S
C313 H335 0.950 . S
C314 H310 0.949 . S
C314 C322 1.574 . S
C314 C330 1.368 . S
H315 C323 0.950 . S
H316 C321 0.950 . S
H317 C322 0.949 . S
H318 C324 0.950 . S
H319 C325 0.950 . S
H320 C326 0.949 . S
C321 H316 0.950 . S
C321 C323 1.327 . S
C321 C327 1.429 . S
C322 C314 1.574 . S
C322 H317 0.949 . S
C322 C328 1.368 . S
C323 C307 1.349 . S
C323 H315 0.950 . S
C323 C321 1.327 . S
C324 C312 1.349 . S
C324 H318 0.950 . S
C324 C325 1.327 . S
C325 H319 0.950 . S
C325 C324 1.327 . S
C325 C329 1.429 . S
C326 C309 1.574 . S
C326 H320 0.949 . S
C326 C330 1.368 . S
C327 C308 1.429 . S
C327 C321 1.429 . S
C327 C328 1.523 . S
C328 C309 1.368 . S
C328 C322 1.368 . S
C328 C327 1.523 . S
C329 C313 1.429 . S
C329 C325 1.429 . S
C329 C330 1.523 . S
C330 C314 1.368 . S
C330 C326 1.368 . S
C330 C329 1.523 . S
H331 C306 0.950 . S
H332 C308 0.950 . S
H333 C309 0.949 . S
H334 C311 0.950 . S
H335 C313 0.950 . S
C336 C337 1.349 . S
C336 C338 1.327 . S
C336 H361 0.950 . S
C337 C336 1.349 . S
C337 C353 1.349 . S
C338 C336 1.327 . S
C338 C357 1.429 . S
C338 H362 0.950 . S
C339 C356 1.574 . S
C339 C358 1.368 . S
C339 H363 0.949 . S
H340 C344 0.949 . S
C341 C342 1.349 . S
C341 C343 1.327 . S
C341 H364 0.950 . S
C342 C341 1.349 . S
C342 C354 1.349 . S
C343 C341 1.327 . S
C343 C359 1.429 . S
C343 H365 0.950 . S
C344 H340 0.949 . S
C344 C352 1.574 . S
C344 C360 1.368 . S
H345 C353 0.950 . S
H346 C351 0.950 . S
H347 C352 0.949 . S
H348 C354 0.950 . S
H349 C355 0.950 . S
H350 C356 0.949 . S
C351 H346 0.950 . S
C351 C353 1.327 . S
C351 C357 1.429 . S
C352 C344 1.574 . S
C352 H347 0.949 . S
C352 C358 1.368 . S
C353 C337 1.349 . S
C353 H345 0.950 . S
C353 C351 1.327 . S
C354 C342 1.349 . S
C354 H348 0.950 . S
C354 C355 1.327 . S
C355 H349 0.950 . S
C355 C354 1.327 . S
C355 C359 1.429 . S
C356 C339 1.574 . S
C356 H350 0.949 . S
C356 C360 1.368 . S
C357 C338 1.429 . S
C357 C351 1.429 . S
C357 C358 1.523 . S
C358 C339 1.368 . S
C358 C352 1.368 . S
C358 C357 1.523 . S
C359 C343 1.429 . S
C359 C355 1.429 . S
C359 C360 1.523 . S
C360 C344 1.368 . S
C360 C356 1.368 . S
C360 C359 1.523 . S
H361 C336 0.950 . S
H362 C338 0.950 . S
H363 C339 0.949 . S
H364 C341 0.950 . S
H365 C343 0.950 . S
C366 C367 1.349 . S
C366 C368 1.327 . S
C366 H391 0.950 . S
C367 C366 1.349 . S
C367 C383 1.349 . S
C368 C366 1.327 . S
C368 C387 1.429 . S
C368 H392 0.950 . S
C369 C386 1.574 . S
C369 C388 1.368 . S
C369 H393 0.949 . S
H370 C374 0.949 . S
C371 C372 1.349 . S
C371 C373 1.327 . S
C371 H394 0.950 . S
C372 C371 1.349 . S
C372 C384 1.349 . S
C373 C371 1.327 . S
C373 C389 1.429 . S
C373 H395 0.950 . S
C374 H370 0.949 . S
C374 C382 1.574 . S
C374 C390 1.368 . S
H375 C383 0.950 . S
H376 C381 0.950 . S
H377 C382 0.949 . S
H378 C384 0.950 . S
H379 C385 0.950 . S
H380 C386 0.949 . S
C381 H376 0.950 . S
C381 C383 1.327 . S
C381 C387 1.429 . S
C382 C374 1.574 . S
C382 H377 0.949 . S
C382 C388 1.368 . S
C383 C367 1.349 . S
C383 H375 0.950 . S
C383 C381 1.327 . S
C384 C372 1.349 . S
C384 H378 0.950 . S
C384 C385 1.327 . S
C385 H379 0.950 . S
C385 C384 1.327 . S
C385 C389 1.429 . S
C386 C369 1.574 . S
C386 H380 0.949 . S
C386 C390 1.368 . S
C387 C368 1.429 . S
C387 C381 1.429 . S
C387 C388 1.523 . S
C388 C369 1.368 . S
C388 C382 1.368 . S
C388 C387 1.523 . S
C389 C373 1.429 . S
C389 C385 1.429 . S
C389 C390 1.523 . S
C390 C374 1.368 . S
C390 C386 1.368 . S
C390 C389 1.523 . S
H391 C366 0.950 . S
H392 C368 0.950 . S
H393 C369 0.949 . S
H394 C371 0.950 . S
H395 C373 0.950 . S
C396 C397 1.349 . S
C396 C398 1.327 . S
C396 H421 0.950 . S
C397 C396 1.349 . S
C397 C413 1.349 . S
C398 C396 1.327 . S
C398 C417 1.429 . S
C398 H422 0.950 . S
C399 C416 1.574 . S
C399 C418 1.368 . S
C399 H423 0.949 . S
H400 C404 0.949 . S
C401 C402 1.349 . S
C401 C403 1.327 . S
C401 H424 0.950 . S
C402 C401 1.349 . S
C402 C414 1.349 . S
C403 C401 1.327 . S
C403 C419 1.429 . S
C403 H425 0.950 . S
C404 H400 0.949 . S
C404 C412 1.574 . S
C404 C420 1.368 . S
H405 C413 0.950 . S
H406 C411 0.950 . S
H407 C412 0.949 . S
H408 C414 0.950 . S
H409 C415 0.950 . S
H410 C416 0.949 . S
C411 H406 0.950 . S
C411 C413 1.327 . S
C411 C417 1.429 . S
C412 C404 1.574 . S
C412 H407 0.949 . S
C412 C418 1.368 . S
C413 C397 1.349 . S
C413 H405 0.950 . S
C413 C411 1.327 . S
C414 C402 1.349 . S
C414 H408 0.950 . S
C414 C415 1.327 . S
C415 H409 0.950 . S
C415 C414 1.327 . S
C415 C419 1.429 . S
C416 C399 1.574 . S
C416 H410 0.949 . S
C416 C420 1.368 . S
C417 C398 1.429 . S
C417 C411 1.429 . S
C417 C418 1.523 . S
C418 C399 1.368 . S
C418 C412 1.368 . S
C418 C417 1.523 . S
C419 C403 1.429 . S
C419 C415 1.429 . S
C419 C420 1.523 . S
C420 C404 1.368 . S
C420 C416 1.368 . S
C420 C419 1.523 . S
H421 C396 0.950 . S
H422 C398 0.950 . S
H423 C399 0.949 . S
H424 C401 0.950 . S
H425 C403 0.950 . S
C426 C427 1.349 . S
C426 C428 1.327 . S
C426 H451 0.950 . S
C427 C426 1.349 . S
C427 C443 1.349 . S
C428 C426 1.327 . S
C428 C447 1.429 . S
C428 H452 0.950 . S
C429 C446 1.574 . S
C429 C448 1.368 . S
C429 H453 0.949 . S
H430 C434 0.949 . S
C431 C432 1.349 . S
C431 C433 1.327 . S
C431 H454 0.950 . S
C432 C431 1.349 . S
C432 C444 1.349 . S
C433 C431 1.327 . S
C433 C449 1.429 . S
C433 H455 0.950 . S
C434 H430 0.949 . S
C434 C442 1.574 . S
C434 C450 1.368 . S
H435 C443 0.950 . S
H436 C441 0.950 . S
H437 C442 0.949 . S
H438 C444 0.950 . S
H439 C445 0.950 . S
H440 C446 0.949 . S
C441 H436 0.950 . S
C441 C443 1.327 . S
C441 C447 1.429 . S
C442 C434 1.574 . S
C442 H437 0.949 . S
C442 C448 1.368 . S
C443 C427 1.349 . S
C443 H435 0.950 . S
C443 C441 1.327 . S
C444 C432 1.349 . S
C444 H438 0.950 . S
C444 C445 1.327 . S
C445 H439 0.950 . S
C445 C444 1.327 . S
C445 C449 1.429 . S
C446 C429 1.574 . S
C446 H440 0.949 . S
C446 C450 1.368 . S
C447 C428 1.429 . S
C447 C441 1.429 . S
C447 C448 1.523 . S
C448 C429 1.368 . S
C448 C442 1.368 . S
C448 C447 1.523 . S
C449 C433 1.429 . S
C449 C445 1.429 . S
C449 C450 1.523 . S
C450 C434 1.368 . S
C450 C446 1.368 . S
C450 C449 1.523 . S
H451 C426 0.950 . S
H452 C428 0.950 . S
H453 C429 0.949 . S
H454 C431 0.950 . S
H455 C433 0.950 . S
C456 C457 1.349 . S
C456 C458 1.327 . S
C456 H481 0.950 . S
C457 C456 1.349 . S
C457 C473 1.349 . S
C458 C456 1.327 . S
C458 C477 1.429 . S
C458 H482 0.950 . S
C459 C476 1.574 . S
C459 C478 1.368 . S
C459 H483 0.949 . S
H460 C464 0.949 . S
C461 C462 1.349 . S
C461 C463 1.327 . S
C461 H484 0.950 . S
C462 C461 1.349 . S
C462 C474 1.349 . S
C463 C461 1.327 . S
C463 C479 1.429 . S
C463 H485 0.950 . S
C464 H460 0.949 . S
C464 C472 1.574 . S
C464 C480 1.368 . S
H465 C473 0.950 . S
H466 C471 0.950 . S
H467 C472 0.949 . S
H468 C474 0.950 . S
H469 C475 0.950 . S
H470 C476 0.949 . S
C471 H466 0.950 . S
C471 C473 1.327 . S
C471 C477 1.429 . S
C472 C464 1.574 . S
C472 H467 0.949 . S
C472 C478 1.368 . S
C473 C457 1.349 . S
C473 H465 0.950 . S
C473 C471 1.327 . S
C474 C462 1.349 . S
C474 H468 0.950 . S
C474 C475 1.327 . S
C475 H469 0.950 . S
C475 C474 1.327 . S
C475 C479 1.429 . S
C476 C459 1.574 . S
C476 H470 0.949 . S
C476 C480 1.368 . S
C477 C458 1.429 . S
C477 C471 1.429 . S
C477 C478 1.523 . S
C478 C459 1.368 . S
C478 C472 1.368 . S
C478 C477 1.523 . S
C479 C463 1.429 . S
C479 C475 1.429 . S
C479 C480 1.523 . S
C480 C464 1.368 . S
C480 C476 1.368 . S
C480 C479 1.523 . S
H481 C456 0.950 . S
H482 C458 0.950 . S
H483 C459 0.949 . S
H484 C461 0.950 . S
H485 C463 0.950 . S
C486 C487 1.349 . S
C486 C488 1.327 . S
C486 H511 0.950 . S
C487 C486 1.349 . S
C487 C503 1.349 . S
C488 C486 1.327 . S
C488 C507 1.429 . S
C488 H512 0.950 . S
C489 C506 1.574 . S
C489 C508 1.368 . S
C489 H513 0.949 . S
H490 C494 0.949 . S
C491 C492 1.349 . S
C491 C493 1.327 . S
C491 H514 0.950 . S
C492 C491 1.349 . S
C492 C504 1.349 . S
C493 C491 1.327 . S
C493 C509 1.429 . S
C493 H515 0.950 . S
C494 H490 0.949 . S
C494 C502 1.574 . S
C494 C510 1.368 . S
H495 C503 0.950 . S
H496 C501 0.950 . S
H497 C502 0.949 . S
H498 C504 0.950 . S
H499 C505 0.950 . S
H500 C506 0.949 . S
C501 H496 0.950 . S
C501 C503 1.327 . S
C501 C507 1.429 . S
C502 C494 1.574 . S
C502 H497 0.949 . S
C502 C508 1.368 . S
C503 C487 1.349 . S
C503 H495 0.950 . S
C503 C501 1.327 . S
C504 C492 1.349 . S
C504 H498 0.950 . S
C504 C505 1.327 . S
C505 H499 0.950 . S
C505 C504 1.327 . S
C505 C509 1.429 . S
C506 C489 1.574 . S
C506 H500 0.949 . S
C506 C510 1.368 . S
C507 C488 1.429 . S
C507 C501 1.429 . S
C507 C508 1.523 . S
C508 C489 1.368 . S
C508 C502 1.368 . S
C508 C507 1.523 . S
C509 C493 1.429 . S
C509 C505 1.429 . S
C509 C510 1.523 . S
C510 C494 1.368 . S
C510 C506 1.368 . S
C510 C509 1.523 . S
H511 C486 0.950 . S
H512 C488 0.950 . S
H513 C489 0.949 . S
H514 C491 0.950 . S
H515 C493 0.950 . S
C516 C517 1.349 . S
C516 C518 1.327 . S
C516 H541 0.950 . S
C517 C516 1.349 . S
C517 C533 1.349 . S
C518 C516 1.327 . S
C518 C537 1.429 . S
C518 H542 0.950 . S
C519 C536 1.574 . S
C519 C538 1.368 . S
C519 H543 0.949 . S
H520 C524 0.949 . S
C521 C522 1.349 . S
C521 C523 1.327 . S
C521 H544 0.950 . S
C522 C521 1.349 . S
C522 C534 1.349 . S
C523 C521 1.327 . S
C523 C539 1.429 . S
C523 H545 0.950 . S
C524 H520 0.949 . S
C524 C532 1.574 . S
C524 C540 1.368 . S
H525 C533 0.950 . S
H526 C531 0.950 . S
H527 C532 0.949 . S
H528 C534 0.950 . S
H529 C535 0.950 . S
H530 C536 0.949 . S
C531 H526 0.950 . S
C531 C533 1.327 . S
C531 C537 1.429 . S
C532 C524 1.574 . S
C532 H527 0.949 . S
C532 C538 1.368 . S
C533 C517 1.349 . S
C533 H525 0.950 . S
C533 C531 1.327 . S
C534 C522 1.349 . S
C534 H528 0.950 . S
C534 C535 1.327 . S
C535 H529 0.950 . S
C535 C534 1.327 . S
C535 C539 1.429 . S
C536 C519 1.574 . S
C536 H530 0.949 . S
C536 C540 1.368 . S
C537 C518 1.429 . S
C537 C531 1.429 . S
C537 C538 1.523 . S
C538 C519 1.368 . S
C538 C532 1.368 . S
C538 C537 1.523 . S
C539 C523 1.429 . S
C539 C535 1.429 . S
C539 C540 1.523 . S
C540 C524 1.368 . S
C540 C536 1.368 . S
C540 C539 1.523 . S
H541 C516 0.950 . S
H542 C518 0.950 . S
H543 C519 0.949 . S
H544 C521 0.950 . S
H545 C523 0.950 . S
C546 C547 1.349 . S
C546 C548 1.327 . S
C546 H571 0.950 1_455 S
C547 C546 1.349 . S
C547 C563 1.349 . S
C548 C546 1.327 . S
C548 C567 1.429 . S
C548 H572 0.950 1_455 S
C549 C566 1.574 . S
C549 C568 1.368 . S
C549 H573 0.949 . S
H550 C554 0.946 1_655 S
C551 C552 1.349 . S
C551 C553 1.327 . S
C551 H574 0.950 . S
C552 C551 1.349 . S
C552 C564 1.349 . S
C553 C551 1.327 . S
C553 C569 1.429 . S
C553 H575 0.950 . S
C554 H550 0.946 1_455 S
C554 C562 1.578 1_556 S
C554 C570 1.367 . S
H555 C563 0.950 . S
H556 C561 0.950 . S
H557 C562 0.949 1_655 S
H558 C564 0.953 . S
H559 C565 0.950 1_655 S
H560 C566 0.938 1_556 S
C561 H556 0.950 . S
C561 C563 1.327 . S
C561 C567 1.429 . S
C562 C554 1.578 1_554 S
C562 H557 0.949 1_455 S
C562 C568 1.368 . S
C563 C547 1.349 . S
C563 H555 0.950 . S
C563 C561 1.327 . S
C564 C552 1.349 . S
C564 H558 0.953 . S
C564 C565 1.327 . S
C565 H559 0.950 1_455 S
C565 C564 1.327 . S
C565 C569 1.429 . S
C566 C549 1.574 . S
C566 H560 0.938 1_554 S
C566 C570 1.368 1_554 S
C567 C548 1.429 . S
C567 C561 1.429 . S
C567 C568 1.523 . S
C568 C549 1.368 . S
C568 C562 1.368 . S
C568 C567 1.523 . S
C569 C553 1.429 . S
C569 C565 1.429 . S
C569 C570 1.523 . S
C570 C554 1.367 . S
C570 C566 1.368 1_556 S
C570 C569 1.523 . S
H571 C546 0.950 1_655 S
H572 C548 0.950 1_655 S
H573 C549 0.949 . S
H574 C551 0.950 . S
H575 C553 0.950 . S
C576 C577 1.349 . S
C576 C578 1.327 . S
C576 H601 0.950 1_545 S
C577 C576 1.349 . S
C577 C593 1.349 . S
C578 C576 1.327 . S
C578 C597 1.429 . S
C578 H602 0.950 1_545 S
C579 C596 1.574 . S
C579 C598 1.368 . S
C579 H603 0.949 . S
H580 C584 0.949 1_565 S
C581 C582 1.349 . S
C581 C583 1.327 . S
C581 H604 0.950 . S
C582 C581 1.349 . S
C582 C594 1.349 . S
C583 C581 1.327 . S
C583 C599 1.429 . S
C583 H605 0.950 . S
C584 H580 0.949 1_545 S
C584 C592 1.574 . S
C584 C600 1.368 . S
H585 C593 0.950 . S
H586 C591 0.950 . S
H587 C592 0.949 1_565 S
H588 C594 0.957 . S
H589 C595 0.950 1_565 S
H590 C596 0.949 . S
C591 H586 0.950 . S
C591 C593 1.327 . S
C591 C597 1.429 . S
C592 C584 1.574 . S
C592 H587 0.949 1_545 S
C592 C598 1.368 . S
C593 C577 1.349 . S
C593 H585 0.950 . S
C593 C591 1.327 . S
C594 C582 1.349 . S
C594 H588 0.957 . S
C594 C595 1.327 . S
C595 H589 0.950 1_545 S
C595 C594 1.327 . S
C595 C599 1.429 . S
C596 C579 1.574 . S
C596 H590 0.949 . S
C596 C600 1.368 . S
C597 C578 1.429 . S
C597 C591 1.429 . S
C597 C598 1.523 . S
C598 C579 1.368 . S
C598 C592 1.368 . S
C598 C597 1.523 . S
C599 C583 1.429 . S
C599 C595 1.429 . S
C599 C600 1.523 . S
C600 C584 1.368 . S
C600 C596 1.368 . S
C600 C599 1.523 . S
H601 C576 0.950 1_565 S
H602 C578 0.950 1_565 S
H603 C579 0.949 . S
H604 C581 0.950 . S
H605 C583 0.950 . S
C606 C607 1.349 . S
C606 C608 1.327 . S
C606 H631 0.950 . S
C607 C606 1.349 . S
C607 C623 1.349 . S
C608 C606 1.327 . S
C608 C627 1.429 . S
C608 H632 0.950 . S
C609 C626 1.574 . S
C609 C628 1.368 . S
C609 H633 0.949 . S
H610 C614 0.949 . S
C611 C612 1.349 . S
C611 C613 1.327 . S
C611 H634 0.950 . S
C612 C611 1.349 . S
C612 C624 1.349 . S
C613 C611 1.327 . S
C613 C629 1.429 . S
C613 H635 0.950 . S
C614 H610 0.949 . S
C614 C622 1.574 . S
C614 C630 1.368 . S
H615 C623 0.950 . S
H616 C621 0.950 . S
H617 C622 0.949 . S
H618 C624 0.950 . S
H619 C625 0.950 . S
H620 C626 0.949 . S
C621 H616 0.950 . S
C621 C623 1.327 . S
C621 C627 1.429 . S
C622 C614 1.574 . S
C622 H617 0.949 . S
C622 C628 1.368 . S
C623 C607 1.349 . S
C623 H615 0.950 . S
C623 C621 1.327 . S
C624 C612 1.349 . S
C624 H618 0.950 . S
C624 C625 1.327 . S
C625 H619 0.950 . S
C625 C624 1.327 . S
C625 C629 1.429 . S
C626 C609 1.574 . S
C626 H620 0.949 . S
C626 C630 1.368 . S
C627 C608 1.429 . S
C627 C621 1.429 . S
C627 C628 1.523 . S
C628 C609 1.368 . S
C628 C622 1.368 . S
C628 C627 1.523 . S
C629 C613 1.429 . S
C629 C625 1.429 . S
C629 C630 1.523 . S
C630 C614 1.368 . S
C630 C626 1.368 . S
C630 C629 1.523 . S
H631 C606 0.950 . S
H632 C608 0.950 . S
H633 C609 0.949 . S
H634 C611 0.950 . S
H635 C613 0.950 . S
C636 C637 1.349 . S
C636 C638 1.327 . S
C636 H661 0.950 . S
C637 C636 1.349 . S
C637 C653 1.349 . S
C638 C636 1.327 . S
C638 C657 1.429 . S
C638 H662 0.950 . S
C639 C656 1.574 . S
C639 C658 1.368 . S
C639 H663 0.949 1_545 S
H640 C644 0.949 . S
C641 C642 1.349 . S
C641 C643 1.327 . S
C641 H664 0.950 1_545 S
C642 C641 1.349 . S
C642 C654 1.349 . S
C643 C641 1.327 . S
C643 C659 1.429 . S
C643 H665 0.950 1_545 S
C644 H640 0.949 . S
C644 C652 1.574 . S
C644 C660 1.368 . S
H645 C653 0.950 1_565 S
H646 C651 0.950 1_565 S
H647 C652 0.949 . S
H648 C654 0.950 . S
H649 C655 0.950 . S
H650 C656 0.949 1_565 S
C651 H646 0.950 1_545 S
C651 C653 1.327 . S
C651 C657 1.429 . S
C652 C644 1.574 . S
C652 H647 0.949 . S
C652 C658 1.368 . S
C653 C637 1.349 . S
C653 H645 0.950 1_545 S
C653 C651 1.327 . S
C654 C642 1.349 . S
C654 H648 0.950 . S
C654 C655 1.327 . S
C655 H649 0.950 . S
C655 C654 1.327 . S
C655 C659 1.429 . S
C656 C639 1.574 . S
C656 H650 0.949 1_545 S
C656 C660 1.368 . S
C657 C638 1.429 . S
C657 C651 1.429 . S
C657 C658 1.523 . S
C658 C639 1.368 . S
C658 C652 1.368 . S
C658 C657 1.523 . S
C659 C643 1.429 . S
C659 C655 1.429 . S
C659 C660 1.523 . S
C660 C644 1.368 . S
C660 C656 1.368 . S
C660 C659 1.523 . S
H661 C636 0.950 . S
H662 C638 0.950 . S
H663 C639 0.949 1_565 S
H664 C641 0.950 1_565 S
H665 C643 0.950 1_565 S
C666 C667 1.349 . S
C666 C668 1.327 . S
C666 H691 0.950 . S
C667 C666 1.349 . S
C667 C683 1.349 . S
C668 C666 1.327 . S
C668 C687 1.429 . S
C668 H692 0.950 . S
C669 C686 1.574 . S
C669 C688 1.368 . S
C669 H693 0.949 . S
H670 C674 0.949 1_554 S
C671 C672 1.349 . S
C671 C673 1.327 . S
C671 H694 0.950 . S
C672 C671 1.349 . S
C672 C684 1.349 . S
C673 C671 1.327 . S
C673 C689 1.429 . S
C673 H695 0.950 . S
C674 H670 0.949 1_556 S
C674 C682 1.574 . S
C674 C690 1.368 1_556 S
H675 C683 0.950 . S
H676 C681 0.950 . S
H677 C682 0.949 . S
H678 C684 0.950 . S
H679 C685 0.950 . S
H680 C686 0.949 1_554 S
C681 H676 0.950 . S
C681 C683 1.327 . S
C681 C687 1.429 . S
C682 C674 1.574 . S
C682 H677 0.949 . S
C682 C688 1.368 . S
C683 C667 1.349 . S
C683 H675 0.950 . S
C683 C681 1.327 . S
C684 C672 1.349 . S
C684 H678 0.950 . S
C684 C685 1.327 . S
C685 H679 0.950 . S
C685 C684 1.327 . S
C685 C689 1.429 . S
C686 C669 1.574 . S
C686 H680 0.949 1_556 S
C686 C690 1.368 1_556 S
C687 C668 1.429 . S
C687 C681 1.429 . S
C687 C688 1.523 . S
C688 C669 1.368 . S
C688 C682 1.368 . S
C688 C687 1.523 . S
C689 C673 1.429 . S
C689 C685 1.429 . S
C689 C690 1.523 . S
C690 C674 1.368 1_554 S
C690 C686 1.368 1_554 S
C690 C689 1.523 . S
H691 C666 0.950 . S
H692 C668 0.950 . S
H693 C669 0.949 . S
H694 C671 0.950 . S
H695 C673 0.950 . S
C696 C697 1.349 . S
C696 C698 1.327 . S
C696 H721 0.950 . S
C697 C696 1.349 . S
C697 C713 1.349 . S
C698 C696 1.327 . S
C698 C717 1.429 . S
C698 H722 0.950 . S
C699 C716 1.574 . S
C699 C718 1.368 . S
C699 H723 0.949 . S
H700 C704 0.949 . S
C701 C702 1.349 . S
C701 C703 1.327 . S
C701 H724 0.950 . S
C702 C701 1.349 . S
C702 C714 1.349 . S
C703 C701 1.327 . S
C703 C719 1.429 . S
C703 H725 0.950 . S
C704 H700 0.949 . S
C704 C712 1.574 . S
C704 C720 1.368 . S
H705 C713 0.950 . S
H706 C711 0.950 . S
H707 C712 0.949 . S
H708 C714 0.950 . S
H709 C715 0.950 . S
H710 C716 0.949 . S
C711 H706 0.950 . S
C711 C713 1.327 . S
C711 C717 1.429 . S
C712 C704 1.574 . S
C712 H707 0.949 . S
C712 C718 1.368 . S
C713 C697 1.349 . S
C713 H705 0.950 . S
C713 C711 1.327 . S
C714 C702 1.349 . S
C714 H708 0.950 . S
C714 C715 1.327 . S
C715 H709 0.950 . S
C715 C714 1.327 . S
C715 C719 1.429 . S
C716 C699 1.574 . S
C716 H710 0.949 . S
C716 C720 1.368 . S
C717 C698 1.429 . S
C717 C711 1.429 . S
C717 C718 1.523 . S
C718 C699 1.368 . S
C718 C712 1.368 . S
C718 C717 1.523 . S
C719 C703 1.429 . S
C719 C715 1.429 . S
C719 C720 1.523 . S
C720 C704 1.368 . S
C720 C716 1.368 . S
C720 C719 1.523 . S
H721 C696 0.950 . S
H722 C698 0.950 . S
H723 C699 0.949 . S
H724 C701 0.950 . S
H725 C703 0.950 . S
C187 C6 0.552 . S
C192 C185 0.550 . S
C217 C59 1.921 . S
C222 C163 1.881 . S
C247 C86 1.221 . S
C252 C174 1.212 . S
C277 C15 0.241 . S
C282 C179 0.179 . S
C312 C157 1.812 . S
C307 C50 1.825 . S
C342 C168 1.109 . S
C337 C95 1.116 . S
C367 C46 1.259 . S
C372 C141 1.248 . S
C397 C99 3.005 . S
C402 C146 2.972 1_655 S
C427 C10 1.839 . S
C432 C124 1.833 1_565 S
C462 C135 1.091 . S
C457 C55 1.096 . S
C492 C152 2.994 . S
C487 C90 3.016 . S
C517 C19 1.920 . S
C522 C130 1.889 . S
C552 C147 1.719 . S
C547 C18 1.680 . S
C577 C49 1.415 . S
C582 C125 1.479 . S
C607 C98 1.510 . S
C612 C136 1.547 . S
C642 C169 1.529 . S
C637 C58 1.510 . S
C672 C180 1.291 . S
C667 C89 1.260 . S
C697 C9 1.394 . S
C702 C158 1.446 . S
