# Generated by pormake.
# Topology dag, (6,3)-cn, num edge types: 1
# Building blocks:
#     Node 0, Type 0, BuildingBlock: IZENUY_clean_sbu_0, # of connection points: 6
#     Node 1, Type 0, BuildingBlock: IZENUY_clean_sbu_0, # of connection points: 6
#     Node 2, Type 0, BuildingBlock: IZENUY_clean_sbu_0, # of connection points: 6
#     Node 3, Type 0, BuildingBlock: IZENUY_clean_sbu_0, # of connection points: 6
#     Node 4, Type 1, BuildingBlock: ESEHIV_clean_linker_0, # of connection points: 3
#     Node 5, Type 1, BuildingBlock: ESEHIV_clean_linker_0, # of connection points: 3
#     Node 6, Type 1, BuildingBlock: ESEHIV_clean_linker_0, # of connection points: 3
#     Node 7, Type 1, BuildingBlock: ESEHIV_clean_linker_0, # of connection points: 3
#     Node 8, Type 1, BuildingBlock: ESEHIV_clean_linker_0, # of connection points: 3
#     Node 9, Type 1, BuildingBlock: ESEHIV_clean_linker_0, # of connection points: 3
#     Node 10, Type 1, BuildingBlock: ESEHIV_clean_linker_0, # of connection points: 3
#     Node 11, Type 1, BuildingBlock: ESEHIV_clean_linker_0, # of connection points: 3
#     Edge 12, Type (0, 1), BuildingBlock: ZUJKAS_clean_linker_0, # of connection points: 2
#     Edge 13, Type (0, 1), BuildingBlock: ZUJKAS_clean_linker_0, # of connection points: 2
#     Edge 14, Type (0, 1), BuildingBlock: ZUJKAS_clean_linker_0, # of connection points: 2
#     Edge 15, Type (0, 1), BuildingBlock: ZUJKAS_clean_linker_0, # of connection points: 2
#     Edge 16, Type (0, 1), BuildingBlock: ZUJKAS_clean_linker_0, # of connection points: 2
#     Edge 17, Type (0, 1), BuildingBlock: ZUJKAS_clean_linker_0, # of connection points: 2
#     Edge 18, Type (0, 1), BuildingBlock: ZUJKAS_clean_linker_0, # of connection points: 2
#     Edge 19, Type (0, 1), BuildingBlock: ZUJKAS_clean_linker_0, # of connection points: 2
#     Edge 20, Type (0, 1), BuildingBlock: ZUJKAS_clean_linker_0, # of connection points: 2
#     Edge 21, Type (0, 1), BuildingBlock: ZUJKAS_clean_linker_0, # of connection points: 2
#     Edge 22, Type (0, 1), BuildingBlock: ZUJKAS_clean_linker_0, # of connection points: 2
#     Edge 23, Type (0, 1), BuildingBlock: ZUJKAS_clean_linker_0, # of connection points: 2
#     Edge 24, Type (0, 1), BuildingBlock: ZUJKAS_clean_linker_0, # of connection points: 2
#     Edge 25, Type (0, 1), BuildingBlock: ZUJKAS_clean_linker_0, # of connection points: 2
#     Edge 26, Type (0, 1), BuildingBlock: ZUJKAS_clean_linker_0, # of connection points: 2
#     Edge 27, Type (0, 1), BuildingBlock: ZUJKAS_clean_linker_0, # of connection points: 2
#     Edge 28, Type (0, 1), BuildingBlock: ZUJKAS_clean_linker_0, # of connection points: 2
#     Edge 29, Type (0, 1), BuildingBlock: ZUJKAS_clean_linker_0, # of connection points: 2
#     Edge 30, Type (0, 1), BuildingBlock: ZUJKAS_clean_linker_0, # of connection points: 2
#     Edge 31, Type (0, 1), BuildingBlock: ZUJKAS_clean_linker_0, # of connection points: 2
#     Edge 32, Type (0, 1), BuildingBlock: ZUJKAS_clean_linker_0, # of connection points: 2
#     Edge 33, Type (0, 1), BuildingBlock: ZUJKAS_clean_linker_0, # of connection points: 2
#     Edge 34, Type (0, 1), BuildingBlock: ZUJKAS_clean_linker_0, # of connection points: 2
#     Edge 35, Type (0, 1), BuildingBlock: ZUJKAS_clean_linker_0, # of connection points: 2
# Relax obj value: 0.255
# Max RMSD: 0.192
# Mean RMSD: 0.159
data_MOF--net-dag--node1-IZENUY_clean_sbu_0--node2-ESEHIV_clean_linker_0--edge1-ZUJKAS_clean_linker_0
_symmetry_space_group_name_H-M    P1
_symmetry_Int_Tables_number       1
_symmetry_cell_setting            triclinic
loop_
_symmetry_equiv_pos_as_xyz
'x, y, z'
_cell_length_a     47.213427
_cell_length_b     49.14131
_cell_length_c     41.567552
_cell_angle_alpha  95.180813
_cell_angle_beta   90.163305
_cell_angle_gamma 89.978808
loop_
_atom_site_label
_atom_site_type_symbol
_atom_site_fract_x
_atom_site_fract_y
_atom_site_fract_z
_atom_type_partial_charge
Fe0 Fe 0.18782 0.84528 0.09729 0.0
Fe1 Fe 0.13166 0.86219 0.06807 0.0
O2 O 0.1555 0.8363 0.07732 0.0
Fe3 Fe 0.14699 0.80146 0.0667 0.0
O4 O 0.14859 0.79398 0.10864 0.0
O5 O 0.18916 0.81474 0.11947 0.0
O6 O 0.16953 0.86224 0.13195 0.0
C7 C 0.15184 0.88129 0.13022 0.0
C8 C 0.20574 0.80429 0.0533 0.0
O9 O 0.14063 0.88557 0.10345 0.0
C10 C 0.12894 0.8243 0.01269 0.0
O11 O 0.19237 0.87746 0.07862 0.0
O12 O 0.15772 0.87732 0.04328 0.0
O13 O 0.18391 0.79067 0.05941 0.0
O14 O 0.2082 0.829 0.06408 0.0
C15 C 0.09444 0.82464 0.08774 0.0
O16 O 0.11838 0.84364 0.03098 0.0
O17 O 0.14462 0.80663 0.02396 0.0
C18 C 0.18187 0.88539 0.053 0.0
O19 O 0.10401 0.84865 0.09221 0.0
O20 O 0.10859 0.806 0.07204 0.0
C21 C 0.16971 0.79877 0.12693 0.0
Fe22 Fe 0.6855 0.6542 0.48441 0.0
Fe23 Fe 0.64553 0.6987 0.51475 0.0
O24 O 0.65315 0.66376 0.50378 0.0
Fe25 Fe 0.62841 0.63839 0.51197 0.0
O26 O 0.65364 0.62202 0.53687 0.0
O27 O 0.68861 0.62139 0.50215 0.0
O28 O 0.7058 0.66932 0.51848 0.0
C29 C 0.70401 0.69405 0.5294 0.0
C30 C 0.64873 0.62002 0.44979 0.0
O31 O 0.68268 0.70834 0.52303 0.0
C32 C 0.5927 0.67723 0.49199 0.0
O33 O 0.68826 0.68518 0.46309 0.0
O34 O 0.64795 0.70657 0.47307 0.0
O35 O 0.63709 0.61537 0.47615 0.0
O36 O 0.66723 0.63846 0.44903 0.0
C37 C 0.62581 0.67595 0.56789 0.0
O38 O 0.60701 0.69537 0.50844 0.0
O39 O 0.60162 0.65302 0.48758 0.0
C40 C 0.66933 0.70168 0.45539 0.0
O41 O 0.64243 0.69308 0.5572 0.0
O42 O 0.61518 0.65685 0.54917 0.0
C43 C 0.67737 0.61297 0.52704 0.0
Fe44 Fe 0.85455 0.20012 0.02069 0.0
Fe45 Fe 0.87006 0.13942 0.01744 0.0
O46 O 0.84607 0.16543 0.00912 0.0
Fe47 Fe 0.8137 0.15668 0.98909 0.0
O48 O 0.81204 0.18775 0.96787 0.0
O49 O 0.85253 0.20858 0.97913 0.0
O50 O 0.89294 0.1958 0.01473 0.0
C51 C 0.90681 0.17749 0.9981 0.0
C52 C 0.79586 0.1968 0.03431 0.0
O53 O 0.89731 0.15348 0.99329 0.0
C54 C 0.82027 0.11541 0.032 0.0
O55 O 0.85728 0.19403 0.06314 0.0
O56 O 0.88372 0.15734 0.0547 0.0
O57 O 0.79334 0.17229 0.02273 0.0
O58 O 0.81771 0.21058 0.02871 0.0
C59 C 0.84971 0.12138 0.95513 0.0
O60 O 0.84423 0.12376 0.04207 0.0
O61 O 0.8095 0.12398 0.00684 0.0
C62 C 0.87321 0.17621 0.07369 0.0
O63 O 0.86088 0.11661 0.98173 0.0
O64 O 0.83192 0.14043 0.9539 0.0
C65 C 0.83124 0.20423 0.961 0.0
Fe66 Fe 0.36847 0.35964 0.56205 0.0
Fe67 Fe 0.31498 0.34438 0.59767 0.0
O68 O 0.3456 0.33445 0.57498 0.0
Fe69 Fe 0.35329 0.29936 0.56536 0.0
O70 O 0.38705 0.30219 0.58628 0.0
O71 O 0.40082 0.3393 0.56492 0.0
O72 O 0.37536 0.37323 0.60322 0.0
C73 C 0.35655 0.38196 0.62294 0.0
C74 C 0.36821 0.32358 0.50823 0.0
O75 O 0.33078 0.37566 0.61796 0.0
C76 C 0.29612 0.29946 0.55568 0.0
O77 O 0.34022 0.38454 0.55677 0.0
O78 O 0.30072 0.36269 0.56537 0.0
O79 O 0.36994 0.30413 0.52623 0.0
O80 O 0.36311 0.34757 0.52011 0.0
C81 C 0.3336 0.30187 0.62987 0.0
O82 O 0.2935 0.3149 0.58162 0.0
O83 O 0.32021 0.2943 0.54367 0.0
C84 C 0.31376 0.38142 0.5528 0.0
O85 O 0.32744 0.32688 0.63129 0.0
O86 O 0.33808 0.28834 0.60289 0.0
C87 C 0.40623 0.31888 0.58045 0.0
H88 H 0.03875 0.10244 0.31496 0.0
H89 H 0.10412 0.11145 0.38722 0.0
H90 H 0.04656 0.17769 0.37566 0.0
C91 C 0.04856 0.11422 0.3353 0.0
C92 C 0.03908 0.14098 0.34414 0.0
C93 C 0.07198 0.10331 0.35066 0.0
C94 C 0.08571 0.11944 0.3756 0.0
C95 C 0.07687 0.14637 0.38443 0.0
C96 C 0.0534 0.15692 0.36882 0.0
H97 H 0.4699 0.61285 0.80946 0.0
H98 H 0.3969 0.61731 0.87098 0.0
H99 H 0.45128 0.68732 0.86789 0.0
C100 C 0.45732 0.62393 0.82808 0.0
C101 C 0.46429 0.65116 0.83829 0.0
C102 C 0.43303 0.61154 0.83956 0.0
C103 C 0.41566 0.62671 0.86189 0.0
C104 C 0.42198 0.6541 0.87213 0.0
C105 C 0.44655 0.66608 0.86055 0.0
H106 H 0.80286 0.85232 0.11029 0.0
H107 H 0.78861 0.79262 0.17763 0.0
H108 H 0.72646 0.8554 0.16633 0.0
C109 C 0.78895 0.84324 0.12708 0.0
C110 C 0.76329 0.85617 0.13598 0.0
C111 C 0.79823 0.82038 0.14202 0.0
C112 C 0.78106 0.8098 0.16538 0.0
C113 C 0.75496 0.82213 0.17416 0.0
C114 C 0.74624 0.84537 0.15932 0.0
H115 H 0.69297 0.34948 0.61505 0.0
H116 H 0.70876 0.29385 0.68668 0.0
H117 H 0.76912 0.35744 0.67217 0.0
C118 C 0.7071 0.34186 0.6328 0.0
C119 C 0.73227 0.35593 0.64133 0.0
C120 C 0.69863 0.31955 0.6491 0.0
C121 C 0.71592 0.31057 0.67343 0.0
C122 C 0.74169 0.32385 0.68165 0.0
C123 C 0.74962 0.34668 0.66559 0.0
H124 H 0.53417 0.39463 0.27139 0.0
H125 H 0.60659 0.3841 0.20947 0.0
H126 H 0.54529 0.31938 0.21152 0.0
C127 C 0.54578 0.38238 0.25286 0.0
C128 C 0.53636 0.3559 0.24257 0.0
C129 C 0.57092 0.39275 0.24084 0.0
C130 C 0.58655 0.37656 0.21771 0.0
C131 C 0.57765 0.34989 0.2073 0.0
C132 C 0.55232 0.33988 0.21953 0.0
H133 H 0.1935 0.13972 0.96158 0.0
H134 H 0.21357 0.20669 0.90627 0.0
H135 H 0.27083 0.13833 0.90726 0.0
C136 C 0.20818 0.14973 0.94645 0.0
C137 C 0.23307 0.1362 0.93588 0.0
C138 C 0.20111 0.17517 0.93599 0.0
C139 C 0.21959 0.1875 0.91536 0.0
C140 C 0.24502 0.17452 0.90513 0.0
C141 C 0.25173 0.14889 0.91574 0.0
H142 H 0.30696 0.62712 0.45351 0.0
H143 H 0.28961 0.69374 0.39651 0.0
H144 H 0.22685 0.63107 0.40492 0.0
C145 C 0.29253 0.63767 0.43853 0.0
C146 C 0.26591 0.62623 0.43067 0.0
C147 C 0.30123 0.66198 0.42635 0.0
C148 C 0.28245 0.67562 0.40714 0.0
C149 C 0.25548 0.66465 0.39925 0.0
C150 C 0.24724 0.64007 0.4115 0.0
H151 H 0.95811 0.89428 0.77517 0.0
H152 H 0.94655 0.81747 0.71839 0.0
H153 H 0.88865 0.88369 0.70832 0.0
C154 C 0.94711 0.88199 0.75612 0.0
C155 C 0.92275 0.89256 0.74224 0.0
C156 C 0.95608 0.85499 0.74756 0.0
C157 C 0.94031 0.83851 0.72462 0.0
C158 C 0.91566 0.8486 0.71087 0.0
C159 C 0.90743 0.87578 0.71928 0.0
H160 H 0.11448 0.92366 0.13419 0.0
H161 H 0.10637 0.95755 0.17961 0.0
H162 H 0.16745 0.91757 0.23659 0.0
H163 H 0.1758 0.88312 0.19095 0.0
H164 H 0.11396 0.9349 0.26937 0.0
H165 H 0.16629 0.01724 0.20867 0.0
H166 H 0.14027 0.99863 0.18394 0.0
H167 H 0.17159 0.98143 0.19621 0.0
C168 C 0.12625 0.92191 0.15632 0.0
C169 C 0.1461 0.90082 0.15875 0.0
C170 C 0.12157 0.94137 0.18226 0.0
C171 C 0.13664 0.94028 0.21119 0.0
C172 C 0.15577 0.9188 0.2143 0.0
H173 H 0.12771 0.08915 0.34162 0.0
H174 H 0.14663 0.04697 0.31444 0.0
C175 C 0.16053 0.89921 0.18821 0.0
C176 C 0.13254 0.96217 0.2376 0.0
H177 H 0.13601 0.03139 0.25301 0.0
C178 C 0.11917 0.95598 0.26615 0.0
C179 C 0.1398 0.98954 0.2335 0.0
C180 C 0.15554 0.99715 0.20406 0.0
C181 C 0.11141 0.97677 0.28997 0.0
C182 C 0.11682 0.00436 0.28474 0.0
C183 C 0.13163 0.01028 0.25697 0.0
C184 C 0.10575 0.02765 0.3063 0.0
C185 C 0.09724 0.96899 0.32029 0.0
C186 C 0.07649 0.03063 0.31142 0.0
C187 C 0.0656 0.05461 0.32737 0.0
C188 C 0.08372 0.07629 0.33814 0.0
C189 C 0.11313 0.07278 0.33412 0.0
C190 C 0.124 0.04872 0.31836 0.0
H191 H 0.10343 0.94806 0.32571 0.0
H192 H 0.10264 0.98355 0.34141 0.0
H193 H 0.07393 0.96915 0.31682 0.0
H194 H 0.0619 0.01495 0.30173 0.0
H195 H 0.04288 0.05654 0.33033 0.0
H196 H 0.59369 0.6408 0.59914 0.0
H197 H 0.57266 0.64835 0.65258 0.0
H198 H 0.61326 0.72706 0.66715 0.0
H199 H 0.63469 0.71972 0.61317 0.0
H200 H 0.61333 0.69026 0.72326 0.0
H201 H 0.50819 0.70834 0.66939 0.0
H202 H 0.5261 0.67858 0.65115 0.0
H203 H 0.54098 0.71188 0.64782 0.0
C204 C 0.59839 0.6597 0.61364 0.0
C205 C 0.61557 0.67984 0.60165 0.0
C206 C 0.58635 0.66394 0.64422 0.0
C207 C 0.59114 0.68838 0.6635 0.0
C208 C 0.60927 0.70811 0.65244 0.0
H209 H 0.46569 0.70215 0.81648 0.0
H210 H 0.50086 0.71965 0.78064 0.0
C211 C 0.62143 0.70388 0.62164 0.0
C212 C 0.57574 0.69332 0.69437 0.0
H213 H 0.50839 0.69535 0.72347 0.0
C214 C 0.59043 0.69201 0.72356 0.0
C215 C 0.54598 0.69618 0.69467 0.0
C216 C 0.52935 0.6991 0.66412 0.0
C217 C 0.57578 0.69137 0.7529 0.0
C218 C 0.54577 0.69153 0.75271 0.0
C219 C 0.53136 0.69503 0.72377 0.0
C220 C 0.52863 0.6846 0.78076 0.0
C221 C 0.59259 0.68987 0.78358 0.0
C222 C 0.53306 0.65959 0.79387 0.0
C223 C 0.51322 0.64975 0.81478 0.0
C224 C 0.48821 0.66444 0.82253 0.0
C225 C 0.48478 0.69038 0.81125 0.0
C226 C 0.50482 0.70036 0.79056 0.0
H227 H 0.61307 0.70085 0.78232 0.0
H228 H 0.58072 0.6987 0.80507 0.0
H229 H 0.59749 0.66817 0.7867 0.0
H230 H 0.55085 0.6467 0.78623 0.0
H231 H 0.51667 0.62986 0.82343 0.0
H232 H 0.77443 0.0852 0.00966 0.0
H233 H 0.75655 0.04331 0.02975 0.0
H234 H 0.81771 0.05122 0.1073 0.0
H235 H 0.83612 0.09287 0.08709 0.0
H236 H 0.82015 0.00196 0.07187 0.0
H237 H 0.70898 0.02573 0.10698 0.0
H238 H 0.71772 0.03371 0.06687 0.0
H239 H 0.73479 0.05193 0.10104 0.0
C240 C 0.78376 0.07833 0.03134 0.0
C241 C 0.80691 0.09224 0.04659 0.0
C242 C 0.77334 0.05447 0.04293 0.0
C243 C 0.78563 0.0443 0.07017 0.0
C244 C 0.80789 0.05879 0.08627 0.0
H245 H 0.74783 0.90315 0.17146 0.0
H246 H 0.74873 0.94935 0.15386 0.0
C247 C 0.81841 0.08256 0.07464 0.0
C248 C 0.77765 0.01701 0.07963 0.0
H249 H 0.7224 0.97864 0.10327 0.0
C250 C 0.7988 0.99693 0.07888 0.0
C251 C 0.7498 0.01055 0.08885 0.0
C252 C 0.72654 0.03167 0.09131 0.0
C253 C 0.79288 0.97046 0.08686 0.0
C254 C 0.76488 0.96372 0.09514 0.0
C255 C 0.74372 0.98384 0.09637 0.0
C256 C 0.75791 0.93605 0.10396 0.0
C257 C 0.81682 0.95005 0.08687 0.0
C258 C 0.76127 0.91334 0.08132 0.0
C259 C 0.76085 0.88697 0.0913 0.0
C260 C 0.75679 0.88296 0.12401 0.0
C261 C 0.75082 0.90563 0.14606 0.0
C262 C 0.75141 0.93203 0.13608 0.0
H263 H 0.83789 0.96014 0.08704 0.0
H264 H 0.81545 0.93801 0.10817 0.0
H265 H 0.81538 0.93565 0.06478 0.0
H266 H 0.76591 0.91609 0.05631 0.0
H267 H 0.7652 0.8698 0.07378 0.0
H268 H 0.4493 0.3555 0.58815 0.0
H269 H 0.49903 0.34651 0.59906 0.0
H270 H 0.48058 0.26075 0.60163 0.0
H271 H 0.43032 0.26982 0.59188 0.0
H272 H 0.51712 0.27723 0.64801 0.0
H273 H 0.55443 0.31393 0.53402 0.0
H274 H 0.53437 0.34008 0.5565 0.0
H275 H 0.5174 0.30848 0.54181 0.0
C276 C 0.4558 0.33471 0.59104 0.0
C277 C 0.43599 0.31331 0.58876 0.0
C278 C 0.48428 0.32956 0.59705 0.0
C279 C 0.49371 0.30283 0.60013 0.0
C280 C 0.47383 0.28149 0.59894 0.0
H281 H 0.67833 0.2912 0.5946 0.0
H282 H 0.62873 0.27927 0.58244 0.0
C283 C 0.44515 0.28671 0.59341 0.0
C284 C 0.5243 0.2975 0.6049 0.0
H285 H 0.5894 0.3128 0.57629 0.0
C286 C 0.53297 0.28459 0.63206 0.0
C287 C 0.54502 0.30624 0.58356 0.0
C288 C 0.53729 0.31764 0.55216 0.0
C289 C 0.56181 0.28179 0.63954 0.0
C290 C 0.58246 0.29309 0.61994 0.0
C291 C 0.57373 0.30446 0.59171 0.0
C292 C 0.61287 0.29541 0.62923 0.0
C293 C 0.5697 0.26679 0.66837 0.0
C294 C 0.62068 0.30777 0.65979 0.0
C295 C 0.64902 0.31383 0.66695 0.0
C296 C 0.66994 0.30831 0.6434 0.0
C297 C 0.66244 0.29534 0.61316 0.0
C298 C 0.63415 0.28867 0.60623 0.0
H299 H 0.55399 0.25056 0.67211 0.0
H300 H 0.591 0.2573 0.66564 0.0
H301 H 0.56962 0.28135 0.6904 0.0
H302 H 0.60475 0.31414 0.67758 0.0
H303 H 0.65438 0.32435 0.6902 0.0
H304 H 0.67812 0.61406 0.39253 0.0
H305 H 0.66821 0.58148 0.3455 0.0
H306 H 0.59503 0.55235 0.39387 0.0
H307 H 0.60464 0.58457 0.44063 0.0
H308 H 0.66541 0.52357 0.34773 0.0
H309 H 0.5649 0.56446 0.303 0.0
H310 H 0.58903 0.58493 0.32892 0.0
H311 H 0.56468 0.56196 0.34581 0.0
C312 C 0.65974 0.60093 0.39295 0.0
C313 C 0.64225 0.60179 0.42039 0.0
C314 C 0.65412 0.58238 0.36608 0.0
C315 C 0.63066 0.56484 0.36606 0.0
C316 C 0.61292 0.56609 0.39314 0.0
H317 H 0.57616 0.4099 0.30451 0.0
H318 H 0.59402 0.45376 0.32864 0.0
C319 C 0.61861 0.58436 0.41999 0.0
C320 C 0.62574 0.54343 0.33926 0.0
H321 H 0.57353 0.51621 0.28927 0.0
C322 C 0.64567 0.52229 0.33426 0.0
C323 C 0.60006 0.5419 0.32158 0.0
C324 C 0.57856 0.56468 0.32484 0.0
C325 C 0.63954 0.49863 0.31396 0.0
C326 C 0.61294 0.49621 0.2984 0.0
C327 C 0.59389 0.51817 0.30142 0.0
C328 C 0.60299 0.46971 0.28296 0.0
C329 C 0.66082 0.47567 0.31061 0.0
C330 C 0.60213 0.46434 0.24925 0.0
C331 C 0.59198 0.43916 0.23532 0.0
C332 C 0.58215 0.41935 0.25501 0.0
C333 C 0.58318 0.42493 0.28875 0.0
C334 C 0.59353 0.44986 0.30256 0.0
H335 H 0.68222 0.48254 0.31905 0.0
H336 H 0.65381 0.45913 0.32526 0.0
H337 H 0.6622 0.46697 0.28506 0.0
H338 H 0.60929 0.47957 0.23383 0.0
H339 H 0.59137 0.43533 0.20926 0.0
H340 H 0.94018 0.22127 0.01848 0.0
H341 H 0.99019 0.22783 0.0063 0.0
H342 H 0.98956 0.15343 0.94269 0.0
H343 H 0.93979 0.14632 0.95539 0.0
H344 H 0.03157 0.154 0.98595 0.0
H345 H 0.03196 0.25165 0.92871 0.0
H346 H 0.01484 0.25392 0.96736 0.0
H347 H -5e-05 0.23254 0.93417 0.0
C348 C 0.95056 0.20652 0.0015 0.0
C349 C 0.93608 0.18315 0.98808 0.0
C350 C 0.97912 0.21042 0.99439 0.0
C351 C 0.99353 0.19128 0.97332 0.0
C352 C 0.97881 0.16848 0.95898 0.0
H353 H 0.16158 0.19049 0.89343 0.0
H354 H 0.11117 0.19865 0.90419 0.0
C355 C 0.95039 0.16442 0.96631 0.0
C356 C 0.02451 0.19344 0.9686 0.0
H357 H 0.07697 0.23445 0.94356 0.0
C358 C 0.04146 0.17157 0.97659 0.0
C359 C 0.03735 0.21632 0.95624 0.0
C360 C 0.02008 0.23984 0.94582 0.0
C361 C 0.07087 0.17185 0.97252 0.0
C362 C 0.08386 0.19506 0.96105 0.0
C363 C 0.06696 0.21692 0.95287 0.0
C364 C 0.11481 0.19594 0.95572 0.0
C365 C 0.08764 0.1469 0.97969 0.0
C366 C 0.1337 0.1932 0.98136 0.0
C367 C 0.16239 0.18828 0.97522 0.0
C368 C 0.17266 0.18659 0.94343 0.0
C369 C 0.15419 0.19188 0.91817 0.0
C370 C 0.12541 0.19646 0.92428 0.0
H371 H 0.0739 0.12861 0.98041 0.0
H372 H 0.10437 0.1422 0.9613 0.0
H373 H 0.09801 0.15078 0.00365 0.0
H374 H 0.12598 0.19334 0.00589 0.0
H375 H 0.17631 0.18448 0.99509 0.0
H376 H 0.25732 0.39453 0.55835 0.0
H377 H 0.23254 0.43149 0.53369 0.0
H378 H 0.30952 0.45113 0.48523 0.0
H379 H 0.33437 0.41472 0.50983 0.0
H380 H 0.25211 0.48867 0.54248 0.0
H381 H 0.2465 0.44863 0.41392 0.0
H382 H 0.24971 0.4267 0.44644 0.0
H383 H 0.28046 0.44335 0.43193 0.0
C384 C 0.2688 0.40651 0.54206 0.0
C385 C 0.29782 0.40188 0.53613 0.0
C386 C 0.25463 0.42755 0.52804 0.0
C387 C 0.26915 0.44371 0.50736 0.0
C388 C 0.29785 0.43855 0.50071 0.0
H389 H 0.30007 0.58179 0.42459 0.0
H390 H 0.29125 0.53675 0.44238 0.0
C391 C 0.31207 0.41789 0.515 0.0
C392 C 0.25571 0.4678 0.49491 0.0
H393 H 0.24811 0.49792 0.42472 0.0
C394 C 0.25023 0.49061 0.51677 0.0
C395 C 0.25315 0.47005 0.46141 0.0
C396 C 0.25749 0.44578 0.43705 0.0
C397 C 0.2453 0.51643 0.50587 0.0
C398 C 0.24548 0.51916 0.47228 0.0
C399 C 0.24813 0.49577 0.45047 0.0
C400 C 0.24886 0.54616 0.45967 0.0
C401 C 0.24262 0.54094 0.53029 0.0
C402 C 0.22772 0.56633 0.46309 0.0
C403 C 0.23286 0.5924 0.45314 0.0
C404 C 0.25922 0.59851 0.43984 0.0
C405 C 0.27981 0.57789 0.43547 0.0
C406 C 0.27469 0.55205 0.4453 0.0
H407 H 0.2453 0.53551 0.55549 0.0
H408 H 0.2587 0.55656 0.52556 0.0
H409 H 0.22139 0.55028 0.52811 0.0
H410 H 0.20752 0.56204 0.4738 0.0
H411 H 0.21658 0.60791 0.4566 0.0
H412 H 0.12541 0.77722 0.97152 0.0
H413 H 0.10256 0.77235 0.91793 0.0
H414 H 0.08837 0.85931 0.92397 0.0
H415 H 0.11072 0.86434 0.97714 0.0
H416 H 0.03818 0.81098 0.91604 0.0
H417 H 0.12463 0.81517 0.82575 0.0
H418 H 0.12925 0.79836 0.86237 0.0
H419 H 0.12774 0.83489 0.86441 0.0
C420 C 0.11796 0.79531 0.96105 0.0
C421 C 0.11953 0.82112 0.97862 0.0
C422 C 0.10495 0.7925 0.93053 0.0
C423 C 0.0939 0.81551 0.91719 0.0
C424 C 0.09691 0.84137 0.93392 0.0
H425 H 0.00622 0.87988 0.7661 0.0
H426 H 0.04123 0.86433 0.80376 0.0
C427 C 0.10955 0.84416 0.96434 0.0
C428 C 0.07608 0.81285 0.88786 0.0
H429 H 0.0776 0.82024 0.80706 0.0
C430 C 0.04668 0.81231 0.892 0.0
C431 C 0.08747 0.81502 0.85687 0.0
C432 C 0.11902 0.81584 0.85174 0.0
C433 C 0.02816 0.81537 0.86616 0.0
C434 C 0.03947 0.81838 0.83513 0.0
C435 C 0.06898 0.81771 0.83076 0.0
C436 C 0.02101 0.82533 0.80813 0.0
C437 C 0.99675 0.81727 0.87288 0.0
C438 C 0.99867 0.80811 0.79702 0.0
C439 C 0.97827 0.81717 0.776 0.0
C440 C 0.98009 0.8435 0.76532 0.0
C441 C 0.00382 0.85975 0.77444 0.0
C442 C 0.02402 0.85078 0.79571 0.0
H443 H 0.99216 0.82027 0.89916 0.0
H444 H 0.98712 0.83444 0.86107 0.0
H445 H 0.98632 0.79806 0.86306 0.0
H446 H 0.99626 0.78816 0.80583 0.0
H447 H 0.96028 0.8041 0.76962 0.0
H448 H 0.8222 0.11688 0.89621 0.0
H449 H 0.82989 0.08165 0.85114 0.0
H450 H 0.89785 0.0476 0.90416 0.0
H451 H 0.8905 0.0823 0.94892 0.0
H452 H 0.8848 0.06427 0.81484 0.0
H453 H 0.83576 0.98563 0.88479 0.0
H454 H 0.8296 0.02179 0.89394 0.0
H455 H 0.86191 0.00657 0.90661 0.0
C456 C 0.83895 0.10205 0.89808 0.0
C457 C 0.85544 0.10214 0.92637 0.0
C458 C 0.84332 0.08201 0.87234 0.0
C459 C 0.86418 0.06192 0.87464 0.0
C460 C 0.88143 0.06278 0.90216 0.0
H461 H 0.95312 0.9395 0.75846 0.0
H462 H 0.93563 0.98242 0.78544 0.0
C463 C 0.87712 0.08263 0.92774 0.0
C464 C 0.86733 0.03892 0.84945 0.0
H465 H 0.86351 0.96945 0.83931 0.0
C466 C 0.87973 0.04353 0.81982 0.0
C467 C 0.86035 0.01201 0.85596 0.0
C468 C 0.84593 0.00611 0.88693 0.0
C469 C 0.88671 0.02161 0.7971 0.0
C470 C 0.88148 0.99453 0.8046 0.0
C471 C 0.86769 0.99017 0.83357 0.0
C472 C 0.89155 0.9702 0.78406 0.0
C473 C 0.89984 0.02766 0.7655 0.0
C474 C 0.87267 0.94894 0.77442 0.0
C475 C 0.88269 0.92415 0.75969 0.0
C476 C 0.91185 0.92007 0.7542 0.0
C477 C 0.93058 0.94184 0.76261 0.0
C478 C 0.92055 0.96658 0.77759 0.0
H479 H 0.89363 0.04825 0.75889 0.0
H480 H 0.92325 0.02736 0.76791 0.0
H481 H 0.89359 0.01222 0.74559 0.0
H482 H 0.85024 0.95118 0.77943 0.0
H483 H 0.86765 0.90776 0.75405 0.0
H484 H 0.38891 0.2767 0.47577 0.0
H485 H 0.41014 0.27201 0.42189 0.0
H486 H 0.38915 0.35582 0.40956 0.0
H487 H 0.36759 0.36069 0.46304 0.0
H488 H 0.38257 0.31812 0.35193 0.0
H489 H 0.4873 0.31095 0.41284 0.0
H490 H 0.46089 0.28643 0.42184 0.0
H491 H 0.45575 0.32195 0.43467 0.0
C492 C 0.38834 0.294 0.46139 0.0
C493 C 0.37703 0.31924 0.47398 0.0
C494 C 0.40052 0.29127 0.43063 0.0
C495 C 0.40159 0.31371 0.41206 0.0
C496 C 0.38859 0.3383 0.42361 0.0
H497 H 0.48607 0.38096 0.25965 0.0
H498 H 0.45037 0.36526 0.29601 0.0
C499 C 0.37642 0.34107 0.45428 0.0
C500 C 0.4188 0.31276 0.38231 0.0
H501 H 0.48739 0.31304 0.35699 0.0
C502 C 0.40548 0.31661 0.35283 0.0
C503 C 0.44865 0.31078 0.38365 0.0
C504 C 0.46414 0.30748 0.41491 0.0
C505 C 0.42135 0.3192 0.32472 0.0
C506 C 0.45128 0.31848 0.32644 0.0
C507 C 0.46445 0.31346 0.35564 0.0
C508 C 0.46966 0.32564 0.29958 0.0
C509 C 0.40593 0.32297 0.29362 0.0
C510 C 0.49233 0.30858 0.28923 0.0
C511 C 0.51315 0.31777 0.26898 0.0
C512 C 0.5117 0.34425 0.25874 0.0
C513 C 0.48798 0.36059 0.26743 0.0
C514 C 0.46729 0.35146 0.28786 0.0
H515 H 0.38466 0.31326 0.29325 0.0
H516 H 0.40281 0.34512 0.29153 0.0
H517 H 0.41807 0.31422 0.2723 0.0
H518 H 0.49469 0.28866 0.29818 0.0
H519 H 0.53126 0.30475 0.26308 0.0
H520 H 0.16294 0.9114 0.00162 0.0
H521 H 0.18503 0.94966 0.97792 0.0
H522 H 0.25603 0.94628 0.04297 0.0
H523 H 0.2338 0.9082 0.06738 0.0
H524 H 0.23423 0.99686 0.04399 0.0
H525 H 0.25041 0.95676 0.9171 0.0
H526 H 0.21469 0.95115 0.92939 0.0
H527 H 0.24345 0.9347 0.94866 0.0
C528 C 0.18344 0.91849 0.01064 0.0
C529 C 0.19649 0.90686 0.03657 0.0
C530 C 0.1962 0.94022 0.9968 0.0
C531 C 0.22243 0.95051 0.00829 0.0
C532 C 0.2359 0.93848 0.03357 0.0
H533 H 0.28071 0.1139 0.96098 0.0
H534 H 0.28596 0.06715 0.9773 0.0
C535 C 0.22311 0.91678 0.04753 0.0
C536 C 0.23392 0.97573 0.99627 0.0
H537 H 0.24513 0.00619 0.92685 0.0
C538 C 0.23745 0.99877 0.01847 0.0
C539 C 0.23829 0.97811 0.963 0.0
C540 C 0.23681 0.95374 0.93825 0.0
C541 C 0.24282 0.02461 0.008 0.0
C542 C 0.24491 0.02731 0.97454 0.0
C543 C 0.24342 0.00399 0.95251 0.0
C544 C 0.24379 0.05442 0.96194 0.0
C545 C 0.24408 0.04916 0.03255 0.0
C546 C 0.21869 0.06227 0.94731 0.0
C547 C 0.21565 0.08868 0.93823 0.0
C548 C 0.23771 0.10773 0.94349 0.0
C549 C 0.26339 0.09955 0.95683 0.0
C550 C 0.26637 0.073 0.96618 0.0
H551 H 0.23999 0.04375 0.0575 0.0
H552 H 0.26535 0.0587 0.03201 0.0
H553 H 0.22826 0.06465 0.02648 0.0
H554 H 0.20107 0.04818 0.94384 0.0
H555 H 0.19582 0.09436 0.92747 0.0
H556 H 0.55724 0.64388 0.45447 0.0
H557 H 0.5083 0.6526 0.4399 0.0
H558 H 0.5132 0.73328 0.48988 0.0
H559 H 0.56238 0.72462 0.50504 0.0
H560 H 0.4665 0.70407 0.50708 0.0
H561 H 0.47413 0.69959 0.37415 0.0
H562 H 0.49062 0.67051 0.38949 0.0
H563 H 0.5048 0.70415 0.40019 0.0
C564 C 0.5481 0.66362 0.46212 0.0
C565 C 0.56374 0.68352 0.48103 0.0
C566 C 0.52015 0.66867 0.4535 0.0
C567 C 0.50726 0.69376 0.46334 0.0
C568 C 0.52287 0.71388 0.4818 0.0
H569 H 0.32105 0.71385 0.44387 0.0
H570 H 0.3708 0.72799 0.45214 0.0
C571 C 0.55095 0.70887 0.49041 0.0
C572 C 0.4768 0.69772 0.45652 0.0
H573 H 0.42805 0.6891 0.3957 0.0
C574 C 0.45805 0.70156 0.4827 0.0
C575 C 0.46587 0.69463 0.42469 0.0
C576 C 0.48496 0.69229 0.39553 0.0
C577 C 0.42861 0.70011 0.47798 0.0
C578 C 0.41781 0.6949 0.44629 0.0
C579 C 0.43647 0.69295 0.42 0.0
C580 C 0.38782 0.68744 0.44033 0.0
C581 C 0.40928 0.70223 0.50694 0.0
C582 C 0.38116 0.66017 0.43056 0.0
C583 C 0.35307 0.65211 0.42595 0.0
C584 C 0.33099 0.67121 0.43092 0.0
C585 C 0.33768 0.69874 0.43998 0.0
C586 C 0.36597 0.70679 0.44481 0.0
H587 H 0.4212 0.70455 0.5301 0.0
H588 H 0.39509 0.72014 0.50592 0.0
H589 H 0.39573 0.68373 0.50659 0.0
H590 H 0.39778 0.64499 0.42689 0.0
H591 H 0.34861 0.63087 0.41834 0.0
H592 H 0.32145 0.41598 0.66035 0.0
H593 H 0.33516 0.45168 0.70237 0.0
H594 H 0.42285 0.42861 0.68972 0.0
H595 H 0.40946 0.39344 0.64709 0.0
H596 H 0.36316 0.45134 0.76023 0.0
H597 H 0.425 0.50881 0.67536 0.0
H598 H 0.40181 0.48095 0.66173 0.0
H599 H 0.43666 0.47419 0.67677 0.0
C600 C 0.34365 0.41845 0.66658 0.0
C601 C 0.36442 0.40218 0.65003 0.0
C602 C 0.35143 0.43882 0.69064 0.0
C603 C 0.38007 0.44319 0.69867 0.0
C604 C 0.4007 0.4261 0.68328 0.0
H605 H 0.46705 0.56691 0.82499 0.0
H606 H 0.45407 0.52385 0.79426 0.0
C607 C 0.39299 0.40594 0.659 0.0
C608 C 0.38841 0.46615 0.72239 0.0
H609 H 0.42784 0.5246 0.73074 0.0
C610 C 0.37729 0.46737 0.75381 0.0
C611 C 0.40674 0.48713 0.71389 0.0
C612 C 0.41804 0.48793 0.68003 0.0
C613 C 0.38424 0.48892 0.77703 0.0
C614 C 0.40266 0.50971 0.76849 0.0
C615 C 0.41393 0.5084 0.73722 0.0
C616 C 0.40962 0.53385 0.79095 0.0
C617 C 0.37203 0.4893 0.81054 0.0
C618 C 0.38881 0.55351 0.79957 0.0
C619 C 0.39618 0.57826 0.81675 0.0
C620 C 0.42455 0.58379 0.82558 0.0
C621 C 0.4451 0.56345 0.81817 0.0
C622 C 0.43772 0.53878 0.80082 0.0
H623 H 0.3632 0.4691 0.81531 0.0
H624 H 0.38842 0.49533 0.82904 0.0
H625 H 0.3547 0.50459 0.81323 0.0
H626 H 0.36709 0.55026 0.79165 0.0
H627 H 0.37989 0.5936 0.82157 0.0
H628 H 0.06324 0.77839 0.07188 0.0
H629 H 0.01281 0.77152 0.08162 0.0
H630 H 0.0081 0.85125 0.13393 0.0
H631 H 0.05838 0.85859 0.12384 0.0
H632 H 0.97957 0.77233 0.13727 0.0
H633 H 0.94961 0.85533 0.06178 0.0
H634 H 0.98499 0.84147 0.06222 0.0
H635 H 0.9735 0.8662 0.09407 0.0
C636 C 0.05156 0.79441 0.08568 0.0
C637 C 0.06475 0.81924 0.09665 0.0
C638 C 0.02275 0.7904 0.09126 0.0
C639 C 0.00665 0.81109 0.1079 0.0
C640 C 0.02006 0.83528 0.12038 0.0
H641 H 0.83871 0.81172 0.18676 0.0
H642 H 0.88929 0.80445 0.17714 0.0
C643 C 0.04881 0.83939 0.11468 0.0
C644 C 0.97561 0.80794 0.11095 0.0
H645 H 0.91292 0.83738 0.09256 0.0
C646 C 0.96492 0.78642 0.12736 0.0
C647 C 0.95658 0.82598 0.09734 0.0
C648 C 0.96668 0.84838 0.07758 0.0
C649 C 0.93563 0.78302 0.13145 0.0
C650 C 0.91669 0.80192 0.11924 0.0
C651 C 0.92743 0.82294 0.10204 0.0
C652 C 0.88571 0.80131 0.12498 0.0
C653 C 0.92529 0.75913 0.14855 0.0
C654 C 0.86678 0.80169 0.0989 0.0
C655 C 0.83792 0.80617 0.10437 0.0
C656 C 0.82746 0.81023 0.13604 0.0
C657 C 0.84614 0.8082 0.1621 0.0
C658 C 0.87507 0.80398 0.15661 0.0
H659 H 0.94094 0.74217 0.14681 0.0
H660 H 0.92225 0.76579 0.17453 0.0
H661 H 0.90477 0.75127 0.13844 0.0
H662 H 0.87454 0.79973 0.07429 0.0
H663 H 0.82392 0.8076 0.08389 0.0
H664 H 0.72416 0.5833 0.50685 0.0
H665 H 0.74081 0.54058 0.5263 0.0
H666 H 0.67583 0.54614 0.59926 0.0
H667 H 0.65874 0.58868 0.57983 0.0
H668 H 0.75894 0.52513 0.58812 0.0
H669 H 0.65976 0.47339 0.54425 0.0
H670 H 0.67009 0.50648 0.53268 0.0
H671 H 0.65429 0.50341 0.57149 0.0
C672 C 0.71358 0.57564 0.52728 0.0
C673 C 0.68979 0.58918 0.54144 0.0
C674 C 0.72319 0.55125 0.53839 0.0
C675 C 0.70921 0.54003 0.56378 0.0
C676 C 0.68657 0.55429 0.57922 0.0
H677 H 0.74636 0.4047 0.67382 0.0
H678 H 0.74594 0.44951 0.65269 0.0
C679 C 0.67687 0.57862 0.56811 0.0
C680 C 0.71699 0.51254 0.57271 0.0
H681 H 0.69047 0.44832 0.57567 0.0
C682 C 0.74409 0.50824 0.58529 0.0
C683 C 0.69774 0.49048 0.56832 0.0
C684 C 0.66893 0.4935 0.55317 0.0
C685 C 0.75212 0.48253 0.59459 0.0
C686 C 0.73237 0.46079 0.59149 0.0
C687 C 0.70558 0.46501 0.57809 0.0
C688 C 0.73822 0.43371 0.60312 0.0
C689 C 0.78165 0.47883 0.60739 0.0
C690 C 0.73445 0.4099 0.58222 0.0
C691 C 0.73442 0.3843 0.59431 0.0
C692 C 0.7382 0.38207 0.6275 0.0
C693 C 0.74381 0.40578 0.64805 0.0
C694 C 0.74363 0.43141 0.63599 0.0
H695 H 0.7965 0.49421 0.59898 0.0
H696 H 0.78123 0.48152 0.63418 0.0
H697 H 0.78991 0.45807 0.59985 0.0
H698 H 0.73019 0.41122 0.55679 0.0
H699 H 0.7302 0.36632 0.57794 0.0
H700 H 0.89537 0.13606 0.10648 0.0
H701 H 0.9171 0.14032 0.15991 0.0
H702 H 0.89518 0.22578 0.1717 0.0
H703 H 0.87305 0.22173 0.11771 0.0
H704 H 0.96342 0.1877 0.17315 0.0
H705 H 0.874 0.18226 0.25952 0.0
H706 H 0.87187 0.16424 0.21975 0.0
H707 H 0.8708 0.20081 0.22405 0.0
C708 C 0.89481 0.15575 0.1205 0.0
C709 C 0.88281 0.17866 0.10772 0.0
C710 C 0.90713 0.15808 0.15107 0.0
C711 C 0.90771 0.18332 0.16957 0.0
C712 C 0.89472 0.2061 0.1577 0.0
H713 H 0.03599 0.19243 0.3235 0.0
H714 H 0.00154 0.2092 0.28597 0.0
C715 C 0.88214 0.20375 0.12695 0.0
C716 C 0.92457 0.18576 0.19964 0.0
H717 H 0.92034 0.17768 0.28014 0.0
C718 C 0.95412 0.1862 0.19676 0.0
C719 C 0.91215 0.18346 0.23009 0.0
C720 C 0.88044 0.18268 0.23389 0.0
C721 C 0.97174 0.18286 0.22331 0.0
C722 C 0.95938 0.17958 0.25373 0.0
C723 C 0.92974 0.18042 0.25689 0.0
C724 C 0.97683 0.17198 0.28123 0.0
C725 C 0.00334 0.18098 0.21797 0.0
C726 C 0.97334 0.14614 0.29251 0.0
C727 C 0.99268 0.13666 0.3144 0.0
C728 C 0.01598 0.15281 0.32533 0.0
C729 C 0.01828 0.17945 0.31568 0.0
C730 C 0.99876 0.189 0.29396 0.0
H731 H 0.00886 0.17862 0.1919 0.0
H732 H 0.01357 0.19993 0.22895 0.0
H733 H 0.01239 0.16343 0.22959 0.0
H734 H 0.95645 0.13273 0.28315 0.0
H735 H 0.98995 0.11628 0.32187 0.0
H736 H 0.13388 0.76118 0.15048 0.0
H737 H 0.14109 0.73632 0.19848 0.0
H738 H 0.22033 0.77839 0.21744 0.0
H739 H 0.21354 0.80311 0.16983 0.0
H740 H 0.22245 0.7198 0.21609 0.0
H741 H 0.13794 0.76674 0.29629 0.0
H742 H 0.12803 0.75426 0.25575 0.0
H743 H 0.15138 0.78302 0.26217 0.0
C744 C 0.15277 0.76521 0.16497 0.0
C745 C 0.17321 0.78402 0.1562 0.0
C746 C 0.15675 0.75112 0.19244 0.0
C747 C 0.18113 0.75573 0.21152 0.0
C748 C 0.20135 0.77463 0.203 0.0
H749 H 0.2448 0.71897 0.39458 0.0
H750 H 0.22234 0.73938 0.3493 0.0
C751 C 0.19742 0.7887 0.17571 0.0
C752 C 0.18667 0.74004 0.23956 0.0
H753 H 0.16677 0.73329 0.31736 0.0
C754 C 0.21012 0.72248 0.23813 0.0
C755 C 0.17061 0.74388 0.26825 0.0
C756 C 0.14565 0.7631 0.27104 0.0
C757 C 0.21838 0.70903 0.26493 0.0
C758 C 0.20246 0.71296 0.29375 0.0
C759 C 0.17871 0.73019 0.29508 0.0
C760 C 0.21159 0.70066 0.32322 0.0
C761 C 0.24474 0.69155 0.26259 0.0
C762 C 0.21201 0.67221 0.32394 0.0
C763 C 0.22502 0.6605 0.34956 0.0
C764 C 0.23769 0.6771 0.37498 0.0
C765 C 0.23556 0.70567 0.37513 0.0
C766 C 0.22258 0.71734 0.34945 0.0
H767 H 0.25748 0.69486 0.24085 0.0
H768 H 0.25828 0.69591 0.28434 0.0
H769 H 0.2386 0.66968 0.26116 0.0
H770 H 0.20342 0.65904 0.30397 0.0
H771 H 0.22651 0.63845 0.34849 0.0
H772 H 0.71131 0.74842 0.54771 0.0
H773 H 0.75198 0.77049 0.5755 0.0
H774 H 0.79272 0.69223 0.5785 0.0
H775 H 0.75203 0.6698 0.55065 0.0
H776 H 0.79207 0.72612 0.63858 0.0
H777 H 0.83205 0.78113 0.53708 0.0
H778 H 0.79484 0.78572 0.54477 0.0
H779 H 0.80815 0.75238 0.53125 0.0
C780 C 0.7289 0.73584 0.55418 0.0
C781 C 0.72846 0.70733 0.5468 0.0
C782 C 0.75221 0.74853 0.56986 0.0
C783 C 0.77549 0.73301 0.5785 0.0
C784 C 0.77502 0.70454 0.5717 0.0
H785 H 0.93059 0.81166 0.66019 0.0
H786 H 0.89899 0.7806 0.62717 0.0
C787 C 0.75176 0.6918 0.55582 0.0
C788 C 0.79977 0.7466 0.59578 0.0
H789 H 0.84977 0.79602 0.58974 0.0
C790 C 0.80496 0.74113 0.6278 0.0
C791 C 0.81675 0.76588 0.58147 0.0
C792 C 0.81291 0.7715 0.54664 0.0
C793 C 0.82579 0.75553 0.64646 0.0
C794 C 0.84159 0.77599 0.63274 0.0
C795 C 0.83743 0.78045 0.60022 0.0
C796 C 0.86091 0.79435 0.65251 0.0
C797 C 0.83039 0.74914 0.68091 0.0
C798 C 0.8498 0.8125 0.67721 0.0
C799 C 0.86763 0.8302 0.69587 0.0
C800 C 0.89697 0.83016 0.69012 0.0
C801 C 0.90809 0.81202 0.66522 0.0
C802 C 0.89012 0.79437 0.64635 0.0
H803 H 0.82232 0.72851 0.68503 0.0
H804 H 0.85322 0.7503 0.68743 0.0
H805 H 0.81886 0.76436 0.69734 0.0
H806 H 0.82725 0.81302 0.68202 0.0
H807 H 0.85848 0.84368 0.71516 0.0
H808 H 0.79501 0.24805 0.06572 0.0
H809 H 0.75538 0.27114 0.09425 0.0
H810 H 0.70299 0.20005 0.07202 0.0
H811 H 0.74254 0.17666 0.04325 0.0
H812 H 0.67794 0.25228 0.05903 0.0
H813 H 0.72277 0.25244 0.18276 0.0
H814 H 0.74621 0.26501 0.15347 0.0
H815 H 0.73538 0.22983 0.14917 0.0
C816 C 0.77511 0.23724 0.06692 0.0
C817 C 0.77197 0.21048 0.0522 0.0
C818 C 0.75254 0.25044 0.08335 0.0
C819 C 0.72642 0.23717 0.08543 0.0
C820 C 0.72307 0.21055 0.07071 0.0
H821 H 0.59092 0.29664 0.21404 0.0
H822 H 0.62462 0.26762 0.18239 0.0
C823 C 0.74571 0.19723 0.05438 0.0
C824 C 0.70254 0.25139 0.10262 0.0
H825 H 0.68213 0.28006 0.17671 0.0
C826 C 0.6787 0.25821 0.08479 0.0
C827 C 0.70358 0.2588 0.13624 0.0
C828 C 0.72823 0.25098 0.15667 0.0
C829 C 0.6561 0.27302 0.09966 0.0
C830 C 0.65763 0.28132 0.13308 0.0
C831 C 0.68114 0.27381 0.15102 0.0
C832 C 0.63528 0.29811 0.15002 0.0
C833 C 0.63075 0.27957 0.07957 0.0
C834 C 0.63 0.32481 0.14211 0.0
C835 C 0.61061 0.34144 0.16005 0.0
C836 C 0.59626 0.33163 0.18626 0.0
C837 C 0.60124 0.30466 0.19366 0.0
C838 C 0.62063 0.2881 0.17576 0.0
H839 H 0.62962 0.26608 0.05667 0.0
H840 H 0.61078 0.27749 0.09319 0.0
H841 H 0.63235 0.30101 0.07338 0.0
H842 H 0.64145 0.33306 0.12264 0.0
H843 H 0.60716 0.36209 0.15373 0.0
H844 H 0.33209 0.2467 0.63573 0.0
H845 H 0.32392 0.22421 0.68521 0.0
H846 H 0.32352 0.30265 0.74081 0.0
H847 H 0.33133 0.32529 0.69173 0.0
H848 H 0.35346 0.22659 0.74747 0.0
H849 H 0.24439 0.26925 0.75536 0.0
H850 H 0.26547 0.26883 0.71917 0.0
H851 H 0.2719 0.29413 0.75237 0.0
C852 C 0.33057 0.25912 0.65854 0.0
C853 C 0.33184 0.2878 0.65975 0.0
C854 C 0.32598 0.24625 0.68674 0.0
C855 C 0.32267 0.26187 0.71644 0.0
C856 C 0.32555 0.29033 0.71796 0.0
H857 H 0.26136 0.22777 0.9043 0.0
H858 H 0.28456 0.24869 0.86005 0.0
C859 C 0.32998 0.3032 0.68988 0.0
C860 C 0.31424 0.24875 0.74552 0.0
H861 H 0.26012 0.24585 0.79921 0.0
C862 C 0.33307 0.2307 0.75884 0.0
C863 C 0.28757 0.25418 0.76009 0.0
C864 C 0.26602 0.27246 0.74592 0.0
C865 C 0.32606 0.21828 0.78691 0.0
C866 C 0.29944 0.22388 0.80155 0.0
C867 C 0.28065 0.24186 0.78809 0.0
C868 C 0.28983 0.21064 0.83015 0.0
C869 C 0.34728 0.19965 0.80094 0.0
C870 C 0.28558 0.1823 0.82815 0.0
C871 C 0.27229 0.17033 0.85333 0.0
C872 C 0.26283 0.18658 0.88079 0.0
C873 C 0.26822 0.21481 0.8833 0.0
C874 C 0.28156 0.22674 0.85815 0.0
H875 H 0.36908 0.20326 0.79226 0.0
H876 H 0.34718 0.20247 0.82775 0.0
H877 H 0.34159 0.17811 0.79341 0.0
H878 H 0.29119 0.16961 0.80644 0.0
H879 H 0.26802 0.14859 0.85048 0.0
H880 H 0.71599 0.70102 0.41684 0.0
H881 H 0.72336 0.72583 0.36937 0.0
H882 H 0.64008 0.76132 0.38078 0.0
H883 H 0.63232 0.73643 0.42859 0.0
H884 H 0.65503 0.73832 0.31546 0.0
H885 H 0.73569 0.81004 0.37117 0.0
H886 H 0.74248 0.77481 0.37687 0.0
H887 H 0.71164 0.79136 0.39477 0.0
C888 C 0.6992 0.71414 0.40942 0.0
C889 C 0.67363 0.71689 0.42667 0.0
C890 C 0.70352 0.72836 0.38234 0.0
C891 C 0.68241 0.74562 0.37194 0.0
C892 C 0.65666 0.74819 0.38867 0.0
H893 H 0.72922 0.85252 0.22415 0.0
H894 H 0.70585 0.83594 0.271 0.0
C895 C 0.65234 0.73403 0.41597 0.0
C896 C 0.68744 0.76059 0.34326 0.0
H897 H 0.73296 0.80587 0.31355 0.0
C898 C 0.67176 0.75341 0.31506 0.0
C899 C 0.709 0.7805 0.34306 0.0
C900 C 0.72552 0.78987 0.37316 0.0
C901 C 0.67815 0.76466 0.28606 0.0
C902 C 0.70097 0.78324 0.28538 0.0
C903 C 0.71561 0.79146 0.31405 0.0
C904 C 0.71136 0.79315 0.25499 0.0
C905 C 0.66067 0.7563 0.25638 0.0
C906 C 0.72192 0.77455 0.23031 0.0
C907 C 0.73513 0.78395 0.20341 0.0
C908 C 0.7382 0.81213 0.20084 0.0
C909 C 0.72683 0.83069 0.22516 0.0
C910 C 0.71361 0.82127 0.25204 0.0
H911 H 0.63925 0.74926 0.26291 0.0
H912 H 0.65836 0.77344 0.24089 0.0
H913 H 0.67133 0.7391 0.24209 0.0
H914 H 0.72096 0.75277 0.23242 0.0
H915 H 0.74351 0.76917 0.18496 0.0
H916 H 0.86851 0.23967 0.93585 0.0
H917 H 0.86098 0.26578 0.88888 0.0
H918 H 0.77777 0.23044 0.87527 0.0
H919 H 0.78491 0.20445 0.92179 0.0
H920 H 0.84623 0.2442 0.82272 0.0
H921 H 0.76527 0.31473 0.87936 0.0
H922 H 0.78936 0.29567 0.90265 0.0
H923 H 0.75847 0.27939 0.88431 0.0
C924 C 0.84858 0.23756 0.92291 0.0
C925 C 0.82724 0.22012 0.93273 0.0
C926 C 0.84436 0.25243 0.8961 0.0
C927 C 0.81868 0.25027 0.87902 0.0
C928 C 0.79755 0.2327 0.88853 0.0
H929 H 0.75501 0.27164 0.69368 0.0
H930 H 0.77912 0.25675 0.74113 0.0
C931 C 0.80175 0.21778 0.91508 0.0
C932 C 0.81369 0.26586 0.85078 0.0
H933 H 0.76711 0.31061 0.82153 0.0
C934 C 0.82929 0.25911 0.82251 0.0
C935 C 0.79188 0.28554 0.85081 0.0
C936 C 0.77544 0.2945 0.881 0.0
C937 C 0.82241 0.27036 0.79362 0.0
C938 C 0.79917 0.2885 0.79309 0.0
C939 C 0.78478 0.29651 0.82189 0.0
C940 C 0.78779 0.29768 0.76267 0.0
C941 C 0.83971 0.26234 0.76382 0.0
C942 C 0.78445 0.32563 0.75914 0.0
C943 C 0.77035 0.3342 0.73222 0.0
C944 C 0.75914 0.31492 0.7085 0.0
C945 C 0.76324 0.28695 0.71168 0.0
C946 C 0.77735 0.27843 0.73856 0.0
H947 H 0.86146 0.25605 0.77022 0.0
H948 H 0.82947 0.24468 0.74984 0.0
H949 H 0.84116 0.27938 0.74808 0.0
H950 H 0.79209 0.3408 0.77767 0.0
H951 H 0.76722 0.35587 0.73068 0.0
H952 H 0.2921 0.27299 0.49535 0.0
H953 H 0.25121 0.24891 0.47068 0.0
H954 H 0.20285 0.26901 0.5575 0.0
H955 H 0.24351 0.29391 0.58208 0.0
H956 H 0.22468 0.20507 0.48947 0.0
H957 H 0.14865 0.29123 0.48933 0.0
H958 H 0.18592 0.29634 0.49748 0.0
H959 H 0.16273 0.28621 0.52851 0.0
C960 C 0.27272 0.27244 0.50917 0.0
C961 C 0.27105 0.28537 0.54067 0.0
C962 C 0.24936 0.25867 0.49502 0.0
C963 C 0.22385 0.25742 0.51208 0.0
C964 C 0.22209 0.27024 0.54359 0.0
H965 H 0.09694 0.13521 0.44366 0.0
H966 H 0.13028 0.16267 0.47834 0.0
C967 C 0.24541 0.28432 0.55768 0.0
C968 C 0.19965 0.24171 0.49708 0.0
H969 H 0.13078 0.24704 0.4731 0.0
C970 C 0.20412 0.21423 0.48594 0.0
C971 C 0.17293 0.25378 0.49228 0.0
C972 C 0.16726 0.28357 0.50224 0.0
C973 C 0.1828 0.19857 0.46969 0.0
C974 C 0.15591 0.21047 0.46535 0.0
C975 C 0.1513 0.23787 0.47682 0.0
C976 C 0.13304 0.19537 0.44689 0.0
C977 C 0.18972 0.16978 0.45618 0.0
C978 C 0.12236 0.20535 0.41869 0.0
C979 C 0.10303 0.18995 0.39919 0.0
C980 C 0.09411 0.16422 0.4075 0.0
C981 C 0.10377 0.15484 0.43653 0.0
C982 C 0.12287 0.17042 0.45624 0.0
H983 H 0.21295 0.1663 0.45441 0.0
H984 H 0.18096 0.15514 0.47238 0.0
H985 H 0.18027 0.16516 0.43181 0.0
H986 H 0.12986 0.22459 0.41106 0.0
H987 H 0.09611 0.19758 0.37681 0.0
H988 H 0.25478 0.82716 0.03306 0.0
H989 H 0.29425 0.80388 0.00407 0.0
H990 H 0.2505 0.72695 0.00469 0.0
H991 H 0.21099 0.74989 0.0337 0.0
H992 H 0.30999 0.72704 0.02426 0.0
H993 H 0.29102 0.77137 0.90746 0.0
H994 H 0.29309 0.79507 0.943 0.0
H995 H 0.26425 0.77126 0.93839 0.0
C996 C 0.25353 0.80528 0.02705 0.0
C997 C 0.22968 0.7904 0.03567 0.0
C998 C 0.27606 0.79206 0.0104 0.0
C999 C 0.27513 0.76378 0.00211 0.0
C1000 C 0.25154 0.74883 0.0109 0.0
H1001 H 0.36458 0.65559 0.86587 0.0
H1002 H 0.3308 0.68319 0.89909 0.0
C1003 C 0.22896 0.762 0.02739 0.0
C1004 C 0.29864 0.74962 0.98412 0.0
H1005 H 0.33025 0.74198 0.91012 0.0
C1006 C 0.31462 0.73039 -0.00062 0.0
C1007 C 0.30436 0.75401 0.95163 0.0
C1008 C 0.28722 0.77389 0.93393 0.0
C1009 C 0.33609 0.71518 0.98283 0.0
C1010 C 0.34173 0.71949 0.9503 0.0
C1011 C 0.32594 0.73892 0.93516 0.0
C1012 C 0.36259 0.70272 0.93084 0.0
C1013 C 0.35198 0.69399 -0.00016 0.0
C1014 C 0.39168 0.70469 0.93768 0.0
C1015 C 0.4111 0.68881 0.91878 0.0
C1016 C 0.40166 0.6707 0.89282 0.0
C1017 C 0.37248 0.66895 0.88606 0.0
C1018 C 0.35317 0.68486 0.90483 0.0
H1019 H 0.34188 0.69002 0.02307 0.0
H1020 H 0.35327 0.67447 0.98422 0.0
H1021 H 0.37392 0.70124 0.00501 0.0
H1022 H 0.39935 0.71862 0.95747 0.0
H1023 H 0.43345 0.69057 0.92456 0.0
loop_
_geom_bond_atom_site_label_1
_geom_bond_atom_site_label_2
_geom_bond_distance
_geom_bond_site_symmetry_2
_ccdc_geom_bond_type
Fe0 O2 1.918 . S
Fe0 O5 1.997 . S
Fe0 O6 2.002 . S
Fe0 O11 1.976 . S
Fe0 O14 1.996 . S
Fe1 O2 1.918 . S
Fe1 O9 1.997 . S
Fe1 O12 1.996 . S
Fe1 O16 1.976 . S
Fe1 O19 2.002 . S
O2 Fe0 1.918 . S
O2 Fe1 1.918 . S
O2 Fe3 1.918 . S
Fe3 O2 1.918 . S
Fe3 O4 2.002 . S
Fe3 O13 1.976 . S
Fe3 O17 1.996 . S
Fe3 O20 1.997 . S
O4 Fe3 2.002 . S
O4 C21 1.295 . S
O5 Fe0 1.997 . S
O5 C21 1.235 . S
O6 Fe0 2.002 . S
O6 C7 1.295 . S
C7 O6 1.295 . S
C7 O9 1.235 . S
C8 O13 1.287 . S
C8 O14 1.255 . S
O9 Fe1 1.997 . S
O9 C7 1.235 . S
C10 O16 1.287 . S
C10 O17 1.255 . S
O11 Fe0 1.976 . S
O11 C18 1.287 . S
O12 Fe1 1.996 . S
O12 C18 1.255 . S
O13 Fe3 1.976 . S
O13 C8 1.287 . S
O14 Fe0 1.996 . S
O14 C8 1.255 . S
C15 O19 1.295 . S
C15 O20 1.235 . S
O16 Fe1 1.976 . S
O16 C10 1.287 . S
O17 Fe3 1.996 . S
O17 C10 1.255 . S
C18 O11 1.287 . S
C18 O12 1.255 . S
O19 Fe1 2.002 . S
O19 C15 1.295 . S
O20 Fe3 1.997 . S
O20 C15 1.235 . S
C21 O4 1.295 . S
C21 O5 1.235 . S
Fe22 O24 1.918 . S
Fe22 O27 1.997 . S
Fe22 O28 2.002 . S
Fe22 O33 1.976 . S
Fe22 O36 1.996 . S
Fe23 O24 1.918 . S
Fe23 O31 1.997 . S
Fe23 O34 1.996 . S
Fe23 O38 1.976 . S
Fe23 O41 2.002 . S
O24 Fe22 1.918 . S
O24 Fe23 1.918 . S
O24 Fe25 1.918 . S
Fe25 O24 1.918 . S
Fe25 O26 2.002 . S
Fe25 O35 1.976 . S
Fe25 O39 1.996 . S
Fe25 O42 1.997 . S
O26 Fe25 2.002 . S
O26 C43 1.295 . S
O27 Fe22 1.997 . S
O27 C43 1.235 . S
O28 Fe22 2.002 . S
O28 C29 1.295 . S
C29 O28 1.295 . S
C29 O31 1.235 . S
C30 O35 1.287 . S
C30 O36 1.255 . S
O31 Fe23 1.997 . S
O31 C29 1.235 . S
C32 O38 1.287 . S
C32 O39 1.255 . S
O33 Fe22 1.976 . S
O33 C40 1.287 . S
O34 Fe23 1.996 . S
O34 C40 1.255 . S
O35 Fe25 1.976 . S
O35 C30 1.287 . S
O36 Fe22 1.996 . S
O36 C30 1.255 . S
C37 O41 1.295 . S
C37 O42 1.235 . S
O38 Fe23 1.976 . S
O38 C32 1.287 . S
O39 Fe25 1.996 . S
O39 C32 1.255 . S
C40 O33 1.287 . S
C40 O34 1.255 . S
O41 Fe23 2.002 . S
O41 C37 1.295 . S
O42 Fe25 1.997 . S
O42 C37 1.235 . S
C43 O26 1.295 . S
C43 O27 1.235 . S
Fe44 O46 1.918 . S
Fe44 O49 1.997 1_554 S
Fe44 O50 2.002 . S
Fe44 O55 1.976 . S
Fe44 O58 1.996 . S
Fe45 O46 1.918 . S
Fe45 O53 1.997 . S
Fe45 O56 1.996 . S
Fe45 O60 1.976 . S
Fe45 O63 2.002 1_554 S
O46 Fe44 1.918 . S
O46 Fe45 1.918 . S
O46 Fe47 1.918 1_554 S
Fe47 O46 1.918 1_556 S
Fe47 O48 2.002 . S
Fe47 O57 1.976 1_556 S
Fe47 O61 1.996 1_556 S
Fe47 O64 1.997 . S
O48 Fe47 2.002 . S
O48 C65 1.295 . S
O49 Fe44 1.997 1_556 S
O49 C65 1.235 . S
O50 Fe44 2.002 . S
O50 C51 1.295 1_554 S
C51 O50 1.295 1_556 S
C51 O53 1.235 1_556 S
C52 O57 1.287 . S
C52 O58 1.255 . S
O53 Fe45 1.997 . S
O53 C51 1.235 1_554 S
C54 O60 1.287 . S
C54 O61 1.255 . S
O55 Fe44 1.976 . S
O55 C62 1.287 . S
O56 Fe45 1.996 . S
O56 C62 1.255 . S
O57 Fe47 1.976 1_554 S
O57 C52 1.287 . S
O58 Fe44 1.996 . S
O58 C52 1.255 . S
C59 O63 1.295 . S
C59 O64 1.235 . S
O60 Fe45 1.976 . S
O60 C54 1.287 . S
O61 Fe47 1.996 1_554 S
O61 C54 1.255 . S
C62 O55 1.287 . S
C62 O56 1.255 . S
O63 Fe45 2.002 1_556 S
O63 C59 1.295 . S
O64 Fe47 1.997 . S
O64 C59 1.235 . S
C65 O48 1.295 . S
C65 O49 1.235 . S
Fe66 O68 1.918 . S
Fe66 O71 1.997 . S
Fe66 O72 2.002 . S
Fe66 O77 1.976 . S
Fe66 O80 1.996 . S
Fe67 O68 1.918 . S
Fe67 O75 1.997 . S
Fe67 O78 1.996 . S
Fe67 O82 1.976 . S
Fe67 O85 2.002 . S
O68 Fe66 1.918 . S
O68 Fe67 1.918 . S
O68 Fe69 1.918 . S
Fe69 O68 1.918 . S
Fe69 O70 2.002 . S
Fe69 O79 1.976 . S
Fe69 O83 1.996 . S
Fe69 O86 1.997 . S
O70 Fe69 2.002 . S
O70 C87 1.295 . S
O71 Fe66 1.997 . S
O71 C87 1.235 . S
O72 Fe66 2.002 . S
O72 C73 1.295 . S
C73 O72 1.295 . S
C73 O75 1.235 . S
C74 O79 1.287 . S
C74 O80 1.255 . S
O75 Fe67 1.997 . S
O75 C73 1.235 . S
C76 O82 1.287 . S
C76 O83 1.255 . S
O77 Fe66 1.976 . S
O77 C84 1.287 . S
O78 Fe67 1.996 . S
O78 C84 1.255 . S
O79 Fe69 1.976 . S
O79 C74 1.287 . S
O80 Fe66 1.996 . S
O80 C74 1.255 . S
C81 O85 1.295 . S
C81 O86 1.235 . S
O82 Fe67 1.976 . S
O82 C76 1.287 . S
O83 Fe69 1.996 . S
O83 C76 1.255 . S
C84 O77 1.287 . S
C84 O78 1.255 . S
O85 Fe67 2.002 . S
O85 C81 1.295 . S
O86 Fe69 1.997 . S
O86 C81 1.235 . S
C87 O70 1.295 . S
C87 O71 1.235 . S
H88 C91 0.931 . S
H89 C94 0.928 . S
H90 C96 0.930 . S
C91 H88 0.931 . S
C91 C92 1.413 . S
C91 C93 1.360 . S
C92 C91 1.413 . S
C92 C96 1.429 . S
C93 C91 1.360 . S
C93 C94 1.372 . S
C94 H89 0.928 . S
C94 C93 1.372 . S
C94 C95 1.404 . S
C95 C94 1.404 . S
C95 C96 1.391 . S
C96 H90 0.930 . S
C96 C92 1.429 . S
C96 C95 1.391 . S
H97 C100 0.931 . S
H98 C103 0.928 . S
H99 C105 0.930 . S
C100 H97 0.931 . S
C100 C101 1.413 . S
C100 C102 1.360 . S
C101 C100 1.413 . S
C101 C105 1.429 . S
C102 C100 1.360 . S
C102 C103 1.372 . S
C103 H98 0.928 . S
C103 C102 1.372 . S
C103 C104 1.404 . S
C104 C103 1.404 . S
C104 C105 1.391 . S
C105 H99 0.930 . S
C105 C101 1.429 . S
C105 C104 1.391 . S
H106 C109 0.931 . S
H107 C112 0.928 . S
H108 C114 0.930 . S
C109 H106 0.931 . S
C109 C110 1.413 . S
C109 C111 1.360 . S
C110 C109 1.413 . S
C110 C114 1.429 . S
C111 C109 1.360 . S
C111 C112 1.372 . S
C112 H107 0.928 . S
C112 C111 1.372 . S
C112 C113 1.404 . S
C113 C112 1.404 . S
C113 C114 1.391 . S
C114 H108 0.930 . S
C114 C110 1.429 . S
C114 C113 1.391 . S
H115 C118 0.931 . S
H116 C121 0.928 . S
H117 C123 0.930 . S
C118 H115 0.931 . S
C118 C119 1.413 . S
C118 C120 1.360 . S
C119 C118 1.413 . S
C119 C123 1.429 . S
C120 C118 1.360 . S
C120 C121 1.372 . S
C121 H116 0.928 . S
C121 C120 1.372 . S
C121 C122 1.404 . S
C122 C121 1.404 . S
C122 C123 1.391 . S
C123 H117 0.930 . S
C123 C119 1.429 . S
C123 C122 1.391 . S
H124 C127 0.931 . S
H125 C130 0.928 . S
H126 C132 0.930 . S
C127 H124 0.931 . S
C127 C128 1.413 . S
C127 C129 1.360 . S
C128 C127 1.413 . S
C128 C132 1.429 . S
C129 C127 1.360 . S
C129 C130 1.372 . S
C130 H125 0.928 . S
C130 C129 1.372 . S
C130 C131 1.404 . S
C131 C130 1.404 . S
C131 C132 1.391 . S
C132 H126 0.930 . S
C132 C128 1.429 . S
C132 C131 1.391 . S
H133 C136 0.931 . S
H134 C139 0.928 . S
H135 C141 0.930 . S
C136 H133 0.931 . S
C136 C137 1.413 . S
C136 C138 1.360 . S
C137 C136 1.413 . S
C137 C141 1.429 . S
C138 C136 1.360 . S
C138 C139 1.372 . S
C139 H134 0.928 . S
C139 C138 1.372 . S
C139 C140 1.404 . S
C140 C139 1.404 . S
C140 C141 1.391 . S
C141 H135 0.930 . S
C141 C137 1.429 . S
C141 C140 1.391 . S
H142 C145 0.931 . S
H143 C148 0.928 . S
H144 C150 0.930 . S
C145 H142 0.931 . S
C145 C146 1.413 . S
C145 C147 1.360 . S
C146 C145 1.413 . S
C146 C150 1.429 . S
C147 C145 1.360 . S
C147 C148 1.372 . S
C148 H143 0.928 . S
C148 C147 1.372 . S
C148 C149 1.404 . S
C149 C148 1.404 . S
C149 C150 1.391 . S
C150 H144 0.930 . S
C150 C146 1.429 . S
C150 C149 1.391 . S
H151 C154 0.931 . S
H152 C157 0.928 . S
H153 C159 0.930 . S
C154 H151 0.931 . S
C154 C155 1.413 . S
C154 C156 1.360 . S
C155 C154 1.413 . S
C155 C159 1.429 . S
C156 C154 1.360 . S
C156 C157 1.372 . S
C157 H152 0.928 . S
C157 C156 1.372 . S
C157 C158 1.404 . S
C158 C157 1.404 . S
C158 C159 1.391 . S
C159 H153 0.930 . S
C159 C155 1.429 . S
C159 C158 1.391 . S
H160 C168 0.929 . S
H161 C170 0.930 . S
H162 C172 0.930 . S
H163 C175 0.929 . S
H164 C178 0.930 . S
H165 C180 0.960 . S
H166 C180 0.970 . S
H167 C180 0.945 1_565 S
C168 H160 0.929 . S
C168 C169 1.377 . S
C168 C170 1.384 . S
C169 C168 1.377 . S
C169 C175 1.390 . S
C170 H161 0.930 . S
C170 C168 1.384 . S
C170 C171 1.372 . S
C171 C170 1.372 . S
C171 C172 1.400 . S
C171 C176 1.490 . S
C172 H162 0.930 . S
C172 C171 1.400 . S
C172 C175 1.386 . S
H173 C189 0.930 . S
H174 C190 0.931 . S
C175 H163 0.929 . S
C175 C169 1.390 . S
C175 C172 1.386 . S
C176 C171 1.490 . S
C176 C178 1.395 . S
C176 C179 1.403 . S
H177 C183 0.930 . S
C178 H164 0.930 . S
C178 C176 1.395 . S
C178 C181 1.403 . S
C179 C176 1.403 . S
C179 C180 1.524 1_565 S
C179 C183 1.400 1_565 S
C180 H165 0.960 . S
C180 H166 0.970 . S
C180 H167 0.945 1_545 S
C180 C179 1.524 1_545 S
C181 C178 1.403 . S
C181 C182 1.392 1_565 S
C181 C185 1.495 . S
C182 C181 1.392 1_545 S
C182 C183 1.385 . S
C182 C184 1.478 . S
C183 H177 0.930 . S
C183 C179 1.400 1_545 S
C183 C182 1.385 . S
C184 C182 1.478 . S
C184 C186 1.381 . S
C184 C190 1.383 . S
C185 C181 1.495 . S
C185 H191 0.959 . S
C185 H192 0.961 . S
C185 H193 0.960 . S
C186 C184 1.381 . S
C186 C187 1.394 . S
C186 H194 0.930 . S
C187 C186 1.394 . S
C187 C188 1.383 . S
C187 H195 0.929 . S
C188 C187 1.383 . S
C188 C189 1.377 . S
C189 H173 0.930 . S
C189 C188 1.377 . S
C189 C190 1.379 . S
C190 H174 0.931 . S
C190 C184 1.383 . S
C190 C189 1.379 . S
H191 C185 0.959 . S
H192 C185 0.961 . S
H193 C185 0.960 . S
H194 C186 0.930 . S
H195 C187 0.929 . S
H196 C204 0.929 . S
H197 C206 0.930 . S
H198 C208 0.930 . S
H199 C211 0.929 . S
H200 C214 0.930 . S
H201 C216 0.960 . S
H202 C216 0.960 . S
H203 C216 0.960 . S
C204 H196 0.929 . S
C204 C205 1.377 . S
C204 C206 1.384 . S
C205 C204 1.377 . S
C205 C211 1.390 . S
C206 H197 0.930 . S
C206 C204 1.384 . S
C206 C207 1.372 . S
C207 C206 1.372 . S
C207 C208 1.400 . S
C207 C212 1.490 . S
C208 H198 0.930 . S
C208 C207 1.400 . S
C208 C211 1.386 . S
H209 C225 0.930 . S
H210 C226 0.931 . S
C211 H199 0.929 . S
C211 C205 1.390 . S
C211 C208 1.386 . S
C212 C207 1.490 . S
C212 C214 1.395 . S
C212 C215 1.403 . S
H213 C219 0.930 . S
C214 H200 0.930 . S
C214 C212 1.395 . S
C214 C217 1.403 . S
C215 C212 1.403 . S
C215 C216 1.524 . S
C215 C219 1.400 . S
C216 H201 0.960 . S
C216 H202 0.960 . S
C216 H203 0.960 . S
C216 C215 1.524 . S
C217 C214 1.403 . S
C217 C218 1.392 . S
C217 C221 1.495 . S
C218 C217 1.392 . S
C218 C219 1.385 . S
C218 C220 1.478 . S
C219 H213 0.930 . S
C219 C215 1.400 . S
C219 C218 1.385 . S
C220 C218 1.478 . S
C220 C222 1.381 . S
C220 C226 1.383 . S
C221 C217 1.495 . S
C221 H227 0.959 . S
C221 H228 0.961 . S
C221 H229 0.960 . S
C222 C220 1.381 . S
C222 C223 1.394 . S
C222 H230 0.930 . S
C223 C222 1.394 . S
C223 C224 1.383 . S
C223 H231 0.929 . S
C224 C223 1.383 . S
C224 C225 1.377 . S
C225 H209 0.930 . S
C225 C224 1.377 . S
C225 C226 1.379 . S
C226 H210 0.931 . S
C226 C220 1.383 . S
C226 C225 1.379 . S
H227 C221 0.959 . S
H228 C221 0.961 . S
H229 C221 0.960 . S
H230 C222 0.930 . S
H231 C223 0.929 . S
H232 C240 0.929 . S
H233 C242 0.930 . S
H234 C244 0.930 . S
H235 C247 0.929 . S
H236 C250 0.930 . S
H237 C252 0.960 . S
H238 C252 0.960 . S
H239 C252 0.960 . S
C240 H232 0.929 . S
C240 C241 1.377 . S
C240 C242 1.384 . S
C241 C240 1.377 . S
C241 C247 1.390 . S
C242 H233 0.930 . S
C242 C240 1.384 . S
C242 C243 1.372 . S
C243 C242 1.372 . S
C243 C244 1.400 . S
C243 C248 1.490 . S
C244 H234 0.930 . S
C244 C243 1.400 . S
C244 C247 1.386 . S
H245 C261 0.930 . S
H246 C262 0.931 . S
C247 H235 0.929 . S
C247 C241 1.390 . S
C247 C244 1.386 . S
C248 C243 1.490 . S
C248 C250 1.395 1_545 S
C248 C251 1.403 . S
H249 C255 0.930 . S
C250 H236 0.930 . S
C250 C248 1.395 1_565 S
C250 C253 1.403 . S
C251 C248 1.403 . S
C251 C252 1.524 . S
C251 C255 1.400 1_545 S
C252 H237 0.960 . S
C252 H238 0.960 . S
C252 H239 0.960 . S
C252 C251 1.524 . S
C253 C250 1.403 . S
C253 C254 1.392 . S
C253 C257 1.495 . S
C254 C253 1.392 . S
C254 C255 1.385 . S
C254 C256 1.478 . S
C255 H249 0.930 . S
C255 C251 1.400 1_565 S
C255 C254 1.385 . S
C256 C254 1.478 . S
C256 C258 1.381 . S
C256 C262 1.383 . S
C257 C253 1.495 . S
C257 H263 0.959 . S
C257 H264 0.961 . S
C257 H265 0.960 . S
C258 C256 1.381 . S
C258 C259 1.394 . S
C258 H266 0.930 . S
C259 C258 1.394 . S
C259 C260 1.383 . S
C259 H267 0.929 . S
C260 C259 1.383 . S
C260 C261 1.377 . S
C261 H245 0.930 . S
C261 C260 1.377 . S
C261 C262 1.379 . S
C262 H246 0.931 . S
C262 C256 1.383 . S
C262 C261 1.379 . S
H263 C257 0.959 . S
H264 C257 0.961 . S
H265 C257 0.960 . S
H266 C258 0.930 . S
H267 C259 0.929 . S
H268 C276 0.929 . S
H269 C278 0.930 . S
H270 C280 0.930 . S
H271 C283 0.929 . S
H272 C286 0.930 . S
H273 C288 0.960 . S
H274 C288 0.960 . S
H275 C288 0.960 . S
C276 H268 0.929 . S
C276 C277 1.377 . S
C276 C278 1.384 . S
C277 C276 1.377 . S
C277 C283 1.390 . S
C278 H269 0.930 . S
C278 C276 1.384 . S
C278 C279 1.372 . S
C279 C278 1.372 . S
C279 C280 1.400 . S
C279 C284 1.490 . S
C280 H270 0.930 . S
C280 C279 1.400 . S
C280 C283 1.386 . S
H281 C297 0.930 . S
H282 C298 0.931 . S
C283 H271 0.929 . S
C283 C277 1.390 . S
C283 C280 1.386 . S
C284 C279 1.490 . S
C284 C286 1.395 . S
C284 C287 1.403 . S
H285 C291 0.930 . S
C286 H272 0.930 . S
C286 C284 1.395 . S
C286 C289 1.403 . S
C287 C284 1.403 . S
C287 C288 1.524 . S
C287 C291 1.400 . S
C288 H273 0.960 . S
C288 H274 0.960 . S
C288 H275 0.960 . S
C288 C287 1.524 . S
C289 C286 1.403 . S
C289 C290 1.392 . S
C289 C293 1.495 . S
C290 C289 1.392 . S
C290 C291 1.385 . S
C290 C292 1.478 . S
C291 H285 0.930 . S
C291 C287 1.400 . S
C291 C290 1.385 . S
C292 C290 1.478 . S
C292 C294 1.381 . S
C292 C298 1.383 . S
C293 C289 1.495 . S
C293 H299 0.959 . S
C293 H300 0.961 . S
C293 H301 0.960 . S
C294 C292 1.381 . S
C294 C295 1.394 . S
C294 H302 0.930 . S
C295 C294 1.394 . S
C295 C296 1.383 . S
C295 H303 0.929 . S
C296 C295 1.383 . S
C296 C297 1.377 . S
C297 H281 0.930 . S
C297 C296 1.377 . S
C297 C298 1.379 . S
C298 H282 0.931 . S
C298 C292 1.383 . S
C298 C297 1.379 . S
H299 C293 0.959 . S
H300 C293 0.961 . S
H301 C293 0.960 . S
H302 C294 0.930 . S
H303 C295 0.929 . S
H304 C312 0.929 . S
H305 C314 0.930 . S
H306 C316 0.930 . S
H307 C319 0.929 . S
H308 C322 0.930 . S
H309 C324 0.960 . S
H310 C324 0.960 . S
H311 C324 0.960 . S
C312 H304 0.929 . S
C312 C313 1.377 . S
C312 C314 1.384 . S
C313 C312 1.377 . S
C313 C319 1.390 . S
C314 H305 0.930 . S
C314 C312 1.384 . S
C314 C315 1.372 . S
C315 C314 1.372 . S
C315 C316 1.400 . S
C315 C320 1.490 . S
C316 H306 0.930 . S
C316 C315 1.400 . S
C316 C319 1.386 . S
H317 C333 0.930 . S
H318 C334 0.931 . S
C319 H307 0.929 . S
C319 C313 1.390 . S
C319 C316 1.386 . S
C320 C315 1.490 . S
C320 C322 1.395 . S
C320 C323 1.403 . S
H321 C327 0.930 . S
C322 H308 0.930 . S
C322 C320 1.395 . S
C322 C325 1.403 . S
C323 C320 1.403 . S
C323 C324 1.524 . S
C323 C327 1.400 . S
C324 H309 0.960 . S
C324 H310 0.960 . S
C324 H311 0.960 . S
C324 C323 1.524 . S
C325 C322 1.403 . S
C325 C326 1.392 . S
C325 C329 1.495 . S
C326 C325 1.392 . S
C326 C327 1.385 . S
C326 C328 1.478 . S
C327 H321 0.930 . S
C327 C323 1.400 . S
C327 C326 1.385 . S
C328 C326 1.478 . S
C328 C330 1.381 . S
C328 C334 1.383 . S
C329 C325 1.495 . S
C329 H335 0.959 . S
C329 H336 0.961 . S
C329 H337 0.960 . S
C330 C328 1.381 . S
C330 C331 1.394 . S
C330 H338 0.930 . S
C331 C330 1.394 . S
C331 C332 1.383 . S
C331 H339 0.929 . S
C332 C331 1.383 . S
C332 C333 1.377 . S
C333 H317 0.930 . S
C333 C332 1.377 . S
C333 C334 1.379 . S
C334 H318 0.931 . S
C334 C328 1.383 . S
C334 C333 1.379 . S
H335 C329 0.959 . S
H336 C329 0.961 . S
H337 C329 0.960 . S
H338 C330 0.930 . S
H339 C331 0.929 . S
H340 C348 0.929 . S
H341 C350 0.930 1_554 S
H342 C352 0.930 . S
H343 C355 0.929 . S
H344 C358 0.930 1_554 S
H345 C360 0.960 . S
H346 C360 0.960 . S
H347 C360 0.960 . S
C348 H340 0.929 . S
C348 C349 1.377 1_554 S
C348 C350 1.384 1_554 S
C349 C348 1.377 1_556 S
C349 C355 1.390 . S
C350 H341 0.930 1_556 S
C350 C348 1.384 1_556 S
C350 C351 1.372 . S
C351 C350 1.372 . S
C351 C352 1.400 . S
C351 C356 1.490 1_655 S
C352 H342 0.930 . S
C352 C351 1.400 . S
C352 C355 1.386 . S
H353 C369 0.930 . S
H354 C370 0.931 . S
C355 H343 0.929 . S
C355 C349 1.390 . S
C355 C352 1.386 . S
C356 C351 1.490 1_455 S
C356 C358 1.395 . S
C356 C359 1.403 . S
H357 C363 0.930 . S
C358 H344 0.930 1_556 S
C358 C356 1.395 . S
C358 C361 1.403 . S
C359 C356 1.403 . S
C359 C360 1.524 . S
C359 C363 1.400 . S
C360 H345 0.960 . S
C360 H346 0.960 . S
C360 H347 0.960 . S
C360 C359 1.524 . S
C361 C358 1.403 . S
C361 C362 1.392 . S
C361 C365 1.495 1_556 S
C362 C361 1.392 . S
C362 C363 1.385 . S
C362 C364 1.478 . S
C363 H357 0.930 . S
C363 C359 1.400 . S
C363 C362 1.385 . S
C364 C362 1.478 . S
C364 C366 1.381 . S
C364 C370 1.383 . S
C365 C361 1.495 1_554 S
C365 H371 0.959 . S
C365 H372 0.961 . S
C365 H373 0.960 . S
C366 C364 1.381 . S
C366 C367 1.394 . S
C366 H374 0.930 . S
C367 C366 1.394 . S
C367 C368 1.383 . S
C367 H375 0.929 . S
C368 C367 1.383 . S
C368 C369 1.377 . S
C369 H353 0.930 . S
C369 C368 1.377 . S
C369 C370 1.379 . S
C370 H354 0.931 . S
C370 C364 1.383 . S
C370 C369 1.379 . S
H371 C365 0.959 . S
H372 C365 0.961 . S
H373 C365 0.960 . S
H374 C366 0.930 . S
H375 C367 0.929 . S
H376 C384 0.929 . S
H377 C386 0.930 . S
H378 C388 0.930 . S
H379 C391 0.929 . S
H380 C394 0.930 . S
H381 C396 0.960 . S
H382 C396 0.960 . S
H383 C396 0.960 . S
C384 H376 0.929 . S
C384 C385 1.377 . S
C384 C386 1.384 . S
C385 C384 1.377 . S
C385 C391 1.390 . S
C386 H377 0.930 . S
C386 C384 1.384 . S
C386 C387 1.372 . S
C387 C386 1.372 . S
C387 C388 1.400 . S
C387 C392 1.490 . S
C388 H378 0.930 . S
C388 C387 1.400 . S
C388 C391 1.386 . S
H389 C405 0.930 . S
H390 C406 0.931 . S
C391 H379 0.929 . S
C391 C385 1.390 . S
C391 C388 1.386 . S
C392 C387 1.490 . S
C392 C394 1.395 . S
C392 C395 1.403 . S
H393 C399 0.930 . S
C394 H380 0.930 . S
C394 C392 1.395 . S
C394 C397 1.403 . S
C395 C392 1.403 . S
C395 C396 1.524 . S
C395 C399 1.400 . S
C396 H381 0.960 . S
C396 H382 0.960 . S
C396 H383 0.960 . S
C396 C395 1.524 . S
C397 C394 1.403 . S
C397 C398 1.392 . S
C397 C401 1.495 . S
C398 C397 1.392 . S
C398 C399 1.385 . S
C398 C400 1.478 . S
C399 H393 0.930 . S
C399 C395 1.400 . S
C399 C398 1.385 . S
C400 C398 1.478 . S
C400 C402 1.381 . S
C400 C406 1.383 . S
C401 C397 1.495 . S
C401 H407 0.959 . S
C401 H408 0.961 . S
C401 H409 0.960 . S
C402 C400 1.381 . S
C402 C403 1.394 . S
C402 H410 0.930 . S
C403 C402 1.394 . S
C403 C404 1.383 . S
C403 H411 0.929 . S
C404 C403 1.383 . S
C404 C405 1.377 . S
C405 H389 0.930 . S
C405 C404 1.377 . S
C405 C406 1.379 . S
C406 H390 0.931 . S
C406 C400 1.383 . S
C406 C405 1.379 . S
H407 C401 0.959 . S
H408 C401 0.961 . S
H409 C401 0.960 . S
H410 C402 0.930 . S
H411 C403 0.929 . S
H412 C420 0.929 . S
H413 C422 0.930 . S
H414 C424 0.930 . S
H415 C427 0.929 . S
H416 C430 0.930 . S
H417 C432 0.960 . S
H418 C432 0.960 . S
H419 C432 0.960 . S
C420 H412 0.929 . S
C420 C421 1.377 . S
C420 C422 1.384 . S
C421 C420 1.377 . S
C421 C427 1.390 . S
C422 H413 0.930 . S
C422 C420 1.384 . S
C422 C423 1.372 . S
C423 C422 1.372 . S
C423 C424 1.400 . S
C423 C428 1.490 . S
C424 H414 0.930 . S
C424 C423 1.400 . S
C424 C427 1.386 . S
H425 C441 0.930 . S
H426 C442 0.931 . S
C427 H415 0.929 . S
C427 C421 1.390 . S
C427 C424 1.386 . S
C428 C423 1.490 . S
C428 C430 1.395 . S
C428 C431 1.403 . S
H429 C435 0.930 . S
C430 H416 0.930 . S
C430 C428 1.395 . S
C430 C433 1.403 . S
C431 C428 1.403 . S
C431 C432 1.524 . S
C431 C435 1.400 . S
C432 H417 0.960 . S
C432 H418 0.960 . S
C432 H419 0.960 . S
C432 C431 1.524 . S
C433 C430 1.403 . S
C433 C434 1.392 . S
C433 C437 1.495 1_455 S
C434 C433 1.392 . S
C434 C435 1.385 . S
C434 C436 1.478 1_455 S
C435 H429 0.930 . S
C435 C431 1.400 . S
C435 C434 1.385 . S
C436 C434 1.478 1_655 S
C436 C438 1.381 . S
C436 C442 1.383 1_655 S
C437 C433 1.495 1_655 S
C437 H443 0.959 . S
C437 H444 0.961 . S
C437 H445 0.960 . S
C438 C436 1.381 . S
C438 C439 1.394 . S
C438 H446 0.930 . S
C439 C438 1.394 . S
C439 C440 1.383 . S
C439 H447 0.929 . S
C440 C439 1.383 . S
C440 C441 1.377 . S
C441 H425 0.930 . S
C441 C440 1.377 . S
C441 C442 1.379 1_655 S
C442 H426 0.931 . S
C442 C436 1.383 1_455 S
C442 C441 1.379 1_455 S
H443 C437 0.959 . S
H444 C437 0.961 . S
H445 C437 0.960 . S
H446 C438 0.930 . S
H447 C439 0.929 . S
H448 C456 0.929 . S
H449 C458 0.930 . S
H450 C460 0.930 . S
H451 C463 0.929 . S
H452 C466 0.930 . S
H453 C468 0.963 1_565 S
H454 C468 0.960 1_565 S
H455 C468 0.958 . S
C456 H448 0.929 . S
C456 C457 1.377 . S
C456 C458 1.384 . S
C457 C456 1.377 . S
C457 C463 1.390 . S
C458 H449 0.930 . S
C458 C456 1.384 . S
C458 C459 1.372 . S
C459 C458 1.372 . S
C459 C460 1.400 . S
C459 C464 1.490 . S
C460 H450 0.930 . S
C460 C459 1.400 . S
C460 C463 1.386 . S
H461 C477 0.930 . S
H462 C478 0.931 . S
C463 H451 0.929 . S
C463 C457 1.390 . S
C463 C460 1.386 . S
C464 C459 1.490 . S
C464 C466 1.395 . S
C464 C467 1.403 . S
H465 C471 0.930 . S
C466 H452 0.930 . S
C466 C464 1.395 . S
C466 C469 1.403 . S
C467 C464 1.403 . S
C467 C468 1.523 . S
C467 C471 1.400 1_545 S
C468 H453 0.963 1_545 S
C468 H454 0.960 1_545 S
C468 H455 0.958 . S
C468 C467 1.523 . S
C469 C466 1.403 . S
C469 C470 1.392 1_545 S
C469 C473 1.495 . S
C470 C469 1.392 1_565 S
C470 C471 1.385 . S
C470 C472 1.478 . S
C471 H465 0.930 . S
C471 C467 1.400 1_565 S
C471 C470 1.385 . S
C472 C470 1.478 . S
C472 C474 1.381 . S
C472 C478 1.383 . S
C473 C469 1.495 . S
C473 H479 0.959 . S
C473 H480 0.961 . S
C473 H481 0.960 1_545 S
C474 C472 1.381 . S
C474 C475 1.394 . S
C474 H482 0.930 . S
C475 C474 1.394 . S
C475 C476 1.383 . S
C475 H483 0.929 . S
C476 C475 1.383 . S
C476 C477 1.377 . S
C477 H461 0.930 . S
C477 C476 1.377 . S
C477 C478 1.379 . S
C478 H462 0.931 . S
C478 C472 1.383 . S
C478 C477 1.379 . S
H479 C473 0.959 . S
H480 C473 0.961 . S
H481 C473 0.960 1_565 S
H482 C474 0.930 . S
H483 C475 0.929 . S
H484 C492 0.929 . S
H485 C494 0.930 . S
H486 C496 0.930 . S
H487 C499 0.929 . S
H488 C502 0.930 . S
H489 C504 0.960 . S
H490 C504 0.960 . S
H491 C504 0.960 . S
C492 H484 0.929 . S
C492 C493 1.377 . S
C492 C494 1.384 . S
C493 C492 1.377 . S
C493 C499 1.390 . S
C494 H485 0.930 . S
C494 C492 1.384 . S
C494 C495 1.372 . S
C495 C494 1.372 . S
C495 C496 1.400 . S
C495 C500 1.490 . S
C496 H486 0.930 . S
C496 C495 1.400 . S
C496 C499 1.386 . S
H497 C513 0.930 . S
H498 C514 0.931 . S
C499 H487 0.929 . S
C499 C493 1.390 . S
C499 C496 1.386 . S
C500 C495 1.490 . S
C500 C502 1.395 . S
C500 C503 1.403 . S
H501 C507 0.930 . S
C502 H488 0.930 . S
C502 C500 1.395 . S
C502 C505 1.403 . S
C503 C500 1.403 . S
C503 C504 1.524 . S
C503 C507 1.400 . S
C504 H489 0.960 . S
C504 H490 0.960 . S
C504 H491 0.960 . S
C504 C503 1.524 . S
C505 C502 1.403 . S
C505 C506 1.392 . S
C505 C509 1.495 . S
C506 C505 1.392 . S
C506 C507 1.385 . S
C506 C508 1.478 . S
C507 H501 0.930 . S
C507 C503 1.400 . S
C507 C506 1.385 . S
C508 C506 1.478 . S
C508 C510 1.381 . S
C508 C514 1.383 . S
C509 C505 1.495 . S
C509 H515 0.959 . S
C509 H516 0.961 . S
C509 H517 0.960 . S
C510 C508 1.381 . S
C510 C511 1.394 . S
C510 H518 0.930 . S
C511 C510 1.394 . S
C511 C512 1.383 . S
C511 H519 0.929 . S
C512 C511 1.383 . S
C512 C513 1.377 . S
C513 H497 0.930 . S
C513 C512 1.377 . S
C513 C514 1.379 . S
C514 H498 0.931 . S
C514 C508 1.383 . S
C514 C513 1.379 . S
H515 C509 0.959 . S
H516 C509 0.961 . S
H517 C509 0.960 . S
H518 C510 0.930 . S
H519 C511 0.929 . S
H520 C528 0.929 . S
H521 C530 0.930 . S
H522 C532 0.930 1_556 S
H523 C535 0.929 . S
H524 C538 0.930 . S
H525 C540 0.960 . S
H526 C540 0.960 . S
H527 C540 0.960 . S
C528 H520 0.929 . S
C528 C529 1.377 . S
C528 C530 1.384 . S
C529 C528 1.377 . S
C529 C535 1.390 . S
C530 H521 0.930 . S
C530 C528 1.384 . S
C530 C531 1.372 . S
C531 C530 1.372 . S
C531 C532 1.400 . S
C531 C536 1.490 1_554 S
C532 H522 0.930 1_554 S
C532 C531 1.400 . S
C532 C535 1.386 . S
H533 C549 0.930 . S
H534 C550 0.931 . S
C535 H523 0.929 . S
C535 C529 1.390 . S
C535 C532 1.386 . S
C536 C531 1.490 1_556 S
C536 C538 1.395 1_566 S
C536 C539 1.403 . S
H537 C543 0.930 . S
C538 H524 0.930 . S
C538 C536 1.395 1_544 S
C538 C541 1.403 . S
C539 C536 1.403 . S
C539 C540 1.524 . S
C539 C543 1.400 1_565 S
C540 H525 0.960 . S
C540 H526 0.960 . S
C540 H527 0.960 . S
C540 C539 1.524 . S
C541 C538 1.403 . S
C541 C542 1.392 1_554 S
C541 C545 1.495 . S
C542 C541 1.392 1_556 S
C542 C543 1.385 . S
C542 C544 1.478 . S
C543 H537 0.930 . S
C543 C539 1.400 1_545 S
C543 C542 1.385 . S
C544 C542 1.478 . S
C544 C546 1.381 . S
C544 C550 1.383 . S
C545 C541 1.495 . S
C545 H551 0.959 . S
C545 H552 0.961 . S
C545 H553 0.960 . S
C546 C544 1.381 . S
C546 C547 1.394 . S
C546 H554 0.930 . S
C547 C546 1.394 . S
C547 C548 1.383 . S
C547 H555 0.929 . S
C548 C547 1.383 . S
C548 C549 1.377 . S
C549 H533 0.930 . S
C549 C548 1.377 . S
C549 C550 1.379 . S
C550 H534 0.931 . S
C550 C544 1.383 . S
C550 C549 1.379 . S
H551 C545 0.959 . S
H552 C545 0.961 . S
H553 C545 0.960 . S
H554 C546 0.930 . S
H555 C547 0.929 . S
H556 C564 0.929 . S
H557 C566 0.930 . S
H558 C568 0.930 . S
H559 C571 0.929 . S
H560 C574 0.930 . S
H561 C576 0.960 . S
H562 C576 0.960 . S
H563 C576 0.960 . S
C564 H556 0.929 . S
C564 C565 1.377 . S
C564 C566 1.384 . S
C565 C564 1.377 . S
C565 C571 1.390 . S
C566 H557 0.930 . S
C566 C564 1.384 . S
C566 C567 1.372 . S
C567 C566 1.372 . S
C567 C568 1.400 . S
C567 C572 1.490 . S
C568 H558 0.930 . S
C568 C567 1.400 . S
C568 C571 1.386 . S
H569 C585 0.930 . S
H570 C586 0.931 . S
C571 H559 0.929 . S
C571 C565 1.390 . S
C571 C568 1.386 . S
C572 C567 1.490 . S
C572 C574 1.395 . S
C572 C575 1.403 . S
H573 C579 0.930 . S
C574 H560 0.930 . S
C574 C572 1.395 . S
C574 C577 1.403 . S
C575 C572 1.403 . S
C575 C576 1.524 . S
C575 C579 1.400 . S
C576 H561 0.960 . S
C576 H562 0.960 . S
C576 H563 0.960 . S
C576 C575 1.524 . S
C577 C574 1.403 . S
C577 C578 1.392 . S
C577 C581 1.495 . S
C578 C577 1.392 . S
C578 C579 1.385 . S
C578 C580 1.478 . S
C579 H573 0.930 . S
C579 C575 1.400 . S
C579 C578 1.385 . S
C580 C578 1.478 . S
C580 C582 1.381 . S
C580 C586 1.383 . S
C581 C577 1.495 . S
C581 H587 0.959 . S
C581 H588 0.961 . S
C581 H589 0.960 . S
C582 C580 1.381 . S
C582 C583 1.394 . S
C582 H590 0.930 . S
C583 C582 1.394 . S
C583 C584 1.383 . S
C583 H591 0.929 . S
C584 C583 1.383 . S
C584 C585 1.377 . S
C585 H569 0.930 . S
C585 C584 1.377 . S
C585 C586 1.379 . S
C586 H570 0.931 . S
C586 C580 1.383 . S
C586 C585 1.379 . S
H587 C581 0.959 . S
H588 C581 0.961 . S
H589 C581 0.960 . S
H590 C582 0.930 . S
H591 C583 0.929 . S
H592 C600 0.929 . S
H593 C602 0.930 . S
H594 C604 0.930 . S
H595 C607 0.929 . S
H596 C610 0.930 . S
H597 C612 0.960 . S
H598 C612 0.960 . S
H599 C612 0.960 . S
C600 H592 0.929 . S
C600 C601 1.377 . S
C600 C602 1.384 . S
C601 C600 1.377 . S
C601 C607 1.390 . S
C602 H593 0.930 . S
C602 C600 1.384 . S
C602 C603 1.372 . S
C603 C602 1.372 . S
C603 C604 1.400 . S
C603 C608 1.490 . S
C604 H594 0.930 . S
C604 C603 1.400 . S
C604 C607 1.386 . S
H605 C621 0.930 . S
H606 C622 0.931 . S
C607 H595 0.929 . S
C607 C601 1.390 . S
C607 C604 1.386 . S
C608 C603 1.490 . S
C608 C610 1.395 . S
C608 C611 1.403 . S
H609 C615 0.930 . S
C610 H596 0.930 . S
C610 C608 1.395 . S
C610 C613 1.403 . S
C611 C608 1.403 . S
C611 C612 1.524 . S
C611 C615 1.400 . S
C612 H597 0.960 . S
C612 H598 0.960 . S
C612 H599 0.960 . S
C612 C611 1.524 . S
C613 C610 1.403 . S
C613 C614 1.392 . S
C613 C617 1.495 . S
C614 C613 1.392 . S
C614 C615 1.385 . S
C614 C616 1.478 . S
C615 H609 0.930 . S
C615 C611 1.400 . S
C615 C614 1.385 . S
C616 C614 1.478 . S
C616 C618 1.381 . S
C616 C622 1.383 . S
C617 C613 1.495 . S
C617 H623 0.959 . S
C617 H624 0.961 . S
C617 H625 0.960 . S
C618 C616 1.381 . S
C618 C619 1.394 . S
C618 H626 0.930 . S
C619 C618 1.394 . S
C619 C620 1.383 . S
C619 H627 0.929 . S
C620 C619 1.383 . S
C620 C621 1.377 . S
C621 H605 0.930 . S
C621 C620 1.377 . S
C621 C622 1.379 . S
C622 H606 0.931 . S
C622 C616 1.383 . S
C622 C621 1.379 . S
H623 C617 0.959 . S
H624 C617 0.961 . S
H625 C617 0.960 . S
H626 C618 0.930 . S
H627 C619 0.929 . S
H628 C636 0.929 . S
H629 C638 0.930 . S
H630 C640 0.930 . S
H631 C643 0.929 . S
H632 C646 0.930 . S
H633 C648 0.960 . S
H634 C648 0.960 . S
H635 C648 0.960 . S
C636 H628 0.929 . S
C636 C637 1.377 . S
C636 C638 1.384 . S
C637 C636 1.377 . S
C637 C643 1.390 . S
C638 H629 0.930 . S
C638 C636 1.384 . S
C638 C639 1.372 . S
C639 C638 1.372 . S
C639 C640 1.400 . S
C639 C644 1.490 1_455 S
C640 H630 0.930 . S
C640 C639 1.400 . S
C640 C643 1.386 . S
H641 C657 0.930 . S
H642 C658 0.931 . S
C643 H631 0.929 . S
C643 C637 1.390 . S
C643 C640 1.386 . S
C644 C639 1.490 1_655 S
C644 C646 1.395 . S
C644 C647 1.403 . S
H645 C651 0.930 . S
C646 H632 0.930 . S
C646 C644 1.395 . S
C646 C649 1.403 . S
C647 C644 1.403 . S
C647 C648 1.524 . S
C647 C651 1.400 . S
C648 H633 0.960 . S
C648 H634 0.960 . S
C648 H635 0.960 . S
C648 C647 1.524 . S
C649 C646 1.403 . S
C649 C650 1.392 . S
C649 C653 1.495 . S
C650 C649 1.392 . S
C650 C651 1.385 . S
C650 C652 1.478 . S
C651 H645 0.930 . S
C651 C647 1.400 . S
C651 C650 1.385 . S
C652 C650 1.478 . S
C652 C654 1.381 . S
C652 C658 1.383 . S
C653 C649 1.495 . S
C653 H659 0.959 . S
C653 H660 0.961 . S
C653 H661 0.960 . S
C654 C652 1.381 . S
C654 C655 1.394 . S
C654 H662 0.930 . S
C655 C654 1.394 . S
C655 C656 1.383 . S
C655 H663 0.929 . S
C656 C655 1.383 . S
C656 C657 1.377 . S
C657 H641 0.930 . S
C657 C656 1.377 . S
C657 C658 1.379 . S
C658 H642 0.931 . S
C658 C652 1.383 . S
C658 C657 1.379 . S
H659 C653 0.959 . S
H660 C653 0.961 . S
H661 C653 0.960 . S
H662 C654 0.930 . S
H663 C655 0.929 . S
H664 C672 0.929 . S
H665 C674 0.930 . S
H666 C676 0.930 . S
H667 C679 0.929 . S
H668 C682 0.930 . S
H669 C684 0.960 . S
H670 C684 0.960 . S
H671 C684 0.960 . S
C672 H664 0.929 . S
C672 C673 1.377 . S
C672 C674 1.384 . S
C673 C672 1.377 . S
C673 C679 1.390 . S
C674 H665 0.930 . S
C674 C672 1.384 . S
C674 C675 1.372 . S
C675 C674 1.372 . S
C675 C676 1.400 . S
C675 C680 1.490 . S
C676 H666 0.930 . S
C676 C675 1.400 . S
C676 C679 1.386 . S
H677 C693 0.930 . S
H678 C694 0.931 . S
C679 H667 0.929 . S
C679 C673 1.390 . S
C679 C676 1.386 . S
C680 C675 1.490 . S
C680 C682 1.395 . S
C680 C683 1.403 . S
H681 C687 0.930 . S
C682 H668 0.930 . S
C682 C680 1.395 . S
C682 C685 1.403 . S
C683 C680 1.403 . S
C683 C684 1.524 . S
C683 C687 1.400 . S
C684 H669 0.960 . S
C684 H670 0.960 . S
C684 H671 0.960 . S
C684 C683 1.524 . S
C685 C682 1.403 . S
C685 C686 1.392 . S
C685 C689 1.495 . S
C686 C685 1.392 . S
C686 C687 1.385 . S
C686 C688 1.478 . S
C687 H681 0.930 . S
C687 C683 1.400 . S
C687 C686 1.385 . S
C688 C686 1.478 . S
C688 C690 1.381 . S
C688 C694 1.383 . S
C689 C685 1.495 . S
C689 H695 0.959 . S
C689 H696 0.961 . S
C689 H697 0.960 . S
C690 C688 1.381 . S
C690 C691 1.394 . S
C690 H698 0.930 . S
C691 C690 1.394 . S
C691 C692 1.383 . S
C691 H699 0.929 . S
C692 C691 1.383 . S
C692 C693 1.377 . S
C693 H677 0.930 . S
C693 C692 1.377 . S
C693 C694 1.379 . S
C694 H678 0.931 . S
C694 C688 1.383 . S
C694 C693 1.379 . S
H695 C689 0.959 . S
H696 C689 0.961 . S
H697 C689 0.960 . S
H698 C690 0.930 . S
H699 C691 0.929 . S
H700 C708 0.929 . S
H701 C710 0.930 . S
H702 C712 0.930 . S
H703 C715 0.929 . S
H704 C718 0.930 . S
H705 C720 0.960 . S
H706 C720 0.960 . S
H707 C720 0.960 . S
C708 H700 0.929 . S
C708 C709 1.377 . S
C708 C710 1.384 . S
C709 C708 1.377 . S
C709 C715 1.390 . S
C710 H701 0.930 . S
C710 C708 1.384 . S
C710 C711 1.372 . S
C711 C710 1.372 . S
C711 C712 1.400 . S
C711 C716 1.490 . S
C712 H702 0.930 . S
C712 C711 1.400 . S
C712 C715 1.386 . S
H713 C729 0.930 . S
H714 C730 0.931 . S
C715 H703 0.929 . S
C715 C709 1.390 . S
C715 C712 1.386 . S
C716 C711 1.490 . S
C716 C718 1.395 . S
C716 C719 1.403 . S
H717 C723 0.930 . S
C718 H704 0.930 . S
C718 C716 1.395 . S
C718 C721 1.403 . S
C719 C716 1.403 . S
C719 C720 1.524 . S
C719 C723 1.400 . S
C720 H705 0.960 . S
C720 H706 0.960 . S
C720 H707 0.960 . S
C720 C719 1.524 . S
C721 C718 1.403 . S
C721 C722 1.392 . S
C721 C725 1.495 1_655 S
C722 C721 1.392 . S
C722 C723 1.385 . S
C722 C724 1.478 1_655 S
C723 H717 0.930 . S
C723 C719 1.400 . S
C723 C722 1.385 . S
C724 C722 1.478 1_455 S
C724 C726 1.381 . S
C724 C730 1.383 . S
C725 C721 1.495 1_455 S
C725 H731 0.959 . S
C725 H732 0.961 . S
C725 H733 0.960 . S
C726 C724 1.381 . S
C726 C727 1.394 . S
C726 H734 0.930 1_455 S
C727 C726 1.394 . S
C727 C728 1.383 . S
C727 H735 0.929 . S
C728 C727 1.383 . S
C728 C729 1.377 . S
C729 H713 0.930 . S
C729 C728 1.377 . S
C729 C730 1.379 . S
C730 H714 0.931 . S
C730 C724 1.383 . S
C730 C729 1.379 . S
H731 C725 0.959 . S
H732 C725 0.961 . S
H733 C725 0.960 . S
H734 C726 0.930 1_655 S
H735 C727 0.929 . S
H736 C744 0.929 . S
H737 C746 0.930 . S
H738 C748 0.930 . S
H739 C751 0.929 . S
H740 C754 0.930 . S
H741 C756 0.960 . S
H742 C756 0.960 . S
H743 C756 0.960 . S
C744 H736 0.929 . S
C744 C745 1.377 . S
C744 C746 1.384 . S
C745 C744 1.377 . S
C745 C751 1.390 . S
C746 H737 0.930 . S
C746 C744 1.384 . S
C746 C747 1.372 . S
C747 C746 1.372 . S
C747 C748 1.400 . S
C747 C752 1.490 . S
C748 H738 0.930 . S
C748 C747 1.400 . S
C748 C751 1.386 . S
H749 C765 0.930 . S
H750 C766 0.931 . S
C751 H739 0.929 . S
C751 C745 1.390 . S
C751 C748 1.386 . S
C752 C747 1.490 . S
C752 C754 1.395 . S
C752 C755 1.403 . S
H753 C759 0.930 . S
C754 H740 0.930 . S
C754 C752 1.395 . S
C754 C757 1.403 . S
C755 C752 1.403 . S
C755 C756 1.524 . S
C755 C759 1.400 . S
C756 H741 0.960 . S
C756 H742 0.960 . S
C756 H743 0.960 . S
C756 C755 1.524 . S
C757 C754 1.403 . S
C757 C758 1.392 . S
C757 C761 1.495 . S
C758 C757 1.392 . S
C758 C759 1.385 . S
C758 C760 1.478 . S
C759 H753 0.930 . S
C759 C755 1.400 . S
C759 C758 1.385 . S
C760 C758 1.478 . S
C760 C762 1.381 . S
C760 C766 1.383 . S
C761 C757 1.495 . S
C761 H767 0.959 . S
C761 H768 0.961 . S
C761 H769 0.960 . S
C762 C760 1.381 . S
C762 C763 1.394 . S
C762 H770 0.930 . S
C763 C762 1.394 . S
C763 C764 1.383 . S
C763 H771 0.929 . S
C764 C763 1.383 . S
C764 C765 1.377 . S
C765 H749 0.930 . S
C765 C764 1.377 . S
C765 C766 1.379 . S
C766 H750 0.931 . S
C766 C760 1.383 . S
C766 C765 1.379 . S
H767 C761 0.959 . S
H768 C761 0.961 . S
H769 C761 0.960 . S
H770 C762 0.930 . S
H771 C763 0.929 . S
H772 C780 0.929 . S
H773 C782 0.930 . S
H774 C784 0.930 . S
H775 C787 0.929 . S
H776 C790 0.930 . S
H777 C792 0.960 . S
H778 C792 0.960 . S
H779 C792 0.960 . S
C780 H772 0.929 . S
C780 C781 1.377 . S
C780 C782 1.384 . S
C781 C780 1.377 . S
C781 C787 1.390 . S
C782 H773 0.930 . S
C782 C780 1.384 . S
C782 C783 1.372 . S
C783 C782 1.372 . S
C783 C784 1.400 . S
C783 C788 1.490 . S
C784 H774 0.930 . S
C784 C783 1.400 . S
C784 C787 1.386 . S
H785 C801 0.930 . S
H786 C802 0.931 . S
C787 H775 0.929 . S
C787 C781 1.390 . S
C787 C784 1.386 . S
C788 C783 1.490 . S
C788 C790 1.395 . S
C788 C791 1.403 . S
H789 C795 0.930 . S
C790 H776 0.930 . S
C790 C788 1.395 . S
C790 C793 1.403 . S
C791 C788 1.403 . S
C791 C792 1.524 . S
C791 C795 1.400 . S
C792 H777 0.960 . S
C792 H778 0.960 . S
C792 H779 0.960 . S
C792 C791 1.524 . S
C793 C790 1.403 . S
C793 C794 1.392 . S
C793 C797 1.495 . S
C794 C793 1.392 . S
C794 C795 1.385 . S
C794 C796 1.478 . S
C795 H789 0.930 . S
C795 C791 1.400 . S
C795 C794 1.385 . S
C796 C794 1.478 . S
C796 C798 1.381 . S
C796 C802 1.383 . S
C797 C793 1.495 . S
C797 H803 0.959 . S
C797 H804 0.961 . S
C797 H805 0.960 . S
C798 C796 1.381 . S
C798 C799 1.394 . S
C798 H806 0.930 . S
C799 C798 1.394 . S
C799 C800 1.383 . S
C799 H807 0.929 . S
C800 C799 1.383 . S
C800 C801 1.377 . S
C801 H785 0.930 . S
C801 C800 1.377 . S
C801 C802 1.379 . S
C802 H786 0.931 . S
C802 C796 1.383 . S
C802 C801 1.379 . S
H803 C797 0.959 . S
H804 C797 0.961 . S
H805 C797 0.960 . S
H806 C798 0.930 . S
H807 C799 0.929 . S
H808 C816 0.929 . S
H809 C818 0.930 . S
H810 C820 0.930 . S
H811 C823 0.929 . S
H812 C826 0.930 . S
H813 C828 0.960 . S
H814 C828 0.960 . S
H815 C828 0.960 . S
C816 H808 0.929 . S
C816 C817 1.377 . S
C816 C818 1.384 . S
C817 C816 1.377 . S
C817 C823 1.390 . S
C818 H809 0.930 . S
C818 C816 1.384 . S
C818 C819 1.372 . S
C819 C818 1.372 . S
C819 C820 1.400 . S
C819 C824 1.490 . S
C820 H810 0.930 . S
C820 C819 1.400 . S
C820 C823 1.386 . S
H821 C837 0.930 . S
H822 C838 0.931 . S
C823 H811 0.929 . S
C823 C817 1.390 . S
C823 C820 1.386 . S
C824 C819 1.490 . S
C824 C826 1.395 . S
C824 C827 1.403 . S
H825 C831 0.930 . S
C826 H812 0.930 . S
C826 C824 1.395 . S
C826 C829 1.403 . S
C827 C824 1.403 . S
C827 C828 1.524 . S
C827 C831 1.400 . S
C828 H813 0.960 . S
C828 H814 0.960 . S
C828 H815 0.960 . S
C828 C827 1.524 . S
C829 C826 1.403 . S
C829 C830 1.392 . S
C829 C833 1.495 . S
C830 C829 1.392 . S
C830 C831 1.385 . S
C830 C832 1.478 . S
C831 H825 0.930 . S
C831 C827 1.400 . S
C831 C830 1.385 . S
C832 C830 1.478 . S
C832 C834 1.381 . S
C832 C838 1.383 . S
C833 C829 1.495 . S
C833 H839 0.959 . S
C833 H840 0.961 . S
C833 H841 0.960 . S
C834 C832 1.381 . S
C834 C835 1.394 . S
C834 H842 0.930 . S
C835 C834 1.394 . S
C835 C836 1.383 . S
C835 H843 0.929 . S
C836 C835 1.383 . S
C836 C837 1.377 . S
C837 H821 0.930 . S
C837 C836 1.377 . S
C837 C838 1.379 . S
C838 H822 0.931 . S
C838 C832 1.383 . S
C838 C837 1.379 . S
H839 C833 0.959 . S
H840 C833 0.961 . S
H841 C833 0.960 . S
H842 C834 0.930 . S
H843 C835 0.929 . S
H844 C852 0.929 . S
H845 C854 0.930 . S
H846 C856 0.930 . S
H847 C859 0.929 . S
H848 C862 0.930 . S
H849 C864 0.960 . S
H850 C864 0.960 . S
H851 C864 0.960 . S
C852 H844 0.929 . S
C852 C853 1.377 . S
C852 C854 1.384 . S
C853 C852 1.377 . S
C853 C859 1.390 . S
C854 H845 0.930 . S
C854 C852 1.384 . S
C854 C855 1.372 . S
C855 C854 1.372 . S
C855 C856 1.400 . S
C855 C860 1.490 . S
C856 H846 0.930 . S
C856 C855 1.400 . S
C856 C859 1.386 . S
H857 C873 0.930 . S
H858 C874 0.931 . S
C859 H847 0.929 . S
C859 C853 1.390 . S
C859 C856 1.386 . S
C860 C855 1.490 . S
C860 C862 1.395 . S
C860 C863 1.403 . S
H861 C867 0.930 . S
C862 H848 0.930 . S
C862 C860 1.395 . S
C862 C865 1.403 . S
C863 C860 1.403 . S
C863 C864 1.524 . S
C863 C867 1.400 . S
C864 H849 0.960 . S
C864 H850 0.960 . S
C864 H851 0.960 . S
C864 C863 1.524 . S
C865 C862 1.403 . S
C865 C866 1.392 . S
C865 C869 1.495 . S
C866 C865 1.392 . S
C866 C867 1.385 . S
C866 C868 1.478 . S
C867 H861 0.930 . S
C867 C863 1.400 . S
C867 C866 1.385 . S
C868 C866 1.478 . S
C868 C870 1.381 . S
C868 C874 1.383 . S
C869 C865 1.495 . S
C869 H875 0.959 . S
C869 H876 0.961 . S
C869 H877 0.960 . S
C870 C868 1.381 . S
C870 C871 1.394 . S
C870 H878 0.930 . S
C871 C870 1.394 . S
C871 C872 1.383 . S
C871 H879 0.929 . S
C872 C871 1.383 . S
C872 C873 1.377 . S
C873 H857 0.930 . S
C873 C872 1.377 . S
C873 C874 1.379 . S
C874 H858 0.931 . S
C874 C868 1.383 . S
C874 C873 1.379 . S
H875 C869 0.959 . S
H876 C869 0.961 . S
H877 C869 0.960 . S
H878 C870 0.930 . S
H879 C871 0.929 . S
H880 C888 0.929 . S
H881 C890 0.930 . S
H882 C892 0.930 . S
H883 C895 0.929 . S
H884 C898 0.930 . S
H885 C900 0.960 . S
H886 C900 0.960 . S
H887 C900 0.960 . S
C888 H880 0.929 . S
C888 C889 1.377 . S
C888 C890 1.384 . S
C889 C888 1.377 . S
C889 C895 1.390 . S
C890 H881 0.930 . S
C890 C888 1.384 . S
C890 C891 1.372 . S
C891 C890 1.372 . S
C891 C892 1.400 . S
C891 C896 1.490 . S
C892 H882 0.930 . S
C892 C891 1.400 . S
C892 C895 1.386 . S
H893 C909 0.930 . S
H894 C910 0.931 . S
C895 H883 0.929 . S
C895 C889 1.390 . S
C895 C892 1.386 . S
C896 C891 1.490 . S
C896 C898 1.395 . S
C896 C899 1.403 . S
H897 C903 0.930 . S
C898 H884 0.930 . S
C898 C896 1.395 . S
C898 C901 1.403 . S
C899 C896 1.403 . S
C899 C900 1.524 . S
C899 C903 1.400 . S
C900 H885 0.960 . S
C900 H886 0.960 . S
C900 H887 0.960 . S
C900 C899 1.524 . S
C901 C898 1.403 . S
C901 C902 1.392 . S
C901 C905 1.495 . S
C902 C901 1.392 . S
C902 C903 1.385 . S
C902 C904 1.478 . S
C903 H897 0.930 . S
C903 C899 1.400 . S
C903 C902 1.385 . S
C904 C902 1.478 . S
C904 C906 1.381 . S
C904 C910 1.383 . S
C905 C901 1.495 . S
C905 H911 0.959 . S
C905 H912 0.961 . S
C905 H913 0.960 . S
C906 C904 1.381 . S
C906 C907 1.394 . S
C906 H914 0.930 . S
C907 C906 1.394 . S
C907 C908 1.383 . S
C907 H915 0.929 . S
C908 C907 1.383 . S
C908 C909 1.377 . S
C909 H893 0.930 . S
C909 C908 1.377 . S
C909 C910 1.379 . S
C910 H894 0.931 . S
C910 C904 1.383 . S
C910 C909 1.379 . S
H911 C905 0.959 . S
H912 C905 0.961 . S
H913 C905 0.960 . S
H914 C906 0.930 . S
H915 C907 0.929 . S
H916 C924 0.929 . S
H917 C926 0.930 . S
H918 C928 0.930 . S
H919 C931 0.929 . S
H920 C934 0.930 . S
H921 C936 0.960 . S
H922 C936 0.960 . S
H923 C936 0.960 . S
C924 H916 0.929 . S
C924 C925 1.377 . S
C924 C926 1.384 . S
C925 C924 1.377 . S
C925 C931 1.390 . S
C926 H917 0.930 . S
C926 C924 1.384 . S
C926 C927 1.372 . S
C927 C926 1.372 . S
C927 C928 1.400 . S
C927 C932 1.490 . S
C928 H918 0.930 . S
C928 C927 1.400 . S
C928 C931 1.386 . S
H929 C945 0.930 . S
H930 C946 0.931 . S
C931 H919 0.929 . S
C931 C925 1.390 . S
C931 C928 1.386 . S
C932 C927 1.490 . S
C932 C934 1.395 . S
C932 C935 1.403 . S
H933 C939 0.930 . S
C934 H920 0.930 . S
C934 C932 1.395 . S
C934 C937 1.403 . S
C935 C932 1.403 . S
C935 C936 1.524 . S
C935 C939 1.400 . S
C936 H921 0.960 . S
C936 H922 0.960 . S
C936 H923 0.960 . S
C936 C935 1.524 . S
C937 C934 1.403 . S
C937 C938 1.392 . S
C937 C941 1.495 . S
C938 C937 1.392 . S
C938 C939 1.385 . S
C938 C940 1.478 . S
C939 H933 0.930 . S
C939 C935 1.400 . S
C939 C938 1.385 . S
C940 C938 1.478 . S
C940 C942 1.381 . S
C940 C946 1.383 . S
C941 C937 1.495 . S
C941 H947 0.959 . S
C941 H948 0.961 . S
C941 H949 0.960 . S
C942 C940 1.381 . S
C942 C943 1.394 . S
C942 H950 0.930 . S
C943 C942 1.394 . S
C943 C944 1.383 . S
C943 H951 0.929 . S
C944 C943 1.383 . S
C944 C945 1.377 . S
C945 H929 0.930 . S
C945 C944 1.377 . S
C945 C946 1.379 . S
C946 H930 0.931 . S
C946 C940 1.383 . S
C946 C945 1.379 . S
H947 C941 0.959 . S
H948 C941 0.961 . S
H949 C941 0.960 . S
H950 C942 0.930 . S
H951 C943 0.929 . S
H952 C960 0.929 . S
H953 C962 0.930 . S
H954 C964 0.930 . S
H955 C967 0.929 . S
H956 C970 0.930 . S
H957 C972 0.960 . S
H958 C972 0.960 . S
H959 C972 0.960 . S
C960 H952 0.929 . S
C960 C961 1.377 . S
C960 C962 1.384 . S
C961 C960 1.377 . S
C961 C967 1.390 . S
C962 H953 0.930 . S
C962 C960 1.384 . S
C962 C963 1.372 . S
C963 C962 1.372 . S
C963 C964 1.400 . S
C963 C968 1.490 . S
C964 H954 0.930 . S
C964 C963 1.400 . S
C964 C967 1.386 . S
H965 C981 0.930 . S
H966 C982 0.931 . S
C967 H955 0.929 . S
C967 C961 1.390 . S
C967 C964 1.386 . S
C968 C963 1.490 . S
C968 C970 1.395 . S
C968 C971 1.403 . S
H969 C975 0.930 . S
C970 H956 0.930 . S
C970 C968 1.395 . S
C970 C973 1.403 . S
C971 C968 1.403 . S
C971 C972 1.524 . S
C971 C975 1.400 . S
C972 H957 0.960 . S
C972 H958 0.960 . S
C972 H959 0.960 . S
C972 C971 1.524 . S
C973 C970 1.403 . S
C973 C974 1.392 . S
C973 C977 1.495 . S
C974 C973 1.392 . S
C974 C975 1.385 . S
C974 C976 1.478 . S
C975 H969 0.930 . S
C975 C971 1.400 . S
C975 C974 1.385 . S
C976 C974 1.478 . S
C976 C978 1.381 . S
C976 C982 1.383 . S
C977 C973 1.495 . S
C977 H983 0.959 . S
C977 H984 0.961 . S
C977 H985 0.960 . S
C978 C976 1.381 . S
C978 C979 1.394 . S
C978 H986 0.930 . S
C979 C978 1.394 . S
C979 C980 1.383 . S
C979 H987 0.929 . S
C980 C979 1.383 . S
C980 C981 1.377 . S
C981 H965 0.930 . S
C981 C980 1.377 . S
C981 C982 1.379 . S
C982 H966 0.931 . S
C982 C976 1.383 . S
C982 C981 1.379 . S
H983 C977 0.959 . S
H984 C977 0.961 . S
H985 C977 0.960 . S
H986 C978 0.930 . S
H987 C979 0.929 . S
H988 C996 0.929 . S
H989 C998 0.930 . S
H990 C1000 0.930 . S
H991 C1003 0.929 . S
H992 C1006 0.930 1_554 S
H993 C1008 0.960 . S
H994 C1008 0.960 . S
H995 C1008 0.960 . S
C996 H988 0.929 . S
C996 C997 1.377 . S
C996 C998 1.384 . S
C997 C996 1.377 . S
C997 C1003 1.390 . S
C998 H989 0.930 . S
C998 C996 1.384 . S
C998 C999 1.372 1_554 S
C999 C998 1.372 1_556 S
C999 C1000 1.400 . S
C999 C1004 1.490 . S
C1000 H990 0.930 . S
C1000 C999 1.400 . S
C1000 C1003 1.386 1_556 S
H1001 C1017 0.930 . S
H1002 C1018 0.931 . S
C1003 H991 0.929 . S
C1003 C997 1.390 . S
C1003 C1000 1.386 1_554 S
C1004 C999 1.490 . S
C1004 C1006 1.395 . S
C1004 C1007 1.403 . S
H1005 C1011 0.930 . S
C1006 H992 0.930 1_556 S
C1006 C1004 1.395 . S
C1006 C1009 1.403 . S
C1007 C1004 1.403 . S
C1007 C1008 1.524 . S
C1007 C1011 1.400 . S
C1008 H993 0.960 . S
C1008 H994 0.960 . S
C1008 H995 0.960 . S
C1008 C1007 1.524 . S
C1009 C1006 1.403 . S
C1009 C1010 1.392 . S
C1009 C1013 1.493 1_556 S
C1010 C1009 1.392 . S
C1010 C1011 1.385 . S
C1010 C1012 1.478 . S
C1011 H1005 0.930 . S
C1011 C1007 1.400 . S
C1011 C1010 1.385 . S
C1012 C1010 1.478 . S
C1012 C1014 1.381 . S
C1012 C1018 1.383 . S
C1013 C1009 1.493 1_554 S
C1013 H1019 0.962 . S
C1013 H1020 0.962 . S
C1013 H1021 0.958 1_554 S
C1014 C1012 1.381 . S
C1014 C1015 1.394 . S
C1014 H1022 0.930 . S
C1015 C1014 1.394 . S
C1015 C1016 1.383 . S
C1015 H1023 0.929 . S
C1016 C1015 1.383 . S
C1016 C1017 1.377 . S
C1017 H1001 0.930 . S
C1017 C1016 1.377 . S
C1017 C1018 1.379 . S
C1018 H1002 0.931 . S
C1018 C1012 1.383 . S
C1018 C1017 1.379 . S
H1019 C1013 0.962 . S
H1020 C1013 0.962 . S
H1021 C1013 0.958 1_556 S
H1022 C1014 0.930 . S
H1023 C1015 0.929 . S
C169 C7 1.307 . S
C188 C93 1.320 . S
C205 C37 1.095 . S
C224 C101 1.107 . S
C241 C54 1.250 . S
C260 C110 1.193 . S
C296 C120 1.310 . S
C277 C87 1.304 . S
C332 C129 1.263 . S
C313 C30 1.275 . S
C349 C51 1.322 . S
C368 C138 1.320 . S
C385 C84 1.291 . S
C404 C146 1.267 . S
C421 C10 1.071 1_556 S
C440 C156 1.016 . S
C457 C59 1.326 . S
C476 C155 1.345 . S
C512 C128 1.080 . S
C493 C74 1.066 . S
C548 C137 1.261 . S
C529 C18 1.288 . S
C565 C32 1.294 . S
C584 C147 1.296 . S
C620 C102 1.327 . S
C601 C73 1.316 . S
C637 C15 1.297 . S
C656 C111 1.332 . S
C692 C119 1.315 . S
C673 C43 1.300 . S
C728 C92 1.020 . S
C709 C62 1.069 . S
C764 C149 1.297 . S
C745 C21 1.343 . S
C800 C158 1.181 . S
C781 C29 1.204 . S
C817 C52 1.166 . S
C836 C131 1.173 . S
C872 C140 1.311 . S
C853 C81 1.328 . S
C908 C113 1.303 . S
C889 C40 1.304 . S
C925 C65 1.324 . S
C944 C122 1.319 . S
C980 C95 1.146 . S
C961 C76 1.179 . S
C1016 C104 1.215 . S
C997 C8 1.214 . S
