# Generated by pormake.
# Topology pth, (4,4)-cn, num edge types: 1
# Building blocks:
#     Node 0, Type 0, BuildingBlock: CEKHIL_clean_sbu_0, # of connection points: 4
#     Node 1, Type 0, BuildingBlock: CEKHIL_clean_sbu_0, # of connection points: 4
#     Node 2, Type 0, BuildingBlock: CEKHIL_clean_sbu_0, # of connection points: 4
#     Node 3, Type 1, BuildingBlock: NAHDIM_clean_linker_0, # of connection points: 4
#     Node 4, Type 1, BuildingBlock: NAHDIM_clean_linker_0, # of connection points: 4
#     Node 5, Type 1, BuildingBlock: NAHDIM_clean_linker_0, # of connection points: 4
#     Edge 6, Type (0, 1), BuildingBlock: MIFKUJ_clean_linker_0, # of connection points: 2
#     Edge 7, Type (0, 1), BuildingBlock: MIFKUJ_clean_linker_0, # of connection points: 2
#     Edge 8, Type (0, 1), BuildingBlock: MIFKUJ_clean_linker_0, # of connection points: 2
#     Edge 9, Type (0, 1), BuildingBlock: MIFKUJ_clean_linker_0, # of connection points: 2
#     Edge 10, Type (0, 1), BuildingBlock: MIFKUJ_clean_linker_0, # of connection points: 2
#     Edge 11, Type (0, 1), BuildingBlock: MIFKUJ_clean_linker_0, # of connection points: 2
#     Edge 12, Type (0, 1), BuildingBlock: MIFKUJ_clean_linker_0, # of connection points: 2
#     Edge 13, Type (0, 1), BuildingBlock: MIFKUJ_clean_linker_0, # of connection points: 2
#     Edge 14, Type (0, 1), BuildingBlock: MIFKUJ_clean_linker_0, # of connection points: 2
#     Edge 15, Type (0, 1), BuildingBlock: MIFKUJ_clean_linker_0, # of connection points: 2
#     Edge 16, Type (0, 1), BuildingBlock: MIFKUJ_clean_linker_0, # of connection points: 2
#     Edge 17, Type (0, 1), BuildingBlock: MIFKUJ_clean_linker_0, # of connection points: 2
# Relax obj value: 0.006
# Max RMSD: 0.047
# Mean RMSD: 0.045
data_MOF--net-pth--node1-CEKHIL_clean_sbu_0--node2-NAHDIM_clean_linker_0--edge1-MIFKUJ_clean_linker_0
_symmetry_space_group_name_H-M    P1
_symmetry_Int_Tables_number       1
_symmetry_cell_setting            triclinic
loop_
_symmetry_equiv_pos_as_xyz
'x, y, z'
_cell_length_a     38.239265
_cell_length_b     38.323311
_cell_length_c     99.571853
_cell_angle_alpha  90.619654
_cell_angle_beta   90.53989
_cell_angle_gamma 120.28408
loop_
_atom_site_label
_atom_site_type_symbol
_atom_site_fract_x
_atom_site_fract_y
_atom_site_fract_z
_atom_type_partial_charge
Co0 Co 0.01582 0.0483 0.08656 0.0
O1 O -0.00035 0.01218 0.1014 0.0
O2 O 0.04244 0.01659 0.08575 0.0
C3 C 0.02758 0.10315 0.09865 0.0
O4 O 0.04144 0.08375 0.0703 0.0
Co5 Co 0.96515 0.08677 0.07811 0.0
O6 O 0.01171 0.12064 0.06652 0.0
C7 C 0.93637 0.00226 0.07042 0.0
C8 C 0.0234 0.00011 0.09675 0.0
C9 C 0.0391 0.1119 0.06413 0.0
O10 O 0.96944 0.00606 0.07526 0.0
O11 O 0.92749 0.03022 0.07131 0.0
O12 O 0.05485 0.09252 0.09797 0.0
O13 O 0.99282 0.0784 0.0931 0.0
Co14 Co 0.02153 0.05832 0.41119 0.0
O15 O 0.99791 0.07927 0.39882 0.0
O16 O 0.05389 0.11657 0.411 0.0
C17 C 0.01797 0.00963 0.39737 0.0
O18 O 0.05593 0.04798 0.42456 0.0
Co19 Co 0.97227 0.97068 0.42149 0.0
O20 O 0.024 0.98239 0.4301 0.0
C21 C 0.95673 0.0332 0.43252 0.0
C22 C 0.02799 0.11478 0.40208 0.0
C23 C 0.05464 0.01799 0.43072 0.0
O24 O 0.98692 0.06048 0.42601 0.0
O25 O 0.94445 0.99542 0.43141 0.0
O26 O 0.04753 0.04667 0.39651 0.0
O27 O 0.98973 0.00386 0.40564 0.0
Co28 Co 0.02733 0.04024 0.73784 0.0
O29 O 0.07314 0.0649 0.72618 0.0
O30 O 0.05839 0.01327 0.73937 0.0
C31 C 0.9826 0.03725 0.72239 0.0
O32 O 0.98223 0.00533 0.75073 0.0
Co33 Co 0.97741 0.08073 0.74534 0.0
O34 O 0.93713 0.02637 0.7517 0.0
C35 C 0.05701 0.10812 0.75867 0.0
C36 C 0.08194 0.03825 0.73039 0.0
C37 C 0.94793 0.00069 0.75435 0.0
O38 O 0.06015 0.07975 0.75277 0.0
O39 O 0.02773 0.11458 0.75642 0.0
O40 O 0.99194 0.00904 0.72266 0.0
O41 O 0.00171 0.06686 0.73084 0.0
C42 C 0.92883 0.69844 0.2928 0.0
C43 C 0.95659 0.69577 0.30343 0.0
C44 C 0.99766 0.67329 0.29112 0.0
C45 C 0.03676 0.68537 0.28684 0.0
C46 C 0.0456 0.65813 0.28035 0.0
C47 C 0.01428 0.61778 0.27799 0.0
C48 C 0.97443 0.60539 0.28207 0.0
C49 C 0.96646 0.63324 0.28861 0.0
C50 C 0.08851 0.67232 0.27618 0.0
C51 C 0.94036 0.5626 0.27962 0.0
C52 C 0.08593 0.48957 0.33781 0.0
C53 C 0.06026 0.45207 0.32894 0.0
C54 C 0.06902 0.47492 0.30596 0.0
C55 C 0.02908 0.46054 0.30153 0.0
C56 C 0.02055 0.47995 0.29121 0.0
C57 C 0.05269 0.51454 0.28527 0.0
C58 C 0.09316 0.52824 0.28944 0.0
C59 C 0.10082 0.50775 0.29962 0.0
C60 C 0.97714 0.46395 0.28682 0.0
C61 C 0.12818 0.56516 0.28342 0.0
C62 C 0.10317 0.44905 0.20568 0.0
C63 C 0.06135 0.43483 0.20523 0.0
C64 C 0.04626 0.45997 0.20915 0.0
C65 C 0.0736 0.50022 0.21338 0.0
C66 C 0.11582 0.51537 0.21295 0.0
C67 C 0.13004 0.48952 0.20905 0.0
C68 C 0.00111 0.44326 0.20916 0.0
C69 C 0.14584 0.55844 0.21707 0.0
C70 C 0.94219 0.66918 0.18418 0.0
C71 C 0.98796 0.68967 0.18217 0.0
C72 C 0.00736 0.64031 0.18712 0.0
C73 C 0.98054 0.59915 0.18884 0.0
C74 C 0.98909 0.57722 0.1982 0.0
C75 C 0.02598 0.59688 0.20568 0.0
C76 C 0.05385 0.63838 0.20357 0.0
C77 C 0.0439 0.65978 0.19442 0.0
C78 C 0.95861 0.53311 0.20013 0.0
C79 C 0.09414 0.66008 0.21095 0.0
C80 C 0.02372 0.58817 0.27179 0.0
C81 C 0.03273 0.5651 0.28039 0.0
C82 C 0.04369 0.53784 0.27538 0.0
C83 C 0.04631 0.53372 0.26135 0.0
C84 C 0.05774 0.50699 0.25595 0.0
C85 C 0.06151 0.50415 0.24216 0.0
C86 C 0.0535 0.52757 0.23321 0.0
C87 C 0.05816 0.52556 0.2192 0.0
C88 C 0.04917 0.54856 0.21056 0.0
C89 C 0.03553 0.57383 0.21552 0.0
C90 C 0.03129 0.57676 0.22955 0.0
C91 C 0.01793 0.60202 0.23494 0.0
C92 C 0.01536 0.6058 0.24877 0.0
C93 C 0.02533 0.58389 0.25773 0.0
C94 C 0.03729 0.55702 0.2525 0.0
C95 C 0.04061 0.55372 0.23841 0.0
C96 C 0.12679 0.37479 0.21427 0.0
C97 C 0.09986 0.38355 0.2051 0.0
O98 O 0.99172 0.70132 0.29756 0.0
O99 O 0.99781 0.66092 0.17827 0.0
O100 O 0.11875 0.4248 0.20303 0.0
O101 O 0.07755 0.45772 0.31638 0.0
H102 H 0.94043 0.6657 0.30824 0.0
H103 H 0.92016 0.67461 0.28493 0.0
H104 H 0.9444 0.72835 0.2879 0.0
H105 H 0.90068 0.69409 0.29749 0.0
H106 H 0.06058 0.71632 0.28875 0.0
H107 H 0.93588 0.62334 0.29171 0.0
H108 H 0.09948 0.65351 0.28098 0.0
H109 H 0.10955 0.70452 0.27897 0.0
H110 H 0.08934 0.66858 0.26514 0.0
H111 H 0.91051 0.55836 0.28254 0.0
H112 H 0.94629 0.54157 0.28548 0.0
H113 H 0.93891 0.55422 0.26883 0.0
H114 H 0.02938 0.44806 0.32807 0.0
H115 H 0.07261 0.48541 0.34795 0.0
H116 H 0.08684 0.51634 0.33326 0.0
H117 H 0.11746 0.49555 0.33884 0.0
H118 H 0.00459 0.43417 0.30615 0.0
H119 H 0.13159 0.51822 0.30303 0.0
H120 H 0.96757 0.48572 0.28996 0.0
H121 H 0.95622 0.43417 0.29125 0.0
H122 H 0.97433 0.46092 0.2757 0.0
H123 H 0.15765 0.57304 0.28823 0.0
H124 H 0.1235 0.59139 0.28449 0.0
H125 H 0.12968 0.55979 0.27252 0.0
H126 H 0.07101 0.37254 0.21057 0.0
H127 H 0.04038 0.40411 0.20191 0.0
H128 H 0.16228 0.50044 0.20907 0.0
H129 H 0.99131 0.44461 0.21952 0.0
H130 H 0.98384 0.41149 0.20539 0.0
H131 H 0.99341 0.46211 0.20278 0.0
H132 H 0.17756 0.56662 0.21501 0.0
H133 H 0.14322 0.56267 0.22799 0.0
H134 H 0.13894 0.57952 0.21167 0.0
H135 H 0.00347 0.70415 0.1919 0.0
H136 H 0.93371 0.69172 0.18744 0.0
H137 H 0.93283 0.64605 0.19209 0.0
H138 H 0.92552 0.65414 0.1747 0.0
H139 H 0.9525 0.58448 0.18302 0.0
H140 H 0.0647 0.69162 0.19282 0.0
H141 H 0.95271 0.52672 0.21098 0.0
H142 H 0.97107 0.51445 0.19621 0.0
H143 H 0.92943 0.52369 0.19481 0.0
H144 H 0.11456 0.69043 0.20679 0.0
H145 H 0.10943 0.64199 0.21042 0.0
H146 H 0.08923 0.66389 0.2217 0.0
H147 H 0.03145 0.56864 0.29118 0.0
H148 H 0.06433 0.48827 0.26234 0.0
H149 H 0.07085 0.48335 0.23861 0.0
H150 H 0.0529 0.54682 0.19983 0.0
H151 H 0.00977 0.61954 0.22854 0.0
H152 H 0.00545 0.62611 0.25237 0.0
H153 H 0.11266 0.34174 0.2158 0.0
H154 H 0.13052 0.38978 0.22422 0.0
H155 H 0.15729 0.3864 0.20994 0.0
C156 C 0.337 0.92769 0.65056 0.0
C157 C 0.35425 0.97345 0.65026 0.0
C158 C 0.38526 0.00066 0.62906 0.0
C159 C 0.40892 0.0424 0.62749 0.0
C160 C 0.44414 0.05894 0.61979 0.0
C161 C 0.45564 0.03292 0.61357 0.0
C162 C 0.43066 0.99053 0.61469 0.0
C163 C 0.39546 0.97486 0.62235 0.0
C164 C 0.46979 0.10422 0.61867 0.0
C165 C 0.44197 0.9619 0.6082 0.0
C166 C 0.6727 0.1152 0.67679 0.0
C167 C 0.67283 0.09093 0.66452 0.0
C168 C 0.65623 0.10464 0.64223 0.0
C169 C 0.63424 0.06492 0.6371 0.0
C170 C 0.6067 0.05513 0.62635 0.0
C171 C 0.60111 0.0857 0.62067 0.0
C172 C 0.6248 0.12613 0.62539 0.0
C173 C 0.65258 0.13515 0.63601 0.0
C174 C 0.58274 0.01193 0.6213 0.0
C175 C 0.61957 0.15948 0.6196 0.0
C176 C 0.71166 0.14327 0.53874 0.0
C177 C 0.68745 0.10142 0.54054 0.0
C178 C 0.64801 0.08476 0.54549 0.0
C179 C 0.63262 0.1105 0.5487 0.0
C180 C 0.65655 0.1525 0.54647 0.0
C181 C 0.69562 0.16823 0.54135 0.0
C182 C 0.62291 0.03975 0.54744 0.0
C183 C 0.64111 0.18086 0.54969 0.0
C184 C 0.37809 0.98724 0.49783 0.0
C185 C 0.36502 0.00821 0.50821 0.0
C186 C 0.42596 0.04853 0.52247 0.0
C187 C 0.42751 0.01591 0.52819 0.0
C188 C 0.45838 0.02264 0.53743 0.0
C189 C 0.48718 0.06269 0.54149 0.0
C190 C 0.48485 0.09546 0.53607 0.0
C191 C 0.45463 0.08788 0.52648 0.0
C192 C 0.46042 0.98692 0.54273 0.0
C193 C 0.51456 0.13861 0.54021 0.0
C194 C 0.49592 0.04996 0.60727 0.0
C195 C 0.52896 0.05995 0.61579 0.0
C196 C 0.5678 0.07478 0.61077 0.0
C197 C 0.57408 0.07933 0.59679 0.0
C198 C 0.61262 0.09326 0.59138 0.0
C199 C 0.61855 0.09804 0.5776 0.0
C200 C 0.58611 0.08883 0.5687 0.0
C201 C 0.59191 0.09382 0.55469 0.0
C202 C 0.559 0.08436 0.54614 0.0
C203 C 0.52023 0.07053 0.55119 0.0
C204 C 0.51387 0.06561 0.5652 0.0
C205 C 0.47547 0.05241 0.57068 0.0
C206 C 0.46942 0.04707 0.58445 0.0
C207 C 0.50168 0.05538 0.59328 0.0
C208 C 0.54088 0.06973 0.58801 0.0
C209 C 0.54692 0.07457 0.57395 0.0
C210 C 0.81537 0.18366 0.54421 0.0
C211 C 0.77792 0.14832 0.53749 0.0
O212 O 0.35301 0.9855 0.63726 0.0
O213 O 0.39813 0.04382 0.51294 0.0
O214 O 0.75035 0.16057 0.5344 0.0
O215 O 0.68082 0.11445 0.65321 0.0
H216 H 0.38626 0.98855 0.65402 0.0
H217 H 0.35718 0.91951 0.64517 0.0
H218 H 0.30638 0.91132 0.64577 0.0
H219 H 0.3349 0.91755 0.66109 0.0
H220 H 0.40033 0.06197 0.63262 0.0
H221 H 0.37626 0.94251 0.62332 0.0
H222 H 0.49863 0.11505 0.62438 0.0
H223 H 0.45433 0.11999 0.62268 0.0
H224 H 0.47751 0.11256 0.60801 0.0
H225 H 0.41904 0.92972 0.60989 0.0
H226 H 0.47163 0.96788 0.61231 0.0
H227 H 0.44534 0.96704 0.59722 0.0
H228 H 0.64214 0.06345 0.66378 0.0
H229 H 0.66607 0.09695 0.68601 0.0
H230 H 0.64892 0.12347 0.67547 0.0
H231 H 0.70248 0.14341 0.67813 0.0
H232 H 0.63833 0.04155 0.64157 0.0
H233 H 0.67029 0.16583 0.63993 0.0
H234 H 0.58351 0.01076 0.61016 0.0
H235 H 0.55061 0.99881 0.6242 0.0
H236 H 0.59441 0.99293 0.62549 0.0
H237 H 0.6398 0.18921 0.62459 0.0
H238 H 0.58768 0.15209 0.62068 0.0
H239 H 0.62614 0.16209 0.60871 0.0
H240 H 0.76522 0.12361 0.54494 0.0
H241 H 0.69917 0.08174 0.53801 0.0
H242 H 0.71435 0.20039 0.53971 0.0
H243 H 0.61678 0.0335 0.55829 0.0
H244 H 0.63824 0.02354 0.5437 0.0
H245 H 0.59324 0.02749 0.54213 0.0
H246 H 0.66425 0.21297 0.54802 0.0
H247 H 0.63156 0.17749 0.56033 0.0
H248 H 0.61414 0.17292 0.54329 0.0
H249 H 0.35023 0.98752 0.51673 0.0
H250 H 0.35115 0.95943 0.49378 0.0
H251 H 0.39888 0.97833 0.50241 0.0
H252 H 0.39401 0.00762 0.48937 0.0
H253 H 0.40524 0.98516 0.52539 0.0
H254 H 0.45316 0.11285 0.52206 0.0
H255 H 0.45196 0.98272 0.55346 0.0
H256 H 0.49177 0.9924 0.54208 0.0
H257 H 0.43964 0.95849 0.53713 0.0
H258 H 0.50405 0.15962 0.53711 0.0
H259 H 0.544 0.14815 0.53538 0.0
H260 H 0.51971 0.14135 0.55126 0.0
H261 H 0.52436 0.05609 0.62654 0.0
H262 H 0.63864 0.10067 0.59775 0.0
H263 H 0.64893 0.10904 0.57402 0.0
H264 H 0.56374 0.08839 0.53541 0.0
H265 H 0.44957 0.04585 0.56438 0.0
H266 H 0.4392 0.03656 0.58811 0.0
H267 H 0.82954 0.21005 0.53747 0.0
H268 H 0.83799 0.17461 0.5468 0.0
H269 H 0.80661 0.19294 0.55361 0.0
C270 C 0.66267 0.63383 0.82916 0.0
C271 C 0.67021 0.67227 0.8366 0.0
C272 C 0.65534 0.65432 0.85979 0.0
C273 C 0.62885 0.66795 0.86333 0.0
C274 C 0.59848 0.64719 0.87277 0.0
C275 C 0.59438 0.61182 0.87862 0.0
C276 C 0.62235 0.5991 0.87546 0.0
C277 C 0.65301 0.62104 0.86622 0.0
C278 C 0.5698 0.66212 0.87608 0.0
C279 C 0.61862 0.56121 0.8813 0.0
C280 C 0.37338 0.47116 0.82676 0.0
C281 C 0.36953 0.43699 0.83559 0.0
C282 C 0.38885 0.46185 0.85845 0.0
C283 C 0.41666 0.44952 0.8617 0.0
C284 C 0.44775 0.47129 0.8712 0.0
C285 C 0.451 0.5061 0.8775 0.0
C286 C 0.42171 0.51738 0.87472 0.0
C287 C 0.39056 0.49466 0.86531 0.0
C288 C 0.47787 0.45783 0.87419 0.0
C289 C 0.42429 0.55428 0.88128 0.0
C290 C 0.38946 0.42018 0.9619 0.0
C291 C 0.41938 0.41425 0.95596 0.0
C292 C 0.45306 0.44617 0.94986 0.0
C293 C 0.45713 0.48494 0.94966 0.0
C294 C 0.42764 0.49134 0.95585 0.0
C295 C 0.39417 0.45882 0.96189 0.0
C296 C 0.48401 0.43827 0.94338 0.0
C297 C 0.43115 0.53234 0.95582 0.0
C298 C 0.77702 0.71431 0.95757 0.0
C299 C 0.74058 0.70865 0.96556 0.0
C300 C 0.67697 0.64459 0.96312 0.0
C301 C 0.6642 0.60482 0.9592 0.0
C302 C 0.6261 0.58035 0.95308 0.0
C303 C 0.59991 0.59599 0.95112 0.0
C304 C 0.61161 0.63535 0.9559 0.0
C305 C 0.65009 0.6593 0.96188 0.0
C306 C 0.61432 0.53825 0.94833 0.0
C307 C 0.58391 0.65245 0.95433 0.0
C308 C 0.55803 0.58545 0.8866 0.0
C309 C 0.52215 0.56031 0.87947 0.0
C310 C 0.48704 0.53261 0.88601 0.0
C311 C 0.48743 0.5296 0.90013 0.0
C312 C 0.45289 0.50135 0.90699 0.0
C313 C 0.45393 0.49789 0.92086 0.0
C314 C 0.48958 0.52255 0.9284 0.0
C315 C 0.49138 0.51813 0.94244 0.0
C316 C 0.52727 0.54322 0.94964 0.0
C317 C 0.56185 0.57234 0.94314 0.0
C318 C 0.56076 0.57691 0.92908 0.0
C319 C 0.59521 0.60546 0.92218 0.0
C320 C 0.59425 0.60877 0.9083 0.0
C321 C 0.55891 0.5835 0.90076 0.0
C322 C 0.52353 0.55519 0.90753 0.0
C323 C 0.52451 0.55181 0.9217 0.0
C324 C 0.32708 0.32779 0.95464 0.0
C325 C 0.34463 0.34932 0.96822 0.0
O326 O 0.68211 0.67186 0.84976 0.0
O327 O 0.71536 0.66789 0.96799 0.0
O328 O 0.35562 0.38973 0.96757 0.0
O329 O 0.3606 0.44294 0.84858 0.0
H330 H 0.64122 0.6726 0.83637 0.0
H331 H 0.63777 0.60685 0.834 0.0
H332 H 0.69031 0.6312 0.8294 0.0
H333 H 0.65365 0.63408 0.81854 0.0
H334 H 0.63149 0.69434 0.85849 0.0
H335 H 0.67393 0.61106 0.86343 0.0
H336 H 0.53986 0.64176 0.87124 0.0
H337 H 0.58096 0.69329 0.8725 0.0
H338 H 0.56528 0.66157 0.8871 0.0
H339 H 0.64157 0.55438 0.87729 0.0
H340 H 0.58797 0.53505 0.87906 0.0
H341 H 0.6224 0.5646 0.89239 0.0
H342 H 0.39904 0.43778 0.83534 0.0
H343 H 0.38052 0.4669 0.81628 0.0
H344 H 0.39828 0.50063 0.83069 0.0
H345 H 0.3448 0.4721 0.8267 0.0
H346 H 0.41428 0.42316 0.85668 0.0
H347 H 0.36846 0.50346 0.86283 0.0
H348 H 0.48163 0.45657 0.88522 0.0
H349 H 0.50783 0.48016 0.87016 0.0
H350 H 0.46852 0.42771 0.86965 0.0
H351 H 0.39878 0.55864 0.87819 0.0
H352 H 0.45323 0.58156 0.8786 0.0
H353 H 0.42423 0.55162 0.89237 0.0
H354 H 0.37167 0.34684 0.97077 0.0
H355 H 0.41668 0.3848 0.95587 0.0
H356 H 0.37116 0.46331 0.96651 0.0
H357 H 0.48424 0.44306 0.93239 0.0
H358 H 0.47776 0.40703 0.94504 0.0
H359 H 0.51472 0.45991 0.94744 0.0
H360 H 0.40596 0.53257 0.96122 0.0
H361 H 0.43122 0.54175 0.94531 0.0
H362 H 0.46033 0.55505 0.96063 0.0
H363 H 0.72509 0.72056 0.95915 0.0
H364 H 0.79808 0.74691 0.95575 0.0
H365 H 0.76653 0.69836 0.94769 0.0
H366 H 0.79363 0.70175 0.963 0.0
H367 H 0.6849 0.59352 0.96048 0.0
H368 H 0.65917 0.68948 0.96551 0.0
H369 H 0.60756 0.535 0.93736 0.0
H370 H 0.58637 0.51592 0.95345 0.0
H371 H 0.63847 0.53089 0.95036 0.0
H372 H 0.59578 0.68194 0.9597 0.0
H373 H 0.55343 0.63086 0.95818 0.0
H374 H 0.58028 0.65676 0.9435 0.0
H375 H 0.52173 0.56179 0.86859 0.0
H376 H 0.42474 0.48138 0.90169 0.0
H377 H 0.42646 0.47545 0.9256 0.0
H378 H 0.52866 0.53922 0.96036 0.0
H379 H 0.62346 0.62541 0.92742 0.0
H380 H 0.62166 0.63114 0.90351 0.0
H381 H 0.30117 0.3313 0.95139 0.0
H382 H 0.31664 0.29507 0.95538 0.0
H383 H 0.35037 0.34056 0.94676 0.0
H384 H 0.10019 0.16959 0.10483 0.0
H385 H 0.11317 0.22514 0.1202 0.0
H386 H 0.98464 0.17219 0.12607 0.0
H387 H 0.9715 0.11758 0.11015 0.0
H388 H 0.01865 0.25094 0.12696 0.0
H389 H 0.04604 0.15493 0.14792 0.0
H390 H 0.07752 0.11275 0.1503 0.0
H391 H 0.19556 0.21921 0.15159 0.0
H392 H 0.16477 0.262 0.14904 0.0
H393 H 0.02759 0.3225 0.19475 0.0
H394 H 0.01598 0.2827 0.17403 0.0
H395 H 0.14287 0.35426 0.16493 0.0
H396 H 0.15451 0.39465 0.1855 0.0
H397 H 0.11168 0.26978 0.16501 0.0
H398 H 0.07973 0.36548 0.14624 0.0
H399 H 0.04444 0.40432 0.14508 0.0
H400 H 0.92999 0.29402 0.14135 0.0
H401 H 0.96455 0.25446 0.1427 0.0
C402 C 0.07471 0.1702 0.10924 0.0
C403 C 0.03489 0.1391 0.10648 0.0
C404 C 0.08214 0.20184 0.11806 0.0
C405 C 0.04993 0.20223 0.1246 0.0
C406 C 0.00998 0.17241 0.12122 0.0
C407 C 0.0025 0.14118 0.11216 0.0
C408 C 0.05803 0.23187 0.13564 0.0
C409 C 0.03874 0.25483 0.13533 0.0
C410 C 0.08453 0.23726 0.14653 0.0
C411 C 0.10313 0.21162 0.14815 0.0
C412 C 0.07872 0.16932 0.14863 0.0
C413 C 0.09644 0.14531 0.15001 0.0
C414 C 0.13852 0.16328 0.15106 0.0
C415 C 0.16297 0.20532 0.15076 0.0
C416 C 0.14541 0.22947 0.14935 0.0
C417 C 0.05286 0.33005 0.18822 0.0
C418 C 0.09203 0.36134 0.19178 0.0
C419 C 0.04618 0.30744 0.17639 0.0
C420 C 0.07858 0.31564 0.16798 0.0
C421 C 0.11751 0.34753 0.17132 0.0
C422 C 0.12412 0.37045 0.18305 0.0
C423 C 0.07246 0.28885 0.1563 0.0
C424 C 0.09195 0.26619 0.15656 0.0
C425 C 0.04557 0.28325 0.14556 0.0
C426 C 0.02473 0.30699 0.1447 0.0
C427 C 0.04701 0.34947 0.1453 0.0
C428 C 0.02714 0.37163 0.14458 0.0
C429 C 0.98499 0.35165 0.14318 0.0
C430 C 0.96263 0.30946 0.14245 0.0
C431 C 0.98236 0.28715 0.14318 0.0
H432 H 0.96966 0.36885 0.14262 0.0
H433 H 0.15218 0.14465 0.15213 0.0
H434 H 0.94943 0.10069 0.4317 0.0
H435 H 0.91395 0.12074 0.44759 0.0
H436 H 0.88287 0.01521 0.47107 0.0
H437 H 0.91632 0.99411 0.45489 0.0
H438 H 0.82138 0.02417 0.47007 0.0
H439 H 0.96378 0.1161 0.4795 0.0
H440 H 0.03365 0.16767 0.47385 0.0
H441 H 0.99248 0.24831 0.46172 0.0
H442 H 0.92229 0.19702 0.46716 0.0
H443 H 0.78738 0.08253 0.53418 0.0
H444 H 0.8128 0.06358 0.51462 0.0
H445 H 0.82232 0.16507 0.49311 0.0
H446 H 0.79723 0.18438 0.51276 0.0
H447 H 0.89069 0.16086 0.49134 0.0
H448 H 0.74838 0.06929 0.48478 0.0
H449 H 0.67977 0.01716 0.49138 0.0
H450 H 0.72238 0.93481 0.49921 0.0
H451 H 0.79138 0.98664 0.49284 0.0
C452 C 0.93496 0.08182 0.44026 0.0
C453 C 0.93569 0.04588 0.44207 0.0
C454 C 0.91484 0.09338 0.44937 0.0
C455 C 0.89618 0.06985 0.46069 0.0
C456 C 0.89684 0.03386 0.46243 0.0
C457 C 0.9161 0.02186 0.45318 0.0
C458 C 0.8761 0.08242 0.47082 0.0
C459 C 0.83675 0.05397 0.4748 0.0
C460 C 0.89555 0.12164 0.47676 0.0
C461 C 0.93777 0.1526 0.47361 0.0
C462 C 0.96962 0.14475 0.47556 0.0
C463 C 0.00927 0.17394 0.4724 0.0
C464 C 0.01748 0.2112 0.46739 0.0
C465 C 0.98607 0.21941 0.46558 0.0
C466 C 0.94636 0.19032 0.46871 0.0
C467 C 0.79425 0.10037 0.5252 0.0
C468 C 0.78974 0.13454 0.52491 0.0
C469 C 0.80872 0.08952 0.51402 0.0
C470 C 0.819 0.11263 0.50234 0.0
C471 C 0.81436 0.14669 0.50199 0.0
C472 C 0.79983 0.15754 0.51317 0.0
C473 C 0.8365 0.1023 0.49077 0.0
C474 C 0.87526 0.1312 0.48651 0.0
C475 C 0.81672 0.06334 0.48469 0.0
C476 C 0.77513 0.03198 0.48841 0.0
C477 C 0.74318 0.04016 0.48799 0.0
C478 C 0.70421 0.01065 0.49168 0.0
C479 C 0.69674 0.97273 0.49573 0.0
C480 C 0.72821 0.9642 0.49607 0.0
C481 C 0.76725 0.99362 0.4924 0.0
H482 H 0.66655 0.94993 0.49859 0.0
H483 H 0.04819 0.23374 0.46495 0.0
H484 H 0.86745 0.97034 0.75893 0.0
H485 H 0.82382 0.91517 0.77361 0.0
H486 H 0.92355 0.89704 0.78354 0.0
H487 H 0.96718 0.95152 0.76849 0.0
H488 H 0.85703 0.8268 0.78057 0.0
H489 H 0.893 0.94809 0.80526 0.0
H490 H 0.90159 0.01561 0.80928 0.0
H491 H 0.77348 0.96644 0.8041 0.0
H492 H 0.76417 0.8987 0.79987 0.0
H493 H 0.75276 0.70291 0.83637 0.0
H494 H 0.80354 0.75975 0.82339 0.0
H495 H 0.7101 0.78026 0.80759 0.0
H496 H 0.65948 0.7238 0.82055 0.0
H497 H 0.77835 0.85081 0.81508 0.0
H498 H 0.74445 0.72962 0.78926 0.0
H499 H 0.73729 0.66247 0.78585 0.0
H500 H 0.86427 0.71265 0.79421 0.0
H501 H 0.87206 0.78004 0.79785 0.0
C502 C 0.88012 0.95455 0.76419 0.0
C503 C 0.92091 0.96558 0.76262 0.0
C504 C 0.85517 0.92312 0.77265 0.0
C505 C 0.87063 0.90255 0.77994 0.0
C506 C 0.911 0.91263 0.77808 0.0
C507 C 0.9359 0.94379 0.76948 0.0
C508 C 0.84461 0.87076 0.78955 0.0
C509 C 0.84036 0.83228 0.78826 0.0
C510 C 0.82251 0.8777 0.79952 0.0
C511 C 0.82795 0.91837 0.80214 0.0
C512 C 0.86669 0.95172 0.80489 0.0
C513 C 0.87168 0.99003 0.80722 0.0
C514 C 0.83811 0.99532 0.80692 0.0
C515 C 0.79946 0.9623 0.80432 0.0
C516 C 0.7943 0.92393 0.80197 0.0
C517 C 0.74327 0.71995 0.83025 0.0
C518 C 0.70228 0.70926 0.82957 0.0
C519 C 0.77218 0.75218 0.82279 0.0
C520 C 0.7605 0.77402 0.81446 0.0
C521 C 0.71976 0.76388 0.81398 0.0
C522 C 0.69089 0.73167 0.82139 0.0
C523 C 0.79033 0.80686 0.80593 0.0
C524 C 0.79533 0.84554 0.80746 0.0
C525 C 0.81337 0.80019 0.79628 0.0
C526 C 0.80875 0.75977 0.79396 0.0
C527 C 0.77078 0.72627 0.79047 0.0
C528 C 0.76662 0.68818 0.78848 0.0
C529 C 0.80028 0.68327 0.78985 0.0
C530 C 0.83821 0.71648 0.79317 0.0
C531 C 0.84252 0.75463 0.79519 0.0
H532 H 0.797 0.65376 0.78831 0.0
H533 H 0.84204 0.02501 0.80872 0.0
H534 H 0.04546 0.94717 0.08658 0.0
H535 H 0.04926 0.89365 0.09887 0.0
H536 H 0.01752 0.93166 0.13542 0.0
H537 H 0.01265 0.98404 0.12325 0.0
H538 H 0.08554 0.91605 0.13744 0.0
H539 H 0.94612 0.85772 0.12026 0.0
H540 H 0.89611 0.83908 0.10177 0.0
H541 H 0.93891 0.76596 0.08341 0.0
H542 H 0.98964 0.78473 0.10171 0.0
H543 H 0.00675 0.76761 0.1862 0.0
H544 H 0.02207 0.81957 0.1696 0.0
H545 H 0.01284 0.73723 0.13799 0.0
H546 H 0.99553 0.68444 0.15457 0.0
H547 H 0.97602 0.77378 0.13013 0.0
H548 H 0.10678 0.82074 0.14869 0.0
H549 H 0.15945 0.83958 0.16626 0.0
H550 H 0.13902 0.93376 0.18062 0.0
H551 H 0.08579 0.91513 0.16327 0.0
C552 C 0.03963 0.94418 0.09726 0.0
C553 C 0.02854 0.96952 0.10397 0.0
C554 C 0.04178 0.9137 0.10423 0.0
C555 C 0.0337 0.90887 0.11803 0.0
C556 C 0.024 0.93505 0.12479 0.0
C557 C 0.021 0.96478 0.1178 0.0
C558 C 0.03311 0.87541 0.12551 0.0
C559 C 0.0617 0.88488 0.13588 0.0
C560 C 0.00283 0.83472 0.12311 0.0
C561 C 0.97198 0.82303 0.11224 0.0
C562 C 0.9451 0.83796 0.11221 0.0
C563 C 0.91658 0.82732 0.10178 0.0
C564 C 0.91443 0.80147 0.09139 0.0
C565 C 0.94068 0.78607 0.09145 0.0
C566 C 0.9693 0.79668 0.10184 0.0
C567 C 0.00862 0.76083 0.17573 0.0
C568 C 0.00102 0.72232 0.17175 0.0
C569 C 0.01758 0.7906 0.16624 0.0
C570 C 0.01972 0.78279 0.15253 0.0
C571 C 0.01186 0.7442 0.1485 0.0
C572 C 0.00229 0.71414 0.158 0.0
C573 C 0.02786 0.81436 0.14247 0.0
C574 C 0.00062 0.80465 0.13158 0.0
C575 C 0.05992 0.85481 0.14427 0.0
C576 C 0.0921 0.86636 0.1547 0.0
C577 C 0.11333 0.84531 0.15565 0.0
C578 C 0.14332 0.85598 0.16556 0.0
C579 C 0.15254 0.88781 0.17456 0.0
C580 C 0.13185 0.90911 0.17364 0.0
C581 C 0.1018 0.89855 0.16375 0.0
H582 H 0.17576 0.89601 0.18223 0.0
H583 H 0.89235 0.79328 0.08332 0.0
H584 H 0.05328 0.97604 0.45274 0.0
H585 H 0.11059 0.98608 0.46671 0.0
H586 H 0.19223 0.08483 0.44193 0.0
H587 H 0.13462 0.07563 0.428 0.0
H588 H 0.21203 0.02046 0.44699 0.0
H589 H 0.18335 0.11257 0.46987 0.0
H590 H 0.14076 0.13567 0.48074 0.0
H591 H 0.1064 0.04453 0.5106 0.0
H592 H 0.1483 0.02041 0.49977 0.0
H593 H 0.37974 0.06555 0.48934 0.0
H594 H 0.33056 0.07698 0.47717 0.0
H595 H 0.23389 0.9844 0.50015 0.0
H596 H 0.28295 0.97248 0.51227 0.0
H597 H 0.22667 0.0547 0.49573 0.0
H598 H 0.24797 0.95779 0.4714 0.0
H599 H 0.29002 0.93361 0.46077 0.0
H600 H 0.33717 0.03305 0.43366 0.0
H601 H 0.29583 0.05821 0.4443 0.0
C602 C 0.0834 2e-05 0.45027 0.0
C603 C 0.08953 0.02497 0.43924 0.0
C604 C 0.11603 0.00584 0.45831 0.0
C605 C 0.15548 0.03627 0.45537 0.0
C606 C 0.16188 0.06128 0.44437 0.0
C607 C 0.12903 0.05604 0.43646 0.0
C608 C 0.18989 0.0402 0.46349 0.0
C609 C 0.21586 0.02886 0.45757 0.0
C610 C 0.19405 0.05016 0.47736 0.0
C611 C 0.16866 0.0644 0.48391 0.0
C612 C 0.16637 0.09715 0.47866 0.0
C613 C 0.14243 0.1105 0.48484 0.0
C614 C 0.1208 0.09151 0.49633 0.0
C615 C 0.12314 0.05917 0.50168 0.0
C616 C 0.14701 0.04567 0.49554 0.0
C617 C 0.34805 0.048 0.4919 0.0
C618 C 0.33512 0.01803 0.50172 0.0
C619 C 0.32006 0.05459 0.48497 0.0
C620 C 0.27866 0.03141 0.48774 0.0
C621 C 0.26578 0.0027 0.49793 0.0
C622 C 0.29376 0.99581 0.50479 0.0
C623 C 0.24853 0.03467 0.47922 0.0
C624 C 0.22325 0.04703 0.48509 0.0
C625 C 0.24481 0.02549 0.4653 0.0
C626 C 0.26918 0.01012 0.45874 0.0
C627 C 0.26755 0.97467 0.46324 0.0
C628 C 0.29121 0.96077 0.45721 0.0
C629 C 0.31634 0.98184 0.44657 0.0
C630 C 0.31774 0.0168 0.44192 0.0
C631 C 0.29419 0.03089 0.44794 0.0
H632 H 0.33465 0.97104 0.44191 0.0
H633 H 0.1023 0.10191 0.5011 0.0
H634 H 0.13583 0.12525 0.76082 0.0
H635 H 0.1892 0.17593 0.7757 0.0
H636 H 0.10249 0.20219 0.79362 0.0
H637 H 0.04964 0.15271 0.77865 0.0
H638 H 0.16619 0.26898 0.78659 0.0
H639 H 0.14313 0.1512 0.81052 0.0
H640 H 0.13711 0.0845 0.81322 0.0
H641 H 0.26059 0.13341 0.80132 0.0
H642 H 0.26719 0.20031 0.79838 0.0
H643 H 0.28698 0.40066 0.83867 0.0
H644 H 0.23393 0.33904 0.82753 0.0
H645 H 0.32504 0.32256 0.80806 0.0
H646 H 0.37823 0.38377 0.8194 0.0
H647 H 0.26058 0.25018 0.81604 0.0
H648 H 0.28245 0.3675 0.79179 0.0
H649 H 0.28826 0.4342 0.78941 0.0
H650 H 0.16547 0.38507 0.80212 0.0
H651 H 0.15914 0.31818 0.80478 0.0
C652 C 0.12814 0.1415 0.76806 0.0
C653 C 0.08866 0.13532 0.76846 0.0
C654 C 0.1586 0.17034 0.77658 0.0
C655 C 0.14982 0.19285 0.78579 0.0
C656 C 0.11005 0.18543 0.78654 0.0
C657 C 0.07986 0.15712 0.77795 0.0
C658 C 0.18228 0.22618 0.79401 0.0
C659 C 0.18638 0.26462 0.79318 0.0
C660 C 0.2094 0.22084 0.80232 0.0
C661 C 0.20552 0.18067 0.8041 0.0
C662 C 0.1689 0.14766 0.80838 0.0
C663 C 0.1654 0.10983 0.80997 0.0
C664 C 0.19841 0.10469 0.80741 0.0
C665 C 0.23503 0.13741 0.80328 0.0
C666 C 0.23867 0.1753 0.80167 0.0
C667 C 0.29564 0.38338 0.83225 0.0
C668 C 0.3367 0.39669 0.83001 0.0
C669 C 0.26538 0.34835 0.82584 0.0
C670 C 0.27562 0.32648 0.81688 0.0
C671 C 0.31653 0.33892 0.81498 0.0
C672 C 0.34683 0.37387 0.82142 0.0
C673 C 0.2438 0.29252 0.80875 0.0
C674 C 0.2401 0.25424 0.80949 0.0
C675 C 0.21685 0.29784 0.80036 0.0
C676 C 0.22046 0.33794 0.7986 0.0
C677 C 0.25678 0.37099 0.79416 0.0
C678 C 0.26015 0.40882 0.79275 0.0
C679 C 0.22728 0.41389 0.79564 0.0
C680 C 0.19092 0.38111 0.7999 0.0
C681 C 0.18742 0.34323 0.80136 0.0
H682 H 0.22995 0.44321 0.79455 0.0
H683 H 0.19564 0.07538 0.80864 0.0
H684 H 0.90752 0.9734 0.71594 0.0
H685 H 0.85369 0.97636 0.70323 0.0
H686 H 0.93645 0.10225 0.69515 0.0
H687 H 0.98887 0.09977 0.70852 0.0
H688 H 0.87247 0.09615 0.70395 0.0
H689 H 0.89828 0.02056 0.67041 0.0
H690 H 0.90534 0.96395 0.66172 0.0
H691 H 0.78194 0.88019 0.67171 0.0
H692 H 0.7743 0.93626 0.68061 0.0
H693 H 0.75478 0.13597 0.66009 0.0
H694 H 0.80688 0.11997 0.66659 0.0
H695 H 0.71467 0.00385 0.68066 0.0
H696 H 0.66227 0.01945 0.67394 0.0
H697 H 0.78033 0.00153 0.66853 0.0
H698 H 0.75647 0.07864 0.70223 0.0
H699 H 0.74986 0.13618 0.71019 0.0
H700 H 0.87259 0.21862 0.69912 0.0
H701 H 0.87968 0.16158 0.69087 0.0
C702 C 0.91411 0.00137 0.71122 0.0
C703 C 0.952 0.03641 0.71318 0.0
C704 C 0.88351 0.00307 0.70392 0.0
C705 C 0.89096 0.03955 0.69816 0.0
C706 C 0.92973 0.07386 0.69958 0.0
C707 C 0.95972 0.07244 0.70717 0.0
C708 C 0.85796 0.04357 0.69171 0.0
C709 C 0.85292 0.07576 0.69604 0.0
C710 C 0.83133 0.01627 0.6817 0.0
C711 C 0.83585 0.98257 0.6763 0.0
C712 C 0.87274 0.99004 0.67084 0.0
C713 C 0.87683 0.95805 0.66586 0.0
C714 C 0.84414 0.91849 0.66619 0.0
C715 C 0.80725 0.91084 0.67147 0.0
C716 C 0.80301 0.94272 0.67647 0.0
C717 C 0.74556 0.10658 0.6642 0.0
C718 C 0.70447 0.07878 0.66642 0.0
C719 C 0.77531 0.09752 0.66795 0.0
C720 C 0.76457 0.06088 0.6742 0.0
C721 C 0.72351 0.03219 0.67579 0.0
C722 C 0.69369 0.04118 0.67199 0.0
C723 C 0.79618 0.0547 0.68052 0.0
C724 C 0.80043 0.02197 0.67634 0.0
C725 C 0.82247 0.08164 0.69061 0.0
C726 C 0.81848 0.11587 0.69583 0.0
C727 C 0.78196 0.10906 0.70142 0.0
C728 C 0.77813 0.14158 0.70599 0.0
C729 C 0.81076 0.18104 0.70514 0.0
C730 C 0.84733 0.18805 0.69976 0.0
C731 C 0.85127 0.15564 0.69514 0.0
H732 H 0.80774 0.20618 0.70867 0.0
H733 H 0.84737 0.89377 0.66233 0.0
H734 H 0.93699 0.93107 0.06943 0.0
H735 H 0.89702 0.87294 0.05447 0.0
H736 H 0.83468 0.93134 0.03847 0.0
H737 H 0.87364 0.98904 0.05362 0.0
H738 H 0.78363 0.85261 0.04024 0.0
H739 H 0.9175 0.93692 0.02277 0.0
H740 H 0.99219 0.9733 0.02354 0.0
H741 H 0.99013 0.86159 0.02978 0.0
H742 H 0.91537 0.8246 0.02921 0.0
H743 H 0.73458 0.77433 0.97331 0.0
H744 H 0.7611 0.81555 0.99388 0.0
H745 H 0.80445 0.73775 0.00786 0.0
H746 H 0.77749 0.69607 0.98733 0.0
H747 H 0.86305 0.81932 0.00884 0.0
H748 H 0.72713 0.73445 0.0231 0.0
H749 H 0.65268 0.70009 0.02123 0.0
H750 H 0.65861 0.8149 0.01987 0.0
H751 H 0.73317 0.84998 0.02153 0.0
C752 C 0.9144 0.93136 0.06285 0.0
C753 C 0.9089 0.96499 0.06261 0.0
C754 C 0.89164 0.89812 0.05428 0.0
C755 C 0.86345 0.89816 0.04514 0.0
C756 C 0.85635 0.93069 0.0454 0.0
C757 C 0.87877 0.96374 0.05406 0.0
C758 C 0.84337 0.86583 0.0347 0.0
C759 C 0.80098 0.84546 0.03333 0.0
C760 C 0.86596 0.85594 0.02583 0.0
C761 C 0.91088 0.87808 0.02611 0.0
C762 C 0.93299 0.92017 0.0244 0.0
C763 C 0.97532 0.94089 0.02479 0.0
C764 C 0.99589 0.91979 0.02675 0.0
C765 C 0.97416 0.8779 0.02829 0.0
C766 C 0.93181 0.85704 0.02793 0.0
C767 C 0.74931 0.76575 0.98085 0.0
C768 C 0.75417 0.73215 0.97872 0.0
C769 C 0.76431 0.78921 0.9926 0.0
C770 C 0.78455 0.77955 0.0024 0.0
C771 C 0.78887 0.74563 0.00041 0.0
C772 C 0.77351 0.72192 0.98872 0.0
C773 C 0.8034 0.80648 0.01429 0.0
C774 C 0.84562 0.82597 0.01589 0.0
C775 C 0.78067 0.81582 0.02324 0.0
C776 C 0.7358 0.79485 0.02233 0.0
C777 C 0.71259 0.75238 0.02229 0.0
C778 C 0.67036 0.73277 0.02129 0.0
C779 C 0.65093 0.75529 0.02041 0.0
C780 C 0.6737 0.79749 0.02055 0.0
C781 C 0.71595 0.81726 0.02154 0.0
H782 H 0.61823 0.74005 0.01963 0.0
H783 H 0.02867 0.93588 0.02704 0.0
H784 H 0.96396 0.92861 0.39885 0.0
H785 H 0.95853 0.87482 0.3839 0.0
H786 H 0.06178 0.96256 0.36195 0.0
H787 H 0.06753 0.01638 0.37687 0.0
H788 H 0.9961 0.91317 0.34556 0.0
H789 H 0.07241 0.89956 0.38139 0.0
H790 H 0.08777 0.89129 0.40484 0.0
H791 H 0.9771 0.77705 0.40627 0.0
H792 H 0.96074 0.78491 0.38287 0.0
H793 H 0.01642 0.77608 0.30326 0.0
H794 H 0.03111 0.82854 0.32021 0.0
H795 H 0.93382 0.74118 0.34438 0.0
H796 H 0.91973 0.68828 0.32758 0.0
H797 H 0.99873 0.79089 0.3599 0.0
H798 H 0.9208 0.80562 0.32462 0.0
H799 H 0.9046 0.81366 0.30124 0.0
H800 H 0.01719 0.92585 0.29899 0.0
H801 H 0.03433 0.91816 0.32232 0.0
C802 C 0.9857 0.93635 0.39091 0.0
C803 C 0.01606 0.97669 0.38898 0.0
C804 C 0.98267 0.9056 0.38242 0.0
C805 C 0.00983 0.91475 0.37185 0.0
C806 C 0.04053 0.95491 0.37005 0.0
C807 C 0.04381 0.98558 0.3786 0.0
C808 C 0.00486 0.8828 0.36221 0.0
C809 C 0.99731 0.88672 0.34866 0.0
C810 C 0.00541 0.84788 0.36634 0.0
C811 C 0.01514 0.84304 0.38041 0.0
C812 C 0.05114 0.87285 0.38674 0.0
C813 C 0.06007 0.8682 0.40002 0.0
C814 C 0.03337 0.83372 0.40705 0.0
C815 C 0.99772 0.80377 0.40081 0.0
C816 C 0.98862 0.80829 0.38754 0.0
C817 C 0.99861 0.76794 0.31229 0.0
C818 C 0.96734 0.72793 0.31421 0.0
C819 C 0.00683 0.79797 0.32192 0.0
C820 C 0.98333 0.78884 0.33351 0.0
C821 C 0.95244 0.74885 0.33554 0.0
C822 C 0.94436 0.71872 0.32594 0.0
C823 C 0.98997 0.82128 0.34325 0.0
C824 C 0.9977 0.81742 0.35681 0.0
C825 C 0.9894 0.85626 0.33916 0.0
C826 C 0.97902 0.86111 0.32517 0.0
C827 C 0.94223 0.83186 0.31911 0.0
C828 C 0.93286 0.83637 0.30587 0.0
C829 C 0.95989 0.87019 0.29863 0.0
C830 C 0.9963 0.89963 0.30462 0.0
C831 C 0.00585 0.89523 0.31784 0.0
H832 H 0.95258 0.87364 0.28838 0.0
H833 H 0.04035 0.83017 0.41733 0.0
H834 H 0.10774 0.98543 0.73683 0.0
H835 H 0.16015 0.97733 0.72569 0.0
H836 H 0.18326 0.07476 0.69917 0.0
H837 H 0.13186 0.08359 0.71042 0.0
H838 H 0.16206 0.95556 0.70086 0.0
H839 H 0.27949 0.12296 0.68893 0.0
H840 H 0.30672 0.19063 0.69935 0.0
H841 H 0.27562 0.13792 0.73839 0.0
H842 H 0.24874 0.07 0.72823 0.0
H843 H 0.27892 0.96415 0.64566 0.0
H844 H 0.23773 0.97761 0.66122 0.0
H845 H 0.33315 0.01999 0.69127 0.0
H846 H 0.37463 0.00699 0.67566 0.0
H847 H 0.30003 0.06766 0.69079 0.0
H848 H 0.25331 0.927 0.69336 0.0
H849 H 0.22867 0.85789 0.68462 0.0
H850 H 0.12304 0.8544 0.66787 0.0
H851 H 0.14737 0.92378 0.67634 0.0
C852 C 0.12444 0.00548 0.72875 0.0
C853 C 0.11568 0.03515 0.72451 0.0
C854 C 0.15427 0.00074 0.72237 0.0
C855 C 0.17591 0.02564 0.71166 0.0
C856 C 0.16758 0.05568 0.70757 0.0
C857 C 0.13798 0.06056 0.71398 0.0
C858 C 0.2054 0.01876 0.70417 0.0
C859 C 0.19229 0.98006 0.69873 0.0
C860 C 0.24517 0.05051 0.70157 0.0
C861 C 0.2618 0.09134 0.70779 0.0
C862 C 0.27865 0.12582 0.69975 0.0
C863 C 0.29398 0.16422 0.7056 0.0
C864 C 0.2928 0.16856 0.71952 0.0
C865 C 0.27639 0.13451 0.72761 0.0
C866 C 0.26105 0.09604 0.7218 0.0
C867 C 0.29128 0.97689 0.65551 0.0
C868 C 0.33015 0.98499 0.6594 0.0
C869 C 0.26768 0.9843 0.66443 0.0
C870 C 0.28224 -0.00056 0.67745 0.0
C871 C 0.32136 0.00838 0.68126 0.0
C872 C 0.345 0.00096 0.67235 0.0
C873 C 0.25612 0.00484 0.68719 0.0
C874 C 0.26988 0.04319 0.69302 0.0
C875 C 0.21728 0.97258 0.69041 0.0
C876 C 0.20233 0.93072 0.68539 0.0
C877 C 0.22496 0.9116 0.68773 0.0
C878 C 0.21104 0.87237 0.68283 0.0
C879 C 0.17435 0.85179 0.67567 0.0
C880 C 0.15147 0.87039 0.67341 0.0
C881 C 0.16529 0.90966 0.67827 0.0
H882 H 0.16362 0.82141 0.67189 0.0
H883 H 0.30465 0.19832 0.72403 0.0
H884 H 0.11527 0.123 0.06161 0.0
H885 H 0.16679 0.16561 0.04545 0.0
H886 H 0.08335 0.19669 0.02743 0.0
H887 H 0.03189 0.15467 0.04362 0.0
H888 H 0.12597 0.17675 0.00858 0.0
H889 H 0.151 0.26289 0.04682 0.0
H890 H 0.16295 0.2827 0.07079 0.0
H891 H 0.27206 0.27666 0.07061 0.0
H892 H 0.26037 0.25609 0.04666 0.0
H893 H 0.27058 0.34445 0.97102 0.0
H894 H 0.21819 0.30577 0.98749 0.0
H895 H 0.29704 0.27046 0.00657 0.0
H896 H 0.34907 0.3082 0.98999 0.0
H897 H 0.25563 0.29419 0.02484 0.0
H898 H 0.22885 0.20637 0.98643 0.0
H899 H 0.21626 0.18713 0.96242 0.0
H900 H 0.10949 0.19732 0.96291 0.0
H901 H 0.12187 0.21736 0.9869 0.0
C902 C 0.1078 0.13868 0.05415 0.0
C903 C 0.06958 0.13561 0.05393 0.0
C904 C 0.13729 0.16311 0.04497 0.0
C905 C 0.12888 0.18446 0.03533 0.0
C906 C 0.0904 0.1805 0.03482 0.0
C907 C 0.06113 0.15661 0.04411 0.0
C908 C 0.16052 0.21154 0.02592 0.0
C909 C 0.1541 0.20274 0.01211 0.0
C910 C 0.19736 0.24511 0.03058 0.0
C911 C 0.20454 0.25746 0.04498 0.0
C912 C 0.17732 0.26535 0.05192 0.0
C913 C 0.18408 0.27681 0.0655 0.0
C914 C 0.21817 0.28081 0.07223 0.0
C915 C 0.24562 0.27346 0.06538 0.0
C916 C 0.23894 0.26191 0.0518 0.0
C917 C 0.27675 0.32857 0.97877 0.0
C918 C 0.31377 0.32901 0.97913 0.0
C919 C 0.24687 0.30655 0.98815 0.0
C920 C 0.25371 0.28504 0.99816 0.0
C921 C 0.29123 0.28686 0.99891 0.0
C922 C 0.32086 0.30837 0.98943 0.0
C923 C 0.2212 0.25922 0.00751 0.0
C924 C 0.22745 0.26827 0.02132 0.0
C925 C 0.18412 0.22597 0.00284 0.0
C926 C 0.17658 0.21388 0.98842 0.0
C927 C 0.20292 0.20494 0.98139 0.0
C928 C 0.19579 0.19381 0.96779 0.0
C929 C 0.16217 0.19113 0.96113 0.0
C930 C 0.13557 0.1995 0.96807 0.0
C931 C 0.14263 0.21075 0.98167 0.0
H932 H 0.15667 0.18247 0.9506 0.0
H933 H 0.22338 0.28972 0.08274 0.0
H934 H 0.09754 0.17679 0.39241 0.0
H935 H 0.10498 0.23358 0.37923 0.0
H936 H 0.97781 0.19209 0.38418 0.0
H937 H 0.96993 0.13342 0.39631 0.0
H938 H 0.9933 0.21301 0.36061 0.0
H939 H 0.06409 0.28021 0.40181 0.0
H940 H 0.11503 0.29899 0.42001 0.0
H941 H 0.21045 0.35076 0.3913 0.0
H942 H 0.16005 0.33189 0.37292 0.0
H943 H 0.99723 0.39407 0.3432 0.0
H944 H 0.99362 0.33685 0.35508 0.0
H945 H 0.11341 0.37051 0.34172 0.0
H946 H 0.11731 0.42822 0.3299 0.0
H947 H 0.10425 0.35422 0.36848 0.0
H948 H 0.03054 0.28942 0.32757 0.0
H949 H 0.97795 0.27204 0.31006 0.0
H950 H 0.88531 0.2173 0.33961 0.0
H951 H 0.93738 0.23482 0.35732 0.0
C952 C 0.07137 0.18018 0.39075 0.0
C953 C 0.03324 0.15111 0.39539 0.0
C954 C 0.07562 0.21279 0.38329 0.0
C955 C 0.04215 0.21789 0.38088 0.0
C956 C 0.00417 0.18901 0.38582 0.0
C957 C -0.00035 0.15563 0.39283 0.0
C958 C 0.04607 0.25221 0.3728 0.0
C959 C 0.01727 0.24392 0.36253 0.0
C960 C 0.07797 0.29262 0.37492 0.0
C961 C 0.10828 0.30433 0.38599 0.0
C962 C 0.09592 0.29543 0.39938 0.0
C963 C 0.1247 0.3061 0.40973 0.0
C964 C 0.16594 0.32597 0.40681 0.0
C965 C 0.1785 0.33534 0.39354 0.0
C966 C 0.14985 0.32471 0.38316 0.0
C967 C 0.02255 0.38891 0.34264 0.0
C968 C 0.05722 0.4151 0.3354 0.0
C969 C 0.02046 0.35623 0.34943 0.0
C970 C 0.05303 0.34908 0.34913 0.0
C971 C 0.08785 0.37534 0.342 0.0
C972 C 0.08995 0.40808 0.3352 0.0
C973 C 0.05106 0.31487 0.35661 0.0
C974 C 0.08032 0.32321 0.36667 0.0
C975 C 0.01924 0.27463 0.35446 0.0
C976 C 0.98789 0.2637 0.34378 0.0
C977 C 0.99897 0.2739 0.33034 0.0
C978 C 0.96925 0.26398 0.32038 0.0
C979 C 0.92832 0.24365 0.32372 0.0
C980 C 0.91702 0.23307 0.33703 0.0
C981 C 0.94662 0.24293 0.34703 0.0
H982 H 0.90536 0.23603 0.316 0.0
H983 H 0.18817 0.33417 0.41483 0.0
loop_
_geom_bond_atom_site_label_1
_geom_bond_atom_site_label_2
_geom_bond_distance
_geom_bond_site_symmetry_2
_ccdc_geom_bond_type
Co0 O1 2.217 1_545 S
Co0 O2 2.091 . S
Co0 O4 2.004 . S
Co0 O10 2.021 . S
Co0 O12 2.137 . S
Co0 O13 2.244 . S
O1 Co0 2.217 1_565 S
O1 C8 1.251 . S
O2 Co0 2.091 . S
O2 C8 1.261 1_545 S
C3 O12 1.247 . S
C3 O13 1.272 . S
O4 Co0 2.004 . S
O4 C9 1.259 . S
Co5 O6 2.061 1_655 S
Co5 O11 2.052 . S
Co5 O13 2.135 1_655 S
O6 Co5 2.061 1_455 S
O6 C9 1.235 . S
C7 O10 1.238 1_655 S
C7 O11 1.241 . S
C8 O1 1.251 . S
C8 O2 1.261 1_565 S
C9 O4 1.259 . S
C9 O6 1.235 . S
O10 Co0 2.021 . S
O10 C7 1.238 1_455 S
O11 Co5 2.052 . S
O11 C7 1.241 . S
O12 Co0 2.137 . S
O12 C3 1.247 . S
O13 Co0 2.244 . S
O13 C3 1.272 . S
O13 Co5 2.135 1_455 S
Co14 O15 2.216 . S
Co14 O16 2.091 . S
Co14 O18 2.004 . S
Co14 O24 2.021 . S
Co14 O26 2.137 . S
Co14 O27 2.244 . S
O15 Co14 2.216 . S
O15 C22 1.247 . S
O16 Co14 2.091 . S
O16 C22 1.261 . S
C17 O26 1.247 . S
C17 O27 1.272 . S
O18 Co14 2.004 . S
O18 C23 1.259 . S
Co19 O20 2.061 1_565 S
Co19 O25 2.052 1_465 S
Co19 O27 2.135 1_565 S
O20 Co19 2.061 1_545 S
O20 C23 1.235 . S
C21 O24 1.238 1_655 S
C21 O25 1.241 . S
C22 O15 1.247 . S
C22 O16 1.261 . S
C23 O18 1.259 . S
C23 O20 1.235 . S
O24 Co14 2.021 . S
O24 C21 1.238 1_455 S
O25 Co19 2.052 1_645 S
O25 C21 1.241 . S
O26 Co14 2.137 . S
O26 C17 1.247 . S
O27 Co14 2.244 . S
O27 C17 1.272 . S
O27 Co19 2.135 1_545 S
Co28 O29 2.216 . S
Co28 O30 2.091 . S
Co28 O32 2.004 1_445 S
Co28 O38 2.021 . S
Co28 O40 2.137 1_455 S
Co28 O41 2.244 1_455 S
O29 Co28 2.216 . S
O29 C36 1.247 . S
O30 Co28 2.091 . S
O30 C36 1.261 . S
C31 O40 1.247 . S
C31 O41 1.272 . S
O32 Co28 2.004 1_665 S
O32 C37 1.259 . S
Co33 O34 2.061 . S
Co33 O39 2.052 1_655 S
Co33 O41 2.135 . S
O34 Co33 2.061 . S
O34 C37 1.235 1_545 S
C35 O38 1.238 . S
C35 O39 1.241 . S
C36 O29 1.247 . S
C36 O30 1.261 . S
C37 O32 1.259 . S
C37 O34 1.235 1_565 S
O38 Co28 2.021 . S
O38 C35 1.238 . S
O39 Co33 2.052 1_455 S
O39 C35 1.241 . S
O40 Co28 2.137 1_655 S
O40 C31 1.247 . S
O41 Co28 2.244 1_655 S
O41 C31 1.272 . S
O41 Co33 2.135 . S
C42 C43 1.560 1_655 S
C42 H103 0.959 . S
C42 H104 0.959 . S
C42 H105 0.960 . S
C43 C42 1.560 1_455 S
C43 O98 1.426 1_455 S
C43 H102 0.980 . S
C44 C45 1.407 . S
C44 C49 1.418 1_455 S
C44 O98 1.334 1_455 S
C45 C44 1.407 . S
C45 C46 1.360 . S
C45 H106 0.929 . S
C46 C45 1.360 . S
C46 C47 1.401 . S
C46 C50 1.527 . S
C47 C46 1.401 . S
C47 C48 1.405 1_455 S
C47 C80 1.587 . S
C48 C47 1.405 1_655 S
C48 C49 1.332 . S
C48 C51 1.496 . S
C49 C44 1.418 1_655 S
C49 C48 1.332 . S
C49 H107 0.929 . S
C50 C46 1.527 . S
C50 H108 0.959 . S
C50 H109 0.961 . S
C50 H110 0.961 . S
C51 C48 1.496 . S
C51 H111 0.960 . S
C51 H112 0.960 . S
C51 H113 0.961 . S
C52 C53 1.517 . S
C52 H115 0.961 . S
C52 H116 0.960 . S
C52 H117 0.959 . S
C53 C52 1.517 . S
C53 O101 1.468 . S
C53 H114 0.980 . S
C54 C55 1.349 . S
C54 C59 1.367 . S
C54 O101 1.408 . S
C55 C54 1.349 . S
C55 C56 1.407 . S
C55 H118 0.930 . S
C56 C55 1.407 . S
C56 C57 1.449 . S
C56 C60 1.535 1_455 S
C57 C56 1.449 . S
C57 C58 1.384 . S
C57 C82 1.553 . S
C58 C57 1.384 . S
C58 C59 1.364 . S
C58 C61 1.450 . S
C59 C54 1.367 . S
C59 C58 1.364 . S
C59 H119 0.931 . S
C60 C56 1.535 1_655 S
C60 H120 0.959 . S
C60 H121 0.961 . S
C60 H122 0.959 . S
C61 C58 1.450 . S
C61 H123 0.960 . S
C61 H124 0.960 . S
C61 H125 0.960 . S
C62 C63 1.309 . S
C62 C67 1.304 . S
C62 O100 1.435 . S
C63 C62 1.309 . S
C63 C64 1.476 . S
C63 H127 0.930 1_455 S
C64 C63 1.476 . S
C64 C65 1.400 . S
C64 C68 1.567 1_455 S
C65 C64 1.400 . S
C65 C66 1.373 . S
C65 C87 1.432 . S
C66 C65 1.373 . S
C66 C67 1.339 . S
C66 C69 1.530 . S
C67 C62 1.304 . S
C67 C66 1.339 . S
C67 H128 0.930 . S
C68 C64 1.567 1_655 S
C68 H129 0.961 . S
C68 H130 0.960 . S
C68 H131 0.958 . S
C69 C66 1.530 . S
C69 H132 0.961 . S
C69 H133 0.960 . S
C69 H134 0.960 . S
C70 C71 1.530 1_655 S
C70 H136 0.962 . S
C70 H137 0.961 . S
C70 H138 0.959 . S
C71 C70 1.530 1_455 S
C71 O99 1.412 1_455 S
C71 H135 0.980 . S
C72 C73 1.288 . S
C72 C77 1.377 1_655 S
C72 O99 1.393 . S
C73 C72 1.288 . S
C73 C74 1.369 . S
C73 H139 0.932 . S
C74 C73 1.369 . S
C74 C75 1.398 1_655 S
C74 C78 1.527 . S
C75 C74 1.398 1_455 S
C75 C76 1.380 . S
C75 C89 1.497 . S
C76 C75 1.380 . S
C76 C77 1.383 . S
C76 C79 1.603 . S
C77 C72 1.377 1_455 S
C77 C76 1.383 . S
C77 H140 0.929 . S
C78 C74 1.527 . S
C78 H141 0.961 . S
C78 H142 0.959 . S
C78 H143 0.959 . S
C79 C76 1.603 . S
C79 H144 0.960 . S
C79 H145 0.962 . S
C79 H146 0.961 . S
C80 C47 1.587 . S
C80 C81 1.360 . S
C80 C93 1.412 . S
C81 C80 1.360 . S
C81 C82 1.365 . S
C81 H147 0.929 . S
C82 C57 1.553 . S
C82 C81 1.365 . S
C82 C83 1.404 . S
C83 C82 1.404 . S
C83 C84 1.395 . S
C83 C94 1.451 . S
C84 C83 1.395 . S
C84 C85 1.322 . S
C84 H148 0.930 . S
C85 C84 1.322 . S
C85 C86 1.459 . S
C85 H149 0.929 . S
C86 C85 1.459 . S
C86 C87 1.445 . S
C86 C95 1.395 . S
C87 C65 1.432 . S
C87 C86 1.445 . S
C87 C88 1.370 . S
C88 C87 1.370 . S
C88 C89 1.438 . S
C88 H150 0.930 . S
C89 C75 1.497 . S
C89 C88 1.438 . S
C89 C90 1.360 . S
C90 C89 1.360 . S
C90 C91 1.401 . S
C90 C95 1.446 . S
C91 C90 1.401 . S
C91 C92 1.347 . S
C91 H151 0.929 . S
C92 C91 1.347 . S
C92 C93 1.455 . S
C92 H152 0.930 . S
C93 C80 1.412 . S
C93 C92 1.455 . S
C93 C94 1.331 . S
C94 C83 1.451 . S
C94 C93 1.331 . S
C94 C95 1.497 . S
C95 C86 1.395 . S
C95 C90 1.446 . S
C95 C94 1.497 . S
C96 C97 1.582 . S
C96 H153 0.962 . S
C96 H154 0.959 . S
C96 H155 0.958 . S
C97 C96 1.582 . S
C97 O100 1.458 . S
C97 H126 0.980 . S
O98 C43 1.426 1_655 S
O98 C44 1.334 1_655 S
O99 C71 1.412 1_655 S
O99 C72 1.393 . S
O100 C62 1.435 . S
O100 C97 1.458 . S
O101 C53 1.468 . S
O101 C54 1.408 . S
H102 C43 0.980 . S
H103 C42 0.959 . S
H104 C42 0.959 . S
H105 C42 0.960 . S
H106 C45 0.929 . S
H107 C49 0.929 . S
H108 C50 0.959 . S
H109 C50 0.961 . S
H110 C50 0.961 . S
H111 C51 0.960 . S
H112 C51 0.960 . S
H113 C51 0.961 . S
H114 C53 0.980 . S
H115 C52 0.961 . S
H116 C52 0.960 . S
H117 C52 0.959 . S
H118 C55 0.930 . S
H119 C59 0.931 . S
H120 C60 0.959 . S
H121 C60 0.961 . S
H122 C60 0.959 . S
H123 C61 0.960 . S
H124 C61 0.960 . S
H125 C61 0.960 . S
H126 C97 0.980 . S
H127 C63 0.930 1_655 S
H128 C67 0.930 . S
H129 C68 0.961 . S
H130 C68 0.960 . S
H131 C68 0.958 . S
H132 C69 0.961 . S
H133 C69 0.960 . S
H134 C69 0.960 . S
H135 C71 0.980 . S
H136 C70 0.962 . S
H137 C70 0.961 . S
H138 C70 0.959 . S
H139 C73 0.932 . S
H140 C77 0.929 . S
H141 C78 0.961 . S
H142 C78 0.959 . S
H143 C78 0.959 . S
H144 C79 0.960 . S
H145 C79 0.962 . S
H146 C79 0.961 . S
H147 C81 0.929 . S
H148 C84 0.930 . S
H149 C85 0.929 . S
H150 C88 0.930 . S
H151 C91 0.929 . S
H152 C92 0.930 . S
H153 C96 0.962 . S
H154 C96 0.959 . S
H155 C96 0.958 . S
C156 C157 1.560 1_565 S
C156 H217 0.959 . S
C156 H218 0.959 . S
C156 H219 0.960 1_565 S
C157 C156 1.560 1_545 S
C157 O212 1.426 . S
C157 H216 0.980 . S
C158 C159 1.407 . S
C158 C163 1.418 1_545 S
C158 O212 1.334 . S
C159 C158 1.407 . S
C159 C160 1.360 . S
C159 H220 0.929 . S
C160 C159 1.360 . S
C160 C161 1.401 . S
C160 C164 1.527 . S
C161 C160 1.401 . S
C161 C162 1.405 . S
C161 C194 1.587 . S
C162 C161 1.405 . S
C162 C163 1.332 1_545 S
C162 C165 1.496 1_545 S
C163 C158 1.418 1_565 S
C163 C162 1.332 1_565 S
C163 H221 0.929 . S
C164 C160 1.527 . S
C164 H222 0.959 . S
C164 H223 0.961 . S
C164 H224 0.961 . S
C165 C162 1.496 1_565 S
C165 H225 0.960 . S
C165 H226 0.960 . S
C165 H227 0.961 . S
C166 C167 1.517 . S
C166 H229 0.961 . S
C166 H230 0.960 . S
C166 H231 0.959 . S
C167 C166 1.517 . S
C167 O215 1.468 . S
C167 H228 0.980 . S
C168 C169 1.349 . S
C168 C173 1.367 . S
C168 O215 1.408 . S
C169 C168 1.349 . S
C169 C170 1.407 . S
C169 H232 0.930 . S
C170 C169 1.407 . S
C170 C171 1.449 . S
C170 C174 1.535 . S
C171 C170 1.449 . S
C171 C172 1.384 . S
C171 C196 1.553 . S
C172 C171 1.384 . S
C172 C173 1.364 . S
C172 C175 1.450 . S
C173 C168 1.367 . S
C173 C172 1.364 . S
C173 H233 0.931 . S
C174 C170 1.535 . S
C174 H234 0.959 . S
C174 H235 0.961 1_545 S
C174 H236 0.959 1_545 S
C175 C172 1.450 . S
C175 H237 0.960 . S
C175 H238 0.960 . S
C175 H239 0.960 . S
C176 C177 1.309 . S
C176 C181 1.304 . S
C176 O214 1.435 . S
C177 C176 1.309 . S
C177 C178 1.476 . S
C177 H241 0.930 . S
C178 C177 1.476 . S
C178 C179 1.400 . S
C178 C182 1.567 . S
C179 C178 1.400 . S
C179 C180 1.373 . S
C179 C201 1.432 . S
C180 C179 1.373 . S
C180 C181 1.339 . S
C180 C183 1.530 . S
C181 C176 1.304 . S
C181 C180 1.339 . S
C181 H242 0.930 . S
C182 C178 1.567 . S
C182 H243 0.961 . S
C182 H244 0.960 1_545 S
C182 H245 0.958 1_545 S
C183 C180 1.530 . S
C183 H246 0.961 . S
C183 H247 0.960 . S
C183 H248 0.960 . S
C184 C185 1.530 . S
C184 H250 0.961 . S
C184 H251 0.961 . S
C184 H252 0.959 . S
C185 C184 1.530 . S
C185 O213 1.412 . S
C185 H249 0.980 . S
C186 C187 1.288 . S
C186 C191 1.377 . S
C186 O213 1.393 . S
C187 C186 1.288 . S
C187 C188 1.369 . S
C187 H253 0.932 1_545 S
C188 C187 1.369 . S
C188 C189 1.398 . S
C188 C192 1.527 1_545 S
C189 C188 1.398 . S
C189 C190 1.380 . S
C189 C203 1.497 . S
C190 C189 1.380 . S
C190 C191 1.383 . S
C190 C193 1.603 . S
C191 C186 1.377 . S
C191 C190 1.383 . S
C191 H254 0.929 . S
C192 C188 1.527 1_565 S
C192 H255 0.961 . S
C192 H256 0.959 . S
C192 H257 0.959 . S
C193 C190 1.603 . S
C193 H258 0.960 . S
C193 H259 0.962 . S
C193 H260 0.961 . S
C194 C161 1.587 . S
C194 C195 1.360 . S
C194 C207 1.412 . S
C195 C194 1.360 . S
C195 C196 1.365 . S
C195 H261 0.929 . S
C196 C171 1.553 . S
C196 C195 1.365 . S
C196 C197 1.404 . S
C197 C196 1.404 . S
C197 C198 1.395 . S
C197 C208 1.451 . S
C198 C197 1.395 . S
C198 C199 1.322 . S
C198 H262 0.930 . S
C199 C198 1.322 . S
C199 C200 1.459 . S
C199 H263 0.929 . S
C200 C199 1.459 . S
C200 C201 1.445 . S
C200 C209 1.395 . S
C201 C179 1.432 . S
C201 C200 1.445 . S
C201 C202 1.370 . S
C202 C201 1.370 . S
C202 C203 1.438 . S
C202 H264 0.930 . S
C203 C189 1.497 . S
C203 C202 1.438 . S
C203 C204 1.360 . S
C204 C203 1.360 . S
C204 C205 1.401 . S
C204 C209 1.446 . S
C205 C204 1.401 . S
C205 C206 1.347 . S
C205 H265 0.929 . S
C206 C205 1.347 . S
C206 C207 1.455 . S
C206 H266 0.930 . S
C207 C194 1.412 . S
C207 C206 1.455 . S
C207 C208 1.331 . S
C208 C197 1.451 . S
C208 C207 1.331 . S
C208 C209 1.497 . S
C209 C200 1.395 . S
C209 C204 1.446 . S
C209 C208 1.497 . S
C210 C211 1.582 . S
C210 H267 0.962 . S
C210 H268 0.959 . S
C210 H269 0.958 . S
C211 C210 1.582 . S
C211 O214 1.458 . S
C211 H240 0.980 . S
O212 C157 1.426 . S
O212 C158 1.334 . S
O213 C185 1.412 . S
O213 C186 1.393 . S
O214 C176 1.435 . S
O214 C211 1.458 . S
O215 C167 1.468 . S
O215 C168 1.408 . S
H216 C157 0.980 . S
H217 C156 0.959 . S
H218 C156 0.959 . S
H219 C156 0.960 1_545 S
H220 C159 0.929 . S
H221 C163 0.929 . S
H222 C164 0.959 . S
H223 C164 0.961 . S
H224 C164 0.961 . S
H225 C165 0.960 . S
H226 C165 0.960 . S
H227 C165 0.961 . S
H228 C167 0.980 . S
H229 C166 0.961 . S
H230 C166 0.960 . S
H231 C166 0.959 . S
H232 C169 0.930 . S
H233 C173 0.931 . S
H234 C174 0.959 . S
H235 C174 0.961 1_565 S
H236 C174 0.959 1_565 S
H237 C175 0.960 . S
H238 C175 0.960 . S
H239 C175 0.960 . S
H240 C211 0.980 . S
H241 C177 0.930 . S
H242 C181 0.930 . S
H243 C182 0.961 . S
H244 C182 0.960 1_565 S
H245 C182 0.958 1_565 S
H246 C183 0.961 . S
H247 C183 0.960 . S
H248 C183 0.960 . S
H249 C185 0.980 . S
H250 C184 0.961 . S
H251 C184 0.961 . S
H252 C184 0.959 . S
H253 C187 0.932 1_565 S
H254 C191 0.929 . S
H255 C192 0.961 . S
H256 C192 0.959 . S
H257 C192 0.959 . S
H258 C193 0.960 . S
H259 C193 0.962 . S
H260 C193 0.961 . S
H261 C195 0.929 . S
H262 C198 0.930 . S
H263 C199 0.929 . S
H264 C202 0.930 . S
H265 C205 0.929 . S
H266 C206 0.930 . S
H267 C210 0.962 . S
H268 C210 0.959 . S
H269 C210 0.958 . S
C270 C271 1.560 . S
C270 H331 0.959 . S
C270 H332 0.959 . S
C270 H333 0.960 . S
C271 C270 1.560 . S
C271 O326 1.426 . S
C271 H330 0.980 . S
C272 C273 1.407 . S
C272 C277 1.418 . S
C272 O326 1.334 . S
C273 C272 1.407 . S
C273 C274 1.360 . S
C273 H334 0.929 . S
C274 C273 1.360 . S
C274 C275 1.401 . S
C274 C278 1.527 . S
C275 C274 1.401 . S
C275 C276 1.405 . S
C275 C308 1.587 . S
C276 C275 1.405 . S
C276 C277 1.332 . S
C276 C279 1.496 . S
C277 C272 1.418 . S
C277 C276 1.332 . S
C277 H335 0.929 . S
C278 C274 1.527 . S
C278 H336 0.959 . S
C278 H337 0.961 . S
C278 H338 0.961 . S
C279 C276 1.496 . S
C279 H339 0.960 . S
C279 H340 0.960 . S
C279 H341 0.961 . S
C280 C281 1.517 . S
C280 H343 0.961 . S
C280 H344 0.960 . S
C280 H345 0.959 . S
C281 C280 1.517 . S
C281 O329 1.468 . S
C281 H342 0.980 . S
C282 C283 1.349 . S
C282 C287 1.367 . S
C282 O329 1.408 . S
C283 C282 1.349 . S
C283 C284 1.407 . S
C283 H346 0.930 . S
C284 C283 1.407 . S
C284 C285 1.449 . S
C284 C288 1.535 . S
C285 C284 1.449 . S
C285 C286 1.384 . S
C285 C310 1.553 . S
C286 C285 1.384 . S
C286 C287 1.364 . S
C286 C289 1.450 . S
C287 C282 1.367 . S
C287 C286 1.364 . S
C287 H347 0.931 . S
C288 C284 1.535 . S
C288 H348 0.959 . S
C288 H349 0.961 . S
C288 H350 0.959 . S
C289 C286 1.450 . S
C289 H351 0.960 . S
C289 H352 0.960 . S
C289 H353 0.960 . S
C290 C291 1.309 . S
C290 C295 1.304 . S
C290 O328 1.435 . S
C291 C290 1.309 . S
C291 C292 1.476 . S
C291 H355 0.930 . S
C292 C291 1.476 . S
C292 C293 1.400 . S
C292 C296 1.567 . S
C293 C292 1.400 . S
C293 C294 1.373 . S
C293 C315 1.432 . S
C294 C293 1.373 . S
C294 C295 1.339 . S
C294 C297 1.530 . S
C295 C290 1.304 . S
C295 C294 1.339 . S
C295 H356 0.930 . S
C296 C292 1.567 . S
C296 H357 0.961 . S
C296 H358 0.960 . S
C296 H359 0.958 . S
C297 C294 1.530 . S
C297 H360 0.961 . S
C297 H361 0.960 . S
C297 H362 0.960 . S
C298 C299 1.530 . S
C298 H364 0.961 . S
C298 H365 0.961 . S
C298 H366 0.959 . S
C299 C298 1.530 . S
C299 O327 1.412 . S
C299 H363 0.980 . S
C300 C301 1.288 . S
C300 C305 1.377 . S
C300 O327 1.393 . S
C301 C300 1.288 . S
C301 C302 1.369 . S
C301 H367 0.932 . S
C302 C301 1.369 . S
C302 C303 1.398 . S
C302 C306 1.527 . S
C303 C302 1.398 . S
C303 C304 1.380 . S
C303 C317 1.497 . S
C304 C303 1.380 . S
C304 C305 1.383 . S
C304 C307 1.603 . S
C305 C300 1.377 . S
C305 C304 1.383 . S
C305 H368 0.929 . S
C306 C302 1.527 . S
C306 H369 0.961 . S
C306 H370 0.959 . S
C306 H371 0.959 . S
C307 C304 1.603 . S
C307 H372 0.960 . S
C307 H373 0.962 . S
C307 H374 0.961 . S
C308 C275 1.587 . S
C308 C309 1.360 . S
C308 C321 1.412 . S
C309 C308 1.360 . S
C309 C310 1.365 . S
C309 H375 0.929 . S
C310 C285 1.553 . S
C310 C309 1.365 . S
C310 C311 1.404 . S
C311 C310 1.404 . S
C311 C312 1.395 . S
C311 C322 1.451 . S
C312 C311 1.395 . S
C312 C313 1.322 . S
C312 H376 0.930 . S
C313 C312 1.322 . S
C313 C314 1.459 . S
C313 H377 0.929 . S
C314 C313 1.459 . S
C314 C315 1.445 . S
C314 C323 1.395 . S
C315 C293 1.432 . S
C315 C314 1.445 . S
C315 C316 1.370 . S
C316 C315 1.370 . S
C316 C317 1.438 . S
C316 H378 0.930 . S
C317 C303 1.497 . S
C317 C316 1.438 . S
C317 C318 1.360 . S
C318 C317 1.360 . S
C318 C319 1.401 . S
C318 C323 1.446 . S
C319 C318 1.401 . S
C319 C320 1.347 . S
C319 H379 0.929 . S
C320 C319 1.347 . S
C320 C321 1.455 . S
C320 H380 0.930 . S
C321 C308 1.412 . S
C321 C320 1.455 . S
C321 C322 1.331 . S
C322 C311 1.451 . S
C322 C321 1.331 . S
C322 C323 1.497 . S
C323 C314 1.395 . S
C323 C318 1.446 . S
C323 C322 1.497 . S
C324 C325 1.582 . S
C324 H381 0.962 . S
C324 H382 0.959 . S
C324 H383 0.958 . S
C325 C324 1.582 . S
C325 O328 1.458 . S
C325 H354 0.980 . S
O326 C271 1.426 . S
O326 C272 1.334 . S
O327 C299 1.412 . S
O327 C300 1.393 . S
O328 C290 1.435 . S
O328 C325 1.458 . S
O329 C281 1.468 . S
O329 C282 1.408 . S
H330 C271 0.980 . S
H331 C270 0.959 . S
H332 C270 0.959 . S
H333 C270 0.960 . S
H334 C273 0.929 . S
H335 C277 0.929 . S
H336 C278 0.959 . S
H337 C278 0.961 . S
H338 C278 0.961 . S
H339 C279 0.960 . S
H340 C279 0.960 . S
H341 C279 0.961 . S
H342 C281 0.980 . S
H343 C280 0.961 . S
H344 C280 0.960 . S
H345 C280 0.959 . S
H346 C283 0.930 . S
H347 C287 0.931 . S
H348 C288 0.959 . S
H349 C288 0.961 . S
H350 C288 0.959 . S
H351 C289 0.960 . S
H352 C289 0.960 . S
H353 C289 0.960 . S
H354 C325 0.980 . S
H355 C291 0.930 . S
H356 C295 0.930 . S
H357 C296 0.961 . S
H358 C296 0.960 . S
H359 C296 0.958 . S
H360 C297 0.961 . S
H361 C297 0.960 . S
H362 C297 0.960 . S
H363 C299 0.980 . S
H364 C298 0.961 . S
H365 C298 0.961 . S
H366 C298 0.959 . S
H367 C301 0.932 . S
H368 C305 0.929 . S
H369 C306 0.961 . S
H370 C306 0.959 . S
H371 C306 0.959 . S
H372 C307 0.960 . S
H373 C307 0.962 . S
H374 C307 0.961 . S
H375 C309 0.929 . S
H376 C312 0.930 . S
H377 C313 0.929 . S
H378 C316 0.930 . S
H379 C319 0.929 . S
H380 C320 0.930 . S
H381 C324 0.962 . S
H382 C324 0.959 . S
H383 C324 0.958 . S
H384 C402 0.951 . S
H385 C404 0.951 . S
H386 C406 0.950 . S
H387 C407 0.950 . S
H388 C409 0.950 . S
H389 C412 0.950 . S
H390 C413 0.950 . S
H391 C415 0.950 . S
H392 C416 0.950 . S
H393 C417 0.951 . S
H394 C419 0.951 . S
H395 C421 0.950 . S
H396 C422 0.950 . S
H397 C424 0.950 . S
H398 C427 0.950 . S
H399 C428 0.950 . S
H400 C430 0.950 . S
H401 C431 0.950 . S
C402 H384 0.951 . S
C402 C403 1.366 . S
C402 C404 1.388 . S
C403 C402 1.366 . S
C403 C407 1.385 1_455 S
C404 H385 0.951 . S
C404 C402 1.388 . S
C404 C405 1.366 . S
C405 C404 1.366 . S
C405 C406 1.414 1_455 S
C405 C408 1.499 . S
C406 H386 0.950 . S
C406 C405 1.414 1_655 S
C406 C407 1.374 . S
C407 H387 0.950 . S
C407 C403 1.385 1_655 S
C407 C406 1.374 . S
C408 C405 1.499 . S
C408 C409 1.373 1_455 S
C408 C410 1.389 . S
C409 H388 0.950 . S
C409 C408 1.373 1_655 S
C409 C425 1.377 . S
C410 C408 1.389 . S
C410 C411 1.524 . S
C410 C424 1.377 . S
C411 C410 1.524 . S
C411 C412 1.397 . S
C411 C416 1.363 . S
C412 H389 0.950 . S
C412 C411 1.397 . S
C412 C413 1.334 . S
C413 H390 0.950 . S
C413 C412 1.334 . S
C413 C414 1.287 . S
C414 C413 1.287 . S
C414 C415 1.524 . S
C414 H433 0.913 . S
C415 H391 0.950 . S
C415 C414 1.524 . S
C415 C416 1.415 . S
C416 H392 0.950 . S
C416 C411 1.363 . S
C416 C415 1.415 . S
C417 H393 0.951 . S
C417 C418 1.366 1_655 S
C417 C419 1.388 . S
C418 C417 1.366 1_455 S
C418 C422 1.385 . S
C419 H394 0.951 . S
C419 C417 1.388 . S
C419 C420 1.366 1_655 S
C420 C419 1.366 1_455 S
C420 C421 1.414 . S
C420 C423 1.499 . S
C421 H395 0.950 . S
C421 C420 1.414 . S
C421 C422 1.374 . S
C422 H396 0.950 . S
C422 C418 1.385 . S
C422 C421 1.374 . S
C423 C420 1.499 . S
C423 C424 1.373 . S
C423 C425 1.389 1_455 S
C424 H397 0.950 . S
C424 C410 1.377 . S
C424 C423 1.373 . S
C425 C409 1.377 . S
C425 C423 1.389 1_655 S
C425 C426 1.524 . S
C426 C425 1.524 . S
C426 C427 1.397 . S
C426 C431 1.363 . S
C427 H398 0.950 . S
C427 C426 1.397 . S
C427 C428 1.334 . S
C428 H399 0.950 . S
C428 C427 1.334 . S
C428 C429 1.287 . S
C429 C428 1.287 . S
C429 C430 1.524 . S
C429 H432 0.999 . S
C430 H400 0.950 . S
C430 C429 1.524 . S
C430 C431 1.415 . S
C431 H401 0.950 . S
C431 C426 1.363 . S
C431 C430 1.415 . S
H432 C429 0.999 . S
H433 C414 0.913 . S
H434 C452 0.951 . S
H435 C454 0.951 . S
H436 C456 0.950 . S
H437 C457 0.950 . S
H438 C459 0.950 . S
H439 C462 0.950 . S
H440 C463 0.950 . S
H441 C465 0.950 . S
H442 C466 0.950 . S
H443 C467 0.951 . S
H444 C469 0.951 . S
H445 C471 0.950 . S
H446 C472 0.950 . S
H447 C474 0.950 . S
H448 C477 0.950 . S
H449 C478 0.950 . S
H450 C480 0.950 . S
H451 C481 0.947 1_545 S
C452 H434 0.951 . S
C452 C453 1.366 . S
C452 C454 1.388 . S
C453 C452 1.366 . S
C453 C457 1.385 . S
C454 H435 0.951 . S
C454 C452 1.388 . S
C454 C455 1.366 . S
C455 C454 1.366 . S
C455 C456 1.414 . S
C455 C458 1.499 . S
C456 H436 0.950 . S
C456 C455 1.414 . S
C456 C457 1.374 . S
C457 H437 0.950 . S
C457 C453 1.385 . S
C457 C456 1.374 . S
C458 C455 1.499 . S
C458 C459 1.373 . S
C458 C460 1.389 . S
C459 H438 0.950 . S
C459 C458 1.373 . S
C459 C475 1.377 . S
C460 C458 1.389 . S
C460 C461 1.524 . S
C460 C474 1.377 . S
C461 C460 1.524 . S
C461 C462 1.397 . S
C461 C466 1.363 . S
C462 H439 0.950 . S
C462 C461 1.397 . S
C462 C463 1.334 . S
C463 H440 0.950 . S
C463 C462 1.334 . S
C463 C464 1.287 . S
C464 C463 1.287 . S
C464 C465 1.524 . S
C464 H483 0.913 . S
C465 H441 0.950 . S
C465 C464 1.524 . S
C465 C466 1.415 . S
C466 H442 0.950 . S
C466 C461 1.363 . S
C466 C465 1.415 . S
C467 H443 0.951 . S
C467 C468 1.366 . S
C467 C469 1.388 . S
C468 C467 1.366 . S
C468 C472 1.385 . S
C469 H444 0.951 . S
C469 C467 1.388 . S
C469 C470 1.366 . S
C470 C469 1.366 . S
C470 C471 1.414 . S
C470 C473 1.499 . S
C471 H445 0.950 . S
C471 C470 1.414 . S
C471 C472 1.374 . S
C472 H446 0.950 . S
C472 C468 1.385 . S
C472 C471 1.374 . S
C473 C470 1.499 . S
C473 C474 1.373 . S
C473 C475 1.389 . S
C474 H447 0.950 . S
C474 C460 1.377 . S
C474 C473 1.373 . S
C475 C459 1.377 . S
C475 C473 1.389 . S
C475 C476 1.524 1_545 S
C476 C475 1.524 1_565 S
C476 C477 1.397 . S
C476 C481 1.363 . S
C477 H448 0.950 . S
C477 C476 1.397 . S
C477 C478 1.334 . S
C478 H449 0.950 . S
C478 C477 1.334 . S
C478 C479 1.287 . S
C479 C478 1.287 . S
C479 C480 1.524 . S
C479 H482 0.999 . S
C480 H450 0.950 . S
C480 C479 1.524 . S
C480 C481 1.415 . S
C481 H451 0.947 1_565 S
C481 C476 1.363 . S
C481 C480 1.415 . S
H482 C479 0.999 . S
H483 C464 0.913 . S
H484 C502 0.951 . S
H485 C504 0.951 . S
H486 C506 0.950 . S
H487 C507 0.950 . S
H488 C509 0.950 . S
H489 C512 0.950 . S
H490 C513 0.950 1_545 S
H491 C515 0.950 . S
H492 C516 0.950 . S
H493 C517 0.951 . S
H494 C519 0.951 . S
H495 C521 0.950 . S
H496 C522 0.950 . S
H497 C524 0.950 . S
H498 C527 0.950 . S
H499 C528 0.950 . S
H500 C530 0.950 . S
H501 C531 0.950 . S
C502 H484 0.951 . S
C502 C503 1.366 . S
C502 C504 1.388 . S
C503 C502 1.366 . S
C503 C507 1.385 . S
C504 H485 0.951 . S
C504 C502 1.388 . S
C504 C505 1.366 . S
C505 C504 1.366 . S
C505 C506 1.414 . S
C505 C508 1.499 . S
C506 H486 0.950 . S
C506 C505 1.414 . S
C506 C507 1.374 . S
C507 H487 0.950 . S
C507 C503 1.385 . S
C507 C506 1.374 . S
C508 C505 1.499 . S
C508 C509 1.373 . S
C508 C510 1.389 . S
C509 H488 0.950 . S
C509 C508 1.373 . S
C509 C525 1.377 . S
C510 C508 1.389 . S
C510 C511 1.524 . S
C510 C524 1.377 . S
C511 C510 1.524 . S
C511 C512 1.397 . S
C511 C516 1.363 . S
C512 H489 0.950 . S
C512 C511 1.397 . S
C512 C513 1.334 . S
C513 H490 0.950 1_565 S
C513 C512 1.334 . S
C513 C514 1.287 . S
C514 C513 1.287 . S
C514 C515 1.524 . S
C514 H533 0.913 1_565 S
C515 H491 0.950 . S
C515 C514 1.524 . S
C515 C516 1.415 . S
C516 H492 0.950 . S
C516 C511 1.363 . S
C516 C515 1.415 . S
C517 H493 0.951 . S
C517 C518 1.366 . S
C517 C519 1.388 . S
C518 C517 1.366 . S
C518 C522 1.385 . S
C519 H494 0.951 . S
C519 C517 1.388 . S
C519 C520 1.366 . S
C520 C519 1.366 . S
C520 C521 1.414 . S
C520 C523 1.499 . S
C521 H495 0.950 . S
C521 C520 1.414 . S
C521 C522 1.374 . S
C522 H496 0.950 . S
C522 C518 1.385 . S
C522 C521 1.374 . S
C523 C520 1.499 . S
C523 C524 1.373 . S
C523 C525 1.389 . S
C524 H497 0.950 . S
C524 C510 1.377 . S
C524 C523 1.373 . S
C525 C509 1.377 . S
C525 C523 1.389 . S
C525 C526 1.524 . S
C526 C525 1.524 . S
C526 C527 1.397 . S
C526 C531 1.363 . S
C527 H498 0.950 . S
C527 C526 1.397 . S
C527 C528 1.334 . S
C528 H499 0.950 . S
C528 C527 1.334 . S
C528 C529 1.287 . S
C529 C528 1.287 . S
C529 C530 1.524 . S
C529 H532 0.999 . S
C530 H500 0.950 . S
C530 C529 1.524 . S
C530 C531 1.415 . S
C531 H501 0.950 . S
C531 C526 1.363 . S
C531 C530 1.415 . S
H532 C529 0.999 . S
H533 C514 0.913 1_545 S
H534 C552 0.951 . S
H535 C554 0.951 . S
H536 C556 0.950 . S
H537 C557 0.950 . S
H538 C559 0.950 . S
H539 C562 0.950 . S
H540 C563 0.950 . S
H541 C565 0.950 . S
H542 C566 0.950 . S
H543 C567 0.951 . S
H544 C569 0.951 . S
H545 C571 0.950 . S
H546 C572 0.950 . S
H547 C574 0.950 1_655 S
H548 C577 0.950 . S
H549 C578 0.950 . S
H550 C580 0.950 . S
H551 C581 0.950 . S
C552 H534 0.951 . S
C552 C553 1.366 . S
C552 C554 1.388 . S
C553 C552 1.366 . S
C553 C557 1.385 . S
C554 H535 0.951 . S
C554 C552 1.388 . S
C554 C555 1.366 . S
C555 C554 1.366 . S
C555 C556 1.414 . S
C555 C558 1.499 . S
C556 H536 0.950 . S
C556 C555 1.414 . S
C556 C557 1.374 . S
C557 H537 0.950 . S
C557 C553 1.385 . S
C557 C556 1.374 . S
C558 C555 1.499 . S
C558 C559 1.373 . S
C558 C560 1.389 . S
C559 H538 0.950 . S
C559 C558 1.373 . S
C559 C575 1.377 . S
C560 C558 1.389 . S
C560 C561 1.524 1_455 S
C560 C574 1.377 . S
C561 C560 1.524 1_655 S
C561 C562 1.397 . S
C561 C566 1.363 . S
C562 H539 0.950 . S
C562 C561 1.397 . S
C562 C563 1.334 . S
C563 H540 0.950 . S
C563 C562 1.334 . S
C563 C564 1.287 . S
C564 C563 1.287 . S
C564 C565 1.524 . S
C564 H583 0.913 . S
C565 H541 0.950 . S
C565 C564 1.524 . S
C565 C566 1.415 . S
C566 H542 0.950 . S
C566 C561 1.363 . S
C566 C565 1.415 . S
C567 H543 0.951 . S
C567 C568 1.366 . S
C567 C569 1.388 . S
C568 C567 1.366 . S
C568 C572 1.385 . S
C569 H544 0.951 . S
C569 C567 1.388 . S
C569 C570 1.366 . S
C570 C569 1.366 . S
C570 C571 1.414 . S
C570 C573 1.499 . S
C571 H545 0.950 . S
C571 C570 1.414 . S
C571 C572 1.374 . S
C572 H546 0.950 . S
C572 C568 1.385 . S
C572 C571 1.374 . S
C573 C570 1.499 . S
C573 C574 1.373 . S
C573 C575 1.389 . S
C574 H547 0.950 1_455 S
C574 C560 1.377 . S
C574 C573 1.373 . S
C575 C559 1.377 . S
C575 C573 1.389 . S
C575 C576 1.524 . S
C576 C575 1.524 . S
C576 C577 1.397 . S
C576 C581 1.363 . S
C577 H548 0.950 . S
C577 C576 1.397 . S
C577 C578 1.334 . S
C578 H549 0.950 . S
C578 C577 1.334 . S
C578 C579 1.287 . S
C579 C578 1.287 . S
C579 C580 1.524 . S
C579 H582 0.999 . S
C580 H550 0.950 . S
C580 C579 1.524 . S
C580 C581 1.415 . S
C581 H551 0.950 . S
C581 C576 1.363 . S
C581 C580 1.415 . S
H582 C579 0.999 . S
H583 C564 0.913 . S
H584 C602 0.951 . S
H585 C604 0.951 . S
H586 C606 0.950 . S
H587 C607 0.950 . S
H588 C609 0.950 . S
H589 C612 0.950 . S
H590 C613 0.950 . S
H591 C615 0.950 . S
H592 C616 0.950 . S
H593 C617 0.951 . S
H594 C619 0.951 . S
H595 C621 0.950 . S
H596 C622 0.950 . S
H597 C624 0.950 . S
H598 C627 0.950 . S
H599 C628 0.950 1_565 S
H600 C630 0.950 . S
H601 C631 0.950 . S
C602 H584 0.951 . S
C602 C603 1.366 . S
C602 C604 1.388 . S
C603 C602 1.366 . S
C603 C607 1.385 . S
C604 H585 0.951 . S
C604 C602 1.388 . S
C604 C605 1.366 . S
C605 C604 1.366 . S
C605 C606 1.414 . S
C605 C608 1.499 . S
C606 H586 0.950 . S
C606 C605 1.414 . S
C606 C607 1.374 . S
C607 H587 0.950 . S
C607 C603 1.385 . S
C607 C606 1.374 . S
C608 C605 1.499 . S
C608 C609 1.373 . S
C608 C610 1.389 . S
C609 H588 0.950 . S
C609 C608 1.373 . S
C609 C625 1.377 . S
C610 C608 1.389 . S
C610 C611 1.524 . S
C610 C624 1.377 . S
C611 C610 1.524 . S
C611 C612 1.397 . S
C611 C616 1.363 . S
C612 H589 0.950 . S
C612 C611 1.397 . S
C612 C613 1.334 . S
C613 H590 0.950 . S
C613 C612 1.334 . S
C613 C614 1.287 . S
C614 C613 1.287 . S
C614 C615 1.524 . S
C614 H633 0.913 . S
C615 H591 0.950 . S
C615 C614 1.524 . S
C615 C616 1.415 . S
C616 H592 0.950 . S
C616 C611 1.363 . S
C616 C615 1.415 . S
C617 H593 0.951 . S
C617 C618 1.366 . S
C617 C619 1.388 . S
C618 C617 1.366 . S
C618 C622 1.385 . S
C619 H594 0.951 . S
C619 C617 1.388 . S
C619 C620 1.366 . S
C620 C619 1.366 . S
C620 C621 1.414 . S
C620 C623 1.499 . S
C621 H595 0.950 . S
C621 C620 1.414 . S
C621 C622 1.374 . S
C622 H596 0.950 . S
C622 C618 1.385 . S
C622 C621 1.374 . S
C623 C620 1.499 . S
C623 C624 1.373 . S
C623 C625 1.389 . S
C624 H597 0.950 . S
C624 C610 1.377 . S
C624 C623 1.373 . S
C625 C609 1.377 . S
C625 C623 1.389 . S
C625 C626 1.524 . S
C626 C625 1.524 . S
C626 C627 1.397 . S
C626 C631 1.363 . S
C627 H598 0.950 . S
C627 C626 1.397 . S
C627 C628 1.334 . S
C628 H599 0.950 1_545 S
C628 C627 1.334 . S
C628 C629 1.287 . S
C629 C628 1.287 . S
C629 C630 1.524 . S
C629 H632 0.999 . S
C630 H600 0.950 . S
C630 C629 1.524 . S
C630 C631 1.415 . S
C631 H601 0.950 . S
C631 C626 1.363 . S
C631 C630 1.415 . S
H632 C629 0.999 . S
H633 C614 0.913 . S
H634 C652 0.951 . S
H635 C654 0.951 . S
H636 C656 0.950 . S
H637 C657 0.950 . S
H638 C659 0.950 . S
H639 C662 0.950 . S
H640 C663 0.950 . S
H641 C665 0.950 . S
H642 C666 0.950 . S
H643 C667 0.951 . S
H644 C669 0.951 . S
H645 C671 0.950 . S
H646 C672 0.950 . S
H647 C674 0.950 . S
H648 C677 0.950 . S
H649 C678 0.950 . S
H650 C680 0.950 . S
H651 C681 0.950 . S
C652 H634 0.951 . S
C652 C653 1.366 . S
C652 C654 1.388 . S
C653 C652 1.366 . S
C653 C657 1.385 . S
C654 H635 0.951 . S
C654 C652 1.388 . S
C654 C655 1.366 . S
C655 C654 1.366 . S
C655 C656 1.414 . S
C655 C658 1.499 . S
C656 H636 0.950 . S
C656 C655 1.414 . S
C656 C657 1.374 . S
C657 H637 0.950 . S
C657 C653 1.385 . S
C657 C656 1.374 . S
C658 C655 1.499 . S
C658 C659 1.373 . S
C658 C660 1.389 . S
C659 H638 0.950 . S
C659 C658 1.373 . S
C659 C675 1.377 . S
C660 C658 1.389 . S
C660 C661 1.524 . S
C660 C674 1.377 . S
C661 C660 1.524 . S
C661 C662 1.397 . S
C661 C666 1.363 . S
C662 H639 0.950 . S
C662 C661 1.397 . S
C662 C663 1.334 . S
C663 H640 0.950 . S
C663 C662 1.334 . S
C663 C664 1.287 . S
C664 C663 1.287 . S
C664 C665 1.524 . S
C664 H683 0.913 . S
C665 H641 0.950 . S
C665 C664 1.524 . S
C665 C666 1.415 . S
C666 H642 0.950 . S
C666 C661 1.363 . S
C666 C665 1.415 . S
C667 H643 0.951 . S
C667 C668 1.366 . S
C667 C669 1.388 . S
C668 C667 1.366 . S
C668 C672 1.385 . S
C669 H644 0.951 . S
C669 C667 1.388 . S
C669 C670 1.366 . S
C670 C669 1.366 . S
C670 C671 1.414 . S
C670 C673 1.499 . S
C671 H645 0.950 . S
C671 C670 1.414 . S
C671 C672 1.374 . S
C672 H646 0.950 . S
C672 C668 1.385 . S
C672 C671 1.374 . S
C673 C670 1.499 . S
C673 C674 1.373 . S
C673 C675 1.389 . S
C674 H647 0.950 . S
C674 C660 1.377 . S
C674 C673 1.373 . S
C675 C659 1.377 . S
C675 C673 1.389 . S
C675 C676 1.524 . S
C676 C675 1.524 . S
C676 C677 1.397 . S
C676 C681 1.363 . S
C677 H648 0.950 . S
C677 C676 1.397 . S
C677 C678 1.334 . S
C678 H649 0.950 . S
C678 C677 1.334 . S
C678 C679 1.287 . S
C679 C678 1.287 . S
C679 C680 1.524 . S
C679 H682 0.999 . S
C680 H650 0.950 . S
C680 C679 1.524 . S
C680 C681 1.415 . S
C681 H651 0.950 . S
C681 C676 1.363 . S
C681 C680 1.415 . S
H682 C679 0.999 . S
H683 C664 0.913 . S
H684 C702 0.956 . S
H685 C704 0.951 . S
H686 C706 0.950 . S
H687 C707 0.950 . S
H688 C709 0.950 . S
H689 C712 0.950 . S
H690 C713 0.950 . S
H691 C715 0.950 . S
H692 C716 0.950 . S
H693 C717 0.951 . S
H694 C719 0.951 . S
H695 C721 0.950 . S
H696 C722 0.950 . S
H697 C724 0.950 1_565 S
H698 C727 0.950 . S
H699 C728 0.950 . S
H700 C730 0.950 . S
H701 C731 0.950 . S
C702 H684 0.956 . S
C702 C703 1.366 . S
C702 C704 1.388 . S
C703 C702 1.366 . S
C703 C707 1.385 . S
C704 H685 0.951 . S
C704 C702 1.388 . S
C704 C705 1.366 . S
C705 C704 1.366 . S
C705 C706 1.414 . S
C705 C708 1.499 . S
C706 H686 0.950 . S
C706 C705 1.414 . S
C706 C707 1.374 . S
C707 H687 0.950 . S
C707 C703 1.385 . S
C707 C706 1.374 . S
C708 C705 1.499 . S
C708 C709 1.373 . S
C708 C710 1.389 . S
C709 H688 0.950 . S
C709 C708 1.373 . S
C709 C725 1.377 . S
C710 C708 1.389 . S
C710 C711 1.524 1_545 S
C710 C724 1.377 . S
C711 C710 1.524 1_565 S
C711 C712 1.397 . S
C711 C716 1.363 . S
C712 H689 0.950 . S
C712 C711 1.397 . S
C712 C713 1.334 . S
C713 H690 0.950 . S
C713 C712 1.334 . S
C713 C714 1.287 . S
C714 C713 1.287 . S
C714 C715 1.524 . S
C714 H733 0.913 . S
C715 H691 0.950 . S
C715 C714 1.524 . S
C715 C716 1.415 . S
C716 H692 0.950 . S
C716 C711 1.363 . S
C716 C715 1.415 . S
C717 H693 0.951 . S
C717 C718 1.366 . S
C717 C719 1.388 . S
C718 C717 1.366 . S
C718 C722 1.385 . S
C719 H694 0.951 . S
C719 C717 1.388 . S
C719 C720 1.366 . S
C720 C719 1.366 . S
C720 C721 1.414 . S
C720 C723 1.499 . S
C721 H695 0.950 . S
C721 C720 1.414 . S
C721 C722 1.374 . S
C722 H696 0.950 . S
C722 C718 1.385 . S
C722 C721 1.374 . S
C723 C720 1.499 . S
C723 C724 1.373 . S
C723 C725 1.389 . S
C724 H697 0.950 1_545 S
C724 C710 1.377 . S
C724 C723 1.373 . S
C725 C709 1.377 . S
C725 C723 1.389 . S
C725 C726 1.524 . S
C726 C725 1.524 . S
C726 C727 1.397 . S
C726 C731 1.363 . S
C727 H698 0.950 . S
C727 C726 1.397 . S
C727 C728 1.334 . S
C728 H699 0.950 . S
C728 C727 1.334 . S
C728 C729 1.287 . S
C729 C728 1.287 . S
C729 C730 1.524 . S
C729 H732 0.999 . S
C730 H700 0.950 . S
C730 C729 1.524 . S
C730 C731 1.415 . S
C731 H701 0.950 . S
C731 C726 1.363 . S
C731 C730 1.415 . S
H732 C729 0.999 . S
H733 C714 0.913 . S
H734 C752 0.951 . S
H735 C754 0.951 . S
H736 C756 0.950 . S
H737 C757 0.950 . S
H738 C759 0.950 . S
H739 C762 0.950 . S
H740 C763 0.950 . S
H741 C765 0.934 1_556 S
H742 C766 0.950 . S
H743 C767 0.951 . S
H744 C769 0.951 1_554 S
H745 C771 0.950 . S
H746 C772 0.950 . S
H747 C774 0.955 . S
H748 C777 0.950 . S
H749 C778 0.950 . S
H750 C780 0.950 . S
H751 C781 0.950 . S
C752 H734 0.951 . S
C752 C753 1.366 . S
C752 C754 1.388 . S
C753 C752 1.366 . S
C753 C757 1.385 . S
C754 H735 0.951 . S
C754 C752 1.388 . S
C754 C755 1.366 . S
C755 C754 1.366 . S
C755 C756 1.414 . S
C755 C758 1.499 . S
C756 H736 0.950 . S
C756 C755 1.414 . S
C756 C757 1.374 . S
C757 H737 0.950 . S
C757 C753 1.385 . S
C757 C756 1.374 . S
C758 C755 1.499 . S
C758 C759 1.373 . S
C758 C760 1.389 . S
C759 H738 0.950 . S
C759 C758 1.373 . S
C759 C775 1.377 . S
C760 C758 1.389 . S
C760 C761 1.524 . S
C760 C774 1.377 . S
C761 C760 1.524 . S
C761 C762 1.397 . S
C761 C766 1.363 . S
C762 H739 0.950 . S
C762 C761 1.397 . S
C762 C763 1.334 . S
C763 H740 0.950 . S
C763 C762 1.334 . S
C763 C764 1.286 . S
C764 C763 1.286 . S
C764 C765 1.522 . S
C764 H783 0.906 1_654 S
C765 H741 0.934 1_554 S
C765 C764 1.522 . S
C765 C766 1.438 . S
C766 H742 0.950 . S
C766 C761 1.363 . S
C766 C765 1.438 . S
C767 H743 0.951 . S
C767 C768 1.366 . S
C767 C769 1.388 . S
C768 C767 1.366 . S
C768 C772 1.385 . S
C769 H744 0.951 1_556 S
C769 C767 1.388 . S
C769 C770 1.366 1_556 S
C770 C769 1.366 1_554 S
C770 C771 1.414 1_554 S
C770 C773 1.499 . S
C771 H745 0.950 . S
C771 C770 1.414 1_556 S
C771 C772 1.374 . S
C772 H746 0.950 . S
C772 C768 1.385 . S
C772 C771 1.374 . S
C773 C770 1.499 . S
C773 C774 1.373 . S
C773 C775 1.389 . S
C774 H747 0.955 . S
C774 C760 1.377 . S
C774 C773 1.373 . S
C775 C759 1.377 . S
C775 C773 1.389 . S
C775 C776 1.524 . S
C776 C775 1.524 . S
C776 C777 1.397 . S
C776 C781 1.363 . S
C777 H748 0.950 . S
C777 C776 1.397 . S
C777 C778 1.334 . S
C778 H749 0.950 . S
C778 C777 1.334 . S
C778 C779 1.287 . S
C779 C778 1.287 . S
C779 C780 1.524 . S
C779 H782 0.999 . S
C780 H750 0.950 . S
C780 C779 1.524 . S
C780 C781 1.415 . S
C781 H751 0.950 . S
C781 C776 1.363 . S
C781 C780 1.415 . S
H782 C779 0.999 . S
H783 C764 0.906 1_456 S
H784 C802 0.951 1_655 S
H785 C804 0.951 1_655 S
H786 C806 0.950 . S
H787 C807 0.950 1_545 S
H788 C809 0.950 . S
H789 C812 0.950 . S
H790 C813 0.950 . S
H791 C815 0.950 . S
H792 C816 0.950 . S
H793 C817 0.951 . S
H794 C819 0.951 . S
H795 C821 0.950 . S
H796 C822 0.950 . S
H797 C824 0.950 . S
H798 C827 0.950 . S
H799 C828 0.950 . S
H800 C830 0.950 . S
H801 C831 0.950 . S
C802 H784 0.951 1_455 S
C802 C803 1.366 . S
C802 C804 1.388 . S
C803 C802 1.366 . S
C803 C807 1.385 . S
C804 H785 0.951 1_455 S
C804 C802 1.388 . S
C804 C805 1.366 . S
C805 C804 1.366 . S
C805 C806 1.414 . S
C805 C808 1.499 . S
C806 H786 0.950 . S
C806 C805 1.414 . S
C806 C807 1.374 . S
C807 H787 0.950 1_565 S
C807 C803 1.385 . S
C807 C806 1.374 . S
C808 C805 1.499 . S
C808 C809 1.373 . S
C808 C810 1.389 . S
C809 H788 0.950 . S
C809 C808 1.373 . S
C809 C825 1.377 . S
C810 C808 1.389 . S
C810 C811 1.524 . S
C810 C824 1.377 . S
C811 C810 1.524 . S
C811 C812 1.397 . S
C811 C816 1.363 . S
C812 H789 0.950 . S
C812 C811 1.397 . S
C812 C813 1.334 . S
C813 H790 0.950 . S
C813 C812 1.334 . S
C813 C814 1.287 . S
C814 C813 1.287 . S
C814 C815 1.524 . S
C814 H833 0.913 . S
C815 H791 0.950 . S
C815 C814 1.524 . S
C815 C816 1.415 . S
C816 H792 0.950 . S
C816 C811 1.363 . S
C816 C815 1.415 . S
C817 H793 0.951 . S
C817 C818 1.366 . S
C817 C819 1.388 . S
C818 C817 1.366 . S
C818 C822 1.385 1_455 S
C819 H794 0.951 . S
C819 C817 1.388 . S
C819 C820 1.366 . S
C820 C819 1.366 . S
C820 C821 1.414 1_455 S
C820 C823 1.499 . S
C821 H795 0.950 . S
C821 C820 1.414 1_655 S
C821 C822 1.374 . S
C822 H796 0.950 . S
C822 C818 1.385 1_655 S
C822 C821 1.374 . S
C823 C820 1.499 . S
C823 C824 1.373 . S
C823 C825 1.389 . S
C824 H797 0.950 . S
C824 C810 1.377 . S
C824 C823 1.373 . S
C825 C809 1.377 . S
C825 C823 1.389 . S
C825 C826 1.524 . S
C826 C825 1.524 . S
C826 C827 1.397 1_455 S
C826 C831 1.363 . S
C827 H798 0.950 . S
C827 C826 1.397 1_655 S
C827 C828 1.334 . S
C828 H799 0.950 . S
C828 C827 1.334 . S
C828 C829 1.287 . S
C829 C828 1.287 . S
C829 C830 1.524 1_655 S
C829 H832 0.999 . S
C830 H800 0.950 . S
C830 C829 1.524 1_455 S
C830 C831 1.415 . S
C831 H801 0.950 . S
C831 C826 1.363 . S
C831 C830 1.415 . S
H832 C829 0.999 . S
H833 C814 0.913 . S
H834 C852 0.951 . S
H835 C854 0.951 . S
H836 C856 0.950 . S
H837 C857 0.950 . S
H838 C859 0.950 1_565 S
H839 C862 0.950 . S
H840 C863 0.950 . S
H841 C865 0.950 . S
H842 C866 0.950 . S
H843 C867 0.951 . S
H844 C869 0.951 . S
H845 C871 0.950 . S
H846 C872 0.950 . S
H847 C874 0.950 . S
H848 C877 0.950 . S
H849 C878 0.950 . S
H850 C880 0.950 . S
H851 C881 0.950 . S
C852 H834 0.951 . S
C852 C853 1.366 . S
C852 C854 1.388 . S
C853 C852 1.366 . S
C853 C857 1.385 . S
C854 H835 0.951 . S
C854 C852 1.388 . S
C854 C855 1.366 . S
C855 C854 1.366 . S
C855 C856 1.414 . S
C855 C858 1.499 . S
C856 H836 0.950 . S
C856 C855 1.414 . S
C856 C857 1.374 . S
C857 H837 0.950 . S
C857 C853 1.385 . S
C857 C856 1.374 . S
C858 C855 1.499 . S
C858 C859 1.373 . S
C858 C860 1.389 . S
C859 H838 0.950 1_545 S
C859 C858 1.373 . S
C859 C875 1.377 . S
C860 C858 1.389 . S
C860 C861 1.524 . S
C860 C874 1.377 . S
C861 C860 1.524 . S
C861 C862 1.397 . S
C861 C866 1.363 . S
C862 H839 0.950 . S
C862 C861 1.397 . S
C862 C863 1.334 . S
C863 H840 0.950 . S
C863 C862 1.334 . S
C863 C864 1.287 . S
C864 C863 1.287 . S
C864 C865 1.524 . S
C864 H883 0.913 . S
C865 H841 0.950 . S
C865 C864 1.524 . S
C865 C866 1.415 . S
C866 H842 0.950 . S
C866 C861 1.363 . S
C866 C865 1.415 . S
C867 H843 0.951 . S
C867 C868 1.366 . S
C867 C869 1.388 . S
C868 C867 1.366 . S
C868 C872 1.385 . S
C869 H844 0.951 . S
C869 C867 1.388 . S
C869 C870 1.366 . S
C870 C869 1.366 . S
C870 C871 1.414 . S
C870 C873 1.499 . S
C871 H845 0.950 . S
C871 C870 1.414 . S
C871 C872 1.374 . S
C872 H846 0.950 . S
C872 C868 1.385 . S
C872 C871 1.374 . S
C873 C870 1.499 . S
C873 C874 1.373 . S
C873 C875 1.389 . S
C874 H847 0.950 . S
C874 C860 1.377 . S
C874 C873 1.373 . S
C875 C859 1.377 . S
C875 C873 1.389 . S
C875 C876 1.524 1_545 S
C876 C875 1.524 1_565 S
C876 C877 1.397 . S
C876 C881 1.363 . S
C877 H848 0.950 . S
C877 C876 1.397 . S
C877 C878 1.334 . S
C878 H849 0.950 . S
C878 C877 1.334 . S
C878 C879 1.287 . S
C879 C878 1.287 . S
C879 C880 1.524 . S
C879 H882 0.999 . S
C880 H850 0.950 . S
C880 C879 1.524 . S
C880 C881 1.415 . S
C881 H851 0.950 . S
C881 C876 1.363 . S
C881 C880 1.415 . S
H882 C879 0.999 . S
H883 C864 0.913 . S
H884 C902 0.951 . S
H885 C904 0.951 . S
H886 C906 0.950 . S
H887 C907 0.950 . S
H888 C909 0.950 . S
H889 C912 0.950 . S
H890 C913 0.950 . S
H891 C915 0.950 . S
H892 C916 0.950 . S
H893 C917 0.951 . S
H894 C919 0.951 . S
H895 C921 0.909 1_554 S
H896 C922 0.950 . S
H897 C924 0.950 . S
H898 C927 0.950 . S
H899 C928 0.950 . S
H900 C930 0.950 . S
H901 C931 0.950 . S
C902 H884 0.951 . S
C902 C903 1.366 . S
C902 C904 1.388 . S
C903 C902 1.366 . S
C903 C907 1.385 . S
C904 H885 0.951 . S
C904 C902 1.388 . S
C904 C905 1.366 . S
C905 C904 1.366 . S
C905 C906 1.414 . S
C905 C908 1.499 . S
C906 H886 0.950 . S
C906 C905 1.414 . S
C906 C907 1.374 . S
C907 H887 0.950 . S
C907 C903 1.385 . S
C907 C906 1.374 . S
C908 C905 1.499 . S
C908 C909 1.373 . S
C908 C910 1.389 . S
C909 H888 0.950 . S
C909 C908 1.373 . S
C909 C925 1.377 . S
C910 C908 1.389 . S
C910 C911 1.524 . S
C910 C924 1.377 . S
C911 C910 1.524 . S
C911 C912 1.397 . S
C911 C916 1.363 . S
C912 H889 0.950 . S
C912 C911 1.397 . S
C912 C913 1.334 . S
C913 H890 0.950 . S
C913 C912 1.334 . S
C913 C914 1.287 . S
C914 C913 1.287 . S
C914 C915 1.524 . S
C914 H933 0.913 . S
C915 H891 0.950 . S
C915 C914 1.524 . S
C915 C916 1.415 . S
C916 H892 0.950 . S
C916 C911 1.363 . S
C916 C915 1.415 . S
C917 H893 0.951 . S
C917 C918 1.366 . S
C917 C919 1.388 . S
C918 C917 1.366 . S
C918 C922 1.385 . S
C919 H894 0.951 . S
C919 C917 1.388 . S
C919 C920 1.366 . S
C920 C919 1.366 . S
C920 C921 1.422 . S
C920 C923 1.499 1_556 S
C921 H895 0.909 1_556 S
C921 C920 1.422 . S
C921 C922 1.408 . S
C922 H896 0.950 . S
C922 C918 1.385 . S
C922 C921 1.408 . S
C923 C920 1.499 1_554 S
C923 C924 1.373 . S
C923 C925 1.389 . S
C924 H897 0.950 . S
C924 C910 1.377 . S
C924 C923 1.373 . S
C925 C909 1.377 . S
C925 C923 1.389 . S
C925 C926 1.524 1_554 S
C926 C925 1.524 1_556 S
C926 C927 1.397 . S
C926 C931 1.363 . S
C927 H898 0.950 . S
C927 C926 1.397 . S
C927 C928 1.334 . S
C928 H899 0.950 . S
C928 C927 1.334 . S
C928 C929 1.287 . S
C929 C928 1.287 . S
C929 C930 1.524 . S
C929 H932 0.999 . S
C930 H900 0.950 . S
C930 C929 1.524 . S
C930 C931 1.415 . S
C931 H901 0.950 . S
C931 C926 1.363 . S
C931 C930 1.415 . S
H932 C929 0.999 . S
H933 C914 0.913 . S
H934 C952 0.951 . S
H935 C954 0.951 . S
H936 C956 0.950 . S
H937 C957 0.950 . S
H938 C959 0.950 1_655 S
H939 C962 0.950 . S
H940 C963 0.950 . S
H941 C965 0.950 . S
H942 C966 0.950 . S
H943 C967 0.951 1_655 S
H944 C969 0.951 1_655 S
H945 C971 0.950 . S
H946 C972 0.950 . S
H947 C974 0.950 . S
H948 C977 0.950 . S
H949 C978 0.950 . S
H950 C980 0.950 . S
H951 C981 0.950 . S
C952 H934 0.951 . S
C952 C953 1.366 . S
C952 C954 1.388 . S
C953 C952 1.366 . S
C953 C957 1.385 . S
C954 H935 0.951 . S
C954 C952 1.388 . S
C954 C955 1.366 . S
C955 C954 1.366 . S
C955 C956 1.414 . S
C955 C958 1.499 . S
C956 H936 0.950 . S
C956 C955 1.414 . S
C956 C957 1.374 . S
C957 H937 0.950 . S
C957 C953 1.385 . S
C957 C956 1.374 . S
C958 C955 1.499 . S
C958 C959 1.373 . S
C958 C960 1.389 . S
C959 H938 0.950 1_455 S
C959 C958 1.373 . S
C959 C975 1.377 . S
C960 C958 1.389 . S
C960 C961 1.524 . S
C960 C974 1.377 . S
C961 C960 1.524 . S
C961 C962 1.397 . S
C961 C966 1.363 . S
C962 H939 0.950 . S
C962 C961 1.397 . S
C962 C963 1.334 . S
C963 H940 0.950 . S
C963 C962 1.334 . S
C963 C964 1.287 . S
C964 C963 1.287 . S
C964 C965 1.524 . S
C964 H983 0.913 . S
C965 H941 0.950 . S
C965 C964 1.524 . S
C965 C966 1.415 . S
C966 H942 0.950 . S
C966 C961 1.363 . S
C966 C965 1.415 . S
C967 H943 0.951 1_455 S
C967 C968 1.366 . S
C967 C969 1.388 . S
C968 C967 1.366 . S
C968 C972 1.385 . S
C969 H944 0.951 1_455 S
C969 C967 1.388 . S
C969 C970 1.366 . S
C970 C969 1.366 . S
C970 C971 1.414 . S
C970 C973 1.499 . S
C971 H945 0.950 . S
C971 C970 1.414 . S
C971 C972 1.374 . S
C972 H946 0.950 . S
C972 C968 1.385 . S
C972 C971 1.374 . S
C973 C970 1.499 . S
C973 C974 1.373 . S
C973 C975 1.389 . S
C974 H947 0.950 . S
C974 C960 1.377 . S
C974 C973 1.373 . S
C975 C959 1.377 . S
C975 C973 1.389 . S
C975 C976 1.524 1_455 S
C976 C975 1.524 1_655 S
C976 C977 1.397 . S
C976 C981 1.363 . S
C977 H948 0.950 . S
C977 C976 1.397 . S
C977 C978 1.334 . S
C978 H949 0.950 . S
C978 C977 1.334 . S
C978 C979 1.287 . S
C979 C978 1.287 . S
C979 C980 1.524 . S
C979 H982 0.999 . S
C980 H950 0.950 . S
C980 C979 1.524 . S
C980 C981 1.415 . S
C981 H951 0.950 . S
C981 C976 1.363 . S
C981 C980 1.415 . S
H982 C979 0.999 . S
H983 C964 0.913 . S
C418 C97 1.155 . S
C403 C3 1.583 . S
C453 C21 1.603 . S
C468 C211 1.202 . S
C503 C37 1.314 . S
C518 C271 1.037 . S
C553 C8 1.403 . S
C568 C71 1.136 . S
C618 C185 1.146 . S
C603 C23 1.409 . S
C653 C35 1.489 . S
C668 C281 0.951 . S
C718 C167 0.910 . S
C703 C31 1.494 . S
C753 C7 1.404 1_565 S
C768 C299 1.129 . S
C818 C43 1.051 . S
C803 C17 1.320 1_565 S
C868 C157 1.024 . S
C853 C36 1.290 . S
C918 C325 1.199 . S
C903 C9 1.570 . S
C953 C22 1.489 . S
C968 C53 0.895 . S
