# Generated by pormake.
# Topology ssa, (4,4)-cn, num edge types: 1
# Building blocks:
#     Node 0, Type 0, BuildingBlock: KOZSID_clean_sbu_0, # of connection points: 4
#     Node 1, Type 0, BuildingBlock: KOZSID_clean_sbu_0, # of connection points: 4
#     Node 2, Type 0, BuildingBlock: KOZSID_clean_sbu_0, # of connection points: 4
#     Node 3, Type 0, BuildingBlock: KOZSID_clean_sbu_0, # of connection points: 4
#     Node 4, Type 0, BuildingBlock: KOZSID_clean_sbu_0, # of connection points: 4
#     Node 5, Type 0, BuildingBlock: KOZSID_clean_sbu_0, # of connection points: 4
#     Node 6, Type 1, BuildingBlock: AZAVOO_clean_linker_0, # of connection points: 4
#     Node 7, Type 1, BuildingBlock: AZAVOO_clean_linker_0, # of connection points: 4
#     Node 8, Type 1, BuildingBlock: AZAVOO_clean_linker_0, # of connection points: 4
#     Node 9, Type 1, BuildingBlock: AZAVOO_clean_linker_0, # of connection points: 4
#     Node 10, Type 1, BuildingBlock: AZAVOO_clean_linker_0, # of connection points: 4
#     Node 11, Type 1, BuildingBlock: AZAVOO_clean_linker_0, # of connection points: 4
#     Edge 12, Type (0, 1), BuildingBlock: KIFKEQ_clean_linker_1, # of connection points: 2
#     Edge 13, Type (0, 1), BuildingBlock: KIFKEQ_clean_linker_1, # of connection points: 2
#     Edge 14, Type (0, 1), BuildingBlock: KIFKEQ_clean_linker_1, # of connection points: 2
#     Edge 15, Type (0, 1), BuildingBlock: KIFKEQ_clean_linker_1, # of connection points: 2
#     Edge 16, Type (0, 1), BuildingBlock: KIFKEQ_clean_linker_1, # of connection points: 2
#     Edge 17, Type (0, 1), BuildingBlock: KIFKEQ_clean_linker_1, # of connection points: 2
#     Edge 18, Type (0, 1), BuildingBlock: KIFKEQ_clean_linker_1, # of connection points: 2
#     Edge 19, Type (0, 1), BuildingBlock: KIFKEQ_clean_linker_1, # of connection points: 2
#     Edge 20, Type (0, 1), BuildingBlock: KIFKEQ_clean_linker_1, # of connection points: 2
#     Edge 21, Type (0, 1), BuildingBlock: KIFKEQ_clean_linker_1, # of connection points: 2
#     Edge 22, Type (0, 1), BuildingBlock: KIFKEQ_clean_linker_1, # of connection points: 2
#     Edge 23, Type (0, 1), BuildingBlock: KIFKEQ_clean_linker_1, # of connection points: 2
#     Edge 24, Type (0, 1), BuildingBlock: KIFKEQ_clean_linker_1, # of connection points: 2
#     Edge 25, Type (0, 1), BuildingBlock: KIFKEQ_clean_linker_1, # of connection points: 2
#     Edge 26, Type (0, 1), BuildingBlock: KIFKEQ_clean_linker_1, # of connection points: 2
#     Edge 27, Type (0, 1), BuildingBlock: KIFKEQ_clean_linker_1, # of connection points: 2
#     Edge 28, Type (0, 1), BuildingBlock: KIFKEQ_clean_linker_1, # of connection points: 2
#     Edge 29, Type (0, 1), BuildingBlock: KIFKEQ_clean_linker_1, # of connection points: 2
#     Edge 30, Type (0, 1), BuildingBlock: KIFKEQ_clean_linker_1, # of connection points: 2
#     Edge 31, Type (0, 1), BuildingBlock: KIFKEQ_clean_linker_1, # of connection points: 2
#     Edge 32, Type (0, 1), BuildingBlock: KIFKEQ_clean_linker_1, # of connection points: 2
#     Edge 33, Type (0, 1), BuildingBlock: KIFKEQ_clean_linker_1, # of connection points: 2
#     Edge 34, Type (0, 1), BuildingBlock: KIFKEQ_clean_linker_1, # of connection points: 2
#     Edge 35, Type (0, 1), BuildingBlock: KIFKEQ_clean_linker_1, # of connection points: 2
# Relax obj value: 0.069
# Max RMSD: 0.232
# Mean RMSD: 0.120
data_MOF--net-ssa--node1-KOZSID_clean_sbu_0--node2-AZAVOO_clean_linker_0--edge1-KIFKEQ_clean_linker_1
_symmetry_space_group_name_H-M    P1
_symmetry_Int_Tables_number       1
_symmetry_cell_setting            triclinic
loop_
_symmetry_equiv_pos_as_xyz
'x, y, z'
_cell_length_a     54.399088
_cell_length_b     55.948196
_cell_length_c     52.58182
_cell_angle_alpha  87.4677
_cell_angle_beta   92.597279
_cell_angle_gamma 122.39036
loop_
_atom_site_label
_atom_site_type_symbol
_atom_site_fract_x
_atom_site_fract_y
_atom_site_fract_z
_atom_type_partial_charge
C0 C 0.08624 0.55686 0.01375 0.0
C1 C 0.05953 0.5481 0.02405 0.0
C2 C 0.05567 0.52987 0.04377 0.0
C3 C 0.0802 0.52869 0.04446 0.0
N4 N 0.09978 0.54544 0.02664 0.0
Co5 Co 0.13843 0.55024 0.02084 0.0
N6 N 0.13159 0.52146 0.04839 0.0
C7 C 0.10801 0.50697 0.06326 0.0
C8 C 0.10977 0.48922 0.08094 0.0
C9 C 0.13606 0.49255 0.07728 0.0
C10 C 0.14885 0.51213 0.05732 0.0
N11 N 0.1771 0.55502 0.01513 0.0
C12 C 0.19008 0.54253 0.02723 0.0
C13 C 0.21712 0.55194 0.01733 0.0
C14 C 0.22157 0.57133 0.9985 0.0
C15 C 0.19707 0.57257 0.9979 0.0
N16 N 0.14504 0.57887 0.99319 0.0
C17 C 0.1689 0.59399 0.97879 0.0
C18 C 0.16655 0.611 0.96057 0.0
C19 C 0.13942 0.60623 0.96325 0.0
C20 C 0.12679 0.58657 0.9831 0.0
N21 N 0.15716 0.5808 0.04618 0.0
C22 C 0.18262 0.6246 0.0818 0.0
C23 C 0.19617 0.6275 0.05891 0.0
C24 C 0.18311 0.60558 0.04149 0.0
C25 C 0.15622 0.5993 0.08653 0.0
C26 C 0.14422 0.57785 0.06882 0.0
N27 N 0.11967 0.51994 0.99543 0.0
C28 C 0.11769 0.50324 0.95328 0.0
C29 C 0.08986 0.47965 0.95742 0.0
C30 C 0.07777 0.47583 0.98123 0.0
C31 C 0.09306 0.49592 0.9999 0.0
C32 C 0.13208 0.52307 0.97241 0.0
H33 H 0.08267 0.49185 0.01763 0.0
H34 H 0.15291 0.54105 0.96792 0.0
H35 H 0.19448 0.60924 0.02441 0.0
H36 H 0.12436 0.55916 0.07393 0.0
C37 C 0.08488 0.51109 0.06077 0.0
C38 C 0.09696 0.57475 0.99088 0.0
C39 C 0.17781 0.52184 0.04821 0.0
C40 C 0.19227 0.59019 0.98161 0.0
H41 H 0.04411 0.5538 0.01759 0.0
H42 H 0.03693 0.51832 0.05577 0.0
H43 H 0.09401 0.47581 0.09511 0.0
H44 H 0.1449 0.48201 0.08842 0.0
H45 H 0.23212 0.54552 0.02321 0.0
H46 H 0.24048 0.5832 0.98673 0.0
H47 H 0.18231 0.62456 0.94647 0.0
H48 H 0.12977 0.61565 0.95154 0.0
H49 H 0.21688 0.64648 0.05443 0.0
H50 H 0.14445 0.59602 0.10372 0.0
H51 H 0.12786 0.50691 0.93507 0.0
H52 H 0.05646 0.45748 0.98539 0.0
C53 C 0.61863 0.01796 0.60152 0.0
C54 C 0.61748 0.00272 0.6235 0.0
C55 C 0.59086 0.97805 0.62315 0.0
C56 C 0.57728 0.97962 0.60113 0.0
N57 N 0.59374 0.00373 0.58723 0.0
Co58 Co 0.58224 0.01518 0.55428 0.0
N59 N 0.54186 0.98051 0.55539 0.0
C60 C 0.53067 0.96018 0.57397 0.0
C61 C 0.50224 0.93906 0.56941 0.0
C62 C 0.49482 0.94624 0.5465 0.0
C63 C 0.5193 0.97139 0.53838 0.0
N64 N 0.57107 0.02629 0.52102 0.0
C65 C 0.54587 0.01255 0.50715 0.0
C66 C 0.54741 0.02722 0.48465 0.0
C67 C 0.57466 0.05101 0.48419 0.0
C68 C 0.58814 0.04948 0.50629 0.0
N69 N 0.62232 0.05021 0.55352 0.0
C70 C 0.63329 0.07095 0.53531 0.0
C71 C 0.66131 0.09264 0.54035 0.0
C72 C 0.66854 0.08563 0.56339 0.0
C73 C 0.64433 0.06001 0.57111 0.0
N74 N 0.59561 0.99429 0.53548 0.0
C75 C 0.61361 0.96392 0.50874 0.0
C76 C 0.62386 0.9922 0.50237 0.0
C77 C 0.61454 0.00684 0.51581 0.0
C78 C 0.5945 0.95124 0.52883 0.0
C79 C 0.58592 0.96665 0.54182 0.0
N80 N 0.56886 0.03593 0.57316 0.0
C81 C 0.56463 0.07643 0.57788 0.0
C82 C 0.55118 0.0656 0.6012 0.0
C83 C 0.54627 0.03959 0.61004 0.0
C84 C 0.55494 0.02513 0.59575 0.0
C85 C 0.57352 0.06146 0.56435 0.0
H86 H 0.55029 0.00532 0.60352 0.0
H87 H 0.58438 0.07105 0.54698 0.0
H88 H 0.62277 0.02818 0.50979 0.0
H89 H 0.57132 0.95559 0.55686 0.0
C90 C 0.54806 0.96043 0.59449 0.0
C91 C 0.64293 0.04656 0.59581 0.0
C92 C 0.52033 0.98525 0.51402 0.0
C93 C 0.61666 0.06959 0.51382 0.0
H94 H 0.63377 0.00908 0.63864 0.0
H95 H 0.582 0.9615 0.63775 0.0
H96 H 0.48875 0.92033 0.58105 0.0
H97 H 0.47393 0.93414 0.53665 0.0
H98 H 0.53064 0.02119 0.46997 0.0
H99 H 0.58365 0.06739 0.46944 0.0
H100 H 0.67472 0.11149 0.52881 0.0
H101 H 0.68913 0.09818 0.57361 0.0
H102 H 0.63851 0.00283 0.48673 0.0
H103 H 0.58625 0.92946 0.53467 0.0
H104 H 0.56893 0.09667 0.57046 0.0
H105 H 0.5356 0.03033 0.62793 0.0
C106 C 0.63642 0.5469 0.0378 0.0
C107 C 0.64154 0.5668 0.01858 0.0
C108 C 0.61879 0.5706 0.01827 0.0
C109 C 0.60105 0.55285 0.03713 0.0
N110 N 0.61115 0.53801 0.04963 0.0
Co111 Co 0.59166 0.50932 0.07801 0.0
N112 N 0.557 0.51313 0.07581 0.0
C113 C 0.55187 0.52859 0.05842 0.0
C114 C 0.52615 0.52697 0.06163 0.0
C115 C 0.51426 0.50967 0.08252 0.0
C116 C 0.53363 0.50189 0.09094 0.0
N117 N 0.57271 0.48158 0.10717 0.0
C118 C 0.54838 0.4742 0.11993 0.0
C119 C 0.54412 0.4559 0.14037 0.0
C120 C 0.56666 0.45175 0.14069 0.0
C121 C 0.58342 0.46781 0.12063 0.0
N122 N 0.6258 0.50467 0.07952 0.0
C123 C 0.62959 0.4871 0.09536 0.0
C124 C 0.65462 0.48769 0.09138 0.0
C125 C 0.6674 0.50639 0.0715 0.0
C126 C 0.64927 0.51609 0.06442 0.0
N127 N 0.61107 0.54018 0.10292 0.0
C128 C 0.63431 0.58154 0.14071 0.0
C129 C 0.63839 0.5589 0.14234 0.0
C130 C 0.62674 0.53867 0.12339 0.0
C131 C 0.61923 0.58361 0.11935 0.0
C132 C 0.60803 0.56297 0.10079 0.0
N133 N 0.57218 0.47831 0.05309 0.0
C134 C 0.5564 0.43085 0.04092 0.0
C135 C 0.54893 0.4357 0.0163 0.0
C136 C 0.55232 0.46197 0.01078 0.0
C137 C 0.56359 0.48263 0.02933 0.0
C138 C 0.568 0.45225 0.05878 0.0
H139 H 0.56563 0.50211 0.02377 0.0
H140 H 0.57376 0.44725 0.07692 0.0
H141 H 0.63035 0.5218 0.12594 0.0
H142 H 0.59649 0.5656 0.08513 0.0
C143 C 0.57323 0.54713 0.04142 0.0
C144 C 0.65509 0.53571 0.04292 0.0
C145 C 0.52953 0.48498 0.11409 0.0
C146 C 0.60955 0.47077 0.11415 0.0
H147 H 0.65931 0.57689 0.00548 0.0
H148 H 0.61499 0.58379 0.0051 0.0
H149 H 0.51765 0.53799 0.05075 0.0
H150 H 0.49405 0.50407 0.09104 0.0
H151 H 0.52684 0.44692 0.15397 0.0
H152 H 0.57068 0.43903 0.15426 0.0
H153 H 0.66258 0.47586 0.10165 0.0
H154 H 0.68767 0.51208 0.06303 0.0
H155 H 0.65046 0.55667 0.15822 0.0
H156 H 0.61528 0.60063 0.11723 0.0
H157 H 0.55354 0.41066 0.04649 0.0
H158 H 0.54713 0.46704 0.99199 0.0
C159 C 0.98372 0.41831 0.56123 0.0
C160 C 0.95574 0.39647 0.55472 0.0
C161 C 0.94761 0.40528 0.53315 0.0
C162 C 0.97105 0.43183 0.5277 0.0
N163 N 0.99378 0.44038 0.54433 0.0
Co164 Co 0.03206 0.47754 0.54377 0.0
N165 N 0.01837 0.49232 0.51464 0.0
C166 C 0.99161 0.47885 0.50324 0.0
C167 C 0.98842 0.49453 0.48414 0.0
C168 C 0.01476 0.51946 0.48315 0.0
C169 C 0.03263 0.51743 0.50165 0.0
N170 N 0.07071 0.51432 0.54265 0.0
C171 C 0.08043 0.53687 0.52631 0.0
C172 C 0.10958 0.55727 0.53115 0.0
C173 C 0.11855 0.54732 0.55125 0.0
C174 C 0.09461 0.52144 0.5574 0.0
N175 N 0.04525 0.46316 0.57365 0.0
C176 C 0.07158 0.47698 0.58578 0.0
C177 C 0.07366 0.46257 0.60666 0.0
C178 C 0.04685 0.43827 0.60831 0.0
C179 C 0.02999 0.43925 0.58815 0.0
N180 N 0.04677 0.46197 0.51946 0.0
C181 C 0.07094 0.44555 0.4829 0.0
C182 C 0.08387 0.45365 0.50708 0.0
C183 C 0.07162 0.46185 0.52488 0.0
C184 C 0.04509 0.44461 0.47763 0.0
C185 C 0.03325 0.45243 0.49616 0.0
N186 N 0.01751 0.49319 0.56786 0.0
C187 C 0.02503 0.521 0.60468 0.0
C188 C 0.99625 0.51414 0.60293 0.0
C189 C 0.97844 0.49691 0.58309 0.0
C190 C 0.98941 0.48676 0.56594 0.0
C191 C 0.03513 0.5104 0.5871 0.0
H192 H 0.97468 0.47362 0.55134 0.0
H193 H 0.05719 0.51617 0.58958 0.0
H194 H 0.08308 0.46856 0.54264 0.0
H195 H 0.01339 0.45098 0.49093 0.0
C196 C 0.97084 0.45063 0.50945 0.0
C197 C 0.99927 0.41766 0.58427 0.0
C198 C 0.06328 0.53942 0.50542 0.0
C199 C 0.09377 0.50363 0.57723 0.0
H200 H 0.94233 0.3766 0.56496 0.0
H201 H 0.92663 0.39419 0.52331 0.0
H202 H 0.96945 0.48828 0.47194 0.0
H203 H 0.02039 0.53695 0.46995 0.0
H204 H 0.12317 0.57716 0.52104 0.0
H205 H 0.14004 0.55763 0.56017 0.0
H206 H 0.09226 0.4692 0.61945 0.0
H207 H 0.04032 0.42195 0.62299 0.0
H208 H 0.10397 0.45467 0.51195 0.0
H209 H 0.03409 0.43797 0.45923 0.0
H210 H 0.03961 0.53401 0.61989 0.0
H211 H 0.9561 0.49132 0.58067 0.0
C212 C 0.53247 0.03352 0.13279 0.0
C213 C 0.53466 0.04852 0.154 0.0
C214 C 0.55983 0.07441 0.15186 0.0
C215 C 0.5716 0.07372 0.12962 0.0
N216 N 0.5553 0.04907 0.11721 0.0
Co217 Co 0.56507 0.0384 0.0849 0.0
N218 N 0.6036 0.07534 0.08323 0.0
C219 C 0.61439 0.0969 0.09964 0.0
C220 C 0.64132 0.11959 0.09347 0.0
C221 C 0.64818 0.11217 0.07177 0.0
C222 C 0.62493 0.08524 0.06597 0.0
N223 N 0.57482 0.02757 0.05271 0.0
C224 C 0.59892 0.04198 0.03843 0.0
C225 C 0.59703 0.02666 0.01755 0.0
C226 C 0.57071 0.00175 0.01855 0.0
C227 C 0.55812 0.00322 0.03992 0.0
N228 N 0.52658 0.00146 0.08659 0.0
C229 C 0.51506 0.98047 0.0695 0.0
C230 C 0.48845 0.95752 0.07601 0.0
C231 C 0.48275 0.964 0.09882 0.0
C232 C 0.5064 0.99061 0.10495 0.0
N233 N 0.54671 0.05581 0.06435 0.0
C234 C 0.52734 0.08358 0.03095 0.0
C235 C 0.51956 0.0559 0.02666 0.0
C236 C 0.52922 0.04249 0.04352 0.0
C237 C 0.5434 0.09647 0.05312 0.0
C238 C 0.55269 0.08227 0.06947 0.0
N239 N 0.58367 0.02126 0.10513 0.0
C240 C 0.59224 0.98333 0.11238 0.0
C241 C 0.61228 0.998 0.13209 0.0
C242 C 0.61732 0.02428 0.13843 0.0
C243 C 0.60288 0.03542 0.12482 0.0
C244 C 0.57823 0.99519 0.09934 0.0
H245 H 0.60775 0.05561 0.13042 0.0
H246 H 0.56314 0.98291 0.08459 0.0
H247 H 0.52279 0.02161 0.03888 0.0
H248 H 0.56534 0.0935 0.08571 0.0
C249 C 0.59876 0.09511 0.12076 0.0
C250 C 0.50913 0.00414 0.12888 0.0
C251 C 0.62391 0.07023 0.04361 0.0
C252 C 0.53061 0.98216 0.04836 0.0
H253 H 0.51995 0.0413 0.16972 0.0
H254 H 0.56892 0.09139 0.1653 0.0
H255 H 0.65438 0.13921 0.10353 0.0
H256 H 0.668 0.12515 0.06131 0.0
H257 H 0.61301 0.03291 0.00302 0.0
H258 H 0.56178 0.98462 0.00527 0.0
H259 H 0.47514 0.93808 0.06574 0.0
H260 H 0.46361 0.95045 0.10995 0.0
H261 H 0.50643 0.04472 0.01009 0.0
H262 H 0.54986 0.11788 0.05735 0.0
H263 H 0.58709 0.96259 0.10716 0.0
H264 H 0.6327 0.03648 0.15354 0.0
C265 C 0.58787 0.59972 0.55999 0.0
C266 C 0.58219 0.62095 0.5621 0.0
C267 C 0.56144 0.61177 0.58004 0.0
C268 C 0.55573 0.58561 0.58785 0.0
N269 N 0.57198 0.57773 0.57636 0.0
Co270 Co 0.56955 0.54072 0.58088 0.0
N271 N 0.53736 0.52619 0.60581 0.0
C272 C 0.52522 0.54009 0.61399 0.0
C273 C 0.50524 0.52567 0.6326 0.0
C274 C 0.50498 0.50133 0.63697 0.0
C275 C 0.52477 0.50223 0.62057 0.0
N276 N 0.56669 0.5035 0.58493 0.0
C277 C 0.5505 0.48131 0.60097 0.0
C278 C 0.55492 0.4594 0.59771 0.0
C279 C 0.57534 0.46844 0.57948 0.0
C280 C 0.58202 0.49513 0.57255 0.0
N281 N 0.60217 0.55543 0.55642 0.0
C282 C 0.61511 0.54198 0.549 0.0
C283 C 0.63627 0.55709 0.53144 0.0
C284 C 0.63664 0.58149 0.52708 0.0
C285 C 0.6156 0.57986 0.54235 0.0
N286 N 0.59827 0.5558 0.60976 0.0
C287 C 0.63496 0.57171 0.65345 0.0
C288 C 0.6368 0.55597 0.63466 0.0
C289 C 0.61867 0.54861 0.61301 0.0
C290 C 0.61541 0.58049 0.64958 0.0
C291 C 0.59726 0.57222 0.62779 0.0
N292 N 0.54077 0.52551 0.55204 0.0
C293 C 0.5252 0.50281 0.51127 0.0
C294 C 0.50191 0.50674 0.50957 0.0
C295 C 0.49802 0.51968 0.52983 0.0
C296 C 0.51748 0.52873 0.55072 0.0
C297 C 0.54417 0.51228 0.53242 0.0
H298 H 0.51347 0.53865 0.56538 0.0
H299 H 0.56161 0.50891 0.53226 0.0
H300 H 0.62122 0.53663 0.59941 0.0
H301 H 0.58221 0.57887 0.62626 0.0
C302 C 0.53446 0.56746 0.60512 0.0
C303 C 0.60758 0.60093 0.5414 0.0
C304 C 0.53237 0.48084 0.62082 0.0
C305 C 0.60464 0.51393 0.55659 0.0
H306 H 0.59164 0.64075 0.55134 0.0
H307 H 0.55122 0.62255 0.5862 0.0
H308 H 0.49315 0.53254 0.6425 0.0
H309 H 0.49231 0.48525 0.65123 0.0
H310 H 0.54513 0.43936 0.60811 0.0
H311 H 0.58506 0.45736 0.57286 0.0
H312 H 0.64897 0.55057 0.52204 0.0
H313 H 0.65015 0.5981 0.51352 0.0
H314 H 0.65214 0.54924 0.6367 0.0
H315 H 0.61343 0.59286 0.6637 0.0
H316 H 0.52887 0.49243 0.49632 0.0
H317 H 0.48046 0.52347 0.52936 0.0
H318 H 0.29973 0.46442 0.45562 0.0
H319 H 0.10454 0.38622 0.21432 0.0
H320 H 0.34264 0.49465 0.31845 0.0
H321 H 0.38041 0.5052 0.35098 0.0
H322 H 0.36048 0.41954 0.34756 0.0
H323 H 0.3228 0.40927 0.31463 0.0
H324 H 0.28572 0.47855 0.34607 0.0
H325 H 0.29195 0.4801 0.3925 0.0
H326 H 0.28369 0.39876 0.39334 0.0
H327 H 0.27722 0.39739 0.34695 0.0
H328 H 0.23273 0.46807 0.30478 0.0
H329 H 0.19617 0.46417 0.33311 0.0
H330 H 0.1831 0.38582 0.36488 0.0
H331 H 0.21882 0.38914 0.33566 0.0
H332 H 0.24359 0.47329 0.25024 0.0
H333 H 0.19975 0.46569 0.22764 0.0
H334 H 0.15406 0.37704 0.25001 0.0
H335 H 0.19823 0.38486 0.27223 0.0
H336 H 0.30471 0.48974 0.23556 0.0
H337 H 0.29551 0.5 0.19194 0.0
H338 H 0.23433 0.41054 0.18059 0.0
H339 H 0.24309 0.4007 0.22478 0.0
H340 H 0.3543 0.49199 0.26752 0.0
H341 H 0.39379 0.49859 0.24144 0.0
H342 H 0.34052 0.41111 0.21947 0.0
H343 H 0.30115 0.40489 0.24535 0.0
O344 O 0.29688 0.46323 0.43732 0.0
O345 O 0.2924 0.42135 0.4367 0.0
O346 O 0.14676 0.43552 0.21194 0.0
O347 O 0.12218 0.38983 0.22315 0.0
C348 C 0.30244 0.4433 0.30054 0.0
C349 C 0.27843 0.43753 0.31496 0.0
C350 C 0.25265 0.43279 0.30261 0.0
C351 C 0.25101 0.43402 0.27573 0.0
C352 C 0.27506 0.43973 0.26129 0.0
C353 C 0.3006 0.44382 0.2737 0.0
C354 C 0.3301 0.45124 0.31421 0.0
C355 C 0.34717 0.47848 0.32405 0.0
C356 C 0.36843 0.48434 0.34285 0.0
C357 C 0.37295 0.46301 0.35214 0.0
C358 C 0.35747 0.43637 0.34072 0.0
C359 C 0.33609 0.4305 0.32185 0.0
C360 C 0.28103 0.43787 0.34322 0.0
C361 C 0.28506 0.46102 0.35637 0.0
C362 C 0.28871 0.46188 0.38286 0.0
C363 C 0.28839 0.43958 0.39663 0.0
C364 C 0.28409 0.4163 0.38333 0.0
C365 C 0.2804 0.41545 0.35685 0.0
C366 C 0.22839 0.42883 0.31804 0.0
C367 C 0.22143 0.44966 0.31734 0.0
C368 C 0.20065 0.44747 0.33357 0.0
C369 C 0.18694 0.42473 0.35116 0.0
C370 C 0.19351 0.40361 0.35154 0.0
C371 C 0.21383 0.40548 0.3349 0.0
C372 C 0.22412 0.42957 0.26268 0.0
C373 C 0.22413 0.45222 0.25012 0.0
C374 C 0.19903 0.44784 0.23729 0.0
C375 C 0.1734 0.42072 0.23696 0.0
C376 C 0.17343 0.39816 0.24984 0.0
C377 C 0.19859 0.40257 0.26259 0.0
C378 C 0.27442 0.44453 0.23335 0.0
C379 C 0.28997 0.4723 0.22341 0.0
C380 C 0.28467 0.47809 0.19838 0.0
C381 C 0.26385 0.45614 0.18274 0.0
C382 C 0.25003 0.42803 0.19224 0.0
C383 C 0.2552 0.42229 0.21738 0.0
C384 C 0.32495 0.44791 0.25846 0.0
C385 C 0.35132 0.47422 0.25725 0.0
C386 C 0.37385 0.47792 0.24236 0.0
C387 C 0.37034 0.45537 0.22834 0.0
C388 C 0.34384 0.42902 0.22973 0.0
C389 C 0.32138 0.42536 0.24461 0.0
C390 C 0.29265 0.44072 0.42474 0.0
C391 C 0.14672 0.41592 0.22325 0.0
H392 H 0.89363 0.28959 0.97843 0.0
H393 H 0.69943 0.03771 0.81155 0.0
H394 H 0.87725 0.2909 0.84082 0.0
H395 H 0.92074 0.33579 0.85285 0.0
H396 H 0.97454 0.30476 0.83186 0.0
H397 H 0.93052 0.25941 0.8204 0.0
H398 H 0.83575 0.24826 0.87929 0.0
H399 H 0.85361 0.26716 0.92188 0.0
H400 H 0.92279 0.25133 0.91669 0.0
H401 H 0.90448 0.23218 0.87424 0.0
H402 H 0.78056 0.19686 0.85105 0.0
H403 H 0.74688 0.17337 0.88587 0.0
H404 H 0.80487 0.1506 0.92171 0.0
H405 H 0.83866 0.17427 0.88643 0.0
H406 H 0.77021 0.17848 0.79932 0.0
H407 H 0.72585 0.13195 0.79305 0.0
H408 H 0.76928 0.09222 0.82763 0.0
H409 H 0.81366 0.13891 0.83341 0.0
H410 H 0.81239 0.22445 0.765 0.0
H411 H 0.78346 0.20036 0.72688 0.0
H412 H 0.80808 0.13877 0.73676 0.0
H413 H 0.83712 0.1631 0.77489 0.0
H414 H 0.86543 0.2807 0.78609 0.0
H415 H 0.88773 0.31027 0.74811 0.0
H416 H 0.91693 0.25559 0.72771 0.0
H417 H 0.89496 0.22638 0.76619 0.0
O418 O 0.88686 0.28191 0.96163 0.0
O419 O 0.9221 0.27347 0.95795 0.0
O420 O 0.69541 0.07785 0.79601 0.0
O421 O 0.71669 0.05639 0.81379 0.0
C422 C 0.87421 0.24355 0.82636 0.0
C423 C 0.85812 0.22753 0.84782 0.0
C424 C 0.83169 0.20132 0.84446 0.0
C425 C 0.82242 0.19024 0.81985 0.0
C426 C 0.83855 0.20622 0.79841 0.0
C427 C 0.86408 0.23322 0.80159 0.0
C428 C 0.90082 0.27193 0.82999 0.0
C429 C 0.89847 0.29399 0.83846 0.0
C430 C 0.92337 0.31969 0.84512 0.0
C431 C 0.95114 0.32384 0.84335 0.0
C432 C 0.95345 0.30208 0.83367 0.0
C433 C 0.92842 0.2763 0.82698 0.0
C434 C 0.8687 0.23868 0.8738 0.0
C435 C 0.85461 0.2487 0.88749 0.0
C436 C 0.86493 0.25957 0.91176 0.0
C437 C 0.88961 0.26073 0.92271 0.0
C438 C 0.90371 0.25071 0.90885 0.0
C439 C 0.89331 0.23977 0.88461 0.0
C440 C 0.81188 0.18701 0.8661 0.0
C441 C 0.78591 0.18663 0.86632 0.0
C442 C 0.76669 0.17315 0.88619 0.0
C443 C 0.77311 0.15991 0.9064 0.0
C444 C 0.79942 0.16071 0.90641 0.0
C445 C 0.81865 0.1741 0.88631 0.0
C446 C 0.79523 0.16201 0.81654 0.0
C447 C 0.77016 0.15969 0.80534 0.0
C448 C 0.74482 0.13309 0.80189 0.0
C449 C 0.74404 0.10834 0.80978 0.0
C450 C 0.76915 0.11082 0.82128 0.0
C451 C 0.79451 0.13745 0.82464 0.0
C452 C 0.82677 0.19547 0.77263 0.0
C453 C 0.81227 0.2063 0.75846 0.0
C454 C 0.79557 0.19239 0.7369 0.0
C455 C 0.79333 0.16756 0.72913 0.0
C456 C 0.80959 0.15794 0.74231 0.0
C457 C 0.82614 0.17177 0.76401 0.0
C458 C 0.87877 0.25154 0.77897 0.0
C459 C 0.87691 0.27529 0.77355 0.0
C460 C 0.88939 0.29196 0.75171 0.0
C461 C 0.90397 0.28519 0.73481 0.0
C462 C 0.90606 0.2615 0.74045 0.0
C463 C 0.89347 0.24475 0.76233 0.0
C464 C 0.90058 0.27239 0.94847 0.0
C465 C 0.71721 0.08001 0.80607 0.0
H466 H 0.68367 0.76563 0.15426 0.0
H467 H 0.7161 0.98739 0.34889 0.0
H468 H 0.64006 0.74616 0.29752 0.0
H469 H 0.63516 0.70599 0.27623 0.0
H470 H 0.7288 0.74653 0.27881 0.0
H471 H 0.7334 0.78697 0.29997 0.0
H472 H 0.65096 0.78004 0.25422 0.0
H473 H 0.6559 0.76866 0.21109 0.0
H474 H 0.74913 0.82722 0.21739 0.0
H475 H 0.74384 0.8382 0.26063 0.0
H476 H 0.64743 0.82677 0.26328 0.0
H477 H 0.64096 0.85625 0.23159 0.0
H478 H 0.73123 0.92307 0.24249 0.0
H479 H 0.73753 0.89308 0.27429 0.0
H480 H 0.64553 0.84992 0.32289 0.0
H481 H 0.64428 0.89147 0.33336 0.0
H482 H 0.73845 0.94228 0.33439 0.0
H483 H 0.73932 0.90046 0.32417 0.0
H484 H 0.63738 0.80082 0.36109 0.0
H485 H 0.62492 0.81827 0.39693 0.0
H486 H 0.71524 0.88588 0.40575 0.0
H487 H 0.72765 0.86721 0.37077 0.0
H488 H 0.63503 0.75367 0.34198 0.0
H489 H 0.62329 0.71949 0.37714 0.0
H490 H 0.7125 0.76894 0.40505 0.0
H491 H 0.72399 0.80314 0.36964 0.0
O492 O 0.68219 0.77062 0.17126 0.0
O493 O 0.72996 0.80124 0.17533 0.0
O494 O 0.66757 0.94359 0.34398 0.0
O495 O 0.71594 0.97068 0.34454 0.0
C496 C 0.68996 0.79618 0.30703 0.0
C497 C 0.69423 0.81574 0.28708 0.0
C498 C 0.6951 0.84066 0.29223 0.0
C499 C 0.69314 0.84678 0.31749 0.0
C500 C 0.68909 0.82737 0.33755 0.0
C501 C 0.68698 0.80178 0.33227 0.0
C502 C 0.68704 0.76925 0.30064 0.0
C503 C 0.65943 0.74581 0.29452 0.0
C504 C 0.65671 0.7229 0.2822 0.0
C505 C 0.68162 0.72312 0.27565 0.0
C506 C 0.70922 0.74589 0.28332 0.0
C507 C 0.7119 0.76882 0.29569 0.0
C508 C 0.69707 0.80978 0.26053 0.0
C509 C 0.67241 0.79035 0.24623 0.0
C510 C 0.67531 0.78392 0.2216 0.0
C511 C 0.70293 0.79696 0.21081 0.0
C512 C 0.72756 0.81675 0.22514 0.0
C513 C 0.72461 0.82312 0.24979 0.0
C514 C 0.69293 0.8578 0.27099 0.0
C515 C 0.66597 0.84754 0.25843 0.0
C516 C 0.66234 0.86441 0.2403 0.0
C517 C 0.68561 0.89198 0.23452 0.0
C518 C 0.71288 0.90198 0.2467 0.0
C519 C 0.71655 0.88491 0.26475 0.0
C520 C 0.6925 0.8723 0.3227 0.0
C521 C 0.66583 0.87009 0.32528 0.0
C522 C 0.6652 0.89383 0.33129 0.0
C523 C 0.69129 0.92022 0.33472 0.0
C524 C 0.71797 0.92231 0.33188 0.0
C525 C 0.71855 0.89852 0.32595 0.0
C526 C 0.6834 0.83278 0.36332 0.0
C527 C 0.65466 0.81859 0.37154 0.0
C528 C 0.64753 0.82893 0.39173 0.0
C529 C 0.66897 0.85392 0.40378 0.0
C530 C 0.69819 0.86657 0.39697 0.0
C531 C 0.70536 0.85595 0.37697 0.0
C532 C 0.68048 0.78055 0.353 0.0
C533 C 0.65215 0.75682 0.3554 0.0
C534 C 0.64549 0.73736 0.37555 0.0
C535 C 0.66701 0.7414 0.39382 0.0
C536 C 0.69541 0.76533 0.39138 0.0
C537 C 0.70207 0.78475 0.37112 0.0
C538 C 0.70596 0.78983 0.18475 0.0
C539 C 0.69076 0.94545 0.34134 0.0
H540 H 0.81338 0.64097 0.67802 0.0
H541 H 0.00829 0.55518 0.83947 0.0
H542 H 0.84597 0.6471 0.81381 0.0
H543 H 0.80491 0.64881 0.79522 0.0
H544 H 0.74974 0.5578 0.80452 0.0
H545 H 0.79063 0.55662 0.82385 0.0
H546 H 0.88241 0.6461 0.76867 0.0
H547 H 0.8605 0.65199 0.72907 0.0
H548 H 0.78937 0.56457 0.7355 0.0
H549 H 0.81171 0.55892 0.77486 0.0
H550 H 0.93652 0.63123 0.77776 0.0
H551 H 0.95578 0.6193 0.74242 0.0
H552 H 0.87522 0.53769 0.73749 0.0
H553 H 0.85661 0.54947 0.7731 0.0
H554 H 0.95264 0.63656 0.83536 0.0
H555 H 0.99468 0.63174 0.84155 0.0
H556 H 0.93962 0.54262 0.82532 0.0
H557 H 0.89773 0.54773 0.8194 0.0
H558 H 0.92162 0.63636 0.87917 0.0
H559 H 0.95589 0.63302 0.90863 0.0
H560 H 0.90732 0.54241 0.89963 0.0
H561 H 0.87328 0.54598 0.87017 0.0
H562 H 0.85696 0.63518 0.87521 0.0
H563 H 0.82493 0.62569 0.91091 0.0
H564 H 0.7878 0.53595 0.90388 0.0
H565 H 0.81992 0.54562 0.86851 0.0
O566 O 0.82211 0.63797 0.69329 0.0
O567 O 0.78588 0.593 0.69768 0.0
O568 O 0.01968 0.60388 0.84415 0.0
O569 O 0.99219 0.55783 0.83649 0.0
C570 C 0.84723 0.59961 0.82239 0.0
C571 C 0.86047 0.59953 0.79983 0.0
C572 C 0.88456 0.59647 0.80125 0.0
C573 C 0.89643 0.59511 0.82525 0.0
C574 C 0.8829 0.59466 0.84781 0.0
C575 C 0.85778 0.59613 0.84639 0.0
C576 C 0.82123 0.60173 0.82005 0.0
C577 C 0.82464 0.62775 0.81292 0.0
C578 C 0.80125 0.6286 0.80194 0.0
C579 C 0.77418 0.60337 0.79775 0.0
C580 C 0.77016 0.57769 0.80751 0.0
C581 C 0.79351 0.57692 0.81869 0.0
C582 C 0.84858 0.60215 0.77461 0.0
C583 C 0.8623 0.62818 0.76128 0.0
C584 C 0.84965 0.6315 0.73876 0.0
C585 C 0.82307 0.6088 0.72921 0.0
C586 C 0.80978 0.58251 0.74236 0.0
C587 C 0.82251 0.57921 0.76482 0.0
C588 C 0.89516 0.59123 0.77792 0.0
C589 C 0.92298 0.61095 0.76879 0.0
C590 C 0.93387 0.60412 0.74859 0.0
C591 C 0.9171 0.57744 0.73732 0.0
C592 C 0.88886 0.55822 0.74602 0.0
C593 C 0.87805 0.56503 0.76615 0.0
C594 C 0.92224 0.5925 0.82694 0.0
C595 C 0.9498 0.61608 0.83297 0.0
C596 C 0.97373 0.61324 0.83653 0.0
C597 C 0.97049 0.58676 0.83399 0.0
C598 C 0.94287 0.5633 0.82744 0.0
C599 C 0.91894 0.56616 0.82394 0.0
C600 C 0.89507 0.59142 0.87253 0.0
C601 C 0.91752 0.61565 0.88464 0.0
C602 C 0.93722 0.61372 0.90128 0.0
C603 C 0.93461 0.58752 0.90589 0.0
C604 C 0.91011 0.56292 0.89601 0.0
C605 C 0.89039 0.56485 0.87952 0.0
C606 C 0.84079 0.59108 0.86943 0.0
C607 C 0.8422 0.61355 0.8817 0.0
C608 C 0.82396 0.60809 0.90204 0.0
C609 C 0.80378 0.58007 0.91006 0.0
C610 C 0.80293 0.55772 0.89796 0.0
C611 C 0.82136 0.5632 0.87791 0.0
C612 C 0.80917 0.61265 0.70578 0.0
C613 C 0.99567 0.58347 0.83848 0.0
H614 H 0.26145 0.8209 0.48858 0.0
H615 H 0.14146 0.63065 0.25303 0.0
H616 H 0.29776 0.8647 0.35681 0.0
H617 H 0.33805 0.89972 0.38381 0.0
H618 H 0.38756 0.86245 0.36787 0.0
H619 H 0.34733 0.82765 0.34123 0.0
H620 H 0.23768 0.80882 0.37872 0.0
H621 H 0.24077 0.81494 0.42481 0.0
H622 H 0.31222 0.8017 0.43044 0.0
H623 H 0.30861 0.79524 0.38441 0.0
H624 H 0.19029 0.75533 0.34608 0.0
H625 H 0.15533 0.71452 0.37216 0.0
H626 H 0.22331 0.69963 0.39579 0.0
H627 H 0.25753 0.73955 0.36894 0.0
H628 H 0.19381 0.76124 0.2936 0.0
H629 H 0.15475 0.71854 0.27279 0.0
H630 H 0.20516 0.67975 0.28447 0.0
H631 H 0.24402 0.72262 0.30519 0.0
H632 H 0.23553 0.79886 0.26002 0.0
H633 H 0.22548 0.78055 0.21671 0.0
H634 H 0.28765 0.75548 0.22953 0.0
H635 H 0.29688 0.77298 0.2729 0.0
H636 H 0.29759 0.86326 0.28514 0.0
H637 H 0.33551 0.89699 0.25603 0.0
H638 H 0.37828 0.85051 0.26582 0.0
H639 H 0.33998 0.81671 0.29432 0.0
O640 O 0.26048 0.81822 0.47041 0.0
O641 O 0.29727 0.81148 0.47225 0.0
O642 O 0.1314 0.66858 0.2558 0.0
O643 O 0.15641 0.64766 0.26137 0.0
C644 C 0.29382 0.8196 0.33471 0.0
C645 C 0.27135 0.79863 0.35021 0.0
C646 C 0.24752 0.7742 0.33912 0.0
C647 C 0.24572 0.77118 0.31251 0.0
C648 C 0.26809 0.79218 0.29704 0.0
C649 C 0.29228 0.81627 0.30812 0.0
C650 C 0.31982 0.84391 0.34684 0.0
C651 C 0.31765 0.86466 0.35867 0.0
C652 C 0.34053 0.88443 0.37421 0.0
C653 C 0.36591 0.88377 0.37799 0.0
C654 C 0.3685 0.86381 0.36502 0.0
C655 C 0.34559 0.84398 0.34967 0.0
C656 C 0.27307 0.80184 0.37824 0.0
C657 C 0.25392 0.80718 0.38998 0.0
C658 C 0.25577 0.81071 0.41628 0.0
C659 C 0.27683 0.80893 0.4313 0.0
C660 C 0.29583 0.80331 0.41943 0.0
C661 C 0.29388 0.7997 0.39315 0.0
C662 C 0.22638 0.7503 0.3556 0.0
C663 C 0.19749 0.74312 0.35685 0.0
C664 C 0.17765 0.71995 0.37189 0.0
C665 C 0.18647 0.70368 0.38598 0.0
C666 C 0.21561 0.71131 0.38485 0.0
C667 C 0.23529 0.7343 0.36972 0.0
C668 C 0.22159 0.74487 0.30091 0.0
C669 C 0.19625 0.74341 0.29174 0.0
C670 C 0.17404 0.71904 0.27984 0.0
C671 C 0.17685 0.69573 0.27694 0.0
C672 C 0.20228 0.69729 0.28637 0.0
C673 C 0.22447 0.72169 0.29826 0.0
C674 C 0.267 0.78731 0.26947 0.0
C675 C 0.24754 0.79013 0.25317 0.0
C676 C 0.2418 0.77966 0.22856 0.0
C677 C 0.25584 0.76667 0.21988 0.0
C678 C 0.27687 0.76577 0.23565 0.0
C679 C 0.2822 0.77578 0.26038 0.0
C680 C 0.31613 0.83764 0.29182 0.0
C681 C 0.3153 0.86057 0.28106 0.0
C682 C 0.33702 0.87984 0.26455 0.0
C683 C 0.35989 0.8764 0.25851 0.0
C684 C 0.36078 0.85356 0.26974 0.0
C685 C 0.33906 0.83435 0.28618 0.0
C686 C 0.2789 0.81292 0.45921 0.0
C687 C 0.15346 0.6699 0.26407 0.0
H688 H 0.51472 0.28701 0.62987 0.0
H689 H 0.44181 0.05361 0.82831 0.0
H690 H 0.5322 0.30215 0.77207 0.0
H691 H 0.53668 0.34414 0.75098 0.0
H692 H 0.44379 0.30587 0.75541 0.0
H693 H 0.4396 0.26411 0.77732 0.0
H694 H 0.52799 0.25694 0.73537 0.0
H695 H 0.5309 0.27182 0.69053 0.0
H696 H 0.44094 0.24776 0.69097 0.0
H697 H 0.43829 0.23268 0.73571 0.0
H698 H 0.5257 0.20349 0.76997 0.0
H699 H 0.53265 0.17642 0.73898 0.0
H700 H 0.45146 0.15462 0.70105 0.0
H701 H 0.44372 0.18067 0.73307 0.0
H702 H 0.51986 0.19492 0.82363 0.0
H703 H 0.51561 0.15034 0.83652 0.0
H704 H 0.4283 0.10403 0.80376 0.0
H705 H 0.43268 0.14881 0.79135 0.0
H706 H 0.52755 0.24669 0.84989 0.0
H707 H 0.53459 0.2293 0.89131 0.0
H708 H 0.44501 0.15911 0.88824 0.0
H709 H 0.43794 0.17718 0.84711 0.0
H710 H 0.53072 0.29759 0.82028 0.0
H711 H 0.53918 0.3296 0.85418 0.0
H712 H 0.45296 0.26971 0.88199 0.0
H713 H 0.44403 0.23868 0.8467 0.0
O714 O 0.51306 0.28086 0.64755 0.0
O715 O 0.46682 0.26833 0.64884 0.0
O716 O 0.48895 0.09638 0.8402 0.0
O717 O 0.44406 0.07157 0.82347 0.0
C718 C 0.48254 0.25319 0.78479 0.0
C719 C 0.48139 0.23525 0.76603 0.0
C720 C 0.48026 0.21012 0.7733 0.0
C721 C 0.47877 0.20217 0.79934 0.0
C722 C 0.48017 0.22022 0.81818 0.0
C723 C 0.48247 0.24598 0.81091 0.0
C724 C 0.48565 0.28034 0.77655 0.0
C725 C 0.51299 0.30328 0.76933 0.0
C726 C 0.51548 0.32716 0.75723 0.0
C727 C 0.49057 0.32818 0.75162 0.0
C728 C 0.4633 0.30555 0.75958 0.0
C729 C 0.4609 0.28187 0.77221 0.0
C730 C 0.48293 0.24372 0.7387 0.0
C731 C 0.50893 0.25478 0.72567 0.0
C732 C 0.51053 0.26332 0.7001 0.0
C733 C 0.48616 0.261 0.68717 0.0
C734 C 0.46011 0.24984 0.70036 0.0
C735 C 0.45853 0.24124 0.72589 0.0
C736 C 0.48403 0.19376 0.754 0.0
C737 C 0.50915 0.19255 0.75523 0.0
C738 C 0.51318 0.17725 0.73751 0.0
C739 C 0.49252 0.16349 0.71783 0.0
C740 C 0.46764 0.16516 0.71613 0.0
C741 C 0.46325 0.17997 0.73432 0.0
C742 C 0.47645 0.17509 0.80682 0.0
C743 C 0.49975 0.17513 0.81944 0.0
C744 C 0.49731 0.14963 0.82668 0.0
C745 C 0.47156 0.1236 0.82122 0.0
C746 C 0.44839 0.12368 0.80832 0.0
C747 C 0.45083 0.14921 0.80117 0.0
C748 C 0.48227 0.21315 0.84546 0.0
C749 C 0.50917 0.22813 0.85858 0.0
C750 C 0.51324 0.21797 0.88209 0.0
C751 C 0.49048 0.19258 0.89285 0.0
C752 C 0.46292 0.17879 0.88054 0.0
C753 C 0.45885 0.18903 0.85702 0.0
C754 C 0.48657 0.26604 0.8307 0.0
C755 C 0.51334 0.29176 0.83322 0.0
C756 C 0.51832 0.30979 0.85298 0.0
C757 C 0.49686 0.30219 0.87106 0.0
C758 C 0.46986 0.27647 0.86828 0.0
C759 C 0.46474 0.25862 0.84821 0.0
C760 C 0.48797 0.27024 0.66005 0.0
C761 C 0.46883 0.09644 0.82891 0.0
H762 H 0.16984 0.46944 0.04869 0.0
H763 H 0.22508 0.55283 0.0792 0.0
H764 H 0.19387 0.45173 0.07723 0.0
H765 H 0.24935 0.5354 0.10763 0.0
H766 H 0.29725 0.49781 0.14731 0.0
H767 H 0.27997 0.51343 0.11041 0.0
H768 H 0.19167 0.44554 0.12513 0.0
H769 H 0.20855 0.43049 0.16231 0.0
C770 C 0.18761 0.48403 0.06114 0.0
C771 C 0.19562 0.51235 0.06204 0.0
C772 C 0.20124 0.47395 0.07749 0.0
C773 C 0.22334 0.49215 0.09475 0.0
C774 C 0.23257 0.52094 0.09438 0.0
C775 C 0.21872 0.53093 0.07822 0.0
C776 C 0.27416 0.4861 0.1426 0.0
C777 C 0.25432 0.46295 0.15795 0.0
C778 C 0.26433 0.49501 0.12141 0.0
C779 C 0.2345 0.48072 0.11493 0.0
C780 C 0.21485 0.45672 0.12942 0.0
C781 C 0.2246 0.44802 0.15074 0.0
H782 H 0.64943 0.09182 0.61897 0.0
H783 H 0.68557 0.03969 0.61695 0.0
H784 H 0.68668 0.12183 0.6504 0.0
H785 H 0.72226 0.0688 0.64941 0.0
H786 H 0.80145 0.14419 0.68819 0.0
H787 H 0.76513 0.11467 0.65576 0.0
H788 H 0.70017 0.12127 0.69372 0.0
H789 H 0.73662 0.15131 0.72542 0.0
C790 C 0.66525 0.08669 0.62563 0.0
C791 C 0.66468 0.06347 0.61594 0.0
C792 C 0.68647 0.10369 0.64369 0.0
C793 C 0.70741 0.09765 0.65257 0.0
C794 C 0.70669 0.07426 0.64279 0.0
C795 C 0.68558 0.0574 0.62449 0.0
C796 C 0.7794 0.13934 0.68941 0.0
C797 C 0.77187 0.15028 0.70903 0.0
C798 C 0.75855 0.12232 0.67099 0.0
C799 C 0.72972 0.11567 0.67206 0.0
C800 C 0.72228 0.12647 0.69193 0.0
C801 C 0.74314 0.14367 0.71012 0.0
H802 H 0.63355 0.57121 0.19217 0.0
H803 H 0.65872 0.63889 0.13628 0.0
H804 H 0.6488 0.60488 0.22622 0.0
H805 H 0.67251 0.67225 0.17029 0.0
H806 H 0.71531 0.731 0.23528 0.0
H807 H 0.7073 0.6965 0.20408 0.0
H808 H 0.63196 0.63186 0.24474 0.0
H809 H 0.64091 0.66606 0.2767 0.0
C810 C 0.64256 0.59331 0.18712 0.0
C811 C 0.64484 0.60232 0.16146 0.0
C812 C 0.65097 0.61256 0.20667 0.0
C813 C 0.66178 0.64127 0.20103 0.0
C814 C 0.66461 0.65037 0.17536 0.0
C815 C 0.65631 0.63115 0.15583 0.0
C816 C 0.69753 0.70924 0.23799 0.0
C817 C 0.67873 0.70129 0.25851 0.0
C818 C 0.69266 0.68955 0.21985 0.0
C819 C 0.66879 0.66146 0.22171 0.0
C820 C 0.65068 0.65324 0.24279 0.0
C821 C 0.65563 0.67292 0.26099 0.0
H822 H 0.94281 0.48471 0.62466 0.0
H823 H 0.02346 0.56647 0.62439 0.0
H824 H 0.92381 0.50091 0.65614 0.0
H825 H 0.00484 0.58232 0.65676 0.0
H826 H 0.94932 0.60901 0.69627 0.0
H827 H 0.96856 0.59439 0.66325 0.0
H828 H 0.93198 0.51237 0.70071 0.0
H829 H 0.91276 0.52689 0.73345 0.0
C830 C 0.95645 0.5062 0.63122 0.0
C831 C 0.98466 0.52429 0.62197 0.0
C832 C 0.94569 0.51538 0.64952 0.0
C833 C 0.96287 0.54286 0.6591 0.0
C834 C 0.99096 0.56109 0.64965 0.0
C835 C 0.00175 0.5519 0.63131 0.0
C836 C 0.94556 0.58793 0.69747 0.0
C837 C 0.92928 0.56902 0.71733 0.0
C838 C 0.95659 0.57956 0.6786 0.0
C839 C 0.95161 0.55213 0.67923 0.0
C840 C 0.93567 0.53342 0.69931 0.0
C841 C 0.92465 0.54175 0.7181 0.0
H842 H 0.50736 0.96198 0.15777 0.0
H843 H 0.46484 0.0082 0.14573 0.0
H844 H 0.472 0.9319 0.19008 0.0
H845 H 0.42907 0.97799 0.17785 0.0
H846 H 0.38704 0.9342 0.25415 0.0
H847 H 0.42395 0.96621 0.2238 0.0
H848 H 0.42031 0.89497 0.19088 0.0
H849 H 0.38344 0.86305 0.22101 0.0
C850 C 0.49045 0.9657 0.16227 0.0
C851 C 0.48871 0.98732 0.14956 0.0
C852 C 0.47013 0.94844 0.18057 0.0
C853 C 0.44763 0.95247 0.18646 0.0
C854 C 0.4463 0.97454 0.17396 0.0
C855 C 0.46663 0.99176 0.15558 0.0
C856 C 0.39398 0.92537 0.24031 0.0
C857 C 0.38237 0.89607 0.24011 0.0
C858 C 0.41514 0.94371 0.22294 0.0
C859 C 0.42519 0.93316 0.20502 0.0
C860 C 0.41348 0.90386 0.20476 0.0
C861 C 0.39233 0.88555 0.22206 0.0
H862 H 0.56858 0.4781 0.65617 0.0
H863 H 0.47802 0.43674 0.63325 0.0
H864 H 0.55643 0.44203 0.68948 0.0
H865 H 0.46525 0.40131 0.66755 0.0
H866 H 0.45999 0.32393 0.70795 0.0
H867 H 0.4685 0.36186 0.6779 0.0
H868 H 0.53502 0.42329 0.72895 0.0
H869 H 0.52721 0.38496 0.75836 0.0
C870 C 0.54596 0.46146 0.6587 0.0
C871 C 0.52417 0.46013 0.6424 0.0
C872 C 0.53889 0.44091 0.67791 0.0
C873 C 0.50978 0.41868 0.68139 0.0
C874 C 0.48792 0.41784 0.66528 0.0
C875 C 0.4951 0.43824 0.64583 0.0
C876 C 0.47605 0.34562 0.71287 0.0
C877 C 0.49298 0.35159 0.7354 0.0
C878 C 0.48092 0.36743 0.69569 0.0
C879 C 0.50263 0.39576 0.70082 0.0
C880 C 0.51859 0.40173 0.72403 0.0
C881 C 0.514 0.37985 0.74101 0.0
H882 H 0.66796 0.98038 0.49306 0.0
H883 H 0.57841 0.91016 0.49181 0.0
H884 H 0.68153 0.95287 0.46893 0.0
H885 H 0.59202 0.8826 0.46824 0.0
H886 H 0.62215 0.85938 0.39829 0.0
H887 H 0.60919 0.88538 0.42462 0.0
H888 H 0.68418 0.90908 0.47382 0.0
H889 H 0.69701 0.88241 0.44763 0.0
C890 C 0.65122 0.9591 0.48762 0.0
C891 C 0.62214 0.94742 0.49429 0.0
C892 C 0.65903 0.94327 0.47408 0.0
C893 C 0.63782 0.9156 0.46674 0.0
C894 C 0.60879 0.90394 0.47349 0.0
C895 C 0.60104 0.91964 0.48715 0.0
C896 C 0.63556 0.86952 0.41506 0.0
C897 C 0.66043 0.86846 0.42103 0.0
C898 C 0.62819 0.88458 0.43006 0.0
C899 C 0.64562 0.89918 0.4513 0.0
C900 C 0.67049 0.8982 0.4574 0.0
C901 C 0.67779 0.88291 0.44244 0.0
H902 H 0.70541 0.58655 0.03379 0.0
H903 H 0.65689 0.49929 0.01176 0.0
H904 H 0.74177 0.59767 0.002 0.0
H905 H 0.69386 0.50968 0.98099 0.0
H906 H 0.74523 0.54226 0.90864 0.0
H907 H 0.71032 0.53187 0.94128 0.0
H908 H 0.78016 0.59303 0.99013 0.0
H909 H 0.8149 0.60413 0.95681 0.0
C910 C 0.70281 0.56974 0.02224 0.0
C911 C 0.67831 0.54219 0.02486 0.0
C912 C 0.72371 0.57598 0.00418 0.0
C913 C 0.72077 0.55465 0.98865 0.0
C914 C 0.6966 0.52684 0.99208 0.0
C915 C 0.67554 0.52074 0.00986 0.0
C916 C 0.75309 0.55338 0.92642 0.0
C917 C 0.78278 0.57391 0.93023 0.0
C918 C 0.7331 0.54733 0.94524 0.0
C919 C 0.74231 0.56139 0.96858 0.0
C920 C 0.77211 0.58201 0.97234 0.0
C921 C 0.79209 0.58833 0.95331 0.0
H922 H 0.08479 0.59536 0.51217 0.0
H923 H 0.07429 0.53628 0.4563 0.0
H924 H 0.11245 0.63473 0.48198 0.0
H925 H 0.10088 0.57529 0.42558 0.0
H926 H 0.18176 0.65259 0.39165 0.0
H927 H 0.14997 0.61298 0.41957 0.0
H928 H 0.11069 0.6579 0.44307 0.0
H929 H 0.14373 0.69832 0.41606 0.0
C930 C 0.08814 0.59092 0.49323 0.0
C931 C 0.07782 0.56306 0.48647 0.0
C932 C 0.10375 0.61334 0.47588 0.0
C933 C 0.10909 0.60822 0.45137 0.0
C934 C 0.09768 0.58007 0.44443 0.0
C935 C 0.08228 0.55772 0.46186 0.0
C936 C 0.16651 0.65416 0.40291 0.0
C937 C 0.16553 0.67879 0.40179 0.0
C938 C 0.14794 0.63122 0.41867 0.0
C939 C 0.12771 0.63218 0.43361 0.0
C940 C 0.12624 0.65656 0.43206 0.0
C941 C 0.14495 0.67961 0.41634 0.0
H942 H 0.50776 0.11889 0.03861 0.0
H943 H 0.53166 0.08436 0.97952 0.0
H944 H 0.4989 0.14663 0.00637 0.0
H945 H 0.52225 0.11142 0.9475 0.0
H946 H 0.53725 0.18752 0.90095 0.0
H947 H 0.54566 0.16205 0.93538 0.0
H948 H 0.46483 0.13978 0.96899 0.0
H949 H 0.45667 0.16602 0.93463 0.0
C950 C 0.51101 0.11715 0.01877 0.0
C951 C 0.52037 0.0994 0.01161 0.0
C952 C 0.50574 0.13285 0.00033 0.0
C953 C 0.51007 0.13133 0.97445 0.0
C954 C 0.51908 0.11332 0.96733 0.0
C955 C 0.52413 0.09754 0.98566 0.0
C956 C 0.52152 0.17771 0.91593 0.0
C957 C 0.49634 0.17891 0.91512 0.0
C958 C 0.52617 0.1628 0.93549 0.0
C959 C 0.50578 0.1487 0.95475 0.0
C960 C 0.48098 0.15053 0.95444 0.0
C961 C 0.47622 0.16538 0.93471 0.0
H962 H 0.44272 0.48245 0.50732 0.0
H963 H 0.5168 0.51152 0.45972 0.0
H964 H 0.41106 0.47005 0.46942 0.0
H965 H 0.48506 0.49879 0.42192 0.0
H966 H 0.41412 0.44926 0.36067 0.0
H967 H 0.44452 0.45754 0.39918 0.0
H968 H 0.40391 0.49602 0.43395 0.0
H969 H 0.37327 0.48718 0.39592 0.0
C970 C 0.45227 0.48627 0.4888 0.0
C971 C 0.48233 0.49808 0.48659 0.0
C972 C 0.43412 0.47909 0.46709 0.0
C973 C 0.44558 0.48349 0.44268 0.0
C974 C 0.47551 0.49478 0.44047 0.0
C975 C 0.49369 0.50206 0.46216 0.0
C976 C 0.41169 0.45936 0.37662 0.0
C977 C 0.39163 0.46791 0.37519 0.0
C978 C 0.42915 0.46425 0.39858 0.0
C979 C 0.42662 0.47747 0.41958 0.0
C980 C 0.40622 0.48558 0.41821 0.0
C981 C 0.38895 0.48086 0.39628 0.0
H982 H 0.10738 0.45374 0.92643 0.0
H983 H 0.03421 0.46062 0.94213 0.0
H984 H 0.07788 0.41867 0.89388 0.0
H985 H 0.00487 0.42575 0.90989 0.0
H986 H 0.96456 0.37846 0.83853 0.0
H987 H 0.00182 0.41909 0.86258 0.0
H988 H 0.0334 0.36834 0.89615 0.0
H989 H 0.99592 0.32759 0.8725 0.0
C990 C 0.08512 0.44794 0.92271 0.0
C991 C 0.07291 0.45961 0.93687 0.0
C992 C 0.06827 0.42788 0.90421 0.0
C993 C 0.03917 0.41961 0.89932 0.0
C994 C 0.02735 0.43198 0.91301 0.0
C995 C 0.044 0.45167 0.93165 0.0
C996 C 0.97968 0.37607 0.85082 0.0
C997 C 0.97703 0.34971 0.85388 0.0
C998 C 0.00101 0.39932 0.86452 0.0
C999 C 0.02023 0.39673 0.88143 0.0
C1000 C 0.01899 0.37098 0.88311 0.0
C1001 C 0.99753 0.34765 0.86951 0.0
H1002 H 0.05133 0.53547 0.96271 0.0
H1003 H 0.09558 0.6227 0.98437 0.0
H1004 H 0.0127 0.53933 0.9416 0.0
H1005 H 0.05748 0.62724 0.96239 0.0
H1006 H 0.96614 0.61299 0.94944 0.0
H1007 H 0.00741 0.61157 0.968 0.0
H1008 H 0.00072 0.55949 0.90641 0.0
H1009 H 0.95912 0.56021 0.88855 0.0
C1010 C 0.05301 0.55568 0.96232 0.0
C1011 C 0.07633 0.57886 0.97485 0.0
C1012 C 0.03098 0.55798 0.95022 0.0
C1013 C 0.03189 0.5836 0.95032 0.0
C1014 C 0.05587 0.60709 0.96226 0.0
C1015 C 0.07785 0.60469 0.97452 0.0
C1016 C 0.97352 0.60118 0.94002 0.0
C1017 C 0.95913 0.58632 0.91784 0.0
C1018 C 0.9973 0.60055 0.95048 0.0
C1019 C 0.00738 0.58532 0.93876 0.0
C1020 C 0.99321 0.57091 0.91628 0.0
C1021 C 0.96932 0.57129 0.90604 0.0
H1022 H 0.51452 0.94748 0.48019 0.0
H1023 H 0.47369 0.99025 0.50483 0.0
H1024 H 0.47699 0.9246 0.44663 0.0
H1025 H 0.43615 0.96778 0.47104 0.0
H1026 H 0.35792 0.89516 0.42577 0.0
H1027 H 0.39498 0.92055 0.4589 0.0
H1028 H 0.4621 0.93823 0.40662 0.0
H1029 H 0.42502 0.91285 0.37346 0.0
C1030 C 0.4973 0.95177 0.47835 0.0
C1031 C 0.49658 0.9703 0.49488 0.0
C1032 C 0.47605 0.93899 0.45909 0.0
C1033 C 0.45376 0.94459 0.45608 0.0
C1034 C 0.45294 0.96293 0.473 0.0
C1035 C 0.47428 0.97576 0.49225 0.0
C1036 C 0.38063 0.905 0.42119 0.0
C1037 C 0.38859 0.90198 0.39704 0.0
C1038 C 0.40184 0.91945 0.4402 0.0
C1039 C 0.43141 0.93112 0.43543 0.0
C1040 C 0.43942 0.92897 0.41099 0.0
C1041 C 0.41823 0.91454 0.392 0.0
H1042 H 0.56654 0.39878 0.00968 0.0
H1043 H 0.50868 0.42351 0.97729 0.0
H1044 H 0.5517 0.36471 0.97639 0.0
H1045 H 0.49559 0.39096 0.94273 0.0
H1046 H 0.45976 0.31328 0.89426 0.0
H1047 H 0.4703 0.3431 0.93067 0.0
H1048 H 0.55927 0.36407 0.93311 0.0
H1049 H 0.54819 0.33275 0.89818 0.0
C1050 C 0.55051 0.39689 0.99557 0.0
C1051 C 0.53889 0.41406 0.99628 0.0
C1052 C 0.54235 0.37762 0.97614 0.0
C1053 C 0.52269 0.37524 0.95659 0.0
C1054 C 0.51062 0.39199 0.95753 0.0
C1055 C 0.51849 0.41104 0.97719 0.0
C1056 C 0.48144 0.32391 0.90282 0.0
C1057 C 0.50312 0.32063 0.89313 0.0
C1058 C 0.48761 0.34134 0.92353 0.0
C1059 C 0.51567 0.35609 0.93492 0.0
C1060 C 0.53729 0.35276 0.92518 0.0
C1061 C 0.53105 0.33512 0.90474 0.0
H1062 H 0.09082 0.40983 0.48627 0.0
H1063 H 0.08325 0.46789 0.43481 0.0
H1064 H 0.11587 0.40135 0.45388 0.0
H1065 H 0.10957 0.46079 0.40284 0.0
H1066 H 0.13979 0.42921 0.34207 0.0
H1067 H 0.10893 0.43086 0.37331 0.0
H1068 H 0.16036 0.42239 0.43407 0.0
H1069 H 0.18997 0.41923 0.40263 0.0
C1070 C 0.09466 0.42083 0.468 0.0
C1071 C 0.08508 0.43944 0.46297 0.0
C1072 C 0.10918 0.41616 0.44946 0.0
C1073 C 0.11497 0.43044 0.42562 0.0
C1074 C 0.10507 0.4489 0.42066 0.0
C1075 C 0.0901 0.45314 0.43903 0.0
C1076 C 0.14417 0.42742 0.36214 0.0
C1077 C 0.16715 0.42404 0.37 0.0
C1078 C 0.12668 0.42858 0.3801 0.0
C1079 C 0.13216 0.42699 0.40638 0.0
C1080 C 0.155 0.42318 0.4141 0.0
C1081 C 0.17212 0.42149 0.3961 0.0
H1082 H 0.67641 0.07493 0.04502 0.0
H1083 H 0.62316 0.09725 0.99994 0.0
H1084 H 0.71352 0.09604 0.0122 0.0
H1085 H 0.66021 0.1189 0.96733 0.0
H1086 H 0.71425 0.1244 0.9019 0.0
H1087 H 0.67917 0.10308 0.93579 0.0
H1088 H 0.74938 0.14138 0.99196 0.0
H1089 H 0.78463 0.16262 0.95785 0.0
C1090 C 0.67296 0.08469 0.02813 0.0
C1091 C 0.64722 0.08462 0.02474 0.0
C1092 C 0.69411 0.09682 0.00944 0.0
C1093 C 0.68972 0.10896 0.98706 0.0
C1094 C 0.66404 0.10928 0.9841 0.0
C1095 C 0.64296 0.09715 0.00276 0.0
C1096 C 0.7222 0.12831 0.92149 0.0
C1097 C 0.75217 0.14539 0.92723 0.0
C1098 C 0.7021 0.11617 0.94091 0.0
C1099 C 0.71144 0.12084 0.96658 0.0
C1100 C 0.74149 0.13724 0.97238 0.0
C1101 C 0.76167 0.14938 0.95287 0.0
H1102 H 0.6614 0.64824 0.53395 0.0
H1103 H 0.5746 0.60056 0.50111 0.0
H1104 H 0.67678 0.6824 0.49812 0.0
H1105 H 0.58945 0.63486 0.46556 0.0
H1106 H 0.63332 0.68361 0.39275 0.0
H1107 H 0.61956 0.64998 0.42848 0.0
H1108 H 0.66991 0.71918 0.4798 0.0
H1109 H 0.68377 0.75285 0.44398 0.0
C1110 C 0.64569 0.64524 0.519 0.0
C1111 C 0.61699 0.62187 0.51995 0.0
C1112 C 0.65435 0.6648 0.49862 0.0
C1113 C 0.63438 0.66131 0.4789 0.0
C1114 C 0.60551 0.63793 0.48017 0.0
C1115 C 0.59692 0.61842 0.50052 0.0
C1116 C 0.64135 0.69166 0.41168 0.0
C1117 C 0.65957 0.72091 0.41553 0.0
C1118 C 0.63343 0.67238 0.43217 0.0
C1119 C 0.6435 0.68187 0.45704 0.0
C1120 C 0.66205 0.71113 0.46086 0.0
C1121 C 0.67001 0.73043 0.44033 0.0
H1122 H 0.56667 0.0801 0.65041 0.0
H1123 H 0.51689 0.08628 0.58716 0.0
H1124 H 0.55112 0.10351 0.67744 0.0
H1125 H 0.49993 0.10863 0.61451 0.0
H1126 H 0.49869 0.1727 0.66653 0.0
H1127 H 0.51289 0.1497 0.6371 0.0
H1128 H 0.51009 0.09435 0.69862 0.0
H1129 H 0.49752 0.11847 0.72793 0.0
C1130 C 0.55221 0.08639 0.64239 0.0
C1131 C 0.54284 0.08133 0.61682 0.0
C1132 C 0.54303 0.09957 0.6579 0.0
C1133 C 0.52378 0.10755 0.64835 0.0
C1134 C 0.51489 0.10298 0.6225 0.0
C1135 C 0.52451 0.09015 0.60683 0.0
C1136 C 0.50088 0.15541 0.6735 0.0
C1137 C 0.49727 0.14736 0.69937 0.0
C1138 C 0.50894 0.14216 0.65671 0.0
C1139 C 0.51312 0.12041 0.66551 0.0
C1140 C 0.50798 0.11157 0.69126 0.0
C1141 C 0.50047 0.12512 0.70804 0.0
H1142 H 0.47777 0.43577 0.12298 0.0
H1143 H 0.53033 0.52295 0.14501 0.0
H1144 H 0.43951 0.42798 0.15143 0.0
H1145 H 0.49205 0.5156 0.17312 0.0
H1146 H 0.42907 0.48466 0.23919 0.0
H1147 H 0.46783 0.4912 0.21244 0.0
H1148 H 0.40403 0.44158 0.15401 0.0
H1149 H 0.36533 0.43509 0.18068 0.0
C1150 C 0.48105 0.45317 0.13408 0.0
C1151 C 0.50685 0.47986 0.1321 0.0
C1152 C 0.45916 0.44884 0.15018 0.0
C1153 C 0.46269 0.47119 0.16455 0.0
C1154 C 0.48877 0.49785 0.16261 0.0
C1155 C 0.5106 0.50214 0.14649 0.0
C1156 C 0.42333 0.47532 0.22056 0.0
C1157 C 0.39406 0.45933 0.21211 0.0
C1158 C 0.44556 0.47905 0.20523 0.0
C1159 C 0.43905 0.46687 0.18108 0.0
C1160 C 0.40978 0.45084 0.17267 0.0
C1161 C 0.38757 0.44714 0.18798 0.0
H1162 H 0.96384 0.41812 0.6185 0.0
H1163 H 0.99939 0.3698 0.59588 0.0
H1164 H 0.93987 0.38485 0.65414 0.0
H1165 H 0.97499 0.33593 0.63118 0.0
H1166 H 0.95703 0.30355 0.71477 0.0
H1167 H 0.97874 0.3341 0.67726 0.0
H1168 H 0.90132 0.33692 0.66426 0.0
H1169 H 0.87977 0.30658 0.70182 0.0
C1170 C 0.96613 0.40008 0.62111 0.0
C1171 C 0.98333 0.39633 0.60473 0.0
C1172 C 0.95237 0.38097 0.64137 0.0
C1173 C 0.95553 0.35771 0.64556 0.0
C1174 C 0.97243 0.3538 0.62872 0.0
C1175 C 0.9862 0.37297 0.60846 0.0
C1176 C 0.94455 0.31045 0.70373 0.0
C1177 C 0.91677 0.30279 0.71137 0.0
C1178 C 0.95696 0.32793 0.6822 0.0
C1179 C 0.94183 0.33807 0.66778 0.0
C1180 C 0.9138 0.32993 0.67518 0.0
C1181 C 0.90144 0.31253 0.69671 0.0
H1182 H 0.62302 0.99772 0.18341 0.0
H1183 H 0.63588 0.9705 0.11232 0.0
H1184 H 0.64526 0.97497 0.20652 0.0
H1185 H 0.65824 0.94782 0.13543 0.0
H1186 H 0.6555 0.87835 0.18903 0.0
H1187 H 0.64127 0.90655 0.16341 0.0
H1188 H 0.69039 0.97607 0.21468 0.0
H1189 H 0.70381 0.9474 0.24084 0.0
C1190 C 0.63103 0.98727 0.17269 0.0
C1191 C 0.62747 0.98571 0.14606 0.0
C1192 C 0.64385 0.97429 0.18593 0.0
C1193 C 0.65344 0.9595 0.17282 0.0
C1194 C 0.65066 0.95866 0.14612 0.0
C1195 C 0.6378 0.97161 0.13289 0.0
C1196 C 0.66341 0.89973 0.19472 0.0
C1197 C 0.68056 0.91057 0.21705 0.0
C1198 C 0.65549 0.916 0.17992 0.0
C1199 C 0.66455 0.94351 0.1871 0.0
C1200 C 0.68276 0.95481 0.20883 0.0
C1201 C 0.69073 0.93852 0.22364 0.0
H1202 H 0.67023 0.6232 0.67536 0.0
H1203 H 0.63996 0.53462 0.68479 0.0
H1204 H 0.70225 0.63378 0.71324 0.0
H1205 H 0.67158 0.54508 0.7226 0.0
H1206 H 0.78333 0.63484 0.75388 0.0
H1207 H 0.74739 0.62946 0.72159 0.0
H1208 H 0.67862 0.56458 0.76798 0.0
H1209 H 0.71451 0.5706 0.80099 0.0
C1210 C 0.67019 0.60602 0.68575 0.0
C1211 C 0.65287 0.57815 0.67716 0.0
C1212 C 0.68849 0.61205 0.70729 0.0
C1213 C 0.68925 0.59022 0.72084 0.0
C1214 C 0.67117 0.56225 0.71268 0.0
C1215 C 0.65331 0.55631 0.69095 0.0
C1216 C 0.76051 0.62016 0.75776 0.0
C1217 C 0.75186 0.60315 0.78014 0.0
C1218 C 0.73993 0.617 0.73912 0.0
C1219 C 0.71029 0.59653 0.74227 0.0
C1220 C 0.70142 0.58036 0.76504 0.0
C1221 C 0.72197 0.58377 0.78387 0.0
H1222 H 0.21313 0.68227 0.07264 0.0
H1223 H 0.18174 0.61927 0.13381 0.0
H1224 H 0.23213 0.71964 0.10401 0.0
H1225 H 0.19932 0.65652 0.16466 0.0
H1226 H 0.20025 0.7271 0.20641 0.0
H1227 H 0.18363 0.69451 0.17111 0.0
H1228 H 0.27176 0.7361 0.14516 0.0
H1229 H 0.28861 0.7687 0.18084 0.0
C1230 C 0.21044 0.67633 0.09267 0.0
C1231 C 0.19556 0.64764 0.10062 0.0
C1232 C 0.22116 0.69773 0.11054 0.0
C1233 C 0.21674 0.69077 0.13657 0.0
C1234 C 0.20248 0.66229 0.14459 0.0
C1235 C 0.19228 0.64099 0.12686 0.0
C1236 C 0.21597 0.72975 0.1928 0.0
C1237 C 0.24568 0.75042 0.19621 0.0
C1238 C 0.2065 0.71101 0.17279 0.0
C1239 C 0.2265 0.71285 0.15565 0.0
C1240 C 0.256 0.73444 0.15817 0.0
C1241 C 0.26559 0.75295 0.17851 0.0
loop_
_geom_bond_atom_site_label_1
_geom_bond_atom_site_label_2
_geom_bond_distance
_geom_bond_site_symmetry_2
_ccdc_geom_bond_type
C0 C1 1.443 . S
C0 N4 1.376 . S
C0 C38 1.389 . S
C1 C0 1.443 . S
C1 C2 1.340 1_556 S
C1 H41 0.951 . S
C2 C1 1.340 1_554 S
C2 C3 1.439 . S
C2 H42 0.950 . S
C3 C2 1.439 . S
C3 N4 1.374 1_554 S
C3 C37 1.395 . S
N4 C0 1.376 . S
N4 C3 1.374 1_556 S
N4 Co5 2.008 1_556 S
Co5 N4 2.008 1_554 S
Co5 N6 1.997 . S
Co5 N11 2.008 . S
Co5 N16 1.993 1_554 S
Co5 N21 2.284 . S
Co5 N27 2.281 1_554 S
N6 Co5 1.997 . S
N6 C7 1.376 . S
N6 C10 1.383 . S
C7 N6 1.376 . S
C7 C8 1.446 . S
C7 C37 1.391 . S
C8 C7 1.446 . S
C8 C9 1.339 . S
C8 H43 0.949 . S
C9 C8 1.339 . S
C9 C10 1.439 . S
C9 H44 0.950 . S
C10 N6 1.383 . S
C10 C9 1.439 . S
C10 C39 1.392 . S
N11 Co5 2.008 . S
N11 C12 1.376 . S
N11 C15 1.374 1_554 S
C12 N11 1.376 . S
C12 C13 1.443 . S
C12 C39 1.389 . S
C13 C12 1.443 . S
C13 C14 1.340 1_554 S
C13 H45 0.951 . S
C14 C13 1.340 1_556 S
C14 C15 1.439 . S
C14 H46 0.950 . S
C15 N11 1.374 1_556 S
C15 C14 1.439 . S
C15 C40 1.395 . S
N16 Co5 1.993 1_556 S
N16 C17 1.376 . S
N16 C20 1.383 . S
C17 N16 1.376 . S
C17 C18 1.446 . S
C17 C40 1.391 . S
C18 C17 1.446 . S
C18 C19 1.339 . S
C18 H47 0.949 . S
C19 C18 1.339 . S
C19 C20 1.439 . S
C19 H48 0.950 . S
C20 N16 1.383 . S
C20 C19 1.439 . S
C20 C38 1.392 . S
N21 Co5 2.284 . S
N21 C24 1.332 . S
N21 C26 1.332 . S
C22 C23 1.386 . S
C22 C25 1.388 . S
C23 C22 1.386 . S
C23 C24 1.382 . S
C23 H49 0.950 . S
C24 N21 1.332 . S
C24 C23 1.382 . S
C24 H35 0.952 . S
C25 C22 1.388 . S
C25 C26 1.382 . S
C25 H50 0.950 . S
C26 N21 1.332 . S
C26 C25 1.382 . S
C26 H36 0.948 . S
N27 Co5 2.281 1_556 S
N27 C31 1.332 . S
N27 C32 1.332 . S
C28 C29 1.388 . S
C28 C32 1.382 . S
C28 H51 0.950 . S
C29 C28 1.388 . S
C29 C30 1.386 . S
C30 C29 1.386 . S
C30 C31 1.382 . S
C30 H52 0.950 . S
C31 N27 1.332 . S
C31 C30 1.382 . S
C31 H33 0.952 . S
C32 N27 1.332 . S
C32 C28 1.382 . S
C32 H34 0.948 . S
H33 C31 0.952 . S
H34 C32 0.948 . S
H35 C24 0.952 . S
H36 C26 0.948 . S
C37 C3 1.395 . S
C37 C7 1.391 . S
C38 C0 1.389 . S
C38 C20 1.392 . S
C39 C10 1.392 . S
C39 C12 1.389 . S
C40 C15 1.395 . S
C40 C17 1.391 . S
H41 C1 0.951 . S
H42 C2 0.950 . S
H43 C8 0.949 . S
H44 C9 0.950 . S
H45 C13 0.951 . S
H46 C14 0.950 . S
H47 C18 0.949 . S
H48 C19 0.950 . S
H49 C23 0.950 . S
H50 C25 0.950 . S
H51 C28 0.950 . S
H52 C30 0.950 . S
C53 C54 1.443 . S
C53 N57 1.389 . S
C53 C91 1.389 . S
C54 C53 1.443 . S
C54 C55 1.340 1_545 S
C54 H94 0.951 . S
C55 C54 1.340 1_565 S
C55 C56 1.439 . S
C55 H95 0.950 . S
C56 C55 1.439 . S
C56 N57 1.349 1_565 S
C56 C90 1.395 . S
N57 C53 1.389 . S
N57 C56 1.349 1_545 S
N57 Co58 2.025 . S
Co58 N57 2.025 . S
Co58 N59 1.995 1_545 S
Co58 N64 2.008 . S
Co58 N69 1.995 . S
Co58 N74 2.282 1_545 S
Co58 N80 2.282 . S
N59 Co58 1.995 1_565 S
N59 C60 1.376 . S
N59 C63 1.383 . S
C60 N59 1.376 . S
C60 C61 1.446 . S
C60 C90 1.391 . S
C61 C60 1.446 . S
C61 C62 1.339 . S
C61 H96 0.949 . S
C62 C61 1.339 . S
C62 C63 1.439 . S
C62 H97 0.950 . S
C63 N59 1.383 . S
C63 C62 1.439 . S
C63 C92 1.392 . S
N64 Co58 2.008 . S
N64 C65 1.376 . S
N64 C68 1.374 . S
C65 N64 1.376 . S
C65 C66 1.443 . S
C65 C92 1.389 1_545 S
C66 C65 1.443 . S
C66 C67 1.340 . S
C66 H98 0.951 . S
C67 C66 1.340 . S
C67 C68 1.439 . S
C67 H99 0.950 . S
C68 N64 1.374 . S
C68 C67 1.439 . S
C68 C93 1.395 . S
N69 Co58 1.995 . S
N69 C70 1.376 . S
N69 C73 1.383 . S
C70 N69 1.376 . S
C70 C71 1.446 . S
C70 C93 1.391 . S
C71 C70 1.446 . S
C71 C72 1.339 . S
C71 H100 0.949 . S
C72 C71 1.339 . S
C72 C73 1.439 . S
C72 H101 0.950 . S
C73 N69 1.383 . S
C73 C72 1.439 . S
C73 C91 1.392 . S
N74 Co58 2.282 1_565 S
N74 C77 1.332 1_565 S
N74 C79 1.332 . S
C75 C76 1.386 . S
C75 C78 1.388 . S
C76 C75 1.386 . S
C76 C77 1.382 1_565 S
C76 H102 0.950 1_565 S
C77 N74 1.332 1_545 S
C77 C76 1.382 1_545 S
C77 H88 0.952 . S
C78 C75 1.388 . S
C78 C79 1.382 . S
C78 H103 0.950 . S
C79 N74 1.332 . S
C79 C78 1.382 . S
C79 H89 0.948 . S
N80 Co58 2.282 . S
N80 C84 1.332 . S
N80 C85 1.332 . S
C81 C82 1.388 . S
C81 C85 1.382 . S
C81 H104 0.950 . S
C82 C81 1.388 . S
C82 C83 1.386 . S
C83 C82 1.386 . S
C83 C84 1.382 . S
C83 H105 0.950 . S
C84 N80 1.332 . S
C84 C83 1.382 . S
C84 H86 0.952 1_545 S
C85 N80 1.332 . S
C85 C81 1.382 . S
C85 H87 0.948 . S
H86 C84 0.952 1_565 S
H87 C85 0.948 . S
H88 C77 0.952 . S
H89 C79 0.948 . S
C90 C56 1.395 . S
C90 C60 1.391 . S
C91 C53 1.389 . S
C91 C73 1.392 . S
C92 C63 1.392 . S
C92 C65 1.389 1_565 S
C93 C68 1.395 . S
C93 C70 1.391 . S
H94 C54 0.951 . S
H95 C55 0.950 . S
H96 C61 0.949 . S
H97 C62 0.950 . S
H98 C66 0.951 . S
H99 C67 0.950 . S
H100 C71 0.949 . S
H101 C72 0.950 . S
H102 C76 0.950 1_545 S
H103 C78 0.950 . S
H104 C81 0.950 . S
H105 C83 0.950 . S
C106 C107 1.443 . S
C106 N110 1.376 . S
C106 C144 1.389 . S
C107 C106 1.443 . S
C107 C108 1.340 . S
C107 H147 0.951 . S
C108 C107 1.340 . S
C108 C109 1.439 . S
C108 H148 0.950 . S
C109 C108 1.439 . S
C109 N110 1.374 . S
C109 C143 1.395 . S
N110 C106 1.376 . S
N110 C109 1.374 . S
N110 Co111 2.008 . S
Co111 N110 2.008 . S
Co111 N112 1.995 . S
Co111 N117 2.008 . S
Co111 N122 1.995 . S
Co111 N127 2.282 . S
Co111 N133 2.282 . S
N112 Co111 1.995 . S
N112 C113 1.376 . S
N112 C116 1.383 . S
C113 N112 1.376 . S
C113 C114 1.446 . S
C113 C143 1.391 . S
C114 C113 1.446 . S
C114 C115 1.339 . S
C114 H149 0.949 . S
C115 C114 1.339 . S
C115 C116 1.439 . S
C115 H150 0.950 . S
C116 N112 1.383 . S
C116 C115 1.439 . S
C116 C145 1.392 . S
N117 Co111 2.008 . S
N117 C118 1.376 . S
N117 C121 1.374 . S
C118 N117 1.376 . S
C118 C119 1.443 . S
C118 C145 1.389 . S
C119 C118 1.443 . S
C119 C120 1.340 . S
C119 H151 0.951 . S
C120 C119 1.340 . S
C120 C121 1.439 . S
C120 H152 0.950 . S
C121 N117 1.374 . S
C121 C120 1.439 . S
C121 C146 1.395 . S
N122 Co111 1.995 . S
N122 C123 1.376 . S
N122 C126 1.383 . S
C123 N122 1.376 . S
C123 C124 1.446 . S
C123 C146 1.391 . S
C124 C123 1.446 . S
C124 C125 1.339 . S
C124 H153 0.949 . S
C125 C124 1.339 . S
C125 C126 1.439 . S
C125 H154 0.950 . S
C126 N122 1.383 . S
C126 C125 1.439 . S
C126 C144 1.392 . S
N127 Co111 2.282 . S
N127 C130 1.332 . S
N127 C132 1.332 . S
C128 C129 1.386 . S
C128 C131 1.388 . S
C129 C128 1.386 . S
C129 C130 1.382 . S
C129 H155 0.950 . S
C130 N127 1.332 . S
C130 C129 1.382 . S
C130 H141 0.952 . S
C131 C128 1.388 . S
C131 C132 1.382 . S
C131 H156 0.950 . S
C132 N127 1.332 . S
C132 C131 1.382 . S
C132 H142 0.948 . S
N133 Co111 2.282 . S
N133 C137 1.332 . S
N133 C138 1.332 . S
C134 C135 1.388 . S
C134 C138 1.382 . S
C134 H157 0.950 . S
C135 C134 1.388 . S
C135 C136 1.386 . S
C136 C135 1.386 . S
C136 C137 1.382 . S
C136 H158 0.950 . S
C137 N133 1.332 . S
C137 C136 1.382 . S
C137 H139 0.952 . S
C138 N133 1.332 . S
C138 C134 1.382 . S
C138 H140 0.948 . S
H139 C137 0.952 . S
H140 C138 0.948 . S
H141 C130 0.952 . S
H142 C132 0.948 . S
C143 C109 1.395 . S
C143 C113 1.391 . S
C144 C106 1.389 . S
C144 C126 1.392 . S
C145 C116 1.392 . S
C145 C118 1.389 . S
C146 C121 1.395 . S
C146 C123 1.391 . S
H147 C107 0.951 . S
H148 C108 0.950 . S
H149 C114 0.949 . S
H150 C115 0.950 . S
H151 C119 0.951 . S
H152 C120 0.950 . S
H153 C124 0.949 . S
H154 C125 0.950 . S
H155 C129 0.950 . S
H156 C131 0.950 . S
H157 C134 0.950 . S
H158 C136 0.950 . S
C159 C160 1.443 . S
C159 N163 1.376 . S
C159 C197 1.389 . S
C160 C159 1.443 . S
C160 C161 1.340 . S
C160 H200 0.951 . S
C161 C160 1.340 . S
C161 C162 1.439 . S
C161 H201 0.950 . S
C162 C161 1.439 . S
C162 N163 1.374 . S
C162 C196 1.395 . S
N163 C159 1.376 . S
N163 C162 1.374 . S
N163 Co164 2.008 1_655 S
Co164 N163 2.008 1_455 S
Co164 N165 1.995 1_455 S
Co164 N170 2.008 . S
Co164 N175 1.995 . S
Co164 N180 2.282 . S
Co164 N186 2.282 1_455 S
N165 Co164 1.995 1_655 S
N165 C166 1.376 . S
N165 C169 1.383 1_655 S
C166 N165 1.376 . S
C166 C167 1.446 . S
C166 C196 1.391 . S
C167 C166 1.446 . S
C167 C168 1.339 . S
C167 H202 0.949 . S
C168 C167 1.339 . S
C168 C169 1.439 1_655 S
C168 H203 0.950 . S
C169 N165 1.383 1_455 S
C169 C168 1.439 1_455 S
C169 C198 1.392 . S
N170 Co164 2.008 . S
N170 C171 1.376 . S
N170 C174 1.374 . S
C171 N170 1.376 . S
C171 C172 1.443 . S
C171 C198 1.389 . S
C172 C171 1.443 . S
C172 C173 1.340 . S
C172 H204 0.951 . S
C173 C172 1.340 . S
C173 C174 1.439 . S
C173 H205 0.950 . S
C174 N170 1.374 . S
C174 C173 1.439 . S
C174 C199 1.395 . S
N175 Co164 1.995 . S
N175 C176 1.376 . S
N175 C179 1.383 1_455 S
C176 N175 1.376 . S
C176 C177 1.446 . S
C176 C199 1.391 . S
C177 C176 1.446 . S
C177 C178 1.339 . S
C177 H206 0.949 . S
C178 C177 1.339 . S
C178 C179 1.439 1_455 S
C178 H207 0.950 . S
C179 N175 1.383 1_655 S
C179 C178 1.439 1_655 S
C179 C197 1.392 . S
N180 Co164 2.282 . S
N180 C183 1.332 . S
N180 C185 1.332 . S
C181 C182 1.386 . S
C181 C184 1.388 . S
C182 C181 1.386 . S
C182 C183 1.382 . S
C182 H208 0.950 . S
C183 N180 1.332 . S
C183 C182 1.382 . S
C183 H194 0.952 . S
C184 C181 1.388 . S
C184 C185 1.382 . S
C184 H209 0.950 . S
C185 N180 1.332 . S
C185 C184 1.382 . S
C185 H195 0.948 1_455 S
N186 Co164 2.282 1_655 S
N186 C190 1.332 . S
N186 C191 1.332 . S
C187 C188 1.388 . S
C187 C191 1.382 . S
C187 H210 0.950 . S
C188 C187 1.388 . S
C188 C189 1.386 . S
C189 C188 1.386 . S
C189 C190 1.382 . S
C189 H211 0.950 . S
C190 N186 1.332 . S
C190 C189 1.382 . S
C190 H192 0.952 . S
C191 N186 1.332 . S
C191 C187 1.382 . S
C191 H193 0.948 1_655 S
H192 C190 0.952 . S
H193 C191 0.948 1_455 S
H194 C183 0.952 . S
H195 C185 0.948 1_655 S
C196 C162 1.395 . S
C196 C166 1.391 . S
C197 C159 1.389 . S
C197 C179 1.392 . S
C198 C169 1.392 . S
C198 C171 1.389 . S
C199 C174 1.395 . S
C199 C176 1.391 . S
H200 C160 0.951 . S
H201 C161 0.950 . S
H202 C167 0.949 . S
H203 C168 0.950 . S
H204 C172 0.951 . S
H205 C173 0.950 . S
H206 C177 0.949 . S
H207 C178 0.950 . S
H208 C182 0.950 . S
H209 C184 0.950 . S
H210 C187 0.950 . S
H211 C189 0.950 . S
C212 C213 1.443 . S
C212 N216 1.376 . S
C212 C250 1.389 . S
C213 C212 1.443 . S
C213 C214 1.340 . S
C213 H253 0.951 . S
C214 C213 1.340 . S
C214 C215 1.439 . S
C214 H254 0.950 . S
C215 C214 1.439 . S
C215 N216 1.374 . S
C215 C249 1.395 . S
N216 C212 1.376 . S
N216 C215 1.374 . S
N216 Co217 2.008 . S
Co217 N216 2.008 . S
Co217 N218 1.995 . S
Co217 N223 2.008 . S
Co217 N228 1.995 . S
Co217 N233 2.282 . S
Co217 N239 2.282 . S
N218 Co217 1.995 . S
N218 C219 1.376 . S
N218 C222 1.383 . S
C219 N218 1.376 . S
C219 C220 1.446 . S
C219 C249 1.391 . S
C220 C219 1.446 . S
C220 C221 1.339 . S
C220 H255 0.949 . S
C221 C220 1.339 . S
C221 C222 1.439 . S
C221 H256 0.950 . S
C222 N218 1.383 . S
C222 C221 1.439 . S
C222 C251 1.392 . S
N223 Co217 2.008 . S
N223 C224 1.376 . S
N223 C227 1.374 . S
C224 N223 1.376 . S
C224 C225 1.443 . S
C224 C251 1.389 . S
C225 C224 1.443 . S
C225 C226 1.340 . S
C225 H257 0.951 . S
C226 C225 1.340 . S
C226 C227 1.439 . S
C226 H258 0.950 . S
C227 N223 1.374 . S
C227 C226 1.439 . S
C227 C252 1.395 1_545 S
N228 Co217 1.995 . S
N228 C229 1.376 1_545 S
N228 C232 1.383 . S
C229 N228 1.376 1_565 S
C229 C230 1.446 . S
C229 C252 1.391 . S
C230 C229 1.446 . S
C230 C231 1.339 . S
C230 H259 0.949 . S
C231 C230 1.339 . S
C231 C232 1.439 1_565 S
C231 H260 0.950 . S
C232 N228 1.383 . S
C232 C231 1.439 1_545 S
C232 C250 1.392 . S
N233 Co217 2.282 . S
N233 C236 1.332 . S
N233 C238 1.332 . S
C234 C235 1.386 . S
C234 C237 1.388 . S
C235 C234 1.386 . S
C235 C236 1.382 . S
C235 H261 0.950 . S
C236 N233 1.332 . S
C236 C235 1.382 . S
C236 H247 0.952 . S
C237 C234 1.388 . S
C237 C238 1.382 . S
C237 H262 0.950 . S
C238 N233 1.332 . S
C238 C237 1.382 . S
C238 H248 0.948 . S
N239 Co217 2.282 . S
N239 C243 1.332 . S
N239 C244 1.332 . S
C240 C241 1.388 1_565 S
C240 C244 1.382 1_565 S
C240 H263 0.950 . S
C241 C240 1.388 1_545 S
C241 C242 1.386 . S
C242 C241 1.386 . S
C242 C243 1.382 . S
C242 H264 0.950 . S
C243 N239 1.332 . S
C243 C242 1.382 . S
C243 H245 0.952 . S
C244 N239 1.332 . S
C244 C240 1.382 1_545 S
C244 H246 0.948 1_545 S
H245 C243 0.952 . S
H246 C244 0.948 1_565 S
H247 C236 0.952 . S
H248 C238 0.948 . S
C249 C215 1.395 . S
C249 C219 1.391 . S
C250 C212 1.389 . S
C250 C232 1.392 . S
C251 C222 1.392 . S
C251 C224 1.389 . S
C252 C227 1.395 1_565 S
C252 C229 1.391 . S
H253 C213 0.951 . S
H254 C214 0.950 . S
H255 C220 0.949 . S
H256 C221 0.950 . S
H257 C225 0.951 . S
H258 C226 0.950 . S
H259 C230 0.949 . S
H260 C231 0.950 . S
H261 C235 0.950 . S
H262 C237 0.950 . S
H263 C240 0.950 . S
H264 C242 0.950 . S
C265 C266 1.443 . S
C265 N269 1.376 . S
C265 C303 1.389 . S
C266 C265 1.443 . S
C266 C267 1.340 . S
C266 H306 0.951 . S
C267 C266 1.340 . S
C267 C268 1.439 . S
C267 H307 0.950 . S
C268 C267 1.439 . S
C268 N269 1.374 . S
C268 C302 1.395 . S
N269 C265 1.376 . S
N269 C268 1.374 . S
N269 Co270 2.008 . S
Co270 N269 2.008 . S
Co270 N271 1.995 . S
Co270 N276 2.008 . S
Co270 N281 1.995 . S
Co270 N286 2.282 . S
Co270 N292 2.282 . S
N271 Co270 1.995 . S
N271 C272 1.376 . S
N271 C275 1.383 . S
C272 N271 1.376 . S
C272 C273 1.446 . S
C272 C302 1.391 . S
C273 C272 1.446 . S
C273 C274 1.339 . S
C273 H308 0.949 . S
C274 C273 1.339 . S
C274 C275 1.439 . S
C274 H309 0.950 . S
C275 N271 1.383 . S
C275 C274 1.439 . S
C275 C304 1.392 . S
N276 Co270 2.008 . S
N276 C277 1.376 . S
N276 C280 1.374 . S
C277 N276 1.376 . S
C277 C278 1.443 . S
C277 C304 1.389 . S
C278 C277 1.443 . S
C278 C279 1.340 . S
C278 H310 0.951 . S
C279 C278 1.340 . S
C279 C280 1.439 . S
C279 H311 0.950 . S
C280 N276 1.374 . S
C280 C279 1.439 . S
C280 C305 1.395 . S
N281 Co270 1.995 . S
N281 C282 1.376 . S
N281 C285 1.383 . S
C282 N281 1.376 . S
C282 C283 1.446 . S
C282 C305 1.391 . S
C283 C282 1.446 . S
C283 C284 1.339 . S
C283 H312 0.949 . S
C284 C283 1.339 . S
C284 C285 1.439 . S
C284 H313 0.950 . S
C285 N281 1.383 . S
C285 C284 1.439 . S
C285 C303 1.392 . S
N286 Co270 2.282 . S
N286 C289 1.332 . S
N286 C291 1.332 . S
C287 C288 1.386 . S
C287 C290 1.388 . S
C288 C287 1.386 . S
C288 C289 1.382 . S
C288 H314 0.950 . S
C289 N286 1.332 . S
C289 C288 1.382 . S
C289 H300 0.952 . S
C290 C287 1.388 . S
C290 C291 1.382 . S
C290 H315 0.950 . S
C291 N286 1.332 . S
C291 C290 1.382 . S
C291 H301 0.948 . S
N292 Co270 2.282 . S
N292 C296 1.332 . S
N292 C297 1.332 . S
C293 C294 1.388 . S
C293 C297 1.382 . S
C293 H316 0.950 . S
C294 C293 1.388 . S
C294 C295 1.386 . S
C295 C294 1.386 . S
C295 C296 1.382 . S
C295 H317 0.950 . S
C296 N292 1.332 . S
C296 C295 1.382 . S
C296 H298 0.952 . S
C297 N292 1.332 . S
C297 C293 1.382 . S
C297 H299 0.948 . S
H298 C296 0.952 . S
H299 C297 0.948 . S
H300 C289 0.952 . S
H301 C291 0.948 . S
C302 C268 1.395 . S
C302 C272 1.391 . S
C303 C265 1.389 . S
C303 C285 1.392 . S
C304 C275 1.392 . S
C304 C277 1.389 . S
C305 C280 1.395 . S
C305 C282 1.391 . S
H306 C266 0.951 . S
H307 C267 0.950 . S
H308 C273 0.949 . S
H309 C274 0.950 . S
H310 C278 0.951 . S
H311 C279 0.950 . S
H312 C283 0.949 . S
H313 C284 0.950 . S
H314 C288 0.950 . S
H315 C290 0.950 . S
H316 C293 0.950 . S
H317 C295 0.950 . S
H318 O344 0.856 . S
H319 O347 0.854 . S
H320 C355 0.930 . S
H321 C356 0.930 . S
H322 C358 0.930 . S
H323 C359 0.930 . S
H324 C361 0.931 . S
H325 C362 0.930 . S
H326 C364 0.930 . S
H327 C365 0.929 . S
H328 C367 0.930 . S
H329 C368 0.931 . S
H330 C370 0.930 . S
H331 C371 0.929 . S
H332 C373 0.931 . S
H333 C374 0.930 . S
H334 C376 0.930 . S
H335 C377 0.932 . S
H336 C379 0.930 . S
H337 C380 0.929 . S
H338 C382 0.931 . S
H339 C383 0.930 . S
H340 C385 0.929 . S
H341 C386 0.931 . S
H342 C388 0.930 . S
H343 C389 0.929 . S
O344 H318 0.856 . S
O344 C390 1.300 . S
O345 C390 1.209 . S
O346 C391 1.199 . S
O347 H319 0.854 . S
O347 C391 1.297 . S
C348 C349 1.404 . S
C348 C353 1.397 . S
C348 C354 1.492 . S
C349 C348 1.404 . S
C349 C350 1.396 . S
C349 C360 1.492 . S
C350 C349 1.396 . S
C350 C351 1.397 . S
C350 C366 1.509 . S
C351 C350 1.397 . S
C351 C352 1.412 . S
C351 C372 1.485 . S
C352 C351 1.412 . S
C352 C353 1.388 . S
C352 C378 1.490 . S
C353 C348 1.397 . S
C353 C352 1.388 . S
C353 C384 1.519 . S
C354 C348 1.492 . S
C354 C355 1.363 . S
C354 C359 1.390 . S
C355 H320 0.930 . S
C355 C354 1.363 . S
C355 C356 1.372 . S
C356 H321 0.930 . S
C356 C355 1.372 . S
C356 C357 1.383 . S
C357 C356 1.383 . S
C357 C358 1.395 . S
C358 H322 0.930 . S
C358 C357 1.395 . S
C358 C359 1.362 . S
C359 H323 0.930 . S
C359 C354 1.390 . S
C359 C358 1.362 . S
C360 C349 1.492 . S
C360 C361 1.377 . S
C360 C365 1.397 . S
C361 H324 0.931 . S
C361 C360 1.377 . S
C361 C362 1.376 . S
C362 H325 0.930 . S
C362 C361 1.376 . S
C362 C363 1.376 . S
C363 C362 1.376 . S
C363 C364 1.378 . S
C363 C390 1.486 . S
C364 H326 0.930 . S
C364 C363 1.378 . S
C364 C365 1.376 . S
C365 H327 0.929 . S
C365 C360 1.397 . S
C365 C364 1.376 . S
C366 C350 1.509 . S
C366 C367 1.391 . S
C366 C371 1.386 . S
C367 H328 0.930 . S
C367 C366 1.391 . S
C367 C368 1.375 . S
C368 H329 0.931 . S
C368 C367 1.375 . S
C368 C369 1.375 . S
C369 C368 1.375 . S
C369 C370 1.361 . S
C370 H330 0.930 . S
C370 C369 1.361 . S
C370 C371 1.399 . S
C371 H331 0.929 . S
C371 C366 1.386 . S
C371 C370 1.399 . S
C372 C351 1.485 . S
C372 C373 1.394 . S
C372 C377 1.360 . S
C373 H332 0.931 . S
C373 C372 1.394 . S
C373 C374 1.372 . S
C374 H333 0.930 . S
C374 C373 1.372 . S
C374 C375 1.397 . S
C375 C374 1.397 . S
C375 C376 1.390 . S
C375 C391 1.476 . S
C376 H334 0.930 . S
C376 C375 1.390 . S
C376 C377 1.366 . S
C377 H335 0.932 . S
C377 C372 1.360 . S
C377 C376 1.366 . S
C378 C352 1.490 . S
C378 C379 1.380 . S
C378 C383 1.386 . S
C379 H336 0.930 . S
C379 C378 1.380 . S
C379 C380 1.381 . S
C380 H337 0.929 . S
C380 C379 1.381 . S
C380 C381 1.371 . S
C381 C380 1.371 . S
C381 C382 1.380 . S
C382 H338 0.931 . S
C382 C381 1.380 . S
C382 C383 1.387 . S
C383 H339 0.930 . S
C383 C378 1.386 . S
C383 C382 1.387 . S
C384 C353 1.519 . S
C384 C385 1.377 . S
C384 C389 1.361 . S
C385 H340 0.929 . S
C385 C384 1.377 . S
C385 C386 1.386 . S
C386 H341 0.931 . S
C386 C385 1.386 . S
C386 C387 1.363 . S
C387 C386 1.363 . S
C387 C388 1.385 . S
C388 H342 0.930 . S
C388 C387 1.385 . S
C388 C389 1.396 . S
C389 H343 0.929 . S
C389 C384 1.361 . S
C389 C388 1.396 . S
C390 O344 1.300 . S
C390 O345 1.209 . S
C390 C363 1.486 . S
C391 O346 1.199 . S
C391 O347 1.297 . S
C391 C375 1.476 . S
H392 O418 0.856 . S
H393 O421 0.854 . S
H394 C429 0.930 . S
H395 C430 0.930 . S
H396 C432 0.930 . S
H397 C433 0.930 . S
H398 C435 0.931 . S
H399 C436 0.930 . S
H400 C438 0.930 . S
H401 C439 0.929 . S
H402 C441 0.930 . S
H403 C442 0.931 . S
H404 C444 0.930 . S
H405 C445 0.929 . S
H406 C447 0.931 . S
H407 C448 0.930 . S
H408 C450 0.930 . S
H409 C451 0.932 . S
H410 C453 0.930 . S
H411 C454 0.929 . S
H412 C456 0.931 . S
H413 C457 0.930 . S
H414 C459 0.929 . S
H415 C460 0.931 . S
H416 C462 0.930 . S
H417 C463 0.929 . S
O418 H392 0.856 . S
O418 C464 1.300 . S
O419 C464 1.209 . S
O420 C465 1.199 . S
O421 H393 0.854 . S
O421 C465 1.297 . S
C422 C423 1.404 . S
C422 C427 1.397 . S
C422 C428 1.492 . S
C423 C422 1.404 . S
C423 C424 1.396 . S
C423 C434 1.492 . S
C424 C423 1.396 . S
C424 C425 1.397 . S
C424 C440 1.509 . S
C425 C424 1.397 . S
C425 C426 1.412 . S
C425 C446 1.485 . S
C426 C425 1.412 . S
C426 C427 1.388 . S
C426 C452 1.490 . S
C427 C422 1.397 . S
C427 C426 1.388 . S
C427 C458 1.519 . S
C428 C422 1.492 . S
C428 C429 1.363 . S
C428 C433 1.390 . S
C429 H394 0.930 . S
C429 C428 1.363 . S
C429 C430 1.372 . S
C430 H395 0.930 . S
C430 C429 1.372 . S
C430 C431 1.383 . S
C431 C430 1.383 . S
C431 C432 1.395 . S
C432 H396 0.930 . S
C432 C431 1.395 . S
C432 C433 1.362 . S
C433 H397 0.930 . S
C433 C428 1.390 . S
C433 C432 1.362 . S
C434 C423 1.492 . S
C434 C435 1.377 . S
C434 C439 1.397 . S
C435 H398 0.931 . S
C435 C434 1.377 . S
C435 C436 1.376 . S
C436 H399 0.930 . S
C436 C435 1.376 . S
C436 C437 1.376 . S
C437 C436 1.376 . S
C437 C438 1.378 . S
C437 C464 1.486 . S
C438 H400 0.930 . S
C438 C437 1.378 . S
C438 C439 1.376 . S
C439 H401 0.929 . S
C439 C434 1.397 . S
C439 C438 1.376 . S
C440 C424 1.509 . S
C440 C441 1.391 . S
C440 C445 1.386 . S
C441 H402 0.930 . S
C441 C440 1.391 . S
C441 C442 1.375 . S
C442 H403 0.931 . S
C442 C441 1.375 . S
C442 C443 1.375 . S
C443 C442 1.375 . S
C443 C444 1.361 . S
C444 H404 0.930 . S
C444 C443 1.361 . S
C444 C445 1.399 . S
C445 H405 0.929 . S
C445 C440 1.386 . S
C445 C444 1.399 . S
C446 C425 1.485 . S
C446 C447 1.394 . S
C446 C451 1.360 . S
C447 H406 0.931 . S
C447 C446 1.394 . S
C447 C448 1.372 . S
C448 H407 0.930 . S
C448 C447 1.372 . S
C448 C449 1.397 . S
C449 C448 1.397 . S
C449 C450 1.390 . S
C449 C465 1.476 . S
C450 H408 0.930 . S
C450 C449 1.390 . S
C450 C451 1.366 . S
C451 H409 0.932 . S
C451 C446 1.360 . S
C451 C450 1.366 . S
C452 C426 1.490 . S
C452 C453 1.380 . S
C452 C457 1.386 . S
C453 H410 0.930 . S
C453 C452 1.380 . S
C453 C454 1.381 . S
C454 H411 0.929 . S
C454 C453 1.381 . S
C454 C455 1.371 . S
C455 C454 1.371 . S
C455 C456 1.380 . S
C456 H412 0.931 . S
C456 C455 1.380 . S
C456 C457 1.387 . S
C457 H413 0.930 . S
C457 C452 1.386 . S
C457 C456 1.387 . S
C458 C427 1.519 . S
C458 C459 1.377 . S
C458 C463 1.361 . S
C459 H414 0.929 . S
C459 C458 1.377 . S
C459 C460 1.386 . S
C460 H415 0.931 . S
C460 C459 1.386 . S
C460 C461 1.363 . S
C461 C460 1.363 . S
C461 C462 1.385 . S
C462 H416 0.930 . S
C462 C461 1.385 . S
C462 C463 1.396 . S
C463 H417 0.929 . S
C463 C458 1.361 . S
C463 C462 1.396 . S
C464 O418 1.300 . S
C464 O419 1.209 . S
C464 C437 1.486 . S
C465 O420 1.199 . S
C465 O421 1.297 . S
C465 C449 1.476 . S
H466 O492 0.856 . S
H467 O495 0.854 1_545 S
H468 C503 0.930 . S
H469 C504 0.930 . S
H470 C506 0.930 . S
H471 C507 0.930 . S
H472 C509 0.931 . S
H473 C510 0.930 . S
H474 C512 0.930 . S
H475 C513 0.929 . S
H476 C515 0.930 . S
H477 C516 0.931 . S
H478 C518 0.930 . S
H479 C519 0.929 . S
H480 C521 0.931 . S
H481 C522 0.930 . S
H482 C524 0.930 . S
H483 C525 0.932 . S
H484 C527 0.930 . S
H485 C528 0.929 . S
H486 C530 0.931 . S
H487 C531 0.930 . S
H488 C533 0.929 . S
H489 C534 0.931 . S
H490 C536 0.930 . S
H491 C537 0.929 . S
O492 H466 0.856 . S
O492 C538 1.300 . S
O493 C538 1.209 . S
O494 C539 1.199 . S
O495 H467 0.854 1_565 S
O495 C539 1.297 . S
C496 C497 1.404 . S
C496 C501 1.397 . S
C496 C502 1.492 . S
C497 C496 1.404 . S
C497 C498 1.396 . S
C497 C508 1.492 . S
C498 C497 1.396 . S
C498 C499 1.397 . S
C498 C514 1.509 . S
C499 C498 1.397 . S
C499 C500 1.412 . S
C499 C520 1.485 . S
C500 C499 1.412 . S
C500 C501 1.388 . S
C500 C526 1.490 . S
C501 C496 1.397 . S
C501 C500 1.388 . S
C501 C532 1.519 . S
C502 C496 1.492 . S
C502 C503 1.363 . S
C502 C507 1.390 . S
C503 H468 0.930 . S
C503 C502 1.363 . S
C503 C504 1.372 . S
C504 H469 0.930 . S
C504 C503 1.372 . S
C504 C505 1.383 . S
C505 C504 1.383 . S
C505 C506 1.395 . S
C506 H470 0.930 . S
C506 C505 1.395 . S
C506 C507 1.362 . S
C507 H471 0.930 . S
C507 C502 1.390 . S
C507 C506 1.362 . S
C508 C497 1.492 . S
C508 C509 1.377 . S
C508 C513 1.397 . S
C509 H472 0.931 . S
C509 C508 1.377 . S
C509 C510 1.376 . S
C510 H473 0.930 . S
C510 C509 1.376 . S
C510 C511 1.376 . S
C511 C510 1.376 . S
C511 C512 1.378 . S
C511 C538 1.486 . S
C512 H474 0.930 . S
C512 C511 1.378 . S
C512 C513 1.376 . S
C513 H475 0.929 . S
C513 C508 1.397 . S
C513 C512 1.376 . S
C514 C498 1.509 . S
C514 C515 1.391 . S
C514 C519 1.386 . S
C515 H476 0.930 . S
C515 C514 1.391 . S
C515 C516 1.375 . S
C516 H477 0.931 . S
C516 C515 1.375 . S
C516 C517 1.375 . S
C517 C516 1.375 . S
C517 C518 1.361 . S
C518 H478 0.930 . S
C518 C517 1.361 . S
C518 C519 1.399 . S
C519 H479 0.929 . S
C519 C514 1.386 . S
C519 C518 1.399 . S
C520 C499 1.485 . S
C520 C521 1.394 . S
C520 C525 1.360 . S
C521 H480 0.931 . S
C521 C520 1.394 . S
C521 C522 1.372 . S
C522 H481 0.930 . S
C522 C521 1.372 . S
C522 C523 1.397 . S
C523 C522 1.397 . S
C523 C524 1.390 . S
C523 C539 1.476 . S
C524 H482 0.930 . S
C524 C523 1.390 . S
C524 C525 1.366 . S
C525 H483 0.932 . S
C525 C520 1.360 . S
C525 C524 1.366 . S
C526 C500 1.490 . S
C526 C527 1.380 . S
C526 C531 1.386 . S
C527 H484 0.930 . S
C527 C526 1.380 . S
C527 C528 1.381 . S
C528 H485 0.929 . S
C528 C527 1.381 . S
C528 C529 1.371 . S
C529 C528 1.371 . S
C529 C530 1.380 . S
C530 H486 0.931 . S
C530 C529 1.380 . S
C530 C531 1.387 . S
C531 H487 0.930 . S
C531 C526 1.386 . S
C531 C530 1.387 . S
C532 C501 1.519 . S
C532 C533 1.377 . S
C532 C537 1.361 . S
C533 H488 0.929 . S
C533 C532 1.377 . S
C533 C534 1.386 . S
C534 H489 0.931 . S
C534 C533 1.386 . S
C534 C535 1.363 . S
C535 C534 1.363 . S
C535 C536 1.385 . S
C536 H490 0.930 . S
C536 C535 1.385 . S
C536 C537 1.396 . S
C537 H491 0.929 . S
C537 C532 1.361 . S
C537 C536 1.396 . S
C538 O492 1.300 . S
C538 O493 1.209 . S
C538 C511 1.486 . S
C539 O494 1.199 . S
C539 O495 1.297 . S
C539 C523 1.476 . S
H540 O566 0.856 . S
H541 O569 0.854 . S
H542 C577 0.930 . S
H543 C578 0.930 . S
H544 C580 0.930 . S
H545 C581 0.930 . S
H546 C583 0.931 . S
H547 C584 0.930 . S
H548 C586 0.930 . S
H549 C587 0.929 . S
H550 C589 0.930 . S
H551 C590 0.931 . S
H552 C592 0.930 . S
H553 C593 0.929 . S
H554 C595 0.931 . S
H555 C596 0.927 1_455 S
H556 C598 0.930 . S
H557 C599 0.932 . S
H558 C601 0.930 . S
H559 C602 0.929 . S
H560 C604 0.931 . S
H561 C605 0.930 . S
H562 C607 0.929 . S
H563 C608 0.931 . S
H564 C610 0.930 . S
H565 C611 0.929 . S
O566 H540 0.856 . S
O566 C612 1.300 . S
O567 C612 1.209 . S
O568 C613 1.199 . S
O569 H541 0.854 . S
O569 C613 1.297 . S
C570 C571 1.404 . S
C570 C575 1.397 . S
C570 C576 1.492 . S
C571 C570 1.404 . S
C571 C572 1.396 . S
C571 C582 1.492 . S
C572 C571 1.396 . S
C572 C573 1.397 . S
C572 C588 1.509 . S
C573 C572 1.397 . S
C573 C574 1.412 . S
C573 C594 1.485 . S
C574 C573 1.412 . S
C574 C575 1.388 . S
C574 C600 1.490 . S
C575 C570 1.397 . S
C575 C574 1.388 . S
C575 C606 1.519 . S
C576 C570 1.492 . S
C576 C577 1.363 . S
C576 C581 1.390 . S
C577 H542 0.930 . S
C577 C576 1.363 . S
C577 C578 1.372 . S
C578 H543 0.930 . S
C578 C577 1.372 . S
C578 C579 1.383 . S
C579 C578 1.383 . S
C579 C580 1.395 . S
C580 H544 0.930 . S
C580 C579 1.395 . S
C580 C581 1.362 . S
C581 H545 0.930 . S
C581 C576 1.390 . S
C581 C580 1.362 . S
C582 C571 1.492 . S
C582 C583 1.377 . S
C582 C587 1.397 . S
C583 H546 0.931 . S
C583 C582 1.377 . S
C583 C584 1.376 . S
C584 H547 0.930 . S
C584 C583 1.376 . S
C584 C585 1.376 . S
C585 C584 1.376 . S
C585 C586 1.378 . S
C585 C612 1.486 . S
C586 H548 0.930 . S
C586 C585 1.378 . S
C586 C587 1.376 . S
C587 H549 0.929 . S
C587 C582 1.397 . S
C587 C586 1.376 . S
C588 C572 1.509 . S
C588 C589 1.391 . S
C588 C593 1.386 . S
C589 H550 0.930 . S
C589 C588 1.391 . S
C589 C590 1.375 . S
C590 H551 0.931 . S
C590 C589 1.375 . S
C590 C591 1.375 . S
C591 C590 1.375 . S
C591 C592 1.361 . S
C592 H552 0.930 . S
C592 C591 1.361 . S
C592 C593 1.399 . S
C593 H553 0.929 . S
C593 C588 1.386 . S
C593 C592 1.399 . S
C594 C573 1.485 . S
C594 C595 1.394 . S
C594 C599 1.360 . S
C595 H554 0.931 . S
C595 C594 1.394 . S
C595 C596 1.378 . S
C596 H555 0.927 1_655 S
C596 C595 1.378 . S
C596 C597 1.414 . S
C597 C596 1.414 . S
C597 C598 1.411 . S
C597 C613 1.437 1_655 S
C598 H556 0.930 . S
C598 C597 1.411 . S
C598 C599 1.366 . S
C599 H557 0.932 . S
C599 C594 1.360 . S
C599 C598 1.366 . S
C600 C574 1.490 . S
C600 C601 1.380 . S
C600 C605 1.386 . S
C601 H558 0.930 . S
C601 C600 1.380 . S
C601 C602 1.381 . S
C602 H559 0.929 . S
C602 C601 1.381 . S
C602 C603 1.371 . S
C603 C602 1.371 . S
C603 C604 1.380 . S
C604 H560 0.931 . S
C604 C603 1.380 . S
C604 C605 1.387 . S
C605 H561 0.930 . S
C605 C600 1.386 . S
C605 C604 1.387 . S
C606 C575 1.519 . S
C606 C607 1.377 . S
C606 C611 1.361 . S
C607 H562 0.929 . S
C607 C606 1.377 . S
C607 C608 1.386 . S
C608 H563 0.931 . S
C608 C607 1.386 . S
C608 C609 1.363 . S
C609 C608 1.363 . S
C609 C610 1.385 . S
C610 H564 0.930 . S
C610 C609 1.385 . S
C610 C611 1.396 . S
C611 H565 0.929 . S
C611 C606 1.361 . S
C611 C610 1.396 . S
C612 O566 1.300 . S
C612 O567 1.209 . S
C612 C585 1.486 . S
C613 O568 1.199 . S
C613 O569 1.297 . S
C613 C597 1.437 1_455 S
H614 O640 0.856 . S
H615 O643 0.854 . S
H616 C651 0.930 . S
H617 C652 0.930 . S
H618 C654 0.930 . S
H619 C655 0.930 . S
H620 C657 0.931 . S
H621 C658 0.930 . S
H622 C660 0.930 . S
H623 C661 0.929 . S
H624 C663 0.930 . S
H625 C664 0.931 . S
H626 C666 0.930 . S
H627 C667 0.929 . S
H628 C669 0.931 . S
H629 C670 0.930 . S
H630 C672 0.930 . S
H631 C673 0.932 . S
H632 C675 0.930 . S
H633 C676 0.929 . S
H634 C678 0.931 . S
H635 C679 0.930 . S
H636 C681 0.929 . S
H637 C682 0.931 . S
H638 C684 0.930 . S
H639 C685 0.929 . S
O640 H614 0.856 . S
O640 C686 1.300 . S
O641 C686 1.209 . S
O642 C687 1.199 . S
O643 H615 0.854 . S
O643 C687 1.297 . S
C644 C645 1.404 . S
C644 C649 1.397 . S
C644 C650 1.492 . S
C645 C644 1.404 . S
C645 C646 1.396 . S
C645 C656 1.492 . S
C646 C645 1.396 . S
C646 C647 1.397 . S
C646 C662 1.509 . S
C647 C646 1.397 . S
C647 C648 1.412 . S
C647 C668 1.485 . S
C648 C647 1.412 . S
C648 C649 1.388 . S
C648 C674 1.490 . S
C649 C644 1.397 . S
C649 C648 1.388 . S
C649 C680 1.519 . S
C650 C644 1.492 . S
C650 C651 1.363 . S
C650 C655 1.390 . S
C651 H616 0.930 . S
C651 C650 1.363 . S
C651 C652 1.372 . S
C652 H617 0.930 . S
C652 C651 1.372 . S
C652 C653 1.383 . S
C653 C652 1.383 . S
C653 C654 1.395 . S
C654 H618 0.930 . S
C654 C653 1.395 . S
C654 C655 1.362 . S
C655 H619 0.930 . S
C655 C650 1.390 . S
C655 C654 1.362 . S
C656 C645 1.492 . S
C656 C657 1.377 . S
C656 C661 1.397 . S
C657 H620 0.931 . S
C657 C656 1.377 . S
C657 C658 1.376 . S
C658 H621 0.930 . S
C658 C657 1.376 . S
C658 C659 1.376 . S
C659 C658 1.376 . S
C659 C660 1.378 . S
C659 C686 1.486 . S
C660 H622 0.930 . S
C660 C659 1.378 . S
C660 C661 1.376 . S
C661 H623 0.929 . S
C661 C656 1.397 . S
C661 C660 1.376 . S
C662 C646 1.509 . S
C662 C663 1.391 . S
C662 C667 1.386 . S
C663 H624 0.930 . S
C663 C662 1.391 . S
C663 C664 1.375 . S
C664 H625 0.931 . S
C664 C663 1.375 . S
C664 C665 1.375 . S
C665 C664 1.375 . S
C665 C666 1.361 . S
C666 H626 0.930 . S
C666 C665 1.361 . S
C666 C667 1.399 . S
C667 H627 0.929 . S
C667 C662 1.386 . S
C667 C666 1.399 . S
C668 C647 1.485 . S
C668 C669 1.394 . S
C668 C673 1.360 . S
C669 H628 0.931 . S
C669 C668 1.394 . S
C669 C670 1.372 . S
C670 H629 0.930 . S
C670 C669 1.372 . S
C670 C671 1.397 . S
C671 C670 1.397 . S
C671 C672 1.390 . S
C671 C687 1.476 . S
C672 H630 0.930 . S
C672 C671 1.390 . S
C672 C673 1.366 . S
C673 H631 0.932 . S
C673 C668 1.360 . S
C673 C672 1.366 . S
C674 C648 1.490 . S
C674 C675 1.380 . S
C674 C679 1.386 . S
C675 H632 0.930 . S
C675 C674 1.380 . S
C675 C676 1.381 . S
C676 H633 0.929 . S
C676 C675 1.381 . S
C676 C677 1.371 . S
C677 C676 1.371 . S
C677 C678 1.380 . S
C678 H634 0.931 . S
C678 C677 1.380 . S
C678 C679 1.387 . S
C679 H635 0.930 . S
C679 C674 1.386 . S
C679 C678 1.387 . S
C680 C649 1.519 . S
C680 C681 1.377 . S
C680 C685 1.361 . S
C681 H636 0.929 . S
C681 C680 1.377 . S
C681 C682 1.386 . S
C682 H637 0.931 . S
C682 C681 1.386 . S
C682 C683 1.363 . S
C683 C682 1.363 . S
C683 C684 1.385 . S
C684 H638 0.930 . S
C684 C683 1.385 . S
C684 C685 1.396 . S
C685 H639 0.929 . S
C685 C680 1.361 . S
C685 C684 1.396 . S
C686 O640 1.300 . S
C686 O641 1.209 . S
C686 C659 1.486 . S
C687 O642 1.199 . S
C687 O643 1.297 . S
C687 C671 1.476 . S
H688 O714 0.856 . S
H689 O717 0.854 . S
H690 C725 0.930 . S
H691 C726 0.930 . S
H692 C728 0.930 . S
H693 C729 0.930 . S
H694 C731 0.931 . S
H695 C732 0.930 . S
H696 C734 0.930 . S
H697 C735 0.929 . S
H698 C737 0.930 . S
H699 C738 0.931 . S
H700 C740 0.930 . S
H701 C741 0.929 . S
H702 C743 0.931 . S
H703 C744 0.930 . S
H704 C746 0.930 . S
H705 C747 0.932 . S
H706 C749 0.930 . S
H707 C750 0.929 . S
H708 C752 0.931 . S
H709 C753 0.930 . S
H710 C755 0.929 . S
H711 C756 0.931 . S
H712 C758 0.930 . S
H713 C759 0.929 . S
O714 H688 0.856 . S
O714 C760 1.300 . S
O715 C760 1.209 . S
O716 C761 1.199 . S
O717 H689 0.854 . S
O717 C761 1.297 . S
C718 C719 1.404 . S
C718 C723 1.397 . S
C718 C724 1.492 . S
C719 C718 1.404 . S
C719 C720 1.396 . S
C719 C730 1.492 . S
C720 C719 1.396 . S
C720 C721 1.397 . S
C720 C736 1.509 . S
C721 C720 1.397 . S
C721 C722 1.412 . S
C721 C742 1.485 . S
C722 C721 1.412 . S
C722 C723 1.388 . S
C722 C748 1.490 . S
C723 C718 1.397 . S
C723 C722 1.388 . S
C723 C754 1.519 . S
C724 C718 1.492 . S
C724 C725 1.363 . S
C724 C729 1.390 . S
C725 H690 0.930 . S
C725 C724 1.363 . S
C725 C726 1.372 . S
C726 H691 0.930 . S
C726 C725 1.372 . S
C726 C727 1.383 . S
C727 C726 1.383 . S
C727 C728 1.395 . S
C728 H692 0.930 . S
C728 C727 1.395 . S
C728 C729 1.362 . S
C729 H693 0.930 . S
C729 C724 1.390 . S
C729 C728 1.362 . S
C730 C719 1.492 . S
C730 C731 1.377 . S
C730 C735 1.397 . S
C731 H694 0.931 . S
C731 C730 1.377 . S
C731 C732 1.376 . S
C732 H695 0.930 . S
C732 C731 1.376 . S
C732 C733 1.376 . S
C733 C732 1.376 . S
C733 C734 1.378 . S
C733 C760 1.486 . S
C734 H696 0.930 . S
C734 C733 1.378 . S
C734 C735 1.376 . S
C735 H697 0.929 . S
C735 C730 1.397 . S
C735 C734 1.376 . S
C736 C720 1.509 . S
C736 C737 1.391 . S
C736 C741 1.386 . S
C737 H698 0.930 . S
C737 C736 1.391 . S
C737 C738 1.375 . S
C738 H699 0.931 . S
C738 C737 1.375 . S
C738 C739 1.375 . S
C739 C738 1.375 . S
C739 C740 1.361 . S
C740 H700 0.930 . S
C740 C739 1.361 . S
C740 C741 1.399 . S
C741 H701 0.929 . S
C741 C736 1.386 . S
C741 C740 1.399 . S
C742 C721 1.485 . S
C742 C743 1.394 . S
C742 C747 1.360 . S
C743 H702 0.931 . S
C743 C742 1.394 . S
C743 C744 1.372 . S
C744 H703 0.930 . S
C744 C743 1.372 . S
C744 C745 1.397 . S
C745 C744 1.397 . S
C745 C746 1.390 . S
C745 C761 1.476 . S
C746 H704 0.930 . S
C746 C745 1.390 . S
C746 C747 1.366 . S
C747 H705 0.932 . S
C747 C742 1.360 . S
C747 C746 1.366 . S
C748 C722 1.490 . S
C748 C749 1.380 . S
C748 C753 1.386 . S
C749 H706 0.930 . S
C749 C748 1.380 . S
C749 C750 1.381 . S
C750 H707 0.929 . S
C750 C749 1.381 . S
C750 C751 1.371 . S
C751 C750 1.371 . S
C751 C752 1.380 . S
C752 H708 0.931 . S
C752 C751 1.380 . S
C752 C753 1.387 . S
C753 H709 0.930 . S
C753 C748 1.386 . S
C753 C752 1.387 . S
C754 C723 1.519 . S
C754 C755 1.377 . S
C754 C759 1.361 . S
C755 H710 0.929 . S
C755 C754 1.377 . S
C755 C756 1.386 . S
C756 H711 0.931 . S
C756 C755 1.386 . S
C756 C757 1.363 . S
C757 C756 1.363 . S
C757 C758 1.385 . S
C758 H712 0.930 . S
C758 C757 1.385 . S
C758 C759 1.396 . S
C759 H713 0.929 . S
C759 C754 1.361 . S
C759 C758 1.396 . S
C760 O714 1.300 . S
C760 O715 1.209 . S
C760 C733 1.486 . S
C761 O716 1.199 . S
C761 O717 1.297 . S
C761 C745 1.476 . S
H762 C770 0.950 . S
H763 C775 0.950 . S
H764 C772 0.950 . S
H765 C774 0.950 . S
H766 C776 0.950 . S
H767 C778 0.950 . S
H768 C780 0.950 . S
H769 C781 0.950 . S
C770 H762 0.950 . S
C770 C771 1.386 . S
C770 C772 1.391 . S
C771 C770 1.386 . S
C771 C775 1.393 . S
C772 H764 0.950 . S
C772 C770 1.391 . S
C772 C773 1.400 . S
C773 C772 1.400 . S
C773 C774 1.398 . S
C773 C779 1.491 . S
C774 H765 0.950 . S
C774 C773 1.398 . S
C774 C775 1.391 . S
C775 H763 0.950 . S
C775 C771 1.393 . S
C775 C774 1.391 . S
C776 H766 0.950 . S
C776 C777 1.386 . S
C776 C778 1.391 . S
C777 C776 1.386 . S
C777 C781 1.393 . S
C778 H767 0.950 . S
C778 C776 1.391 . S
C778 C779 1.400 . S
C779 C773 1.491 . S
C779 C778 1.400 . S
C779 C780 1.398 . S
C780 H768 0.950 . S
C780 C779 1.398 . S
C780 C781 1.391 . S
C781 H769 0.950 . S
C781 C777 1.393 . S
C781 C780 1.391 . S
H782 C790 0.950 . S
H783 C795 0.950 . S
H784 C792 0.950 . S
H785 C794 0.950 . S
H786 C796 0.950 . S
H787 C798 0.950 . S
H788 C800 0.950 . S
H789 C801 0.950 . S
C790 H782 0.950 . S
C790 C791 1.386 . S
C790 C792 1.391 . S
C791 C790 1.386 . S
C791 C795 1.393 . S
C792 H784 0.950 . S
C792 C790 1.391 . S
C792 C793 1.400 . S
C793 C792 1.400 . S
C793 C794 1.398 . S
C793 C799 1.491 . S
C794 H785 0.950 . S
C794 C793 1.398 . S
C794 C795 1.391 . S
C795 H783 0.950 . S
C795 C791 1.393 . S
C795 C794 1.391 . S
C796 H786 0.950 . S
C796 C797 1.386 . S
C796 C798 1.391 . S
C797 C796 1.386 . S
C797 C801 1.393 . S
C798 H787 0.950 . S
C798 C796 1.391 . S
C798 C799 1.400 . S
C799 C793 1.491 . S
C799 C798 1.400 . S
C799 C800 1.398 . S
C800 H788 0.950 . S
C800 C799 1.398 . S
C800 C801 1.391 . S
C801 H789 0.950 . S
C801 C797 1.393 . S
C801 C800 1.391 . S
H802 C810 0.950 . S
H803 C815 0.950 . S
H804 C812 0.950 . S
H805 C814 0.950 . S
H806 C816 0.950 . S
H807 C818 0.950 . S
H808 C820 0.950 . S
H809 C821 0.950 . S
C810 H802 0.950 . S
C810 C811 1.386 . S
C810 C812 1.391 . S
C811 C810 1.386 . S
C811 C815 1.393 . S
C812 H804 0.950 . S
C812 C810 1.391 . S
C812 C813 1.400 . S
C813 C812 1.400 . S
C813 C814 1.398 . S
C813 C819 1.491 . S
C814 H805 0.950 . S
C814 C813 1.398 . S
C814 C815 1.391 . S
C815 H803 0.950 . S
C815 C811 1.393 . S
C815 C814 1.391 . S
C816 H806 0.950 . S
C816 C817 1.386 . S
C816 C818 1.391 . S
C817 C816 1.386 . S
C817 C821 1.393 . S
C818 H807 0.950 . S
C818 C816 1.391 . S
C818 C819 1.400 . S
C819 C813 1.491 . S
C819 C818 1.400 . S
C819 C820 1.398 . S
C820 H808 0.950 . S
C820 C819 1.398 . S
C820 C821 1.391 . S
C821 H809 0.950 . S
C821 C817 1.393 . S
C821 C820 1.391 . S
H822 C830 0.950 . S
H823 C835 0.950 . S
H824 C832 0.950 . S
H825 C834 0.950 . S
H826 C836 0.950 . S
H827 C838 0.950 . S
H828 C840 0.950 . S
H829 C841 0.950 . S
C830 H822 0.950 . S
C830 C831 1.386 . S
C830 C832 1.391 . S
C831 C830 1.386 . S
C831 C835 1.393 . S
C832 H824 0.950 . S
C832 C830 1.391 . S
C832 C833 1.400 . S
C833 C832 1.400 . S
C833 C834 1.398 . S
C833 C839 1.491 . S
C834 H825 0.950 . S
C834 C833 1.398 . S
C834 C835 1.391 . S
C835 H823 0.950 . S
C835 C831 1.393 . S
C835 C834 1.391 . S
C836 H826 0.950 . S
C836 C837 1.386 . S
C836 C838 1.391 . S
C837 C836 1.386 . S
C837 C841 1.393 . S
C838 H827 0.950 . S
C838 C836 1.391 . S
C838 C839 1.400 . S
C839 C833 1.491 . S
C839 C838 1.400 . S
C839 C840 1.398 . S
C840 H828 0.950 . S
C840 C839 1.398 . S
C840 C841 1.391 . S
C841 H829 0.950 . S
C841 C837 1.393 . S
C841 C840 1.391 . S
H842 C850 0.950 . S
H843 C855 0.950 . S
H844 C852 0.950 . S
H845 C854 0.950 . S
H846 C856 0.950 . S
H847 C858 0.950 . S
H848 C860 0.950 . S
H849 C861 0.950 . S
C850 H842 0.950 . S
C850 C851 1.386 . S
C850 C852 1.391 . S
C851 C850 1.386 . S
C851 C855 1.393 1_565 S
C852 H844 0.950 . S
C852 C850 1.391 . S
C852 C853 1.400 . S
C853 C852 1.400 . S
C853 C854 1.398 . S
C853 C859 1.491 . S
C854 H845 0.950 . S
C854 C853 1.398 . S
C854 C855 1.391 1_565 S
C855 H843 0.950 . S
C855 C851 1.393 1_545 S
C855 C854 1.391 1_545 S
C856 H846 0.950 . S
C856 C857 1.386 . S
C856 C858 1.391 . S
C857 C856 1.386 . S
C857 C861 1.393 . S
C858 H847 0.950 . S
C858 C856 1.391 . S
C858 C859 1.400 . S
C859 C853 1.491 . S
C859 C858 1.400 . S
C859 C860 1.398 . S
C860 H848 0.950 . S
C860 C859 1.398 . S
C860 C861 1.391 . S
C861 H849 0.950 . S
C861 C857 1.393 . S
C861 C860 1.391 . S
H862 C870 0.950 . S
H863 C875 0.950 . S
H864 C872 0.950 . S
H865 C874 0.950 . S
H866 C876 0.950 . S
H867 C878 0.950 . S
H868 C880 0.950 . S
H869 C881 0.950 . S
C870 H862 0.950 . S
C870 C871 1.386 . S
C870 C872 1.391 . S
C871 C870 1.386 . S
C871 C875 1.393 . S
C872 H864 0.950 . S
C872 C870 1.391 . S
C872 C873 1.400 . S
C873 C872 1.400 . S
C873 C874 1.398 . S
C873 C879 1.491 . S
C874 H865 0.950 . S
C874 C873 1.398 . S
C874 C875 1.391 . S
C875 H863 0.950 . S
C875 C871 1.393 . S
C875 C874 1.391 . S
C876 H866 0.950 . S
C876 C877 1.386 . S
C876 C878 1.391 . S
C877 C876 1.386 . S
C877 C881 1.393 . S
C878 H867 0.950 . S
C878 C876 1.391 . S
C878 C879 1.400 . S
C879 C873 1.491 . S
C879 C878 1.400 . S
C879 C880 1.398 . S
C880 H868 0.950 . S
C880 C879 1.398 . S
C880 C881 1.391 . S
C881 H869 0.950 . S
C881 C877 1.393 . S
C881 C880 1.391 . S
H882 C890 0.950 . S
H883 C895 0.950 . S
H884 C892 0.950 . S
H885 C894 0.950 . S
H886 C896 0.950 . S
H887 C898 0.950 . S
H888 C900 0.950 . S
H889 C901 0.950 . S
C890 H882 0.950 . S
C890 C891 1.386 . S
C890 C892 1.391 . S
C891 C890 1.386 . S
C891 C895 1.393 . S
C892 H884 0.950 . S
C892 C890 1.391 . S
C892 C893 1.400 . S
C893 C892 1.400 . S
C893 C894 1.398 . S
C893 C899 1.491 . S
C894 H885 0.950 . S
C894 C893 1.398 . S
C894 C895 1.391 . S
C895 H883 0.950 . S
C895 C891 1.393 . S
C895 C894 1.391 . S
C896 H886 0.950 . S
C896 C897 1.386 . S
C896 C898 1.391 . S
C897 C896 1.386 . S
C897 C901 1.393 . S
C898 H887 0.950 . S
C898 C896 1.391 . S
C898 C899 1.400 . S
C899 C893 1.491 . S
C899 C898 1.400 . S
C899 C900 1.398 . S
C900 H888 0.950 . S
C900 C899 1.398 . S
C900 C901 1.391 . S
C901 H889 0.950 . S
C901 C897 1.393 . S
C901 C900 1.391 . S
H902 C910 0.950 . S
H903 C915 0.950 . S
H904 C912 0.950 . S
H905 C914 0.950 . S
H906 C916 0.950 . S
H907 C918 0.950 . S
H908 C920 0.950 . S
H909 C921 0.950 . S
C910 H902 0.950 . S
C910 C911 1.386 . S
C910 C912 1.391 . S
C911 C910 1.386 . S
C911 C915 1.393 . S
C912 H904 0.950 . S
C912 C910 1.391 . S
C912 C913 1.400 1_554 S
C913 C912 1.400 1_556 S
C913 C914 1.398 . S
C913 C919 1.491 . S
C914 H905 0.950 . S
C914 C913 1.398 . S
C914 C915 1.391 1_556 S
C915 H903 0.950 . S
C915 C911 1.393 . S
C915 C914 1.391 1_554 S
C916 H906 0.950 . S
C916 C917 1.386 . S
C916 C918 1.391 . S
C917 C916 1.386 . S
C917 C921 1.393 . S
C918 H907 0.950 . S
C918 C916 1.391 . S
C918 C919 1.400 . S
C919 C913 1.491 . S
C919 C918 1.400 . S
C919 C920 1.398 . S
C920 H908 0.950 . S
C920 C919 1.398 . S
C920 C921 1.391 . S
C921 H909 0.950 . S
C921 C917 1.393 . S
C921 C920 1.391 . S
H922 C930 0.950 . S
H923 C935 0.950 . S
H924 C932 0.950 . S
H925 C934 0.950 . S
H926 C936 0.950 . S
H927 C938 0.950 . S
H928 C940 0.950 . S
H929 C941 0.950 . S
C930 H922 0.950 . S
C930 C931 1.386 . S
C930 C932 1.391 . S
C931 C930 1.386 . S
C931 C935 1.393 . S
C932 H924 0.950 . S
C932 C930 1.391 . S
C932 C933 1.400 . S
C933 C932 1.400 . S
C933 C934 1.398 . S
C933 C939 1.491 . S
C934 H925 0.950 . S
C934 C933 1.398 . S
C934 C935 1.391 . S
C935 H923 0.950 . S
C935 C931 1.393 . S
C935 C934 1.391 . S
C936 H926 0.950 . S
C936 C937 1.386 . S
C936 C938 1.391 . S
C937 C936 1.386 . S
C937 C941 1.393 . S
C938 H927 0.950 . S
C938 C936 1.391 . S
C938 C939 1.400 . S
C939 C933 1.491 . S
C939 C938 1.400 . S
C939 C940 1.398 . S
C940 H928 0.950 . S
C940 C939 1.398 . S
C940 C941 1.391 . S
C941 H929 0.950 . S
C941 C937 1.393 . S
C941 C940 1.391 . S
H942 C950 0.950 . S
H943 C955 0.950 . S
H944 C952 0.962 . S
H945 C954 0.950 . S
H946 C956 0.950 . S
H947 C958 0.950 . S
H948 C960 0.950 . S
H949 C961 0.950 . S
C950 H942 0.950 . S
C950 C951 1.386 . S
C950 C952 1.391 1_554 S
C951 C950 1.386 . S
C951 C955 1.393 1_554 S
C952 H944 0.962 . S
C952 C950 1.391 1_556 S
C952 C953 1.400 . S
C953 C952 1.400 . S
C953 C954 1.398 . S
C953 C959 1.491 . S
C954 H945 0.950 . S
C954 C953 1.398 . S
C954 C955 1.391 . S
C955 H943 0.950 . S
C955 C951 1.393 1_556 S
C955 C954 1.391 . S
C956 H946 0.950 . S
C956 C957 1.386 . S
C956 C958 1.391 . S
C957 C956 1.386 . S
C957 C961 1.393 . S
C958 H947 0.950 . S
C958 C956 1.391 . S
C958 C959 1.400 . S
C959 C953 1.491 . S
C959 C958 1.400 . S
C959 C960 1.398 . S
C960 H948 0.950 . S
C960 C959 1.398 . S
C960 C961 1.391 . S
C961 H949 0.950 . S
C961 C957 1.393 . S
C961 C960 1.391 . S
H962 C970 0.950 . S
H963 C975 0.950 . S
H964 C972 0.950 . S
H965 C974 0.950 . S
H966 C976 0.950 . S
H967 C978 0.950 . S
H968 C980 0.950 . S
H969 C981 0.950 . S
C970 H962 0.950 . S
C970 C971 1.386 . S
C970 C972 1.391 . S
C971 C970 1.386 . S
C971 C975 1.393 . S
C972 H964 0.950 . S
C972 C970 1.391 . S
C972 C973 1.400 . S
C973 C972 1.400 . S
C973 C974 1.398 . S
C973 C979 1.491 . S
C974 H965 0.950 . S
C974 C973 1.398 . S
C974 C975 1.391 . S
C975 H963 0.950 . S
C975 C971 1.393 . S
C975 C974 1.391 . S
C976 H966 0.950 . S
C976 C977 1.386 . S
C976 C978 1.391 . S
C977 C976 1.386 . S
C977 C981 1.393 . S
C978 H967 0.950 . S
C978 C976 1.391 . S
C978 C979 1.400 . S
C979 C973 1.491 . S
C979 C978 1.400 . S
C979 C980 1.398 . S
C980 H968 0.950 . S
C980 C979 1.398 . S
C980 C981 1.391 . S
C981 H969 0.950 . S
C981 C977 1.393 . S
C981 C980 1.391 . S
H982 C990 0.950 . S
H983 C995 0.950 . S
H984 C992 0.950 . S
H985 C994 0.950 . S
H986 C996 0.950 . S
H987 C998 0.950 . S
H988 C1000 0.950 . S
H989 C1001 0.950 . S
C990 H982 0.950 . S
C990 C991 1.386 . S
C990 C992 1.391 . S
C991 C990 1.386 . S
C991 C995 1.393 . S
C992 H984 0.950 . S
C992 C990 1.391 . S
C992 C993 1.400 . S
C993 C992 1.400 . S
C993 C994 1.398 . S
C993 C999 1.491 . S
C994 H985 0.950 . S
C994 C993 1.398 . S
C994 C995 1.391 . S
C995 H983 0.950 . S
C995 C991 1.393 . S
C995 C994 1.391 . S
C996 H986 0.950 . S
C996 C997 1.386 . S
C996 C998 1.391 . S
C997 C996 1.386 . S
C997 C1001 1.393 1_655 S
C998 H987 0.950 . S
C998 C996 1.391 . S
C998 C999 1.400 1_655 S
C999 C993 1.491 . S
C999 C998 1.400 1_455 S
C999 C1000 1.398 . S
C1000 H988 0.950 . S
C1000 C999 1.398 . S
C1000 C1001 1.391 . S
C1001 H989 0.950 . S
C1001 C997 1.393 1_455 S
C1001 C1000 1.391 . S
H1002 C1010 0.950 . S
H1003 C1015 0.950 . S
H1004 C1012 0.950 . S
H1005 C1014 0.950 . S
H1006 C1016 0.950 . S
H1007 C1018 0.950 . S
H1008 C1020 0.950 . S
H1009 C1021 0.950 . S
C1010 H1002 0.950 . S
C1010 C1011 1.386 . S
C1010 C1012 1.391 . S
C1011 C1010 1.386 . S
C1011 C1015 1.393 . S
C1012 H1004 0.950 . S
C1012 C1010 1.391 . S
C1012 C1013 1.400 . S
C1013 C1012 1.400 . S
C1013 C1014 1.398 . S
C1013 C1019 1.491 . S
C1014 H1005 0.950 . S
C1014 C1013 1.398 . S
C1014 C1015 1.391 . S
C1015 H1003 0.950 . S
C1015 C1011 1.393 . S
C1015 C1014 1.391 . S
C1016 H1006 0.950 . S
C1016 C1017 1.386 1_455 S
C1016 C1018 1.391 . S
C1017 C1016 1.386 1_655 S
C1017 C1021 1.393 . S
C1018 H1007 0.950 . S
C1018 C1016 1.391 . S
C1018 C1019 1.400 . S
C1019 C1013 1.491 . S
C1019 C1018 1.400 . S
C1019 C1020 1.398 . S
C1020 H1008 0.950 . S
C1020 C1019 1.398 . S
C1020 C1021 1.391 1_455 S
C1021 H1009 0.950 . S
C1021 C1017 1.393 . S
C1021 C1020 1.391 1_655 S
H1022 C1030 0.950 . S
H1023 C1035 0.950 . S
H1024 C1032 0.950 . S
H1025 C1034 0.950 . S
H1026 C1036 0.950 . S
H1027 C1038 0.950 . S
H1028 C1040 0.950 . S
H1029 C1041 0.950 . S
C1030 H1022 0.950 . S
C1030 C1031 1.386 . S
C1030 C1032 1.391 . S
C1031 C1030 1.386 . S
C1031 C1035 1.393 . S
C1032 H1024 0.950 . S
C1032 C1030 1.391 . S
C1032 C1033 1.400 . S
C1033 C1032 1.400 . S
C1033 C1034 1.398 . S
C1033 C1039 1.491 . S
C1034 H1025 0.950 . S
C1034 C1033 1.398 . S
C1034 C1035 1.391 . S
C1035 H1023 0.950 . S
C1035 C1031 1.393 . S
C1035 C1034 1.391 . S
C1036 H1026 0.950 . S
C1036 C1037 1.386 . S
C1036 C1038 1.391 . S
C1037 C1036 1.386 . S
C1037 C1041 1.393 . S
C1038 H1027 0.950 . S
C1038 C1036 1.391 . S
C1038 C1039 1.400 . S
C1039 C1033 1.491 . S
C1039 C1038 1.400 . S
C1039 C1040 1.398 . S
C1040 H1028 0.950 . S
C1040 C1039 1.398 . S
C1040 C1041 1.391 . S
C1041 H1029 0.950 . S
C1041 C1037 1.393 . S
C1041 C1040 1.391 . S
H1042 C1050 0.950 . S
H1043 C1055 0.950 1_554 S
H1044 C1052 0.950 . S
H1045 C1054 0.950 . S
H1046 C1056 0.950 . S
H1047 C1058 0.950 . S
H1048 C1060 0.950 . S
H1049 C1061 0.950 . S
C1050 H1042 0.950 . S
C1050 C1051 1.389 . S
C1050 C1052 1.391 . S
C1051 C1050 1.389 . S
C1051 C1055 1.393 . S
C1052 H1044 0.950 . S
C1052 C1050 1.391 . S
C1052 C1053 1.400 . S
C1053 C1052 1.400 . S
C1053 C1054 1.398 . S
C1053 C1059 1.491 . S
C1054 H1045 0.950 . S
C1054 C1053 1.398 . S
C1054 C1055 1.391 . S
C1055 H1043 0.950 1_556 S
C1055 C1051 1.393 . S
C1055 C1054 1.391 . S
C1056 H1046 0.950 . S
C1056 C1057 1.386 . S
C1056 C1058 1.391 . S
C1057 C1056 1.386 . S
C1057 C1061 1.393 . S
C1058 H1047 0.950 . S
C1058 C1056 1.391 . S
C1058 C1059 1.400 . S
C1059 C1053 1.491 . S
C1059 C1058 1.400 . S
C1059 C1060 1.398 . S
C1060 H1048 0.950 . S
C1060 C1059 1.398 . S
C1060 C1061 1.391 . S
C1061 H1049 0.950 . S
C1061 C1057 1.393 . S
C1061 C1060 1.391 . S
H1062 C1070 0.950 . S
H1063 C1075 0.950 . S
H1064 C1072 0.950 . S
H1065 C1074 0.950 . S
H1066 C1076 0.950 . S
H1067 C1078 0.950 . S
H1068 C1080 0.950 . S
H1069 C1081 0.950 . S
C1070 H1062 0.950 . S
C1070 C1071 1.386 . S
C1070 C1072 1.391 . S
C1071 C1070 1.386 . S
C1071 C1075 1.393 . S
C1072 H1064 0.950 . S
C1072 C1070 1.391 . S
C1072 C1073 1.400 . S
C1073 C1072 1.400 . S
C1073 C1074 1.398 . S
C1073 C1079 1.491 . S
C1074 H1065 0.950 . S
C1074 C1073 1.398 . S
C1074 C1075 1.391 . S
C1075 H1063 0.950 . S
C1075 C1071 1.393 . S
C1075 C1074 1.391 . S
C1076 H1066 0.950 . S
C1076 C1077 1.386 . S
C1076 C1078 1.391 . S
C1077 C1076 1.386 . S
C1077 C1081 1.393 . S
C1078 H1067 0.950 . S
C1078 C1076 1.391 . S
C1078 C1079 1.400 . S
C1079 C1073 1.491 . S
C1079 C1078 1.400 . S
C1079 C1080 1.398 . S
C1080 H1068 0.950 . S
C1080 C1079 1.398 . S
C1080 C1081 1.391 . S
C1081 H1069 0.950 . S
C1081 C1077 1.393 . S
C1081 C1080 1.391 . S
H1082 C1090 0.950 . S
H1083 C1095 0.950 . S
H1084 C1092 0.950 . S
H1085 C1094 0.950 . S
H1086 C1096 0.950 . S
H1087 C1098 0.950 . S
H1088 C1100 0.950 . S
H1089 C1101 0.950 . S
C1090 H1082 0.950 . S
C1090 C1091 1.386 . S
C1090 C1092 1.391 . S
C1091 C1090 1.386 . S
C1091 C1095 1.393 1_554 S
C1092 H1084 0.950 . S
C1092 C1090 1.391 . S
C1092 C1093 1.400 1_554 S
C1093 C1092 1.400 1_556 S
C1093 C1094 1.398 . S
C1093 C1099 1.491 . S
C1094 H1085 0.950 . S
C1094 C1093 1.398 . S
C1094 C1095 1.391 . S
C1095 H1083 0.950 . S
C1095 C1091 1.393 1_556 S
C1095 C1094 1.391 . S
C1096 H1086 0.950 . S
C1096 C1097 1.386 . S
C1096 C1098 1.391 . S
C1097 C1096 1.386 . S
C1097 C1101 1.393 . S
C1098 H1087 0.950 . S
C1098 C1096 1.391 . S
C1098 C1099 1.400 . S
C1099 C1093 1.491 . S
C1099 C1098 1.400 . S
C1099 C1100 1.398 . S
C1100 H1088 0.950 . S
C1100 C1099 1.398 . S
C1100 C1101 1.391 . S
C1101 H1089 0.950 . S
C1101 C1097 1.393 . S
C1101 C1100 1.391 . S
H1102 C1110 0.950 . S
H1103 C1115 0.950 . S
H1104 C1112 0.950 . S
H1105 C1114 0.950 . S
H1106 C1116 0.950 . S
H1107 C1118 0.950 . S
H1108 C1120 0.950 . S
H1109 C1121 0.950 . S
C1110 H1102 0.950 . S
C1110 C1111 1.386 . S
C1110 C1112 1.391 . S
C1111 C1110 1.386 . S
C1111 C1115 1.393 . S
C1112 H1104 0.950 . S
C1112 C1110 1.391 . S
C1112 C1113 1.400 . S
C1113 C1112 1.400 . S
C1113 C1114 1.398 . S
C1113 C1119 1.491 . S
C1114 H1105 0.950 . S
C1114 C1113 1.398 . S
C1114 C1115 1.391 . S
C1115 H1103 0.950 . S
C1115 C1111 1.393 . S
C1115 C1114 1.391 . S
C1116 H1106 0.950 . S
C1116 C1117 1.386 . S
C1116 C1118 1.391 . S
C1117 C1116 1.386 . S
C1117 C1121 1.393 . S
C1118 H1107 0.950 . S
C1118 C1116 1.391 . S
C1118 C1119 1.400 . S
C1119 C1113 1.491 . S
C1119 C1118 1.400 . S
C1119 C1120 1.398 . S
C1120 H1108 0.950 . S
C1120 C1119 1.398 . S
C1120 C1121 1.391 . S
C1121 H1109 0.950 . S
C1121 C1117 1.393 . S
C1121 C1120 1.391 . S
H1122 C1130 0.950 . S
H1123 C1135 0.950 . S
H1124 C1132 0.950 . S
H1125 C1134 0.950 . S
H1126 C1136 0.950 . S
H1127 C1138 0.950 . S
H1128 C1140 0.950 . S
H1129 C1141 0.950 . S
C1130 H1122 0.950 . S
C1130 C1131 1.386 . S
C1130 C1132 1.391 . S
C1131 C1130 1.386 . S
C1131 C1135 1.393 . S
C1132 H1124 0.950 . S
C1132 C1130 1.391 . S
C1132 C1133 1.400 . S
C1133 C1132 1.400 . S
C1133 C1134 1.398 . S
C1133 C1139 1.491 . S
C1134 H1125 0.950 . S
C1134 C1133 1.398 . S
C1134 C1135 1.391 . S
C1135 H1123 0.950 . S
C1135 C1131 1.393 . S
C1135 C1134 1.391 . S
C1136 H1126 0.950 . S
C1136 C1137 1.386 . S
C1136 C1138 1.391 . S
C1137 C1136 1.386 . S
C1137 C1141 1.393 . S
C1138 H1127 0.950 . S
C1138 C1136 1.391 . S
C1138 C1139 1.400 . S
C1139 C1133 1.491 . S
C1139 C1138 1.400 . S
C1139 C1140 1.398 . S
C1140 H1128 0.950 . S
C1140 C1139 1.398 . S
C1140 C1141 1.391 . S
C1141 H1129 0.950 . S
C1141 C1137 1.393 . S
C1141 C1140 1.391 . S
H1142 C1150 0.950 . S
H1143 C1155 0.950 . S
H1144 C1152 0.950 . S
H1145 C1154 0.950 . S
H1146 C1156 0.950 . S
H1147 C1158 0.950 . S
H1148 C1160 0.950 . S
H1149 C1161 0.950 . S
C1150 H1142 0.950 . S
C1150 C1151 1.386 . S
C1150 C1152 1.391 . S
C1151 C1150 1.386 . S
C1151 C1155 1.393 . S
C1152 H1144 0.950 . S
C1152 C1150 1.391 . S
C1152 C1153 1.400 . S
C1153 C1152 1.400 . S
C1153 C1154 1.398 . S
C1153 C1159 1.491 . S
C1154 H1145 0.950 . S
C1154 C1153 1.398 . S
C1154 C1155 1.391 . S
C1155 H1143 0.950 . S
C1155 C1151 1.393 . S
C1155 C1154 1.391 . S
C1156 H1146 0.950 . S
C1156 C1157 1.386 . S
C1156 C1158 1.391 . S
C1157 C1156 1.386 . S
C1157 C1161 1.393 . S
C1158 H1147 0.950 . S
C1158 C1156 1.391 . S
C1158 C1159 1.400 . S
C1159 C1153 1.491 . S
C1159 C1158 1.400 . S
C1159 C1160 1.398 . S
C1160 H1148 0.950 . S
C1160 C1159 1.398 . S
C1160 C1161 1.391 . S
C1161 H1149 0.950 . S
C1161 C1157 1.393 . S
C1161 C1160 1.391 . S
H1162 C1170 0.950 . S
H1163 C1175 0.950 . S
H1164 C1172 0.950 . S
H1165 C1174 0.950 . S
H1166 C1176 0.950 . S
H1167 C1178 0.950 . S
H1168 C1180 0.950 . S
H1169 C1181 0.950 . S
C1170 H1162 0.950 . S
C1170 C1171 1.386 . S
C1170 C1172 1.391 . S
C1171 C1170 1.386 . S
C1171 C1175 1.393 . S
C1172 H1164 0.950 . S
C1172 C1170 1.391 . S
C1172 C1173 1.400 . S
C1173 C1172 1.400 . S
C1173 C1174 1.398 . S
C1173 C1179 1.491 . S
C1174 H1165 0.950 . S
C1174 C1173 1.398 . S
C1174 C1175 1.391 . S
C1175 H1163 0.950 . S
C1175 C1171 1.393 . S
C1175 C1174 1.391 . S
C1176 H1166 0.950 . S
C1176 C1177 1.386 . S
C1176 C1178 1.391 . S
C1177 C1176 1.386 . S
C1177 C1181 1.393 . S
C1178 H1167 0.950 . S
C1178 C1176 1.391 . S
C1178 C1179 1.400 . S
C1179 C1173 1.491 . S
C1179 C1178 1.400 . S
C1179 C1180 1.398 . S
C1180 H1168 0.950 . S
C1180 C1179 1.398 . S
C1180 C1181 1.391 . S
C1181 H1169 0.950 . S
C1181 C1177 1.393 . S
C1181 C1180 1.391 . S
H1182 C1190 0.950 1_545 S
H1183 C1195 0.950 . S
H1184 C1192 0.950 . S
H1185 C1194 0.950 . S
H1186 C1196 0.950 . S
H1187 C1198 0.950 . S
H1188 C1200 0.950 . S
H1189 C1201 0.950 . S
C1190 H1182 0.950 1_565 S
C1190 C1191 1.386 . S
C1190 C1192 1.391 . S
C1191 C1190 1.386 . S
C1191 C1195 1.393 . S
C1192 H1184 0.950 . S
C1192 C1190 1.391 . S
C1192 C1193 1.400 . S
C1193 C1192 1.400 . S
C1193 C1194 1.398 . S
C1193 C1199 1.491 . S
C1194 H1185 0.950 . S
C1194 C1193 1.398 . S
C1194 C1195 1.391 . S
C1195 H1183 0.950 . S
C1195 C1191 1.393 . S
C1195 C1194 1.391 . S
C1196 H1186 0.950 . S
C1196 C1197 1.386 . S
C1196 C1198 1.391 . S
C1197 C1196 1.386 . S
C1197 C1201 1.393 . S
C1198 H1187 0.950 . S
C1198 C1196 1.391 . S
C1198 C1199 1.400 . S
C1199 C1193 1.491 . S
C1199 C1198 1.400 . S
C1199 C1200 1.398 . S
C1200 H1188 0.950 . S
C1200 C1199 1.398 . S
C1200 C1201 1.391 . S
C1201 H1189 0.950 . S
C1201 C1197 1.393 . S
C1201 C1200 1.391 . S
H1202 C1210 0.950 . S
H1203 C1215 0.950 . S
H1204 C1212 0.950 . S
H1205 C1214 0.950 . S
H1206 C1216 0.950 . S
H1207 C1218 0.950 . S
H1208 C1220 0.950 . S
H1209 C1221 0.950 . S
C1210 H1202 0.950 . S
C1210 C1211 1.386 . S
C1210 C1212 1.391 . S
C1211 C1210 1.386 . S
C1211 C1215 1.393 . S
C1212 H1204 0.950 . S
C1212 C1210 1.391 . S
C1212 C1213 1.400 . S
C1213 C1212 1.400 . S
C1213 C1214 1.398 . S
C1213 C1219 1.491 . S
C1214 H1205 0.950 . S
C1214 C1213 1.398 . S
C1214 C1215 1.391 . S
C1215 H1203 0.950 . S
C1215 C1211 1.393 . S
C1215 C1214 1.391 . S
C1216 H1206 0.950 . S
C1216 C1217 1.386 . S
C1216 C1218 1.391 . S
C1217 C1216 1.386 . S
C1217 C1221 1.393 . S
C1218 H1207 0.950 . S
C1218 C1216 1.391 . S
C1218 C1219 1.400 . S
C1219 C1213 1.491 . S
C1219 C1218 1.400 . S
C1219 C1220 1.398 . S
C1220 H1208 0.950 . S
C1220 C1219 1.398 . S
C1220 C1221 1.391 . S
C1221 H1209 0.950 . S
C1221 C1217 1.393 . S
C1221 C1220 1.391 . S
H1222 C1230 0.950 . S
H1223 C1235 0.950 . S
H1224 C1232 0.950 . S
H1225 C1234 0.950 . S
H1226 C1236 0.950 . S
H1227 C1238 0.950 . S
H1228 C1240 0.950 . S
H1229 C1241 0.950 . S
C1230 H1222 0.950 . S
C1230 C1231 1.386 . S
C1230 C1232 1.391 . S
C1231 C1230 1.386 . S
C1231 C1235 1.393 . S
C1232 H1224 0.950 . S
C1232 C1230 1.391 . S
C1232 C1233 1.400 . S
C1233 C1232 1.400 . S
C1233 C1234 1.398 . S
C1233 C1239 1.491 . S
C1234 H1225 0.950 . S
C1234 C1233 1.398 . S
C1234 C1235 1.391 . S
C1235 H1223 0.950 . S
C1235 C1231 1.393 . S
C1235 C1234 1.391 . S
C1236 H1226 0.950 . S
C1236 C1237 1.386 . S
C1236 C1238 1.391 . S
C1237 C1236 1.386 . S
C1237 C1241 1.393 . S
C1238 H1227 0.950 . S
C1238 C1236 1.391 . S
C1238 C1239 1.400 . S
C1239 C1233 1.491 . S
C1239 C1238 1.400 . S
C1239 C1240 1.398 . S
C1240 H1228 0.950 . S
C1240 C1239 1.398 . S
C1240 C1241 1.391 . S
C1241 H1229 0.950 . S
C1241 C1237 1.393 . S
C1241 C1240 1.391 . S
C771 C39 2.252 . S
C777 C381 2.181 . S
C791 C91 1.423 . S
C797 C455 1.400 . S
C817 C505 1.693 . S
C811 C128 1.761 . S
C837 C591 1.132 . S
C831 C188 1.123 . S
C857 C683 1.916 . S
C851 C250 1.915 1_565 S
C877 C727 1.874 . S
C871 C304 1.931 . S
C891 C75 1.186 . S
C897 C529 1.109 . S
C911 C144 2.521 . S
C917 C609 2.497 . S
C937 C665 1.434 . S
C931 C198 1.423 . S
C957 C751 1.273 . S
C951 C234 1.307 . S
C971 C294 2.093 . S
C977 C357 1.985 . S
C997 C431 1.846 . S
C991 C29 1.851 . S
C1017 C603 2.008 . S
C1011 C38 2.185 . S
C1031 C92 2.170 . S
C1037 C653 2.036 . S
C1057 C757 2.232 . S
C1051 C135 2.331 1_556 S
C1071 C181 1.294 . S
C1077 C369 1.259 . S
C1091 C251 1.894 . S
C1097 C443 1.827 . S
C1111 C303 2.438 . S
C1117 C535 2.327 . S
C1131 C82 1.835 . S
C1137 C739 1.751 . S
C1157 C387 2.262 . S
C1151 C145 2.289 . S
C1171 C197 2.315 . S
C1177 C461 2.214 . S
C1191 C241 1.601 1_565 S
C1197 C517 1.514 . S
C1211 C287 1.574 . S
C1217 C579 1.445 . S
C1231 C22 1.910 . S
C1237 C677 1.823 . S
