# Generated by pormake.
# Topology dag, (6,3)-cn, num edge types: 1
# Building blocks:
#     Node 0, Type 0, BuildingBlock: MIDCAF_clean_sbu_0, # of connection points: 6
#     Node 1, Type 0, BuildingBlock: MIDCAF_clean_sbu_0, # of connection points: 6
#     Node 2, Type 0, BuildingBlock: MIDCAF_clean_sbu_0, # of connection points: 6
#     Node 3, Type 0, BuildingBlock: MIDCAF_clean_sbu_0, # of connection points: 6
#     Node 4, Type 1, BuildingBlock: CUQRIR_clean_linker_1, # of connection points: 3
#     Node 5, Type 1, BuildingBlock: CUQRIR_clean_linker_1, # of connection points: 3
#     Node 6, Type 1, BuildingBlock: CUQRIR_clean_linker_1, # of connection points: 3
#     Node 7, Type 1, BuildingBlock: CUQRIR_clean_linker_1, # of connection points: 3
#     Node 8, Type 1, BuildingBlock: CUQRIR_clean_linker_1, # of connection points: 3
#     Node 9, Type 1, BuildingBlock: CUQRIR_clean_linker_1, # of connection points: 3
#     Node 10, Type 1, BuildingBlock: CUQRIR_clean_linker_1, # of connection points: 3
#     Node 11, Type 1, BuildingBlock: CUQRIR_clean_linker_1, # of connection points: 3
#     Edge 12, Type (0, 1), BuildingBlock: AJUNOK_clean_linker_0, # of connection points: 2
#     Edge 13, Type (0, 1), BuildingBlock: AJUNOK_clean_linker_0, # of connection points: 2
#     Edge 14, Type (0, 1), BuildingBlock: AJUNOK_clean_linker_0, # of connection points: 2
#     Edge 15, Type (0, 1), BuildingBlock: AJUNOK_clean_linker_0, # of connection points: 2
#     Edge 16, Type (0, 1), BuildingBlock: AJUNOK_clean_linker_0, # of connection points: 2
#     Edge 17, Type (0, 1), BuildingBlock: AJUNOK_clean_linker_0, # of connection points: 2
#     Edge 18, Type (0, 1), BuildingBlock: AJUNOK_clean_linker_0, # of connection points: 2
#     Edge 19, Type (0, 1), BuildingBlock: AJUNOK_clean_linker_0, # of connection points: 2
#     Edge 20, Type (0, 1), BuildingBlock: AJUNOK_clean_linker_0, # of connection points: 2
#     Edge 21, Type (0, 1), BuildingBlock: AJUNOK_clean_linker_0, # of connection points: 2
#     Edge 22, Type (0, 1), BuildingBlock: AJUNOK_clean_linker_0, # of connection points: 2
#     Edge 23, Type (0, 1), BuildingBlock: AJUNOK_clean_linker_0, # of connection points: 2
#     Edge 24, Type (0, 1), BuildingBlock: AJUNOK_clean_linker_0, # of connection points: 2
#     Edge 25, Type (0, 1), BuildingBlock: AJUNOK_clean_linker_0, # of connection points: 2
#     Edge 26, Type (0, 1), BuildingBlock: AJUNOK_clean_linker_0, # of connection points: 2
#     Edge 27, Type (0, 1), BuildingBlock: AJUNOK_clean_linker_0, # of connection points: 2
#     Edge 28, Type (0, 1), BuildingBlock: AJUNOK_clean_linker_0, # of connection points: 2
#     Edge 29, Type (0, 1), BuildingBlock: AJUNOK_clean_linker_0, # of connection points: 2
#     Edge 30, Type (0, 1), BuildingBlock: AJUNOK_clean_linker_0, # of connection points: 2
#     Edge 31, Type (0, 1), BuildingBlock: AJUNOK_clean_linker_0, # of connection points: 2
#     Edge 32, Type (0, 1), BuildingBlock: AJUNOK_clean_linker_0, # of connection points: 2
#     Edge 33, Type (0, 1), BuildingBlock: AJUNOK_clean_linker_0, # of connection points: 2
#     Edge 34, Type (0, 1), BuildingBlock: AJUNOK_clean_linker_0, # of connection points: 2
#     Edge 35, Type (0, 1), BuildingBlock: AJUNOK_clean_linker_0, # of connection points: 2
# Relax obj value: 0.118
# Max RMSD: 0.125
# Mean RMSD: 0.098
data_MOF--net-dag--node1-MIDCAF_clean_sbu_0--node2-CUQRIR_clean_linker_1--edge1-AJUNOK_clean_linker_0
_symmetry_space_group_name_H-M    P1
_symmetry_Int_Tables_number       1
_symmetry_cell_setting            triclinic
loop_
_symmetry_equiv_pos_as_xyz
'x, y, z'
_cell_length_a     27.683804
_cell_length_b     27.897239
_cell_length_c     20.652437
_cell_angle_alpha  91.054573
_cell_angle_beta   90.444353
_cell_angle_gamma 90.197351
loop_
_atom_site_label
_atom_site_type_symbol
_atom_site_fract_x
_atom_site_fract_y
_atom_site_fract_z
_atom_type_partial_charge
Zn0 Zn 0.08575 0.9101 0.10379 0.0
Zn1 Zn 0.09499 0.84641 0.82197 0.0
Zn2 Zn 0.10192 0.8692 1.01158 0.0
C3 C 0.1003 0.94407 0.87821 0.0
C4 C 0.04007 0.81105 0.94358 0.0
O5 O 0.15631 0.8317 0.0671 0.0
O6 O 0.11205 0.8475 0.15211 0.0
C7 C 0.16406 0.94207 0.07368 0.0
O8 O 0.1027 0.92561 0.93516 0.0
O9 O 0.09484 0.91871 0.82632 0.0
O10 O 0.07499 0.82918 0.91329 0.0
O11 O 0.03905 0.8215 1.00408 0.0
O12 O 0.12507 0.96084 0.05617 0.0
O13 O 0.16566 0.89671 0.06802 0.0
O14 O 0.02692 0.85482 0.05852 0.0
O15 O 0.01752 0.92241 0.11433 0.0
C16 C 0.00051 0.88277 0.09459 0.0
O17 O 0.16634 0.82355 0.99782 0.0
O18 O 0.13086 0.83274 0.90669 0.0
C19 C 0.14354 0.82093 0.12499 0.0
C20 C 0.16717 0.81651 0.9367 0.0
Zn21 Zn 0.59191 0.58581 0.41324 0.0
Zn22 Zn 0.63807 0.6141 0.68811 0.0
Zn23 Zn 0.59075 0.60313 0.52217 0.0
C24 C 0.60151 0.51784 0.63455 0.0
C25 C 0.55822 0.65725 0.65509 0.0
O26 O 0.63931 0.65409 0.4726 0.0
O27 O 0.65261 0.61415 0.38254 0.0
C28 C 0.62449 0.50769 0.45716 0.0
O29 O 0.59866 0.53223 0.57518 0.0
O30 O 0.61348 0.54634 0.68072 0.0
O31 O 0.58302 0.66301 0.7063 0.0
O32 O 0.57942 0.63697 0.60811 0.0
O33 O 0.5901 0.51618 0.41886 0.0
O34 O 0.6312 0.5357 0.5064 0.0
O35 O 0.51641 0.61164 0.47976 0.0
O36 O 0.53457 0.61375 0.37656 0.0
C37 C 0.50351 0.61713 0.42044 0.0
O38 O 0.64029 0.6635 0.55015 0.0
O39 O 0.68669 0.62235 0.6161 0.0
C40 C 0.66205 0.64958 0.41906 0.0
C41 C 0.67915 0.65989 0.58473 0.0
Zn42 Zn 0.85879 0.08779 0.91302 0.0
Zn43 Zn 0.86671 0.112 0.12906 0.0
Zn44 Zn 0.86698 0.09967 0.02312 0.0
C45 C 0.9596 0.10124 0.1195 0.0
C46 C 0.81351 0.03287 0.11347 0.0
O47 O 0.81299 0.15261 0.98308 0.0
O48 O 0.82264 0.14018 0.87854 0.0
C49 C 0.95124 0.12262 0.9351 0.0
O50 O 0.94436 0.11399 0.06283 0.0
O51 O 0.92887 0.0884 0.16037 0.0
O52 O 0.8103 0.0707 0.14726 0.0
O53 O 0.84059 0.03276 0.06304 0.0
O54 O 0.92675 0.09835 0.8945 0.0
O55 O 0.93748 0.12579 0.99423 0.0
O56 O 0.85368 0.02048 0.99502 0.0
O57 O 0.83195 0.02526 0.89247 0.0
C58 C 0.83955 6e-05 0.94124 0.0
O59 O 0.81262 0.15403 0.05371 0.0
O60 O 0.85653 0.18212 0.13483 0.0
C61 C 0.80388 0.16386 0.924 0.0
C62 C 0.81892 0.18479 0.10037 0.0
Zn63 Zn 0.36211 0.38037 0.67101 0.0
Zn64 Zn 0.37681 0.32587 0.31676 0.0
Zn65 Zn 0.36333 0.37721 0.51774 0.0
C66 C 0.44965 0.35721 0.4321 0.0
C67 C 0.33384 0.41727 0.36144 0.0
O68 O 0.31632 0.32273 0.56387 0.0
O69 O 0.34129 0.31561 0.66667 0.0
C70 C 0.44433 0.35007 0.61149 0.0
O71 O 0.44169 0.36882 0.49113 0.0
O72 O 0.4127 0.34391 0.40013 0.0
O73 O 0.34163 0.39108 0.3107 0.0
O74 O 0.34466 0.40251 0.41855 0.0
O75 O 0.4315 0.38486 0.6477 0.0
O76 O 0.42744 0.34576 0.55397 0.0
O77 O 0.34628 0.44614 0.56384 0.0
O78 O 0.30408 0.41772 0.64241 0.0
C79 C 0.31755 0.45323 0.61105 0.0
O80 O 0.31511 0.31789 0.4937 0.0
O81 O 0.36499 0.31259 0.41321 0.0
C82 C 0.3155 0.3017 0.61919 0.0
C83 C 0.32662 0.29784 0.43971 0.0
C84 C 0.16408 0.16861 0.26661 0.0
N85 N 0.15147 0.12846 0.23212 0.0
N86 N 0.20738 0.16294 0.29631 0.0
C87 C 0.13445 0.21368 0.27116 0.0
C88 C 0.2214 0.11838 0.27821 0.0
N89 N 0.18765 0.0974 0.23919 0.0
C90 C 0.26851 0.09595 0.29808 0.0
H91 H 0.15786 0.2459 0.27532 0.0
H92 H 0.11202 0.21253 0.31539 0.0
H93 H 0.1104 0.21713 0.2283 0.0
H94 H 0.27287 0.09809 0.35142 0.0
H95 H 0.29875 0.11642 0.27685 0.0
H96 H 0.27094 0.05782 0.28239 0.0
C97 C 0.29336 0.65478 0.78436 0.0
N98 N 0.32718 0.63546 0.74524 0.0
N99 N 0.30798 0.698 0.80781 0.0
C100 C 0.24463 0.63266 0.79644 0.0
C101 C 0.35202 0.70448 0.78124 0.0
N102 N 0.364 0.66633 0.74271 0.0
C103 C 0.38316 0.74794 0.79403 0.0
H104 H 0.22229 0.63506 0.75179 0.0
H105 H 0.22571 0.65103 0.83697 0.0
H106 H 0.24843 0.59415 0.80768 0.0
H107 H 0.37396 0.76533 0.84103 0.0
H108 H 0.37681 0.77425 0.75527 0.0
H109 H 0.42198 0.73818 0.79443 0.0
C110 C 0.75021 0.82734 0.25524 0.0
N111 N 0.78173 0.84937 0.21589 0.0
N112 N 0.7724 0.79208 0.2885 0.0
C113 C 0.69715 0.83858 0.25762 0.0
C114 C 0.81861 0.79321 0.26713 0.0
N115 N 0.82425 0.82792 0.2229 0.0
C116 C 0.85831 0.76077 0.28986 0.0
H117 H 0.69068 0.86609 0.29599 0.0
H118 H 0.67566 0.80613 0.26858 0.0
H119 H 0.68475 0.85332 0.21079 0.0
H120 H 0.86449 0.73251 0.25237 0.0
H121 H 0.84889 0.74362 0.33615 0.0
H122 H 0.89255 0.78096 0.29668 0.0
C123 C 0.66677 0.32201 0.7676 0.0
N124 N 0.63043 0.32661 0.72379 0.0
N125 N 0.668 0.27685 0.79071 0.0
C126 C 0.70143 0.36126 0.78786 0.0
C127 C 0.6318 0.25378 0.75848 0.0
N128 N 0.60912 0.28392 0.7181 0.0
C129 C 0.61895 0.20168 0.76503 0.0
H130 H 0.73478 0.35763 0.7588 0.0
H131 H 0.71143 0.35788 0.8397 0.0
H132 H 0.68663 0.39744 0.77948 0.0
H133 H 0.59164 0.19796 0.80364 0.0
H134 H 0.65118 0.18029 0.77814 0.0
H135 H 0.60298 0.18727 0.71916 0.0
C136 C 0.6422 0.29486 0.26931 0.0
N137 N 0.63661 0.32858 0.31674 0.0
N138 N 0.68755 0.29634 0.24575 0.0
C139 C 0.60434 0.25922 0.24747 0.0
C140 C 0.71015 0.33035 0.2821 0.0
N141 N 0.6795 0.34964 0.32569 0.0
C142 C 0.76198 0.34518 0.27376 0.0
H143 H 0.62072 0.22336 0.23975 0.0
H144 H 0.58904 0.27052 0.20038 0.0
H145 H 0.57485 0.25651 0.28331 0.0
H146 H 0.76516 0.36569 0.22843 0.0
H147 H 0.78521 0.31301 0.26873 0.0
H148 H 0.77505 0.36778 0.31508 0.0
C149 C 0.13861 0.20903 0.77056 0.0
N150 N 0.11905 0.17725 0.81135 0.0
N151 N 0.17274 0.18743 0.73366 0.0
C152 C 0.12569 0.26131 0.76882 0.0
C153 C 0.17342 0.14166 0.75405 0.0
N154 N 0.14054 0.13545 0.80086 0.0
C155 C 0.20518 0.10271 0.7268 0.0
H156 H 0.09947 0.26704 0.72885 0.0
H157 H 0.15817 0.28353 0.75979 0.0
H158 H 0.10872 0.27315 0.8149 0.0
H159 H 0.23728 0.09884 0.75875 0.0
H160 H 0.21755 0.1115 0.67741 0.0
H161 H 0.1857 0.06788 0.72525 0.0
C162 C 0.23946 0.63148 0.28182 0.0
N163 N 0.27836 0.61123 0.31097 0.0
N164 N 0.25015 0.67645 0.26265 0.0
C165 C 0.19138 0.60732 0.27066 0.0
C166 C 0.29677 0.68303 0.28078 0.0
N167 N 0.31401 0.64366 0.31029 0.0
C168 C 0.32549 0.72771 0.26792 0.0
H169 H 0.19085 0.59048 0.22157 0.0
H170 H 0.16157 0.6337 0.27268 0.0
H171 H 0.18503 0.5792 0.30695 0.0
H172 H 0.31085 0.75771 0.29773 0.0
H173 H 0.3216 0.73761 0.21641 0.0
H174 H 0.36442 0.72332 0.27905 0.0
C175 C 0.80697 0.81558 0.76231 0.0
N176 N 0.84097 0.81982 0.80944 0.0
N177 N 0.80776 0.7713 0.73464 0.0
C178 C 0.77495 0.85579 0.74065 0.0
C179 C 0.84329 0.74838 0.76745 0.0
N180 N 0.86343 0.77773 0.81311 0.0
C181 C 0.85779 0.69698 0.75665 0.0
H182 H 0.74152 0.85593 0.76992 0.0
H183 H 0.76477 0.85115 0.68884 0.0
H184 H 0.79333 0.89092 0.74798 0.0
H185 H 0.88856 0.69557 0.72257 0.0
H186 H 0.82747 0.67535 0.7361 0.0
H187 H 0.86997 0.68112 0.80285 0.0
C188 C 0.15835 0.97214 0.1848 0.0
C189 C 0.1872 0.96694 0.12908 0.0
C190 C 0.15975 0.01429 0.2226 0.0
C191 C 0.19168 0.05132 0.20758 0.0
H192 H 0.13006 0.94635 0.19428 0.0
H193 H 0.13394 0.01921 0.26126 0.0
S194 S 0.28605 0.04832 0.08167 0.0
N195 N 0.25597 -0.00254 0.07034 0.0
N196 N 0.26024 0.07607 0.14362 0.0
C197 C 0.2258 0.04343 0.15862 0.0
C198 C 0.22345 0.00106 0.11899 0.0
C199 C 0.47645 0.69565 0.64896 0.0
C200 C 0.50545 0.65554 0.66066 0.0
C201 C 0.42841 0.69713 0.67095 0.0
C202 C 0.40904 0.65975 0.7082 0.0
H203 H 0.49154 0.72669 0.62557 0.0
H204 H 0.40721 0.72888 0.66207 0.0
S205 S 0.4711 0.5459 0.74682 0.0
N206 N 0.51037 0.57558 0.70321 0.0
N207 N 0.42379 0.58128 0.75311 0.0
C208 C 0.43767 0.61888 0.71715 0.0
C209 C 0.48507 0.61621 0.69137 0.0
C210 C 0.78642 0.94816 0.09761 0.0
C211 C 0.79262 -0.01176 0.1386 0.0
C212 C 0.77664 0.90292 0.12252 0.0
C213 C 0.77573 0.89622 0.18952 0.0
H214 H 0.79081 0.95172 0.04642 0.0
H215 H 0.77169 0.87296 0.08939 0.0
S216 S 0.77589 -0.00895 0.31697 0.0
N217 N 0.78486 0.01994 0.24903 0.0
N218 N 0.77112 0.93384 0.29591 0.0
C219 C 0.77602 0.93658 0.23069 0.0
C220 C 0.78369 -0.01703 0.20522 0.0
C221 C 0.51441 0.29519 0.5953 0.0
C222 C 0.47895 0.31509 0.63565 0.0
C223 C 0.55714 0.27785 0.62253 0.0
C224 C 0.56249 0.27682 0.68999 0.0
H225 H 0.51085 0.29656 0.54343 0.0
H226 H 0.58755 0.26992 0.59151 0.0
S227 S 0.46653 0.29474 0.81114 0.0
N228 N 0.44244 0.31257 0.74225 0.0
N229 N 0.52191 0.27705 0.79365 0.0
C230 C 0.52199 0.28408 0.72878 0.0
C231 C 0.47973 0.30375 0.70138 0.0
C232 C 0.67776 0.43538 0.46457 0.0
C233 C 0.66254 0.47618 0.43156 0.0
C234 C 0.6897 0.39368 0.42928 0.0
C235 C 0.68725 0.39332 0.36133 0.0
H236 H 0.6766 0.43413 0.51663 0.0
H237 H 0.69615 0.36072 0.45476 0.0
S238 S 0.67503 0.49789 0.25592 0.0
N239 N 0.66518 0.51893 0.32986 0.0
N240 N 0.68652 0.44027 0.26399 0.0
C241 C 0.68364 0.43663 0.32936 0.0
C242 C 0.67199 0.47868 0.36485 0.0
C243 C 0.03334 0.16114 0.94571 0.0
C244 C -0.00865 0.15115 0.90953 0.0
C245 C 0.07575 0.17501 0.91426 0.0
C246 C 0.07551 0.18248 0.84718 0.0
H247 H 0.03429 0.15533 0.9971 0.0
H248 H 0.10945 0.17651 0.9412 0.0
S249 S 0.97005 0.18001 0.73675 0.0
N250 N 0.94881 0.16278 0.80706 0.0
N251 N 0.02802 0.19094 0.74932 0.0
C252 C 0.03174 0.18152 0.81349 0.0
C253 C -0.01058 0.1656 0.84451 0.0
C254 C 0.28613 0.47697 0.29857 0.0
C255 C 0.31414 0.46597 0.3534 0.0
C256 C 0.27168 0.52422 0.28695 0.0
C257 C 0.2831 0.56187 0.33095 0.0
H258 H 0.27717 0.44934 0.2629 0.0
H259 H 0.25409 0.53168 0.24132 0.0
S260 S 0.35908 0.5525 0.47786 0.0
N261 N 0.35751 0.49759 0.4472 0.0
N262 N 0.32129 0.5838 0.43344 0.0
C263 C 0.30771 0.5503 0.38839 0.0
C264 C 0.32579 0.50311 0.39745 0.0
C265 C -0.00652 0.79907 0.84105 0.0
C266 C -0.00138 0.7896 0.9075 0.0
C267 C 0.95047 0.78896 0.80801 0.0
C268 C 0.91057 0.77146 0.84108 0.0
H269 H 0.02102 0.81775 0.81491 0.0
H270 H 0.94649 0.80012 0.75828 0.0
S271 S 0.91509 0.71353 1.00072 0.0
N272 N 0.96733 0.74223 0.99587 0.0
N273 N 0.885 0.7251 0.93318 0.0
C274 C 0.91795 0.75276 0.90287 0.0
C275 C 0.96245 0.76198 0.93659 0.0
C276 C 0.80441 0.91799 0.92538 0.0
C277 C 0.84508 0.94833 0.92754 0.0
C278 C 0.80535 0.87395 0.89137 0.0
C279 C 0.84556 0.86015 0.8542 0.0
H280 H 0.77049 0.92964 0.94591 0.0
H281 H 0.77309 0.85186 0.89032 0.0
S282 S 0.95667 0.93271 0.83226 0.0
N283 N 0.9255 0.963 0.88694 0.0
N284 N 0.92365 0.885 0.81376 0.0
C285 C 0.88562 0.89119 0.85389 0.0
C286 C 0.88613 0.9341 0.89268 0.0
C287 C 0.54048 0.35416 0.44126 0.0
C288 C 0.49864 0.35862 0.40271 0.0
C289 C 0.58553 0.34399 0.41336 0.0
C290 C 0.59145 0.3434 0.34581 0.0
H291 H 0.53837 0.35694 0.49326 0.0
H292 H 0.61522 0.33487 0.44493 0.0
S293 S 0.49727 0.37247 0.22447 0.0
N294 N 0.46812 0.37202 0.29393 0.0
N295 N 0.55415 0.36022 0.24208 0.0
C296 C 0.55137 0.35519 0.30721 0.0
C297 C 0.50481 0.36174 0.33539 0.0
C298 C 0.07436 0.02065 0.82927 0.0
C299 C 0.10652 -0.00389 0.87001 0.0
C300 C 0.08443 0.06734 0.80928 0.0
C301 C 0.12713 0.09068 0.82898 0.0
H302 H 0.04225 0.00284 0.81048 0.0
H303 H 0.06002 0.08438 0.77568 0.0
S304 S 0.22309 0.04282 0.93396 0.0
N305 N 0.18273 -0.00092 0.9291 0.0
N306 N 0.20109 0.08732 0.89141 0.0
C307 C 0.15875 0.06741 0.87094 0.0
C308 C 0.14856 0.01995 0.8916 0.0
C309 C 0.42332 0.6593 0.41896 0.0
C310 C 0.4528 0.62112 0.39867 0.0
C311 C 0.37861 0.66754 0.38814 0.0
C312 C 0.36224 0.63793 0.33623 0.0
H313 H 0.43537 0.68352 0.45741 0.0
H314 H 0.35612 0.69664 0.40555 0.0
S315 S 0.4258 0.53269 0.2666 0.0
N316 N 0.46178 0.55251 0.3254 0.0
N317 N 0.37935 0.56966 0.26586 0.0
C318 C 0.39172 0.60007 0.31543 0.0
C319 C 0.43641 0.59109 0.3474 0.0
C320 C 0.30479 0.5424 0.61456 0.0
C321 C 0.31651 0.49988 0.64611 0.0
C322 C 0.30978 0.58717 0.64634 0.0
C323 C 0.3228 0.58995 0.71209 0.0
H324 H 0.29055 0.54081 0.56581 0.0
H325 H 0.3023 0.61962 0.62017 0.0
S326 S 0.34273 0.4887 0.82213 0.0
N327 N 0.33484 0.46332 0.74998 0.0
N328 N 0.33665 0.54684 0.81123 0.0
C329 C 0.3277 0.54745 0.74642 0.0
C330 C 0.32629 0.50242 0.71326 0.0
C331 C 0.94966 0.8741 0.19251 0.0
C332 C 0.95507 0.86675 0.12511 0.0
C333 C 0.9069 0.86159 0.2242 0.0
C334 C 0.86824 0.84047 0.18992 0.0
H335 H 0.97878 0.88994 0.22111 0.0
H336 H 0.90389 0.86853 0.27577 0.0
S337 S 0.86053 0.82087 1.0131 0.0
N338 N 0.91509 0.8438 0.02453 0.0
N339 N 0.83699 0.81437 0.08545 0.0
C340 C 0.87298 0.83312 0.12286 0.0
C341 C 0.91585 0.84762 0.09006 0.0
C342 C 0.60435 0.42811 0.60931 0.0
C343 C 0.59542 0.4663 0.65295 0.0
C344 C 0.61448 0.38154 0.63178 0.0
C345 C 0.61206 0.37116 0.69825 0.0
H346 H 0.60549 0.4348 0.55817 0.0
H347 H 0.626 0.35419 0.59747 0.0
S348 S 0.56921 0.45281 0.8283 0.0
N349 N 0.57221 0.48674 0.7638 0.0
N350 N 0.58595 0.39876 0.80385 0.0
C351 C 0.59445 0.40674 0.74023 0.0
C352 C 0.58692 0.45434 0.71821 0.0
C353 C 0.01662 0.12322 0.20893 0.0
C354 C 0.0102 0.10772 0.144 0.0
C355 C 0.06252 0.12808 0.23721 0.0
C356 C 0.1047 0.11928 0.20168 0.0
H357 H 0.98564 0.13166 0.23873 0.0
H358 H 0.06505 0.13928 0.28758 0.0
S359 S 0.10862 0.07395 0.03191 0.0
N360 N 0.05029 0.07738 0.04764 0.0
N361 N 0.13718 0.09349 0.0978 0.0
C362 C 0.09919 0.10337 0.1368 0.0
C363 C 0.0519 0.09614 0.10867 0.0
C364 C 0.20504 0.7552 0.13014 0.0
C365 C 0.16851 0.78216 0.1608 0.0
C366 C 0.23049 0.71957 0.16298 0.0
C367 C 0.22029 0.7094 0.22768 0.0
H368 H 0.2145 0.76187 0.08053 0.0
H369 H 0.25899 0.70033 0.13812 0.0
S370 S 0.12599 0.76576 0.32919 0.0
N371 N 0.12148 0.79319 0.2592 0.0
N372 N 0.17026 0.72664 0.32073 0.0
C373 C 0.18302 0.73455 0.25848 0.0
C374 C 0.15688 0.7708 0.22511 0.0
C375 C 0.6919 0.72969 0.65678 0.0
C376 C 0.70832 0.70157 0.60444 0.0
C377 C 0.72461 0.75425 0.69758 0.0
C378 C 0.77463 0.75199 0.68668 0.0
H379 H 0.65416 0.72877 0.67015 0.0
H380 H 0.711 0.77238 0.74045 0.0
S381 S 0.83476 0.69049 0.54908 0.0
N382 N 0.77691 0.67709 0.53945 0.0
N383 N 0.83827 0.7258 0.61411 0.0
C384 C 0.79096 0.72803 0.63073 0.0
C385 C 0.75775 0.70228 0.58993 0.0
C386 C 0.7565 0.24977 0.10335 0.0
C387 C 0.77743 0.20871 0.12985 0.0
C388 C 0.7235 0.27711 0.13984 0.0
C389 C 0.71049 0.26323 0.20254 0.0
H390 H 0.76783 0.26225 0.05646 0.0
H391 H 0.71016 0.3105 0.12081 0.0
S392 S 0.75283 0.15725 0.29062 0.0
N393 N 0.78088 0.15434 0.22044 0.0
N394 N 0.71858 0.20549 0.28766 0.0
C395 C 0.72886 0.22085 0.22723 0.0
C396 C 0.7625 0.19356 0.19105 0.0
C397 C 0.29234 0.23257 0.68307 0.0
C398 C 0.28026 0.26453 0.63374 0.0
C399 C 0.25694 0.2064 0.71388 0.0
C400 C 0.20849 0.21001 0.69509 0.0
H401 H 0.32908 0.2304 0.70137 0.0
H402 H 0.26714 0.18507 0.75503 0.0
S403 S 0.15881 0.28206 0.56159 0.0
N404 N 0.21698 0.29557 0.56369 0.0
N405 N 0.15038 0.24235 0.6189 0.0
C406 C 0.19613 0.23853 0.64229 0.0
C407 C 0.23216 0.26667 0.61197 0.0
C408 C 0.72775 0.67356 0.34511 0.0
C409 C 0.6962 0.68631 0.39573 0.0
C410 C 0.75398 0.7082 0.3122 0.0
C411 C 0.75026 0.7569 0.32904 0.0
H412 H 0.73065 0.63659 0.32862 0.0
H413 H 0.77565 0.69705 0.27123 0.0
S414 S 0.67826 0.80909 0.46326 0.0
N415 N 0.66592 0.75112 0.46462 0.0
N416 N 0.71722 0.81613 0.40394 0.0
C417 C 0.7217 0.77008 0.38242 0.0
C418 C 0.69434 0.73476 0.41572 0.0
C419 C 0.78555 0.23099 0.85258 0.0
C420 C 0.77155 0.20306 0.90539 0.0
C421 C 0.75178 0.25716 0.81746 0.0
C422 C 0.7029 0.25668 0.8342 0.0
H423 H 0.82239 0.22966 0.8352 0.0
H424 H 0.7634 0.27522 0.77431 0.0
S425 S 0.64873 0.19539 0.97395 0.0
N426 N 0.7064 0.1803 0.97672 0.0
N427 N 0.64272 0.23123 0.91154 0.0
C428 C 0.68895 0.23237 0.89017 0.0
C429 C 0.72346 0.2053 0.92589 0.0
C430 C 0.2838 0.27035 0.33861 0.0
C431 C 0.29329 0.26454 0.405 0.0
C432 C 0.25518 0.23729 0.30356 0.0
C433 C 0.23448 0.19773 0.33389 0.0
H434 H 0.29834 0.30066 0.31337 0.0
H435 H 0.24944 0.2423 0.25221 0.0
S436 S 0.24826 0.16544 0.50593 0.0
N437 N 0.28099 0.21471 0.49885 0.0
N438 N 0.22417 0.15462 0.43367 0.0
C439 C 0.2427 0.19183 0.40028 0.0
C440 C 0.27272 0.22488 0.43575 0.0
C441 C 0.24739 0.7735 0.93574 0.0
C442 C 0.20645 0.79036 0.90213 0.0
C443 C 0.28222 0.74488 0.90429 0.0
C444 C 0.27762 0.73334 0.83808 0.0
H445 H 0.25216 0.78157 0.98675 0.0
H446 H 0.31201 0.73051 0.93203 0.0
S447 S 0.18156 0.77204 0.72592 0.0
N448 N 0.16633 0.79528 0.79684 0.0
N449 N 0.23257 0.74331 0.73882 0.0
C450 C 0.23899 0.75218 0.80326 0.0
C451 C 0.20324 0.78034 0.83495 0.0
loop_
_geom_bond_atom_site_label_1
_geom_bond_atom_site_label_2
_geom_bond_distance
_geom_bond_site_symmetry_2
_ccdc_geom_bond_type
Zn0 O6 1.920 . S
Zn0 O12 1.898 . S
Zn0 O15 1.905 . S
Zn1 O9 1.905 . S
Zn1 O10 1.898 . S
Zn1 O18 1.920 . S
Zn2 O5 2.086 . S
Zn2 O8 2.108 1_554 S
Zn2 O11 2.114 1_554 S
Zn2 O13 2.126 . S
Zn2 O14 2.120 . S
Zn2 O17 2.075 1_554 S
C3 O8 1.166 . S
C3 O9 1.182 . S
C4 O10 1.167 . S
C4 O11 1.299 . S
O5 Zn2 2.086 . S
O5 C19 1.305 . S
O6 Zn0 1.920 . S
O6 C19 1.234 . S
C7 O12 1.167 . S
C7 O13 1.299 . S
O8 Zn2 2.108 1_556 S
O8 C3 1.166 . S
O9 Zn1 1.905 . S
O9 C3 1.182 . S
O10 Zn1 1.898 . S
O10 C4 1.167 . S
O11 Zn2 2.114 1_556 S
O11 C4 1.299 . S
O12 Zn0 1.898 . S
O12 C7 1.167 . S
O13 Zn2 2.126 . S
O13 C7 1.299 . S
O14 Zn2 2.120 . S
O14 C16 1.166 . S
O15 Zn0 1.905 . S
O15 C16 1.182 . S
C16 O14 1.166 . S
C16 O15 1.182 . S
O17 Zn2 2.075 1_556 S
O17 C20 1.305 . S
O18 Zn1 1.920 . S
O18 C20 1.234 . S
C19 O5 1.305 . S
C19 O6 1.234 . S
C20 O17 1.305 . S
C20 O18 1.234 . S
Zn21 O27 1.920 . S
Zn21 O33 1.898 . S
Zn21 O36 1.905 . S
Zn22 O30 1.905 . S
Zn22 O31 1.898 . S
Zn22 O39 1.920 . S
Zn23 O26 2.080 . S
Zn23 O29 2.114 . S
Zn23 O32 2.120 . S
Zn23 O34 2.120 . S
Zn23 O35 2.114 . S
Zn23 O38 2.080 . S
C24 O29 1.166 . S
C24 O30 1.182 . S
C25 O31 1.167 . S
C25 O32 1.299 . S
O26 Zn23 2.080 . S
O26 C40 1.305 . S
O27 Zn21 1.920 . S
O27 C40 1.234 . S
C28 O33 1.167 . S
C28 O34 1.299 . S
O29 Zn23 2.114 . S
O29 C24 1.166 . S
O30 Zn22 1.905 . S
O30 C24 1.182 . S
O31 Zn22 1.898 . S
O31 C25 1.167 . S
O32 Zn23 2.120 . S
O32 C25 1.299 . S
O33 Zn21 1.898 . S
O33 C28 1.167 . S
O34 Zn23 2.120 . S
O34 C28 1.299 . S
O35 Zn23 2.114 . S
O35 C37 1.166 . S
O36 Zn21 1.905 . S
O36 C37 1.182 . S
C37 O35 1.166 . S
C37 O36 1.182 . S
O38 Zn23 2.080 . S
O38 C41 1.305 . S
O39 Zn22 1.920 . S
O39 C41 1.234 . S
C40 O26 1.305 . S
C40 O27 1.234 . S
C41 O38 1.305 . S
C41 O39 1.234 . S
Zn42 O48 1.920 . S
Zn42 O54 1.898 . S
Zn42 O57 1.905 . S
Zn43 O51 1.905 . S
Zn43 O52 1.898 . S
Zn43 O60 1.920 . S
Zn44 O47 2.074 1_554 S
Zn44 O50 2.120 . S
Zn44 O53 2.127 . S
Zn44 O55 2.113 1_554 S
Zn44 O56 2.108 1_554 S
Zn44 O59 2.087 . S
C45 O50 1.166 . S
C45 O51 1.182 . S
C46 O52 1.167 . S
C46 O53 1.299 . S
O47 Zn44 2.074 1_556 S
O47 C61 1.305 . S
O48 Zn42 1.920 . S
O48 C61 1.234 . S
C49 O54 1.167 . S
C49 O55 1.299 . S
O50 Zn44 2.120 . S
O50 C45 1.166 . S
O51 Zn43 1.905 . S
O51 C45 1.182 . S
O52 Zn43 1.898 . S
O52 C46 1.167 . S
O53 Zn44 2.127 . S
O53 C46 1.299 . S
O54 Zn42 1.898 . S
O54 C49 1.167 . S
O55 Zn44 2.113 1_556 S
O55 C49 1.299 . S
O56 Zn44 2.108 1_556 S
O56 C58 1.166 . S
O57 Zn42 1.905 . S
O57 C58 1.182 . S
C58 O56 1.166 . S
C58 O57 1.182 . S
O59 Zn44 2.087 . S
O59 C62 1.305 . S
O60 Zn43 1.920 . S
O60 C62 1.234 . S
C61 O47 1.305 . S
C61 O48 1.234 . S
C62 O59 1.305 . S
C62 O60 1.234 . S
Zn63 O69 1.920 . S
Zn63 O75 1.898 . S
Zn63 O78 1.905 . S
Zn64 O72 1.905 . S
Zn64 O73 1.898 . S
Zn64 O81 1.920 . S
Zn65 O68 2.080 . S
Zn65 O71 2.114 . S
Zn65 O74 2.120 . S
Zn65 O76 2.120 . S
Zn65 O77 2.114 . S
Zn65 O80 2.080 . S
C66 O71 1.166 . S
C66 O72 1.182 . S
C67 O73 1.167 . S
C67 O74 1.299 . S
O68 Zn65 2.080 . S
O68 C82 1.305 . S
O69 Zn63 1.920 . S
O69 C82 1.234 . S
C70 O75 1.167 . S
C70 O76 1.299 . S
O71 Zn65 2.114 . S
O71 C66 1.166 . S
O72 Zn64 1.905 . S
O72 C66 1.182 . S
O73 Zn64 1.898 . S
O73 C67 1.167 . S
O74 Zn65 2.120 . S
O74 C67 1.299 . S
O75 Zn63 1.898 . S
O75 C70 1.167 . S
O76 Zn65 2.120 . S
O76 C70 1.299 . S
O77 Zn65 2.114 . S
O77 C79 1.166 . S
O78 Zn63 1.905 . S
O78 C79 1.182 . S
C79 O77 1.166 . S
C79 O78 1.182 . S
O80 Zn65 2.080 . S
O80 C83 1.305 . S
O81 Zn64 1.920 . S
O81 C83 1.234 . S
C82 O68 1.305 . S
C82 O69 1.234 . S
C83 O80 1.305 . S
C83 O81 1.234 . S
C84 N85 1.317 . S
C84 N86 1.348 . S
C84 C87 1.485 . S
N85 C84 1.317 . S
N85 N89 1.370 . S
N86 C84 1.348 . S
N86 C88 1.346 . S
C87 C84 1.485 . S
C87 H91 0.960 . S
C87 H92 0.961 . S
C87 H93 0.960 . S
C88 N86 1.346 . S
C88 N89 1.307 . S
C88 C90 1.486 . S
N89 N85 1.370 . S
N89 C88 1.307 . S
C90 C88 1.486 . S
C90 H94 0.960 . S
C90 H95 0.960 . S
C90 H96 0.959 . S
H91 C87 0.960 . S
H92 C87 0.961 . S
H93 C87 0.960 . S
H94 C90 0.960 . S
H95 C90 0.960 . S
H96 C90 0.959 . S
C97 N98 1.317 . S
C97 N99 1.348 . S
C97 C100 1.485 . S
N98 C97 1.317 . S
N98 N102 1.370 . S
N99 C97 1.348 . S
N99 C101 1.346 . S
C100 C97 1.485 . S
C100 H104 0.960 . S
C100 H105 0.961 . S
C100 H106 0.960 . S
C101 N99 1.346 . S
C101 N102 1.307 . S
C101 C103 1.486 . S
N102 N98 1.370 . S
N102 C101 1.307 . S
C103 C101 1.486 . S
C103 H107 0.960 . S
C103 H108 0.960 . S
C103 H109 0.959 . S
H104 C100 0.960 . S
H105 C100 0.961 . S
H106 C100 0.960 . S
H107 C103 0.960 . S
H108 C103 0.960 . S
H109 C103 0.959 . S
C110 N111 1.317 . S
C110 N112 1.348 . S
C110 C113 1.485 . S
N111 C110 1.317 . S
N111 N115 1.370 . S
N112 C110 1.348 . S
N112 C114 1.346 . S
C113 C110 1.485 . S
C113 H117 0.960 . S
C113 H118 0.961 . S
C113 H119 0.960 . S
C114 N112 1.346 . S
C114 N115 1.307 . S
C114 C116 1.486 . S
N115 N111 1.370 . S
N115 C114 1.307 . S
C116 C114 1.486 . S
C116 H120 0.960 . S
C116 H121 0.960 . S
C116 H122 0.959 . S
H117 C113 0.960 . S
H118 C113 0.961 . S
H119 C113 0.960 . S
H120 C116 0.960 . S
H121 C116 0.960 . S
H122 C116 0.959 . S
C123 N124 1.317 . S
C123 N125 1.348 . S
C123 C126 1.485 . S
N124 C123 1.317 . S
N124 N128 1.370 . S
N125 C123 1.348 . S
N125 C127 1.346 . S
C126 C123 1.485 . S
C126 H130 0.960 . S
C126 H131 0.961 . S
C126 H132 0.960 . S
C127 N125 1.346 . S
C127 N128 1.307 . S
C127 C129 1.486 . S
N128 N124 1.370 . S
N128 C127 1.307 . S
C129 C127 1.486 . S
C129 H133 0.960 . S
C129 H134 0.960 . S
C129 H135 0.959 . S
H130 C126 0.960 . S
H131 C126 0.961 . S
H132 C126 0.960 . S
H133 C129 0.960 . S
H134 C129 0.960 . S
H135 C129 0.959 . S
C136 N137 1.317 . S
C136 N138 1.348 . S
C136 C139 1.485 . S
N137 C136 1.317 . S
N137 N141 1.370 . S
N138 C136 1.348 . S
N138 C140 1.346 . S
C139 C136 1.485 . S
C139 H143 0.960 . S
C139 H144 0.961 . S
C139 H145 0.960 . S
C140 N138 1.346 . S
C140 N141 1.307 . S
C140 C142 1.486 . S
N141 N137 1.370 . S
N141 C140 1.307 . S
C142 C140 1.486 . S
C142 H146 0.960 . S
C142 H147 0.960 . S
C142 H148 0.959 . S
H143 C139 0.960 . S
H144 C139 0.961 . S
H145 C139 0.960 . S
H146 C142 0.960 . S
H147 C142 0.960 . S
H148 C142 0.959 . S
C149 N150 1.317 . S
C149 N151 1.348 . S
C149 C152 1.485 . S
N150 C149 1.317 . S
N150 N154 1.370 . S
N151 C149 1.348 . S
N151 C153 1.346 . S
C152 C149 1.485 . S
C152 H156 0.960 . S
C152 H157 0.961 . S
C152 H158 0.960 . S
C153 N151 1.346 . S
C153 N154 1.307 . S
C153 C155 1.486 . S
N154 N150 1.370 . S
N154 C153 1.307 . S
C155 C153 1.486 . S
C155 H159 0.960 . S
C155 H160 0.960 . S
C155 H161 0.959 . S
H156 C152 0.960 . S
H157 C152 0.961 . S
H158 C152 0.960 . S
H159 C155 0.960 . S
H160 C155 0.960 . S
H161 C155 0.959 . S
C162 N163 1.317 . S
C162 N164 1.348 . S
C162 C165 1.485 . S
N163 C162 1.317 . S
N163 N167 1.370 . S
N164 C162 1.348 . S
N164 C166 1.346 . S
C165 C162 1.485 . S
C165 H169 0.960 . S
C165 H170 0.961 . S
C165 H171 0.960 . S
C166 N164 1.346 . S
C166 N167 1.307 . S
C166 C168 1.486 . S
N167 N163 1.370 . S
N167 C166 1.307 . S
C168 C166 1.486 . S
C168 H172 0.960 . S
C168 H173 0.960 . S
C168 H174 0.959 . S
H169 C165 0.960 . S
H170 C165 0.961 . S
H171 C165 0.960 . S
H172 C168 0.960 . S
H173 C168 0.960 . S
H174 C168 0.959 . S
C175 N176 1.317 . S
C175 N177 1.348 . S
C175 C178 1.485 . S
N176 C175 1.317 . S
N176 N180 1.370 . S
N177 C175 1.348 . S
N177 C179 1.346 . S
C178 C175 1.485 . S
C178 H182 0.960 . S
C178 H183 0.961 . S
C178 H184 0.960 . S
C179 N177 1.346 . S
C179 N180 1.307 . S
C179 C181 1.486 . S
N180 N176 1.370 . S
N180 C179 1.307 . S
C181 C179 1.486 . S
C181 H185 0.960 . S
C181 H186 0.960 . S
C181 H187 0.959 . S
H182 C178 0.960 . S
H183 C178 0.961 . S
H184 C178 0.960 . S
H185 C181 0.960 . S
H186 C181 0.960 . S
H187 C181 0.959 . S
C188 C189 1.369 . S
C188 C190 1.419 1_565 S
C188 H192 0.930 . S
C189 C188 1.369 . S
C189 C198 1.429 1_565 S
C190 C188 1.419 1_545 S
C190 C191 1.363 . S
C190 H193 0.929 . S
C191 C190 1.363 . S
C191 C197 1.428 . S
H192 C188 0.930 . S
H193 C190 0.929 . S
S194 N195 1.613 . S
S194 N196 1.610 . S
N195 S194 1.613 . S
N195 C198 1.350 . S
N196 S194 1.610 . S
N196 C197 1.351 . S
C197 C191 1.428 . S
C197 N196 1.351 . S
C197 C198 1.434 . S
C198 C189 1.429 1_545 S
C198 N195 1.350 . S
C198 C197 1.434 . S
C199 C200 1.369 . S
C199 C201 1.419 . S
C199 H203 0.930 . S
C200 C199 1.369 . S
C200 C209 1.429 . S
C201 C199 1.419 . S
C201 C202 1.363 . S
C201 H204 0.929 . S
C202 C201 1.363 . S
C202 C208 1.428 . S
H203 C199 0.930 . S
H204 C201 0.929 . S
S205 N206 1.613 . S
S205 N207 1.610 . S
N206 S205 1.613 . S
N206 C209 1.350 . S
N207 S205 1.610 . S
N207 C208 1.351 . S
C208 C202 1.428 . S
C208 N207 1.351 . S
C208 C209 1.434 . S
C209 C200 1.429 . S
C209 N206 1.350 . S
C209 C208 1.434 . S
C210 C211 1.369 1_565 S
C210 C212 1.419 . S
C210 H214 0.930 . S
C211 C210 1.369 1_545 S
C211 C220 1.429 . S
C212 C210 1.419 . S
C212 C213 1.363 . S
C212 H215 0.929 . S
C213 C212 1.363 . S
C213 C219 1.428 . S
H214 C210 0.930 . S
H215 C212 0.929 . S
S216 N217 1.613 . S
S216 N218 1.610 1_545 S
N217 S216 1.613 . S
N217 C220 1.350 . S
N218 S216 1.610 1_565 S
N218 C219 1.351 . S
C219 C213 1.428 . S
C219 N218 1.351 . S
C219 C220 1.434 1_565 S
C220 C211 1.429 . S
C220 N217 1.350 . S
C220 C219 1.434 1_545 S
C221 C222 1.369 . S
C221 C223 1.419 . S
C221 H225 0.930 . S
C222 C221 1.369 . S
C222 C231 1.429 . S
C223 C221 1.419 . S
C223 C224 1.363 . S
C223 H226 0.929 . S
C224 C223 1.363 . S
C224 C230 1.428 . S
H225 C221 0.930 . S
H226 C223 0.929 . S
S227 N228 1.613 . S
S227 N229 1.610 . S
N228 S227 1.613 . S
N228 C231 1.350 . S
N229 S227 1.610 . S
N229 C230 1.351 . S
C230 C224 1.428 . S
C230 N229 1.351 . S
C230 C231 1.434 . S
C231 C222 1.429 . S
C231 N228 1.350 . S
C231 C230 1.434 . S
C232 C233 1.369 . S
C232 C234 1.419 . S
C232 H236 0.930 . S
C233 C232 1.369 . S
C233 C242 1.429 . S
C234 C232 1.419 . S
C234 C235 1.363 . S
C234 H237 0.929 . S
C235 C234 1.363 . S
C235 C241 1.428 . S
H236 C232 0.930 . S
H237 C234 0.929 . S
S238 N239 1.613 . S
S238 N240 1.610 . S
N239 S238 1.613 . S
N239 C242 1.350 . S
N240 S238 1.610 . S
N240 C241 1.351 . S
C241 C235 1.428 . S
C241 N240 1.351 . S
C241 C242 1.434 . S
C242 C233 1.429 . S
C242 N239 1.350 . S
C242 C241 1.434 . S
C243 C244 1.369 1_455 S
C243 C245 1.419 . S
C243 H247 0.930 . S
C244 C243 1.369 1_655 S
C244 C253 1.429 . S
C245 C243 1.419 . S
C245 C246 1.363 . S
C245 H248 0.929 . S
C246 C245 1.363 . S
C246 C252 1.428 . S
H247 C243 0.930 . S
H248 C245 0.929 . S
S249 N250 1.613 . S
S249 N251 1.610 1_655 S
N250 S249 1.613 . S
N250 C253 1.350 . S
N251 S249 1.610 1_455 S
N251 C252 1.351 . S
C252 C246 1.428 . S
C252 N251 1.351 . S
C252 C253 1.434 1_455 S
C253 C244 1.429 . S
C253 N250 1.350 . S
C253 C252 1.434 1_655 S
C254 C255 1.369 . S
C254 C256 1.419 . S
C254 H258 0.930 . S
C255 C254 1.369 . S
C255 C264 1.429 . S
C256 C254 1.419 . S
C256 C257 1.363 . S
C256 H259 0.929 . S
C257 C256 1.363 . S
C257 C263 1.428 . S
H258 C254 0.930 . S
H259 C256 0.929 . S
S260 N261 1.613 . S
S260 N262 1.610 . S
N261 S260 1.613 . S
N261 C264 1.350 . S
N262 S260 1.610 . S
N262 C263 1.351 . S
C263 C257 1.428 . S
C263 N262 1.351 . S
C263 C264 1.434 . S
C264 C255 1.429 . S
C264 N261 1.350 . S
C264 C263 1.434 . S
C265 C266 1.369 . S
C265 C267 1.419 1_455 S
C265 H269 0.930 . S
C266 C265 1.369 . S
C266 C275 1.429 1_455 S
C267 C265 1.419 1_655 S
C267 C268 1.363 . S
C267 H270 0.929 . S
C268 C267 1.363 . S
C268 C274 1.428 . S
H269 C265 0.930 . S
H270 C267 0.929 . S
S271 N272 1.613 . S
S271 N273 1.610 . S
N272 S271 1.613 . S
N272 C275 1.350 . S
N273 S271 1.610 . S
N273 C274 1.351 . S
C274 C268 1.428 . S
C274 N273 1.351 . S
C274 C275 1.434 . S
C275 C266 1.429 1_655 S
C275 N272 1.350 . S
C275 C274 1.434 . S
C276 C277 1.369 . S
C276 C278 1.419 . S
C276 H280 0.930 . S
C277 C276 1.369 . S
C277 C286 1.429 . S
C278 C276 1.419 . S
C278 C279 1.363 . S
C278 H281 0.929 . S
C279 C278 1.363 . S
C279 C285 1.428 . S
H280 C276 0.930 . S
H281 C278 0.929 . S
S282 N283 1.613 . S
S282 N284 1.610 . S
N283 S282 1.613 . S
N283 C286 1.350 . S
N284 S282 1.610 . S
N284 C285 1.351 . S
C285 C279 1.428 . S
C285 N284 1.351 . S
C285 C286 1.434 . S
C286 C277 1.429 . S
C286 N283 1.350 . S
C286 C285 1.434 . S
C287 C288 1.369 . S
C287 C289 1.419 . S
C287 H291 0.930 . S
C288 C287 1.369 . S
C288 C297 1.429 . S
C289 C287 1.419 . S
C289 C290 1.363 . S
C289 H292 0.929 . S
C290 C289 1.363 . S
C290 C296 1.428 . S
H291 C287 0.930 . S
H292 C289 0.929 . S
S293 N294 1.613 . S
S293 N295 1.610 . S
N294 S293 1.613 . S
N294 C297 1.350 . S
N295 S293 1.610 . S
N295 C296 1.351 . S
C296 C290 1.428 . S
C296 N295 1.351 . S
C296 C297 1.434 . S
C297 C288 1.429 . S
C297 N294 1.350 . S
C297 C296 1.434 . S
C298 C299 1.369 . S
C298 C300 1.419 . S
C298 H302 0.930 1_545 S
C299 C298 1.369 . S
C299 C308 1.429 . S
C300 C298 1.419 . S
C300 C301 1.363 . S
C300 H303 0.929 . S
C301 C300 1.363 . S
C301 C307 1.428 . S
H302 C298 0.930 1_565 S
H303 C300 0.929 . S
S304 N305 1.613 1_554 S
S304 N306 1.610 1_554 S
N305 S304 1.613 1_556 S
N305 C308 1.350 . S
N306 S304 1.610 1_556 S
N306 C307 1.351 . S
C307 C301 1.428 . S
C307 N306 1.351 . S
C307 C308 1.434 . S
C308 C299 1.429 . S
C308 N305 1.350 . S
C308 C307 1.434 . S
C309 C310 1.369 . S
C309 C311 1.419 . S
C309 H313 0.930 . S
C310 C309 1.369 . S
C310 C319 1.429 . S
C311 C309 1.419 . S
C311 C312 1.363 . S
C311 H314 0.929 . S
C312 C311 1.363 . S
C312 C318 1.428 . S
H313 C309 0.930 . S
H314 C311 0.929 . S
S315 N316 1.613 . S
S315 N317 1.610 . S
N316 S315 1.613 . S
N316 C319 1.350 . S
N317 S315 1.610 . S
N317 C318 1.351 . S
C318 C312 1.428 . S
C318 N317 1.351 . S
C318 C319 1.434 . S
C319 C310 1.429 . S
C319 N316 1.350 . S
C319 C318 1.434 . S
C320 C321 1.369 . S
C320 C322 1.419 . S
C320 H324 0.930 . S
C321 C320 1.369 . S
C321 C330 1.429 . S
C322 C320 1.419 . S
C322 C323 1.363 . S
C322 H325 0.929 . S
C323 C322 1.363 . S
C323 C329 1.428 . S
H324 C320 0.930 . S
H325 C322 0.929 . S
S326 N327 1.613 . S
S326 N328 1.610 . S
N327 S326 1.613 . S
N327 C330 1.350 . S
N328 S326 1.610 . S
N328 C329 1.351 . S
C329 C323 1.428 . S
C329 N328 1.351 . S
C329 C330 1.434 . S
C330 C321 1.429 . S
C330 N327 1.350 . S
C330 C329 1.434 . S
C331 C332 1.369 . S
C331 C333 1.419 . S
C331 H335 0.930 1_655 S
C332 C331 1.369 . S
C332 C341 1.429 . S
C333 C331 1.419 . S
C333 C334 1.363 . S
C333 H336 0.929 . S
C334 C333 1.363 . S
C334 C340 1.428 . S
H335 C331 0.930 1_455 S
H336 C333 0.929 . S
S337 N338 1.613 1_556 S
S337 N339 1.610 1_556 S
N338 S337 1.613 1_554 S
N338 C341 1.350 . S
N339 S337 1.610 1_554 S
N339 C340 1.351 . S
C340 C334 1.428 . S
C340 N339 1.351 . S
C340 C341 1.434 . S
C341 C332 1.429 . S
C341 N338 1.350 . S
C341 C340 1.434 . S
C342 C343 1.369 . S
C342 C344 1.419 . S
C342 H346 0.930 . S
C343 C342 1.369 . S
C343 C352 1.429 . S
C344 C342 1.419 . S
C344 C345 1.363 . S
C344 H347 0.929 . S
C345 C344 1.363 . S
C345 C351 1.428 . S
H346 C342 0.930 . S
H347 C344 0.929 . S
S348 N349 1.613 . S
S348 N350 1.610 . S
N349 S348 1.613 . S
N349 C352 1.350 . S
N350 S348 1.610 . S
N350 C351 1.351 . S
C351 C345 1.428 . S
C351 N350 1.351 . S
C351 C352 1.434 . S
C352 C343 1.429 . S
C352 N349 1.350 . S
C352 C351 1.434 . S
C353 C354 1.369 . S
C353 C355 1.419 . S
C353 H357 0.930 1_455 S
C354 C353 1.369 . S
C354 C363 1.429 . S
C355 C353 1.419 . S
C355 C356 1.363 . S
C355 H358 0.929 . S
C356 C355 1.363 . S
C356 C362 1.428 . S
H357 C353 0.930 1_655 S
H358 C355 0.929 . S
S359 N360 1.613 . S
S359 N361 1.610 . S
N360 S359 1.613 . S
N360 C363 1.350 . S
N361 S359 1.610 . S
N361 C362 1.351 . S
C362 C356 1.428 . S
C362 N361 1.351 . S
C362 C363 1.434 . S
C363 C354 1.429 . S
C363 N360 1.350 . S
C363 C362 1.434 . S
C364 C365 1.369 . S
C364 C366 1.419 . S
C364 H368 0.930 . S
C365 C364 1.369 . S
C365 C374 1.429 . S
C366 C364 1.419 . S
C366 C367 1.363 . S
C366 H369 0.929 . S
C367 C366 1.363 . S
C367 C373 1.428 . S
H368 C364 0.930 . S
H369 C366 0.929 . S
S370 N371 1.613 . S
S370 N372 1.610 . S
N371 S370 1.613 . S
N371 C374 1.350 . S
N372 S370 1.610 . S
N372 C373 1.351 . S
C373 C367 1.428 . S
C373 N372 1.351 . S
C373 C374 1.434 . S
C374 C365 1.429 . S
C374 N371 1.350 . S
C374 C373 1.434 . S
C375 C376 1.369 . S
C375 C377 1.419 . S
C375 H379 0.930 . S
C376 C375 1.369 . S
C376 C385 1.429 . S
C377 C375 1.419 . S
C377 C378 1.363 . S
C377 H380 0.929 . S
C378 C377 1.363 . S
C378 C384 1.428 . S
H379 C375 0.930 . S
H380 C377 0.929 . S
S381 N382 1.613 . S
S381 N383 1.610 . S
N382 S381 1.613 . S
N382 C385 1.350 . S
N383 S381 1.610 . S
N383 C384 1.351 . S
C384 C378 1.428 . S
C384 N383 1.351 . S
C384 C385 1.434 . S
C385 C376 1.429 . S
C385 N382 1.350 . S
C385 C384 1.434 . S
C386 C387 1.369 . S
C386 C388 1.419 . S
C386 H390 0.930 . S
C387 C386 1.369 . S
C387 C396 1.429 . S
C388 C386 1.419 . S
C388 C389 1.363 . S
C388 H391 0.929 . S
C389 C388 1.363 . S
C389 C395 1.428 . S
H390 C386 0.930 . S
H391 C388 0.929 . S
S392 N393 1.613 . S
S392 N394 1.610 . S
N393 S392 1.613 . S
N393 C396 1.350 . S
N394 S392 1.610 . S
N394 C395 1.351 . S
C395 C389 1.428 . S
C395 N394 1.351 . S
C395 C396 1.434 . S
C396 C387 1.429 . S
C396 N393 1.350 . S
C396 C395 1.434 . S
C397 C398 1.369 . S
C397 C399 1.419 . S
C397 H401 0.930 . S
C398 C397 1.369 . S
C398 C407 1.429 . S
C399 C397 1.419 . S
C399 C400 1.363 . S
C399 H402 0.929 . S
C400 C399 1.363 . S
C400 C406 1.428 . S
H401 C397 0.930 . S
H402 C399 0.929 . S
S403 N404 1.613 . S
S403 N405 1.610 . S
N404 S403 1.613 . S
N404 C407 1.350 . S
N405 S403 1.610 . S
N405 C406 1.351 . S
C406 C400 1.428 . S
C406 N405 1.351 . S
C406 C407 1.434 . S
C407 C398 1.429 . S
C407 N404 1.350 . S
C407 C406 1.434 . S
C408 C409 1.369 . S
C408 C410 1.419 . S
C408 H412 0.930 . S
C409 C408 1.369 . S
C409 C418 1.429 . S
C410 C408 1.419 . S
C410 C411 1.363 . S
C410 H413 0.929 . S
C411 C410 1.363 . S
C411 C417 1.428 . S
H412 C408 0.930 . S
H413 C410 0.929 . S
S414 N415 1.613 . S
S414 N416 1.610 . S
N415 S414 1.613 . S
N415 C418 1.350 . S
N416 S414 1.610 . S
N416 C417 1.351 . S
C417 C411 1.428 . S
C417 N416 1.351 . S
C417 C418 1.434 . S
C418 C409 1.429 . S
C418 N415 1.350 . S
C418 C417 1.434 . S
C419 C420 1.369 . S
C419 C421 1.419 . S
C419 H423 0.930 . S
C420 C419 1.369 . S
C420 C429 1.429 . S
C421 C419 1.419 . S
C421 C422 1.363 . S
C421 H424 0.929 . S
C422 C421 1.363 . S
C422 C428 1.428 . S
H423 C419 0.930 . S
H424 C421 0.929 . S
S425 N426 1.613 . S
S425 N427 1.610 . S
N426 S425 1.613 . S
N426 C429 1.350 . S
N427 S425 1.610 . S
N427 C428 1.351 . S
C428 C422 1.428 . S
C428 N427 1.351 . S
C428 C429 1.434 . S
C429 C420 1.429 . S
C429 N426 1.350 . S
C429 C428 1.434 . S
C430 C431 1.369 . S
C430 C432 1.419 . S
C430 H434 0.930 . S
C431 C430 1.369 . S
C431 C440 1.429 . S
C432 C430 1.419 . S
C432 C433 1.363 . S
C432 H435 0.929 . S
C433 C432 1.363 . S
C433 C439 1.428 . S
H434 C430 0.930 . S
H435 C432 0.929 . S
S436 N437 1.613 . S
S436 N438 1.610 . S
N437 S436 1.613 . S
N437 C440 1.350 . S
N438 S436 1.610 . S
N438 C439 1.351 . S
C439 C433 1.428 . S
C439 N438 1.351 . S
C439 C440 1.434 . S
C440 C431 1.429 . S
C440 N437 1.350 . S
C440 C439 1.434 . S
C441 C442 1.369 . S
C441 C443 1.419 . S
C441 H445 0.930 . S
C442 C441 1.369 . S
C442 C451 1.429 . S
C443 C441 1.419 . S
C443 C444 1.363 . S
C443 H446 0.929 . S
C444 C443 1.363 . S
C444 C450 1.428 . S
H445 C441 0.930 . S
H446 C443 0.929 . S
S447 N448 1.613 . S
S447 N449 1.610 . S
N448 S447 1.613 . S
N448 C451 1.350 . S
N449 S447 1.610 . S
N449 C450 1.351 . S
C450 C444 1.428 . S
C450 N449 1.351 . S
C450 C451 1.434 . S
C451 C442 1.429 . S
C451 N448 1.350 . S
C451 C450 1.434 . S
C189 C7 0.969 . S
C191 N89 1.033 . S
C200 C25 0.960 . S
C202 N102 1.033 . S
C211 C46 0.951 . S
C213 N111 1.032 . S
C224 N128 1.031 . S
C222 C70 0.947 . S
C235 N141 1.033 . S
C233 C28 0.949 . S
C244 C49 0.947 . S
C246 N150 1.030 . S
C255 C67 0.967 . S
C257 N163 1.030 . S
C266 C4 0.967 . S
C268 N180 1.034 . S
C277 C58 1.557 1_565 S
C279 N176 1.665 . S
C290 N137 1.664 . S
C288 C66 1.556 . S
C301 N154 1.673 . S
C299 C3 1.570 1_545 S
C310 C37 1.560 . S
C312 N167 1.672 . S
C323 N98 1.666 . S
C321 C79 1.556 . S
C332 C16 1.570 1_655 S
C334 N115 1.673 . S
C345 N124 1.665 . S
C343 C24 1.556 . S
C356 N85 1.666 . S
C354 C45 1.564 1_455 S
C367 N164 1.430 . S
C365 C19 1.271 . S
C378 N177 1.426 . S
C376 C41 1.280 . S
C387 C62 1.268 . S
C389 N138 1.423 . S
C400 N151 1.428 . S
C398 C82 1.280 . S
C411 N112 1.429 . S
C409 C40 1.276 . S
C420 C61 1.278 . S
C422 N125 1.424 . S
C433 N86 1.425 . S
C431 C83 1.284 . S
C444 N99 1.427 . S
C442 C20 1.272 . S
