# Generated by pormake.
# Topology zzz, (3,6)-cn, num edge types: 1
# Building blocks:
#     Node 0, Type 0, BuildingBlock: BELTOD_clean_linker_0, # of connection points: 3
#     Node 1, Type 0, BuildingBlock: BELTOD_clean_linker_0, # of connection points: 3
#     Node 2, Type 0, BuildingBlock: BELTOD_clean_linker_0, # of connection points: 3
#     Node 3, Type 0, BuildingBlock: BELTOD_clean_linker_0, # of connection points: 3
#     Node 4, Type 0, BuildingBlock: BELTOD_clean_linker_0, # of connection points: 3
#     Node 5, Type 0, BuildingBlock: BELTOD_clean_linker_0, # of connection points: 3
#     Node 6, Type 0, BuildingBlock: BELTOD_clean_linker_0, # of connection points: 3
#     Node 7, Type 0, BuildingBlock: BELTOD_clean_linker_0, # of connection points: 3
#     Node 8, Type 1, BuildingBlock: KUMBOL_clean_sbu_0, # of connection points: 6
#     Node 9, Type 1, BuildingBlock: KUMBOL_clean_sbu_0, # of connection points: 6
#     Node 10, Type 1, BuildingBlock: KUMBOL_clean_sbu_0, # of connection points: 6
#     Node 11, Type 1, BuildingBlock: KUMBOL_clean_sbu_0, # of connection points: 6
#     Edge 12, Type (0, 1), BuildingBlock: TEMPAE_clean_linker_10, # of connection points: 2
#     Edge 13, Type (0, 1), BuildingBlock: TEMPAE_clean_linker_10, # of connection points: 2
#     Edge 14, Type (0, 1), BuildingBlock: TEMPAE_clean_linker_10, # of connection points: 2
#     Edge 15, Type (0, 1), BuildingBlock: TEMPAE_clean_linker_10, # of connection points: 2
#     Edge 16, Type (0, 1), BuildingBlock: TEMPAE_clean_linker_10, # of connection points: 2
#     Edge 17, Type (0, 1), BuildingBlock: TEMPAE_clean_linker_10, # of connection points: 2
#     Edge 18, Type (0, 1), BuildingBlock: TEMPAE_clean_linker_10, # of connection points: 2
#     Edge 19, Type (0, 1), BuildingBlock: TEMPAE_clean_linker_10, # of connection points: 2
#     Edge 20, Type (0, 1), BuildingBlock: TEMPAE_clean_linker_10, # of connection points: 2
#     Edge 21, Type (0, 1), BuildingBlock: TEMPAE_clean_linker_10, # of connection points: 2
#     Edge 22, Type (0, 1), BuildingBlock: TEMPAE_clean_linker_10, # of connection points: 2
#     Edge 23, Type (0, 1), BuildingBlock: TEMPAE_clean_linker_10, # of connection points: 2
#     Edge 24, Type (0, 1), BuildingBlock: TEMPAE_clean_linker_10, # of connection points: 2
#     Edge 25, Type (0, 1), BuildingBlock: TEMPAE_clean_linker_10, # of connection points: 2
#     Edge 26, Type (0, 1), BuildingBlock: TEMPAE_clean_linker_10, # of connection points: 2
#     Edge 27, Type (0, 1), BuildingBlock: TEMPAE_clean_linker_10, # of connection points: 2
#     Edge 28, Type (0, 1), BuildingBlock: TEMPAE_clean_linker_10, # of connection points: 2
#     Edge 29, Type (0, 1), BuildingBlock: TEMPAE_clean_linker_10, # of connection points: 2
#     Edge 30, Type (0, 1), BuildingBlock: TEMPAE_clean_linker_10, # of connection points: 2
#     Edge 31, Type (0, 1), BuildingBlock: TEMPAE_clean_linker_10, # of connection points: 2
#     Edge 32, Type (0, 1), BuildingBlock: TEMPAE_clean_linker_10, # of connection points: 2
#     Edge 33, Type (0, 1), BuildingBlock: TEMPAE_clean_linker_10, # of connection points: 2
#     Edge 34, Type (0, 1), BuildingBlock: TEMPAE_clean_linker_10, # of connection points: 2
#     Edge 35, Type (0, 1), BuildingBlock: TEMPAE_clean_linker_10, # of connection points: 2
# Relax obj value: 0.286
# Max RMSD: 0.211
# Mean RMSD: 0.202
data_MOF--net-zzz--node1-KUMBOL_clean_sbu_0--node2-BELTOD_clean_linker_0--edge1-TEMPAE_clean_linker_10
_symmetry_space_group_name_H-M    P1
_symmetry_Int_Tables_number       1
_symmetry_cell_setting            triclinic
loop_
_symmetry_equiv_pos_as_xyz
'x, y, z'
_cell_length_a     54.341085
_cell_length_b     54.295542
_cell_length_c     18.855685
_cell_angle_alpha  90.285739
_cell_angle_beta   90.003997
_cell_angle_gamma 89.919499
loop_
_atom_site_label
_atom_site_type_symbol
_atom_site_fract_x
_atom_site_fract_y
_atom_site_fract_z
_atom_type_partial_charge
P0 P 0.74361 0.49364 0.15995 0.0
H1 H 0.76947 0.4541 0.23326 0.0
H2 H 0.80206 0.45497 0.32055 0.0
H3 H 0.78817 0.53236 0.35765 0.0
H4 H 0.75369 0.53066 0.27424 0.0
H5 H 0.69552 0.47415 0.19692 0.0
H6 H 0.65552 0.48062 0.14041 0.0
H7 H 0.68346 0.54559 0.03771 0.0
H8 H 0.72359 0.53889 0.09321 0.0
H9 H 0.76766 0.5422 0.16511 0.0
H10 H 0.76617 0.47943 0.02424 0.0
O11 O 0.74142 0.46455 0.13139 0.0
H12 H 0.80546 0.55623 0.1108 0.0
H13 H 0.80259 0.49479 0.96401 0.0
C14 C 0.75921 0.49247 0.2454 0.0
C15 C 0.77262 0.47112 0.26193 0.0
C16 C 0.79184 0.47178 0.31122 0.0
C17 C 0.79879 0.49401 0.34431 0.0
C18 C 0.78377 0.51488 0.33296 0.0
C19 C 0.76397 0.51399 0.28472 0.0
C20 C 0.71278 0.50586 0.14926 0.0
C21 C 0.69282 0.49043 0.16489 0.0
C22 C 0.66999 0.49399 0.1319 0.0
C23 C 0.66651 0.51338 0.08372 0.0
C24 C 0.68562 0.53049 0.07453 0.0
C25 C 0.70862 0.52668 0.10671 0.0
C26 C 0.76501 0.5089 0.10196 0.0
C27 C 0.7752 0.53163 0.12161 0.0
C28 C 0.79667 0.53997 0.08917 0.0
C29 C 0.80777 0.52609 0.03471 0.0
C30 C 0.79524 0.50531 0.00812 0.0
C31 C 0.77422 0.49658 0.0422 0.0
P32 P 0.98784 0.76111 0.17032 0.0
H33 H 0.02381 0.7701 0.28402 0.0
H34 H 0.0232 0.80281 0.37303 0.0
H35 H 0.9449 0.81088 0.34426 0.0
H36 H 0.94541 0.77752 0.25662 0.0
H37 H 0.96898 0.74638 0.03206 0.0
H38 H 0.96745 0.70765 0.96963 0.0
H39 H 0.99095 0.66983 0.15857 0.0
H40 H 0.99155 0.70949 0.22334 0.0
H41 H 0.00309 0.80962 0.12573 0.0
H42 H 0.93668 0.76635 0.11893 0.0
O43 O 0.01756 0.76376 0.14918 0.0
H44 H 0.98262 0.84254 0.06296 0.0
H45 H 0.91574 0.79949 0.05401 0.0
C46 C 0.98474 0.77149 0.26181 0.0
C47 C 0.00622 0.77787 0.29926 0.0
C48 C 0.00592 0.79688 0.35002 0.0
C49 C 0.98413 0.81002 0.3642 0.0
C50 C 0.9621 0.80148 0.33346 0.0
C51 C 0.96235 0.78208 0.28384 0.0
C52 C 0.97923 0.73114 0.13418 0.0
C53 C 0.97254 0.72988 0.06219 0.0
C54 C 0.97225 0.70752 0.0254 0.0
C55 C 0.97938 0.68555 0.05849 0.0
C56 C 0.98516 0.6864 0.13147 0.0
C57 C 0.98533 0.70906 0.1688 0.0
C58 C 0.97182 0.78509 0.12347 0.0
C59 C 0.98406 0.80718 0.11025 0.0
C60 C 0.97205 0.82625 0.07555 0.0
C61 C 0.94741 0.82369 0.05337 0.0
C62 C 0.93472 0.80195 0.07008 0.0
C63 C 0.94675 0.78294 0.10613 0.0
P64 P 0.76669 0.00383 0.20886 0.0
H65 H 0.75759 0.028 0.34586 0.0
H66 H 0.72194 0.02401 0.42301 0.0
H67 H 0.70513 0.95373 0.32674 0.0
H68 H 0.74083 0.95796 0.24904 0.0
H69 H 0.79705 0.03192 0.11581 0.0
H70 H 0.83519 0.02452 0.05538 0.0
H71 H 0.84509 0.95708 0.17315 0.0
H72 H 0.80511 0.96433 0.23217 0.0
H73 H 0.71861 0.01837 0.1597 0.0
H74 H 0.77208 0.96231 0.10758 0.0
O75 O 0.76272 0.03435 0.20844 0.0
H76 H 0.6914 1.00262 0.06816 0.0
H77 H 0.74461 0.94617 0.01519 0.0
C78 C 0.75184 0.99357 0.29008 0.0
C79 C 0.74699 0.01114 0.34332 0.0
C80 C 0.72628 0.00892 0.3874 0.0
C81 C 0.70998 0.98893 0.37971 0.0
C82 C 0.71676 0.96978 0.33278 0.0
C83 C 0.73757 0.97199 0.28897 0.0
C84 C 0.79839 0.99919 0.18081 0.0
C85 C 0.80762 0.01584 0.13083 0.0
C86 C 0.82979 0.01154 0.09585 0.0
C87 C 0.84395 0.99039 0.1097 0.0
C88 C 0.83487 0.97363 0.16075 0.0
C89 C 0.81217 0.9779 0.19559 0.0
C90 C 0.74761 0.99203 0.13888 0.0
C91 C 0.72452 1.00269 0.12825 0.0
C92 C 0.7088 0.99333 0.07671 0.0
C93 C 0.71575 0.97288 0.03512 0.0
C94 C 0.73881 0.9619 0.04655 0.0
C95 C 0.75457 0.97128 0.0988 0.0
P96 P 0.52445 0.77015 0.1726 0.0
H97 H 0.48571 0.73868 0.22798 0.0
H98 H 0.48566 0.70701 0.31792 0.0
H99 H 0.55702 0.7311 0.39018 0.0
H100 H 0.557 0.76349 0.29872 0.0
H101 H 0.49393 0.81421 0.18251 0.0
H102 H 0.50005 0.85485 0.13269 0.0
H103 H 0.57755 0.83909 0.10666 0.0
H104 H 0.57088 0.7978 0.1541 0.0
H105 H 0.55687 0.72661 0.19134 0.0
H106 H 0.53732 0.77707 0.02427 0.0
O107 O 0.49716 0.76808 0.13226 0.0
H108 H 0.57707 0.70014 0.10642 0.0
H109 H 0.55804 0.75035 0.93792 0.0
C110 C 0.52137 0.75372 0.25607 0.0
C111 C 0.50112 0.73794 0.26423 0.0
C112 C 0.50117 0.71949 0.31553 0.0
C113 C 0.52155 0.71613 0.36025 0.0
C114 C 0.54104 0.73319 0.35642 0.0
C115 C 0.54097 0.75186 0.30454 0.0
C116 C 0.53181 0.80268 0.17097 0.0
C117 C 0.51244 0.81975 0.16855 0.0
C118 C 0.51603 0.84319 0.13966 0.0
C119 C 0.53923 0.85029 0.11338 0.0
C120 C 0.55924 0.83411 0.12399 0.0
C121 C 0.55554 0.81054 0.1524 0.0
C122 C 0.54524 0.75383 0.11434 0.0
C123 C 0.55758 0.73259 0.1369 0.0
C124 C 0.56951 0.71742 0.08788 0.0
C125 C 0.56913 0.72306 0.01514 0.0
C126 C 0.55856 0.74545 0.99352 0.0
C127 C 0.54668 0.76069 0.04281 0.0
P128 P 0.28456 0.44026 0.04003 0.0
H129 H 0.27341 0.4303 0.89094 0.0
H130 H 0.24072 0.44563 0.816 0.0
H131 H 0.22771 0.50515 0.96462 0.0
H132 H 0.25947 0.48846 0.04201 0.0
H133 H 0.32676 0.41625 0.10366 0.0
H134 H 0.36058 0.43047 0.17779 0.0
H135 H 0.33433 0.50526 0.15876 0.0
H136 H 0.30033 0.49079 0.0837 0.0
H137 H 0.24105 0.41014 0.02602 0.0
H138 H 0.27204 0.45946 0.18229 0.0
O139 O 0.29294 0.41333 0.00424 0.0
H140 H 0.20105 0.41303 0.08491 0.0
H141 H 0.23217 0.46178 0.24213 0.0
C142 C 0.26943 0.45836 0.97209 0.0
C143 C 0.26423 0.44718 0.9065 0.0
C144 C 0.24526 0.45606 0.86327 0.0
C145 C 0.23101 0.47656 0.88411 0.0
C146 C 0.23773 0.48899 0.94712 0.0
C147 C 0.25651 0.47984 0.99087 0.0
C148 C 0.31112 0.45245 0.08673 0.0
C149 C 0.32846 0.43581 0.11399 0.0
C150 C 0.34789 0.44397 0.15661 0.0
C151 C 0.35031 0.46904 0.1742 0.0
C152 C 0.33296 0.4858 0.14656 0.0
C153 C 0.31357 0.47757 0.10311 0.0
C154 C 0.2596 0.4344 0.10003 0.0
C155 C 0.23961 0.42054 0.07503 0.0
C156 C 0.21676 0.42224 0.1084 0.0
C157 C 0.21375 0.43752 0.16789 0.0
C158 C 0.23427 0.4496 0.19682 0.0
C159 C 0.25706 0.44825 0.16262 0.0
P160 P 0.06124 0.27989 0.06874 0.0
H161 H 0.05455 0.26874 0.917 0.0
H162 H 0.04124 0.23124 0.85616 0.0
H163 H 0.01601 0.20166 0.0553 0.0
H164 H 0.02924 0.2394 0.11597 0.0
H165 H 0.06275 0.33377 0.05825 0.0
H166 H 0.04938 0.36648 0.13825 0.0
H167 H 0.01125 0.31303 0.26642 0.0
H168 H 0.02488 0.28014 0.18562 0.0
H169 H 0.08595 0.23208 0.05991 0.0
H170 H 0.07861 0.29034 0.21503 0.0
O171 O 0.08073 0.29271 0.01139 0.0
H172 H 0.09975 0.2041 0.1521 0.0
H173 H 0.093 0.26252 0.30732 0.0
C174 C 0.04295 0.25706 0.02135 0.0
C175 C 0.04537 0.25463 0.94744 0.0
C176 C 0.03784 0.23301 0.91255 0.0
C177 C 0.02795 0.21317 0.95091 0.0
C178 C 0.02391 0.21639 0.02421 0.0
C179 C 0.03112 0.23818 0.05889 0.0
C180 C 0.0448 0.30434 0.11539 0.0
C181 C 0.05089 0.32904 0.10222 0.0
C182 C 0.04321 0.34787 0.14835 0.0
C183 C 0.02939 0.3425 0.20948 0.0
C184 C 0.02211 0.31787 0.22041 0.0
C185 C 0.02962 0.29903 0.17363 0.0
C186 C 0.07957 0.26277 0.13144 0.0
C187 C 0.08784 0.23906 0.11354 0.0
C188 C 0.09612 0.22311 0.16628 0.0
C189 C 0.0967 0.23088 0.23748 0.0
C190 C 0.092 0.25581 0.2532 0.0
C191 C 0.08354 0.27169 0.20042 0.0
P192 P 0.24237 0.08223 0.05525 0.0
H193 H 0.25347 0.08615 0.90269 0.0
H194 H 0.28694 0.06896 0.83122 0.0
H195 H 0.3064 0.0207 0.00352 0.0
H196 H 0.27267 0.03783 0.07469 0.0
H197 H 0.18937 0.08798 0.02843 0.0
H198 H 0.15323 0.07692 0.09715 0.0
H199 H 0.19967 0.03609 0.24164 0.0
H200 H 0.23515 0.04529 0.16798 0.0
H201 H 0.29506 0.09375 0.05629 0.0
H202 H 0.2357 0.0941 0.20827 0.0
O203 O 0.23359 0.10774 0.01319 0.0
H204 H 0.32484 0.09502 0.15282 0.0
H205 H 0.26549 0.09415 0.3051 0.0
C206 C 0.26039 0.06331 0.99437 0.0
C207 C 0.26429 0.07124 0.92438 0.0
C208 C 0.28359 0.06144 0.88342 0.0
C209 C 0.29966 0.04372 0.9119 0.0
C210 C 0.29459 0.03455 0.9802 0.0
C211 C 0.27505 0.0441 0.0207 0.0
C212 C 0.21518 0.06798 0.09376 0.0
C213 C 0.19166 0.07604 0.07377 0.0
C214 C 0.17092 0.07005 0.11446 0.0
C215 C 0.17316 0.05631 0.17756 0.0
C216 C 0.19666 0.04667 0.194 0.0
C217 C 0.21725 0.052 0.15172 0.0
C218 C 0.2632 0.09167 0.12513 0.0
C219 C 0.28835 0.09427 0.11034 0.0
C220 C 0.3054 0.09515 0.1656 0.0
C221 C 0.2975 0.0936 0.23645 0.0
C222 C 0.27217 0.09488 0.25103 0.0
C223 C 0.2551 0.09431 0.19549 0.0
P224 P 0.42114 0.22946 1.00135 0.0
H225 H 0.41602 0.24342 0.85193 0.0
H226 H 0.43434 0.27703 0.78496 0.0
H227 H 0.4871 0.28869 0.95284 0.0
H228 H 0.46887 0.25478 0.01946 0.0
H229 H 0.39359 0.18819 0.05498 0.0
H230 H 0.40449 0.15302 0.12799 0.0
H231 H 0.48131 0.17215 0.11028 0.0
H232 H 0.47017 0.20756 0.03557 0.0
H233 H 0.38314 0.26671 0.02998 0.0
H234 H 0.44869 0.2391 0.13099 0.0
O235 O 0.39427 0.22448 0.96084 0.0
H236 H 0.38124 0.30039 0.11614 0.0
H237 H 0.44827 0.27326 0.21278 0.0
C238 C 0.44085 0.2465 0.94134 0.0
C239 C 0.4321 0.25251 0.87348 0.0
C240 C 0.44257 0.2719 0.83509 0.0
C241 C 0.4619 0.28591 0.86407 0.0
C242 C 0.47193 0.27857 0.92952 0.0
C243 C 0.46164 0.25894 0.96745 0.0
C244 C 0.43105 0.20041 0.03876 0.0
C245 C 0.41288 0.18451 0.06477 0.0
C246 C 0.41911 0.16448 0.10735 0.0
C247 C 0.44374 0.1599 0.12575 0.0
C248 C 0.46217 0.17509 0.09674 0.0
C249 C 0.45585 0.19532 0.05389 0.0
C250 C 0.41596 0.25029 0.07431 0.0
C251 C 0.39683 0.26759 0.07163 0.0
C252 C 0.39599 0.28706 0.12051 0.0
C253 C 0.41476 0.28998 0.17146 0.0
C254 C 0.43309 0.27167 0.1759 0.0
C255 C 0.43353 0.25199 0.1283 0.0
Gd256 Gd 0.97991 0.02055 0.59073 0.0
Gd257 Gd 0.03512 0.0072 0.69498 0.0
C258 C 0.06671 0.06039 0.86049 0.0
C259 C 0.10548 0.07227 0.80671 0.0
C260 C 0.07803 0.04382 0.74557 0.0
C261 C 0.06123 0.04569 0.80052 0.0
C262 C 0.10052 0.0568 0.74863 0.0
C263 C 0.0887 0.07391 0.86276 0.0
C264 C 0.05021 0.06065 0.91727 0.0
C265 C 0.02852 0.04715 0.91277 0.0
N266 N 0.03998 0.03253 0.79668 0.0
C267 C 0.0237 0.0331 0.85214 0.0
H268 H 0.00671 0.02308 0.85084 0.0
C269 C 0.09067 0.02329 0.64089 0.0
N270 N 0.07302 0.02832 0.69091 0.0
C271 C 0.11298 0.03604 0.64093 0.0
C272 C 0.11779 0.05316 0.69451 0.0
H273 H 0.08708 0.0099 0.59946 0.0
H274 H 0.09306 0.08542 0.90815 0.0
H275 H 1.00232 0.99444 0.44034 0.0
H276 H 0.05416 0.07099 0.96517 0.0
H277 H 0.01553 0.04742 0.95628 0.0
H278 H 0.12257 0.08248 0.80975 0.0
H279 H 0.92921 0.03296 0.68477 0.0
H280 H 0.94653 0.94959 0.34832 0.0
H281 H 0.9885 0.96695 0.34558 0.0
H282 H 0.8785 0.95897 0.50698 0.0
H283 H 0.12646 0.03258 0.5998 0.0
H284 H 0.1352 0.06287 0.69487 0.0
H285 H 0.90627 0.94516 0.41161 0.0
H286 H 0.88608 0.01934 0.69231 0.0
N287 N 0.96895 0.99247 0.49959 0.0
C288 C 0.95274 0.96125 0.39148 0.0
C289 C 0.97631 0.97124 0.38935 0.0
C290 C 0.93718 0.96701 0.44812 0.0
C291 C 0.94578 0.9832 0.50139 0.0
C292 C 0.98406 0.98703 0.44364 0.0
N293 N 0.93848 0.00822 0.60085 0.0
C294 C 0.93009 0.9912 0.55411 0.0
C295 C 0.89826 0.0112 0.65327 0.0
C296 C 0.88967 0.99286 0.60753 0.0
C297 C 0.92275 0.01889 0.64872 0.0
C298 C 0.90549 0.98292 0.55631 0.0
H299 H 0.87067 0.98697 0.61101 0.0
O300 O 0.95743 0.05316 0.57749 0.0
O301 O 0.00843 0.03582 0.66414 0.0
O302 O 1.00028 0.99682 0.75752 0.0
O303 O 0.96718 0.99532 0.67818 0.0
O304 O 0.97272 0.04594 0.68427 0.0
O305 O 0.98391 0.04316 0.49664 0.0
O306 O 0.0653 0.98127 0.69435 0.0
O307 O 0.006 0.99154 0.62498 0.0
O308 O 0.01512 0.02321 0.52471 0.0
O309 O 0.0445 0.03408 0.60778 0.0
O310 O 0.0414 0.98088 0.60241 0.0
O311 O 0.03891 0.98103 0.78095 0.0
C312 C 0.99513 0.04892 0.70425 0.0
C313 C 0.89726 0.9657 0.50585 0.0
C314 C 0.91306 0.95785 0.45159 0.0
C315 C 0.9702 0.06064 0.52334 0.0
C316 C 0.98163 0.08516 0.53156 0.0
C317 C 0.97043 0.10288 0.57564 0.0
C318 C 0.00465 0.09043 0.50083 0.0
C319 C 0.01667 0.11267 0.51636 0.0
C320 C 0.98225 0.12504 0.59048 0.0
C321 C 0.00538 0.12984 0.56181 0.0
C322 C 0.97695 0.9915 0.74171 0.0
C323 C 0.01865 0.97741 0.58611 0.0
C324 C 0.05668 0.96922 0.74835 0.0
C325 C 0.05333 0.94274 0.73514 0.0
C326 C 0.07274 0.92893 0.70602 0.0
C327 C 0.03042 0.93152 0.74596 0.0
C328 C 0.02695 0.90654 0.72946 0.0
C329 C 0.0693 0.90421 0.68828 0.0
C330 C 0.04663 0.89299 0.70039 0.0
C331 C 0.03689 0.03258 0.54139 0.0
H332 H 0.95264 0.09944 0.5996 0.0
H333 H 0.01336 0.07729 0.46537 0.0
H334 H 0.97332 0.13861 0.62381 0.0
H335 H 0.01404 0.14742 0.57276 0.0
H336 H 0.09047 0.93736 0.69627 0.0
H337 H 0.01547 0.94202 0.76927 0.0
H338 H 0.08433 0.89364 0.66584 0.0
H339 H 0.04466 0.87359 0.68825 0.0
Gd340 Gd 0.49402 0.98015 0.56994 0.0
Gd341 Gd 0.5053 0.03479 0.68052 0.0
C342 C 0.45481 0.05486 0.86755 0.0
C343 C 0.44309 0.09684 0.83998 0.0
C344 C 0.46795 0.07291 0.75681 0.0
C345 C 0.46756 0.05309 0.80231 0.0
C346 C 0.45538 0.09492 0.77482 0.0
C347 C 0.44311 0.07697 0.88668 0.0
C348 C 0.45389 0.03429 0.9115 0.0
C349 C 0.46436 0.0123 0.88866 0.0
N350 N 0.47903 0.03191 0.78215 0.0
C351 C 0.47674 0.01137 0.82383 0.0
H352 H 0.48351 0.99371 0.8075 0.0
C353 C 0.48251 0.09082 0.65132 0.0
N354 N 0.48073 0.07082 0.69526 0.0
C355 C 0.46966 0.11257 0.66558 0.0
C356 C 0.45593 0.11462 0.72755 0.0
H357 H 0.49485 0.09066 0.60671 0.0
H358 H 0.43358 0.07873 0.93694 0.0
H359 H 0.51551 0.01411 0.42977 0.0
H360 H 0.44447 0.03499 0.96213 0.0
H361 H 0.46287 0.99593 0.92094 0.0
H362 H 0.43362 0.11366 0.85492 0.0
H363 H 0.49387 0.92425 0.64566 0.0
H364 H 0.56749 0.97095 0.31626 0.0
H365 H 0.54327 0.00907 0.33013 0.0
H366 H 0.57435 0.89718 0.45161 0.0
H367 H 0.47108 0.12805 0.62987 0.0
H368 H 0.44642 0.13171 0.73935 0.0
H369 H 0.57969 0.92977 0.36334 0.0
H370 H 0.51765 0.88564 0.64225 0.0
N371 N 0.52336 0.97903 0.47621 0.0
C372 C 0.55548 0.97312 0.36169 0.0
C373 C 0.54167 0.99455 0.36898 0.0
C374 C 0.55344 0.95465 0.41257 0.0
C375 C 0.5369 0.95806 0.46966 0.0
C376 C 0.52558 0.99717 0.42625 0.0
N377 N 0.51616 0.94247 0.5693 0.0
C378 C 0.53357 0.93947 0.51851 0.0
C379 C 0.52262 0.90072 0.60779 0.0
C380 C 0.54173 0.89801 0.55918 0.0
C381 C 0.50945 0.92281 0.61037 0.0
C382 C 0.54688 0.91716 0.51221 0.0
H383 H 0.55161 0.88069 0.55616 0.0
O384 O 0.46767 0.9504 0.56109 0.0
O385 O 0.47655 0.01 0.63597 0.0
O386 O 0.51865 1.00132 0.74207 0.0
O387 O 0.51169 0.96661 0.67084 0.0
O388 O 0.46488 0.97427 0.65317 0.0
O389 O 0.47229 0.97591 0.47414 0.0
O390 O 0.52628 0.06836 0.694 0.0
O391 O 0.5227 0.00563 0.61207 0.0
O392 O 0.48268 0.01386 0.50639 0.0
O393 O 0.48978 0.04858 0.57704 0.0
O394 O 0.53282 0.04159 0.59295 0.0
O395 O 0.53406 0.03693 0.76014 0.0
C396 C 0.46127 0.99701 0.66991 0.0
C397 C 0.564 0.91415 0.45721 0.0
C398 C 0.56703 0.93271 0.40696 0.0
C399 C 0.45959 0.95763 0.49984 0.0
C400 C 0.4328 0.95927 0.49378 0.0
C401 C 0.41966 0.93847 0.47182 0.0
C402 C 0.42028 0.98124 0.50986 0.0
C403 C 0.39465 0.98308 0.49937 0.0
C404 C 0.39423 0.93972 0.4639 0.0
C405 C 0.38184 0.96183 0.47638 0.0
C406 C 0.51908 0.9772 0.73041 0.0
C407 C 0.53727 0.01896 0.57651 0.0
C408 C 0.54173 0.05827 0.73759 0.0
C409 C 0.56787 0.06016 0.7174 0.0
C410 C 0.5763 0.08042 0.67804 0.0
C411 C 0.58439 0.04128 0.73466 0.0
C412 C 0.60906 0.04263 0.71378 0.0
C413 C 0.60082 0.08165 0.65629 0.0
C414 C 0.61723 0.06294 0.67449 0.0
C415 C 0.48304 0.03801 0.51682 0.0
H416 H 0.42911 0.92133 0.46024 0.0
H417 H 0.43074 0.99687 0.52899 0.0
H418 H 0.38415 0.92367 0.44599 0.0
H419 H 0.36235 0.96229 0.46495 0.0
H420 H 0.56391 0.09523 0.66368 0.0
H421 H 0.57829 0.02575 0.76602 0.0
H422 H 0.60717 0.09726 0.6259 0.0
H423 H 0.63632 0.06441 0.65853 0.0
Gd424 Gd 0.47737 0.50979 0.68377 0.0
Gd425 Gd 0.53238 0.49559 0.57979 0.0
C426 C 0.61155 0.49634 0.66279 0.0
C427 C 0.62964 0.5296 0.5949 0.0
C428 C 0.58664 0.51853 0.57786 0.0
C429 C 0.58866 0.50047 0.62922 0.0
C430 C 0.60725 0.53292 0.55914 0.0
C431 C 0.63181 0.51128 0.64643 0.0
C432 C 0.61366 0.47688 0.71051 0.0
C433 C 0.5934 0.46189 0.72321 0.0
N434 N 0.56868 0.48628 0.64425 0.0
C435 C 0.57102 0.46686 0.68981 0.0
H436 H 0.55588 0.45507 0.70232 0.0
C437 C 0.56315 0.5363 0.48561 0.0
N438 N 0.56494 0.52108 0.54316 0.0
C439 C 0.583 0.55104 0.46556 0.0
C440 C 0.60504 0.54964 0.50323 0.0
H441 H 0.54617 0.53747 0.45611 0.0
H442 H 0.64938 0.5085 0.67236 0.0
H443 H 0.4571 0.55383 0.56664 0.0
H444 H 0.63097 0.47298 0.73663 0.0
H445 H 0.59496 0.44641 0.75886 0.0
H446 H 0.64559 0.54061 0.58167 0.0
H447 H 0.46099 0.46365 0.79047 0.0
H448 H 0.38148 0.54107 0.52505 0.0
H449 H 0.41912 0.56567 0.50859 0.0
H450 H 0.363 0.46834 0.65601 0.0
H451 H 0.58126 0.56349 0.42119 0.0
H452 H 0.62044 0.56101 0.48741 0.0
H453 H 0.36121 0.50384 0.57583 0.0
H454 H 0.42488 0.43723 0.81307 0.0
N455 N 0.44217 0.52209 0.61794 0.0
C456 C 0.39841 0.53538 0.55046 0.0
C457 C 0.41954 0.54945 0.54172 0.0
C458 C 0.39926 0.51432 0.59255 0.0
C459 C 0.42155 0.50824 0.6269 0.0
C460 C 0.44125 0.54262 0.57601 0.0
N461 N 0.44359 0.48395 0.70812 0.0
C462 C 0.42241 0.48841 0.67257 0.0
C463 C 0.42393 0.45148 0.77321 0.0
C464 C 0.40237 0.45503 0.73445 0.0
C465 C 0.44432 0.46644 0.76019 0.0
C466 C 0.40122 0.47396 0.68447 0.0
H467 H 0.38652 0.4435 0.74486 0.0
O468 O 0.46156 0.5144 0.78841 0.0
O469 O 0.51854 0.50799 0.68517 0.0
O470 O 0.52017 0.46187 0.64228 0.0
O471 O 0.47835 0.46902 0.65722 0.0
O472 O 0.50053 0.49239 0.76971 0.0
O473 O 0.47701 0.54583 0.73475 0.0
O474 O 0.55273 0.48447 0.48578 0.0
O475 O 0.49167 0.4987 0.57886 0.0
O476 O 0.49124 0.54485 0.63129 0.0
O477 O 0.53182 0.53695 0.59763 0.0
O478 O 0.5094 0.51291 0.49236 0.0
O479 O 0.52563 0.46005 0.52977 0.0
C480 C 0.52183 0.49821 0.74507 0.0
C481 C 0.37938 0.47933 0.64795 0.0
C482 C 0.37836 0.49955 0.60241 0.0
C483 C 0.47 0.53665 0.79532 0.0
C484 C 0.48628 0.54085 0.85707 0.0
C485 C 0.48543 0.52494 0.9158 0.0
C486 C 0.50392 0.55971 0.85589 0.0
C487 C 0.52045 0.56272 0.9124 0.0
C488 C 0.5021 0.52768 0.97157 0.0
C489 C 0.51951 0.5465 0.97011 0.0
C490 C 0.49759 0.45405 0.65668 0.0
C491 C 0.48811 0.50864 0.51954 0.0
C492 C 0.53937 0.46499 0.47531 0.0
C493 C 0.52776 0.46225 0.40491 0.0
C494 C 0.533 0.47878 0.34962 0.0
C495 C 0.51092 0.44308 0.3929 0.0
C496 C 0.49972 0.4402 0.32643 0.0
C497 C 0.52171 0.47602 0.28356 0.0
C498 C 0.50525 0.45673 0.27173 0.0
C499 C 0.5132 0.55226 0.6091 0.0
H500 H 0.47214 0.51012 0.91822 0.0
H501 H 0.50452 0.57239 0.81168 0.0
H502 H 0.50146 0.51522 0.01618 0.0
H503 H 0.53206 0.54857 0.01438 0.0
H504 H 0.54577 0.49385 0.35725 0.0
H505 H 0.50683 0.43011 0.43483 0.0
H506 H 0.52582 0.48879 0.2413 0.0
H507 H 0.49678 0.45473 0.22001 0.0
Gd508 Gd 0.00611 0.48731 0.70856 0.0
Gd509 Gd 0.02053 0.53643 0.5873 0.0
C510 C 0.04381 0.60898 0.68944 0.0
C511 C 0.01147 0.63643 0.64973 0.0
C512 C 0.0083 0.59224 0.62886 0.0
C513 C 0.03114 0.58882 0.65911 0.0
C514 C 0.99772 0.61601 0.62696 0.0
C515 C 0.03459 0.63291 0.68068 0.0
C516 C 0.06459 0.60438 0.73088 0.0
C517 C 0.07126 0.58013 0.74485 0.0
N518 N 0.03962 0.56544 0.66569 0.0
C519 C 0.05828 0.56083 0.71286 0.0
H520 H 0.06301 0.5425 0.72872 0.0
C521 C 0.9717 0.57458 0.58512 0.0
N522 N 0.99572 0.57208 0.60637 0.0
C523 C 0.96025 0.59765 0.5842 0.0
C524 C 0.97345 0.61854 0.60382 0.0
H525 H 0.96104 0.5593 0.56671 0.0
H526 H 0.04446 0.64868 0.70162 0.0
H527 H 0.95026 0.48901 0.7878 0.0
H528 H 0.07463 0.61932 0.75585 0.0
H529 H 0.08629 0.57622 0.78079 0.0
H530 H 0.0039 0.65487 0.64685 0.0
H531 H 0.05166 0.44872 0.64228 0.0
H532 H 0.91445 0.42035 0.75101 0.0
H533 H 0.91418 0.46249 0.80105 0.0
H534 H 0.97639 0.37113 0.63983 0.0
H535 H 0.94134 0.59933 0.56681 0.0
H536 H 0.96461 0.63643 0.60223 0.0
H537 H 0.93761 0.38659 0.69001 0.0
H538 H 0.05627 0.40592 0.60916 0.0
N539 N 0.97111 0.46265 0.72839 0.0
C540 C 0.93045 0.43201 0.7446 0.0
C541 C 0.93025 0.45573 0.77307 0.0
C542 C 0.95159 0.42331 0.71034 0.0
C543 C 0.97198 0.43924 0.70303 0.0
C544 C 0.9509 0.47076 0.7653 0.0
N545 N 0.01334 0.44629 0.66868 0.0
C546 C 0.99375 0.43073 0.67328 0.0
C547 C 0.03853 0.41267 0.62677 0.0
C548 C 0.01847 0.39686 0.62936 0.0
C549 C 0.03571 0.43729 0.64692 0.0
C550 C 0.99572 0.40577 0.65219 0.0
H551 H 0.02087 0.37766 0.61529 0.0
O552 O 0.03325 0.4959 0.78962 0.0
O553 O 0.01154 0.52796 0.69807 0.0
O554 O 0.05793 0.52213 0.62002 0.0
O555 O 0.04738 0.48726 0.68647 0.0
O556 O 0.98115 0.51712 0.75328 0.0
O557 O 0.004 0.47056 0.81303 0.0
O558 O 0.0063 0.55097 0.48885 0.0
O559 O 0.01215 0.49646 0.59567 0.0
O560 O 0.97075 0.49254 0.64597 0.0
O561 O 0.98154 0.52264 0.56368 0.0
O562 O 0.03828 0.50595 0.52216 0.0
O563 O 0.0453 0.55361 0.51176 0.0
C564 C 0.99315 0.53603 0.73182 0.0
C565 C 0.9752 0.39019 0.6568 0.0
C566 C 0.95314 0.39899 0.68538 0.0
C567 C 0.0219 0.48377 0.83879 0.0
C568 C 0.01677 0.49801 0.90369 0.0
C569 C 0.03599 0.50549 0.94847 0.0
C570 C 0.99288 0.50635 0.9172 0.0
C571 C 0.98803 0.52289 0.97278 0.0
C572 C 0.03119 0.52125 0.00584 0.0
C573 C 0.00733 0.53005 0.01792 0.0
C574 C 0.06383 0.50243 0.65809 0.0
C575 C 0.02624 0.48773 0.54837 0.0
C576 C 0.02807 0.55587 0.46384 0.0
C577 C 0.03294 0.5459 0.39215 0.0
C578 C 0.01567 0.5499 0.33794 0.0
C579 C 0.05363 0.53107 0.37816 0.0
C580 C 0.05672 0.51986 0.3114 0.0
C581 C 0.01873 0.53887 0.27145 0.0
C582 C 0.03905 0.52377 0.25826 0.0
C583 C 0.96536 0.50712 0.5919 0.0
H584 H 0.05469 0.49948 0.93839 0.0
H585 H 0.97796 0.5002 0.88356 0.0
H586 H 0.04608 0.52703 0.0402 0.0
H587 H 0.00409 0.54273 0.06146 0.0
H588 H 0.99957 0.56124 0.34747 0.0
H589 H 0.0671 0.52773 0.41943 0.0
H590 H 0.00526 0.54194 0.23012 0.0
H591 H 0.04118 0.51551 0.20618 0.0
C592 C 0.13265 0.07105 0.23083 0.0
C593 C 0.15156 0.05325 0.22746 0.0
C594 C 0.11272 0.06883 0.27826 0.0
C595 C 0.11195 0.04894 0.3264 0.0
C596 C 0.13089 0.03099 0.32399 0.0
C597 C 0.15008 0.03308 0.27401 0.0
C598 C 0.09254 0.08793 0.27721 0.0
C599 C 0.131 0.00958 0.37482 0.0
C600 C 0.07468 0.05457 0.49786 0.0
C601 C 0.05445 0.03926 0.48376 0.0
C602 C 0.09325 0.05831 0.44689 0.0
C603 C 0.0914 0.04684 0.37934 0.0
C604 C 0.0702 0.03267 0.36331 0.0
C605 C 0.05207 0.02902 0.41561 0.0
C606 C 0.11527 0.07384 0.46638 0.0
C607 C 0.06697 0.02074 0.29143 0.0
H608 H 0.13344 0.08714 0.19727 0.0
H609 H 0.16391 0.01875 0.27178 0.0
H610 H 0.09444 0.10084 0.23205 0.0
H611 H 0.07425 0.07895 0.27371 0.0
H612 H 0.09286 0.09864 0.32738 0.0
H613 H 0.14739 0.99757 0.36788 0.0
H614 H 0.13067 0.01652 0.4303 0.0
H615 H 0.11422 0.99827 0.36701 0.0
H616 H 0.0763 0.06326 0.54951 0.0
H617 H 0.03644 0.01742 0.40358 0.0
H618 H 0.11751 0.08903 0.42786 0.0
H619 H 0.1322 0.06241 0.46392 0.0
H620 H 0.11369 0.08191 0.52047 0.0
H621 H 0.06944 0.03456 0.24889 0.0
H622 H 0.04857 0.01209 0.28525 0.0
H623 H 0.08123 0.00634 0.2836 0.0
C624 C 0.43563 0.13951 0.24228 0.0
C625 C 0.44958 0.14071 0.17976 0.0
C626 C 0.44071 0.12207 0.29503 0.0
C627 C 0.46 0.10479 0.28481 0.0
C628 C 0.47408 0.10574 0.22142 0.0
C629 C 0.46884 0.1238 0.16995 0.0
C630 C 0.42509 0.12273 0.36122 0.0
C631 C 0.49493 0.0879 0.20847 0.0
C632 C 0.48841 0.07767 0.45175 0.0
C633 C 0.47706 0.05453 0.45629 0.0
C634 C 0.48319 0.09394 0.39608 0.0
C635 C 0.46645 0.08688 0.34223 0.0
C636 C 0.45527 0.06329 0.3454 0.0
C637 C 0.4609 0.04729 0.40201 0.0
C638 C 0.49528 0.11896 0.39572 0.0
C639 C 0.43735 0.05495 0.28914 0.0
H640 H 0.4209 0.15269 0.25095 0.0
H641 H 0.47964 0.12455 0.1217 0.0
H642 H 0.43262 0.11167 0.4054 0.0
H643 H 0.42288 0.14203 0.38002 0.0
H644 H 0.40642 0.11585 0.34793 0.0
H645 H 0.50361 0.09049 0.15569 0.0
H646 H 0.50922 0.09029 0.24998 0.0
H647 H 0.48812 0.0687 0.21213 0.0
H648 H 0.50187 0.08298 0.49117 0.0
H649 H 0.45239 0.02927 0.40429 0.0
H650 H 0.48097 0.1335 0.40003 0.0
H651 H 0.50516 0.12181 0.34493 0.0
H652 H 0.50852 0.12136 0.44012 0.0
H653 H 0.42349 0.06951 0.27861 0.0
H654 H 0.42763 0.03778 0.30436 0.0
H655 H 0.44742 0.05151 0.23888 0.0
C656 C 0.3654 0.49393 0.27863 0.0
C657 C 0.37032 0.47724 0.2234 0.0
C658 C 0.3837 0.50057 0.328 0.0
C659 C 0.40761 0.49019 0.32281 0.0
C660 C 0.41284 0.47381 0.26581 0.0
C661 C 0.3942 0.46756 0.21716 0.0
C662 C 0.37716 0.51832 0.38662 0.0
C663 C 0.43813 0.46305 0.25406 0.0
C664 C 0.4632 0.51987 0.41313 0.0
C665 C 0.46601 0.50537 0.47395 0.0
C666 C 0.4439 0.51562 0.36476 0.0
C667 C 0.42701 0.49624 0.37695 0.0
C668 C 0.42963 0.48171 0.43887 0.0
C669 C 0.44915 0.48634 0.48632 0.0
C670 C 0.44201 0.53144 0.29946 0.0
C671 C 0.41217 0.46084 0.45411 0.0
H672 H 0.34698 0.50135 0.28446 0.0
H673 H 0.39843 0.45504 0.17383 0.0
H674 H 0.37501 0.50788 0.43658 0.0
H675 H 0.39199 0.5321 0.39431 0.0
H676 H 0.35964 0.52819 0.37598 0.0
H677 H 0.43679 0.44362 0.23563 0.0
H678 H 0.44748 0.47359 0.21161 0.0
H679 H 0.44983 0.46378 0.30205 0.0
H680 H 0.47639 0.53438 0.40283 0.0
H681 H 0.45155 0.47469 0.53228 0.0
H682 H 0.42309 0.53895 0.29429 0.0
H683 H 0.44574 0.52002 0.25167 0.0
H684 H 0.45525 0.54701 0.30048 0.0
H685 H 0.41787 0.44995 0.50109 0.0
H686 H 0.41096 0.44839 0.40743 0.0
H687 H 0.39347 0.46832 0.46393 0.0
C688 C 0.01825 0.38629 0.24402 0.0
C689 C 0.02457 0.36219 0.26407 0.0
C690 C 0.01617 0.40544 0.29456 0.0
C691 C 0.02076 0.40064 0.36731 0.0
C692 C 0.0265 0.37621 0.38793 0.0
C693 C 0.02809 0.35735 0.33646 0.0
C694 C 0.00992 0.43108 0.26972 0.0
C695 C 0.03131 0.36989 0.46433 0.0
C696 C 0.0455 0.4554 0.47312 0.0
C697 C 0.0247 0.46372 0.51019 0.0
C698 C 0.04456 0.43455 0.4287 0.0
C699 C 0.0221 0.42163 0.41984 0.0
C700 C 1.00108 0.42961 0.45862 0.0
C701 C 1.00258 0.45064 0.50308 0.0
C702 C 0.06766 0.42651 0.39058 0.0
C703 C 0.97687 0.41631 0.45182 0.0
H704 H 0.01521 0.39026 0.18844 0.0
H705 H 0.03315 0.33891 0.35279 0.0
H706 H 0.99394 0.43836 0.29994 0.0
H707 H 0.02566 0.44356 0.28009 0.0
H708 H 0.00553 0.43162 0.2122 0.0
H709 H 0.0395 0.35126 0.47037 0.0
H710 H 0.04382 0.38355 0.48921 0.0
H711 H 0.01359 0.37029 0.49337 0.0
H712 H 0.06262 0.4655 0.47819 0.0
H713 H 0.98634 0.45722 0.53066 0.0
H714 H 0.06419 0.42514 0.3328 0.0
H715 H 0.07313 0.40792 0.40905 0.0
H716 H 0.08325 0.43937 0.39959 0.0
H717 H 0.97053 0.41678 0.39589 0.0
H718 H 0.96238 0.42452 0.48617 0.0
H719 H 0.97923 0.39669 0.46644 0.0
C720 C 0.87428 0.9621 0.04568 0.0
C721 C 0.86714 0.9859 0.06741 0.0
C722 C 0.89399 0.95839 0.99775 0.0
C723 C 0.90681 0.97898 0.96981 0.0
C724 C 0.90037 1.00288 0.99394 0.0
C725 C 0.88119 0.00594 0.04328 0.0
C726 C 0.90089 0.93235 0.97768 0.0
C727 C 0.91292 0.02553 0.96492 0.0
C728 C 0.96804 0.9811 0.87027 0.0
C729 C 0.96008 0.98293 0.79952 0.0
C730 C 0.95112 0.97737 0.92611 0.0
C731 C 0.92554 0.9763 0.91142 0.0
C732 C 0.91772 0.97595 0.83976 0.0
C733 C 0.93508 0.97863 0.78501 0.0
C734 C 0.96055 0.97558 1.00108 0.0
C735 C 0.89079 0.9741 0.82079 0.0
H736 H 0.86394 0.94632 0.06398 0.0
H737 H 0.87678 0.02438 0.06147 0.0
H738 H 0.88491 0.91971 0.9824 0.0
H739 H 0.9083 0.93096 0.92306 0.0
H740 H 0.91532 0.92585 0.01476 0.0
H741 H 0.90533 0.04287 0.98763 0.0
H742 H 0.93291 0.02486 0.97648 0.0
H743 H 0.91077 0.0261 0.90639 0.0
H744 H 0.98738 0.98332 0.88255 0.0
H745 H 0.92881 0.97821 0.73066 0.0
H746 H 0.95028 0.9613 0.03084 0.0
H747 H 0.95776 0.99343 0.02876 0.0
H748 H 0.98049 0.97105 1.00249 0.0
H749 H 0.88222 0.95826 0.84823 0.0
H750 H 0.88786 0.97184 0.76284 0.0
H751 H 0.88112 0.99104 0.83873 0.0
C752 C 0.52678 0.89367 0.07923 0.0
C753 C 0.54164 0.87279 0.06764 0.0
C754 C 0.52556 0.91288 0.02937 0.0
C755 C 0.53984 0.91153 0.96656 0.0
C756 C 0.55631 0.89154 0.95717 0.0
C757 C 0.55686 0.87239 0.00726 0.0
C758 C 0.50771 0.93378 0.04177 0.0
C759 C 0.57215 0.88948 0.89164 0.0
C760 C 0.51239 0.93856 0.79844 0.0
C761 C 0.52542 0.96064 0.7904 0.0
C762 C 0.51698 0.92261 0.85519 0.0
C763 C 0.53498 0.92887 0.90646 0.0
C764 C 0.54801 0.95138 0.89957 0.0
C765 C 0.543 0.96709 0.84173 0.0
C766 C 0.50227 0.89909 0.86057 0.0
C767 C 0.56723 0.9588 0.95318 0.0
H768 H 0.51536 0.89465 0.12625 0.0
H769 H 0.56828 0.85643 0.99663 0.0
H770 H 0.51654 0.95176 0.03072 0.0
H771 H 0.49191 0.93186 0.00486 0.0
H772 H 0.50052 0.93403 0.09693 0.0
H773 H 0.58635 0.87485 0.89667 0.0
H774 H 0.5604 0.88509 0.84514 0.0
H775 H 0.58145 0.90725 0.88076 0.0
H776 H 0.49788 0.93405 0.76144 0.0
H777 H 0.55292 0.98429 0.83642 0.0
H778 H 0.49199 0.89881 0.9114 0.0
H779 H 0.51482 0.88296 0.86027 0.0
H780 H 0.48893 0.89694 0.81632 0.0
H781 H 0.5591 0.95933 0.00711 0.0
H782 H 0.57526 0.97714 0.94149 0.0
H783 H 0.58218 0.94487 0.95396 0.0
C784 C 0.62921 0.53385 0.02916 0.0
C785 C 0.64474 0.51335 0.03555 0.0
C786 C 0.60868 0.5334 0.9832 0.0
C787 C 0.60411 0.51226 0.94011 0.0
C788 C 0.62025 0.49172 0.946 0.0
C789 C 0.64006 0.49252 0.99376 0.0
C790 C 0.59198 0.55561 0.98304 0.0
C791 C 0.61738 0.46849 0.9025 0.0
C792 C 0.5428 0.4917 0.86125 0.0
C793 C 0.54299 0.50262 0.79395 0.0
C794 C 0.56162 0.4962 0.91081 0.0
C795 C 0.58212 0.51084 0.89161 0.0
C796 C 0.58198 0.52268 0.82453 0.0
C797 C 0.56202 0.51906 0.77761 0.0
C798 C 0.55965 0.48491 0.98355 0.0
C799 C 0.60295 0.539 0.80187 0.0
H800 H 0.63277 0.55007 0.0613 0.0
H801 H 0.65227 0.47675 0.9975 0.0
H802 H 0.60158 0.57124 0.95736 0.0
H803 H 0.57443 0.55224 0.95506 0.0
H804 H 0.58781 0.56139 0.03834 0.0
H805 H 0.617 0.45228 0.93817 0.0
H806 H 0.60065 0.46813 0.86933 0.0
H807 H 0.6337 0.46626 0.86762 0.0
H808 H 0.52767 0.47975 0.87577 0.0
H809 H 0.5615 0.52884 0.7277 0.0
H810 H 0.5655 0.49827 0.02499 0.0
H811 H 0.57194 0.46862 0.98668 0.0
H812 H 0.54058 0.47882 0.99542 0.0
H813 H 0.60291 0.55608 0.83429 0.0
H814 H 0.60151 0.54435 0.74524 0.0
H815 H 0.62083 0.52954 0.81047 0.0
C816 C 0.99437 0.66423 0.94813 0.0
C817 C 0.9826 0.6627 0.01428 0.0
C818 C 0.99653 0.64365 0.90298 0.0
C819 C 0.98676 0.62062 0.9236 0.0
C820 C 0.97527 0.61878 0.99111 0.0
C821 C 0.97344 0.63975 0.03574 0.0
C822 C 0.00899 0.64671 0.83237 0.0
C823 C 0.96464 0.59475 0.01592 0.0
C824 C 0.97206 0.57443 0.77457 0.0
C825 C 0.99277 0.55903 0.77512 0.0
C826 C 0.96976 0.59431 0.82269 0.0
C827 C 0.98847 0.5988 0.87377 0.0
C828 C 0.00936 0.58306 0.8747 0.0
C829 C 0.01115 0.56337 0.82584 0.0
C830 C 0.94708 0.61031 0.81947 0.0
C831 C 0.02976 0.58684 0.9279 0.0
H832 H 1.00196 0.68171 0.93139 0.0
H833 H 0.96429 0.63834 0.08661 0.0
H834 H 0.02463 0.63365 0.82812 0.0
H835 H 0.99573 0.64225 0.78954 0.0
H836 H 0.01598 0.6657 0.82407 0.0
H837 H 0.95681 0.59605 0.07023 0.0
H838 H 0.94991 0.58876 0.97903 0.0
H839 H 0.97918 0.58044 0.01547 0.0
H840 H 0.95736 0.57058 0.73728 0.0
H841 H 0.02661 0.5508 0.82887 0.0
H842 H 0.9524 0.62986 0.81228 0.0
H843 H 0.93685 0.60905 0.87024 0.0
H844 H 0.93457 0.60487 0.77553 0.0
H845 H 0.03811 0.60528 0.9206 0.0
H846 H 0.04445 0.57269 0.92289 0.0
H847 H 0.02221 0.58623 0.98253 0.0
C848 C 0.07799 0.2136 0.34634 0.0
C849 C 0.09647 0.21218 0.29465 0.0
C850 C 0.07231 0.19335 0.38871 0.0
C851 C 0.08567 0.17111 0.37993 0.0
C852 C 0.10625 0.17046 0.33386 0.0
C853 C 0.11122 0.19097 0.2909 0.0
C854 C 0.05031 0.19513 0.43769 0.0
C855 C 0.12201 0.14777 0.32535 0.0
C856 C 0.05965 0.1289 0.51667 0.0
C857 C 0.03941 0.1197 0.47886 0.0
C858 C 0.07782 0.14273 0.48215 0.0
C859 C 0.0749 0.14819 0.40936 0.0
C860 C 0.05642 0.13596 0.36958 0.0
C861 C 0.03895 0.12161 0.40495 0.0
C862 C 0.09846 0.15379 0.52506 0.0
C863 C 0.05295 0.1407 0.2914 0.0
H864 H 0.06637 0.22982 0.34943 0.0
H865 H 0.12585 0.18989 0.25189 0.0
H866 H 0.03549 0.18273 0.41842 0.0
H867 H 0.05539 0.18917 0.49191 0.0
H868 H 0.04279 0.21413 0.44105 0.0
H869 H 0.1417 0.15303 0.32127 0.0
H870 H 0.11983 0.13469 0.36991 0.0
H871 H 0.11705 0.13832 0.27508 0.0
H872 H 0.06031 0.12679 0.57379 0.0
H873 H 0.02344 0.11418 0.37568 0.0
H874 H 0.09334 0.17274 0.54172 0.0
H875 H 0.11557 0.15494 0.49307 0.0
H876 H 0.10216 0.14284 0.57354 0.0
H877 H 0.0441 0.15896 0.28427 0.0
H878 H 0.0411 0.12651 0.26606 0.0
H879 H 0.07091 0.14105 0.26353 0.0
C880 C 0.31422 0.09509 0.36144 0.0
C881 C 0.31495 0.08548 0.29222 0.0
C882 C 0.32839 0.08451 0.41597 0.0
C883 C 0.34289 0.0634 0.40102 0.0
C884 C 0.34431 0.0543 0.33049 0.0
C885 C 0.33053 0.06557 0.27723 0.0
C886 C 0.32693 0.0956 0.48933 0.0
C887 C 0.35945 0.0318 0.31136 0.0
C888 C 0.39415 0.02929 0.48482 0.0
C889 C 0.38171 0.00742 0.5024 0.0
C890 C 0.38104 0.05035 0.46437 0.0
C891 C 0.35521 0.04903 0.45782 0.0
C892 C 0.34257 0.02893 0.48812 0.0
C893 C 0.35605 0.00848 0.5114 0.0
C894 C 0.39491 0.07279 0.44046 0.0
C895 C 0.31486 0.02759 0.48723 0.0
H896 H 0.30226 0.11057 0.37328 0.0
H897 H 0.33087 0.05775 0.22421 0.0
H898 H 0.30946 0.08984 0.51471 0.0
H899 H 0.3425 0.08994 0.52371 0.0
H900 H 0.32663 0.11602 0.48617 0.0
H901 H 0.35767 0.0266 0.25453 0.0
H902 H 0.37917 0.03531 0.32246 0.0
H903 H 0.35366 0.01585 0.3439 0.0
H904 H 0.41396 0.02959 0.48017 0.0
H905 H 0.34621 0.99257 0.53095 0.0
H906 H 0.38505 0.08981 0.45681 0.0
H907 H 0.39608 0.0727 0.38179 0.0
H908 H 0.41388 0.07318 0.4624 0.0
H909 H 0.30683 0.04518 0.5064 0.0
H910 H 0.30782 0.01236 0.52071 0.0
H911 H 0.30843 0.02457 0.43198 0.0
C912 C 0.41137 0.33611 0.18202 0.0
C913 C 0.41759 0.31337 0.2127 0.0
C914 C 0.41977 0.35834 0.21147 0.0
C915 C 0.43567 0.3577 0.27075 0.0
C916 C 0.43969 0.33524 0.30656 0.0
C917 C 0.43004 0.31341 0.27807 0.0
C918 C 0.41351 0.38229 0.17531 0.0
C919 C 0.45623 0.33387 0.37077 0.0
C920 C 0.48872 0.40249 0.25914 0.0
C921 C 0.48311 0.41925 0.31318 0.0
C922 C 0.47353 0.38221 0.24594 0.0
C923 C 0.45171 0.37916 0.28623 0.0
C924 C 0.44583 0.39626 0.34062 0.0
C925 C 0.46192 0.41593 0.35436 0.0
C926 C 0.48101 0.36392 0.18915 0.0
C927 C 0.42224 0.39453 0.38253 0.0
H928 H 0.40154 0.33669 0.13212 0.0
H929 H 0.43382 0.29615 0.30453 0.0
H930 H 0.40999 0.39703 0.2151 0.0
H931 H 0.42926 0.3882 0.14208 0.0
H932 H 0.39709 0.38041 0.1406 0.0
H933 H 0.45552 0.31554 0.3966 0.0
H934 H 0.47552 0.33751 0.35446 0.0
H935 H 0.45106 0.34815 0.41033 0.0
H936 H 0.50531 0.40503 0.22807 0.0
H937 H 0.45759 0.42914 0.39586 0.0
H938 H 0.46746 0.3642 0.14518 0.0
H939 H 0.48123 0.34499 0.21112 0.0
H940 H 0.49949 0.36796 0.16685 0.0
H941 H 0.40747 0.40419 0.35297 0.0
H942 H 0.42411 0.40351 0.43532 0.0
H943 H 0.41628 0.37521 0.39025 0.0
C944 C 0.18013 0.43981 0.25843 0.0
C945 C 0.18885 0.4449 0.19028 0.0
C946 C 0.15725 0.44905 0.28106 0.0
C947 C 0.14344 0.46435 0.2351 0.0
C948 C 0.1521 0.46906 0.16566 0.0
C949 C 0.17461 0.45902 0.14389 0.0
C950 C 0.14815 0.44304 0.35459 0.0
C951 C 0.13828 0.48574 0.11554 0.0
C952 C 0.07647 0.48135 0.265 0.0
C953 C 0.07875 0.50465 0.29665 0.0
C954 C 0.0974 0.46742 0.24739 0.0
C955 C 0.12105 0.47726 0.26101 0.0
C956 C 0.12339 0.50056 0.29442 0.0
C957 C 0.10217 0.51388 0.31234 0.0
C958 C 0.09423 0.44246 0.213 0.0
C959 C 0.14829 0.51194 0.30838 0.0
H960 H 0.19131 0.42886 0.29401 0.0
H961 H 0.18167 0.46312 0.09143 0.0
H962 H 0.14748 0.46004 0.38741 0.0
H963 H 0.12915 0.43564 0.35186 0.0
H964 H 0.16011 0.42938 0.38159 0.0
H965 H 0.14698 0.48652 0.06228 0.0
H966 H 0.11902 0.4794 0.10922 0.0
H967 H 0.13761 0.50468 0.13791 0.0
H968 H 0.05831 0.47412 0.25369 0.0
H969 H 0.10391 0.53199 0.33634 0.0
H970 H 0.1035 0.42821 0.24549 0.0
H971 H 0.10308 0.4422 0.16 0.0
H972 H 0.07456 0.43737 0.2066 0.0
H973 H 0.15983 0.49928 0.34025 0.0
H974 H 0.14689 0.52983 0.33692 0.0
H975 H 0.15796 0.51498 0.25733 0.0
C976 C 0.94413 0.86679 0.01069 0.0
C977 C 0.93721 0.84205 1.00327 0.0
C978 C 0.9487 0.88102 0.95046 0.0
C979 C 0.94487 0.87034 0.88265 0.0
C980 C 0.93106 0.8484 0.87698 0.0
C981 C 0.92783 0.83397 0.93782 0.0
C982 C 0.96234 0.90505 0.95949 0.0
C983 C 0.92404 0.83795 0.80565 0.0
C984 C 0.98104 0.90595 0.74645 0.0
C985 C 0.00401 0.89419 0.75211 0.0
C986 C 0.96038 0.89684 0.78244 0.0
C987 C 0.96311 0.87603 0.82653 0.0
C988 C 0.98569 0.8628 0.82654 0.0
C989 C 0.00574 0.87199 0.78887 0.0
C990 C 0.93632 0.91055 0.7768 0.0
C991 C 0.98971 0.84022 0.87188 0.0
H992 H 0.94996 0.87356 0.06223 0.0
H993 H 0.9213 0.81522 0.93182 0.0
H994 H 0.98209 0.90224 0.94659 0.0
H995 H 0.95502 0.91917 0.92298 0.0
H996 H 0.96106 0.91222 0.01465 0.0
H997 H 0.90725 0.8264 0.80991 0.0
H998 H 0.92078 0.85284 0.76661 0.0
H999 H 0.93917 0.8261 0.78544 0.0
H1000 H 0.97946 0.92289 0.71664 0.0
H1001 H 0.0234 0.86285 0.79355 0.0
H1002 H 0.92033 0.89857 0.78862 0.0
H1003 H 0.93404 0.91849 0.72304 0.0
H1004 H 0.93631 0.92609 0.81499 0.0
H1005 H 0.9877 0.84517 0.92869 0.0
H1006 H 0.00827 0.83201 0.86432 0.0
H1007 H 0.9759 0.82589 0.85906 0.0
C1008 C 0.70902 0.96312 0.90697 0.0
C1009 C 0.69956 0.9652 0.97597 0.0
C1010 C 0.69347 0.96617 0.84822 0.0
C1011 C 0.66854 0.97245 0.85992 0.0
C1012 C 0.6583 0.96971 0.92842 0.0
C1013 C 0.67401 0.96566 0.98583 0.0
C1014 C 0.70433 0.9663 0.77469 0.0
C1015 C 0.63157 0.97531 0.94315 0.0
C1016 C 0.64695 0.03186 0.77888 0.0
C1017 C 0.62652 0.02407 0.74012 0.0
C1018 C 0.66158 0.01493 0.81509 0.0
C1019 C 0.65606 0.9894 0.81016 0.0
C1020 C 0.63654 0.98127 0.76627 0.0
C1021 C 0.62162 0.99883 0.73273 0.0
C1022 C 0.68183 0.02469 0.86261 0.0
C1023 C 0.63128 0.95426 0.75471 0.0
H1024 H 0.72873 0.9619 0.89874 0.0
H1025 H 0.6666 0.96604 0.03924 0.0
H1026 H 0.69062 0.95999 0.73492 0.0
H1027 H 0.70993 0.98531 0.76074 0.0
H1028 H 0.7209 0.95433 0.77165 0.0
H1029 H 0.62572 0.96845 0.99594 0.0
H1030 H 0.62866 0.99556 0.94193 0.0
H1031 H 0.61963 0.96696 0.90201 0.0
H1032 H 0.65053 0.05141 0.78472 0.0
H1033 H 0.60598 0.99291 0.70131 0.0
H1034 H 0.69988 0.01732 0.84524 0.0
H1035 H 0.67875 0.01869 0.91809 0.0
H1036 H 0.6829 0.04512 0.86223 0.0
H1037 H 0.64423 0.94703 0.71411 0.0
H1038 H 0.61222 0.95118 0.73526 0.0
H1039 H 0.63412 0.94336 0.80361 0.0
C1040 C 0.59336 0.68616 0.97546 0.0
C1041 C 0.57431 0.7031 0.96313 0.0
C1042 C 0.59208 0.6622 0.94737 0.0
C1043 C 0.57111 0.65525 0.90776 0.0
C1044 C 0.55455 0.67359 0.88406 0.0
C1045 C 0.55637 0.69744 0.91212 0.0
C1046 C 0.61118 0.6435 0.96869 0.0
C1047 C 0.53247 0.6672 0.83897 0.0
C1048 C 0.55147 0.59051 0.85576 0.0
C1049 C 0.53676 0.58439 0.91419 0.0
C1050 C 0.56438 0.61292 0.85419 0.0
C1051 C 0.56206 0.62952 0.91197 0.0
C1052 C 0.54821 0.62265 0.97259 0.0
C1053 C 0.53594 0.60008 0.97303 0.0
C1054 C 0.58024 0.61875 0.79078 0.0
C1055 C 0.545 0.63974 0.03558 0.0
H1056 H 0.60783 0.69076 0.01282 0.0
H1057 H 0.5418 0.71052 0.90107 0.0
H1058 H 0.60473 0.63346 0.01632 0.0
H1059 H 0.61417 0.62979 0.92568 0.0
H1060 H 0.62897 0.65248 0.98189 0.0
H1061 H 0.52409 0.68385 0.81486 0.0
H1062 H 0.53757 0.65416 0.79597 0.0
H1063 H 0.51838 0.65815 0.87253 0.0
H1064 H 0.5525 0.57796 0.81094 0.0
H1065 H 0.52452 0.59528 0.01803 0.0
H1066 H 0.59982 0.61587 0.80526 0.0
H1067 H 0.57818 0.63824 0.77443 0.0
H1068 H 0.57592 0.60665 0.74473 0.0
H1069 H 0.56317 0.64446 0.05861 0.0
H1070 H 0.53353 0.63149 0.07806 0.0
H1071 H 0.53612 0.65715 0.01854 0.0
C1072 C 0.84363 0.55478 0.01476 0.0
C1073 C 0.83379 0.53083 0.01428 0.0
C1074 C 0.86905 0.55868 0.00706 0.0
C1075 C 0.88482 0.53819 0.99765 0.0
C1076 C 0.87489 0.51417 0.99327 0.0
C1077 C 0.84963 0.51078 1.00243 0.0
C1078 C 0.87911 0.58454 0.01193 0.0
C1079 C 0.89109 0.49182 0.98156 0.0
C1080 C 0.94863 0.53831 0.92198 0.0
C1081 C 0.96262 0.53226 0.98196 0.0
C1082 C 0.92339 0.5428 0.92708 0.0
C1083 C 0.91187 0.5412 0.99402 0.0
C1084 C 0.92627 0.5376 0.0558 0.0
C1085 C 0.95159 0.53303 0.04901 0.0
C1086 C 0.90881 0.5468 0.85992 0.0
C1087 C 0.91463 0.53633 0.12835 0.0
H1088 H 0.83158 0.57045 0.02288 0.0
H1089 H 0.84255 0.49215 0.0036 0.0
H1090 H 0.88927 0.58677 0.06259 0.0
H1091 H 0.89236 0.58808 0.9684 0.0
H1092 H 0.86429 0.59863 0.00996 0.0
H1093 H 0.88027 0.47459 0.97569 0.0
H1094 H 0.90245 0.49422 0.93318 0.0
H1095 H 0.90385 0.48965 0.02703 0.0
H1096 H 0.95718 0.53824 0.87025 0.0
H1097 H 0.96235 0.52856 0.09562 0.0
H1098 H 0.89465 0.56128 0.86763 0.0
H1099 H 0.89916 0.52949 0.84547 0.0
H1100 H 0.92081 0.5521 0.81482 0.0
H1101 H 0.90085 0.55123 0.1353 0.0
H1102 H 0.92855 0.53779 0.17135 0.0
H1103 H 0.90489 0.51849 0.13398 0.0
C1104 C 0.03178 0.16691 0.94792 0.0
C1105 C 0.02367 0.18871 0.91566 0.0
C1106 C 0.02885 0.14379 0.91464 0.0
C1107 C 0.01735 0.1421 0.84725 0.0
C1108 C 0.00905 0.1641 0.8146 0.0
C1109 C 0.01247 0.18705 0.84871 0.0
C1110 C 0.03859 0.12122 0.95119 0.0
C1111 C 0.99625 0.1634 0.7438 0.0
C1112 C 0.0242 0.08446 0.72893 0.0
C1113 C 1.0026 0.07145 0.7446 0.0
C1114 C 0.02967 0.10704 0.76322 0.0
C1115 C 0.01278 0.11735 0.8128 0.0
C1116 C 0.99095 0.10417 0.82845 0.0
C1117 C 0.98621 0.08151 0.79444 0.0
C1118 C 0.05336 0.12004 0.74536 0.0
C1119 C 0.97225 0.11425 0.88024 0.0
H1120 H 0.04096 0.16797 0.99888 0.0
H1121 H 0.00606 0.20373 0.82331 0.0
H1122 H 0.02419 0.1068 0.95368 0.0
H1123 H 0.05423 0.11381 0.91997 0.0
H1124 H 0.04511 0.1252 0.00589 0.0
H1125 H 0.99063 0.18198 0.72549 0.0
H1126 H 0.00868 0.15513 0.70364 0.0
H1127 H 0.97965 0.15159 0.74725 0.0
H1128 H 0.03663 0.07722 0.68902 0.0
H1129 H 0.9693 0.07174 0.80611 0.0
H1130 H 0.06326 0.1253 0.79461 0.0
H1131 H 0.04922 0.13722 0.71607 0.0
H1132 H 0.06571 0.10842 0.71219 0.0
H1133 H 0.98094 0.11719 0.93285 0.0
H1134 H 0.95624 0.10178 0.88685 0.0
H1135 H 0.96548 0.13241 0.86173 0.0
C1136 C 0.32305 0.03106 0.80093 0.0
C1137 C 0.3229 0.0367 0.87378 0.0
C1138 C 0.34518 0.02516 0.76511 0.0
C1139 C 0.3679 0.02553 0.80235 0.0
C1140 C 0.3677 0.03136 0.87577 0.0
C1141 C 0.34537 0.03674 0.91036 0.0
C1142 C 0.34418 0.01816 0.68765 0.0
C1143 C 0.39121 0.03272 0.9177 0.0
C1144 C 0.42343 0.98784 0.74026 0.0
C1145 C 0.43767 0.0052 0.70362 0.0
C1146 C 0.40053 0.99405 0.77029 0.0
C1147 C 0.39167 0.01856 0.766 0.0
C1148 C 0.40591 0.03623 0.72867 0.0
C1149 C 0.42834 0.02915 0.69621 0.0
C1150 C 0.38577 0.97426 0.80675 0.0
C1151 C 0.39771 0.06271 0.7242 0.0
H1152 H 0.30579 0.03091 0.77213 0.0
H1153 H 0.34558 0.04162 0.96619 0.0
H1154 H 0.35456 0.03178 0.65589 0.0
H1155 H 0.35308 0.99997 0.67923 0.0
H1156 H 0.32503 0.01731 0.66718 0.0
H1157 H 0.38795 0.03572 0.97526 0.0
H1158 H 0.40224 0.0157 0.91064 0.0
H1159 H 0.40214 0.04829 0.89727 0.0
H1160 H 0.43018 0.96913 0.74513 0.0
H1161 H 0.43868 0.04241 0.66559 0.0
H1162 H 0.36681 0.97371 0.78491 0.0
H1163 H 0.38426 0.97848 0.8642 0.0
H1164 H 0.39421 0.95572 0.80053 0.0
H1165 H 0.37932 0.06389 0.69904 0.0
H1166 H 0.41078 0.07419 0.69339 0.0
H1167 H 0.39601 0.07055 0.77845 0.0
C1168 C 0.47217 0.33099 0.87045 0.0
C1169 C 0.46976 0.3094 0.82969 0.0
C1170 C 0.47743 0.35379 0.83873 0.0
C1171 C 0.48069 0.35517 0.76427 0.0
C1172 C 0.47886 0.33335 0.72294 0.0
C1173 C 0.47323 0.31081 0.756 0.0
C1174 C 0.47884 0.37657 0.88485 0.0
C1175 C 0.48253 0.33388 0.64361 0.0
C1176 C 0.4698 0.41792 0.67935 0.0
C1177 C 0.49367 0.42776 0.6767 0.0
C1178 C 0.46535 0.39425 0.70654 0.0
C1179 C 0.48533 0.37958 0.72989 0.0
C1180 C 0.50961 0.38879 0.72332 0.0
C1181 C 0.51348 0.41272 0.69702 0.0
C1182 C 0.43913 0.38535 0.71267 0.0
C1183 C 0.53151 0.37364 0.74616 0.0
H1184 H 0.4691 0.33021 0.92719 0.0
H1185 H 0.47151 0.29424 0.72412 0.0
H1186 H 0.49696 0.38564 0.87813 0.0
H1187 H 0.46453 0.38997 0.8683 0.0
H1188 H 0.47619 0.37239 0.94196 0.0
H1189 H 0.48173 0.3152 0.61945 0.0
H1190 H 0.46813 0.3455 0.61876 0.0
H1191 H 0.50058 0.34228 0.63078 0.0
H1192 H 0.45441 0.42891 0.66121 0.0
H1193 H 0.53204 0.4198 0.69415 0.0
H1194 H 0.43436 0.38293 0.76943 0.0
H1195 H 0.43706 0.36717 0.68635 0.0
H1196 H 0.42577 0.39842 0.68881 0.0
H1197 H 0.53089 0.37082 0.80437 0.0
H1198 H 0.54925 0.38259 0.73254 0.0
H1199 H 0.53092 0.35518 0.72076 0.0
C1200 C 0.20622 0.4794 0.77036 0.0
C1201 C 0.20802 0.4833 0.84405 0.0
C1202 C 0.18387 0.4829 0.73382 0.0
C1203 C 0.16277 0.49116 0.77114 0.0
C1204 C 0.16468 0.49623 0.84474 0.0
C1205 C 0.18705 0.49194 0.88029 0.0
C1206 C 0.18261 0.47687 0.65565 0.0
C1207 C 0.14282 0.50545 0.8867 0.0
C1208 C 0.10743 0.51756 0.67166 0.0
C1209 C 0.09023 0.49834 0.67703 0.0
C1210 C 0.13121 0.51541 0.70093 0.0
C1211 C 0.13836 0.49322 0.73447 0.0
C1212 C 0.1216 0.47327 0.7363 0.0
C1213 C 0.09774 0.47618 0.70865 0.0
C1214 C 0.14818 0.53738 0.69931 0.0
C1215 C 0.12857 0.44903 0.76977 0.0
H1216 H 0.22223 0.47321 0.74103 0.0
H1217 H 0.18774 0.49459 0.93722 0.0
H1218 H 0.16949 0.46151 0.64681 0.0
H1219 H 0.17562 0.49293 0.62561 0.0
H1220 H 0.2008 0.47144 0.63364 0.0
H1221 H 0.14808 0.51162 0.94088 0.0
H1222 H 0.13381 0.52101 0.85894 0.0
H1223 H 0.12903 0.49051 0.89161 0.0
H1224 H 0.10194 0.53484 0.64784 0.0
H1225 H 0.08478 0.46118 0.71363 0.0
H1226 H 0.16631 0.53211 0.67686 0.0
H1227 H 0.15144 0.54403 0.75426 0.0
H1228 H 0.1405 0.55279 0.6677 0.0
H1229 H 0.14645 0.44244 0.74844 0.0
H1230 H 0.11447 0.43457 0.76043 0.0
H1231 H 0.13081 0.45155 0.82782 0.0
C1232 C 0.99811 0.83714 0.46611 0.0
C1233 C 0.9851 0.8343 0.40231 0.0
C1234 C 1.00108 0.86054 0.49804 0.0
C1235 C 0.99152 0.88188 0.46459 0.0
C1236 C 0.97802 0.87895 0.40073 0.0
C1237 C 0.97471 0.8553 0.37107 0.0
C1238 C 0.01505 0.86251 0.56678 0.0
C1239 C 0.96736 0.90082 0.36275 0.0
C1240 C 0.98801 0.94267 0.57017 0.0
C1241 C 0.01019 0.95414 0.55128 0.0
C1242 C 0.98137 0.91947 0.54161 0.0
C1243 C 0.99737 0.90723 0.49329 0.0
C1244 C 0.01952 0.9191 0.4731 0.0
C1245 C 0.0257 0.94216 0.50268 0.0
C1246 C 0.95759 0.90777 0.56494 0.0
C1247 C 0.03687 0.90731 0.42041 0.0
H1248 H 0.00615 0.82104 0.49081 0.0
H1249 H 0.96484 0.85337 0.32137 0.0
H1250 H 0.03241 0.87276 0.55791 0.0
H1251 H 0.00404 0.87302 0.60618 0.0
H1252 H 0.0196 0.84419 0.5893 0.0
H1253 H 0.96014 0.89593 0.30938 0.0
H1254 H 0.952 0.90842 0.39475 0.0
H1255 H 0.98145 0.91543 0.35675 0.0
H1256 H 0.97606 0.95158 0.60849 0.0
H1257 H 0.0429 0.95084 0.48795 0.0
H1258 H 0.96171 0.89184 0.59963 0.0
H1259 H 0.94716 0.90069 0.51861 0.0
H1260 H 0.94571 0.92092 0.59457 0.0
H1261 H 0.04401 0.88972 0.44198 0.0
H1262 H 0.05275 0.91937 0.40763 0.0
H1263 H 0.02691 0.90293 0.37055 0.0
C1264 C 0.68145 0.99924 0.48237 0.0
C1265 C 0.68492 0.98957 0.41387 0.0
C1266 C 0.65768 1.00245 0.51138 0.0
C1267 C 0.63651 0.99559 0.47167 0.0
C1268 C 0.64005 0.98521 0.40322 0.0
C1269 C 0.66398 0.98232 0.37538 0.0
C1270 C 0.65569 0.01322 0.58478 0.0
C1271 C 0.61846 0.9776 0.35841 0.0
C1272 C 0.57359 0.98938 0.56532 0.0
C1273 C 0.56201 0.01168 0.54765 0.0
C1274 C 0.5976 0.98371 0.54062 0.0
C1275 C 0.61075 1.00095 0.49866 0.0
C1276 C 0.59926 0.0237 0.48242 0.0
C1277 C 0.5752 0.02867 0.50661 0.0
C1278 C 0.60904 0.95938 0.56012 0.0
C1279 C 0.61267 0.04316 0.44068 0.0
H1280 H 0.69737 0.0046 0.5134 0.0
H1281 H 0.66619 0.9752 0.32197 0.0
H1282 H 0.63796 0.02282 0.59311 0.0
H1283 H 0.65728 0.99805 0.62366 0.0
H1284 H 0.67088 0.02639 0.59558 0.0
H1285 H 0.62408 0.96929 0.30695 0.0
H1286 H 0.60743 0.96401 0.38806 0.0
H1287 H 0.60657 0.9938 0.34784 0.0
H1288 H 0.56396 0.97646 0.59897 0.0
H1289 H 0.56671 0.04618 0.49389 0.0
H1290 H 0.62649 0.9626 0.58928 0.0
H1291 H 0.61363 0.94887 0.51126 0.0
H1292 H 0.59666 0.94802 0.59349 0.0
H1293 H 0.62969 0.04859 0.46928 0.0
H1294 H 0.60126 0.05989 0.43219 0.0
H1295 H 0.61826 0.03568 0.38824 0.0
C1296 C 0.52894 0.69444 0.47732 0.0
C1297 C 0.52299 0.69344 0.40489 0.0
C1298 C 0.52873 0.67293 0.51937 0.0
C1299 C 0.52284 0.64984 0.48798 0.0
C1300 C 0.51761 0.64875 0.41442 0.0
C1301 C 0.51764 0.67045 0.37415 0.0
C1302 C 0.53424 0.67497 0.59762 0.0
C1303 C 0.51167 0.62461 0.37814 0.0
C1304 C 0.53963 0.58773 0.5688 0.0
C1305 C 0.51652 0.57879 0.58985 0.0
C1306 C 0.54228 0.61127 0.53865 0.0
C1307 C 0.52142 0.62674 0.53127 0.0
C1308 C 0.49849 0.61873 0.55857 0.0
C1309 C 0.49631 0.59493 0.58736 0.0
C1310 C 0.56713 0.61884 0.51058 0.0
C1311 C 0.47586 0.63479 0.55383 0.0
H1312 H 0.53306 0.71211 0.50147 0.0
H1313 H 0.51346 0.66943 0.31799 0.0
H1314 H 0.51778 0.66954 0.62861 0.0
H1315 H 0.5493 0.66215 0.61226 0.0
H1316 H 0.5396 0.69396 0.61344 0.0
H1317 H 0.50899 0.62671 0.32008 0.0
H1318 H 0.52672 0.61115 0.3872 0.0
H1319 H 0.49463 0.61671 0.40108 0.0
H1320 H 0.55567 0.57607 0.57395 0.0
H1321 H 0.4785 0.58878 0.60572 0.0
H1322 H 0.57145 0.63808 0.52607 0.0
H1323 H 0.56687 0.61799 0.45177 0.0
H1324 H 0.5821 0.60661 0.52984 0.0
H1325 H 0.47998 0.6537 0.57292 0.0
H1326 H 0.46027 0.62732 0.58517 0.0
H1327 H 0.46999 0.63621 0.49763 0.0
C1328 C 0.82537 0.51154 0.44369 0.0
C1329 C 0.82258 0.49557 0.38526 0.0
C1330 C 0.84805 0.51363 0.47988 0.0
C1331 C 0.86852 0.49923 0.458 0.0
C1332 C 0.86577 0.48288 0.39983 0.0
C1333 C 0.8431 0.48148 0.36395 0.0
C1334 C 0.85022 0.53153 0.54103 0.0
C1335 C 0.88695 0.46705 0.37463 0.0
C1336 C 0.93429 0.51968 0.49924 0.0
C1337 C 0.94045 0.50517 0.55825 0.0
C1338 C 0.91084 0.51839 0.46757 0.0
C1339 C 0.89306 0.50174 0.49407 0.0
C1340 C 0.89922 0.48677 0.55292 0.0
C1341 C 0.9227 0.48873 0.58433 0.0
C1342 C 0.9052 0.5348 0.40518 0.0
C1343 C 0.88112 0.46836 0.58212 0.0
H1344 H 0.80981 0.52242 0.46144 0.0
H1345 H 0.84172 0.46958 0.31786 0.0
H1346 H 0.85601 0.52167 0.58965 0.0
H1347 H 0.86461 0.5454 0.52925 0.0
H1348 H 0.83264 0.5413 0.55203 0.0
H1349 H 0.88144 0.45414 0.33158 0.0
H1350 H 0.90202 0.47889 0.3547 0.0
H1351 H 0.89447 0.45618 0.41938 0.0
H1352 H 0.94783 0.53209 0.47718 0.0
H1353 H 0.92717 0.47714 0.62901 0.0
H1354 H 0.88817 0.54554 0.41551 0.0
H1355 H 0.90186 0.52339 0.35719 0.0
H1356 H 0.92041 0.54784 0.39368 0.0
H1357 H 0.86383 0.47781 0.59774 0.0
H1358 H 0.88851 0.45841 0.62889 0.0
H1359 H 0.87635 0.45467 0.54047 0.0
loop_
_geom_bond_atom_site_label_1
_geom_bond_atom_site_label_2
_geom_bond_distance
_geom_bond_site_symmetry_2
_ccdc_geom_bond_type
P0 O11 1.490 . S
P0 C14 1.812 . S
P0 C20 1.803 . S
P0 C26 1.819 . S
H1 C15 0.941 . S
H2 C16 0.939 . S
H3 C18 0.940 . S
H4 C19 0.940 . S
H5 C21 0.939 . S
H6 C22 0.942 . S
H7 C24 0.940 . S
H8 C25 0.939 . S
H9 C27 0.941 . S
H10 C31 0.939 . S
O11 P0 1.490 . S
H12 C28 0.939 . S
H13 C30 0.940 . S
C14 P0 1.812 . S
C14 C15 1.389 . S
C14 C19 1.391 . S
C15 H1 0.941 . S
C15 C14 1.389 . S
C15 C16 1.397 . S
C16 H2 0.939 . S
C16 C15 1.397 . S
C16 C17 1.378 . S
C17 C16 1.378 . S
C17 C18 1.378 . S
C18 H3 0.940 . S
C18 C17 1.378 . S
C18 C19 1.396 . S
C19 H4 0.940 . S
C19 C14 1.391 . S
C19 C18 1.396 . S
C20 P0 1.803 . S
C20 C21 1.378 . S
C20 C25 1.400 . S
C21 H5 0.939 . S
C21 C20 1.378 . S
C21 C22 1.361 . S
C22 H6 0.942 . S
C22 C21 1.361 . S
C22 C23 1.369 . S
C23 C22 1.369 . S
C23 C24 1.404 . S
C24 H7 0.940 . S
C24 C23 1.404 . S
C24 C25 1.389 . S
C25 H8 0.939 . S
C25 C20 1.400 . S
C25 C24 1.389 . S
C26 P0 1.819 . S
C26 C27 1.391 . S
C26 C31 1.391 . S
C27 H9 0.941 . S
C27 C26 1.391 . S
C27 C28 1.396 . S
C28 H12 0.939 . S
C28 C27 1.396 . S
C28 C29 1.397 . S
C29 C28 1.397 . S
C29 C30 1.385 . S
C30 H13 0.940 . S
C30 C29 1.385 . S
C30 C31 1.388 . S
C31 H10 0.939 . S
C31 C26 1.391 . S
C31 C30 1.388 . S
P32 O43 1.489 1_655 S
P32 C46 1.812 . S
P32 C52 1.803 . S
P32 C58 1.819 . S
H33 C47 0.941 . S
H34 C48 0.939 . S
H35 C50 0.940 . S
H36 C51 0.940 . S
H37 C53 0.939 . S
H38 C54 0.942 . S
H39 C56 0.940 . S
H40 C57 0.939 . S
H41 C59 0.941 . S
H42 C63 0.939 . S
O43 P32 1.489 1_455 S
H44 C60 0.939 . S
H45 C62 0.940 . S
C46 P32 1.812 . S
C46 C47 1.389 . S
C46 C51 1.391 . S
C47 H33 0.941 . S
C47 C46 1.389 . S
C47 C48 1.397 . S
C48 H34 0.939 . S
C48 C47 1.397 . S
C48 C49 1.378 . S
C49 C48 1.378 . S
C49 C50 1.378 . S
C50 H35 0.940 . S
C50 C49 1.378 . S
C50 C51 1.396 . S
C51 H36 0.940 . S
C51 C46 1.391 . S
C51 C50 1.396 . S
C52 P32 1.803 . S
C52 C53 1.378 . S
C52 C57 1.400 . S
C53 H37 0.939 . S
C53 C52 1.378 . S
C53 C54 1.361 . S
C54 H38 0.942 . S
C54 C53 1.361 . S
C54 C55 1.369 . S
C55 C54 1.369 . S
C55 C56 1.404 . S
C56 H39 0.940 . S
C56 C55 1.404 . S
C56 C57 1.389 . S
C57 H40 0.939 . S
C57 C52 1.400 . S
C57 C56 1.389 . S
C58 P32 1.819 . S
C58 C59 1.391 . S
C58 C63 1.391 . S
C59 H41 0.941 . S
C59 C58 1.391 . S
C59 C60 1.396 . S
C60 H44 0.939 . S
C60 C59 1.396 . S
C60 C61 1.397 . S
C61 C60 1.397 . S
C61 C62 1.385 . S
C62 H45 0.940 . S
C62 C61 1.385 . S
C62 C63 1.388 . S
C63 H42 0.939 . S
C63 C58 1.391 . S
C63 C62 1.388 . S
P64 O75 1.490 1_565 S
P64 C78 1.812 . S
P64 C84 1.803 . S
P64 C90 1.819 . S
H65 C79 0.941 . S
H66 C80 0.939 . S
H67 C82 0.940 . S
H68 C83 0.940 . S
H69 C85 0.939 . S
H70 C86 0.942 . S
H71 C88 0.940 . S
H72 C89 0.939 . S
H73 C91 0.941 . S
H74 C95 0.939 . S
O75 P64 1.490 1_545 S
H76 C92 0.939 . S
H77 C94 0.940 . S
C78 P64 1.812 . S
C78 C79 1.389 . S
C78 C83 1.391 . S
C79 H65 0.941 . S
C79 C78 1.389 . S
C79 C80 1.397 . S
C80 H66 0.939 . S
C80 C79 1.397 . S
C80 C81 1.378 . S
C81 C80 1.378 . S
C81 C82 1.378 . S
C82 H67 0.940 . S
C82 C81 1.378 . S
C82 C83 1.396 . S
C83 H68 0.940 . S
C83 C78 1.391 . S
C83 C82 1.396 . S
C84 P64 1.803 . S
C84 C85 1.378 . S
C84 C89 1.400 . S
C85 H69 0.939 . S
C85 C84 1.378 . S
C85 C86 1.361 . S
C86 H70 0.942 . S
C86 C85 1.361 . S
C86 C87 1.369 . S
C87 C86 1.369 . S
C87 C88 1.404 . S
C88 H71 0.940 . S
C88 C87 1.404 . S
C88 C89 1.389 . S
C89 H72 0.939 . S
C89 C84 1.400 . S
C89 C88 1.389 . S
C90 P64 1.819 . S
C90 C91 1.391 . S
C90 C95 1.391 . S
C91 H73 0.941 . S
C91 C90 1.391 . S
C91 C92 1.396 . S
C92 H76 0.939 . S
C92 C91 1.396 . S
C92 C93 1.397 . S
C93 C92 1.397 . S
C93 C94 1.385 . S
C94 H77 0.940 . S
C94 C93 1.385 . S
C94 C95 1.388 . S
C95 H74 0.939 . S
C95 C90 1.391 . S
C95 C94 1.388 . S
P96 O107 1.490 . S
P96 C110 1.812 . S
P96 C116 1.803 . S
P96 C122 1.819 . S
H97 C111 0.941 . S
H98 C112 0.939 . S
H99 C114 0.940 . S
H100 C115 0.940 . S
H101 C117 0.939 . S
H102 C118 0.942 . S
H103 C120 0.940 . S
H104 C121 0.939 . S
H105 C123 0.941 . S
H106 C127 0.939 . S
O107 P96 1.490 . S
H108 C124 0.939 . S
H109 C126 0.940 . S
C110 P96 1.812 . S
C110 C111 1.389 . S
C110 C115 1.391 . S
C111 H97 0.941 . S
C111 C110 1.389 . S
C111 C112 1.397 . S
C112 H98 0.939 . S
C112 C111 1.397 . S
C112 C113 1.378 . S
C113 C112 1.378 . S
C113 C114 1.378 . S
C114 H99 0.940 . S
C114 C113 1.378 . S
C114 C115 1.396 . S
C115 H100 0.940 . S
C115 C110 1.391 . S
C115 C114 1.396 . S
C116 P96 1.803 . S
C116 C117 1.378 . S
C116 C121 1.400 . S
C117 H101 0.939 . S
C117 C116 1.378 . S
C117 C118 1.361 . S
C118 H102 0.942 . S
C118 C117 1.361 . S
C118 C119 1.369 . S
C119 C118 1.369 . S
C119 C120 1.404 . S
C120 H103 0.940 . S
C120 C119 1.404 . S
C120 C121 1.389 . S
C121 H104 0.939 . S
C121 C116 1.400 . S
C121 C120 1.389 . S
C122 P96 1.819 . S
C122 C123 1.391 . S
C122 C127 1.391 . S
C123 H105 0.941 . S
C123 C122 1.391 . S
C123 C124 1.396 . S
C124 H108 0.939 . S
C124 C123 1.396 . S
C124 C125 1.397 . S
C125 C124 1.397 . S
C125 C126 1.385 . S
C126 H109 0.940 . S
C126 C125 1.385 . S
C126 C127 1.388 . S
C127 H106 0.939 . S
C127 C122 1.391 . S
C127 C126 1.388 . S
P128 O139 1.490 . S
P128 C142 1.812 1_554 S
P128 C148 1.803 . S
P128 C154 1.819 . S
H129 C143 0.941 . S
H130 C144 0.939 . S
H131 C146 0.940 . S
H132 C147 0.940 . S
H133 C149 0.939 . S
H134 C150 0.942 . S
H135 C152 0.940 . S
H136 C153 0.939 1_556 S
H137 C155 0.941 . S
H138 C159 0.939 . S
O139 P128 1.490 . S
H140 C156 0.939 . S
H141 C158 0.940 . S
C142 P128 1.812 1_556 S
C142 C143 1.389 . S
C142 C147 1.391 . S
C143 H129 0.941 . S
C143 C142 1.389 . S
C143 C144 1.397 . S
C144 H130 0.939 . S
C144 C143 1.397 . S
C144 C145 1.378 . S
C145 C144 1.378 . S
C145 C146 1.378 . S
C146 H131 0.940 . S
C146 C145 1.378 . S
C146 C147 1.396 . S
C147 H132 0.940 . S
C147 C142 1.391 . S
C147 C146 1.396 . S
C148 P128 1.803 . S
C148 C149 1.378 . S
C148 C153 1.400 . S
C149 H133 0.939 . S
C149 C148 1.378 . S
C149 C150 1.361 . S
C150 H134 0.942 . S
C150 C149 1.361 . S
C150 C151 1.369 . S
C151 C150 1.369 . S
C151 C152 1.404 . S
C152 H135 0.940 . S
C152 C151 1.404 . S
C152 C153 1.389 . S
C153 H136 0.939 1_554 S
C153 C148 1.400 . S
C153 C152 1.389 . S
C154 P128 1.819 . S
C154 C155 1.391 . S
C154 C159 1.391 . S
C155 H137 0.941 . S
C155 C154 1.391 . S
C155 C156 1.396 . S
C156 H140 0.939 . S
C156 C155 1.396 . S
C156 C157 1.397 . S
C157 C156 1.397 . S
C157 C158 1.385 . S
C158 H141 0.940 . S
C158 C157 1.385 . S
C158 C159 1.388 . S
C159 H138 0.939 . S
C159 C154 1.391 . S
C159 C158 1.388 . S
P160 O171 1.490 . S
P160 C174 1.812 1_554 S
P160 C180 1.803 . S
P160 C186 1.819 . S
H161 C175 0.941 . S
H162 C176 0.939 . S
H163 C178 0.940 . S
H164 C179 0.940 . S
H165 C181 0.939 . S
H166 C182 0.942 . S
H167 C184 0.940 . S
H168 C185 0.939 1_556 S
H169 C187 0.941 . S
H170 C191 0.939 . S
O171 P160 1.490 . S
H172 C188 0.939 . S
H173 C190 0.940 . S
C174 P160 1.812 1_556 S
C174 C175 1.389 . S
C174 C179 1.391 . S
C175 H161 0.941 . S
C175 C174 1.389 . S
C175 C176 1.397 . S
C176 H162 0.939 . S
C176 C175 1.397 . S
C176 C177 1.378 . S
C177 C176 1.378 . S
C177 C178 1.378 . S
C178 H163 0.940 . S
C178 C177 1.378 . S
C178 C179 1.396 . S
C179 H164 0.940 . S
C179 C174 1.391 . S
C179 C178 1.396 . S
C180 P160 1.803 . S
C180 C181 1.378 . S
C180 C185 1.400 . S
C181 H165 0.939 . S
C181 C180 1.378 . S
C181 C182 1.361 . S
C182 H166 0.942 . S
C182 C181 1.361 . S
C182 C183 1.369 . S
C183 C182 1.369 . S
C183 C184 1.404 . S
C184 H167 0.940 . S
C184 C183 1.404 . S
C184 C185 1.389 . S
C185 H168 0.939 1_554 S
C185 C180 1.400 . S
C185 C184 1.389 . S
C186 P160 1.819 . S
C186 C187 1.391 . S
C186 C191 1.391 . S
C187 H169 0.941 . S
C187 C186 1.391 . S
C187 C188 1.396 . S
C188 H172 0.939 . S
C188 C187 1.396 . S
C188 C189 1.397 . S
C189 C188 1.397 . S
C189 C190 1.385 . S
C190 H173 0.940 . S
C190 C189 1.385 . S
C190 C191 1.388 . S
C191 H170 0.939 . S
C191 C186 1.391 . S
C191 C190 1.388 . S
P192 O203 1.490 . S
P192 C206 1.812 1_554 S
P192 C212 1.803 . S
P192 C218 1.819 . S
H193 C207 0.941 . S
H194 C208 0.939 . S
H195 C210 0.940 . S
H196 C211 0.940 . S
H197 C213 0.939 . S
H198 C214 0.942 . S
H199 C216 0.940 . S
H200 C217 0.939 1_556 S
H201 C219 0.941 . S
H202 C223 0.939 . S
O203 P192 1.490 . S
H204 C220 0.939 . S
H205 C222 0.940 . S
C206 P192 1.812 1_556 S
C206 C207 1.389 . S
C206 C211 1.391 . S
C207 H193 0.941 . S
C207 C206 1.389 . S
C207 C208 1.397 . S
C208 H194 0.939 . S
C208 C207 1.397 . S
C208 C209 1.378 . S
C209 C208 1.378 . S
C209 C210 1.378 . S
C210 H195 0.940 . S
C210 C209 1.378 . S
C210 C211 1.396 . S
C211 H196 0.940 . S
C211 C206 1.391 . S
C211 C210 1.396 . S
C212 P192 1.803 . S
C212 C213 1.378 . S
C212 C217 1.400 . S
C213 H197 0.939 . S
C213 C212 1.378 . S
C213 C214 1.361 . S
C214 H198 0.942 . S
C214 C213 1.361 . S
C214 C215 1.369 . S
C215 C214 1.369 . S
C215 C216 1.404 . S
C216 H199 0.940 . S
C216 C215 1.404 . S
C216 C217 1.389 . S
C217 H200 0.939 1_554 S
C217 C212 1.400 . S
C217 C216 1.389 . S
C218 P192 1.819 . S
C218 C219 1.391 . S
C218 C223 1.391 . S
C219 H201 0.941 . S
C219 C218 1.391 . S
C219 C220 1.396 . S
C220 H204 0.939 . S
C220 C219 1.396 . S
C220 C221 1.397 . S
C221 C220 1.397 . S
C221 C222 1.385 . S
C222 H205 0.940 . S
C222 C221 1.385 . S
C222 C223 1.388 . S
C223 H202 0.939 . S
C223 C218 1.391 . S
C223 C222 1.388 . S
P224 O235 1.490 . S
P224 C238 1.812 1_554 S
P224 C244 1.803 . S
P224 C250 1.819 . S
H225 C239 0.941 . S
H226 C240 0.939 . S
H227 C242 0.940 . S
H228 C243 0.940 . S
H229 C245 0.939 . S
H230 C246 0.942 . S
H231 C248 0.940 . S
H232 C249 0.939 1_556 S
H233 C251 0.941 . S
H234 C255 0.939 . S
O235 P224 1.490 . S
H236 C252 0.939 . S
H237 C254 0.940 . S
C238 P224 1.812 1_556 S
C238 C239 1.389 . S
C238 C243 1.391 . S
C239 H225 0.941 . S
C239 C238 1.389 . S
C239 C240 1.397 . S
C240 H226 0.939 . S
C240 C239 1.397 . S
C240 C241 1.378 . S
C241 C240 1.378 . S
C241 C242 1.378 . S
C242 H227 0.940 . S
C242 C241 1.378 . S
C242 C243 1.396 . S
C243 H228 0.940 . S
C243 C238 1.391 . S
C243 C242 1.396 . S
C244 P224 1.803 . S
C244 C245 1.378 . S
C244 C249 1.400 . S
C245 H229 0.939 . S
C245 C244 1.378 . S
C245 C246 1.361 . S
C246 H230 0.942 . S
C246 C245 1.361 . S
C246 C247 1.369 . S
C247 C246 1.369 . S
C247 C248 1.404 . S
C248 H231 0.940 . S
C248 C247 1.404 . S
C248 C249 1.389 . S
C249 H232 0.939 1_554 S
C249 C244 1.400 . S
C249 C248 1.389 . S
C250 P224 1.819 . S
C250 C251 1.391 . S
C250 C255 1.391 . S
C251 H233 0.941 . S
C251 C250 1.391 . S
C251 C252 1.396 . S
C252 H236 0.939 . S
C252 C251 1.396 . S
C252 C253 1.397 . S
C253 C252 1.397 . S
C253 C254 1.385 . S
C254 H237 0.940 . S
C254 C253 1.385 . S
C254 C255 1.388 . S
C255 H234 0.939 . S
C255 C250 1.391 . S
C255 C254 1.388 . S
Gd256 N287 2.640 1_545 S
Gd256 N293 2.601 . S
Gd256 O300 2.545 . S
Gd256 O301 2.606 1_655 S
Gd256 O303 2.429 . S
Gd256 O304 2.545 1_655 S
Gd256 O305 2.412 . S
Gd256 O307 2.362 1_545 S
Gd256 O308 2.324 1_655 S
Gd256 C315 2.828 . S
Gd257 N266 2.661 1_565 S
Gd257 N270 2.601 . S
Gd257 O301 2.362 1_565 S
Gd257 O302 2.324 1_455 S
Gd257 O306 2.545 . S
Gd257 O307 2.606 1_455 S
Gd257 O309 2.429 . S
Gd257 O310 2.545 . S
Gd257 O311 2.412 . S
Gd257 C324 2.828 . S
C258 C261 1.417 . S
C258 C263 1.431 . S
C258 C264 1.412 . S
C259 C262 1.437 . S
C259 C263 1.317 . S
C259 H278 0.929 . S
C260 C261 1.426 . S
C260 C262 1.413 . S
C260 N270 1.359 1_545 S
C261 C258 1.417 . S
C261 C260 1.426 . S
C261 N266 1.350 . S
C262 C259 1.437 . S
C262 C260 1.413 . S
C262 C272 1.398 . S
C263 C258 1.431 . S
C263 C259 1.317 . S
C263 H274 0.930 . S
C264 C258 1.412 . S
C264 C265 1.355 . S
C264 H276 0.930 . S
C265 C264 1.355 . S
C265 C267 1.402 . S
C265 H277 0.930 1_455 S
N266 Gd257 2.661 1_545 S
N266 C261 1.350 . S
N266 C267 1.307 . S
C267 C265 1.402 . S
C267 N266 1.307 . S
C267 H268 0.930 1_455 S
H268 C267 0.930 1_655 S
C269 N270 1.334 . S
C269 C271 1.394 . S
C269 H273 0.930 . S
N270 Gd257 2.601 . S
N270 C260 1.359 1_565 S
N270 C269 1.334 . S
C271 C269 1.394 . S
C271 C272 1.351 1_565 S
C271 H283 0.930 . S
C272 C262 1.398 . S
C272 C271 1.351 1_545 S
C272 H284 0.931 . S
H273 C269 0.930 . S
H274 C263 0.930 . S
H275 C292 0.930 . S
H276 C264 0.930 . S
H277 C265 0.930 1_655 S
H278 C259 0.929 . S
H279 C297 0.930 . S
H280 C288 0.930 . S
H281 C289 0.934 1_455 S
H282 C313 0.929 . S
H283 C271 0.930 . S
H284 C272 0.931 . S
H285 C314 0.930 . S
H286 C295 0.930 . S
N287 Gd256 2.640 1_565 S
N287 C291 1.358 . S
N287 C292 1.324 1_655 S
C288 H280 0.930 . S
C288 C289 1.350 . S
C288 C290 1.412 . S
C289 H281 0.934 1_655 S
C289 C288 1.350 . S
C289 C292 1.403 1_655 S
C290 C288 1.412 . S
C290 C291 1.417 . S
C290 C314 1.431 . S
C291 N287 1.358 . S
C291 C290 1.417 . S
C291 C294 1.426 1_565 S
C292 H275 0.930 . S
C292 N287 1.324 1_455 S
C292 C289 1.403 1_455 S
N293 Gd256 2.601 . S
N293 C294 1.359 . S
N293 C297 1.334 . S
C294 C291 1.426 1_545 S
C294 N293 1.359 . S
C294 C298 1.420 . S
C295 H286 0.930 . S
C295 C296 1.359 . S
C295 C297 1.394 . S
C296 C295 1.359 . S
C296 C298 1.411 . S
C296 H299 0.929 . S
C297 H279 0.930 . S
C297 N293 1.334 . S
C297 C295 1.394 . S
C298 C294 1.420 . S
C298 C296 1.411 . S
C298 C313 1.412 1_545 S
H299 C296 0.929 . S
O300 Gd256 2.545 . S
O300 C315 1.258 . S
O301 Gd256 2.606 1_455 S
O301 Gd257 2.362 1_545 S
O301 C312 1.284 . S
O302 Gd257 2.324 1_655 S
O302 C322 1.254 1_565 S
O303 Gd256 2.429 . S
O303 C322 1.268 . S
O304 Gd256 2.545 1_455 S
O304 C312 1.250 . S
O305 Gd256 2.412 . S
O305 C315 1.252 . S
O306 Gd257 2.545 . S
O306 C324 1.258 . S
O307 Gd256 2.362 1_565 S
O307 Gd257 2.606 1_655 S
O307 C323 1.284 . S
O308 Gd256 2.324 1_455 S
O308 C331 1.254 . S
O309 Gd257 2.429 . S
O309 C331 1.268 1_565 S
O310 Gd257 2.545 . S
O310 C323 1.250 1_455 S
O311 Gd257 2.412 . S
O311 C324 1.252 . S
C312 O301 1.284 . S
C312 O304 1.250 . S
C313 H282 0.929 . S
C313 C298 1.412 1_565 S
C313 C314 1.317 . S
C314 H285 0.930 . S
C314 C290 1.431 . S
C314 C313 1.317 . S
C315 Gd256 2.828 . S
C315 O300 1.258 . S
C315 O305 1.252 . S
C315 C316 1.497 . S
C316 C315 1.497 . S
C316 C317 1.395 . S
C316 C318 1.380 . S
C317 C316 1.395 . S
C317 C320 1.398 . S
C317 H332 0.930 . S
C318 C316 1.380 . S
C318 C319 1.391 . S
C318 H333 0.930 1_655 S
C319 C318 1.391 . S
C319 C321 1.387 . S
C320 C317 1.398 . S
C320 C321 1.380 . S
C320 H334 0.930 . S
C321 C319 1.387 . S
C321 C320 1.380 . S
C321 H335 0.930 . S
C322 O302 1.254 1_545 S
C322 O303 1.268 . S
C323 O307 1.284 . S
C323 O310 1.250 1_655 S
C324 Gd257 2.828 . S
C324 O306 1.258 . S
C324 O311 1.252 . S
C324 C325 1.497 . S
C325 C324 1.497 . S
C325 C326 1.395 . S
C325 C327 1.380 . S
C326 C325 1.395 . S
C326 C329 1.398 . S
C326 H336 0.930 . S
C327 C325 1.380 . S
C327 C328 1.391 . S
C327 H337 0.925 1_455 S
C328 C327 1.391 . S
C328 C330 1.387 . S
C329 C326 1.398 . S
C329 C330 1.380 . S
C329 H338 0.930 . S
C330 C328 1.387 . S
C330 C329 1.380 . S
C330 H339 0.930 . S
C331 O308 1.254 . S
C331 O309 1.268 1_545 S
H332 C317 0.930 . S
H333 C318 0.930 1_455 S
H334 C320 0.930 . S
H335 C321 0.930 . S
H336 C326 0.930 . S
H337 C327 0.925 1_655 S
H338 C329 0.930 . S
H339 C330 0.930 . S
Gd340 N371 2.661 . S
Gd340 N377 2.601 . S
Gd340 O384 2.545 . S
Gd340 O385 2.606 1_565 S
Gd340 O387 2.429 . S
Gd340 O388 2.545 1_565 S
Gd340 O389 2.412 . S
Gd340 O391 2.362 . S
Gd340 O392 2.324 1_565 S
Gd340 C399 2.828 . S
Gd341 N350 2.661 . S
Gd341 N354 2.601 . S
Gd341 O385 2.362 . S
Gd341 O386 2.324 1_545 S
Gd341 O390 2.545 . S
Gd341 O391 2.606 1_545 S
Gd341 O393 2.429 . S
Gd341 O394 2.545 . S
Gd341 O395 2.412 . S
Gd341 C408 2.828 . S
C342 C345 1.417 . S
C342 C347 1.431 . S
C342 C348 1.412 . S
C343 C346 1.437 . S
C343 C347 1.317 . S
C343 H362 0.929 . S
C344 C345 1.426 . S
C344 C346 1.413 . S
C344 N354 1.359 . S
C345 C342 1.417 . S
C345 C344 1.426 . S
C345 N350 1.350 . S
C346 C343 1.437 . S
C346 C344 1.413 . S
C346 C356 1.391 . S
C347 C342 1.431 . S
C347 C343 1.317 . S
C347 H358 0.930 . S
C348 C342 1.412 . S
C348 C349 1.355 . S
C348 H360 0.930 . S
C349 C348 1.355 . S
C349 C351 1.402 . S
C349 H361 0.930 1_545 S
N350 Gd341 2.661 . S
N350 C345 1.350 . S
N350 C351 1.307 . S
C351 C349 1.402 . S
C351 N350 1.307 . S
C351 H352 0.930 1_545 S
H352 C351 0.930 1_565 S
C353 N354 1.334 . S
C353 C355 1.394 . S
C353 H357 0.930 . S
N354 Gd341 2.601 . S
N354 C344 1.359 . S
N354 C353 1.334 . S
C355 C353 1.394 . S
C355 C356 1.359 . S
C355 H367 0.930 . S
C356 C346 1.391 . S
C356 C355 1.359 . S
C356 H368 0.929 . S
H357 C353 0.930 . S
H358 C347 0.930 . S
H359 C376 0.930 . S
H360 C348 0.930 . S
H361 C349 0.930 1_565 S
H362 C343 0.929 . S
H363 C381 0.930 . S
H364 C372 0.930 . S
H365 C373 0.930 . S
H366 C397 0.929 . S
H367 C355 0.930 . S
H368 C356 0.929 . S
H369 C398 0.930 . S
H370 C379 0.930 . S
N371 Gd340 2.661 . S
N371 C375 1.350 . S
N371 C376 1.307 1_565 S
C372 H364 0.930 . S
C372 C373 1.355 1_565 S
C372 C374 1.412 . S
C373 H365 0.930 . S
C373 C372 1.355 1_545 S
C373 C376 1.402 . S
C374 C372 1.412 . S
C374 C375 1.417 . S
C374 C398 1.431 . S
C375 N371 1.350 . S
C375 C374 1.417 . S
C375 C378 1.426 . S
C376 H359 0.930 . S
C376 N371 1.307 1_545 S
C376 C373 1.402 . S
N377 Gd340 2.601 . S
N377 C378 1.359 . S
N377 C381 1.334 . S
C378 C375 1.426 . S
C378 N377 1.359 . S
C378 C382 1.413 . S
C379 H370 0.930 . S
C379 C380 1.359 . S
C379 C381 1.394 . S
C380 C379 1.359 . S
C380 C382 1.391 . S
C380 H383 0.929 . S
C381 H363 0.930 . S
C381 N377 1.334 . S
C381 C379 1.394 . S
C382 C378 1.413 . S
C382 C380 1.391 . S
C382 C397 1.437 . S
H383 C380 0.929 . S
O384 Gd340 2.545 . S
O384 C399 1.258 . S
O385 Gd340 2.606 1_545 S
O385 Gd341 2.362 . S
O385 C396 1.284 . S
O386 Gd341 2.324 1_565 S
O386 C406 1.254 . S
O387 Gd340 2.429 . S
O387 C406 1.268 . S
O388 Gd340 2.545 1_545 S
O388 C396 1.250 . S
O389 Gd340 2.412 . S
O389 C399 1.252 . S
O390 Gd341 2.545 . S
O390 C408 1.258 . S
O391 Gd340 2.362 . S
O391 Gd341 2.606 1_565 S
O391 C407 1.284 . S
O392 Gd340 2.324 1_545 S
O392 C415 1.254 . S
O393 Gd341 2.429 . S
O393 C415 1.268 . S
O394 Gd341 2.545 . S
O394 C407 1.250 1_545 S
O395 Gd341 2.412 . S
O395 C408 1.252 . S
C396 O385 1.284 . S
C396 O388 1.250 . S
C397 H366 0.929 . S
C397 C382 1.437 . S
C397 C398 1.317 . S
C398 H369 0.930 . S
C398 C374 1.431 . S
C398 C397 1.317 . S
C399 Gd340 2.828 . S
C399 O384 1.258 . S
C399 O389 1.252 . S
C399 C400 1.497 . S
C400 C399 1.497 . S
C400 C401 1.395 . S
C400 C402 1.380 . S
C401 C400 1.395 . S
C401 C404 1.398 . S
C401 H416 0.930 . S
C402 C400 1.380 . S
C402 C403 1.391 . S
C402 H417 0.930 1_565 S
C403 C402 1.391 . S
C403 C405 1.387 . S
C404 C401 1.398 . S
C404 C405 1.380 . S
C404 H418 0.930 . S
C405 C403 1.387 . S
C405 C404 1.380 . S
C405 H419 0.930 . S
C406 O386 1.254 . S
C406 O387 1.268 . S
C407 O391 1.284 . S
C407 O394 1.250 1_565 S
C408 Gd341 2.828 . S
C408 O390 1.258 . S
C408 O395 1.252 . S
C408 C409 1.497 . S
C409 C408 1.497 . S
C409 C410 1.395 . S
C409 C411 1.380 . S
C410 C409 1.395 . S
C410 C413 1.398 . S
C410 H420 0.930 . S
C411 C409 1.380 . S
C411 C412 1.391 . S
C411 H421 0.930 . S
C412 C411 1.391 . S
C412 C414 1.387 . S
C413 C410 1.398 . S
C413 C414 1.380 . S
C413 H422 0.930 . S
C414 C412 1.387 . S
C414 C413 1.380 . S
C414 H423 0.930 . S
C415 O392 1.254 . S
C415 O393 1.268 . S
H416 C401 0.930 . S
H417 C402 0.930 1_545 S
H418 C404 0.930 . S
H419 C405 0.930 . S
H420 C410 0.930 . S
H421 C411 0.930 . S
H422 C413 0.930 . S
H423 C414 0.930 . S
Gd424 N455 2.661 . S
Gd424 N461 2.601 . S
Gd424 O468 2.545 . S
Gd424 O469 2.606 . S
Gd424 O471 2.429 . S
Gd424 O472 2.545 . S
Gd424 O473 2.412 . S
Gd424 O475 2.362 . S
Gd424 O476 2.324 . S
Gd424 C483 2.828 . S
Gd425 N434 2.661 . S
Gd425 N438 2.601 . S
Gd425 O469 2.362 . S
Gd425 O470 2.324 . S
Gd425 O474 2.545 . S
Gd425 O475 2.606 . S
Gd425 O477 2.429 . S
Gd425 O478 2.545 . S
Gd425 O479 2.412 . S
Gd425 C492 2.828 . S
C426 C429 1.417 . S
C426 C431 1.431 . S
C426 C432 1.412 . S
C427 C430 1.437 . S
C427 C431 1.317 . S
C427 H446 0.929 . S
C428 C429 1.426 . S
C428 C430 1.413 . S
C428 N438 1.359 . S
C429 C426 1.417 . S
C429 C428 1.426 . S
C429 N434 1.350 . S
C430 C427 1.437 . S
C430 C428 1.413 . S
C430 C440 1.391 . S
C431 C426 1.431 . S
C431 C427 1.317 . S
C431 H442 0.930 . S
C432 C426 1.412 . S
C432 C433 1.355 . S
C432 H444 0.930 . S
C433 C432 1.355 . S
C433 C435 1.402 . S
C433 H445 0.930 . S
N434 Gd425 2.661 . S
N434 C429 1.350 . S
N434 C435 1.307 . S
C435 C433 1.402 . S
C435 N434 1.307 . S
C435 H436 0.930 . S
H436 C435 0.930 . S
C437 N438 1.334 . S
C437 C439 1.394 . S
C437 H441 0.930 . S
N438 Gd425 2.601 . S
N438 C428 1.359 . S
N438 C437 1.334 . S
C439 C437 1.394 . S
C439 C440 1.359 . S
C439 H451 0.930 . S
C440 C430 1.391 . S
C440 C439 1.359 . S
C440 H452 0.929 . S
H441 C437 0.930 . S
H442 C431 0.930 . S
H443 C460 0.930 . S
H444 C432 0.930 . S
H445 C433 0.930 . S
H446 C427 0.929 . S
H447 C465 0.930 . S
H448 C456 0.930 . S
H449 C457 0.930 . S
H450 C481 0.929 . S
H451 C439 0.930 . S
H452 C440 0.929 . S
H453 C482 0.930 . S
H454 C463 0.930 . S
N455 Gd424 2.661 . S
N455 C459 1.350 . S
N455 C460 1.307 . S
C456 H448 0.930 . S
C456 C457 1.355 . S
C456 C458 1.412 . S
C457 H449 0.930 . S
C457 C456 1.355 . S
C457 C460 1.402 . S
C458 C456 1.412 . S
C458 C459 1.417 . S
C458 C482 1.431 . S
C459 N455 1.350 . S
C459 C458 1.417 . S
C459 C462 1.426 . S
C460 H443 0.930 . S
C460 N455 1.307 . S
C460 C457 1.402 . S
N461 Gd424 2.601 . S
N461 C462 1.359 . S
N461 C465 1.334 . S
C462 C459 1.426 . S
C462 N461 1.359 . S
C462 C466 1.413 . S
C463 H454 0.930 . S
C463 C464 1.359 . S
C463 C465 1.394 . S
C464 C463 1.359 . S
C464 C466 1.391 . S
C464 H467 0.929 . S
C465 H447 0.930 . S
C465 N461 1.334 . S
C465 C463 1.394 . S
C466 C462 1.413 . S
C466 C464 1.391 . S
C466 C481 1.437 . S
H467 C464 0.929 . S
O468 Gd424 2.545 . S
O468 C483 1.258 . S
O469 Gd424 2.606 . S
O469 Gd425 2.362 . S
O469 C480 1.284 . S
O470 Gd425 2.324 . S
O470 C490 1.254 . S
O471 Gd424 2.429 . S
O471 C490 1.268 . S
O472 Gd424 2.545 . S
O472 C480 1.250 . S
O473 Gd424 2.412 . S
O473 C483 1.252 . S
O474 Gd425 2.545 . S
O474 C492 1.258 . S
O475 Gd424 2.362 . S
O475 Gd425 2.606 . S
O475 C491 1.284 . S
O476 Gd424 2.324 . S
O476 C499 1.254 . S
O477 Gd425 2.429 . S
O477 C499 1.268 . S
O478 Gd425 2.545 . S
O478 C491 1.250 . S
O479 Gd425 2.412 . S
O479 C492 1.252 . S
C480 O469 1.284 . S
C480 O472 1.250 . S
C481 H450 0.929 . S
C481 C466 1.437 . S
C481 C482 1.317 . S
C482 H453 0.930 . S
C482 C458 1.431 . S
C482 C481 1.317 . S
C483 Gd424 2.828 . S
C483 O468 1.258 . S
C483 O473 1.252 . S
C483 C484 1.497 . S
C484 C483 1.497 . S
C484 C485 1.395 . S
C484 C486 1.380 . S
C485 C484 1.395 . S
C485 C488 1.398 . S
C485 H500 0.930 . S
C486 C484 1.380 . S
C486 C487 1.391 . S
C486 H501 0.930 . S
C487 C486 1.391 . S
C487 C489 1.387 . S
C488 C485 1.398 . S
C488 C489 1.380 . S
C488 H502 0.930 1_556 S
C489 C487 1.387 . S
C489 C488 1.380 . S
C489 H503 0.931 . S
C490 O470 1.254 . S
C490 O471 1.268 . S
C491 O475 1.284 . S
C491 O478 1.250 . S
C492 Gd425 2.828 . S
C492 O474 1.258 . S
C492 O479 1.252 . S
C492 C493 1.497 . S
C493 C492 1.497 . S
C493 C494 1.395 . S
C493 C495 1.380 . S
C494 C493 1.395 . S
C494 C497 1.398 . S
C494 H504 0.930 . S
C495 C493 1.380 . S
C495 C496 1.391 . S
C495 H505 0.930 . S
C496 C495 1.391 . S
C496 C498 1.387 . S
C497 C494 1.398 . S
C497 C498 1.380 . S
C497 H506 0.930 . S
C498 C496 1.387 . S
C498 C497 1.380 . S
C498 H507 0.930 . S
C499 O476 1.254 . S
C499 O477 1.268 . S
H500 C485 0.930 . S
H501 C486 0.930 . S
H502 C488 0.930 1_554 S
H503 C489 0.931 . S
H504 C494 0.930 . S
H505 C495 0.930 . S
H506 C497 0.930 . S
H507 C498 0.930 . S
Gd508 N539 2.661 . S
Gd508 N545 2.601 . S
Gd508 O552 2.545 . S
Gd508 O553 2.608 1_655 S
Gd508 O555 2.429 1_655 S
Gd508 O556 2.545 . S
Gd508 O557 2.412 . S
Gd508 O559 2.362 1_655 S
Gd508 O560 2.324 . S
Gd508 C567 2.828 . S
Gd509 N518 2.661 . S
Gd509 N522 2.601 . S
Gd509 O553 2.359 . S
Gd509 O554 2.324 . S
Gd509 O558 2.545 . S
Gd509 O559 2.606 . S
Gd509 O561 2.429 1_455 S
Gd509 O562 2.545 . S
Gd509 O563 2.412 . S
Gd509 C576 2.828 . S
C510 C513 1.417 . S
C510 C515 1.431 . S
C510 C516 1.412 . S
C511 C514 1.437 . S
C511 C515 1.317 . S
C511 H530 0.929 . S
C512 C513 1.426 . S
C512 C514 1.413 . S
C512 N522 1.359 . S
C513 C510 1.417 . S
C513 C512 1.426 . S
C513 N518 1.350 . S
C514 C511 1.437 . S
C514 C512 1.413 . S
C514 C524 1.391 . S
C515 C510 1.431 . S
C515 C511 1.317 . S
C515 H526 0.930 . S
C516 C510 1.412 . S
C516 C517 1.355 . S
C516 H528 0.930 . S
C517 C516 1.355 . S
C517 C519 1.402 . S
C517 H529 0.930 . S
N518 Gd509 2.661 . S
N518 C513 1.350 . S
N518 C519 1.307 . S
C519 C517 1.402 . S
C519 N518 1.307 . S
C519 H520 0.930 . S
H520 C519 0.930 . S
C521 N522 1.334 . S
C521 C523 1.392 1_455 S
C521 H525 0.930 1_455 S
N522 Gd509 2.601 . S
N522 C512 1.359 . S
N522 C521 1.334 . S
C523 C521 1.392 1_655 S
C523 C524 1.347 1_655 S
C523 H535 0.944 . S
C524 C514 1.391 . S
C524 C523 1.347 1_455 S
C524 H536 0.929 . S
H525 C521 0.930 1_655 S
H526 C515 0.930 . S
H527 C544 0.930 . S
H528 C516 0.930 . S
H529 C517 0.930 . S
H530 C511 0.929 . S
H531 C549 0.930 . S
H532 C540 0.930 . S
H533 C541 0.930 . S
H534 C565 0.929 . S
H535 C523 0.944 . S
H536 C524 0.929 . S
H537 C566 0.930 . S
H538 C547 0.930 . S
N539 Gd508 2.661 . S
N539 C543 1.350 . S
N539 C544 1.307 . S
C540 H532 0.930 . S
C540 C541 1.355 . S
C540 C542 1.412 . S
C541 H533 0.930 . S
C541 C540 1.355 . S
C541 C544 1.402 . S
C542 C540 1.412 . S
C542 C543 1.417 . S
C542 C566 1.431 . S
C543 N539 1.350 . S
C543 C542 1.417 . S
C543 C546 1.426 . S
C544 H527 0.930 . S
C544 N539 1.307 . S
C544 C541 1.402 . S
N545 Gd508 2.601 . S
N545 C546 1.359 . S
N545 C549 1.334 1_655 S
C546 C543 1.426 . S
C546 N545 1.359 . S
C546 C550 1.413 . S
C547 H538 0.930 . S
C547 C548 1.359 1_455 S
C547 C549 1.394 . S
C548 C547 1.359 1_655 S
C548 C550 1.391 . S
C548 H551 0.931 . S
C549 H531 0.930 . S
C549 N545 1.334 1_455 S
C549 C547 1.394 . S
C550 C546 1.413 . S
C550 C548 1.391 . S
C550 C565 1.437 . S
H551 C548 0.931 . S
O552 Gd508 2.545 . S
O552 C567 1.258 . S
O553 Gd508 2.608 1_455 S
O553 Gd509 2.359 . S
O553 C564 1.286 1_455 S
O554 Gd509 2.324 . S
O554 C574 1.254 . S
O555 Gd508 2.429 1_455 S
O555 C574 1.268 . S
O556 Gd508 2.545 . S
O556 C564 1.250 . S
O557 Gd508 2.412 . S
O557 C567 1.252 . S
O558 Gd509 2.545 . S
O558 C576 1.258 . S
O559 Gd508 2.362 1_455 S
O559 Gd509 2.606 . S
O559 C575 1.284 . S
O560 Gd508 2.324 . S
O560 C583 1.254 . S
O561 Gd509 2.429 1_655 S
O561 C583 1.268 . S
O562 Gd509 2.545 . S
O562 C575 1.250 . S
O563 Gd509 2.412 . S
O563 C576 1.252 . S
C564 O553 1.286 1_655 S
C564 O556 1.250 . S
C565 H534 0.929 . S
C565 C550 1.437 . S
C565 C566 1.317 . S
C566 H537 0.930 . S
C566 C542 1.431 . S
C566 C565 1.317 . S
C567 Gd508 2.828 . S
C567 O552 1.258 . S
C567 O557 1.252 . S
C567 C568 1.497 . S
C568 C567 1.497 . S
C568 C569 1.395 . S
C568 C570 1.380 . S
C569 C568 1.395 . S
C569 C572 1.398 . S
C569 H584 0.930 . S
C570 C568 1.380 . S
C570 C571 1.391 . S
C570 H585 0.930 . S
C571 C570 1.391 . S
C571 C573 1.387 . S
C572 C569 1.398 . S
C572 C573 1.380 . S
C572 H586 0.930 1_556 S
C573 C571 1.387 . S
C573 C572 1.380 . S
C573 H587 0.930 . S
C574 O554 1.254 . S
C574 O555 1.268 . S
C575 O559 1.284 . S
C575 O562 1.250 . S
C576 Gd509 2.828 . S
C576 O558 1.258 . S
C576 O563 1.252 . S
C576 C577 1.497 . S
C577 C576 1.497 . S
C577 C578 1.395 . S
C577 C579 1.380 . S
C578 C577 1.395 . S
C578 C581 1.398 . S
C578 H588 0.930 . S
C579 C577 1.380 . S
C579 C580 1.391 . S
C579 H589 0.930 . S
C580 C579 1.391 . S
C580 C582 1.387 . S
C581 C578 1.398 . S
C581 C582 1.380 . S
C581 H590 0.930 . S
C582 C580 1.387 . S
C582 C581 1.380 . S
C582 H591 0.930 . S
C583 O560 1.254 . S
C583 O561 1.268 . S
H584 C569 0.930 . S
H585 C570 0.930 . S
H586 C572 0.930 1_554 S
H587 C573 0.930 . S
H588 C578 0.930 . S
H589 C579 0.930 . S
H590 C581 0.930 . S
H591 C582 0.930 . S
C592 C593 1.391 . S
C592 C594 1.394 . S
C592 H608 0.931 . S
C593 C592 1.391 . S
C593 C597 1.376 . S
C594 C592 1.394 . S
C594 C595 1.369 . S
C594 C598 1.531 . S
C595 C594 1.369 . S
C595 C596 1.410 . S
C595 C603 1.503 . S
C596 C595 1.410 . S
C596 C597 1.392 . S
C596 C599 1.511 . S
C597 C593 1.376 . S
C597 C596 1.392 . S
C597 H609 0.929 . S
C598 C594 1.531 . S
C598 H610 0.960 . S
C598 H611 0.962 . S
C598 H612 0.960 . S
C599 C596 1.511 . S
C599 H613 0.961 . S
C599 H614 0.961 . S
C599 H615 0.961 . S
C600 C601 1.370 . S
C600 C602 1.363 . S
C600 H616 0.931 1_545 S
C601 C600 1.370 . S
C601 C605 1.408 . S
C602 C600 1.363 . S
C602 C603 1.370 . S
C602 C606 1.524 . S
C603 C595 1.503 . S
C603 C602 1.370 . S
C603 C604 1.403 . S
C604 C603 1.403 . S
C604 C605 1.404 . S
C604 C607 1.539 . S
C605 C601 1.408 . S
C605 C604 1.404 . S
C605 H617 0.930 . S
C606 C602 1.524 . S
C606 H618 0.956 . S
C606 H619 0.961 . S
C606 H620 0.961 1_545 S
C607 C604 1.539 . S
C607 H621 0.958 . S
C607 H622 0.961 . S
C607 H623 0.960 . S
H608 C592 0.931 . S
H609 C597 0.929 . S
H610 C598 0.960 . S
H611 C598 0.962 . S
H612 C598 0.960 . S
H613 C599 0.961 . S
H614 C599 0.961 . S
H615 C599 0.961 . S
H616 C600 0.931 1_565 S
H617 C605 0.930 . S
H618 C606 0.956 . S
H619 C606 0.961 . S
H620 C606 0.961 1_565 S
H621 C607 0.958 . S
H622 C607 0.961 . S
H623 C607 0.960 . S
C624 C625 1.391 . S
C624 C626 1.394 . S
C624 H640 0.931 . S
C625 C624 1.391 . S
C625 C629 1.376 . S
C626 C624 1.394 . S
C626 C627 1.369 . S
C626 C630 1.531 . S
C627 C626 1.369 . S
C627 C628 1.410 . S
C627 C635 1.503 . S
C628 C627 1.410 . S
C628 C629 1.392 . S
C628 C631 1.511 . S
C629 C625 1.376 . S
C629 C628 1.392 . S
C629 H641 0.929 . S
C630 C626 1.531 . S
C630 H642 0.960 . S
C630 H643 0.962 . S
C630 H644 0.960 . S
C631 C628 1.511 . S
C631 H645 0.961 . S
C631 H646 0.961 . S
C631 H647 0.961 . S
C632 C633 1.370 . S
C632 C634 1.363 . S
C632 H648 0.931 . S
C633 C632 1.370 . S
C633 C637 1.408 . S
C634 C632 1.363 . S
C634 C635 1.370 . S
C634 C638 1.524 . S
C635 C627 1.503 . S
C635 C634 1.370 . S
C635 C636 1.403 . S
C636 C635 1.403 . S
C636 C637 1.404 . S
C636 C639 1.539 . S
C637 C633 1.408 . S
C637 C636 1.404 . S
C637 H649 0.930 . S
C638 C634 1.524 . S
C638 H650 0.956 . S
C638 H651 0.961 . S
C638 H652 0.961 . S
C639 C636 1.539 . S
C639 H653 0.958 . S
C639 H654 0.961 . S
C639 H655 0.960 . S
H640 C624 0.931 . S
H641 C629 0.929 . S
H642 C630 0.960 . S
H643 C630 0.962 . S
H644 C630 0.960 . S
H645 C631 0.961 . S
H646 C631 0.961 . S
H647 C631 0.961 . S
H648 C632 0.931 . S
H649 C637 0.930 . S
H650 C638 0.956 . S
H651 C638 0.961 . S
H652 C638 0.961 . S
H653 C639 0.958 . S
H654 C639 0.961 . S
H655 C639 0.960 . S
C656 C657 1.391 . S
C656 C658 1.394 . S
C656 H672 0.931 . S
C657 C656 1.391 . S
C657 C661 1.376 . S
C658 C656 1.394 . S
C658 C659 1.369 . S
C658 C662 1.531 . S
C659 C658 1.369 . S
C659 C660 1.410 . S
C659 C667 1.503 . S
C660 C659 1.410 . S
C660 C661 1.392 . S
C660 C663 1.511 . S
C661 C657 1.376 . S
C661 C660 1.392 . S
C661 H673 0.929 . S
C662 C658 1.531 . S
C662 H674 0.960 . S
C662 H675 0.962 . S
C662 H676 0.960 . S
C663 C660 1.511 . S
C663 H677 0.961 . S
C663 H678 0.961 . S
C663 H679 0.961 . S
C664 C665 1.370 . S
C664 C666 1.363 . S
C664 H680 0.931 . S
C665 C664 1.370 . S
C665 C669 1.408 . S
C666 C664 1.363 . S
C666 C667 1.370 . S
C666 C670 1.524 . S
C667 C659 1.503 . S
C667 C666 1.370 . S
C667 C668 1.403 . S
C668 C667 1.403 . S
C668 C669 1.404 . S
C668 C671 1.539 . S
C669 C665 1.408 . S
C669 C668 1.404 . S
C669 H681 0.930 . S
C670 C666 1.524 . S
C670 H682 0.956 . S
C670 H683 0.961 . S
C670 H684 0.961 . S
C671 C668 1.539 . S
C671 H685 0.958 . S
C671 H686 0.961 . S
C671 H687 0.960 . S
H672 C656 0.931 . S
H673 C661 0.929 . S
H674 C662 0.960 . S
H675 C662 0.962 . S
H676 C662 0.960 . S
H677 C663 0.961 . S
H678 C663 0.961 . S
H679 C663 0.961 . S
H680 C664 0.931 . S
H681 C669 0.930 . S
H682 C670 0.956 . S
H683 C670 0.961 . S
H684 C670 0.961 . S
H685 C671 0.958 . S
H686 C671 0.961 . S
H687 C671 0.960 . S
C688 C689 1.391 . S
C688 C690 1.394 . S
C688 H704 0.931 . S
C689 C688 1.391 . S
C689 C693 1.376 . S
C690 C688 1.394 . S
C690 C691 1.369 . S
C690 C694 1.531 . S
C691 C690 1.369 . S
C691 C692 1.410 . S
C691 C699 1.503 . S
C692 C691 1.410 . S
C692 C693 1.392 . S
C692 C695 1.511 . S
C693 C689 1.376 . S
C693 C692 1.392 . S
C693 H705 0.929 . S
C694 C690 1.531 . S
C694 H706 0.960 . S
C694 H707 0.962 . S
C694 H708 0.960 . S
C695 C692 1.511 . S
C695 H709 0.961 . S
C695 H710 0.961 . S
C695 H711 0.961 1_455 S
C696 C697 1.370 . S
C696 C698 1.363 . S
C696 H712 0.931 . S
C697 C696 1.370 . S
C697 C701 1.408 . S
C698 C696 1.363 . S
C698 C699 1.370 . S
C698 C702 1.524 . S
C699 C691 1.503 . S
C699 C698 1.370 . S
C699 C700 1.403 . S
C700 C699 1.403 . S
C700 C701 1.404 . S
C700 C703 1.539 . S
C701 C697 1.408 . S
C701 C700 1.404 . S
C701 H713 0.930 . S
C702 C698 1.524 . S
C702 H714 0.956 . S
C702 H715 0.961 . S
C702 H716 0.961 . S
C703 C700 1.539 . S
C703 H717 0.958 . S
C703 H718 0.961 1_455 S
C703 H719 0.960 . S
H704 C688 0.931 . S
H705 C693 0.929 . S
H706 C694 0.960 . S
H707 C694 0.962 . S
H708 C694 0.960 . S
H709 C695 0.961 . S
H710 C695 0.961 . S
H711 C695 0.961 1_655 S
H712 C696 0.931 . S
H713 C701 0.930 . S
H714 C702 0.956 . S
H715 C702 0.961 . S
H716 C702 0.961 . S
H717 C703 0.958 . S
H718 C703 0.961 1_655 S
H719 C703 0.960 . S
C720 C721 1.391 . S
C720 C722 1.394 1_554 S
C720 H736 0.931 . S
C721 C720 1.391 . S
C721 C725 1.376 . S
C722 C720 1.394 1_556 S
C722 C723 1.369 . S
C722 C726 1.531 . S
C723 C722 1.369 . S
C723 C724 1.410 1_556 S
C723 C731 1.503 . S
C724 C723 1.410 1_554 S
C724 C725 1.392 . S
C724 C727 1.511 1_564 S
C725 C721 1.376 . S
C725 C724 1.392 . S
C725 H737 0.929 . S
C726 C722 1.531 . S
C726 H738 0.960 . S
C726 H739 0.962 . S
C726 H740 0.960 . S
C727 C724 1.511 1_546 S
C727 H741 0.961 1_556 S
C727 H742 0.961 . S
C727 H743 0.961 . S
C728 C729 1.370 . S
C728 C730 1.363 . S
C728 H744 0.931 . S
C729 C728 1.370 . S
C729 C733 1.408 . S
C730 C728 1.363 . S
C730 C731 1.370 . S
C730 C734 1.524 . S
C731 C723 1.503 . S
C731 C730 1.370 . S
C731 C732 1.403 . S
C732 C731 1.403 . S
C732 C733 1.404 . S
C732 C735 1.539 . S
C733 C729 1.408 . S
C733 C732 1.404 . S
C733 H745 0.930 . S
C734 C730 1.524 . S
C734 H746 0.956 . S
C734 H747 0.961 1_556 S
C734 H748 0.961 . S
C735 C732 1.539 . S
C735 H749 0.958 . S
C735 H750 0.961 . S
C735 H751 0.960 . S
H736 C720 0.931 . S
H737 C725 0.929 . S
H738 C726 0.960 . S
H739 C726 0.962 . S
H740 C726 0.960 . S
H741 C727 0.961 1_554 S
H742 C727 0.961 . S
H743 C727 0.961 . S
H744 C728 0.931 . S
H745 C733 0.930 . S
H746 C734 0.956 . S
H747 C734 0.961 1_554 S
H748 C734 0.961 . S
H749 C735 0.958 . S
H750 C735 0.961 . S
H751 C735 0.960 . S
C752 C753 1.391 . S
C752 C754 1.394 . S
C752 H768 0.931 . S
C753 C752 1.391 . S
C753 C757 1.376 . S
C754 C752 1.394 . S
C754 C755 1.369 1_554 S
C754 C758 1.531 1_554 S
C755 C754 1.369 1_556 S
C755 C756 1.410 1_556 S
C755 C763 1.503 . S
C756 C755 1.410 1_554 S
C756 C757 1.392 . S
C756 C759 1.511 1_554 S
C757 C753 1.376 . S
C757 C756 1.392 . S
C757 H769 0.929 . S
C758 C754 1.531 1_556 S
C758 H770 0.960 . S
C758 H771 0.962 . S
C758 H772 0.960 1_556 S
C759 C756 1.511 1_556 S
C759 H773 0.961 . S
C759 H774 0.961 . S
C759 H775 0.961 . S
C760 C761 1.370 . S
C760 C762 1.363 . S
C760 H776 0.931 . S
C761 C760 1.370 . S
C761 C765 1.408 . S
C762 C760 1.363 . S
C762 C763 1.370 . S
C762 C766 1.524 . S
C763 C755 1.503 . S
C763 C762 1.370 . S
C763 C764 1.403 . S
C764 C763 1.403 . S
C764 C765 1.404 . S
C764 C767 1.539 . S
C765 C761 1.408 . S
C765 C764 1.404 . S
C765 H777 0.930 . S
C766 C762 1.524 . S
C766 H778 0.956 . S
C766 H779 0.961 . S
C766 H780 0.961 . S
C767 C764 1.539 . S
C767 H781 0.958 . S
C767 H782 0.961 . S
C767 H783 0.960 1_556 S
H768 C752 0.931 . S
H769 C757 0.929 . S
H770 C758 0.960 . S
H771 C758 0.962 . S
H772 C758 0.960 1_554 S
H773 C759 0.961 . S
H774 C759 0.961 . S
H775 C759 0.961 . S
H776 C760 0.931 . S
H777 C765 0.930 . S
H778 C766 0.956 . S
H779 C766 0.961 . S
H780 C766 0.961 . S
H781 C767 0.958 . S
H782 C767 0.961 . S
H783 C767 0.960 1_554 S
C784 C785 1.391 . S
C784 C786 1.397 . S
C784 H800 0.931 . S
C785 C784 1.391 . S
C785 C789 1.376 . S
C786 C784 1.397 . S
C786 C787 1.366 1_554 S
C786 C790 1.529 1_554 S
C787 C786 1.366 1_556 S
C787 C788 1.410 . S
C787 C795 1.503 . S
C788 C787 1.410 . S
C788 C789 1.392 1_556 S
C788 C791 1.511 . S
C789 C785 1.376 . S
C789 C788 1.392 1_554 S
C789 H801 0.929 . S
C790 C786 1.529 1_556 S
C790 H802 0.960 . S
C790 H803 0.962 . S
C790 H804 0.960 . S
C791 C788 1.511 . S
C791 H805 0.961 . S
C791 H806 0.961 . S
C791 H807 0.961 . S
C792 C793 1.370 . S
C792 C794 1.363 . S
C792 H808 0.931 . S
C793 C792 1.370 . S
C793 C797 1.408 . S
C794 C792 1.363 . S
C794 C795 1.370 . S
C794 C798 1.524 . S
C795 C787 1.503 . S
C795 C794 1.370 . S
C795 C796 1.403 . S
C796 C795 1.403 . S
C796 C797 1.404 . S
C796 C799 1.539 . S
C797 C793 1.408 . S
C797 C796 1.404 . S
C797 H809 0.930 . S
C798 C794 1.524 . S
C798 H810 0.956 1_556 S
C798 H811 0.961 . S
C798 H812 0.961 . S
C799 C796 1.539 . S
C799 H813 0.958 . S
C799 H814 0.961 . S
C799 H815 0.960 . S
H800 C784 0.931 . S
H801 C789 0.929 . S
H802 C790 0.960 . S
H803 C790 0.962 . S
H804 C790 0.960 . S
H805 C791 0.961 . S
H806 C791 0.961 . S
H807 C791 0.961 . S
H808 C792 0.931 . S
H809 C797 0.930 . S
H810 C798 0.956 1_554 S
H811 C798 0.961 . S
H812 C798 0.961 . S
H813 C799 0.958 . S
H814 C799 0.961 . S
H815 C799 0.960 . S
C816 C817 1.391 . S
C816 C818 1.394 . S
C816 H832 0.931 . S
C817 C816 1.391 . S
C817 C821 1.376 . S
C818 C816 1.394 . S
C818 C819 1.369 1_554 S
C818 C822 1.531 1_654 S
C819 C818 1.369 1_556 S
C819 C820 1.410 1_556 S
C819 C827 1.503 . S
C820 C819 1.410 1_554 S
C820 C821 1.392 . S
C820 C823 1.511 1_554 S
C821 C817 1.376 . S
C821 C820 1.392 . S
C821 H833 0.929 . S
C822 C818 1.531 1_456 S
C822 H834 0.960 . S
C822 H835 0.962 . S
C822 H836 0.960 1_556 S
C823 C820 1.511 1_556 S
C823 H837 0.961 . S
C823 H838 0.961 . S
C823 H839 0.961 . S
C824 C825 1.370 . S
C824 C826 1.363 . S
C824 H840 0.931 . S
C825 C824 1.370 . S
C825 C829 1.408 . S
C826 C824 1.363 . S
C826 C827 1.370 . S
C826 C830 1.524 . S
C827 C819 1.503 . S
C827 C826 1.370 . S
C827 C828 1.403 . S
C828 C827 1.403 . S
C828 C829 1.404 . S
C828 C831 1.539 . S
C829 C825 1.408 . S
C829 C828 1.404 . S
C829 H841 0.930 . S
C830 C826 1.524 . S
C830 H842 0.956 . S
C830 H843 0.961 . S
C830 H844 0.961 . S
C831 C828 1.539 . S
C831 H845 0.958 . S
C831 H846 0.961 . S
C831 H847 0.960 1_556 S
H832 C816 0.931 . S
H833 C821 0.929 . S
H834 C822 0.960 . S
H835 C822 0.962 . S
H836 C822 0.960 1_554 S
H837 C823 0.961 . S
H838 C823 0.961 . S
H839 C823 0.961 . S
H840 C824 0.931 . S
H841 C829 0.930 . S
H842 C830 0.956 . S
H843 C830 0.961 . S
H844 C830 0.961 . S
H845 C831 0.958 . S
H846 C831 0.961 . S
H847 C831 0.960 1_554 S
C848 C849 1.391 . S
C848 C850 1.394 . S
C848 H864 0.931 . S
C849 C848 1.391 . S
C849 C853 1.376 . S
C850 C848 1.394 . S
C850 C851 1.369 . S
C850 C854 1.531 . S
C851 C850 1.369 . S
C851 C852 1.410 . S
C851 C859 1.503 . S
C852 C851 1.410 . S
C852 C853 1.392 . S
C852 C855 1.511 . S
C853 C849 1.376 . S
C853 C852 1.392 . S
C853 H865 0.929 . S
C854 C850 1.531 . S
C854 H866 0.960 . S
C854 H867 0.936 1_455 S
C854 H868 0.960 . S
C855 C852 1.511 . S
C855 H869 0.961 . S
C855 H870 0.961 . S
C855 H871 0.961 . S
C856 C857 1.370 . S
C856 C858 1.370 . S
C856 H872 0.924 1_455 S
C857 C856 1.370 . S
C857 C861 1.433 . S
C858 C856 1.370 . S
C858 C859 1.370 . S
C858 C862 1.524 . S
C859 C851 1.503 . S
C859 C858 1.370 . S
C859 C860 1.403 . S
C860 C859 1.403 . S
C860 C861 1.404 . S
C860 C863 1.539 . S
C861 C857 1.433 . S
C861 C860 1.404 . S
C861 H873 0.930 . S
C862 C858 1.524 . S
C862 H874 0.956 . S
C862 H875 0.961 . S
C862 H876 0.961 . S
C863 C860 1.539 . S
C863 H877 0.958 . S
C863 H878 0.961 . S
C863 H879 0.960 . S
H864 C848 0.931 . S
H865 C853 0.929 . S
H866 C854 0.960 . S
H867 C854 0.936 1_655 S
H868 C854 0.960 . S
H869 C855 0.961 . S
H870 C855 0.961 . S
H871 C855 0.961 . S
H872 C856 0.924 1_655 S
H873 C861 0.930 . S
H874 C862 0.956 . S
H875 C862 0.961 . S
H876 C862 0.961 . S
H877 C863 0.958 . S
H878 C863 0.961 . S
H879 C863 0.960 . S
C880 C881 1.391 . S
C880 C882 1.394 . S
C880 H896 0.931 . S
C881 C880 1.391 . S
C881 C885 1.376 . S
C882 C880 1.394 . S
C882 C883 1.369 . S
C882 C886 1.531 . S
C883 C882 1.369 . S
C883 C884 1.410 . S
C883 C891 1.503 . S
C884 C883 1.410 . S
C884 C885 1.392 . S
C884 C887 1.511 . S
C885 C881 1.376 . S
C885 C884 1.392 . S
C885 H897 0.929 . S
C886 C882 1.531 . S
C886 H898 0.960 . S
C886 H899 0.962 . S
C886 H900 0.960 . S
C887 C884 1.511 . S
C887 H901 0.961 . S
C887 H902 0.961 . S
C887 H903 0.961 . S
C888 C889 1.340 1_545 S
C888 C890 1.363 . S
C888 H904 0.931 . S
C889 C888 1.340 1_565 S
C889 C893 1.425 . S
C890 C888 1.363 . S
C890 C891 1.370 . S
C890 C894 1.524 . S
C891 C883 1.503 . S
C891 C890 1.370 . S
C891 C892 1.403 1_545 S
C892 C891 1.403 1_565 S
C892 C893 1.404 . S
C892 C895 1.539 . S
C893 C889 1.425 . S
C893 C892 1.404 . S
C893 H905 0.930 . S
C894 C890 1.524 . S
C894 H906 0.956 . S
C894 H907 0.961 . S
C894 H908 0.961 . S
C895 C892 1.539 . S
C895 H909 0.958 . S
C895 H910 0.961 . S
C895 H911 0.960 . S
H896 C880 0.931 . S
H897 C885 0.929 . S
H898 C886 0.960 . S
H899 C886 0.962 . S
H900 C886 0.960 . S
H901 C887 0.961 . S
H902 C887 0.961 . S
H903 C887 0.961 . S
H904 C888 0.931 . S
H905 C893 0.930 . S
H906 C894 0.956 . S
H907 C894 0.961 . S
H908 C894 0.961 . S
H909 C895 0.958 . S
H910 C895 0.961 . S
H911 C895 0.960 . S
C912 C913 1.391 . S
C912 C914 1.394 . S
C912 H928 0.931 . S
C913 C912 1.391 . S
C913 C917 1.376 . S
C914 C912 1.394 . S
C914 C915 1.369 . S
C914 C918 1.531 . S
C915 C914 1.369 . S
C915 C916 1.410 . S
C915 C923 1.503 . S
C916 C915 1.410 . S
C916 C917 1.392 . S
C916 C919 1.511 . S
C917 C913 1.376 . S
C917 C916 1.392 . S
C917 H929 0.929 . S
C918 C914 1.531 . S
C918 H930 0.960 . S
C918 H931 0.962 . S
C918 H932 0.960 . S
C919 C916 1.511 . S
C919 H933 0.961 . S
C919 H934 0.961 . S
C919 H935 0.961 . S
C920 C921 1.370 . S
C920 C922 1.363 . S
C920 H936 0.931 . S
C921 C920 1.370 . S
C921 C925 1.408 . S
C922 C920 1.363 . S
C922 C923 1.370 . S
C922 C926 1.524 . S
C923 C915 1.503 . S
C923 C922 1.370 . S
C923 C924 1.403 . S
C924 C923 1.403 . S
C924 C925 1.404 . S
C924 C927 1.539 . S
C925 C921 1.408 . S
C925 C924 1.404 . S
C925 H937 0.930 . S
C926 C922 1.524 . S
C926 H938 0.956 . S
C926 H939 0.961 . S
C926 H940 0.961 . S
C927 C924 1.539 . S
C927 H941 0.958 . S
C927 H942 0.961 . S
C927 H943 0.960 . S
H928 C912 0.931 . S
H929 C917 0.929 . S
H930 C918 0.960 . S
H931 C918 0.962 . S
H932 C918 0.960 . S
H933 C919 0.961 . S
H934 C919 0.961 . S
H935 C919 0.961 . S
H936 C920 0.931 . S
H937 C925 0.930 . S
H938 C926 0.956 . S
H939 C926 0.961 . S
H940 C926 0.961 . S
H941 C927 0.958 . S
H942 C927 0.961 . S
H943 C927 0.960 . S
C944 C945 1.391 . S
C944 C946 1.394 . S
C944 H960 0.931 . S
C945 C944 1.391 . S
C945 C949 1.376 . S
C946 C944 1.394 . S
C946 C947 1.369 . S
C946 C950 1.531 . S
C947 C946 1.369 . S
C947 C948 1.410 . S
C947 C955 1.503 . S
C948 C947 1.410 . S
C948 C949 1.392 . S
C948 C951 1.511 . S
C949 C945 1.376 . S
C949 C948 1.392 . S
C949 H961 0.929 . S
C950 C946 1.531 . S
C950 H962 0.960 . S
C950 H963 0.962 . S
C950 H964 0.960 . S
C951 C948 1.511 . S
C951 H965 0.961 . S
C951 H966 0.961 . S
C951 H967 0.961 . S
C952 C953 1.370 . S
C952 C954 1.363 . S
C952 H968 0.931 . S
C953 C952 1.370 . S
C953 C957 1.408 . S
C954 C952 1.363 . S
C954 C955 1.370 . S
C954 C958 1.524 . S
C955 C947 1.503 . S
C955 C954 1.370 . S
C955 C956 1.403 . S
C956 C955 1.403 . S
C956 C957 1.404 . S
C956 C959 1.539 . S
C957 C953 1.408 . S
C957 C956 1.404 . S
C957 H969 0.930 . S
C958 C954 1.524 . S
C958 H970 0.956 . S
C958 H971 0.961 . S
C958 H972 0.961 . S
C959 C956 1.539 . S
C959 H973 0.958 . S
C959 H974 0.961 . S
C959 H975 0.960 . S
H960 C944 0.931 . S
H961 C949 0.929 . S
H962 C950 0.960 . S
H963 C950 0.962 . S
H964 C950 0.960 . S
H965 C951 0.961 . S
H966 C951 0.961 . S
H967 C951 0.961 . S
H968 C952 0.931 . S
H969 C957 0.930 . S
H970 C958 0.956 . S
H971 C958 0.961 . S
H972 C958 0.961 . S
H973 C959 0.958 . S
H974 C959 0.961 . S
H975 C959 0.960 . S
C976 C977 1.391 . S
C976 C978 1.394 . S
C976 H992 0.931 . S
C977 C976 1.391 . S
C977 C981 1.376 . S
C978 C976 1.394 . S
C978 C979 1.369 1_554 S
C978 C982 1.531 . S
C979 C978 1.369 1_556 S
C979 C980 1.410 . S
C979 C987 1.503 . S
C980 C979 1.410 . S
C980 C981 1.392 1_556 S
C980 C983 1.511 . S
C981 C977 1.376 . S
C981 C980 1.392 1_554 S
C981 H993 0.929 . S
C982 C978 1.531 . S
C982 H994 0.960 . S
C982 H995 0.962 . S
C982 H996 0.960 . S
C983 C980 1.511 . S
C983 H997 0.961 . S
C983 H998 0.961 . S
C983 H999 0.961 1_655 S
C984 C985 1.370 1_655 S
C984 C986 1.363 . S
C984 H1000 0.931 . S
C985 C984 1.370 1_455 S
C985 C989 1.408 . S
C986 C984 1.363 . S
C986 C987 1.370 . S
C986 C990 1.524 . S
C987 C979 1.503 . S
C987 C986 1.370 . S
C987 C988 1.403 1_655 S
C988 C987 1.403 1_455 S
C988 C989 1.404 . S
C988 C991 1.539 1_556 S
C989 C985 1.408 . S
C989 C988 1.404 . S
C989 H1001 0.930 . S
C990 C986 1.524 . S
C990 H1002 0.956 . S
C990 H1003 0.961 . S
C990 H1004 0.961 . S
C991 C988 1.539 1_554 S
C991 H1005 0.958 . S
C991 H1006 0.961 . S
C991 H1007 0.960 . S
H992 C976 0.931 . S
H993 C981 0.929 . S
H994 C982 0.960 . S
H995 C982 0.962 . S
H996 C982 0.960 . S
H997 C983 0.961 . S
H998 C983 0.961 . S
H999 C983 0.961 1_455 S
H1000 C984 0.931 . S
H1001 C989 0.930 . S
H1002 C990 0.956 . S
H1003 C990 0.961 . S
H1004 C990 0.961 . S
H1005 C991 0.958 . S
H1006 C991 0.961 . S
H1007 C991 0.960 . S
C1008 C1009 1.391 1_556 S
C1008 C1010 1.394 . S
C1008 H1024 0.931 . S
C1009 C1008 1.391 1_554 S
C1009 C1013 1.376 . S
C1010 C1008 1.394 . S
C1010 C1011 1.369 . S
C1010 C1014 1.531 . S
C1011 C1010 1.369 . S
C1011 C1012 1.410 1_556 S
C1011 C1019 1.503 . S
C1012 C1011 1.410 1_554 S
C1012 C1013 1.392 . S
C1012 C1015 1.511 . S
C1013 C1009 1.376 . S
C1013 C1012 1.392 . S
C1013 H1025 0.929 . S
C1014 C1010 1.531 . S
C1014 H1026 0.960 . S
C1014 H1027 0.962 . S
C1014 H1028 0.960 . S
C1015 C1012 1.511 . S
C1015 H1029 0.961 . S
C1015 H1030 0.961 . S
C1015 H1031 0.961 . S
C1016 C1017 1.370 . S
C1016 C1018 1.363 . S
C1016 H1032 0.931 . S
C1017 C1016 1.370 . S
C1017 C1021 1.408 1_545 S
C1018 C1016 1.363 . S
C1018 C1019 1.370 1_545 S
C1018 C1022 1.524 1_556 S
C1019 C1011 1.503 . S
C1019 C1018 1.370 1_565 S
C1019 C1020 1.403 . S
C1020 C1019 1.403 . S
C1020 C1021 1.404 . S
C1020 C1023 1.539 . S
C1021 C1017 1.408 1_565 S
C1021 C1020 1.404 . S
C1021 H1033 0.930 . S
C1022 C1018 1.524 1_554 S
C1022 H1034 0.956 1_554 S
C1022 H1035 0.961 . S
C1022 H1036 0.961 . S
C1023 C1020 1.539 . S
C1023 H1037 0.958 . S
C1023 H1038 0.961 . S
C1023 H1039 0.960 . S
H1024 C1008 0.931 . S
H1025 C1013 0.929 . S
H1026 C1014 0.960 . S
H1027 C1014 0.962 . S
H1028 C1014 0.960 . S
H1029 C1015 0.961 . S
H1030 C1015 0.961 . S
H1031 C1015 0.961 . S
H1032 C1016 0.931 . S
H1033 C1021 0.930 . S
H1034 C1022 0.956 1_556 S
H1035 C1022 0.961 . S
H1036 C1022 0.961 . S
H1037 C1023 0.958 . S
H1038 C1023 0.961 . S
H1039 C1023 0.960 . S
C1040 C1041 1.391 . S
C1040 C1042 1.394 . S
C1040 H1056 0.931 . S
C1041 C1040 1.391 . S
C1041 C1045 1.376 1_554 S
C1042 C1040 1.394 . S
C1042 C1043 1.369 1_554 S
C1042 C1046 1.531 . S
C1043 C1042 1.369 1_556 S
C1043 C1044 1.410 . S
C1043 C1051 1.503 . S
C1044 C1043 1.410 . S
C1044 C1045 1.392 . S
C1044 C1047 1.511 . S
C1045 C1041 1.376 1_556 S
C1045 C1044 1.392 . S
C1045 H1057 0.929 . S
C1046 C1042 1.531 . S
C1046 H1058 0.960 . S
C1046 H1059 0.962 . S
C1046 H1060 0.960 . S
C1047 C1044 1.511 . S
C1047 H1061 0.961 . S
C1047 H1062 0.961 . S
C1047 H1063 0.961 . S
C1048 C1049 1.370 . S
C1048 C1050 1.363 . S
C1048 H1064 0.931 . S
C1049 C1048 1.370 . S
C1049 C1053 1.408 . S
C1050 C1048 1.363 . S
C1050 C1051 1.370 . S
C1050 C1054 1.524 . S
C1051 C1043 1.503 . S
C1051 C1050 1.370 . S
C1051 C1052 1.403 . S
C1052 C1051 1.403 . S
C1052 C1053 1.404 . S
C1052 C1055 1.539 1_556 S
C1053 C1049 1.408 . S
C1053 C1052 1.404 . S
C1053 H1065 0.930 . S
C1054 C1050 1.524 . S
C1054 H1066 0.956 . S
C1054 H1067 0.961 . S
C1054 H1068 0.961 . S
C1055 C1052 1.539 1_554 S
C1055 H1069 0.958 . S
C1055 H1070 0.961 . S
C1055 H1071 0.960 . S
H1056 C1040 0.931 . S
H1057 C1045 0.929 . S
H1058 C1046 0.960 . S
H1059 C1046 0.962 . S
H1060 C1046 0.960 . S
H1061 C1047 0.961 . S
H1062 C1047 0.961 . S
H1063 C1047 0.961 . S
H1064 C1048 0.931 . S
H1065 C1053 0.930 . S
H1066 C1054 0.956 . S
H1067 C1054 0.961 . S
H1068 C1054 0.961 . S
H1069 C1055 0.958 . S
H1070 C1055 0.961 . S
H1071 C1055 0.960 . S
C1072 C1073 1.391 . S
C1072 C1074 1.394 . S
C1072 H1088 0.931 . S
C1073 C1072 1.391 . S
C1073 C1077 1.376 1_554 S
C1074 C1072 1.394 . S
C1074 C1075 1.369 1_554 S
C1074 C1078 1.531 . S
C1075 C1074 1.369 1_556 S
C1075 C1076 1.410 . S
C1075 C1083 1.503 . S
C1076 C1075 1.410 . S
C1076 C1077 1.392 . S
C1076 C1079 1.511 . S
C1077 C1073 1.376 1_556 S
C1077 C1076 1.392 . S
C1077 H1089 0.929 . S
C1078 C1074 1.531 . S
C1078 H1090 0.960 . S
C1078 H1091 0.962 . S
C1078 H1092 0.960 . S
C1079 C1076 1.511 . S
C1079 H1093 0.961 . S
C1079 H1094 0.961 . S
C1079 H1095 0.961 . S
C1080 C1081 1.370 . S
C1080 C1082 1.363 . S
C1080 H1096 0.931 . S
C1081 C1080 1.370 . S
C1081 C1085 1.408 . S
C1082 C1080 1.363 . S
C1082 C1083 1.370 . S
C1082 C1086 1.524 . S
C1083 C1075 1.503 . S
C1083 C1082 1.370 . S
C1083 C1084 1.403 . S
C1084 C1083 1.403 . S
C1084 C1085 1.404 . S
C1084 C1087 1.539 1_556 S
C1085 C1081 1.408 . S
C1085 C1084 1.404 . S
C1085 H1097 0.930 . S
C1086 C1082 1.524 . S
C1086 H1098 0.956 . S
C1086 H1099 0.961 . S
C1086 H1100 0.961 . S
C1087 C1084 1.539 1_554 S
C1087 H1101 0.958 . S
C1087 H1102 0.961 . S
C1087 H1103 0.960 . S
H1088 C1072 0.931 . S
H1089 C1077 0.929 . S
H1090 C1078 0.960 . S
H1091 C1078 0.962 . S
H1092 C1078 0.960 . S
H1093 C1079 0.961 . S
H1094 C1079 0.961 . S
H1095 C1079 0.961 . S
H1096 C1080 0.931 . S
H1097 C1085 0.930 . S
H1098 C1086 0.956 . S
H1099 C1086 0.961 . S
H1100 C1086 0.961 . S
H1101 C1087 0.958 . S
H1102 C1087 0.961 . S
H1103 C1087 0.960 . S
C1104 C1105 1.391 . S
C1104 C1106 1.394 . S
C1104 H1120 0.931 . S
C1105 C1104 1.391 . S
C1105 C1109 1.376 . S
C1106 C1104 1.394 . S
C1106 C1107 1.369 . S
C1106 C1110 1.531 . S
C1107 C1106 1.369 . S
C1107 C1108 1.410 . S
C1107 C1115 1.503 . S
C1108 C1107 1.410 . S
C1108 C1109 1.392 . S
C1108 C1111 1.511 . S
C1109 C1105 1.376 . S
C1109 C1108 1.392 . S
C1109 H1121 0.929 . S
C1110 C1106 1.531 . S
C1110 H1122 0.960 . S
C1110 H1123 0.962 . S
C1110 H1124 0.960 . S
C1111 C1108 1.511 . S
C1111 H1125 0.961 1_455 S
C1111 H1126 0.961 . S
C1111 H1127 0.961 . S
C1112 C1113 1.370 . S
C1112 C1114 1.363 . S
C1112 H1128 0.931 . S
C1113 C1112 1.370 . S
C1113 C1117 1.408 . S
C1114 C1112 1.363 . S
C1114 C1115 1.370 . S
C1114 C1118 1.524 . S
C1115 C1107 1.503 . S
C1115 C1114 1.370 . S
C1115 C1116 1.403 . S
C1116 C1115 1.403 . S
C1116 C1117 1.404 . S
C1116 C1119 1.539 . S
C1117 C1113 1.408 . S
C1117 C1116 1.404 . S
C1117 H1129 0.930 . S
C1118 C1114 1.524 . S
C1118 H1130 0.956 . S
C1118 H1131 0.961 . S
C1118 H1132 0.961 . S
C1119 C1116 1.539 . S
C1119 H1133 0.958 . S
C1119 H1134 0.961 . S
C1119 H1135 0.960 . S
H1120 C1104 0.931 . S
H1121 C1109 0.929 . S
H1122 C1110 0.960 . S
H1123 C1110 0.962 . S
H1124 C1110 0.960 . S
H1125 C1111 0.961 1_655 S
H1126 C1111 0.961 . S
H1127 C1111 0.961 . S
H1128 C1112 0.931 . S
H1129 C1117 0.930 . S
H1130 C1118 0.956 . S
H1131 C1118 0.961 . S
H1132 C1118 0.961 . S
H1133 C1119 0.958 . S
H1134 C1119 0.961 . S
H1135 C1119 0.960 . S
C1136 C1137 1.391 . S
C1136 C1138 1.394 . S
C1136 H1152 0.931 . S
C1137 C1136 1.391 . S
C1137 C1141 1.376 . S
C1138 C1136 1.394 . S
C1138 C1139 1.369 . S
C1138 C1142 1.531 . S
C1139 C1138 1.369 . S
C1139 C1140 1.410 . S
C1139 C1147 1.503 . S
C1140 C1139 1.410 . S
C1140 C1141 1.392 . S
C1140 C1143 1.511 . S
C1141 C1137 1.376 . S
C1141 C1140 1.392 . S
C1141 H1153 0.929 . S
C1142 C1138 1.531 . S
C1142 H1154 0.960 . S
C1142 H1155 0.962 1_545 S
C1142 H1156 0.960 1_545 S
C1143 C1140 1.511 . S
C1143 H1157 0.961 . S
C1143 H1158 0.961 . S
C1143 H1159 0.961 . S
C1144 C1145 1.370 . S
C1144 C1146 1.363 . S
C1144 H1160 0.931 . S
C1145 C1144 1.370 . S
C1145 C1149 1.408 . S
C1146 C1144 1.363 . S
C1146 C1147 1.370 . S
C1146 C1150 1.524 . S
C1147 C1139 1.503 . S
C1147 C1146 1.370 . S
C1147 C1148 1.403 . S
C1148 C1147 1.403 . S
C1148 C1149 1.404 . S
C1148 C1151 1.539 . S
C1149 C1145 1.408 . S
C1149 C1148 1.404 . S
C1149 H1161 0.930 . S
C1150 C1146 1.524 . S
C1150 H1162 0.956 . S
C1150 H1163 0.961 . S
C1150 H1164 0.961 . S
C1151 C1148 1.539 . S
C1151 H1165 0.958 . S
C1151 H1166 0.961 . S
C1151 H1167 0.960 . S
H1152 C1136 0.931 . S
H1153 C1141 0.929 . S
H1154 C1142 0.960 . S
H1155 C1142 0.962 1_565 S
H1156 C1142 0.960 1_565 S
H1157 C1143 0.961 . S
H1158 C1143 0.961 . S
H1159 C1143 0.961 . S
H1160 C1144 0.931 . S
H1161 C1149 0.930 . S
H1162 C1150 0.956 . S
H1163 C1150 0.961 . S
H1164 C1150 0.961 . S
H1165 C1151 0.958 . S
H1166 C1151 0.961 . S
H1167 C1151 0.960 . S
C1168 C1169 1.391 . S
C1168 C1170 1.394 . S
C1168 H1184 0.931 . S
C1169 C1168 1.391 . S
C1169 C1173 1.376 . S
C1170 C1168 1.394 . S
C1170 C1171 1.369 . S
C1170 C1174 1.531 . S
C1171 C1170 1.369 . S
C1171 C1172 1.410 . S
C1171 C1179 1.503 . S
C1172 C1171 1.410 . S
C1172 C1173 1.392 . S
C1172 C1175 1.511 . S
C1173 C1169 1.376 . S
C1173 C1172 1.392 . S
C1173 H1185 0.929 . S
C1174 C1170 1.531 . S
C1174 H1186 0.960 . S
C1174 H1187 0.962 . S
C1174 H1188 0.960 . S
C1175 C1172 1.511 . S
C1175 H1189 0.961 . S
C1175 H1190 0.961 . S
C1175 H1191 0.961 . S
C1176 C1177 1.370 . S
C1176 C1178 1.363 . S
C1176 H1192 0.931 . S
C1177 C1176 1.370 . S
C1177 C1181 1.408 . S
C1178 C1176 1.363 . S
C1178 C1179 1.370 . S
C1178 C1182 1.524 . S
C1179 C1171 1.503 . S
C1179 C1178 1.370 . S
C1179 C1180 1.403 . S
C1180 C1179 1.403 . S
C1180 C1181 1.404 . S
C1180 C1183 1.539 . S
C1181 C1177 1.408 . S
C1181 C1180 1.404 . S
C1181 H1193 0.930 . S
C1182 C1178 1.524 . S
C1182 H1194 0.956 . S
C1182 H1195 0.961 . S
C1182 H1196 0.961 . S
C1183 C1180 1.539 . S
C1183 H1197 0.958 . S
C1183 H1198 0.961 . S
C1183 H1199 0.960 . S
H1184 C1168 0.931 . S
H1185 C1173 0.929 . S
H1186 C1174 0.960 . S
H1187 C1174 0.962 . S
H1188 C1174 0.960 . S
H1189 C1175 0.961 . S
H1190 C1175 0.961 . S
H1191 C1175 0.961 . S
H1192 C1176 0.931 . S
H1193 C1181 0.930 . S
H1194 C1182 0.956 . S
H1195 C1182 0.961 . S
H1196 C1182 0.961 . S
H1197 C1183 0.958 . S
H1198 C1183 0.961 . S
H1199 C1183 0.960 . S
C1200 C1201 1.391 . S
C1200 C1202 1.394 . S
C1200 H1216 0.931 . S
C1201 C1200 1.391 . S
C1201 C1205 1.376 . S
C1202 C1200 1.394 . S
C1202 C1203 1.369 . S
C1202 C1206 1.531 . S
C1203 C1202 1.369 . S
C1203 C1204 1.410 . S
C1203 C1211 1.503 . S
C1204 C1203 1.410 . S
C1204 C1205 1.392 . S
C1204 C1207 1.511 . S
C1205 C1201 1.376 . S
C1205 C1204 1.392 . S
C1205 H1217 0.929 . S
C1206 C1202 1.531 . S
C1206 H1218 0.960 . S
C1206 H1219 0.962 . S
C1206 H1220 0.960 . S
C1207 C1204 1.511 . S
C1207 H1221 0.961 . S
C1207 H1222 0.961 . S
C1207 H1223 0.961 . S
C1208 C1209 1.370 . S
C1208 C1210 1.363 . S
C1208 H1224 0.931 . S
C1209 C1208 1.370 . S
C1209 C1213 1.408 . S
C1210 C1208 1.363 . S
C1210 C1211 1.370 . S
C1210 C1214 1.524 . S
C1211 C1203 1.503 . S
C1211 C1210 1.370 . S
C1211 C1212 1.403 . S
C1212 C1211 1.403 . S
C1212 C1213 1.404 . S
C1212 C1215 1.539 . S
C1213 C1209 1.408 . S
C1213 C1212 1.404 . S
C1213 H1225 0.930 . S
C1214 C1210 1.524 . S
C1214 H1226 0.956 . S
C1214 H1227 0.961 . S
C1214 H1228 0.961 . S
C1215 C1212 1.539 . S
C1215 H1229 0.958 . S
C1215 H1230 0.961 . S
C1215 H1231 0.960 . S
H1216 C1200 0.931 . S
H1217 C1205 0.929 . S
H1218 C1206 0.960 . S
H1219 C1206 0.962 . S
H1220 C1206 0.960 . S
H1221 C1207 0.961 . S
H1222 C1207 0.961 . S
H1223 C1207 0.961 . S
H1224 C1208 0.931 . S
H1225 C1213 0.930 . S
H1226 C1214 0.956 . S
H1227 C1214 0.961 . S
H1228 C1214 0.961 . S
H1229 C1215 0.958 . S
H1230 C1215 0.961 . S
H1231 C1215 0.960 . S
C1232 C1233 1.391 . S
C1232 C1234 1.394 . S
C1232 H1248 0.931 . S
C1233 C1232 1.391 . S
C1233 C1237 1.376 . S
C1234 C1232 1.394 . S
C1234 C1235 1.369 . S
C1234 C1238 1.531 . S
C1235 C1234 1.369 . S
C1235 C1236 1.410 . S
C1235 C1243 1.503 . S
C1236 C1235 1.410 . S
C1236 C1237 1.392 . S
C1236 C1239 1.511 . S
C1237 C1233 1.376 . S
C1237 C1236 1.392 . S
C1237 H1249 0.929 . S
C1238 C1234 1.531 . S
C1238 H1250 0.960 . S
C1238 H1251 0.962 . S
C1238 H1252 0.960 . S
C1239 C1236 1.511 . S
C1239 H1253 0.961 . S
C1239 H1254 0.961 . S
C1239 H1255 0.961 1_655 S
C1240 C1241 1.370 . S
C1240 C1242 1.363 . S
C1240 H1256 0.931 . S
C1241 C1240 1.370 . S
C1241 C1245 1.408 . S
C1242 C1240 1.363 . S
C1242 C1243 1.370 . S
C1242 C1246 1.524 . S
C1243 C1235 1.503 . S
C1243 C1242 1.370 . S
C1243 C1244 1.403 . S
C1244 C1243 1.403 . S
C1244 C1245 1.404 . S
C1244 C1247 1.539 . S
C1245 C1241 1.408 . S
C1245 C1244 1.404 . S
C1245 H1257 0.930 . S
C1246 C1242 1.524 . S
C1246 H1258 0.956 . S
C1246 H1259 0.961 . S
C1246 H1260 0.961 . S
C1247 C1244 1.539 . S
C1247 H1261 0.958 . S
C1247 H1262 0.961 1_655 S
C1247 H1263 0.960 . S
H1248 C1232 0.931 . S
H1249 C1237 0.929 . S
H1250 C1238 0.960 . S
H1251 C1238 0.962 . S
H1252 C1238 0.960 . S
H1253 C1239 0.961 . S
H1254 C1239 0.961 . S
H1255 C1239 0.961 1_455 S
H1256 C1240 0.931 . S
H1257 C1245 0.930 . S
H1258 C1246 0.956 . S
H1259 C1246 0.961 . S
H1260 C1246 0.961 . S
H1261 C1247 0.958 . S
H1262 C1247 0.961 1_455 S
H1263 C1247 0.960 . S
C1264 C1265 1.391 . S
C1264 C1266 1.394 . S
C1264 H1280 0.931 . S
C1265 C1264 1.391 . S
C1265 C1269 1.376 . S
C1266 C1264 1.394 . S
C1266 C1267 1.369 . S
C1266 C1270 1.531 . S
C1267 C1266 1.369 . S
C1267 C1268 1.410 . S
C1267 C1275 1.503 . S
C1268 C1267 1.410 . S
C1268 C1269 1.392 . S
C1268 C1271 1.511 . S
C1269 C1265 1.376 . S
C1269 C1268 1.392 . S
C1269 H1281 0.929 . S
C1270 C1266 1.531 . S
C1270 H1282 0.960 . S
C1270 H1283 0.962 . S
C1270 H1284 0.960 . S
C1271 C1268 1.511 . S
C1271 H1285 0.961 . S
C1271 H1286 0.961 . S
C1271 H1287 0.961 . S
C1272 C1273 1.370 . S
C1272 C1274 1.363 . S
C1272 H1288 0.931 . S
C1273 C1272 1.370 . S
C1273 C1277 1.406 1_565 S
C1274 C1272 1.363 . S
C1274 C1275 1.370 . S
C1274 C1278 1.524 . S
C1275 C1267 1.503 . S
C1275 C1274 1.370 . S
C1275 C1276 1.403 . S
C1276 C1275 1.403 . S
C1276 C1277 1.403 1_565 S
C1276 C1279 1.539 1_565 S
C1277 C1273 1.406 1_545 S
C1277 C1276 1.403 1_545 S
C1277 H1289 0.932 . S
C1278 C1274 1.524 . S
C1278 H1290 0.956 . S
C1278 H1291 0.961 . S
C1278 H1292 0.961 . S
C1279 C1276 1.539 1_545 S
C1279 H1293 0.958 . S
C1279 H1294 0.961 . S
C1279 H1295 0.960 . S
H1280 C1264 0.931 . S
H1281 C1269 0.929 . S
H1282 C1270 0.960 . S
H1283 C1270 0.962 . S
H1284 C1270 0.960 . S
H1285 C1271 0.961 . S
H1286 C1271 0.961 . S
H1287 C1271 0.961 . S
H1288 C1272 0.931 . S
H1289 C1277 0.932 . S
H1290 C1278 0.956 . S
H1291 C1278 0.961 . S
H1292 C1278 0.961 . S
H1293 C1279 0.958 . S
H1294 C1279 0.961 . S
H1295 C1279 0.960 . S
C1296 C1297 1.391 . S
C1296 C1298 1.394 . S
C1296 H1312 0.931 . S
C1297 C1296 1.391 . S
C1297 C1301 1.376 . S
C1298 C1296 1.394 . S
C1298 C1299 1.369 . S
C1298 C1302 1.531 . S
C1299 C1298 1.369 . S
C1299 C1300 1.410 . S
C1299 C1307 1.503 . S
C1300 C1299 1.410 . S
C1300 C1301 1.392 . S
C1300 C1303 1.511 . S
C1301 C1297 1.376 . S
C1301 C1300 1.392 . S
C1301 H1313 0.929 . S
C1302 C1298 1.531 . S
C1302 H1314 0.960 . S
C1302 H1315 0.962 . S
C1302 H1316 0.960 . S
C1303 C1300 1.511 . S
C1303 H1317 0.961 . S
C1303 H1318 0.961 . S
C1303 H1319 0.961 . S
C1304 C1305 1.370 . S
C1304 C1306 1.363 . S
C1304 H1320 0.931 . S
C1305 C1304 1.370 . S
C1305 C1309 1.408 . S
C1306 C1304 1.363 . S
C1306 C1307 1.370 . S
C1306 C1310 1.524 . S
C1307 C1299 1.503 . S
C1307 C1306 1.370 . S
C1307 C1308 1.403 . S
C1308 C1307 1.403 . S
C1308 C1309 1.404 . S
C1308 C1311 1.539 . S
C1309 C1305 1.408 . S
C1309 C1308 1.404 . S
C1309 H1321 0.930 . S
C1310 C1306 1.524 . S
C1310 H1322 0.956 . S
C1310 H1323 0.961 . S
C1310 H1324 0.961 . S
C1311 C1308 1.539 . S
C1311 H1325 0.958 . S
C1311 H1326 0.961 . S
C1311 H1327 0.960 . S
H1312 C1296 0.931 . S
H1313 C1301 0.929 . S
H1314 C1302 0.960 . S
H1315 C1302 0.962 . S
H1316 C1302 0.960 . S
H1317 C1303 0.961 . S
H1318 C1303 0.961 . S
H1319 C1303 0.961 . S
H1320 C1304 0.931 . S
H1321 C1309 0.930 . S
H1322 C1310 0.956 . S
H1323 C1310 0.961 . S
H1324 C1310 0.961 . S
H1325 C1311 0.958 . S
H1326 C1311 0.961 . S
H1327 C1311 0.960 . S
C1328 C1329 1.391 . S
C1328 C1330 1.394 . S
C1328 H1344 0.931 . S
C1329 C1328 1.391 . S
C1329 C1333 1.376 . S
C1330 C1328 1.394 . S
C1330 C1331 1.369 . S
C1330 C1334 1.531 . S
C1331 C1330 1.369 . S
C1331 C1332 1.410 . S
C1331 C1339 1.503 . S
C1332 C1331 1.410 . S
C1332 C1333 1.392 . S
C1332 C1335 1.511 . S
C1333 C1329 1.376 . S
C1333 C1332 1.392 . S
C1333 H1345 0.929 . S
C1334 C1330 1.531 . S
C1334 H1346 0.960 . S
C1334 H1347 0.962 . S
C1334 H1348 0.960 . S
C1335 C1332 1.511 . S
C1335 H1349 0.961 . S
C1335 H1350 0.961 . S
C1335 H1351 0.961 . S
C1336 C1337 1.370 . S
C1336 C1338 1.363 . S
C1336 H1352 0.931 . S
C1337 C1336 1.370 . S
C1337 C1341 1.408 . S
C1338 C1336 1.363 . S
C1338 C1339 1.370 . S
C1338 C1342 1.524 . S
C1339 C1331 1.503 . S
C1339 C1338 1.370 . S
C1339 C1340 1.403 . S
C1340 C1339 1.403 . S
C1340 C1341 1.404 . S
C1340 C1343 1.539 . S
C1341 C1337 1.408 . S
C1341 C1340 1.404 . S
C1341 H1353 0.930 . S
C1342 C1338 1.524 . S
C1342 H1354 0.956 . S
C1342 H1355 0.961 . S
C1342 H1356 0.961 . S
C1343 C1340 1.539 . S
C1343 H1357 0.958 . S
C1343 H1358 0.961 . S
C1343 H1359 0.960 . S
H1344 C1328 0.931 . S
H1345 C1333 0.929 . S
H1346 C1334 0.960 . S
H1347 C1334 0.962 . S
H1348 C1334 0.960 . S
H1349 C1335 0.961 . S
H1350 C1335 0.961 . S
H1351 C1335 0.961 . S
H1352 C1336 0.931 . S
H1353 C1341 0.930 . S
H1354 C1342 0.956 . S
H1355 C1342 0.961 . S
H1356 C1342 0.961 . S
H1357 C1343 0.958 . S
H1358 C1343 0.961 . S
H1359 C1343 0.960 . S
C593 C215 2.141 . S
C601 C331 2.155 . S
C633 C415 2.168 . S
C625 C247 2.177 . S
C665 C491 2.086 . S
C657 C151 2.260 . S
C697 C575 2.073 . S
C689 C183 2.265 . S
C729 C322 2.166 1_565 S
C721 C87 2.002 . S
C753 C119 2.061 . S
C761 C406 2.167 . S
C785 C23 2.129 . S
C793 C480 2.107 . S
C817 C55 2.144 . S
C825 C564 2.068 . S
C857 C319 0.601 1_455 S
C849 C189 0.617 . S
C889 C403 0.581 . S
C881 C221 0.548 . S
C921 C496 0.590 . S
C913 C253 0.566 . S
C945 C157 0.612 . S
C953 C580 0.628 . S
C977 C61 0.593 . S
C985 C328 0.606 . S
C1017 C412 0.604 . S
C1009 C93 0.772 . S
C1049 C487 0.547 . S
C1041 C125 0.538 . S
C1073 C29 0.560 . S
C1081 C571 0.580 . S
C1105 C177 2.467 . S
C1113 C312 2.558 . S
C1137 C209 2.487 . S
C1145 C396 2.513 . S
C1177 C490 2.564 . S
C1169 C241 2.379 . S
C1209 C574 2.602 . S
C1201 C145 2.395 . S
C1233 C49 2.414 . S
C1241 C323 2.540 . S
C1273 C407 2.511 . S
C1265 C81 2.363 . S
C1305 C499 2.564 . S
C1297 C113 2.280 . S
C1329 C17 2.312 . S
C1337 C583 2.594 . S
