# Generated by pormake.
# Topology anh, (6,3)-cn, num edge types: 1
# Building blocks:
#     Node 0, Type 0, BuildingBlock: BETFAJ_clean_sbu_0, # of connection points: 6
#     Node 1, Type 0, BuildingBlock: BETFAJ_clean_sbu_0, # of connection points: 6
#     Node 2, Type 0, BuildingBlock: BETFAJ_clean_sbu_0, # of connection points: 6
#     Node 3, Type 1, BuildingBlock: QEWDON_clean_linker_0, # of connection points: 3
#     Node 4, Type 1, BuildingBlock: QEWDON_clean_linker_0, # of connection points: 3
#     Node 5, Type 1, BuildingBlock: QEWDON_clean_linker_0, # of connection points: 3
#     Node 6, Type 1, BuildingBlock: QEWDON_clean_linker_0, # of connection points: 3
#     Node 7, Type 1, BuildingBlock: QEWDON_clean_linker_0, # of connection points: 3
#     Node 8, Type 1, BuildingBlock: QEWDON_clean_linker_0, # of connection points: 3
#     Edge 9, Type (0, 1), BuildingBlock: CIFDUS_clean_linker_0, # of connection points: 2
#     Edge 10, Type (0, 1), BuildingBlock: CIFDUS_clean_linker_0, # of connection points: 2
#     Edge 11, Type (0, 1), BuildingBlock: CIFDUS_clean_linker_0, # of connection points: 2
#     Edge 12, Type (0, 1), BuildingBlock: CIFDUS_clean_linker_0, # of connection points: 2
#     Edge 13, Type (0, 1), BuildingBlock: CIFDUS_clean_linker_0, # of connection points: 2
#     Edge 14, Type (0, 1), BuildingBlock: CIFDUS_clean_linker_0, # of connection points: 2
#     Edge 15, Type (0, 1), BuildingBlock: CIFDUS_clean_linker_0, # of connection points: 2
#     Edge 16, Type (0, 1), BuildingBlock: CIFDUS_clean_linker_0, # of connection points: 2
#     Edge 17, Type (0, 1), BuildingBlock: CIFDUS_clean_linker_0, # of connection points: 2
#     Edge 18, Type (0, 1), BuildingBlock: CIFDUS_clean_linker_0, # of connection points: 2
#     Edge 19, Type (0, 1), BuildingBlock: CIFDUS_clean_linker_0, # of connection points: 2
#     Edge 20, Type (0, 1), BuildingBlock: CIFDUS_clean_linker_0, # of connection points: 2
#     Edge 21, Type (0, 1), BuildingBlock: CIFDUS_clean_linker_0, # of connection points: 2
#     Edge 22, Type (0, 1), BuildingBlock: CIFDUS_clean_linker_0, # of connection points: 2
#     Edge 23, Type (0, 1), BuildingBlock: CIFDUS_clean_linker_0, # of connection points: 2
#     Edge 24, Type (0, 1), BuildingBlock: CIFDUS_clean_linker_0, # of connection points: 2
#     Edge 25, Type (0, 1), BuildingBlock: CIFDUS_clean_linker_0, # of connection points: 2
#     Edge 26, Type (0, 1), BuildingBlock: CIFDUS_clean_linker_0, # of connection points: 2
# Relax obj value: 0.156
# Max RMSD: 0.185
# Mean RMSD: 0.128
data_MOF--net-anh--node1-BETFAJ_clean_sbu_0--node2-QEWDON_clean_linker_0--edge1-CIFDUS_clean_linker_0
_symmetry_space_group_name_H-M    P1
_symmetry_Int_Tables_number       1
_symmetry_cell_setting            triclinic
loop_
_symmetry_equiv_pos_as_xyz
'x, y, z'
_cell_length_a     29.312148
_cell_length_b     35.924676
_cell_length_c     42.347376
_cell_angle_alpha  95.463178
_cell_angle_beta   92.013037
_cell_angle_gamma 131.25891
loop_
_atom_site_label
_atom_site_type_symbol
_atom_site_fract_x
_atom_site_fract_y
_atom_site_fract_z
_atom_type_partial_charge
Sm0 Sm 0.13761 0.55197 0.136 0.0
Sm1 Sm 1.06499 0.57408 0.16692 0.0
C2 C 0.1964 0.53269 0.10327 0.0
C3 C 0.26244 0.56172 0.10802 0.0
C4 C 0.28869 0.54618 0.0909 0.0
C5 C 0.351 0.57219 0.09834 0.0
C6 C 0.3873 0.61368 0.1231 0.0
C7 C 0.36108 0.63004 0.13929 0.0
C8 C 0.29925 0.60428 0.13179 0.0
C9 C 0.14915 0.56244 0.2017 0.0
C10 C 0.21028 0.66987 0.15969 0.0
C11 C 1.01666 0.59449 0.20863 0.0
C12 C 0.96394 0.56138 0.22581 0.0
C13 C 0.93847 0.51188 0.22611 0.0
C14 C 0.87821 0.47547 0.2323 0.0
C15 C 0.84263 0.48818 0.23773 0.0
C16 C 0.87184 0.53931 0.24256 0.0
C17 C 0.93199 0.57562 0.23623 0.0
C18 C 1.05068 0.56217 0.101 0.0
C19 C 0.99336 0.45776 0.14262 0.0
O20 O 0.18035 0.55613 0.09262 0.0
O21 O 0.16809 0.5099 0.12725 0.0
O22 O 0.10035 0.53894 0.1832 0.0
O23 O 0.19498 0.58101 0.18568 0.0
O24 O 0.21197 0.63784 0.14325 0.0
O25 O 0.16056 0.65486 0.17191 0.0
O26 O 1.06434 0.59971 0.21659 0.0
O27 O 1.00292 0.58743 0.17762 0.0
O28 O 0.10061 0.58583 0.11877 0.0
O29 O 1.00643 0.54638 0.11798 0.0
O30 O 0.99809 0.48861 0.16506 0.0
O31 O 1.03726 0.47495 0.12419 0.0
H32 H 0.26081 0.51329 0.07258 0.0
H33 H 0.37014 0.55855 0.08574 0.0
H34 H 0.38807 0.66202 0.15829 0.0
H35 H 0.27979 0.61674 0.14534 0.0
H36 H 0.96274 0.50025 0.21842 0.0
H37 H 0.85716 0.43654 0.22866 0.0
H38 H 0.84595 0.5506 0.24673 0.0
H39 H 0.95114 0.61372 0.23634 0.0
Sm40 Sm 0.7322 0.09725 0.48072 0.0
Sm41 Sm 0.65755 0.13136 0.46289 0.0
C42 C 0.78801 0.07066 0.50681 0.0
C43 C 0.76406 0.0199 0.50845 0.0
C44 C 0.79511 1.01196 0.52851 0.0
C45 C 0.76873 0.96299 0.5317 0.0
C46 C 0.71068 0.92142 0.51508 0.0
C47 C 0.68052 0.92987 0.49458 0.0
C48 C 0.70687 0.97853 0.49136 0.0
C49 C 0.68157 0.07079 0.41784 0.0
C50 C 0.58295 1.01432 0.4728 0.0
C51 C 0.60769 0.16275 0.43631 0.0
C52 C 0.6147 0.20642 0.44784 0.0
C53 C 0.58806 0.21989 0.42967 0.0
C54 C 0.59638 0.26223 0.44111 0.0
C55 C 0.63135 0.29159 0.47097 0.0
C56 C 0.65768 0.2775 0.48896 0.0
C57 C 0.64984 0.23573 0.4774 0.0
C58 C 0.68248 0.14222 0.52867 0.0
C59 C 0.80979 0.21736 0.47472 0.0
O60 O 0.76131 0.08273 0.52333 0.0
O61 O 0.79549 0.08331 0.47811 0.0
O62 O 0.70558 0.11154 0.43549 0.0
O63 O 0.68782 0.04402 0.43258 0.0
O64 O 0.63412 0.03096 0.48915 0.0
O65 O 0.58196 0.04358 0.45621 0.0
O66 O 0.65741 0.17361 0.42796 0.0
O67 O 0.57876 0.12682 0.45383 0.0
O68 O 0.69644 0.12717 0.50664 0.0
O69 O 0.65376 0.15423 0.51596 0.0
O70 O 0.75774 0.20661 0.4663 0.0
O71 O 0.81136 0.18295 0.48203 0.0
H72 H 0.83904 0.04351 0.54211 0.0
H73 H 0.79291 0.9577 0.54782 0.0
H74 H 0.63629 0.89879 0.48103 0.0
H75 H 0.68201 0.98389 0.47587 0.0
H76 H 0.56121 0.19792 0.40664 0.0
H77 H 0.57602 0.27224 0.42642 0.0
H78 H 0.68385 0.29837 0.51227 0.0
H79 H 0.67135 0.22629 0.49165 0.0
Sm80 Sm 0.65057 0.59361 0.83891 0.0
Sm81 Sm 0.56724 0.48461 0.83343 0.0
C82 C 0.70806 0.68686 0.82999 0.0
C83 C 0.69244 0.71803 0.82799 0.0
C84 C 0.72997 0.76162 0.81397 0.0
C85 C 0.71496 0.79113 0.81156 0.0
C86 C 0.66206 0.77744 0.82315 0.0
C87 C 0.62448 0.73346 0.83705 0.0
C88 C 0.63957 0.70411 0.83948 0.0
C89 C 0.63624 0.56039 0.89617 0.0
C90 C 0.49826 0.53016 0.84023 0.0
C91 C 0.51374 0.39114 0.8386 0.0
C92 C 0.52962 0.36084 0.82901 0.0
C93 C 0.50753 0.31942 0.84381 0.0
C94 C 0.52304 0.29085 0.83471 0.0
C95 C 0.56083 0.30319 0.81057 0.0
C96 C 0.58333 0.34523 0.79611 0.0
C97 C 0.56812 0.37386 0.80535 0.0
C98 C 0.58064 0.5168 0.77566 0.0
C99 C 0.72071 0.5488 0.83826 0.0
O100 O 0.68242 0.64964 0.8065 0.0
O101 O 0.70823 0.67444 0.858 0.0
O102 O 0.5934 0.54204 0.87423 0.0
O103 O 0.68905 0.59851 0.88884 0.0
O104 O 0.5534 0.57304 0.83643 0.0
O105 O 0.49295 0.4907 0.84286 0.0
O106 O 0.55106 0.4287 0.86185 0.0
O107 O 0.49759 0.40309 0.81516 0.0
O108 O 0.62421 0.53587 0.79748 0.0
O109 O 0.52853 0.47912 0.78366 0.0
O110 O 0.66395 0.5049 0.8377 0.0
O111 O 0.72786 0.58937 0.83711 0.0
H112 H 0.77092 0.77284 0.80491 0.0
H113 H 0.74511 0.82492 0.80096 0.0
H114 H 0.58284 0.72129 0.84571 0.0
H115 H 0.60985 0.67048 0.85026 0.0
H116 H 0.47837 0.30921 0.8624 0.0
H117 H 0.50574 0.2593 0.84677 0.0
H118 H 0.61183 0.35557 0.77718 0.0
H119 H 0.58611 0.40604 0.79381 0.0
H120 H 0.6267 0.10968 0.22298 0.0
C121 C 0.58848 0.07067 0.21362 0.0
C122 C 0.56346 0.03517 0.23468 0.0
C123 C 0.56422 0.05623 0.18094 0.0
H124 H 0.49144 0.95715 0.23911 0.0
C125 C 0.51266 0.98456 0.22294 0.0
C126 C 0.48694 0.96885 0.19083 0.0
C127 C 0.51315 1.00455 0.16991 0.0
C128 C 0.59058 0.09493 0.15875 0.0
H129 H 0.49366 0.99135 0.14499 0.0
C130 C 0.65227 0.14171 0.16441 0.0
C131 C 0.67528 0.17741 0.14336 0.0
C132 C 0.55303 0.0857 0.13172 0.0
H133 H 0.50511 0.05212 0.12684 0.0
C134 C 0.57598 0.12028 0.11065 0.0
H135 H 0.68298 0.15051 0.18473 0.0
C136 C 0.63641 0.16556 0.11629 0.0
H137 H 0.65221 0.19216 0.09991 0.0
H138 H 0.54624 0.11228 0.09005 0.0
H139 H 0.61041 0.59176 0.59024 0.0
C140 C 0.61353 0.56636 0.5769 0.0
C141 C 0.62983 0.54366 0.59338 0.0
C142 C 0.59809 0.55437 0.54349 0.0
H143 H 0.64278 0.49089 0.58862 0.0
C144 C 0.6323 0.50981 0.57598 0.0
C145 C 0.61604 0.49688 0.54264 0.0
C146 C 0.59931 0.51948 0.52659 0.0
C147 C 0.57593 0.57503 0.52639 0.0
H148 H 0.5867 0.50951 0.50085 0.0
C149 C 0.60811 0.62675 0.53158 0.0
C150 C 0.58646 0.64578 0.51511 0.0
C151 C 0.52173 0.54253 0.50473 0.0
H152 H 0.49574 0.50254 0.50058 0.0
C153 C 0.50002 0.56114 0.48852 0.0
H154 H 0.64992 0.65205 0.54825 0.0
C155 C 0.53207 0.61233 0.49357 0.0
H156 H 0.51475 0.62586 0.48019 0.0
H157 H 0.45827 0.5358 0.47187 0.0
H158 H 0.1299 0.54958 0.90511 0.0
C159 C 0.09713 0.54989 0.8929 0.0
C160 C 1.06358 0.55708 0.91148 0.0
C161 C 1.08607 0.53951 0.85921 0.0
H162 H 0.99481 0.56273 0.9111 0.0
C163 C 1.01916 0.55627 0.89636 0.0
C164 C 1.00325 0.54535 0.86304 0.0
C165 C 1.03715 0.53649 0.84451 0.0
C166 C 0.12141 0.52695 0.84072 0.0
H167 H 1.02566 0.528 0.8188 0.0
C168 C 0.1799 0.54093 0.8524 0.0
C169 C 0.20601 0.5233 0.83429 0.0
C170 C 0.09279 0.49639 0.81066 0.0
H171 H 1.04918 0.48318 0.8005 0.0
C172 C 0.11781 0.48016 0.79316 0.0
H173 H 0.20448 0.56463 0.87529 0.0
C174 C 0.17247 0.49296 0.80463 0.0
H175 H 0.18915 0.47916 0.78955 0.0
H176 H 0.0938 0.45654 0.77014 0.0
H177 H 0.17137 0.57837 0.40325 0.0
C178 C 0.19968 0.61802 0.41192 0.0
C179 C 0.23036 0.65196 0.39011 0.0
C180 C 0.2086 0.63522 0.44486 0.0
H181 H 0.29278 0.72952 0.38402 0.0
C182 C 0.26918 0.70355 0.401 0.0
C183 C 0.27933 0.72239 0.43339 0.0
C184 C 0.24896 0.68808 0.4553 0.0
C185 C 0.18002 0.59836 0.46833 0.0
H186 H 0.2566 0.70282 0.48029 0.0
C187 C 0.12318 0.54777 0.46014 0.0
C188 C 0.1002 0.51315 0.48211 0.0
C189 C 0.21204 0.61316 0.49908 0.0
H190 H 0.25621 0.65044 0.50627 0.0
C191 C 0.1888 0.57975 0.52094 0.0
H192 H 0.09725 0.53504 0.43674 0.0
C193 C 0.13375 0.53043 0.51263 0.0
H194 H 0.1172 0.50571 0.53038 0.0
H195 H 0.21416 0.59207 0.54448 0.0
H196 H 0.60089 1.00781 0.70688 0.0
C197 C 0.59607 0.03332 0.71791 0.0
C198 C 0.61297 0.07352 0.70279 0.0
C199 C 0.56986 0.02422 0.74658 0.0
H200 H 0.61454 0.135 0.70593 0.0
C201 C 0.60514 0.10552 0.71771 0.0
C202 C 0.58089 0.09779 0.7468 0.0
C203 C 0.56369 0.05728 0.76108 0.0
C204 C 0.54317 0.9778 0.76004 0.0
H205 H 0.5444 0.05095 0.78343 0.0
C206 C 0.5753 0.9615 0.76379 0.0
C207 C 0.54935 0.91813 0.77765 0.0
C208 C 0.48428 0.94943 0.76942 0.0
H209 H 0.45798 0.96044 0.76624 0.0
C210 C 0.45825 0.90625 0.78265 0.0
H211 H 0.62086 0.9832 0.75689 0.0
C212 C 0.49046 0.89072 0.78684 0.0
H213 H 0.46889 0.85675 0.79697 0.0
H214 H 0.41282 0.88467 0.78965 0.0
H215 H 0.68856 0.58445 0.076 0.0
C216 C 0.68028 0.55561 0.08819 0.0
C217 C 0.66197 0.51214 0.07014 0.0
C218 C 0.69019 0.5631 0.12159 0.0
H219 H 0.63855 0.44168 0.07104 0.0
C220 C 0.65233 0.47498 0.08544 0.0
C221 C 0.66265 0.4819 0.11912 0.0
C222 C 0.68179 0.52644 0.13688 0.0
C223 C 0.70809 0.60897 0.1402 0.0
H224 H 0.69181 0.53359 0.1627 0.0
C225 C 0.67718 0.62466 0.13165 0.0
C226 C 0.69101 0.66679 0.14916 0.0
C227 C 0.75429 0.63657 0.16657 0.0
H228 H 0.77929 0.62552 0.17356 0.0
C229 C 0.76869 0.67897 0.18405 0.0
H230 H 0.63988 0.60242 0.11211 0.0
C231 C 0.7368 0.69385 0.17562 0.0
H232 H 0.74737 0.72599 0.1898 0.0
H233 H 0.80415 0.69998 0.20441 0.0
H234 H 0.47779 0.64425 0.08679 0.0
H235 H 0.438 0.63448 0.18428 0.0
H236 H 0.53706 0.66143 0.20233 0.0
H237 H 0.62668 0.67393 0.18905 0.0
H238 H 0.6646 0.68008 0.09138 0.0
H239 H 0.57559 0.66969 0.07477 0.0
C240 C 0.49136 0.64871 0.112 0.0
C241 C 0.45059 0.6368 0.13411 0.0
C242 C 0.54804 0.6636 0.12216 0.0
C243 C 0.46879 0.64348 0.16682 0.0
C244 C 0.52529 0.65869 0.17715 0.0
C245 C 0.61668 0.67494 0.16439 0.0
C246 C 0.65142 0.6773 0.14139 0.0
C247 C 0.56431 0.66714 0.15489 0.0
C248 C 0.63796 0.67806 0.1094 0.0
C249 C 0.58685 0.67164 0.09987 0.0
H250 H 0.83025 0.29777 0.45438 0.0
H251 H 0.92432 0.25727 0.49853 0.0
H252 H 1.02124 0.34322 0.50261 0.0
H253 H 1.07987 0.43068 0.4954 0.0
H254 H 0.98821 0.47313 0.45158 0.0
H255 H 0.89074 0.38589 0.44498 0.0
C256 C 0.87191 0.30763 0.46487 0.0
C257 C 0.8692 0.27044 0.47629 0.0
C258 C 0.92837 0.35769 0.46704 0.0
C259 C 0.92424 0.28446 0.48954 0.0
C260 C 0.98004 0.33388 0.49191 0.0
C261 C 1.03863 0.42101 0.48436 0.0
C262 C 1.04175 0.45898 0.47428 0.0
C263 C 0.98267 0.37088 0.48098 0.0
C264 C 0.9877 0.44504 0.45942 0.0
C265 C 0.9317 0.39507 0.4559 0.0
H266 H 0.66907 0.82278 0.77281 0.0
H267 H 0.61826 0.80216 0.86827 0.0
H268 H 0.5832 0.84707 0.8633 0.0
H269 H 0.56151 0.88789 0.83096 0.0
H270 H 0.61101 0.90856 0.73543 0.0
H271 H 0.65403 0.86951 0.7417 0.0
C272 C 0.65121 0.82879 0.79271 0.0
C273 C 0.64555 0.80845 0.82072 0.0
C274 C 0.63109 0.85479 0.78972 0.0
C275 C 0.62191 0.81637 0.84618 0.0
C276 C 0.60218 0.84234 0.84345 0.0
C277 C 0.58191 0.88398 0.81154 0.0
C278 C 0.58243 0.90051 0.78264 0.0
C279 C 0.60552 0.86088 0.81515 0.0
C280 C 0.6102 0.89623 0.75794 0.0
C281 C 0.63434 0.87356 0.76144 0.0
H282 H 0.78758 0.42188 0.18333 0.0
H283 H 0.74843 0.47272 0.2654 0.0
H284 H 0.66437 0.45539 0.23251 0.0
H285 H 0.63194 0.45693 0.17882 0.0
H286 H 0.69489 0.42831 0.09721 0.0
H287 H 0.73587 0.40303 0.1307 0.0
C288 C 0.75869 0.42673 0.1945 0.0
C289 C 0.77604 0.45097 0.22635 0.0
C290 C 0.71538 0.42207 0.17478 0.0
C291 C 0.73699 0.45547 0.24064 0.0
C292 C 0.68963 0.4464 0.22164 0.0
C293 C 0.65384 0.44444 0.16825 0.0
C294 C 0.66344 0.44758 0.13584 0.0
C295 C 0.68315 0.43492 0.18826 0.0
C296 C 0.68791 0.42777 0.12214 0.0
C297 C 0.71225 0.41376 0.14146 0.0
H298 H 0.4676 0.95825 0.43878 0.0
H299 H 0.57159 0.9472 0.50557 0.0
H300 H 0.48548 0.85788 0.50227 0.0
H301 H 0.38259 0.78032 0.47732 0.0
H302 H 0.27876 0.79014 0.40986 0.0
H303 H 0.3613 0.88135 0.41698 0.0
C304 C 0.47125 0.93649 0.4529 0.0
C305 C 0.52683 0.96015 0.47221 0.0
C306 C 0.421 0.88426 0.45087 0.0
C307 C 0.53004 0.9307 0.49028 0.0
C308 C 0.4805 0.87919 0.48848 0.0
C309 C 0.37743 0.8026 0.46485 0.0
C310 C 0.32426 0.77824 0.4432 0.0
C311 C 0.42597 0.85526 0.4685 0.0
C312 C 0.31903 0.80782 0.42676 0.0
C313 C 0.3665 0.86008 0.43067 0.0
H314 H 0.48565 0.20133 0.80335 0.0
H315 H 0.66965 0.33452 0.79363 0.0
H316 H 0.69199 0.28298 0.77298 0.0
H317 H 0.65875 0.19975 0.75677 0.0
H318 H 0.47603 0.06714 0.76837 0.0
H319 H 0.4543 0.11884 0.78991 0.0
C320 C 0.531 0.21926 0.79725 0.0
C321 C 0.57564 0.27184 0.79988 0.0
C322 C 0.54388 0.18944 0.78575 0.0
C323 C 0.63389 0.29414 0.79131 0.0
C324 C 0.6469 0.2647 0.77966 0.0
C325 C 0.61424 0.1823 0.76404 0.0
C326 C 0.56909 0.12975 0.76099 0.0
C327 C 0.60208 0.21229 0.77651 0.0
C328 C 0.51175 0.10755 0.77078 0.0
C329 C 0.49919 0.13707 0.78294 0.0
H330 H 0.76223 0.88001 0.51751 0.0
H331 H 0.59121 0.84557 0.52218 0.0
H332 H 0.53872 0.75814 0.52451 0.0
H333 H 0.53999 0.69054 0.52247 0.0
H334 H 0.70993 0.72361 0.51722 0.0
H335 H 0.7645 0.81262 0.51886 0.0
C336 C 0.71367 0.8535 0.5195 0.0
C337 C 0.68061 0.86926 0.51921 0.0
C338 C 0.68355 0.80302 0.5208 0.0
C339 C 0.61757 0.8343 0.52166 0.0
C340 C 0.58751 0.7843 0.52317 0.0
C341 C 0.58901 0.71724 0.52171 0.0
C342 C 0.62073 0.70039 0.51943 0.0
C343 C 0.61981 0.76808 0.52219 0.0
C344 C 0.68445 0.73562 0.51915 0.0
C345 C 0.7156 0.78647 0.51985 0.0
H346 H 0.7395 0.48056 0.81911 0.0
H347 H 0.83613 0.6303 0.86779 0.0
H348 H 0.92845 0.64315 0.87806 0.0
H349 H 0.98434 0.61253 0.87556 0.0
H350 H 0.89336 0.46608 0.82362 0.0
H351 H 0.79986 0.45241 0.81234 0.0
C352 C 0.78065 0.51624 0.83188 0.0
C353 C 0.77845 0.5543 0.84268 0.0
C354 C 0.83633 0.52444 0.83713 0.0
C355 C 0.83418 0.59995 0.85888 0.0
C356 C 0.88794 0.60747 0.86491 0.0
C357 C 0.94468 0.57776 0.86115 0.0
C358 C 0.94845 0.5408 0.85028 0.0
C359 C 0.89009 0.57019 0.85435 0.0
C360 C 0.89449 0.49614 0.832 0.0
C361 C 0.83994 0.48802 0.8258 0.0
H362 H 0.2223 0.75194 0.15643 0.0
H363 H 0.32606 0.70877 0.17529 0.0
H364 H 0.42081 0.79685 0.18576 0.0
H365 H 0.47451 0.88682 0.19106 0.0
H366 H 0.37314 0.93063 0.1678 0.0
H367 H 0.27774 0.84229 0.15715 0.0
C368 C 0.26573 0.76198 0.16286 0.0
C369 C 0.26704 0.72385 0.16545 0.0
C370 C 0.32064 0.81295 0.16782 0.0
C371 C 0.32377 0.73736 0.17322 0.0
C372 C 0.37804 0.78777 0.17921 0.0
C373 C 0.43156 0.87685 0.18322 0.0
C374 C 0.43083 0.91515 0.18014 0.0
C375 C 0.3771 0.82594 0.17669 0.0
C376 C 0.37492 0.9018 0.17002 0.0
C377 C 0.32032 0.85129 0.16417 0.0
H378 H 0.54834 0.30343 0.46607 0.0
H379 H 0.73431 0.38091 0.5049 0.0
H380 H 0.74594 0.45088 0.53047 0.0
H381 H 0.70231 0.48922 0.54351 0.0
H382 H 0.51868 0.41409 0.50238 0.0
H383 H 0.50764 0.34471 0.4755 0.0
C384 C 0.59182 0.33594 0.47961 0.0
C385 C 0.63995 0.33626 0.48387 0.0
C386 C 0.59868 0.37661 0.49392 0.0
C387 C 0.69578 0.3788 0.50183 0.0
C388 C 0.70272 0.41911 0.51635 0.0
C389 C 0.66006 0.45767 0.52855 0.0
C390 C 0.61135 0.45658 0.52497 0.0
C391 C 0.65423 0.41814 0.51295 0.0
C392 C 0.55695 0.41583 0.5053 0.0
C393 C 0.55053 0.37608 0.49005 0.0
H394 H 0.48303 0.60259 0.85091 0.0
H395 H 0.3777 0.4432 0.83042 0.0
H396 H 0.28328 0.42768 0.82916 0.0
H397 H 0.22657 0.45708 0.83185 0.0
H398 H 0.32715 0.61505 0.85425 0.0
H399 H 0.42392 0.63229 0.8573 0.0
C400 C 0.43962 0.56429 0.84622 0.0
C401 C 0.44004 0.5242 0.84057 0.0
C402 C 0.38293 0.55491 0.84611 0.0
C403 C 0.38142 0.47534 0.8349 0.0
C404 C 0.3263 0.4662 0.83416 0.0
C405 C 0.26938 0.49556 0.83799 0.0
C406 C 0.26704 0.53442 0.84316 0.0
C407 C 0.32589 0.50536 0.83959 0.0
C408 C 0.32499 0.58365 0.85075 0.0
C409 C 0.38125 0.59363 0.85209 0.0
H410 H 0.91505 0.40564 0.18626 0.0
H411 H 0.9472 0.38655 0.08985 0.0
H412 H 0.85407 0.29772 0.08225 0.0
H413 H 0.76066 0.22608 0.10213 0.0
H414 H 0.73036 0.2443 0.19907 0.0
H415 H 0.82586 0.33235 0.20749 0.0
C416 C 0.90183 0.38205 0.16358 0.0
C417 C 0.93805 0.40309 0.13853 0.0
C418 C 0.84859 0.33063 0.15955 0.0
C419 C 0.92041 0.3716 0.10952 0.0
C420 C 0.86702 0.32071 0.10515 0.0
C421 C 0.77535 0.24919 0.12523 0.0
C422 C 0.73813 0.22846 0.14993 0.0
C423 C 0.83043 0.29988 0.12988 0.0
C424 C 0.75821 0.25895 0.17977 0.0
C425 C 0.81262 0.3095 0.18449 0.0
H426 H 0.14066 0.60319 0.06202 0.0
H427 H 0.94509 0.50731 0.06029 0.0
H428 H 0.93199 0.49667 0.00192 0.0
H429 H 0.97553 0.51424 0.95139 0.0
H430 H 0.17123 0.61232 0.95237 0.0
H431 H 0.18466 0.62159 0.01081 0.0
C432 C 0.09521 0.57995 0.04882 0.0
C433 C 1.04389 0.55614 0.06552 0.0
C434 C 0.08798 0.57419 0.01509 0.0
C435 C 0.98534 0.52619 0.04808 0.0
C436 C 0.97779 0.52003 0.01466 0.0
C437 C 1.02131 0.53827 0.96431 0.0
C438 C 1.0723 0.56285 0.94727 0.0
C439 C 1.02874 0.54397 -0.00208 0.0
C440 C 0.13104 0.59264 0.96465 0.0
C441 C 0.13879 0.59819 -0.00185 0.0
H442 H 0.67151 0.12452 0.38139 0.0
H443 H 0.63751 0.9875 0.37744 0.0
H444 H 0.60021 0.96547 0.32052 0.0
H445 H 0.5784 0.98523 0.2718 0.0
H446 H 0.60655 0.11971 0.27547 0.0
H447 H 0.64623 0.14312 0.33228 0.0
C448 C 0.65562 0.08978 0.36805 0.0
C449 C 0.65731 0.05772 0.3836 0.0
C450 C 0.63379 0.07711 0.3352 0.0
C451 C 0.63675 1.01286 0.36603 0.0
C452 C 0.61548 1.00024 0.33345 0.0
C453 C 0.59248 0.01942 0.28501 0.0
C454 C 0.5893 0.05053 0.26919 0.0
C455 C 0.6139 0.03208 0.31779 0.0
C456 C 0.60923 0.09529 0.28675 0.0
C457 C 0.63146 0.10853 0.31938 0.0
H458 H 0.67599 0.55121 0.74179 0.0
H459 H 0.49911 0.50808 0.73621 0.0
H460 H 0.50217 0.51836 0.67994 0.0
H461 H 0.55029 0.5318 0.63121 0.0
H462 H 0.72256 0.56733 0.63467 0.0
H463 H 0.72649 0.56793 0.69271 0.0
C464 C 0.63876 0.54493 0.72827 0.0
C465 C 0.58742 0.529 0.74295 0.0
C466 C 0.6398 0.54909 0.69549 0.0
C467 C 0.53896 0.52023 0.72524 0.0
C468 C 0.54064 0.52603 0.6931 0.0
C469 C 0.58929 0.5407 0.64481 0.0
C470 C 0.63629 0.54989 0.62884 0.0
C471 C 0.59013 0.53934 0.67781 0.0
C472 C 0.68591 0.56021 0.64656 0.0
C473 C 0.68807 0.56048 0.67968 0.0
H474 H 0.63883 0.06065 0.55529 0.0
H475 H 0.73621 0.21809 0.57794 0.0
H476 H 0.73218 0.21209 0.6351 0.0
H477 H 0.69209 0.16055 0.67764 0.0
H478 H 0.57815 1.0 0.65343 0.0
H479 H 0.5997 1.00895 0.59844 0.0
C480 C 0.66031 0.09371 0.57294 0.0
C481 C 0.68855 0.1399 0.56281 0.0
C482 C 0.65462 0.08929 0.60551 0.0
C483 C 0.71482 0.18236 0.5855 0.0
C484 C 0.71223 0.17883 0.61807 0.0
C485 C 0.67136 0.12726 0.66044 0.0
C486 C 0.6328 0.07959 0.67011 0.0
C487 C 0.6806 0.13217 0.62824 0.0
C488 C 0.60862 0.03739 0.6473 0.0
C489 C 0.62027 0.04233 0.61552 0.0
H490 H 0.71796 0.5663 0.93323 0.0
H491 H 0.53413 0.50971 0.92593 0.0
H492 H 0.52222 0.48288 0.97838 0.0
H493 H 0.56874 0.48397 0.02863 0.0
H494 H 0.75119 0.53814 0.03498 0.0
H495 H 0.75895 0.55655 0.98021 0.0
C496 C 0.67526 0.5478 0.94314 0.0
C497 C 0.62745 0.54086 0.92638 0.0
C498 C 0.66846 0.53172 0.97288 0.0
C499 C 0.5717 0.51583 0.93881 0.0
C500 C 0.56489 0.50049 0.96869 0.0
C501 C 0.60917 0.49818 0.01744 0.0
C502 C 0.65911 0.50931 0.03525 0.0
C503 C 0.61343 0.50919 0.98621 0.0
C504 C 0.712 0.52863 0.02118 0.0
C505 C 0.71666 0.53969 0.99013 0.0
H506 H 0.2523 0.62119 0.2443 0.0
H507 H 1.05563 0.51888 0.23792 0.0
H508 H 1.06268 0.53462 0.29612 0.0
H509 H 0.12559 0.5815 0.34881 0.0
H510 H 0.32231 0.6843 0.35459 0.0
H511 H 0.3146 0.66396 0.29687 0.0
C512 C 0.21104 0.60207 0.25572 0.0
C513 C 0.15358 0.56945 0.23692 0.0
C514 C 0.21553 0.6114 0.28914 0.0
C515 C 0.10041 0.54472 0.25195 0.0
C516 C 0.10443 0.55358 0.28522 0.0
C517 C 0.16657 0.59873 0.3374 0.0
C518 C 0.22438 0.63456 0.35578 0.0
C519 C 0.16181 0.58738 0.30407 0.0
C520 C 0.2773 0.65698 0.34078 0.0
C521 C 0.27295 0.6454 0.30782 0.0
loop_
_geom_bond_atom_site_label_1
_geom_bond_atom_site_label_2
_geom_bond_distance
_geom_bond_site_symmetry_2
_ccdc_geom_bond_type
Sm0 C2 2.846 . S
Sm0 O20 2.543 . S
Sm0 O21 2.450 . S
Sm0 O22 2.681 . S
Sm0 O23 2.464 . S
Sm0 O24 2.396 . S
Sm0 O28 2.386 . S
Sm0 O31 2.408 1_455 S
Sm1 C11 2.846 1_455 S
Sm1 O22 2.386 . S
Sm1 O25 2.408 . S
Sm1 O26 2.543 1_455 S
Sm1 O27 2.450 1_455 S
Sm1 O28 2.681 . S
Sm1 O29 2.464 . S
Sm1 O30 2.396 1_455 S
C2 Sm0 2.846 . S
C2 C3 1.506 . S
C2 O20 1.261 . S
C2 O21 1.242 . S
C3 C2 1.506 . S
C3 C4 1.358 . S
C3 C8 1.382 . S
C4 C3 1.358 . S
C4 C5 1.385 . S
C4 H32 0.930 . S
C5 C4 1.385 . S
C5 C6 1.395 . S
C5 H33 0.929 . S
C6 C5 1.395 . S
C6 C7 1.335 . S
C7 C6 1.335 . S
C7 C8 1.398 . S
C7 H34 0.930 . S
C8 C3 1.382 . S
C8 C7 1.398 . S
C8 H35 0.929 . S
C9 O22 1.271 . S
C9 O23 1.251 . S
C10 O24 1.252 . S
C10 O25 1.272 . S
C11 Sm1 2.846 1_655 S
C11 C12 1.506 . S
C11 O26 1.261 . S
C11 O27 1.242 . S
C12 C11 1.506 . S
C12 C13 1.358 . S
C12 C17 1.382 . S
C13 C12 1.358 . S
C13 C14 1.385 . S
C13 H36 0.930 . S
C14 C13 1.385 . S
C14 C15 1.395 . S
C14 H37 0.929 . S
C15 C14 1.395 . S
C15 C16 1.335 . S
C16 C15 1.335 . S
C16 C17 1.398 . S
C16 H38 0.930 . S
C17 C12 1.382 . S
C17 C16 1.398 . S
C17 H39 0.929 . S
C18 O28 1.271 . S
C18 O29 1.251 . S
C19 O30 1.252 . S
C19 O31 1.272 . S
O20 Sm0 2.543 . S
O20 C2 1.261 . S
O21 Sm0 2.450 . S
O21 C2 1.242 . S
O22 Sm0 2.681 . S
O22 Sm1 2.386 . S
O22 C9 1.271 . S
O23 Sm0 2.464 . S
O23 C9 1.251 . S
O24 Sm0 2.396 . S
O24 C10 1.252 . S
O25 Sm1 2.408 . S
O25 C10 1.272 . S
O26 Sm1 2.543 1_655 S
O26 C11 1.261 . S
O27 Sm1 2.450 1_655 S
O27 C11 1.242 . S
O28 Sm0 2.386 . S
O28 Sm1 2.681 . S
O28 C18 1.271 . S
O29 Sm1 2.464 . S
O29 C18 1.251 . S
O30 Sm1 2.396 1_655 S
O30 C19 1.252 . S
O31 Sm0 2.408 1_655 S
O31 C19 1.272 . S
H32 C4 0.930 . S
H33 C5 0.929 . S
H34 C7 0.930 . S
H35 C8 0.929 . S
H36 C13 0.930 . S
H37 C14 0.929 . S
H38 C16 0.930 . S
H39 C17 0.929 . S
Sm40 C42 2.846 1_545 S
Sm40 O60 2.543 1_545 S
Sm40 O61 2.450 1_545 S
Sm40 O62 2.681 . S
Sm40 O63 2.464 . S
Sm40 O64 2.396 1_545 S
Sm40 O68 2.386 . S
Sm40 O71 2.408 . S
Sm41 C51 2.846 . S
Sm41 O62 2.386 . S
Sm41 O65 2.408 1_545 S
Sm41 O66 2.543 . S
Sm41 O67 2.450 . S
Sm41 O68 2.681 . S
Sm41 O69 2.464 . S
Sm41 O70 2.396 . S
C42 Sm40 2.846 1_565 S
C42 C43 1.506 . S
C42 O60 1.261 . S
C42 O61 1.242 . S
C43 C42 1.506 . S
C43 C44 1.358 . S
C43 C48 1.382 . S
C44 C43 1.358 . S
C44 C45 1.385 . S
C44 H72 0.930 . S
C45 C44 1.385 . S
C45 C46 1.395 . S
C45 H73 0.929 . S
C46 C45 1.395 . S
C46 C47 1.335 . S
C47 C46 1.335 . S
C47 C48 1.398 . S
C47 H74 0.930 . S
C48 C43 1.382 . S
C48 C47 1.398 . S
C48 H75 0.929 . S
C49 O62 1.271 . S
C49 O63 1.251 . S
C50 O64 1.252 . S
C50 O65 1.272 . S
C51 Sm41 2.846 . S
C51 C52 1.506 . S
C51 O66 1.261 . S
C51 O67 1.242 . S
C52 C51 1.506 . S
C52 C53 1.358 . S
C52 C57 1.382 . S
C53 C52 1.358 . S
C53 C54 1.385 . S
C53 H76 0.930 . S
C54 C53 1.385 . S
C54 C55 1.395 . S
C54 H77 0.929 . S
C55 C54 1.395 . S
C55 C56 1.335 . S
C56 C55 1.335 . S
C56 C57 1.398 . S
C56 H78 0.930 . S
C57 C52 1.382 . S
C57 C56 1.398 . S
C57 H79 0.929 . S
C58 O68 1.271 . S
C58 O69 1.251 . S
C59 O70 1.252 . S
C59 O71 1.272 . S
O60 Sm40 2.543 1_565 S
O60 C42 1.261 . S
O61 Sm40 2.450 1_565 S
O61 C42 1.242 . S
O62 Sm40 2.681 . S
O62 Sm41 2.386 . S
O62 C49 1.271 . S
O63 Sm40 2.464 . S
O63 C49 1.251 . S
O64 Sm40 2.396 1_565 S
O64 C50 1.252 . S
O65 Sm41 2.408 1_565 S
O65 C50 1.272 . S
O66 Sm41 2.543 . S
O66 C51 1.261 . S
O67 Sm41 2.450 . S
O67 C51 1.242 . S
O68 Sm40 2.386 . S
O68 Sm41 2.681 . S
O68 C58 1.271 . S
O69 Sm41 2.464 . S
O69 C58 1.251 . S
O70 Sm41 2.396 . S
O70 C59 1.252 . S
O71 Sm40 2.408 . S
O71 C59 1.272 . S
H72 C44 0.930 . S
H73 C45 0.929 . S
H74 C47 0.930 . S
H75 C48 0.929 . S
H76 C53 0.930 . S
H77 C54 0.929 . S
H78 C56 0.930 . S
H79 C57 0.929 . S
Sm80 C82 2.846 . S
Sm80 O100 2.543 . S
Sm80 O101 2.450 . S
Sm80 O102 2.681 . S
Sm80 O103 2.464 . S
Sm80 O104 2.396 . S
Sm80 O108 2.386 . S
Sm80 O111 2.408 . S
Sm81 C91 2.846 . S
Sm81 O102 2.386 . S
Sm81 O105 2.408 . S
Sm81 O106 2.543 . S
Sm81 O107 2.450 . S
Sm81 O108 2.681 . S
Sm81 O109 2.464 . S
Sm81 O110 2.396 . S
C82 Sm80 2.846 . S
C82 C83 1.506 . S
C82 O100 1.261 . S
C82 O101 1.242 . S
C83 C82 1.506 . S
C83 C84 1.358 . S
C83 C88 1.382 . S
C84 C83 1.358 . S
C84 C85 1.385 . S
C84 H112 0.930 . S
C85 C84 1.385 . S
C85 C86 1.395 . S
C85 H113 0.929 . S
C86 C85 1.395 . S
C86 C87 1.335 . S
C87 C86 1.335 . S
C87 C88 1.398 . S
C87 H114 0.930 . S
C88 C83 1.382 . S
C88 C87 1.398 . S
C88 H115 0.929 . S
C89 O102 1.271 . S
C89 O103 1.251 . S
C90 O104 1.252 . S
C90 O105 1.272 . S
C91 Sm81 2.846 . S
C91 C92 1.506 . S
C91 O106 1.261 . S
C91 O107 1.242 . S
C92 C91 1.506 . S
C92 C93 1.358 . S
C92 C97 1.382 . S
C93 C92 1.358 . S
C93 C94 1.385 . S
C93 H116 0.930 . S
C94 C93 1.385 . S
C94 C95 1.395 . S
C94 H117 0.929 . S
C95 C94 1.395 . S
C95 C96 1.335 . S
C96 C95 1.335 . S
C96 C97 1.398 . S
C96 H118 0.930 . S
C97 C92 1.382 . S
C97 C96 1.398 . S
C97 H119 0.929 . S
C98 O108 1.271 . S
C98 O109 1.251 . S
C99 O110 1.252 . S
C99 O111 1.272 . S
O100 Sm80 2.543 . S
O100 C82 1.261 . S
O101 Sm80 2.450 . S
O101 C82 1.242 . S
O102 Sm80 2.681 . S
O102 Sm81 2.386 . S
O102 C89 1.271 . S
O103 Sm80 2.464 . S
O103 C89 1.251 . S
O104 Sm80 2.396 . S
O104 C90 1.252 . S
O105 Sm81 2.408 . S
O105 C90 1.272 . S
O106 Sm81 2.543 . S
O106 C91 1.261 . S
O107 Sm81 2.450 . S
O107 C91 1.242 . S
O108 Sm80 2.386 . S
O108 Sm81 2.681 . S
O108 C98 1.271 . S
O109 Sm81 2.464 . S
O109 C98 1.251 . S
O110 Sm81 2.396 . S
O110 C99 1.252 . S
O111 Sm80 2.408 . S
O111 C99 1.272 . S
H112 C84 0.930 . S
H113 C85 0.929 . S
H114 C87 0.930 . S
H115 C88 0.929 . S
H116 C93 0.930 . S
H117 C94 0.929 . S
H118 C96 0.930 . S
H119 C97 0.929 . S
H120 C121 0.949 . S
C121 H120 0.949 . S
C121 C122 1.395 . S
C121 C123 1.391 . S
C122 C121 1.395 . S
C122 C125 1.390 1_545 S
C123 C121 1.391 . S
C123 C127 1.387 . S
C123 C128 1.491 . S
H124 C125 0.950 . S
C125 C122 1.390 1_565 S
C125 H124 0.950 . S
C125 C126 1.378 . S
C126 C125 1.378 . S
C126 C127 1.409 1_565 S
C127 C123 1.387 . S
C127 C126 1.409 1_545 S
C127 H129 0.951 . S
C128 C123 1.491 . S
C128 C130 1.382 . S
C128 C132 1.404 . S
H129 C127 0.951 . S
C130 C128 1.382 . S
C130 C131 1.390 . S
C130 H135 0.949 . S
C131 C130 1.390 . S
C131 C136 1.399 . S
C132 C128 1.404 . S
C132 H133 0.950 . S
C132 C134 1.375 . S
H133 C132 0.950 . S
C134 C132 1.375 . S
C134 C136 1.382 . S
C134 H138 0.950 . S
H135 C130 0.949 . S
C136 C131 1.399 . S
C136 C134 1.382 . S
C136 H137 0.952 . S
H137 C136 0.952 . S
H138 C134 0.950 . S
H139 C140 0.949 . S
C140 H139 0.949 . S
C140 C141 1.395 . S
C140 C142 1.391 . S
C141 C140 1.395 . S
C141 C144 1.390 . S
C142 C140 1.391 . S
C142 C146 1.387 . S
C142 C147 1.491 . S
H143 C144 0.950 . S
C144 C141 1.390 . S
C144 H143 0.950 . S
C144 C145 1.378 . S
C145 C144 1.378 . S
C145 C146 1.409 . S
C146 C142 1.387 . S
C146 C145 1.409 . S
C146 H148 0.951 . S
C147 C142 1.491 . S
C147 C149 1.382 . S
C147 C151 1.404 . S
H148 C146 0.951 . S
C149 C147 1.382 . S
C149 C150 1.390 . S
C149 H154 0.949 . S
C150 C149 1.390 . S
C150 C155 1.399 . S
C151 C147 1.404 . S
C151 H152 0.950 . S
C151 C153 1.375 . S
H152 C151 0.950 . S
C153 C151 1.375 . S
C153 C155 1.382 . S
C153 H157 0.950 . S
H154 C149 0.949 . S
C155 C150 1.399 . S
C155 C153 1.382 . S
C155 H156 0.952 . S
H156 C155 0.952 . S
H157 C153 0.950 . S
H158 C159 0.949 . S
C159 H158 0.949 . S
C159 C160 1.395 . S
C159 C161 1.391 . S
C160 C159 1.395 . S
C160 C163 1.390 . S
C161 C159 1.391 . S
C161 C165 1.387 . S
C161 C166 1.491 . S
H162 C163 0.950 1_655 S
C163 C160 1.390 . S
C163 H162 0.950 1_455 S
C163 C164 1.378 1_455 S
C164 C163 1.378 1_655 S
C164 C165 1.409 1_655 S
C165 C161 1.387 . S
C165 C164 1.409 1_455 S
C165 H167 0.951 . S
C166 C161 1.491 . S
C166 C168 1.382 . S
C166 C170 1.404 . S
H167 C165 0.951 . S
C168 C166 1.382 . S
C168 C169 1.390 . S
C168 H173 0.949 . S
C169 C168 1.390 . S
C169 C174 1.399 . S
C170 C166 1.404 . S
C170 H171 0.950 . S
C170 C172 1.375 . S
H171 C170 0.950 . S
C172 C170 1.375 . S
C172 C174 1.382 . S
C172 H176 0.950 . S
H173 C168 0.949 . S
C174 C169 1.399 . S
C174 C172 1.382 . S
C174 H175 0.952 . S
H175 C174 0.952 . S
H176 C172 0.950 . S
H177 C178 0.951 . S
C178 H177 0.951 . S
C178 C179 1.391 1_655 S
C178 C180 1.392 1_655 S
C179 C178 1.391 1_455 S
C179 C182 1.390 . S
C180 C178 1.392 1_455 S
C180 C184 1.387 . S
C180 C185 1.491 1_455 S
H181 C182 0.950 . S
C182 C179 1.390 . S
C182 H181 0.950 . S
C182 C183 1.378 . S
C183 C182 1.378 . S
C183 C184 1.409 . S
C184 C180 1.387 . S
C184 C183 1.409 . S
C184 H186 0.951 . S
C185 C180 1.491 1_655 S
C185 C187 1.382 . S
C185 C189 1.404 . S
H186 C184 0.951 . S
C187 C185 1.382 . S
C187 C188 1.390 . S
C187 H192 0.949 . S
C188 C187 1.390 . S
C188 C193 1.399 . S
C189 C185 1.404 . S
C189 H190 0.950 . S
C189 C191 1.375 . S
H190 C189 0.950 . S
C191 C189 1.375 . S
C191 C193 1.382 . S
C191 H195 0.950 . S
H192 C187 0.949 . S
C193 C188 1.399 . S
C193 C191 1.382 . S
C193 H194 0.952 . S
H194 C193 0.952 . S
H195 C191 0.950 . S
H196 C197 0.949 . S
C197 H196 0.949 . S
C197 C198 1.395 . S
C197 C199 1.391 . S
C198 C197 1.395 . S
C198 C201 1.390 . S
C199 C197 1.391 . S
C199 C203 1.387 . S
C199 C204 1.491 . S
H200 C201 0.950 . S
C201 C198 1.390 . S
C201 H200 0.950 . S
C201 C202 1.378 . S
C202 C201 1.378 . S
C202 C203 1.409 . S
C203 C199 1.387 . S
C203 C202 1.409 . S
C203 H205 0.951 . S
C204 C199 1.491 . S
C204 C206 1.382 1_545 S
C204 C208 1.404 1_545 S
H205 C203 0.951 . S
C206 C204 1.382 1_565 S
C206 C207 1.390 . S
C206 H211 0.949 . S
C207 C206 1.390 . S
C207 C212 1.399 . S
C208 C204 1.404 1_565 S
C208 H209 0.950 1_565 S
C208 C210 1.375 . S
H209 C208 0.950 1_545 S
C210 C208 1.375 . S
C210 C212 1.382 . S
C210 H214 0.950 . S
H211 C206 0.949 . S
C212 C207 1.399 . S
C212 C210 1.382 . S
C212 H213 0.952 . S
H213 C212 0.952 . S
H214 C210 0.950 . S
H215 C216 0.949 . S
C216 H215 0.949 . S
C216 C217 1.395 . S
C216 C218 1.391 . S
C217 C216 1.395 . S
C217 C220 1.390 . S
C218 C216 1.391 . S
C218 C222 1.387 . S
C218 C223 1.491 . S
H219 C220 0.950 . S
C220 C217 1.390 . S
C220 H219 0.950 . S
C220 C221 1.378 . S
C221 C220 1.378 . S
C221 C222 1.409 . S
C222 C218 1.387 . S
C222 C221 1.409 . S
C222 H224 0.951 . S
C223 C218 1.491 . S
C223 C225 1.382 . S
C223 C227 1.404 . S
H224 C222 0.951 . S
C225 C223 1.382 . S
C225 C226 1.390 . S
C225 H230 0.949 . S
C226 C225 1.390 . S
C226 C231 1.399 . S
C227 C223 1.404 . S
C227 H228 0.950 . S
C227 C229 1.375 . S
H228 C227 0.950 . S
C229 C227 1.375 . S
C229 C231 1.382 . S
C229 H233 0.950 . S
H230 C225 0.949 . S
C231 C226 1.399 . S
C231 C229 1.382 . S
C231 H232 0.952 . S
H232 C231 0.952 . S
H233 C229 0.950 . S
H234 C240 0.930 . S
H235 C243 0.930 . S
H236 C244 0.930 . S
H237 C245 0.930 . S
H238 C248 0.930 . S
H239 C249 0.930 . S
C240 H234 0.930 . S
C240 C241 1.355 . S
C240 C242 1.415 . S
C241 C240 1.355 . S
C241 C243 1.419 . S
C242 C240 1.415 . S
C242 C247 1.425 . S
C242 C249 1.409 . S
C243 H235 0.930 . S
C243 C241 1.419 . S
C243 C244 1.362 . S
C244 H236 0.930 . S
C244 C243 1.362 . S
C244 C247 1.409 . S
C245 H237 0.930 . S
C245 C246 1.355 . S
C245 C247 1.415 . S
C246 C245 1.355 . S
C246 C248 1.419 . S
C247 C242 1.425 . S
C247 C244 1.409 . S
C247 C245 1.415 . S
C248 H238 0.930 . S
C248 C246 1.419 . S
C248 C249 1.362 . S
C249 H239 0.930 . S
C249 C242 1.409 . S
C249 C248 1.362 . S
H250 C256 0.930 . S
H251 C259 0.930 . S
H252 C260 0.930 . S
H253 C261 0.930 . S
H254 C264 0.930 . S
H255 C265 0.930 . S
C256 H250 0.930 . S
C256 C257 1.355 . S
C256 C258 1.415 . S
C257 C256 1.355 . S
C257 C259 1.419 . S
C258 C256 1.415 . S
C258 C263 1.425 . S
C258 C265 1.409 . S
C259 H251 0.930 . S
C259 C257 1.419 . S
C259 C260 1.362 . S
C260 H252 0.930 . S
C260 C259 1.362 . S
C260 C263 1.409 . S
C261 H253 0.930 . S
C261 C262 1.355 . S
C261 C263 1.415 . S
C262 C261 1.355 . S
C262 C264 1.419 . S
C263 C258 1.425 . S
C263 C260 1.409 . S
C263 C261 1.415 . S
C264 H254 0.930 . S
C264 C262 1.419 . S
C264 C265 1.362 . S
C265 H255 0.930 . S
C265 C258 1.409 . S
C265 C264 1.362 . S
H266 C272 0.930 . S
H267 C275 0.930 . S
H268 C276 0.930 . S
H269 C277 0.930 . S
H270 C280 0.930 . S
H271 C281 0.930 . S
C272 H266 0.930 . S
C272 C273 1.355 . S
C272 C274 1.415 . S
C273 C272 1.355 . S
C273 C275 1.419 . S
C274 C272 1.415 . S
C274 C279 1.425 . S
C274 C281 1.409 . S
C275 H267 0.930 . S
C275 C273 1.419 . S
C275 C276 1.362 . S
C276 H268 0.930 . S
C276 C275 1.362 . S
C276 C279 1.409 . S
C277 H269 0.930 . S
C277 C278 1.355 . S
C277 C279 1.415 . S
C278 C277 1.355 . S
C278 C280 1.419 . S
C279 C274 1.425 . S
C279 C276 1.409 . S
C279 C277 1.415 . S
C280 H270 0.930 . S
C280 C278 1.419 . S
C280 C281 1.362 . S
C281 H271 0.930 . S
C281 C274 1.409 . S
C281 C280 1.362 . S
H282 C288 0.930 . S
H283 C291 0.930 . S
H284 C292 0.930 . S
H285 C293 0.930 . S
H286 C296 0.930 . S
H287 C297 0.930 . S
C288 H282 0.930 . S
C288 C289 1.355 . S
C288 C290 1.415 . S
C289 C288 1.355 . S
C289 C291 1.419 . S
C290 C288 1.415 . S
C290 C295 1.425 . S
C290 C297 1.409 . S
C291 H283 0.930 . S
C291 C289 1.419 . S
C291 C292 1.362 . S
C292 H284 0.930 . S
C292 C291 1.362 . S
C292 C295 1.409 . S
C293 H285 0.930 . S
C293 C294 1.355 . S
C293 C295 1.415 . S
C294 C293 1.355 . S
C294 C296 1.419 . S
C295 C290 1.425 . S
C295 C292 1.409 . S
C295 C293 1.415 . S
C296 H286 0.930 . S
C296 C294 1.419 . S
C296 C297 1.362 . S
C297 H287 0.930 . S
C297 C290 1.409 . S
C297 C296 1.362 . S
H298 C304 0.930 . S
H299 C307 0.930 . S
H300 C308 0.930 . S
H301 C309 0.930 . S
H302 C312 0.930 . S
H303 C313 0.930 . S
C304 H298 0.930 . S
C304 C305 1.355 . S
C304 C306 1.415 . S
C305 C304 1.355 . S
C305 C307 1.419 . S
C306 C304 1.415 . S
C306 C311 1.425 . S
C306 C313 1.409 . S
C307 H299 0.930 . S
C307 C305 1.419 . S
C307 C308 1.362 . S
C308 H300 0.930 . S
C308 C307 1.362 . S
C308 C311 1.409 . S
C309 H301 0.930 . S
C309 C310 1.355 . S
C309 C311 1.415 . S
C310 C309 1.355 . S
C310 C312 1.419 . S
C311 C306 1.425 . S
C311 C308 1.409 . S
C311 C309 1.415 . S
C312 H302 0.930 . S
C312 C310 1.419 . S
C312 C313 1.362 . S
C313 H303 0.930 . S
C313 C306 1.409 . S
C313 C312 1.362 . S
H314 C320 0.930 . S
H315 C323 0.930 . S
H316 C324 0.930 . S
H317 C325 0.930 . S
H318 C328 0.930 . S
H319 C329 0.930 . S
C320 H314 0.930 . S
C320 C321 1.355 . S
C320 C322 1.415 . S
C321 C320 1.355 . S
C321 C323 1.419 . S
C322 C320 1.415 . S
C322 C327 1.425 . S
C322 C329 1.409 . S
C323 H315 0.930 . S
C323 C321 1.419 . S
C323 C324 1.362 . S
C324 H316 0.930 . S
C324 C323 1.362 . S
C324 C327 1.409 . S
C325 H317 0.930 . S
C325 C326 1.355 . S
C325 C327 1.415 . S
C326 C325 1.355 . S
C326 C328 1.419 . S
C327 C322 1.425 . S
C327 C324 1.409 . S
C327 C325 1.415 . S
C328 H318 0.930 . S
C328 C326 1.419 . S
C328 C329 1.362 . S
C329 H319 0.930 . S
C329 C322 1.409 . S
C329 C328 1.362 . S
H330 C336 0.930 . S
H331 C339 0.930 . S
H332 C340 0.930 . S
H333 C341 0.930 . S
H334 C344 0.930 . S
H335 C345 0.930 . S
C336 H330 0.930 . S
C336 C337 1.355 . S
C336 C338 1.415 . S
C337 C336 1.355 . S
C337 C339 1.419 . S
C338 C336 1.415 . S
C338 C343 1.425 . S
C338 C345 1.409 . S
C339 H331 0.930 . S
C339 C337 1.419 . S
C339 C340 1.362 . S
C340 H332 0.930 . S
C340 C339 1.362 . S
C340 C343 1.409 . S
C341 H333 0.930 . S
C341 C342 1.355 . S
C341 C343 1.415 . S
C342 C341 1.355 . S
C342 C344 1.419 . S
C343 C338 1.425 . S
C343 C340 1.409 . S
C343 C341 1.415 . S
C344 H334 0.930 . S
C344 C342 1.419 . S
C344 C345 1.362 . S
C345 H335 0.930 . S
C345 C338 1.409 . S
C345 C344 1.362 . S
H346 C352 0.930 . S
H347 C355 0.930 . S
H348 C356 0.930 . S
H349 C357 0.930 . S
H350 C360 0.930 . S
H351 C361 0.930 . S
C352 H346 0.930 . S
C352 C353 1.355 . S
C352 C354 1.415 . S
C353 C352 1.355 . S
C353 C355 1.419 . S
C354 C352 1.415 . S
C354 C359 1.425 . S
C354 C361 1.409 . S
C355 H347 0.930 . S
C355 C353 1.419 . S
C355 C356 1.362 . S
C356 H348 0.930 . S
C356 C355 1.362 . S
C356 C359 1.409 . S
C357 H349 0.930 . S
C357 C358 1.355 . S
C357 C359 1.415 . S
C358 C357 1.355 . S
C358 C360 1.419 . S
C359 C354 1.425 . S
C359 C356 1.409 . S
C359 C357 1.415 . S
C360 H350 0.930 . S
C360 C358 1.419 . S
C360 C361 1.362 . S
C361 H351 0.930 . S
C361 C354 1.409 . S
C361 C360 1.362 . S
H362 C368 0.930 . S
H363 C371 0.930 . S
H364 C372 0.930 . S
H365 C373 0.930 . S
H366 C376 0.930 . S
H367 C377 0.930 . S
C368 H362 0.930 . S
C368 C369 1.355 . S
C368 C370 1.415 . S
C369 C368 1.355 . S
C369 C371 1.419 . S
C370 C368 1.415 . S
C370 C375 1.425 . S
C370 C377 1.409 . S
C371 H363 0.930 . S
C371 C369 1.419 . S
C371 C372 1.362 . S
C372 H364 0.930 . S
C372 C371 1.362 . S
C372 C375 1.409 . S
C373 H365 0.930 . S
C373 C374 1.355 . S
C373 C375 1.415 . S
C374 C373 1.355 . S
C374 C376 1.419 . S
C375 C370 1.425 . S
C375 C372 1.409 . S
C375 C373 1.415 . S
C376 H366 0.930 . S
C376 C374 1.419 . S
C376 C377 1.362 . S
C377 H367 0.930 . S
C377 C370 1.409 . S
C377 C376 1.362 . S
H378 C384 0.930 . S
H379 C387 0.930 . S
H380 C388 0.930 . S
H381 C389 0.930 . S
H382 C392 0.930 . S
H383 C393 0.930 . S
C384 H378 0.930 . S
C384 C385 1.355 . S
C384 C386 1.415 . S
C385 C384 1.355 . S
C385 C387 1.419 . S
C386 C384 1.415 . S
C386 C391 1.425 . S
C386 C393 1.409 . S
C387 H379 0.930 . S
C387 C385 1.419 . S
C387 C388 1.362 . S
C388 H380 0.930 . S
C388 C387 1.362 . S
C388 C391 1.409 . S
C389 H381 0.930 . S
C389 C390 1.355 . S
C389 C391 1.415 . S
C390 C389 1.355 . S
C390 C392 1.419 . S
C391 C386 1.425 . S
C391 C388 1.409 . S
C391 C389 1.415 . S
C392 H382 0.930 . S
C392 C390 1.419 . S
C392 C393 1.362 . S
C393 H383 0.930 . S
C393 C386 1.409 . S
C393 C392 1.362 . S
H394 C400 0.930 . S
H395 C403 0.930 . S
H396 C404 0.930 . S
H397 C405 0.930 . S
H398 C408 0.930 . S
H399 C409 0.930 . S
C400 H394 0.930 . S
C400 C401 1.355 . S
C400 C402 1.415 . S
C401 C400 1.355 . S
C401 C403 1.419 . S
C402 C400 1.415 . S
C402 C407 1.425 . S
C402 C409 1.409 . S
C403 H395 0.930 . S
C403 C401 1.419 . S
C403 C404 1.362 . S
C404 H396 0.930 . S
C404 C403 1.362 . S
C404 C407 1.409 . S
C405 H397 0.930 . S
C405 C406 1.355 . S
C405 C407 1.415 . S
C406 C405 1.355 . S
C406 C408 1.419 . S
C407 C402 1.425 . S
C407 C404 1.409 . S
C407 C405 1.415 . S
C408 H398 0.930 . S
C408 C406 1.419 . S
C408 C409 1.362 . S
C409 H399 0.930 . S
C409 C402 1.409 . S
C409 C408 1.362 . S
H410 C416 0.930 . S
H411 C419 0.930 . S
H412 C420 0.930 . S
H413 C421 0.930 . S
H414 C424 0.930 . S
H415 C425 0.930 . S
C416 H410 0.930 . S
C416 C417 1.355 . S
C416 C418 1.415 . S
C417 C416 1.355 . S
C417 C419 1.419 . S
C418 C416 1.415 . S
C418 C423 1.425 . S
C418 C425 1.409 . S
C419 H411 0.930 . S
C419 C417 1.419 . S
C419 C420 1.362 . S
C420 H412 0.930 . S
C420 C419 1.362 . S
C420 C423 1.409 . S
C421 H413 0.930 . S
C421 C422 1.355 . S
C421 C423 1.415 . S
C422 C421 1.355 . S
C422 C424 1.419 . S
C423 C418 1.425 . S
C423 C420 1.409 . S
C423 C421 1.415 . S
C424 H414 0.930 . S
C424 C422 1.419 . S
C424 C425 1.362 . S
C425 H415 0.930 . S
C425 C418 1.409 . S
C425 C424 1.362 . S
H426 C432 0.930 . S
H427 C435 0.930 . S
H428 C436 0.930 . S
H429 C437 0.930 1_655 S
H430 C440 0.930 . S
H431 C441 0.930 . S
C432 H426 0.930 . S
C432 C433 1.355 . S
C432 C434 1.415 . S
C433 C432 1.355 . S
C433 C435 1.419 1_455 S
C434 C432 1.415 . S
C434 C439 1.425 . S
C434 C441 1.408 . S
C435 H427 0.930 . S
C435 C433 1.419 1_655 S
C435 C436 1.362 . S
C436 H428 0.930 . S
C436 C435 1.362 . S
C436 C439 1.409 1_655 S
C437 H429 0.930 1_455 S
C437 C438 1.355 . S
C437 C439 1.415 1_556 S
C438 C437 1.355 . S
C438 C440 1.419 . S
C439 C434 1.425 . S
C439 C436 1.409 1_455 S
C439 C437 1.415 1_554 S
C440 H430 0.930 . S
C440 C438 1.419 . S
C440 C441 1.364 1_556 S
C441 H431 0.930 . S
C441 C434 1.408 . S
C441 C440 1.364 1_554 S
H442 C448 0.930 . S
H443 C451 0.930 . S
H444 C452 0.930 . S
H445 C453 0.930 . S
H446 C456 0.930 . S
H447 C457 0.930 . S
C448 H442 0.930 . S
C448 C449 1.355 . S
C448 C450 1.415 . S
C449 C448 1.355 . S
C449 C451 1.419 . S
C450 C448 1.415 . S
C450 C455 1.425 . S
C450 C457 1.409 . S
C451 H443 0.930 . S
C451 C449 1.419 . S
C451 C452 1.362 . S
C452 H444 0.930 . S
C452 C451 1.362 . S
C452 C455 1.409 . S
C453 H445 0.930 . S
C453 C454 1.355 . S
C453 C455 1.415 . S
C454 C453 1.355 . S
C454 C456 1.419 . S
C455 C450 1.425 . S
C455 C452 1.409 . S
C455 C453 1.415 . S
C456 H446 0.930 . S
C456 C454 1.419 . S
C456 C457 1.362 . S
C457 H447 0.930 . S
C457 C450 1.409 . S
C457 C456 1.362 . S
H458 C464 0.930 . S
H459 C467 0.930 . S
H460 C468 0.930 . S
H461 C469 0.930 . S
H462 C472 0.930 . S
H463 C473 0.930 . S
C464 H458 0.930 . S
C464 C465 1.355 . S
C464 C466 1.415 . S
C465 C464 1.355 . S
C465 C467 1.419 . S
C466 C464 1.415 . S
C466 C471 1.425 . S
C466 C473 1.409 . S
C467 H459 0.930 . S
C467 C465 1.419 . S
C467 C468 1.362 . S
C468 H460 0.930 . S
C468 C467 1.362 . S
C468 C471 1.409 . S
C469 H461 0.930 . S
C469 C470 1.355 . S
C469 C471 1.415 . S
C470 C469 1.355 . S
C470 C472 1.419 . S
C471 C466 1.425 . S
C471 C468 1.409 . S
C471 C469 1.415 . S
C472 H462 0.930 . S
C472 C470 1.419 . S
C472 C473 1.362 . S
C473 H463 0.930 . S
C473 C466 1.409 . S
C473 C472 1.362 . S
H474 C480 0.930 1_565 S
H475 C483 0.930 . S
H476 C484 0.930 . S
H477 C485 0.930 . S
H478 C488 0.930 1_565 S
H479 C489 0.930 . S
C480 H474 0.930 1_545 S
C480 C481 1.355 . S
C480 C482 1.415 . S
C481 C480 1.355 . S
C481 C483 1.419 . S
C482 C480 1.415 . S
C482 C487 1.425 . S
C482 C489 1.409 1_545 S
C483 H475 0.930 . S
C483 C481 1.419 . S
C483 C484 1.362 . S
C484 H476 0.930 . S
C484 C483 1.362 . S
C484 C487 1.409 . S
C485 H477 0.930 . S
C485 C486 1.355 . S
C485 C487 1.415 . S
C486 C485 1.355 . S
C486 C488 1.419 . S
C487 C482 1.425 . S
C487 C484 1.409 . S
C487 C485 1.415 . S
C488 H478 0.930 1_545 S
C488 C486 1.419 . S
C488 C489 1.362 1_545 S
C489 H479 0.930 . S
C489 C482 1.409 1_565 S
C489 C488 1.362 1_565 S
H490 C496 0.930 . S
H491 C499 0.930 . S
H492 C500 0.930 . S
H493 C501 0.930 . S
H494 C504 0.930 . S
H495 C505 0.930 . S
C496 H490 0.930 . S
C496 C497 1.355 . S
C496 C498 1.415 . S
C497 C496 1.355 . S
C497 C499 1.419 . S
C498 C496 1.415 . S
C498 C503 1.425 . S
C498 C505 1.409 1_556 S
C499 H491 0.930 . S
C499 C497 1.419 . S
C499 C500 1.362 . S
C500 H492 0.930 . S
C500 C499 1.362 . S
C500 C503 1.409 . S
C501 H493 0.930 . S
C501 C502 1.355 . S
C501 C503 1.415 1_554 S
C502 C501 1.355 . S
C502 C504 1.419 . S
C503 C498 1.425 . S
C503 C500 1.409 . S
C503 C501 1.415 1_556 S
C504 H494 0.930 . S
C504 C502 1.419 . S
C504 C505 1.362 . S
C505 H495 0.930 . S
C505 C498 1.409 1_554 S
C505 C504 1.362 . S
H506 C512 0.930 . S
H507 C515 0.930 . S
H508 C516 0.930 . S
H509 C517 0.928 . S
H510 C520 0.930 . S
H511 C521 0.930 . S
C512 H506 0.930 . S
C512 C513 1.355 . S
C512 C514 1.415 . S
C513 C512 1.355 . S
C513 C515 1.419 1_455 S
C514 C512 1.415 . S
C514 C519 1.425 . S
C514 C521 1.409 . S
C515 H507 0.930 . S
C515 C513 1.419 1_655 S
C515 C516 1.362 . S
C516 H508 0.930 . S
C516 C515 1.362 . S
C516 C519 1.409 1_655 S
C517 H509 0.928 . S
C517 C518 1.356 1_655 S
C517 C519 1.415 1_655 S
C518 C517 1.356 1_455 S
C518 C520 1.419 . S
C519 C514 1.425 . S
C519 C516 1.409 1_455 S
C519 C517 1.415 1_455 S
C520 H510 0.930 . S
C520 C518 1.419 . S
C520 C521 1.362 . S
C521 H511 0.930 . S
C521 C514 1.409 . S
C521 C520 1.362 . S
C241 C6 0.797 . S
C246 C226 0.732 . S
C257 C59 1.997 . S
C262 C188 1.913 . S
C273 C86 1.319 . S
C278 C207 1.231 . S
C289 C15 0.420 . S
C294 C221 0.200 . S
C310 C183 1.845 . S
C305 C50 1.914 . S
C326 C202 1.138 . S
C321 C95 1.130 . S
C337 C46 1.376 . S
C342 C150 1.315 . S
C353 C99 3.062 . S
C358 C164 3.027 . S
C369 C10 1.941 . S
C374 C126 1.897 . S
C390 C145 1.113 . S
C385 C55 1.125 . S
C406 C169 3.042 . S
C401 C90 3.111 . S
C417 C19 2.000 . S
C422 C131 1.971 . S
C438 C160 1.729 . S
C433 C18 1.700 . S
C449 C49 1.404 . S
C454 C122 1.510 . S
C465 C98 1.523 . S
C470 C141 1.558 . S
C486 C198 1.557 . S
C481 C58 1.547 . S
C502 C217 1.308 . S
C497 C89 1.324 . S
C513 C9 1.416 . S
C518 C179 1.453 . S
