# Generated by pormake.
# Topology rtl, (3,6)-cn, num edge types: 1
# Building blocks:
#     Node 0, Type 0, BuildingBlock: BETDIP_clean_linker_0, # of connection points: 3
#     Node 1, Type 0, BuildingBlock: BETDIP_clean_linker_0, # of connection points: 3
#     Node 2, Type 0, BuildingBlock: BETDIP_clean_linker_0, # of connection points: 3
#     Node 3, Type 0, BuildingBlock: BETDIP_clean_linker_0, # of connection points: 3
#     Node 4, Type 1, BuildingBlock: VOLQOD_clean_sbu_1, # of connection points: 6
#     Node 5, Type 1, BuildingBlock: VOLQOD_clean_sbu_1, # of connection points: 6
#     Edge 6, Type (0, 1), BuildingBlock: EZIPEK_clean_linker_0, # of connection points: 2
#     Edge 7, Type (0, 1), BuildingBlock: EZIPEK_clean_linker_0, # of connection points: 2
#     Edge 8, Type (0, 1), BuildingBlock: EZIPEK_clean_linker_0, # of connection points: 2
#     Edge 9, Type (0, 1), BuildingBlock: EZIPEK_clean_linker_0, # of connection points: 2
#     Edge 10, Type (0, 1), BuildingBlock: EZIPEK_clean_linker_0, # of connection points: 2
#     Edge 11, Type (0, 1), BuildingBlock: EZIPEK_clean_linker_0, # of connection points: 2
#     Edge 12, Type (0, 1), BuildingBlock: EZIPEK_clean_linker_0, # of connection points: 2
#     Edge 13, Type (0, 1), BuildingBlock: EZIPEK_clean_linker_0, # of connection points: 2
#     Edge 14, Type (0, 1), BuildingBlock: EZIPEK_clean_linker_0, # of connection points: 2
#     Edge 15, Type (0, 1), BuildingBlock: EZIPEK_clean_linker_0, # of connection points: 2
#     Edge 16, Type (0, 1), BuildingBlock: EZIPEK_clean_linker_0, # of connection points: 2
#     Edge 17, Type (0, 1), BuildingBlock: EZIPEK_clean_linker_0, # of connection points: 2
# Relax obj value: 0.041
# Max RMSD: 0.143
# Mean RMSD: 0.091
data_MOF--net-rtl--node1-VOLQOD_clean_sbu_1--node2-BETDIP_clean_linker_0--edge1-EZIPEK_clean_linker_0
_symmetry_space_group_name_H-M    P1
_symmetry_Int_Tables_number       1
_symmetry_cell_setting            triclinic
loop_
_symmetry_equiv_pos_as_xyz
'x, y, z'
_cell_length_a     28.177449
_cell_length_b     28.720313
_cell_length_c     16.439199
_cell_angle_alpha  91.517313
_cell_angle_beta   92.085761
_cell_angle_gamma 90.072722
loop_
_atom_site_label
_atom_site_type_symbol
_atom_site_fract_x
_atom_site_fract_y
_atom_site_fract_z
_atom_type_partial_charge
H0 H 0.22393 0.81363 0.87882 0.0
H1 H 0.21874 0.7898 0.13581 0.0
H2 H 0.11302 0.87508 0.01939 0.0
H3 H 0.24176 0.7149 0.0865 0.0
C4 C 0.26957 0.72532 0.04662 0.0
C5 C 0.20671 0.81885 0.93624 0.0
C6 C 0.16575 0.84659 0.94016 0.0
C7 C 0.22428 0.79597 0.00527 0.0
C8 C 0.20363 0.80468 0.08086 0.0
C9 C 0.16435 0.83435 0.08598 0.0
C10 C 0.14425 0.85321 0.01522 0.0
N11 N 0.26279 0.76462 -0.00301 0.0
H12 H 0.71058 0.70575 0.65516 0.0
H13 H 0.70865 0.70223 0.39222 0.0
H14 H 0.6218 0.60766 0.51836 0.0
H15 H 0.7365 0.77342 0.40585 0.0
C16 C 0.756 0.77663 0.46381 0.0
C17 C 0.69736 0.69131 0.5971 0.0
C18 C 0.66441 0.65459 0.59489 0.0
C19 C 0.71287 0.70979 0.52446 0.0
C20 C 0.69609 0.69012 0.44932 0.0
C21 C 0.66311 0.65356 0.44745 0.0
C22 C 0.64733 0.63603 0.52008 0.0
N23 N 0.74588 0.7473 0.52931 0.0
H24 H 0.80603 0.20378 0.86309 0.0
H25 H 0.80743 0.20178 0.12594 0.0
H26 H 0.89975 0.11178 -0.00671 0.0
H27 H 0.76512 0.26522 0.11851 0.0
C28 C 0.75099 0.27021 0.05718 0.0
C29 C 0.81998 0.19058 0.92029 0.0
C30 C 0.85499 0.15602 0.92016 0.0
C31 C 0.8028 0.20815 -0.00604 0.0
C32 C 0.82069 0.19011 0.06806 0.0
C33 C 0.85581 0.15552 0.06741 0.0
C34 C 0.87283 0.13877 -0.00639 0.0
N35 N 0.76714 0.24306 -0.00976 0.0
H36 H 0.28974 0.30347 0.34769 0.0
H37 H 0.29419 0.30073 0.61008 0.0
H38 H 0.38893 0.39007 0.48718 0.0
H39 H 0.27427 0.22231 0.57606 0.0
C40 C 0.24638 0.22804 0.53005 0.0
C41 C 0.30433 0.31602 0.40615 0.0
C42 C 0.34109 0.34895 0.40949 0.0
C43 C 0.28774 0.29773 0.47799 0.0
C44 C 0.30716 0.31384 0.55384 0.0
C45 C 0.34338 0.3475 0.557 0.0
C46 C 0.36028 0.36472 0.4848 0.0
N47 N 0.2518 0.26307 0.47188 0.0
O48 O 0.90026 0.95228 0.48807 0.0
Zn49 Zn 0.94006 0.01034 0.49305 0.0
O50 O 0.00777 -0.0039 0.4977 0.0
Zn51 Zn 0.03813 0.02699 0.59268 0.0
Zn52 Zn 0.01577 0.92873 0.50699 0.0
Zn53 Zn 0.03721 0.01842 0.40032 0.0
O54 O 0.08407 0.07593 0.56206 0.0
O55 O 0.08834 0.06635 0.42786 0.0
O56 O 0.92155 0.04766 0.5908 0.0
O57 O 0.98947 0.05797 0.6625 0.0
O58 O 0.07487 0.98137 0.66051 0.0
O59 O 0.04765 0.91283 0.61456 0.0
O60 O 0.05575 0.90331 0.41662 0.0
O61 O 0.92224 0.04717 0.39527 0.0
O62 O 0.06698 0.96492 0.33982 0.0
O63 O 0.98884 0.04974 0.32672 0.0
C64 C 0.91043 0.90921 0.49075 0.0
C65 C 0.10149 0.08649 0.49481 0.0
C66 C 0.07238 0.93734 0.66605 0.0
C67 C 0.94482 0.06366 0.65308 0.0
C68 C 0.07219 0.92177 0.35387 0.0
C69 C 0.94507 0.05939 0.33406 0.0
O70 O 0.9531 0.89506 0.49791 0.0
O71 O 0.61268 0.44744 0.0128 0.0
Zn72 Zn 0.57641 0.5074 0.0081 0.0
O73 O 0.50787 0.49627 0.00234 0.0
Zn74 Zn 0.47956 0.52507 0.90558 0.0
Zn75 Zn 0.49581 0.429 -0.00261 0.0
Zn76 Zn 0.48005 0.52379 0.09937 0.0
O77 O 0.43067 0.57343 0.93519 0.0
O78 O 0.4325 0.57288 0.0706 0.0
O79 O 0.59726 0.54294 0.9126 0.0
O80 O 0.52988 0.55657 0.84236 0.0
O81 O 0.44696 0.47683 0.83183 0.0
O82 O 0.45988 0.40987 0.89408 0.0
O83 O 0.45588 0.40987 0.08959 0.0
O84 O 0.59638 0.54486 0.10794 0.0
O85 O 0.44627 0.47562 0.1617 0.0
O86 O 0.52943 0.55411 0.17397 0.0
C87 C 0.60033 0.4048 0.01167 0.0
C88 C 0.41642 0.58856 0.00354 0.0
C89 C 0.44242 0.4328 0.83498 0.0
C90 C 0.57477 0.56044 0.85235 0.0
C91 C 0.43937 0.43214 0.15017 0.0
C92 C 0.5739 0.56021 0.16863 0.0
O93 O 0.5569 0.39244 0.00536 0.0
C94 C 0.22245 0.14521 0.50024 0.0
C95 C 0.20908 0.1921 0.51607 0.0
C96 C 0.12498 0.17032 0.50269 0.0
C97 C 0.13845 0.1229 0.49561 0.0
N98 N 0.19913 0.06381 0.49462 0.0
N99 N 0.14843 0.24927 0.54184 0.0
C100 C 0.18698 0.10992 0.49588 0.0
C101 C 0.16051 0.2048 0.51918 0.0
N102 N 0.26887 0.13471 0.4865 0.0
N103 N 0.07822 0.18231 0.49236 0.0
H104 H 0.17348 0.27544 0.55491 0.0
H105 H 0.11393 0.25948 0.55404 0.0
H106 H 0.05128 0.15777 0.48095 0.0
H107 H 0.06647 0.21655 0.48833 0.0
H108 H 0.28018 0.10211 0.46602 0.0
H109 H 0.29584 0.15967 0.48886 0.0
H110 H 0.23369 0.05194 0.50456 0.0
H111 H 0.17412 0.03699 0.48881 0.0
C112 C 0.35593 0.70429 0.04313 0.0
C113 C 0.30763 0.69148 0.02885 0.0
C114 C 0.33089 0.61136 -0.00562 0.0
C115 C 0.37921 0.62457 0.00593 0.0
N116 N 0.43883 0.68426 0.02691 0.0
N117 N 0.24913 0.63628 0.97553 0.0
C118 C 0.39207 0.67135 0.02579 0.0
C119 C 0.29508 0.64596 4e-05 0.0
N120 N 0.3671 0.74709 0.07702 0.0
N121 N 0.3192 0.56549 0.98082 0.0
H122 H 0.22197 0.66088 0.97823 0.0
H123 H 0.23856 0.60529 0.94592 0.0
H124 H 0.3445 0.53932 0.97393 0.0
H125 H 0.28461 0.55279 0.98169 0.0
H126 H 0.40121 0.75669 0.09742 0.0
H127 H 0.3416 0.77214 0.09054 0.0
H128 H 0.45037 0.71867 0.03277 0.0
H129 H 0.46616 0.66079 0.01526 0.0
C130 C 0.79727 0.8444 0.53578 0.0
C131 C 0.79581 0.81033 0.47164 0.0
C132 C 0.86755 0.84364 0.41628 0.0
C133 C 0.87149 0.8747 0.48474 0.0
N134 N 0.84523 0.89952 0.61703 0.0
N135 N 0.83322 0.77235 0.35807 0.0
C136 C 0.83779 0.87363 0.54669 0.0
C137 C 0.83194 0.80853 0.41373 0.0
N138 N 0.75899 0.85048 0.58369 0.0
N139 N 0.8966 0.84884 0.35225 0.0
H140 H 0.80789 0.74579 0.35432 0.0
H141 H 0.8616 0.76637 0.32032 0.0
H142 H 0.92286 0.87443 0.35148 0.0
H143 H 0.89201 0.83055 0.29697 0.0
H144 H 0.75611 0.878 0.62577 0.0
H145 H 0.72793 0.83084 0.57597 0.0
H146 H 0.82454 0.89637 0.66784 0.0
H147 H 0.87472 0.92112 0.62752 0.0
C148 C 0.71486 0.33787 -0.01691 0.0
C149 C 0.71206 0.30428 0.04458 0.0
C150 C 0.63746 0.33886 0.08843 0.0
C151 C 0.63767 0.36894 0.02126 0.0
N152 N 0.67185 0.39087 0.89532 0.0
N153 N 0.66653 0.2673 0.14654 0.0
C154 C 0.675 0.3666 0.96574 0.0
C155 C 0.67216 0.30319 0.09471 0.0
N156 N 0.7564 0.34427 0.94438 0.0
N157 N 0.60567 0.34573 0.14845 0.0
H158 H 0.69091 0.2402 0.1526 0.0
H159 H 0.63557 0.26208 0.17787 0.0
H160 H 0.58057 0.37235 0.14759 0.0
H161 H 0.60718 0.32799 0.20293 0.0
H162 H 0.76173 0.37144 0.90494 0.0
H163 H 0.78731 0.32575 0.95828 0.0
H164 H 0.69578 0.38671 0.84883 0.0
H165 H 0.64279 0.41171 0.87974 0.0
C166 C 0.16844 0.8862 0.21105 0.0
C167 C 0.14561 0.84936 0.16554 0.0
C168 C 0.07595 0.85613 0.24984 0.0
C169 C 0.09892 0.89286 0.29559 0.0
N170 N 0.17108 0.93403 0.33485 0.0
N171 N 0.08368 0.79168 0.15254 0.0
C172 C 0.14657 0.90502 0.28099 0.0
C173 C 0.10133 0.83171 0.18894 0.0
N174 N 0.20969 0.90492 0.18502 0.0
N175 N 0.02912 0.84652 0.2609 0.0
H176 H 0.10167 0.77331 0.10755 0.0
H177 H 0.05373 0.77449 0.1719 0.0
H178 H 0.00913 0.86371 0.30449 0.0
H179 H 0.009 0.82388 0.22302 0.0
H180 H 0.22471 0.93552 0.20977 0.0
H181 H 0.22742 0.89172 0.13487 0.0
H182 H 0.20732 0.94065 0.33184 0.0
H183 H 0.1562 0.94793 0.38738 0.0
C184 C 0.66331 0.58946 0.692 0.0
C185 C 0.64724 0.63432 0.67026 0.0
C186 C 0.59047 0.63393 0.7794 0.0
C187 C 0.6015 0.58646 0.79259 0.0
N188 N 0.64474 0.51691 0.75553 0.0
N189 N 0.59294 0.69839 0.68754 0.0
C190 C 0.63736 0.56369 0.748 0.0
C191 C 0.61036 0.65658 0.71285 0.0
N192 N 0.7035 0.57166 0.65901 0.0
N193 N 0.56207 0.6577 0.83187 0.0
H194 H 0.60726 0.71659 0.64012 0.0
H195 H 0.5623 0.71354 0.70984 0.0
H196 H 0.54748 0.64243 0.88216 0.0
H197 H 0.55665 0.69352 0.83015 0.0
H198 H 0.71971 0.5411 0.67828 0.0
H199 H 0.72322 0.5898 0.61759 0.0
H200 H 0.66671 0.49751 0.71801 0.0
H201 H 0.62581 0.49639 0.79453 0.0
C202 C 0.91369 0.15553 0.1874 0.0
C203 C 0.87469 0.13481 0.14337 0.0
C204 C 0.88181 0.06451 0.22372 0.0
C205 C 0.91992 0.08579 0.26994 0.0
N206 N 0.96602 0.15443 0.30777 0.0
N207 N 0.81599 0.07604 0.12518 0.0
C208 C 0.93413 0.13222 0.2553 0.0
C209 C 0.85694 0.09101 0.16414 0.0
N210 N 0.93211 0.19661 0.16251 0.0
N211 N 0.87145 0.01849 0.23355 0.0
H212 H 0.79771 0.04579 0.13863 0.0
H213 H 0.79771 0.04579 0.13863 0.0
H214 H 0.8894 -0.00211 0.27591 0.0
H215 H 0.84792 -0.0006 0.19552 0.0
H216 H 0.96393 0.21081 0.1859 0.0
H217 H 0.91693 0.21525 0.11458 0.0
H218 H 0.97421 0.1897 0.30513 0.0
H219 H 0.98145 0.13857 0.35858 0.0
C220 C 0.41152 0.34855 0.65838 0.0
C221 C 0.36548 0.36443 0.63543 0.0
C222 C 0.36699 0.41896 0.75254 0.0
C223 C 0.41542 0.40769 0.76856 0.0
N224 N 0.48599 0.36582 0.73114 0.0
N225 N 0.30036 0.41747 0.65499 0.0
C226 C 0.43824 0.3732 0.72053 0.0
C227 C 0.34326 0.40019 0.68128 0.0
N228 N 0.42949 0.30969 0.62088 0.0
N229 N 0.3433 0.44648 0.80673 0.0
H230 H 0.28134 0.40383 0.60416 0.0
H231 H 0.2851 0.44728 0.68018 0.0
H232 H 0.35932 0.4603 0.86029 0.0
H233 H 0.3068 0.45209 0.80261 0.0
H234 H 0.46084 0.2936 0.64031 0.0
H235 H 0.41078 0.29095 0.57483 0.0
H236 H 0.50552 0.34491 0.69197 0.0
H237 H 0.50713 0.38371 0.77499 0.0
C238 C 0.60734 0.65481 0.32529 0.0
C239 C 0.6447 0.63265 0.36943 0.0
C240 C 0.63613 0.56296 0.28135 0.0
C241 C 0.60008 0.58582 0.23502 0.0
N242 N 0.55866 0.65653 0.20082 0.0
N243 N 0.70173 0.57051 0.38043 0.0
C244 C 0.58785 0.63274 0.25336 0.0
C245 C 0.66143 0.58824 0.34432 0.0
N246 N 0.58923 0.69599 0.35388 0.0
N247 N 0.64438 0.51647 0.26829 0.0
H248 H 0.72097 0.58817 0.42714 0.0
H249 H 0.71846 0.54045 0.35936 0.0
H250 H 0.62614 0.49638 0.22356 0.0
H251 H 0.66642 0.49681 0.30619 0.0
H252 H 0.55834 0.71096 0.32979 0.0
H253 H 0.60318 0.71374 0.40554 0.0
H254 H 0.55229 0.69215 0.20665 0.0
H255 H 0.54416 0.64161 0.14692 0.0
C256 C 0.9102 0.15857 0.80433 0.0
C257 C 0.87286 0.13605 0.84345 0.0
C258 C 0.88284 0.06599 0.7582 0.0
C259 C 0.91899 0.08908 0.71672 0.0
N260 N 0.95991 0.1602 0.68716 0.0
N261 N 0.81636 0.07322 0.84715 0.0
C262 C 0.93058 0.1363 0.73585 0.0
C263 C 0.85673 0.09132 0.81665 0.0
N264 N 0.92735 0.20035 0.83449 0.0
N265 N 0.87532 0.01927 0.74523 0.0
H266 H 0.79657 0.09093 0.89053 0.0
H267 H 0.8001 0.0428 0.82419 0.0
H268 H 0.89453 -0.00095 0.70442 0.0
H269 H 0.85304 -0.00043 0.78006 0.0
H270 H 0.95823 0.21574 0.8148 0.0
H271 H 0.91237 0.21837 0.88312 0.0
H272 H 0.96582 0.19594 0.69319 0.0
H273 H 0.97508 0.14515 0.63585 0.0
C274 C 0.34104 0.40249 0.29143 0.0
C275 C 0.36228 0.36535 0.33446 0.0
C276 C 0.43356 0.37066 0.25472 0.0
C277 C 0.4118 0.40688 0.2097 0.0
N278 N 0.34131 0.44992 0.17162 0.0
N279 N 0.42307 0.3067 0.34564 0.0
C280 C 0.36437 0.42059 0.22392 0.0
C281 C 0.4067 0.34694 0.31205 0.0
N282 N 0.29956 0.42159 0.317 0.0
N283 N 0.48066 0.36086 0.24651 0.0
H284 H 0.40431 0.28861 0.38839 0.0
H285 H 0.45289 0.28898 0.32572 0.0
H286 H 0.50203 0.37815 0.20658 0.0
H287 H 0.49969 0.33848 0.2843 0.0
H288 H 0.28528 0.45225 0.29427 0.0
H289 H 0.28084 0.4084 0.36494 0.0
H290 H 0.30529 0.45763 0.17418 0.0
H291 H 0.35714 0.46326 0.12073 0.0
C292 C 0.13491 0.91834 0.87178 0.0
C293 C 0.14546 0.87009 0.8669 0.0
C294 C 0.11786 0.86902 0.72411 0.0
C295 C 0.09828 0.91435 0.73474 0.0
N296 N 0.07742 0.97579 0.83151 0.0
N297 N 0.1354 0.79701 0.79105 0.0
C298 C 0.10382 0.93748 0.81213 0.0
C299 C 0.13371 0.84453 0.79378 0.0
N300 N 0.15492 0.94617 0.93237 0.0
N301 N 0.12348 0.84991 0.64814 0.0
H302 H 0.14364 0.77728 0.84193 0.0
H303 H 0.12325 0.7773 0.74028 0.0
H304 H 0.1168 0.86813 0.59497 0.0
H305 H 0.1408 0.81826 0.6386 0.0
H306 H 0.15051 0.98224 0.93419 0.0
H307 H 0.18014 0.93398 0.97468 0.0
H308 H 0.07857 0.9912 0.88973 0.0
H309 H 0.04985 0.98814 0.79408 0.0
loop_
_geom_bond_atom_site_label_1
_geom_bond_atom_site_label_2
_geom_bond_distance
_geom_bond_site_symmetry_2
_ccdc_geom_bond_type
H0 C5 0.930 . S
H1 C8 0.930 . S
H2 C10 0.930 . S
H3 C4 1.016 . S
C4 H3 1.016 . S
C4 N11 1.286 1_554 S
C5 H0 0.930 . S
C5 C6 1.397 . S
C5 C7 1.361 1_556 S
C6 C5 1.397 . S
C6 C10 1.390 1_556 S
C7 C5 1.361 1_554 S
C7 C8 1.393 . S
C7 N11 1.413 1_554 S
C8 H1 0.930 . S
C8 C7 1.393 . S
C8 C9 1.399 . S
C9 C8 1.399 . S
C9 C10 1.381 . S
C10 H2 0.930 . S
C10 C6 1.390 1_554 S
C10 C9 1.381 . S
N11 C4 1.286 1_556 S
N11 C7 1.413 1_556 S
H12 C17 0.930 . S
H13 C20 0.930 . S
H14 C22 0.930 . S
H15 C16 1.016 . S
C16 H15 1.016 . S
C16 N23 1.286 . S
C17 H12 0.930 . S
C17 C18 1.397 . S
C17 C19 1.361 . S
C18 C17 1.397 . S
C18 C22 1.390 . S
C19 C17 1.361 . S
C19 C20 1.393 . S
C19 N23 1.413 . S
C20 H13 0.930 . S
C20 C19 1.393 . S
C20 C21 1.399 . S
C21 C20 1.399 . S
C21 C22 1.381 . S
C22 H14 0.930 . S
C22 C18 1.390 . S
C22 C21 1.381 . S
N23 C16 1.286 . S
N23 C19 1.413 . S
H24 C29 0.930 . S
H25 C32 0.930 . S
H26 C34 0.930 . S
H27 C28 1.016 . S
C28 H27 1.016 . S
C28 N35 1.286 1_554 S
C29 H24 0.930 . S
C29 C30 1.397 . S
C29 C31 1.361 1_556 S
C30 C29 1.397 . S
C30 C34 1.390 1_556 S
C31 C29 1.361 1_554 S
C31 C32 1.393 . S
C31 N35 1.413 1_554 S
C32 H25 0.930 . S
C32 C31 1.393 . S
C32 C33 1.399 . S
C33 C32 1.399 . S
C33 C34 1.381 . S
C34 H26 0.930 . S
C34 C30 1.390 1_554 S
C34 C33 1.381 . S
N35 C28 1.286 1_556 S
N35 C31 1.413 1_556 S
H36 C41 0.930 . S
H37 C44 0.930 . S
H38 C46 0.930 . S
H39 C40 1.016 . S
C40 H39 1.016 . S
C40 N47 1.286 . S
C41 H36 0.930 . S
C41 C42 1.397 . S
C41 C43 1.361 . S
C42 C41 1.397 . S
C42 C46 1.390 . S
C43 C41 1.361 . S
C43 C44 1.393 . S
C43 N47 1.413 . S
C44 H37 0.930 . S
C44 C43 1.393 . S
C44 C45 1.399 . S
C45 C44 1.399 . S
C45 C46 1.381 . S
C46 H38 0.930 . S
C46 C42 1.390 . S
C46 C45 1.381 . S
N47 C40 1.286 . S
N47 C43 1.413 . S
O48 Zn49 1.953 1_565 S
O48 C64 1.225 . S
Zn49 O48 1.953 1_545 S
Zn49 O50 1.949 1_655 S
Zn49 O56 1.919 . S
Zn49 O61 1.924 . S
O50 Zn49 1.949 1_455 S
O50 Zn51 1.923 . S
O50 Zn52 1.950 1_545 S
O50 Zn53 1.945 . S
Zn51 O50 1.923 . S
Zn51 O54 1.933 . S
Zn51 O57 1.941 . S
Zn51 O58 1.965 1_545 S
Zn52 O50 1.950 1_565 S
Zn52 O59 1.938 . S
Zn52 O60 1.906 . S
Zn52 O70 1.953 1_455 S
Zn53 O50 1.945 . S
Zn53 O55 1.932 . S
Zn53 O62 1.977 1_545 S
Zn53 O63 1.910 1_455 S
O54 Zn51 1.933 . S
O54 C65 1.226 . S
O55 Zn53 1.932 . S
O55 C65 1.307 . S
O56 Zn49 1.919 . S
O56 C67 1.253 . S
O57 Zn51 1.941 . S
O57 C67 1.283 1_455 S
O58 Zn51 1.965 1_565 S
O58 C66 1.303 . S
O59 Zn52 1.938 . S
O59 C66 1.247 . S
O60 Zn52 1.906 . S
O60 C68 1.304 . S
O61 Zn49 1.924 . S
O61 C69 1.311 . S
O62 Zn53 1.977 1_565 S
O62 C68 1.272 . S
O63 Zn53 1.910 1_655 S
O63 C69 1.231 . S
C64 O48 1.225 . S
C64 O70 1.298 . S
C65 O54 1.226 . S
C65 O55 1.307 . S
C66 O58 1.303 . S
C66 O59 1.247 . S
C67 O56 1.253 . S
C67 O57 1.283 1_655 S
C68 O60 1.304 . S
C68 O62 1.272 . S
C69 O61 1.311 . S
C69 O63 1.231 . S
O70 Zn52 1.953 1_655 S
O70 C64 1.298 . S
O71 Zn72 1.953 . S
O71 C87 1.225 . S
Zn72 O71 1.953 . S
Zn72 O73 1.949 . S
Zn72 O79 1.919 1_554 S
Zn72 O84 1.924 . S
O73 Zn72 1.949 . S
O73 Zn74 1.923 1_554 S
O73 Zn75 1.950 . S
O73 Zn76 1.945 . S
Zn74 O73 1.923 1_556 S
Zn74 O77 1.933 . S
Zn74 O80 1.941 . S
Zn74 O81 1.965 . S
Zn75 O73 1.950 . S
Zn75 O82 1.938 1_554 S
Zn75 O83 1.906 . S
Zn75 O93 1.953 . S
Zn76 O73 1.945 . S
Zn76 O78 1.932 . S
Zn76 O85 1.977 . S
Zn76 O86 1.910 . S
O77 Zn74 1.933 . S
O77 C88 1.226 1_556 S
O78 Zn76 1.932 . S
O78 C88 1.307 . S
O79 Zn72 1.919 1_556 S
O79 C90 1.253 . S
O80 Zn74 1.941 . S
O80 C90 1.283 . S
O81 Zn74 1.965 . S
O81 C89 1.303 . S
O82 Zn75 1.938 1_556 S
O82 C89 1.247 . S
O83 Zn75 1.906 . S
O83 C91 1.304 . S
O84 Zn72 1.924 . S
O84 C92 1.311 . S
O85 Zn76 1.977 . S
O85 C91 1.272 . S
O86 Zn76 1.910 . S
O86 C92 1.231 . S
C87 O71 1.225 . S
C87 O93 1.298 . S
C88 O77 1.226 1_554 S
C88 O78 1.307 . S
C89 O81 1.303 . S
C89 O82 1.247 . S
C90 O79 1.253 . S
C90 O80 1.283 . S
C91 O83 1.304 . S
C91 O85 1.272 . S
C92 O84 1.311 . S
C92 O86 1.231 . S
O93 Zn75 1.953 . S
O93 C87 1.298 . S
C94 C95 1.363 . S
C94 C100 1.379 . S
C94 N102 1.356 . S
C95 C94 1.363 . S
C95 C101 1.363 . S
C96 C97 1.363 . S
C96 C101 1.379 . S
C96 N103 1.356 . S
C97 C96 1.363 . S
C97 C100 1.363 . S
N98 C100 1.356 . S
N98 H110 0.984 . S
N98 H111 0.985 . S
N99 C101 1.356 . S
N99 H104 0.984 . S
N99 H105 0.985 . S
C100 C94 1.379 . S
C100 C97 1.363 . S
C100 N98 1.356 . S
C101 C95 1.363 . S
C101 C96 1.379 . S
C101 N99 1.356 . S
N102 C94 1.356 . S
N102 H108 0.984 . S
N102 H109 0.984 . S
N103 C96 1.356 . S
N103 H106 0.984 . S
N103 H107 0.985 . S
H104 N99 0.984 . S
H105 N99 0.985 . S
H106 N103 0.984 . S
H107 N103 0.985 . S
H108 N102 0.984 . S
H109 N102 0.984 . S
H110 N98 0.984 . S
H111 N98 0.985 . S
C112 C113 1.363 . S
C112 C118 1.379 . S
C112 N120 1.356 . S
C113 C112 1.363 . S
C113 C119 1.363 1_554 S
C114 C115 1.363 1_556 S
C114 C119 1.379 . S
C114 N121 1.356 . S
C115 C114 1.363 1_554 S
C115 C118 1.363 . S
N116 C118 1.356 . S
N116 H128 0.984 . S
N116 H129 0.985 . S
N117 C119 1.356 . S
N117 H122 0.984 . S
N117 H123 0.985 . S
C118 C112 1.379 . S
C118 C115 1.363 . S
C118 N116 1.356 . S
C119 C113 1.363 1_556 S
C119 C114 1.379 . S
C119 N117 1.356 . S
N120 C112 1.356 . S
N120 H126 0.984 . S
N120 H127 0.984 . S
N121 C114 1.356 . S
N121 H124 0.984 . S
N121 H125 0.985 . S
H122 N117 0.984 . S
H123 N117 0.985 . S
H124 N121 0.984 . S
H125 N121 0.985 . S
H126 N120 0.984 . S
H127 N120 0.984 . S
H128 N116 0.984 . S
H129 N116 0.985 . S
C130 C131 1.363 . S
C130 C136 1.379 . S
C130 N138 1.356 . S
C131 C130 1.363 . S
C131 C137 1.363 . S
C132 C133 1.363 . S
C132 C137 1.379 . S
C132 N139 1.356 . S
C133 C132 1.363 . S
C133 C136 1.363 . S
N134 C136 1.356 . S
N134 H146 0.984 . S
N134 H147 0.985 . S
N135 C137 1.356 . S
N135 H140 0.984 . S
N135 H141 0.985 . S
C136 C130 1.379 . S
C136 C133 1.363 . S
C136 N134 1.356 . S
C137 C131 1.363 . S
C137 C132 1.379 . S
C137 N135 1.356 . S
N138 C130 1.356 . S
N138 H144 0.984 . S
N138 H145 0.984 . S
N139 C132 1.356 . S
N139 H142 0.984 . S
N139 H143 0.985 . S
H140 N135 0.984 . S
H141 N135 0.985 . S
H142 N139 0.984 . S
H143 N139 0.985 . S
H144 N138 0.984 . S
H145 N138 0.984 . S
H146 N134 0.984 . S
H147 N134 0.985 . S
C148 C149 1.363 1_556 S
C148 C154 1.379 . S
C148 N156 1.356 . S
C149 C148 1.363 1_554 S
C149 C155 1.363 . S
C150 C151 1.363 . S
C150 C155 1.379 . S
C150 N157 1.356 . S
C151 C150 1.363 . S
C151 C154 1.363 1_554 S
N152 C154 1.356 . S
N152 H164 0.984 . S
N152 H165 0.985 . S
N153 C155 1.356 . S
N153 H158 0.984 . S
N153 H159 0.985 . S
C154 C148 1.379 . S
C154 C151 1.363 1_556 S
C154 N152 1.356 . S
C155 C149 1.363 . S
C155 C150 1.379 . S
C155 N153 1.356 . S
N156 C148 1.356 . S
N156 H162 0.984 . S
N156 H163 0.984 . S
N157 C150 1.356 . S
N157 H160 0.984 . S
N157 H161 0.985 . S
H158 N153 0.984 . S
H159 N153 0.985 . S
H160 N157 0.984 . S
H161 N157 0.985 . S
H162 N156 0.984 . S
H163 N156 0.984 . S
H164 N152 0.984 . S
H165 N152 0.985 . S
C166 C167 1.363 . S
C166 C172 1.379 . S
C166 N174 1.356 . S
C167 C166 1.363 . S
C167 C173 1.363 . S
C168 C169 1.363 . S
C168 C173 1.379 . S
C168 N175 1.356 . S
C169 C168 1.363 . S
C169 C172 1.363 . S
N170 C172 1.356 . S
N170 H182 0.984 . S
N170 H183 0.985 . S
N171 C173 1.356 . S
N171 H176 0.984 . S
N171 H177 0.985 . S
C172 C166 1.379 . S
C172 C169 1.363 . S
C172 N170 1.356 . S
C173 C167 1.363 . S
C173 C168 1.379 . S
C173 N171 1.356 . S
N174 C166 1.356 . S
N174 H180 0.984 . S
N174 H181 0.984 . S
N175 C168 1.356 . S
N175 H178 0.984 . S
N175 H179 0.985 . S
H176 N171 0.984 . S
H177 N171 0.985 . S
H178 N175 0.984 . S
H179 N175 0.985 . S
H180 N174 0.984 . S
H181 N174 0.984 . S
H182 N170 0.984 . S
H183 N170 0.985 . S
C184 C185 1.363 . S
C184 C190 1.379 . S
C184 N192 1.356 . S
C185 C184 1.363 . S
C185 C191 1.363 . S
C186 C187 1.363 . S
C186 C191 1.379 . S
C186 N193 1.356 . S
C187 C186 1.363 . S
C187 C190 1.363 . S
N188 C190 1.356 . S
N188 H200 0.984 . S
N188 H201 0.985 . S
N189 C191 1.356 . S
N189 H194 0.984 . S
N189 H195 0.985 . S
C190 C184 1.379 . S
C190 C187 1.363 . S
C190 N188 1.356 . S
C191 C185 1.363 . S
C191 C186 1.379 . S
C191 N189 1.356 . S
N192 C184 1.356 . S
N192 H198 0.984 . S
N192 H199 0.984 . S
N193 C186 1.356 . S
N193 H196 0.984 . S
N193 H197 0.985 . S
H194 N189 0.984 . S
H195 N189 0.985 . S
H196 N193 0.984 . S
H197 N193 0.985 . S
H198 N192 0.984 . S
H199 N192 0.984 . S
H200 N188 0.984 . S
H201 N188 0.985 . S
C202 C203 1.363 . S
C202 C208 1.379 . S
C202 N210 1.356 . S
C203 C202 1.363 . S
C203 C209 1.363 . S
C204 C205 1.363 . S
C204 C209 1.379 . S
C204 N211 1.356 . S
C205 C204 1.363 . S
C205 C208 1.363 . S
N206 C208 1.356 . S
N206 H218 0.984 . S
N206 H219 0.985 . S
N207 C209 1.356 . S
N207 H212 0.984 . S
N207 H213 0.985 . S
C208 C202 1.379 . S
C208 C205 1.363 . S
C208 N206 1.356 . S
C209 C203 1.363 . S
C209 C204 1.379 . S
C209 N207 1.356 . S
N210 C202 1.356 . S
N210 H216 0.984 . S
N210 H217 0.984 . S
N211 C204 1.356 . S
N211 H214 0.984 . S
N211 H215 0.985 . S
H212 N207 0.984 . S
H213 N207 0.985 . S
H214 N211 0.984 . S
H215 N211 0.985 . S
H216 N210 0.984 . S
H217 N210 0.984 . S
H218 N206 0.984 . S
H219 N206 0.985 . S
C220 C221 1.363 . S
C220 C226 1.379 . S
C220 N228 1.356 . S
C221 C220 1.363 . S
C221 C227 1.363 . S
C222 C223 1.363 . S
C222 C227 1.379 . S
C222 N229 1.356 . S
C223 C222 1.363 . S
C223 C226 1.363 . S
N224 C226 1.356 . S
N224 H236 0.984 . S
N224 H237 0.985 . S
N225 C227 1.356 . S
N225 H230 0.984 . S
N225 H231 0.985 . S
C226 C220 1.379 . S
C226 C223 1.363 . S
C226 N224 1.356 . S
C227 C221 1.363 . S
C227 C222 1.379 . S
C227 N225 1.356 . S
N228 C220 1.356 . S
N228 H234 0.984 . S
N228 H235 0.984 . S
N229 C222 1.356 . S
N229 H232 0.984 . S
N229 H233 0.985 . S
H230 N225 0.984 . S
H231 N225 0.985 . S
H232 N229 0.984 . S
H233 N229 0.985 . S
H234 N228 0.984 . S
H235 N228 0.984 . S
H236 N224 0.984 . S
H237 N224 0.985 . S
C238 C239 1.363 . S
C238 C244 1.379 . S
C238 N246 1.356 . S
C239 C238 1.363 . S
C239 C245 1.363 . S
C240 C241 1.363 . S
C240 C245 1.379 . S
C240 N247 1.356 . S
C241 C240 1.363 . S
C241 C244 1.363 . S
N242 C244 1.356 . S
N242 H254 0.984 . S
N242 H255 0.985 . S
N243 C245 1.356 . S
N243 H248 0.984 . S
N243 H249 0.985 . S
C244 C238 1.379 . S
C244 C241 1.363 . S
C244 N242 1.356 . S
C245 C239 1.363 . S
C245 C240 1.379 . S
C245 N243 1.356 . S
N246 C238 1.356 . S
N246 H252 0.984 . S
N246 H253 0.984 . S
N247 C240 1.356 . S
N247 H250 0.984 . S
N247 H251 0.985 . S
H248 N243 0.984 . S
H249 N243 0.985 . S
H250 N247 0.984 . S
H251 N247 0.985 . S
H252 N246 0.984 . S
H253 N246 0.984 . S
H254 N242 0.984 . S
H255 N242 0.985 . S
C256 C257 1.363 . S
C256 C262 1.379 . S
C256 N264 1.356 . S
C257 C256 1.363 . S
C257 C263 1.363 . S
C258 C259 1.363 . S
C258 C263 1.379 . S
C258 N265 1.356 . S
C259 C258 1.363 . S
C259 C262 1.363 . S
N260 C262 1.356 . S
N260 H272 0.984 . S
N260 H273 0.985 . S
N261 C263 1.356 . S
N261 H266 0.984 . S
N261 H267 0.985 . S
C262 C256 1.379 . S
C262 C259 1.363 . S
C262 N260 1.356 . S
C263 C257 1.363 . S
C263 C258 1.379 . S
C263 N261 1.356 . S
N264 C256 1.356 . S
N264 H270 0.984 . S
N264 H271 0.984 . S
N265 C258 1.356 . S
N265 H268 0.984 . S
N265 H269 0.985 . S
H266 N261 0.984 . S
H267 N261 0.985 . S
H268 N265 0.984 . S
H269 N265 0.985 . S
H270 N264 0.984 . S
H271 N264 0.984 . S
H272 N260 0.984 . S
H273 N260 0.985 . S
C274 C275 1.363 . S
C274 C280 1.379 . S
C274 N282 1.356 . S
C275 C274 1.363 . S
C275 C281 1.363 . S
C276 C277 1.363 . S
C276 C281 1.379 . S
C276 N283 1.356 . S
C277 C276 1.363 . S
C277 C280 1.363 . S
N278 C280 1.356 . S
N278 H290 0.984 . S
N278 H291 0.985 . S
N279 C281 1.356 . S
N279 H284 0.984 . S
N279 H285 0.985 . S
C280 C274 1.379 . S
C280 C277 1.363 . S
C280 N278 1.356 . S
C281 C275 1.363 . S
C281 C276 1.379 . S
C281 N279 1.356 . S
N282 C274 1.356 . S
N282 H288 0.984 . S
N282 H289 0.984 . S
N283 C276 1.356 . S
N283 H286 0.984 . S
N283 H287 0.985 . S
H284 N279 0.984 . S
H285 N279 0.985 . S
H286 N283 0.984 . S
H287 N283 0.985 . S
H288 N282 0.984 . S
H289 N282 0.984 . S
H290 N278 0.984 . S
H291 N278 0.985 . S
C292 C293 1.363 . S
C292 C298 1.379 . S
C292 N300 1.356 . S
C293 C292 1.363 . S
C293 C299 1.363 . S
C294 C295 1.363 . S
C294 C299 1.379 . S
C294 N301 1.356 . S
C295 C294 1.363 . S
C295 C298 1.363 . S
N296 C298 1.356 . S
N296 H308 0.984 1_565 S
N296 H309 0.985 . S
N297 C299 1.356 . S
N297 H302 0.984 . S
N297 H303 0.985 . S
C298 C292 1.379 . S
C298 C295 1.363 . S
C298 N296 1.356 . S
C299 C293 1.363 . S
C299 C294 1.379 . S
C299 N297 1.356 . S
N300 C292 1.356 . S
N300 H306 0.984 . S
N300 H307 0.984 . S
N301 C294 1.356 . S
N301 H304 0.984 . S
N301 H305 0.985 . S
H302 N297 0.984 . S
H303 N297 0.985 . S
H304 N301 0.984 . S
H305 N301 0.985 . S
H306 N300 0.984 . S
H307 N300 0.984 . S
H308 N296 0.984 1_545 S
H309 N296 0.985 . S
C97 C65 1.491 . S
C95 C40 1.489 . S
C113 C4 1.490 . S
C115 C88 1.493 . S
C131 C16 1.509 . S
C133 C64 1.516 . S
C149 C28 1.512 . S
C151 C87 1.516 . S
C169 C68 1.485 . S
C167 C9 1.517 . S
C187 C90 1.492 . S
C185 C18 1.552 . S
C203 C33 1.542 . S
C205 C69 1.488 . S
C221 C45 1.543 . S
C223 C89 1.490 . S
C241 C92 1.429 . S
C239 C21 1.479 . S
C259 C67 1.437 . S
C257 C30 1.501 . S
C277 C91 1.426 . S
C275 C42 1.472 . S
C293 C6 1.486 . S
C295 C66 1.433 . S
