# Generated by pormake.
# Topology tsx, (6,3)-cn, num edge types: 1
# Building blocks:
#     Node 0, Type 0, BuildingBlock: MIDCAF_clean_sbu_0, # of connection points: 6
#     Node 1, Type 0, BuildingBlock: MIDCAF_clean_sbu_0, # of connection points: 6
#     Node 2, Type 1, BuildingBlock: KAKCAD_clean_linker_0, # of connection points: 3
#     Node 3, Type 1, BuildingBlock: KAKCAD_clean_linker_0, # of connection points: 3
#     Node 4, Type 1, BuildingBlock: KAKCAD_clean_linker_0, # of connection points: 3
#     Node 5, Type 1, BuildingBlock: KAKCAD_clean_linker_0, # of connection points: 3
#     Edge 6, Type (0, 1), BuildingBlock: FUNLAD_clean_linker_0, # of connection points: 2
#     Edge 7, Type (0, 1), BuildingBlock: FUNLAD_clean_linker_0, # of connection points: 2
#     Edge 8, Type (0, 1), BuildingBlock: FUNLAD_clean_linker_0, # of connection points: 2
#     Edge 9, Type (0, 1), BuildingBlock: FUNLAD_clean_linker_0, # of connection points: 2
#     Edge 10, Type (0, 1), BuildingBlock: FUNLAD_clean_linker_0, # of connection points: 2
#     Edge 11, Type (0, 1), BuildingBlock: FUNLAD_clean_linker_0, # of connection points: 2
#     Edge 12, Type (0, 1), BuildingBlock: FUNLAD_clean_linker_0, # of connection points: 2
#     Edge 13, Type (0, 1), BuildingBlock: FUNLAD_clean_linker_0, # of connection points: 2
#     Edge 14, Type (0, 1), BuildingBlock: FUNLAD_clean_linker_0, # of connection points: 2
#     Edge 15, Type (0, 1), BuildingBlock: FUNLAD_clean_linker_0, # of connection points: 2
#     Edge 16, Type (0, 1), BuildingBlock: FUNLAD_clean_linker_0, # of connection points: 2
#     Edge 17, Type (0, 1), BuildingBlock: FUNLAD_clean_linker_0, # of connection points: 2
# Relax obj value: 0.118
# Max RMSD: 0.182
# Mean RMSD: 0.113
data_MOF--net-tsx--node1-MIDCAF_clean_sbu_0--node2-KAKCAD_clean_linker_0--edge1-FUNLAD_clean_linker_0
_symmetry_space_group_name_H-M    P1
_symmetry_Int_Tables_number       1
_symmetry_cell_setting            triclinic
loop_
_symmetry_equiv_pos_as_xyz
'x, y, z'
_cell_length_a     27.202121
_cell_length_b     28.005015
_cell_length_c     53.106801
_cell_angle_alpha  90.874725
_cell_angle_beta   93.912541
_cell_angle_gamma 90.024109
loop_
_atom_site_label
_atom_site_type_symbol
_atom_site_fract_x
_atom_site_fract_y
_atom_site_fract_z
_atom_type_partial_charge
Zn0 Zn 0.94425 0.00881 0.97195 0.0
Zn1 Zn 0.13757 0.04834 0.0534 0.0
Zn2 Zn 0.01063 0.02973 0.00658 0.0
C3 C 0.05766 0.11106 0.02704 0.0
C4 C 0.13554 0.9945 0.00412 0.0
O5 O 0.95546 0.98499 0.02427 0.0
O6 O 0.8991 0.97324 0.9928 0.0
C7 C 0.94732 0.10942 0.97656 0.0
O8 O 0.01948 0.10679 0.01194 0.0
O9 O 0.07424 0.07253 0.03622 0.0
O10 O 0.16131 0.01153 0.02333 0.0
O11 O 0.08819 0.00127 -0.0 0.0
O12 O 0.92724 0.0761 0.96321 0.0
O13 O 0.98009 0.09958 0.99436 0.0
O14 O 0.04979 0.99357 0.97764 0.0
O15 O 0.98843 0.97208 0.95043 0.0
C16 C 0.03395 0.97275 0.95697 0.0
O17 O 0.99184 0.99941 0.04237 0.0
O18 O 0.06606 0.02469 0.04946 0.0
C19 C 0.91404 0.96698 0.01555 0.0
C20 C 0.0291 0.00464 0.05805 0.0
Zn21 Zn 0.64502 0.51299 0.55492 0.0
Zn22 Zn 0.42419 0.50533 0.47207 0.0
Zn23 Zn 0.50086 0.51152 0.50105 0.0
C24 C 0.49886 0.46034 0.44678 0.0
C25 C 0.44637 0.6042 0.48185 0.0
O26 O 0.49147 0.47979 0.5376 0.0
O27 O 0.56955 0.49664 0.54397 0.0
C28 C 0.60227 0.4731 0.50006 0.0
O29 O 0.52369 0.47365 0.46717 0.0
O30 O 0.45323 0.46896 0.44398 0.0
O31 O 0.41666 0.57618 0.46965 0.0
O32 O 0.48283 0.58717 0.49554 0.0
O33 O 0.60131 0.49572 0.52114 0.0
O34 O 0.56266 0.4739 0.48561 0.0
O35 O 0.52898 0.58385 0.51007 0.0
O36 O 0.58494 0.54386 0.53222 0.0
C37 C 0.56876 0.58437 0.52448 0.0
O38 O 0.44808 0.47102 0.52245 0.0
O39 O 0.38302 0.46966 0.49521 0.0
C40 C 0.53022 0.48042 0.5527 0.0
C41 C 0.40335 0.45809 0.51635 0.0
C42 C 0.03101 0.98922 0.30476 0.0
C43 C 0.02709 0.0259 0.28696 0.0
C44 C 0.04031 -4e-05 0.33044 0.0
C45 C 0.04604 0.04761 0.33889 0.0
C46 C 0.04247 0.08423 0.32105 0.0
C47 C 0.03308 0.0735 0.29541 0.0
C48 C 0.05489 0.05921 0.36625 0.0
C49 C 0.08673 0.0312 0.38177 0.0
C50 C 0.09414 0.04118 0.40776 0.0
C51 C 0.06954 0.08001 0.41829 0.0
C52 C 0.03735 0.10837 0.40301 0.0
C53 C 0.03046 0.09774 0.37705 0.0
C54 C 0.00815 0.1473 0.41398 0.0
C55 C 0.98227 0.1395 0.43556 0.0
C56 C 0.00225 0.19105 0.40153 0.0
C57 C 0.96929 0.22525 0.40966 0.0
C58 C 0.9413 0.21646 0.43041 0.0
C59 C 0.12631 0.00955 0.42377 0.0
C60 C 0.11996 0.95988 0.42177 0.0
C61 C 0.16461 0.02817 0.44016 0.0
C62 C 0.19703 0.9974 0.45365 0.0
C63 C 0.19101 0.94762 0.4513 0.0
C64 C 0.15178 0.92931 0.43542 0.0
C65 C 0.94911 0.17371 0.44368 0.0
H66 H 0.02603 0.95223 0.29888 0.0
H67 H 0.04208 0.97095 0.34373 0.0
H68 H 0.04747 0.12124 0.32689 0.0
H69 H 0.03118 0.10253 0.28213 0.0
H70 H 0.1063 0.00172 0.37357 0.0
H71 H 0.00434 0.11841 0.36538 0.0
H72 H 0.07473 0.08756 0.43838 0.0
H73 H 0.98573 0.10595 0.4454 0.0
H74 H 0.0223 0.19833 0.38506 0.0
H75 H 0.96497 0.25824 0.39936 0.0
H76 H 0.09054 0.94462 0.4094 0.0
H77 H 0.17034 0.06639 0.44192 0.0
H78 H 0.92788 0.16562 0.4596 0.0
H79 H 0.14654 0.89115 0.4329 0.0
H80 H 0.22689 0.01245 0.46579 0.0
C81 C 0.08991 0.98278 0.73642 0.0
C82 C 0.09531 0.93474 0.74344 0.0
C83 C 0.07857 0.9947 0.71126 0.0
C84 C 0.07226 0.95889 0.69249 0.0
C85 C 0.07837 0.91089 0.6994 0.0
C86 C 0.08982 0.89894 0.72459 0.0
C87 C 0.05886 0.97167 0.66586 0.0
C88 C 0.08208 0.0101 0.65489 0.0
C89 C 0.06948 0.02297 0.6298 0.0
C90 C 0.03241 0.99714 0.61566 0.0
C91 C 0.00909 0.95811 0.62629 0.0
C92 C 0.02253 0.94584 0.65141 0.0
C93 C 0.97129 0.9292 0.61133 0.0
C94 C 0.93291 0.95098 0.59658 0.0
C95 C 0.97249 0.87914 0.61257 0.0
C96 C 0.93574 0.85149 0.59988 0.0
C97 C 0.89671 0.87307 0.58553 0.0
C98 C 0.09588 0.06315 0.61866 0.0
C99 C 0.07011 0.09817 0.60443 0.0
C100 C 0.14718 0.06785 0.62327 0.0
C101 C 0.17198 0.10728 0.61455 0.0
C102 C 0.14618 0.14302 0.60088 0.0
C103 C 0.095 0.13777 0.59569 0.0
C104 C 0.8958 0.92318 0.58391 0.0
H105 H 0.09287 0.01121 0.75049 0.0
H106 H 0.07346 0.03197 0.7066 0.0
H107 H 0.07447 0.88254 0.68529 0.0
H108 H 0.09429 0.86164 0.72931 0.0
H109 H 0.11025 0.03008 0.66597 0.0
H110 H 0.00379 0.91667 0.65995 0.0
H111 H 0.02294 0.00633 0.59619 0.0
H112 H 0.9309 0.98951 0.59537 0.0
H113 H 0.00183 0.86125 0.62355 0.0
H114 H 0.93733 0.81308 0.60186 0.0
H115 H 0.03056 0.09563 0.60065 0.0
H116 H 0.16822 0.04115 0.63388 0.0
H117 H 0.86641 0.94087 0.57289 0.0
H118 H 0.07412 0.16434 0.58491 0.0
H119 H 0.21129 0.11029 0.61909 0.0
C120 C 0.5264 0.47941 0.79943 0.0
C121 C 0.52113 0.51576 0.78149 0.0
C122 C 0.53385 0.49071 0.82513 0.0
C123 C 0.53607 0.5386 0.83344 0.0
C124 C 0.53103 0.57495 0.81552 0.0
C125 C 0.52375 0.56366 0.78984 0.0
C126 C 0.54261 0.55055 0.86078 0.0
C127 C 0.57671 0.5255 0.87656 0.0
C128 C 0.58164 0.53516 0.90267 0.0
C129 C 0.55197 0.57047 0.91298 0.0
C130 C 0.51778 0.59593 0.89736 0.0
C131 C 0.51362 0.58604 0.87132 0.0
C132 C 0.48413 0.63103 0.90814 0.0
C133 C 0.45543 0.61821 0.92795 0.0
C134 C 0.47791 0.67635 0.89747 0.0
C135 C 0.44294 0.708 0.90612 0.0
C136 C 0.41283 0.69472 0.92538 0.0
C137 C 0.61704 0.50719 0.91897 0.0
C138 C 0.61942 0.45744 0.91574 0.0
C139 C 0.64985 0.52977 0.937 0.0
C140 C 0.68548 0.50311 0.95093 0.0
C141 C 0.68842 0.45337 0.94727 0.0
C142 C 0.65463 0.43089 0.92969 0.0
C143 C 0.41992 0.64958 0.93637 0.0
H144 H 0.52389 0.44217 0.79368 0.0
H145 H 0.53687 0.46192 0.83853 0.0
H146 H 0.53321 0.61217 0.82135 0.0
H147 H 0.52075 0.59253 0.77648 0.0
H148 H 0.59992 0.4987 0.86845 0.0
H149 H 0.48621 0.60467 0.85939 0.0
H150 H 0.55493 0.57764 0.93315 0.0
H151 H 0.45913 0.58318 0.93625 0.0
H152 H 0.49994 0.68713 0.88228 0.0
H153 H 0.43942 0.74281 0.8976 0.0
H154 H 0.59429 0.43901 0.90218 0.0
H155 H 0.64889 0.56815 0.93977 0.0
H156 H 0.39703 0.63773 0.95096 0.0
H157 H 0.6563 0.39277 0.9261 0.0
H158 H 0.71089 0.52137 0.96441 0.0
C159 C 0.59034 0.4945 0.22705 0.0
C160 C 0.59375 0.44663 0.23451 0.0
C161 C 0.57928 0.50584 0.20183 0.0
C162 C 0.57157 0.4696 0.18337 0.0
C163 C 0.5755 0.42165 0.19076 0.0
C164 C 0.58638 0.41028 0.21609 0.0
C165 C 0.55894 0.48214 0.15662 0.0
C166 C 0.58221 0.52086 0.14592 0.0
C167 C 0.56931 0.53455 0.12104 0.0
C168 C 0.53309 0.50855 0.10654 0.0
C169 C 0.50957 0.46941 0.11686 0.0
C170 C 0.52272 0.45653 0.14193 0.0
C171 C 0.47069 0.44222 0.10178 0.0
C172 C 0.43334 0.46595 0.08724 0.0
C173 C 0.46982 0.39214 0.10257 0.0
C174 C 0.43199 0.36634 0.08955 0.0
C175 C 0.39403 0.38996 0.0754 0.0
C176 C 0.59402 0.57619 0.11052 0.0
C177 C 0.60055 0.61848 0.12493 0.0
C178 C 0.61302 0.57339 0.08662 0.0
C179 C 0.6393 0.61174 0.07761 0.0
C180 C 0.64679 0.65374 0.09228 0.0
C181 C 0.62653 0.65685 0.11589 0.0
C182 C 0.39526 0.44007 0.07426 0.0
H183 H 0.5947 0.52333 0.24086 0.0
H184 H 0.57561 0.54311 0.19689 0.0
H185 H 0.57039 0.39291 0.17695 0.0
H186 H 0.58907 0.37307 0.22126 0.0
H187 H 0.6111 0.54012 0.15689 0.0
H188 H 0.50356 0.42742 0.15027 0.0
H189 H 0.52313 0.51888 0.08728 0.0
H190 H 0.43285 0.50456 0.08643 0.0
H191 H 0.49831 0.37283 0.1134 0.0
H192 H 0.43183 0.32784 0.09116 0.0
H193 H 0.58559 0.62187 0.14326 0.0
H194 H 0.60889 0.54102 0.07524 0.0
H195 H 0.3667 0.45926 0.06341 0.0
H196 H 0.63064 0.68903 0.12742 0.0
H197 H 0.65484 0.60799 0.05945 0.0
C198 C 0.12305 0.15899 0.05048 0.0
C199 C 0.08564 0.15608 0.03096 0.0
C200 C 0.1545 0.19822 0.05268 0.0
C201 C 0.14916 0.23575 0.03549 0.0
C202 C 0.10962 0.23472 0.01703 0.0
C203 C 0.07818 0.19489 0.01464 0.0
C204 C 0.18562 0.27523 0.03671 0.0
C205 C 0.23408 0.26571 0.04056 0.0
C206 C 0.27338 0.30204 0.04559 0.0
C207 C 0.32229 0.28829 0.04268 0.0
C208 C 0.36136 0.31798 0.05113 0.0
C209 C 0.35244 0.36203 0.06297 0.0
H210 H 0.22701 0.3588 0.05908 0.0
C211 C 0.30341 0.37706 0.06468 0.0
C212 C 0.26417 0.34732 0.05609 0.0
H213 H 0.29532 0.41062 0.07391 0.0
H214 H 0.12877 0.13046 0.06388 0.0
H215 H 0.18354 0.1989 0.0677 0.0
H216 H 0.10439 0.26368 0.00383 0.0
H217 H 0.04938 0.19372 -0.00048 0.0
H218 H 0.17266 0.31158 0.03408 0.0
H219 H 0.24581 0.22856 0.04064 0.0
H220 H 0.33044 0.25363 0.03463 0.0
H221 H 0.39867 0.30575 0.04909 0.0
C222 C 0.14524 0.91564 0.98296 0.0
C223 C 0.16111 0.96295 0.98701 0.0
C224 C 0.17327 0.88364 0.96949 0.0
C225 C 0.21748 0.89869 0.95982 0.0
C226 C 0.23183 0.94668 0.96275 0.0
C227 C 0.2043 0.97841 0.97665 0.0
C228 C 0.25074 0.86449 0.948 0.0
C229 C 0.25999 0.82116 0.95786 0.0
C230 C 0.29861 0.78896 0.94899 0.0
C231 C 0.32453 0.75973 0.9665 0.0
C232 C 0.36191 0.72964 0.95896 0.0
C233 C 0.37352 0.72735 0.93356 0.0
H234 H 0.28956 0.80784 0.90948 0.0
C235 C 0.34671 0.75604 0.91593 0.0
C236 C 0.30981 0.78666 0.92356 0.0
H237 H 0.35362 0.75436 0.8961 0.0
H238 H 0.11208 0.90305 0.99095 0.0
H239 H 0.16089 0.847 0.96703 0.0
H240 H 0.26564 0.95905 0.95534 0.0
H241 H 0.21713 0.01481 0.97967 0.0
H242 H 0.27239 0.87734 0.93303 0.0
H243 H 0.24202 0.81083 0.97463 0.0
H244 H 0.3165 0.76085 0.98621 0.0
H245 H 0.38207 0.70864 0.97315 0.0
C246 C 0.83324 0.93319 0.02549 0.0
C247 C 0.8842 0.93715 0.03134 0.0
C248 C 0.8052 0.90065 0.038 0.0
C249 C 0.82774 0.87055 0.05634 0.0
C250 C 0.8782 0.87649 0.06325 0.0
C251 C 0.9063 0.90945 0.0508 0.0
C252 C 0.79979 0.83205 0.06802 0.0
C253 C 0.76042 0.81052 0.05584 0.0
C254 C 0.73233 0.77036 0.06597 0.0
C255 C 0.69929 0.74486 0.04928 0.0
C256 C 0.6716 0.70709 0.05775 0.0
C257 C 0.67619 0.69393 0.08321 0.0
H258 H 0.76068 0.77659 0.10525 0.0
C259 C 0.70904 0.71954 0.09999 0.0
C260 C 0.73663 0.75747 0.09154 0.0
H261 H 0.7138 0.71005 0.1197 0.0
H262 H 0.81509 0.95476 0.01086 0.0
H263 H 0.76601 0.89889 0.03298 0.0
H264 H 0.89633 0.85425 0.07758 0.0
H265 H 0.94559 0.9116 0.05558 0.0
H266 H 0.81439 0.81921 0.08618 0.0
H267 H 0.74919 0.82123 0.03674 0.0
H268 H 0.6948 0.75418 0.02953 0.0
H269 H 0.6461 0.68863 0.04439 0.0
C270 C 0.9334 0.19337 0.99214 0.0
C271 C 0.9291 0.15868 0.97267 0.0
C272 C 0.90727 0.23645 0.98982 0.0
C273 C 0.87669 0.2453 0.96792 0.0
C274 C 0.87536 0.21199 0.94792 0.0
C275 C 0.90132 0.16931 0.95021 0.0
C276 C 0.84092 0.28519 0.96611 0.0
C277 C 0.84447 0.32628 0.97956 0.0
C278 C 0.80459 0.36207 0.97626 0.0
C279 C 0.81534 0.40928 0.97011 0.0
C280 C 0.77723 0.44036 0.96209 0.0
C281 C 0.72792 0.42464 0.96043 0.0
H282 H 0.74597 0.31175 0.98191 0.0
C283 C 0.71725 0.37874 0.9689 0.0
C284 C 0.75517 0.34774 0.97665 0.0
H285 H 0.67958 0.36603 0.9685 0.0
H286 H 0.95433 0.18606 0.00974 0.0
H287 H 0.90872 0.26115 0.00572 0.0
H288 H 0.85234 0.21803 0.93079 0.0
H289 H 0.89766 0.14361 0.93473 0.0
H290 H 0.80936 0.28038 0.95255 0.0
H291 H 0.87735 0.33486 0.99152 0.0
H292 H 0.85323 0.42108 0.96985 0.0
H293 H 0.78663 0.47554 0.9557 0.0
C294 C 0.63462 0.62793 0.55043 0.0
C295 C 0.59705 0.62859 0.53094 0.0
C296 C 0.66554 0.66722 0.55508 0.0
C297 C 0.65969 0.70836 0.54036 0.0
C298 C 0.62041 0.71028 0.52179 0.0
C299 C 0.58955 0.67051 0.51694 0.0
C300 C 0.69477 0.74898 0.54424 0.0
C301 C 0.74333 0.74124 0.54935 0.0
C302 C 0.78091 0.77903 0.55539 0.0
C303 C 0.83063 0.76745 0.55314 0.0
C304 C 0.86799 0.79901 0.56176 0.0
C305 C 0.85664 0.84288 0.57317 0.0
H306 H 0.73138 0.83384 0.5681 0.0
C307 C 0.80678 0.85559 0.5744 0.0
C308 C 0.76921 0.82395 0.56563 0.0
H309 H 0.79679 0.88892 0.58329 0.0
H310 H 0.64069 0.59675 0.56199 0.0
H311 H 0.6943 0.66523 0.57017 0.0
H312 H 0.61476 0.74183 0.51041 0.0
H313 H 0.56109 0.67202 0.5017 0.0
H314 H 0.68076 0.78506 0.54198 0.0
H315 H 0.75673 0.70466 0.54902 0.0
H316 H 0.84075 0.73319 0.54528 0.0
H317 H 0.90594 0.78845 0.56007 0.0
C318 C 0.64207 0.40991 0.47465 0.0
C319 C 0.64617 0.44594 0.49334 0.0
C320 C 0.68325 0.3832 0.46877 0.0
C321 C 0.7296 0.39207 0.48148 0.0
C322 C 0.73344 0.42779 0.50036 0.0
C323 C 0.69224 0.45455 0.50619 0.0
C324 C 0.77402 0.36342 0.4764 0.0
C325 C 0.77952 0.34041 0.4543 0.0
C326 C 0.82308 0.31063 0.44905 0.0
C327 C 0.83207 0.30055 0.42381 0.0
C328 C 0.87096 0.27087 0.41785 0.0
C329 C 0.90179 0.2502 0.43702 0.0
H330 H 0.84774 0.2959 0.48801 0.0
C331 C 0.89301 0.26035 0.46233 0.0
C332 C 0.85404 0.29016 0.46832 0.0
H333 H 0.91612 0.24504 0.47755 0.0
H334 H 0.60673 0.4014 0.46503 0.0
H335 H 0.67812 0.35482 0.45479 0.0
H336 H 0.7685 0.4351 0.51063 0.0
H337 H 0.69652 0.48199 0.52076 0.0
H338 H 0.80375 0.36298 0.4911 0.0
H339 H 0.75166 0.34466 0.43886 0.0
H340 H 0.80858 0.31534 0.40857 0.0
H341 H 0.87598 0.26308 0.39816 0.0
C342 C 0.32471 0.42266 0.52895 0.0
C343 C 0.37622 0.42644 0.53267 0.0
C344 C 0.29901 0.38799 0.54136 0.0
C345 C 0.32424 0.35625 0.55799 0.0
C346 C 0.37558 0.3612 0.56238 0.0
C347 C 0.40134 0.39593 0.54987 0.0
C348 C 0.29916 0.31499 0.56908 0.0
C349 C 0.24989 0.31155 0.57032 0.0
C350 C 0.22467 0.26789 0.57859 0.0
C351 C 0.17727 0.27205 0.58734 0.0
C352 C 0.15163 0.23163 0.5944 0.0
C353 C 0.17268 0.18596 0.59264 0.0
H354 H 0.28104 0.21704 0.56889 0.0
C355 C 0.21982 0.18171 0.58348 0.0
C356 C 0.24548 0.22211 0.57648 0.0
H357 H 0.23668 0.14698 0.58137 0.0
H358 H 0.30428 0.44549 0.51569 0.0
H359 H 0.2598 0.38503 0.5368 0.0
H360 H 0.39611 0.33708 0.57491 0.0
H361 H 0.44111 0.39722 0.55275 0.0
H362 H 0.32251 0.28613 0.57627 0.0
H363 H 0.22665 0.34194 0.56543 0.0
H364 H 0.16008 0.30678 0.58889 0.0
H365 H 0.11562 0.23628 0.60161 0.0
C366 C 0.40418 0.67336 0.46126 0.0
C367 C 0.43572 0.65599 0.48109 0.0
C368 C 0.38573 0.71961 0.4622 0.0
C369 C 0.39848 0.7498 0.48293 0.0
C370 C 0.43302 0.73412 0.50187 0.0
C371 C 0.4513 0.68723 0.50108 0.0
C372 C 0.37264 0.79606 0.48522 0.0
C373 C 0.32306 0.79705 0.48251 0.0
C374 C 0.29233 0.84066 0.47966 0.0
C375 C 0.2417 0.83637 0.48275 0.0
C376 C 0.20918 0.87266 0.47514 0.0
C377 C 0.2265 0.91408 0.46407 0.0
H378 H 0.349 0.88796 0.46735 0.0
C379 C 0.27759 0.92009 0.46266 0.0
C380 C 0.31032 0.88362 0.47035 0.0
H381 H 0.29196 0.95154 0.45407 0.0
H382 H 0.392 0.6505 0.4454 0.0
H383 H 0.36002 0.73131 0.44706 0.0
H384 H 0.44356 0.75707 0.51794 0.0
H385 H 0.47523 0.67471 0.51672 0.0
H386 H 0.39403 0.82847 0.48884 0.0
H387 H 0.30344 0.76311 0.4811 0.0
H388 H 0.22684 0.80374 0.48992 0.0
H389 H 0.1701 0.86736 0.47685 0.0
C390 C 0.98458 0.98439 0.09627 0.0
C391 C 0.02901 0.99117 0.08479 0.0
C392 C 0.98481 0.97718 0.1223 0.0
C393 C 0.0296 0.97668 0.13727 0.0
C394 C 0.07397 0.98088 0.12548 0.0
C395 C 0.07371 0.98848 0.09956 0.0
C396 C 0.03176 0.97383 0.16523 0.0
C397 C 0.99635 0.99183 0.17917 0.0
C398 C 0.00249 0.99731 0.2071 0.0
C399 C 0.97678 0.03402 0.21877 0.0
C400 C 0.98421 0.04283 0.24471 0.0
C401 C 0.01721 0.01476 0.25964 0.0
H402 H 0.05342 0.93838 0.21405 0.0
C403 C 0.04143 0.97671 0.24817 0.0
C404 C 0.03411 0.96798 0.22218 0.0
H405 H 0.06702 0.95437 0.25916 0.0
H406 H 0.94959 0.98642 0.08532 0.0
H407 H 0.94994 0.97266 0.13064 0.0
H408 H 0.10899 0.98016 0.1365 0.0
H409 H 0.10856 0.99326 0.09119 0.0
H410 H 0.06619 0.96179 0.17456 0.0
H411 H 0.96397 0.00801 0.16972 0.0
H412 H 0.95177 0.05681 0.20768 0.0
H413 H 0.96422 0.0718 0.25306 0.0
C414 C 0.05738 0.91003 0.92659 0.0
C415 C 0.06794 0.95377 0.93895 0.0
C416 C 0.08139 0.89706 0.90513 0.0
C417 C 0.11526 0.92852 0.89518 0.0
C418 C 0.12935 0.96997 0.9091 0.0
C419 C 0.10567 0.98266 0.9308 0.0
C420 C 0.13146 0.92266 0.86909 0.0
C421 C 0.1028 0.90095 0.85055 0.0
C422 C 0.10887 0.90558 0.82305 0.0
C423 C 0.08004 0.87611 0.80625 0.0
C424 C 0.07738 0.88423 0.78032 0.0
C425 C 0.10349 0.92221 0.77051 0.0
H426 H 0.15925 0.96624 0.82522 0.0
C427 C 0.13441 0.95021 0.78713 0.0
C428 C 0.13705 0.94213 0.81311 0.0
H429 H 0.15555 0.97934 0.78012 0.0
H430 H 0.02876 0.88695 0.93282 0.0
H431 H 0.07139 0.86355 0.89574 0.0
H432 H 0.15591 0.99448 0.90214 0.0
H433 H 0.11426 0.01669 0.94005 0.0
H434 H 0.16416 0.94201 0.86456 0.0
H435 H 0.06992 0.88213 0.85534 0.0
H436 H 0.0577 0.84787 0.8133 0.0
H437 H 0.05282 0.86223 0.76814 0.0
C438 C 0.48401 0.46766 0.59117 0.0
C439 C 0.52886 0.46827 0.57957 0.0
C440 C 0.48341 0.46192 0.61725 0.0
C441 C 0.52784 0.45723 0.63225 0.0
C442 C 0.57235 0.4552 0.62038 0.0
C443 C 0.57292 0.46092 0.59434 0.0
C444 C 0.52969 0.45647 0.66027 0.0
C445 C 0.49541 0.47767 0.67381 0.0
C446 C 0.50088 0.48439 0.7017 0.0
C447 C 0.47392 0.52098 0.71271 0.0
C448 C 0.48001 0.53074 0.73859 0.0
C449 C 0.5131 0.50392 0.75415 0.0
H450 H 0.553 0.42678 0.7099 0.0
C451 C 0.53886 0.46617 0.74331 0.0
C452 C 0.53269 0.45632 0.7174 0.0
H453 H 0.56464 0.44479 0.75475 0.0
H454 H 0.44947 0.47346 0.58028 0.0
H455 H 0.44818 0.46197 0.62555 0.0
H456 H 0.60705 0.451 0.6314 0.0
H457 H 0.60802 0.46066 0.58587 0.0
H458 H 0.56309 0.44266 0.66985 0.0
H459 H 0.46419 0.49509 0.664 0.0
H460 H 0.44871 0.54282 0.70117 0.0
H461 H 0.45875 0.55938 0.74642 0.0
C462 C 0.57156 0.44997 0.42078 0.0
C463 C 0.52329 0.43735 0.42584 0.0
C464 C 0.59155 0.43376 0.39863 0.0
C465 C 0.56343 0.4047 0.38121 0.0
C466 C 0.51667 0.38932 0.38729 0.0
C467 C 0.49655 0.40591 0.40924 0.0
C468 C 0.57905 0.39351 0.35556 0.0
C469 C 0.60392 0.42525 0.34245 0.0
C470 C 0.60681 0.42333 0.31454 0.0
C471 C 0.6379 0.45597 0.30358 0.0
C472 C 0.63555 0.46185 0.27746 0.0
C473 C 0.60189 0.43521 0.26167 0.0
H474 H 0.54965 0.3697 0.3059 0.0
C475 C 0.57281 0.40055 0.2724 0.0
C476 C 0.57504 0.39472 0.29854 0.0
H477 H 0.54615 0.37982 0.26075 0.0
H478 H 0.59292 0.47421 0.4333 0.0
H479 H 0.62832 0.44517 0.39484 0.0
H480 H 0.49442 0.36666 0.3743 0.0
H481 H 0.45938 0.39532 0.41283 0.0
H482 H 0.5636 0.36161 0.34631 0.0
H483 H 0.61878 0.45714 0.35208 0.0
H484 H 0.66273 0.4785 0.31534 0.0
H485 H 0.65899 0.48836 0.26969 0.0
loop_
_geom_bond_atom_site_label_1
_geom_bond_atom_site_label_2
_geom_bond_distance
_geom_bond_site_symmetry_2
_ccdc_geom_bond_type
Zn0 O6 1.906 1_546 S
Zn0 O12 1.898 . S
Zn0 O15 1.905 1_545 S
Zn1 O9 1.905 . S
Zn1 O10 1.898 1_545 S
Zn1 O18 1.920 1_545 S
Zn2 O5 2.080 1_445 S
Zn2 O8 2.114 . S
Zn2 O11 2.120 1_545 S
Zn2 O13 2.120 1_455 S
Zn2 O14 2.114 1_554 S
Zn2 O17 2.080 . S
C3 O8 1.166 . S
C3 O9 1.182 . S
C4 O10 1.167 . S
C4 O11 1.299 . S
O5 Zn2 2.080 1_665 S
O5 C19 1.305 . S
O6 Zn0 1.906 1_564 S
O6 C19 1.244 . S
C7 O12 1.168 . S
C7 O13 1.298 1_556 S
O8 Zn2 2.114 . S
O8 C3 1.166 . S
O9 Zn1 1.905 . S
O9 C3 1.182 . S
O10 Zn1 1.898 1_565 S
O10 C4 1.167 . S
O11 Zn2 2.120 1_565 S
O11 C4 1.299 . S
O12 Zn0 1.898 . S
O12 C7 1.168 . S
O13 Zn2 2.120 1_655 S
O13 C7 1.298 1_554 S
O14 Zn2 2.114 1_556 S
O14 C16 1.166 1_545 S
O15 Zn0 1.905 1_565 S
O15 C16 1.182 1_655 S
C16 O14 1.166 1_565 S
C16 O15 1.182 1_455 S
O17 Zn2 2.080 . S
O17 C20 1.305 1_545 S
O18 Zn1 1.920 1_565 S
O18 C20 1.234 . S
C19 O5 1.305 . S
C19 O6 1.244 . S
C20 O17 1.305 1_565 S
C20 O18 1.234 . S
Zn21 O27 1.920 . S
Zn21 O33 1.898 . S
Zn21 O36 1.905 . S
Zn22 O30 1.905 . S
Zn22 O31 1.898 . S
Zn22 O39 1.920 . S
Zn23 O26 2.080 . S
Zn23 O29 2.114 . S
Zn23 O32 2.120 . S
Zn23 O34 2.120 . S
Zn23 O35 2.114 . S
Zn23 O38 2.080 . S
C24 O29 1.166 . S
C24 O30 1.182 . S
C25 O31 1.167 . S
C25 O32 1.299 . S
O26 Zn23 2.080 . S
O26 C40 1.305 . S
O27 Zn21 1.920 . S
O27 C40 1.234 . S
C28 O33 1.167 . S
C28 O34 1.299 . S
O29 Zn23 2.114 . S
O29 C24 1.166 . S
O30 Zn22 1.905 . S
O30 C24 1.182 . S
O31 Zn22 1.898 . S
O31 C25 1.167 . S
O32 Zn23 2.120 . S
O32 C25 1.299 . S
O33 Zn21 1.898 . S
O33 C28 1.167 . S
O34 Zn23 2.120 . S
O34 C28 1.299 . S
O35 Zn23 2.114 . S
O35 C37 1.166 . S
O36 Zn21 1.905 . S
O36 C37 1.182 . S
C37 O35 1.166 . S
C37 O36 1.182 . S
O38 Zn23 2.080 . S
O38 C41 1.305 . S
O39 Zn22 1.920 . S
O39 C41 1.234 . S
C40 O26 1.305 . S
C40 O27 1.234 . S
C41 O38 1.305 . S
C41 O39 1.234 . S
C42 C43 1.386 1_565 S
C42 C44 1.397 . S
C42 H66 0.931 . S
C43 C42 1.386 1_545 S
C43 C47 1.397 . S
C44 C42 1.397 . S
C44 C45 1.384 1_565 S
C44 H67 0.930 . S
C45 C44 1.384 1_545 S
C45 C46 1.377 . S
C45 C48 1.481 . S
C46 C45 1.377 . S
C46 C47 1.389 . S
C46 H68 0.929 . S
C47 C43 1.397 . S
C47 C46 1.389 . S
C47 H69 0.931 . S
C48 C45 1.481 . S
C48 C49 1.387 . S
C48 C53 1.390 . S
C49 C48 1.387 . S
C49 C50 1.401 . S
C49 H70 0.930 1_545 S
C50 C49 1.401 . S
C50 C51 1.376 . S
C50 C59 1.511 1_545 S
C51 C50 1.376 . S
C51 C52 1.392 . S
C51 H72 0.931 . S
C52 C51 1.392 . S
C52 C53 1.361 . S
C52 C54 1.500 . S
C53 C48 1.390 . S
C53 C52 1.361 . S
C53 H71 0.931 . S
C54 C52 1.500 . S
C54 C55 1.371 1_455 S
C54 C56 1.361 1_455 S
C55 C54 1.371 1_655 S
C55 C65 1.386 . S
C55 H73 0.931 . S
C56 C54 1.361 1_655 S
C56 C57 1.422 . S
C56 H74 0.921 1_655 S
C57 C56 1.422 . S
C57 C58 1.380 . S
C57 H75 0.930 . S
C58 C57 1.380 . S
C58 C65 1.357 . S
C59 C50 1.511 1_565 S
C59 C60 1.341 . S
C59 C61 1.371 . S
C60 C59 1.341 . S
C60 C64 1.394 . S
C60 H76 0.930 . S
C61 C59 1.371 . S
C61 C62 1.392 . S
C61 H77 0.929 . S
C62 C61 1.392 . S
C62 C63 1.331 . S
C62 H80 0.932 . S
C63 C62 1.331 . S
C63 C64 1.336 . S
C64 C60 1.394 . S
C64 C63 1.336 . S
C64 H79 0.929 . S
C65 C55 1.386 . S
C65 C58 1.357 . S
C65 H78 0.928 . S
H66 C42 0.931 . S
H67 C44 0.930 . S
H68 C46 0.929 . S
H69 C47 0.931 . S
H70 C49 0.930 1_565 S
H71 C53 0.931 . S
H72 C51 0.931 . S
H73 C55 0.931 . S
H74 C56 0.921 1_455 S
H75 C57 0.930 . S
H76 C60 0.930 . S
H77 C61 0.929 . S
H78 C65 0.928 . S
H79 C64 0.929 . S
H80 C62 0.932 . S
C81 C82 1.386 . S
C81 C83 1.397 . S
C81 H105 0.931 . S
C82 C81 1.386 . S
C82 C86 1.397 1_545 S
C83 C81 1.397 . S
C83 C84 1.384 . S
C83 H106 0.930 . S
C84 C83 1.384 . S
C84 C85 1.377 1_545 S
C84 C87 1.481 . S
C85 C84 1.377 1_565 S
C85 C86 1.389 . S
C85 H107 0.929 . S
C86 C82 1.397 1_565 S
C86 C85 1.389 . S
C86 H108 0.931 . S
C87 C84 1.481 . S
C87 C88 1.387 . S
C87 C92 1.396 1_455 S
C88 C87 1.387 . S
C88 C89 1.401 . S
C88 H109 0.930 . S
C89 C88 1.401 . S
C89 C90 1.365 1_455 S
C89 C98 1.511 . S
C90 C89 1.365 1_655 S
C90 C91 1.403 1_545 S
C90 H111 0.931 . S
C91 C90 1.403 1_565 S
C91 C92 1.361 1_565 S
C91 C93 1.500 . S
C92 C87 1.396 1_655 S
C92 C91 1.361 1_545 S
C92 H110 0.926 1_545 S
C93 C91 1.500 . S
C93 C94 1.371 . S
C93 C95 1.365 . S
C94 C93 1.371 . S
C94 C104 1.386 . S
C94 H112 0.931 1_565 S
C95 C93 1.365 . S
C95 C96 1.409 . S
C95 H113 0.929 . S
C96 C95 1.409 . S
C96 C97 1.380 . S
C96 H114 0.930 . S
C97 C96 1.380 . S
C97 C104 1.357 . S
C98 C89 1.511 . S
C98 C99 1.341 . S
C98 C100 1.371 . S
C99 C98 1.341 . S
C99 C103 1.394 . S
C99 H115 0.930 . S
C100 C98 1.371 . S
C100 C101 1.392 . S
C100 H116 0.931 . S
C101 C100 1.392 . S
C101 C102 1.331 . S
C101 H119 0.932 . S
C102 C101 1.331 . S
C102 C103 1.336 . S
C103 C99 1.394 . S
C103 C102 1.336 . S
C103 H118 0.929 . S
C104 C94 1.386 . S
C104 C97 1.357 . S
C104 H117 0.928 . S
H105 C81 0.931 . S
H106 C83 0.930 . S
H107 C85 0.929 . S
H108 C86 0.931 . S
H109 C88 0.930 . S
H110 C92 0.926 1_565 S
H111 C90 0.931 . S
H112 C94 0.931 1_545 S
H113 C95 0.929 . S
H114 C96 0.930 . S
H115 C99 0.930 . S
H116 C100 0.931 . S
H117 C104 0.928 . S
H118 C103 0.929 . S
H119 C101 0.932 . S
C120 C121 1.386 . S
C120 C122 1.397 . S
C120 H144 0.931 . S
C121 C120 1.386 . S
C121 C125 1.397 . S
C122 C120 1.397 . S
C122 C123 1.384 . S
C122 H145 0.930 . S
C123 C122 1.384 . S
C123 C124 1.377 . S
C123 C126 1.481 . S
C124 C123 1.377 . S
C124 C125 1.389 . S
C124 H146 0.929 . S
C125 C121 1.397 . S
C125 C124 1.389 . S
C125 H147 0.931 . S
C126 C123 1.481 . S
C126 C127 1.387 . S
C126 C131 1.390 . S
C127 C126 1.387 . S
C127 C128 1.401 . S
C127 H148 0.930 . S
C128 C127 1.401 . S
C128 C129 1.376 . S
C128 C137 1.511 . S
C129 C128 1.376 . S
C129 C130 1.392 . S
C129 H150 0.931 . S
C130 C129 1.392 . S
C130 C131 1.361 . S
C130 C132 1.500 . S
C131 C126 1.390 . S
C131 C130 1.361 . S
C131 H149 0.931 . S
C132 C130 1.500 . S
C132 C133 1.371 . S
C132 C134 1.365 . S
C133 C132 1.371 . S
C133 C143 1.386 . S
C133 H151 0.931 . S
C134 C132 1.365 . S
C134 C135 1.409 . S
C134 H152 0.929 . S
C135 C134 1.409 . S
C135 C136 1.380 . S
C135 H153 0.930 . S
C136 C135 1.380 . S
C136 C143 1.357 . S
C137 C128 1.511 . S
C137 C138 1.341 . S
C137 C139 1.371 . S
C138 C137 1.341 . S
C138 C142 1.394 . S
C138 H154 0.930 . S
C139 C137 1.371 . S
C139 C140 1.392 . S
C139 H155 0.931 . S
C140 C139 1.392 . S
C140 C141 1.331 . S
C140 H158 0.932 . S
C141 C140 1.331 . S
C141 C142 1.336 . S
C142 C138 1.394 . S
C142 C141 1.336 . S
C142 H157 0.929 . S
C143 C133 1.386 . S
C143 C136 1.357 . S
C143 H156 0.928 . S
H144 C120 0.931 . S
H145 C122 0.930 . S
H146 C124 0.929 . S
H147 C125 0.931 . S
H148 C127 0.930 . S
H149 C131 0.931 . S
H150 C129 0.931 . S
H151 C133 0.931 . S
H152 C134 0.929 . S
H153 C135 0.930 . S
H154 C138 0.930 . S
H155 C139 0.931 . S
H156 C143 0.928 . S
H157 C142 0.929 . S
H158 C140 0.932 . S
C159 C160 1.386 . S
C159 C161 1.397 . S
C159 H183 0.931 . S
C160 C159 1.386 . S
C160 C164 1.397 . S
C161 C159 1.397 . S
C161 C162 1.384 . S
C161 H184 0.930 . S
C162 C161 1.384 . S
C162 C163 1.377 . S
C162 C165 1.481 . S
C163 C162 1.377 . S
C163 C164 1.389 . S
C163 H185 0.929 . S
C164 C160 1.397 . S
C164 C163 1.389 . S
C164 H186 0.931 . S
C165 C162 1.481 . S
C165 C166 1.387 . S
C165 C170 1.390 . S
C166 C165 1.387 . S
C166 C167 1.401 . S
C166 H187 0.930 . S
C167 C166 1.401 . S
C167 C168 1.376 . S
C167 C176 1.511 . S
C168 C167 1.376 . S
C168 C169 1.392 . S
C168 H189 0.931 . S
C169 C168 1.392 . S
C169 C170 1.361 . S
C169 C171 1.500 . S
C170 C165 1.390 . S
C170 C169 1.361 . S
C170 H188 0.931 . S
C171 C169 1.500 . S
C171 C172 1.371 . S
C171 C173 1.365 . S
C172 C171 1.371 . S
C172 C182 1.386 . S
C172 H190 0.931 . S
C173 C171 1.365 . S
C173 C174 1.409 . S
C173 H191 0.929 . S
C174 C173 1.409 . S
C174 C175 1.380 . S
C174 H192 0.930 . S
C175 C174 1.380 . S
C175 C182 1.357 . S
C176 C167 1.511 . S
C176 C177 1.341 . S
C176 C178 1.371 . S
C177 C176 1.341 . S
C177 C181 1.394 . S
C177 H193 0.930 . S
C178 C176 1.371 . S
C178 C179 1.392 . S
C178 H194 0.931 . S
C179 C178 1.392 . S
C179 C180 1.331 . S
C179 H197 0.932 . S
C180 C179 1.331 . S
C180 C181 1.336 . S
C181 C177 1.394 . S
C181 C180 1.336 . S
C181 H196 0.929 . S
C182 C172 1.386 . S
C182 C175 1.357 . S
C182 H195 0.928 . S
H183 C159 0.931 . S
H184 C161 0.930 . S
H185 C163 0.929 . S
H186 C164 0.931 . S
H187 C166 0.930 . S
H188 C170 0.931 . S
H189 C168 0.931 . S
H190 C172 0.931 . S
H191 C173 0.929 . S
H192 C174 0.930 . S
H193 C177 0.930 . S
H194 C178 0.931 . S
H195 C182 0.928 . S
H196 C181 0.929 . S
H197 C179 0.932 . S
C198 C199 1.386 . S
C198 C200 1.383 . S
C198 H214 0.951 . S
C199 C198 1.386 . S
C199 C203 1.383 . S
C200 C198 1.383 . S
C200 C201 1.402 . S
C200 H215 0.951 . S
C201 C200 1.402 . S
C201 C202 1.375 . S
C201 C204 1.481 . S
C202 C201 1.375 . S
C202 C203 1.367 . S
C202 H216 0.951 1_554 S
C203 C199 1.383 . S
C203 C202 1.367 . S
C203 H217 0.950 1_554 S
C204 C201 1.481 . S
C204 C205 1.297 . S
C204 H218 0.950 . S
C205 C204 1.297 . S
C205 C206 1.479 . S
C205 H219 0.950 . S
C206 C205 1.479 . S
C206 C207 1.375 . S
C206 C212 1.404 . S
C207 C206 1.375 . S
C207 C208 1.369 . S
C207 H220 0.950 . S
C208 C207 1.369 . S
C208 C209 1.392 . S
C208 H221 0.951 . S
C209 C208 1.392 . S
C209 C211 1.384 . S
H210 C212 0.949 . S
C211 C209 1.384 . S
C211 C212 1.385 . S
C211 H213 0.950 . S
C212 C206 1.404 . S
C212 H210 0.949 . S
C212 C211 1.385 . S
H213 C211 0.950 . S
H214 C198 0.951 . S
H215 C200 0.951 . S
H216 C202 0.951 1_556 S
H217 C203 0.950 1_556 S
H218 C204 0.950 . S
H219 C205 0.950 . S
H220 C207 0.950 . S
H221 C208 0.951 . S
C222 C223 1.386 1_554 S
C222 C224 1.383 . S
C222 H238 0.951 . S
C223 C222 1.386 1_556 S
C223 C227 1.383 . S
C224 C222 1.383 . S
C224 C225 1.402 1_554 S
C224 H239 0.951 . S
C225 C224 1.402 1_556 S
C225 C226 1.375 . S
C225 C228 1.481 . S
C226 C225 1.375 . S
C226 C227 1.367 . S
C226 H240 0.951 . S
C227 C223 1.383 . S
C227 C226 1.367 . S
C227 H241 0.950 . S
C228 C225 1.481 . S
C228 C229 1.297 . S
C228 H242 0.950 . S
C229 C228 1.297 . S
C229 C230 1.479 . S
C229 H243 0.934 1_556 S
C230 C229 1.479 . S
C230 C231 1.375 . S
C230 C236 1.404 . S
C231 C230 1.375 . S
C231 C232 1.369 . S
C231 H244 0.950 1_556 S
C232 C231 1.369 . S
C232 C233 1.392 . S
C232 H245 0.951 1_556 S
C233 C232 1.392 . S
C233 C235 1.384 . S
H234 C236 0.949 . S
C235 C233 1.384 . S
C235 C236 1.385 . S
C235 H237 0.950 . S
C236 C230 1.404 . S
C236 H234 0.949 . S
C236 C235 1.385 . S
H237 C235 0.950 . S
H238 C222 0.951 . S
H239 C224 0.951 . S
H240 C226 0.951 . S
H241 C227 0.950 . S
H242 C228 0.950 . S
H243 C229 0.934 1_554 S
H244 C231 0.950 1_554 S
H245 C232 0.951 1_554 S
C246 C247 1.386 . S
C246 C248 1.383 . S
C246 H262 0.951 . S
C247 C246 1.386 . S
C247 C251 1.383 . S
C248 C246 1.383 . S
C248 C249 1.402 . S
C248 H263 0.951 . S
C249 C248 1.402 . S
C249 C250 1.375 . S
C249 C252 1.481 . S
C250 C249 1.375 . S
C250 C251 1.367 . S
C250 H264 0.951 . S
C251 C247 1.383 . S
C251 C250 1.367 . S
C251 H265 0.950 . S
C252 C249 1.481 . S
C252 C253 1.297 . S
C252 H266 0.950 . S
C253 C252 1.297 . S
C253 C254 1.479 . S
C253 H267 0.950 . S
C254 C253 1.479 . S
C254 C255 1.375 . S
C254 C260 1.404 . S
C255 C254 1.375 . S
C255 C256 1.369 . S
C255 H268 0.950 . S
C256 C255 1.369 . S
C256 C257 1.392 . S
C256 H269 0.951 . S
C257 C256 1.392 . S
C257 C259 1.384 . S
H258 C260 0.949 . S
C259 C257 1.384 . S
C259 C260 1.385 . S
C259 H261 0.950 . S
C260 C254 1.404 . S
C260 H258 0.949 . S
C260 C259 1.385 . S
H261 C259 0.950 . S
H262 C246 0.951 . S
H263 C248 0.951 . S
H264 C250 0.951 . S
H265 C251 0.950 . S
H266 C252 0.950 . S
H267 C253 0.950 . S
H268 C255 0.950 . S
H269 C256 0.951 . S
C270 C271 1.386 1_556 S
C270 C272 1.383 . S
C270 H286 0.951 . S
C271 C270 1.386 1_554 S
C271 C275 1.383 1_554 S
C272 C270 1.383 . S
C272 C273 1.402 . S
C272 H287 0.951 . S
C273 C272 1.402 . S
C273 C274 1.375 . S
C273 C276 1.481 . S
C274 C273 1.375 . S
C274 C275 1.367 . S
C274 H288 0.951 . S
C275 C271 1.383 1_556 S
C275 C274 1.367 . S
C275 H289 0.950 1_556 S
C276 C273 1.481 . S
C276 C277 1.297 . S
C276 H290 0.950 . S
C277 C276 1.297 . S
C277 C278 1.479 . S
C277 H291 0.950 . S
C278 C277 1.479 . S
C278 C279 1.375 . S
C278 C284 1.404 . S
C279 C278 1.375 . S
C279 C280 1.369 . S
C279 H292 0.950 . S
C280 C279 1.369 . S
C280 C281 1.392 . S
C280 H293 0.951 . S
C281 C280 1.392 . S
C281 C283 1.384 . S
H282 C284 0.949 . S
C283 C281 1.384 . S
C283 C284 1.385 . S
C283 H285 0.950 . S
C284 C278 1.404 . S
C284 H282 0.949 . S
C284 C283 1.385 . S
H285 C283 0.950 . S
H286 C270 0.951 . S
H287 C272 0.951 . S
H288 C274 0.951 . S
H289 C275 0.950 1_554 S
H290 C276 0.950 . S
H291 C277 0.950 . S
H292 C279 0.950 . S
H293 C280 0.951 . S
C294 C295 1.386 . S
C294 C296 1.383 . S
C294 H310 0.951 . S
C295 C294 1.386 . S
C295 C299 1.383 . S
C296 C294 1.383 . S
C296 C297 1.402 . S
C296 H311 0.951 . S
C297 C296 1.402 . S
C297 C298 1.375 . S
C297 C300 1.481 . S
C298 C297 1.375 . S
C298 C299 1.367 . S
C298 H312 0.951 . S
C299 C295 1.383 . S
C299 C298 1.367 . S
C299 H313 0.950 . S
C300 C297 1.481 . S
C300 C301 1.297 . S
C300 H314 0.950 . S
C301 C300 1.297 . S
C301 C302 1.479 . S
C301 H315 0.950 . S
C302 C301 1.479 . S
C302 C303 1.375 . S
C302 C308 1.404 . S
C303 C302 1.375 . S
C303 C304 1.369 . S
C303 H316 0.950 . S
C304 C303 1.369 . S
C304 C305 1.392 . S
C304 H317 0.951 . S
C305 C304 1.392 . S
C305 C307 1.384 . S
H306 C308 0.949 . S
C307 C305 1.384 . S
C307 C308 1.385 . S
C307 H309 0.950 . S
C308 C302 1.404 . S
C308 H306 0.949 . S
C308 C307 1.385 . S
H309 C307 0.950 . S
H310 C294 0.951 . S
H311 C296 0.951 . S
H312 C298 0.951 . S
H313 C299 0.950 . S
H314 C300 0.950 . S
H315 C301 0.950 . S
H316 C303 0.950 . S
H317 C304 0.951 . S
C318 C319 1.386 . S
C318 C320 1.383 . S
C318 H334 0.951 . S
C319 C318 1.386 . S
C319 C323 1.383 . S
C320 C318 1.383 . S
C320 C321 1.402 . S
C320 H335 0.951 . S
C321 C320 1.402 . S
C321 C322 1.375 . S
C321 C324 1.481 . S
C322 C321 1.375 . S
C322 C323 1.367 . S
C322 H336 0.951 . S
C323 C319 1.383 . S
C323 C322 1.367 . S
C323 H337 0.950 . S
C324 C321 1.481 . S
C324 C325 1.297 . S
C324 H338 0.950 . S
C325 C324 1.297 . S
C325 C326 1.479 . S
C325 H339 0.950 . S
C326 C325 1.479 . S
C326 C327 1.375 . S
C326 C332 1.404 . S
C327 C326 1.375 . S
C327 C328 1.369 . S
C327 H340 0.950 . S
C328 C327 1.369 . S
C328 C329 1.392 . S
C328 H341 0.951 . S
C329 C328 1.392 . S
C329 C331 1.384 . S
H330 C332 0.949 . S
C331 C329 1.384 . S
C331 C332 1.385 . S
C331 H333 0.950 . S
C332 C326 1.404 . S
C332 H330 0.949 . S
C332 C331 1.385 . S
H333 C331 0.950 . S
H334 C318 0.951 . S
H335 C320 0.951 . S
H336 C322 0.951 . S
H337 C323 0.950 . S
H338 C324 0.950 . S
H339 C325 0.950 . S
H340 C327 0.950 . S
H341 C328 0.951 . S
C342 C343 1.386 . S
C342 C344 1.383 . S
C342 H358 0.951 . S
C343 C342 1.386 . S
C343 C347 1.383 . S
C344 C342 1.383 . S
C344 C345 1.402 . S
C344 H359 0.951 . S
C345 C344 1.402 . S
C345 C346 1.375 . S
C345 C348 1.481 . S
C346 C345 1.375 . S
C346 C347 1.367 . S
C346 H360 0.951 . S
C347 C343 1.383 . S
C347 C346 1.367 . S
C347 H361 0.950 . S
C348 C345 1.481 . S
C348 C349 1.297 . S
C348 H362 0.950 . S
C349 C348 1.297 . S
C349 C350 1.479 . S
C349 H363 0.950 . S
C350 C349 1.479 . S
C350 C351 1.375 . S
C350 C356 1.404 . S
C351 C350 1.375 . S
C351 C352 1.369 . S
C351 H364 0.950 . S
C352 C351 1.369 . S
C352 C353 1.392 . S
C352 H365 0.951 . S
C353 C352 1.392 . S
C353 C355 1.384 . S
H354 C356 0.949 . S
C355 C353 1.384 . S
C355 C356 1.385 . S
C355 H357 0.950 . S
C356 C350 1.404 . S
C356 H354 0.949 . S
C356 C355 1.385 . S
H357 C355 0.950 . S
H358 C342 0.951 . S
H359 C344 0.951 . S
H360 C346 0.951 . S
H361 C347 0.950 . S
H362 C348 0.950 . S
H363 C349 0.950 . S
H364 C351 0.950 . S
H365 C352 0.951 . S
C366 C367 1.386 . S
C366 C368 1.383 . S
C366 H382 0.951 . S
C367 C366 1.386 . S
C367 C371 1.383 . S
C368 C366 1.383 . S
C368 C369 1.402 . S
C368 H383 0.951 . S
C369 C368 1.402 . S
C369 C370 1.375 . S
C369 C372 1.481 . S
C370 C369 1.375 . S
C370 C371 1.367 . S
C370 H384 0.951 . S
C371 C367 1.383 . S
C371 C370 1.367 . S
C371 H385 0.950 . S
C372 C369 1.481 . S
C372 C373 1.297 . S
C372 H386 0.950 . S
C373 C372 1.297 . S
C373 C374 1.479 . S
C373 H387 0.950 . S
C374 C373 1.479 . S
C374 C375 1.375 . S
C374 C380 1.404 . S
C375 C374 1.375 . S
C375 C376 1.369 . S
C375 H388 0.950 . S
C376 C375 1.369 . S
C376 C377 1.392 . S
C376 H389 0.951 . S
C377 C376 1.392 . S
C377 C379 1.384 . S
H378 C380 0.949 . S
C379 C377 1.384 . S
C379 C380 1.385 . S
C379 H381 0.950 . S
C380 C374 1.404 . S
C380 H378 0.949 . S
C380 C379 1.385 . S
H381 C379 0.950 . S
H382 C366 0.951 . S
H383 C368 0.951 . S
H384 C370 0.951 . S
H385 C371 0.950 . S
H386 C372 0.950 . S
H387 C373 0.950 . S
H388 C375 0.950 . S
H389 C376 0.951 . S
C390 C391 1.392 . S
C390 C392 1.383 1_565 S
C390 H406 0.945 1_465 S
C391 C390 1.392 . S
C391 C395 1.383 . S
C392 C390 1.383 1_545 S
C392 C393 1.400 1_545 S
C392 H407 0.952 1_455 S
C393 C392 1.400 1_565 S
C393 C394 1.375 . S
C393 C396 1.481 . S
C394 C393 1.375 . S
C394 C395 1.367 . S
C394 H408 0.951 . S
C395 C391 1.383 . S
C395 C394 1.367 . S
C395 H409 0.950 . S
C396 C393 1.481 . S
C396 C397 1.297 . S
C396 H410 0.950 . S
C397 C396 1.297 . S
C397 C398 1.479 1_565 S
C397 H411 0.950 . S
C398 C397 1.479 1_545 S
C398 C399 1.375 . S
C398 C404 1.404 1_545 S
C399 C398 1.375 . S
C399 C400 1.369 . S
C399 H412 0.950 1_455 S
C400 C399 1.369 . S
C400 C401 1.392 . S
C400 H413 0.951 1_455 S
C401 C400 1.392 . S
C401 C403 1.384 . S
H402 C404 0.949 . S
C403 C401 1.384 . S
C403 C404 1.385 1_545 S
C403 H405 0.955 . S
C404 C398 1.404 1_565 S
C404 H402 0.949 . S
C404 C403 1.385 1_565 S
H405 C403 0.955 . S
H406 C390 0.945 1_645 S
H407 C392 0.952 1_655 S
H408 C394 0.951 . S
H409 C395 0.950 . S
H410 C396 0.950 . S
H411 C397 0.950 . S
H412 C399 0.950 1_655 S
H413 C400 0.951 1_655 S
C414 C415 1.386 1_655 S
C414 C416 1.383 . S
C414 H430 0.951 . S
C415 C414 1.386 1_455 S
C415 C419 1.383 1_565 S
C416 C414 1.383 . S
C416 C417 1.402 1_665 S
C416 H431 0.951 . S
C417 C416 1.402 1_445 S
C417 C418 1.375 . S
C417 C420 1.481 . S
C418 C417 1.375 . S
C418 C419 1.367 . S
C418 H432 0.951 . S
C419 C415 1.383 1_545 S
C419 C418 1.367 . S
C419 H433 0.950 . S
C420 C417 1.481 . S
C420 C421 1.297 1_455 S
C420 H434 0.950 . S
C421 C420 1.297 1_655 S
C421 C422 1.479 . S
C421 H435 0.950 . S
C422 C421 1.479 . S
C422 C423 1.375 . S
C422 C428 1.404 1_655 S
C423 C422 1.375 . S
C423 C424 1.369 . S
C423 H436 0.950 1_545 S
C424 C423 1.369 . S
C424 C425 1.392 1_655 S
C424 H437 0.951 1_545 S
C425 C424 1.392 1_455 S
C425 C427 1.384 . S
H426 C428 0.949 . S
C427 C425 1.384 . S
C427 C428 1.385 . S
C427 H429 0.950 . S
C428 C422 1.404 1_455 S
C428 H426 0.949 . S
C428 C427 1.385 . S
H429 C427 0.950 . S
H430 C414 0.951 . S
H431 C416 0.951 . S
H432 C418 0.951 . S
H433 C419 0.950 . S
H434 C420 0.950 . S
H435 C421 0.950 . S
H436 C423 0.950 1_565 S
H437 C424 0.951 1_565 S
C438 C439 1.386 . S
C438 C440 1.383 . S
C438 H454 0.951 . S
C439 C438 1.386 . S
C439 C443 1.383 . S
C440 C438 1.383 . S
C440 C441 1.402 . S
C440 H455 0.951 . S
C441 C440 1.402 . S
C441 C442 1.375 . S
C441 C444 1.481 . S
C442 C441 1.375 . S
C442 C443 1.367 . S
C442 H456 0.951 . S
C443 C439 1.383 . S
C443 C442 1.367 . S
C443 H457 0.950 . S
C444 C441 1.481 . S
C444 C445 1.297 . S
C444 H458 0.950 . S
C445 C444 1.297 . S
C445 C446 1.479 . S
C445 H459 0.950 . S
C446 C445 1.479 . S
C446 C447 1.375 . S
C446 C452 1.404 . S
C447 C446 1.375 . S
C447 C448 1.369 . S
C447 H460 0.950 . S
C448 C447 1.369 . S
C448 C449 1.392 . S
C448 H461 0.951 . S
C449 C448 1.392 . S
C449 C451 1.384 . S
H450 C452 0.949 . S
C451 C449 1.384 . S
C451 C452 1.385 . S
C451 H453 0.950 . S
C452 C446 1.404 . S
C452 H450 0.949 . S
C452 C451 1.385 . S
H453 C451 0.950 . S
H454 C438 0.951 . S
H455 C440 0.951 . S
H456 C442 0.951 . S
H457 C443 0.950 . S
H458 C444 0.950 . S
H459 C445 0.950 . S
H460 C447 0.950 . S
H461 C448 0.951 . S
C462 C463 1.386 . S
C462 C464 1.383 . S
C462 H478 0.951 . S
C463 C462 1.386 . S
C463 C467 1.383 . S
C464 C462 1.383 . S
C464 C465 1.402 . S
C464 H479 0.951 . S
C465 C464 1.402 . S
C465 C466 1.375 . S
C465 C468 1.481 . S
C466 C465 1.375 . S
C466 C467 1.367 . S
C466 H480 0.951 . S
C467 C463 1.383 . S
C467 C466 1.367 . S
C467 H481 0.950 . S
C468 C465 1.481 . S
C468 C469 1.297 . S
C468 H482 0.950 . S
C469 C468 1.297 . S
C469 C470 1.479 . S
C469 H483 0.950 . S
C470 C469 1.479 . S
C470 C471 1.375 . S
C470 C476 1.404 . S
C471 C470 1.375 . S
C471 C472 1.369 . S
C471 H484 0.950 . S
C472 C471 1.369 . S
C472 C473 1.392 . S
C472 H485 0.951 . S
C473 C472 1.392 . S
C473 C475 1.384 . S
H474 C476 0.949 . S
C475 C473 1.384 . S
C475 C476 1.385 . S
C475 H477 0.950 . S
C476 C470 1.404 . S
C476 H474 0.949 . S
C476 C475 1.385 . S
H477 C475 0.950 . S
H478 C462 0.951 . S
H479 C464 0.951 . S
H480 C466 0.951 . S
H481 C467 0.950 . S
H482 C468 0.950 . S
H483 C469 0.950 . S
H484 C471 0.950 . S
H485 C472 0.951 . S
C209 C175 1.186 . S
C199 C3 1.106 . S
C223 C4 1.541 1_556 S
C233 C136 1.597 . S
C247 C19 1.554 . S
C257 C180 1.639 . S
C271 C7 1.013 1_554 S
C281 C141 1.145 . S
C295 C37 1.101 . S
C305 C97 1.183 . S
C319 C28 1.473 . S
C329 C58 1.587 . S
C353 C102 1.617 . S
C343 C41 1.494 . S
C377 C63 1.197 . S
C367 C25 1.120 . S
C391 C20 1.271 . S
C401 C43 1.407 . S
C415 C16 1.327 . S
C425 C82 1.491 . S
C449 C121 1.407 . S
C439 C40 1.272 . S
C463 C24 1.350 . S
C473 C160 1.471 . S
