# Generated by pormake.
# Topology ptr, (4,4)-cn, num edge types: 1
# Building blocks:
#     Node 0, Type 0, BuildingBlock: KUFVIS_clean_sbu_0, # of connection points: 4
#     Node 1, Type 0, BuildingBlock: KUFVIS_clean_sbu_0, # of connection points: 4
#     Node 2, Type 0, BuildingBlock: KUFVIS_clean_sbu_0, # of connection points: 4
#     Node 3, Type 0, BuildingBlock: KUFVIS_clean_sbu_0, # of connection points: 4
#     Node 4, Type 0, BuildingBlock: KUFVIS_clean_sbu_0, # of connection points: 4
#     Node 5, Type 0, BuildingBlock: KUFVIS_clean_sbu_0, # of connection points: 4
#     Node 6, Type 0, BuildingBlock: KUFVIS_clean_sbu_0, # of connection points: 4
#     Node 7, Type 0, BuildingBlock: KUFVIS_clean_sbu_0, # of connection points: 4
#     Node 8, Type 0, BuildingBlock: KUFVIS_clean_sbu_0, # of connection points: 4
#     Node 9, Type 0, BuildingBlock: KUFVIS_clean_sbu_0, # of connection points: 4
#     Node 10, Type 0, BuildingBlock: KUFVIS_clean_sbu_0, # of connection points: 4
#     Node 11, Type 0, BuildingBlock: KUFVIS_clean_sbu_0, # of connection points: 4
#     Node 12, Type 0, BuildingBlock: KUFVIS_clean_sbu_0, # of connection points: 4
#     Node 13, Type 0, BuildingBlock: KUFVIS_clean_sbu_0, # of connection points: 4
#     Node 14, Type 0, BuildingBlock: KUFVIS_clean_sbu_0, # of connection points: 4
#     Node 15, Type 0, BuildingBlock: KUFVIS_clean_sbu_0, # of connection points: 4
#     Node 16, Type 0, BuildingBlock: KUFVIS_clean_sbu_0, # of connection points: 4
#     Node 17, Type 0, BuildingBlock: KUFVIS_clean_sbu_0, # of connection points: 4
#     Node 18, Type 1, BuildingBlock: NAWXER_clean_linker_0, # of connection points: 4
#     Node 19, Type 1, BuildingBlock: NAWXER_clean_linker_0, # of connection points: 4
#     Node 20, Type 1, BuildingBlock: NAWXER_clean_linker_0, # of connection points: 4
#     Node 21, Type 1, BuildingBlock: NAWXER_clean_linker_0, # of connection points: 4
#     Node 22, Type 1, BuildingBlock: NAWXER_clean_linker_0, # of connection points: 4
#     Node 23, Type 1, BuildingBlock: NAWXER_clean_linker_0, # of connection points: 4
#     Node 24, Type 1, BuildingBlock: NAWXER_clean_linker_0, # of connection points: 4
#     Node 25, Type 1, BuildingBlock: NAWXER_clean_linker_0, # of connection points: 4
#     Node 26, Type 1, BuildingBlock: NAWXER_clean_linker_0, # of connection points: 4
#     Node 27, Type 1, BuildingBlock: NAWXER_clean_linker_0, # of connection points: 4
#     Node 28, Type 1, BuildingBlock: NAWXER_clean_linker_0, # of connection points: 4
#     Node 29, Type 1, BuildingBlock: NAWXER_clean_linker_0, # of connection points: 4
#     Node 30, Type 1, BuildingBlock: NAWXER_clean_linker_0, # of connection points: 4
#     Node 31, Type 1, BuildingBlock: NAWXER_clean_linker_0, # of connection points: 4
#     Node 32, Type 1, BuildingBlock: NAWXER_clean_linker_0, # of connection points: 4
#     Node 33, Type 1, BuildingBlock: NAWXER_clean_linker_0, # of connection points: 4
#     Node 34, Type 1, BuildingBlock: NAWXER_clean_linker_0, # of connection points: 4
#     Node 35, Type 1, BuildingBlock: NAWXER_clean_linker_0, # of connection points: 4
#     Edge 36, Type (0, 1), BuildingBlock: UVAHIK_clean_linker_0, # of connection points: 2
#     Edge 37, Type (0, 1), BuildingBlock: UVAHIK_clean_linker_0, # of connection points: 2
#     Edge 38, Type (0, 1), BuildingBlock: UVAHIK_clean_linker_0, # of connection points: 2
#     Edge 39, Type (0, 1), BuildingBlock: UVAHIK_clean_linker_0, # of connection points: 2
#     Edge 40, Type (0, 1), BuildingBlock: UVAHIK_clean_linker_0, # of connection points: 2
#     Edge 41, Type (0, 1), BuildingBlock: UVAHIK_clean_linker_0, # of connection points: 2
#     Edge 42, Type (0, 1), BuildingBlock: UVAHIK_clean_linker_0, # of connection points: 2
#     Edge 43, Type (0, 1), BuildingBlock: UVAHIK_clean_linker_0, # of connection points: 2
#     Edge 44, Type (0, 1), BuildingBlock: UVAHIK_clean_linker_0, # of connection points: 2
#     Edge 45, Type (0, 1), BuildingBlock: UVAHIK_clean_linker_0, # of connection points: 2
#     Edge 46, Type (0, 1), BuildingBlock: UVAHIK_clean_linker_0, # of connection points: 2
#     Edge 47, Type (0, 1), BuildingBlock: UVAHIK_clean_linker_0, # of connection points: 2
#     Edge 48, Type (0, 1), BuildingBlock: UVAHIK_clean_linker_0, # of connection points: 2
#     Edge 49, Type (0, 1), BuildingBlock: UVAHIK_clean_linker_0, # of connection points: 2
#     Edge 50, Type (0, 1), BuildingBlock: UVAHIK_clean_linker_0, # of connection points: 2
#     Edge 51, Type (0, 1), BuildingBlock: UVAHIK_clean_linker_0, # of connection points: 2
#     Edge 52, Type (0, 1), BuildingBlock: UVAHIK_clean_linker_0, # of connection points: 2
#     Edge 53, Type (0, 1), BuildingBlock: UVAHIK_clean_linker_0, # of connection points: 2
#     Edge 54, Type (0, 1), BuildingBlock: UVAHIK_clean_linker_0, # of connection points: 2
#     Edge 55, Type (0, 1), BuildingBlock: UVAHIK_clean_linker_0, # of connection points: 2
#     Edge 56, Type (0, 1), BuildingBlock: UVAHIK_clean_linker_0, # of connection points: 2
#     Edge 57, Type (0, 1), BuildingBlock: UVAHIK_clean_linker_0, # of connection points: 2
#     Edge 58, Type (0, 1), BuildingBlock: UVAHIK_clean_linker_0, # of connection points: 2
#     Edge 59, Type (0, 1), BuildingBlock: UVAHIK_clean_linker_0, # of connection points: 2
#     Edge 60, Type (0, 1), BuildingBlock: UVAHIK_clean_linker_0, # of connection points: 2
#     Edge 61, Type (0, 1), BuildingBlock: UVAHIK_clean_linker_0, # of connection points: 2
#     Edge 62, Type (0, 1), BuildingBlock: UVAHIK_clean_linker_0, # of connection points: 2
#     Edge 63, Type (0, 1), BuildingBlock: UVAHIK_clean_linker_0, # of connection points: 2
#     Edge 64, Type (0, 1), BuildingBlock: UVAHIK_clean_linker_0, # of connection points: 2
#     Edge 65, Type (0, 1), BuildingBlock: UVAHIK_clean_linker_0, # of connection points: 2
#     Edge 66, Type (0, 1), BuildingBlock: UVAHIK_clean_linker_0, # of connection points: 2
#     Edge 67, Type (0, 1), BuildingBlock: UVAHIK_clean_linker_0, # of connection points: 2
#     Edge 68, Type (0, 1), BuildingBlock: UVAHIK_clean_linker_0, # of connection points: 2
#     Edge 69, Type (0, 1), BuildingBlock: UVAHIK_clean_linker_0, # of connection points: 2
#     Edge 70, Type (0, 1), BuildingBlock: UVAHIK_clean_linker_0, # of connection points: 2
#     Edge 71, Type (0, 1), BuildingBlock: UVAHIK_clean_linker_0, # of connection points: 2
#     Edge 72, Type (0, 1), BuildingBlock: UVAHIK_clean_linker_0, # of connection points: 2
#     Edge 73, Type (0, 1), BuildingBlock: UVAHIK_clean_linker_0, # of connection points: 2
#     Edge 74, Type (0, 1), BuildingBlock: UVAHIK_clean_linker_0, # of connection points: 2
#     Edge 75, Type (0, 1), BuildingBlock: UVAHIK_clean_linker_0, # of connection points: 2
#     Edge 76, Type (0, 1), BuildingBlock: UVAHIK_clean_linker_0, # of connection points: 2
#     Edge 77, Type (0, 1), BuildingBlock: UVAHIK_clean_linker_0, # of connection points: 2
#     Edge 78, Type (0, 1), BuildingBlock: UVAHIK_clean_linker_0, # of connection points: 2
#     Edge 79, Type (0, 1), BuildingBlock: UVAHIK_clean_linker_0, # of connection points: 2
#     Edge 80, Type (0, 1), BuildingBlock: UVAHIK_clean_linker_0, # of connection points: 2
#     Edge 81, Type (0, 1), BuildingBlock: UVAHIK_clean_linker_0, # of connection points: 2
#     Edge 82, Type (0, 1), BuildingBlock: UVAHIK_clean_linker_0, # of connection points: 2
#     Edge 83, Type (0, 1), BuildingBlock: UVAHIK_clean_linker_0, # of connection points: 2
#     Edge 84, Type (0, 1), BuildingBlock: UVAHIK_clean_linker_0, # of connection points: 2
#     Edge 85, Type (0, 1), BuildingBlock: UVAHIK_clean_linker_0, # of connection points: 2
#     Edge 86, Type (0, 1), BuildingBlock: UVAHIK_clean_linker_0, # of connection points: 2
#     Edge 87, Type (0, 1), BuildingBlock: UVAHIK_clean_linker_0, # of connection points: 2
#     Edge 88, Type (0, 1), BuildingBlock: UVAHIK_clean_linker_0, # of connection points: 2
#     Edge 89, Type (0, 1), BuildingBlock: UVAHIK_clean_linker_0, # of connection points: 2
#     Edge 90, Type (0, 1), BuildingBlock: UVAHIK_clean_linker_0, # of connection points: 2
#     Edge 91, Type (0, 1), BuildingBlock: UVAHIK_clean_linker_0, # of connection points: 2
#     Edge 92, Type (0, 1), BuildingBlock: UVAHIK_clean_linker_0, # of connection points: 2
#     Edge 93, Type (0, 1), BuildingBlock: UVAHIK_clean_linker_0, # of connection points: 2
#     Edge 94, Type (0, 1), BuildingBlock: UVAHIK_clean_linker_0, # of connection points: 2
#     Edge 95, Type (0, 1), BuildingBlock: UVAHIK_clean_linker_0, # of connection points: 2
#     Edge 96, Type (0, 1), BuildingBlock: UVAHIK_clean_linker_0, # of connection points: 2
#     Edge 97, Type (0, 1), BuildingBlock: UVAHIK_clean_linker_0, # of connection points: 2
#     Edge 98, Type (0, 1), BuildingBlock: UVAHIK_clean_linker_0, # of connection points: 2
#     Edge 99, Type (0, 1), BuildingBlock: UVAHIK_clean_linker_0, # of connection points: 2
#     Edge 100, Type (0, 1), BuildingBlock: UVAHIK_clean_linker_0, # of connection points: 2
#     Edge 101, Type (0, 1), BuildingBlock: UVAHIK_clean_linker_0, # of connection points: 2
#     Edge 102, Type (0, 1), BuildingBlock: UVAHIK_clean_linker_0, # of connection points: 2
#     Edge 103, Type (0, 1), BuildingBlock: UVAHIK_clean_linker_0, # of connection points: 2
#     Edge 104, Type (0, 1), BuildingBlock: UVAHIK_clean_linker_0, # of connection points: 2
#     Edge 105, Type (0, 1), BuildingBlock: UVAHIK_clean_linker_0, # of connection points: 2
#     Edge 106, Type (0, 1), BuildingBlock: UVAHIK_clean_linker_0, # of connection points: 2
#     Edge 107, Type (0, 1), BuildingBlock: UVAHIK_clean_linker_0, # of connection points: 2
# Relax obj value: 0.037
# Max RMSD: 0.166
# Mean RMSD: 0.064
data_MOF--net-ptr--node1-KUFVIS_clean_sbu_0--node2-NAWXER_clean_linker_0--edge1-UVAHIK_clean_linker_0
_symmetry_space_group_name_H-M    P1
_symmetry_Int_Tables_number       1
_symmetry_cell_setting            triclinic
loop_
_symmetry_equiv_pos_as_xyz
'x, y, z'
_cell_length_a     107.7927
_cell_length_b     107.28142
_cell_length_c     79.736581
_cell_angle_alpha  89.849454
_cell_angle_beta   90.454281
_cell_angle_gamma 119.49588
loop_
_atom_site_label
_atom_site_type_symbol
_atom_site_fract_x
_atom_site_fract_y
_atom_site_fract_z
_atom_type_partial_charge
Mn0 Mn 0.00105 0.34474 0.00352 0.0
Mn1 Mn 0.03266 0.37532 0.00326 0.0
C2 C 0.00421 0.36309 0.98589 0.0
C3 C 0.98717 0.32139 0.99378 0.0
C4 C 0.01051 0.36783 0.0305 0.0
O5 O 0.01431 0.33937 0.01573 0.0
O6 O 0.03535 0.35953 0.01252 0.0
C7 C 0.04722 0.3672 0.97778 0.0
N8 N 0.04259 0.37623 0.98315 0.0
C9 C 0.05185 0.39096 0.95858 0.0
C10 C 0.05681 0.38187 0.95284 0.0
C11 C 0.05446 0.36992 0.96247 0.0
C12 C 0.04473 0.38772 0.97395 0.0
H13 H 0.04538 0.35797 0.98511 0.0
C14 C 0.02782 0.34653 0.0174 0.0
O15 O 0.98442 0.32541 0.00799 0.0
O16 O 0.99799 0.33089 0.98544 0.0
N17 N 0.03179 0.39152 0.99456 0.0
C18 C 0.02607 0.39906 0.00171 0.0
C19 C 0.02743 0.41131 0.99361 0.0
C20 C 0.03474 0.41574 0.97834 0.0
C21 C 0.0407 0.40793 0.97135 0.0
C22 C 0.03915 0.39591 0.98008 0.0
H23 H 0.02048 0.39575 0.01347 0.0
O24 O 0.99146 0.35306 0.98962 0.0
O25 O 0.0147 0.36185 0.99223 0.0
O26 O 0.00084 0.35616 0.02399 0.0
O27 O 0.02287 0.37539 0.0241 0.0
C28 C 0.04799 0.4115 0.95596 0.0
C29 C 0.05352 0.403 0.94956 0.0
H30 H 0.06235 0.3839 0.94102 0.0
H31 H 0.05819 0.36281 0.95808 0.0
H32 H 0.02282 0.4173 0.9991 0.0
H33 H 0.03569 0.42514 0.97209 0.0
H34 H 0.04926 0.42068 0.94887 0.0
H35 H 0.05896 0.40576 0.93763 0.0
Mn36 Mn 0.65159 0.65184 0.01217 0.0
Mn37 Mn 0.64937 0.61967 0.00615 0.0
C38 C 0.63752 0.63302 0.02963 0.0
C39 C 0.66336 0.67471 0.02382 0.0
C40 C 0.63401 0.63109 0.98433 0.0
O41 O 0.66833 0.65642 0.9969 0.0
O42 O 0.66713 0.63488 0.99587 0.0
C43 C 0.6739 0.6236 0.02694 0.0
N44 N 0.65973 0.61607 0.02321 0.0
C45 C 0.65587 0.59841 0.04423 0.0
C46 C 0.67044 0.60594 0.04825 0.0
C47 C 0.67948 0.61862 0.03961 0.0
C48 C 0.65092 0.60391 0.0315 0.0
H49 H 0.68088 0.63332 0.02029 0.0
C50 C 0.67318 0.64826 0.99237 0.0
O51 O 0.65532 0.67193 0.01058 0.0
O52 O 0.66472 0.66427 0.03007 0.0
N53 N 0.63275 0.60392 0.01556 0.0
C54 C 0.61883 0.59853 0.01099 0.0
C55 C 0.6083 0.58618 0.01895 0.0
C56 C 0.61222 0.57939 0.03132 0.0
C57 C 0.62663 0.58506 0.03569 0.0
C58 C 0.63663 0.59743 0.02738 0.0
H59 H 0.61578 0.60366 0.00141 0.0
O60 O 0.63553 0.64397 0.02835 0.0
O61 O 0.6479 0.63353 0.02088 0.0
O62 O 0.63758 0.64253 0.9926 0.0
O63 O 0.63819 0.62215 0.98802 0.0
C64 C 0.63144 0.57906 0.04813 0.0
C65 C 0.64603 0.58578 0.05248 0.0
H66 H 0.67479 0.60214 0.05802 0.0
H67 H 0.69073 0.62451 0.04268 0.0
H68 H 0.5972 0.58188 0.01553 0.0
H69 H 0.60406 0.56989 0.03748 0.0
H70 H 0.62398 0.56937 0.05458 0.0
H71 H 0.64956 0.58121 0.06229 0.0
Mn72 Mn 0.34329 0.99917 0.01323 0.0
Mn73 Mn 0.37299 0.03157 0.0125 0.0
C74 C 0.36211 0.00357 0.03087 0.0
C75 C 0.32031 0.98494 0.02355 0.0
C76 C 0.36586 0.00858 0.98604 0.0
O77 O 0.33711 0.01155 0.00027 0.0
O78 O 0.35665 0.03321 0.00327 0.0
C79 C 0.36473 0.04653 0.03739 0.0
N80 N 0.37404 0.04226 0.03209 0.0
C81 C 0.38993 0.05418 0.05525 0.0
C82 C 0.38058 0.05881 0.0609 0.0
C83 C 0.3679 0.05491 0.05197 0.0
C84 C 0.38621 0.04584 0.04066 0.0
H85 H 0.35498 0.04356 0.03055 0.0
C86 C 0.34377 0.0251 0.99836 0.0
O87 O 0.32417 0.98185 0.00946 0.0
O88 O 0.32971 0.9963 0.03137 0.0
N89 N 0.38973 0.03182 0.02113 0.0
C90 C 0.39717 0.02578 0.01457 0.0
C91 C 0.40989 0.02819 0.02239 0.0
C92 C 0.41493 0.03696 0.03669 0.0
C93 C 0.4072 0.04323 0.04306 0.0
C94 C 0.39458 0.04041 0.03477 0.0
H95 H 0.3934 0.01912 0.00351 0.0
O96 O 0.3523 0.99054 0.02756 0.0
O97 O 0.36035 0.01369 0.02419 0.0
O98 O 0.35458 0.99868 0.99283 0.0
O99 O 0.37302 0.02123 0.99208 0.0
C100 C 0.4114 0.05199 0.05746 0.0
C101 C 0.40272 0.05738 0.06362 0.0
H102 H 0.38297 0.06526 0.07214 0.0
H103 H 0.36059 0.05837 0.05629 0.0
H104 H 0.4158 0.02332 0.01739 0.0
H105 H 0.42471 0.03874 0.04273 0.0
H106 H 0.42119 0.0545 0.06403 0.0
H107 H 0.40594 0.06389 0.07488 0.0
Mn108 Mn 0.00402 0.65964 0.00249 0.0
Mn109 Mn 0.03545 0.65988 0.00128 0.0
C110 C 0.00677 0.64465 0.98414 0.0
C111 C 0.99003 0.66947 0.99392 0.0
C112 C 0.01337 0.64481 0.02839 0.0
O113 O 0.01746 0.67774 0.01523 0.0
O114 O 0.03822 0.67793 0.01162 0.0
C115 C 0.04994 0.68333 0.97672 0.0
N116 N 0.04541 0.66956 0.98146 0.0
C117 C 0.05509 0.66505 0.95659 0.0
C118 C 0.05995 0.67922 0.95148 0.0
C119 C 0.05732 0.68839 0.96157 0.0
C120 C 0.04776 0.66062 0.97178 0.0
H121 H 0.04791 0.69039 0.98443 0.0
C122 C 0.03093 0.68356 0.01701 0.0
O123 O 0.98745 0.66229 0.00781 0.0
O124 O 0.00082 0.6711 0.98518 0.0
N125 N 0.03469 0.6432 0.99165 0.0
C126 C 0.02919 0.62981 0.9983 0.0
C127 C 0.03092 0.61934 0.98977 0.0
C128 C 0.03845 0.62279 0.97462 0.0
C129 C 0.04423 0.63669 0.96817 0.0
C130 C 0.04227 0.64672 0.97731 0.0
H131 H 0.02349 0.62712 0.01002 0.0
O132 O 0.99415 0.64225 0.98813 0.0
O133 O 0.01748 0.65609 0.99053 0.0
O134 O 0.00385 0.6474 0.02236 0.0
O135 O 0.02563 0.64937 0.02178 0.0
C136 C 0.05173 0.64097 0.95295 0.0
C137 C 0.0571 0.65512 0.94712 0.0
H138 H 0.06564 0.68316 0.93981 0.0
H139 H 0.06099 0.69932 0.95768 0.0
H140 H 0.02647 0.60864 0.99486 0.0
H141 H 0.03974 0.61468 0.96805 0.0
H142 H 0.05332 0.63342 0.94554 0.0
H143 H 0.06272 0.65824 0.93531 0.0
Mn144 Mn 0.34672 0.35179 0.01057 0.0
Mn145 Mn 0.37897 0.35395 0.00762 0.0
C146 C 0.36436 0.36534 0.02979 0.0
C147 C 0.32327 0.34016 0.02005 0.0
C148 C 0.36919 0.37016 0.98481 0.0
O149 O 0.34299 0.33529 0.99493 0.0
O150 O 0.3644 0.33639 0.99597 0.0
C151 C 0.37361 0.32881 0.02821 0.0
N152 N 0.3814 0.34312 0.02511 0.0
C153 C 0.3972 0.34651 0.04828 0.0
C154 C 0.3894 0.33179 0.05166 0.0
C155 C 0.37753 0.32291 0.0416 0.0
C156 C 0.39282 0.35176 0.03472 0.0
H157 H 0.36447 0.32196 0.02051 0.0
C158 C 0.35133 0.33045 0.99121 0.0
O159 O 0.32705 0.34855 0.00709 0.0
O160 O 0.33303 0.3382 0.0272 0.0
N161 N 0.39412 0.37038 0.01841 0.0
C162 C 0.39999 0.38444 0.01407 0.0
C163 C 0.41172 0.39481 0.02323 0.0
C164 C 0.41737 0.3906 0.03662 0.0
C165 C 0.41126 0.37605 0.04072 0.0
C166 C 0.39963 0.36619 0.03109 0.0
H167 H 0.39572 0.38774 0.00378 0.0
O168 O 0.35363 0.36749 0.02747 0.0
O169 O 0.36433 0.35511 0.021 0.0
O170 O 0.35733 0.36638 0.992 0.0
O171 O 0.37772 0.36569 0.98925 0.0
C172 C 0.41603 0.37096 0.05422 0.0
C173 C 0.40899 0.35621 0.05801 0.0
H174 H 0.39235 0.32721 0.06203 0.0
H175 H 0.37142 0.31156 0.04418 0.0
H176 H 0.41637 0.40602 0.02 0.0
H177 H 0.42632 0.39864 0.04376 0.0
H178 H 0.42495 0.37834 0.06193 0.0
H179 H 0.41263 0.35246 0.06858 0.0
Mn180 Mn 0.6557 0.00168 0.0055 0.0
Mn181 Mn 0.6239 0.97135 0.00614 0.0
C182 C 0.63759 0.9995 0.98803 0.0
C183 C 0.6788 0.01407 0.99512 0.0
C184 C 0.63385 0.99435 0.03304 0.0
O185 O 0.65986 0.98755 0.01804 0.0
O186 O 0.63888 0.96725 0.01463 0.0
C187 C 0.62918 0.95489 0.98018 0.0
N188 N 0.62131 0.9607 0.98601 0.0
C189 C 0.60544 0.95182 0.9622 0.0
C190 C 0.61333 0.94566 0.95599 0.0
C191 C 0.62527 0.94723 0.96501 0.0
C192 C 0.60985 0.95932 0.97739 0.0
H193 H 0.6384 0.95612 0.98706 0.0
C194 C 0.6519 0.97402 0.01957 0.0
O195 O 0.67557 0.01757 0.00937 0.0
O196 O 0.66871 0.00321 0.98725 0.0
N197 N 0.6084 0.97373 0.99817 0.0
C198 C 0.60218 0.98067 0.00564 0.0
C199 C 0.59012 0.98021 0.99817 0.0
C200 C 0.58452 0.97255 0.98319 0.0
C201 C 0.59102 0.9654 0.97581 0.0
C202 C 0.60292 0.96609 0.98393 0.0
H203 H 0.60639 0.98652 0.0172 0.0
O204 O 0.64831 0.01204 0.99137 0.0
O205 O 0.63801 0.98864 0.99467 0.0
O206 O 0.64534 0.00351 0.02596 0.0
O207 O 0.62554 0.98185 0.02714 0.0
C208 C 0.58626 0.95773 0.96063 0.0
C209 C 0.5935 0.95099 0.9538 0.0
H210 H 0.61037 0.93978 0.94427 0.0
H211 H 0.63145 0.94257 0.96026 0.0
H212 H 0.58516 0.98576 0.00395 0.0
H213 H 0.57523 0.97224 0.97747 0.0
H214 H 0.57715 0.95708 0.95401 0.0
H215 H 0.58985 0.94527 0.94201 0.0
Mn216 Mn 0.66293 0.68011 0.34162 0.0
Mn217 Mn 0.69341 0.71133 0.34757 0.0
C218 C 0.66831 0.69931 0.3242 0.0
C219 C 0.65087 0.65733 0.32977 0.0
C220 C 0.66736 0.7013 0.36956 0.0
O221 O 0.67472 0.67452 0.35674 0.0
O222 O 0.69539 0.69544 0.35759 0.0
C223 C 0.71253 0.70588 0.32612 0.0
N224 N 0.70653 0.71407 0.33007 0.0
C225 C 0.71913 0.73067 0.30787 0.0
C226 C 0.72551 0.72246 0.30362 0.0
C227 C 0.72217 0.70999 0.31276 0.0
C228 C 0.70962 0.72604 0.32131 0.0
H229 H 0.70995 0.69627 0.33309 0.0
C230 C 0.68779 0.6821 0.36107 0.0
O231 O 0.64615 0.66049 0.34312 0.0
O232 O 0.66273 0.66731 0.32359 0.0
N233 N 0.693 0.72761 0.33833 0.0
C234 C 0.68556 0.73406 0.34367 0.0
C235 C 0.68757 0.74662 0.33573 0.0
C236 C 0.69728 0.75246 0.32248 0.0
C237 C 0.70489 0.74569 0.31728 0.0
C238 C 0.70255 0.73329 0.32578 0.0
H239 H 0.67813 0.72966 0.3539 0.0
O240 O 0.65527 0.68896 0.3254 0.0
O241 O 0.67777 0.698 0.33305 0.0
O242 O 0.65917 0.69004 0.36122 0.0
O243 O 0.68045 0.70962 0.36596 0.0
C244 C 0.71459 0.75067 0.30388 0.0
C245 C 0.72167 0.74314 0.29914 0.0
H246 H 0.73292 0.72557 0.29329 0.0
H247 H 0.727 0.70356 0.30951 0.0
H248 H 0.68166 0.75178 0.33981 0.0
H249 H 0.69876 0.76211 0.31635 0.0
H250 H 0.71656 0.76019 0.297 0.0
H251 H 0.72896 0.74697 0.28868 0.0
Mn252 Mn 0.31817 0.98705 0.34964 0.0
Mn253 Mn 0.31589 0.95455 0.34849 0.0
C254 C 0.30269 0.96918 0.36738 0.0
C255 C 0.3293 0.01047 0.35965 0.0
C256 C 0.3026 0.96503 0.32216 0.0
O257 O 0.33577 0.99059 0.33657 0.0
O258 O 0.33467 0.96916 0.33961 0.0
C259 C 0.33809 0.95939 0.37376 0.0
N260 N 0.32437 0.95171 0.36821 0.0
C261 C 0.31801 0.93555 0.39162 0.0
C262 C 0.33211 0.94322 0.39752 0.0
C263 C 0.34217 0.95522 0.38858 0.0
C264 C 0.31457 0.94023 0.37679 0.0
H265 H 0.34583 0.96865 0.36695 0.0
C266 C 0.34092 0.98222 0.33471 0.0
O267 O 0.32228 0.00703 0.34555 0.0
O268 O 0.33012 0.00036 0.36769 0.0
N269 N 0.29831 0.93932 0.35678 0.0
C270 C 0.28506 0.93337 0.34968 0.0
C271 C 0.27374 0.9213 0.35714 0.0
C272 C 0.27616 0.91539 0.3717 0.0
C273 C 0.28989 0.92164 0.37872 0.0
C274 C 0.3008 0.93356 0.37063 0.0
H275 H 0.28315 0.93777 0.33841 0.0
O276 O 0.301 0.98012 0.3642 0.0
O277 O 0.31355 0.9692 0.36039 0.0
O278 O 0.3056 0.97678 0.32938 0.0
O279 O 0.30652 0.95634 0.32786 0.0
C280 C 0.29316 0.91659 0.3935 0.0
C281 C 0.3072 0.92358 0.39999 0.0
H282 H 0.33529 0.94005 0.40895 0.0
H283 H 0.35305 0.96124 0.3931 0.0
H284 H 0.26317 0.91653 0.35164 0.0
H285 H 0.2674 0.90606 0.37738 0.0
H286 H 0.28493 0.90745 0.40009 0.0
H287 H 0.30954 0.91971 0.41148 0.0
Mn288 Mn 0.01211 0.32882 0.34458 0.0
Mn289 Mn 0.04452 0.35855 0.34489 0.0
C290 C 0.02922 0.33083 0.36371 0.0
C291 C 0.98856 0.31686 0.35374 0.0
C292 C 0.03518 0.33496 0.31877 0.0
O293 O 0.00892 0.3431 0.33093 0.0
O294 O 0.03038 0.36286 0.33415 0.0
C295 C 0.03874 0.37646 0.36823 0.0
N296 N 0.04656 0.37013 0.36399 0.0
C297 C 0.06191 0.3803 0.38805 0.0
C298 C 0.05407 0.38699 0.39262 0.0
C299 C 0.04241 0.38503 0.38269 0.0
C300 C 0.05777 0.37192 0.37348 0.0
H301 H 0.02977 0.37496 0.36062 0.0
C302 C 0.01747 0.35645 0.32877 0.0
O303 O 0.99224 0.31315 0.33995 0.0
O304 O 0.99845 0.32773 0.3618 0.0
N305 N 0.0593 0.35601 0.35496 0.0
C306 C 0.0652 0.34812 0.34936 0.0
C307 C 0.07674 0.34855 0.35817 0.0
C308 C 0.08218 0.35718 0.37253 0.0
C309 C 0.07603 0.36532 0.37795 0.0
C310 C 0.0646 0.36452 0.36862 0.0
H311 H 0.06111 0.34151 0.33829 0.0
O312 O 0.01856 0.31836 0.35997 0.0
O313 O 0.02947 0.34176 0.3563 0.0
O314 O 0.02304 0.32636 0.32502 0.0
O315 O 0.04364 0.34727 0.32499 0.0
C316 C 0.08057 0.37394 0.39247 0.0
C317 C 0.0735 0.3814 0.39753 0.0
H318 H 0.05684 0.39357 0.40381 0.0
H319 H 0.03627 0.39011 0.38619 0.0
H320 H 0.08142 0.34222 0.35392 0.0
H321 H 0.091 0.3574 0.37937 0.0
H322 H 0.08933 0.3747 0.4 0.0
H323 H 0.07695 0.3878 0.40887 0.0
Mn324 Mn 0.6659 0.98225 0.33783 0.0
Mn325 Mn 0.69648 0.98076 0.33915 0.0
C326 C 0.66942 0.96814 0.31884 0.0
C327 C 0.65289 0.99299 0.32853 0.0
C328 C 0.67221 0.96484 0.36353 0.0
O329 O 0.67897 0.9995 0.35215 0.0
O330 O 0.69923 0.99832 0.35082 0.0
C331 C 0.71419 0.0058 0.31771 0.0
N332 N 0.70852 0.99158 0.32105 0.0
C333 C 0.72019 0.98832 0.29722 0.0
C334 C 0.72623 0.00295 0.29358 0.0
C335 C 0.72319 0.01172 0.30385 0.0
C336 C 0.71133 0.98304 0.31123 0.0
H337 H 0.71186 0.01257 0.32556 0.0
C338 C 0.69216 0.0044 0.35552 0.0
O339 O 0.64942 0.9853 0.34209 0.0
O340 O 0.66415 0.99479 0.32071 0.0
N341 N 0.69555 0.96442 0.3283 0.0
C342 C 0.6883 0.9504 0.33304 0.0
C343 C 0.68987 0.94015 0.3238 0.0
C344 C 0.69901 0.94441 0.30993 0.0
C345 C 0.70652 0.95892 0.30545 0.0
C346 C 0.70458 0.96867 0.31517 0.0
H347 H 0.68129 0.94706 0.34372 0.0
O348 O 0.65665 0.96576 0.32202 0.0
O349 O 0.67983 0.97885 0.3267 0.0
O350 O 0.66375 0.96871 0.35715 0.0
O351 O 0.68473 0.96901 0.35797 0.0
C352 C 0.7156 0.96404 0.29148 0.0
C353 C 0.7224 0.97872 0.28735 0.0
H354 H 0.73313 0.00755 0.28287 0.0
H355 H 0.72776 0.02301 0.30107 0.0
H356 H 0.68403 0.92897 0.32734 0.0
H357 H 0.70009 0.93645 0.30274 0.0
H358 H 0.71724 0.95674 0.28367 0.0
H359 H 0.7292 0.98249 0.27644 0.0
Mn360 Mn 0.01459 0.68405 0.34736 0.0
Mn361 Mn 0.04752 0.68772 0.34588 0.0
C362 C 0.03191 0.69921 0.366 0.0
C363 C 0.99127 0.67188 0.35725 0.0
C364 C 0.03672 0.70173 0.32094 0.0
O365 O 0.01167 0.667 0.3333 0.0
O366 O 0.03357 0.66932 0.33508 0.0
C367 C 0.04318 0.66396 0.3684 0.0
N368 N 0.05043 0.67813 0.36444 0.0
C369 C 0.06618 0.68335 0.38815 0.0
C370 C 0.05895 0.66879 0.39242 0.0
C371 C 0.04738 0.65906 0.38252 0.0
C372 C 0.06157 0.68759 0.37388 0.0
H373 H 0.03427 0.65646 0.36083 0.0
C374 C 0.02048 0.66259 0.33034 0.0
O375 O 0.99442 0.67939 0.34356 0.0
O376 O 0.00157 0.67114 0.36484 0.0
N377 N 0.06208 0.70499 0.35595 0.0
C378 C 0.06736 0.71877 0.3507 0.0
C379 C 0.07868 0.72989 0.3596 0.0
C380 C 0.08453 0.72673 0.37368 0.0
C381 C 0.07904 0.71246 0.37873 0.0
C382 C 0.0678 0.70181 0.36932 0.0
H383 H 0.06291 0.72127 0.33988 0.0
O384 O 0.02085 0.70064 0.3629 0.0
O385 O 0.03242 0.68881 0.35827 0.0
O386 O 0.02462 0.69764 0.32769 0.0
O387 O 0.04573 0.69823 0.3265 0.0
C388 C 0.08404 0.7084 0.39295 0.0
C389 C 0.07761 0.69386 0.39767 0.0
H390 H 0.0621 0.66498 0.40336 0.0
H391 H 0.0417 0.64782 0.38579 0.0
H392 H 0.08284 0.74089 0.35564 0.0
H393 H 0.09316 0.73536 0.38062 0.0
H394 H 0.09268 0.7164 0.40051 0.0
H395 H 0.08141 0.6909 0.40877 0.0
Mn396 Mn 0.32222 0.33923 0.34153 0.0
Mn397 Mn 0.29332 0.30632 0.34208 0.0
C398 C 0.30376 0.33382 0.32291 0.0
C399 C 0.34535 0.35416 0.3324 0.0
C400 C 0.29934 0.32934 0.36816 0.0
O401 O 0.32856 0.32745 0.35551 0.0
O402 O 0.30998 0.30528 0.3513 0.0
C403 C 0.30223 0.29197 0.3171 0.0
N404 N 0.29265 0.29588 0.3224 0.0
C405 C 0.27735 0.28447 0.29861 0.0
C406 C 0.28698 0.2802 0.29298 0.0
C407 C 0.2995 0.28401 0.30223 0.0
C408 C 0.28064 0.29238 0.31351 0.0
H409 H 0.31189 0.29495 0.32414 0.0
C410 C 0.32253 0.31386 0.35689 0.0
O411 O 0.3406 0.35706 0.34592 0.0
O412 O 0.33672 0.34255 0.32436 0.0
N413 N 0.27641 0.30567 0.33339 0.0
C414 C 0.26846 0.31104 0.34023 0.0
C415 C 0.25565 0.30831 0.3324 0.0
C416 C 0.25108 0.30001 0.31771 0.0
C417 C 0.25937 0.2945 0.31097 0.0
C418 C 0.27196 0.29744 0.31943 0.0
H419 H 0.27184 0.31733 0.35158 0.0
O420 O 0.31307 0.34706 0.32605 0.0
O421 O 0.30581 0.32419 0.33037 0.0
O422 O 0.31016 0.33948 0.361 0.0
O423 O 0.29289 0.31646 0.36264 0.0
C424 C 0.25572 0.28635 0.2961 0.0
C425 C 0.26473 0.28139 0.28989 0.0
H426 H 0.28494 0.2741 0.28149 0.0
H427 H 0.30703 0.28084 0.29791 0.0
H428 H 0.2493 0.31259 0.33768 0.0
H429 H 0.2412 0.29795 0.31171 0.0
H430 H 0.24609 0.28399 0.28923 0.0
H431 H 0.2619 0.27529 0.27832 0.0
Mn432 Mn 0.32814 0.01454 0.67433 0.0
Mn433 Mn 0.35759 0.04704 0.67825 0.0
C434 C 0.33251 0.03223 0.65498 0.0
C435 C 0.31673 0.991 0.66464 0.0
C436 C 0.33106 0.03786 0.69891 0.0
O437 O 0.34044 0.01055 0.69039 0.0
O438 O 0.35951 0.03266 0.69218 0.0
C439 C 0.37794 0.04004 0.6618 0.0
N440 N 0.37169 0.04838 0.66287 0.0
C441 C 0.38627 0.06365 0.64065 0.0
C442 C 0.39293 0.05528 0.63938 0.0
C443 C 0.3887 0.04339 0.64995 0.0
C444 C 0.37559 0.05976 0.65266 0.0
H445 H 0.37476 0.03093 0.66995 0.0
C446 C 0.35279 0.01936 0.69605 0.0
O447 O 0.31192 0.99478 0.67742 0.0
O448 O 0.3283 0.00083 0.65775 0.0
N449 N 0.35756 0.06216 0.6655 0.0
C450 C 0.34954 0.06864 0.66772 0.0
C451 C 0.3521 0.08046 0.65771 0.0
C452 C 0.36304 0.08564 0.64578 0.0
C453 C 0.37129 0.07892 0.64391 0.0
C454 C 0.3682 0.06714 0.65416 0.0
H455 H 0.34121 0.06477 0.67698 0.0
O456 O 0.3197 0.02163 0.65706 0.0
O457 O 0.34252 0.03216 0.66419 0.0
O458 O 0.32393 0.02526 0.6928 0.0
O459 O 0.34368 0.04682 0.69425 0.0
C460 C 0.38233 0.08332 0.63212 0.0
C461 C 0.38974 0.07562 0.6304 0.0
H462 H 0.40124 0.05784 0.63026 0.0
H463 H 0.39374 0.03685 0.649 0.0
H464 H 0.34569 0.08558 0.65923 0.0
H465 H 0.36496 0.09473 0.63806 0.0
H466 H 0.38512 0.09251 0.62417 0.0
H467 H 0.39805 0.07896 0.62109 0.0
Mn468 Mn 0.98334 0.31677 0.67696 0.0
Mn469 Mn 0.98414 0.28574 0.67499 0.0
C470 C 0.96894 0.29798 0.69439 0.0
C471 C 0.9922 0.33991 0.68725 0.0
C472 C 0.96895 0.29447 0.64926 0.0
O473 O 0.00157 0.32229 0.66402 0.0
O474 O 0.00199 0.30154 0.6656 0.0
C475 C 0.00753 0.2928 0.69938 0.0
N476 N 0.99382 0.28407 0.69432 0.0
C477 C 0.98941 0.26838 0.71785 0.0
C478 C 0.00352 0.27715 0.72327 0.0
C479 C 0.0126 0.28943 0.71401 0.0
C480 C 0.98496 0.2723 0.70319 0.0
H481 H 0.01453 0.30225 0.69231 0.0
C482 C 0.00751 0.31473 0.66134 0.0
O483 O 0.98523 0.33592 0.67315 0.0
O484 O 0.99436 0.33056 0.69518 0.0
N485 N 0.96758 0.26945 0.68369 0.0
C486 C 0.95424 0.26223 0.67686 0.0
C487 C 0.94387 0.24961 0.68452 0.0
C488 C 0.94736 0.24448 0.69901 0.0
C489 C 0.96118 0.25204 0.70574 0.0
C490 C 0.97112 0.26445 0.69744 0.0
H491 H 0.95153 0.26604 0.66563 0.0
O492 O 0.966 0.30814 0.69138 0.0
O493 O 0.98037 0.29927 0.6874 0.0
O494 O 0.97134 0.30602 0.65651 0.0
O495 O 0.97363 0.28635 0.65481 0.0
C496 C 0.96548 0.24778 0.72039 0.0
C497 C 0.97956 0.25599 0.72649 0.0
H498 H 0.00747 0.2746 0.73455 0.0
H499 H 0.02348 0.29628 0.71815 0.0
H500 H 0.93323 0.24382 0.67923 0.0
H501 H 0.93935 0.23471 0.70482 0.0
H502 H 0.95799 0.23829 0.72715 0.0
H503 H 0.9827 0.25269 0.73787 0.0
Mn504 Mn 0.68064 0.66244 0.67739 0.0
Mn505 Mn 0.71163 0.69364 0.67451 0.0
C506 C 0.69904 0.66733 0.69602 0.0
C507 C 0.65746 0.64948 0.68766 0.0
C508 C 0.70367 0.66834 0.65138 0.0
O509 O 0.67528 0.67455 0.66252 0.0
O510 O 0.69617 0.69517 0.66266 0.0
C511 C 0.70376 0.71174 0.69479 0.0
N512 N 0.71269 0.70641 0.69182 0.0
C513 C 0.72835 0.72038 0.7143 0.0
C514 C 0.71937 0.72608 0.71756 0.0
C515 C 0.70698 0.72168 0.70781 0.0
C516 C 0.72454 0.71044 0.70124 0.0
H517 H 0.69427 0.70844 0.68726 0.0
C518 C 0.68304 0.68765 0.6584 0.0
O519 O 0.66131 0.64537 0.67431 0.0
O520 O 0.66698 0.66121 0.69476 0.0
N521 N 0.72767 0.694 0.68543 0.0
C522 C 0.73483 0.68697 0.68118 0.0
C523 C 0.74725 0.68982 0.69008 0.0
C524 C 0.75234 0.70006 0.703 0.0
C525 C 0.74493 0.70734 0.70695 0.0
C526 C 0.73255 0.70397 0.69774 0.0
H527 H 0.73105 0.67921 0.67113 0.0
O528 O 0.68895 0.65427 0.69355 0.0
O529 O 0.69795 0.67724 0.68777 0.0
O530 O 0.69166 0.65981 0.658 0.0
O531 O 0.71169 0.68116 0.65649 0.0
C532 C 0.74925 0.7177 0.71975 0.0
C533 C 0.7409 0.72412 0.72354 0.0
H534 H 0.72184 0.73379 0.72756 0.0
H535 H 0.69997 0.726 0.71028 0.0
H536 H 0.75292 0.68417 0.68694 0.0
H537 H 0.76191 0.70221 0.70986 0.0
H538 H 0.7589 0.7207 0.72691 0.0
H539 H 0.74421 0.73189 0.73362 0.0
Mn540 Mn 0.332 0.32132 0.67178 0.0
Mn541 Mn 0.3618 0.3185 0.67533 0.0
C542 C 0.33612 0.30773 0.65262 0.0
C543 C 0.32014 0.33325 0.66242 0.0
C544 C 0.33598 0.30246 0.69754 0.0
O545 O 0.34458 0.33759 0.68768 0.0
O546 O 0.36467 0.33604 0.68708 0.0
C547 C 0.3814 0.3437 0.65518 0.0
N548 N 0.37501 0.32936 0.65816 0.0
C549 C 0.38763 0.32597 0.63546 0.0
C550 C 0.39442 0.34072 0.63221 0.0
C551 C 0.39125 0.34961 0.64208 0.0
C552 C 0.37793 0.3207 0.6487 0.0
H553 H 0.37899 0.35056 0.66276 0.0
C554 C 0.3576 0.34214 0.6917 0.0
O555 O 0.31572 0.32475 0.67526 0.0
O556 O 0.33172 0.33514 0.65524 0.0
N557 N 0.36066 0.30206 0.66452 0.0
C558 C 0.35263 0.28798 0.66873 0.0
C559 C 0.35425 0.27761 0.65978 0.0
C560 C 0.36419 0.28183 0.64674 0.0
C561 C 0.37245 0.29639 0.64277 0.0
C562 C 0.37043 0.30625 0.65218 0.0
H563 H 0.34502 0.28468 0.67879 0.0
O564 O 0.32336 0.30577 0.65468 0.0
O565 O 0.3462 0.3178 0.6616 0.0
O566 O 0.32807 0.30655 0.69019 0.0
O567 O 0.34887 0.3067 0.6934 0.0
C568 C 0.38238 0.30149 0.6296 0.0
C569 C 0.38994 0.31626 0.62592 0.0
H570 H 0.40199 0.34531 0.62208 0.0
H571 H 0.3964 0.36099 0.6396 0.0
H572 H 0.34782 0.2664 0.66291 0.0
H573 H 0.36532 0.27379 0.63978 0.0
H574 H 0.38411 0.29411 0.62205 0.0
H575 H 0.39738 0.32003 0.61561 0.0
Mn576 Mn 0.68021 0.01615 0.67851 0.0
Mn577 Mn 0.7098 0.01297 0.67622 0.0
C578 C 0.69907 0.02921 0.69663 0.0
C579 C 0.65726 0.00794 0.68863 0.0
C580 C 0.70294 0.03049 0.65164 0.0
O581 O 0.67376 0.99823 0.66433 0.0
O582 O 0.69334 0.99581 0.66608 0.0
C583 C 0.70123 0.98839 0.6992 0.0
N584 N 0.71069 0.00209 0.69474 0.0
C585 C 0.72657 0.00431 0.71734 0.0
C586 C 0.71708 0.99016 0.72207 0.0
C587 C 0.70432 0.98219 0.713 0.0
C588 C 0.72291 0.00991 0.70349 0.0
H589 H 0.6914 0.98225 0.69227 0.0
C590 C 0.68041 0.99138 0.66152 0.0
O591 O 0.6616 0.01552 0.67502 0.0
O592 O 0.66615 0.00488 0.69613 0.0
N593 N 0.72661 0.02864 0.68567 0.0
C594 C 0.73418 0.04241 0.68015 0.0
C595 C 0.74696 0.05198 0.6883 0.0
C596 C 0.75195 0.04725 0.70187 0.0
C597 C 0.74409 0.03298 0.70717 0.0
C598 C 0.73141 0.02394 0.69859 0.0
H599 H 0.73045 0.04608 0.66965 0.0
O600 O 0.68946 0.03293 0.69391 0.0
O601 O 0.69715 0.01765 0.68904 0.0
O602 O 0.69162 0.0287 0.65876 0.0
O603 O 0.71012 0.02464 0.65683 0.0
C604 C 0.74823 0.02742 0.7208 0.0
C605 C 0.73943 0.01313 0.72595 0.0
H606 H 0.71941 0.98535 0.73272 0.0
H607 H 0.69689 0.9713 0.71664 0.0
H608 H 0.75296 0.06298 0.68413 0.0
H609 H 0.76178 0.05469 0.70817 0.0
H610 H 0.75807 0.0341 0.72754 0.0
H611 H 0.7426 0.00907 0.73664 0.0
Mn612 Mn 0.98387 0.66975 0.67194 0.0
Mn613 Mn 0.95359 0.63788 0.67383 0.0
C614 C 0.96576 0.66449 0.65275 0.0
C615 C 0.00726 0.6837 0.663 0.0
C616 C 0.96078 0.66246 0.69795 0.0
O617 O 0.98925 0.65781 0.68707 0.0
O618 O 0.96943 0.63623 0.68455 0.0
C619 C 0.96145 0.6209 0.65152 0.0
N620 N 0.95241 0.62586 0.65557 0.0
C621 C 0.93651 0.6127 0.63287 0.0
C622 C 0.94557 0.60731 0.62857 0.0
C623 C 0.95814 0.6115 0.63788 0.0
C624 C 0.9404 0.62206 0.64655 0.0
H625 H 0.97113 0.62412 0.65864 0.0
C626 C 0.98224 0.64434 0.68971 0.0
O627 O 0.00255 0.68716 0.67611 0.0
O628 O 0.99845 0.67196 0.65527 0.0
N629 N 0.93738 0.63783 0.66378 0.0
C630 C 0.93035 0.64479 0.66881 0.0
C631 C 0.91787 0.64229 0.66031 0.0
C632 C 0.91263 0.63251 0.64692 0.0
C633 C 0.91997 0.62535 0.64211 0.0
C634 C 0.93239 0.62833 0.65098 0.0
H635 H 0.93425 0.65222 0.67918 0.0
O636 O 0.97551 0.67766 0.65547 0.0
O637 O 0.96708 0.65475 0.66106 0.0
O638 O 0.97219 0.67161 0.69078 0.0
O639 O 0.95345 0.64947 0.69305 0.0
C640 C 0.91554 0.61551 0.62872 0.0
C641 C 0.92387 0.60928 0.624 0.0
H642 H 0.94305 0.60006 0.61805 0.0
H643 H 0.96524 0.60748 0.63456 0.0
H644 H 0.91227 0.64786 0.6641 0.0
H645 H 0.90302 0.63063 0.64037 0.0
H646 H 0.90586 0.61284 0.62178 0.0
H647 H 0.92051 0.60198 0.61345 0.0
C648 C 0.19849 0.31438 0.12451 0.0
C649 C 0.19705 0.303 0.11447 0.0
C650 C 0.18743 0.31262 0.13497 0.0
C651 C 0.17467 0.2995 0.13548 0.0
C652 C 0.18438 0.28977 0.11519 0.0
C653 C 0.17317 0.2881 0.12546 0.0
C654 C 0.16269 0.29811 0.14568 0.0
C655 C 0.19309 0.29612 0.18414 0.0
C656 C 0.19932 0.30815 0.19481 0.0
C657 C 0.18194 0.29391 0.17324 0.0
C658 C 0.17681 0.30366 0.17292 0.0
C659 C 0.1945 0.31816 0.19384 0.0
C660 C 0.18327 0.31585 0.18316 0.0
C661 C 0.16402 0.30077 0.16308 0.0
C662 C 0.10595 0.29219 0.18208 0.0
C663 C 0.11058 0.3036 0.19354 0.0
C664 C 0.11581 0.29066 0.17218 0.0
C665 C 0.13045 0.30056 0.17355 0.0
C666 C 0.12525 0.3133 0.19504 0.0
C667 C 0.13506 0.31176 0.18522 0.0
C668 C 0.14122 0.29929 0.16333 0.0
C669 C 0.11563 0.30941 0.12716 0.0
C670 C 0.10804 0.29882 0.11503 0.0
C671 C 0.12589 0.30871 0.13723 0.0
C672 C 0.12864 0.29727 0.1356 0.0
C673 C 0.11096 0.28748 0.11319 0.0
C674 C 0.12123 0.28675 0.12337 0.0
C675 C 0.13999 0.29694 0.14581 0.0
H676 H 0.20818 0.32467 0.12422 0.0
H677 H 0.18871 0.32163 0.14242 0.0
H678 H 0.18301 0.28088 0.10747 0.0
H679 H 0.16335 0.27793 0.12559 0.0
H680 H 0.19643 0.28811 0.18466 0.0
H681 H 0.17696 0.28433 0.16558 0.0
H682 H 0.19927 0.32773 0.20153 0.0
H683 H 0.17951 0.32354 0.18302 0.0
H684 H 0.09471 0.28453 0.18066 0.0
H685 H 0.112 0.28173 0.16355 0.0
H686 H 0.12921 0.32203 0.20399 0.0
H687 H 0.14629 0.31946 0.18664 0.0
H688 H 0.11392 0.31849 0.12858 0.0
H689 H 0.13188 0.31729 0.14608 0.0
H690 H 0.10529 0.27917 0.10394 0.0
H691 H 0.12336 0.27796 0.12172 0.0
N692 N 0.15072 0.2963 0.13766 0.0
N693 N 0.15324 0.30122 0.17121 0.0
C694 C 0.68356 0.87752 0.12607 0.0
C695 C 0.69366 0.88623 0.11412 0.0
C696 C 0.68607 0.86841 0.13627 0.0
C697 C 0.69878 0.8679 0.13484 0.0
C698 C 0.70636 0.88566 0.11263 0.0
C699 C 0.70883 0.87644 0.12281 0.0
C700 C 0.70119 0.85795 0.14538 0.0
C701 C 0.70247 0.89193 0.17978 0.0
C702 C 0.6928 0.88667 0.19319 0.0
C703 C 0.70493 0.88259 0.16992 0.0
C704 C 0.69752 0.86777 0.17301 0.0
C705 C 0.6857 0.87187 0.19646 0.0
C706 C 0.68798 0.86257 0.18647 0.0
C707 C 0.69993 0.85751 0.16303 0.0
C708 C 0.71136 0.81037 0.18483 0.0
C709 C 0.69932 0.80257 0.19492 0.0
C710 C 0.71224 0.82129 0.17439 0.0
C711 C 0.7012 0.82467 0.17419 0.0
C712 C 0.6883 0.80596 0.1946 0.0
C713 C 0.68931 0.81702 0.18448 0.0
C714 C 0.70188 0.83631 0.16367 0.0
C715 C 0.69305 0.79975 0.12974 0.0
C716 C 0.70261 0.80298 0.11646 0.0
C717 C 0.69319 0.81068 0.13929 0.0
C718 C 0.70326 0.82508 0.13618 0.0
C719 C 0.71237 0.81736 0.11291 0.0
C720 C 0.71271 0.82833 0.12273 0.0
C721 C 0.7032 0.83675 0.14603 0.0
H722 H 0.67372 0.8778 0.12759 0.0
H723 H 0.67803 0.86168 0.14523 0.0
H724 H 0.71425 0.89214 0.1034 0.0
H725 H 0.71862 0.87605 0.12138 0.0
H726 H 0.70812 0.90324 0.17684 0.0
H727 H 0.71274 0.88701 0.16002 0.0
H728 H 0.67851 0.86742 0.20695 0.0
H729 H 0.68224 0.85123 0.18931 0.0
H730 H 0.72 0.80794 0.18496 0.0
H731 H 0.72156 0.82719 0.16664 0.0
H732 H 0.679 0.80019 0.20243 0.0
H733 H 0.68071 0.81951 0.18454 0.0
H734 H 0.68517 0.78875 0.13243 0.0
H735 H 0.6852 0.80783 0.14889 0.0
H736 H 0.71978 0.8201 0.10263 0.0
H737 H 0.72036 0.83936 0.11984 0.0
N738 N 0.70291 0.84764 0.13757 0.0
N739 N 0.70028 0.84666 0.17141 0.0
C740 C 0.1169 0.80684 0.13365 0.0
C741 C 0.10934 0.80847 0.12019 0.0
C742 C 0.12586 0.81852 0.14366 0.0
C743 C 0.12734 0.83207 0.14052 0.0
C744 C 0.11064 0.82198 0.1172 0.0
C745 C 0.11969 0.83373 0.1272 0.0
C746 C 0.13791 0.84466 0.15008 0.0
C747 C 0.10349 0.81638 0.18596 0.0
C748 C 0.10828 0.81068 0.19874 0.0
C749 C 0.11327 0.82766 0.17596 0.0
C750 C 0.12801 0.83338 0.17854 0.0
C751 C 0.12302 0.81674 0.20158 0.0
C752 C 0.13276 0.82799 0.19165 0.0
C753 C 0.13865 0.84495 0.16778 0.0
C754 C 0.19115 0.90219 0.18266 0.0
C755 C 0.19727 0.89744 0.19499 0.0
C756 C 0.1792 0.89232 0.17347 0.0
C757 C 0.17326 0.87756 0.17643 0.0
C758 C 0.19101 0.88269 0.19819 0.0
C759 C 0.17913 0.87288 0.18905 0.0
C760 C 0.1609 0.86674 0.16668 0.0
C761 C 0.19692 0.8888 0.13025 0.0
C762 C 0.19393 0.8948 0.11619 0.0
C763 C 0.18599 0.87961 0.14091 0.0
C764 C 0.1719 0.87663 0.13806 0.0
C765 C 0.17979 0.89148 0.113 0.0
C766 C 0.16888 0.88248 0.12386 0.0
C767 C 0.16012 0.86649 0.14894 0.0
H768 H 0.11604 0.79653 0.13631 0.0
H769 H 0.13195 0.81705 0.15356 0.0
H770 H 0.10505 0.82357 0.10679 0.0
H771 H 0.12087 0.84415 0.12443 0.0
H772 H 0.0922 0.81195 0.18348 0.0
H773 H 0.10932 0.83185 0.16619 0.0
H774 H 0.12706 0.81279 0.21154 0.0
H775 H 0.14405 0.8323 0.194 0.0
H776 H 0.19572 0.9135 0.17995 0.0
H777 H 0.17466 0.89621 0.16403 0.0
H778 H 0.19524 0.87869 0.20787 0.0
H779 H 0.17465 0.86156 0.19169 0.0
H780 H 0.20769 0.89095 0.13278 0.0
H781 H 0.18857 0.87469 0.15124 0.0
H782 H 0.17721 0.89596 0.10222 0.0
H783 H 0.15806 0.8801 0.12119 0.0
N784 N 0.14858 0.85549 0.14138 0.0
N785 N 0.15016 0.85594 0.17533 0.0
C786 C 0.29708 0.10942 0.8348 0.0
C787 C 0.28577 0.10221 0.82333 0.0
C788 C 0.2974 0.11982 0.84555 0.0
C789 C 0.28633 0.12317 0.84521 0.0
C790 C 0.27456 0.10538 0.82325 0.0
C791 C 0.27489 0.11583 0.83401 0.0
C792 C 0.28751 0.13539 0.85505 0.0
C793 C 0.28396 0.10268 0.89324 0.0
C794 C 0.29645 0.10723 0.90291 0.0
C795 C 0.28219 0.11241 0.88316 0.0
C796 C 0.29286 0.12685 0.88259 0.0
C797 C 0.3071 0.12172 0.90221 0.0
C798 C 0.30525 0.13143 0.8923 0.0
C799 C 0.29121 0.13742 0.87226 0.0
C800 C 0.29219 0.19343 0.88719 0.0
C801 C 0.30412 0.19954 0.89798 0.0
C802 C 0.28848 0.18071 0.87858 0.0
C803 C 0.29675 0.17395 0.88037 0.0
C804 C 0.31213 0.19252 0.90008 0.0
C805 C 0.30847 0.17987 0.8914 0.0
C806 C 0.29317 0.16056 0.87119 0.0
C807 C 0.3057 0.19357 0.83049 0.0
C808 C 0.29391 0.1925 0.82149 0.0
C809 C 0.30417 0.18264 0.84125 0.0
C810 C 0.29087 0.17029 0.84312 0.0
C811 C 0.28056 0.18007 0.8235 0.0
C812 C 0.2791 0.16899 0.83406 0.0
C813 C 0.28955 0.15855 0.85398 0.0
H814 H 0.30606 0.10752 0.83495 0.0
H815 H 0.30661 0.12568 0.85361 0.0
H816 H 0.26563 0.09996 0.81467 0.0
H817 H 0.26632 0.11835 0.8334 0.0
H818 H 0.27545 0.09166 0.89365 0.0
H819 H 0.27242 0.10869 0.87599 0.0
H820 H 0.31698 0.12559 0.90917 0.0
H821 H 0.31364 0.14251 0.89201 0.0
H822 H 0.28579 0.19855 0.88524 0.0
H823 H 0.27909 0.17615 0.87059 0.0
H824 H 0.3212 0.19672 0.90857 0.0
H825 H 0.31493 0.17478 0.89319 0.0
H826 H 0.31624 0.20272 0.82899 0.0
H827 H 0.31344 0.1837 0.8479 0.0
H828 H 0.27118 0.17889 0.817 0.0
H829 H 0.26877 0.15949 0.83531 0.0
N830 N 0.28678 0.14604 0.84658 0.0
N831 N 0.29392 0.14993 0.87963 0.0
C832 C 0.89624 0.18776 0.89155 0.0
C833 C 0.89219 0.19434 0.90396 0.0
C834 C 0.88598 0.17724 0.88105 0.0
C835 C 0.87153 0.17323 0.88268 0.0
C836 C 0.87769 0.19022 0.90555 0.0
C837 C 0.86749 0.17973 0.8951 0.0
C838 C 0.86036 0.16179 0.87222 0.0
C839 C 0.88628 0.19746 0.83579 0.0
C840 C 0.89071 0.19344 0.82129 0.0
C841 C 0.87691 0.18705 0.84693 0.0
C842 C 0.87222 0.17244 0.84406 0.0
C843 C 0.8861 0.17891 0.8184 0.0
C844 C 0.877 0.16852 0.82972 0.0
C845 C 0.86101 0.16107 0.85454 0.0
C846 C 0.80226 0.11877 0.83403 0.0
C847 C 0.8045 0.11024 0.82247 0.0
C848 C 0.8132 0.12791 0.84488 0.0
C849 C 0.82661 0.12877 0.84421 0.0
C850 C 0.81782 0.11085 0.82209 0.0
C851 C 0.82886 0.1202 0.83273 0.0
C852 C 0.83857 0.13945 0.85448 0.0
C853 C 0.80994 0.10478 0.89008 0.0
C854 C 0.80357 0.10929 0.90221 0.0
C855 C 0.82101 0.11478 0.88013 0.0
C856 C 0.8259 0.12948 0.88209 0.0
C857 C 0.80858 0.12404 0.90418 0.0
C858 C 0.8197 0.13402 0.8943 0.0
C859 C 0.83789 0.14024 0.87205 0.0
H860 H 0.9073 0.19056 0.89015 0.0
H861 H 0.88931 0.17211 0.87182 0.0
H862 H 0.87422 0.19523 0.91477 0.0
H863 H 0.85639 0.17677 0.89663 0.0
H864 H 0.88952 0.20861 0.83807 0.0
H865 H 0.87291 0.19043 0.85736 0.0
H866 H 0.88936 0.17558 0.80723 0.0
H867 H 0.87341 0.15736 0.82705 0.0
H868 H 0.79207 0.11846 0.83455 0.0
H869 H 0.81133 0.13462 0.85345 0.0
H870 H 0.81982 0.10445 0.81317 0.0
H871 H 0.83919 0.12084 0.83193 0.0
H872 H 0.80654 0.09353 0.88844 0.0
H873 H 0.82591 0.11103 0.87112 0.0
H874 H 0.8038 0.12789 0.91321 0.0
H875 H 0.82335 0.14532 0.89608 0.0
N876 N 0.84878 0.15139 0.88022 0.0
N877 N 0.85009 0.14984 0.84643 0.0
C878 C 0.80809 0.70775 0.88735 0.0
C879 C 0.80281 0.6971 0.8998 0.0
C880 C 0.82048 0.71083 0.87862 0.0
C881 C 0.82771 0.70319 0.88208 0.0
C882 C 0.81039 0.6899 0.90364 0.0
C883 C 0.82269 0.69292 0.89489 0.0
C884 C 0.84049 0.70569 0.8726 0.0
C885 C 0.80514 0.68746 0.83393 0.0
C886 C 0.80605 0.69783 0.82247 0.0
C887 C 0.81648 0.69045 0.84479 0.0
C888 C 0.82897 0.70381 0.84426 0.0
C889 C 0.81849 0.71128 0.82211 0.0
C890 C 0.82996 0.71418 0.83279 0.0
C891 C 0.84127 0.70652 0.85496 0.0
C892 C 0.88678 0.69346 0.83788 0.0
C893 C 0.89383 0.70328 0.82489 0.0
C894 C 0.87741 0.69517 0.84839 0.0
C895 C 0.87503 0.70683 0.84623 0.0
C896 C 0.89156 0.71505 0.82293 0.0
C897 C 0.88217 0.71673 0.83343 0.0
C898 C 0.86403 0.70786 0.85607 0.0
C899 C 0.89852 0.71246 0.89176 0.0
C900 C 0.89379 0.70313 0.90563 0.0
C901 C 0.88882 0.71421 0.88163 0.0
C902 C 0.87411 0.70625 0.88477 0.0
C903 C 0.87915 0.69592 0.90931 0.0
C904 C 0.86946 0.69737 0.89895 0.0
C905 C 0.86331 0.70709 0.8738 0.0
H906 H 0.80251 0.71351 0.88413 0.0
H907 H 0.82437 0.71912 0.86914 0.0
H908 H 0.80681 0.68188 0.91343 0.0
H909 H 0.82815 0.68699 0.89794 0.0
H910 H 0.79564 0.67702 0.83444 0.0
H911 H 0.81563 0.68224 0.8534 0.0
H912 H 0.81946 0.71939 0.81326 0.0
H913 H 0.83958 0.72449 0.83211 0.0
H914 H 0.88806 0.68414 0.83954 0.0
H915 H 0.87169 0.68715 0.85786 0.0
H916 H 0.89692 0.72288 0.81316 0.0
H917 H 0.88035 0.7257 0.83144 0.0
H918 H 0.90968 0.71823 0.88846 0.0
H919 H 0.89286 0.72169 0.8713 0.0
H920 H 0.87507 0.68906 0.92019 0.0
H921 H 0.85823 0.6913 0.90196 0.0
N922 N 0.85154 0.70602 0.88127 0.0
N923 N 0.85302 0.70767 0.84739 0.0
C924 C 0.76747 0.62109 0.45942 0.0
C925 C 0.77201 0.63191 0.44719 0.0
C926 C 0.77742 0.61875 0.46825 0.0
C927 C 0.79208 0.62735 0.46518 0.0
C928 C 0.78662 0.63992 0.44355 0.0
C929 C 0.79652 0.63767 0.45244 0.0
C930 C 0.80302 0.62597 0.47511 0.0
C931 C 0.78091 0.63974 0.51249 0.0
C932 C 0.77421 0.63007 0.52571 0.0
C933 C 0.78992 0.63788 0.50155 0.0
C934 C 0.79225 0.62617 0.5034 0.0
C935 C 0.77644 0.61826 0.52744 0.0
C936 C 0.78546 0.6164 0.51645 0.0
C937 C 0.80281 0.6249 0.49281 0.0
C938 C 0.86197 0.64365 0.51179 0.0
C939 C 0.86092 0.63336 0.52345 0.0
C940 C 0.8505 0.64082 0.50121 0.0
C941 C 0.83775 0.62772 0.50226 0.0
C942 C 0.8483 0.6201 0.5242 0.0
C943 C 0.8367 0.61738 0.51382 0.0
C944 C 0.82521 0.62547 0.49234 0.0
C945 C 0.85492 0.62082 0.45718 0.0
C946 C 0.86093 0.63175 0.44507 0.0
C947 C 0.84334 0.61901 0.46677 0.0
C948 C 0.83756 0.62811 0.46449 0.0
C949 C 0.85493 0.64068 0.44266 0.0
C950 C 0.84331 0.63881 0.45218 0.0
C951 C 0.82544 0.62653 0.47471 0.0
H952 H 0.75629 0.6147 0.46248 0.0
H953 H 0.77367 0.6104 0.47764 0.0
H954 H 0.79046 0.64806 0.43389 0.0
H955 H 0.80774 0.6443 0.44962 0.0
H956 H 0.77935 0.64889 0.51073 0.0
H957 H 0.79534 0.64581 0.49189 0.0
H958 H 0.77162 0.61074 0.53764 0.0
H959 H 0.7873 0.60743 0.51829 0.0
H960 H 0.8716 0.65395 0.51102 0.0
H961 H 0.85142 0.64904 0.49256 0.0
H962 H 0.84724 0.61207 0.53322 0.0
H963 H 0.82688 0.60728 0.51492 0.0
H964 H 0.85907 0.61356 0.45915 0.0
H965 H 0.83885 0.61043 0.47589 0.0
H966 H 0.85938 0.64933 0.43364 0.0
H967 H 0.83902 0.64595 0.45018 0.0
N968 N 0.81437 0.62679 0.46679 0.0
N969 N 0.81388 0.62461 0.50072 0.0
C970 C 0.35529 0.22242 0.46518 0.0
C971 C 0.36493 0.2289 0.45202 0.0
C972 C 0.3554 0.21145 0.47448 0.0
C973 C 0.36555 0.20716 0.47124 0.0
C974 C 0.37472 0.22427 0.44831 0.0
C975 C 0.37506 0.21351 0.45789 0.0
C976 C 0.36574 0.19548 0.48096 0.0
C977 C 0.37178 0.22985 0.51794 0.0
C978 C 0.36143 0.225 0.53065 0.0
C979 C 0.37323 0.22006 0.50769 0.0
C980 C 0.3641 0.20525 0.50967 0.0
C981 C 0.35284 0.21016 0.53306 0.0
C982 C 0.35412 0.20045 0.52267 0.0
C983 C 0.36478 0.19449 0.49865 0.0
C984 C 0.36701 0.14007 0.51362 0.0
C985 C 0.3569 0.13499 0.5266 0.0
C986 C 0.36937 0.15207 0.50419 0.0
C987 C 0.3614 0.15896 0.50724 0.0
C988 C 0.34934 0.14227 0.52995 0.0
C989 C 0.35151 0.15404 0.52035 0.0
C990 C 0.3634 0.17158 0.49745 0.0
C991 C 0.35055 0.13566 0.46081 0.0
C992 C 0.36052 0.13845 0.44809 0.0
C993 C 0.35163 0.14675 0.47093 0.0
C994 C 0.36296 0.16077 0.46887 0.0
C995 C 0.37148 0.15258 0.44552 0.0
C996 C 0.37269 0.16365 0.45584 0.0
C997 C 0.36439 0.17257 0.47977 0.0
H998 H 0.34744 0.22562 0.46798 0.0
H999 H 0.34748 0.20626 0.48414 0.0
H1000 H 0.38217 0.22906 0.43809 0.0
H1001 H 0.38279 0.21018 0.45493 0.0
H1002 H 0.37861 0.24118 0.51572 0.0
H1003 H 0.38136 0.22407 0.49813 0.0
H1004 H 0.34509 0.20598 0.54304 0.0
H1005 H 0.34711 0.1891 0.52469 0.0
H1006 H 0.37303 0.13476 0.51064 0.0
H1007 H 0.37742 0.15592 0.49453 0.0
H1008 H 0.34181 0.13903 0.54015 0.0
H1009 H 0.34537 0.15928 0.52317 0.0
H1010 H 0.34183 0.1249 0.46281 0.0
H1011 H 0.34362 0.14434 0.48041 0.0
H1012 H 0.37927 0.155 0.43575 0.0
H1013 H 0.38136 0.17443 0.45382 0.0
N1014 N 0.36567 0.18454 0.47226 0.0
N1015 N 0.36361 0.18257 0.50608 0.0
C1016 C 0.7842 0.13282 0.46339 0.0
C1017 C 0.77622 0.13377 0.44993 0.0
C1018 C 0.79359 0.14501 0.47241 0.0
C1019 C 0.79507 0.15841 0.46832 0.0
C1020 C 0.77768 0.14719 0.44584 0.0
C1021 C 0.78714 0.15944 0.45488 0.0
C1022 C 0.80563 0.1714 0.47734 0.0
C1023 C 0.77178 0.14441 0.51499 0.0
C1024 C 0.77696 0.14034 0.52901 0.0
C1025 C 0.78126 0.15481 0.50385 0.0
C1026 C 0.79607 0.16112 0.50639 0.0
C1027 C 0.79176 0.14677 0.53155 0.0
C1028 C 0.80118 0.15704 0.5204 0.0
C1029 C 0.80648 0.1723 0.49503 0.0
C1030 C 0.85867 0.23009 0.50839 0.0
C1031 C 0.86496 0.2256 0.5208 0.0
C1032 C 0.84671 0.22001 0.49936 0.0
C1033 C 0.84093 0.20531 0.5026 0.0
C1034 C 0.85889 0.2109 0.52423 0.0
C1035 C 0.847 0.20089 0.51528 0.0
C1036 C 0.82851 0.19424 0.49316 0.0
C1037 C 0.86437 0.21636 0.45713 0.0
C1038 C 0.86144 0.22282 0.44349 0.0
C1039 C 0.85338 0.20663 0.46731 0.0
C1040 C 0.83926 0.20353 0.46442 0.0
C1041 C 0.84726 0.21921 0.44005 0.0
C1042 C 0.83625 0.20964 0.45046 0.0
C1043 C 0.8276 0.19346 0.47545 0.0
H1044 H 0.78323 0.12262 0.46694 0.0
H1045 H 0.79988 0.144 0.48243 0.0
H1046 H 0.7718 0.14827 0.4354 0.0
H1047 H 0.7883 0.16972 0.45137 0.0
H1048 H 0.76042 0.13974 0.51283 0.0
H1049 H 0.777 0.15803 0.49341 0.0
H1050 H 0.7961 0.14372 0.54208 0.0
H1051 H 0.81253 0.16171 0.52268 0.0
H1052 H 0.8631 0.24135 0.50551 0.0
H1053 H 0.84203 0.22369 0.48986 0.0
H1054 H 0.86326 0.2071 0.53397 0.0
H1055 H 0.84266 0.18963 0.51812 0.0
H1056 H 0.87519 0.21872 0.45981 0.0
H1057 H 0.85594 0.20155 0.47747 0.0
H1058 H 0.84473 0.22401 0.42954 0.0
H1059 H 0.82541 0.20717 0.44777 0.0
N1060 N 0.81613 0.1821 0.46823 0.0
N1061 N 0.81792 0.18365 0.50216 0.0
C1062 C 0.97287 0.531 0.16465 0.0
C1063 C 0.98262 0.53585 0.15134 0.0
C1064 C 0.97179 0.52005 0.17523 0.0
C1065 C 0.98065 0.51403 0.17283 0.0
C1066 C 0.99145 0.5298 0.14904 0.0
C1067 C 0.99045 0.51901 0.15963 0.0
C1068 C 0.97949 0.50204 0.18325 0.0
C1069 C 0.99311 0.53919 0.21829 0.0
C1070 C 0.98345 0.53691 0.23126 0.0
C1071 C 0.99159 0.52778 0.20843 0.0
C1072 C 0.98025 0.51387 0.21113 0.0
C1073 C 0.97226 0.52292 0.23415 0.0
C1074 C 0.97072 0.5115 0.22422 0.0
C1075 C 0.97881 0.5017 0.20096 0.0
C1076 C 0.99343 0.45652 0.21841 0.0
C1077 C 0.98356 0.44874 0.23101 0.0
C1078 C 0.99172 0.46636 0.20859 0.0
C1079 C 0.98003 0.46851 0.21103 0.0
C1080 C 0.97188 0.45094 0.23349 0.0
C1081 C 0.97021 0.46085 0.22367 0.0
C1082 C 0.97854 0.47928 0.20094 0.0
C1083 C 0.97188 0.44384 0.16505 0.0
C1084 C 0.98155 0.44838 0.15166 0.0
C1085 C 0.97105 0.45389 0.17549 0.0
C1086 C 0.98007 0.46864 0.17288 0.0
C1087 C 0.99052 0.46313 0.14913 0.0
C1088 C 0.98976 0.47312 0.15957 0.0
C1089 C 0.9792 0.47964 0.18325 0.0
H1090 H 0.96585 0.53539 0.16661 0.0
H1091 H 0.96389 0.51615 0.18505 0.0
H1092 H 0.9992 0.53347 0.13904 0.0
H1093 H 0.9974 0.51455 0.1575 0.0
H1094 H 0.00204 0.54976 0.21599 0.0
H1095 H 0.99942 0.52981 0.19883 0.0
H1096 H 0.96462 0.52082 0.24401 0.0
H1097 H 0.96201 0.50083 0.22667 0.0
H1098 H 0.00248 0.455 0.21611 0.0
H1099 H 0.99963 0.47239 0.19918 0.0
H1100 H 0.9642 0.44521 0.24324 0.0
H1101 H 0.96122 0.46252 0.22589 0.0
H1102 H 0.96473 0.43254 0.16719 0.0
H1103 H 0.96321 0.45013 0.18538 0.0
H1104 H 0.99823 0.46697 0.13908 0.0
H1105 H 0.99683 0.48441 0.15727 0.0
N1106 N 0.97968 0.49101 0.17518 0.0
N1107 N 0.97825 0.49026 0.20911 0.0
C1108 C 0.47114 0.44094 0.172 0.0
C1109 C 0.46669 0.44605 0.15823 0.0
C1110 C 0.48267 0.45039 0.18206 0.0
C1111 C 0.48978 0.46519 0.17878 0.0
C1112 C 0.47401 0.46083 0.15488 0.0
C1113 C 0.48533 0.47025 0.16504 0.0
C1114 C 0.50238 0.47557 0.18869 0.0
C1115 C 0.4676 0.45644 0.22755 0.0
C1116 C 0.46958 0.44751 0.23888 0.0
C1117 C 0.4785 0.46527 0.21664 0.0
C1118 C 0.49157 0.46539 0.21701 0.0
C1119 C 0.48262 0.44752 0.2391 0.0
C1120 C 0.49362 0.45656 0.22838 0.0
C1121 C 0.50339 0.47542 0.20634 0.0
C1122 C 0.55104 0.53435 0.22169 0.0
C1123 C 0.55771 0.53149 0.23519 0.0
C1124 C 0.54067 0.52316 0.21209 0.0
C1125 C 0.53711 0.50891 0.21542 0.0
C1126 C 0.55382 0.51723 0.23891 0.0
C1127 C 0.54362 0.50603 0.22908 0.0
C1128 C 0.52591 0.49694 0.20552 0.0
C1129 C 0.56021 0.52524 0.16918 0.0
C1130 C 0.55537 0.53032 0.15575 0.0
C1131 C 0.55049 0.51421 0.1795 0.0
C1132 C 0.53575 0.50834 0.17689 0.0
C1133 C 0.54061 0.52392 0.15277 0.0
C1134 C 0.53095 0.51316 0.16325 0.0
C1135 C 0.52504 0.49696 0.18779 0.0
H1136 H 0.46577 0.42964 0.17501 0.0
H1137 H 0.48615 0.44606 0.19217 0.0
H1138 H 0.47123 0.46519 0.14415 0.0
H1139 H 0.49069 0.48156 0.16205 0.0
H1140 H 0.45761 0.45656 0.22712 0.0
H1141 H 0.47682 0.47219 0.20813 0.0
H1142 H 0.48441 0.44079 0.24782 0.0
H1143 H 0.50371 0.45665 0.22894 0.0
H1144 H 0.55363 0.54524 0.2188 0.0
H1145 H 0.53535 0.52565 0.20214 0.0
H1146 H 0.55878 0.51477 0.2493 0.0
H1147 H 0.54083 0.49512 0.23211 0.0
H1148 H 0.57148 0.52987 0.17189 0.0
H1149 H 0.55453 0.51035 0.18955 0.0
H1150 H 0.53643 0.52715 0.14226 0.0
H1151 H 0.51966 0.50868 0.16073 0.0
N1152 N 0.51329 0.4863 0.1802 0.0
N1153 N 0.51512 0.48606 0.21405 0.0
C1154 C 0.46977 0.02505 0.22323 0.0
C1155 C 0.46251 0.01296 0.2336 0.0
C1156 C 0.48119 0.02677 0.2134 0.0
C1157 C 0.48561 0.01646 0.21381 0.0
C1158 C 0.46688 0.00256 0.23369 0.0
C1159 C 0.47841 0.00439 0.22405 0.0
C1160 C 0.49816 0.01849 0.20427 0.0
C1161 C 0.46411 0.00704 0.16477 0.0
C1162 C 0.46649 0.01868 0.15455 0.0
C1163 C 0.47476 0.00804 0.17567 0.0
C1164 C 0.48802 0.02065 0.1764 0.0
C1165 C 0.47966 0.03139 0.15552 0.0
C1166 C 0.49042 0.0323 0.16622 0.0
C1167 C 0.49963 0.02123 0.18689 0.0
C1168 C 0.54448 0.008 0.1675 0.0
C1169 C 0.55335 0.01946 0.15705 0.0
C1170 C 0.53461 0.00899 0.17782 0.0
C1171 C 0.53332 0.02139 0.1777 0.0
C1172 C 0.55231 0.032 0.1572 0.0
C1173 C 0.5422 0.03288 0.1673 0.0
C1174 C 0.52201 0.02182 0.18756 0.0
C1175 C 0.55628 0.02812 0.22439 0.0
C1176 C 0.55224 0.017 0.23615 0.0
C1177 C 0.54608 0.02883 0.21415 0.0
C1178 C 0.53163 0.0184 0.21537 0.0
C1179 C 0.53775 0.00662 0.2374 0.0
C1180 C 0.52755 0.00737 0.22718 0.0
C1181 C 0.52064 0.01927 0.205 0.0
H1182 H 0.46687 0.03339 0.22301 0.0
H1183 H 0.48678 0.03631 0.2058 0.0
H1184 H 0.46139 0.99295 0.24119 0.0
H1185 H 0.48165 0.9963 0.22452 0.0
H1186 H 0.45403 0.99714 0.16423 0.0
H1187 H 0.47278 0.99885 0.18323 0.0
H1188 H 0.48176 0.04046 0.14765 0.0
H1189 H 0.50064 0.04206 0.16651 0.0
H1190 H 0.5451 0.99822 0.16753 0.0
H1191 H 0.5277 -8e-05 0.18557 0.0
H1192 H 0.55898 0.0409 0.14911 0.0
H1193 H 0.54125 0.04247 0.16694 0.0
H1194 H 0.56731 0.03644 0.22332 0.0
H1195 H 0.54945 0.0377 0.2055 0.0
H1196 H 0.53429 0.99782 0.24616 0.0
H1197 H 0.51646 0.99924 0.22841 0.0
N1198 N 0.50871 0.0176 0.21268 0.0
N1199 N 0.5115 0.02279 0.17915 0.0
C1200 C 0.53628 0.99464 0.79284 0.0
C1201 C 0.53405 0.98313 0.78249 0.0
C1202 C 0.52546 0.99352 0.80331 0.0
C1203 C 0.51218 0.98093 0.8035 0.0
C1204 C 0.52081 0.97046 0.78284 0.0
C1205 C 0.50988 0.96945 0.79312 0.0
C1206 C 0.50055 0.98019 0.81389 0.0
C1207 C 0.52947 0.97461 0.85075 0.0
C1208 C 0.53697 0.98652 0.86131 0.0
C1209 C 0.51836 0.97352 0.84057 0.0
C1210 C 0.51449 0.98424 0.84098 0.0
C1211 C 0.53328 0.99738 0.86141 0.0
C1212 C 0.52203 0.99617 0.85146 0.0
C1213 C 0.50207 0.98269 0.83133 0.0
C1214 C 0.44463 0.97509 0.85088 0.0
C1215 C 0.4492 0.98642 0.86244 0.0
C1216 C 0.45449 0.97371 0.84089 0.0
C1217 C 0.46911 0.98367 0.8422 0.0
C1218 C 0.46385 0.99626 0.86384 0.0
C1219 C 0.4737 0.99486 0.85389 0.0
C1220 C 0.47978 0.98227 0.83195 0.0
C1221 C 0.45626 0.99444 0.79468 0.0
C1222 C 0.44613 0.98258 0.78553 0.0
C1223 C 0.46658 0.99342 0.80427 0.0
C1224 C 0.46704 0.98058 0.80467 0.0
C1225 C 0.44649 0.96968 0.78601 0.0
C1226 C 0.45704 0.96875 0.79537 0.0
C1227 C 0.47829 0.97983 0.81448 0.0
H1228 H 0.54641 0.00449 0.79284 0.0
H1229 H 0.52738 0.0026 0.81104 0.0
H1230 H 0.51883 0.96149 0.77488 0.0
H1231 H 0.49965 0.9597 0.793 0.0
H1232 H 0.53214 0.96611 0.85048 0.0
H1233 H 0.51254 0.96413 0.83274 0.0
H1234 H 0.53882 0.00659 0.86959 0.0
H1235 H 0.51914 0.00451 0.85201 0.0
H1236 H 0.43342 0.96734 0.84949 0.0
H1237 H 0.4507 0.96475 0.83231 0.0
H1238 H 0.46776 0.00495 0.87283 0.0
H1239 H 0.48492 0.00259 0.85526 0.0
H1240 H 0.45613 0.00447 0.79443 0.0
H1241 H 0.47432 0.0027 0.81125 0.0
H1242 H 0.43877 0.96046 0.77894 0.0
H1243 H 0.45733 0.9588 0.79549 0.0
N1244 N 0.4887 0.97885 0.80606 0.0
N1245 N 0.49166 0.98367 0.83971 0.0
C1246 C 0.00768 0.54804 0.79847 0.0
C1247 C 0.01764 0.55445 0.78559 0.0
C1248 C 0.00687 0.53642 0.80732 0.0
C1249 C 0.01638 0.53134 0.80389 0.0
C1250 C 0.02685 0.54913 0.78176 0.0
C1251 C 0.02627 0.5377 0.79089 0.0
C1252 C 0.01556 0.51892 0.8131 0.0
C1253 C 0.02476 0.55219 0.85303 0.0
C1254 C 0.01336 0.54832 0.86415 0.0
C1255 C 0.0248 0.54211 0.84199 0.0
C1256 C 0.01342 0.52798 0.84185 0.0
C1257 C 0.00198 0.53414 0.86388 0.0
C1258 C 0.00209 0.52406 0.85296 0.0
C1259 C 0.01346 0.51707 0.83063 0.0
C1260 C 0.02197 0.46765 0.84685 0.0
C1261 C 0.01071 0.4601 0.85806 0.0
C1262 C 0.02223 0.47845 0.83677 0.0
C1263 C 0.01129 0.48193 0.83786 0.0
C1264 C 0.99958 0.46333 0.85878 0.0
C1265 C -4e-05 0.47427 0.84889 0.0
C1266 C 0.01231 0.49438 0.82872 0.0
C1267 C 0.00116 0.46077 0.78922 0.0
C1268 C 0.01293 0.46339 0.77935 0.0
C1269 C 0.00177 0.47143 0.79975 0.0
C1270 C 0.01408 0.48493 0.80041 0.0
C1271 C 0.02529 0.47688 0.78008 0.0
C1272 C 0.02578 0.48765 0.79038 0.0
C1273 C 0.01455 0.49625 0.8113 0.0
H1274 H 0.00024 0.55175 0.80135 0.0
H1275 H 0.99862 0.5313 0.81663 0.0
H1276 H 0.03454 0.55386 0.77176 0.0
H1277 H 0.03356 0.53385 0.7878 0.0
H1278 H 0.03382 0.56293 0.85309 0.0
H1279 H 0.03379 0.54528 0.83373 0.0
H1280 H 0.99291 0.53083 0.87204 0.0
H1281 H 0.99323 0.5132 0.85306 0.0
H1282 H 0.03066 0.46534 0.84606 0.0
H1283 H 0.03123 0.48442 0.82858 0.0
H1284 H 0.99087 0.45776 0.86746 0.0
H1285 H 0.99149 0.47689 0.85001 0.0
H1286 H 0.99154 0.45043 0.78889 0.0
H1287 H 0.99257 0.46919 0.80728 0.0
H1288 H 0.03445 0.47913 0.77249 0.0
H1289 H 0.03534 0.49805 0.79069 0.0
N1290 N 0.01612 0.50844 0.80411 0.0
N1291 N 0.01181 0.50484 0.83772 0.0
C1292 C 0.52226 0.56613 0.78918 0.0
C1293 C 0.52876 0.56059 0.77856 0.0
C1294 C 0.51089 0.55702 0.79944 0.0
C1295 C 0.50584 0.5422 0.79938 0.0
C1296 C 0.52354 0.54571 0.77841 0.0
C1297 C 0.51217 0.53663 0.78862 0.0
C1298 C 0.49379 0.5323 0.8101 0.0
C1299 C 0.52929 0.55755 0.84681 0.0
C1300 C 0.52712 0.56707 0.85686 0.0
C1301 C 0.51829 0.54736 0.83685 0.0
C1302 C 0.50483 0.54637 0.83675 0.0
C1303 C 0.51363 0.56618 0.85649 0.0
C1304 C 0.50254 0.5558 0.84667 0.0
C1305 C 0.49294 0.5347 0.82736 0.0
C1306 C 0.45174 0.47781 0.85329 0.0
C1307 C 0.44154 0.47972 0.86217 0.0
C1308 C 0.46124 0.48838 0.84244 0.0
C1309 C 0.46092 0.5012 0.84036 0.0
C1310 C 0.44129 0.49265 0.85999 0.0
C1311 C 0.45102 0.50335 0.84935 0.0
C1312 C 0.47129 0.51243 0.82918 0.0
C1313 C 0.43742 0.47818 0.79693 0.0
C1314 C 0.44247 0.47129 0.78621 0.0
C1315 C 0.44696 0.49083 0.80523 0.0
C1316 C 0.46174 0.49673 0.80314 0.0
C1317 C 0.45725 0.47746 0.78383 0.0
C1318 C 0.46675 0.49003 0.79218 0.0
C1319 C 0.47212 0.51002 0.81192 0.0
H1320 H 0.52583 0.57749 0.7894 0.0
H1321 H 0.50595 0.56156 0.80728 0.0
H1322 H 0.52839 0.54107 0.77059 0.0
H1323 H 0.50845 0.52523 0.78832 0.0
H1324 H 0.53935 0.55758 0.84704 0.0
H1325 H 0.52018 0.53992 0.82962 0.0
H1326 H 0.51157 0.57341 0.86388 0.0
H1327 H 0.49218 0.55511 0.84684 0.0
H1328 H 0.45262 0.46826 0.85491 0.0
H1329 H 0.469 0.48664 0.83584 0.0
H1330 H 0.43352 0.49449 0.86638 0.0
H1331 H 0.45067 0.51322 0.84792 0.0
H1332 H 0.42611 0.47372 0.79905 0.0
H1333 H 0.44276 0.49602 0.81319 0.0
H1334 H 0.4615 0.47264 0.77537 0.0
H1335 H 0.47808 0.49445 0.79018 0.0
N1336 N 0.48336 0.52003 0.80309 0.0
N1337 N 0.4817 0.5247 0.83625 0.0
C1338 C 0.6385 0.78078 0.50277 0.0
C1339 C 0.6268 0.7705 0.49339 0.0
C1340 C 0.63705 0.79037 0.51324 0.0
C1341 C 0.62393 0.79006 0.51442 0.0
C1342 C 0.6136 0.77014 0.49482 0.0
C1343 C 0.61225 0.77997 0.50507 0.0
C1344 C 0.62273 0.80074 0.52483 0.0
C1345 C 0.62196 0.76676 0.55827 0.0
C1346 C 0.63345 0.77192 0.56968 0.0
C1347 C 0.61887 0.77628 0.54961 0.0
C1348 C 0.62733 0.79114 0.55202 0.0
C1349 C 0.64151 0.78676 0.57256 0.0
C1350 C 0.63847 0.79624 0.56384 0.0
C1351 C 0.62483 0.80156 0.54238 0.0
C1352 C 0.61786 0.85246 0.56102 0.0
C1353 C 0.62954 0.85949 0.57209 0.0
C1354 C 0.61608 0.84073 0.55152 0.0
C1355 C 0.6259 0.83577 0.55297 0.0
C1356 C 0.63926 0.85435 0.57355 0.0
C1357 C 0.63737 0.84254 0.56423 0.0
C1358 C 0.62445 0.82361 0.54278 0.0
C1359 C 0.63844 0.85998 0.50628 0.0
C1360 C 0.6292 0.85762 0.49264 0.0
C1361 C 0.63602 0.84886 0.51723 0.0
C1362 C 0.62416 0.83516 0.51498 0.0
C1363 C 0.61713 0.844 0.49061 0.0
C1364 C 0.6147 0.83285 0.50162 0.0
C1365 C 0.62269 0.82295 0.52516 0.0
H1366 H 0.64893 0.78171 0.50174 0.0
H1367 H 0.64625 0.79826 0.52019 0.0
H1368 H 0.60427 0.76228 0.48807 0.0
H1369 H 0.60205 0.77963 0.50582 0.0
H1370 H 0.61552 0.75541 0.55577 0.0
H1371 H 0.6099 0.77201 0.54099 0.0
H1372 H 0.65021 0.79108 0.58156 0.0
H1373 H 0.64505 0.80763 0.5661 0.0
H1374 H 0.61001 0.85593 0.55977 0.0
H1375 H 0.607 0.8355 0.5431 0.0
H1376 H 0.64854 0.85961 0.58164 0.0
H1377 H 0.6451 0.83892 0.5655 0.0
H1378 H 0.64778 0.87036 0.50826 0.0
H1379 H 0.64379 0.85086 0.52704 0.0
H1380 H 0.60992 0.84179 0.4801 0.0
H1381 H 0.60562 0.82231 0.49947 0.0
N1382 N 0.62176 0.81145 0.51689 0.0
N1383 N 0.62559 0.81297 0.55067 0.0
C1384 C 0.13512 0.77791 0.50969 0.0
C1385 C 0.13019 0.78316 0.49652 0.0
C1386 C 0.14657 0.7873 0.51987 0.0
C1387 C 0.15308 0.80219 0.51742 0.0
C1388 C 0.13682 0.79806 0.4941 0.0
C1389 C 0.14804 0.80742 0.50444 0.0
C1390 C 0.16588 0.81243 0.52715 0.0
C1391 C 0.13236 0.79134 0.5666 0.0
C1392 C 0.13437 0.78159 0.57643 0.0
C1393 C 0.14316 0.80091 0.55608 0.0
C1394 C 0.15619 0.80097 0.55534 0.0
C1395 C 0.1474 0.78162 0.57566 0.0
C1396 C 0.15833 0.7914 0.56535 0.0
C1397 C 0.1677 0.81138 0.54456 0.0
C1398 C 0.21836 0.86855 0.56094 0.0
C1399 C 0.22481 0.86441 0.57349 0.0
C1400 C 0.2073 0.85825 0.55113 0.0
C1401 C 0.20275 0.84362 0.55327 0.0
C1402 C 0.22011 0.84979 0.5759 0.0
C1403 C 0.20919 0.83949 0.56585 0.0
C1404 C 0.19051 0.83255 0.54353 0.0
C1405 C 0.2224 0.85884 0.50295 0.0
C1406 C 0.2176 0.86646 0.49289 0.0
C1407 C 0.21314 0.84838 0.51418 0.0
C1408 C 0.19895 0.84535 0.51546 0.0
C1409 C 0.20346 0.86361 0.49465 0.0
C1410 C 0.19422 0.85306 0.50565 0.0
C1411 C 0.1886 0.83364 0.52614 0.0
H1412 H 0.13026 0.76653 0.51207 0.0
H1413 H 0.15051 0.78284 0.52931 0.0
H1414 H 0.13365 0.80258 0.48388 0.0
H1415 H 0.15295 0.81882 0.50209 0.0
H1416 H 0.12238 0.79147 0.56695 0.0
H1417 H 0.1414 0.80835 0.54861 0.0
H1418 H 0.14919 0.77424 0.58322 0.0
H1419 H 0.16837 0.7914 0.56502 0.0
H1420 H 0.22155 0.87973 0.55911 0.0
H1421 H 0.20206 0.86179 0.5422 0.0
H1422 H 0.22488 0.84634 0.58555 0.0
H1423 H 0.20571 0.82826 0.56797 0.0
H1424 H 0.23315 0.86064 0.50181 0.0
H1425 H 0.21694 0.8424 0.5215 0.0
H1426 H 0.19947 0.86948 0.48745 0.0
H1427 H 0.18331 0.85092 0.50651 0.0
N1428 N 0.17641 0.82357 0.51871 0.0
N1429 N 0.17997 0.82139 0.55205 0.0
C1430 C 0.22974 0.37215 0.50563 0.0
C1431 C 0.22482 0.36027 0.49483 0.0
C1432 C 0.22006 0.37466 0.51462 0.0
C1433 C 0.20532 0.36532 0.51294 0.0
C1434 C 0.21006 0.35103 0.49315 0.0
C1435 C 0.20045 0.35356 0.50205 0.0
C1436 C 0.19472 0.36771 0.52195 0.0
C1437 C 0.21576 0.35549 0.56295 0.0
C1438 C 0.22599 0.36765 0.57161 0.0
C1439 C 0.20592 0.35639 0.55228 0.0
C1440 C 0.20604 0.36943 0.55025 0.0
C1441 C 0.22622 0.38077 0.56942 0.0
C1442 C 0.21616 0.38161 0.55896 0.0
C1443 C 0.19524 0.37004 0.53939 0.0
C1444 C 0.13506 0.35082 0.55528 0.0
C1445 C 0.13595 0.36095 0.56707 0.0
C1446 C 0.14687 0.3534 0.54575 0.0
C1447 C 0.15979 0.36625 0.54761 0.0
C1448 C 0.1489 0.37383 0.56897 0.0
C1449 C 0.16078 0.37639 0.55941 0.0
C1450 C 0.17242 0.36857 0.53801 0.0
C1451 C 0.14034 0.36823 0.50133 0.0
C1452 C 0.13625 0.35802 0.48838 0.0
C1453 C 0.15212 0.37135 0.5116 0.0
C1454 C 0.15979 0.36401 0.50948 0.0
C1455 C 0.14434 0.35116 0.4859 0.0
C1456 C 0.15588 0.35405 0.49635 0.0
C1457 C 0.1721 0.36668 0.52041 0.0
H1458 H 0.24105 0.37947 0.50716 0.0
H1459 H 0.22408 0.38398 0.52266 0.0
H1460 H 0.20591 0.34195 0.48469 0.0
H1461 H 0.18914 0.34625 0.50045 0.0
H1462 H 0.21544 0.34529 0.56438 0.0
H1463 H 0.19811 0.34687 0.54573 0.0
H1464 H 0.23399 0.39026 0.57605 0.0
H1465 H 0.21632 0.39173 0.55757 0.0
H1466 H 0.1252 0.34086 0.55341 0.0
H1467 H 0.14595 0.34525 0.53702 0.0
H1468 H 0.14995 0.38175 0.57809 0.0
H1469 H 0.17073 0.38627 0.56122 0.0
H1470 H 0.1344 0.37375 0.50368 0.0
H1471 H 0.15517 0.37949 0.52119 0.0
H1472 H 0.14188 0.34358 0.47576 0.0
H1473 H 0.16169 0.34836 0.49421 0.0
N1474 N 0.18323 0.36623 0.51318 0.0
N1475 N 0.18406 0.37034 0.5468 0.0
C1476 C 0.99292 0.368 0.05096 0.0
C1477 C 0.00708 0.37356 0.04561 0.0
C1478 C 0.98963 0.37465 0.06393 0.0
C1479 C 0.98647 0.38819 0.0964 0.0
H1480 H 0.00624 0.42963 0.09332 0.0
C1481 C 0.98263 0.42582 0.1463 0.0
C1482 C 0.98231 0.43795 0.14012 0.0
C1483 C 0.98469 0.4168 0.13538 0.0
C1484 C 0.00054 0.41806 0.09431 0.0
H1485 H 0.02898 0.38994 0.05051 0.0
H1486 H 0.02327 0.40132 0.07314 0.0
H1487 H 0.01188 0.4159 0.07374 0.0
H1488 H 0.98292 0.44958 0.11758 0.0
H1489 H 0.98644 0.43389 0.0986 0.0
H1490 H 0.97491 0.39048 0.11687 0.0
C1491 C 0.01466 0.39204 0.06707 0.0
C1492 C 0.00392 0.41019 0.08321 0.0
C1493 C 0.01793 0.38545 0.05412 0.0
C1494 C 0.98344 0.4405 0.12276 0.0
C1495 C 0.98547 0.43152 0.11189 0.0
C1496 C 0.9831 0.39612 0.1076 0.0
C1497 C 0.00045 0.38697 0.07182 0.0
C1498 C 0.99693 0.39516 0.08409 0.0
C1499 C 0.98645 0.41976 0.11809 0.0
C1500 C 0.99003 0.41114 0.10656 0.0
H1501 H 0.98429 0.35886 0.0447 0.0
H1502 H 0.97857 0.37052 0.06724 0.0
H1503 H 0.98095 0.37663 0.09745 0.0
H1504 H 0.98183 0.42362 0.15963 0.0
H1505 H 0.98546 0.40785 0.14054 0.0
C1506 C 0.63768 0.61887 0.05436 0.0
C1507 C 0.63 0.62228 0.0427 0.0
C1508 C 0.63061 0.6093 0.06741 0.0
C1509 C 0.60068 0.59704 0.09481 0.0
H1510 H 0.60076 0.56102 0.09822 0.0
C1511 C 0.56178 0.55197 0.13794 0.0
C1512 C 0.56551 0.54214 0.14472 0.0
C1513 C 0.57069 0.56242 0.12661 0.0
C1514 C 0.60085 0.57115 0.09776 0.0
H1515 H 0.60924 0.61941 0.0361 0.0
H1516 H 0.59686 0.60289 0.05926 0.0
H1517 H 0.6145 0.57804 0.07633 0.0
H1518 H 0.58198 0.53608 0.14529 0.0
H1519 H 0.59793 0.55487 0.12637 0.0
H1520 H 0.58752 0.59059 0.11651 0.0
C1521 C 0.60825 0.60724 0.05795 0.0
C1522 C 0.60864 0.58082 0.08509 0.0
C1523 C 0.61529 0.6166 0.04473 0.0
C1524 C 0.57874 0.54348 0.14042 0.0
C1525 C 0.58782 0.55415 0.12931 0.0
C1526 C 0.59316 0.58755 0.10773 0.0
C1527 C 0.61586 0.60348 0.06933 0.0
C1528 C 0.60839 0.59369 0.08334 0.0
C1529 C 0.5838 0.56362 0.12201 0.0
C1530 C 0.59289 0.57432 0.10919 0.0
H1531 H 0.64915 0.62372 0.05348 0.0
H1532 H 0.6367 0.60667 0.07619 0.0
H1533 H 0.60052 0.60703 0.0938 0.0
H1534 H 0.55185 0.55155 0.14124 0.0
H1535 H 0.56705 0.56932 0.12116 0.0
C1536 C 0.37516 0.01467 0.05748 0.0
C1537 C 0.37318 0.00608 0.04338 0.0
C1538 C 0.38511 0.01631 0.06988 0.0
C1539 C 0.4028 0.99825 0.08882 0.0
H1540 H 0.43207 0.03607 0.10281 0.0
C1541 C 0.4496 0.00586 0.13098 0.0
C1542 C 0.45545 0.0173 0.14239 0.0
C1543 C 0.43935 0.0046 0.11927 0.0
C1544 C 0.42383 0.02541 0.09933 0.0
H1545 H 0.37908 0.99163 0.03162 0.0
H1546 H 0.39642 0.99434 0.05339 0.0
H1547 H 0.41428 0.03361 0.08207 0.0
H1548 H 0.45508 0.03627 0.15079 0.0
H1549 H 0.43668 0.03379 0.13084 0.0
H1550 H 0.41185 0.98991 0.10643 0.0
C1551 C 0.39056 9e-05 0.05467 0.0
C1552 C 0.41371 0.02404 0.08733 0.0
C1553 C 0.38074 0.99859 0.04222 0.0
C1554 C 0.45078 0.02741 0.14201 0.0
C1555 C 0.44031 0.02601 0.13049 0.0
C1556 C 0.41272 0.99959 0.10106 0.0
C1557 C 0.39287 0.009 0.06859 0.0
C1558 C 0.40323 0.01046 0.08181 0.0
C1559 C 0.43448 0.01461 0.11889 0.0
C1560 C 0.42351 0.0132 0.10635 0.0
H1561 H 0.36892 0.02 0.05897 0.0
H1562 H 0.38655 0.02307 0.08061 0.0
H1563 H 0.39467 0.98764 0.08495 0.0
H1564 H 0.45318 0.99803 0.13091 0.0
H1565 H 0.43544 0.99587 0.11033 0.0
C1566 C 0.36801 0.99115 0.96679 0.0
C1567 C 0.37167 0.0053 0.97093 0.0
C1568 C 0.37504 0.98843 0.95378 0.0
C1569 C 0.40926 0.00655 0.93139 0.0
H1570 H 0.39132 0.97481 0.90013 0.0
C1571 C 0.44037 0.00149 0.87633 0.0
C1572 C 0.43882 0.98791 0.87325 0.0
C1573 C 0.4312 0.00309 0.88728 0.0
C1574 C 0.39649 0.98365 0.90887 0.0
H1575 H 0.38488 0.02759 0.96389 0.0
H1576 H 0.39683 0.02284 0.94118 0.0
H1577 H 0.37677 0.97844 0.9209 0.0
H1578 H 0.42621 0.96529 0.879 0.0
H1579 H 0.41018 0.96809 0.89819 0.0
H1580 H 0.42893 0.01176 0.91956 0.0
C1581 C 0.38886 0.01386 0.94824 0.0
C1582 C 0.38816 0.98573 0.92076 0.0
C1583 C 0.38194 0.01657 0.96123 0.0
C1584 C 0.42761 0.97589 0.881 0.0
C1585 C 0.41842 0.97749 0.89199 0.0
C1586 C 0.41754 0.0045 0.91955 0.0
C1587 C 0.38581 0.99981 0.94465 0.0
C1588 C 0.39446 0.99728 0.93207 0.0
C1589 C 0.42026 0.99115 0.89546 0.0
C1590 C 0.41127 0.9931 0.90807 0.0
H1591 H 0.36017 0.98223 0.97405 0.0
H1592 H 0.37246 0.97749 0.95136 0.0
H1593 H 0.41453 0.01534 0.94018 0.0
H1594 H 0.44871 0.01093 0.87029 0.0
H1595 H 0.43273 0.01373 0.88941 0.0
C1596 C 0.99979 0.3821 0.97437 0.0
C1597 C 0.00607 0.37343 0.97275 0.0
C1598 C 0.00103 0.3915 0.96151 0.0
C1599 C 0.0141 0.41635 0.93644 0.0
H1600 H 0.00278 0.40186 0.89112 0.0
C1601 C 0.02323 0.45318 0.87954 0.0
C1602 C 0.011 0.44952 0.86978 0.0
C1603 C 0.02321 0.44368 0.89156 0.0
C1604 C 0.006 0.40603 0.90372 0.0
H1605 H 0.0175 0.36674 0.95617 0.0
H1606 H 0.01953 0.3831 0.93345 0.0
H1607 H 0.00163 0.38564 0.91353 0.0
H1608 H 0.98934 0.43295 0.8645 0.0
H1609 H 0.98938 0.41615 0.88537 0.0
H1610 H 0.01851 0.43674 0.92667 0.0
C1611 C 0.014 0.38292 0.94482 0.0
C1612 C 0.00542 0.3968 0.91648 0.0
C1613 C 0.01297 0.3737 0.95781 0.0
C1614 C 0.99888 0.43602 0.87192 0.0
C1615 C 0.99893 0.42642 0.88376 0.0
C1616 C 0.01491 0.42563 0.92364 0.0
C1617 C 0.00815 0.39199 0.94663 0.0
C1618 C 0.00933 0.40186 0.93298 0.0
C1619 C 0.01103 0.43026 0.89385 0.0
C1620 C 0.01074 0.42052 0.9072 0.0
H1621 H 0.9941 0.38173 0.98567 0.0
H1622 H 0.99625 0.39825 0.96309 0.0
H1623 H 0.01722 0.42051 0.94906 0.0
H1624 H 0.03267 0.46358 0.87824 0.0
H1625 H 0.03268 0.44685 0.89914 0.0
C1626 C 0.62643 0.62143 0.95547 0.0
C1627 C 0.62433 0.62767 0.96982 0.0
C1628 C 0.61673 0.61712 0.94214 0.0
C1629 C 0.58492 0.61878 0.92536 0.0
H1630 H 0.57879 0.58458 0.90182 0.0
C1631 C 0.53545 0.58023 0.88441 0.0
C1632 C 0.53866 0.57723 0.86833 0.0
C1633 C 0.54636 0.58846 0.89584 0.0
C1634 C 0.58049 0.59421 0.90821 0.0
H1635 H 0.61061 0.6345 0.9815 0.0
H1636 H 0.59316 0.62623 0.95865 0.0
H1637 H 0.59677 0.59456 0.92382 0.0
H1638 H 0.55601 0.58151 0.85138 0.0
H1639 H 0.57493 0.59522 0.87168 0.0
H1640 H 0.56784 0.61766 0.91015 0.0
C1641 C 0.60255 0.62511 0.95731 0.0
C1642 C 0.59089 0.60005 0.92076 0.0
C1643 C 0.6125 0.6298 0.97048 0.0
C1644 C 0.55308 0.58323 0.86377 0.0
C1645 C 0.56394 0.59119 0.87531 0.0
C1646 C 0.57426 0.6127 0.91302 0.0
C1647 C 0.60442 0.6185 0.94303 0.0
C1648 C 0.59335 0.61248 0.92948 0.0
C1649 C 0.56066 0.59365 0.89151 0.0
C1650 C 0.57204 0.60042 0.90431 0.0
H1651 H 0.63559 0.61986 0.95459 0.0
H1652 H 0.61888 0.61256 0.93119 0.0
H1653 H 0.58659 0.62845 0.93156 0.0
H1654 H 0.52453 0.57569 0.88851 0.0
H1655 H 0.54361 0.59014 0.90835 0.0
C1656 C 0.01535 0.64129 0.95653 0.0
C1657 C 0.00825 0.63549 0.97164 0.0
C1658 C 0.01626 0.63239 0.94439 0.0
C1659 C 0.01488 0.59771 0.94007 0.0
H1660 H 0.00752 0.60074 0.89298 0.0
C1661 C 0.00814 0.55468 0.89251 0.0
C1662 C 0.0134 0.55891 0.87619 0.0
C1663 C 0.00801 0.56451 0.90383 0.0
C1664 C 0.00985 0.5999 0.90604 0.0
H1665 H 0.99555 0.61598 0.98554 0.0
H1666 H 0.99733 0.60037 0.96448 0.0
H1667 H 0.00631 0.61714 0.91322 0.0
H1668 H 0.02264 0.5769 0.859 0.0
H1669 H 0.02293 0.59419 0.87897 0.0
H1670 H 0.01863 0.58067 0.93301 0.0
C1671 C 0.00248 0.61179 0.96213 0.0
C1672 C 0.00911 0.60927 0.91762 0.0
C1673 C 0.00144 0.62066 0.97414 0.0
C1674 C 0.01865 0.57329 0.87152 0.0
C1675 C 0.01864 0.58317 0.88291 0.0
C1676 C 0.01579 0.58846 0.92849 0.0
C1677 C 0.01003 0.61758 0.94722 0.0
C1678 C 0.01144 0.60814 0.93477 0.0
C1679 C 0.01329 0.57889 0.89921 0.0
C1680 C 0.01309 0.5893 0.91136 0.0
H1681 H 0.02025 0.65269 0.95418 0.0
H1682 H 0.02211 0.63714 0.933 0.0
H1683 H 0.0169 0.59671 0.95319 0.0
H1684 H 0.00421 0.54375 0.89665 0.0
H1685 H 0.00361 0.56075 0.91616 0.0
C1686 C 0.37028 0.39175 0.97116 0.0
C1687 C 0.37367 0.38066 0.971 0.0
C1688 C 0.3757 0.40243 0.95885 0.0
C1689 C 0.38841 0.41055 0.91626 0.0
H1690 H 0.41481 0.44908 0.93138 0.0
C1691 C 0.42658 0.45381 0.87045 0.0
C1692 C 0.43148 0.46837 0.87384 0.0
C1693 C 0.41799 0.44321 0.88188 0.0
C1694 C 0.40723 0.4385 0.92685 0.0
H1695 H 0.38489 0.37173 0.95754 0.0
H1696 H 0.39388 0.3901 0.93568 0.0
H1697 H 0.402 0.43024 0.95189 0.0
H1698 H 0.43062 0.48302 0.89194 0.0
H1699 H 0.41492 0.46455 0.91125 0.0
H1700 H 0.39323 0.41866 0.89128 0.0
C1701 C 0.38722 0.39062 0.94546 0.0
C1702 C 0.39996 0.4277 0.93866 0.0
C1703 C 0.38213 0.38017 0.95798 0.0
C1704 C 0.42702 0.47196 0.88873 0.0
C1705 C 0.41817 0.46132 0.90002 0.0
C1706 C 0.39542 0.4214 0.90443 0.0
C1707 C 0.38425 0.40195 0.94595 0.0
C1708 C 0.39071 0.4136 0.93346 0.0
C1709 C 0.41372 0.44679 0.89691 0.0
C1710 C 0.4052 0.43549 0.90953 0.0
H1711 H 0.36388 0.39245 0.98113 0.0
H1712 H 0.3733 0.41111 0.95946 0.0
H1713 H 0.38124 0.39974 0.91199 0.0
H1714 H 0.42946 0.45051 0.85898 0.0
H1715 H 0.41502 0.43223 0.87903 0.0
C1716 C 0.62641 0.9903 0.9602 0.0
C1717 C 0.62742 0.99798 0.97482 0.0
C1718 C 0.61712 0.98923 0.94727 0.0
C1719 C 0.6027 0.99676 0.91861 0.0
H1720 H 0.56358 0.98497 0.93026 0.0
C1721 C 0.56145 0.99978 0.87393 0.0
C1722 C 0.54809 0.9873 0.87293 0.0
C1723 C 0.5716 0.00081 0.88568 0.0
C1724 C 0.57446 0.98822 0.92685 0.0
H1725 H 0.62043 0.01135 0.98718 0.0
H1726 H 0.60375 0.00913 0.9647 0.0
H1727 H 0.58068 0.98785 0.95233 0.0
H1728 H 0.53483 0.96613 0.88327 0.0
H1729 H 0.55252 0.96805 0.90408 0.0
H1730 H 0.59652 0.99743 0.89313 0.0
C1731 C 0.61 0.0038 0.96333 0.0
C1732 C 0.58424 0.98995 0.93946 0.0
C1733 C 0.61949 0.00508 0.97612 0.0
C1734 C 0.5451 0.97581 0.88372 0.0
C1735 C 0.55515 0.97694 0.89567 0.0
C1736 C 0.59298 0.9953 0.90602 0.0
C1737 C 0.6087 0.99581 0.94883 0.0
C1738 C 0.59843 0.99418 0.93545 0.0
C1739 C 0.56844 0.98948 0.89682 0.0
C1740 C 0.57877 0.99095 0.91004 0.0
H1741 H 0.63278 0.9851 0.95881 0.0
H1742 H 0.61629 0.98299 0.93623 0.0
H1743 H 0.61361 0.0001 0.91523 0.0
H1744 H 0.56399 0.00876 0.86569 0.0
H1745 H 0.58176 0.01061 0.8864 0.0
C1746 C 0.62293 0.98868 0.06138 0.0
C1747 C 0.62922 0.99854 0.04831 0.0
C1748 C 0.61683 0.99187 0.07492 0.0
C1749 C 0.61202 0.02115 0.09425 0.0
H1750 H 0.57785 0.98863 0.11138 0.0
C1751 C 0.57779 0.02724 0.14604 0.0
C1752 C 0.56303 0.0179 0.14535 0.0
C1753 C 0.58688 0.02529 0.13524 0.0
C1754 C 0.58725 0.9979 0.10661 0.0
H1755 H 0.6344 0.01954 0.03916 0.0
H1756 H 0.62305 0.02486 0.06224 0.0
H1757 H 0.59194 0.98483 0.09085 0.0
H1758 H 0.54605 0.99961 0.1326 0.0
H1759 H 0.56167 0.99661 0.11319 0.0
H1760 H 0.60663 0.0343 0.10918 0.0
C1761 C 0.62325 0.01488 0.06253 0.0
C1762 C 0.59559 0.99568 0.09503 0.0
C1763 C 0.62973 0.01183 0.04922 0.0
C1764 C 0.55745 0.00682 0.13348 0.0
C1765 C 0.56645 0.00505 0.12247 0.0
C1766 C 0.60348 0.02341 0.10561 0.0
C1767 C 0.61642 0.00479 0.07541 0.0
C1768 C 0.60807 0.00726 0.08857 0.0
C1769 C 0.58133 0.01412 0.12332 0.0
C1770 C 0.59088 0.01181 0.11182 0.0
H1771 H 0.62253 0.9784 0.06099 0.0
H1772 H 0.61215 0.98401 0.08481 0.0
H1773 H 0.62166 0.03035 0.08985 0.0
H1774 H 0.5823 0.03582 0.15519 0.0
H1775 H 0.59825 0.03238 0.13647 0.0
C1776 C 0.9958 0.62745 0.04906 0.0
C1777 C 0.0099 0.63544 0.04332 0.0
C1778 C 0.99243 0.61757 0.06211 0.0
C1779 C 0.00592 0.59539 0.08148 0.0
H1780 H 0.97772 0.58796 0.11566 0.0
C1781 C 0.98449 0.54531 0.12227 0.0
C1782 C 0.98359 0.54703 0.13959 0.0
C1783 C 0.98677 0.55627 0.11116 0.0
C1784 C 0.98568 0.58998 0.10625 0.0
H1785 H 0.03163 0.63985 0.0475 0.0
H1786 H 0.02579 0.62285 0.0703 0.0
H1787 H 0.98413 0.60762 0.09579 0.0
H1788 H 0.98379 0.56136 0.15882 0.0
H1789 H 0.9879 0.58069 0.13932 0.0
H1790 H 0.00768 0.57798 0.09193 0.0
C1791 C 0.01727 0.62396 0.06447 0.0
C1792 C 0.98926 0.60115 0.09479 0.0
C1793 C 0.02062 0.63377 0.05142 0.0
C1794 C 0.9844 0.55974 0.14552 0.0
C1795 C 0.98674 0.57078 0.13436 0.0
C1796 C 0.00235 0.58428 0.09286 0.0
C1797 C 0.0031 0.61549 0.0697 0.0
C1798 C 0.99942 0.60395 0.08226 0.0
C1799 C 0.98827 0.56927 0.11709 0.0
C1800 C 0.99211 0.58135 0.1053 0.0
H1801 H 0.98727 0.62846 0.04311 0.0
H1802 H 0.9814 0.61115 0.06577 0.0
H1803 H 0.01364 0.59711 0.07185 0.0
H1804 H 0.9836 0.53551 0.1173 0.0
H1805 H 0.98754 0.55463 0.09789 0.0
C1806 C 0.37698 0.36498 0.05592 0.0
C1807 C 0.37448 0.37277 0.04353 0.0
C1808 C 0.38652 0.37208 0.06908 0.0
C1809 C 0.41602 0.4084 0.08069 0.0
H1810 H 0.41092 0.39181 0.12512 0.0
C1811 C 0.4458 0.44059 0.13938 0.0
C1812 C 0.4548 0.43613 0.14697 0.0
C1813 C 0.43564 0.43201 0.12745 0.0
C1814 C 0.41246 0.39648 0.11272 0.0
H1815 H 0.37855 0.39381 0.03596 0.0
H1816 H 0.39492 0.4063 0.0591 0.0
H1817 H 0.39351 0.37863 0.10298 0.0
H1818 H 0.4596 0.4187 0.14836 0.0
H1819 H 0.44129 0.40344 0.128 0.0
H1820 H 0.43463 0.42651 0.09078 0.0
C1821 C 0.39022 0.39478 0.0583 0.0
C1822 C 0.40256 0.38894 0.1 0.0
C1823 C 0.38077 0.38766 0.0451 0.0
C1824 C 0.4528 0.42247 0.14295 0.0
C1825 C 0.4424 0.41375 0.13122 0.0
C1826 C 0.4257 0.41602 0.09348 0.0
C1827 C 0.39347 0.38712 0.07029 0.0
C1828 C 0.40415 0.39486 0.08383 0.0
C1829 C 0.43399 0.41862 0.12314 0.0
C1830 C 0.42396 0.41017 0.1096 0.0
H1831 H 0.37171 0.3534 0.05529 0.0
H1832 H 0.38871 0.36578 0.07801 0.0
H1833 H 0.41789 0.41315 0.06833 0.0
H1834 H 0.44669 0.45082 0.14247 0.0
H1835 H 0.42911 0.43588 0.12149 0.0
C1836 C 0.67003 0.71346 0.39714 0.0
C1837 C 0.66131 0.70543 0.38364 0.0
C1838 C 0.66457 0.71825 0.40988 0.0
C1839 C 0.64015 0.73097 0.41669 0.0
H1840 H 0.64179 0.72319 0.46391 0.0
C1841 C 0.62093 0.75625 0.46653 0.0
C1842 C 0.62856 0.76059 0.48177 0.0
C1843 C 0.62324 0.74768 0.4552 0.0
C1844 C 0.64142 0.72566 0.45081 0.0
H1845 H 0.64004 0.69606 0.37292 0.0
H1846 H 0.63064 0.70492 0.39498 0.0
H1847 H 0.64939 0.71179 0.44302 0.0
H1848 H 0.6442 0.75863 0.49723 0.0
H1849 H 0.64896 0.7447 0.47711 0.0
H1850 H 0.63311 0.74551 0.42421 0.0
C1851 C 0.64161 0.70723 0.39578 0.0
C1852 C 0.64566 0.71901 0.43888 0.0
C1853 C 0.64697 0.70213 0.38324 0.0
C1854 C 0.63833 0.75583 0.48549 0.0
C1855 C 0.64087 0.74754 0.47401 0.0
C1856 C 0.63622 0.73788 0.4286 0.0
C1857 C 0.6504 0.71539 0.40913 0.0
C1858 C 0.64511 0.72167 0.42174 0.0
C1859 C 0.63347 0.74346 0.4586 0.0
C1860 C 0.63688 0.73541 0.44587 0.0
H1861 H 0.68112 0.71613 0.39777 0.0
H1862 H 0.67155 0.72461 0.42002 0.0
H1863 H 0.6398 0.73329 0.40351 0.0
H1864 H 0.61342 0.75975 0.46304 0.0
H1865 H 0.61707 0.74453 0.44368 0.0
C1866 C 0.30113 0.9574 0.39474 0.0
C1867 C 0.29428 0.95903 0.38057 0.0
C1868 C 0.29319 0.9478 0.4074 0.0
C1869 C 0.25914 0.91517 0.41404 0.0
H1870 H 0.26656 0.92471 0.46126 0.0
C1871 C 0.22138 0.87813 0.46467 0.0
C1872 C 0.22703 0.87702 0.4802 0.0
C1873 C 0.22999 0.88819 0.45281 0.0
C1874 C 0.26451 0.92177 0.44814 0.0
H1875 H 0.27391 0.95298 0.36891 0.0
H1876 H 0.25992 0.9359 0.39092 0.0
H1877 H 0.28077 0.94252 0.4402 0.0
H1878 H 0.24634 0.88562 0.49529 0.0
H1879 H 0.26155 0.9028 0.47426 0.0
H1880 H 0.24318 0.89437 0.42178 0.0
C1881 C 0.27142 0.94181 0.39213 0.0
C1882 C 0.27261 0.93201 0.43608 0.0
C1883 C 0.27937 0.95156 0.37959 0.0
C1884 C 0.24164 0.88609 0.48342 0.0
C1885 C 0.25032 0.89609 0.47144 0.0
C1886 C 0.25121 0.90488 0.42605 0.0
C1887 C 0.27827 0.93972 0.40606 0.0
C1888 C 0.2699 0.92885 0.41891 0.0
C1889 C 0.24459 0.89731 0.456 0.0
C1890 C 0.25365 0.90808 0.44327 0.0
H1891 H 0.31264 0.96343 0.39592 0.0
H1892 H 0.29876 0.9464 0.41797 0.0
H1893 H 0.25693 0.91237 0.4009 0.0
H1894 H 0.21025 0.87115 0.46156 0.0
H1895 H 0.2251 0.88893 0.44121 0.0
C1896 C 0.04055 0.34162 0.39106 0.0
C1897 C 0.03866 0.33229 0.37782 0.0
C1898 C 0.04991 0.34346 0.40424 0.0
C1899 C 0.08062 0.33773 0.41383 0.0
H1900 H 0.0766 0.34946 0.45851 0.0
C1901 C 0.11533 0.34061 0.47089 0.0
C1902 C 0.12374 0.35456 0.47731 0.0
C1903 C 0.10423 0.33752 0.45958 0.0
C1904 C 0.07781 0.34622 0.44605 0.0
H1905 H 0.04344 0.31615 0.36881 0.0
H1906 H 0.05954 0.31896 0.39201 0.0
H1907 H 0.0578 0.34359 0.43764 0.0
H1908 H 0.1266 0.37609 0.47709 0.0
H1909 H 0.1067 0.37039 0.4579 0.0
H1910 H 0.10042 0.33986 0.42263 0.0
C1911 C 0.05449 0.32553 0.39188 0.0
C1912 C 0.06711 0.34293 0.43404 0.0
C1913 C 0.0452 0.32381 0.37864 0.0
C1914 C 0.12031 0.36519 0.47263 0.0
C1915 C 0.10898 0.36199 0.46157 0.0
C1916 C 0.09113 0.3407 0.42595 0.0
C1917 C 0.05733 0.33572 0.4046 0.0
C1918 C 0.06839 0.33869 0.41771 0.0
C1919 C 0.10105 0.3482 0.45476 0.0
C1920 C 0.08983 0.34503 0.4421 0.0
H1921 H 0.03506 0.3478 0.39099 0.0
H1922 H 0.05174 0.35141 0.41371 0.0
H1923 H 0.08226 0.33491 0.40134 0.0
H1924 H 0.11732 0.33201 0.47453 0.0
H1925 H 0.09812 0.32676 0.45457 0.0
C1926 C 0.05121 0.34099 0.29412 0.0
C1927 C 0.04023 0.33052 0.30392 0.0
C1928 C 0.05719 0.33709 0.28114 0.0
C1929 C 0.05263 0.3072 0.25381 0.0
H1930 H 0.09379 0.33018 0.25123 0.0
C1931 C 0.08906 0.29378 0.21226 0.0
C1932 C 0.10033 0.30549 0.20412 0.0
C1933 C 0.08039 0.29593 0.22356 0.0
C1934 C 0.08228 0.32374 0.25166 0.0
H1935 H 0.02651 0.30768 0.3073 0.0
H1936 H 0.03721 0.3008 0.28468 0.0
H1937 H 0.08112 0.33543 0.27261 0.0
H1938 H 0.11064 0.32848 0.20052 0.0
H1939 H 0.09564 0.33222 0.22022 0.0
H1940 H 0.054 0.29539 0.23285 0.0
C1941 C 0.04106 0.31206 0.28699 0.0
C1942 C 0.07499 0.32676 0.26391 0.0
C1943 C 0.03495 0.316 0.29996 0.0
C1944 C 0.10228 0.31928 0.2069 0.0
C1945 C 0.09368 0.32142 0.21817 0.0
C1946 C 0.05998 0.30411 0.24154 0.0
C1947 C 0.05249 0.32259 0.2777 0.0
C1948 C 0.06006 0.31871 0.26499 0.0
C1949 C 0.08287 0.30983 0.22693 0.0
C1950 C 0.07487 0.31251 0.2402 0.0
H1951 H 0.05538 0.35229 0.29663 0.0
H1952 H 0.06568 0.34549 0.27394 0.0
H1953 H 0.04112 0.30081 0.25428 0.0
H1954 H 0.08732 0.28303 0.21043 0.0
H1955 H 0.07216 0.2868 0.23016 0.0
C1956 C 0.66603 0.71852 0.30927 0.0
C1957 C 0.67225 0.70977 0.31059 0.0
C1958 C 0.66989 0.72843 0.29621 0.0
C1959 C 0.68835 0.75437 0.27392 0.0
H1960 H 0.68642 0.74217 0.22775 0.0
C1961 C 0.70869 0.79422 0.21862 0.0
C1962 C 0.69824 0.79118 0.20625 0.0
C1963 C 0.70667 0.78398 0.23077 0.0
C1964 C 0.68708 0.74571 0.2406 0.0
H1965 H 0.68633 0.70344 0.29883 0.0
H1966 H 0.69293 0.72063 0.27576 0.0
H1967 H 0.68007 0.7247 0.25048 0.0
H1968 H 0.6779 0.77499 0.19626 0.0
H1969 H 0.67452 0.75693 0.21726 0.0
H1970 H 0.69536 0.77538 0.26407 0.0
C1971 C 0.68538 0.72012 0.285 0.0
C1972 C 0.68349 0.73576 0.25357 0.0
C1973 C 0.68172 0.71041 0.29821 0.0
C1974 C 0.68608 0.77755 0.20571 0.0
C1975 C 0.68419 0.76723 0.21765 0.0
C1976 C 0.69218 0.76437 0.26099 0.0
C1977 C 0.67966 0.72936 0.28401 0.0
C1978 C 0.68392 0.73997 0.27032 0.0
C1979 C 0.6943 0.77047 0.23051 0.0
C1980 C 0.69142 0.76009 0.24421 0.0
H1981 H 0.65846 0.71792 0.31854 0.0
H1982 H 0.66519 0.73532 0.29557 0.0
H1983 H 0.68885 0.75789 0.28675 0.0
H1984 H 0.71809 0.80472 0.21932 0.0
H1985 H 0.71464 0.78668 0.24054 0.0
C1986 C 0.29171 0.94913 0.2971 0.0
C1987 C 0.29372 0.96097 0.3067 0.0
C1988 C 0.28279 0.94485 0.283 0.0
C1989 C 0.25173 0.94556 0.26567 0.0
H1990 H 0.26138 0.93255 0.22503 0.0
C1991 C 0.21123 0.92035 0.21126 0.0
C1992 C 0.21007 0.90767 0.2047 0.0
C1993 C 0.2227 0.92921 0.22173 0.0
C1994 C 0.25849 0.93609 0.23632 0.0
H1995 H 0.28806 0.97774 0.30877 0.0
H1996 H 0.2724 0.97014 0.28419 0.0
H1997 H 0.27916 0.94357 0.24731 0.0
H1998 H 0.22047 0.8948 0.20315 0.0
H1999 H 0.24017 0.90996 0.22166 0.0
H2000 H 0.2309 0.93758 0.25504 0.0
C2001 C 0.27775 0.9642 0.28765 0.0
C2002 C 0.26869 0.94242 0.24905 0.0
C2003 C 0.28677 0.96857 0.30168 0.0
C2004 C 0.22093 0.90438 0.20823 0.0
C2005 C 0.23234 0.91319 0.21868 0.0
C2006 C 0.24149 0.93914 0.25298 0.0
C2007 C 0.27559 0.95223 0.27824 0.0
C2008 C 0.26532 0.94695 0.264 0.0
C2009 C 0.23325 0.92559 0.22581 0.0
C2010 C 0.24466 0.93405 0.2383 0.0
H2011 H 0.2969 0.94303 0.30057 0.0
H2012 H 0.28121 0.93548 0.27611 0.0
H2013 H 0.24878 0.94883 0.27712 0.0
H2014 H 0.20302 0.92317 0.2088 0.0
H2015 H 0.22318 0.93878 0.22685 0.0
C2016 C 0.66355 0.94552 0.30409 0.0
C2017 C 0.67163 0.96046 0.30503 0.0
C2018 C 0.66563 0.93817 0.29096 0.0
C2019 C 0.68233 0.94321 0.24877 0.0
H2020 H 0.67964 0.9067 0.2596 0.0
C2021 C 0.70152 0.9102 0.20832 0.0
C2022 C 0.69031 0.89647 0.20411 0.0
C2023 C 0.69932 0.91888 0.21961 0.0
C2024 C 0.68041 0.91689 0.25646 0.0
H2025 H 0.68692 0.97965 0.29222 0.0
H2026 H 0.69114 0.96692 0.26963 0.0
H2027 H 0.67574 0.92019 0.28145 0.0
H2028 H 0.66778 0.88157 0.20781 0.0
H2029 H 0.66425 0.89646 0.2281 0.0
H2030 H 0.68761 0.93996 0.22383 0.0
C2031 C 0.68325 0.96074 0.27897 0.0
C2032 C 0.67804 0.92457 0.2689 0.0
C2033 C 0.68105 0.96805 0.29206 0.0
C2034 C 0.67678 0.89187 0.21108 0.0
C2035 C 0.67468 0.90042 0.22258 0.0
C2036 C 0.685 0.93563 0.2364 0.0
C2037 C 0.67578 0.94566 0.27845 0.0
C2038 C 0.67874 0.93774 0.26519 0.0
C2039 C 0.68596 0.9139 0.22705 0.0
C2040 C 0.68387 0.92234 0.24014 0.0
H2041 H 0.65583 0.93951 0.3137 0.0
H2042 H 0.65928 0.92661 0.29068 0.0
H2043 H 0.68282 0.95321 0.24535 0.0
H2044 H 0.71212 0.91407 0.20339 0.0
H2045 H 0.70816 0.92926 0.223 0.0
C2046 C 0.05257 0.71343 0.29639 0.0
C2047 C 0.0409 0.71135 0.30616 0.0
C2048 C 0.05718 0.72304 0.28303 0.0
C2049 C 0.05807 0.75566 0.26813 0.0
H2050 H 0.07109 0.74677 0.227 0.0
C2051 C 0.08565 0.79766 0.21539 0.0
C2052 C 0.09807 0.79831 0.20899 0.0
C2053 C 0.07649 0.78628 0.22571 0.0
C2054 C 0.06755 0.74944 0.23842 0.0
H2055 H 0.0248 0.71769 0.30933 0.0
H2056 H 0.033 0.73467 0.28592 0.0
H2057 H 0.05882 0.72809 0.24787 0.0
H2058 H 0.11032 0.78725 0.20786 0.0
H2059 H 0.09457 0.76763 0.22599 0.0
H2060 H 0.06725 0.77715 0.25892 0.0
C2061 C 0.03853 0.72877 0.2887 0.0
C2062 C 0.06049 0.73873 0.25036 0.0
C2063 C 0.0338 0.719 0.30203 0.0
C2064 C 0.10094 0.78717 0.21277 0.0
C2065 C 0.09179 0.77581 0.223 0.0
C2066 C 0.06519 0.76641 0.25618 0.0
C2067 C 0.05032 0.73093 0.27911 0.0
C2068 C 0.056 0.7418 0.26553 0.0
C2069 C 0.07951 0.77526 0.22971 0.0
C2070 C 0.07034 0.76351 0.24139 0.0
H2071 H 0.0583 0.70772 0.29916 0.0
H2072 H 0.06642 0.7246 0.27604 0.0
H2073 H 0.05483 0.75838 0.27975 0.0
H2074 H 0.08319 0.80612 0.21276 0.0
H2075 H 0.06706 0.78612 0.23059 0.0
C2076 C 0.29313 0.32278 0.29538 0.0
C2077 C 0.29311 0.33043 0.30961 0.0
C2078 C 0.28323 0.31987 0.28246 0.0
C2079 C 0.24801 0.31591 0.27463 0.0
H2080 H 0.25923 0.32241 0.22794 0.0
C2081 C 0.21011 0.31537 0.22355 0.0
C2082 C 0.21025 0.30995 0.20756 0.0
C2083 C 0.22027 0.31717 0.23562 0.0
C2084 C 0.25586 0.32028 0.24089 0.0
H2085 H 0.28369 0.34196 0.32118 0.0
H2086 H 0.2661 0.33663 0.29874 0.0
H2087 H 0.27709 0.32702 0.24968 0.0
H2088 H 0.22124 0.30207 0.19182 0.0
H2089 H 0.23873 0.30472 0.21318 0.0
H2090 H 0.22679 0.30895 0.26602 0.0
C2091 C 0.27355 0.33265 0.29768 0.0
C2092 C 0.26611 0.32299 0.25332 0.0
C2093 C 0.28357 0.33572 0.31046 0.0
C2094 C 0.22075 0.30619 0.20404 0.0
C2095 C 0.23088 0.30787 0.21623 0.0
C2096 C 0.23774 0.31302 0.26223 0.0
C2097 C 0.27321 0.32459 0.28362 0.0
C2098 C 0.2623 0.32104 0.27032 0.0
C2099 C 0.23077 0.3134 0.23218 0.0
C2100 C 0.24157 0.31542 0.24521 0.0
H2101 H 0.30074 0.319 0.29432 0.0
H2102 H 0.28321 0.31365 0.27177 0.0
H2103 H 0.24474 0.31412 0.28762 0.0
H2104 H 0.20203 0.31813 0.22686 0.0
H2105 H 0.21996 0.32168 0.24764 0.0
C2106 C 0.28287 0.32161 0.39275 0.0
C2107 C 0.29357 0.33269 0.38325 0.0
C2108 C 0.27676 0.32471 0.40635 0.0
C2109 C 0.28141 0.35379 0.43542 0.0
H2110 H 0.24041 0.33039 0.4396 0.0
C2111 C 0.24629 0.36882 0.47635 0.0
C2112 C 0.23485 0.35759 0.48485 0.0
C2113 C 0.25467 0.36595 0.46541 0.0
C2114 C 0.25189 0.33691 0.43877 0.0
H2115 H 0.30645 0.35577 0.3809 0.0
H2116 H 0.29558 0.36118 0.40441 0.0
H2117 H 0.25266 0.32506 0.41772 0.0
H2118 H 0.22388 0.33471 0.48946 0.0
H2119 H 0.23845 0.32972 0.47038 0.0
H2120 H 0.28047 0.36583 0.45634 0.0
C2121 C 0.29207 0.35007 0.40151 0.0
C2122 C 0.25893 0.33384 0.42622 0.0
C2123 C 0.29826 0.34696 0.38796 0.0
C2124 C 0.23242 0.34355 0.48281 0.0
C2125 C 0.24076 0.3407 0.47189 0.0
C2126 C 0.27432 0.35691 0.44796 0.0
C2127 C 0.28111 0.33898 0.41073 0.0
C2128 C 0.27378 0.34221 0.42438 0.0
C2129 C 0.25175 0.35181 0.46276 0.0
C2130 C 0.25949 0.34847 0.44977 0.0
H2131 H 0.27908 0.31048 0.38961 0.0
H2132 H 0.26855 0.3159 0.41338 0.0
H2133 H 0.29287 0.36036 0.43448 0.0
H2134 H 0.24836 0.37974 0.47757 0.0
H2135 H 0.26302 0.37473 0.45847 0.0
C2136 C 0.67653 0.95066 0.38552 0.0
C2137 C 0.66718 0.95453 0.37768 0.0
C2138 C 0.67172 0.94034 0.39814 0.0
C2139 C 0.64287 0.92112 0.42877 0.0
H2140 H 0.6566 0.89383 0.42768 0.0
C2141 C 0.62226 0.8716 0.47294 0.0
C2142 C 0.6328 0.869 0.47991 0.0
C2143 C 0.62577 0.88206 0.46054 0.0
C2144 C 0.65276 0.90144 0.42825 0.0
H2145 H 0.64544 0.95072 0.37734 0.0
H2146 H 0.63702 0.93254 0.39933 0.0
H2147 H 0.66397 0.91209 0.40605 0.0
H2148 H 0.65524 0.87525 0.47919 0.0
H2149 H 0.66135 0.89352 0.45781 0.0
H2150 H 0.63162 0.91033 0.45104 0.0
C2151 C 0.64812 0.93764 0.39575 0.0
C2152 C 0.657 0.91192 0.41586 0.0
C2153 C 0.65295 0.94802 0.3831 0.0
C2154 C 0.6469 0.87711 0.47426 0.0
C2155 C 0.65037 0.88747 0.46185 0.0
C2156 C 0.63858 0.91056 0.44118 0.0
C2157 C 0.65742 0.93354 0.40325 0.0
C2158 C 0.65228 0.92202 0.41609 0.0
C2159 C 0.63984 0.89 0.45475 0.0
C2160 C 0.64365 0.90074 0.44116 0.0
H2161 H 0.68758 0.95549 0.3818 0.0
H2162 H 0.67924 0.93766 0.4039 0.0
H2163 H 0.63911 0.92879 0.42936 0.0
H2164 H 0.61132 0.86558 0.47711 0.0
H2165 H 0.61742 0.88373 0.45523 0.0
C2166 C 0.04416 0.70011 0.39291 0.0
C2167 C 0.04157 0.70732 0.37986 0.0
C2168 C 0.05321 0.70778 0.40622 0.0
C2169 C 0.08119 0.74488 0.41774 0.0
H2170 H 0.07575 0.72871 0.46244 0.0
C2171 C 0.10921 0.77725 0.47753 0.0
C2172 C 0.11868 0.77324 0.48484 0.0
C2173 C 0.09934 0.76864 0.46535 0.0
C2174 C 0.07736 0.73328 0.44998 0.0
H2175 H 0.04496 0.72786 0.37118 0.0
H2176 H 0.06043 0.74133 0.3946 0.0
H2177 H 0.059 0.71495 0.44001 0.0
H2178 H 0.12467 0.75663 0.48528 0.0
H2179 H 0.10685 0.74131 0.46459 0.0
H2180 H 0.09922 0.76346 0.42809 0.0
C2181 C 0.05621 0.72986 0.39423 0.0
C2182 C 0.06786 0.7254 0.43708 0.0
C2183 C 0.04727 0.72217 0.38086 0.0
C2184 C 0.11748 0.76003 0.48018 0.0
C2185 C 0.10736 0.75127 0.46824 0.0
C2186 C 0.09047 0.75284 0.43072 0.0
C2187 C 0.05953 0.7228 0.40695 0.0
C2188 C 0.06963 0.7311 0.42077 0.0
C2189 C 0.09844 0.75567 0.46053 0.0
C2190 C 0.08862 0.7471 0.44691 0.0
H2191 H 0.03932 0.68855 0.3927 0.0
H2192 H 0.05549 0.70192 0.41566 0.0
H2193 H 0.0832 0.74951 0.40531 0.0
H2194 H 0.1095 0.78712 0.48106 0.0
H2195 H 0.09242 0.77214 0.45963 0.0
C2196 C 0.31083 0.03328 0.71825 0.0
C2197 C 0.3244 0.04267 0.71173 0.0
C2198 C 0.3046 0.03813 0.73006 0.0
C2199 C 0.29845 0.05003 0.76218 0.0
H2200 H 0.30285 0.08782 0.75545 0.0
C2201 C 0.2918 0.08323 0.81489 0.0
C2202 C 0.28635 0.09236 0.81065 0.0
C2203 C 0.29401 0.07533 0.80251 0.0
C2204 C 0.30131 0.07716 0.75744 0.0
H2205 H 0.34206 0.0645 0.71274 0.0
H2206 H 0.33127 0.07281 0.73322 0.0
H2207 H 0.31137 0.07766 0.73426 0.0
H2208 H 0.27838 0.09981 0.7901 0.0
H2209 H 0.28189 0.08578 0.76864 0.0
H2210 H 0.28843 0.04962 0.78547 0.0
C2211 C 0.32536 0.06177 0.72909 0.0
C2212 C 0.30637 0.07141 0.74537 0.0
C2213 C 0.3316 0.05694 0.7174 0.0
C2214 C 0.2825 0.09283 0.79386 0.0
C2215 C 0.28468 0.08491 0.78151 0.0
C2216 C 0.2934 0.05582 0.77432 0.0
C2217 C 0.31176 0.05247 0.73548 0.0
C2218 C 0.30523 0.0579 0.74773 0.0
C2219 C 0.29081 0.07636 0.78561 0.0
C2220 C 0.29495 0.06954 0.77219 0.0
H2221 H 0.30499 0.02222 0.71419 0.0
H2222 H 0.29408 0.03073 0.73472 0.0
H2223 H 0.29746 0.03962 0.76437 0.0
H2224 H 0.29469 0.08246 0.82773 0.0
H2225 H 0.29882 0.06892 0.80611 0.0
C2226 C 0.94632 0.27868 0.70635 0.0
C2227 C 0.96115 0.28737 0.70747 0.0
C2228 C 0.93893 0.26867 0.7189 0.0
C2229 C 0.93996 0.26067 0.7631 0.0
H2230 H 0.91573 0.22106 0.75 0.0
C2231 C 0.91262 0.21588 0.8126 0.0
C2232 C 0.89924 0.20424 0.80854 0.0
C2233 C 0.92056 0.22607 0.80041 0.0
C2234 C 0.92222 0.23209 0.75395 0.0
H2235 H 0.97982 0.2935 0.72301 0.0
H2236 H 0.96686 0.27613 0.74523 0.0
H2237 H 0.92823 0.23908 0.72867 0.0
H2238 H 0.88341 0.19421 0.78892 0.0
H2239 H 0.89678 0.21229 0.7679 0.0
H2240 H 0.93343 0.25395 0.78829 0.0
C2241 C 0.961 0.27677 0.73446 0.0
C2242 C 0.92949 0.24239 0.74166 0.0
C2243 C 0.96841 0.28657 0.72174 0.0
C2244 C 0.89382 0.20302 0.79224 0.0
C2245 C 0.90157 0.21336 0.78017 0.0
C2246 C 0.9324 0.25042 0.77539 0.0
C2247 C 0.94622 0.26759 0.73303 0.0
C2248 C 0.93846 0.25675 0.74612 0.0
C2249 C 0.91512 0.225 0.78402 0.0
C2250 C 0.92341 0.23596 0.771 0.0
H2251 H 0.94051 0.2794 0.69558 0.0
H2252 H 0.92751 0.26182 0.71762 0.0
H2253 H 0.94673 0.27172 0.76683 0.0
H2254 H 0.91701 0.21696 0.82513 0.0
H2255 H 0.93103 0.23469 0.80385 0.0
C2256 C 0.71153 0.68042 0.72204 0.0
C2257 C 0.70951 0.67042 0.70952 0.0
C2258 C 0.72121 0.68309 0.73514 0.0
C2259 C 0.73997 0.66749 0.75828 0.0
H2260 H 0.7675 0.70697 0.76858 0.0
C2261 C 0.78888 0.68208 0.8005 0.0
C2262 C 0.79424 0.69441 0.81052 0.0
C2263 C 0.77796 0.67895 0.7889 0.0
C2264 C 0.75976 0.69588 0.76615 0.0
H2265 H 0.715 0.65454 0.70141 0.0
H2266 H 0.73204 0.65921 0.7243 0.0
H2267 H 0.74909 0.70168 0.74764 0.0
H2268 H 0.79225 0.71297 0.81667 0.0
H2269 H 0.77274 0.70726 0.79694 0.0
H2270 H 0.75025 0.66159 0.77721 0.0
C2271 C 0.72632 0.66515 0.7239 0.0
C2272 C 0.74926 0.69286 0.75399 0.0
C2273 C 0.71668 0.66254 0.71077 0.0
C2274 C 0.78836 0.70347 0.80894 0.0
C2275 C 0.77724 0.70021 0.79756 0.0
C2276 C 0.7503 0.67048 0.77069 0.0
C2277 C 0.72878 0.67554 0.73614 0.0
C2278 C 0.7394 0.67866 0.74973 0.0
C2279 C 0.77195 0.68795 0.78727 0.0
C2280 C 0.76047 0.68473 0.77464 0.0
H2281 H 0.70562 0.68617 0.72167 0.0
H2282 H 0.72271 0.69098 0.74455 0.0
H2283 H 0.73234 0.65642 0.75547 0.0
H2284 H 0.79338 0.67502 0.80137 0.0
H2285 H 0.77444 0.6696 0.781 0.0
C2286 C 0.70229 0.64865 0.63276 0.0
C2287 C 0.70913 0.66317 0.63754 0.0
C2288 C 0.7083 0.64388 0.62055 0.0
C2289 C 0.74316 0.65417 0.60158 0.0
H2290 H 0.72135 0.62793 0.56575 0.0
C2291 C 0.77053 0.64675 0.54429 0.0
C2292 C 0.76566 0.63281 0.53823 0.0
C2293 C 0.7629 0.64941 0.55646 0.0
C2294 C 0.72755 0.63513 0.57581 0.0
H2295 H 0.72739 0.68411 0.6326 0.0
H2296 H 0.73763 0.67584 0.61143 0.0
H2297 H 0.7091 0.63438 0.58691 0.0
H2298 H 0.74876 0.61073 0.54003 0.0
H2299 H 0.73543 0.61538 0.56151 0.0
H2300 H 0.76158 0.65507 0.59054 0.0
C2301 C 0.72781 0.66807 0.61733 0.0
C2302 C 0.72054 0.63881 0.58792 0.0
C2303 C 0.72185 0.67282 0.62944 0.0
C2304 C 0.75285 0.62158 0.54453 0.0
C2305 C 0.74515 0.62426 0.55672 0.0
C2306 C 0.75013 0.65051 0.58953 0.0
C2307 C 0.72127 0.65352 0.61294 0.0
C2308 C 0.72833 0.6486 0.60075 0.0
C2309 C 0.75019 0.6382 0.56294 0.0
C2310 C 0.74246 0.64117 0.57633 0.0
H2311 H 0.69249 0.64092 0.63873 0.0
H2312 H 0.70302 0.63259 0.61744 0.0
H2313 H 0.74944 0.66145 0.61154 0.0
H2314 H 0.78043 0.65563 0.53987 0.0
H2315 H 0.76697 0.66031 0.56081 0.0
C2316 C 0.34646 0.04471 0.62957 0.0
C2317 C 0.33541 0.04198 0.64073 0.0
C2318 C 0.34895 0.05365 0.61575 0.0
C2319 C 0.33209 0.06651 0.58641 0.0
H2320 H 0.36867 0.10123 0.5835 0.0
C2321 C 0.34071 0.11304 0.54319 0.0
C2322 C 0.35439 0.12239 0.53697 0.0
C2323 C 0.33851 0.10205 0.55425 0.0
C2324 C 0.3585 0.09145 0.5838 0.0
H2325 H 0.3175 0.04526 0.64556 0.0
H2326 H 0.32166 0.06074 0.62112 0.0
H2327 H 0.36454 0.08404 0.60567 0.0
H2328 H 0.37637 0.12695 0.53696 0.0
H2329 H 0.37237 0.10726 0.55538 0.0
H2330 H 0.32605 0.07356 0.56432 0.0
C2331 C 0.32864 0.05631 0.62335 0.0
C2332 C 0.35614 0.08167 0.59663 0.0
C2333 C 0.32631 0.04756 0.63732 0.0
C2334 C 0.36567 0.11996 0.54141 0.0
C2335 C 0.36341 0.10877 0.55224 0.0
C2336 C 0.33453 0.07612 0.57333 0.0
C2337 C 0.34007 0.05955 0.61258 0.0
C2338 C 0.34285 0.06927 0.59823 0.0
C2339 C 0.34986 0.09987 0.55913 0.0
C2340 C 0.34769 0.08889 0.57203 0.0
H2341 H 0.35316 0.03992 0.63155 0.0
H2342 H 0.35772 0.05588 0.60747 0.0
H2343 H 0.32179 0.05691 0.58732 0.0
H2344 H 0.33166 0.11431 0.53975 0.0
H2345 H 0.32795 0.09559 0.55936 0.0
C2346 C 0.95835 0.27829 0.62432 0.0
C2347 C 0.95999 0.29003 0.63385 0.0
C2348 C 0.9495 0.27378 0.61016 0.0
C2349 C 0.91818 0.27375 0.59222 0.0
H2350 H 0.92881 0.26144 0.55176 0.0
C2351 C 0.87858 0.24858 0.53703 0.0
C2352 C 0.8777 0.23603 0.53046 0.0
C2353 C 0.88988 0.25751 0.54767 0.0
C2354 C 0.92565 0.26478 0.56299 0.0
H2355 H 0.9537 0.30635 0.63574 0.0
H2356 H 0.93818 0.29837 0.61106 0.0
H2357 H 0.94619 0.27247 0.57444 0.0
H2358 H 0.88845 0.22349 0.52899 0.0
H2359 H 0.90787 0.23876 0.54777 0.0
H2360 H 0.89749 0.26559 0.58113 0.0
C2361 C 0.94375 0.29267 0.61462 0.0
C2362 C 0.93561 0.27111 0.57596 0.0
C2363 C 0.9527 0.29726 0.62872 0.0
C2364 C 0.8887 0.23297 0.53408 0.0
C2365 C 0.89995 0.24184 0.54469 0.0
C2366 C 0.90818 0.26734 0.5793 0.0
C2367 C 0.94199 0.28084 0.60525 0.0
C2368 C 0.9319 0.27541 0.59084 0.0
C2369 C 0.90055 0.25407 0.5519 0.0
C2370 C 0.9117 0.26251 0.56466 0.0
H2371 H 0.9638 0.27247 0.62787 0.0
H2372 H 0.94822 0.26452 0.6033 0.0
H2373 H 0.91497 0.27684 0.60361 0.0
H2374 H 0.87025 0.25121 0.53449 0.0
H2375 H 0.89013 0.26695 0.55283 0.0
C2376 C 0.34917 0.30783 0.62695 0.0
C2377 C 0.33884 0.30017 0.63909 0.0
C2378 C 0.3519 0.30058 0.61424 0.0
C2379 C 0.34635 0.26423 0.60461 0.0
H2380 H 0.35876 0.27999 0.56012 0.0
C2381 C 0.34577 0.2317 0.54702 0.0
C2382 C 0.35948 0.23521 0.54145 0.0
C2383 C 0.34391 0.24059 0.55822 0.0
C2384 C 0.3554 0.27558 0.57256 0.0
H2385 H 0.32205 0.27925 0.6465 0.0
H2386 H 0.32648 0.2665 0.62415 0.0
H2387 H 0.35337 0.29344 0.58081 0.0
H2388 H 0.38192 0.25124 0.5429 0.0
H2389 H 0.37846 0.26708 0.56205 0.0
H2390 H 0.34778 0.24608 0.59597 0.0
C2391 C 0.33308 0.27802 0.62485 0.0
C2392 C 0.35236 0.28326 0.58444 0.0
C2393 C 0.33044 0.28529 0.63758 0.0
C2394 C 0.3712 0.24823 0.54678 0.0
C2395 C 0.36928 0.25727 0.55779 0.0
C2396 C 0.34913 0.25647 0.59265 0.0
C2397 C 0.34412 0.28553 0.61327 0.0
C2398 C 0.34767 0.27761 0.6006 0.0
C2399 C 0.35565 0.25334 0.5638 0.0
C2400 C 0.35359 0.26206 0.57655 0.0
H2401 H 0.35533 0.31941 0.62752 0.0
H2402 H 0.36045 0.30677 0.60559 0.0
H2403 H 0.34319 0.25969 0.61703 0.0
H2404 H 0.33643 0.22201 0.54284 0.0
H2405 H 0.33329 0.23747 0.56264 0.0
C2406 C 0.70214 0.04846 0.6319 0.0
C2407 C 0.70861 0.04047 0.6372 0.0
C2408 C 0.7083 0.05875 0.61923 0.0
C2409 C 0.74323 0.08196 0.60024 0.0
H2410 H 0.72164 0.08856 0.56563 0.0
C2411 C 0.76985 0.13158 0.55838 0.0
C2412 C 0.76714 0.12943 0.54107 0.0
C2413 C 0.76158 0.12082 0.56977 0.0
C2414 C 0.7278 0.0868 0.57519 0.0
H2415 H 0.72632 0.03665 0.63271 0.0
H2416 H 0.73688 0.05441 0.61066 0.0
H2417 H 0.70927 0.06889 0.58557 0.0
H2418 H 0.75325 0.11451 0.52214 0.0
H2419 H 0.73876 0.09559 0.54211 0.0
H2420 H 0.76176 0.09964 0.58985 0.0
C2421 C 0.7272 0.05291 0.61649 0.0
C2422 C 0.72071 0.07562 0.58667 0.0
C2423 C 0.72107 0.04266 0.6291 0.0
C2424 C 0.75554 0.11649 0.53543 0.0
C2425 C 0.74725 0.10567 0.54686 0.0
C2426 C 0.75028 0.09312 0.58884 0.0
C2427 C 0.72105 0.06128 0.61163 0.0
C2428 C 0.72838 0.07306 0.59929 0.0
C2429 C 0.7504 0.10761 0.56413 0.0
C2430 C 0.74267 0.0957 0.5762 0.0
H2431 H 0.69254 0.04707 0.63782 0.0
H2432 H 0.70334 0.06508 0.61583 0.0
H2433 H 0.74944 0.08042 0.60993 0.0
H2434 H 0.77851 0.14155 0.56314 0.0
H2435 H 0.76407 0.12278 0.58301 0.0
C2436 C 0.95426 0.65158 0.62628 0.0
C2437 C 0.95549 0.66116 0.63896 0.0
C2438 C 0.94486 0.64878 0.61282 0.0
C2439 C 0.92578 0.66382 0.58928 0.0
H2440 H 0.89978 0.62435 0.57708 0.0
C2441 C 0.87764 0.64893 0.54577 0.0
C2442 C 0.87268 0.63682 0.53545 0.0
C2443 C 0.88844 0.65208 0.55754 0.0
C2444 C 0.90711 0.63546 0.58003 0.0
H2445 H 0.94879 0.67613 0.64711 0.0
H2446 H 0.93224 0.67123 0.62361 0.0
H2447 H 0.91777 0.62969 0.59859 0.0
H2448 H 0.87521 0.61865 0.52894 0.0
H2449 H 0.89461 0.62446 0.54892 0.0
H2450 H 0.91563 0.66973 0.57023 0.0
C2451 C 0.93838 0.66572 0.62413 0.0
C2452 C 0.91735 0.63849 0.59254 0.0
C2453 C 0.94775 0.66846 0.63761 0.0
C2454 C 0.87884 0.628 0.53688 0.0
C2455 C 0.88987 0.63131 0.54842 0.0
C2456 C 0.91576 0.66083 0.57649 0.0
C2457 C 0.93678 0.65579 0.61164 0.0
C2458 C 0.92659 0.65267 0.59755 0.0
C2459 C 0.89476 0.64334 0.55903 0.0
C2460 C 0.90609 0.64659 0.57189 0.0
H2461 H 0.96061 0.64629 0.62676 0.0
H2462 H 0.94402 0.64125 0.60326 0.0
H2463 H 0.93298 0.67489 0.59262 0.0
H2464 H 0.87291 0.65579 0.545 0.0
H2465 H 0.8916 0.66122 0.56569 0.0
C2466 C 0.94276 0.6576 0.72039 0.0
C2467 C 0.95552 0.66721 0.71238 0.0
C2468 C 0.93751 0.66219 0.73357 0.0
C2469 C 0.93908 0.69463 0.751 0.0
H2470 H 0.92122 0.67031 0.7895 0.0
C2471 C 0.90205 0.70307 0.7956 0.0
C2472 C 0.90284 0.70078 0.81285 0.0
C2473 C 0.90984 0.69993 0.78411 0.0
C2474 C 0.92631 0.6773 0.77893 0.0
H2475 H 0.9729 0.68918 0.71222 0.0
H2476 H 0.96376 0.69713 0.73525 0.0
H2477 H 0.93246 0.66285 0.76833 0.0
H2478 H 0.91281 0.69382 0.83159 0.0
H2479 H 0.92638 0.68826 0.81148 0.0
H2480 H 0.93293 0.70907 0.7616 0.0
C2481 C 0.95774 0.68607 0.73119 0.0
C2482 C 0.93261 0.67295 0.76671 0.0
C2483 C 0.96301 0.68148 0.71803 0.0
C2484 C 0.91181 0.69551 0.81837 0.0
C2485 C 0.91958 0.69233 0.80686 0.0
C2486 C 0.93275 0.69895 0.7632 0.0
C2487 C 0.94489 0.6765 0.73903 0.0
C2488 C 0.93893 0.68149 0.75251 0.0
C2489 C 0.91858 0.69439 0.78958 0.0
C2490 C 0.92615 0.69027 0.77721 0.0
H2491 H 0.93667 0.64654 0.71637 0.0
H2492 H 0.92748 0.65459 0.7392 0.0
H2493 H 0.94375 0.7014 0.74015 0.0
H2494 H 0.89506 0.70687 0.79088 0.0
H2495 H 0.90865 0.70142 0.77088 0.0
C2496 C 0.33862 0.29179 0.72431 0.0
C2497 C 0.32985 0.2919 0.71123 0.0
C2498 C 0.33298 0.28144 0.73691 0.0
C2499 C 0.30753 0.24502 0.74416 0.0
H2500 H 0.30981 0.2547 0.7913 0.0
C2501 C 0.28786 0.20095 0.79466 0.0
C2502 C 0.29574 0.20413 0.80972 0.0
C2503 C 0.29026 0.21178 0.78319 0.0
C2504 C 0.30925 0.25178 0.77823 0.0
H2505 H 0.30836 0.28128 0.70103 0.0
H2506 H 0.29863 0.26278 0.72283 0.0
H2507 H 0.31779 0.27359 0.77023 0.0
H2508 H 0.3119 0.22148 0.82474 0.0
H2509 H 0.31677 0.24004 0.80438 0.0
H2510 H 0.29991 0.22342 0.7519 0.0
C2511 C 0.30977 0.27091 0.72342 0.0
C2512 C 0.31371 0.26261 0.76619 0.0
C2513 C 0.31533 0.28149 0.71103 0.0
C2514 C 0.30583 0.21849 0.81314 0.0
C2515 C 0.30844 0.22926 0.80152 0.0
C2516 C 0.30338 0.23422 0.75618 0.0
C2517 C 0.31857 0.27082 0.73642 0.0
C2518 C 0.31297 0.25931 0.74909 0.0
C2519 C 0.3008 0.22606 0.78628 0.0
C2520 C 0.3043 0.23745 0.77343 0.0
H2521 H 0.34984 0.29971 0.72479 0.0
H2522 H 0.33996 0.28148 0.74679 0.0
H2523 H 0.307 0.24228 0.731 0.0
H2524 H 0.28008 0.19003 0.79145 0.0
H2525 H 0.28392 0.20887 0.7718 0.0
C2526 C 0.71216 0.02941 0.72266 0.0
C2527 C 0.71015 0.03688 0.70941 0.0
C2528 C 0.72219 0.03685 0.73529 0.0
C2529 C 0.73987 0.071 0.75709 0.0
H2530 H 0.76969 0.06193 0.76765 0.0
C2531 C 0.78698 0.10745 0.80013 0.0
C2532 C 0.79321 0.10129 0.81027 0.0
C2533 C 0.77659 0.0992 0.78824 0.0
C2534 C 0.7613 0.06446 0.76514 0.0
H2535 H 0.7161 0.05785 0.69947 0.0
H2536 H 0.73352 0.07093 0.72171 0.0
H2537 H 0.75176 0.04801 0.74648 0.0
H2538 H 0.79338 0.08169 0.81623 0.0
H2539 H 0.77473 0.06702 0.796 0.0
H2540 H 0.74892 0.08708 0.77609 0.0
C2541 C 0.72764 0.05934 0.7221 0.0
C2542 C 0.75109 0.05652 0.7529 0.0
C2543 C 0.71776 0.05189 0.70938 0.0
C2544 C 0.78877 0.08668 0.80845 0.0
C2545 C 0.77815 0.07833 0.79677 0.0
C2546 C 0.74988 0.07876 0.76958 0.0
C2547 C 0.72999 0.05188 0.73512 0.0
C2548 C 0.74041 0.05985 0.74861 0.0
C2549 C 0.77196 0.08449 0.78641 0.0
C2550 C 0.76087 0.07574 0.77364 0.0
H2551 H 0.7059 0.01785 0.7233 0.0
H2552 H 0.72367 0.03087 0.74533 0.0
H2553 H 0.7316 0.07364 0.75417 0.0
H2554 H 0.7904 0.11876 0.80116 0.0
H2555 H 0.7724 0.10447 0.78028 0.0
C2556 C 0.02745 0.32521 0.03104 0.0
C2557 C 0.03518 0.33951 0.02556 0.0
C2558 C 0.03435 0.31877 0.03924 0.0
C2559 C 0.06998 0.32248 0.04694 0.0
H2560 H 0.05233 0.30035 0.08694 0.0
C2561 C 0.08829 0.30446 0.11062 0.0
C2562 C 0.09755 0.30005 0.10398 0.0
C2563 C 0.07941 0.30705 0.10008 0.0
C2564 C 0.0574 0.30649 0.0758 0.0
H2565 H 0.05633 0.35812 0.02419 0.0
H2566 H 0.06827 0.34696 0.03868 0.0
H2567 H 0.03968 0.30961 0.07014 0.0
H2568 H 0.1044 0.29442 0.08111 0.0
H2569 H 0.08869 0.29872 0.06267 0.0
H2570 H 0.08795 0.31989 0.053 0.0
C2571 C 0.0569 0.34066 0.03644 0.0
C2572 C 0.05009 0.31168 0.06606 0.0
C2573 C 0.05002 0.3471 0.02823 0.0
C2574 C 0.09733 0.29773 0.08661 0.0
C2575 C 0.08844 0.30035 0.07604 0.0
C2576 C 0.07729 0.3173 0.05668 0.0
C2577 C 0.04913 0.32646 0.04215 0.0
C2578 C 0.0564 0.31994 0.05168 0.0
C2579 C 0.07957 0.30528 0.08263 0.0
C2580 C 0.07119 0.30946 0.07138 0.0
H2581 H 0.01603 0.31899 0.02911 0.0
H2582 H 0.02809 0.30776 0.0433 0.0
H2583 H 0.07506 0.32864 0.03581 0.0
H2584 H 0.08809 0.30616 0.12397 0.0
H2585 H 0.07282 0.31096 0.10557 0.0
C2586 C 0.67659 0.69081 0.04785 0.0
C2587 C 0.6701 0.68892 0.032 0.0
C2588 C 0.68194 0.70385 0.0563 0.0
C2589 C 0.69415 0.74217 0.05132 0.0
H2590 H 0.68108 0.73945 0.09704 0.0
C2591 C 0.70023 0.79119 0.08865 0.0
C2592 C 0.70194 0.79124 0.10612 0.0
C2593 C 0.69792 0.77928 0.07916 0.0
C2594 C 0.6851 0.74047 0.08442 0.0
H2595 H 0.66464 0.69938 0.01228 0.0
H2596 H 0.67417 0.72229 0.02706 0.0
H2597 H 0.67443 0.71773 0.08119 0.0
H2598 H 0.70345 0.77938 0.1273 0.0
H2599 H 0.70001 0.75884 0.11075 0.0
H2600 H 0.70496 0.76493 0.0546 0.0
C2601 C 0.67506 0.71363 0.03291 0.0
C2602 C 0.68121 0.72798 0.07531 0.0
C2603 C 0.66955 0.70051 0.0245 0.0
C2604 C 0.70198 0.7795 0.11385 0.0
C2605 C 0.6999 0.7677 0.10436 0.0
C2606 C 0.69821 0.75471 0.06052 0.0
C2607 C 0.68106 0.71532 0.04902 0.0
C2608 C 0.68564 0.72869 0.05866 0.0
C2609 C 0.69746 0.76726 0.08695 0.0
C2610 C 0.69368 0.75401 0.07719 0.0
H2611 H 0.67721 0.6821 0.05394 0.0
H2612 H 0.68665 0.70492 0.06864 0.0
H2613 H 0.69778 0.743 0.03852 0.0
H2614 H 0.70006 0.8001 0.08244 0.0
H2615 H 0.69594 0.77928 0.06583 0.0
C2616 C 0.30323 0.97879 0.04712 0.0
C2617 C 0.30603 0.97587 0.03085 0.0
C2618 C 0.29001 0.9702 0.05449 0.0
C2619 C 0.25805 0.93426 0.05195 0.0
H2620 H 0.24315 0.95145 0.08283 0.0
C2621 C 0.20438 0.90212 0.08744 0.0
C2622 C 0.20558 0.90443 0.10486 0.0
C2623 C 0.21567 0.91091 0.07689 0.0
C2624 C 0.24719 0.94651 0.07423 0.0
H2625 H 0.29707 0.96172 0.00945 0.0
H2626 H 0.27373 0.94679 0.02222 0.0
H2627 H 0.26436 0.96674 0.06661 0.0
H2628 H 0.21929 0.91788 0.12489 0.0
H2629 H 0.23891 0.9334 0.10645 0.0
H2630 H 0.2407 0.91401 0.05965 0.0
C2631 C 0.28189 0.95562 0.02939 0.0
C2632 C 0.25938 0.95525 0.06499 0.0
C2633 C 0.29523 0.96421 0.02202 0.0
C2634 C 0.21814 0.91584 0.11151 0.0
C2635 C 0.2293 0.92476 0.10096 0.0
C2636 C 0.24572 0.92552 0.06108 0.0
C2637 C 0.27914 0.9585 0.04575 0.0
C2638 C 0.26521 0.94923 0.05405 0.0
C2639 C 0.22823 0.92233 0.08356 0.0
C2640 C 0.24037 0.93156 0.07259 0.0
H2641 H 0.31135 0.98762 0.05434 0.0
H2642 H 0.28846 0.97258 0.06724 0.0
H2643 H 0.26228 0.92923 0.04378 0.0
H2644 H 0.19484 0.89333 0.08203 0.0
H2645 H 0.21457 0.90885 0.06351 0.0
C2646 C 0.34098 0.0465 0.99231 0.0
C2647 C 0.33638 0.03189 0.9898 0.0
C2648 C 0.33442 0.0531 0.98377 0.0
C2649 C 0.31602 0.05144 0.945 0.0
H2650 H 0.30481 0.07615 0.96788 0.0
C2651 C 0.29382 0.08288 0.90839 0.0
C2652 C 0.29849 0.09701 0.9137 0.0
C2653 C 0.29642 0.07358 0.91823 0.0
C2654 C 0.30802 0.06942 0.96125 0.0
H2655 H 0.32121 0.01274 0.97643 0.0
H2656 H 0.30996 0.02445 0.96116 0.0
H2657 H 0.31335 0.06256 0.98413 0.0
H2658 H 0.30906 0.11218 0.93395 0.0
H2659 H 0.3142 0.09632 0.9506 0.0
H2660 H 0.31141 0.05876 0.92207 0.0
C2661 C 0.31858 0.03069 0.96988 0.0
C2662 C 0.31283 0.06157 0.97059 0.0
C2663 C 0.32497 0.024 0.97867 0.0
C2664 C 0.30554 0.10148 0.92927 0.0
C2665 C 0.30828 0.09225 0.939 0.0
C2666 C 0.31142 0.05945 0.93562 0.0
C2667 C 0.32328 0.04531 0.97233 0.0
C2668 C 0.31704 0.05266 0.96254 0.0
C2669 C 0.30386 0.07821 0.93358 0.0
C2670 C 0.30756 0.06872 0.9436 0.0
H2671 H 0.3497 0.05286 0.00086 0.0
H2672 H 0.33833 0.06442 0.98578 0.0
H2673 H 0.31933 0.04472 0.93849 0.0
H2674 H 0.28844 0.07908 0.89642 0.0
H2675 H 0.29266 0.06278 0.91375 0.0
C2676 C 0.98141 0.30323 0.97125 0.0
C2677 C 0.97824 0.3068 0.98698 0.0
C2678 C 0.97267 0.28977 0.96422 0.0
C2679 C 0.93595 0.25974 0.96561 0.0
H2680 H 0.95157 0.24097 0.9383 0.0
C2681 C 0.89997 0.20609 0.93219 0.0
C2682 C 0.90296 0.20558 0.91514 0.0
C2683 C 0.90961 0.21725 0.94245 0.0
C2684 C 0.94706 0.24611 0.94585 0.0
H2685 H 0.96364 0.29891 0.0079 0.0
H2686 H 0.94839 0.27523 0.99566 0.0
H2687 H 0.96761 0.26252 0.95404 0.0
H2688 H 0.91862 0.21623 0.89564 0.0
H2689 H 0.93552 0.23565 0.91362 0.0
H2690 H 0.91541 0.24342 0.95725 0.0
C2691 C 0.95755 0.28296 0.98867 0.0
C2692 C 0.95624 0.25846 0.95485 0.0
C2693 C 0.96631 0.29649 0.99572 0.0
C2694 C 0.91605 0.21622 0.90875 0.0
C2695 C 0.92573 0.22735 0.91905 0.0
C2696 C 0.92678 0.24735 0.95667 0.0
C2697 C 0.96056 0.2795 0.97275 0.0
C2698 C 0.9508 0.26557 0.96459 0.0
C2699 C 0.92251 0.2281 0.93594 0.0
C2700 C 0.93224 0.24055 0.94648 0.0
H2701 H 0.99051 0.31094 0.96417 0.0
H2702 H 0.97519 0.28758 0.95183 0.0
H2703 H 0.9314 0.26504 0.97279 0.0
H2704 H 0.89011 0.1979 0.93759 0.0
H2705 H 0.90694 0.21742 0.95549 0.0
C2706 C 0.69446 0.66926 0.97941 0.0
C2707 C 0.68663 0.65448 0.98276 0.0
C2708 C 0.70732 0.67501 0.97065 0.0
C2709 C 0.73578 0.66682 0.95966 0.0
H2710 H 0.74488 0.69499 0.92448 0.0
C2711 C 0.77965 0.67884 0.91219 0.0
C2712 C 0.78935 0.69327 0.90871 0.0
C2713 C 0.76736 0.67512 0.92133 0.0
C2714 C 0.74254 0.68725 0.93441 0.0
H2715 H 0.68612 0.63415 0.9792 0.0
H2716 H 0.70828 0.64412 0.96385 0.0
H2717 H 0.72291 0.68665 0.9405 0.0
H2718 H 0.79353 0.71509 0.91175 0.0
H2719 H 0.77183 0.70851 0.92767 0.0
H2720 H 0.75521 0.66721 0.95344 0.0
C2721 C 0.70466 0.65132 0.96825 0.0
C2722 C 0.72999 0.68249 0.94359 0.0
C2723 C 0.69188 0.64559 0.97698 0.0
C2724 C 0.78622 0.70388 0.91414 0.0
C2725 C 0.77383 0.70012 0.92327 0.0
C2726 C 0.74823 0.67152 0.95048 0.0
C2727 C 0.7126 0.6661 0.9651 0.0
C2728 C 0.72636 0.67203 0.95612 0.0
C2729 C 0.7644 0.68571 0.92717 0.0
C2730 C 0.75163 0.68159 0.93757 0.0
H2731 H 0.69076 0.67643 0.98368 0.0
H2732 H 0.71325 0.68645 0.9685 0.0
H2733 H 0.73347 0.65902 0.96951 0.0
H2734 H 0.78156 0.67038 0.90782 0.0
H2735 H 0.76012 0.6639 0.92383 0.0
C2736 C 0.98567 0.68601 0.97589 0.0
C2737 C 0.98064 0.67486 0.9877 0.0
C2738 C 0.97644 0.69022 0.96876 0.0
C2739 C 0.94088 0.67553 0.95439 0.0
H2740 H 0.94533 0.71364 0.95591 0.0
C2741 C 0.89943 0.68705 0.92324 0.0
C2742 C 0.9039 0.70057 0.91602 0.0
C2743 C 0.90874 0.68451 0.933 0.0
C2744 C 0.94404 0.703 0.9551 0.0
H2745 H 0.96214 0.65958 0.0016 0.0
H2746 H 0.94584 0.66663 0.9886 0.0
H2747 H 0.96196 0.70852 0.97146 0.0
H2748 H 0.9219 0.72207 0.9136 0.0
H2749 H 0.93841 0.71734 0.92958 0.0
H2750 H 0.92361 0.67002 0.93738 0.0
C2751 C 0.95699 0.67223 0.98515 0.0
C2752 C 0.95349 0.70008 0.96414 0.0
C2753 C 0.9663 0.66824 0.99259 0.0
C2754 C 0.91806 0.71145 0.91872 0.0
C2755 C 0.9275 0.7088 0.92819 0.0
C2756 C 0.93166 0.6785 0.94505 0.0
C2757 C 0.96197 0.68312 0.97305 0.0
C2758 C 0.9519 0.68629 0.96392 0.0
C2759 C 0.92297 0.69528 0.93547 0.0
C2760 C 0.93301 0.69225 0.94534 0.0
H2761 H 0.9967 0.6913 0.97196 0.0
H2762 H 0.98045 0.6986 0.95937 0.0
H2763 H 0.93963 0.66487 0.95385 0.0
H2764 H 0.88873 0.67826 0.92124 0.0
H2765 H 0.90469 0.67404 0.93863 0.0
C2766 C 0.35511 0.31281 0.97468 0.0
C2767 C 0.34571 0.31714 0.98109 0.0
C2768 C 0.34996 0.3001 0.9656 0.0
C2769 C 0.3186 0.27289 0.94192 0.0
H2770 H 0.33699 0.25005 0.94929 0.0
C2771 C 0.29786 0.21596 0.91385 0.0
C2772 C 0.30826 0.21317 0.90704 0.0
C2773 C 0.30186 0.22862 0.92277 0.0
C2774 C 0.33182 0.25636 0.947 0.0
H2775 H 0.32346 0.31149 0.98278 0.0
H2776 H 0.31445 0.28911 0.96711 0.0
H2777 H 0.34482 0.272 0.96524 0.0
H2778 H 0.331 0.2218 0.90377 0.0
H2779 H 0.33794 0.2437 0.91952 0.0
H2780 H 0.30548 0.25705 0.92375 0.0
C2781 C 0.32584 0.2957 0.96894 0.0
C2782 C 0.33632 0.26898 0.95611 0.0
C2783 C 0.33101 0.30851 0.97798 0.0
C2784 C 0.32272 0.22343 0.90916 0.0
C2785 C 0.3267 0.23601 0.91815 0.0
C2786 C 0.31402 0.26019 0.93286 0.0
C2787 C 0.33526 0.29129 0.96276 0.0
C2788 C 0.32991 0.27751 0.95354 0.0
C2789 C 0.31633 0.2387 0.92516 0.0
C2790 C 0.32071 0.25189 0.93517 0.0
H2791 H 0.36651 0.31923 0.97666 0.0
H2792 H 0.35756 0.29722 0.96071 0.0
H2793 H 0.31351 0.27927 0.93952 0.0
H2794 H 0.28663 0.20822 0.91264 0.0
H2795 H 0.29364 0.23035 0.92816 0.0
C2796 C 0.70355 0.03524 0.99501 0.0
C2797 C 0.69299 0.02258 0.98745 0.0
C2798 C 0.71635 0.04398 0.98669 0.0
C2799 C 0.73024 0.05276 0.94397 0.0
H2800 H 0.76751 0.07127 0.9653 0.0
C2801 C 0.78107 0.08575 0.90566 0.0
C2802 C 0.79167 0.09868 0.91267 0.0
C2803 C 0.76962 0.076 0.91532 0.0
C2804 C 0.75715 0.0663 0.95921 0.0
H2805 H 0.68784 0.0088 0.96562 0.0
H2806 H 0.71011 0.02398 0.95122 0.0
H2807 H 0.74653 0.05506 0.98157 0.0
H2808 H 0.79873 0.11125 0.93557 0.0
H2809 H 0.77851 0.09448 0.95224 0.0
H2810 H 0.74066 0.06412 0.92176 0.0
C2811 C 0.70844 0.02727 0.96344 0.0
C2812 C 0.74516 0.057 0.96852 0.0
C2813 C 0.69571 0.01854 0.97175 0.0
C2814 C 0.79065 0.1015 0.92968 0.0
C2815 C 0.77914 0.09178 0.93932 0.0
C2816 C 0.74217 0.06209 0.93472 0.0
C2817 C 0.71876 0.04023 0.97064 0.0
C2818 C 0.73159 0.05009 0.96096 0.0
C2819 C 0.76842 0.07897 0.93221 0.0
C2820 C 0.75579 0.06894 0.94218 0.0
H2821 H 0.70175 0.03862 0.00711 0.0
H2822 H 0.72411 0.05394 0.99252 0.0
H2823 H 0.71988 0.04782 0.93789 0.0
H2824 H 0.78144 0.08327 0.89258 0.0
H2825 H 0.76167 0.06614 0.9095 0.0
C2826 C 0.67166 0.97229 0.03462 0.0
C2827 C 0.65773 0.96562 0.02795 0.0
C2828 C 0.67665 0.96429 0.04341 0.0
C2829 C 0.66316 0.93112 0.06774 0.0
H2830 H 0.70044 0.93487 0.06101 0.0
C2831 C 0.6772 0.89051 0.09581 0.0
C2832 C 0.69073 0.89569 0.10316 0.0
C2833 C 0.67405 0.89951 0.08626 0.0
C2834 C 0.69006 0.93383 0.06316 0.0
H2835 H 0.63835 0.94515 0.02477 0.0
H2836 H 0.64705 0.93136 0.03999 0.0
H2837 H 0.69346 0.94998 0.04498 0.0
H2838 H 0.71171 0.91429 0.10598 0.0
H2839 H 0.70616 0.93016 0.08935 0.0
H2840 H 0.6597 0.9151 0.08592 0.0
C2841 C 0.65404 0.94279 0.03866 0.0
C2842 C 0.68608 0.94246 0.05398 0.0
C2843 C 0.64908 0.95072 0.02986 0.0
C2844 C 0.70121 0.91 0.10037 0.0
C2845 C 0.69803 0.91906 0.09085 0.0
C2846 C 0.66714 0.92256 0.07692 0.0
C2847 C 0.66777 0.9495 0.04576 0.0
C2848 C 0.67249 0.94102 0.05601 0.0
C2849 C 0.68434 0.91396 0.08389 0.0
C2850 C 0.68054 0.92364 0.07457 0.0
H2851 H 0.67863 0.98373 0.03334 0.0
H2852 H 0.68728 0.96975 0.04879 0.0
H2853 H 0.65274 0.92999 0.06985 0.0
H2854 H 0.669 0.87945 0.09745 0.0
H2855 H 0.66351 0.89514 0.08073 0.0
C2856 C 0.05313 0.70311 0.03023 0.0
C2857 C 0.03857 0.69728 0.0263 0.0
C2858 C 0.06019 0.71549 0.03994 0.0
C2859 C 0.05924 0.7474 0.05441 0.0
H2860 H 0.08269 0.74617 0.09081 0.0
C2861 C 0.08692 0.79291 0.1038 0.0
C2862 C 0.10072 0.79622 0.10888 0.0
C2863 C 0.07875 0.78102 0.09354 0.0
C2864 C 0.07633 0.74677 0.08059 0.0
H2865 H 0.02018 0.70029 0.02904 0.0
H2866 H 0.03265 0.72203 0.04601 0.0
H2867 H 0.06965 0.7253 0.0729 0.0
H2868 H 0.11705 0.79013 0.10659 0.0
H2869 H 0.10298 0.76959 0.08859 0.0
H2870 H 0.06613 0.76901 0.06198 0.0
C2871 C 0.03851 0.71692 0.04154 0.0
C2872 C 0.06884 0.7348 0.07036 0.0
C2873 C 0.03138 0.70444 0.03189 0.0
C2874 C 0.10633 0.78765 0.10318 0.0
C2875 C 0.09824 0.77586 0.09288 0.0
C2876 C 0.06684 0.75947 0.06461 0.0
C2877 C 0.05292 0.72241 0.04589 0.0
C2878 C 0.06035 0.73503 0.05705 0.0
C2879 C 0.08429 0.77228 0.08811 0.0
C2880 C 0.07561 0.75934 0.07769 0.0
H2881 H 0.05906 0.69797 0.02608 0.0
H2882 H 0.07137 0.71962 0.04289 0.0
H2883 H 0.0528 0.74787 0.04419 0.0
H2884 H 0.08233 0.79932 0.10808 0.0
H2885 H 0.06801 0.77849 0.09019 0.0
C2886 C 0.30432 0.32356 0.03981 0.0
C2887 C 0.30881 0.33402 0.02717 0.0
C2888 C 0.29121 0.31883 0.04772 0.0
C2889 C 0.26707 0.33174 0.05927 0.0
H2890 H 0.23938 0.29195 0.06749 0.0
C2891 C 0.21423 0.31675 0.09178 0.0
C2892 C 0.20868 0.30519 0.10299 0.0
C2893 C 0.22563 0.31934 0.08142 0.0
C2894 C 0.24708 0.30313 0.06552 0.0
H2895 H 0.30291 0.34741 0.01256 0.0
H2896 H 0.28015 0.33932 0.02659 0.0
H2897 H 0.26079 0.29793 0.05135 0.0
H2898 H 0.2105 0.28715 0.11211 0.0
H2899 H 0.23084 0.29194 0.09451 0.0
H2900 H 0.25391 0.33712 0.07391 0.0
C2901 C 0.28676 0.33477 0.03032 0.0
C2902 C 0.25929 0.30652 0.05618 0.0
C2903 C 0.29975 0.33933 0.02225 0.0
C2904 C 0.21457 0.2961 0.10348 0.0
C2905 C 0.22618 0.29882 0.09332 0.0
C2906 C 0.25502 0.32839 0.0688 0.0
C2907 C 0.28246 0.32464 0.04331 0.0
C2908 C 0.26936 0.32086 0.05291 0.0
C2909 C 0.23197 0.31059 0.08226 0.0
C2910 C 0.2448 0.31403 0.07201 0.0
H2911 H 0.31106 0.31925 0.04385 0.0
H2912 H 0.28817 0.31106 0.05775 0.0
H2913 H 0.2748 0.3429 0.05719 0.0
H2914 H 0.20971 0.3238 0.09101 0.0
H2915 H 0.22947 0.32825 0.07278 0.0
C2916 C 0.68794 0.66032 0.37284 0.0
C2917 C 0.69487 0.67522 0.37021 0.0
C2918 C 0.69511 0.65398 0.38075 0.0
C2919 C 0.73166 0.661 0.38955 0.0
H2920 H 0.71454 0.63249 0.42457 0.0
C2921 C 0.76556 0.64962 0.43545 0.0
C2922 C 0.76175 0.63527 0.43855 0.0
C2923 C 0.7564 0.65299 0.42665 0.0
C2924 C 0.71937 0.6403 0.41465 0.0
H2925 H 0.71464 0.69514 0.37435 0.0
H2926 H 0.72691 0.68416 0.38817 0.0
H2927 H 0.70018 0.64116 0.40988 0.0
H2928 H 0.74506 0.61322 0.43528 0.0
H2929 H 0.72885 0.61921 0.42002 0.0
H2930 H 0.7509 0.66047 0.39453 0.0
C2931 C 0.71607 0.67732 0.38384 0.0
C2932 C 0.71117 0.64525 0.40624 0.0
C2933 C 0.70897 0.68362 0.37598 0.0
C2934 C 0.74829 0.62437 0.43314 0.0
C2935 C 0.73903 0.62778 0.42439 0.0
C2936 C 0.73982 0.65613 0.39796 0.0
C2937 C 0.70933 0.66242 0.3861 0.0
C2938 C 0.71736 0.65592 0.39389 0.0
C2939 C 0.74313 0.64213 0.42084 0.0
C2940 C 0.73387 0.646 0.41086 0.0
H2941 H 0.67708 0.65353 0.36856 0.0
H2942 H 0.68964 0.64246 0.38231 0.0
H2943 H 0.73664 0.66895 0.37978 0.0
H2944 H 0.77566 0.6583 0.43985 0.0
H2945 H 0.7597 0.66416 0.42443 0.0
C2946 C 0.34014 0.02758 0.38353 0.0
C2947 C 0.33536 0.02502 0.36681 0.0
C2948 C 0.34475 0.04097 0.39086 0.0
C2949 C 0.34145 0.07355 0.38591 0.0
H2950 H 0.37029 0.08796 0.42102 0.0
C2951 C 0.35994 0.12763 0.42005 0.0
C2952 C 0.35947 0.12659 0.43762 0.0
C2953 C 0.35843 0.11617 0.41023 0.0
C2954 C 0.36222 0.08405 0.41122 0.0
H2955 H 0.33221 0.03463 0.3444 0.0
H2956 H 0.3407 0.05819 0.35701 0.0
H2957 H 0.36559 0.06649 0.40549 0.0
H2958 H 0.3575 0.11301 0.45875 0.0
H2959 H 0.35505 0.09305 0.44161 0.0
H2960 H 0.33821 0.09124 0.39168 0.0
C2961 C 0.34052 0.04974 0.36464 0.0
C2962 C 0.35946 0.07172 0.40237 0.0
C2963 C 0.33575 0.03627 0.35736 0.0
C2964 C 0.35779 0.11403 0.44522 0.0
C2965 C 0.35651 0.10268 0.43543 0.0
C2966 C 0.34436 0.086 0.39463 0.0
C2967 C 0.34487 0.0522 0.38157 0.0
C2968 C 0.34883 0.06612 0.38983 0.0
C2969 C 0.35669 0.10359 0.41785 0.0
C2970 C 0.35457 0.0912 0.40758 0.0
H2971 H 0.3399 0.0191 0.39117 0.0
H2972 H 0.34777 0.04233 0.40399 0.0
H2973 H 0.33304 0.06948 0.37654 0.0
H2974 H 0.36117 0.13719 0.4139 0.0
H2975 H 0.35865 0.11714 0.3967 0.0
C2976 C 0.97136 0.31171 0.37698 0.0
C2977 C 0.97411 0.30844 0.36086 0.0
C2978 C 0.95836 0.30291 0.38474 0.0
C2979 C 0.92106 0.27569 0.37842 0.0
H2980 H 0.92485 0.26338 0.423 0.0
C2981 C 0.87298 0.23196 0.41554 0.0
C2982 C 0.87329 0.23338 0.43306 0.0
C2983 C 0.88473 0.24139 0.40594 0.0
C2984 C 0.92353 0.26688 0.4107 0.0
H2985 H 0.9651 0.29376 0.33988 0.0
H2986 H 0.94217 0.27842 0.35347 0.0
H2987 H 0.94606 0.27958 0.4075 0.0
H2988 H 0.88567 0.24616 0.45423 0.0
H2989 H 0.9059 0.26291 0.43758 0.0
H2990 H 0.89847 0.26322 0.38176 0.0
C2991 C 0.95018 0.28779 0.36007 0.0
C2992 C 0.93572 0.27611 0.40179 0.0
C2993 C 0.9633 0.29654 0.35233 0.0
C2994 C 0.88528 0.2447 0.44075 0.0
C2995 C 0.8969 0.25423 0.43119 0.0
C2996 C 0.90878 0.26656 0.38746 0.0
C2997 C 0.94775 0.29071 0.37652 0.0
C2998 C 0.93463 0.28069 0.38561 0.0
C2999 C 0.89694 0.25254 0.41369 0.0
C3000 C 0.90987 0.26211 0.40378 0.0
H3001 H 0.97942 0.32083 0.38389 0.0
H3002 H 0.95669 0.30551 0.39735 0.0
H3003 H 0.91995 0.27911 0.36597 0.0
H3004 H 0.86387 0.22326 0.40933 0.0
H3005 H 0.8844 0.23966 0.39254 0.0
C3006 C 0.02211 0.37954 0.31564 0.0
C3007 C 0.01251 0.36509 0.31921 0.0
C3008 C 0.01785 0.38766 0.30605 0.0
C3009 C 0.98698 0.39056 0.29181 0.0
H3010 H 0.01301 0.4144 0.25722 0.0
C3011 C 0.97435 0.42492 0.24539 0.0
C3012 C 0.98573 0.43859 0.24167 0.0
C3013 C 0.97668 0.4152 0.25478 0.0
C3014 C 0.00568 0.40792 0.26693 0.0
H3015 H 0.99069 0.34798 0.31579 0.0
H3016 H 0.98323 0.36233 0.29899 0.0
H3017 H 0.01865 0.39872 0.27372 0.0
H3018 H 0.00831 0.45305 0.24555 0.0
H3019 H 0.01236 0.43624 0.26198 0.0
H3020 H 0.97412 0.4 0.28515 0.0
C3021 C 0.99409 0.36728 0.30368 0.0
C3022 C 0.00891 0.39891 0.27635 0.0
C3023 C 0.99839 0.35906 0.31324 0.0
C3024 C 0.99939 0.44248 0.2479 0.0
C3025 C 0.0017 0.43283 0.25729 0.0
C3026 C 0.98377 0.39966 0.28239 0.0
C3027 C 0.00386 0.38161 0.29981 0.0
C3028 C 0.99973 0.39031 0.28908 0.0
C3029 C 0.99044 0.419 0.26065 0.0
C3030 C 0.99323 0.40863 0.27004 0.0
H3031 H 0.03305 0.38462 0.32008 0.0
H3032 H 0.02555 0.39875 0.30352 0.0
H3033 H 0.97975 0.38408 0.3016 0.0
H3034 H 0.96372 0.4216 0.24067 0.0
H3035 H 0.96779 0.4046 0.25706 0.0
C3036 C 0.64651 0.64137 0.30511 0.0
C3037 C 0.6427 0.64332 0.3213 0.0
C3038 C 0.63811 0.62864 0.29636 0.0
C3039 C 0.61134 0.5908 0.30061 0.0
H3040 H 0.59963 0.59528 0.25593 0.0
C3041 C 0.56735 0.54323 0.26301 0.0
C3042 C 0.5685 0.54343 0.24547 0.0
C3043 C 0.57701 0.55497 0.27259 0.0
C3044 C 0.60298 0.59377 0.26824 0.0
H3045 H 0.62744 0.63325 0.34131 0.0
H3046 H 0.61284 0.61084 0.32605 0.0
H3047 H 0.61564 0.61637 0.27216 0.0
H3048 H 0.58096 0.55567 0.22423 0.0
H3049 H 0.59816 0.57593 0.2409 0.0
H3050 H 0.5989 0.56818 0.29662 0.0
C3051 C 0.6223 0.61923 0.32014 0.0
C3052 C 0.61212 0.60589 0.27757 0.0
C3053 C 0.63061 0.63206 0.32883 0.0
C3054 C 0.57974 0.55535 0.23773 0.0
C3055 C 0.58953 0.56699 0.2473 0.0
C3056 C 0.60234 0.57862 0.29118 0.0
C3057 C 0.62583 0.61753 0.3037 0.0
C3058 C 0.61636 0.60454 0.29384 0.0
C3059 C 0.58816 0.56708 0.26484 0.0
C3060 C 0.59801 0.57995 0.27487 0.0
H3061 H 0.65577 0.64984 0.29896 0.0
H3062 H 0.64114 0.62754 0.28376 0.0
H3063 H 0.61454 0.58948 0.31311 0.0
H3064 H 0.55868 0.53419 0.26925 0.0
H3065 H 0.57547 0.5547 0.28601 0.0
C3066 C 0.35877 0.99812 0.31346 0.0
C3067 C 0.35462 0.98756 0.32592 0.0
C3068 C 0.37096 0.00193 0.3039 0.0
C3069 C 0.39484 0.98764 0.29182 0.0
H3070 H 0.41866 0.0259 0.27433 0.0
C3071 C 0.44873 0.00496 0.26046 0.0
C3072 C 0.4506 0.01123 0.24448 0.0
C3073 C 0.4373 0.00283 0.27049 0.0
C3074 C 0.41203 0.01516 0.27909 0.0
H3075 H 0.36042 0.97336 0.33888 0.0
H3076 H 0.38195 0.98045 0.32287 0.0
H3077 H 0.39854 0.02111 0.29236 0.0
H3078 H 0.44192 0.0204 0.22675 0.0
H3079 H 0.42219 0.01705 0.24462 0.0
H3080 H 0.40858 0.98183 0.2789 0.0
C3081 C 0.37554 0.98538 0.31989 0.0
C3082 C 0.40047 0.01238 0.28936 0.0
C3083 C 0.36325 0.98139 0.32919 0.0
C3084 C 0.44094 0.01569 0.23903 0.0
C3085 C 0.42961 0.01375 0.24922 0.0
C3086 C 0.40648 0.99048 0.28181 0.0
C3087 C 0.37937 0.99542 0.30681 0.0
C3088 C 0.39174 0.99857 0.29591 0.0
C3089 C 0.4276 0.00713 0.26493 0.0
C3090 C 0.41519 0.00426 0.27537 0.0
H3091 H 0.35226 0.00299 0.31061 0.0
H3092 H 0.37347 0.0096 0.29386 0.0
H3093 H 0.38816 0.97678 0.29619 0.0
H3094 H 0.45613 0.00173 0.2653 0.0
H3095 H 0.43608 0.99787 0.28267 0.0
C3096 C 0.63131 0.99604 0.32979 0.0
C3097 C 0.64377 0.99849 0.32152 0.0
C3098 C 0.62191 0.99984 0.32221 0.0
C3099 C 0.61849 0.02106 0.28727 0.0
H3100 H 0.57842 0.99255 0.28939 0.0
C3101 C 0.57646 0.01949 0.24073 0.0
C3102 C 0.56308 0.01626 0.24712 0.0
C3103 C 0.58655 0.01856 0.25097 0.0
C3104 C 0.58955 0.00072 0.28886 0.0
H3105 H 0.65643 0.00734 0.29912 0.0
H3106 H 0.63997 0.01376 0.28583 0.0
H3107 H 0.59576 0.98911 0.30554 0.0
H3108 H 0.55 0.00989 0.26945 0.0
H3109 H 0.56756 0.0081 0.28724 0.0
H3110 H 0.61224 0.03246 0.2702 0.0
C3111 C 0.6375 0.00908 0.29824 0.0
C3112 C 0.59949 0.99877 0.29816 0.0
C3113 C 0.64692 0.00532 0.30583 0.0
C3114 C 0.56009 0.0122 0.26404 0.0
C3115 C 0.57016 0.01121 0.27425 0.0
C3116 C 0.60854 0.02297 0.2779 0.0
C3117 C 0.62475 0.00614 0.3062 0.0
C3118 C 0.61411 0.00884 0.29734 0.0
C3119 C 0.58347 0.01432 0.26782 0.0
C3120 C 0.59398 0.01274 0.27846 0.0
H3121 H 0.62863 0.99086 0.34193 0.0
H3122 H 0.6123 0.99765 0.32881 0.0
H3123 H 0.62963 0.02914 0.28655 0.0
H3124 H 0.57903 0.02245 0.22771 0.0
H3125 H 0.59663 0.02081 0.24558 0.0
C3126 C 0.02472 0.64356 0.31791 0.0
C3127 C 0.01543 0.649 0.32091 0.0
C3128 C 0.02012 0.63089 0.30887 0.0
C3129 C 0.99313 0.60737 0.27805 0.0
H3130 H 0.00531 0.58034 0.2918 0.0
C3131 C 0.98372 0.54753 0.2594 0.0
C3132 C 0.98531 0.54907 0.24191 0.0
C3133 C 0.9862 0.55919 0.26948 0.0
C3134 C 0.00168 0.58769 0.28788 0.0
H3135 H 0.99391 0.64519 0.31677 0.0
H3136 H 0.98588 0.62301 0.30105 0.0
H3137 H 0.01174 0.60149 0.30889 0.0
H3138 H 0.99027 0.56393 0.22125 0.0
H3139 H 0.99479 0.58432 0.23885 0.0
H3140 H 0.98301 0.59351 0.25706 0.0
C3141 C 0.99679 0.62868 0.30559 0.0
C3142 C 0.00551 0.5999 0.29757 0.0
C3143 C 0.00138 0.64137 0.31468 0.0
C3144 C 0.98912 0.56244 0.23471 0.0
C3145 C 0.99155 0.57408 0.24478 0.0
C3146 C 0.98932 0.59516 0.26832 0.0
C3147 C 0.00612 0.6233 0.30258 0.0
C3148 C 0.0014 0.60996 0.2927 0.0
C3149 C 0.99026 0.57264 0.2623 0.0
C3150 C 0.99365 0.58524 0.27305 0.0
H3151 H 0.03562 0.64912 0.32248 0.0
H3152 H 0.02765 0.62717 0.30657 0.0
H3153 H 0.98988 0.61496 0.27388 0.0
H3154 H 0.98091 0.5374 0.26536 0.0
H3155 H 0.98497 0.55768 0.28293 0.0
C3156 C 0.36713 0.37834 0.3309 0.0
C3157 C 0.35972 0.36391 0.32593 0.0
C3158 C 0.38014 0.38783 0.32351 0.0
C3159 C 0.41046 0.39022 0.30048 0.0
H3160 H 0.41215 0.42357 0.27926 0.0
C3161 C 0.45336 0.42366 0.25169 0.0
C3162 C 0.45812 0.43838 0.25061 0.0
C3163 C 0.44215 0.41498 0.26234 0.0
C3164 C 0.41205 0.4145 0.28538 0.0
H3165 H 0.36037 0.34792 0.30994 0.0
H3166 H 0.38326 0.36445 0.29732 0.0
H3167 H 0.39156 0.40783 0.29608 0.0
H3168 H 0.45539 0.45573 0.26019 0.0
H3169 H 0.43622 0.44075 0.2793 0.0
H3170 H 0.431 0.39692 0.29005 0.0
C3171 C 0.37895 0.36843 0.30681 0.0
C3172 C 0.4002 0.40546 0.29497 0.0
C3173 C 0.36583 0.35901 0.31396 0.0
C3174 C 0.45175 0.44435 0.26066 0.0
C3175 C 0.44072 0.43573 0.27153 0.0
C3176 C 0.42244 0.3994 0.29112 0.0
C3177 C 0.38608 0.38297 0.31128 0.0
C3178 C 0.39921 0.39314 0.30241 0.0
C3179 C 0.43563 0.42089 0.27237 0.0
C3180 C 0.42331 0.41156 0.28322 0.0
H3181 H 0.36264 0.3824 0.34008 0.0
H3182 H 0.38549 0.399 0.3272 0.0
H3183 H 0.40997 0.38082 0.30621 0.0
H3184 H 0.45806 0.41882 0.24395 0.0
H3185 H 0.4384 0.40358 0.26238 0.0
C3186 C 0.34005 0.31506 0.37855 0.0
C3187 C 0.33027 0.30756 0.3656 0.0
C3188 C 0.3465 0.30857 0.3876 0.0
C3189 C 0.35674 0.28101 0.38627 0.0
H3190 H 0.34772 0.27526 0.4336 0.0
C3191 C 0.36179 0.23817 0.42452 0.0
C3192 C 0.36434 0.2401 0.44183 0.0
C3193 C 0.35994 0.24813 0.4151 0.0
C3194 C 0.3507 0.27703 0.42052 0.0
H3195 H 0.32006 0.2877 0.35147 0.0
H3196 H 0.33169 0.27656 0.36698 0.0
H3197 H 0.34089 0.29006 0.41708 0.0
H3198 H 0.36768 0.25414 0.46286 0.0
H3199 H 0.36521 0.27199 0.44635 0.0
H3200 H 0.36674 0.26822 0.38958 0.0
C3201 C 0.3342 0.28736 0.37022 0.0
C3202 C 0.3467 0.28546 0.41106 0.0
C3203 C 0.3275 0.2937 0.36144 0.0
C3204 C 0.36559 0.25241 0.44951 0.0
C3205 C 0.36405 0.26255 0.44004 0.0
C3206 C 0.36103 0.27282 0.39578 0.0
C3207 C 0.34356 0.29465 0.38354 0.0
C3208 C 0.34941 0.28726 0.39381 0.0
C3209 C 0.36088 0.2604 0.42276 0.0
C3210 C 0.35776 0.27041 0.41297 0.0
H3211 H 0.34233 0.32574 0.38205 0.0
H3212 H 0.35368 0.31435 0.39786 0.0
H3213 H 0.35901 0.28235 0.37297 0.0
H3214 H 0.36067 0.22865 0.4184 0.0
H3215 H 0.35725 0.2459 0.40194 0.0
C3216 C 0.69315 0.0258 0.36979 0.0
C3217 C 0.6998 0.01781 0.36543 0.0
C3218 C 0.70048 0.0384 0.37922 0.0
C3219 C 0.7307 0.05658 0.40861 0.0
H3220 H 0.73039 0.0913 0.39568 0.0
C3221 C 0.77143 0.11116 0.43545 0.0
C3222 C 0.76675 0.1208 0.43995 0.0
C3223 C 0.76249 0.09868 0.42659 0.0
C3224 C 0.73042 0.08164 0.39959 0.0
H3225 H 0.71948 0.01694 0.36753 0.0
H3226 H 0.73214 0.03878 0.38388 0.0
H3227 H 0.71594 0.06916 0.37993 0.0
H3228 H 0.74907 0.12502 0.43848 0.0
H3229 H 0.73334 0.10309 0.42298 0.0
H3230 H 0.74517 0.06895 0.42819 0.0
C3231 C 0.72122 0.03524 0.38016 0.0
C3232 C 0.72216 0.06898 0.39057 0.0
C3233 C 0.71396 0.02274 0.37068 0.0
C3234 C 0.753 0.11783 0.43509 0.0
C3235 C 0.744 0.10528 0.42622 0.0
C3236 C 0.7389 0.06918 0.41763 0.0
C3237 C 0.71457 0.04318 0.3846 0.0
C3238 C 0.72242 0.05638 0.39482 0.0
C3239 C 0.74861 0.09549 0.42204 0.0
C3240 C 0.73907 0.08193 0.41306 0.0
H3241 H 0.68227 0.02235 0.36593 0.0
H3242 H 0.69507 0.04427 0.38253 0.0
H3243 H 0.73089 0.04697 0.4124 0.0
H3244 H 0.78208 0.1133 0.43868 0.0
H3245 H 0.76651 0.09155 0.42321 0.0
C3246 C 0.97431 0.65835 0.38026 0.0
C3247 C 0.97687 0.66529 0.36467 0.0
C3248 C 0.96122 0.65336 0.38822 0.0
C3249 C 0.92362 0.64368 0.38174 0.0
H3250 H 0.92567 0.65373 0.42876 0.0
C3251 C 0.87492 0.63811 0.41825 0.0
C3252 C 0.87357 0.63404 0.43521 0.0
C3253 C 0.8871 0.64093 0.40923 0.0
C3254 C 0.92485 0.65061 0.41572 0.0
H3255 H 0.96749 0.67195 0.34488 0.0
H3256 H 0.94453 0.66316 0.3588 0.0
H3257 H 0.94747 0.66009 0.4136 0.0
H3258 H 0.88399 0.62957 0.4559 0.0
H3259 H 0.90495 0.63398 0.44006 0.0
H3260 H 0.90096 0.63414 0.38389 0.0
C3261 C 0.95269 0.66157 0.36484 0.0
C3262 C 0.93737 0.6543 0.40701 0.0
C3263 C 0.96584 0.66665 0.35689 0.0
C3264 C 0.88458 0.63254 0.44282 0.0
C3265 C 0.89671 0.63528 0.43378 0.0
C3266 C 0.91105 0.6399 0.3905 0.0
C3267 C 0.95035 0.65514 0.38074 0.0
C3268 C 0.93691 0.6509 0.38993 0.0
C3269 C 0.89822 0.63967 0.41693 0.0
C3270 C 0.91151 0.64335 0.4076 0.0
H3271 H 0.98255 0.65707 0.38657 0.0
H3272 H 0.95966 0.64824 0.40034 0.0
H3273 H 0.92293 0.64082 0.36862 0.0
H3274 H 0.86657 0.63917 0.41189 0.0
H3275 H 0.88793 0.64441 0.39633 0.0
C3276 C 0.37046 0.02317 0.7186 0.0
C3277 C 0.36019 0.01396 0.707 0.0
C3278 C 0.37854 0.01863 0.72783 0.0
C3279 C 0.38175 0.98652 0.73921 0.0
H3280 H 0.42122 0.01545 0.74628 0.0
C3281 C 0.42103 0.97665 0.77973 0.0
C3282 C 0.43545 0.98396 0.7753 0.0
C3283 C 0.4112 0.9793 0.7711 0.0
C3284 C 0.4103 0.00714 0.74421 0.0
H3285 H 0.35004 0.99264 0.69624 0.0
H3286 H 0.36456 0.98485 0.71184 0.0
H3287 H 0.40522 0.02184 0.7322 0.0
H3288 H 0.45097 0.99913 0.75809 0.0
H3289 H 0.43381 0.00327 0.74244 0.0
H3290 H 0.38712 0.97167 0.75054 0.0
C3291 C 0.36614 0.99547 0.71419 0.0
C3292 C 0.40099 0.0109 0.73641 0.0
C3293 C 0.35784 -6e-05 0.70518 0.0
C3294 C 0.43986 0.99346 0.76173 0.0
C3295 C 0.43004 0.99591 0.75292 0.0
C3296 C 0.39115 0.98271 0.74683 0.0
C3297 C 0.3768 0.00486 0.7254 0.0
C3298 C 0.38657 0.00068 0.73388 0.0
C3299 C 0.41565 0.98917 0.75776 0.0
C3300 C 0.40555 0.99299 0.74943 0.0
H3301 H 0.37236 0.03398 0.72043 0.0
H3302 H 0.38632 0.02602 0.73671 0.0
H3303 H 0.3707 0.97839 0.73762 0.0
H3304 H 0.41748 0.96935 0.79027 0.0
H3305 H 0.40026 0.97401 0.77532 0.0
C3306 C 0.00603 0.35928 0.70826 0.0
C3307 C 0.99653 0.35412 0.69456 0.0
C3308 C 0.00909 0.37215 0.71609 0.0
C3309 C 0.99263 0.39357 0.72522 0.0
H3310 H 0.03071 0.42449 0.73509 0.0
C3311 C 0.00097 0.44527 0.75666 0.0
C3312 C 0.01218 0.45202 0.76827 0.0
C3313 C -0.00012 0.43413 0.74662 0.0
C3314 C 0.02 0.41588 0.73266 0.0
H3315 H 0.98308 0.35854 0.67804 0.0
H3316 H 0.9882 0.38084 0.69198 0.0
H3317 H 0.02759 0.40351 0.71955 0.0
H3318 H 0.03107 0.45256 0.77855 0.0
H3319 H 0.02889 0.43265 0.76158 0.0
H3320 H 0.9849 0.40539 0.73885 0.0
C3321 C 0.99332 0.37496 0.69656 0.0
C3322 C 0.01824 0.40393 0.72367 0.0
C3323 C 0.99045 0.36225 0.68856 0.0
C3324 C 0.02239 0.44755 0.76957 0.0
C3325 C 0.02115 0.4362 0.75976 0.0
C3326 C 0.99436 0.40536 0.73445 0.0
C3327 C 0.00252 0.37993 0.71051 0.0
C3328 C 0.00454 0.39271 0.71982 0.0
C3329 C 0.00981 0.42925 0.74822 0.0
C3330 C 0.00807 0.41674 0.73825 0.0
H3331 H 0.01089 0.35324 0.71313 0.0
H3332 H 0.01617 0.37574 0.72688 0.0
H3333 H 0.98194 0.38494 0.72262 0.0
H3334 H 0.99307 0.44867 0.75531 0.0
H3335 H 0.99121 0.42935 0.7376 0.0
C3336 C 0.63977 0.64532 0.71009 0.0
C3337 C 0.64311 0.64093 0.69501 0.0
C3338 C 0.62659 0.63691 0.71772 0.0
C3339 C 0.59686 0.59969 0.71951 0.0
H3340 H 0.578 0.61711 0.7433 0.0
C3341 C 0.54225 0.56604 0.75145 0.0
C3342 C 0.54099 0.57023 0.76777 0.0
C3343 C 0.55401 0.57483 0.74155 0.0
C3344 C 0.58318 0.61209 0.73679 0.0
H3345 H 0.63508 0.62443 0.67586 0.0
H3346 H 0.61192 0.60982 0.68905 0.0
H3347 H 0.59957 0.63217 0.72745 0.0
H3348 H 0.55118 0.58705 0.78641 0.0
H3349 H 0.57162 0.60243 0.76907 0.0
H3350 H 0.58048 0.57962 0.72892 0.0
C3351 C 0.61961 0.61967 0.69513 0.0
C3352 C 0.59556 0.62072 0.72772 0.0
C3353 C 0.63284 0.62808 0.68751 0.0
C3354 C 0.55168 0.58356 0.77382 0.0
C3355 C 0.56341 0.59238 0.76389 0.0
C3356 C 0.58444 0.59106 0.72852 0.0
C3357 C 0.61637 0.62391 0.71043 0.0
C3358 C 0.60266 0.61465 0.71912 0.0
C3359 C 0.56477 0.58806 0.74769 0.0
C3360 C 0.57756 0.59718 0.73742 0.0
H3361 H 0.64745 0.65514 0.71624 0.0
H3362 H 0.62459 0.64043 0.72961 0.0
H3363 H 0.60214 0.59466 0.71327 0.0
H3364 H 0.53409 0.55597 0.74625 0.0
H3365 H 0.55464 0.57129 0.72903 0.0
C3366 C 0.66183 0.68845 0.64599 0.0
C3367 C 0.67665 0.69487 0.64857 0.0
C3368 C 0.65598 0.69584 0.63752 0.0
C3369 C 0.66477 0.73281 0.62656 0.0
H3370 H 0.63442 0.7148 0.59352 0.0
C3371 C 0.65168 0.7659 0.5808 0.0
C3372 C 0.63728 0.76198 0.57841 0.0
C3373 C 0.65545 0.75696 0.58952 0.0
C3374 C 0.64279 0.71991 0.60286 0.0
H3375 H 0.69695 0.71392 0.64364 0.0
H3376 H 0.68683 0.72656 0.62879 0.0
H3377 H 0.64288 0.70039 0.60849 0.0
H3378 H 0.61552 0.74536 0.58304 0.0
H3379 H 0.62216 0.7296 0.59815 0.0
H3380 H 0.66489 0.75233 0.62079 0.0
C3381 C 0.67966 0.71598 0.63364 0.0
C3382 C 0.64762 0.71167 0.61144 0.0
C3383 C 0.68548 0.70866 0.6421 0.0
C3384 C 0.62671 0.74867 0.58456 0.0
C3385 C 0.6305 0.73965 0.59323 0.0
C3386 C 0.66001 0.74101 0.61797 0.0
C3387 C 0.66484 0.70979 0.63147 0.0
C3388 C 0.65885 0.71811 0.62316 0.0
C3389 C 0.64492 0.74381 0.59599 0.0
C3390 C 0.64915 0.73472 0.60582 0.0
H3391 H 0.65472 0.67784 0.65082 0.0
H3392 H 0.64452 0.69079 0.6361 0.0
H3393 H 0.67318 0.73803 0.63583 0.0
H3394 H 0.6601 0.7759 0.57587 0.0
H3395 H 0.66665 0.76032 0.59114 0.0
C3396 C 0.3123 0.97356 0.64158 0.0
C3397 C 0.30895 0.97636 0.65762 0.0
C3398 C 0.30422 0.96008 0.63423 0.0
C3399 C 0.26858 0.92772 0.63694 0.0
H3400 H 0.28486 0.91286 0.60479 0.0
C3401 C 0.23475 0.87413 0.60198 0.0
C3402 C 0.23596 0.8754 0.58445 0.0
C3403 C 0.24451 0.8852 0.61231 0.0
C3404 C 0.2802 0.91688 0.61378 0.0
H3405 H 0.29495 0.96708 0.67887 0.0
H3406 H 0.28113 0.94336 0.66632 0.0
H3407 H 0.3005 0.93435 0.62089 0.0
H3408 H 0.2486 0.88884 0.56397 0.0
H3409 H 0.26581 0.9081 0.58204 0.0
H3410 H 0.24828 0.91016 0.6298 0.0
C3411 C 0.28972 0.95169 0.65917 0.0
C3412 C 0.28913 0.92923 0.62294 0.0
C3413 C 0.2977 0.96526 0.66643 0.0
C3414 C 0.24741 0.88765 0.57745 0.0
C3415 C 0.25729 0.8986 0.58778 0.0
C3416 C 0.25969 0.91525 0.62795 0.0
C3417 C 0.2927 0.94899 0.64283 0.0
C3418 C 0.28341 0.93501 0.63438 0.0
C3419 C 0.25577 0.8976 0.60529 0.0
C3420 C 0.26538 0.90989 0.61605 0.0
H3421 H 0.32087 0.98193 0.63444 0.0
H3422 H 0.30673 0.95855 0.62155 0.0
H3423 H 0.26371 0.93192 0.6454 0.0
H3424 H 0.22596 0.86483 0.60767 0.0
H3425 H 0.24315 0.88415 0.62578 0.0
C3426 C 0.02787 0.33537 0.64641 0.0
C3427 C 0.02135 0.32121 0.65244 0.0
C3428 C 0.04054 0.34098 0.63724 0.0
C3429 C 0.06057 0.329 0.61101 0.0
H3430 H 0.09326 0.36643 0.61947 0.0
C3431 C 0.11521 0.34409 0.58449 0.0
C3432 C 0.12342 0.3578 0.57756 0.0
C3433 C 0.10297 0.34071 0.5936 0.0
C3434 C 0.08415 0.35603 0.61683 0.0
H3435 H 0.02343 0.30208 0.65402 0.0
H3436 H 0.04532 0.31184 0.63818 0.0
H3437 H 0.07132 0.35866 0.63543 0.0
H3438 H 0.12541 0.37884 0.57512 0.0
H3439 H 0.10387 0.37288 0.59108 0.0
H3440 H 0.07324 0.32625 0.59252 0.0
C3441 C 0.04055 0.31853 0.64028 0.0
C3442 C 0.07161 0.35159 0.62596 0.0
C3443 C 0.028 0.31297 0.64945 0.0
C3444 C 0.11933 0.3682 0.58038 0.0
C3445 C 0.107 0.36479 0.58951 0.0
C3446 C 0.07302 0.33342 0.60191 0.0
C3447 C 0.04686 0.33251 0.63386 0.0
C3448 C 0.0598 0.3379 0.62336 0.0
C3449 C 0.09857 0.35092 0.59599 0.0
C3450 C 0.08507 0.34686 0.60493 0.0
H3451 H 0.02308 0.34204 0.64852 0.0
H3452 H 0.04517 0.35179 0.63242 0.0
H3453 H 0.05153 0.31852 0.60846 0.0
H3454 H 0.11826 0.33594 0.58288 0.0
H3455 H 0.09692 0.33004 0.59879 0.0
C3456 C 0.29793 0.33507 0.66154 0.0
C3457 C 0.31171 0.33958 0.65552 0.0
C3458 C 0.28924 0.33971 0.65384 0.0
C3459 C 0.28853 0.36689 0.62655 0.0
H3460 H 0.25138 0.33602 0.61314 0.0
C3461 C 0.25095 0.37515 0.58092 0.0
C3462 C 0.2362 0.36644 0.58303 0.0
C3463 C 0.26052 0.37299 0.5908 0.0
C3464 C 0.26158 0.34485 0.61705 0.0
H3465 H 0.32748 0.35306 0.63728 0.0
H3466 H 0.31229 0.36133 0.62394 0.0
H3467 H 0.26751 0.33064 0.62894 0.0
H3468 H 0.21984 0.34926 0.59762 0.0
H3469 H 0.23643 0.34587 0.61535 0.0
H3470 H 0.28251 0.38115 0.61487 0.0
C3471 C 0.30823 0.35415 0.63457 0.0
C3472 C 0.27085 0.34172 0.62605 0.0
C3473 C 0.31689 0.34937 0.64216 0.0
C3474 C 0.23118 0.35598 0.59563 0.0
C3475 C 0.24071 0.35398 0.60568 0.0
C3476 C 0.27914 0.37007 0.61772 0.0
C3477 C 0.29421 0.34907 0.64009 0.0
C3478 C 0.28441 0.35268 0.63087 0.0
C3479 C 0.25551 0.36221 0.60314 0.0
C3480 C 0.26553 0.35907 0.61284 0.0
H3481 H 0.29363 0.32756 0.67184 0.0
H3482 H 0.27852 0.33576 0.65844 0.0
H3483 H 0.29892 0.37554 0.63018 0.0
H3484 H 0.25504 0.38324 0.5712 0.0
H3485 H 0.27181 0.37945 0.58834 0.0
C3486 C 0.66149 0.97431 0.64163 0.0
C3487 C 0.67282 0.97742 0.65277 0.0
C3488 C 0.6547 0.96122 0.63305 0.0
C3489 C 0.64661 0.92417 0.63541 0.0
H3490 H 0.64762 0.92434 0.58682 0.0
C3491 C 0.63767 0.87465 0.59818 0.0
C3492 C 0.63179 0.87226 0.58192 0.0
C3493 C 0.64071 0.88707 0.60701 0.0
C3494 C 0.64691 0.92401 0.60036 0.0
H3495 H 0.68569 0.9691 0.66397 0.0
H3496 H 0.67355 0.94614 0.6494 0.0
H3497 H 0.65618 0.94684 0.60202 0.0
H3498 H 0.62413 0.88102 0.56244 0.0
H3499 H 0.62874 0.90228 0.57818 0.0
H3500 H 0.63719 0.90143 0.63396 0.0
C3501 C 0.67005 0.9539 0.64717 0.0
C3502 C 0.65189 0.93693 0.60904 0.0
C3503 C 0.67703 0.96707 0.65543 0.0
C3504 C 0.62855 0.8824 0.57498 0.0
C3505 C 0.63141 0.89475 0.58393 0.0
C3506 C 0.64138 0.91122 0.62676 0.0
C3507 C 0.65891 0.9509 0.63582 0.0
C3508 C 0.65208 0.93714 0.62663 0.0
C3509 C 0.63773 0.89736 0.59998 0.0
C3510 C 0.6418 0.91098 0.60912 0.0
H3511 H 0.65805 0.98211 0.63929 0.0
H3512 H 0.64612 0.95911 0.62433 0.0
H3513 H 0.64652 0.92408 0.649 0.0
H3514 H 0.64005 0.86698 0.60412 0.0
H3515 H 0.64577 0.88872 0.61921 0.0
C3516 C 0.02745 0.68843 0.6439 0.0
C3517 C 0.02176 0.69316 0.65659 0.0
C3518 C 0.0407 0.69779 0.63694 0.0
C3519 C 0.06336 0.73551 0.62814 0.0
H3520 H 0.0933 0.72607 0.62082 0.0
C3521 C 0.11643 0.77654 0.59879 0.0
C3522 C 0.12283 0.77147 0.58748 0.0
C3523 C 0.10501 0.76699 0.60861 0.0
C3524 C 0.08499 0.72881 0.62256 0.0
H3525 H 0.02563 0.71125 0.67225 0.0
H3526 H 0.04866 0.72765 0.65984 0.0
H3527 H 0.07159 0.70909 0.63538 0.0
H3528 H 0.12251 0.75255 0.5776 0.0
H3529 H 0.10217 0.73573 0.59425 0.0
H3530 H 0.07626 0.75487 0.6148 0.0
C3531 C 0.04287 0.7167 0.65535 0.0
C3532 C 0.0726 0.71911 0.63098 0.0
C3533 C 0.02973 0.7073 0.66248 0.0
C3534 C 0.11778 0.75669 0.58635 0.0
C3535 C 0.10618 0.74709 0.59596 0.0
C3536 C 0.07561 0.74509 0.61951 0.0
C3537 C 0.04839 0.71209 0.64237 0.0
C3538 C 0.0617 0.7224 0.63386 0.0
C3539 C 0.09953 0.75211 0.6071 0.0
C3540 C 0.08661 0.74191 0.61662 0.0
H3541 H 0.02155 0.67758 0.63915 0.0
H3542 H 0.0447 0.69401 0.62688 0.0
H3543 H 0.05501 0.7382 0.62996 0.0
H3544 H 0.12028 0.78792 0.60002 0.0
H3545 H 0.10044 0.7713 0.61734 0.0
C3546 C 0.99933 0.64505 0.71173 0.0
C3547 C 0.98919 0.63755 0.6991 0.0
C3548 C 0.00519 0.63818 0.72121 0.0
C3549 C 0.01392 0.60977 0.72092 0.0
H3550 H 0.00345 0.60321 0.76782 0.0
C3551 C 0.01588 0.5649 0.7583 0.0
C3552 C 0.01789 0.56623 0.77573 0.0
C3553 C 0.0148 0.57543 0.74911 0.0
C3554 C 0.00684 0.60519 0.75488 0.0
H3555 H 0.97763 0.6172 0.68609 0.0
H3556 H 0.98826 0.60543 0.70224 0.0
H3557 H 0.99777 0.61888 0.75128 0.0
H3558 H 0.021 0.57976 0.79721 0.0
H3559 H 0.01987 0.59857 0.78113 0.0
H3560 H 0.02317 0.59632 0.72435 0.0
C3561 C 0.99149 0.61652 0.70493 0.0
C3562 C 0.00349 0.61413 0.74542 0.0
C3563 C 0.98537 0.62324 0.69577 0.0
C3564 C 0.01934 0.5785 0.78377 0.0
C3565 C 0.01857 0.58919 0.77454 0.0
C3566 C 0.01756 0.60108 0.73045 0.0
C3567 C 0.00128 0.62387 0.71785 0.0
C3568 C 0.0067 0.61619 0.7283 0.0
C3569 C 0.01599 0.58768 0.75711 0.0
C3570 C 0.01371 0.59833 0.74746 0.0
H3571 H 0.00241 0.65607 0.7146 0.0
H3572 H 0.0127 0.64399 0.73119 0.0
H3573 H 0.01654 0.61129 0.70771 0.0
H3574 H 0.01459 0.55544 0.75188 0.0
H3575 H 0.01252 0.57366 0.73581 0.0
C3576 C 0.35929 0.36424 0.70492 0.0
C3577 C 0.36517 0.35528 0.70206 0.0
C3578 C 0.36688 0.37692 0.71415 0.0
C3579 C 0.40372 0.40268 0.72775 0.0
H3580 H 0.38538 0.41524 0.75997 0.0
C3581 C 0.43598 0.44683 0.77561 0.0
C3582 C 0.43247 0.45775 0.77745 0.0
C3583 C 0.42709 0.43444 0.76657 0.0
C3584 C 0.3906 0.41191 0.7509 0.0
H3585 H 0.38344 0.35243 0.7072 0.0
H3586 H 0.39641 0.37422 0.72345 0.0
H3587 H 0.37103 0.39331 0.74377 0.0
H3588 H 0.41661 0.46401 0.77155 0.0
H3589 H 0.40092 0.44216 0.75592 0.0
H3590 H 0.42328 0.42108 0.73503 0.0
C3591 C 0.38614 0.37171 0.71822 0.0
C3592 C 0.38239 0.39939 0.7416 0.0
C3593 C 0.37863 0.35913 0.70895 0.0
C3594 C 0.41958 0.45576 0.77049 0.0
C3595 C 0.4106 0.44327 0.76152 0.0
C3596 C 0.41189 0.41509 0.73709 0.0
C3597 C 0.38047 0.38087 0.72075 0.0
C3598 C 0.3889 0.39453 0.73007 0.0
C3599 C 0.4144 0.43261 0.75925 0.0
C3600 C 0.40546 0.41974 0.7489 0.0
H3601 H 0.34896 0.36161 0.69976 0.0
H3602 H 0.36225 0.38379 0.71579 0.0
H3603 H 0.40903 0.39947 0.71868 0.0
H3604 H 0.44565 0.44786 0.78115 0.0
H3605 H 0.43014 0.42627 0.76531 0.0
C3606 C 0.63758 0.99327 0.70858 0.0
C3607 C 0.64315 0.00368 0.69588 0.0
C3608 C 0.62478 0.99005 0.7164 0.0
C3609 C 0.60371 0.00655 0.72775 0.0
H3610 H 0.57298 0.96786 0.73513 0.0
C3611 C 0.55215 0.99636 0.76039 0.0
C3612 C 0.5455 0.98455 0.77117 0.0
C3613 C 0.56329 0.99805 0.75007 0.0
C3614 C 0.58153 0.97873 0.73341 0.0
H3615 H 0.63957 0.01866 0.68118 0.0
H3616 H 0.61733 0.01323 0.69513 0.0
H3617 H 0.59383 0.97179 0.71914 0.0
H3618 H 0.54515 0.96521 0.77965 0.0
H3619 H 0.56499 0.96839 0.76217 0.0
H3620 H 0.59192 0.01359 0.74253 0.0
C3621 C 0.62285 0.00753 0.69892 0.0
C3622 C 0.59342 0.98096 0.72415 0.0
C3623 C 0.63552 0.01057 0.6909 0.0
C3624 C 0.55007 0.97436 0.77134 0.0
C3625 C 0.56139 0.97617 0.76123 0.0
C3626 C 0.59196 0.00434 0.73723 0.0
C3627 C 0.61744 0.99735 0.71187 0.0
C3628 C 0.60461 0.99489 0.72122 0.0
C3629 C 0.56823 0.9881 0.75052 0.0
C3630 C 0.58067 0.99039 0.74019 0.0
H3631 H 0.64321 0.98776 0.71266 0.0
H3632 H 0.62087 0.98222 0.72641 0.0
H3633 H 0.6123 0.0174 0.7259 0.0
H3634 H 0.54868 0.00427 0.75988 0.0
H3635 H 0.56799 0.00718 0.74172 0.0
loop_
_geom_bond_atom_site_label_1
_geom_bond_atom_site_label_2
_geom_bond_distance
_geom_bond_site_symmetry_2
_ccdc_geom_bond_type
Mn0 O5 2.095 1_655 S
Mn0 O15 2.162 . S
Mn0 O16 2.297 1_554 S
Mn0 O24 2.385 1_554 S
Mn0 O25 2.209 1_654 S
Mn0 O26 2.094 . S
Mn1 O6 2.121 . S
Mn1 N8 2.257 1_554 S
Mn1 N17 2.282 . S
Mn1 O25 2.215 1_554 S
Mn1 O27 2.117 . S
C2 O24 1.234 1_455 S
C2 O25 1.283 . S
C3 O15 1.281 1_556 S
C3 O16 1.236 . S
C4 O26 1.256 . S
C4 O27 1.224 1_655 S
O5 Mn0 2.095 1_455 S
O5 C14 1.250 . S
O6 Mn1 2.121 . S
O6 C14 1.258 . S
C7 N8 1.326 . S
C7 C11 1.460 . S
C7 H13 0.929 . S
N8 Mn1 2.257 1_556 S
N8 C7 1.326 . S
N8 C12 1.362 . S
C9 C10 1.258 . S
C9 C12 1.431 . S
C9 C29 1.449 . S
C10 C9 1.258 . S
C10 C11 1.477 . S
C10 H30 0.931 . S
C11 C7 1.460 . S
C11 C10 1.477 . S
C11 H31 0.930 . S
C12 N8 1.362 . S
C12 C9 1.431 . S
C12 C22 1.476 . S
H13 C7 0.929 . S
C14 O5 1.250 . S
C14 O6 1.258 . S
O15 Mn0 2.162 . S
O15 C3 1.281 1_554 S
O16 Mn0 2.297 1_556 S
O16 C3 1.236 . S
N17 Mn1 2.282 . S
N17 C18 1.328 . S
N17 C22 1.318 1_554 S
C18 N17 1.328 . S
C18 C19 1.434 1_554 S
C18 H23 0.929 . S
C19 C18 1.434 1_556 S
C19 C20 1.325 . S
C19 H32 0.922 1_556 S
C20 C19 1.325 . S
C20 C21 1.373 . S
C20 H33 0.929 . S
C21 C20 1.373 . S
C21 C22 1.396 . S
C21 C28 1.403 . S
C22 C12 1.476 . S
C22 N17 1.318 1_556 S
C22 C21 1.396 . S
H23 C18 0.929 . S
O24 Mn0 2.385 1_556 S
O24 C2 1.234 1_655 S
O25 Mn0 2.209 1_456 S
O25 Mn1 2.215 1_556 S
O25 C2 1.283 . S
O26 Mn0 2.094 . S
O26 C4 1.256 . S
O27 Mn1 2.117 . S
O27 C4 1.224 1_455 S
C28 C21 1.403 . S
C28 C29 1.399 . S
C28 H34 0.929 . S
C29 C9 1.449 . S
C29 C28 1.399 . S
C29 H35 0.930 . S
H30 C10 0.931 . S
H31 C11 0.930 . S
H32 C19 0.922 1_554 S
H33 C20 0.929 . S
H34 C28 0.929 . S
H35 C29 0.930 . S
Mn36 O41 2.095 1_554 S
Mn36 O51 2.162 . S
Mn36 O52 2.297 . S
Mn36 O60 2.385 . S
Mn36 O61 2.209 . S
Mn36 O62 2.094 1_554 S
Mn37 O42 2.121 . S
Mn37 N44 2.257 1_556 S
Mn37 N53 2.282 1_556 S
Mn37 O61 2.215 1_556 S
Mn37 O63 2.117 . S
C38 O60 1.234 . S
C38 O61 1.283 . S
C39 O51 1.281 . S
C39 O52 1.236 . S
C40 O62 1.240 . S
C40 O63 1.264 . S
O41 Mn36 2.095 1_556 S
O41 C50 1.250 . S
O42 Mn37 2.121 . S
O42 C50 1.258 . S
C43 N44 1.326 . S
C43 C47 1.460 . S
C43 H49 0.929 . S
N44 Mn37 2.257 1_554 S
N44 C43 1.326 . S
N44 C48 1.362 . S
C45 C46 1.258 . S
C45 C48 1.431 . S
C45 C65 1.449 . S
C46 C45 1.258 . S
C46 C47 1.477 . S
C46 H66 0.931 . S
C47 C43 1.460 . S
C47 C46 1.477 . S
C47 H67 0.930 . S
C48 N44 1.362 . S
C48 C45 1.431 . S
C48 C58 1.476 . S
H49 C43 0.929 . S
C50 O41 1.250 . S
C50 O42 1.258 . S
O51 Mn36 2.162 . S
O51 C39 1.281 . S
O52 Mn36 2.297 . S
O52 C39 1.236 . S
N53 Mn37 2.282 1_554 S
N53 C54 1.328 . S
N53 C58 1.318 . S
C54 N53 1.328 . S
C54 C55 1.457 . S
C54 H59 0.932 . S
C55 C54 1.457 . S
C55 C56 1.291 . S
C55 H68 0.931 . S
C56 C55 1.291 . S
C56 C57 1.373 . S
C56 H69 0.929 . S
C57 C56 1.373 . S
C57 C58 1.396 . S
C57 C64 1.403 . S
C58 C48 1.476 . S
C58 N53 1.318 . S
C58 C57 1.396 . S
H59 C54 0.932 . S
O60 Mn36 2.385 . S
O60 C38 1.234 . S
O61 Mn36 2.209 . S
O61 Mn37 2.215 1_554 S
O61 C38 1.283 . S
O62 Mn36 2.094 1_556 S
O62 C40 1.240 . S
O63 Mn37 2.117 . S
O63 C40 1.264 . S
C64 C57 1.403 . S
C64 C65 1.399 . S
C64 H70 0.929 . S
C65 C45 1.449 . S
C65 C64 1.399 . S
C65 H71 0.930 . S
H66 C46 0.931 . S
H67 C47 0.930 . S
H68 C55 0.931 . S
H69 C56 0.929 . S
H70 C64 0.929 . S
H71 C65 0.930 . S
Mn72 O77 2.095 1_564 S
Mn72 O87 2.162 . S
Mn72 O88 2.297 . S
Mn72 O96 2.385 . S
Mn72 O97 2.209 1_565 S
Mn72 O98 2.094 1_554 S
Mn73 O78 2.121 1_554 S
Mn73 N80 2.257 . S
Mn73 N89 2.282 . S
Mn73 O97 2.215 . S
Mn73 O99 2.117 1_554 S
C74 O96 1.234 1_545 S
C74 O97 1.283 . S
C75 O87 1.281 . S
C75 O88 1.236 . S
C76 O98 1.240 . S
C76 O99 1.264 1_565 S
O77 Mn72 2.095 1_546 S
O77 C86 1.250 . S
O78 Mn73 2.121 1_556 S
O78 C86 1.258 . S
C79 N80 1.326 . S
C79 C83 1.460 . S
C79 H85 0.929 . S
N80 Mn73 2.257 . S
N80 C79 1.326 . S
N80 C84 1.362 . S
C81 C82 1.258 . S
C81 C84 1.431 . S
C81 C101 1.449 . S
C82 C81 1.258 . S
C82 C83 1.477 . S
C82 H102 0.931 . S
C83 C79 1.460 . S
C83 C82 1.477 . S
C83 H103 0.930 . S
C84 N80 1.362 . S
C84 C81 1.431 . S
C84 C94 1.476 . S
H85 C79 0.929 . S
C86 O77 1.250 . S
C86 O78 1.258 . S
O87 Mn72 2.162 . S
O87 C75 1.281 . S
O88 Mn72 2.297 . S
O88 C75 1.236 . S
N89 Mn73 2.282 . S
N89 C90 1.328 . S
N89 C94 1.318 . S
C90 N89 1.328 . S
C90 C91 1.457 . S
C90 H95 0.929 . S
C91 C90 1.457 . S
C91 C92 1.291 . S
C91 H104 0.931 . S
C92 C91 1.291 . S
C92 C93 1.373 . S
C92 H105 0.929 . S
C93 C92 1.373 . S
C93 C94 1.396 . S
C93 C100 1.403 . S
C94 C84 1.476 . S
C94 N89 1.318 . S
C94 C93 1.396 . S
H95 C90 0.929 . S
O96 Mn72 2.385 . S
O96 C74 1.234 1_565 S
O97 Mn72 2.209 1_545 S
O97 Mn73 2.215 . S
O97 C74 1.283 . S
O98 Mn72 2.094 1_556 S
O98 C76 1.240 . S
O99 Mn73 2.117 1_556 S
O99 C76 1.264 1_545 S
C100 C93 1.403 . S
C100 C101 1.399 . S
C100 H106 0.929 . S
C101 C81 1.449 . S
C101 C100 1.399 . S
C101 H107 0.930 . S
H102 C82 0.931 . S
H103 C83 0.930 . S
H104 C91 0.931 . S
H105 C92 0.929 . S
H106 C100 0.929 . S
H107 C101 0.930 . S
Mn108 O113 2.095 1_655 S
Mn108 O123 2.162 . S
Mn108 O124 2.297 1_554 S
Mn108 O132 2.385 1_554 S
Mn108 O133 2.209 1_654 S
Mn108 O134 2.094 . S
Mn109 O114 2.121 . S
Mn109 N116 2.257 1_554 S
Mn109 N125 2.282 . S
Mn109 O133 2.215 1_554 S
Mn109 O135 2.117 . S
C110 O132 1.234 1_455 S
C110 O133 1.283 . S
C111 O123 1.281 1_556 S
C111 O124 1.236 . S
C112 O134 1.240 . S
C112 O135 1.264 1_655 S
O113 Mn108 2.095 1_455 S
O113 C122 1.250 . S
O114 Mn109 2.121 . S
O114 C122 1.258 . S
C115 N116 1.326 . S
C115 C119 1.460 . S
C115 H121 0.929 . S
N116 Mn109 2.257 1_556 S
N116 C115 1.326 . S
N116 C120 1.362 . S
C117 C118 1.258 . S
C117 C120 1.431 . S
C117 C137 1.449 . S
C118 C117 1.258 . S
C118 C119 1.477 . S
C118 H138 0.931 . S
C119 C115 1.460 . S
C119 C118 1.477 . S
C119 H139 0.930 . S
C120 N116 1.362 . S
C120 C117 1.431 . S
C120 C130 1.476 . S
H121 C115 0.929 . S
C122 O113 1.250 . S
C122 O114 1.258 . S
O123 Mn108 2.162 . S
O123 C111 1.281 1_554 S
O124 Mn108 2.297 1_556 S
O124 C111 1.236 . S
N125 Mn109 2.282 . S
N125 C126 1.328 . S
N125 C130 1.318 1_554 S
C126 N125 1.328 . S
C126 C127 1.437 1_554 S
C126 H131 0.929 . S
C127 C126 1.437 1_556 S
C127 C128 1.319 . S
C127 H140 0.924 1_556 S
C128 C127 1.319 . S
C128 C129 1.373 . S
C128 H141 0.929 . S
C129 C128 1.373 . S
C129 C130 1.396 . S
C129 C136 1.403 . S
C130 C120 1.476 . S
C130 N125 1.318 1_556 S
C130 C129 1.396 . S
H131 C126 0.929 . S
O132 Mn108 2.385 1_556 S
O132 C110 1.234 1_655 S
O133 Mn108 2.209 1_456 S
O133 Mn109 2.215 1_556 S
O133 C110 1.283 . S
O134 Mn108 2.094 . S
O134 C112 1.240 . S
O135 Mn109 2.117 . S
O135 C112 1.264 1_455 S
C136 C129 1.403 . S
C136 C137 1.399 . S
C136 H142 0.929 . S
C137 C117 1.449 . S
C137 C136 1.399 . S
C137 H143 0.930 . S
H138 C118 0.931 . S
H139 C119 0.930 . S
H140 C127 0.924 1_554 S
H141 C128 0.929 . S
H142 C136 0.929 . S
H143 C137 0.930 . S
Mn144 O149 2.095 1_554 S
Mn144 O159 2.162 . S
Mn144 O160 2.297 . S
Mn144 O168 2.385 . S
Mn144 O169 2.209 . S
Mn144 O170 2.094 1_554 S
Mn145 O150 2.126 . S
Mn145 N152 2.242 1_556 S
Mn145 N161 2.272 1_556 S
Mn145 O169 2.194 1_556 S
Mn145 O171 2.132 . S
C146 O168 1.234 . S
C146 O169 1.283 . S
C147 O159 1.281 . S
C147 O160 1.236 . S
C148 O170 1.240 . S
C148 O171 1.264 . S
O149 Mn144 2.095 1_556 S
O149 C158 1.250 . S
O150 Mn145 2.126 . S
O150 C158 1.258 . S
C151 N152 1.326 . S
C151 C155 1.460 . S
C151 H157 0.929 . S
N152 Mn145 2.242 1_554 S
N152 C151 1.326 . S
N152 C156 1.362 . S
C153 C154 1.258 . S
C153 C156 1.431 . S
C153 C173 1.449 . S
C154 C153 1.258 . S
C154 C155 1.477 . S
C154 H174 0.931 . S
C155 C151 1.460 . S
C155 C154 1.477 . S
C155 H175 0.930 . S
C156 N152 1.362 . S
C156 C153 1.431 . S
C156 C166 1.476 . S
H157 C151 0.929 . S
C158 O149 1.250 . S
C158 O150 1.258 . S
O159 Mn144 2.162 . S
O159 C147 1.281 . S
O160 Mn144 2.297 . S
O160 C147 1.236 . S
N161 Mn145 2.272 1_554 S
N161 C162 1.328 . S
N161 C166 1.318 . S
C162 N161 1.328 . S
C162 C163 1.457 . S
C162 H167 0.929 . S
C163 C162 1.457 . S
C163 C164 1.291 . S
C163 H176 0.931 . S
C164 C163 1.291 . S
C164 C165 1.373 . S
C164 H177 0.929 . S
C165 C164 1.373 . S
C165 C166 1.396 . S
C165 C172 1.403 . S
C166 C156 1.476 . S
C166 N161 1.318 . S
C166 C165 1.396 . S
H167 C162 0.929 . S
O168 Mn144 2.385 . S
O168 C146 1.234 . S
O169 Mn144 2.209 . S
O169 Mn145 2.194 1_554 S
O169 C146 1.283 . S
O170 Mn144 2.094 1_556 S
O170 C148 1.240 . S
O171 Mn145 2.132 . S
O171 C148 1.264 . S
C172 C165 1.403 . S
C172 C173 1.399 . S
C172 H178 0.929 . S
C173 C153 1.449 . S
C173 C172 1.399 . S
C173 H179 0.930 . S
H174 C154 0.931 . S
H175 C155 0.930 . S
H176 C163 0.931 . S
H177 C164 0.929 . S
H178 C172 0.929 . S
H179 C173 0.930 . S
Mn180 O185 2.095 1_545 S
Mn180 O195 2.162 . S
Mn180 O196 2.297 1_554 S
Mn180 O204 2.385 1_554 S
Mn180 O205 2.209 1_544 S
Mn180 O206 2.094 . S
Mn181 O186 2.121 . S
Mn181 N188 2.257 1_554 S
Mn181 N197 2.282 . S
Mn181 O205 2.215 1_554 S
Mn181 O207 2.117 . S
C182 O204 1.191 1_565 S
C182 O205 1.325 . S
C183 O195 1.281 1_556 S
C183 O196 1.236 . S
C184 O206 1.240 . S
C184 O207 1.264 1_545 S
O185 Mn180 2.095 1_565 S
O185 C194 1.250 . S
O186 Mn181 2.121 . S
O186 C194 1.258 . S
C187 N188 1.326 . S
C187 C191 1.460 . S
C187 H193 0.932 1_556 S
N188 Mn181 2.257 1_556 S
N188 C187 1.326 . S
N188 C192 1.362 . S
C189 C190 1.258 . S
C189 C192 1.431 . S
C189 C209 1.449 . S
C190 C189 1.258 . S
C190 C191 1.477 . S
C190 H210 0.931 . S
C191 C187 1.460 . S
C191 C190 1.477 . S
C191 H211 0.930 . S
C192 N188 1.362 . S
C192 C189 1.431 . S
C192 C202 1.476 . S
H193 C187 0.932 1_554 S
C194 O185 1.250 . S
C194 O186 1.258 . S
O195 Mn180 2.162 . S
O195 C183 1.281 1_554 S
O196 Mn180 2.297 1_556 S
O196 C183 1.236 . S
N197 Mn181 2.282 . S
N197 C198 1.328 . S
N197 C202 1.318 1_554 S
C198 N197 1.328 . S
C198 C199 1.456 1_554 S
C198 H203 0.929 . S
C199 C198 1.456 1_556 S
C199 C200 1.292 . S
C199 H212 0.930 1_556 S
C200 C199 1.292 . S
C200 C201 1.373 . S
C200 H213 0.929 . S
C201 C200 1.373 . S
C201 C202 1.396 . S
C201 C208 1.403 . S
C202 C192 1.476 . S
C202 N197 1.318 1_556 S
C202 C201 1.396 . S
H203 C198 0.929 . S
O204 Mn180 2.385 1_556 S
O204 C182 1.191 1_545 S
O205 Mn180 2.209 1_566 S
O205 Mn181 2.215 1_556 S
O205 C182 1.325 . S
O206 Mn180 2.094 . S
O206 C184 1.240 . S
O207 Mn181 2.117 . S
O207 C184 1.264 1_565 S
C208 C201 1.403 . S
C208 C209 1.399 . S
C208 H214 0.929 . S
C209 C189 1.449 . S
C209 C208 1.399 . S
C209 H215 0.930 . S
H210 C190 0.931 . S
H211 C191 0.930 . S
H212 C199 0.930 1_554 S
H213 C200 0.929 . S
H214 C208 0.929 . S
H215 C209 0.930 . S
Mn216 O221 2.095 . S
Mn216 O231 2.162 . S
Mn216 O232 2.297 . S
Mn216 O240 2.385 . S
Mn216 O241 2.209 . S
Mn216 O242 2.094 . S
Mn217 O222 2.121 . S
Mn217 N224 2.257 . S
Mn217 N233 2.282 . S
Mn217 O241 2.215 . S
Mn217 O243 2.117 . S
C218 O240 1.234 . S
C218 O241 1.283 . S
C219 O231 1.281 . S
C219 O232 1.236 . S
C220 O242 1.240 . S
C220 O243 1.264 . S
O221 Mn216 2.095 . S
O221 C230 1.250 . S
O222 Mn217 2.121 . S
O222 C230 1.258 . S
C223 N224 1.326 . S
C223 C227 1.460 . S
C223 H229 0.929 . S
N224 Mn217 2.257 . S
N224 C223 1.326 . S
N224 C228 1.362 . S
C225 C226 1.258 . S
C225 C228 1.431 . S
C225 C245 1.449 . S
C226 C225 1.258 . S
C226 C227 1.477 . S
C226 H246 0.931 . S
C227 C223 1.460 . S
C227 C226 1.477 . S
C227 H247 0.930 . S
C228 N224 1.362 . S
C228 C225 1.431 . S
C228 C238 1.476 . S
H229 C223 0.929 . S
C230 O221 1.250 . S
C230 O222 1.258 . S
O231 Mn216 2.162 . S
O231 C219 1.281 . S
O232 Mn216 2.297 . S
O232 C219 1.236 . S
N233 Mn217 2.282 . S
N233 C234 1.328 . S
N233 C238 1.318 . S
C234 N233 1.328 . S
C234 C235 1.457 . S
C234 H239 0.929 . S
C235 C234 1.457 . S
C235 C236 1.291 . S
C235 H248 0.931 . S
C236 C235 1.291 . S
C236 C237 1.373 . S
C236 H249 0.929 . S
C237 C236 1.373 . S
C237 C238 1.396 . S
C237 C244 1.403 . S
C238 C228 1.476 . S
C238 N233 1.318 . S
C238 C237 1.396 . S
H239 C234 0.929 . S
O240 Mn216 2.385 . S
O240 C218 1.234 . S
O241 Mn216 2.209 . S
O241 Mn217 2.215 . S
O241 C218 1.283 . S
O242 Mn216 2.094 . S
O242 C220 1.240 . S
O243 Mn217 2.117 . S
O243 C220 1.264 . S
C244 C237 1.403 . S
C244 C245 1.399 . S
C244 H250 0.929 . S
C245 C225 1.449 . S
C245 C244 1.399 . S
C245 H251 0.930 . S
H246 C226 0.931 . S
H247 C227 0.930 . S
H248 C235 0.931 . S
H249 C236 0.929 . S
H250 C244 0.929 . S
H251 C245 0.930 . S
Mn252 O257 2.095 . S
Mn252 O267 2.162 1_565 S
Mn252 O268 2.297 1_565 S
Mn252 O276 2.385 . S
Mn252 O277 2.209 . S
Mn252 O278 2.094 . S
Mn253 O258 2.121 . S
Mn253 N260 2.257 . S
Mn253 N269 2.282 . S
Mn253 O277 2.215 . S
Mn253 O279 2.117 . S
C254 O276 1.234 . S
C254 O277 1.283 . S
C255 O267 1.281 . S
C255 O268 1.236 . S
C256 O278 1.240 . S
C256 O279 1.264 . S
O257 Mn252 2.095 . S
O257 C266 1.250 . S
O258 Mn253 2.121 . S
O258 C266 1.258 . S
C259 N260 1.326 . S
C259 C263 1.460 . S
C259 H265 0.929 . S
N260 Mn253 2.257 . S
N260 C259 1.326 . S
N260 C264 1.362 . S
C261 C262 1.258 . S
C261 C264 1.431 . S
C261 C281 1.449 . S
C262 C261 1.258 . S
C262 C263 1.477 . S
C262 H282 0.931 . S
C263 C259 1.460 . S
C263 C262 1.477 . S
C263 H283 0.930 . S
C264 N260 1.362 . S
C264 C261 1.431 . S
C264 C274 1.476 . S
H265 C259 0.929 . S
C266 O257 1.250 . S
C266 O258 1.258 . S
O267 Mn252 2.162 1_545 S
O267 C255 1.281 . S
O268 Mn252 2.297 1_545 S
O268 C255 1.236 . S
N269 Mn253 2.282 . S
N269 C270 1.328 . S
N269 C274 1.318 . S
C270 N269 1.328 . S
C270 C271 1.457 . S
C270 H275 0.929 . S
C271 C270 1.457 . S
C271 C272 1.291 . S
C271 H284 0.931 . S
C272 C271 1.291 . S
C272 C273 1.373 . S
C272 H285 0.929 . S
C273 C272 1.373 . S
C273 C274 1.396 . S
C273 C280 1.403 . S
C274 C264 1.476 . S
C274 N269 1.318 . S
C274 C273 1.396 . S
H275 C270 0.929 . S
O276 Mn252 2.385 . S
O276 C254 1.234 . S
O277 Mn252 2.209 . S
O277 Mn253 2.215 . S
O277 C254 1.283 . S
O278 Mn252 2.094 . S
O278 C256 1.240 . S
O279 Mn253 2.117 . S
O279 C256 1.264 . S
C280 C273 1.403 . S
C280 C281 1.399 . S
C280 H286 0.929 . S
C281 C261 1.449 . S
C281 C280 1.399 . S
C281 H287 0.930 . S
H282 C262 0.931 . S
H283 C263 0.930 . S
H284 C271 0.931 . S
H285 C272 0.929 . S
H286 C280 0.929 . S
H287 C281 0.930 . S
Mn288 O293 2.095 . S
Mn288 O303 2.162 1_455 S
Mn288 O304 2.297 1_455 S
Mn288 O312 2.385 . S
Mn288 O313 2.209 . S
Mn288 O314 2.094 . S
Mn289 O294 2.121 . S
Mn289 N296 2.257 . S
Mn289 N305 2.282 . S
Mn289 O313 2.215 . S
Mn289 O315 2.117 . S
C290 O312 1.234 . S
C290 O313 1.283 . S
C291 O303 1.281 . S
C291 O304 1.236 . S
C292 O314 1.240 . S
C292 O315 1.264 . S
O293 Mn288 2.095 . S
O293 C302 1.250 . S
O294 Mn289 2.121 . S
O294 C302 1.258 . S
C295 N296 1.326 . S
C295 C299 1.460 . S
C295 H301 0.929 . S
N296 Mn289 2.257 . S
N296 C295 1.326 . S
N296 C300 1.362 . S
C297 C298 1.258 . S
C297 C300 1.431 . S
C297 C317 1.449 . S
C298 C297 1.258 . S
C298 C299 1.477 . S
C298 H318 0.931 . S
C299 C295 1.460 . S
C299 C298 1.477 . S
C299 H319 0.930 . S
C300 N296 1.362 . S
C300 C297 1.431 . S
C300 C310 1.476 . S
H301 C295 0.929 . S
C302 O293 1.250 . S
C302 O294 1.258 . S
O303 Mn288 2.162 1_655 S
O303 C291 1.281 . S
O304 Mn288 2.297 1_655 S
O304 C291 1.236 . S
N305 Mn289 2.282 . S
N305 C306 1.328 . S
N305 C310 1.318 . S
C306 N305 1.328 . S
C306 C307 1.457 . S
C306 H311 0.929 . S
C307 C306 1.457 . S
C307 C308 1.291 . S
C307 H320 0.931 . S
C308 C307 1.291 . S
C308 C309 1.373 . S
C308 H321 0.929 . S
C309 C308 1.373 . S
C309 C310 1.396 . S
C309 C316 1.403 . S
C310 C300 1.476 . S
C310 N305 1.318 . S
C310 C309 1.396 . S
H311 C306 0.929 . S
O312 Mn288 2.385 . S
O312 C290 1.234 . S
O313 Mn288 2.209 . S
O313 Mn289 2.215 . S
O313 C290 1.283 . S
O314 Mn288 2.094 . S
O314 C292 1.240 . S
O315 Mn289 2.117 . S
O315 C292 1.264 . S
C316 C309 1.403 . S
C316 C317 1.399 . S
C316 H322 0.929 . S
C317 C297 1.449 . S
C317 C316 1.399 . S
C317 H323 0.930 . S
H318 C298 0.931 . S
H319 C299 0.930 . S
H320 C307 0.931 . S
H321 C308 0.929 . S
H322 C316 0.929 . S
H323 C317 0.930 . S
Mn324 O329 2.095 . S
Mn324 O339 2.162 . S
Mn324 O340 2.297 . S
Mn324 O348 2.385 . S
Mn324 O349 2.209 . S
Mn324 O350 2.094 . S
Mn325 O330 2.121 1_565 S
Mn325 N332 2.257 . S
Mn325 N341 2.282 . S
Mn325 O349 2.215 . S
Mn325 O351 2.117 . S
C326 O348 1.234 . S
C326 O349 1.283 . S
C327 O339 1.281 . S
C327 O340 1.236 . S
C328 O350 1.240 . S
C328 O351 1.264 . S
O329 Mn324 2.095 . S
O329 C338 1.250 1_565 S
O330 Mn325 2.121 1_545 S
O330 C338 1.258 . S
C331 N332 1.326 1_545 S
C331 C335 1.460 . S
C331 H337 0.929 . S
N332 Mn325 2.257 . S
N332 C331 1.326 1_565 S
N332 C336 1.362 . S
C333 C334 1.258 . S
C333 C336 1.431 . S
C333 C353 1.449 . S
C334 C333 1.258 . S
C334 C335 1.477 1_565 S
C334 H354 0.929 . S
C335 C331 1.460 . S
C335 C334 1.477 1_545 S
C335 H355 0.930 . S
C336 N332 1.362 . S
C336 C333 1.431 . S
C336 C346 1.476 . S
H337 C331 0.929 . S
C338 O329 1.250 1_545 S
C338 O330 1.258 . S
O339 Mn324 2.162 . S
O339 C327 1.281 . S
O340 Mn324 2.297 . S
O340 C327 1.236 . S
N341 Mn325 2.282 . S
N341 C342 1.328 . S
N341 C346 1.318 . S
C342 N341 1.328 . S
C342 C343 1.457 . S
C342 H347 0.929 . S
C343 C342 1.457 . S
C343 C344 1.291 . S
C343 H356 0.931 . S
C344 C343 1.291 . S
C344 C345 1.373 . S
C344 H357 0.929 . S
C345 C344 1.373 . S
C345 C346 1.396 . S
C345 C352 1.403 . S
C346 C336 1.476 . S
C346 N341 1.318 . S
C346 C345 1.396 . S
H347 C342 0.929 . S
O348 Mn324 2.385 . S
O348 C326 1.234 . S
O349 Mn324 2.209 . S
O349 Mn325 2.215 . S
O349 C326 1.283 . S
O350 Mn324 2.094 . S
O350 C328 1.240 . S
O351 Mn325 2.117 . S
O351 C328 1.264 . S
C352 C345 1.403 . S
C352 C353 1.399 . S
C352 H358 0.929 . S
C353 C333 1.449 . S
C353 C352 1.399 . S
C353 H359 0.930 . S
H354 C334 0.929 . S
H355 C335 0.930 . S
H356 C343 0.931 . S
H357 C344 0.929 . S
H358 C352 0.929 . S
H359 C353 0.930 . S
Mn360 O365 2.095 . S
Mn360 O375 2.162 1_455 S
Mn360 O376 2.295 . S
Mn360 O384 2.385 . S
Mn360 O385 2.209 . S
Mn360 O386 2.094 . S
Mn361 O366 2.121 . S
Mn361 N368 2.257 . S
Mn361 N377 2.282 . S
Mn361 O385 2.215 . S
Mn361 O387 2.117 . S
C362 O384 1.234 . S
C362 O385 1.283 . S
C363 O375 1.281 . S
C363 O376 1.241 1_655 S
C364 O386 1.240 . S
C364 O387 1.264 . S
O365 Mn360 2.095 . S
O365 C374 1.250 . S
O366 Mn361 2.121 . S
O366 C374 1.258 . S
C367 N368 1.326 . S
C367 C371 1.460 . S
C367 H373 0.929 . S
N368 Mn361 2.257 . S
N368 C367 1.326 . S
N368 C372 1.362 . S
C369 C370 1.258 . S
C369 C372 1.431 . S
C369 C389 1.449 . S
C370 C369 1.258 . S
C370 C371 1.477 . S
C370 H390 0.931 . S
C371 C367 1.460 . S
C371 C370 1.477 . S
C371 H391 0.930 . S
C372 N368 1.362 . S
C372 C369 1.431 . S
C372 C382 1.476 . S
H373 C367 0.929 . S
C374 O365 1.250 . S
C374 O366 1.258 . S
O375 Mn360 2.162 1_655 S
O375 C363 1.281 . S
O376 Mn360 2.295 . S
O376 C363 1.241 1_455 S
N377 Mn361 2.282 . S
N377 C378 1.328 . S
N377 C382 1.318 . S
C378 N377 1.328 . S
C378 C379 1.457 . S
C378 H383 0.929 . S
C379 C378 1.457 . S
C379 C380 1.291 . S
C379 H392 0.931 . S
C380 C379 1.291 . S
C380 C381 1.373 . S
C380 H393 0.929 . S
C381 C380 1.373 . S
C381 C382 1.396 . S
C381 C388 1.403 . S
C382 C372 1.476 . S
C382 N377 1.318 . S
C382 C381 1.396 . S
H383 C378 0.929 . S
O384 Mn360 2.385 . S
O384 C362 1.234 . S
O385 Mn360 2.209 . S
O385 Mn361 2.215 . S
O385 C362 1.283 . S
O386 Mn360 2.094 . S
O386 C364 1.240 . S
O387 Mn361 2.117 . S
O387 C364 1.264 . S
C388 C381 1.403 . S
C388 C389 1.399 . S
C388 H394 0.929 . S
C389 C369 1.449 . S
C389 C388 1.399 . S
C389 H395 0.930 . S
H390 C370 0.931 . S
H391 C371 0.930 . S
H392 C379 0.931 . S
H393 C380 0.929 . S
H394 C388 0.929 . S
H395 C389 0.930 . S
Mn396 O401 2.095 . S
Mn396 O411 2.162 . S
Mn396 O412 2.297 . S
Mn396 O420 2.385 . S
Mn396 O421 2.209 . S
Mn396 O422 2.094 . S
Mn397 O402 2.121 . S
Mn397 N404 2.257 . S
Mn397 N413 2.282 . S
Mn397 O421 2.215 . S
Mn397 O423 2.117 . S
C398 O420 1.234 . S
C398 O421 1.283 . S
C399 O411 1.281 . S
C399 O412 1.236 . S
C400 O422 1.240 . S
C400 O423 1.264 . S
O401 Mn396 2.095 . S
O401 C410 1.250 . S
O402 Mn397 2.121 . S
O402 C410 1.258 . S
C403 N404 1.326 . S
C403 C407 1.460 . S
C403 H409 0.929 . S
N404 Mn397 2.257 . S
N404 C403 1.326 . S
N404 C408 1.362 . S
C405 C406 1.258 . S
C405 C408 1.431 . S
C405 C425 1.449 . S
C406 C405 1.258 . S
C406 C407 1.477 . S
C406 H426 0.931 . S
C407 C403 1.460 . S
C407 C406 1.477 . S
C407 H427 0.930 . S
C408 N404 1.362 . S
C408 C405 1.431 . S
C408 C418 1.476 . S
H409 C403 0.929 . S
C410 O401 1.250 . S
C410 O402 1.258 . S
O411 Mn396 2.162 . S
O411 C399 1.281 . S
O412 Mn396 2.297 . S
O412 C399 1.236 . S
N413 Mn397 2.282 . S
N413 C414 1.328 . S
N413 C418 1.318 . S
C414 N413 1.328 . S
C414 C415 1.457 . S
C414 H419 0.929 . S
C415 C414 1.457 . S
C415 C416 1.291 . S
C415 H428 0.931 . S
C416 C415 1.291 . S
C416 C417 1.373 . S
C416 H429 0.929 . S
C417 C416 1.373 . S
C417 C418 1.396 . S
C417 C424 1.403 . S
C418 C408 1.476 . S
C418 N413 1.318 . S
C418 C417 1.396 . S
H419 C414 0.929 . S
O420 Mn396 2.385 . S
O420 C398 1.234 . S
O421 Mn396 2.209 . S
O421 Mn397 2.215 . S
O421 C398 1.283 . S
O422 Mn396 2.094 . S
O422 C400 1.240 . S
O423 Mn397 2.117 . S
O423 C400 1.264 . S
C424 C417 1.403 . S
C424 C425 1.399 . S
C424 H430 0.929 . S
C425 C405 1.449 . S
C425 C424 1.399 . S
C425 H431 0.930 . S
H426 C406 0.931 . S
H427 C407 0.930 . S
H428 C415 0.931 . S
H429 C416 0.929 . S
H430 C424 0.929 . S
H431 C425 0.930 . S
Mn432 O437 2.095 . S
Mn432 O447 2.162 1_545 S
Mn432 O448 2.299 1_545 S
Mn432 O456 2.385 . S
Mn432 O457 2.209 . S
Mn432 O458 2.094 . S
Mn433 O438 2.121 . S
Mn433 N440 2.257 . S
Mn433 N449 2.282 . S
Mn433 O457 2.215 . S
Mn433 O459 2.117 . S
C434 O456 1.234 . S
C434 O457 1.283 . S
C435 O447 1.281 . S
C435 O448 1.235 . S
C436 O458 1.240 . S
C436 O459 1.264 . S
O437 Mn432 2.095 . S
O437 C446 1.250 . S
O438 Mn433 2.121 . S
O438 C446 1.258 . S
C439 N440 1.326 . S
C439 C443 1.460 . S
C439 H445 0.929 . S
N440 Mn433 2.257 . S
N440 C439 1.326 . S
N440 C444 1.362 . S
C441 C442 1.258 . S
C441 C444 1.431 . S
C441 C461 1.449 . S
C442 C441 1.258 . S
C442 C443 1.477 . S
C442 H462 0.931 . S
C443 C439 1.460 . S
C443 C442 1.477 . S
C443 H463 0.930 . S
C444 N440 1.362 . S
C444 C441 1.431 . S
C444 C454 1.476 . S
H445 C439 0.929 . S
C446 O437 1.250 . S
C446 O438 1.258 . S
O447 Mn432 2.162 1_565 S
O447 C435 1.281 . S
O448 Mn432 2.299 1_565 S
O448 C435 1.235 . S
N449 Mn433 2.282 . S
N449 C450 1.328 . S
N449 C454 1.318 . S
C450 N449 1.328 . S
C450 C451 1.457 . S
C450 H455 0.929 . S
C451 C450 1.457 . S
C451 C452 1.291 . S
C451 H464 0.931 . S
C452 C451 1.291 . S
C452 C453 1.373 . S
C452 H465 0.929 . S
C453 C452 1.373 . S
C453 C454 1.396 . S
C453 C460 1.403 . S
C454 C444 1.476 . S
C454 N449 1.318 . S
C454 C453 1.396 . S
H455 C450 0.929 . S
O456 Mn432 2.385 . S
O456 C434 1.234 . S
O457 Mn432 2.209 . S
O457 Mn433 2.215 . S
O457 C434 1.283 . S
O458 Mn432 2.094 . S
O458 C436 1.240 . S
O459 Mn433 2.117 . S
O459 C436 1.264 . S
C460 C453 1.403 . S
C460 C461 1.399 . S
C460 H466 0.929 . S
C461 C441 1.449 . S
C461 C460 1.399 . S
C461 H467 0.930 . S
H462 C442 0.931 . S
H463 C443 0.930 . S
H464 C451 0.931 . S
H465 C452 0.929 . S
H466 C460 0.929 . S
H467 C461 0.930 . S
Mn468 O473 2.095 . S
Mn468 O483 2.162 . S
Mn468 O484 2.297 . S
Mn468 O492 2.385 . S
Mn468 O493 2.209 . S
Mn468 O494 2.094 . S
Mn469 O474 2.078 1_655 S
Mn469 N476 2.257 . S
Mn469 N485 2.282 . S
Mn469 O493 2.215 . S
Mn469 O495 2.117 . S
C470 O492 1.234 . S
C470 O493 1.283 . S
C471 O483 1.281 . S
C471 O484 1.236 . S
C472 O494 1.240 . S
C472 O495 1.264 . S
O473 Mn468 2.095 . S
O473 C482 1.250 1_655 S
O474 Mn469 2.078 1_455 S
O474 C482 1.238 . S
C475 N476 1.326 1_455 S
C475 C479 1.460 . S
C475 H481 0.929 . S
N476 Mn469 2.257 . S
N476 C475 1.326 1_655 S
N476 C480 1.362 . S
C477 C478 1.258 . S
C477 C480 1.431 . S
C477 C497 1.449 . S
C478 C477 1.258 . S
C478 C479 1.477 1_655 S
C478 H498 0.932 . S
C479 C475 1.460 . S
C479 C478 1.477 1_455 S
C479 H499 0.930 . S
C480 N476 1.362 . S
C480 C477 1.431 . S
C480 C490 1.476 . S
H481 C475 0.929 . S
C482 O473 1.250 1_455 S
C482 O474 1.238 . S
O483 Mn468 2.162 . S
O483 C471 1.281 . S
O484 Mn468 2.297 . S
O484 C471 1.236 . S
N485 Mn469 2.282 . S
N485 C486 1.328 . S
N485 C490 1.318 . S
C486 N485 1.328 . S
C486 C487 1.457 . S
C486 H491 0.929 . S
C487 C486 1.457 . S
C487 C488 1.291 . S
C487 H500 0.931 . S
C488 C487 1.291 . S
C488 C489 1.373 . S
C488 H501 0.929 . S
C489 C488 1.373 . S
C489 C490 1.396 . S
C489 C496 1.403 . S
C490 C480 1.476 . S
C490 N485 1.318 . S
C490 C489 1.396 . S
H491 C486 0.929 . S
O492 Mn468 2.385 . S
O492 C470 1.234 . S
O493 Mn468 2.209 . S
O493 Mn469 2.215 . S
O493 C470 1.283 . S
O494 Mn468 2.094 . S
O494 C472 1.240 . S
O495 Mn469 2.117 . S
O495 C472 1.264 . S
C496 C489 1.403 . S
C496 C497 1.399 . S
C496 H502 0.929 . S
C497 C477 1.449 . S
C497 C496 1.399 . S
C497 H503 0.930 . S
H498 C478 0.932 . S
H499 C479 0.930 . S
H500 C487 0.931 . S
H501 C488 0.929 . S
H502 C496 0.929 . S
H503 C497 0.930 . S
Mn504 O509 2.095 . S
Mn504 O519 2.162 . S
Mn504 O520 2.297 . S
Mn504 O528 2.385 . S
Mn504 O529 2.209 . S
Mn504 O530 2.094 . S
Mn505 O510 2.121 . S
Mn505 N512 2.257 . S
Mn505 N521 2.282 . S
Mn505 O529 2.215 . S
Mn505 O531 2.117 . S
C506 O528 1.234 . S
C506 O529 1.283 . S
C507 O519 1.281 . S
C507 O520 1.236 . S
C508 O530 1.240 . S
C508 O531 1.264 . S
O509 Mn504 2.095 . S
O509 C518 1.250 . S
O510 Mn505 2.121 . S
O510 C518 1.258 . S
C511 N512 1.326 . S
C511 C515 1.460 . S
C511 H517 0.929 . S
N512 Mn505 2.257 . S
N512 C511 1.326 . S
N512 C516 1.362 . S
C513 C514 1.258 . S
C513 C516 1.431 . S
C513 C533 1.449 . S
C514 C513 1.258 . S
C514 C515 1.477 . S
C514 H534 0.931 . S
C515 C511 1.460 . S
C515 C514 1.477 . S
C515 H535 0.930 . S
C516 N512 1.362 . S
C516 C513 1.431 . S
C516 C526 1.476 . S
H517 C511 0.929 . S
C518 O509 1.250 . S
C518 O510 1.258 . S
O519 Mn504 2.162 . S
O519 C507 1.281 . S
O520 Mn504 2.297 . S
O520 C507 1.236 . S
N521 Mn505 2.282 . S
N521 C522 1.328 . S
N521 C526 1.318 . S
C522 N521 1.328 . S
C522 C523 1.457 . S
C522 H527 0.929 . S
C523 C522 1.457 . S
C523 C524 1.291 . S
C523 H536 0.931 . S
C524 C523 1.291 . S
C524 C525 1.373 . S
C524 H537 0.929 . S
C525 C524 1.373 . S
C525 C526 1.396 . S
C525 C532 1.403 . S
C526 C516 1.476 . S
C526 N521 1.318 . S
C526 C525 1.396 . S
H527 C522 0.929 . S
O528 Mn504 2.385 . S
O528 C506 1.234 . S
O529 Mn504 2.209 . S
O529 Mn505 2.215 . S
O529 C506 1.283 . S
O530 Mn504 2.094 . S
O530 C508 1.240 . S
O531 Mn505 2.117 . S
O531 C508 1.264 . S
C532 C525 1.403 . S
C532 C533 1.399 . S
C532 H538 0.929 . S
C533 C513 1.449 . S
C533 C532 1.399 . S
C533 H539 0.930 . S
H534 C514 0.931 . S
H535 C515 0.930 . S
H536 C523 0.931 . S
H537 C524 0.929 . S
H538 C532 0.929 . S
H539 C533 0.930 . S
Mn540 O545 2.095 . S
Mn540 O555 2.162 . S
Mn540 O556 2.297 . S
Mn540 O564 2.385 . S
Mn540 O565 2.209 . S
Mn540 O566 2.094 . S
Mn541 O546 2.121 . S
Mn541 N548 2.257 . S
Mn541 N557 2.282 . S
Mn541 O565 2.215 . S
Mn541 O567 2.117 . S
C542 O564 1.234 . S
C542 O565 1.283 . S
C543 O555 1.281 . S
C543 O556 1.236 . S
C544 O566 1.240 . S
C544 O567 1.264 . S
O545 Mn540 2.095 . S
O545 C554 1.250 . S
O546 Mn541 2.121 . S
O546 C554 1.258 . S
C547 N548 1.326 . S
C547 C551 1.460 . S
C547 H553 0.929 . S
N548 Mn541 2.257 . S
N548 C547 1.326 . S
N548 C552 1.362 . S
C549 C550 1.258 . S
C549 C552 1.431 . S
C549 C569 1.449 . S
C550 C549 1.258 . S
C550 C551 1.477 . S
C550 H570 0.931 . S
C551 C547 1.460 . S
C551 C550 1.477 . S
C551 H571 0.930 . S
C552 N548 1.362 . S
C552 C549 1.431 . S
C552 C562 1.476 . S
H553 C547 0.929 . S
C554 O545 1.250 . S
C554 O546 1.258 . S
O555 Mn540 2.162 . S
O555 C543 1.281 . S
O556 Mn540 2.297 . S
O556 C543 1.236 . S
N557 Mn541 2.282 . S
N557 C558 1.328 . S
N557 C562 1.318 . S
C558 N557 1.328 . S
C558 C559 1.457 . S
C558 H563 0.929 . S
C559 C558 1.457 . S
C559 C560 1.291 . S
C559 H572 0.931 . S
C560 C559 1.291 . S
C560 C561 1.373 . S
C560 H573 0.929 . S
C561 C560 1.373 . S
C561 C562 1.396 . S
C561 C568 1.403 . S
C562 C552 1.476 . S
C562 N557 1.318 . S
C562 C561 1.396 . S
H563 C558 0.929 . S
O564 Mn540 2.385 . S
O564 C542 1.234 . S
O565 Mn540 2.209 . S
O565 Mn541 2.215 . S
O565 C542 1.283 . S
O566 Mn540 2.094 . S
O566 C544 1.240 . S
O567 Mn541 2.117 . S
O567 C544 1.264 . S
C568 C561 1.403 . S
C568 C569 1.399 . S
C568 H574 0.929 . S
C569 C549 1.449 . S
C569 C568 1.399 . S
C569 H575 0.930 . S
H570 C550 0.931 . S
H571 C551 0.930 . S
H572 C559 0.931 . S
H573 C560 0.929 . S
H574 C568 0.929 . S
H575 C569 0.930 . S
Mn576 O581 2.095 . S
Mn576 O591 2.162 . S
Mn576 O592 2.297 . S
Mn576 O600 2.385 . S
Mn576 O601 2.209 . S
Mn576 O602 2.094 . S
Mn577 O582 2.121 1_545 S
Mn577 N584 2.257 . S
Mn577 N593 2.282 . S
Mn577 O601 2.215 . S
Mn577 O603 2.117 . S
C578 O600 1.234 . S
C578 O601 1.283 . S
C579 O591 1.281 . S
C579 O592 1.236 . S
C580 O602 1.240 . S
C580 O603 1.264 . S
O581 Mn576 2.095 . S
O581 C590 1.250 1_545 S
O582 Mn577 2.121 1_565 S
O582 C590 1.258 . S
C583 N584 1.326 1_565 S
C583 C587 1.460 . S
C583 H589 0.929 . S
N584 Mn577 2.257 . S
N584 C583 1.326 1_545 S
N584 C588 1.362 . S
C585 C586 1.258 . S
C585 C588 1.431 . S
C585 C605 1.449 . S
C586 C585 1.258 . S
C586 C587 1.477 1_545 S
C586 H606 0.931 1_545 S
C587 C583 1.460 . S
C587 C586 1.477 1_565 S
C587 H607 0.930 . S
C588 N584 1.362 . S
C588 C585 1.431 . S
C588 C598 1.476 . S
H589 C583 0.929 . S
C590 O581 1.250 1_565 S
C590 O582 1.258 . S
O591 Mn576 2.162 . S
O591 C579 1.281 . S
O592 Mn576 2.297 . S
O592 C579 1.236 . S
N593 Mn577 2.282 . S
N593 C594 1.328 . S
N593 C598 1.318 . S
C594 N593 1.328 . S
C594 C595 1.457 . S
C594 H599 0.929 . S
C595 C594 1.457 . S
C595 C596 1.291 . S
C595 H608 0.931 . S
C596 C595 1.291 . S
C596 C597 1.373 . S
C596 H609 0.929 . S
C597 C596 1.373 . S
C597 C598 1.396 . S
C597 C604 1.403 . S
C598 C588 1.476 . S
C598 N593 1.318 . S
C598 C597 1.396 . S
H599 C594 0.929 . S
O600 Mn576 2.385 . S
O600 C578 1.234 . S
O601 Mn576 2.209 . S
O601 Mn577 2.215 . S
O601 C578 1.283 . S
O602 Mn576 2.094 . S
O602 C580 1.240 . S
O603 Mn577 2.117 . S
O603 C580 1.264 . S
C604 C597 1.403 . S
C604 C605 1.399 . S
C604 H610 0.929 . S
C605 C585 1.449 . S
C605 C604 1.399 . S
C605 H611 0.930 . S
H606 C586 0.931 1_565 S
H607 C587 0.930 . S
H608 C595 0.931 . S
H609 C596 0.929 . S
H610 C604 0.929 . S
H611 C605 0.930 . S
Mn612 O617 2.095 . S
Mn612 O627 2.162 1_655 S
Mn612 O628 2.297 1_655 S
Mn612 O636 2.385 . S
Mn612 O637 2.209 . S
Mn612 O638 2.094 . S
Mn613 O618 2.121 . S
Mn613 N620 2.257 . S
Mn613 N629 2.282 . S
Mn613 O637 2.215 . S
Mn613 O639 2.117 . S
C614 O636 1.234 . S
C614 O637 1.283 . S
C615 O627 1.281 . S
C615 O628 1.236 . S
C616 O638 1.240 . S
C616 O639 1.264 . S
O617 Mn612 2.095 . S
O617 C626 1.250 . S
O618 Mn613 2.121 . S
O618 C626 1.258 . S
C619 N620 1.326 . S
C619 C623 1.460 . S
C619 H625 0.929 . S
N620 Mn613 2.257 . S
N620 C619 1.326 . S
N620 C624 1.362 . S
C621 C622 1.258 . S
C621 C624 1.431 . S
C621 C641 1.449 . S
C622 C621 1.258 . S
C622 C623 1.477 . S
C622 H642 0.931 . S
C623 C619 1.460 . S
C623 C622 1.477 . S
C623 H643 0.930 . S
C624 N620 1.362 . S
C624 C621 1.431 . S
C624 C634 1.476 . S
H625 C619 0.929 . S
C626 O617 1.250 . S
C626 O618 1.258 . S
O627 Mn612 2.162 1_455 S
O627 C615 1.281 . S
O628 Mn612 2.297 1_455 S
O628 C615 1.236 . S
N629 Mn613 2.282 . S
N629 C630 1.328 . S
N629 C634 1.318 . S
C630 N629 1.328 . S
C630 C631 1.457 . S
C630 H635 0.929 . S
C631 C630 1.457 . S
C631 C632 1.291 . S
C631 H644 0.931 . S
C632 C631 1.291 . S
C632 C633 1.373 . S
C632 H645 0.929 . S
C633 C632 1.373 . S
C633 C634 1.396 . S
C633 C640 1.403 . S
C634 C624 1.476 . S
C634 N629 1.318 . S
C634 C633 1.396 . S
H635 C630 0.929 . S
O636 Mn612 2.385 . S
O636 C614 1.234 . S
O637 Mn612 2.209 . S
O637 Mn613 2.215 . S
O637 C614 1.283 . S
O638 Mn612 2.094 . S
O638 C616 1.240 . S
O639 Mn613 2.117 . S
O639 C616 1.264 . S
C640 C633 1.403 . S
C640 C641 1.399 . S
C640 H646 0.929 . S
C641 C621 1.449 . S
C641 C640 1.399 . S
C641 H647 0.930 . S
H642 C622 0.931 . S
H643 C623 0.930 . S
H644 C631 0.931 . S
H645 C632 0.929 . S
H646 C640 0.929 . S
H647 C641 0.930 . S
C648 C649 1.384 . S
C648 C650 1.384 . S
C648 H676 0.931 . S
C649 C648 1.384 . S
C649 C652 1.382 . S
C650 C648 1.384 . S
C650 C651 1.381 . S
C650 H677 0.930 . S
C651 C650 1.381 . S
C651 C653 1.381 . S
C651 C654 1.487 . S
C652 C649 1.382 . S
C652 C653 1.387 . S
C652 H678 0.930 . S
C653 C651 1.381 . S
C653 C652 1.387 . S
C653 H679 0.931 . S
C654 C651 1.487 . S
C654 C661 1.399 . S
C654 N692 1.343 . S
C655 C656 1.384 . S
C655 C657 1.384 . S
C655 H680 0.931 . S
C656 C655 1.384 . S
C656 C659 1.382 . S
C657 C655 1.384 . S
C657 C658 1.381 . S
C657 H681 0.930 . S
C658 C657 1.381 . S
C658 C660 1.381 . S
C658 C661 1.487 . S
C659 C656 1.382 . S
C659 C660 1.387 . S
C659 H682 0.930 . S
C660 C658 1.381 . S
C660 C659 1.387 . S
C660 H683 0.931 . S
C661 C654 1.399 . S
C661 C658 1.487 . S
C661 N693 1.343 . S
C662 C663 1.384 . S
C662 C664 1.384 . S
C662 H684 0.931 . S
C663 C662 1.384 . S
C663 C666 1.382 . S
C664 C662 1.384 . S
C664 C665 1.381 . S
C664 H685 0.930 . S
C665 C664 1.381 . S
C665 C667 1.381 . S
C665 C668 1.487 . S
C666 C663 1.382 . S
C666 C667 1.387 . S
C666 H686 0.930 . S
C667 C665 1.381 . S
C667 C666 1.387 . S
C667 H687 0.931 . S
C668 C665 1.487 . S
C668 C675 1.399 . S
C668 N693 1.343 . S
C669 C670 1.384 . S
C669 C671 1.384 . S
C669 H688 0.931 . S
C670 C669 1.384 . S
C670 C673 1.382 . S
C671 C669 1.384 . S
C671 C672 1.381 . S
C671 H689 0.930 . S
C672 C671 1.381 . S
C672 C674 1.381 . S
C672 C675 1.487 . S
C673 C670 1.382 . S
C673 C674 1.387 . S
C673 H690 0.930 . S
C674 C672 1.381 . S
C674 C673 1.387 . S
C674 H691 0.931 . S
C675 C668 1.399 . S
C675 C672 1.487 . S
C675 N692 1.343 . S
H676 C648 0.931 . S
H677 C650 0.930 . S
H678 C652 0.930 . S
H679 C653 0.931 . S
H680 C655 0.931 . S
H681 C657 0.930 . S
H682 C659 0.930 . S
H683 C660 0.931 . S
H684 C662 0.931 . S
H685 C664 0.930 . S
H686 C666 0.930 . S
H687 C667 0.931 . S
H688 C669 0.931 . S
H689 C671 0.930 . S
H690 C673 0.930 . S
H691 C674 0.931 . S
N692 C654 1.343 . S
N692 C675 1.343 . S
N693 C661 1.343 . S
N693 C668 1.343 . S
C694 C695 1.384 . S
C694 C696 1.384 . S
C694 H722 0.931 . S
C695 C694 1.384 . S
C695 C698 1.382 . S
C696 C694 1.384 . S
C696 C697 1.381 . S
C696 H723 0.930 . S
C697 C696 1.381 . S
C697 C699 1.381 . S
C697 C700 1.487 . S
C698 C695 1.382 . S
C698 C699 1.387 . S
C698 H724 0.930 . S
C699 C697 1.381 . S
C699 C698 1.387 . S
C699 H725 0.931 . S
C700 C697 1.487 . S
C700 C707 1.399 . S
C700 N738 1.343 . S
C701 C702 1.384 . S
C701 C703 1.384 . S
C701 H726 0.931 . S
C702 C701 1.384 . S
C702 C705 1.382 . S
C703 C701 1.384 . S
C703 C704 1.381 . S
C703 H727 0.930 . S
C704 C703 1.381 . S
C704 C706 1.381 . S
C704 C707 1.487 . S
C705 C702 1.382 . S
C705 C706 1.387 . S
C705 H728 0.930 . S
C706 C704 1.381 . S
C706 C705 1.387 . S
C706 H729 0.931 . S
C707 C700 1.399 . S
C707 C704 1.487 . S
C707 N739 1.343 . S
C708 C709 1.384 . S
C708 C710 1.384 . S
C708 H730 0.931 . S
C709 C708 1.384 . S
C709 C712 1.382 . S
C710 C708 1.384 . S
C710 C711 1.381 . S
C710 H731 0.930 . S
C711 C710 1.381 . S
C711 C713 1.381 . S
C711 C714 1.487 . S
C712 C709 1.382 . S
C712 C713 1.387 . S
C712 H732 0.930 . S
C713 C711 1.381 . S
C713 C712 1.387 . S
C713 H733 0.931 . S
C714 C711 1.487 . S
C714 C721 1.399 . S
C714 N739 1.343 . S
C715 C716 1.384 . S
C715 C717 1.384 . S
C715 H734 0.931 . S
C716 C715 1.384 . S
C716 C719 1.382 . S
C717 C715 1.384 . S
C717 C718 1.381 . S
C717 H735 0.930 . S
C718 C717 1.381 . S
C718 C720 1.381 . S
C718 C721 1.487 . S
C719 C716 1.382 . S
C719 C720 1.387 . S
C719 H736 0.930 . S
C720 C718 1.381 . S
C720 C719 1.387 . S
C720 H737 0.931 . S
C721 C714 1.399 . S
C721 C718 1.487 . S
C721 N738 1.343 . S
H722 C694 0.931 . S
H723 C696 0.930 . S
H724 C698 0.930 . S
H725 C699 0.931 . S
H726 C701 0.931 . S
H727 C703 0.930 . S
H728 C705 0.930 . S
H729 C706 0.931 . S
H730 C708 0.931 . S
H731 C710 0.930 . S
H732 C712 0.930 . S
H733 C713 0.931 . S
H734 C715 0.931 . S
H735 C717 0.930 . S
H736 C719 0.930 . S
H737 C720 0.931 . S
N738 C700 1.343 . S
N738 C721 1.343 . S
N739 C707 1.343 . S
N739 C714 1.343 . S
C740 C741 1.384 . S
C740 C742 1.384 . S
C740 H768 0.931 . S
C741 C740 1.384 . S
C741 C744 1.382 . S
C742 C740 1.384 . S
C742 C743 1.381 . S
C742 H769 0.930 . S
C743 C742 1.381 . S
C743 C745 1.381 . S
C743 C746 1.487 . S
C744 C741 1.382 . S
C744 C745 1.387 . S
C744 H770 0.930 . S
C745 C743 1.381 . S
C745 C744 1.387 . S
C745 H771 0.931 . S
C746 C743 1.487 . S
C746 C753 1.399 . S
C746 N784 1.343 . S
C747 C748 1.384 . S
C747 C749 1.384 . S
C747 H772 0.931 . S
C748 C747 1.384 . S
C748 C751 1.382 . S
C749 C747 1.384 . S
C749 C750 1.381 . S
C749 H773 0.930 . S
C750 C749 1.381 . S
C750 C752 1.381 . S
C750 C753 1.487 . S
C751 C748 1.382 . S
C751 C752 1.387 . S
C751 H774 0.930 . S
C752 C750 1.381 . S
C752 C751 1.387 . S
C752 H775 0.931 . S
C753 C746 1.399 . S
C753 C750 1.487 . S
C753 N785 1.343 . S
C754 C755 1.384 . S
C754 C756 1.384 . S
C754 H776 0.931 . S
C755 C754 1.384 . S
C755 C758 1.382 . S
C756 C754 1.384 . S
C756 C757 1.381 . S
C756 H777 0.930 . S
C757 C756 1.381 . S
C757 C759 1.381 . S
C757 C760 1.487 . S
C758 C755 1.382 . S
C758 C759 1.387 . S
C758 H778 0.930 . S
C759 C757 1.381 . S
C759 C758 1.387 . S
C759 H779 0.931 . S
C760 C757 1.487 . S
C760 C767 1.399 . S
C760 N785 1.343 . S
C761 C762 1.384 . S
C761 C763 1.384 . S
C761 H780 0.931 . S
C762 C761 1.384 . S
C762 C765 1.382 . S
C763 C761 1.384 . S
C763 C764 1.381 . S
C763 H781 0.930 . S
C764 C763 1.381 . S
C764 C766 1.381 . S
C764 C767 1.487 . S
C765 C762 1.382 . S
C765 C766 1.387 . S
C765 H782 0.930 . S
C766 C764 1.381 . S
C766 C765 1.387 . S
C766 H783 0.931 . S
C767 C760 1.399 . S
C767 C764 1.487 . S
C767 N784 1.343 . S
H768 C740 0.931 . S
H769 C742 0.930 . S
H770 C744 0.930 . S
H771 C745 0.931 . S
H772 C747 0.931 . S
H773 C749 0.930 . S
H774 C751 0.930 . S
H775 C752 0.931 . S
H776 C754 0.931 . S
H777 C756 0.930 . S
H778 C758 0.930 . S
H779 C759 0.931 . S
H780 C761 0.931 . S
H781 C763 0.930 . S
H782 C765 0.930 . S
H783 C766 0.931 . S
N784 C746 1.343 . S
N784 C767 1.343 . S
N785 C753 1.343 . S
N785 C760 1.343 . S
C786 C787 1.384 . S
C786 C788 1.384 . S
C786 H814 0.931 . S
C787 C786 1.384 . S
C787 C790 1.382 . S
C788 C786 1.384 . S
C788 C789 1.381 . S
C788 H815 0.930 . S
C789 C788 1.381 . S
C789 C791 1.381 . S
C789 C792 1.487 . S
C790 C787 1.382 . S
C790 C791 1.387 . S
C790 H816 0.930 . S
C791 C789 1.381 . S
C791 C790 1.387 . S
C791 H817 0.931 . S
C792 C789 1.487 . S
C792 C799 1.399 . S
C792 N830 1.343 . S
C793 C794 1.384 . S
C793 C795 1.384 . S
C793 H818 0.931 . S
C794 C793 1.384 . S
C794 C797 1.382 . S
C795 C793 1.384 . S
C795 C796 1.381 . S
C795 H819 0.930 . S
C796 C795 1.381 . S
C796 C798 1.381 . S
C796 C799 1.487 . S
C797 C794 1.382 . S
C797 C798 1.387 . S
C797 H820 0.930 . S
C798 C796 1.381 . S
C798 C797 1.387 . S
C798 H821 0.931 . S
C799 C792 1.399 . S
C799 C796 1.487 . S
C799 N831 1.343 . S
C800 C801 1.384 . S
C800 C802 1.384 . S
C800 H822 0.931 . S
C801 C800 1.384 . S
C801 C804 1.382 . S
C802 C800 1.384 . S
C802 C803 1.381 . S
C802 H823 0.930 . S
C803 C802 1.381 . S
C803 C805 1.381 . S
C803 C806 1.487 . S
C804 C801 1.382 . S
C804 C805 1.387 . S
C804 H824 0.930 . S
C805 C803 1.381 . S
C805 C804 1.387 . S
C805 H825 0.931 . S
C806 C803 1.487 . S
C806 C813 1.399 . S
C806 N831 1.343 . S
C807 C808 1.384 . S
C807 C809 1.384 . S
C807 H826 0.931 . S
C808 C807 1.384 . S
C808 C811 1.382 . S
C809 C807 1.384 . S
C809 C810 1.381 . S
C809 H827 0.930 . S
C810 C809 1.381 . S
C810 C812 1.381 . S
C810 C813 1.487 . S
C811 C808 1.382 . S
C811 C812 1.387 . S
C811 H828 0.930 . S
C812 C810 1.381 . S
C812 C811 1.387 . S
C812 H829 0.931 . S
C813 C806 1.399 . S
C813 C810 1.487 . S
C813 N830 1.343 . S
H814 C786 0.931 . S
H815 C788 0.930 . S
H816 C790 0.930 . S
H817 C791 0.931 . S
H818 C793 0.931 . S
H819 C795 0.930 . S
H820 C797 0.930 . S
H821 C798 0.931 . S
H822 C800 0.931 . S
H823 C802 0.930 . S
H824 C804 0.930 . S
H825 C805 0.931 . S
H826 C807 0.931 . S
H827 C809 0.930 . S
H828 C811 0.930 . S
H829 C812 0.931 . S
N830 C792 1.343 . S
N830 C813 1.343 . S
N831 C799 1.343 . S
N831 C806 1.343 . S
C832 C833 1.384 . S
C832 C834 1.384 . S
C832 H860 0.931 . S
C833 C832 1.384 . S
C833 C836 1.382 . S
C834 C832 1.384 . S
C834 C835 1.381 . S
C834 H861 0.930 . S
C835 C834 1.381 . S
C835 C837 1.381 . S
C835 C838 1.487 . S
C836 C833 1.382 . S
C836 C837 1.387 . S
C836 H862 0.930 . S
C837 C835 1.381 . S
C837 C836 1.387 . S
C837 H863 0.931 . S
C838 C835 1.487 . S
C838 C845 1.399 . S
C838 N876 1.343 . S
C839 C840 1.384 . S
C839 C841 1.384 . S
C839 H864 0.931 . S
C840 C839 1.384 . S
C840 C843 1.382 . S
C841 C839 1.384 . S
C841 C842 1.381 . S
C841 H865 0.930 . S
C842 C841 1.381 . S
C842 C844 1.381 . S
C842 C845 1.487 . S
C843 C840 1.382 . S
C843 C844 1.387 . S
C843 H866 0.930 . S
C844 C842 1.381 . S
C844 C843 1.387 . S
C844 H867 0.931 . S
C845 C838 1.399 . S
C845 C842 1.487 . S
C845 N877 1.343 . S
C846 C847 1.384 . S
C846 C848 1.384 . S
C846 H868 0.931 . S
C847 C846 1.384 . S
C847 C850 1.382 . S
C848 C846 1.384 . S
C848 C849 1.381 . S
C848 H869 0.930 . S
C849 C848 1.381 . S
C849 C851 1.381 . S
C849 C852 1.487 . S
C850 C847 1.382 . S
C850 C851 1.387 . S
C850 H870 0.930 . S
C851 C849 1.381 . S
C851 C850 1.387 . S
C851 H871 0.931 . S
C852 C849 1.487 . S
C852 C859 1.399 . S
C852 N877 1.343 . S
C853 C854 1.384 . S
C853 C855 1.384 . S
C853 H872 0.931 . S
C854 C853 1.384 . S
C854 C857 1.382 . S
C855 C853 1.384 . S
C855 C856 1.381 . S
C855 H873 0.930 . S
C856 C855 1.381 . S
C856 C858 1.381 . S
C856 C859 1.487 . S
C857 C854 1.382 . S
C857 C858 1.387 . S
C857 H874 0.930 . S
C858 C856 1.381 . S
C858 C857 1.387 . S
C858 H875 0.931 . S
C859 C852 1.399 . S
C859 C856 1.487 . S
C859 N876 1.343 . S
H860 C832 0.931 . S
H861 C834 0.930 . S
H862 C836 0.930 . S
H863 C837 0.931 . S
H864 C839 0.931 . S
H865 C841 0.930 . S
H866 C843 0.930 . S
H867 C844 0.931 . S
H868 C846 0.931 . S
H869 C848 0.930 . S
H870 C850 0.930 . S
H871 C851 0.931 . S
H872 C853 0.931 . S
H873 C855 0.930 . S
H874 C857 0.930 . S
H875 C858 0.931 . S
N876 C838 1.343 . S
N876 C859 1.343 . S
N877 C845 1.343 . S
N877 C852 1.343 . S
C878 C879 1.384 . S
C878 C880 1.384 . S
C878 H906 0.931 . S
C879 C878 1.384 . S
C879 C882 1.382 . S
C880 C878 1.384 . S
C880 C881 1.381 . S
C880 H907 0.930 . S
C881 C880 1.381 . S
C881 C883 1.381 . S
C881 C884 1.487 . S
C882 C879 1.382 . S
C882 C883 1.387 . S
C882 H908 0.930 . S
C883 C881 1.381 . S
C883 C882 1.387 . S
C883 H909 0.931 . S
C884 C881 1.487 . S
C884 C891 1.399 . S
C884 N922 1.343 . S
C885 C886 1.384 . S
C885 C887 1.384 . S
C885 H910 0.931 . S
C886 C885 1.384 . S
C886 C889 1.382 . S
C887 C885 1.384 . S
C887 C888 1.381 . S
C887 H911 0.930 . S
C888 C887 1.381 . S
C888 C890 1.381 . S
C888 C891 1.487 . S
C889 C886 1.382 . S
C889 C890 1.387 . S
C889 H912 0.930 . S
C890 C888 1.381 . S
C890 C889 1.387 . S
C890 H913 0.931 . S
C891 C884 1.399 . S
C891 C888 1.487 . S
C891 N923 1.343 . S
C892 C893 1.384 . S
C892 C894 1.384 . S
C892 H914 0.931 . S
C893 C892 1.384 . S
C893 C896 1.382 . S
C894 C892 1.384 . S
C894 C895 1.381 . S
C894 H915 0.930 . S
C895 C894 1.381 . S
C895 C897 1.381 . S
C895 C898 1.487 . S
C896 C893 1.382 . S
C896 C897 1.387 . S
C896 H916 0.930 . S
C897 C895 1.381 . S
C897 C896 1.387 . S
C897 H917 0.931 . S
C898 C895 1.487 . S
C898 C905 1.399 . S
C898 N923 1.343 . S
C899 C900 1.384 . S
C899 C901 1.384 . S
C899 H918 0.931 . S
C900 C899 1.384 . S
C900 C903 1.382 . S
C901 C899 1.384 . S
C901 C902 1.381 . S
C901 H919 0.930 . S
C902 C901 1.381 . S
C902 C904 1.381 . S
C902 C905 1.487 . S
C903 C900 1.382 . S
C903 C904 1.387 . S
C903 H920 0.930 . S
C904 C902 1.381 . S
C904 C903 1.387 . S
C904 H921 0.931 . S
C905 C898 1.399 . S
C905 C902 1.487 . S
C905 N922 1.343 . S
H906 C878 0.931 . S
H907 C880 0.930 . S
H908 C882 0.930 . S
H909 C883 0.931 . S
H910 C885 0.931 . S
H911 C887 0.930 . S
H912 C889 0.930 . S
H913 C890 0.931 . S
H914 C892 0.931 . S
H915 C894 0.930 . S
H916 C896 0.930 . S
H917 C897 0.931 . S
H918 C899 0.931 . S
H919 C901 0.930 . S
H920 C903 0.930 . S
H921 C904 0.931 . S
N922 C884 1.343 . S
N922 C905 1.343 . S
N923 C891 1.343 . S
N923 C898 1.343 . S
C924 C925 1.384 . S
C924 C926 1.384 . S
C924 H952 0.931 . S
C925 C924 1.384 . S
C925 C928 1.382 . S
C926 C924 1.384 . S
C926 C927 1.381 . S
C926 H953 0.930 . S
C927 C926 1.381 . S
C927 C929 1.381 . S
C927 C930 1.487 . S
C928 C925 1.382 . S
C928 C929 1.387 . S
C928 H954 0.930 . S
C929 C927 1.381 . S
C929 C928 1.387 . S
C929 H955 0.931 . S
C930 C927 1.487 . S
C930 C937 1.399 . S
C930 N968 1.343 . S
C931 C932 1.384 . S
C931 C933 1.384 . S
C931 H956 0.931 . S
C932 C931 1.384 . S
C932 C935 1.382 . S
C933 C931 1.384 . S
C933 C934 1.381 . S
C933 H957 0.930 . S
C934 C933 1.381 . S
C934 C936 1.381 . S
C934 C937 1.487 . S
C935 C932 1.382 . S
C935 C936 1.387 . S
C935 H958 0.930 . S
C936 C934 1.381 . S
C936 C935 1.387 . S
C936 H959 0.931 . S
C937 C930 1.399 . S
C937 C934 1.487 . S
C937 N969 1.343 . S
C938 C939 1.384 . S
C938 C940 1.384 . S
C938 H960 0.931 . S
C939 C938 1.384 . S
C939 C942 1.382 . S
C940 C938 1.384 . S
C940 C941 1.381 . S
C940 H961 0.930 . S
C941 C940 1.381 . S
C941 C943 1.381 . S
C941 C944 1.487 . S
C942 C939 1.382 . S
C942 C943 1.387 . S
C942 H962 0.930 . S
C943 C941 1.381 . S
C943 C942 1.387 . S
C943 H963 0.931 . S
C944 C941 1.487 . S
C944 C951 1.399 . S
C944 N969 1.343 . S
C945 C946 1.384 . S
C945 C947 1.384 . S
C945 H964 0.931 . S
C946 C945 1.384 . S
C946 C949 1.382 . S
C947 C945 1.384 . S
C947 C948 1.381 . S
C947 H965 0.930 . S
C948 C947 1.381 . S
C948 C950 1.381 . S
C948 C951 1.487 . S
C949 C946 1.382 . S
C949 C950 1.387 . S
C949 H966 0.930 . S
C950 C948 1.381 . S
C950 C949 1.387 . S
C950 H967 0.931 . S
C951 C944 1.399 . S
C951 C948 1.487 . S
C951 N968 1.343 . S
H952 C924 0.931 . S
H953 C926 0.930 . S
H954 C928 0.930 . S
H955 C929 0.931 . S
H956 C931 0.931 . S
H957 C933 0.930 . S
H958 C935 0.930 . S
H959 C936 0.931 . S
H960 C938 0.931 . S
H961 C940 0.930 . S
H962 C942 0.930 . S
H963 C943 0.931 . S
H964 C945 0.931 . S
H965 C947 0.930 . S
H966 C949 0.930 . S
H967 C950 0.931 . S
N968 C930 1.343 . S
N968 C951 1.343 . S
N969 C937 1.343 . S
N969 C944 1.343 . S
C970 C971 1.384 . S
C970 C972 1.384 . S
C970 H998 0.931 . S
C971 C970 1.384 . S
C971 C974 1.382 . S
C972 C970 1.384 . S
C972 C973 1.381 . S
C972 H999 0.930 . S
C973 C972 1.381 . S
C973 C975 1.381 . S
C973 C976 1.487 . S
C974 C971 1.382 . S
C974 C975 1.387 . S
C974 H1000 0.930 . S
C975 C973 1.381 . S
C975 C974 1.387 . S
C975 H1001 0.931 . S
C976 C973 1.487 . S
C976 C983 1.399 . S
C976 N1014 1.343 . S
C977 C978 1.384 . S
C977 C979 1.384 . S
C977 H1002 0.931 . S
C978 C977 1.384 . S
C978 C981 1.382 . S
C979 C977 1.384 . S
C979 C980 1.381 . S
C979 H1003 0.930 . S
C980 C979 1.381 . S
C980 C982 1.381 . S
C980 C983 1.487 . S
C981 C978 1.382 . S
C981 C982 1.387 . S
C981 H1004 0.930 . S
C982 C980 1.381 . S
C982 C981 1.387 . S
C982 H1005 0.931 . S
C983 C976 1.399 . S
C983 C980 1.487 . S
C983 N1015 1.343 . S
C984 C985 1.384 . S
C984 C986 1.384 . S
C984 H1006 0.931 . S
C985 C984 1.384 . S
C985 C988 1.382 . S
C986 C984 1.384 . S
C986 C987 1.381 . S
C986 H1007 0.930 . S
C987 C986 1.381 . S
C987 C989 1.381 . S
C987 C990 1.487 . S
C988 C985 1.382 . S
C988 C989 1.387 . S
C988 H1008 0.930 . S
C989 C987 1.381 . S
C989 C988 1.387 . S
C989 H1009 0.931 . S
C990 C987 1.487 . S
C990 C997 1.399 . S
C990 N1015 1.343 . S
C991 C992 1.384 . S
C991 C993 1.384 . S
C991 H1010 0.931 . S
C992 C991 1.384 . S
C992 C995 1.382 . S
C993 C991 1.384 . S
C993 C994 1.381 . S
C993 H1011 0.930 . S
C994 C993 1.381 . S
C994 C996 1.381 . S
C994 C997 1.487 . S
C995 C992 1.382 . S
C995 C996 1.387 . S
C995 H1012 0.930 . S
C996 C994 1.381 . S
C996 C995 1.387 . S
C996 H1013 0.931 . S
C997 C990 1.399 . S
C997 C994 1.487 . S
C997 N1014 1.343 . S
H998 C970 0.931 . S
H999 C972 0.930 . S
H1000 C974 0.930 . S
H1001 C975 0.931 . S
H1002 C977 0.931 . S
H1003 C979 0.930 . S
H1004 C981 0.930 . S
H1005 C982 0.931 . S
H1006 C984 0.931 . S
H1007 C986 0.930 . S
H1008 C988 0.930 . S
H1009 C989 0.931 . S
H1010 C991 0.931 . S
H1011 C993 0.930 . S
H1012 C995 0.930 . S
H1013 C996 0.931 . S
N1014 C976 1.343 . S
N1014 C997 1.343 . S
N1015 C983 1.343 . S
N1015 C990 1.343 . S
C1016 C1017 1.384 . S
C1016 C1018 1.384 . S
C1016 H1044 0.931 . S
C1017 C1016 1.384 . S
C1017 C1020 1.382 . S
C1018 C1016 1.384 . S
C1018 C1019 1.381 . S
C1018 H1045 0.930 . S
C1019 C1018 1.381 . S
C1019 C1021 1.381 . S
C1019 C1022 1.487 . S
C1020 C1017 1.382 . S
C1020 C1021 1.387 . S
C1020 H1046 0.930 . S
C1021 C1019 1.381 . S
C1021 C1020 1.387 . S
C1021 H1047 0.931 . S
C1022 C1019 1.487 . S
C1022 C1029 1.399 . S
C1022 N1060 1.343 . S
C1023 C1024 1.384 . S
C1023 C1025 1.384 . S
C1023 H1048 0.931 . S
C1024 C1023 1.384 . S
C1024 C1027 1.382 . S
C1025 C1023 1.384 . S
C1025 C1026 1.381 . S
C1025 H1049 0.930 . S
C1026 C1025 1.381 . S
C1026 C1028 1.381 . S
C1026 C1029 1.487 . S
C1027 C1024 1.382 . S
C1027 C1028 1.387 . S
C1027 H1050 0.930 . S
C1028 C1026 1.381 . S
C1028 C1027 1.387 . S
C1028 H1051 0.931 . S
C1029 C1022 1.399 . S
C1029 C1026 1.487 . S
C1029 N1061 1.343 . S
C1030 C1031 1.384 . S
C1030 C1032 1.384 . S
C1030 H1052 0.931 . S
C1031 C1030 1.384 . S
C1031 C1034 1.382 . S
C1032 C1030 1.384 . S
C1032 C1033 1.381 . S
C1032 H1053 0.930 . S
C1033 C1032 1.381 . S
C1033 C1035 1.381 . S
C1033 C1036 1.487 . S
C1034 C1031 1.382 . S
C1034 C1035 1.387 . S
C1034 H1054 0.930 . S
C1035 C1033 1.381 . S
C1035 C1034 1.387 . S
C1035 H1055 0.931 . S
C1036 C1033 1.487 . S
C1036 C1043 1.399 . S
C1036 N1061 1.343 . S
C1037 C1038 1.384 . S
C1037 C1039 1.384 . S
C1037 H1056 0.931 . S
C1038 C1037 1.384 . S
C1038 C1041 1.382 . S
C1039 C1037 1.384 . S
C1039 C1040 1.381 . S
C1039 H1057 0.930 . S
C1040 C1039 1.381 . S
C1040 C1042 1.381 . S
C1040 C1043 1.487 . S
C1041 C1038 1.382 . S
C1041 C1042 1.387 . S
C1041 H1058 0.930 . S
C1042 C1040 1.381 . S
C1042 C1041 1.387 . S
C1042 H1059 0.931 . S
C1043 C1036 1.399 . S
C1043 C1040 1.487 . S
C1043 N1060 1.343 . S
H1044 C1016 0.931 . S
H1045 C1018 0.930 . S
H1046 C1020 0.930 . S
H1047 C1021 0.931 . S
H1048 C1023 0.931 . S
H1049 C1025 0.930 . S
H1050 C1027 0.930 . S
H1051 C1028 0.931 . S
H1052 C1030 0.931 . S
H1053 C1032 0.930 . S
H1054 C1034 0.930 . S
H1055 C1035 0.931 . S
H1056 C1037 0.931 . S
H1057 C1039 0.930 . S
H1058 C1041 0.930 . S
H1059 C1042 0.931 . S
N1060 C1022 1.343 . S
N1060 C1043 1.343 . S
N1061 C1029 1.343 . S
N1061 C1036 1.343 . S
C1062 C1063 1.384 . S
C1062 C1064 1.384 . S
C1062 H1090 0.931 . S
C1063 C1062 1.384 . S
C1063 C1066 1.382 1_655 S
C1064 C1062 1.384 . S
C1064 C1065 1.388 1_655 S
C1064 H1091 0.930 . S
C1065 C1064 1.388 1_455 S
C1065 C1067 1.378 . S
C1065 C1068 1.474 . S
C1066 C1063 1.382 1_455 S
C1066 C1067 1.387 . S
C1066 H1092 0.930 . S
C1067 C1065 1.378 . S
C1067 C1066 1.387 . S
C1067 H1093 0.931 . S
C1068 C1065 1.474 . S
C1068 C1075 1.398 1_455 S
C1068 N1106 1.319 . S
C1069 C1070 1.384 . S
C1069 C1071 1.384 . S
C1069 H1094 0.931 . S
C1070 C1069 1.384 . S
C1070 C1073 1.382 1_455 S
C1071 C1069 1.384 . S
C1071 C1072 1.384 . S
C1071 H1095 0.930 . S
C1072 C1071 1.384 . S
C1072 C1074 1.374 1_455 S
C1072 C1075 1.492 1_455 S
C1073 C1070 1.382 1_655 S
C1073 C1074 1.387 . S
C1073 H1096 0.930 . S
C1074 C1072 1.374 1_655 S
C1074 C1073 1.387 . S
C1074 H1097 0.931 . S
C1075 C1068 1.398 1_655 S
C1075 C1072 1.492 1_655 S
C1075 N1107 1.367 . S
C1076 C1077 1.384 . S
C1076 C1078 1.384 . S
C1076 H1098 0.931 . S
C1077 C1076 1.384 . S
C1077 C1080 1.382 1_455 S
C1078 C1076 1.384 . S
C1078 C1079 1.388 . S
C1078 H1099 0.930 . S
C1079 C1078 1.388 . S
C1079 C1081 1.378 1_455 S
C1079 C1082 1.483 1_455 S
C1080 C1077 1.382 1_655 S
C1080 C1081 1.387 . S
C1080 H1100 0.930 . S
C1081 C1079 1.378 1_655 S
C1081 C1080 1.387 . S
C1081 H1101 0.931 . S
C1082 C1079 1.483 1_655 S
C1082 C1089 1.398 1_655 S
C1082 N1107 1.319 . S
C1083 C1084 1.384 . S
C1083 C1085 1.384 . S
C1083 H1102 0.931 . S
C1084 C1083 1.384 . S
C1084 C1087 1.382 1_655 S
C1085 C1083 1.384 . S
C1085 C1086 1.380 . S
C1085 H1103 0.930 . S
C1086 C1085 1.380 . S
C1086 C1088 1.386 1_655 S
C1086 C1089 1.492 1_655 S
C1087 C1084 1.382 1_455 S
C1087 C1088 1.387 . S
C1087 H1104 0.930 . S
C1088 C1086 1.386 1_455 S
C1088 C1087 1.387 . S
C1088 H1105 0.931 . S
C1089 C1082 1.398 1_455 S
C1089 C1086 1.492 1_455 S
C1089 N1106 1.367 . S
H1090 C1062 0.931 . S
H1091 C1064 0.930 . S
H1092 C1066 0.930 . S
H1093 C1067 0.931 . S
H1094 C1069 0.931 . S
H1095 C1071 0.930 . S
H1096 C1073 0.930 . S
H1097 C1074 0.931 . S
H1098 C1076 0.931 . S
H1099 C1078 0.930 . S
H1100 C1080 0.930 . S
H1101 C1081 0.931 . S
H1102 C1083 0.931 . S
H1103 C1085 0.930 . S
H1104 C1087 0.930 . S
H1105 C1088 0.931 . S
N1106 C1068 1.319 . S
N1106 C1089 1.367 . S
N1107 C1075 1.367 . S
N1107 C1082 1.319 . S
C1108 C1109 1.384 . S
C1108 C1110 1.384 . S
C1108 H1136 0.931 . S
C1109 C1108 1.384 . S
C1109 C1112 1.382 . S
C1110 C1108 1.384 . S
C1110 C1111 1.381 . S
C1110 H1137 0.930 . S
C1111 C1110 1.381 . S
C1111 C1113 1.381 . S
C1111 C1114 1.487 . S
C1112 C1109 1.382 . S
C1112 C1113 1.387 . S
C1112 H1138 0.930 . S
C1113 C1111 1.381 . S
C1113 C1112 1.387 . S
C1113 H1139 0.931 . S
C1114 C1111 1.487 . S
C1114 C1121 1.399 . S
C1114 N1152 1.343 . S
C1115 C1116 1.384 . S
C1115 C1117 1.384 . S
C1115 H1140 0.931 . S
C1116 C1115 1.384 . S
C1116 C1119 1.382 . S
C1117 C1115 1.384 . S
C1117 C1118 1.381 . S
C1117 H1141 0.930 . S
C1118 C1117 1.381 . S
C1118 C1120 1.381 . S
C1118 C1121 1.487 . S
C1119 C1116 1.382 . S
C1119 C1120 1.387 . S
C1119 H1142 0.930 . S
C1120 C1118 1.381 . S
C1120 C1119 1.387 . S
C1120 H1143 0.931 . S
C1121 C1114 1.399 . S
C1121 C1118 1.487 . S
C1121 N1153 1.343 . S
C1122 C1123 1.384 . S
C1122 C1124 1.384 . S
C1122 H1144 0.931 . S
C1123 C1122 1.384 . S
C1123 C1126 1.382 . S
C1124 C1122 1.384 . S
C1124 C1125 1.381 . S
C1124 H1145 0.930 . S
C1125 C1124 1.381 . S
C1125 C1127 1.381 . S
C1125 C1128 1.487 . S
C1126 C1123 1.382 . S
C1126 C1127 1.387 . S
C1126 H1146 0.930 . S
C1127 C1125 1.381 . S
C1127 C1126 1.387 . S
C1127 H1147 0.931 . S
C1128 C1125 1.487 . S
C1128 C1135 1.399 . S
C1128 N1153 1.343 . S
C1129 C1130 1.384 . S
C1129 C1131 1.384 . S
C1129 H1148 0.931 . S
C1130 C1129 1.384 . S
C1130 C1133 1.382 . S
C1131 C1129 1.384 . S
C1131 C1132 1.381 . S
C1131 H1149 0.930 . S
C1132 C1131 1.381 . S
C1132 C1134 1.381 . S
C1132 C1135 1.487 . S
C1133 C1130 1.382 . S
C1133 C1134 1.387 . S
C1133 H1150 0.930 . S
C1134 C1132 1.381 . S
C1134 C1133 1.387 . S
C1134 H1151 0.931 . S
C1135 C1128 1.399 . S
C1135 C1132 1.487 . S
C1135 N1152 1.343 . S
H1136 C1108 0.931 . S
H1137 C1110 0.930 . S
H1138 C1112 0.930 . S
H1139 C1113 0.931 . S
H1140 C1115 0.931 . S
H1141 C1117 0.930 . S
H1142 C1119 0.930 . S
H1143 C1120 0.931 . S
H1144 C1122 0.931 . S
H1145 C1124 0.930 . S
H1146 C1126 0.930 . S
H1147 C1127 0.931 . S
H1148 C1129 0.931 . S
H1149 C1131 0.930 . S
H1150 C1133 0.930 . S
H1151 C1134 0.931 . S
N1152 C1114 1.343 . S
N1152 C1135 1.343 . S
N1153 C1121 1.343 . S
N1153 C1128 1.343 . S
C1154 C1155 1.384 1_545 S
C1154 C1156 1.384 . S
C1154 H1182 0.931 . S
C1155 C1154 1.384 1_565 S
C1155 C1158 1.382 . S
C1156 C1154 1.384 . S
C1156 C1157 1.381 1_545 S
C1156 H1183 0.930 . S
C1157 C1156 1.381 1_565 S
C1157 C1159 1.381 . S
C1157 C1160 1.487 . S
C1158 C1155 1.382 . S
C1158 C1159 1.387 . S
C1158 H1184 0.930 . S
C1159 C1157 1.381 . S
C1159 C1158 1.387 . S
C1159 H1185 0.931 . S
C1160 C1157 1.487 . S
C1160 C1167 1.399 1_565 S
C1160 N1198 1.343 . S
C1161 C1162 1.384 1_565 S
C1161 C1163 1.384 . S
C1161 H1186 0.931 . S
C1162 C1161 1.384 1_545 S
C1162 C1165 1.382 . S
C1163 C1161 1.384 . S
C1163 C1164 1.381 1_565 S
C1163 H1187 0.930 . S
C1164 C1163 1.381 1_545 S
C1164 C1166 1.381 . S
C1164 C1167 1.487 . S
C1165 C1162 1.382 . S
C1165 C1166 1.387 . S
C1165 H1188 0.930 . S
C1166 C1164 1.381 . S
C1166 C1165 1.387 . S
C1166 H1189 0.931 . S
C1167 C1160 1.399 1_545 S
C1167 C1164 1.487 . S
C1167 N1199 1.343 . S
C1168 C1169 1.384 1_565 S
C1168 C1170 1.384 . S
C1168 H1190 0.931 . S
C1169 C1168 1.384 1_545 S
C1169 C1172 1.382 . S
C1170 C1168 1.384 . S
C1170 C1171 1.381 1_565 S
C1170 H1191 0.930 . S
C1171 C1170 1.381 1_545 S
C1171 C1173 1.381 . S
C1171 C1174 1.455 . S
C1172 C1169 1.382 . S
C1172 C1173 1.387 . S
C1172 H1192 0.930 . S
C1173 C1171 1.381 . S
C1173 C1172 1.387 . S
C1173 H1193 0.931 . S
C1174 C1171 1.455 . S
C1174 C1181 1.390 1_545 S
C1174 N1199 1.394 . S
C1175 C1176 1.384 1_545 S
C1175 C1177 1.384 . S
C1175 H1194 0.931 . S
C1176 C1175 1.384 1_565 S
C1176 C1179 1.382 . S
C1177 C1175 1.384 . S
C1177 C1178 1.381 1_545 S
C1177 H1195 0.930 . S
C1178 C1177 1.381 1_565 S
C1178 C1180 1.381 . S
C1178 C1181 1.487 . S
C1179 C1176 1.382 . S
C1179 C1180 1.387 . S
C1179 H1196 0.930 . S
C1180 C1178 1.381 . S
C1180 C1179 1.387 . S
C1180 H1197 0.931 . S
C1181 C1174 1.390 1_565 S
C1181 C1178 1.487 . S
C1181 N1198 1.343 . S
H1182 C1154 0.931 . S
H1183 C1156 0.930 . S
H1184 C1158 0.930 . S
H1185 C1159 0.931 . S
H1186 C1161 0.931 . S
H1187 C1163 0.930 . S
H1188 C1165 0.930 . S
H1189 C1166 0.931 . S
H1190 C1168 0.931 . S
H1191 C1170 0.930 . S
H1192 C1172 0.930 . S
H1193 C1173 0.931 . S
H1194 C1175 0.931 . S
H1195 C1177 0.930 . S
H1196 C1179 0.930 . S
H1197 C1180 0.931 . S
N1198 C1160 1.343 . S
N1198 C1181 1.343 . S
N1199 C1167 1.343 . S
N1199 C1174 1.394 . S
C1200 C1201 1.384 . S
C1200 C1202 1.384 . S
C1200 H1228 0.931 . S
C1201 C1200 1.384 . S
C1201 C1204 1.382 1_545 S
C1202 C1200 1.384 . S
C1202 C1203 1.386 . S
C1202 H1229 0.930 . S
C1203 C1202 1.386 . S
C1203 C1205 1.370 1_545 S
C1203 C1206 1.494 1_545 S
C1204 C1201 1.382 1_565 S
C1204 C1205 1.387 . S
C1204 H1230 0.930 . S
C1205 C1203 1.370 1_565 S
C1205 C1204 1.387 . S
C1205 H1231 0.931 . S
C1206 C1203 1.494 1_565 S
C1206 C1213 1.399 1_565 S
C1206 N1244 1.366 . S
C1207 C1208 1.384 . S
C1207 C1209 1.384 . S
C1207 H1232 0.931 . S
C1208 C1207 1.384 . S
C1208 C1211 1.382 1_565 S
C1209 C1207 1.384 . S
C1209 C1210 1.374 . S
C1209 H1233 0.930 . S
C1210 C1209 1.374 . S
C1210 C1212 1.385 1_565 S
C1210 C1213 1.481 1_565 S
C1211 C1208 1.382 1_545 S
C1211 C1212 1.387 . S
C1211 H1234 0.930 . S
C1212 C1210 1.385 1_545 S
C1212 C1211 1.387 . S
C1212 H1235 0.931 . S
C1213 C1206 1.399 1_545 S
C1213 C1210 1.481 1_545 S
C1213 N1245 1.320 . S
C1214 C1215 1.384 . S
C1214 C1216 1.384 . S
C1214 H1236 0.931 . S
C1215 C1214 1.384 . S
C1215 C1218 1.382 1_565 S
C1216 C1214 1.384 . S
C1216 C1217 1.381 . S
C1216 H1237 0.930 . S
C1217 C1216 1.381 . S
C1217 C1219 1.382 1_565 S
C1217 C1220 1.494 1_565 S
C1218 C1215 1.382 1_545 S
C1218 C1219 1.387 . S
C1218 H1238 0.930 . S
C1219 C1217 1.382 1_545 S
C1219 C1218 1.387 . S
C1219 H1239 0.931 . S
C1220 C1217 1.494 1_545 S
C1220 C1227 1.399 1_545 S
C1220 N1245 1.366 . S
C1221 C1222 1.384 . S
C1221 C1223 1.384 . S
C1221 H1240 0.931 . S
C1222 C1221 1.384 . S
C1222 C1225 1.382 1_545 S
C1223 C1221 1.384 . S
C1223 C1224 1.394 . S
C1223 H1241 0.930 . S
C1224 C1223 1.394 . S
C1224 C1226 1.374 1_545 S
C1224 C1227 1.481 1_545 S
C1225 C1222 1.382 1_565 S
C1225 C1226 1.387 . S
C1225 H1242 0.930 . S
C1226 C1224 1.374 1_565 S
C1226 C1225 1.387 . S
C1226 H1243 0.931 . S
C1227 C1220 1.399 1_565 S
C1227 C1224 1.481 1_565 S
C1227 N1244 1.320 . S
H1228 C1200 0.931 . S
H1229 C1202 0.930 . S
H1230 C1204 0.930 . S
H1231 C1205 0.931 . S
H1232 C1207 0.931 . S
H1233 C1209 0.930 . S
H1234 C1211 0.930 . S
H1235 C1212 0.931 . S
H1236 C1214 0.931 . S
H1237 C1216 0.930 . S
H1238 C1218 0.930 . S
H1239 C1219 0.931 . S
H1240 C1221 0.931 . S
H1241 C1223 0.930 . S
H1242 C1225 0.930 . S
H1243 C1226 0.931 . S
N1244 C1206 1.366 . S
N1244 C1227 1.320 . S
N1245 C1213 1.320 . S
N1245 C1220 1.366 . S
C1246 C1247 1.384 . S
C1246 C1248 1.384 . S
C1246 H1274 0.931 . S
C1247 C1246 1.384 . S
C1247 C1250 1.382 1_655 S
C1248 C1246 1.384 . S
C1248 C1249 1.404 . S
C1248 H1275 0.930 . S
C1249 C1248 1.404 . S
C1249 C1251 1.369 1_655 S
C1249 C1252 1.479 1_655 S
C1250 C1247 1.382 1_455 S
C1250 C1251 1.387 . S
C1250 H1276 0.930 . S
C1251 C1249 1.369 1_455 S
C1251 C1250 1.387 . S
C1251 H1277 0.931 . S
C1252 C1249 1.479 1_455 S
C1252 C1259 1.399 1_455 S
C1252 N1290 1.323 . S
C1253 C1254 1.384 . S
C1253 C1255 1.384 . S
C1253 H1278 0.931 . S
C1254 C1253 1.384 . S
C1254 C1257 1.382 1_455 S
C1255 C1253 1.384 . S
C1255 C1256 1.385 . S
C1255 H1279 0.930 . S
C1256 C1255 1.385 . S
C1256 C1258 1.373 1_455 S
C1256 C1259 1.497 1_455 S
C1257 C1254 1.382 1_655 S
C1257 C1258 1.387 . S
C1257 H1280 0.930 . S
C1258 C1256 1.373 1_655 S
C1258 C1257 1.387 . S
C1258 H1281 0.931 . S
C1259 C1252 1.399 1_655 S
C1259 C1256 1.497 1_655 S
C1259 N1291 1.364 . S
C1260 C1261 1.384 . S
C1260 C1262 1.384 . S
C1260 H1282 0.931 . S
C1261 C1260 1.384 . S
C1261 C1264 1.382 1_455 S
C1262 C1260 1.384 . S
C1262 C1263 1.384 . S
C1262 H1283 0.930 . S
C1263 C1262 1.384 . S
C1263 C1265 1.380 1_455 S
C1263 C1266 1.479 1_455 S
C1264 C1261 1.382 1_655 S
C1264 C1265 1.387 . S
C1264 H1284 0.930 . S
C1265 C1263 1.380 1_655 S
C1265 C1264 1.387 . S
C1265 H1285 0.931 . S
C1266 C1263 1.479 1_655 S
C1266 C1273 1.399 . S
C1266 N1291 1.323 . S
C1267 C1268 1.384 . S
C1267 C1269 1.384 . S
C1267 H1286 0.931 . S
C1268 C1267 1.384 . S
C1268 C1271 1.382 1_655 S
C1269 C1267 1.384 . S
C1269 C1270 1.390 . S
C1269 H1287 0.930 . S
C1270 C1269 1.390 . S
C1270 C1272 1.361 1_655 S
C1270 C1273 1.506 . S
C1271 C1268 1.382 1_455 S
C1271 C1272 1.387 . S
C1271 H1288 0.930 . S
C1272 C1270 1.361 1_455 S
C1272 C1271 1.387 . S
C1272 H1289 0.931 . S
C1273 C1266 1.399 . S
C1273 C1270 1.506 . S
C1273 N1290 1.355 1_655 S
H1274 C1246 0.931 . S
H1275 C1248 0.930 . S
H1276 C1250 0.930 . S
H1277 C1251 0.931 . S
H1278 C1253 0.931 . S
H1279 C1255 0.930 . S
H1280 C1257 0.930 . S
H1281 C1258 0.931 . S
H1282 C1260 0.931 . S
H1283 C1262 0.930 . S
H1284 C1264 0.930 . S
H1285 C1265 0.931 . S
H1286 C1267 0.931 . S
H1287 C1269 0.930 . S
H1288 C1271 0.930 . S
H1289 C1272 0.931 . S
N1290 C1252 1.323 . S
N1290 C1273 1.355 1_455 S
N1291 C1259 1.364 . S
N1291 C1266 1.323 . S
C1292 C1293 1.384 . S
C1292 C1294 1.384 . S
C1292 H1320 0.931 . S
C1293 C1292 1.384 . S
C1293 C1296 1.382 . S
C1294 C1292 1.384 . S
C1294 C1295 1.381 . S
C1294 H1321 0.930 . S
C1295 C1294 1.381 . S
C1295 C1297 1.381 . S
C1295 C1298 1.487 . S
C1296 C1293 1.382 . S
C1296 C1297 1.387 . S
C1296 H1322 0.930 . S
C1297 C1295 1.381 . S
C1297 C1296 1.387 . S
C1297 H1323 0.931 . S
C1298 C1295 1.487 . S
C1298 C1305 1.399 . S
C1298 N1336 1.343 . S
C1299 C1300 1.384 . S
C1299 C1301 1.384 . S
C1299 H1324 0.931 . S
C1300 C1299 1.384 . S
C1300 C1303 1.382 . S
C1301 C1299 1.384 . S
C1301 C1302 1.381 . S
C1301 H1325 0.930 . S
C1302 C1301 1.381 . S
C1302 C1304 1.381 . S
C1302 C1305 1.487 . S
C1303 C1300 1.382 . S
C1303 C1304 1.387 . S
C1303 H1326 0.930 . S
C1304 C1302 1.381 . S
C1304 C1303 1.387 . S
C1304 H1327 0.931 . S
C1305 C1298 1.399 . S
C1305 C1302 1.487 . S
C1305 N1337 1.343 . S
C1306 C1307 1.384 . S
C1306 C1308 1.384 . S
C1306 H1328 0.931 . S
C1307 C1306 1.384 . S
C1307 C1310 1.382 . S
C1308 C1306 1.384 . S
C1308 C1309 1.381 . S
C1308 H1329 0.930 . S
C1309 C1308 1.381 . S
C1309 C1311 1.381 . S
C1309 C1312 1.487 . S
C1310 C1307 1.382 . S
C1310 C1311 1.387 . S
C1310 H1330 0.930 . S
C1311 C1309 1.381 . S
C1311 C1310 1.387 . S
C1311 H1331 0.931 . S
C1312 C1309 1.487 . S
C1312 C1319 1.399 . S
C1312 N1337 1.343 . S
C1313 C1314 1.384 . S
C1313 C1315 1.384 . S
C1313 H1332 0.931 . S
C1314 C1313 1.384 . S
C1314 C1317 1.382 . S
C1315 C1313 1.384 . S
C1315 C1316 1.381 . S
C1315 H1333 0.930 . S
C1316 C1315 1.381 . S
C1316 C1318 1.381 . S
C1316 C1319 1.487 . S
C1317 C1314 1.382 . S
C1317 C1318 1.387 . S
C1317 H1334 0.930 . S
C1318 C1316 1.381 . S
C1318 C1317 1.387 . S
C1318 H1335 0.931 . S
C1319 C1312 1.399 . S
C1319 C1316 1.487 . S
C1319 N1336 1.343 . S
H1320 C1292 0.931 . S
H1321 C1294 0.930 . S
H1322 C1296 0.930 . S
H1323 C1297 0.931 . S
H1324 C1299 0.931 . S
H1325 C1301 0.930 . S
H1326 C1303 0.930 . S
H1327 C1304 0.931 . S
H1328 C1306 0.931 . S
H1329 C1308 0.930 . S
H1330 C1310 0.930 . S
H1331 C1311 0.931 . S
H1332 C1313 0.931 . S
H1333 C1315 0.930 . S
H1334 C1317 0.930 . S
H1335 C1318 0.931 . S
N1336 C1298 1.343 . S
N1336 C1319 1.343 . S
N1337 C1305 1.343 . S
N1337 C1312 1.343 . S
C1338 C1339 1.384 . S
C1338 C1340 1.384 . S
C1338 H1366 0.931 . S
C1339 C1338 1.384 . S
C1339 C1342 1.382 . S
C1340 C1338 1.384 . S
C1340 C1341 1.381 . S
C1340 H1367 0.930 . S
C1341 C1340 1.381 . S
C1341 C1343 1.381 . S
C1341 C1344 1.487 . S
C1342 C1339 1.382 . S
C1342 C1343 1.387 . S
C1342 H1368 0.930 . S
C1343 C1341 1.381 . S
C1343 C1342 1.387 . S
C1343 H1369 0.931 . S
C1344 C1341 1.487 . S
C1344 C1351 1.399 . S
C1344 N1382 1.343 . S
C1345 C1346 1.384 . S
C1345 C1347 1.384 . S
C1345 H1370 0.931 . S
C1346 C1345 1.384 . S
C1346 C1349 1.382 . S
C1347 C1345 1.384 . S
C1347 C1348 1.381 . S
C1347 H1371 0.930 . S
C1348 C1347 1.381 . S
C1348 C1350 1.381 . S
C1348 C1351 1.487 . S
C1349 C1346 1.382 . S
C1349 C1350 1.387 . S
C1349 H1372 0.930 . S
C1350 C1348 1.381 . S
C1350 C1349 1.387 . S
C1350 H1373 0.931 . S
C1351 C1344 1.399 . S
C1351 C1348 1.487 . S
C1351 N1383 1.343 . S
C1352 C1353 1.384 . S
C1352 C1354 1.384 . S
C1352 H1374 0.931 . S
C1353 C1352 1.384 . S
C1353 C1356 1.382 . S
C1354 C1352 1.384 . S
C1354 C1355 1.381 . S
C1354 H1375 0.930 . S
C1355 C1354 1.381 . S
C1355 C1357 1.381 . S
C1355 C1358 1.487 . S
C1356 C1353 1.382 . S
C1356 C1357 1.387 . S
C1356 H1376 0.930 . S
C1357 C1355 1.381 . S
C1357 C1356 1.387 . S
C1357 H1377 0.931 . S
C1358 C1355 1.487 . S
C1358 C1365 1.399 . S
C1358 N1383 1.343 . S
C1359 C1360 1.384 . S
C1359 C1361 1.384 . S
C1359 H1378 0.931 . S
C1360 C1359 1.384 . S
C1360 C1363 1.382 . S
C1361 C1359 1.384 . S
C1361 C1362 1.381 . S
C1361 H1379 0.930 . S
C1362 C1361 1.381 . S
C1362 C1364 1.381 . S
C1362 C1365 1.487 . S
C1363 C1360 1.382 . S
C1363 C1364 1.387 . S
C1363 H1380 0.930 . S
C1364 C1362 1.381 . S
C1364 C1363 1.387 . S
C1364 H1381 0.931 . S
C1365 C1358 1.399 . S
C1365 C1362 1.487 . S
C1365 N1382 1.343 . S
H1366 C1338 0.931 . S
H1367 C1340 0.930 . S
H1368 C1342 0.930 . S
H1369 C1343 0.931 . S
H1370 C1345 0.931 . S
H1371 C1347 0.930 . S
H1372 C1349 0.930 . S
H1373 C1350 0.931 . S
H1374 C1352 0.931 . S
H1375 C1354 0.930 . S
H1376 C1356 0.930 . S
H1377 C1357 0.931 . S
H1378 C1359 0.931 . S
H1379 C1361 0.930 . S
H1380 C1363 0.930 . S
H1381 C1364 0.931 . S
N1382 C1344 1.343 . S
N1382 C1365 1.343 . S
N1383 C1351 1.343 . S
N1383 C1358 1.343 . S
C1384 C1385 1.384 . S
C1384 C1386 1.384 . S
C1384 H1412 0.931 . S
C1385 C1384 1.384 . S
C1385 C1388 1.382 . S
C1386 C1384 1.384 . S
C1386 C1387 1.381 . S
C1386 H1413 0.930 . S
C1387 C1386 1.381 . S
C1387 C1389 1.381 . S
C1387 C1390 1.487 . S
C1388 C1385 1.382 . S
C1388 C1389 1.387 . S
C1388 H1414 0.930 . S
C1389 C1387 1.381 . S
C1389 C1388 1.387 . S
C1389 H1415 0.931 . S
C1390 C1387 1.487 . S
C1390 C1397 1.399 . S
C1390 N1428 1.343 . S
C1391 C1392 1.384 . S
C1391 C1393 1.384 . S
C1391 H1416 0.931 . S
C1392 C1391 1.384 . S
C1392 C1395 1.382 . S
C1393 C1391 1.384 . S
C1393 C1394 1.381 . S
C1393 H1417 0.930 . S
C1394 C1393 1.381 . S
C1394 C1396 1.381 . S
C1394 C1397 1.487 . S
C1395 C1392 1.382 . S
C1395 C1396 1.387 . S
C1395 H1418 0.930 . S
C1396 C1394 1.381 . S
C1396 C1395 1.387 . S
C1396 H1419 0.931 . S
C1397 C1390 1.399 . S
C1397 C1394 1.487 . S
C1397 N1429 1.343 . S
C1398 C1399 1.384 . S
C1398 C1400 1.384 . S
C1398 H1420 0.931 . S
C1399 C1398 1.384 . S
C1399 C1402 1.382 . S
C1400 C1398 1.384 . S
C1400 C1401 1.381 . S
C1400 H1421 0.930 . S
C1401 C1400 1.381 . S
C1401 C1403 1.381 . S
C1401 C1404 1.487 . S
C1402 C1399 1.382 . S
C1402 C1403 1.387 . S
C1402 H1422 0.930 . S
C1403 C1401 1.381 . S
C1403 C1402 1.387 . S
C1403 H1423 0.931 . S
C1404 C1401 1.487 . S
C1404 C1411 1.399 . S
C1404 N1429 1.343 . S
C1405 C1406 1.384 . S
C1405 C1407 1.384 . S
C1405 H1424 0.931 . S
C1406 C1405 1.384 . S
C1406 C1409 1.382 . S
C1407 C1405 1.384 . S
C1407 C1408 1.381 . S
C1407 H1425 0.930 . S
C1408 C1407 1.381 . S
C1408 C1410 1.381 . S
C1408 C1411 1.487 . S
C1409 C1406 1.382 . S
C1409 C1410 1.387 . S
C1409 H1426 0.930 . S
C1410 C1408 1.381 . S
C1410 C1409 1.387 . S
C1410 H1427 0.931 . S
C1411 C1404 1.399 . S
C1411 C1408 1.487 . S
C1411 N1428 1.343 . S
H1412 C1384 0.931 . S
H1413 C1386 0.930 . S
H1414 C1388 0.930 . S
H1415 C1389 0.931 . S
H1416 C1391 0.931 . S
H1417 C1393 0.930 . S
H1418 C1395 0.930 . S
H1419 C1396 0.931 . S
H1420 C1398 0.931 . S
H1421 C1400 0.930 . S
H1422 C1402 0.930 . S
H1423 C1403 0.931 . S
H1424 C1405 0.931 . S
H1425 C1407 0.930 . S
H1426 C1409 0.930 . S
H1427 C1410 0.931 . S
N1428 C1390 1.343 . S
N1428 C1411 1.343 . S
N1429 C1397 1.343 . S
N1429 C1404 1.343 . S
C1430 C1431 1.384 . S
C1430 C1432 1.384 . S
C1430 H1458 0.931 . S
C1431 C1430 1.384 . S
C1431 C1434 1.382 . S
C1432 C1430 1.384 . S
C1432 C1433 1.381 . S
C1432 H1459 0.930 . S
C1433 C1432 1.381 . S
C1433 C1435 1.381 . S
C1433 C1436 1.487 . S
C1434 C1431 1.382 . S
C1434 C1435 1.387 . S
C1434 H1460 0.930 . S
C1435 C1433 1.381 . S
C1435 C1434 1.387 . S
C1435 H1461 0.931 . S
C1436 C1433 1.487 . S
C1436 C1443 1.399 . S
C1436 N1474 1.343 . S
C1437 C1438 1.384 . S
C1437 C1439 1.384 . S
C1437 H1462 0.931 . S
C1438 C1437 1.384 . S
C1438 C1441 1.382 . S
C1439 C1437 1.384 . S
C1439 C1440 1.381 . S
C1439 H1463 0.930 . S
C1440 C1439 1.381 . S
C1440 C1442 1.381 . S
C1440 C1443 1.487 . S
C1441 C1438 1.382 . S
C1441 C1442 1.387 . S
C1441 H1464 0.930 . S
C1442 C1440 1.381 . S
C1442 C1441 1.387 . S
C1442 H1465 0.931 . S
C1443 C1436 1.399 . S
C1443 C1440 1.487 . S
C1443 N1475 1.343 . S
C1444 C1445 1.384 . S
C1444 C1446 1.384 . S
C1444 H1466 0.931 . S
C1445 C1444 1.384 . S
C1445 C1448 1.382 . S
C1446 C1444 1.384 . S
C1446 C1447 1.381 . S
C1446 H1467 0.930 . S
C1447 C1446 1.381 . S
C1447 C1449 1.381 . S
C1447 C1450 1.487 . S
C1448 C1445 1.382 . S
C1448 C1449 1.387 . S
C1448 H1468 0.930 . S
C1449 C1447 1.381 . S
C1449 C1448 1.387 . S
C1449 H1469 0.931 . S
C1450 C1447 1.487 . S
C1450 C1457 1.399 . S
C1450 N1475 1.343 . S
C1451 C1452 1.384 . S
C1451 C1453 1.384 . S
C1451 H1470 0.931 . S
C1452 C1451 1.384 . S
C1452 C1455 1.382 . S
C1453 C1451 1.384 . S
C1453 C1454 1.381 . S
C1453 H1471 0.930 . S
C1454 C1453 1.381 . S
C1454 C1456 1.381 . S
C1454 C1457 1.487 . S
C1455 C1452 1.382 . S
C1455 C1456 1.387 . S
C1455 H1472 0.930 . S
C1456 C1454 1.381 . S
C1456 C1455 1.387 . S
C1456 H1473 0.931 . S
C1457 C1450 1.399 . S
C1457 C1454 1.487 . S
C1457 N1474 1.343 . S
H1458 C1430 0.931 . S
H1459 C1432 0.930 . S
H1460 C1434 0.930 . S
H1461 C1435 0.931 . S
H1462 C1437 0.931 . S
H1463 C1439 0.930 . S
H1464 C1441 0.930 . S
H1465 C1442 0.931 . S
H1466 C1444 0.931 . S
H1467 C1446 0.930 . S
H1468 C1448 0.930 . S
H1469 C1449 0.931 . S
H1470 C1451 0.931 . S
H1471 C1453 0.930 . S
H1472 C1455 0.930 . S
H1473 C1456 0.931 . S
N1474 C1436 1.343 . S
N1474 C1457 1.343 . S
N1475 C1443 1.343 . S
N1475 C1450 1.343 . S
C1476 C1477 1.349 . S
C1476 C1478 1.327 . S
C1476 H1501 0.950 . S
C1477 C1476 1.349 . S
C1477 C1493 1.349 . S
C1478 C1476 1.327 . S
C1478 C1497 1.429 . S
C1478 H1502 0.950 . S
C1479 C1496 1.574 . S
C1479 C1498 1.368 . S
C1479 H1503 0.949 . S
H1480 C1484 0.949 . S
C1481 C1482 1.349 . S
C1481 C1483 1.327 . S
C1481 H1504 0.950 . S
C1482 C1481 1.349 . S
C1482 C1494 1.349 . S
C1483 C1481 1.327 . S
C1483 C1499 1.429 . S
C1483 H1505 0.950 . S
C1484 H1480 0.949 . S
C1484 C1492 1.574 . S
C1484 C1500 1.368 . S
H1485 C1493 0.950 . S
H1486 C1491 0.950 . S
H1487 C1492 0.949 . S
H1488 C1494 0.916 . S
H1489 C1495 0.950 . S
H1490 C1496 0.949 . S
C1491 H1486 0.950 . S
C1491 C1493 1.327 . S
C1491 C1497 1.429 . S
C1492 C1484 1.574 . S
C1492 H1487 0.949 . S
C1492 C1498 1.368 . S
C1493 C1477 1.349 . S
C1493 H1485 0.950 . S
C1493 C1491 1.327 . S
C1494 C1482 1.349 . S
C1494 H1488 0.916 . S
C1494 C1495 1.327 . S
C1495 H1489 0.950 . S
C1495 C1494 1.327 . S
C1495 C1499 1.429 . S
C1496 C1479 1.574 . S
C1496 H1490 0.949 . S
C1496 C1500 1.368 . S
C1497 C1478 1.429 . S
C1497 C1491 1.429 . S
C1497 C1498 1.523 . S
C1498 C1479 1.368 . S
C1498 C1492 1.368 . S
C1498 C1497 1.523 . S
C1499 C1483 1.429 . S
C1499 C1495 1.429 . S
C1499 C1500 1.523 . S
C1500 C1484 1.368 . S
C1500 C1496 1.368 . S
C1500 C1499 1.523 . S
H1501 C1476 0.950 . S
H1502 C1478 0.950 . S
H1503 C1479 0.949 . S
H1504 C1481 0.950 . S
H1505 C1483 0.950 . S
C1506 C1507 1.349 . S
C1506 C1508 1.327 . S
C1506 H1531 0.950 . S
C1507 C1506 1.349 . S
C1507 C1523 1.349 . S
C1508 C1506 1.327 . S
C1508 C1527 1.429 . S
C1508 H1532 0.950 . S
C1509 C1526 1.574 . S
C1509 C1528 1.368 . S
C1509 H1533 0.949 . S
H1510 C1514 0.949 . S
C1511 C1512 1.349 . S
C1511 C1513 1.327 . S
C1511 H1534 0.950 . S
C1512 C1511 1.349 . S
C1512 C1524 1.349 . S
C1513 C1511 1.327 . S
C1513 C1529 1.429 . S
C1513 H1535 0.950 . S
C1514 H1510 0.949 . S
C1514 C1522 1.574 . S
C1514 C1530 1.368 . S
H1515 C1523 0.950 . S
H1516 C1521 0.950 . S
H1517 C1522 0.949 . S
H1518 C1524 0.950 . S
H1519 C1525 0.950 . S
H1520 C1526 0.949 . S
C1521 H1516 0.950 . S
C1521 C1523 1.327 . S
C1521 C1527 1.429 . S
C1522 C1514 1.574 . S
C1522 H1517 0.949 . S
C1522 C1528 1.368 . S
C1523 C1507 1.349 . S
C1523 H1515 0.950 . S
C1523 C1521 1.327 . S
C1524 C1512 1.349 . S
C1524 H1518 0.950 . S
C1524 C1525 1.327 . S
C1525 H1519 0.950 . S
C1525 C1524 1.327 . S
C1525 C1529 1.429 . S
C1526 C1509 1.574 . S
C1526 H1520 0.949 . S
C1526 C1530 1.368 . S
C1527 C1508 1.429 . S
C1527 C1521 1.429 . S
C1527 C1528 1.523 . S
C1528 C1509 1.368 . S
C1528 C1522 1.368 . S
C1528 C1527 1.523 . S
C1529 C1513 1.429 . S
C1529 C1525 1.429 . S
C1529 C1530 1.523 . S
C1530 C1514 1.368 . S
C1530 C1526 1.368 . S
C1530 C1529 1.523 . S
H1531 C1506 0.950 . S
H1532 C1508 0.950 . S
H1533 C1509 0.949 . S
H1534 C1511 0.950 . S
H1535 C1513 0.950 . S
C1536 C1537 1.349 . S
C1536 C1538 1.327 . S
C1536 H1561 0.950 . S
C1537 C1536 1.349 . S
C1537 C1553 1.349 1_545 S
C1538 C1536 1.327 . S
C1538 C1557 1.429 . S
C1538 H1562 0.950 . S
C1539 C1556 1.574 . S
C1539 C1558 1.368 1_565 S
C1539 H1563 0.949 . S
H1540 C1544 0.949 . S
C1541 C1542 1.349 1_565 S
C1541 C1543 1.327 . S
C1541 H1564 0.950 . S
C1542 C1541 1.349 1_545 S
C1542 C1554 1.349 . S
C1543 C1541 1.327 . S
C1543 C1559 1.429 1_565 S
C1543 H1565 0.950 . S
C1544 H1540 0.949 . S
C1544 C1552 1.574 . S
C1544 C1560 1.368 . S
H1545 C1553 0.950 . S
H1546 C1551 0.950 . S
H1547 C1552 0.949 . S
H1548 C1554 0.950 . S
H1549 C1555 0.950 . S
H1550 C1556 0.949 . S
C1551 H1546 0.950 . S
C1551 C1553 1.327 . S
C1551 C1557 1.429 1_565 S
C1552 C1544 1.574 . S
C1552 H1547 0.949 . S
C1552 C1558 1.368 . S
C1553 C1537 1.349 1_565 S
C1553 H1545 0.950 . S
C1553 C1551 1.327 . S
C1554 C1542 1.349 . S
C1554 H1548 0.950 . S
C1554 C1555 1.327 . S
C1555 H1549 0.950 . S
C1555 C1554 1.327 . S
C1555 C1559 1.429 . S
C1556 C1539 1.574 . S
C1556 H1550 0.949 . S
C1556 C1560 1.368 1_565 S
C1557 C1538 1.429 . S
C1557 C1551 1.429 1_545 S
C1557 C1558 1.523 . S
C1558 C1539 1.368 1_545 S
C1558 C1552 1.368 . S
C1558 C1557 1.523 . S
C1559 C1543 1.429 1_545 S
C1559 C1555 1.429 . S
C1559 C1560 1.523 . S
C1560 C1544 1.368 . S
C1560 C1556 1.368 1_545 S
C1560 C1559 1.523 . S
H1561 C1536 0.950 . S
H1562 C1538 0.950 . S
H1563 C1539 0.949 . S
H1564 C1541 0.950 . S
H1565 C1543 0.950 . S
C1566 C1567 1.349 . S
C1566 C1568 1.327 . S
C1566 H1591 0.950 . S
C1567 C1566 1.349 . S
C1567 C1583 1.349 1_565 S
C1568 C1566 1.327 . S
C1568 C1587 1.429 . S
C1568 H1592 0.950 . S
C1569 C1586 1.574 . S
C1569 C1588 1.368 1_545 S
C1569 H1593 0.949 . S
H1570 C1574 0.949 . S
C1571 C1572 1.349 1_545 S
C1571 C1573 1.327 . S
C1571 H1594 0.950 . S
C1572 C1571 1.349 1_565 S
C1572 C1584 1.349 . S
C1573 C1571 1.327 . S
C1573 C1589 1.429 1_545 S
C1573 H1595 0.950 . S
C1574 H1570 0.949 . S
C1574 C1582 1.574 . S
C1574 C1590 1.368 . S
H1575 C1583 0.950 . S
H1576 C1581 0.950 . S
H1577 C1582 0.949 . S
H1578 C1584 0.950 . S
H1579 C1585 0.950 . S
H1580 C1586 0.949 . S
C1581 H1576 0.950 . S
C1581 C1583 1.327 . S
C1581 C1587 1.429 1_545 S
C1582 C1574 1.574 . S
C1582 H1577 0.949 . S
C1582 C1588 1.368 . S
C1583 C1567 1.349 1_545 S
C1583 H1575 0.950 . S
C1583 C1581 1.327 . S
C1584 C1572 1.349 . S
C1584 H1578 0.950 . S
C1584 C1585 1.327 . S
C1585 H1579 0.950 . S
C1585 C1584 1.327 . S
C1585 C1589 1.429 . S
C1586 C1569 1.574 . S
C1586 H1580 0.949 . S
C1586 C1590 1.368 1_545 S
C1587 C1568 1.429 . S
C1587 C1581 1.429 1_565 S
C1587 C1588 1.523 . S
C1588 C1569 1.368 1_565 S
C1588 C1582 1.368 . S
C1588 C1587 1.523 . S
C1589 C1573 1.429 1_565 S
C1589 C1585 1.429 . S
C1589 C1590 1.523 . S
C1590 C1574 1.368 . S
C1590 C1586 1.368 1_565 S
C1590 C1589 1.523 . S
H1591 C1566 0.950 . S
H1592 C1568 0.950 . S
H1593 C1569 0.949 . S
H1594 C1571 0.950 . S
H1595 C1573 0.950 . S
C1596 C1597 1.349 1_655 S
C1596 C1598 1.327 . S
C1596 H1621 0.950 . S
C1597 C1596 1.349 1_455 S
C1597 C1613 1.349 . S
C1598 C1596 1.327 . S
C1598 C1617 1.429 1_655 S
C1598 H1622 0.950 . S
C1599 C1616 1.574 . S
C1599 C1618 1.368 . S
C1599 H1623 0.949 . S
H1600 C1604 0.949 . S
C1601 C1602 1.349 . S
C1601 C1603 1.327 . S
C1601 H1624 0.950 . S
C1602 C1601 1.349 . S
C1602 C1614 1.349 1_455 S
C1603 C1601 1.327 . S
C1603 C1619 1.429 . S
C1603 H1625 0.950 . S
C1604 H1600 0.949 . S
C1604 C1612 1.574 . S
C1604 C1620 1.368 1_655 S
H1605 C1613 0.950 . S
H1606 C1611 0.950 . S
H1607 C1612 0.949 . S
H1608 C1614 0.950 . S
H1609 C1615 0.950 . S
H1610 C1616 0.949 . S
C1611 H1606 0.950 . S
C1611 C1613 1.327 . S
C1611 C1617 1.429 . S
C1612 C1604 1.574 . S
C1612 H1607 0.949 . S
C1612 C1618 1.368 1_655 S
C1613 C1597 1.349 . S
C1613 H1605 0.950 . S
C1613 C1611 1.327 . S
C1614 C1602 1.349 1_655 S
C1614 H1608 0.950 . S
C1614 C1615 1.327 . S
C1615 H1609 0.950 . S
C1615 C1614 1.327 . S
C1615 C1619 1.429 1_655 S
C1616 C1599 1.574 . S
C1616 H1610 0.949 . S
C1616 C1620 1.368 . S
C1617 C1598 1.429 1_455 S
C1617 C1611 1.429 . S
C1617 C1618 1.523 . S
C1618 C1599 1.368 . S
C1618 C1612 1.368 1_455 S
C1618 C1617 1.523 . S
C1619 C1603 1.429 . S
C1619 C1615 1.429 1_455 S
C1619 C1620 1.523 . S
C1620 C1604 1.368 1_455 S
C1620 C1616 1.368 . S
C1620 C1619 1.523 . S
H1621 C1596 0.950 . S
H1622 C1598 0.950 . S
H1623 C1599 0.949 . S
H1624 C1601 0.950 . S
H1625 C1603 0.950 . S
C1626 C1627 1.349 . S
C1626 C1628 1.327 . S
C1626 H1651 0.950 . S
C1627 C1626 1.349 . S
C1627 C1643 1.349 . S
C1628 C1626 1.327 . S
C1628 C1647 1.429 . S
C1628 H1652 0.950 . S
C1629 C1646 1.574 . S
C1629 C1648 1.368 . S
C1629 H1653 0.949 . S
H1630 C1634 0.949 . S
C1631 C1632 1.349 . S
C1631 C1633 1.327 . S
C1631 H1654 0.950 . S
C1632 C1631 1.349 . S
C1632 C1644 1.349 . S
C1633 C1631 1.327 . S
C1633 C1649 1.429 . S
C1633 H1655 0.950 . S
C1634 H1630 0.949 . S
C1634 C1642 1.574 . S
C1634 C1650 1.368 . S
H1635 C1643 0.950 . S
H1636 C1641 0.950 . S
H1637 C1642 0.949 . S
H1638 C1644 0.950 . S
H1639 C1645 0.950 . S
H1640 C1646 0.949 . S
C1641 H1636 0.950 . S
C1641 C1643 1.327 . S
C1641 C1647 1.429 . S
C1642 C1634 1.574 . S
C1642 H1637 0.949 . S
C1642 C1648 1.368 . S
C1643 C1627 1.349 . S
C1643 H1635 0.950 . S
C1643 C1641 1.327 . S
C1644 C1632 1.349 . S
C1644 H1638 0.950 . S
C1644 C1645 1.327 . S
C1645 H1639 0.950 . S
C1645 C1644 1.327 . S
C1645 C1649 1.429 . S
C1646 C1629 1.574 . S
C1646 H1640 0.949 . S
C1646 C1650 1.368 . S
C1647 C1628 1.429 . S
C1647 C1641 1.429 . S
C1647 C1648 1.523 . S
C1648 C1629 1.368 . S
C1648 C1642 1.368 . S
C1648 C1647 1.523 . S
C1649 C1633 1.429 . S
C1649 C1645 1.429 . S
C1649 C1650 1.523 . S
C1650 C1634 1.368 . S
C1650 C1646 1.368 . S
C1650 C1649 1.523 . S
H1651 C1626 0.950 . S
H1652 C1628 0.950 . S
H1653 C1629 0.949 . S
H1654 C1631 0.950 . S
H1655 C1633 0.950 . S
C1656 C1657 1.349 . S
C1656 C1658 1.327 . S
C1656 H1681 0.950 . S
C1657 C1656 1.349 . S
C1657 C1673 1.349 . S
C1658 C1656 1.327 . S
C1658 C1677 1.429 . S
C1658 H1682 0.950 . S
C1659 C1676 1.574 . S
C1659 C1678 1.368 . S
C1659 H1683 0.949 . S
H1660 C1664 0.949 . S
C1661 C1662 1.349 . S
C1661 C1663 1.327 . S
C1661 H1684 0.939 . S
C1662 C1661 1.349 . S
C1662 C1674 1.349 . S
C1663 C1661 1.327 . S
C1663 C1679 1.429 . S
C1663 H1685 0.951 . S
C1664 H1660 0.949 . S
C1664 C1672 1.574 . S
C1664 C1680 1.368 . S
H1665 C1673 0.950 . S
H1666 C1671 0.950 . S
H1667 C1672 0.949 . S
H1668 C1674 0.950 . S
H1669 C1675 0.950 . S
H1670 C1676 0.949 . S
C1671 H1666 0.950 . S
C1671 C1673 1.327 . S
C1671 C1677 1.429 . S
C1672 C1664 1.574 . S
C1672 H1667 0.949 . S
C1672 C1678 1.368 . S
C1673 C1657 1.349 . S
C1673 H1665 0.950 . S
C1673 C1671 1.327 . S
C1674 C1662 1.349 . S
C1674 H1668 0.950 . S
C1674 C1675 1.327 . S
C1675 H1669 0.950 . S
C1675 C1674 1.327 . S
C1675 C1679 1.429 . S
C1676 C1659 1.574 . S
C1676 H1670 0.949 . S
C1676 C1680 1.368 . S
C1677 C1658 1.429 . S
C1677 C1671 1.429 . S
C1677 C1678 1.523 . S
C1678 C1659 1.368 . S
C1678 C1672 1.368 . S
C1678 C1677 1.523 . S
C1679 C1663 1.429 . S
C1679 C1675 1.429 . S
C1679 C1680 1.523 . S
C1680 C1664 1.368 . S
C1680 C1676 1.368 . S
C1680 C1679 1.523 . S
H1681 C1656 0.950 . S
H1682 C1658 0.950 . S
H1683 C1659 0.949 . S
H1684 C1661 0.939 . S
H1685 C1663 0.951 . S
C1686 C1687 1.349 . S
C1686 C1688 1.327 . S
C1686 H1711 0.950 . S
C1687 C1686 1.349 . S
C1687 C1703 1.349 . S
C1688 C1686 1.327 . S
C1688 C1707 1.429 . S
C1688 H1712 0.950 . S
C1689 C1706 1.574 . S
C1689 C1708 1.368 . S
C1689 H1713 0.949 . S
H1690 C1694 0.949 . S
C1691 C1692 1.349 . S
C1691 C1693 1.327 . S
C1691 H1714 0.950 . S
C1692 C1691 1.349 . S
C1692 C1704 1.349 . S
C1693 C1691 1.327 . S
C1693 C1709 1.429 . S
C1693 H1715 0.950 . S
C1694 H1690 0.949 . S
C1694 C1702 1.574 . S
C1694 C1710 1.368 . S
H1695 C1703 0.950 . S
H1696 C1701 0.950 . S
H1697 C1702 0.949 . S
H1698 C1704 0.950 . S
H1699 C1705 0.950 . S
H1700 C1706 0.949 . S
C1701 H1696 0.950 . S
C1701 C1703 1.327 . S
C1701 C1707 1.429 . S
C1702 C1694 1.574 . S
C1702 H1697 0.949 . S
C1702 C1708 1.368 . S
C1703 C1687 1.349 . S
C1703 H1695 0.950 . S
C1703 C1701 1.327 . S
C1704 C1692 1.349 . S
C1704 H1698 0.950 . S
C1704 C1705 1.327 . S
C1705 H1699 0.950 . S
C1705 C1704 1.327 . S
C1705 C1709 1.429 . S
C1706 C1689 1.574 . S
C1706 H1700 0.949 . S
C1706 C1710 1.368 . S
C1707 C1688 1.429 . S
C1707 C1701 1.429 . S
C1707 C1708 1.523 . S
C1708 C1689 1.368 . S
C1708 C1702 1.368 . S
C1708 C1707 1.523 . S
C1709 C1693 1.429 . S
C1709 C1705 1.429 . S
C1709 C1710 1.523 . S
C1710 C1694 1.368 . S
C1710 C1706 1.368 . S
C1710 C1709 1.523 . S
H1711 C1686 0.950 . S
H1712 C1688 0.950 . S
H1713 C1689 0.949 . S
H1714 C1691 0.950 . S
H1715 C1693 0.950 . S
C1716 C1717 1.349 . S
C1716 C1718 1.327 . S
C1716 H1741 0.950 . S
C1717 C1716 1.349 . S
C1717 C1733 1.349 1_565 S
C1718 C1716 1.327 . S
C1718 C1737 1.429 . S
C1718 H1742 0.950 . S
C1719 C1736 1.574 . S
C1719 C1738 1.368 1_545 S
C1719 H1743 0.949 . S
H1720 C1724 0.949 . S
C1721 C1722 1.349 1_545 S
C1721 C1723 1.327 . S
C1721 H1744 0.950 . S
C1722 C1721 1.349 1_565 S
C1722 C1734 1.349 . S
C1723 C1721 1.327 . S
C1723 C1739 1.429 1_545 S
C1723 H1745 0.950 . S
C1724 H1720 0.949 . S
C1724 C1732 1.574 . S
C1724 C1740 1.368 . S
H1725 C1733 0.950 . S
H1726 C1731 0.950 . S
H1727 C1732 0.949 . S
H1728 C1734 0.950 . S
H1729 C1735 0.950 . S
H1730 C1736 0.949 . S
C1731 H1726 0.950 . S
C1731 C1733 1.327 . S
C1731 C1737 1.429 1_545 S
C1732 C1724 1.574 . S
C1732 H1727 0.949 . S
C1732 C1738 1.368 . S
C1733 C1717 1.349 1_545 S
C1733 H1725 0.950 . S
C1733 C1731 1.327 . S
C1734 C1722 1.349 . S
C1734 H1728 0.950 . S
C1734 C1735 1.327 . S
C1735 H1729 0.950 . S
C1735 C1734 1.327 . S
C1735 C1739 1.429 . S
C1736 C1719 1.574 . S
C1736 H1730 0.949 . S
C1736 C1740 1.368 1_545 S
C1737 C1718 1.429 . S
C1737 C1731 1.429 1_565 S
C1737 C1738 1.523 . S
C1738 C1719 1.368 1_565 S
C1738 C1732 1.368 . S
C1738 C1737 1.523 . S
C1739 C1723 1.429 1_565 S
C1739 C1735 1.429 . S
C1739 C1740 1.523 . S
C1740 C1724 1.368 . S
C1740 C1736 1.368 1_565 S
C1740 C1739 1.523 . S
H1741 C1716 0.950 . S
H1742 C1718 0.950 . S
H1743 C1719 0.949 . S
H1744 C1721 0.950 . S
H1745 C1723 0.950 . S
C1746 C1747 1.349 1_565 S
C1746 C1748 1.327 . S
C1746 H1771 0.950 . S
C1747 C1746 1.349 1_545 S
C1747 C1763 1.349 . S
C1748 C1746 1.327 . S
C1748 C1767 1.429 1_565 S
C1748 H1772 0.950 . S
C1749 C1766 1.574 . S
C1749 C1768 1.368 . S
C1749 H1773 0.949 . S
H1750 C1754 0.949 . S
C1751 C1752 1.349 . S
C1751 C1753 1.327 . S
C1751 H1774 0.950 . S
C1752 C1751 1.349 . S
C1752 C1764 1.349 1_545 S
C1753 C1751 1.327 . S
C1753 C1769 1.429 . S
C1753 H1775 0.950 . S
C1754 H1750 0.949 . S
C1754 C1762 1.574 . S
C1754 C1770 1.368 1_565 S
H1755 C1763 0.950 . S
H1756 C1761 0.950 . S
H1757 C1762 0.949 . S
H1758 C1764 0.950 . S
H1759 C1765 0.950 . S
H1760 C1766 0.949 . S
C1761 H1756 0.950 . S
C1761 C1763 1.327 . S
C1761 C1767 1.429 . S
C1762 C1754 1.574 . S
C1762 H1757 0.949 . S
C1762 C1768 1.368 1_565 S
C1763 C1747 1.349 . S
C1763 H1755 0.950 . S
C1763 C1761 1.327 . S
C1764 C1752 1.349 1_565 S
C1764 H1758 0.950 . S
C1764 C1765 1.327 . S
C1765 H1759 0.950 . S
C1765 C1764 1.327 . S
C1765 C1769 1.429 1_565 S
C1766 C1749 1.574 . S
C1766 H1760 0.949 . S
C1766 C1770 1.368 . S
C1767 C1748 1.429 1_545 S
C1767 C1761 1.429 . S
C1767 C1768 1.523 . S
C1768 C1749 1.368 . S
C1768 C1762 1.368 1_545 S
C1768 C1767 1.523 . S
C1769 C1753 1.429 . S
C1769 C1765 1.429 1_545 S
C1769 C1770 1.523 . S
C1770 C1754 1.368 1_545 S
C1770 C1766 1.368 . S
C1770 C1769 1.523 . S
H1771 C1746 0.950 . S
H1772 C1748 0.950 . S
H1773 C1749 0.949 . S
H1774 C1751 0.950 . S
H1775 C1753 0.950 . S
C1776 C1777 1.349 . S
C1776 C1778 1.327 . S
C1776 H1801 0.950 . S
C1777 C1776 1.349 . S
C1777 C1793 1.349 1_655 S
C1778 C1776 1.327 . S
C1778 C1797 1.429 . S
C1778 H1802 0.950 . S
C1779 C1796 1.574 . S
C1779 C1798 1.368 1_455 S
C1779 H1803 0.949 . S
H1780 C1784 0.949 . S
C1781 C1782 1.349 1_455 S
C1781 C1783 1.327 . S
C1781 H1804 0.950 . S
C1782 C1781 1.349 1_655 S
C1782 C1794 1.349 . S
C1783 C1781 1.327 . S
C1783 C1799 1.429 1_455 S
C1783 H1805 0.950 . S
C1784 H1780 0.949 . S
C1784 C1792 1.574 . S
C1784 C1800 1.368 . S
H1785 C1793 0.950 . S
H1786 C1791 0.950 . S
H1787 C1792 0.949 . S
H1788 C1794 0.950 . S
H1789 C1795 0.950 . S
H1790 C1796 0.949 . S
C1791 H1786 0.950 . S
C1791 C1793 1.327 . S
C1791 C1797 1.429 1_455 S
C1792 C1784 1.574 . S
C1792 H1787 0.949 . S
C1792 C1798 1.368 . S
C1793 C1777 1.349 1_455 S
C1793 H1785 0.950 . S
C1793 C1791 1.327 . S
C1794 C1782 1.349 . S
C1794 H1788 0.950 . S
C1794 C1795 1.327 . S
C1795 H1789 0.950 . S
C1795 C1794 1.327 . S
C1795 C1799 1.429 . S
C1796 C1779 1.574 . S
C1796 H1790 0.949 . S
C1796 C1800 1.368 1_455 S
C1797 C1778 1.429 . S
C1797 C1791 1.429 1_655 S
C1797 C1798 1.523 . S
C1798 C1779 1.368 1_655 S
C1798 C1792 1.368 . S
C1798 C1797 1.523 . S
C1799 C1783 1.429 1_655 S
C1799 C1795 1.429 . S
C1799 C1800 1.523 . S
C1800 C1784 1.368 . S
C1800 C1796 1.368 1_655 S
C1800 C1799 1.523 . S
H1801 C1776 0.950 . S
H1802 C1778 0.950 . S
H1803 C1779 0.949 . S
H1804 C1781 0.950 . S
H1805 C1783 0.950 . S
C1806 C1807 1.349 . S
C1806 C1808 1.327 . S
C1806 H1831 0.950 . S
C1807 C1806 1.349 . S
C1807 C1823 1.349 . S
C1808 C1806 1.327 . S
C1808 C1827 1.429 . S
C1808 H1832 0.950 . S
C1809 C1826 1.574 . S
C1809 C1828 1.368 . S
C1809 H1833 0.949 . S
H1810 C1814 0.949 . S
C1811 C1812 1.349 . S
C1811 C1813 1.327 . S
C1811 H1834 0.950 . S
C1812 C1811 1.349 . S
C1812 C1824 1.349 . S
C1813 C1811 1.327 . S
C1813 C1829 1.429 . S
C1813 H1835 0.950 . S
C1814 H1810 0.949 . S
C1814 C1822 1.574 . S
C1814 C1830 1.368 . S
H1815 C1823 0.950 . S
H1816 C1821 0.950 . S
H1817 C1822 0.949 . S
H1818 C1824 0.950 . S
H1819 C1825 0.950 . S
H1820 C1826 0.949 . S
C1821 H1816 0.950 . S
C1821 C1823 1.327 . S
C1821 C1827 1.429 . S
C1822 C1814 1.574 . S
C1822 H1817 0.949 . S
C1822 C1828 1.368 . S
C1823 C1807 1.349 . S
C1823 H1815 0.950 . S
C1823 C1821 1.327 . S
C1824 C1812 1.349 . S
C1824 H1818 0.950 . S
C1824 C1825 1.327 . S
C1825 H1819 0.950 . S
C1825 C1824 1.327 . S
C1825 C1829 1.429 . S
C1826 C1809 1.574 . S
C1826 H1820 0.949 . S
C1826 C1830 1.368 . S
C1827 C1808 1.429 . S
C1827 C1821 1.429 . S
C1827 C1828 1.523 . S
C1828 C1809 1.368 . S
C1828 C1822 1.368 . S
C1828 C1827 1.523 . S
C1829 C1813 1.429 . S
C1829 C1825 1.429 . S
C1829 C1830 1.523 . S
C1830 C1814 1.368 . S
C1830 C1826 1.368 . S
C1830 C1829 1.523 . S
H1831 C1806 0.950 . S
H1832 C1808 0.950 . S
H1833 C1809 0.949 . S
H1834 C1811 0.950 . S
H1835 C1813 0.950 . S
C1836 C1837 1.349 . S
C1836 C1838 1.327 . S
C1836 H1861 0.950 . S
C1837 C1836 1.349 . S
C1837 C1853 1.349 . S
C1838 C1836 1.327 . S
C1838 C1857 1.429 . S
C1838 H1862 0.950 . S
C1839 C1856 1.574 . S
C1839 C1858 1.368 . S
C1839 H1863 0.949 . S
H1840 C1844 0.949 . S
C1841 C1842 1.349 . S
C1841 C1843 1.327 . S
C1841 H1864 0.950 . S
C1842 C1841 1.349 . S
C1842 C1854 1.349 . S
C1843 C1841 1.327 . S
C1843 C1859 1.429 . S
C1843 H1865 0.950 . S
C1844 H1840 0.949 . S
C1844 C1852 1.574 . S
C1844 C1860 1.368 . S
H1845 C1853 0.950 . S
H1846 C1851 0.950 . S
H1847 C1852 0.949 . S
H1848 C1854 0.950 . S
H1849 C1855 0.950 . S
H1850 C1856 0.949 . S
C1851 H1846 0.950 . S
C1851 C1853 1.327 . S
C1851 C1857 1.429 . S
C1852 C1844 1.574 . S
C1852 H1847 0.949 . S
C1852 C1858 1.368 . S
C1853 C1837 1.349 . S
C1853 H1845 0.950 . S
C1853 C1851 1.327 . S
C1854 C1842 1.349 . S
C1854 H1848 0.950 . S
C1854 C1855 1.327 . S
C1855 H1849 0.950 . S
C1855 C1854 1.327 . S
C1855 C1859 1.429 . S
C1856 C1839 1.574 . S
C1856 H1850 0.949 . S
C1856 C1860 1.368 . S
C1857 C1838 1.429 . S
C1857 C1851 1.429 . S
C1857 C1858 1.523 . S
C1858 C1839 1.368 . S
C1858 C1852 1.368 . S
C1858 C1857 1.523 . S
C1859 C1843 1.429 . S
C1859 C1855 1.429 . S
C1859 C1860 1.523 . S
C1860 C1844 1.368 . S
C1860 C1856 1.368 . S
C1860 C1859 1.523 . S
H1861 C1836 0.950 . S
H1862 C1838 0.950 . S
H1863 C1839 0.949 . S
H1864 C1841 0.950 . S
H1865 C1843 0.950 . S
C1866 C1867 1.349 . S
C1866 C1868 1.327 . S
C1866 H1891 0.950 . S
C1867 C1866 1.349 . S
C1867 C1883 1.349 . S
C1868 C1866 1.327 . S
C1868 C1887 1.429 . S
C1868 H1892 0.950 . S
C1869 C1886 1.574 . S
C1869 C1888 1.368 . S
C1869 H1893 0.949 . S
H1870 C1874 0.949 . S
C1871 C1872 1.349 . S
C1871 C1873 1.327 . S
C1871 H1894 0.950 . S
C1872 C1871 1.349 . S
C1872 C1884 1.349 . S
C1873 C1871 1.327 . S
C1873 C1889 1.429 . S
C1873 H1895 0.950 . S
C1874 H1870 0.949 . S
C1874 C1882 1.574 . S
C1874 C1890 1.368 . S
H1875 C1883 0.950 . S
H1876 C1881 0.950 . S
H1877 C1882 0.949 . S
H1878 C1884 0.950 . S
H1879 C1885 0.950 . S
H1880 C1886 0.949 . S
C1881 H1876 0.950 . S
C1881 C1883 1.327 . S
C1881 C1887 1.429 . S
C1882 C1874 1.574 . S
C1882 H1877 0.949 . S
C1882 C1888 1.368 . S
C1883 C1867 1.349 . S
C1883 H1875 0.950 . S
C1883 C1881 1.327 . S
C1884 C1872 1.349 . S
C1884 H1878 0.950 . S
C1884 C1885 1.327 . S
C1885 H1879 0.950 . S
C1885 C1884 1.327 . S
C1885 C1889 1.429 . S
C1886 C1869 1.574 . S
C1886 H1880 0.949 . S
C1886 C1890 1.368 . S
C1887 C1868 1.429 . S
C1887 C1881 1.429 . S
C1887 C1888 1.523 . S
C1888 C1869 1.368 . S
C1888 C1882 1.368 . S
C1888 C1887 1.523 . S
C1889 C1873 1.429 . S
C1889 C1885 1.429 . S
C1889 C1890 1.523 . S
C1890 C1874 1.368 . S
C1890 C1886 1.368 . S
C1890 C1889 1.523 . S
H1891 C1866 0.950 . S
H1892 C1868 0.950 . S
H1893 C1869 0.949 . S
H1894 C1871 0.950 . S
H1895 C1873 0.950 . S
C1896 C1897 1.349 . S
C1896 C1898 1.327 . S
C1896 H1921 0.950 . S
C1897 C1896 1.349 . S
C1897 C1913 1.349 . S
C1898 C1896 1.327 . S
C1898 C1917 1.429 . S
C1898 H1922 0.950 . S
C1899 C1916 1.574 . S
C1899 C1918 1.368 . S
C1899 H1923 0.949 . S
H1900 C1904 0.949 . S
C1901 C1902 1.349 . S
C1901 C1903 1.327 . S
C1901 H1924 0.950 . S
C1902 C1901 1.349 . S
C1902 C1914 1.349 . S
C1903 C1901 1.327 . S
C1903 C1919 1.429 . S
C1903 H1925 0.950 . S
C1904 H1900 0.949 . S
C1904 C1912 1.574 . S
C1904 C1920 1.368 . S
H1905 C1913 0.950 . S
H1906 C1911 0.950 . S
H1907 C1912 0.949 . S
H1908 C1914 0.950 . S
H1909 C1915 0.950 . S
H1910 C1916 0.949 . S
C1911 H1906 0.950 . S
C1911 C1913 1.327 . S
C1911 C1917 1.429 . S
C1912 C1904 1.574 . S
C1912 H1907 0.949 . S
C1912 C1918 1.368 . S
C1913 C1897 1.349 . S
C1913 H1905 0.950 . S
C1913 C1911 1.327 . S
C1914 C1902 1.349 . S
C1914 H1908 0.950 . S
C1914 C1915 1.327 . S
C1915 H1909 0.950 . S
C1915 C1914 1.327 . S
C1915 C1919 1.429 . S
C1916 C1899 1.574 . S
C1916 H1910 0.949 . S
C1916 C1920 1.368 . S
C1917 C1898 1.429 . S
C1917 C1911 1.429 . S
C1917 C1918 1.523 . S
C1918 C1899 1.368 . S
C1918 C1912 1.368 . S
C1918 C1917 1.523 . S
C1919 C1903 1.429 . S
C1919 C1915 1.429 . S
C1919 C1920 1.523 . S
C1920 C1904 1.368 . S
C1920 C1916 1.368 . S
C1920 C1919 1.523 . S
H1921 C1896 0.950 . S
H1922 C1898 0.950 . S
H1923 C1899 0.949 . S
H1924 C1901 0.950 . S
H1925 C1903 0.950 . S
C1926 C1927 1.349 . S
C1926 C1928 1.327 . S
C1926 H1951 0.950 . S
C1927 C1926 1.349 . S
C1927 C1943 1.349 . S
C1928 C1926 1.327 . S
C1928 C1947 1.429 . S
C1928 H1952 0.950 . S
C1929 C1946 1.574 . S
C1929 C1948 1.368 . S
C1929 H1953 0.949 . S
H1930 C1934 0.949 . S
C1931 C1932 1.349 . S
C1931 C1933 1.327 . S
C1931 H1954 0.950 . S
C1932 C1931 1.349 . S
C1932 C1944 1.349 . S
C1933 C1931 1.327 . S
C1933 C1949 1.429 . S
C1933 H1955 0.950 . S
C1934 H1930 0.949 . S
C1934 C1942 1.574 . S
C1934 C1950 1.368 . S
H1935 C1943 0.950 . S
H1936 C1941 0.950 . S
H1937 C1942 0.949 . S
H1938 C1944 0.950 . S
H1939 C1945 0.950 . S
H1940 C1946 0.949 . S
C1941 H1936 0.950 . S
C1941 C1943 1.327 . S
C1941 C1947 1.429 . S
C1942 C1934 1.574 . S
C1942 H1937 0.949 . S
C1942 C1948 1.368 . S
C1943 C1927 1.349 . S
C1943 H1935 0.950 . S
C1943 C1941 1.327 . S
C1944 C1932 1.349 . S
C1944 H1938 0.950 . S
C1944 C1945 1.327 . S
C1945 H1939 0.950 . S
C1945 C1944 1.327 . S
C1945 C1949 1.429 . S
C1946 C1929 1.574 . S
C1946 H1940 0.949 . S
C1946 C1950 1.368 . S
C1947 C1928 1.429 . S
C1947 C1941 1.429 . S
C1947 C1948 1.523 . S
C1948 C1929 1.368 . S
C1948 C1942 1.368 . S
C1948 C1947 1.523 . S
C1949 C1933 1.429 . S
C1949 C1945 1.429 . S
C1949 C1950 1.523 . S
C1950 C1934 1.368 . S
C1950 C1946 1.368 . S
C1950 C1949 1.523 . S
H1951 C1926 0.950 . S
H1952 C1928 0.950 . S
H1953 C1929 0.949 . S
H1954 C1931 0.950 . S
H1955 C1933 0.950 . S
C1956 C1957 1.349 . S
C1956 C1958 1.327 . S
C1956 H1981 0.950 . S
C1957 C1956 1.349 . S
C1957 C1973 1.349 . S
C1958 C1956 1.327 . S
C1958 C1977 1.429 . S
C1958 H1982 0.950 . S
C1959 C1976 1.574 . S
C1959 C1978 1.368 . S
C1959 H1983 0.949 . S
H1960 C1964 0.949 . S
C1961 C1962 1.349 . S
C1961 C1963 1.327 . S
C1961 H1984 0.950 . S
C1962 C1961 1.349 . S
C1962 C1974 1.349 . S
C1963 C1961 1.327 . S
C1963 C1979 1.429 . S
C1963 H1985 0.950 . S
C1964 H1960 0.949 . S
C1964 C1972 1.574 . S
C1964 C1980 1.368 . S
H1965 C1973 0.950 . S
H1966 C1971 0.950 . S
H1967 C1972 0.949 . S
H1968 C1974 0.950 . S
H1969 C1975 0.950 . S
H1970 C1976 0.949 . S
C1971 H1966 0.950 . S
C1971 C1973 1.327 . S
C1971 C1977 1.429 . S
C1972 C1964 1.574 . S
C1972 H1967 0.949 . S
C1972 C1978 1.368 . S
C1973 C1957 1.349 . S
C1973 H1965 0.950 . S
C1973 C1971 1.327 . S
C1974 C1962 1.349 . S
C1974 H1968 0.950 . S
C1974 C1975 1.327 . S
C1975 H1969 0.950 . S
C1975 C1974 1.327 . S
C1975 C1979 1.429 . S
C1976 C1959 1.574 . S
C1976 H1970 0.949 . S
C1976 C1980 1.368 . S
C1977 C1958 1.429 . S
C1977 C1971 1.429 . S
C1977 C1978 1.523 . S
C1978 C1959 1.368 . S
C1978 C1972 1.368 . S
C1978 C1977 1.523 . S
C1979 C1963 1.429 . S
C1979 C1975 1.429 . S
C1979 C1980 1.523 . S
C1980 C1964 1.368 . S
C1980 C1976 1.368 . S
C1980 C1979 1.523 . S
H1981 C1956 0.950 . S
H1982 C1958 0.950 . S
H1983 C1959 0.949 . S
H1984 C1961 0.950 . S
H1985 C1963 0.950 . S
C1986 C1987 1.349 . S
C1986 C1988 1.327 . S
C1986 H2011 0.950 . S
C1987 C1986 1.349 . S
C1987 C2003 1.349 . S
C1988 C1986 1.327 . S
C1988 C2007 1.429 . S
C1988 H2012 0.950 . S
C1989 C2006 1.574 . S
C1989 C2008 1.368 . S
C1989 H2013 0.949 . S
H1990 C1994 0.949 . S
C1991 C1992 1.349 . S
C1991 C1993 1.327 . S
C1991 H2014 0.950 . S
C1992 C1991 1.349 . S
C1992 C2004 1.349 . S
C1993 C1991 1.327 . S
C1993 C2009 1.429 . S
C1993 H2015 0.950 . S
C1994 H1990 0.949 . S
C1994 C2002 1.574 . S
C1994 C2010 1.368 . S
H1995 C2003 0.950 . S
H1996 C2001 0.950 . S
H1997 C2002 0.949 . S
H1998 C2004 0.950 . S
H1999 C2005 0.950 . S
H2000 C2006 0.949 . S
C2001 H1996 0.950 . S
C2001 C2003 1.327 . S
C2001 C2007 1.429 . S
C2002 C1994 1.574 . S
C2002 H1997 0.949 . S
C2002 C2008 1.368 . S
C2003 C1987 1.349 . S
C2003 H1995 0.950 . S
C2003 C2001 1.327 . S
C2004 C1992 1.349 . S
C2004 H1998 0.950 . S
C2004 C2005 1.327 . S
C2005 H1999 0.950 . S
C2005 C2004 1.327 . S
C2005 C2009 1.429 . S
C2006 C1989 1.574 . S
C2006 H2000 0.949 . S
C2006 C2010 1.368 . S
C2007 C1988 1.429 . S
C2007 C2001 1.429 . S
C2007 C2008 1.523 . S
C2008 C1989 1.368 . S
C2008 C2002 1.368 . S
C2008 C2007 1.523 . S
C2009 C1993 1.429 . S
C2009 C2005 1.429 . S
C2009 C2010 1.523 . S
C2010 C1994 1.368 . S
C2010 C2006 1.368 . S
C2010 C2009 1.523 . S
H2011 C1986 0.950 . S
H2012 C1988 0.950 . S
H2013 C1989 0.949 . S
H2014 C1991 0.950 . S
H2015 C1993 0.950 . S
C2016 C2017 1.349 . S
C2016 C2018 1.327 . S
C2016 H2041 0.950 . S
C2017 C2016 1.349 . S
C2017 C2033 1.349 . S
C2018 C2016 1.327 . S
C2018 C2037 1.429 . S
C2018 H2042 0.950 . S
C2019 C2036 1.574 . S
C2019 C2038 1.368 . S
C2019 H2043 0.949 . S
H2020 C2024 0.949 . S
C2021 C2022 1.349 . S
C2021 C2023 1.327 . S
C2021 H2044 0.950 . S
C2022 C2021 1.349 . S
C2022 C2034 1.349 . S
C2023 C2021 1.327 . S
C2023 C2039 1.429 . S
C2023 H2045 0.950 . S
C2024 H2020 0.949 . S
C2024 C2032 1.574 . S
C2024 C2040 1.368 . S
H2025 C2033 0.950 . S
H2026 C2031 0.950 . S
H2027 C2032 0.949 . S
H2028 C2034 0.950 . S
H2029 C2035 0.950 . S
H2030 C2036 0.949 . S
C2031 H2026 0.950 . S
C2031 C2033 1.327 . S
C2031 C2037 1.429 . S
C2032 C2024 1.574 . S
C2032 H2027 0.949 . S
C2032 C2038 1.368 . S
C2033 C2017 1.349 . S
C2033 H2025 0.950 . S
C2033 C2031 1.327 . S
C2034 C2022 1.349 . S
C2034 H2028 0.950 . S
C2034 C2035 1.327 . S
C2035 H2029 0.950 . S
C2035 C2034 1.327 . S
C2035 C2039 1.429 . S
C2036 C2019 1.574 . S
C2036 H2030 0.949 . S
C2036 C2040 1.368 . S
C2037 C2018 1.429 . S
C2037 C2031 1.429 . S
C2037 C2038 1.523 . S
C2038 C2019 1.368 . S
C2038 C2032 1.368 . S
C2038 C2037 1.523 . S
C2039 C2023 1.429 . S
C2039 C2035 1.429 . S
C2039 C2040 1.523 . S
C2040 C2024 1.368 . S
C2040 C2036 1.368 . S
C2040 C2039 1.523 . S
H2041 C2016 0.950 . S
H2042 C2018 0.950 . S
H2043 C2019 0.949 . S
H2044 C2021 0.950 . S
H2045 C2023 0.950 . S
C2046 C2047 1.349 . S
C2046 C2048 1.327 . S
C2046 H2071 0.950 . S
C2047 C2046 1.349 . S
C2047 C2063 1.349 . S
C2048 C2046 1.327 . S
C2048 C2067 1.429 . S
C2048 H2072 0.950 . S
C2049 C2066 1.574 . S
C2049 C2068 1.368 . S
C2049 H2073 0.949 . S
H2050 C2054 0.949 . S
C2051 C2052 1.349 . S
C2051 C2053 1.327 . S
C2051 H2074 0.950 . S
C2052 C2051 1.349 . S
C2052 C2064 1.349 . S
C2053 C2051 1.327 . S
C2053 C2069 1.429 . S
C2053 H2075 0.950 . S
C2054 H2050 0.949 . S
C2054 C2062 1.574 . S
C2054 C2070 1.368 . S
H2055 C2063 0.950 . S
H2056 C2061 0.950 . S
H2057 C2062 0.949 . S
H2058 C2064 0.950 . S
H2059 C2065 0.950 . S
H2060 C2066 0.949 . S
C2061 H2056 0.950 . S
C2061 C2063 1.327 . S
C2061 C2067 1.429 . S
C2062 C2054 1.574 . S
C2062 H2057 0.949 . S
C2062 C2068 1.368 . S
C2063 C2047 1.349 . S
C2063 H2055 0.950 . S
C2063 C2061 1.327 . S
C2064 C2052 1.349 . S
C2064 H2058 0.950 . S
C2064 C2065 1.327 . S
C2065 H2059 0.950 . S
C2065 C2064 1.327 . S
C2065 C2069 1.429 . S
C2066 C2049 1.574 . S
C2066 H2060 0.949 . S
C2066 C2070 1.368 . S
C2067 C2048 1.429 . S
C2067 C2061 1.429 . S
C2067 C2068 1.523 . S
C2068 C2049 1.368 . S
C2068 C2062 1.368 . S
C2068 C2067 1.523 . S
C2069 C2053 1.429 . S
C2069 C2065 1.429 . S
C2069 C2070 1.523 . S
C2070 C2054 1.368 . S
C2070 C2066 1.368 . S
C2070 C2069 1.523 . S
H2071 C2046 0.950 . S
H2072 C2048 0.950 . S
H2073 C2049 0.949 . S
H2074 C2051 0.950 . S
H2075 C2053 0.950 . S
C2076 C2077 1.349 . S
C2076 C2078 1.327 . S
C2076 H2101 0.950 . S
C2077 C2076 1.349 . S
C2077 C2093 1.349 . S
C2078 C2076 1.327 . S
C2078 C2097 1.429 . S
C2078 H2102 0.950 . S
C2079 C2096 1.574 . S
C2079 C2098 1.368 . S
C2079 H2103 0.949 . S
H2080 C2084 0.949 . S
C2081 C2082 1.349 . S
C2081 C2083 1.327 . S
C2081 H2104 0.950 . S
C2082 C2081 1.349 . S
C2082 C2094 1.349 . S
C2083 C2081 1.327 . S
C2083 C2099 1.429 . S
C2083 H2105 0.950 . S
C2084 H2080 0.949 . S
C2084 C2092 1.574 . S
C2084 C2100 1.368 . S
H2085 C2093 0.950 . S
H2086 C2091 0.950 . S
H2087 C2092 0.949 . S
H2088 C2094 0.950 . S
H2089 C2095 0.950 . S
H2090 C2096 0.949 . S
C2091 H2086 0.950 . S
C2091 C2093 1.327 . S
C2091 C2097 1.429 . S
C2092 C2084 1.574 . S
C2092 H2087 0.949 . S
C2092 C2098 1.368 . S
C2093 C2077 1.349 . S
C2093 H2085 0.950 . S
C2093 C2091 1.327 . S
C2094 C2082 1.349 . S
C2094 H2088 0.950 . S
C2094 C2095 1.327 . S
C2095 H2089 0.950 . S
C2095 C2094 1.327 . S
C2095 C2099 1.429 . S
C2096 C2079 1.574 . S
C2096 H2090 0.949 . S
C2096 C2100 1.368 . S
C2097 C2078 1.429 . S
C2097 C2091 1.429 . S
C2097 C2098 1.523 . S
C2098 C2079 1.368 . S
C2098 C2092 1.368 . S
C2098 C2097 1.523 . S
C2099 C2083 1.429 . S
C2099 C2095 1.429 . S
C2099 C2100 1.523 . S
C2100 C2084 1.368 . S
C2100 C2096 1.368 . S
C2100 C2099 1.523 . S
H2101 C2076 0.950 . S
H2102 C2078 0.950 . S
H2103 C2079 0.949 . S
H2104 C2081 0.950 . S
H2105 C2083 0.950 . S
C2106 C2107 1.349 . S
C2106 C2108 1.327 . S
C2106 H2131 0.950 . S
C2107 C2106 1.349 . S
C2107 C2123 1.349 . S
C2108 C2106 1.327 . S
C2108 C2127 1.429 . S
C2108 H2132 0.950 . S
C2109 C2126 1.574 . S
C2109 C2128 1.368 . S
C2109 H2133 0.949 . S
H2110 C2114 0.949 . S
C2111 C2112 1.349 . S
C2111 C2113 1.327 . S
C2111 H2134 0.950 . S
C2112 C2111 1.349 . S
C2112 C2124 1.349 . S
C2113 C2111 1.327 . S
C2113 C2129 1.429 . S
C2113 H2135 0.950 . S
C2114 H2110 0.949 . S
C2114 C2122 1.574 . S
C2114 C2130 1.368 . S
H2115 C2123 0.950 . S
H2116 C2121 0.950 . S
H2117 C2122 0.949 . S
H2118 C2124 0.950 . S
H2119 C2125 0.950 . S
H2120 C2126 0.949 . S
C2121 H2116 0.950 . S
C2121 C2123 1.327 . S
C2121 C2127 1.429 . S
C2122 C2114 1.574 . S
C2122 H2117 0.949 . S
C2122 C2128 1.368 . S
C2123 C2107 1.349 . S
C2123 H2115 0.950 . S
C2123 C2121 1.327 . S
C2124 C2112 1.349 . S
C2124 H2118 0.950 . S
C2124 C2125 1.327 . S
C2125 H2119 0.950 . S
C2125 C2124 1.327 . S
C2125 C2129 1.429 . S
C2126 C2109 1.574 . S
C2126 H2120 0.949 . S
C2126 C2130 1.368 . S
C2127 C2108 1.429 . S
C2127 C2121 1.429 . S
C2127 C2128 1.523 . S
C2128 C2109 1.368 . S
C2128 C2122 1.368 . S
C2128 C2127 1.523 . S
C2129 C2113 1.429 . S
C2129 C2125 1.429 . S
C2129 C2130 1.523 . S
C2130 C2114 1.368 . S
C2130 C2126 1.368 . S
C2130 C2129 1.523 . S
H2131 C2106 0.950 . S
H2132 C2108 0.950 . S
H2133 C2109 0.949 . S
H2134 C2111 0.950 . S
H2135 C2113 0.950 . S
C2136 C2137 1.349 . S
C2136 C2138 1.327 . S
C2136 H2161 0.950 . S
C2137 C2136 1.349 . S
C2137 C2153 1.349 . S
C2138 C2136 1.327 . S
C2138 C2157 1.429 . S
C2138 H2162 0.950 . S
C2139 C2156 1.574 . S
C2139 C2158 1.368 . S
C2139 H2163 0.949 . S
H2140 C2144 0.949 . S
C2141 C2142 1.349 . S
C2141 C2143 1.327 . S
C2141 H2164 0.950 . S
C2142 C2141 1.349 . S
C2142 C2154 1.349 . S
C2143 C2141 1.327 . S
C2143 C2159 1.429 . S
C2143 H2165 0.950 . S
C2144 H2140 0.949 . S
C2144 C2152 1.574 . S
C2144 C2160 1.368 . S
H2145 C2153 0.950 . S
H2146 C2151 0.950 . S
H2147 C2152 0.949 . S
H2148 C2154 0.950 . S
H2149 C2155 0.950 . S
H2150 C2156 0.949 . S
C2151 H2146 0.950 . S
C2151 C2153 1.327 . S
C2151 C2157 1.429 . S
C2152 C2144 1.574 . S
C2152 H2147 0.949 . S
C2152 C2158 1.368 . S
C2153 C2137 1.349 . S
C2153 H2145 0.950 . S
C2153 C2151 1.327 . S
C2154 C2142 1.349 . S
C2154 H2148 0.950 . S
C2154 C2155 1.327 . S
C2155 H2149 0.950 . S
C2155 C2154 1.327 . S
C2155 C2159 1.429 . S
C2156 C2139 1.574 . S
C2156 H2150 0.949 . S
C2156 C2160 1.368 . S
C2157 C2138 1.429 . S
C2157 C2151 1.429 . S
C2157 C2158 1.523 . S
C2158 C2139 1.368 . S
C2158 C2152 1.368 . S
C2158 C2157 1.523 . S
C2159 C2143 1.429 . S
C2159 C2155 1.429 . S
C2159 C2160 1.523 . S
C2160 C2144 1.368 . S
C2160 C2156 1.368 . S
C2160 C2159 1.523 . S
H2161 C2136 0.950 . S
H2162 C2138 0.950 . S
H2163 C2139 0.949 . S
H2164 C2141 0.950 . S
H2165 C2143 0.950 . S
C2166 C2167 1.349 . S
C2166 C2168 1.327 . S
C2166 H2191 0.950 . S
C2167 C2166 1.349 . S
C2167 C2183 1.349 . S
C2168 C2166 1.327 . S
C2168 C2187 1.429 . S
C2168 H2192 0.950 . S
C2169 C2186 1.574 . S
C2169 C2188 1.368 . S
C2169 H2193 0.949 . S
H2170 C2174 0.949 . S
C2171 C2172 1.349 . S
C2171 C2173 1.327 . S
C2171 H2194 0.950 . S
C2172 C2171 1.349 . S
C2172 C2184 1.349 . S
C2173 C2171 1.327 . S
C2173 C2189 1.429 . S
C2173 H2195 0.950 . S
C2174 H2170 0.949 . S
C2174 C2182 1.574 . S
C2174 C2190 1.368 . S
H2175 C2183 0.950 . S
H2176 C2181 0.950 . S
H2177 C2182 0.949 . S
H2178 C2184 0.950 . S
H2179 C2185 0.950 . S
H2180 C2186 0.949 . S
C2181 H2176 0.950 . S
C2181 C2183 1.327 . S
C2181 C2187 1.429 . S
C2182 C2174 1.574 . S
C2182 H2177 0.949 . S
C2182 C2188 1.368 . S
C2183 C2167 1.349 . S
C2183 H2175 0.950 . S
C2183 C2181 1.327 . S
C2184 C2172 1.349 . S
C2184 H2178 0.950 . S
C2184 C2185 1.327 . S
C2185 H2179 0.950 . S
C2185 C2184 1.327 . S
C2185 C2189 1.429 . S
C2186 C2169 1.574 . S
C2186 H2180 0.949 . S
C2186 C2190 1.368 . S
C2187 C2168 1.429 . S
C2187 C2181 1.429 . S
C2187 C2188 1.523 . S
C2188 C2169 1.368 . S
C2188 C2182 1.368 . S
C2188 C2187 1.523 . S
C2189 C2173 1.429 . S
C2189 C2185 1.429 . S
C2189 C2190 1.523 . S
C2190 C2174 1.368 . S
C2190 C2186 1.368 . S
C2190 C2189 1.523 . S
H2191 C2166 0.950 . S
H2192 C2168 0.950 . S
H2193 C2169 0.949 . S
H2194 C2171 0.950 . S
H2195 C2173 0.950 . S
C2196 C2197 1.349 . S
C2196 C2198 1.327 . S
C2196 H2221 0.950 . S
C2197 C2196 1.349 . S
C2197 C2213 1.349 . S
C2198 C2196 1.327 . S
C2198 C2217 1.429 . S
C2198 H2222 0.950 . S
C2199 C2216 1.574 . S
C2199 C2218 1.368 . S
C2199 H2223 0.949 . S
H2200 C2204 0.949 . S
C2201 C2202 1.349 . S
C2201 C2203 1.327 . S
C2201 H2224 0.950 . S
C2202 C2201 1.349 . S
C2202 C2214 1.349 . S
C2203 C2201 1.327 . S
C2203 C2219 1.429 . S
C2203 H2225 0.950 . S
C2204 H2200 0.949 . S
C2204 C2212 1.574 . S
C2204 C2220 1.368 . S
H2205 C2213 0.950 . S
H2206 C2211 0.950 . S
H2207 C2212 0.949 . S
H2208 C2214 0.950 . S
H2209 C2215 0.950 . S
H2210 C2216 0.949 . S
C2211 H2206 0.950 . S
C2211 C2213 1.327 . S
C2211 C2217 1.429 . S
C2212 C2204 1.574 . S
C2212 H2207 0.949 . S
C2212 C2218 1.368 . S
C2213 C2197 1.349 . S
C2213 H2205 0.950 . S
C2213 C2211 1.327 . S
C2214 C2202 1.349 . S
C2214 H2208 0.950 . S
C2214 C2215 1.327 . S
C2215 H2209 0.950 . S
C2215 C2214 1.327 . S
C2215 C2219 1.429 . S
C2216 C2199 1.574 . S
C2216 H2210 0.949 . S
C2216 C2220 1.368 . S
C2217 C2198 1.429 . S
C2217 C2211 1.429 . S
C2217 C2218 1.523 . S
C2218 C2199 1.368 . S
C2218 C2212 1.368 . S
C2218 C2217 1.523 . S
C2219 C2203 1.429 . S
C2219 C2215 1.429 . S
C2219 C2220 1.523 . S
C2220 C2204 1.368 . S
C2220 C2216 1.368 . S
C2220 C2219 1.523 . S
H2221 C2196 0.950 . S
H2222 C2198 0.950 . S
H2223 C2199 0.949 . S
H2224 C2201 0.950 . S
H2225 C2203 0.950 . S
C2226 C2227 1.349 . S
C2226 C2228 1.327 . S
C2226 H2251 0.950 . S
C2227 C2226 1.349 . S
C2227 C2243 1.349 . S
C2228 C2226 1.327 . S
C2228 C2247 1.429 . S
C2228 H2252 0.950 . S
C2229 C2246 1.574 . S
C2229 C2248 1.368 . S
C2229 H2253 0.949 . S
H2230 C2234 0.949 . S
C2231 C2232 1.349 . S
C2231 C2233 1.327 . S
C2231 H2254 0.950 . S
C2232 C2231 1.349 . S
C2232 C2244 1.349 . S
C2233 C2231 1.327 . S
C2233 C2249 1.429 . S
C2233 H2255 0.950 . S
C2234 H2230 0.949 . S
C2234 C2242 1.574 . S
C2234 C2250 1.368 . S
H2235 C2243 0.950 . S
H2236 C2241 0.950 . S
H2237 C2242 0.949 . S
H2238 C2244 0.950 . S
H2239 C2245 0.950 . S
H2240 C2246 0.949 . S
C2241 H2236 0.950 . S
C2241 C2243 1.327 . S
C2241 C2247 1.429 . S
C2242 C2234 1.574 . S
C2242 H2237 0.949 . S
C2242 C2248 1.368 . S
C2243 C2227 1.349 . S
C2243 H2235 0.950 . S
C2243 C2241 1.327 . S
C2244 C2232 1.349 . S
C2244 H2238 0.950 . S
C2244 C2245 1.327 . S
C2245 H2239 0.950 . S
C2245 C2244 1.327 . S
C2245 C2249 1.429 . S
C2246 C2229 1.574 . S
C2246 H2240 0.949 . S
C2246 C2250 1.368 . S
C2247 C2228 1.429 . S
C2247 C2241 1.429 . S
C2247 C2248 1.523 . S
C2248 C2229 1.368 . S
C2248 C2242 1.368 . S
C2248 C2247 1.523 . S
C2249 C2233 1.429 . S
C2249 C2245 1.429 . S
C2249 C2250 1.523 . S
C2250 C2234 1.368 . S
C2250 C2246 1.368 . S
C2250 C2249 1.523 . S
H2251 C2226 0.950 . S
H2252 C2228 0.950 . S
H2253 C2229 0.949 . S
H2254 C2231 0.950 . S
H2255 C2233 0.950 . S
C2256 C2257 1.349 . S
C2256 C2258 1.327 . S
C2256 H2281 0.950 . S
C2257 C2256 1.349 . S
C2257 C2273 1.349 . S
C2258 C2256 1.327 . S
C2258 C2277 1.429 . S
C2258 H2282 0.950 . S
C2259 C2276 1.574 . S
C2259 C2278 1.368 . S
C2259 H2283 0.949 . S
H2260 C2264 0.949 . S
C2261 C2262 1.349 . S
C2261 C2263 1.327 . S
C2261 H2284 0.950 . S
C2262 C2261 1.349 . S
C2262 C2274 1.349 . S
C2263 C2261 1.327 . S
C2263 C2279 1.429 . S
C2263 H2285 0.950 . S
C2264 H2260 0.949 . S
C2264 C2272 1.574 . S
C2264 C2280 1.368 . S
H2265 C2273 0.950 . S
H2266 C2271 0.950 . S
H2267 C2272 0.949 . S
H2268 C2274 0.950 . S
H2269 C2275 0.950 . S
H2270 C2276 0.949 . S
C2271 H2266 0.950 . S
C2271 C2273 1.327 . S
C2271 C2277 1.429 . S
C2272 C2264 1.574 . S
C2272 H2267 0.949 . S
C2272 C2278 1.368 . S
C2273 C2257 1.349 . S
C2273 H2265 0.950 . S
C2273 C2271 1.327 . S
C2274 C2262 1.349 . S
C2274 H2268 0.950 . S
C2274 C2275 1.327 . S
C2275 H2269 0.950 . S
C2275 C2274 1.327 . S
C2275 C2279 1.429 . S
C2276 C2259 1.574 . S
C2276 H2270 0.949 . S
C2276 C2280 1.368 . S
C2277 C2258 1.429 . S
C2277 C2271 1.429 . S
C2277 C2278 1.523 . S
C2278 C2259 1.368 . S
C2278 C2272 1.368 . S
C2278 C2277 1.523 . S
C2279 C2263 1.429 . S
C2279 C2275 1.429 . S
C2279 C2280 1.523 . S
C2280 C2264 1.368 . S
C2280 C2276 1.368 . S
C2280 C2279 1.523 . S
H2281 C2256 0.950 . S
H2282 C2258 0.950 . S
H2283 C2259 0.949 . S
H2284 C2261 0.950 . S
H2285 C2263 0.950 . S
C2286 C2287 1.349 . S
C2286 C2288 1.327 . S
C2286 H2311 0.950 . S
C2287 C2286 1.349 . S
C2287 C2303 1.349 . S
C2288 C2286 1.327 . S
C2288 C2307 1.429 . S
C2288 H2312 0.950 . S
C2289 C2306 1.574 . S
C2289 C2308 1.368 . S
C2289 H2313 0.949 . S
H2290 C2294 0.949 . S
C2291 C2292 1.349 . S
C2291 C2293 1.327 . S
C2291 H2314 0.950 . S
C2292 C2291 1.349 . S
C2292 C2304 1.349 . S
C2293 C2291 1.327 . S
C2293 C2309 1.429 . S
C2293 H2315 0.950 . S
C2294 H2290 0.949 . S
C2294 C2302 1.574 . S
C2294 C2310 1.368 . S
H2295 C2303 0.950 . S
H2296 C2301 0.950 . S
H2297 C2302 0.949 . S
H2298 C2304 0.950 . S
H2299 C2305 0.950 . S
H2300 C2306 0.949 . S
C2301 H2296 0.950 . S
C2301 C2303 1.327 . S
C2301 C2307 1.429 . S
C2302 C2294 1.574 . S
C2302 H2297 0.949 . S
C2302 C2308 1.368 . S
C2303 C2287 1.349 . S
C2303 H2295 0.950 . S
C2303 C2301 1.327 . S
C2304 C2292 1.349 . S
C2304 H2298 0.950 . S
C2304 C2305 1.327 . S
C2305 H2299 0.950 . S
C2305 C2304 1.327 . S
C2305 C2309 1.429 . S
C2306 C2289 1.574 . S
C2306 H2300 0.949 . S
C2306 C2310 1.368 . S
C2307 C2288 1.429 . S
C2307 C2301 1.429 . S
C2307 C2308 1.523 . S
C2308 C2289 1.368 . S
C2308 C2302 1.368 . S
C2308 C2307 1.523 . S
C2309 C2293 1.429 . S
C2309 C2305 1.429 . S
C2309 C2310 1.523 . S
C2310 C2294 1.368 . S
C2310 C2306 1.368 . S
C2310 C2309 1.523 . S
H2311 C2286 0.950 . S
H2312 C2288 0.950 . S
H2313 C2289 0.949 . S
H2314 C2291 0.950 . S
H2315 C2293 0.950 . S
C2316 C2317 1.349 . S
C2316 C2318 1.327 . S
C2316 H2341 0.950 . S
C2317 C2316 1.349 . S
C2317 C2333 1.349 . S
C2318 C2316 1.327 . S
C2318 C2337 1.429 . S
C2318 H2342 0.950 . S
C2319 C2336 1.574 . S
C2319 C2338 1.368 . S
C2319 H2343 0.949 . S
H2320 C2324 0.949 . S
C2321 C2322 1.349 . S
C2321 C2323 1.327 . S
C2321 H2344 0.950 . S
C2322 C2321 1.349 . S
C2322 C2334 1.349 . S
C2323 C2321 1.327 . S
C2323 C2339 1.429 . S
C2323 H2345 0.950 . S
C2324 H2320 0.949 . S
C2324 C2332 1.574 . S
C2324 C2340 1.368 . S
H2325 C2333 0.950 . S
H2326 C2331 0.950 . S
H2327 C2332 0.949 . S
H2328 C2334 0.950 . S
H2329 C2335 0.950 . S
H2330 C2336 0.949 . S
C2331 H2326 0.950 . S
C2331 C2333 1.327 . S
C2331 C2337 1.429 . S
C2332 C2324 1.574 . S
C2332 H2327 0.949 . S
C2332 C2338 1.368 . S
C2333 C2317 1.349 . S
C2333 H2325 0.950 . S
C2333 C2331 1.327 . S
C2334 C2322 1.349 . S
C2334 H2328 0.950 . S
C2334 C2335 1.327 . S
C2335 H2329 0.950 . S
C2335 C2334 1.327 . S
C2335 C2339 1.429 . S
C2336 C2319 1.574 . S
C2336 H2330 0.949 . S
C2336 C2340 1.368 . S
C2337 C2318 1.429 . S
C2337 C2331 1.429 . S
C2337 C2338 1.523 . S
C2338 C2319 1.368 . S
C2338 C2332 1.368 . S
C2338 C2337 1.523 . S
C2339 C2323 1.429 . S
C2339 C2335 1.429 . S
C2339 C2340 1.523 . S
C2340 C2324 1.368 . S
C2340 C2336 1.368 . S
C2340 C2339 1.523 . S
H2341 C2316 0.950 . S
H2342 C2318 0.950 . S
H2343 C2319 0.949 . S
H2344 C2321 0.950 . S
H2345 C2323 0.950 . S
C2346 C2347 1.349 . S
C2346 C2348 1.327 . S
C2346 H2371 0.950 . S
C2347 C2346 1.349 . S
C2347 C2363 1.349 . S
C2348 C2346 1.327 . S
C2348 C2367 1.429 . S
C2348 H2372 0.950 . S
C2349 C2366 1.574 . S
C2349 C2368 1.368 . S
C2349 H2373 0.949 . S
H2350 C2354 0.949 . S
C2351 C2352 1.349 . S
C2351 C2353 1.327 . S
C2351 H2374 0.950 . S
C2352 C2351 1.349 . S
C2352 C2364 1.349 . S
C2353 C2351 1.327 . S
C2353 C2369 1.429 . S
C2353 H2375 0.950 . S
C2354 H2350 0.949 . S
C2354 C2362 1.574 . S
C2354 C2370 1.368 . S
H2355 C2363 0.950 . S
H2356 C2361 0.950 . S
H2357 C2362 0.949 . S
H2358 C2364 0.950 . S
H2359 C2365 0.950 . S
H2360 C2366 0.949 . S
C2361 H2356 0.950 . S
C2361 C2363 1.327 . S
C2361 C2367 1.429 . S
C2362 C2354 1.574 . S
C2362 H2357 0.949 . S
C2362 C2368 1.368 . S
C2363 C2347 1.349 . S
C2363 H2355 0.950 . S
C2363 C2361 1.327 . S
C2364 C2352 1.349 . S
C2364 H2358 0.950 . S
C2364 C2365 1.327 . S
C2365 H2359 0.950 . S
C2365 C2364 1.327 . S
C2365 C2369 1.429 . S
C2366 C2349 1.574 . S
C2366 H2360 0.949 . S
C2366 C2370 1.368 . S
C2367 C2348 1.429 . S
C2367 C2361 1.429 . S
C2367 C2368 1.523 . S
C2368 C2349 1.368 . S
C2368 C2362 1.368 . S
C2368 C2367 1.523 . S
C2369 C2353 1.429 . S
C2369 C2365 1.429 . S
C2369 C2370 1.523 . S
C2370 C2354 1.368 . S
C2370 C2366 1.368 . S
C2370 C2369 1.523 . S
H2371 C2346 0.950 . S
H2372 C2348 0.950 . S
H2373 C2349 0.949 . S
H2374 C2351 0.950 . S
H2375 C2353 0.950 . S
C2376 C2377 1.349 . S
C2376 C2378 1.327 . S
C2376 H2401 0.950 . S
C2377 C2376 1.349 . S
C2377 C2393 1.349 . S
C2378 C2376 1.327 . S
C2378 C2397 1.429 . S
C2378 H2402 0.950 . S
C2379 C2396 1.574 . S
C2379 C2398 1.368 . S
C2379 H2403 0.949 . S
H2380 C2384 0.949 . S
C2381 C2382 1.349 . S
C2381 C2383 1.327 . S
C2381 H2404 0.950 . S
C2382 C2381 1.349 . S
C2382 C2394 1.349 . S
C2383 C2381 1.327 . S
C2383 C2399 1.429 . S
C2383 H2405 0.950 . S
C2384 H2380 0.949 . S
C2384 C2392 1.574 . S
C2384 C2400 1.368 . S
H2385 C2393 0.950 . S
H2386 C2391 0.950 . S
H2387 C2392 0.949 . S
H2388 C2394 0.950 . S
H2389 C2395 0.950 . S
H2390 C2396 0.949 . S
C2391 H2386 0.950 . S
C2391 C2393 1.327 . S
C2391 C2397 1.429 . S
C2392 C2384 1.574 . S
C2392 H2387 0.949 . S
C2392 C2398 1.368 . S
C2393 C2377 1.349 . S
C2393 H2385 0.950 . S
C2393 C2391 1.327 . S
C2394 C2382 1.349 . S
C2394 H2388 0.950 . S
C2394 C2395 1.327 . S
C2395 H2389 0.950 . S
C2395 C2394 1.327 . S
C2395 C2399 1.429 . S
C2396 C2379 1.574 . S
C2396 H2390 0.949 . S
C2396 C2400 1.368 . S
C2397 C2378 1.429 . S
C2397 C2391 1.429 . S
C2397 C2398 1.523 . S
C2398 C2379 1.368 . S
C2398 C2392 1.368 . S
C2398 C2397 1.523 . S
C2399 C2383 1.429 . S
C2399 C2395 1.429 . S
C2399 C2400 1.523 . S
C2400 C2384 1.368 . S
C2400 C2396 1.368 . S
C2400 C2399 1.523 . S
H2401 C2376 0.950 . S
H2402 C2378 0.950 . S
H2403 C2379 0.949 . S
H2404 C2381 0.950 . S
H2405 C2383 0.950 . S
C2406 C2407 1.349 . S
C2406 C2408 1.327 . S
C2406 H2431 0.950 . S
C2407 C2406 1.349 . S
C2407 C2423 1.349 . S
C2408 C2406 1.327 . S
C2408 C2427 1.429 . S
C2408 H2432 0.950 . S
C2409 C2426 1.574 . S
C2409 C2428 1.368 . S
C2409 H2433 0.949 . S
H2410 C2414 0.949 . S
C2411 C2412 1.349 . S
C2411 C2413 1.327 . S
C2411 H2434 0.950 . S
C2412 C2411 1.349 . S
C2412 C2424 1.349 . S
C2413 C2411 1.327 . S
C2413 C2429 1.429 . S
C2413 H2435 0.950 . S
C2414 H2410 0.949 . S
C2414 C2422 1.574 . S
C2414 C2430 1.368 . S
H2415 C2423 0.950 . S
H2416 C2421 0.950 . S
H2417 C2422 0.949 . S
H2418 C2424 0.950 . S
H2419 C2425 0.950 . S
H2420 C2426 0.949 . S
C2421 H2416 0.950 . S
C2421 C2423 1.327 . S
C2421 C2427 1.429 . S
C2422 C2414 1.574 . S
C2422 H2417 0.949 . S
C2422 C2428 1.368 . S
C2423 C2407 1.349 . S
C2423 H2415 0.950 . S
C2423 C2421 1.327 . S
C2424 C2412 1.349 . S
C2424 H2418 0.950 . S
C2424 C2425 1.327 . S
C2425 H2419 0.950 . S
C2425 C2424 1.327 . S
C2425 C2429 1.429 . S
C2426 C2409 1.574 . S
C2426 H2420 0.949 . S
C2426 C2430 1.368 . S
C2427 C2408 1.429 . S
C2427 C2421 1.429 . S
C2427 C2428 1.523 . S
C2428 C2409 1.368 . S
C2428 C2422 1.368 . S
C2428 C2427 1.523 . S
C2429 C2413 1.429 . S
C2429 C2425 1.429 . S
C2429 C2430 1.523 . S
C2430 C2414 1.368 . S
C2430 C2426 1.368 . S
C2430 C2429 1.523 . S
H2431 C2406 0.950 . S
H2432 C2408 0.950 . S
H2433 C2409 0.949 . S
H2434 C2411 0.950 . S
H2435 C2413 0.950 . S
C2436 C2437 1.349 . S
C2436 C2438 1.327 . S
C2436 H2461 0.950 . S
C2437 C2436 1.349 . S
C2437 C2453 1.349 . S
C2438 C2436 1.327 . S
C2438 C2457 1.429 . S
C2438 H2462 0.950 . S
C2439 C2456 1.574 . S
C2439 C2458 1.368 . S
C2439 H2463 0.949 . S
H2440 C2444 0.949 . S
C2441 C2442 1.349 . S
C2441 C2443 1.327 . S
C2441 H2464 0.950 . S
C2442 C2441 1.349 . S
C2442 C2454 1.349 . S
C2443 C2441 1.327 . S
C2443 C2459 1.429 . S
C2443 H2465 0.950 . S
C2444 H2440 0.949 . S
C2444 C2452 1.574 . S
C2444 C2460 1.368 . S
H2445 C2453 0.950 . S
H2446 C2451 0.950 . S
H2447 C2452 0.949 . S
H2448 C2454 0.950 . S
H2449 C2455 0.950 . S
H2450 C2456 0.949 . S
C2451 H2446 0.950 . S
C2451 C2453 1.327 . S
C2451 C2457 1.429 . S
C2452 C2444 1.574 . S
C2452 H2447 0.949 . S
C2452 C2458 1.368 . S
C2453 C2437 1.349 . S
C2453 H2445 0.950 . S
C2453 C2451 1.327 . S
C2454 C2442 1.349 . S
C2454 H2448 0.950 . S
C2454 C2455 1.327 . S
C2455 H2449 0.950 . S
C2455 C2454 1.327 . S
C2455 C2459 1.429 . S
C2456 C2439 1.574 . S
C2456 H2450 0.949 . S
C2456 C2460 1.368 . S
C2457 C2438 1.429 . S
C2457 C2451 1.429 . S
C2457 C2458 1.523 . S
C2458 C2439 1.368 . S
C2458 C2452 1.368 . S
C2458 C2457 1.523 . S
C2459 C2443 1.429 . S
C2459 C2455 1.429 . S
C2459 C2460 1.523 . S
C2460 C2444 1.368 . S
C2460 C2456 1.368 . S
C2460 C2459 1.523 . S
H2461 C2436 0.950 . S
H2462 C2438 0.950 . S
H2463 C2439 0.949 . S
H2464 C2441 0.950 . S
H2465 C2443 0.950 . S
C2466 C2467 1.349 . S
C2466 C2468 1.327 . S
C2466 H2491 0.950 . S
C2467 C2466 1.349 . S
C2467 C2483 1.349 . S
C2468 C2466 1.327 . S
C2468 C2487 1.429 . S
C2468 H2492 0.950 . S
C2469 C2486 1.574 . S
C2469 C2488 1.368 . S
C2469 H2493 0.949 . S
H2470 C2474 0.949 . S
C2471 C2472 1.349 . S
C2471 C2473 1.327 . S
C2471 H2494 0.950 . S
C2472 C2471 1.349 . S
C2472 C2484 1.349 . S
C2473 C2471 1.327 . S
C2473 C2489 1.429 . S
C2473 H2495 0.950 . S
C2474 H2470 0.949 . S
C2474 C2482 1.574 . S
C2474 C2490 1.368 . S
H2475 C2483 0.950 . S
H2476 C2481 0.950 . S
H2477 C2482 0.949 . S
H2478 C2484 0.950 . S
H2479 C2485 0.950 . S
H2480 C2486 0.949 . S
C2481 H2476 0.950 . S
C2481 C2483 1.327 . S
C2481 C2487 1.429 . S
C2482 C2474 1.574 . S
C2482 H2477 0.949 . S
C2482 C2488 1.368 . S
C2483 C2467 1.349 . S
C2483 H2475 0.950 . S
C2483 C2481 1.327 . S
C2484 C2472 1.349 . S
C2484 H2478 0.950 . S
C2484 C2485 1.327 . S
C2485 H2479 0.950 . S
C2485 C2484 1.327 . S
C2485 C2489 1.429 . S
C2486 C2469 1.574 . S
C2486 H2480 0.949 . S
C2486 C2490 1.368 . S
C2487 C2468 1.429 . S
C2487 C2481 1.429 . S
C2487 C2488 1.523 . S
C2488 C2469 1.368 . S
C2488 C2482 1.368 . S
C2488 C2487 1.523 . S
C2489 C2473 1.429 . S
C2489 C2485 1.429 . S
C2489 C2490 1.523 . S
C2490 C2474 1.368 . S
C2490 C2486 1.368 . S
C2490 C2489 1.523 . S
H2491 C2466 0.950 . S
H2492 C2468 0.950 . S
H2493 C2469 0.949 . S
H2494 C2471 0.950 . S
H2495 C2473 0.950 . S
C2496 C2497 1.349 . S
C2496 C2498 1.327 . S
C2496 H2521 0.950 . S
C2497 C2496 1.349 . S
C2497 C2513 1.349 . S
C2498 C2496 1.327 . S
C2498 C2517 1.429 . S
C2498 H2522 0.950 . S
C2499 C2516 1.574 . S
C2499 C2518 1.368 . S
C2499 H2523 0.949 . S
H2500 C2504 0.949 . S
C2501 C2502 1.349 . S
C2501 C2503 1.327 . S
C2501 H2524 0.950 . S
C2502 C2501 1.349 . S
C2502 C2514 1.349 . S
C2503 C2501 1.327 . S
C2503 C2519 1.429 . S
C2503 H2525 0.950 . S
C2504 H2500 0.949 . S
C2504 C2512 1.574 . S
C2504 C2520 1.368 . S
H2505 C2513 0.950 . S
H2506 C2511 0.950 . S
H2507 C2512 0.949 . S
H2508 C2514 0.950 . S
H2509 C2515 0.950 . S
H2510 C2516 0.949 . S
C2511 H2506 0.950 . S
C2511 C2513 1.327 . S
C2511 C2517 1.429 . S
C2512 C2504 1.574 . S
C2512 H2507 0.949 . S
C2512 C2518 1.368 . S
C2513 C2497 1.349 . S
C2513 H2505 0.950 . S
C2513 C2511 1.327 . S
C2514 C2502 1.349 . S
C2514 H2508 0.950 . S
C2514 C2515 1.327 . S
C2515 H2509 0.950 . S
C2515 C2514 1.327 . S
C2515 C2519 1.429 . S
C2516 C2499 1.574 . S
C2516 H2510 0.949 . S
C2516 C2520 1.368 . S
C2517 C2498 1.429 . S
C2517 C2511 1.429 . S
C2517 C2518 1.523 . S
C2518 C2499 1.368 . S
C2518 C2512 1.368 . S
C2518 C2517 1.523 . S
C2519 C2503 1.429 . S
C2519 C2515 1.429 . S
C2519 C2520 1.523 . S
C2520 C2504 1.368 . S
C2520 C2516 1.368 . S
C2520 C2519 1.523 . S
H2521 C2496 0.950 . S
H2522 C2498 0.950 . S
H2523 C2499 0.949 . S
H2524 C2501 0.950 . S
H2525 C2503 0.950 . S
C2526 C2527 1.349 . S
C2526 C2528 1.327 . S
C2526 H2551 0.950 . S
C2527 C2526 1.349 . S
C2527 C2543 1.349 . S
C2528 C2526 1.327 . S
C2528 C2547 1.429 . S
C2528 H2552 0.950 . S
C2529 C2546 1.574 . S
C2529 C2548 1.368 . S
C2529 H2553 0.949 . S
H2530 C2534 0.949 . S
C2531 C2532 1.349 . S
C2531 C2533 1.327 . S
C2531 H2554 0.950 . S
C2532 C2531 1.349 . S
C2532 C2544 1.349 . S
C2533 C2531 1.327 . S
C2533 C2549 1.429 . S
C2533 H2555 0.950 . S
C2534 H2530 0.949 . S
C2534 C2542 1.574 . S
C2534 C2550 1.368 . S
H2535 C2543 0.950 . S
H2536 C2541 0.950 . S
H2537 C2542 0.949 . S
H2538 C2544 0.950 . S
H2539 C2545 0.950 . S
H2540 C2546 0.949 . S
C2541 H2536 0.950 . S
C2541 C2543 1.327 . S
C2541 C2547 1.429 . S
C2542 C2534 1.574 . S
C2542 H2537 0.949 . S
C2542 C2548 1.368 . S
C2543 C2527 1.349 . S
C2543 H2535 0.950 . S
C2543 C2541 1.327 . S
C2544 C2532 1.349 . S
C2544 H2538 0.950 . S
C2544 C2545 1.327 . S
C2545 H2539 0.950 . S
C2545 C2544 1.327 . S
C2545 C2549 1.429 . S
C2546 C2529 1.574 . S
C2546 H2540 0.949 . S
C2546 C2550 1.368 . S
C2547 C2528 1.429 . S
C2547 C2541 1.429 . S
C2547 C2548 1.523 . S
C2548 C2529 1.368 . S
C2548 C2542 1.368 . S
C2548 C2547 1.523 . S
C2549 C2533 1.429 . S
C2549 C2545 1.429 . S
C2549 C2550 1.523 . S
C2550 C2534 1.368 . S
C2550 C2546 1.368 . S
C2550 C2549 1.523 . S
H2551 C2526 0.950 . S
H2552 C2528 0.950 . S
H2553 C2529 0.949 . S
H2554 C2531 0.950 . S
H2555 C2533 0.950 . S
C2556 C2557 1.349 . S
C2556 C2558 1.327 . S
C2556 H2581 0.950 . S
C2557 C2556 1.349 . S
C2557 C2573 1.349 . S
C2558 C2556 1.327 . S
C2558 C2577 1.429 . S
C2558 H2582 0.950 . S
C2559 C2576 1.574 . S
C2559 C2578 1.368 . S
C2559 H2583 0.949 . S
H2560 C2564 0.949 . S
C2561 C2562 1.349 . S
C2561 C2563 1.327 . S
C2561 H2584 0.950 . S
C2562 C2561 1.349 . S
C2562 C2574 1.349 . S
C2563 C2561 1.327 . S
C2563 C2579 1.429 . S
C2563 H2585 0.950 . S
C2564 H2560 0.949 . S
C2564 C2572 1.574 . S
C2564 C2580 1.368 . S
H2565 C2573 0.950 . S
H2566 C2571 0.950 . S
H2567 C2572 0.949 . S
H2568 C2574 0.950 . S
H2569 C2575 0.950 . S
H2570 C2576 0.949 . S
C2571 H2566 0.950 . S
C2571 C2573 1.327 . S
C2571 C2577 1.429 . S
C2572 C2564 1.574 . S
C2572 H2567 0.949 . S
C2572 C2578 1.368 . S
C2573 C2557 1.349 . S
C2573 H2565 0.950 . S
C2573 C2571 1.327 . S
C2574 C2562 1.349 . S
C2574 H2568 0.950 . S
C2574 C2575 1.327 . S
C2575 H2569 0.950 . S
C2575 C2574 1.327 . S
C2575 C2579 1.429 . S
C2576 C2559 1.574 . S
C2576 H2570 0.949 . S
C2576 C2580 1.368 . S
C2577 C2558 1.429 . S
C2577 C2571 1.429 . S
C2577 C2578 1.523 . S
C2578 C2559 1.368 . S
C2578 C2572 1.368 . S
C2578 C2577 1.523 . S
C2579 C2563 1.429 . S
C2579 C2575 1.429 . S
C2579 C2580 1.523 . S
C2580 C2564 1.368 . S
C2580 C2576 1.368 . S
C2580 C2579 1.523 . S
H2581 C2556 0.950 . S
H2582 C2558 0.950 . S
H2583 C2559 0.949 . S
H2584 C2561 0.950 . S
H2585 C2563 0.950 . S
C2586 C2587 1.349 . S
C2586 C2588 1.327 . S
C2586 H2611 0.950 . S
C2587 C2586 1.349 . S
C2587 C2603 1.349 . S
C2588 C2586 1.327 . S
C2588 C2607 1.429 . S
C2588 H2612 0.950 . S
C2589 C2606 1.574 . S
C2589 C2608 1.368 . S
C2589 H2613 0.949 . S
H2590 C2594 0.949 . S
C2591 C2592 1.349 . S
C2591 C2593 1.327 . S
C2591 H2614 0.950 . S
C2592 C2591 1.349 . S
C2592 C2604 1.349 . S
C2593 C2591 1.327 . S
C2593 C2609 1.429 . S
C2593 H2615 0.950 . S
C2594 H2590 0.949 . S
C2594 C2602 1.574 . S
C2594 C2610 1.368 . S
H2595 C2603 0.950 . S
H2596 C2601 0.950 . S
H2597 C2602 0.949 . S
H2598 C2604 0.950 . S
H2599 C2605 0.950 . S
H2600 C2606 0.949 . S
C2601 H2596 0.950 . S
C2601 C2603 1.327 . S
C2601 C2607 1.429 . S
C2602 C2594 1.574 . S
C2602 H2597 0.949 . S
C2602 C2608 1.368 . S
C2603 C2587 1.349 . S
C2603 H2595 0.950 . S
C2603 C2601 1.327 . S
C2604 C2592 1.349 . S
C2604 H2598 0.950 . S
C2604 C2605 1.327 . S
C2605 H2599 0.950 . S
C2605 C2604 1.327 . S
C2605 C2609 1.429 . S
C2606 C2589 1.574 . S
C2606 H2600 0.949 . S
C2606 C2610 1.368 . S
C2607 C2588 1.429 . S
C2607 C2601 1.429 . S
C2607 C2608 1.523 . S
C2608 C2589 1.368 . S
C2608 C2602 1.368 . S
C2608 C2607 1.523 . S
C2609 C2593 1.429 . S
C2609 C2605 1.429 . S
C2609 C2610 1.523 . S
C2610 C2594 1.368 . S
C2610 C2606 1.368 . S
C2610 C2609 1.523 . S
H2611 C2586 0.950 . S
H2612 C2588 0.950 . S
H2613 C2589 0.949 . S
H2614 C2591 0.950 . S
H2615 C2593 0.950 . S
C2616 C2617 1.349 . S
C2616 C2618 1.327 . S
C2616 H2641 0.950 . S
C2617 C2616 1.349 . S
C2617 C2633 1.349 . S
C2618 C2616 1.327 . S
C2618 C2637 1.429 . S
C2618 H2642 0.950 . S
C2619 C2636 1.574 . S
C2619 C2638 1.368 . S
C2619 H2643 0.949 . S
H2620 C2624 0.949 . S
C2621 C2622 1.349 . S
C2621 C2623 1.327 . S
C2621 H2644 0.950 . S
C2622 C2621 1.349 . S
C2622 C2634 1.349 . S
C2623 C2621 1.327 . S
C2623 C2639 1.429 . S
C2623 H2645 0.950 . S
C2624 H2620 0.949 . S
C2624 C2632 1.574 . S
C2624 C2640 1.368 . S
H2625 C2633 0.950 . S
H2626 C2631 0.950 . S
H2627 C2632 0.949 . S
H2628 C2634 0.950 . S
H2629 C2635 0.950 . S
H2630 C2636 0.949 . S
C2631 H2626 0.950 . S
C2631 C2633 1.327 . S
C2631 C2637 1.429 . S
C2632 C2624 1.574 . S
C2632 H2627 0.949 . S
C2632 C2638 1.368 . S
C2633 C2617 1.349 . S
C2633 H2625 0.950 . S
C2633 C2631 1.327 . S
C2634 C2622 1.349 . S
C2634 H2628 0.950 . S
C2634 C2635 1.327 . S
C2635 H2629 0.950 . S
C2635 C2634 1.327 . S
C2635 C2639 1.429 . S
C2636 C2619 1.574 . S
C2636 H2630 0.949 . S
C2636 C2640 1.368 . S
C2637 C2618 1.429 . S
C2637 C2631 1.429 . S
C2637 C2638 1.523 . S
C2638 C2619 1.368 . S
C2638 C2632 1.368 . S
C2638 C2637 1.523 . S
C2639 C2623 1.429 . S
C2639 C2635 1.429 . S
C2639 C2640 1.523 . S
C2640 C2624 1.368 . S
C2640 C2636 1.368 . S
C2640 C2639 1.523 . S
H2641 C2616 0.950 . S
H2642 C2618 0.950 . S
H2643 C2619 0.949 . S
H2644 C2621 0.950 . S
H2645 C2623 0.950 . S
C2646 C2647 1.349 . S
C2646 C2648 1.327 . S
C2646 H2671 0.950 1_556 S
C2647 C2646 1.349 . S
C2647 C2663 1.349 . S
C2648 C2646 1.327 . S
C2648 C2667 1.429 . S
C2648 H2672 0.950 . S
C2649 C2666 1.574 . S
C2649 C2668 1.368 . S
C2649 H2673 0.949 . S
H2650 C2654 0.949 . S
C2651 C2652 1.349 . S
C2651 C2653 1.327 . S
C2651 H2674 0.950 . S
C2652 C2651 1.349 . S
C2652 C2664 1.349 . S
C2653 C2651 1.327 . S
C2653 C2669 1.429 . S
C2653 H2675 0.950 . S
C2654 H2650 0.949 . S
C2654 C2662 1.574 . S
C2654 C2670 1.368 . S
H2655 C2663 0.950 . S
H2656 C2661 0.950 . S
H2657 C2662 0.949 . S
H2658 C2664 0.950 . S
H2659 C2665 0.950 . S
H2660 C2666 0.949 . S
C2661 H2656 0.950 . S
C2661 C2663 1.327 . S
C2661 C2667 1.429 . S
C2662 C2654 1.574 . S
C2662 H2657 0.949 . S
C2662 C2668 1.368 . S
C2663 C2647 1.349 . S
C2663 H2655 0.950 . S
C2663 C2661 1.327 . S
C2664 C2652 1.349 . S
C2664 H2658 0.950 . S
C2664 C2665 1.327 . S
C2665 H2659 0.950 . S
C2665 C2664 1.327 . S
C2665 C2669 1.429 . S
C2666 C2649 1.574 . S
C2666 H2660 0.949 . S
C2666 C2670 1.368 . S
C2667 C2648 1.429 . S
C2667 C2661 1.429 . S
C2667 C2668 1.523 . S
C2668 C2649 1.368 . S
C2668 C2662 1.368 . S
C2668 C2667 1.523 . S
C2669 C2653 1.429 . S
C2669 C2665 1.429 . S
C2669 C2670 1.523 . S
C2670 C2654 1.368 . S
C2670 C2666 1.368 . S
C2670 C2669 1.523 . S
H2671 C2646 0.950 1_554 S
H2672 C2648 0.950 . S
H2673 C2649 0.949 . S
H2674 C2651 0.950 . S
H2675 C2653 0.950 . S
C2676 C2677 1.349 . S
C2676 C2678 1.327 . S
C2676 H2701 0.950 . S
C2677 C2676 1.349 . S
C2677 C2693 1.349 . S
C2678 C2676 1.327 . S
C2678 C2697 1.429 . S
C2678 H2702 0.950 . S
C2679 C2696 1.574 . S
C2679 C2698 1.368 . S
C2679 H2703 0.949 . S
H2680 C2684 0.949 . S
C2681 C2682 1.349 . S
C2681 C2683 1.327 . S
C2681 H2704 0.950 . S
C2682 C2681 1.349 . S
C2682 C2694 1.349 . S
C2683 C2681 1.327 . S
C2683 C2699 1.429 . S
C2683 H2705 0.950 . S
C2684 H2680 0.949 . S
C2684 C2692 1.574 . S
C2684 C2700 1.368 . S
H2685 C2693 0.950 . S
H2686 C2691 0.950 . S
H2687 C2692 0.949 . S
H2688 C2694 0.950 . S
H2689 C2695 0.950 . S
H2690 C2696 0.949 . S
C2691 H2686 0.950 . S
C2691 C2693 1.327 . S
C2691 C2697 1.429 . S
C2692 C2684 1.574 . S
C2692 H2687 0.949 . S
C2692 C2698 1.368 . S
C2693 C2677 1.349 . S
C2693 H2685 0.950 . S
C2693 C2691 1.327 . S
C2694 C2682 1.349 . S
C2694 H2688 0.950 . S
C2694 C2695 1.327 . S
C2695 H2689 0.950 . S
C2695 C2694 1.327 . S
C2695 C2699 1.429 . S
C2696 C2679 1.574 . S
C2696 H2690 0.949 . S
C2696 C2700 1.368 . S
C2697 C2678 1.429 . S
C2697 C2691 1.429 . S
C2697 C2698 1.523 . S
C2698 C2679 1.368 . S
C2698 C2692 1.368 . S
C2698 C2697 1.523 . S
C2699 C2683 1.429 . S
C2699 C2695 1.429 . S
C2699 C2700 1.523 . S
C2700 C2684 1.368 . S
C2700 C2696 1.368 . S
C2700 C2699 1.523 . S
H2701 C2676 0.950 . S
H2702 C2678 0.950 . S
H2703 C2679 0.949 . S
H2704 C2681 0.950 . S
H2705 C2683 0.950 . S
C2706 C2707 1.349 . S
C2706 C2708 1.327 . S
C2706 H2731 0.950 . S
C2707 C2706 1.349 . S
C2707 C2723 1.349 . S
C2708 C2706 1.327 . S
C2708 C2727 1.429 . S
C2708 H2732 0.950 . S
C2709 C2726 1.574 . S
C2709 C2728 1.368 . S
C2709 H2733 0.949 . S
H2710 C2714 0.949 . S
C2711 C2712 1.349 . S
C2711 C2713 1.327 . S
C2711 H2734 0.950 . S
C2712 C2711 1.349 . S
C2712 C2724 1.349 . S
C2713 C2711 1.327 . S
C2713 C2729 1.429 . S
C2713 H2735 0.950 . S
C2714 H2710 0.949 . S
C2714 C2722 1.574 . S
C2714 C2730 1.368 . S
H2715 C2723 0.950 . S
H2716 C2721 0.950 . S
H2717 C2722 0.949 . S
H2718 C2724 0.950 . S
H2719 C2725 0.950 . S
H2720 C2726 0.949 . S
C2721 H2716 0.950 . S
C2721 C2723 1.327 . S
C2721 C2727 1.429 . S
C2722 C2714 1.574 . S
C2722 H2717 0.949 . S
C2722 C2728 1.368 . S
C2723 C2707 1.349 . S
C2723 H2715 0.950 . S
C2723 C2721 1.327 . S
C2724 C2712 1.349 . S
C2724 H2718 0.950 . S
C2724 C2725 1.327 . S
C2725 H2719 0.950 . S
C2725 C2724 1.327 . S
C2725 C2729 1.429 . S
C2726 C2709 1.574 . S
C2726 H2720 0.949 . S
C2726 C2730 1.368 . S
C2727 C2708 1.429 . S
C2727 C2721 1.429 . S
C2727 C2728 1.523 . S
C2728 C2709 1.368 . S
C2728 C2722 1.368 . S
C2728 C2727 1.523 . S
C2729 C2713 1.429 . S
C2729 C2725 1.429 . S
C2729 C2730 1.523 . S
C2730 C2714 1.368 . S
C2730 C2726 1.368 . S
C2730 C2729 1.523 . S
H2731 C2706 0.950 . S
H2732 C2708 0.950 . S
H2733 C2709 0.949 . S
H2734 C2711 0.950 . S
H2735 C2713 0.950 . S
C2736 C2737 1.349 . S
C2736 C2738 1.327 . S
C2736 H2761 0.950 . S
C2737 C2736 1.349 . S
C2737 C2753 1.349 . S
C2738 C2736 1.327 . S
C2738 C2757 1.429 . S
C2738 H2762 0.950 . S
C2739 C2756 1.574 . S
C2739 C2758 1.368 . S
C2739 H2763 0.949 . S
H2740 C2744 0.949 . S
C2741 C2742 1.349 . S
C2741 C2743 1.327 . S
C2741 H2764 0.950 . S
C2742 C2741 1.349 . S
C2742 C2754 1.349 . S
C2743 C2741 1.327 . S
C2743 C2759 1.429 . S
C2743 H2765 0.950 . S
C2744 H2740 0.949 . S
C2744 C2752 1.574 . S
C2744 C2760 1.368 . S
H2745 C2753 0.950 . S
H2746 C2751 0.950 . S
H2747 C2752 0.949 . S
H2748 C2754 0.950 . S
H2749 C2755 0.950 . S
H2750 C2756 0.949 . S
C2751 H2746 0.950 . S
C2751 C2753 1.327 . S
C2751 C2757 1.429 . S
C2752 C2744 1.574 . S
C2752 H2747 0.949 . S
C2752 C2758 1.368 . S
C2753 C2737 1.349 . S
C2753 H2745 0.950 . S
C2753 C2751 1.327 . S
C2754 C2742 1.349 . S
C2754 H2748 0.950 . S
C2754 C2755 1.327 . S
C2755 H2749 0.950 . S
C2755 C2754 1.327 . S
C2755 C2759 1.429 . S
C2756 C2739 1.574 . S
C2756 H2750 0.949 . S
C2756 C2760 1.368 . S
C2757 C2738 1.429 . S
C2757 C2751 1.429 . S
C2757 C2758 1.523 . S
C2758 C2739 1.368 . S
C2758 C2752 1.368 . S
C2758 C2757 1.523 . S
C2759 C2743 1.429 . S
C2759 C2755 1.429 . S
C2759 C2760 1.523 . S
C2760 C2744 1.368 . S
C2760 C2756 1.368 . S
C2760 C2759 1.523 . S
H2761 C2736 0.950 . S
H2762 C2738 0.950 . S
H2763 C2739 0.949 . S
H2764 C2741 0.950 . S
H2765 C2743 0.950 . S
C2766 C2767 1.349 . S
C2766 C2768 1.327 . S
C2766 H2791 0.950 . S
C2767 C2766 1.349 . S
C2767 C2783 1.349 . S
C2768 C2766 1.327 . S
C2768 C2787 1.429 . S
C2768 H2792 0.950 . S
C2769 C2786 1.574 . S
C2769 C2788 1.368 . S
C2769 H2793 0.949 . S
H2770 C2774 0.949 . S
C2771 C2772 1.349 . S
C2771 C2773 1.327 . S
C2771 H2794 0.950 . S
C2772 C2771 1.349 . S
C2772 C2784 1.349 . S
C2773 C2771 1.327 . S
C2773 C2789 1.429 . S
C2773 H2795 0.950 . S
C2774 H2770 0.949 . S
C2774 C2782 1.574 . S
C2774 C2790 1.368 . S
H2775 C2783 0.981 . S
H2776 C2781 0.950 . S
H2777 C2782 0.949 . S
H2778 C2784 0.950 . S
H2779 C2785 0.950 . S
H2780 C2786 0.949 . S
C2781 H2776 0.950 . S
C2781 C2783 1.327 . S
C2781 C2787 1.429 . S
C2782 C2774 1.574 . S
C2782 H2777 0.949 . S
C2782 C2788 1.368 . S
C2783 C2767 1.349 . S
C2783 H2775 0.981 . S
C2783 C2781 1.327 . S
C2784 C2772 1.349 . S
C2784 H2778 0.950 . S
C2784 C2785 1.327 . S
C2785 H2779 0.950 . S
C2785 C2784 1.327 . S
C2785 C2789 1.429 . S
C2786 C2769 1.574 . S
C2786 H2780 0.949 . S
C2786 C2790 1.368 . S
C2787 C2768 1.429 . S
C2787 C2781 1.429 . S
C2787 C2788 1.523 . S
C2788 C2769 1.368 . S
C2788 C2782 1.368 . S
C2788 C2787 1.523 . S
C2789 C2773 1.429 . S
C2789 C2785 1.429 . S
C2789 C2790 1.523 . S
C2790 C2774 1.368 . S
C2790 C2786 1.368 . S
C2790 C2789 1.523 . S
H2791 C2766 0.950 . S
H2792 C2768 0.950 . S
H2793 C2769 0.949 . S
H2794 C2771 0.950 . S
H2795 C2773 0.950 . S
C2796 C2797 1.349 . S
C2796 C2798 1.327 . S
C2796 H2821 0.950 1_556 S
C2797 C2796 1.349 . S
C2797 C2813 1.349 . S
C2798 C2796 1.327 . S
C2798 C2817 1.429 . S
C2798 H2822 0.950 . S
C2799 C2816 1.574 . S
C2799 C2818 1.368 . S
C2799 H2823 0.949 . S
H2800 C2804 0.949 . S
C2801 C2802 1.349 . S
C2801 C2803 1.327 . S
C2801 H2824 0.950 . S
C2802 C2801 1.349 . S
C2802 C2814 1.349 . S
C2803 C2801 1.327 . S
C2803 C2819 1.429 . S
C2803 H2825 0.950 . S
C2804 H2800 0.949 . S
C2804 C2812 1.574 . S
C2804 C2820 1.368 . S
H2805 C2813 0.950 . S
H2806 C2811 0.950 . S
H2807 C2812 0.949 . S
H2808 C2814 0.950 . S
H2809 C2815 0.950 . S
H2810 C2816 0.949 . S
C2811 H2806 0.950 . S
C2811 C2813 1.327 . S
C2811 C2817 1.429 . S
C2812 C2804 1.574 . S
C2812 H2807 0.949 . S
C2812 C2818 1.368 . S
C2813 C2797 1.349 . S
C2813 H2805 0.950 . S
C2813 C2811 1.327 . S
C2814 C2802 1.349 . S
C2814 H2808 0.950 . S
C2814 C2815 1.327 . S
C2815 H2809 0.950 . S
C2815 C2814 1.327 . S
C2815 C2819 1.429 . S
C2816 C2799 1.574 . S
C2816 H2810 0.949 . S
C2816 C2820 1.368 . S
C2817 C2798 1.429 . S
C2817 C2811 1.429 . S
C2817 C2818 1.523 . S
C2818 C2799 1.368 . S
C2818 C2812 1.368 . S
C2818 C2817 1.523 . S
C2819 C2803 1.429 . S
C2819 C2815 1.429 . S
C2819 C2820 1.523 . S
C2820 C2804 1.368 . S
C2820 C2816 1.368 . S
C2820 C2819 1.523 . S
H2821 C2796 0.950 1_554 S
H2822 C2798 0.950 . S
H2823 C2799 0.949 . S
H2824 C2801 0.950 . S
H2825 C2803 0.950 . S
C2826 C2827 1.349 . S
C2826 C2828 1.327 . S
C2826 H2851 0.950 . S
C2827 C2826 1.349 . S
C2827 C2843 1.349 . S
C2828 C2826 1.327 . S
C2828 C2847 1.429 . S
C2828 H2852 0.950 . S
C2829 C2846 1.574 . S
C2829 C2848 1.368 . S
C2829 H2853 0.949 . S
H2830 C2834 0.949 . S
C2831 C2832 1.349 . S
C2831 C2833 1.327 . S
C2831 H2854 0.950 . S
C2832 C2831 1.349 . S
C2832 C2844 1.349 . S
C2833 C2831 1.327 . S
C2833 C2849 1.429 . S
C2833 H2855 0.950 . S
C2834 H2830 0.949 . S
C2834 C2842 1.574 . S
C2834 C2850 1.368 . S
H2835 C2843 0.950 . S
H2836 C2841 0.950 . S
H2837 C2842 0.949 . S
H2838 C2844 0.950 . S
H2839 C2845 0.950 . S
H2840 C2846 0.949 . S
C2841 H2836 0.950 . S
C2841 C2843 1.327 . S
C2841 C2847 1.429 . S
C2842 C2834 1.574 . S
C2842 H2837 0.949 . S
C2842 C2848 1.368 . S
C2843 C2827 1.349 . S
C2843 H2835 0.950 . S
C2843 C2841 1.327 . S
C2844 C2832 1.349 . S
C2844 H2838 0.950 . S
C2844 C2845 1.327 . S
C2845 H2839 0.950 . S
C2845 C2844 1.327 . S
C2845 C2849 1.429 . S
C2846 C2829 1.574 . S
C2846 H2840 0.949 . S
C2846 C2850 1.368 . S
C2847 C2828 1.429 . S
C2847 C2841 1.429 . S
C2847 C2848 1.523 . S
C2848 C2829 1.368 . S
C2848 C2842 1.368 . S
C2848 C2847 1.523 . S
C2849 C2833 1.429 . S
C2849 C2845 1.429 . S
C2849 C2850 1.523 . S
C2850 C2834 1.368 . S
C2850 C2846 1.368 . S
C2850 C2849 1.523 . S
H2851 C2826 0.950 . S
H2852 C2828 0.950 . S
H2853 C2829 0.949 . S
H2854 C2831 0.950 . S
H2855 C2833 0.950 . S
C2856 C2857 1.349 . S
C2856 C2858 1.327 . S
C2856 H2881 0.950 . S
C2857 C2856 1.349 . S
C2857 C2873 1.349 . S
C2858 C2856 1.327 . S
C2858 C2877 1.429 . S
C2858 H2882 0.950 . S
C2859 C2876 1.574 . S
C2859 C2878 1.368 . S
C2859 H2883 0.949 . S
H2860 C2864 0.949 . S
C2861 C2862 1.349 . S
C2861 C2863 1.327 . S
C2861 H2884 0.950 . S
C2862 C2861 1.349 . S
C2862 C2874 1.349 . S
C2863 C2861 1.327 . S
C2863 C2879 1.429 . S
C2863 H2885 0.950 . S
C2864 H2860 0.949 . S
C2864 C2872 1.574 . S
C2864 C2880 1.368 . S
H2865 C2873 0.950 . S
H2866 C2871 0.950 . S
H2867 C2872 0.949 . S
H2868 C2874 0.950 . S
H2869 C2875 0.950 . S
H2870 C2876 0.949 . S
C2871 H2866 0.950 . S
C2871 C2873 1.327 . S
C2871 C2877 1.429 . S
C2872 C2864 1.574 . S
C2872 H2867 0.949 . S
C2872 C2878 1.368 . S
C2873 C2857 1.349 . S
C2873 H2865 0.950 . S
C2873 C2871 1.327 . S
C2874 C2862 1.349 . S
C2874 H2868 0.950 . S
C2874 C2875 1.327 . S
C2875 H2869 0.950 . S
C2875 C2874 1.327 . S
C2875 C2879 1.429 . S
C2876 C2859 1.574 . S
C2876 H2870 0.949 . S
C2876 C2880 1.368 . S
C2877 C2858 1.429 . S
C2877 C2871 1.429 . S
C2877 C2878 1.523 . S
C2878 C2859 1.368 . S
C2878 C2872 1.368 . S
C2878 C2877 1.523 . S
C2879 C2863 1.429 . S
C2879 C2875 1.429 . S
C2879 C2880 1.523 . S
C2880 C2864 1.368 . S
C2880 C2876 1.368 . S
C2880 C2879 1.523 . S
H2881 C2856 0.950 . S
H2882 C2858 0.950 . S
H2883 C2859 0.949 . S
H2884 C2861 0.950 . S
H2885 C2863 0.950 . S
C2886 C2887 1.349 . S
C2886 C2888 1.327 . S
C2886 H2911 0.950 . S
C2887 C2886 1.349 . S
C2887 C2903 1.349 . S
C2888 C2886 1.327 . S
C2888 C2907 1.429 . S
C2888 H2912 0.950 . S
C2889 C2906 1.574 . S
C2889 C2908 1.368 . S
C2889 H2913 0.949 . S
H2890 C2894 0.949 . S
C2891 C2892 1.349 . S
C2891 C2893 1.327 . S
C2891 H2914 0.950 . S
C2892 C2891 1.349 . S
C2892 C2904 1.349 . S
C2893 C2891 1.327 . S
C2893 C2909 1.429 . S
C2893 H2915 0.950 . S
C2894 H2890 0.949 . S
C2894 C2902 1.574 . S
C2894 C2910 1.368 . S
H2895 C2903 0.950 . S
H2896 C2901 0.950 . S
H2897 C2902 0.949 . S
H2898 C2904 0.950 . S
H2899 C2905 0.950 . S
H2900 C2906 0.949 . S
C2901 H2896 0.950 . S
C2901 C2903 1.327 . S
C2901 C2907 1.429 . S
C2902 C2894 1.574 . S
C2902 H2897 0.949 . S
C2902 C2908 1.368 . S
C2903 C2887 1.349 . S
C2903 H2895 0.950 . S
C2903 C2901 1.327 . S
C2904 C2892 1.349 . S
C2904 H2898 0.950 . S
C2904 C2905 1.327 . S
C2905 H2899 0.950 . S
C2905 C2904 1.327 . S
C2905 C2909 1.429 . S
C2906 C2889 1.574 . S
C2906 H2900 0.949 . S
C2906 C2910 1.368 . S
C2907 C2888 1.429 . S
C2907 C2901 1.429 . S
C2907 C2908 1.523 . S
C2908 C2889 1.368 . S
C2908 C2902 1.368 . S
C2908 C2907 1.523 . S
C2909 C2893 1.429 . S
C2909 C2905 1.429 . S
C2909 C2910 1.523 . S
C2910 C2894 1.368 . S
C2910 C2906 1.368 . S
C2910 C2909 1.523 . S
H2911 C2886 0.950 . S
H2912 C2888 0.950 . S
H2913 C2889 0.949 . S
H2914 C2891 0.950 . S
H2915 C2893 0.950 . S
C2916 C2917 1.349 . S
C2916 C2918 1.327 . S
C2916 H2941 0.950 . S
C2917 C2916 1.349 . S
C2917 C2933 1.349 . S
C2918 C2916 1.327 . S
C2918 C2937 1.429 . S
C2918 H2942 0.950 . S
C2919 C2936 1.574 . S
C2919 C2938 1.368 . S
C2919 H2943 0.949 . S
H2920 C2924 0.949 . S
C2921 C2922 1.349 . S
C2921 C2923 1.327 . S
C2921 H2944 0.950 . S
C2922 C2921 1.349 . S
C2922 C2934 1.349 . S
C2923 C2921 1.327 . S
C2923 C2939 1.429 . S
C2923 H2945 0.950 . S
C2924 H2920 0.949 . S
C2924 C2932 1.574 . S
C2924 C2940 1.368 . S
H2925 C2933 0.950 . S
H2926 C2931 0.950 . S
H2927 C2932 0.949 . S
H2928 C2934 0.950 . S
H2929 C2935 0.950 . S
H2930 C2936 0.949 . S
C2931 H2926 0.950 . S
C2931 C2933 1.327 . S
C2931 C2937 1.429 . S
C2932 C2924 1.574 . S
C2932 H2927 0.949 . S
C2932 C2938 1.368 . S
C2933 C2917 1.349 . S
C2933 H2925 0.950 . S
C2933 C2931 1.327 . S
C2934 C2922 1.349 . S
C2934 H2928 0.950 . S
C2934 C2935 1.327 . S
C2935 H2929 0.950 . S
C2935 C2934 1.327 . S
C2935 C2939 1.429 . S
C2936 C2919 1.574 . S
C2936 H2930 0.949 . S
C2936 C2940 1.368 . S
C2937 C2918 1.429 . S
C2937 C2931 1.429 . S
C2937 C2938 1.523 . S
C2938 C2919 1.368 . S
C2938 C2932 1.368 . S
C2938 C2937 1.523 . S
C2939 C2923 1.429 . S
C2939 C2935 1.429 . S
C2939 C2940 1.523 . S
C2940 C2924 1.368 . S
C2940 C2936 1.368 . S
C2940 C2939 1.523 . S
H2941 C2916 0.950 . S
H2942 C2918 0.950 . S
H2943 C2919 0.949 . S
H2944 C2921 0.950 . S
H2945 C2923 0.950 . S
C2946 C2947 1.349 . S
C2946 C2948 1.327 . S
C2946 H2971 0.950 . S
C2947 C2946 1.349 . S
C2947 C2963 1.349 . S
C2948 C2946 1.327 . S
C2948 C2967 1.429 . S
C2948 H2972 0.950 . S
C2949 C2966 1.574 . S
C2949 C2968 1.368 . S
C2949 H2973 0.949 . S
H2950 C2954 0.949 . S
C2951 C2952 1.349 . S
C2951 C2953 1.327 . S
C2951 H2974 0.950 . S
C2952 C2951 1.349 . S
C2952 C2964 1.349 . S
C2953 C2951 1.327 . S
C2953 C2969 1.429 . S
C2953 H2975 0.950 . S
C2954 H2950 0.949 . S
C2954 C2962 1.574 . S
C2954 C2970 1.368 . S
H2955 C2963 0.950 . S
H2956 C2961 0.950 . S
H2957 C2962 0.949 . S
H2958 C2964 0.950 . S
H2959 C2965 0.950 . S
H2960 C2966 0.949 . S
C2961 H2956 0.950 . S
C2961 C2963 1.327 . S
C2961 C2967 1.429 . S
C2962 C2954 1.574 . S
C2962 H2957 0.949 . S
C2962 C2968 1.368 . S
C2963 C2947 1.349 . S
C2963 H2955 0.950 . S
C2963 C2961 1.327 . S
C2964 C2952 1.349 . S
C2964 H2958 0.950 . S
C2964 C2965 1.327 . S
C2965 H2959 0.950 . S
C2965 C2964 1.327 . S
C2965 C2969 1.429 . S
C2966 C2949 1.574 . S
C2966 H2960 0.949 . S
C2966 C2970 1.368 . S
C2967 C2948 1.429 . S
C2967 C2961 1.429 . S
C2967 C2968 1.523 . S
C2968 C2949 1.368 . S
C2968 C2962 1.368 . S
C2968 C2967 1.523 . S
C2969 C2953 1.429 . S
C2969 C2965 1.429 . S
C2969 C2970 1.523 . S
C2970 C2954 1.368 . S
C2970 C2966 1.368 . S
C2970 C2969 1.523 . S
H2971 C2946 0.950 . S
H2972 C2948 0.950 . S
H2973 C2949 0.949 . S
H2974 C2951 0.950 . S
H2975 C2953 0.950 . S
C2976 C2977 1.349 . S
C2976 C2978 1.327 . S
C2976 H3001 0.950 . S
C2977 C2976 1.349 . S
C2977 C2993 1.349 . S
C2978 C2976 1.327 . S
C2978 C2997 1.429 . S
C2978 H3002 0.950 . S
C2979 C2996 1.574 . S
C2979 C2998 1.368 . S
C2979 H3003 0.949 . S
H2980 C2984 0.949 . S
C2981 C2982 1.349 . S
C2981 C2983 1.327 . S
C2981 H3004 0.950 . S
C2982 C2981 1.349 . S
C2982 C2994 1.349 . S
C2983 C2981 1.327 . S
C2983 C2999 1.429 . S
C2983 H3005 0.950 . S
C2984 H2980 0.949 . S
C2984 C2992 1.574 . S
C2984 C3000 1.368 . S
H2985 C2993 0.950 . S
H2986 C2991 0.950 . S
H2987 C2992 0.949 . S
H2988 C2994 0.950 . S
H2989 C2995 0.950 . S
H2990 C2996 0.949 . S
C2991 H2986 0.950 . S
C2991 C2993 1.327 . S
C2991 C2997 1.429 . S
C2992 C2984 1.574 . S
C2992 H2987 0.949 . S
C2992 C2998 1.368 . S
C2993 C2977 1.349 . S
C2993 H2985 0.950 . S
C2993 C2991 1.327 . S
C2994 C2982 1.349 . S
C2994 H2988 0.950 . S
C2994 C2995 1.327 . S
C2995 H2989 0.950 . S
C2995 C2994 1.327 . S
C2995 C2999 1.429 . S
C2996 C2979 1.574 . S
C2996 H2990 0.949 . S
C2996 C3000 1.368 . S
C2997 C2978 1.429 . S
C2997 C2991 1.429 . S
C2997 C2998 1.523 . S
C2998 C2979 1.368 . S
C2998 C2992 1.368 . S
C2998 C2997 1.523 . S
C2999 C2983 1.429 . S
C2999 C2995 1.429 . S
C2999 C3000 1.523 . S
C3000 C2984 1.368 . S
C3000 C2996 1.368 . S
C3000 C2999 1.523 . S
H3001 C2976 0.950 . S
H3002 C2978 0.950 . S
H3003 C2979 0.949 . S
H3004 C2981 0.950 . S
H3005 C2983 0.950 . S
C3006 C3007 1.349 . S
C3006 C3008 1.327 . S
C3006 H3031 0.950 . S
C3007 C3006 1.349 . S
C3007 C3023 1.349 1_455 S
C3008 C3006 1.327 . S
C3008 C3027 1.429 . S
C3008 H3032 0.950 . S
C3009 C3026 1.574 . S
C3009 C3028 1.368 1_655 S
C3009 H3033 0.949 . S
H3010 C3014 0.949 . S
C3011 C3012 1.349 1_655 S
C3011 C3013 1.327 . S
C3011 H3034 0.950 . S
C3012 C3011 1.349 1_455 S
C3012 C3024 1.349 . S
C3013 C3011 1.327 . S
C3013 C3029 1.429 1_655 S
C3013 H3035 0.950 . S
C3014 H3010 0.949 . S
C3014 C3022 1.574 . S
C3014 C3030 1.368 . S
H3015 C3023 0.950 . S
H3016 C3021 0.950 . S
H3017 C3022 0.949 . S
H3018 C3024 0.950 . S
H3019 C3025 0.950 . S
H3020 C3026 0.949 . S
C3021 H3016 0.950 . S
C3021 C3023 1.327 . S
C3021 C3027 1.429 1_655 S
C3022 C3014 1.574 . S
C3022 H3017 0.949 . S
C3022 C3028 1.368 . S
C3023 C3007 1.349 1_655 S
C3023 H3015 0.950 . S
C3023 C3021 1.327 . S
C3024 C3012 1.349 . S
C3024 H3018 0.950 . S
C3024 C3025 1.327 . S
C3025 H3019 0.950 . S
C3025 C3024 1.327 . S
C3025 C3029 1.429 . S
C3026 C3009 1.574 . S
C3026 H3020 0.949 . S
C3026 C3030 1.368 1_655 S
C3027 C3008 1.429 . S
C3027 C3021 1.429 1_455 S
C3027 C3028 1.523 . S
C3028 C3009 1.368 1_455 S
C3028 C3022 1.368 . S
C3028 C3027 1.523 . S
C3029 C3013 1.429 1_455 S
C3029 C3025 1.429 . S
C3029 C3030 1.523 . S
C3030 C3014 1.368 . S
C3030 C3026 1.368 1_455 S
C3030 C3029 1.523 . S
H3031 C3006 0.950 . S
H3032 C3008 0.950 . S
H3033 C3009 0.949 . S
H3034 C3011 0.950 . S
H3035 C3013 0.950 . S
C3036 C3037 1.349 . S
C3036 C3038 1.327 . S
C3036 H3061 0.950 . S
C3037 C3036 1.349 . S
C3037 C3053 1.349 . S
C3038 C3036 1.327 . S
C3038 C3057 1.429 . S
C3038 H3062 0.950 . S
C3039 C3056 1.574 . S
C3039 C3058 1.368 . S
C3039 H3063 0.949 . S
H3040 C3044 0.949 . S
C3041 C3042 1.349 . S
C3041 C3043 1.327 . S
C3041 H3064 0.950 . S
C3042 C3041 1.349 . S
C3042 C3054 1.349 . S
C3043 C3041 1.327 . S
C3043 C3059 1.429 . S
C3043 H3065 0.950 . S
C3044 H3040 0.949 . S
C3044 C3052 1.574 . S
C3044 C3060 1.368 . S
H3045 C3053 0.950 . S
H3046 C3051 0.950 . S
H3047 C3052 0.949 . S
H3048 C3054 0.950 . S
H3049 C3055 0.950 . S
H3050 C3056 0.949 . S
C3051 H3046 0.950 . S
C3051 C3053 1.327 . S
C3051 C3057 1.429 . S
C3052 C3044 1.574 . S
C3052 H3047 0.949 . S
C3052 C3058 1.368 . S
C3053 C3037 1.349 . S
C3053 H3045 0.950 . S
C3053 C3051 1.327 . S
C3054 C3042 1.349 . S
C3054 H3048 0.950 . S
C3054 C3055 1.327 . S
C3055 H3049 0.950 . S
C3055 C3054 1.327 . S
C3055 C3059 1.429 . S
C3056 C3039 1.574 . S
C3056 H3050 0.949 . S
C3056 C3060 1.368 . S
C3057 C3038 1.429 . S
C3057 C3051 1.429 . S
C3057 C3058 1.523 . S
C3058 C3039 1.368 . S
C3058 C3052 1.368 . S
C3058 C3057 1.523 . S
C3059 C3043 1.429 . S
C3059 C3055 1.429 . S
C3059 C3060 1.523 . S
C3060 C3044 1.368 . S
C3060 C3056 1.368 . S
C3060 C3059 1.523 . S
H3061 C3036 0.950 . S
H3062 C3038 0.950 . S
H3063 C3039 0.949 . S
H3064 C3041 0.950 . S
H3065 C3043 0.950 . S
C3066 C3067 1.349 . S
C3066 C3068 1.327 . S
C3066 H3091 0.950 . S
C3067 C3066 1.349 . S
C3067 C3083 1.349 . S
C3068 C3066 1.327 . S
C3068 C3087 1.429 . S
C3068 H3092 0.950 . S
C3069 C3086 1.574 . S
C3069 C3088 1.368 . S
C3069 H3093 0.949 . S
H3070 C3074 0.951 . S
C3071 C3072 1.349 . S
C3071 C3073 1.327 . S
C3071 H3094 0.950 . S
C3072 C3071 1.349 . S
C3072 C3084 1.357 . S
C3073 C3071 1.327 . S
C3073 C3089 1.429 . S
C3073 H3095 0.950 . S
C3074 H3070 0.951 . S
C3074 C3082 1.574 . S
C3074 C3090 1.368 . S
H3075 C3083 0.950 . S
H3076 C3081 0.950 . S
H3077 C3082 0.949 . S
H3078 C3084 0.947 1_545 S
H3079 C3085 0.853 1_545 S
H3080 C3086 0.949 . S
C3081 H3076 0.950 . S
C3081 C3083 1.327 . S
C3081 C3087 1.429 . S
C3082 C3074 1.574 . S
C3082 H3077 0.949 . S
C3082 C3088 1.368 . S
C3083 C3067 1.349 . S
C3083 H3075 0.950 . S
C3083 C3081 1.327 . S
C3084 C3072 1.357 . S
C3084 H3078 0.947 1_565 S
C3084 C3085 1.360 . S
C3085 H3079 0.853 1_565 S
C3085 C3084 1.360 . S
C3085 C3089 1.451 . S
C3086 C3069 1.574 . S
C3086 H3080 0.949 . S
C3086 C3090 1.368 . S
C3087 C3068 1.429 . S
C3087 C3081 1.429 . S
C3087 C3088 1.523 . S
C3088 C3069 1.368 . S
C3088 C3082 1.368 . S
C3088 C3087 1.523 . S
C3089 C3073 1.429 . S
C3089 C3085 1.451 . S
C3089 C3090 1.523 . S
C3090 C3074 1.368 . S
C3090 C3086 1.368 . S
C3090 C3089 1.523 . S
H3091 C3066 0.950 . S
H3092 C3068 0.950 . S
H3093 C3069 0.949 . S
H3094 C3071 0.950 . S
H3095 C3073 0.950 . S
C3096 C3097 1.349 . S
C3096 C3098 1.327 . S
C3096 H3121 0.950 . S
C3097 C3096 1.349 . S
C3097 C3113 1.349 . S
C3098 C3096 1.327 . S
C3098 C3117 1.429 . S
C3098 H3122 0.950 . S
C3099 C3116 1.574 . S
C3099 C3118 1.368 1_545 S
C3099 H3123 0.949 . S
H3100 C3104 0.949 . S
C3101 C3102 1.349 1_545 S
C3101 C3103 1.327 . S
C3101 H3124 0.950 . S
C3102 C3101 1.349 1_565 S
C3102 C3114 1.349 . S
C3103 C3101 1.327 . S
C3103 C3119 1.429 1_545 S
C3103 H3125 0.950 . S
C3104 H3100 0.949 . S
C3104 C3112 1.574 . S
C3104 C3120 1.368 . S
H3105 C3113 0.950 1_545 S
H3106 C3111 0.931 1_545 S
H3107 C3112 0.949 . S
H3108 C3114 0.950 . S
H3109 C3115 0.950 . S
H3110 C3116 0.949 . S
C3111 H3106 0.931 1_565 S
C3111 C3113 1.342 . S
C3111 C3117 1.433 . S
C3112 C3104 1.574 . S
C3112 H3107 0.949 . S
C3112 C3118 1.368 . S
C3113 C3097 1.349 . S
C3113 H3105 0.950 1_565 S
C3113 C3111 1.342 . S
C3114 C3102 1.349 . S
C3114 H3108 0.950 . S
C3114 C3115 1.327 . S
C3115 H3109 0.950 . S
C3115 C3114 1.327 . S
C3115 C3119 1.429 . S
C3116 C3099 1.574 . S
C3116 H3110 0.949 . S
C3116 C3120 1.368 1_545 S
C3117 C3098 1.429 . S
C3117 C3111 1.433 . S
C3117 C3118 1.523 . S
C3118 C3099 1.368 1_565 S
C3118 C3112 1.368 . S
C3118 C3117 1.523 . S
C3119 C3103 1.429 1_565 S
C3119 C3115 1.429 . S
C3119 C3120 1.523 . S
C3120 C3104 1.368 . S
C3120 C3116 1.368 1_565 S
C3120 C3119 1.523 . S
H3121 C3096 0.950 . S
H3122 C3098 0.950 . S
H3123 C3099 0.949 . S
H3124 C3101 0.950 . S
H3125 C3103 0.950 . S
C3126 C3127 1.349 . S
C3126 C3128 1.327 . S
C3126 H3151 0.950 . S
C3127 C3126 1.349 . S
C3127 C3143 1.349 . S
C3128 C3126 1.327 . S
C3128 C3147 1.429 . S
C3128 H3152 0.950 . S
C3129 C3146 1.623 1_455 S
C3129 C3148 1.381 . S
C3129 H3153 0.918 1_455 S
H3130 C3134 0.949 . S
C3131 C3132 1.349 1_655 S
C3131 C3133 1.327 . S
C3131 H3154 0.950 . S
C3132 C3131 1.349 1_455 S
C3132 C3144 1.349 . S
C3133 C3131 1.327 . S
C3133 C3149 1.429 1_655 S
C3133 H3155 0.950 . S
C3134 H3130 0.949 . S
C3134 C3142 1.574 . S
C3134 C3150 1.368 . S
H3135 C3143 0.969 . S
H3136 C3141 0.950 1_655 S
H3137 C3142 0.949 . S
H3138 C3144 0.950 . S
H3139 C3145 0.950 . S
H3140 C3146 0.954 . S
C3141 H3136 0.950 1_455 S
C3141 C3143 1.327 . S
C3141 C3147 1.429 . S
C3142 C3134 1.574 . S
C3142 H3137 0.949 . S
C3142 C3148 1.368 . S
C3143 C3127 1.349 . S
C3143 H3135 0.969 . S
C3143 C3141 1.327 . S
C3144 C3132 1.349 . S
C3144 H3138 0.950 . S
C3144 C3145 1.327 . S
C3145 H3139 0.950 . S
C3145 C3144 1.327 . S
C3145 C3149 1.429 . S
C3146 C3129 1.623 1_655 S
C3146 H3140 0.954 . S
C3146 C3150 1.346 1_655 S
C3147 C3128 1.429 . S
C3147 C3141 1.429 . S
C3147 C3148 1.523 . S
C3148 C3129 1.381 . S
C3148 C3142 1.368 . S
C3148 C3147 1.523 . S
C3149 C3133 1.429 1_455 S
C3149 C3145 1.429 . S
C3149 C3150 1.523 . S
C3150 C3134 1.368 . S
C3150 C3146 1.346 1_455 S
C3150 C3149 1.523 . S
H3151 C3126 0.950 . S
H3152 C3128 0.950 . S
H3153 C3129 0.918 1_655 S
H3154 C3131 0.950 . S
H3155 C3133 0.950 . S
C3156 C3157 1.349 . S
C3156 C3158 1.327 . S
C3156 H3181 0.950 . S
C3157 C3156 1.349 . S
C3157 C3173 1.349 . S
C3158 C3156 1.327 . S
C3158 C3177 1.429 . S
C3158 H3182 0.950 . S
C3159 C3176 1.574 . S
C3159 C3178 1.368 . S
C3159 H3183 0.949 . S
H3160 C3164 0.949 . S
C3161 C3162 1.349 . S
C3161 C3163 1.327 . S
C3161 H3184 0.950 . S
C3162 C3161 1.349 . S
C3162 C3174 1.349 . S
C3163 C3161 1.327 . S
C3163 C3179 1.429 . S
C3163 H3185 0.950 . S
C3164 H3160 0.949 . S
C3164 C3172 1.574 . S
C3164 C3180 1.368 . S
H3165 C3173 0.950 . S
H3166 C3171 0.950 . S
H3167 C3172 0.949 . S
H3168 C3174 0.950 . S
H3169 C3175 0.950 . S
H3170 C3176 0.949 . S
C3171 H3166 0.950 . S
C3171 C3173 1.327 . S
C3171 C3177 1.429 . S
C3172 C3164 1.574 . S
C3172 H3167 0.949 . S
C3172 C3178 1.368 . S
C3173 C3157 1.349 . S
C3173 H3165 0.950 . S
C3173 C3171 1.327 . S
C3174 C3162 1.349 . S
C3174 H3168 0.950 . S
C3174 C3175 1.327 . S
C3175 H3169 0.950 . S
C3175 C3174 1.327 . S
C3175 C3179 1.429 . S
C3176 C3159 1.574 . S
C3176 H3170 0.949 . S
C3176 C3180 1.368 . S
C3177 C3158 1.429 . S
C3177 C3171 1.429 . S
C3177 C3178 1.523 . S
C3178 C3159 1.368 . S
C3178 C3172 1.368 . S
C3178 C3177 1.523 . S
C3179 C3163 1.429 . S
C3179 C3175 1.429 . S
C3179 C3180 1.523 . S
C3180 C3164 1.368 . S
C3180 C3176 1.368 . S
C3180 C3179 1.523 . S
H3181 C3156 0.950 . S
H3182 C3158 0.950 . S
H3183 C3159 0.949 . S
H3184 C3161 0.950 . S
H3185 C3163 0.950 . S
C3186 C3187 1.349 . S
C3186 C3188 1.327 . S
C3186 H3211 0.950 . S
C3187 C3186 1.349 . S
C3187 C3203 1.349 . S
C3188 C3186 1.327 . S
C3188 C3207 1.429 . S
C3188 H3212 0.950 . S
C3189 C3206 1.574 . S
C3189 C3208 1.368 . S
C3189 H3213 0.949 . S
H3190 C3194 0.949 . S
C3191 C3192 1.349 . S
C3191 C3193 1.327 . S
C3191 H3214 0.950 . S
C3192 C3191 1.349 . S
C3192 C3204 1.349 . S
C3193 C3191 1.327 . S
C3193 C3209 1.429 . S
C3193 H3215 0.950 . S
C3194 H3190 0.949 . S
C3194 C3202 1.574 . S
C3194 C3210 1.368 . S
H3195 C3203 0.950 . S
H3196 C3201 0.950 . S
H3197 C3202 0.949 . S
H3198 C3204 0.950 . S
H3199 C3205 0.950 . S
H3200 C3206 0.949 . S
C3201 H3196 0.950 . S
C3201 C3203 1.327 . S
C3201 C3207 1.429 . S
C3202 C3194 1.574 . S
C3202 H3197 0.949 . S
C3202 C3208 1.368 . S
C3203 C3187 1.349 . S
C3203 H3195 0.950 . S
C3203 C3201 1.327 . S
C3204 C3192 1.349 . S
C3204 H3198 0.950 . S
C3204 C3205 1.327 . S
C3205 H3199 0.950 . S
C3205 C3204 1.327 . S
C3205 C3209 1.429 . S
C3206 C3189 1.574 . S
C3206 H3200 0.949 . S
C3206 C3210 1.368 . S
C3207 C3188 1.429 . S
C3207 C3201 1.429 . S
C3207 C3208 1.523 . S
C3208 C3189 1.368 . S
C3208 C3202 1.368 . S
C3208 C3207 1.523 . S
C3209 C3193 1.429 . S
C3209 C3205 1.429 . S
C3209 C3210 1.523 . S
C3210 C3194 1.368 . S
C3210 C3206 1.368 . S
C3210 C3209 1.523 . S
H3211 C3186 0.950 . S
H3212 C3188 0.950 . S
H3213 C3189 0.949 . S
H3214 C3191 0.950 . S
H3215 C3193 0.950 . S
C3216 C3217 1.349 . S
C3216 C3218 1.327 . S
C3216 H3241 0.950 . S
C3217 C3216 1.349 . S
C3217 C3233 1.349 . S
C3218 C3216 1.327 . S
C3218 C3237 1.429 . S
C3218 H3242 0.950 . S
C3219 C3236 1.574 . S
C3219 C3238 1.368 . S
C3219 H3243 0.949 . S
H3220 C3224 0.949 . S
C3221 C3222 1.349 . S
C3221 C3223 1.327 . S
C3221 H3244 0.950 . S
C3222 C3221 1.349 . S
C3222 C3234 1.349 . S
C3223 C3221 1.327 . S
C3223 C3239 1.429 . S
C3223 H3245 0.950 . S
C3224 H3220 0.949 . S
C3224 C3232 1.574 . S
C3224 C3240 1.368 . S
H3225 C3233 0.950 . S
H3226 C3231 0.950 . S
H3227 C3232 0.949 . S
H3228 C3234 0.950 . S
H3229 C3235 0.950 . S
H3230 C3236 0.949 . S
C3231 H3226 0.950 . S
C3231 C3233 1.327 . S
C3231 C3237 1.429 . S
C3232 C3224 1.574 . S
C3232 H3227 0.949 . S
C3232 C3238 1.368 . S
C3233 C3217 1.349 . S
C3233 H3225 0.950 . S
C3233 C3231 1.327 . S
C3234 C3222 1.349 . S
C3234 H3228 0.950 . S
C3234 C3235 1.327 . S
C3235 H3229 0.950 . S
C3235 C3234 1.327 . S
C3235 C3239 1.429 . S
C3236 C3219 1.574 . S
C3236 H3230 0.949 . S
C3236 C3240 1.368 . S
C3237 C3218 1.429 . S
C3237 C3231 1.429 . S
C3237 C3238 1.523 . S
C3238 C3219 1.368 . S
C3238 C3232 1.368 . S
C3238 C3237 1.523 . S
C3239 C3223 1.429 . S
C3239 C3235 1.429 . S
C3239 C3240 1.523 . S
C3240 C3224 1.368 . S
C3240 C3236 1.368 . S
C3240 C3239 1.523 . S
H3241 C3216 0.950 . S
H3242 C3218 0.950 . S
H3243 C3219 0.949 . S
H3244 C3221 0.950 . S
H3245 C3223 0.950 . S
C3246 C3247 1.349 . S
C3246 C3248 1.327 . S
C3246 H3271 0.950 . S
C3247 C3246 1.349 . S
C3247 C3263 1.349 . S
C3248 C3246 1.327 . S
C3248 C3267 1.429 . S
C3248 H3272 0.950 . S
C3249 C3266 1.574 . S
C3249 C3268 1.368 . S
C3249 H3273 0.949 . S
H3250 C3254 0.949 . S
C3251 C3252 1.349 . S
C3251 C3253 1.327 . S
C3251 H3274 0.950 . S
C3252 C3251 1.349 . S
C3252 C3264 1.349 . S
C3253 C3251 1.327 . S
C3253 C3269 1.429 . S
C3253 H3275 0.950 . S
C3254 H3250 0.949 . S
C3254 C3262 1.574 . S
C3254 C3270 1.368 . S
H3255 C3263 0.950 . S
H3256 C3261 0.950 . S
H3257 C3262 0.949 . S
H3258 C3264 0.950 . S
H3259 C3265 0.950 . S
H3260 C3266 0.949 . S
C3261 H3256 0.950 . S
C3261 C3263 1.327 . S
C3261 C3267 1.429 . S
C3262 C3254 1.574 . S
C3262 H3257 0.949 . S
C3262 C3268 1.368 . S
C3263 C3247 1.349 . S
C3263 H3255 0.950 . S
C3263 C3261 1.327 . S
C3264 C3252 1.349 . S
C3264 H3258 0.950 . S
C3264 C3265 1.327 . S
C3265 H3259 0.950 . S
C3265 C3264 1.327 . S
C3265 C3269 1.429 . S
C3266 C3249 1.574 . S
C3266 H3260 0.949 . S
C3266 C3270 1.368 . S
C3267 C3248 1.429 . S
C3267 C3261 1.429 . S
C3267 C3268 1.523 . S
C3268 C3249 1.368 . S
C3268 C3262 1.368 . S
C3268 C3267 1.523 . S
C3269 C3253 1.429 . S
C3269 C3265 1.429 . S
C3269 C3270 1.523 . S
C3270 C3254 1.368 . S
C3270 C3266 1.368 . S
C3270 C3269 1.523 . S
H3271 C3246 0.950 . S
H3272 C3248 0.950 . S
H3273 C3249 0.949 . S
H3274 C3251 0.950 . S
H3275 C3253 0.950 . S
C3276 C3277 1.349 . S
C3276 C3278 1.327 . S
C3276 H3301 0.950 . S
C3277 C3276 1.349 . S
C3277 C3293 1.349 . S
C3278 C3276 1.327 . S
C3278 C3297 1.429 . S
C3278 H3302 0.950 . S
C3279 C3296 1.574 . S
C3279 C3298 1.368 1_565 S
C3279 H3303 0.949 . S
H3280 C3284 0.949 . S
C3281 C3282 1.349 1_565 S
C3281 C3283 1.327 . S
C3281 H3304 0.950 . S
C3282 C3281 1.349 1_545 S
C3282 C3294 1.349 . S
C3283 C3281 1.327 . S
C3283 C3299 1.429 1_565 S
C3283 H3305 0.950 . S
C3284 H3280 0.949 . S
C3284 C3292 1.574 . S
C3284 C3300 1.368 . S
H3285 C3293 0.950 1_565 S
H3286 C3291 0.950 1_565 S
H3287 C3292 0.949 . S
H3288 C3294 0.950 . S
H3289 C3295 0.950 . S
H3290 C3296 0.949 . S
C3291 H3286 0.950 1_545 S
C3291 C3293 1.327 . S
C3291 C3297 1.429 . S
C3292 C3284 1.574 . S
C3292 H3287 0.949 . S
C3292 C3298 1.368 . S
C3293 C3277 1.349 . S
C3293 H3285 0.950 1_545 S
C3293 C3291 1.327 . S
C3294 C3282 1.349 . S
C3294 H3288 0.950 . S
C3294 C3295 1.327 . S
C3295 H3289 0.950 . S
C3295 C3294 1.327 . S
C3295 C3299 1.429 . S
C3296 C3279 1.574 . S
C3296 H3290 0.949 . S
C3296 C3300 1.368 1_565 S
C3297 C3278 1.429 . S
C3297 C3291 1.429 . S
C3297 C3298 1.523 . S
C3298 C3279 1.368 1_545 S
C3298 C3292 1.368 . S
C3298 C3297 1.523 . S
C3299 C3283 1.429 1_545 S
C3299 C3295 1.429 . S
C3299 C3300 1.523 . S
C3300 C3284 1.368 . S
C3300 C3296 1.368 1_545 S
C3300 C3299 1.523 . S
H3301 C3276 0.950 . S
H3302 C3278 0.950 . S
H3303 C3279 0.949 . S
H3304 C3281 0.950 . S
H3305 C3283 0.950 . S
C3306 C3307 1.341 1_455 S
C3306 C3308 1.323 . S
C3306 H3331 0.962 . S
C3307 C3306 1.341 1_655 S
C3307 C3323 1.349 . S
C3308 C3306 1.323 . S
C3308 C3327 1.429 1_455 S
C3308 H3332 0.950 . S
C3309 C3326 1.574 . S
C3309 C3328 1.368 . S
C3309 H3333 0.949 . S
H3310 C3314 0.949 . S
C3311 C3312 1.349 . S
C3311 C3313 1.327 . S
C3311 H3334 0.950 . S
C3312 C3311 1.349 . S
C3312 C3324 1.349 1_655 S
C3313 C3311 1.327 . S
C3313 C3329 1.429 . S
C3313 H3335 0.950 . S
C3314 H3310 0.949 . S
C3314 C3322 1.574 . S
C3314 C3330 1.368 1_455 S
H3315 C3323 0.950 . S
H3316 C3321 0.950 . S
H3317 C3322 0.949 . S
H3318 C3324 0.950 . S
H3319 C3325 0.950 . S
H3320 C3326 0.949 . S
C3321 H3316 0.950 . S
C3321 C3323 1.327 . S
C3321 C3327 1.429 . S
C3322 C3314 1.574 . S
C3322 H3317 0.949 . S
C3322 C3328 1.368 1_455 S
C3323 C3307 1.349 . S
C3323 H3315 0.950 . S
C3323 C3321 1.327 . S
C3324 C3312 1.349 1_455 S
C3324 H3318 0.950 . S
C3324 C3325 1.327 . S
C3325 H3319 0.950 . S
C3325 C3324 1.327 . S
C3325 C3329 1.429 1_455 S
C3326 C3309 1.574 . S
C3326 H3320 0.949 . S
C3326 C3330 1.368 . S
C3327 C3308 1.429 1_655 S
C3327 C3321 1.429 . S
C3327 C3328 1.523 . S
C3328 C3309 1.368 . S
C3328 C3322 1.368 1_655 S
C3328 C3327 1.523 . S
C3329 C3313 1.429 . S
C3329 C3325 1.429 1_655 S
C3329 C3330 1.523 . S
C3330 C3314 1.368 1_655 S
C3330 C3326 1.368 . S
C3330 C3329 1.523 . S
H3331 C3306 0.962 . S
H3332 C3308 0.950 . S
H3333 C3309 0.949 . S
H3334 C3311 0.950 . S
H3335 C3313 0.950 . S
C3336 C3337 1.349 . S
C3336 C3338 1.327 . S
C3336 H3361 0.950 . S
C3337 C3336 1.349 . S
C3337 C3353 1.349 . S
C3338 C3336 1.327 . S
C3338 C3357 1.429 . S
C3338 H3362 0.950 . S
C3339 C3356 1.574 . S
C3339 C3358 1.368 . S
C3339 H3363 0.949 . S
H3340 C3344 0.949 . S
C3341 C3342 1.349 . S
C3341 C3343 1.327 . S
C3341 H3364 0.950 . S
C3342 C3341 1.349 . S
C3342 C3354 1.349 . S
C3343 C3341 1.327 . S
C3343 C3359 1.429 . S
C3343 H3365 0.950 . S
C3344 H3340 0.949 . S
C3344 C3352 1.574 . S
C3344 C3360 1.368 . S
H3345 C3353 0.950 . S
H3346 C3351 0.950 . S
H3347 C3352 0.949 . S
H3348 C3354 0.950 . S
H3349 C3355 0.950 . S
H3350 C3356 0.949 . S
C3351 H3346 0.950 . S
C3351 C3353 1.327 . S
C3351 C3357 1.429 . S
C3352 C3344 1.574 . S
C3352 H3347 0.949 . S
C3352 C3358 1.368 . S
C3353 C3337 1.349 . S
C3353 H3345 0.950 . S
C3353 C3351 1.327 . S
C3354 C3342 1.349 . S
C3354 H3348 0.950 . S
C3354 C3355 1.327 . S
C3355 H3349 0.950 . S
C3355 C3354 1.327 . S
C3355 C3359 1.429 . S
C3356 C3339 1.574 . S
C3356 H3350 0.949 . S
C3356 C3360 1.368 . S
C3357 C3338 1.429 . S
C3357 C3351 1.429 . S
C3357 C3358 1.523 . S
C3358 C3339 1.368 . S
C3358 C3352 1.368 . S
C3358 C3357 1.523 . S
C3359 C3343 1.429 . S
C3359 C3355 1.429 . S
C3359 C3360 1.523 . S
C3360 C3344 1.368 . S
C3360 C3356 1.368 . S
C3360 C3359 1.523 . S
H3361 C3336 0.950 . S
H3362 C3338 0.950 . S
H3363 C3339 0.949 . S
H3364 C3341 0.950 . S
H3365 C3343 0.950 . S
C3366 C3367 1.349 . S
C3366 C3368 1.327 . S
C3366 H3391 0.950 . S
C3367 C3366 1.349 . S
C3367 C3383 1.349 . S
C3368 C3366 1.327 . S
C3368 C3387 1.429 . S
C3368 H3392 0.950 . S
C3369 C3386 1.574 . S
C3369 C3388 1.368 . S
C3369 H3393 0.949 . S
H3370 C3374 0.949 . S
C3371 C3372 1.349 . S
C3371 C3373 1.327 . S
C3371 H3394 0.950 . S
C3372 C3371 1.349 . S
C3372 C3384 1.349 . S
C3373 C3371 1.327 . S
C3373 C3389 1.429 . S
C3373 H3395 0.950 . S
C3374 H3370 0.949 . S
C3374 C3382 1.574 . S
C3374 C3390 1.368 . S
H3375 C3383 0.950 . S
H3376 C3381 0.950 . S
H3377 C3382 0.949 . S
H3378 C3384 0.950 . S
H3379 C3385 0.950 . S
H3380 C3386 0.949 . S
C3381 H3376 0.950 . S
C3381 C3383 1.327 . S
C3381 C3387 1.429 . S
C3382 C3374 1.574 . S
C3382 H3377 0.949 . S
C3382 C3388 1.368 . S
C3383 C3367 1.349 . S
C3383 H3375 0.950 . S
C3383 C3381 1.327 . S
C3384 C3372 1.349 . S
C3384 H3378 0.950 . S
C3384 C3385 1.327 . S
C3385 H3379 0.950 . S
C3385 C3384 1.327 . S
C3385 C3389 1.429 . S
C3386 C3369 1.574 . S
C3386 H3380 0.949 . S
C3386 C3390 1.368 . S
C3387 C3368 1.429 . S
C3387 C3381 1.429 . S
C3387 C3388 1.523 . S
C3388 C3369 1.368 . S
C3388 C3382 1.368 . S
C3388 C3387 1.523 . S
C3389 C3373 1.429 . S
C3389 C3385 1.429 . S
C3389 C3390 1.523 . S
C3390 C3374 1.368 . S
C3390 C3386 1.368 . S
C3390 C3389 1.523 . S
H3391 C3366 0.950 . S
H3392 C3368 0.950 . S
H3393 C3369 0.949 . S
H3394 C3371 0.950 . S
H3395 C3373 0.950 . S
C3396 C3397 1.349 . S
C3396 C3398 1.327 . S
C3396 H3421 0.950 . S
C3397 C3396 1.349 . S
C3397 C3413 1.349 . S
C3398 C3396 1.327 . S
C3398 C3417 1.429 . S
C3398 H3422 0.950 . S
C3399 C3416 1.574 . S
C3399 C3418 1.368 . S
C3399 H3423 0.949 . S
H3400 C3404 0.949 . S
C3401 C3402 1.349 . S
C3401 C3403 1.327 . S
C3401 H3424 0.950 . S
C3402 C3401 1.349 . S
C3402 C3414 1.349 . S
C3403 C3401 1.327 . S
C3403 C3419 1.429 . S
C3403 H3425 0.950 . S
C3404 H3400 0.949 . S
C3404 C3412 1.574 . S
C3404 C3420 1.368 . S
H3405 C3413 0.950 . S
H3406 C3411 0.950 . S
H3407 C3412 0.949 . S
H3408 C3414 0.950 . S
H3409 C3415 0.950 . S
H3410 C3416 0.949 . S
C3411 H3406 0.950 . S
C3411 C3413 1.327 . S
C3411 C3417 1.429 . S
C3412 C3404 1.574 . S
C3412 H3407 0.949 . S
C3412 C3418 1.368 . S
C3413 C3397 1.349 . S
C3413 H3405 0.950 . S
C3413 C3411 1.327 . S
C3414 C3402 1.349 . S
C3414 H3408 0.950 . S
C3414 C3415 1.327 . S
C3415 H3409 0.950 . S
C3415 C3414 1.327 . S
C3415 C3419 1.429 . S
C3416 C3399 1.574 . S
C3416 H3410 0.949 . S
C3416 C3420 1.368 . S
C3417 C3398 1.429 . S
C3417 C3411 1.429 . S
C3417 C3418 1.523 . S
C3418 C3399 1.368 . S
C3418 C3412 1.368 . S
C3418 C3417 1.523 . S
C3419 C3403 1.429 . S
C3419 C3415 1.429 . S
C3419 C3420 1.523 . S
C3420 C3404 1.368 . S
C3420 C3416 1.368 . S
C3420 C3419 1.523 . S
H3421 C3396 0.950 . S
H3422 C3398 0.950 . S
H3423 C3399 0.949 . S
H3424 C3401 0.950 . S
H3425 C3403 0.950 . S
C3426 C3427 1.349 . S
C3426 C3428 1.327 . S
C3426 H3451 0.950 . S
C3427 C3426 1.349 . S
C3427 C3443 1.349 . S
C3428 C3426 1.327 . S
C3428 C3447 1.429 . S
C3428 H3452 0.950 . S
C3429 C3446 1.574 . S
C3429 C3448 1.368 . S
C3429 H3453 0.949 . S
H3430 C3434 0.949 . S
C3431 C3432 1.349 . S
C3431 C3433 1.327 . S
C3431 H3454 0.950 . S
C3432 C3431 1.349 . S
C3432 C3444 1.349 . S
C3433 C3431 1.327 . S
C3433 C3449 1.429 . S
C3433 H3455 0.950 . S
C3434 H3430 0.949 . S
C3434 C3442 1.574 . S
C3434 C3450 1.368 . S
H3435 C3443 0.950 . S
H3436 C3441 0.950 . S
H3437 C3442 0.949 . S
H3438 C3444 0.950 . S
H3439 C3445 0.950 . S
H3440 C3446 0.949 . S
C3441 H3436 0.950 . S
C3441 C3443 1.327 . S
C3441 C3447 1.429 . S
C3442 C3434 1.574 . S
C3442 H3437 0.949 . S
C3442 C3448 1.368 . S
C3443 C3427 1.349 . S
C3443 H3435 0.950 . S
C3443 C3441 1.327 . S
C3444 C3432 1.349 . S
C3444 H3438 0.950 . S
C3444 C3445 1.327 . S
C3445 H3439 0.950 . S
C3445 C3444 1.327 . S
C3445 C3449 1.429 . S
C3446 C3429 1.574 . S
C3446 H3440 0.949 . S
C3446 C3450 1.368 . S
C3447 C3428 1.429 . S
C3447 C3441 1.429 . S
C3447 C3448 1.523 . S
C3448 C3429 1.368 . S
C3448 C3442 1.368 . S
C3448 C3447 1.523 . S
C3449 C3433 1.429 . S
C3449 C3445 1.429 . S
C3449 C3450 1.523 . S
C3450 C3434 1.368 . S
C3450 C3446 1.368 . S
C3450 C3449 1.523 . S
H3451 C3426 0.950 . S
H3452 C3428 0.950 . S
H3453 C3429 0.949 . S
H3454 C3431 0.950 . S
H3455 C3433 0.950 . S
C3456 C3457 1.349 . S
C3456 C3458 1.327 . S
C3456 H3481 0.950 . S
C3457 C3456 1.349 . S
C3457 C3473 1.349 . S
C3458 C3456 1.327 . S
C3458 C3477 1.429 . S
C3458 H3482 0.950 . S
C3459 C3476 1.574 . S
C3459 C3478 1.368 . S
C3459 H3483 0.949 . S
H3460 C3464 0.949 . S
C3461 C3462 1.349 . S
C3461 C3463 1.327 . S
C3461 H3484 0.950 . S
C3462 C3461 1.349 . S
C3462 C3474 1.349 . S
C3463 C3461 1.327 . S
C3463 C3479 1.429 . S
C3463 H3485 0.950 . S
C3464 H3460 0.949 . S
C3464 C3472 1.574 . S
C3464 C3480 1.368 . S
H3465 C3473 0.950 . S
H3466 C3471 0.950 . S
H3467 C3472 0.949 . S
H3468 C3474 0.950 . S
H3469 C3475 0.950 . S
H3470 C3476 0.949 . S
C3471 H3466 0.950 . S
C3471 C3473 1.327 . S
C3471 C3477 1.429 . S
C3472 C3464 1.574 . S
C3472 H3467 0.949 . S
C3472 C3478 1.368 . S
C3473 C3457 1.349 . S
C3473 H3465 0.950 . S
C3473 C3471 1.327 . S
C3474 C3462 1.349 . S
C3474 H3468 0.950 . S
C3474 C3475 1.327 . S
C3475 H3469 0.950 . S
C3475 C3474 1.327 . S
C3475 C3479 1.429 . S
C3476 C3459 1.574 . S
C3476 H3470 0.949 . S
C3476 C3480 1.368 . S
C3477 C3458 1.429 . S
C3477 C3471 1.429 . S
C3477 C3478 1.523 . S
C3478 C3459 1.368 . S
C3478 C3472 1.368 . S
C3478 C3477 1.523 . S
C3479 C3463 1.429 . S
C3479 C3475 1.429 . S
C3479 C3480 1.523 . S
C3480 C3464 1.368 . S
C3480 C3476 1.368 . S
C3480 C3479 1.523 . S
H3481 C3456 0.950 . S
H3482 C3458 0.950 . S
H3483 C3459 0.949 . S
H3484 C3461 0.950 . S
H3485 C3463 0.950 . S
C3486 C3487 1.349 . S
C3486 C3488 1.327 . S
C3486 H3511 0.950 . S
C3487 C3486 1.349 . S
C3487 C3503 1.349 . S
C3488 C3486 1.327 . S
C3488 C3507 1.429 . S
C3488 H3512 0.950 . S
C3489 C3506 1.574 . S
C3489 C3508 1.368 . S
C3489 H3513 0.949 . S
H3490 C3494 0.949 . S
C3491 C3492 1.349 . S
C3491 C3493 1.327 . S
C3491 H3514 0.950 . S
C3492 C3491 1.349 . S
C3492 C3504 1.349 . S
C3493 C3491 1.327 . S
C3493 C3509 1.429 . S
C3493 H3515 0.950 . S
C3494 H3490 0.949 . S
C3494 C3502 1.574 . S
C3494 C3510 1.368 . S
H3495 C3503 0.950 . S
H3496 C3501 0.950 . S
H3497 C3502 0.949 . S
H3498 C3504 0.950 . S
H3499 C3505 0.950 . S
H3500 C3506 0.949 . S
C3501 H3496 0.950 . S
C3501 C3503 1.327 . S
C3501 C3507 1.429 . S
C3502 C3494 1.574 . S
C3502 H3497 0.949 . S
C3502 C3508 1.368 . S
C3503 C3487 1.349 . S
C3503 H3495 0.950 . S
C3503 C3501 1.327 . S
C3504 C3492 1.349 . S
C3504 H3498 0.950 . S
C3504 C3505 1.327 . S
C3505 H3499 0.950 . S
C3505 C3504 1.327 . S
C3505 C3509 1.429 . S
C3506 C3489 1.574 . S
C3506 H3500 0.949 . S
C3506 C3510 1.368 . S
C3507 C3488 1.429 . S
C3507 C3501 1.429 . S
C3507 C3508 1.523 . S
C3508 C3489 1.368 . S
C3508 C3502 1.368 . S
C3508 C3507 1.523 . S
C3509 C3493 1.429 . S
C3509 C3505 1.429 . S
C3509 C3510 1.523 . S
C3510 C3494 1.368 . S
C3510 C3506 1.368 . S
C3510 C3509 1.523 . S
H3511 C3486 0.950 . S
H3512 C3488 0.950 . S
H3513 C3489 0.949 . S
H3514 C3491 0.950 . S
H3515 C3493 0.950 . S
C3516 C3517 1.349 . S
C3516 C3518 1.327 . S
C3516 H3541 0.950 . S
C3517 C3516 1.349 . S
C3517 C3533 1.349 . S
C3518 C3516 1.327 . S
C3518 C3537 1.429 . S
C3518 H3542 0.950 . S
C3519 C3536 1.574 . S
C3519 C3538 1.368 . S
C3519 H3543 0.949 . S
H3520 C3524 0.949 . S
C3521 C3522 1.349 . S
C3521 C3523 1.327 . S
C3521 H3544 0.950 . S
C3522 C3521 1.349 . S
C3522 C3534 1.349 . S
C3523 C3521 1.327 . S
C3523 C3539 1.429 . S
C3523 H3545 0.950 . S
C3524 H3520 0.949 . S
C3524 C3532 1.574 . S
C3524 C3540 1.368 . S
H3525 C3533 0.950 . S
H3526 C3531 0.950 . S
H3527 C3532 0.949 . S
H3528 C3534 0.950 . S
H3529 C3535 0.950 . S
H3530 C3536 0.949 . S
C3531 H3526 0.950 . S
C3531 C3533 1.327 . S
C3531 C3537 1.429 . S
C3532 C3524 1.574 . S
C3532 H3527 0.949 . S
C3532 C3538 1.368 . S
C3533 C3517 1.349 . S
C3533 H3525 0.950 . S
C3533 C3531 1.327 . S
C3534 C3522 1.349 . S
C3534 H3528 0.950 . S
C3534 C3535 1.327 . S
C3535 H3529 0.950 . S
C3535 C3534 1.327 . S
C3535 C3539 1.429 . S
C3536 C3519 1.574 . S
C3536 H3530 0.949 . S
C3536 C3540 1.368 . S
C3537 C3518 1.429 . S
C3537 C3531 1.429 . S
C3537 C3538 1.523 . S
C3538 C3519 1.368 . S
C3538 C3532 1.368 . S
C3538 C3537 1.523 . S
C3539 C3523 1.429 . S
C3539 C3535 1.429 . S
C3539 C3540 1.523 . S
C3540 C3524 1.368 . S
C3540 C3536 1.368 . S
C3540 C3539 1.523 . S
H3541 C3516 0.950 . S
H3542 C3518 0.950 . S
H3543 C3519 0.949 . S
H3544 C3521 0.950 . S
H3545 C3523 0.950 . S
C3546 C3547 1.349 . S
C3546 C3548 1.327 . S
C3546 H3571 0.950 . S
C3547 C3546 1.349 . S
C3547 C3563 1.349 . S
C3548 C3546 1.327 . S
C3548 C3567 1.429 . S
C3548 H3572 0.950 . S
C3549 C3566 1.574 . S
C3549 C3568 1.368 . S
C3549 H3573 0.949 . S
H3550 C3554 0.949 . S
C3551 C3552 1.357 . S
C3551 C3553 1.350 . S
C3551 H3574 0.920 1_655 S
C3552 C3551 1.357 . S
C3552 C3564 1.349 . S
C3553 C3551 1.350 . S
C3553 C3569 1.429 . S
C3553 H3575 0.943 1_655 S
C3554 H3550 0.949 . S
C3554 C3562 1.574 . S
C3554 C3570 1.368 . S
H3555 C3563 0.950 . S
H3556 C3561 0.950 . S
H3557 C3562 0.949 . S
H3558 C3564 0.950 . S
H3559 C3565 0.950 . S
H3560 C3566 0.988 . S
C3561 H3556 0.950 . S
C3561 C3563 1.327 . S
C3561 C3567 1.429 . S
C3562 C3554 1.574 . S
C3562 H3557 0.949 . S
C3562 C3568 1.368 . S
C3563 C3547 1.349 . S
C3563 H3555 0.950 . S
C3563 C3561 1.327 . S
C3564 C3552 1.349 . S
C3564 H3558 0.950 . S
C3564 C3565 1.327 . S
C3565 H3559 0.950 . S
C3565 C3564 1.327 . S
C3565 C3569 1.429 . S
C3566 C3549 1.574 . S
C3566 H3560 0.988 . S
C3566 C3570 1.368 . S
C3567 C3548 1.429 . S
C3567 C3561 1.429 . S
C3567 C3568 1.523 . S
C3568 C3549 1.368 . S
C3568 C3562 1.368 . S
C3568 C3567 1.523 . S
C3569 C3553 1.429 . S
C3569 C3565 1.429 . S
C3569 C3570 1.523 . S
C3570 C3554 1.368 . S
C3570 C3566 1.368 . S
C3570 C3569 1.523 . S
H3571 C3546 0.950 . S
H3572 C3548 0.950 . S
H3573 C3549 0.949 . S
H3574 C3551 0.920 1_455 S
H3575 C3553 0.943 1_455 S
C3576 C3577 1.349 . S
C3576 C3578 1.327 . S
C3576 H3601 0.950 . S
C3577 C3576 1.349 . S
C3577 C3593 1.349 . S
C3578 C3576 1.327 . S
C3578 C3597 1.429 . S
C3578 H3602 0.950 . S
C3579 C3596 1.574 . S
C3579 C3598 1.368 . S
C3579 H3603 0.949 . S
H3580 C3584 0.949 . S
C3581 C3582 1.349 . S
C3581 C3583 1.327 . S
C3581 H3604 0.950 . S
C3582 C3581 1.349 . S
C3582 C3594 1.349 . S
C3583 C3581 1.327 . S
C3583 C3599 1.429 . S
C3583 H3605 0.950 . S
C3584 H3580 0.949 . S
C3584 C3592 1.574 . S
C3584 C3600 1.368 . S
H3585 C3593 0.950 . S
H3586 C3591 0.950 . S
H3587 C3592 0.949 . S
H3588 C3594 0.950 . S
H3589 C3595 0.950 . S
H3590 C3596 0.949 . S
C3591 H3586 0.950 . S
C3591 C3593 1.327 . S
C3591 C3597 1.429 . S
C3592 C3584 1.574 . S
C3592 H3587 0.949 . S
C3592 C3598 1.368 . S
C3593 C3577 1.349 . S
C3593 H3585 0.950 . S
C3593 C3591 1.327 . S
C3594 C3582 1.349 . S
C3594 H3588 0.950 . S
C3594 C3595 1.327 . S
C3595 H3589 0.950 . S
C3595 C3594 1.327 . S
C3595 C3599 1.429 . S
C3596 C3579 1.574 . S
C3596 H3590 0.949 . S
C3596 C3600 1.368 . S
C3597 C3578 1.429 . S
C3597 C3591 1.429 . S
C3597 C3598 1.523 . S
C3598 C3579 1.368 . S
C3598 C3592 1.368 . S
C3598 C3597 1.523 . S
C3599 C3583 1.429 . S
C3599 C3595 1.429 . S
C3599 C3600 1.523 . S
C3600 C3584 1.368 . S
C3600 C3596 1.368 . S
C3600 C3599 1.523 . S
H3601 C3576 0.950 . S
H3602 C3578 0.950 . S
H3603 C3579 0.949 . S
H3604 C3581 0.950 . S
H3605 C3583 0.950 . S
C3606 C3607 1.349 1_565 S
C3606 C3608 1.327 . S
C3606 H3631 0.950 . S
C3607 C3606 1.349 1_545 S
C3607 C3623 1.349 . S
C3608 C3606 1.327 . S
C3608 C3627 1.429 1_565 S
C3608 H3632 0.950 . S
C3609 C3626 1.574 . S
C3609 C3628 1.368 . S
C3609 H3633 0.949 . S
H3610 C3614 0.949 . S
C3611 C3612 1.349 . S
C3611 C3613 1.327 . S
C3611 H3634 0.950 . S
C3612 C3611 1.349 . S
C3612 C3624 1.349 1_545 S
C3613 C3611 1.327 . S
C3613 C3629 1.429 . S
C3613 H3635 0.950 . S
C3614 H3610 0.949 . S
C3614 C3622 1.574 . S
C3614 C3630 1.368 1_565 S
H3615 C3623 0.950 . S
H3616 C3621 0.950 . S
H3617 C3622 0.949 . S
H3618 C3624 0.950 . S
H3619 C3625 0.950 . S
H3620 C3626 0.949 . S
C3621 H3616 0.950 . S
C3621 C3623 1.327 . S
C3621 C3627 1.429 . S
C3622 C3614 1.574 . S
C3622 H3617 0.949 . S
C3622 C3628 1.368 1_565 S
C3623 C3607 1.349 . S
C3623 H3615 0.950 . S
C3623 C3621 1.327 . S
C3624 C3612 1.349 1_565 S
C3624 H3618 0.950 . S
C3624 C3625 1.327 . S
C3625 H3619 0.950 . S
C3625 C3624 1.327 . S
C3625 C3629 1.429 1_565 S
C3626 C3609 1.574 . S
C3626 H3620 0.949 . S
C3626 C3630 1.368 . S
C3627 C3608 1.429 1_545 S
C3627 C3621 1.429 . S
C3627 C3628 1.523 . S
C3628 C3609 1.368 . S
C3628 C3622 1.368 1_545 S
C3628 C3627 1.523 . S
C3629 C3613 1.429 . S
C3629 C3625 1.429 1_545 S
C3629 C3630 1.523 . S
C3630 C3614 1.368 1_545 S
C3630 C3626 1.368 . S
C3630 C3629 1.523 . S
H3631 C3606 0.950 . S
H3632 C3608 0.950 . S
H3633 C3609 0.949 . S
H3634 C3611 0.950 . S
H3635 C3613 0.950 . S
C1477 C4 1.417 . S
C1482 C1084 1.412 . S
C1507 C38 1.699 . S
C1512 C1130 1.695 . S
C1542 C1162 1.419 . S
C1537 C74 1.388 . S
C1567 C76 1.370 . S
C1572 C1215 1.397 . S
C1597 C2 1.489 . S
C1602 C1261 1.535 . S
C1627 C40 1.526 . S
C1632 C1300 1.529 . S
C1657 C110 1.443 . S
C1662 C1254 1.475 . S
C1692 C1307 1.530 . S
C1687 C148 1.530 . S
C1722 C1208 1.494 . S
C1717 C182 1.452 . S
C1747 C184 1.428 . S
C1752 C1169 1.457 . S
C1782 C1063 1.403 . S
C1777 C112 1.380 . S
C1807 C146 1.629 . S
C1812 C1109 1.626 . S
C1837 C220 1.655 . S
C1842 C1339 1.654 . S
C1867 C254 1.791 . S
C1872 C1406 1.774 . S
C1902 C1452 1.622 . S
C1897 C290 1.636 . S
C1927 C292 1.515 . S
C1932 C663 1.508 . S
C1957 C218 1.697 . S
C1962 C709 1.695 . S
C1987 C256 1.562 . S
C1992 C755 1.549 . S
C2017 C326 1.654 . S
C2022 C702 1.646 . S
C2047 C364 1.599 . S
C2052 C748 1.583 . S
C2082 C656 1.690 . S
C2077 C398 1.698 . S
C2112 C1431 1.679 . S
C2107 C400 1.685 . S
C2142 C1360 1.507 . S
C2137 C328 1.508 . S
C2172 C1385 1.710 . S
C2167 C362 1.724 . S
C2197 C436 1.541 . S
C2202 C787 1.541 . S
C2227 C470 1.755 . S
C2232 C840 1.756 . S
C2257 C506 1.645 . S
C2262 C886 1.646 . S
C2287 C508 1.628 . S
C2292 C932 1.630 . S
C2322 C985 1.676 . S
C2317 C434 1.683 . S
C2352 C1031 1.581 . S
C2347 C472 1.596 . S
C2382 C978 1.769 . S
C2377 C542 1.778 . S
C2412 C1024 1.604 . S
C2407 C580 1.623 . S
C2437 C614 1.672 . S
C2442 C939 1.671 . S
C2472 C893 1.564 . S
C2467 C616 1.560 . S
C2497 C544 1.532 . S
C2502 C808 1.534 . S
C2532 C847 1.676 . S
C2527 C578 1.673 . S
C2562 C670 1.637 . S
C2557 C14 1.615 . S
C2587 C39 1.535 . S
C2592 C716 1.521 . S
C2622 C762 1.548 . S
C2617 C75 1.566 . S
C2652 C794 1.460 . S
C2647 C86 1.440 . S
C2682 C833 1.597 . S
C2677 C3 1.622 . S
C2712 C879 1.511 . S
C2707 C50 1.504 . S
C2737 C111 1.607 . S
C2742 C900 1.590 . S
C2767 C158 1.443 . S
C2772 C801 1.446 . S
C2797 C183 1.703 . S
C2802 C854 1.675 . S
C2827 C194 1.602 . S
C2832 C695 1.629 . S
C2862 C741 1.513 . S
C2857 C122 1.497 . S
C2887 C147 1.440 . S
C2892 C649 1.429 . S
C2922 C925 1.566 . S
C2917 C230 1.559 . S
C2947 C255 1.695 . S
C2952 C992 1.680 . S
C2977 C291 1.608 . S
C2982 C1038 1.590 . S
C3012 C1077 1.274 . S
C3007 C302 1.215 . S
C3037 C219 1.578 . S
C3042 C1123 1.566 . S
C3067 C266 1.323 . S
C3072 C1155 1.387 . S
C3097 C327 1.290 . S
C3102 C1176 1.282 . S
C3127 C374 1.275 . S
C3132 C1070 1.330 . S
C3162 C1116 1.639 . S
C3157 C399 1.653 . S
C3187 C410 1.557 . S
C3192 C971 1.581 . S
C3217 C338 1.571 . S
C3222 C1017 1.598 . S
C3252 C946 1.581 . S
C3247 C363 1.605 . S
C3282 C1222 1.379 . S
C3277 C446 1.315 . S
C3307 C471 1.364 . S
C3312 C1268 1.366 . S
C3337 C507 1.508 . S
C3342 C1293 1.484 . S
C3372 C1346 1.424 . S
C3367 C518 1.415 . S
C3402 C1399 1.671 . S
C3397 C435 1.686 . S
C3427 C482 1.643 . S
C3432 C1445 1.675 . S
C3457 C543 1.522 . S
C3462 C1438 1.507 . S
C3487 C590 1.589 . S
C3492 C1353 1.606 . S
C3522 C1392 1.724 . S
C3517 C615 1.742 . S
C3552 C1247 1.385 . S
C3547 C626 1.316 . S
C3582 C1314 1.511 . S
C3577 C554 1.499 . S
C3607 C579 1.303 . S
C3612 C1201 1.306 . S
