# Generated by pormake.
# Topology zzz, (3,6)-cn, num edge types: 1
# Building blocks:
#     Node 0, Type 0, BuildingBlock: CUQRIR_clean_linker_1, # of connection points: 3
#     Node 1, Type 0, BuildingBlock: CUQRIR_clean_linker_1, # of connection points: 3
#     Node 2, Type 0, BuildingBlock: CUQRIR_clean_linker_1, # of connection points: 3
#     Node 3, Type 0, BuildingBlock: CUQRIR_clean_linker_1, # of connection points: 3
#     Node 4, Type 0, BuildingBlock: CUQRIR_clean_linker_1, # of connection points: 3
#     Node 5, Type 0, BuildingBlock: CUQRIR_clean_linker_1, # of connection points: 3
#     Node 6, Type 0, BuildingBlock: CUQRIR_clean_linker_1, # of connection points: 3
#     Node 7, Type 0, BuildingBlock: CUQRIR_clean_linker_1, # of connection points: 3
#     Node 8, Type 1, BuildingBlock: PAMTUU_clean_sbu_0, # of connection points: 6
#     Node 9, Type 1, BuildingBlock: PAMTUU_clean_sbu_0, # of connection points: 6
#     Node 10, Type 1, BuildingBlock: PAMTUU_clean_sbu_0, # of connection points: 6
#     Node 11, Type 1, BuildingBlock: PAMTUU_clean_sbu_0, # of connection points: 6
#     Edge 12, Type (0, 1), BuildingBlock: XIVTED_clean_linker_0, # of connection points: 2
#     Edge 13, Type (0, 1), BuildingBlock: XIVTED_clean_linker_0, # of connection points: 2
#     Edge 14, Type (0, 1), BuildingBlock: XIVTED_clean_linker_0, # of connection points: 2
#     Edge 15, Type (0, 1), BuildingBlock: XIVTED_clean_linker_0, # of connection points: 2
#     Edge 16, Type (0, 1), BuildingBlock: XIVTED_clean_linker_0, # of connection points: 2
#     Edge 17, Type (0, 1), BuildingBlock: XIVTED_clean_linker_0, # of connection points: 2
#     Edge 18, Type (0, 1), BuildingBlock: XIVTED_clean_linker_0, # of connection points: 2
#     Edge 19, Type (0, 1), BuildingBlock: XIVTED_clean_linker_0, # of connection points: 2
#     Edge 20, Type (0, 1), BuildingBlock: XIVTED_clean_linker_0, # of connection points: 2
#     Edge 21, Type (0, 1), BuildingBlock: XIVTED_clean_linker_0, # of connection points: 2
#     Edge 22, Type (0, 1), BuildingBlock: XIVTED_clean_linker_0, # of connection points: 2
#     Edge 23, Type (0, 1), BuildingBlock: XIVTED_clean_linker_0, # of connection points: 2
#     Edge 24, Type (0, 1), BuildingBlock: XIVTED_clean_linker_0, # of connection points: 2
#     Edge 25, Type (0, 1), BuildingBlock: XIVTED_clean_linker_0, # of connection points: 2
#     Edge 26, Type (0, 1), BuildingBlock: XIVTED_clean_linker_0, # of connection points: 2
#     Edge 27, Type (0, 1), BuildingBlock: XIVTED_clean_linker_0, # of connection points: 2
#     Edge 28, Type (0, 1), BuildingBlock: XIVTED_clean_linker_0, # of connection points: 2
#     Edge 29, Type (0, 1), BuildingBlock: XIVTED_clean_linker_0, # of connection points: 2
#     Edge 30, Type (0, 1), BuildingBlock: XIVTED_clean_linker_0, # of connection points: 2
#     Edge 31, Type (0, 1), BuildingBlock: XIVTED_clean_linker_0, # of connection points: 2
#     Edge 32, Type (0, 1), BuildingBlock: XIVTED_clean_linker_0, # of connection points: 2
#     Edge 33, Type (0, 1), BuildingBlock: XIVTED_clean_linker_0, # of connection points: 2
#     Edge 34, Type (0, 1), BuildingBlock: XIVTED_clean_linker_0, # of connection points: 2
#     Edge 35, Type (0, 1), BuildingBlock: XIVTED_clean_linker_0, # of connection points: 2
# Relax obj value: 0.242
# Max RMSD: 0.229
# Mean RMSD: 0.120
data_MOF--net-zzz--node1-PAMTUU_clean_sbu_0--node2-CUQRIR_clean_linker_1--edge1-XIVTED_clean_linker_0
_symmetry_space_group_name_H-M    P1
_symmetry_Int_Tables_number       1
_symmetry_cell_setting            triclinic
loop_
_symmetry_equiv_pos_as_xyz
'x, y, z'
_cell_length_a     47.268294
_cell_length_b     51.740498
_cell_length_c     14.190733
_cell_angle_alpha  102.39581
_cell_angle_beta   90.110248
_cell_angle_gamma 90.862497
loop_
_atom_site_label
_atom_site_type_symbol
_atom_site_fract_x
_atom_site_fract_y
_atom_site_fract_z
_atom_type_partial_charge
C0 C 0.75605 0.49719 0.45158 0.0
N1 N 0.77991 0.48359 0.46272 0.0
N2 N 0.74011 0.48384 0.37564 0.0
C3 C 0.74821 0.52315 0.51467 0.0
C4 C 0.75535 0.46195 0.34064 0.0
N5 N 0.77921 0.46174 0.39326 0.0
C6 C 0.74816 0.44197 0.24949 0.0
H7 H 0.75617 0.5246 0.58928 0.0
H8 H 0.72494 0.52568 0.51522 0.0
H9 H 0.75817 0.53936 0.48568 0.0
H10 H 0.73387 0.45031 0.20196 0.0
H11 H 0.73738 0.42466 0.26898 0.0
H12 H 0.76758 0.43496 0.20874 0.0
C13 C 1.01529 0.72769 0.49668 0.0
N14 N 1.01963 0.75384 0.50063 0.0
N15 N 1.02502 0.71316 0.41204 0.0
C16 C 1.00227 0.71638 0.57559 0.0
C17 C 0.03536 0.73147 0.36509 0.0
N18 N 0.0321 0.75609 0.41899 0.0
C19 C 0.04724 0.72535 0.26464 0.0
H20 H 1.00571 0.72988 0.64693 0.0
H21 H 1.01114 0.69667 0.57604 0.0
H22 H 0.97915 0.7139 0.56231 0.0
H23 H 0.03727 0.70712 0.22086 0.0
H24 H 0.0703 0.7221 0.26902 0.0
H25 H 0.04402 0.74203 0.2282 0.0
C26 C 0.79292 0.00133 0.45285 0.0
N27 N 0.77138 0.01798 0.48694 0.0
N28 N 0.81434 0.01441 0.41746 0.0
C29 C 0.79207 0.97211 0.4476 0.0
C30 C 0.80495 0.03949 0.43151 0.0
N31 N 0.77875 0.04166 0.47124 0.0
C32 C 0.82129 0.06175 0.40256 0.0
H33 H 0.78389 0.96801 0.51626 0.0
H34 H 0.81336 0.96346 0.43255 0.0
H35 H 0.77731 0.96262 0.38902 0.0
H36 H 0.82107 0.05882 0.32276 0.0
H37 H 0.8437 0.06152 0.4257 0.0
H38 H 0.81229 0.0813 0.43513 0.0
C39 C 0.53654 0.77565 0.21553 0.0
N40 N 0.53023 0.74974 0.21142 0.0
N41 N 0.52324 0.78426 0.14318 0.0
C42 C 0.55729 0.79192 0.28481 0.0
C43 C 0.5086 0.76262 0.09555 0.0
N44 N 0.51288 0.74171 0.1367 0.0
C45 C 0.48936 0.76219 0.01068 0.0
H46 H 0.54541 0.80495 0.34326 0.0
H47 H 0.57024 0.80473 0.24765 0.0
H48 H 0.57133 0.77923 0.31755 0.0
H49 H 0.50178 0.75722 0.94316 0.0
H50 H 0.47982 0.78189 0.01514 0.0
H51 H 0.47229 0.74705 0.00736 0.0
C52 C 0.29565 0.5067 0.23788 0.0
N53 N 0.27438 0.52333 0.22692 0.0
N54 N 0.31624 0.51972 0.29787 0.0
C55 C 0.29539 0.47757 0.19556 0.0
C56 C 0.30649 0.54466 0.32315 0.0
N57 N 0.28088 0.54686 0.28243 0.0
C58 C 0.32119 0.56648 0.39454 0.0
H59 H 0.31709 0.46957 0.19341 0.0
H60 H 0.2861 0.4735 0.12186 0.0
H61 H 0.28197 0.46743 0.24104 0.0
H62 H 0.31245 0.58611 0.39196 0.0
H63 H 0.34419 0.56651 0.3791 0.0
H64 H 0.31862 0.56284 0.46833 0.0
C65 C 0.0315 0.2626 0.18366 0.0
N66 N 1.02292 0.23733 0.18015 0.0
N67 N 1.02235 0.27869 0.26598 0.0
C68 C 0.05028 0.2712 0.11075 0.0
C69 C 1.00823 0.26221 0.31248 0.0
N70 N 1.00845 0.23716 0.26009 0.0
C71 C 0.99706 0.27012 0.4135 0.0
H72 H 0.07267 0.26898 0.1309 0.0
H73 H 0.04679 0.29229 0.10957 0.0
H74 H 0.04644 0.25862 0.03791 0.0
H75 H 0.99117 0.29129 0.43054 0.0
H76 H 1.01382 0.26713 0.46481 0.0
H77 H 0.97843 0.25769 0.42333 0.0
C78 C 0.25434 0.9873 0.23279 0.0
N79 N 0.27814 0.97288 0.2064 0.0
N80 N 0.23532 0.97371 0.27723 0.0
C81 C 0.24969 0.01445 0.21518 0.0
C82 C 0.24878 0.95078 0.27777 0.0
N83 N 0.27446 0.95024 0.23514 0.0
C84 C 0.23791 0.92984 0.32874 0.0
H85 H 0.22675 0.01839 0.21139 0.0
H86 H 0.2602 0.01672 0.14749 0.0
H87 H 0.25917 0.02924 0.27576 0.0
H88 H 0.22067 0.9183 0.28512 0.0
H89 H 0.22914 0.93922 0.40018 0.0
H90 H 0.25442 0.91567 0.33863 0.0
C91 C 0.52975 0.21641 0.43368 0.0
N92 N 0.53306 0.24281 0.44035 0.0
N93 N 0.53665 0.20988 0.51878 0.0
C94 C 0.52049 0.1971 0.34394 0.0
C95 C 0.54394 0.23348 0.57718 0.0
N96 N 0.542 0.25329 0.52919 0.0
C97 C 0.55045 0.23752 0.68321 0.0
H98 H 0.4971 0.19502 0.34417 0.0
H99 H 0.52976 0.17738 0.34128 0.0
H100 H 0.52669 0.20435 0.27866 0.0
H101 H 0.57339 0.23457 0.69264 0.0
H102 H 0.53852 0.22302 0.71574 0.0
H103 H 0.54528 0.25786 0.7221 0.0
Tb104 Tb 1.00143 -0.00265 0.75551 0.0
Tb105 Tb 0.04617 0.99173 0.92493 0.0
C106 C 0.9793 0.99256 0.9608 0.0
C107 C 0.97048 0.02643 0.56885 0.0
C108 C 0.97302 0.06919 0.47533 0.0
C109 C 0.94761 0.05471 0.47638 0.0
C110 C 0.94636 0.03347 0.52323 0.0
C111 C 0.99574 0.0409 0.56817 0.0
C112 C 0.99701 0.06202 0.52196 0.0
C113 C 0.96917 0.00538 0.6234 0.0
O114 O 1.00711 0.03637 0.84723 0.0
O115 O 0.05133 0.0325 0.90778 0.0
O116 O 0.06948 0.98257 0.78839 0.0
O117 O 0.04344 0.00693 0.70451 0.0
O118 O 0.06114 0.00432 0.06738 0.0
O119 O 0.08164 0.97307 0.96759 0.0
O120 O 1.0254 0.95311 0.88469 0.0
O121 O 1.00927 0.95519 0.73358 0.0
O122 O 0.9748 0.98622 0.86695 0.0
O123 O 1.00485 -0.0007 0.99622 0.0
C124 C 0.03061 0.04715 0.88784 0.0
O125 O 0.99003 0.9888 0.60889 0.0
O126 O 0.96395 0.01347 0.71495 0.0
C127 C 0.06682 0.99447 0.71584 0.0
C128 C 0.07639 0.96752 0.1251 0.0
C129 C 0.07153 0.92747 0.23113 0.0
C130 C 0.09772 0.94032 0.22495 0.0
C131 C 0.10013 0.96021 0.17206 0.0
C132 C 0.05007 0.95547 0.1342 0.0
C133 C 0.04765 0.93569 0.18666 0.0
C134 C 0.07929 0.98522 0.05748 0.0
C135 C 1.01558 0.94164 0.79902 0.0
H136 H 0.92876 0.05979 0.44124 0.0
H137 H 0.92656 0.0228 0.52512 0.0
H138 H 1.01442 0.0362 0.60506 0.0
H139 H 1.01669 0.07318 0.52512 0.0
H140 H 0.11644 0.93458 0.25902 0.0
H141 H 0.12066 0.96921 0.16518 0.0
H142 H 0.03157 0.9606 0.0973 0.0
H143 H 0.02727 0.92594 0.18812 0.0
Tb144 Tb 0.51489 0.98242 0.73909 0.0
Tb145 Tb 0.53214 0.01662 0.95154 0.0
C146 C 0.52725 0.95449 0.91085 0.0
C147 C 0.48902 0.93245 0.52098 0.0
C148 C 0.44843 0.89512 0.43028 0.0
C149 C 0.45723 0.89562 0.52575 0.0
C150 C 0.47709 0.91453 0.57144 0.0
C151 C 0.48342 0.92954 0.42256 0.0
C152 C 0.46335 0.91101 0.37732 0.0
C153 C 0.50438 0.9562 0.57072 0.0
O154 O 0.47737 0.97866 0.82704 0.0
O155 O 0.48555 0.01603 0.94409 0.0
O156 O 0.53696 0.04427 0.85677 0.0
O157 O 0.50635 0.02387 0.73775 0.0
O158 O 0.55194 0.01898 0.08553 0.0
O159 O 0.52625 0.05099 0.0588 0.0
O160 O 0.57346 0.00646 0.87888 0.0
O161 O 0.55715 -0.00181 0.72289 0.0
O162 O 0.53024 0.9535 0.81818 0.0
O163 O 0.52249 0.97691 0.97137 0.0
C164 C 0.46855 0.99651 0.90165 0.0
O165 O 0.48878 0.97542 0.61649 0.0
O166 O 0.52659 0.95274 0.62065 0.0
C167 C 0.52153 0.04467 0.78012 0.0
C168 C 0.5617 0.06137 0.1806 0.0
C169 C 0.60364 0.09285 0.29376 0.0
C170 C 0.59518 0.09822 0.20458 0.0
C171 C 0.57452 0.08241 0.14789 0.0
C172 C 0.56831 0.05741 0.2725 0.0
C173 C 0.58907 0.07288 0.32845 0.0
C174 C 0.54211 0.04248 0.12073 0.0
C175 C 0.57825 0.00275 0.78491 0.0
H176 H 0.44699 0.88307 0.56788 0.0
H177 H 0.48168 0.91629 0.64743 0.0
H178 H 0.49285 0.94306 0.38241 0.0
H179 H 0.45754 0.91142 0.30387 0.0
H180 H 0.60549 0.11376 0.17631 0.0
H181 H 0.56935 0.08602 0.07748 0.0
H182 H 0.55832 0.04141 0.29926 0.0
H183 H 0.59503 0.0677 0.39565 0.0
Tb184 Tb 0.50648 0.48771 0.91642 0.0
Tb185 Tb 0.54779 0.50888 0.76005 0.0
C186 C 0.48116 0.49887 0.72239 0.0
C187 C 0.4841 0.4416 0.06772 0.0
C188 C 0.49315 0.3938 0.13011 0.0
C189 C 0.47133 0.41101 0.16996 0.0
C190 C 0.46689 0.43467 0.1391 0.0
C191 C 0.50579 0.42451 0.02744 0.0
C192 C 0.51026 0.40091 0.0582 0.0
C193 C 0.47944 0.46648 0.0348 0.0
O194 O 0.51466 0.45512 0.79711 0.0
O195 O 0.55774 0.46705 0.74423 0.0
O196 O 0.57178 0.51381 0.89553 0.0
O197 O 0.55028 0.48081 0.95397 0.0
O198 O 0.56157 0.50857 0.61849 0.0
O199 O 0.57936 0.53614 0.74023 0.0
O200 O 0.51972 0.54071 0.81963 0.0
O201 O 0.50851 0.53073 0.96523 0.0
O202 O 0.47669 0.49959 0.81493 0.0
O203 O 0.50701 0.49811 0.68658 0.0
C204 C 0.53841 0.449 0.75099 0.0
O205 O 0.47255 0.46371 0.94426 0.0
O206 O 0.49873 0.48494 0.06011 0.0
C207 C 0.57164 0.49739 0.95459 0.0
C208 C 0.57332 0.55186 0.59831 0.0
C209 C 0.56707 0.59742 0.51945 0.0
C210 C 0.59262 0.5834 0.50942 0.0
C211 C 0.5957 0.56092 0.54865 0.0
C212 C 0.54763 0.56543 0.60722 0.0
C213 C 0.54454 0.58797 0.5683 0.0
C214 C 0.57761 0.52957 0.64658 0.0
C215 C 0.51073 0.54773 0.9086 0.0
H216 H 0.45797 0.40644 0.22628 0.0
H217 H 0.45007 0.44759 0.17126 0.0
H218 H 0.51927 0.42942 0.9719 0.0
H219 H 0.52698 0.38808 0.02475 0.0
H220 H 0.61055 0.59018 0.47341 0.0
H221 H 0.61579 0.55089 0.54176 0.0
H222 H 0.53008 0.5588 0.64543 0.0
H223 H 0.52442 0.59793 0.5763 0.0
Tb224 Tb 0.03459 0.51704 0.75849 0.0
Tb225 Tb 1.02058 0.47626 0.89725 0.0
C226 C 1.02231 0.53731 0.97804 0.0
C227 C 0.06302 0.56604 0.6159 0.0
C228 C 0.10629 0.59775 0.56113 0.0
C229 C 0.09806 0.60139 0.65858 0.0
C230 C 0.07678 0.58542 0.68595 0.0
C231 C 0.06929 0.56406 0.51839 0.0
C232 C 0.09072 0.57963 0.49113 0.0
C233 C 0.04311 0.5466 0.64088 0.0
O234 O 0.07696 0.50908 0.81409 0.0
O235 O 0.06313 0.49049 0.9409 0.0
O236 O 0.04597 0.45751 0.77494 0.0
O237 O 1.02486 0.47803 0.6706 0.0
O238 O 1.01628 0.46551 0.03146 0.0
O239 O 1.01424 0.43621 0.89797 0.0
O240 O 0.98062 0.47775 0.81825 0.0
O241 O 0.98844 0.51708 0.77171 0.0
O242 O 0.03829 0.53982 0.9049 0.0
O243 O 1.00792 0.51531 0.9784 0.0
C244 C 0.08289 0.50064 0.8939 0.0
O245 O 0.05229 0.52245 0.62878 0.0
O246 O 0.02842 0.55353 0.71979 0.0
C247 C 0.03732 0.45717 0.68741 0.0
C248 C 0.99039 0.42615 0.03046 0.0
C249 C 0.94768 0.40014 0.11338 0.0
C250 C 0.97604 0.39877 0.14145 0.0
C251 C 0.99726 0.41168 0.10004 0.0
C252 C 0.96238 0.42659 0.9989 0.0
C253 C 0.94118 0.41362 0.03989 0.0
C254 C 1.01281 0.4405 0.99162 0.0
C255 C 0.97133 0.49756 0.78205 0.0
H256 H 0.10903 0.61557 0.71437 0.0
H257 H 0.0719 0.58752 0.76175 0.0
H258 H 0.0586 0.54938 0.46329 0.0
H259 H 0.09635 0.57579 0.41559 0.0
H260 H 0.98163 0.3886 0.19797 0.0
H261 H 1.01894 0.41096 0.12416 0.0
H262 H 0.95683 0.43758 0.94473 0.0
H263 H 0.91947 0.41556 0.01814 0.0
H264 H 0.22379 0.01812 0.4149 0.0
H265 H 0.09714 0.95111 0.63101 0.0
H266 H 0.18532 0.94661 0.25044 0.0
H267 H 0.09042 0.0344 0.63763 0.0
H268 H 0.13591 0.94855 0.51408 0.0
H269 H 0.18096 0.02534 0.5168 0.0
C270 C 0.20617 0.00426 0.39882 0.0
C271 C 0.20839 0.98155 0.32429 0.0
C272 C 0.12597 0.9674 0.54121 0.0
C273 C 0.15991 0.98904 0.44338 0.0
C274 C 0.10391 0.9689 0.60825 0.0
C275 C 0.0904 0.99299 0.64429 0.0
C276 C 0.13555 0.99033 0.51215 0.0
C277 C 0.10011 0.01539 0.6115 0.0
C278 C 0.18184 0.00825 0.45755 0.0
C279 C 0.1849 0.96405 0.30816 0.0
N280 N 0.12235 0.01364 0.54863 0.0
N281 N 0.1621 0.9678 0.36818 0.0
H282 H 0.57805 0.18709 0.60243 0.0
H283 H 0.48704 0.05766 0.64047 0.0
H284 H 0.49259 0.17453 0.4953 0.0
H285 H 0.55955 0.08608 0.82022 0.0
H286 H 0.49107 0.09676 0.5686 0.0
H287 H 0.57443 0.14615 0.66249 0.0
C288 C 0.55856 0.17557 0.59126 0.0
C289 C 0.53553 0.18429 0.54458 0.0
C290 C 0.50603 0.0944 0.62391 0.0
C291 C 0.53115 0.13725 0.6126 0.0
C292 C 0.50376 0.07209 0.66503 0.0
C293 C 0.52286 0.06856 0.73716 0.0
C294 C 0.52785 0.11315 0.65392 0.0
C295 C 0.54416 0.08795 0.7656 0.0
C296 C 0.55646 0.15224 0.62555 0.0
C297 C 0.51088 0.1684 0.53036 0.0
N298 N 0.54613 0.10924 0.72375 0.0
N299 N 0.50928 0.14568 0.56451 0.0
H300 H 0.31305 0.50131 0.46168 0.0
H301 H 0.48228 0.50223 0.53132 0.0
H302 H 0.37178 0.51787 0.25088 0.0
H303 H 0.4236 0.49644 0.75861 0.0
H304 H 0.44237 0.50338 0.42261 0.0
H305 H 0.35306 0.49408 0.56407 0.0
C306 C 0.33445 0.50254 0.43576 0.0
C307 C 0.33915 0.50949 0.34665 0.0
C308 C 0.43815 0.5018 0.49614 0.0
C309 C 0.38526 0.5022 0.46476 0.0
C310 C 0.46103 0.50112 0.55873 0.0
C311 C 0.45657 0.4993 0.65524 0.0
C312 C 0.41025 0.50053 0.52924 0.0
C313 C 0.4283 0.49795 0.68537 0.0
C314 C 0.35731 0.49881 0.49468 0.0
C315 C 0.36729 0.51188 0.31791 0.0
N316 N 0.40635 0.4986 0.62292 0.0
N317 N 0.38921 0.50833 0.37663 0.0
H318 H 0.06383 0.29523 0.39466 0.0
H319 H 1.01178 0.4455 0.50874 0.0
H320 H 0.99793 0.3228 0.23354 0.0
H321 H 0.0671 0.41269 0.69367 0.0
H322 H 1.01211 0.40309 0.39143 0.0
H323 H 0.07154 0.34059 0.48756 0.0
C324 C 0.05152 0.31114 0.37768 0.0
C325 C 0.03048 0.30564 0.30649 0.0
C326 C 1.02436 0.40529 0.45732 0.0
C327 C 0.03841 0.35729 0.41331 0.0
C328 C 1.02425 0.4295 0.52423 0.0
C329 C 0.03927 0.4326 0.61159 0.0
C330 C 0.03978 0.38409 0.47765 0.0
C331 C 0.05502 0.41117 0.62775 0.0
C332 C 0.05567 0.33692 0.43093 0.0
C333 C 1.01456 0.32657 0.2875 0.0
N334 N 0.05476 0.38786 0.56175 0.0
N335 N 1.01867 0.35153 0.34122 0.0
H336 H 0.86975 0.01766 0.46814 0.0
H337 H 0.92303 0.97995 0.9172 0.0
H338 H 0.81356 0.99101 0.2274 0.0
H339 H 0.97921 0.00519 0.16056 0.0
H340 H 0.88328 0.98136 0.02881 0.0
H341 H 0.91033 0.00985 0.35734 0.0
C342 C 0.86608 0.00941 0.39223 0.0
C343 C 0.83829 0.00435 0.35726 0.0
C344 C 0.9043 0.98649 0.05796 0.0
C345 C 0.88467 0.99644 0.2289 0.0
C346 C 0.92714 0.98572 0.99401 0.0
C347 C 0.9548 0.99253 0.0287 0.0
C348 C 0.90884 0.99419 0.15822 0.0
C349 C 0.95844 -0.0002 0.12963 0.0
C350 C 0.8892 0.0053 0.3288 0.0
C351 C 0.83467 0.99454 0.25755 0.0
N352 N 0.93586 0.00052 0.19026 0.0
N353 N 0.85745 0.9911 0.19702 0.0
H354 H 0.5409 0.79129 0.96971 0.0
H355 H 0.51809 0.94837 0.09618 0.0
H356 H 0.51367 0.83377 0.24851 0.0
H357 H 0.53848 0.90383 0.81162 0.0
H358 H 0.51887 0.90745 0.15605 0.0
H359 H 0.54301 0.8329 0.91395 0.0
C360 C 0.5354 0.8095 0.01913 0.0
C361 C 0.52684 0.80914 0.11342 0.0
C362 C 0.52326 0.90662 0.08059 0.0
C363 C 0.52931 0.85703 0.0506 0.0
C364 C 0.52284 0.93003 0.04612 0.0
C365 C 0.52823 0.92968 0.94834 0.0
C366 C 0.52922 0.88253 0.01714 0.0
C367 C 0.53418 0.90519 0.8874 0.0
C368 C 0.53663 0.83327 0.98746 0.0
C369 C 0.52042 0.83329 0.17536 0.0
N370 N 0.53451 0.88269 0.92274 0.0
N371 N 0.52164 0.85626 0.14277 0.0
H372 H 0.69022 0.45785 0.37296 0.0
H373 H 0.61975 0.52935 0.98099 0.0
H374 H 0.73016 0.52319 0.28007 0.0
H375 H 0.57946 0.46578 0.08613 0.0
H376 H 0.65918 0.52899 0.09356 0.0
H377 H 0.64826 0.46258 0.27613 0.0
C378 C 0.68975 0.47369 0.33401 0.0
C379 C 0.71347 0.49045 0.33602 0.0
C380 C 0.64169 0.51516 0.09223 0.0
C381 C 0.66575 0.49553 0.2213 0.0
C382 C 0.6191 0.51529 0.02755 0.0
C383 C 0.59605 0.49748 0.02304 0.0
C384 C 0.6415 0.49706 0.15348 0.0
C385 C 0.59663 0.47985 0.08611 0.0
C386 C 0.66592 0.47623 0.27776 0.0
C387 C 0.7121 0.51022 0.28204 0.0
N388 N 0.61887 0.48006 0.14799 0.0
N389 N 0.68882 0.51208 0.2264 0.0
H390 H 0.07026 0.68238 0.36595 0.0
H391 H 0.97887 0.55498 0.10494 0.0
H392 H 0.97936 0.68014 0.37681 0.0
H393 H 0.06595 0.57072 0.04312 0.0
H394 H 0.97935 0.59581 0.23265 0.0
H395 H 0.06982 0.63609 0.27868 0.0
C396 C 0.05024 0.67182 0.35113 0.0
C397 C 1.02484 0.68489 0.37752 0.0
C398 C 0.99838 0.59006 0.19164 0.0
C399 C 1.02391 0.6322 0.27614 0.0
C400 C 0.99814 0.56678 0.11925 0.0
C401 C 1.02228 0.55972 0.0627 0.0
C402 C 1.02311 0.60593 0.20821 0.0
C403 C 0.04672 0.57566 0.08394 0.0
C404 C 0.04991 0.64551 0.30101 0.0
C405 C 0.99933 0.67053 0.35739 0.0
N406 N 0.04646 0.59795 0.15451 0.0
N407 N 0.99944 0.64496 0.30656 0.0
H408 H 0.04565 0.20403 0.30967 0.0
H409 H 0.93382 0.10827 0.47905 0.0
H410 H 0.95651 0.21712 0.28658 0.0
H411 H 1.0163 0.08324 0.36842 0.0
H412 H 0.94069 0.14957 0.42257 0.0
H413 H 0.03509 0.1615 0.35184 0.0
C414 C 1.02382 0.19778 0.31406 0.0
C415 C 1.00187 0.21364 0.29439 0.0
C416 C 0.95708 0.13484 0.41004 0.0
C417 C 0.98946 0.16544 0.34307 0.0
C418 C 0.95314 0.11123 0.44163 0.0
C419 C 0.97474 0.09246 0.42994 0.0
C420 C 0.98288 0.1397 0.36773 0.0
C421 C 0.99941 0.09744 0.38144 0.0
C422 C 1.01776 0.17359 0.33757 0.0
C423 C 0.97385 0.20519 0.30184 0.0
N424 N 1.00294 0.1207 0.35333 0.0
N425 N 0.96833 0.18154 0.32604 0.0
H426 H 0.29889 0.90889 0.11278 0.0
H427 H 0.40093 0.89201 0.53868 0.0
H428 H 0.30053 0.9548 0.40405 0.0
H429 H 0.42949 0.87471 0.24281 0.0
H430 H 0.35326 0.8955 0.48255 0.0
H431 H 0.33794 0.88187 0.15431 0.0
C432 C 0.30762 0.91322 0.1851 0.0
C433 C 0.29729 0.93425 0.25506 0.0
C434 C 0.36988 0.8903 0.4297 0.0
C435 C 0.33994 0.90296 0.30397 0.0
C436 C 0.39732 0.88789 0.46156 0.0
C437 C 0.41985 0.88461 0.39573 0.0
C438 C 0.36498 0.8897 0.33187 0.0
C439 C 0.41304 0.87892 0.29664 0.0
C440 C 0.32942 0.89769 0.20899 0.0
C441 C 0.30842 0.93887 0.34847 0.0
N442 N 0.38627 0.88269 0.26749 0.0
N443 N 0.3291 0.92333 0.37032 0.0
H444 H 0.49734 0.28454 0.56665 0.0
H445 H 0.58749 0.41979 0.72109 0.0
H446 H 0.58821 0.28504 0.57814 0.0
H447 H 0.49699 0.41398 0.67966 0.0
H448 H 0.58992 0.37116 0.66823 0.0
H449 H 0.49791 0.33275 0.61356 0.0
C450 C 0.5174 0.29507 0.5808 0.0
C451 C 0.54269 0.28121 0.56976 0.0
C452 C 0.56963 0.38068 0.67008 0.0
C453 C 0.54393 0.33633 0.62168 0.0
C454 C 0.5683 0.40836 0.69929 0.0
C455 C 0.54199 0.42082 0.70538 0.0
C456 C 0.54447 0.36571 0.64694 0.0
C457 C 0.51769 0.40518 0.67727 0.0
C458 C 0.51787 0.32253 0.60669 0.0
C459 C 0.56834 0.29537 0.58741 0.0
N460 N 0.51953 0.37857 0.64995 0.0
N461 N 0.56838 0.32233 0.61244 0.0
H462 H 0.24771 0.57815 0.19682 0.0
H463 H 0.15503 0.60711 0.66972 0.0
H464 H 0.26606 0.55735 0.46835 0.0
H465 H 0.12175 0.61196 0.39015 0.0
H466 H 0.20236 0.60732 0.60657 0.0
H467 H 0.20762 0.60462 0.27335 0.0
C468 C 0.24352 0.5795 0.27259 0.0
C469 C 0.25992 0.56547 0.32644 0.0
C470 C 0.18472 0.60881 0.55924 0.0
C471 C 0.21529 0.5961 0.41457 0.0
C472 C 0.15744 0.60907 0.59576 0.0
C473 C 0.13401 0.60812 0.53404 0.0
C474 C 0.18864 0.60692 0.46 0.0
C475 C 0.13911 0.61107 0.4391 0.0
C476 C 0.22097 0.59478 0.31639 0.0
C477 C 0.25414 0.56817 0.42477 0.0
N478 N 0.1659 0.60934 0.40376 0.0
N479 N 0.23228 0.58302 0.46538 0.0
H480 H 0.99539 0.79326 0.39508 0.0
H481 H 0.10907 0.88691 0.22124 0.0
H482 H 0.08384 0.77458 0.38206 0.0
H483 H 0.02834 0.91434 0.34179 0.0
H484 H 0.101 0.8453 0.27347 0.0
H485 H 1.00693 0.83693 0.36426 0.0
C486 C 1.01729 0.7986 0.38619 0.0
C487 C 0.03878 0.78078 0.3925 0.0
C488 C 0.08524 0.86059 0.28936 0.0
C489 C 0.05225 0.83021 0.35495 0.0
C490 C 0.0899 0.88444 0.26028 0.0
C491 C 0.06916 0.90407 0.27593 0.0
C492 C 0.05955 0.85625 0.33336 0.0
C493 C 0.04461 0.89955 0.32598 0.0
C494 C 1.02391 0.82341 0.36855 0.0
C495 C 0.06681 0.78802 0.37754 0.0
N496 N 0.04034 0.87602 0.35174 0.0
N497 N 0.07282 0.81226 0.35906 0.0
H498 H 0.76888 0.06159 0.31464 0.0
H499 H 0.61794 0.10452 0.48819 0.0
H500 H 0.74272 0.06737 0.60901 0.0
H501 H 0.65211 0.10564 0.20689 0.0
H502 H 0.66614 0.10392 0.55015 0.0
H503 H 0.73085 0.09026 0.2912 0.0
C504 C 0.75555 0.06959 0.37547 0.0
C505 C 0.75895 0.06207 0.46388 0.0
C506 C 0.66303 0.10513 0.47561 0.0
C507 C 0.71371 0.09364 0.43559 0.0
C508 C 0.63548 0.10534 0.43988 0.0
C509 C 0.63079 0.10364 0.3407 0.0
C510 C 0.68587 0.10344 0.41167 0.0
C511 C 0.65434 0.10623 0.28317 0.0
C512 C 0.73352 0.08583 0.36184 0.0
C513 C 0.74045 0.07241 0.53927 0.0
N514 N 0.6808 0.10531 0.31895 0.0
N515 N 0.71807 0.08715 0.52271 0.0
H516 H 0.52179 0.71377 0.95655 0.0
H517 H 0.50039 0.57482 0.09523 0.0
H518 H 0.4868 0.70767 0.23095 0.0
H519 H 0.50497 0.58507 0.80141 0.0
H520 H 0.49471 0.6229 0.14957 0.0
H521 H 0.51496 0.66617 0.89898 0.0
C522 C 0.51197 0.70241 1.00372 0.0
C523 C 0.50473 0.71453 0.09823 0.0
C524 C 0.49655 0.61444 0.07316 0.0
C525 C 0.49789 0.65988 0.03478 0.0
C526 C 0.4998 0.58705 0.04217 0.0
C527 C 0.50361 0.57591 0.94381 0.0
C528 C 0.49731 0.63062 1.0052 0.0
C529 C 0.50263 0.59271 0.87815 0.0
C530 C 0.50832 0.6752 0.9714 0.0
C531 C 0.49284 0.69885 0.15776 0.0
N532 N 0.49991 0.61916 0.91011 0.0
N533 N 0.49017 0.67218 0.12563 0.0
H534 H 0.7795 0.40793 0.36036 0.0
H535 H 0.94459 0.40959 0.30919 0.0
H536 H 0.83223 0.47666 0.36192 0.0
H537 H 0.8975 0.3743 0.05159 0.0
H538 H 0.90061 0.4144 0.39978 0.0
H539 H 0.82094 0.37954 0.30897 0.0
C540 C 0.79985 0.41694 0.35135 0.0
C541 C 0.80283 0.44457 0.36655 0.0
C542 C 0.90018 0.40433 0.32445 0.0
C543 C 0.84956 0.4129 0.31392 0.0
C544 C 0.92526 0.40154 0.27246 0.0
C545 C 0.92447 0.39244 0.17195 0.0
C546 C 0.87443 0.39795 0.27543 0.0
C547 C 0.89874 0.38229 0.12854 0.0
C548 C 0.82327 0.40089 0.32328 0.0
C549 C 0.82938 0.45553 0.3539 0.0
N550 N 0.87441 0.38614 0.18009 0.0
N551 N 0.85178 0.43968 0.32892 0.0
H552 H 0.07266 0.21181 0.14668 0.0
H553 H 0.9935 0.08251 0.84225 0.0
H554 H 0.98537 0.20844 0.05913 0.0
H555 H 0.07274 0.07905 0.9906 0.0
H556 H 0.99496 0.13047 0.89258 0.0
H557 H 0.07783 0.16538 0.06008 0.0
C558 C 0.05497 0.20153 0.1057 0.0
C559 C 0.02866 0.21381 0.1083 0.0
C560 C 1.01214 0.1193 0.91388 0.0
C561 C 0.03404 0.16097 0.01169 0.0
C562 C 1.01132 0.09179 0.88528 0.0
C563 C 0.03284 0.07654 0.91339 0.0
C564 C 0.03464 0.13194 0.97123 0.0
C565 C 0.05557 0.08995 0.96792 0.0
C566 C 0.05774 0.17501 0.05775 0.0
C567 C 1.00604 0.19961 0.05711 0.0
N568 N 0.05577 0.11689 0.99574 0.0
N569 N 1.00916 0.17393 0.01147 0.0
H570 H 0.31594 0.01381 0.26647 0.0
H571 H 0.4262 0.95923 0.83628 0.0
H572 H 0.299 0.94662 0.03573 0.0
H573 H 0.4432 0.02853 0.05985 0.0
H574 H 0.37936 0.95513 0.90638 0.0
H575 H 0.36165 0.0208 0.19044 0.0
C576 C 0.32166 0.00078 0.19909 0.0
C577 C 0.30353 0.97959 0.15741 0.0
C578 C 0.39324 0.97133 0.94009 0.0
C579 C 0.35626 0.98709 0.07019 0.0
C580 C 0.42016 0.97371 0.89978 0.0
C581 C 0.43908 0.99432 0.94144 0.0
C582 C 0.38476 0.9896 0.02355 0.0
C583 C 0.42961 0.01232 0.02438 0.0
C584 C 0.34789 0.0046 0.15591 0.0
C585 C 0.31235 0.96305 0.07073 0.0
N586 N 0.40339 0.00951 0.06243 0.0
N587 N 0.33789 0.96704 0.03054 0.0
H588 H 0.57147 0.26984 0.35977 0.0
H589 H 0.45416 0.35866 0.17927 0.0
H590 H 0.48236 0.25281 0.36722 0.0
H591 H 0.54414 0.37172 0.15951 0.0
H592 H 0.46356 0.31855 0.23901 0.0
H593 H 0.56169 0.30492 0.27307 0.0
C594 C 0.54987 0.27304 0.34001 0.0
C595 C 0.52773 0.25824 0.3688 0.0
C596 C 0.48124 0.33011 0.22099 0.0
C597 C 0.51602 0.29901 0.27294 0.0
C598 C 0.4759 0.35318 0.18753 0.0
C599 C 0.49837 0.36881 0.16431 0.0
C600 C 0.50928 0.32253 0.23193 0.0
C601 C 0.52607 0.36029 0.1752 0.0
C602 C 0.54419 0.29324 0.29164 0.0
C603 C 0.49998 0.2635 0.34423 0.0
N604 N 0.53069 0.33792 0.20852 0.0
N605 N 0.49485 0.28368 0.29865 0.0
H606 H 0.26153 0.53742 0.05932 0.0
H607 H 0.10133 0.48172 0.04908 0.0
H608 H 0.22764 0.49647 0.26819 0.0
H609 H 0.1323 0.52425 0.8389 0.0
H610 H 0.14785 0.4857 0.12426 0.0
H611 H 0.21575 0.53144 0.97292 0.0
C612 C 0.24446 0.52683 0.08606 0.0
C613 C 0.24841 0.51726 0.17057 0.0
C614 C 0.14467 0.49416 0.06164 0.0
C615 C 0.19566 0.51048 0.0727 0.0
C616 C 0.11787 0.49192 0.01805 0.0
C617 C 0.11239 0.50269 0.93665 0.0
C618 C 0.16682 0.50734 0.0247 0.0
C619 C 0.13522 0.51556 0.90106 0.0
C620 C 0.21829 0.52353 0.03709 0.0
C621 C 0.22557 0.50392 0.20291 0.0
N622 N 0.16129 0.51756 0.94526 0.0
N623 N 0.20028 0.50102 0.15432 0.0
H624 H 0.05823 0.77935 0.62663 0.0
H625 H 0.98046 0.912 0.66281 0.0
H626 H 0.97073 0.77971 0.54461 0.0
H627 H 0.04267 0.9048 0.87826 0.0
H628 H 0.97738 0.86367 0.61454 0.0
H629 H 0.05396 0.82483 0.72104 0.0
C630 C 0.03781 0.78876 0.63223 0.0
C631 C 1.0147 0.77593 0.57928 0.0
C632 C 0.99138 0.87268 0.67336 0.0
C633 C 1.00993 0.82811 0.68196 0.0
C634 C 0.99332 0.90025 0.70044 0.0
C635 C 1.01197 0.91246 0.77431 0.0
C636 C 1.00869 0.85717 0.71884 0.0
C637 C 0.02801 0.89622 0.82094 0.0
C638 C 0.03542 0.81472 0.68497 0.0
C639 C 0.98883 0.78901 0.5859 0.0
N640 N 0.02638 0.8694 0.79129 0.0
N641 N 0.98728 0.8147 0.63416 0.0
H642 H 0.76196 0.01088 0.66842 0.0
H643 H 0.5925 0.00261 0.5978 0.0
H644 H 0.71932 0.01273 0.40232 0.0
H645 H 0.63163 0.00681 0.87566 0.0
H646 H 0.63898 0.0044 0.52664 0.0
H647 H 0.71563 0.00686 0.74499 0.0
C648 C 0.74282 0.00989 0.62569 0.0
C649 C 0.74455 0.01175 0.52842 0.0
C650 C 0.63762 0.00492 0.60318 0.0
C651 C 0.69118 0.00769 0.61601 0.0
C652 C 0.61083 0.00388 0.64456 0.0
C653 C 0.60763 0.0045 0.74387 0.0
C654 C 0.66214 0.00649 0.66035 0.0
C655 C 0.63272 0.0063 0.79912 0.0
C656 C 0.71634 0.00786 0.66962 0.0
C657 C 0.71902 0.01098 0.47694 0.0
N658 N 0.65877 0.00717 0.75676 0.0
N659 N 0.6936 0.00908 0.52113 0.0
H660 H 0.56762 0.71118 0.14937 0.0
H661 H 0.5397 0.64357 0.59995 0.0
H662 H 0.51874 0.74755 0.3961 0.0
H663 H 0.58771 0.60742 0.34902 0.0
H664 H 0.53456 0.68307 0.53299 0.0
H665 H 0.57922 0.67505 0.22927 0.0
C666 C 0.56006 0.71182 0.22183 0.0
C667 C 0.54246 0.73232 0.26688 0.0
C668 C 0.54632 0.66654 0.49276 0.0
C669 C 0.55485 0.6908 0.35814 0.0
C670 C 0.54908 0.64382 0.5306 0.0
C671 C 0.56407 0.6219 0.48007 0.0
C672 C 0.55856 0.66749 0.40337 0.0
C673 C 0.57621 0.6238 0.39132 0.0
C674 C 0.56637 0.69111 0.26707 0.0
C675 C 0.53267 0.73218 0.35992 0.0
N676 N 0.57309 0.64606 0.35584 0.0
N677 N 0.53874 0.71158 0.40218 0.0
H678 H 0.79843 0.45329 0.58238 0.0
H679 H 0.94489 0.53521 0.70301 0.0
H680 H 0.81499 0.52719 0.49926 0.0
H681 H 0.92813 0.46048 0.78194 0.0
H682 H 0.89656 0.5345 0.64019 0.0
H683 H 0.84376 0.45789 0.66949 0.0
C684 C 0.8113 0.47093 0.58504 0.0
C685 C 0.80266 0.48999 0.53411 0.0
C686 C 0.90333 0.51831 0.6717 0.0
C687 C 0.85543 0.49518 0.63213 0.0
C688 C 0.93109 0.51866 0.7079 0.0
C689 C 0.94103 0.49783 0.74828 0.0
C690 C 0.8849 0.49695 0.67523 0.0
C691 C 0.92173 0.47703 0.75179 0.0
C692 C 0.8374 0.47342 0.63389 0.0
C693 C 0.82049 0.51225 0.53874 0.0
N694 N 0.89484 0.47709 0.71564 0.0
N695 N 0.84606 0.51407 0.58565 0.0
loop_
_geom_bond_atom_site_label_1
_geom_bond_atom_site_label_2
_geom_bond_distance
_geom_bond_site_symmetry_2
_ccdc_geom_bond_type
C0 N1 1.317 . S
C0 N2 1.348 . S
C0 C3 1.485 . S
N1 C0 1.317 . S
N1 N5 1.370 . S
N2 C0 1.348 . S
N2 C4 1.346 . S
C3 C0 1.485 . S
C3 H7 0.960 . S
C3 H8 0.961 . S
C3 H9 0.960 . S
C4 N2 1.346 . S
C4 N5 1.307 . S
C4 C6 1.486 . S
N5 N1 1.370 . S
N5 C4 1.307 . S
C6 C4 1.486 . S
C6 H10 0.960 . S
C6 H11 0.960 . S
C6 H12 0.959 . S
H7 C3 0.960 . S
H8 C3 0.961 . S
H9 C3 0.960 . S
H10 C6 0.960 . S
H11 C6 0.960 . S
H12 C6 0.959 . S
C13 N14 1.317 . S
C13 N15 1.351 . S
C13 C16 1.485 . S
N14 C13 1.317 . S
N14 N18 1.371 . S
N15 C13 1.351 . S
N15 C17 1.346 1_655 S
C16 C13 1.485 . S
C16 H20 0.960 1_655 S
C16 H21 0.961 . S
C16 H22 0.960 . S
C17 N15 1.346 1_455 S
C17 N18 1.307 1_455 S
C17 C19 1.485 . S
N18 N14 1.371 . S
N18 C17 1.307 1_655 S
C19 C17 1.485 . S
C19 H23 0.922 1_455 S
C19 H24 0.992 . S
C19 H25 0.967 . S
H20 C16 0.960 1_455 S
H21 C16 0.961 . S
H22 C16 0.960 . S
H23 C19 0.922 1_655 S
H24 C19 0.992 . S
H25 C19 0.967 . S
C26 N27 1.317 . S
C26 N28 1.358 . S
C26 C29 1.485 . S
N27 C26 1.317 . S
N27 N31 1.374 . S
N28 C26 1.358 . S
N28 C30 1.339 1_565 S
C29 C26 1.485 . S
C29 H33 0.960 1_565 S
C29 H34 0.961 . S
C29 H35 0.960 . S
C30 N28 1.339 1_545 S
C30 N31 1.305 1_545 S
C30 C32 1.476 . S
N31 N27 1.374 . S
N31 C30 1.305 1_565 S
C32 C30 1.476 . S
C32 H36 0.925 1_545 S
C32 H37 0.994 . S
C32 H38 0.972 . S
H33 C29 0.960 1_545 S
H34 C29 0.961 . S
H35 C29 0.960 . S
H36 C32 0.925 1_565 S
H37 C32 0.994 . S
H38 C32 0.972 . S
C39 N40 1.317 . S
C39 N41 1.348 1_554 S
C39 C42 1.485 . S
N40 C39 1.317 . S
N40 N44 1.370 1_554 S
N41 C39 1.348 1_556 S
N41 C43 1.346 . S
C42 C39 1.485 . S
C42 H46 0.960 . S
C42 H47 0.961 . S
C42 H48 0.960 . S
C43 N41 1.346 . S
C43 N44 1.307 . S
C43 C45 1.486 . S
N44 N40 1.370 1_556 S
N44 C43 1.307 . S
C45 C43 1.486 . S
C45 H49 0.960 . S
C45 H50 0.960 . S
C45 H51 0.959 . S
H46 C42 0.960 . S
H47 C42 0.961 . S
H48 C42 0.960 . S
H49 C45 0.960 . S
H50 C45 0.960 . S
H51 C45 0.959 . S
C52 N53 1.317 . S
C52 N54 1.348 . S
C52 C55 1.485 . S
N53 C52 1.317 . S
N53 N57 1.370 . S
N54 C52 1.348 . S
N54 C56 1.346 . S
C55 C52 1.485 . S
C55 H59 0.960 1_554 S
C55 H60 0.961 . S
C55 H61 0.960 1_554 S
C56 N54 1.346 . S
C56 N57 1.307 . S
C56 C58 1.486 . S
N57 N53 1.370 . S
N57 C56 1.307 . S
C58 C56 1.486 . S
C58 H62 0.960 . S
C58 H63 0.960 . S
C58 H64 0.959 . S
H59 C55 0.960 1_556 S
H60 C55 0.961 . S
H61 C55 0.960 1_556 S
H62 C58 0.960 . S
H63 C58 0.960 . S
H64 C58 0.959 . S
C65 N66 1.317 . S
C65 N67 1.349 . S
C65 C68 1.485 . S
N66 C65 1.317 . S
N66 N70 1.370 . S
N67 C65 1.349 . S
N67 C69 1.345 1_655 S
C68 C65 1.485 . S
C68 H72 0.960 1_655 S
C68 H73 0.961 . S
C68 H74 0.960 . S
C69 N67 1.345 1_455 S
C69 N70 1.307 1_455 S
C69 C71 1.486 . S
N70 N66 1.370 . S
N70 C69 1.307 1_655 S
C71 C69 1.486 . S
C71 H75 0.960 1_455 S
C71 H76 0.960 . S
C71 H77 0.959 . S
H72 C68 0.960 1_455 S
H73 C68 0.961 . S
H74 C68 0.960 . S
H75 C71 0.960 1_655 S
H76 C71 0.960 . S
H77 C71 0.959 . S
C78 N79 1.317 . S
C78 N80 1.344 . S
C78 C81 1.485 . S
N79 C78 1.317 . S
N79 N83 1.370 . S
N80 C78 1.344 . S
N80 C82 1.352 1_565 S
C81 C78 1.485 . S
C81 H85 0.960 1_565 S
C81 H86 0.961 . S
C81 H87 0.960 1_554 S
C82 N80 1.352 1_545 S
C82 N83 1.308 1_545 S
C82 C84 1.484 . S
N83 N79 1.370 . S
N83 C82 1.308 1_565 S
C84 C82 1.484 . S
C84 H88 0.960 1_545 S
C84 H89 0.960 . S
C84 H90 0.959 . S
H85 C81 0.960 1_545 S
H86 C81 0.961 . S
H87 C81 0.960 1_556 S
H88 C84 0.960 1_565 S
H89 C84 0.960 . S
H90 C84 0.959 . S
C91 N92 1.317 . S
C91 N93 1.348 . S
C91 C94 1.485 . S
N92 C91 1.317 . S
N92 N96 1.370 . S
N93 C91 1.348 . S
N93 C95 1.346 . S
C94 C91 1.485 . S
C94 H98 0.960 . S
C94 H99 0.961 . S
C94 H100 0.960 . S
C95 N93 1.346 . S
C95 N96 1.307 . S
C95 C97 1.486 . S
N96 N92 1.370 . S
N96 C95 1.307 . S
C97 C95 1.486 . S
C97 H101 0.960 . S
C97 H102 0.960 . S
C97 H103 0.959 . S
H98 C94 0.960 . S
H99 C94 0.961 . S
H100 C94 0.960 . S
H101 C97 0.960 . S
H102 C97 0.960 . S
H103 C97 0.959 . S
Tb104 C113 2.764 . S
Tb104 O114 2.325 . S
Tb104 O117 2.303 1_655 S
Tb104 O121 2.322 1_545 S
Tb104 O122 2.349 . S
Tb104 O125 2.415 . S
Tb104 O126 2.399 . S
Tb105 O115 2.322 1_565 S
Tb105 O116 2.349 . S
Tb105 O118 2.415 1_556 S
Tb105 O119 2.399 . S
Tb105 O120 2.325 . S
Tb105 O123 2.303 1_455 S
Tb105 C134 2.764 1_556 S
C106 O122 1.272 . S
C106 O123 1.254 1_545 S
C107 C110 1.358 . S
C107 C111 1.332 . S
C107 C113 1.504 . S
C108 C109 1.373 . S
C108 C112 1.308 . S
C109 C108 1.373 . S
C109 C110 1.429 . S
C109 H136 0.932 . S
C110 C107 1.358 . S
C110 C109 1.429 . S
C110 H137 0.930 . S
C111 C107 1.332 . S
C111 C112 1.394 . S
C111 H138 0.932 1_655 S
C112 C108 1.308 . S
C112 C111 1.394 . S
C112 H139 0.942 . S
C113 Tb104 2.764 . S
C113 C107 1.504 . S
C113 O125 1.239 . S
C113 O126 1.263 . S
O114 Tb104 2.325 . S
O114 C124 1.236 1_655 S
O115 Tb105 2.322 1_545 S
O115 C124 1.257 . S
O116 Tb105 2.349 . S
O116 C127 1.266 . S
O117 Tb104 2.303 1_455 S
O117 C127 1.255 1_545 S
O118 Tb105 2.415 1_554 S
O118 C134 1.239 . S
O119 Tb105 2.399 . S
O119 C134 1.263 1_556 S
O120 Tb105 2.325 . S
O120 C135 1.236 1_455 S
O121 Tb104 2.322 1_565 S
O121 C135 1.257 . S
O122 Tb104 2.349 . S
O122 C106 1.272 . S
O123 Tb105 2.303 1_655 S
O123 C106 1.254 1_565 S
C124 O114 1.236 1_455 S
C124 O115 1.257 . S
O125 Tb104 2.415 . S
O125 C113 1.239 . S
O126 Tb104 2.399 . S
O126 C113 1.263 . S
C127 O116 1.266 . S
C127 O117 1.255 1_565 S
C128 C131 1.358 . S
C128 C132 1.332 . S
C128 C134 1.504 . S
C129 C130 1.373 . S
C129 C133 1.308 . S
C130 C129 1.373 . S
C130 C131 1.429 . S
C130 H140 0.932 . S
C131 C128 1.358 . S
C131 C130 1.429 . S
C131 H141 0.930 . S
C132 C128 1.332 . S
C132 C133 1.394 . S
C132 H142 0.932 1_455 S
C133 C129 1.308 . S
C133 C132 1.394 . S
C133 H143 0.950 . S
C134 Tb105 2.764 1_554 S
C134 O118 1.239 . S
C134 O119 1.263 1_554 S
C134 C128 1.504 . S
C135 O120 1.236 1_655 S
C135 O121 1.257 . S
H136 C109 0.932 . S
H137 C110 0.930 . S
H138 C111 0.932 1_455 S
H139 C112 0.942 . S
H140 C130 0.932 . S
H141 C131 0.930 . S
H142 C132 0.932 1_655 S
H143 C133 0.950 . S
Tb144 C153 2.764 . S
Tb144 O154 2.325 . S
Tb144 O157 2.303 1_565 S
Tb144 O161 2.322 . S
Tb144 O162 2.349 . S
Tb144 O165 2.415 1_565 S
Tb144 O166 2.399 . S
Tb145 O155 2.322 . S
Tb145 O156 2.349 . S
Tb145 O158 2.415 1_546 S
Tb145 O159 2.399 1_556 S
Tb145 O160 2.325 . S
Tb145 O163 2.303 1_545 S
Tb145 C174 2.764 1_556 S
C146 O162 1.261 . S
C146 O163 1.257 . S
C147 C150 1.358 . S
C147 C151 1.332 1_565 S
C147 C153 1.504 . S
C148 C149 1.373 . S
C148 C152 1.308 1_565 S
C149 C148 1.373 . S
C149 C150 1.429 . S
C149 H176 0.932 . S
C150 C147 1.358 . S
C150 C149 1.429 . S
C150 H177 0.930 . S
C151 C147 1.332 1_545 S
C151 C152 1.394 . S
C151 H178 0.932 . S
C152 C148 1.308 1_545 S
C152 C151 1.394 . S
C152 H179 0.929 . S
C153 Tb144 2.764 . S
C153 C147 1.504 . S
C153 O165 1.239 1_565 S
C153 O166 1.263 . S
O154 Tb144 2.325 . S
O154 C164 1.236 1_565 S
O155 Tb145 2.322 . S
O155 C164 1.257 . S
O156 Tb145 2.349 . S
O156 C167 1.261 . S
O157 Tb144 2.303 1_545 S
O157 C167 1.257 . S
O158 Tb145 2.415 1_564 S
O158 C174 1.239 1_565 S
O159 Tb145 2.399 1_554 S
O159 C174 1.263 . S
O160 Tb145 2.325 . S
O160 C175 1.236 1_545 S
O161 Tb144 2.322 . S
O161 C175 1.257 . S
O162 Tb144 2.349 . S
O162 C146 1.261 . S
O163 Tb145 2.303 1_565 S
O163 C146 1.257 . S
C164 O154 1.236 1_545 S
C164 O155 1.257 . S
O165 Tb144 2.415 1_545 S
O165 C153 1.239 1_545 S
O166 Tb144 2.399 . S
O166 C153 1.263 . S
C167 O156 1.261 . S
C167 O157 1.257 . S
C168 C171 1.358 . S
C168 C172 1.332 1_545 S
C168 C174 1.504 . S
C169 C170 1.373 . S
C169 C173 1.308 1_545 S
C170 C169 1.373 . S
C170 C171 1.429 . S
C170 H180 0.932 . S
C171 C168 1.358 . S
C171 C170 1.429 . S
C171 H181 0.930 . S
C172 C168 1.332 1_565 S
C172 C173 1.394 . S
C172 H182 0.932 . S
C173 C169 1.308 1_565 S
C173 C172 1.394 . S
C173 H183 0.929 . S
C174 Tb145 2.764 1_554 S
C174 O158 1.239 1_545 S
C174 O159 1.263 . S
C174 C168 1.504 . S
C175 O160 1.236 1_565 S
C175 O161 1.257 . S
H176 C149 0.932 . S
H177 C150 0.930 . S
H178 C151 0.932 . S
H179 C152 0.929 . S
H180 C170 0.932 . S
H181 C171 0.930 . S
H182 C172 0.932 . S
H183 C173 0.929 . S
Tb184 C193 2.764 1_556 S
Tb184 O194 2.325 . S
Tb184 O197 2.303 . S
Tb184 O201 2.322 . S
Tb184 O202 2.349 . S
Tb184 O205 2.415 1_556 S
Tb184 O206 2.399 1_556 S
Tb185 O195 2.322 . S
Tb185 O196 2.349 . S
Tb185 O198 2.415 . S
Tb185 O199 2.399 . S
Tb185 O200 2.325 . S
Tb185 O203 2.303 . S
Tb185 C214 2.764 . S
C186 O202 1.261 . S
C186 O203 1.257 . S
C187 C190 1.358 . S
C187 C191 1.332 . S
C187 C193 1.504 . S
C188 C189 1.373 . S
C188 C192 1.308 . S
C189 C188 1.373 . S
C189 C190 1.429 . S
C189 H216 0.932 . S
C190 C187 1.358 . S
C190 C189 1.429 . S
C190 H217 0.930 . S
C191 C187 1.332 . S
C191 C192 1.394 . S
C191 H218 0.932 . S
C192 C188 1.308 . S
C192 C191 1.394 . S
C192 H219 0.929 . S
C193 Tb184 2.764 1_554 S
C193 C187 1.504 . S
C193 O205 1.239 . S
C193 O206 1.263 . S
O194 Tb184 2.325 . S
O194 C204 1.236 . S
O195 Tb185 2.322 . S
O195 C204 1.257 . S
O196 Tb185 2.349 . S
O196 C207 1.261 . S
O197 Tb184 2.303 . S
O197 C207 1.257 . S
O198 Tb185 2.415 . S
O198 C214 1.239 . S
O199 Tb185 2.399 . S
O199 C214 1.263 . S
O200 Tb185 2.325 . S
O200 C215 1.236 . S
O201 Tb184 2.322 . S
O201 C215 1.257 . S
O202 Tb184 2.349 . S
O202 C186 1.261 . S
O203 Tb185 2.303 . S
O203 C186 1.257 . S
C204 O194 1.236 . S
C204 O195 1.257 . S
O205 Tb184 2.415 1_554 S
O205 C193 1.239 . S
O206 Tb184 2.399 1_554 S
O206 C193 1.263 . S
C207 O196 1.261 . S
C207 O197 1.257 . S
C208 C211 1.358 . S
C208 C212 1.332 . S
C208 C214 1.504 . S
C209 C210 1.373 . S
C209 C213 1.308 . S
C210 C209 1.373 . S
C210 C211 1.429 . S
C210 H220 0.932 . S
C211 C208 1.358 . S
C211 C210 1.429 . S
C211 H221 0.930 . S
C212 C208 1.332 . S
C212 C213 1.394 . S
C212 H222 0.932 . S
C213 C209 1.308 . S
C213 C212 1.394 . S
C213 H223 0.929 . S
C214 Tb185 2.764 . S
C214 O198 1.239 . S
C214 O199 1.263 . S
C214 C208 1.504 . S
C215 O200 1.236 . S
C215 O201 1.257 . S
H216 C189 0.932 . S
H217 C190 0.930 . S
H218 C191 0.932 . S
H219 C192 0.929 . S
H220 C210 0.932 . S
H221 C211 0.930 . S
H222 C212 0.932 . S
H223 C213 0.929 . S
Tb224 C233 2.764 . S
Tb224 O234 2.325 . S
Tb224 O237 2.303 . S
Tb224 O241 2.322 1_455 S
Tb224 O242 2.349 . S
Tb224 O245 2.415 . S
Tb224 O246 2.399 . S
Tb225 O235 2.322 1_655 S
Tb225 O236 2.349 . S
Tb225 O238 2.415 1_556 S
Tb225 O239 2.399 . S
Tb225 O240 2.325 . S
Tb225 O243 2.303 . S
Tb225 C254 2.764 1_556 S
C226 O242 1.261 . S
C226 O243 1.257 1_455 S
C227 C230 1.358 . S
C227 C231 1.332 . S
C227 C233 1.504 . S
C228 C229 1.373 . S
C228 C232 1.308 . S
C229 C228 1.373 . S
C229 C230 1.429 . S
C229 H256 0.932 . S
C230 C227 1.358 . S
C230 C229 1.429 . S
C230 H257 0.930 . S
C231 C227 1.332 . S
C231 C232 1.394 . S
C231 H258 0.932 . S
C232 C228 1.308 . S
C232 C231 1.394 . S
C232 H259 0.929 . S
C233 Tb224 2.764 . S
C233 C227 1.504 . S
C233 O245 1.239 . S
C233 O246 1.263 . S
O234 Tb224 2.325 . S
O234 C244 1.236 . S
O235 Tb225 2.322 1_455 S
O235 C244 1.257 . S
O236 Tb225 2.349 . S
O236 C247 1.261 . S
O237 Tb224 2.303 . S
O237 C247 1.257 1_455 S
O238 Tb225 2.415 1_554 S
O238 C254 1.239 . S
O239 Tb225 2.399 . S
O239 C254 1.263 1_556 S
O240 Tb225 2.325 . S
O240 C255 1.236 . S
O241 Tb224 2.322 1_655 S
O241 C255 1.257 . S
O242 Tb224 2.349 . S
O242 C226 1.261 . S
O243 Tb225 2.303 . S
O243 C226 1.257 1_655 S
C244 O234 1.236 . S
C244 O235 1.257 . S
O245 Tb224 2.415 . S
O245 C233 1.239 . S
O246 Tb224 2.399 . S
O246 C233 1.263 . S
C247 O236 1.261 . S
C247 O237 1.257 1_655 S
C248 C251 1.358 . S
C248 C252 1.332 . S
C248 C254 1.504 . S
C249 C250 1.373 . S
C249 C253 1.308 . S
C250 C249 1.373 . S
C250 C251 1.429 . S
C250 H260 0.932 . S
C251 C248 1.358 . S
C251 C250 1.429 . S
C251 H261 0.930 . S
C252 C248 1.332 . S
C252 C253 1.394 . S
C252 H262 0.932 . S
C253 C249 1.308 . S
C253 C252 1.394 . S
C253 H263 0.929 . S
C254 Tb225 2.764 1_554 S
C254 O238 1.239 . S
C254 O239 1.263 1_554 S
C254 C248 1.504 . S
C255 O240 1.236 . S
C255 O241 1.257 . S
H256 C229 0.932 . S
H257 C230 0.930 . S
H258 C231 0.932 . S
H259 C232 0.929 . S
H260 C250 0.932 . S
H261 C251 0.930 . S
H262 C252 0.932 . S
H263 C253 0.929 . S
H264 C270 0.930 . S
H265 C274 0.930 . S
H266 C279 0.929 . S
H267 C277 0.929 . S
H268 C272 0.929 . S
H269 C278 0.929 . S
C270 H264 0.930 . S
C270 C271 1.367 . S
C270 C278 1.378 . S
C271 C270 1.367 . S
C271 C279 1.433 1_545 S
C272 H268 0.929 . S
C272 C274 1.378 . S
C272 C276 1.350 1_565 S
C273 C276 1.463 . S
C273 C278 1.350 . S
C273 N281 1.427 1_545 S
C274 H265 0.930 . S
C274 C272 1.378 . S
C274 C275 1.367 1_565 S
C275 C274 1.367 1_545 S
C275 C277 1.433 . S
C276 C272 1.350 1_545 S
C276 C273 1.463 . S
C276 N280 1.427 . S
C277 H267 0.929 . S
C277 C275 1.433 . S
C277 N280 1.384 . S
C278 H269 0.929 . S
C278 C270 1.378 . S
C278 C273 1.350 . S
C279 H266 0.929 . S
C279 C271 1.433 1_565 S
C279 N281 1.384 . S
N280 C276 1.427 . S
N280 C277 1.384 . S
N281 C273 1.427 1_565 S
N281 C279 1.384 . S
H282 C288 0.930 . S
H283 C292 0.930 . S
H284 C297 0.929 . S
H285 C295 0.929 . S
H286 C290 0.929 . S
H287 C296 0.929 . S
C288 H282 0.930 . S
C288 C289 1.367 . S
C288 C296 1.378 . S
C289 C288 1.367 . S
C289 C297 1.433 . S
C290 H286 0.929 . S
C290 C292 1.378 . S
C290 C294 1.350 . S
C291 C294 1.463 . S
C291 C296 1.350 . S
C291 N299 1.427 . S
C292 H283 0.930 . S
C292 C290 1.378 . S
C292 C293 1.367 . S
C293 C292 1.367 . S
C293 C295 1.433 . S
C294 C290 1.350 . S
C294 C291 1.463 . S
C294 N298 1.427 . S
C295 H285 0.929 . S
C295 C293 1.433 . S
C295 N298 1.384 . S
C296 H287 0.929 . S
C296 C288 1.378 . S
C296 C291 1.350 . S
C297 H284 0.929 . S
C297 C289 1.433 . S
C297 N299 1.384 . S
N298 C294 1.427 . S
N298 C295 1.384 . S
N299 C291 1.427 . S
N299 C297 1.384 . S
H300 C306 0.930 . S
H301 C310 0.930 . S
H302 C315 0.929 . S
H303 C313 0.929 . S
H304 C308 0.929 . S
H305 C314 0.929 . S
C306 H300 0.930 . S
C306 C307 1.367 . S
C306 C314 1.378 . S
C307 C306 1.367 . S
C307 C315 1.433 . S
C308 H304 0.929 . S
C308 C310 1.378 . S
C308 C312 1.350 . S
C309 C312 1.463 . S
C309 C314 1.350 . S
C309 N317 1.427 . S
C310 H301 0.930 . S
C310 C308 1.378 . S
C310 C311 1.367 . S
C311 C310 1.367 . S
C311 C313 1.433 . S
C312 C308 1.350 . S
C312 C309 1.463 . S
C312 N316 1.427 . S
C313 H303 0.929 . S
C313 C311 1.433 . S
C313 N316 1.384 . S
C314 H305 0.929 . S
C314 C306 1.378 . S
C314 C309 1.350 . S
C315 H302 0.929 . S
C315 C307 1.433 . S
C315 N317 1.384 . S
N316 C312 1.427 . S
N316 C313 1.384 . S
N317 C309 1.427 . S
N317 C315 1.384 . S
H318 C324 0.930 . S
H319 C328 0.930 . S
H320 C333 0.929 . S
H321 C331 0.929 . S
H322 C326 0.929 . S
H323 C332 0.929 . S
C324 H318 0.930 . S
C324 C325 1.386 . S
C324 C332 1.378 . S
C325 C324 1.386 . S
C325 C333 1.414 1_455 S
C326 H322 0.929 . S
C326 C328 1.378 . S
C326 C330 1.350 1_655 S
C327 C330 1.463 . S
C327 C332 1.350 . S
C327 N335 1.427 1_455 S
C328 H319 0.930 . S
C328 C326 1.378 . S
C328 C329 1.345 1_655 S
C329 C328 1.345 1_455 S
C329 C331 1.456 . S
C330 C326 1.350 1_455 S
C330 C327 1.463 . S
C330 N334 1.427 . S
C331 H321 0.929 . S
C331 C329 1.456 . S
C331 N334 1.384 . S
C332 H323 0.929 . S
C332 C324 1.378 . S
C332 C327 1.350 . S
C333 H320 0.929 . S
C333 C325 1.414 1_655 S
C333 N335 1.384 . S
N334 C330 1.427 . S
N334 C331 1.384 . S
N335 C327 1.427 1_655 S
N335 C333 1.384 . S
H336 C342 0.930 . S
H337 C346 0.930 1_556 S
H338 C351 0.929 . S
H339 C349 0.929 . S
H340 C344 0.929 . S
H341 C350 0.929 . S
C342 H336 0.930 . S
C342 C343 1.369 . S
C342 C350 1.378 . S
C343 C342 1.369 . S
C343 C351 1.431 1_545 S
C344 H340 0.929 . S
C344 C346 1.378 . S
C344 C348 1.350 . S
C345 C348 1.460 . S
C345 C350 1.334 1_565 S
C345 N353 1.447 . S
C346 H337 0.930 1_554 S
C346 C344 1.378 . S
C346 C347 1.367 . S
C347 C346 1.367 . S
C347 C349 1.433 1_565 S
C348 C344 1.350 . S
C348 C345 1.460 . S
C348 N352 1.427 1_565 S
C349 H339 0.929 . S
C349 C347 1.433 1_545 S
C349 N352 1.384 . S
C350 H341 0.929 . S
C350 C342 1.378 . S
C350 C345 1.334 1_545 S
C351 H338 0.929 . S
C351 C343 1.431 1_565 S
C351 N353 1.384 . S
N352 C348 1.427 1_545 S
N352 C349 1.384 . S
N353 C345 1.447 . S
N353 C351 1.384 . S
H354 C360 0.930 . S
H355 C364 0.930 1_554 S
H356 C369 0.929 . S
H357 C367 0.929 . S
H358 C362 0.929 1_554 S
H359 C368 0.929 . S
C360 H354 0.930 . S
C360 C361 1.367 . S
C360 C368 1.378 . S
C361 C360 1.367 . S
C361 C369 1.433 1_556 S
C362 H358 0.929 1_556 S
C362 C364 1.378 . S
C362 C366 1.350 . S
C363 C366 1.463 . S
C363 C368 1.350 . S
C363 N371 1.427 1_556 S
C364 H355 0.930 1_556 S
C364 C362 1.378 . S
C364 C365 1.367 . S
C365 C364 1.367 . S
C365 C367 1.433 . S
C366 C362 1.350 . S
C366 C363 1.463 . S
C366 N370 1.427 . S
C367 H357 0.929 . S
C367 C365 1.433 . S
C367 N370 1.384 . S
C368 H359 0.929 . S
C368 C360 1.378 . S
C368 C363 1.350 . S
C369 H356 0.929 . S
C369 C361 1.433 1_554 S
C369 N371 1.384 . S
N370 C366 1.427 . S
N370 C367 1.384 . S
N371 C363 1.427 1_554 S
N371 C369 1.384 . S
H372 C378 0.930 . S
H373 C382 0.930 1_556 S
H374 C387 0.929 . S
H375 C385 0.929 . S
H376 C380 0.929 . S
H377 C386 0.929 . S
C378 H372 0.930 . S
C378 C379 1.367 . S
C378 C386 1.378 . S
C379 C378 1.367 . S
C379 C387 1.433 . S
C380 H376 0.929 . S
C380 C382 1.378 . S
C380 C384 1.350 . S
C381 C384 1.463 . S
C381 C386 1.350 . S
C381 N389 1.427 . S
C382 H373 0.930 1_554 S
C382 C380 1.378 . S
C382 C383 1.367 . S
C383 C382 1.367 . S
C383 C385 1.433 . S
C384 C380 1.350 . S
C384 C381 1.463 . S
C384 N388 1.427 . S
C385 H375 0.929 . S
C385 C383 1.433 . S
C385 N388 1.384 . S
C386 H377 0.929 . S
C386 C378 1.378 . S
C386 C381 1.350 . S
C387 H374 0.929 . S
C387 C379 1.433 . S
C387 N389 1.384 . S
N388 C384 1.427 . S
N388 C385 1.384 . S
N389 C381 1.427 . S
N389 C387 1.384 . S
H390 C396 0.930 . S
H391 C400 0.930 . S
H392 C405 0.929 . S
H393 C403 0.929 . S
H394 C398 0.929 . S
H395 C404 0.929 . S
C396 H390 0.930 . S
C396 C397 1.370 . S
C396 C404 1.378 . S
C397 C396 1.370 . S
C397 C405 1.431 1_455 S
C398 H394 0.929 . S
C398 C400 1.378 . S
C398 C402 1.350 . S
C399 C402 1.462 . S
C399 C404 1.353 1_655 S
C399 N407 1.425 . S
C400 H391 0.930 . S
C400 C398 1.378 . S
C400 C401 1.367 1_554 S
C401 C400 1.367 1_556 S
C401 C403 1.433 1_655 S
C402 C398 1.350 . S
C402 C399 1.462 . S
C402 N406 1.427 1_655 S
C403 H393 0.929 . S
C403 C401 1.433 1_455 S
C403 N406 1.384 1_556 S
C404 H395 0.929 . S
C404 C396 1.378 . S
C404 C399 1.353 1_455 S
C405 H392 0.929 . S
C405 C397 1.431 1_655 S
C405 N407 1.384 . S
N406 C402 1.427 1_455 S
N406 C403 1.384 1_554 S
N407 C399 1.425 . S
N407 C405 1.384 . S
H408 C414 0.930 . S
H409 C418 0.930 . S
H410 C423 0.929 . S
H411 C421 0.929 . S
H412 C416 0.929 . S
H413 C422 0.932 . S
C414 H408 0.930 . S
C414 C415 1.364 1_455 S
C414 C422 1.378 1_455 S
C415 C414 1.364 1_655 S
C415 C423 1.440 . S
C416 H412 0.929 . S
C416 C418 1.378 . S
C416 C420 1.350 . S
C417 C420 1.463 . S
C417 C422 1.350 . S
C417 N425 1.427 . S
C418 H409 0.930 . S
C418 C416 1.378 . S
C418 C419 1.367 . S
C419 C418 1.367 . S
C419 C421 1.433 . S
C420 C416 1.350 . S
C420 C417 1.463 . S
C420 N424 1.427 . S
C421 H411 0.929 . S
C421 C419 1.433 . S
C421 N424 1.384 . S
C422 H413 0.932 . S
C422 C414 1.378 1_655 S
C422 C417 1.350 . S
C423 H410 0.929 . S
C423 C415 1.440 . S
C423 N425 1.384 . S
N424 C420 1.427 . S
N424 C421 1.384 . S
N425 C417 1.427 . S
N425 C423 1.384 . S
H426 C432 0.930 . S
H427 C436 0.919 1_545 S
H428 C441 0.929 . S
H429 C439 0.929 . S
H430 C434 0.929 . S
H431 C440 0.929 . S
C432 H426 0.930 . S
C432 C433 1.367 1_565 S
C432 C440 1.378 . S
C433 C432 1.367 1_545 S
C433 C441 1.433 . S
C434 H430 0.929 . S
C434 C436 1.371 1_545 S
C434 C438 1.350 1_545 S
C435 C438 1.463 . S
C435 C440 1.350 . S
C435 N443 1.427 1_565 S
C436 H427 0.919 1_565 S
C436 C434 1.371 1_565 S
C436 C437 1.386 . S
C437 C436 1.386 . S
C437 C439 1.433 . S
C438 C434 1.350 1_565 S
C438 C435 1.463 . S
C438 N442 1.427 . S
C439 H429 0.929 . S
C439 C437 1.433 . S
C439 N442 1.384 . S
C440 H431 0.929 . S
C440 C432 1.378 . S
C440 C435 1.350 . S
C441 H428 0.929 . S
C441 C433 1.433 . S
C441 N443 1.384 . S
N442 C438 1.427 . S
N442 C439 1.384 . S
N443 C435 1.427 1_545 S
N443 C441 1.384 . S
H444 C450 0.930 . S
H445 C454 0.930 . S
H446 C459 0.929 . S
H447 C457 0.929 . S
H448 C452 0.929 . S
H449 C458 0.929 . S
C450 H444 0.930 . S
C450 C451 1.367 . S
C450 C458 1.378 . S
C451 C450 1.367 . S
C451 C459 1.433 . S
C452 H448 0.929 . S
C452 C454 1.378 . S
C452 C456 1.350 . S
C453 C456 1.463 . S
C453 C458 1.350 . S
C453 N461 1.427 . S
C454 H445 0.930 . S
C454 C452 1.378 . S
C454 C455 1.367 . S
C455 C454 1.367 . S
C455 C457 1.433 . S
C456 C452 1.350 . S
C456 C453 1.463 . S
C456 N460 1.427 . S
C457 H447 0.929 . S
C457 C455 1.433 . S
C457 N460 1.384 . S
C458 H449 0.929 . S
C458 C450 1.378 . S
C458 C453 1.350 . S
C459 H446 0.929 . S
C459 C451 1.433 . S
C459 N461 1.384 . S
N460 C456 1.427 . S
N460 C457 1.384 . S
N461 C453 1.427 . S
N461 C459 1.384 . S
H462 C468 0.930 . S
H463 C472 0.930 . S
H464 C477 0.929 . S
H465 C475 0.929 . S
H466 C470 0.929 . S
H467 C476 0.929 . S
C468 H462 0.930 . S
C468 C469 1.367 . S
C468 C476 1.378 . S
C469 C468 1.367 . S
C469 C477 1.433 . S
C470 H466 0.929 . S
C470 C472 1.378 . S
C470 C474 1.350 . S
C471 C474 1.463 . S
C471 C476 1.350 . S
C471 N479 1.427 . S
C472 H463 0.930 . S
C472 C470 1.378 . S
C472 C473 1.367 . S
C473 C472 1.367 . S
C473 C475 1.433 . S
C474 C470 1.350 . S
C474 C471 1.463 . S
C474 N478 1.427 . S
C475 H465 0.929 . S
C475 C473 1.433 . S
C475 N478 1.384 . S
C476 H467 0.929 . S
C476 C468 1.378 . S
C476 C471 1.350 . S
C477 H464 0.929 . S
C477 C469 1.433 . S
C477 N479 1.384 . S
N478 C474 1.427 . S
N478 C475 1.384 . S
N479 C471 1.427 . S
N479 C477 1.384 . S
H480 C486 0.930 . S
H481 C490 0.930 . S
H482 C495 0.929 . S
H483 C493 0.929 . S
H484 C488 0.929 . S
H485 C494 0.929 . S
C486 H480 0.930 . S
C486 C487 1.367 1_655 S
C486 C494 1.378 . S
C487 C486 1.367 1_455 S
C487 C495 1.433 . S
C488 H484 0.929 . S
C488 C490 1.378 . S
C488 C492 1.350 . S
C489 C492 1.463 . S
C489 C494 1.350 1_455 S
C489 N497 1.427 . S
C490 H481 0.930 . S
C490 C488 1.378 . S
C490 C491 1.367 . S
C491 C490 1.367 . S
C491 C493 1.433 . S
C492 C488 1.350 . S
C492 C489 1.463 . S
C492 N496 1.427 . S
C493 H483 0.929 . S
C493 C491 1.433 . S
C493 N496 1.384 . S
C494 H485 0.929 . S
C494 C486 1.378 . S
C494 C489 1.350 1_655 S
C495 H482 0.929 . S
C495 C487 1.433 . S
C495 N497 1.384 . S
N496 C492 1.427 . S
N496 C493 1.384 . S
N497 C489 1.427 . S
N497 C495 1.384 . S
H498 C504 0.930 . S
H499 C508 0.930 . S
H500 C513 0.929 . S
H501 C511 0.929 1_565 S
H502 C506 0.929 . S
H503 C512 0.929 . S
C504 H498 0.930 . S
C504 C505 1.367 . S
C504 C512 1.378 . S
C505 C504 1.367 . S
C505 C513 1.433 1_565 S
C506 H502 0.929 . S
C506 C508 1.378 . S
C506 C510 1.350 . S
C507 C510 1.463 . S
C507 C512 1.350 1_545 S
C507 N515 1.427 . S
C508 H499 0.930 . S
C508 C506 1.378 . S
C508 C509 1.367 . S
C509 C508 1.367 . S
C509 C511 1.433 . S
C510 C506 1.350 . S
C510 C507 1.463 . S
C510 N514 1.427 1_545 S
C511 H501 0.929 1_545 S
C511 C509 1.433 . S
C511 N514 1.384 1_545 S
C512 H503 0.929 . S
C512 C504 1.378 . S
C512 C507 1.350 1_565 S
C513 H500 0.929 . S
C513 C505 1.433 1_545 S
C513 N515 1.384 . S
N514 C510 1.427 1_565 S
N514 C511 1.384 1_565 S
N515 C507 1.427 . S
N515 C513 1.384 . S
H516 C522 0.930 . S
H517 C526 0.930 1_554 S
H518 C531 0.929 . S
H519 C529 0.929 . S
H520 C524 0.929 1_554 S
H521 C530 0.929 . S
C522 H516 0.930 . S
C522 C523 1.367 . S
C522 C530 1.378 . S
C523 C522 1.367 . S
C523 C531 1.433 1_556 S
C524 H520 0.929 1_556 S
C524 C526 1.378 . S
C524 C528 1.350 . S
C525 C528 1.463 . S
C525 C530 1.350 . S
C525 N533 1.427 . S
C526 H517 0.930 1_556 S
C526 C524 1.378 . S
C526 C527 1.367 . S
C527 C526 1.367 . S
C527 C529 1.433 . S
C528 C524 1.350 . S
C528 C525 1.463 . S
C528 N532 1.427 . S
C529 H519 0.929 . S
C529 C527 1.433 . S
C529 N532 1.384 . S
C530 H521 0.929 . S
C530 C522 1.378 . S
C530 C525 1.350 . S
C531 H518 0.929 . S
C531 C523 1.433 1_554 S
C531 N533 1.384 1_554 S
N532 C528 1.427 . S
N532 C529 1.384 . S
N533 C525 1.427 . S
N533 C531 1.384 1_556 S
H534 C540 0.930 . S
H535 C544 0.930 . S
H536 C549 0.929 . S
H537 C547 0.929 . S
H538 C542 0.929 . S
H539 C548 0.929 . S
C540 H534 0.930 . S
C540 C541 1.367 . S
C540 C548 1.378 . S
C541 C540 1.367 . S
C541 C549 1.433 . S
C542 H538 0.929 . S
C542 C544 1.378 . S
C542 C546 1.350 . S
C543 C546 1.463 . S
C543 C548 1.350 . S
C543 N551 1.427 . S
C544 H535 0.930 . S
C544 C542 1.378 . S
C544 C545 1.367 . S
C545 C544 1.367 . S
C545 C547 1.433 . S
C546 C542 1.350 . S
C546 C543 1.463 . S
C546 N550 1.427 . S
C547 H537 0.929 . S
C547 C545 1.433 . S
C547 N550 1.384 . S
C548 H539 0.929 . S
C548 C540 1.378 . S
C548 C543 1.350 . S
C549 H536 0.929 . S
C549 C541 1.433 . S
C549 N551 1.384 . S
N550 C546 1.427 . S
N550 C547 1.384 . S
N551 C543 1.427 . S
N551 C549 1.384 . S
H552 C558 0.930 . S
H553 C562 0.930 . S
H554 C567 0.929 1_556 S
H555 C565 0.929 . S
H556 C560 0.929 . S
H557 C566 0.929 . S
C558 H552 0.930 . S
C558 C559 1.367 . S
C558 C566 1.378 . S
C559 C558 1.367 . S
C559 C567 1.433 1_455 S
C560 H556 0.929 . S
C560 C562 1.378 . S
C560 C564 1.350 1_656 S
C561 C564 1.463 . S
C561 C566 1.350 . S
C561 N569 1.427 1_454 S
C562 H553 0.930 . S
C562 C560 1.378 . S
C562 C563 1.367 1_655 S
C563 C562 1.367 1_455 S
C563 C565 1.433 1_556 S
C564 C560 1.350 1_454 S
C564 C561 1.463 . S
C564 N568 1.427 . S
C565 H555 0.929 . S
C565 C563 1.433 1_554 S
C565 N568 1.384 . S
C566 H557 0.929 . S
C566 C558 1.378 . S
C566 C561 1.350 . S
C567 H554 0.929 1_554 S
C567 C559 1.433 1_655 S
C567 N569 1.384 1_554 S
N568 C564 1.427 . S
N568 C565 1.384 . S
N569 C561 1.427 1_656 S
N569 C567 1.384 1_556 S
H570 C576 0.930 . S
H571 C580 0.930 . S
H572 C585 0.929 . S
H573 C583 0.929 . S
H574 C578 0.929 . S
H575 C584 0.929 . S
C576 H570 0.930 . S
C576 C577 1.367 . S
C576 C584 1.378 . S
C577 C576 1.367 . S
C577 C585 1.433 1_544 S
C578 H574 0.929 . S
C578 C580 1.378 . S
C578 C582 1.350 1_565 S
C579 C582 1.463 1_554 S
C579 C584 1.350 . S
C579 N587 1.427 1_544 S
C580 H571 0.930 . S
C580 C578 1.378 . S
C580 C581 1.367 1_565 S
C581 C580 1.367 1_545 S
C581 C583 1.433 1_556 S
C582 C578 1.350 1_545 S
C582 C579 1.463 1_556 S
C582 N586 1.427 1_556 S
C583 H573 0.929 . S
C583 C581 1.433 1_554 S
C583 N586 1.384 . S
C584 H575 0.929 . S
C584 C576 1.378 . S
C584 C579 1.350 . S
C585 H572 0.929 . S
C585 C577 1.433 1_566 S
C585 N587 1.384 . S
N586 C582 1.427 1_554 S
N586 C583 1.384 . S
N587 C579 1.427 1_566 S
N587 C585 1.384 . S
H588 C594 0.930 . S
H589 C598 0.930 . S
H590 C603 0.929 . S
H591 C601 0.929 . S
H592 C596 0.929 . S
H593 C602 0.929 . S
C594 H588 0.930 . S
C594 C595 1.367 . S
C594 C602 1.378 . S
C595 C594 1.367 . S
C595 C603 1.433 . S
C596 H592 0.929 . S
C596 C598 1.378 . S
C596 C600 1.350 . S
C597 C600 1.463 . S
C597 C602 1.350 . S
C597 N605 1.427 . S
C598 H589 0.930 . S
C598 C596 1.378 . S
C598 C599 1.367 . S
C599 C598 1.367 . S
C599 C601 1.433 . S
C600 C596 1.350 . S
C600 C597 1.463 . S
C600 N604 1.427 . S
C601 H591 0.929 . S
C601 C599 1.433 . S
C601 N604 1.384 . S
C602 H593 0.929 . S
C602 C594 1.378 . S
C602 C597 1.350 . S
C603 H590 0.929 . S
C603 C595 1.433 . S
C603 N605 1.384 . S
N604 C600 1.427 . S
N604 C601 1.384 . S
N605 C597 1.427 . S
N605 C603 1.384 . S
H606 C612 0.930 . S
H607 C616 0.926 1_554 S
H608 C621 0.929 . S
H609 C619 0.929 . S
H610 C614 0.929 . S
H611 C620 0.929 . S
C612 H606 0.930 . S
C612 C613 1.367 1_556 S
C612 C620 1.378 . S
C613 C612 1.367 1_554 S
C613 C621 1.433 . S
C614 H610 0.929 . S
C614 C616 1.376 1_554 S
C614 C618 1.350 1_554 S
C615 C618 1.462 1_554 S
C615 C620 1.350 1_554 S
C615 N623 1.428 . S
C616 H607 0.926 1_556 S
C616 C614 1.376 1_556 S
C616 C617 1.373 . S
C617 C616 1.373 . S
C617 C619 1.433 . S
C618 C614 1.350 1_556 S
C618 C615 1.462 1_556 S
C618 N622 1.427 . S
C619 H609 0.929 . S
C619 C617 1.433 . S
C619 N622 1.384 . S
C620 H611 0.929 . S
C620 C612 1.378 . S
C620 C615 1.350 1_556 S
C621 H608 0.929 . S
C621 C613 1.433 . S
C621 N623 1.384 . S
N622 C618 1.427 . S
N622 C619 1.384 . S
N623 C615 1.428 . S
N623 C621 1.384 . S
H624 C630 0.930 . S
H625 C634 0.930 . S
H626 C639 0.929 . S
H627 C637 0.929 . S
H628 C632 0.929 . S
H629 C638 0.929 . S
C630 H624 0.930 . S
C630 C631 1.367 1_455 S
C630 C638 1.378 . S
C631 C630 1.367 1_655 S
C631 C639 1.433 . S
C632 H628 0.929 . S
C632 C634 1.378 . S
C632 C636 1.350 . S
C633 C636 1.463 . S
C633 C638 1.350 1_655 S
C633 N641 1.427 . S
C634 H625 0.930 . S
C634 C632 1.378 . S
C634 C635 1.367 . S
C635 C634 1.367 . S
C635 C637 1.433 1_655 S
C636 C632 1.350 . S
C636 C633 1.463 . S
C636 N640 1.427 1_655 S
C637 H627 0.929 . S
C637 C635 1.433 1_455 S
C637 N640 1.384 . S
C638 H629 0.929 . S
C638 C630 1.378 . S
C638 C633 1.350 1_455 S
C639 H626 0.929 . S
C639 C631 1.433 . S
C639 N641 1.384 . S
N640 C636 1.427 1_455 S
N640 C637 1.384 . S
N641 C633 1.427 . S
N641 C639 1.384 . S
H642 C648 0.930 . S
H643 C652 0.930 . S
H644 C657 0.929 . S
H645 C655 0.929 . S
H646 C650 0.929 . S
H647 C656 0.929 . S
C648 H642 0.930 . S
C648 C649 1.350 1_545 S
C648 C656 1.378 . S
C649 C648 1.350 1_565 S
C649 C657 1.453 . S
C650 H646 0.929 . S
C650 C652 1.378 . S
C650 C654 1.350 . S
C651 C654 1.463 . S
C651 C656 1.350 1_565 S
C651 N659 1.427 . S
C652 H643 0.930 . S
C652 C650 1.378 . S
C652 C653 1.367 . S
C653 C652 1.367 . S
C653 C655 1.433 1_565 S
C654 C650 1.350 . S
C654 C651 1.463 . S
C654 N658 1.427 1_565 S
C655 H645 0.929 . S
C655 C653 1.433 1_545 S
C655 N658 1.384 . S
C656 H647 0.929 . S
C656 C648 1.378 . S
C656 C651 1.350 1_545 S
C657 H644 0.929 . S
C657 C649 1.453 . S
C657 N659 1.384 . S
N658 C654 1.427 1_545 S
N658 C655 1.384 . S
N659 C651 1.427 . S
N659 C657 1.384 . S
H660 C666 0.930 . S
H661 C670 0.930 . S
H662 C675 0.929 . S
H663 C673 0.929 . S
H664 C668 0.929 . S
H665 C674 0.929 . S
C666 H660 0.930 . S
C666 C667 1.367 . S
C666 C674 1.378 . S
C667 C666 1.367 . S
C667 C675 1.433 . S
C668 H664 0.929 . S
C668 C670 1.378 . S
C668 C672 1.350 . S
C669 C672 1.463 . S
C669 C674 1.350 . S
C669 N677 1.427 . S
C670 H661 0.930 . S
C670 C668 1.378 . S
C670 C671 1.367 . S
C671 C670 1.367 . S
C671 C673 1.433 . S
C672 C668 1.350 . S
C672 C669 1.463 . S
C672 N676 1.427 . S
C673 H663 0.929 . S
C673 C671 1.433 . S
C673 N676 1.384 . S
C674 H665 0.929 . S
C674 C666 1.378 . S
C674 C669 1.350 . S
C675 H662 0.929 . S
C675 C667 1.433 . S
C675 N677 1.384 . S
N676 C672 1.427 . S
N676 C673 1.384 . S
N677 C669 1.427 . S
N677 C675 1.384 . S
H678 C684 0.930 . S
H679 C688 0.930 . S
H680 C693 0.929 . S
H681 C691 0.929 . S
H682 C686 0.929 . S
H683 C692 0.929 . S
C684 H678 0.930 . S
C684 C685 1.367 . S
C684 C692 1.378 . S
C685 C684 1.367 . S
C685 C693 1.433 . S
C686 H682 0.929 . S
C686 C688 1.378 . S
C686 C690 1.350 . S
C687 C690 1.463 . S
C687 C692 1.350 . S
C687 N695 1.427 . S
C688 H679 0.930 . S
C688 C686 1.378 . S
C688 C689 1.367 . S
C689 C688 1.367 . S
C689 C691 1.433 . S
C690 C686 1.350 . S
C690 C687 1.463 . S
C690 N694 1.427 . S
C691 H681 0.929 . S
C691 C689 1.433 . S
C691 N694 1.384 . S
C692 H683 0.929 . S
C692 C684 1.378 . S
C692 C687 1.350 . S
C693 H680 0.929 . S
C693 C685 1.433 . S
C693 N695 1.384 . S
N694 C690 1.427 . S
N694 C691 1.384 . S
N695 C687 1.427 . S
N695 C693 1.384 . S
C271 N80 1.941 1_545 S
C275 C127 2.012 1_545 S
C293 C167 1.763 . S
C289 N93 1.765 . S
C311 C186 2.028 . S
C307 N54 1.942 . S
C329 C247 1.400 1_455 S
C325 N67 1.363 1_455 S
C347 C106 2.019 1_564 S
C343 N28 1.939 1_545 S
C361 N41 1.777 . S
C365 C146 1.767 . S
C379 N2 1.952 . S
C383 C207 2.022 1_554 S
C397 N15 1.360 1_455 S
C401 C226 1.412 1_655 S
C419 C108 0.850 . S
C415 N70 0.858 . S
C437 C148 0.323 . S
C433 N83 0.275 1_545 S
C455 C204 0.918 . S
C451 N96 0.917 . S
C469 N57 0.365 . S
C473 C228 0.384 . S
C487 N18 0.866 1_455 S
C491 C129 0.860 . S
C509 C169 0.370 . S
C505 N31 0.287 . S
C527 C215 0.914 . S
C523 N44 0.919 . S
C541 N5 0.349 . S
C545 C249 0.394 . S
C559 N66 1.555 1_455 S
C563 C124 1.590 . S
C577 N79 2.282 1_545 S
C581 C164 2.356 . S
C599 C188 1.532 . S
C595 N92 1.580 . S
C617 C244 2.345 . S
C613 N53 2.270 . S
C631 N14 1.562 . S
C635 C135 1.608 . S
C653 C175 2.361 . S
C649 N27 2.283 . S
C671 C209 1.523 . S
C667 N40 1.564 . S
C685 N1 2.271 . S
C689 C255 2.348 . S
