# Generated by pormake.
# Topology zzz, (3,6)-cn, num edge types: 1
# Building blocks:
#     Node 0, Type 0, BuildingBlock: KAKCAD_clean_linker_0, # of connection points: 3
#     Node 1, Type 0, BuildingBlock: KAKCAD_clean_linker_0, # of connection points: 3
#     Node 2, Type 0, BuildingBlock: KAKCAD_clean_linker_0, # of connection points: 3
#     Node 3, Type 0, BuildingBlock: KAKCAD_clean_linker_0, # of connection points: 3
#     Node 4, Type 0, BuildingBlock: KAKCAD_clean_linker_0, # of connection points: 3
#     Node 5, Type 0, BuildingBlock: KAKCAD_clean_linker_0, # of connection points: 3
#     Node 6, Type 0, BuildingBlock: KAKCAD_clean_linker_0, # of connection points: 3
#     Node 7, Type 0, BuildingBlock: KAKCAD_clean_linker_0, # of connection points: 3
#     Node 8, Type 1, BuildingBlock: JUFBIX_clean_sbu_0, # of connection points: 6
#     Node 9, Type 1, BuildingBlock: JUFBIX_clean_sbu_0, # of connection points: 6
#     Node 10, Type 1, BuildingBlock: JUFBIX_clean_sbu_0, # of connection points: 6
#     Node 11, Type 1, BuildingBlock: JUFBIX_clean_sbu_0, # of connection points: 6
#     Edge 12, Type (0, 1), BuildingBlock: EZIPEK_clean_linker_0, # of connection points: 2
#     Edge 13, Type (0, 1), BuildingBlock: EZIPEK_clean_linker_0, # of connection points: 2
#     Edge 14, Type (0, 1), BuildingBlock: EZIPEK_clean_linker_0, # of connection points: 2
#     Edge 15, Type (0, 1), BuildingBlock: EZIPEK_clean_linker_0, # of connection points: 2
#     Edge 16, Type (0, 1), BuildingBlock: EZIPEK_clean_linker_0, # of connection points: 2
#     Edge 17, Type (0, 1), BuildingBlock: EZIPEK_clean_linker_0, # of connection points: 2
#     Edge 18, Type (0, 1), BuildingBlock: EZIPEK_clean_linker_0, # of connection points: 2
#     Edge 19, Type (0, 1), BuildingBlock: EZIPEK_clean_linker_0, # of connection points: 2
#     Edge 20, Type (0, 1), BuildingBlock: EZIPEK_clean_linker_0, # of connection points: 2
#     Edge 21, Type (0, 1), BuildingBlock: EZIPEK_clean_linker_0, # of connection points: 2
#     Edge 22, Type (0, 1), BuildingBlock: EZIPEK_clean_linker_0, # of connection points: 2
#     Edge 23, Type (0, 1), BuildingBlock: EZIPEK_clean_linker_0, # of connection points: 2
#     Edge 24, Type (0, 1), BuildingBlock: EZIPEK_clean_linker_0, # of connection points: 2
#     Edge 25, Type (0, 1), BuildingBlock: EZIPEK_clean_linker_0, # of connection points: 2
#     Edge 26, Type (0, 1), BuildingBlock: EZIPEK_clean_linker_0, # of connection points: 2
#     Edge 27, Type (0, 1), BuildingBlock: EZIPEK_clean_linker_0, # of connection points: 2
#     Edge 28, Type (0, 1), BuildingBlock: EZIPEK_clean_linker_0, # of connection points: 2
#     Edge 29, Type (0, 1), BuildingBlock: EZIPEK_clean_linker_0, # of connection points: 2
#     Edge 30, Type (0, 1), BuildingBlock: EZIPEK_clean_linker_0, # of connection points: 2
#     Edge 31, Type (0, 1), BuildingBlock: EZIPEK_clean_linker_0, # of connection points: 2
#     Edge 32, Type (0, 1), BuildingBlock: EZIPEK_clean_linker_0, # of connection points: 2
#     Edge 33, Type (0, 1), BuildingBlock: EZIPEK_clean_linker_0, # of connection points: 2
#     Edge 34, Type (0, 1), BuildingBlock: EZIPEK_clean_linker_0, # of connection points: 2
#     Edge 35, Type (0, 1), BuildingBlock: EZIPEK_clean_linker_0, # of connection points: 2
# Relax obj value: 0.280
# Max RMSD: 0.229
# Mean RMSD: 0.186
data_MOF--net-zzz--node1-JUFBIX_clean_sbu_0--node2-KAKCAD_clean_linker_0--edge1-EZIPEK_clean_linker_0
_symmetry_space_group_name_H-M    P1
_symmetry_Int_Tables_number       1
_symmetry_cell_setting            triclinic
loop_
_symmetry_equiv_pos_as_xyz
'x, y, z'
_cell_length_a     45.691452
_cell_length_b     46.861997
_cell_length_c     18.082257
_cell_angle_alpha  81.072728
_cell_angle_beta   90.028617
_cell_angle_gamma 86.002917
loop_
_atom_site_label
_atom_site_type_symbol
_atom_site_fract_x
_atom_site_fract_y
_atom_site_fract_z
_atom_type_partial_charge
C0 C 0.86159 0.58339 0.03264 0.0
C1 C 0.85844 0.55538 0.01672 0.0
C2 C 0.83974 0.59699 0.07169 0.0
C3 C 0.81446 0.58274 0.09474 0.0
C4 C 0.81028 0.55587 0.07216 0.0
C5 C 0.83222 0.5422 0.03402 0.0
C6 C 0.79668 0.59113 0.15732 0.0
C7 C 0.7666 0.58793 0.15884 0.0
C8 C 0.75178 0.58339 0.22703 0.0
C9 C 0.76777 0.58059 0.29498 0.0
C10 C 0.79817 0.58505 0.29384 0.0
C11 C 0.81124 0.59327 0.22386 0.0
C12 C 0.81774 0.57763 0.36206 0.0
C13 C 0.80757 0.57861 0.43539 0.0
C14 C 0.84751 0.56855 0.3535 0.0
C15 C 0.86675 0.56284 0.4141 0.0
C16 C 0.85674 0.56356 0.48691 0.0
C17 C 0.72071 0.57698 0.22276 0.0
C18 C 0.7004 0.59907 0.18894 0.0
C19 C 0.71395 0.548 0.22707 0.0
C20 C 0.68891 0.54116 0.19068 0.0
C21 C 0.67039 0.56323 0.1499 0.0
C22 C 0.67532 0.59225 0.1529 0.0
C23 C 0.8268 0.57105 0.49741 0.0
H24 H 0.88171 0.5939 0.019 0.0
H25 H 0.84352 0.61763 0.08858 0.0
H26 H 0.7913 0.5441 0.0901 0.0
H27 H 0.82946 0.52062 0.02184 0.0
H28 H 0.75514 0.58649 0.10707 0.0
H29 H 0.83408 0.59793 0.2207 0.0
H30 H 0.75683 0.57392 0.34724 0.0
H31 H 0.78491 0.58518 0.44511 0.0
H32 H 0.85645 0.56515 0.29999 0.0
H33 H 0.88956 0.55672 0.40414 0.0
H34 H 0.70552 0.62153 0.18354 0.0
H35 H 0.72963 0.53064 0.25118 0.0
H36 H 0.81839 0.57124 0.55333 0.0
H37 H 0.6613 0.60953 0.12151 0.0
H38 H 0.68546 0.51865 0.18867 0.0
C39 C 0.03799 0.86062 0.04974 0.0
C40 C 0.05833 0.87577 0.08345 0.0
C41 C 0.02777 0.83531 0.08868 0.0
C42 C 0.03756 0.82504 0.16215 0.0
C43 C 0.05973 0.83892 0.19353 0.0
C44 C 0.0704 0.864 0.15384 0.0
C45 C 0.02107 0.80327 0.20923 0.0
C46 C 0.01508 0.77741 0.18486 0.0
C47 C 0.99576 0.75865 0.2244 0.0
C48 C 0.98169 0.76653 0.28881 0.0
C49 C 0.98818 0.79249 0.31411 0.0
C50 C 0.00801 0.81035 0.27434 0.0
C51 C 0.97451 0.80309 0.37992 0.0
C52 C 0.99196 0.80247 0.44421 0.0
C53 C 0.94929 0.82232 0.36931 0.0
C54 C 0.94314 0.84232 0.41855 0.0
C55 C 0.9624 0.84355 0.47846 0.0
C56 C 0.99055 0.73166 0.19425 0.0
C57 C 0.96281 0.72713 0.16634 0.0
C58 C 0.01483 0.71332 0.17951 0.0
C59 C 0.01192 0.6923 0.13354 0.0
C60 C 0.98468 0.68914 0.10117 0.0
C61 C 0.95987 0.70594 0.12013 0.0
C62 C 0.98594 0.8225 0.49309 0.0
H63 H 0.02868 0.86936 0.9951 0.0
H64 H 0.01056 0.82507 0.0636 0.0
H65 H 0.06761 0.83123 0.25013 0.0
H66 H 0.08636 0.87538 0.18009 0.0
H67 H 0.025 0.7722 0.13366 0.0
H68 H 0.01217 0.83076 0.29235 0.0
H69 H 0.96628 0.75262 0.31902 0.0
H70 H 0.01194 0.78843 0.45254 0.0
H71 H 0.93599 0.82381 0.31904 0.0
H72 H 0.92486 0.85837 0.40632 0.0
H73 H 0.94385 0.74123 0.17597 0.0
H74 H 0.03647 0.71644 0.20005 0.0
H75 H 0.00102 0.82302 0.53903 0.0
H76 H 0.93862 0.70371 0.09594 0.0
H77 H 0.03127 0.67947 0.12012 0.0
C78 C 0.68566 0.99928 0.01295 0.0
C79 C 0.66351 0.02007 0.02646 0.0
C80 C 0.71055 0.99385 0.05935 0.0
C81 C 0.71349 0.00926 0.11942 0.0
C82 C 0.69227 0.03163 0.12867 0.0
C83 C 0.66737 0.03685 0.08284 0.0
C84 C 0.7365 1.00003 0.17752 0.0
C85 C 0.76556 0.99314 0.15897 0.0
C86 C 0.787 0.98426 0.21519 0.0
C87 C 0.77905 0.98198 0.29142 0.0
C88 C 0.74964 0.98863 0.31024 0.0
C89 C 0.7288 0.99733 0.25288 0.0
C90 C 0.73868 0.98639 0.3881 0.0
C91 C 0.73688 0.95914 0.43239 0.0
C92 C 0.72198 0.01032 0.40812 0.0
C93 C 0.70091 0.00648 0.46391 0.0
C94 C 0.69658 0.97873 0.50239 0.0
C95 C 0.81755 0.97886 0.1909 0.0
C96 C 0.82423 0.95645 0.14886 0.0
C97 C 0.83786 0.99981 0.19383 0.0
C98 C 0.86347 0.99951 0.15113 0.0
C99 C 0.86915 0.97813 0.10548 0.0
C100 C 0.84994 0.95596 0.10693 0.0
C101 C 0.71623 0.95542 0.49015 0.0
H102 H 0.68282 0.98616 0.96949 0.0
H103 H 0.7265 0.97646 0.05114 0.0
H104 H 0.6943 0.04422 0.17363 0.0
H105 H 0.65047 0.05305 0.09353 0.0
H106 H 0.77172 0.99533 0.10053 0.0
H107 H 0.70602 1.00149 0.26732 0.0
H108 H 0.79544 0.97526 0.33511 0.0
H109 H 0.74928 0.9403 0.41778 0.0
H110 H 0.72294 0.03156 0.37486 0.0
H111 H 0.68644 0.02491 0.47297 0.0
H112 H 0.8086 0.94039 0.14469 0.0
H113 H 0.83286 0.01762 0.22449 0.0
H114 H 0.71365 0.93389 0.52017 0.0
H115 H 0.8539 0.93937 0.07181 0.0
H116 H 0.878 0.01685 0.15043 0.0
C117 C 0.48451 0.68629 0.47873 0.0
C118 C 0.51042 0.66808 0.48878 0.0
C119 C 0.48139 0.70875 0.41761 0.0
C120 C 0.5042 0.71347 0.36599 0.0
C121 C 0.53099 0.69679 0.37998 0.0
C122 C 0.53407 0.67426 0.44086 0.0
C123 C 0.49681 0.72686 0.28797 0.0
C124 C 0.49914 0.75643 0.25936 0.0
C125 C 0.49237 0.767 0.18289 0.0
C126 C 0.48409 0.74725 0.13644 0.0
C127 C 0.48127 0.71809 0.16535 0.0
C128 C 0.48756 0.70823 0.24082 0.0
C129 C 0.47342 0.69704 0.11693 0.0
C130 C 0.48919 0.69459 0.05134 0.0
C131 C 0.45247 0.67704 0.1407 0.0
C132 C 0.44854 0.65404 0.10191 0.0
C133 C 0.46569 0.65064 0.03927 0.0
C134 C 0.49385 0.79824 0.14947 0.0
C135 C 0.51641 0.81489 0.16858 0.0
C136 C 0.47333 0.81117 0.09381 0.0
C137 C 0.47607 0.83917 0.05582 0.0
C138 C 0.49903 0.85544 0.07325 0.0
C139 C 0.51887 0.84327 0.13109 0.0
C140 C 0.4854 0.67145 0.01286 0.0
H141 H 0.46596 0.68176 0.51488 0.0
H142 H 0.46024 0.72064 0.40678 0.0
H143 H 0.54855 0.69936 0.33977 0.0
H144 H 0.55418 0.66038 0.44748 0.0
H145 H 0.50586 0.77095 0.29628 0.0
H146 H 0.48611 0.68547 0.2629 0.0
H147 H 0.47987 0.75444 0.07728 0.0
H148 H 0.5056 0.70958 0.03226 0.0
H149 H 0.43989 0.67866 0.19084 0.0
H150 H 0.4331 0.63823 0.12251 0.0
H151 H 0.53267 0.80574 0.2108 0.0
H152 H 0.45514 0.79951 0.07876 0.0
H153 H 0.4987 0.66909 0.96429 0.0
H154 H 0.5366 0.85553 0.1461 0.0
H155 H 0.46025 0.84816 0.01228 0.0
C156 C 0.15339 0.53688 0.46599 0.0
C157 C 0.12697 0.52344 0.4653 0.0
C158 C 0.17591 0.53045 0.41769 0.0
C159 C 0.17232 0.51017 0.36913 0.0
C160 C 0.14546 0.49723 0.36823 0.0
C161 C 0.1229 0.50407 0.41528 0.0
C162 C 0.19629 0.50217 0.31951 0.0
C163 C 0.22564 0.49908 0.34338 0.0
C164 C 0.24805 0.49069 0.29634 0.0
C165 C 0.24092 0.48476 0.22449 0.0
C166 C 0.21137 0.48808 0.20041 0.0
C167 C 0.18957 0.49697 0.2478 0.0
C168 C 0.20111 0.48378 0.12587 0.0
C169 C 0.19057 0.50866 0.07718 0.0
C170 C 0.19036 0.457 0.118 0.0
C171 C 0.16707 0.45575 0.06825 0.0
C172 C 0.15378 0.48141 0.02766 0.0
C173 C 0.27849 0.4893 0.3249 0.0
C174 C 0.29044 0.51522 0.33525 0.0
C175 C 0.29216 0.46282 0.35954 0.0
C176 C 0.3162 0.46242 0.40813 0.0
C177 C 0.32649 0.48855 0.42315 0.0
C178 C 0.31427 0.51485 0.38384 0.0
C179 C 0.16684 0.50758 0.02937 0.0
H180 H 0.15682 0.55163 0.50523 0.0
H181 H 0.19615 0.5411 0.41889 0.0
H182 H 0.1421 0.48107 0.33288 0.0
H183 H 0.10276 0.49314 0.41544 0.0
H184 H 0.23121 0.50284 0.39922 0.0
H185 H 0.16701 0.50014 0.22774 0.0
H186 H 0.25801 0.47834 0.18768 0.0
H187 H 0.19807 0.52962 0.08327 0.0
H188 H 0.19768 0.43763 0.1561 0.0
H189 H 0.15775 0.43523 0.06654 0.0
H190 H 0.27988 0.53588 0.31018 0.0
H191 H 0.28287 0.44263 0.35365 0.0
H192 H 0.15732 0.5276 0.99769 0.0
H193 H 0.32195 0.5352 0.39452 0.0
H194 H 0.3254 0.44193 0.43795 0.0
C195 C 0.93048 0.16797 0.49741 0.0
C196 C 0.95266 0.14591 0.51846 0.0
C197 C 0.93711 0.19361 0.45196 0.0
C198 C 0.96576 0.19705 0.42582 0.0
C199 C 0.98777 0.17485 0.4461 0.0
C200 C 0.98131 0.14953 0.49258 0.0
C201 C 0.97245 0.2229 0.3732 0.0
C202 C 0.97224 0.24996 0.39616 0.0
C203 C 0.97942 0.27456 0.34614 0.0
C204 C 0.9866 0.27155 0.27118 0.0
C205 C 0.98572 0.24421 0.24738 0.0
C206 C 0.97934 0.22012 0.29966 0.0
C207 C 0.99061 0.23895 0.16908 0.0
C208 C 0.01839 0.24107 0.13611 0.0
C209 C 0.96965 0.22399 0.13639 0.0
C210 C 0.9775 0.2079 0.07985 0.0
C211 C 0.00628 0.20706 0.05278 0.0
C212 C 0.97947 0.3026 0.37567 0.0
C213 C 0.95633 0.31045 0.42159 0.0
C214 C 0.00423 0.31902 0.36916 0.0
C215 C 0.00662 0.34139 0.41208 0.0
C216 C 0.98438 0.34748 0.46248 0.0
C217 C 0.95883 0.33245 0.46474 0.0
C218 C 0.02598 0.22567 0.07706 0.0
H219 H 0.90823 0.16534 0.51653 0.0
H220 H 0.91982 0.21046 0.43583 0.0
H221 H 0.00992 0.17713 0.42577 0.0
H222 H 0.99862 0.13264 0.50812 0.0
H223 H 0.96724 0.25163 0.45403 0.0
H224 H 0.97938 0.19888 0.28272 0.0
H225 H 0.99185 0.29027 0.23163 0.0
H226 H 0.035 0.25234 0.16026 0.0
H227 H 0.94798 0.22218 0.16029 0.0
H228 H 0.96163 0.19431 0.06134 0.0
H229 H 0.93681 0.29845 0.42719 0.0
H230 H 0.02246 0.31341 0.33468 0.0
H231 H 0.04812 0.22595 0.05573 0.0
H232 H 0.94128 0.33693 0.50246 0.0
H233 H 0.02644 0.3529 0.40898 0.0
C234 C 0.32997 0.02115 0.5604 0.0
C235 C 0.35053 0.04105 0.57068 0.0
C236 C 0.30493 0.03016 0.51671 0.0
C237 C 0.30052 0.05901 0.48148 0.0
C238 C 0.32075 0.07908 0.4926 0.0
C239 C 0.34548 0.07022 0.53794 0.0
C240 C 0.27642 0.0668 0.42692 0.0
C241 C 0.24752 0.06494 0.45024 0.0
C242 C 0.22455 0.0649 0.39844 0.0
C243 C 0.2311 0.0678 0.32106 0.0
C244 C 0.26047 0.07046 0.29749 0.0
C245 C 0.28269 0.07048 0.35092 0.0
C246 C 0.27053 0.06879 0.22032 0.0
C247 C 0.2853 0.04272 0.20743 0.0
C248 C 0.2753 0.09438 0.17142 0.0
C249 C 0.29661 0.09431 0.11542 0.0
C250 C 0.31416 0.06884 0.10963 0.0
C251 C 0.1949 0.05899 0.42913 0.0
C252 C 0.19278 0.03764 0.49249 0.0
C253 C 0.16942 0.07619 0.40271 0.0
C254 C 0.14281 0.07292 0.44151 0.0
C255 C 0.14157 0.05282 0.50786 0.0
C256 C 0.16675 0.03498 0.53192 0.0
C257 C 0.30709 0.04278 0.15314 0.0
H258 H 0.33367 0.99855 0.58478 0.0
H259 H 0.28963 0.01434 0.50764 0.0
H260 H 0.31772 0.10134 0.46507 0.0
H261 H 0.36126 0.08581 0.54526 0.0
H262 H 0.24321 0.06216 0.50982 0.0
H263 H 0.30542 0.07099 0.33351 0.0
H264 H 0.21399 0.06654 0.28045 0.0
H265 H 0.28246 0.02282 0.2453 0.0
H266 H 0.26472 0.11485 0.18124 0.0
H267 H 0.30145 0.11462 0.08187 0.0
H268 H 0.21172 0.02347 0.51337 0.0
H269 H 0.17035 0.09278 0.35406 0.0
H270 H 0.32006 0.02281 0.14942 0.0
H271 H 0.16631 0.01895 0.58197 0.0
H272 H 0.12347 0.08651 0.42098 0.0
C273 C 0.47133 0.35049 0.14352 0.0
C274 C 0.49364 0.36828 0.11491 0.0
C275 C 0.47701 0.3286 0.20554 0.0
C276 C 0.50525 0.32366 0.23792 0.0
C277 C 0.528 0.33956 0.20413 0.0
C278 C 0.52218 0.36187 0.14443 0.0
C279 C 0.50966 0.3096 0.31687 0.0
C280 C 0.50759 0.27971 0.34261 0.0
C281 C 0.51389 0.2683 0.41884 0.0
C282 C 0.52111 0.28742 0.46792 0.0
C283 C 0.52313 0.31693 0.44231 0.0
C284 C 0.51718 0.32774 0.3674 0.0
C285 C 0.5302 0.33701 0.49403 0.0
C286 C 0.51495 0.33667 0.56082 0.0
C287 C 0.54984 0.35848 0.47357 0.0
C288 C 0.55424 0.3792 0.51954 0.0
C289 C 0.53998 0.37851 0.58918 0.0
C290 C 0.51364 0.23677 0.44988 0.0
C291 C 0.49081 0.21995 0.43358 0.0
C292 C 0.5352 0.22405 0.50299 0.0
C293 C 0.533 0.19623 0.54241 0.0
C294 C 0.50958 0.17989 0.52875 0.0
C295 C 0.4889 0.19167 0.47242 0.0
C296 C 0.51915 0.35738 0.60639 0.0
H297 H 0.44926 0.35467 0.12072 0.0
H298 H 0.45898 0.31705 0.23135 0.0
H299 H 0.54989 0.33643 0.22847 0.0
H300 H 0.53988 0.37491 0.1229 0.0
H301 H 0.50213 0.26549 0.30358 0.0
H302 H 0.51797 0.35079 0.34816 0.0
H303 H 0.52525 0.27937 0.52675 0.0
H304 H 0.4985 0.32128 0.57603 0.0
H305 H 0.56125 0.35976 0.42077 0.0
H306 H 0.56778 0.39632 0.49713 0.0
H307 H 0.47384 0.22902 0.39319 0.0
H308 H 0.55355 0.23597 0.51576 0.0
H309 H 0.50439 0.35713 0.65282 0.0
H310 H 0.47084 0.1793 0.46015 0.0
H311 H 0.54946 0.18755 0.5846 0.0
Co312 Co 0.01013 0.02973 0.83764 0.0
C313 C 0.9633 0.99539 0.8922 0.0
Co314 Co 0.00087 0.99349 0.77659 0.0
C315 C 0.01822 0.08868 0.87475 0.0
C316 C 0.0089 0.05644 0.96758 0.0
N317 N 0.01335 0.06018 0.89298 0.0
N318 N 0.01643 0.10255 0.93537 0.0
C319 C 0.01068 0.08218 0.99342 0.0
H320 H 0.0226 0.09907 0.8185 0.0
H321 H 0.00423 0.0362 1.00143 0.0
C322 C 0.04722 0.02774 0.71932 0.0
N323 N 0.99838 0.96195 0.72412 0.0
C324 C 0.97651 0.95249 0.68522 0.0
C325 C 0.02152 0.94283 0.71829 0.0
N326 N 0.98555 0.92839 0.65616 0.0
C327 C 0.01376 0.92242 0.67691 0.0
C328 C 0.9699 0.04393 0.71829 0.0
O329 O 0.04245 0.04137 0.77456 0.0
O330 O 0.03153 0.00696 0.71185 0.0
O331 O 0.97345 0.0173 0.71106 0.0
O332 O 0.98404 0.05307 0.76958 0.0
O333 O 0.96988 0.9806 0.84057 0.0
H334 H 0.04297 0.94351 0.74254 0.0
H335 H 0.95467 0.9631 0.67771 0.0
O336 O 0.97753 0.01722 0.89893 0.0
O337 O 0.03634 0.00618 0.90538 0.0
O338 O 0.0286 0.9705 0.84496 0.0
C339 C 0.04144 0.97995 0.89772 0.0
H340 H 0.00794 0.0858 0.05081 0.0
H341 H 0.0278 0.90458 0.66244 0.0
Co342 Co 0.49288 0.02972 0.84895 0.0
C343 C 0.50347 0.96863 0.88596 0.0
Co344 Co 0.51782 0.00811 0.76495 0.0
C345 C 0.44085 0.05511 0.91579 0.0
C346 C 0.47511 0.03912 0.99542 0.0
N347 N 0.46921 0.04421 0.9212 0.0
N348 N 0.42882 0.05613 0.98379 0.0
C349 C 0.45044 0.0464 0.03378 0.0
H350 H 0.42859 0.06023 0.86362 0.0
H351 H 0.49539 0.02873 0.02053 0.0
C352 C 0.50715 0.06899 0.72727 0.0
N353 N 0.54149 0.99349 0.69295 0.0
C354 C 0.57007 0.98336 0.69878 0.0
C355 C 0.53561 0.99787 0.61872 0.0
N356 N 0.58233 0.98243 0.63104 0.0
C357 C 0.56056 0.99118 0.58077 0.0
C358 C 0.45915 0.0131 0.73532 0.0
O359 O 0.49455 0.06746 0.79064 0.0
O360 O 0.51862 0.04587 0.70751 0.0
O361 O 0.48326 1.0027 0.71231 0.0
O362 O 0.45879 0.02434 0.79481 0.0
O363 O 0.51625 0.97046 0.82287 0.0
H364 H 0.51515 0.00745 0.59312 0.0
H365 H 0.58235 0.97892 0.75099 0.0
O366 O 0.492 0.99168 0.90633 0.0
O367 O 0.52725 0.03529 0.90148 0.0
O368 O 0.55207 0.01401 0.81877 0.0
C369 C 0.55152 0.0259 0.87721 0.0
H370 H 0.44806 0.04339 0.09402 0.0
H371 H 0.56304 0.99408 0.52057 0.0
Co372 Co 0.5205 0.51842 0.82024 0.0
C373 C 0.48908 0.47409 0.89819 0.0
Co374 Co 0.475 0.51717 0.77748 0.0
C375 C 0.56891 0.53644 0.9032 0.0
C376 C 0.5791 0.49583 0.86547 0.0
N377 N 0.55819 0.51794 0.86105 0.0
N378 N 0.59525 0.52643 0.934 0.0
C379 C 0.6019 0.50106 0.91004 0.0
H380 H 0.55718 0.55617 0.91427 0.0
H381 H 0.57733 0.47631 0.84131 0.0
C382 C 0.50713 0.56135 0.70028 0.0
N383 N 0.43713 0.5175 0.7367 0.0
C384 C 0.42719 0.50057 0.68903 0.0
C385 C 0.41515 0.53826 0.73851 0.0
N386 N 0.4004 0.51036 0.66062 0.0
C387 C 0.39262 0.53387 0.69203 0.0
C388 C 0.47942 0.55316 0.88358 0.0
O389 O 0.52804 0.55018 0.74442 0.0
O390 O 0.48252 0.55001 0.70461 0.0
O391 O 0.46118 0.5426 0.84432 0.0
O392 O 0.50642 0.54497 0.88227 0.0
O393 O 0.46836 0.48403 0.85186 0.0
H394 H 0.41592 0.55649 0.76826 0.0
H395 H 0.43981 0.48236 0.67193 0.0
O396 O 0.51273 0.48693 0.89574 0.0
O397 O 0.53382 0.49138 0.75695 0.0
O398 O 0.48932 0.4918 0.71174 0.0
C399 C 0.5158 0.48171 0.71511 0.0
H400 H 0.6213 0.48684 0.9262 0.0
H401 H 0.37264 0.54762 0.67945 0.0
Co402 Co 0.99954 0.54012 0.79123 0.0
C403 C 0.04114 0.50088 0.87308 0.0
Co404 Co 0.99554 0.49404 0.77834 0.0
C405 C 0.98667 0.59197 0.86038 0.0
C406 C 0.02573 0.59438 0.79519 0.0
N407 N 0.00273 0.57798 0.81201 0.0
N408 N 0.99918 0.61573 0.87548 0.0
C409 C 0.02357 0.61751 0.83397 0.0
H410 H 0.96731 0.58396 0.88855 0.0
H411 H 0.04413 0.58888 0.76131 0.0
C412 C 0.95458 0.53361 0.69535 0.0
N413 N 0.99248 0.45643 0.7579 0.0
C414 C 0.99361 0.4479 0.68964 0.0
C415 C 0.9879 0.43214 0.80592 0.0
N416 N 0.98973 0.41945 0.69314 0.0
C417 C 0.98612 0.40939 0.76624 0.0
C418 C 0.96026 0.51003 0.88722 0.0
O419 O 0.96836 0.55282 0.72085 0.0
O420 O 0.96315 0.50704 0.71392 0.0
O421 O 0.96893 0.48784 0.85877 0.0
O422 O 0.97171 0.5338 0.8671 0.0
O423 O 0.02853 0.48173 0.84418 0.0
H424 H 0.98585 0.43104 0.86587 0.0
H425 H 0.99698 0.46227 0.63793 0.0
O426 O 0.03076 0.52708 0.86061 0.0
O427 O 0.02731 0.54541 0.71346 0.0
O428 O 0.02163 0.50066 0.69767 0.0
C429 C 0.034 0.52406 0.67971 0.0
H430 H 0.03956 0.63343 0.83517 0.0
H431 H 0.98254 0.38717 0.78911 0.0
C432 C 0.10364 0.02085 0.56616 0.0
C433 C 0.11418 0.04881 0.55253 0.0
C434 C 0.07667 0.06483 0.63766 0.0
C435 C 0.0706 0.03549 0.66273 0.0
N436 N 0.08533 0.98487 0.66035 0.0
N437 N 0.11317 0.09701 0.58499 0.0
C438 C 0.08587 0.01327 0.62923 0.0
C439 C 0.10134 0.07081 0.59075 0.0
N440 N 0.11084 1.00132 0.51922 0.0
N441 N 0.05833 0.08704 0.655 0.0
H442 H 0.13138 0.10221 0.55229 0.0
H443 H 0.10635 0.11258 0.61792 0.0
H444 H 0.03883 0.08385 0.68395 0.0
H445 H 0.06065 0.10863 0.63254 0.0
H446 H 0.10167 0.98137 0.52353 0.0
H447 H 0.12334 0.00646 0.4713 0.0
H448 H 0.09809 0.96829 0.641 0.0
H449 H 0.07551 0.97835 0.71129 0.0
C450 C 0.48341 0.14484 0.6235 0.0
C451 C 0.50729 0.15055 0.57442 0.0
C452 C 0.53225 0.10396 0.62955 0.0
C453 C 0.50721 0.09704 0.6742 0.0
N454 N 0.45531 0.10785 0.6922 0.0
N455 N 0.55054 0.13174 0.51694 0.0
C456 C 0.48169 0.1166 0.66512 0.0
C457 C 0.53047 0.12887 0.57316 0.0
N458 N 0.46281 0.16652 0.63282 0.0
N459 N 0.55829 0.08771 0.64258 0.0
H460 H 0.54949 0.14932 0.47363 0.0
H461 H 0.56617 0.11526 0.50889 0.0
H462 H 0.56143 0.06977 0.68416 0.0
H463 H 0.57779 0.09385 0.61693 0.0
H464 H 0.44672 0.16406 0.67373 0.0
H465 H 0.46346 0.18766 0.60491 0.0
H466 H 0.4357 0.12056 0.68099 0.0
H467 H 0.45228 0.08672 0.71738 0.0
C468 C 0.33809 0.48415 0.56098 0.0
C469 C 0.3477 0.48913 0.48552 0.0
C470 C 0.39367 0.50615 0.52678 0.0
C471 C 0.38438 0.50034 0.60209 0.0
N472 N 0.35142 0.47816 0.69287 0.0
N473 N 0.38685 0.49869 0.39811 0.0
C474 C 0.35774 0.48739 0.61964 0.0
C475 C 0.37631 0.49808 0.469 0.0
N476 N 0.30969 0.47804 0.57642 0.0
N477 N 0.41818 0.5209 0.51017 0.0
H478 H 0.37459 0.49282 0.35485 0.0
H479 H 0.40849 0.50242 0.3839 0.0
H480 H 0.43114 0.52745 0.55104 0.0
H481 H 0.42442 0.5286 0.45576 0.0
H482 H 0.30057 0.47748 0.62933 0.0
H483 H 0.29441 0.47568 0.53539 0.0
H484 H 0.33369 0.466 0.7098 0.0
H485 H 0.36559 0.48046 0.73652 0.0
C486 C 0.00889 0.36073 0.57694 0.0
C487 C 0.98815 0.36799 0.51707 0.0
C488 C 0.96793 0.40919 0.5749 0.0
C489 C 0.98987 0.40299 0.6317 0.0
N490 N 0.03541 0.37745 0.67643 0.0
N491 N 0.95214 0.4027 0.45078 0.0
C492 C 0.01164 0.38013 0.62944 0.0
C493 C 0.96898 0.39341 0.51348 0.0
N494 N 0.02489 0.33465 0.58627 0.0
N495 N 0.94524 0.42916 0.58164 0.0
H496 H 0.9527 0.39184 0.40454 0.0
H497 H 0.93982 0.4225 0.44176 0.0
H498 H 0.94337 0.44043 0.62698 0.0
H499 H 0.92698 0.43264 0.54606 0.0
H500 H 0.0379 0.32698 0.63346 0.0
H501 H 0.02323 0.31945 0.55036 0.0
H502 H 0.05351 0.36296 0.67269 0.0
H503 H 0.03832 0.39179 0.7141 0.0
C504 C 0.92201 0.96919 0.0698 0.0
C505 C 0.89313 0.98092 0.04943 0.0
C506 C 0.90985 1.00003 0.9232 0.0
C507 C 0.93864 0.98808 0.94351 0.0
N508 N 0.97138 0.95678 0.02931 0.0
N509 N 0.85823 1.00417 0.95497 0.0
C510 C 0.94449 0.97131 0.01492 0.0
C511 C 0.88667 0.99532 0.97543 0.0
N512 N 0.92803 0.95666 0.14212 0.0
N513 N 0.90492 0.01651 0.85443 0.0
H514 H 0.84083 1.00237 0.99231 0.0
H515 H 0.85138 0.01182 0.90019 0.0
H516 H 0.92087 0.01866 0.81311 0.0
H517 H 0.88557 0.02905 0.8389 0.0
H518 H 0.94914 0.95054 0.16309 0.0
H519 H 0.9119 0.95391 0.18294 0.0
H520 H 0.97628 0.94169 0.07699 0.0
H521 H 0.98819 0.95792 0.99018 0.0
C522 C 0.52605 0.89158 0.98369 0.0
C523 C 0.50166 0.88525 0.03054 0.0
C524 C 0.47748 0.93272 0.97961 0.0
C525 C 0.50295 0.94014 0.93721 0.0
N526 N 0.55486 0.92911 0.92012 0.0
N527 N 0.45788 0.90313 0.08757 0.0
C528 C 0.52825 0.92029 0.94529 0.0
C529 C 0.47856 0.90691 0.03301 0.0
N530 N 0.54669 0.87007 0.97338 0.0
N531 N 0.45167 0.94934 0.96684 0.0
H532 H 0.45831 0.88481 0.12863 0.0
H533 H 0.44226 0.91945 0.09684 0.0
H534 H 0.44911 0.96791 0.92714 0.0
H535 H 0.43188 0.94303 0.99043 0.0
H536 H 0.56318 0.87301 0.93366 0.0
H537 H 0.54574 0.84867 0.9992 0.0
H538 H 0.57434 0.91616 0.93094 0.0
H539 H 0.55816 0.9504 0.89688 0.0
C540 C 0.62178 0.54604 0.1161 0.0
C541 C 0.64948 0.55603 0.09359 0.0
C542 C 0.63819 0.55155 0.96331 0.0
C543 C 0.61211 0.53861 0.98709 0.0
N544 N 0.57973 0.52081 0.08563 0.0
N545 N 0.68589 0.56529 0.99743 0.0
C546 C 0.60391 0.53532 0.06339 0.0
C547 C 0.65814 0.55817 0.01745 0.0
N548 N 0.61249 0.54715 0.18749 0.0
N549 N 0.64352 0.55778 0.88843 0.0
H550 H 0.70127 0.57038 0.03507 0.0
H551 H 0.69455 0.56405 0.9447 0.0
H552 H 0.62914 0.55295 0.84797 0.0
H553 H 0.66064 0.56985 0.86625 0.0
H554 H 0.5914 0.54286 0.20562 0.0
H555 H 0.6253 0.55456 0.22739 0.0
H556 H 0.57407 0.51495 0.14138 0.0
H557 H 0.56626 0.51285 0.04813 0.0
C558 C 0.98115 0.68172 0.96597 0.0
C559 C 0.98323 0.66971 0.04321 0.0
C560 C 0.99443 0.62135 0.00953 0.0
C561 C 0.99122 0.6332 0.93257 0.0
N562 N 0.97547 0.67296 0.83789 0.0
N563 N 0.98519 0.62758 0.1385 0.0
C564 C 0.98257 0.66291 0.91109 0.0
C565 C 0.98765 0.63928 0.0649 0.0
N566 N 0.97946 0.71109 0.94477 0.0
N567 N 0.00572 0.59345 0.02964 0.0
H568 H 0.98019 0.6402 0.18016 0.0
H569 H 0.98535 0.60539 0.15711 0.0
H570 H 0.01179 0.57995 0.99075 0.0
H571 H 0.01147 0.58445 0.08447 0.0
H572 H 0.98129 0.72103 0.8895 0.0
H573 H 0.97843 0.72569 0.98286 0.0
H574 H 0.96628 0.69379 0.81912 0.0
H575 H 0.97632 0.65946 0.79702 0.0
C576 C 0.94861 0.09237 0.53703 0.0
C577 C 0.94646 0.11861 0.56722 0.0
C578 C 0.94136 0.09127 0.69208 0.0
C579 C 0.95202 0.06578 0.66489 0.0
N580 N 0.95881 0.04027 0.55894 0.0
N581 N 0.93984 0.14352 0.67409 0.0
C582 C 0.95289 0.06557 0.58636 0.0
C583 C 0.94173 0.11829 0.64474 0.0
N584 N 0.94634 0.0933 0.4613 0.0
N585 N 0.93167 0.08943 0.76396 0.0
H586 H 0.94037 0.16388 0.64157 0.0
H587 H 0.93972 0.1442 0.73137 0.0
H588 H 0.93108 0.06957 0.79901 0.0
H589 H 0.92156 0.10689 0.78573 0.0
H590 H 0.94532 0.07505 0.43539 0.0
H591 H 0.94285 0.11275 0.4245 0.0
H592 H 0.96476 0.03927 0.50381 0.0
H593 H 0.957 0.02002 0.59091 0.0
C594 C 0.40523 0.03363 0.57243 0.0
C595 C 0.37839 0.031 0.61128 0.0
C596 C 0.4053 0.00837 0.72439 0.0
C597 C 0.43203 0.01592 0.68934 0.0
N598 N 0.45621 0.04223 0.58302 0.0
N599 N 0.35296 0.01975 0.72823 0.0
C600 C 0.43183 0.03008 0.61387 0.0
C601 C 0.37836 0.0193 0.68844 0.0
N602 N 0.40541 0.03921 0.49598 0.0
N603 N 0.40571 0.99027 0.79124 0.0
H604 H 0.33283 0.0283 0.70434 0.0
H605 H 0.35242 0.01417 0.78627 0.0
H606 H 0.42523 0.98077 0.81654 0.0
H607 H 0.38688 0.98217 0.81659 0.0
H608 H 0.42468 0.0387 0.46521 0.0
H609 H 0.38633 0.04124 0.4633 0.0
H610 H 0.4559 0.05533 0.53083 0.0
H611 H 0.47582 0.04213 0.61221 0.0
C612 C 0.52507 0.40225 0.70106 0.0
C613 C 0.54287 0.40191 0.63783 0.0
C614 C 0.54868 0.45369 0.63585 0.0
C615 C 0.52425 0.45486 0.68423 0.0
N616 N 0.4869 0.4286 0.75728 0.0
N617 N 0.58709 0.42261 0.59081 0.0
C618 C 0.51163 0.42873 0.71499 0.0
C619 C 0.55934 0.42642 0.61691 0.0
N620 N 0.52394 0.37787 0.75268 0.0
N621 N 0.56091 0.4786 0.6058 0.0
H622 H 0.597 0.40189 0.58999 0.0
H623 H 0.60136 0.43913 0.58062 0.0
H624 H 0.55335 0.4989 0.61781 0.0
H625 H 0.57681 0.47932 0.56441 0.0
H626 H 0.51228 0.37743 0.80227 0.0
H627 H 0.53714 0.35911 0.7481 0.0
H628 H 0.47643 0.40969 0.77515 0.0
H629 H 0.47526 0.44713 0.76884 0.0
C630 C 0.10518 0.50326 0.58607 0.0
C631 C 0.10507 0.52585 0.52413 0.0
C632 C 0.05843 0.54726 0.56368 0.0
C633 C 0.0585 0.5249 0.62629 0.0
N634 N 0.0843 0.48396 0.70416 0.0
N635 N 0.08198 0.57022 0.455 0.0
C636 C 0.08245 0.50342 0.63927 0.0
C637 C 0.08221 0.54816 0.51375 0.0
N638 N 0.12664 0.48106 0.59261 0.0
N639 N 0.0352 0.56743 0.54985 0.0
H640 H 0.09852 0.57267 0.41517 0.0
H641 H 0.09852 0.57267 0.41517 0.0
H642 H 0.01627 0.56695 0.58208 0.0
H643 H 0.0346 0.58417 0.50435 0.0
H644 H 0.1256 0.46165 0.629 0.0
H645 H 0.14506 0.4812 0.55852 0.0
H646 H 0.10293 0.47055 0.72152 0.0
H647 H 0.06836 0.48273 0.7451 0.0
C648 C 0.07945 0.90891 0.97863 0.0
C649 C 0.06413 0.90532 0.04718 0.0
C650 C 0.05124 0.9574 0.03081 0.0
C651 C 0.05871 0.95909 0.95451 0.0
N652 N 0.08797 0.94023 0.86119 0.0
N653 N 0.03531 0.92633 0.14027 0.0
C654 C 0.07579 0.93596 0.93048 0.0
C655 C 0.05059 0.92972 0.07488 0.0
N656 N 0.0969 0.8863 0.95988 0.0
N657 N 0.04496 0.98202 0.06102 0.0
H658 H 0.03379 0.90644 0.17435 0.0
H659 H 0.02225 0.94304 0.15807 0.0
H660 H 0.04818 1.00249 0.03181 0.0
H661 H 0.04096 0.98195 0.11776 0.0
H662 H 0.10962 0.88747 0.91199 0.0
H663 H 0.10003 0.86653 0.99554 0.0
H664 H 0.0984 0.92399 0.83551 0.0
H665 H 0.08779 0.96093 0.8301 0.0
C666 C 0.61362 1.00239 0.01639 0.0
C667 C 0.63471 0.02205 0.98802 0.0
C668 C 0.60005 0.04614 0.89079 0.0
C669 C 0.57901 0.02655 0.91937 0.0
N670 N 0.56329 0.98904 0.01476 0.0
N671 N 0.64833 0.06385 0.90357 0.0
C672 C 0.58506 1.00557 0.9839 0.0
C673 C 0.62802 0.04431 0.92656 0.0
N674 N 0.62119 0.98031 0.07352 0.0
N675 N 0.59302 0.06649 0.82952 0.0
H676 H 0.66936 0.06238 0.92695 0.0
H677 H 0.64436 0.08213 0.86336 0.0
H678 H 0.57174 0.07025 0.80773 0.0
H679 H 0.60793 0.07948 0.79972 0.0
H680 H 0.60832 0.9631 0.0908 0.0
H681 H 0.64134 0.97806 0.10166 0.0
H682 H 0.56512 0.97547 0.06606 0.0
H683 H 0.54228 0.99026 0.99165 0.0
C684 C 0.45174 0.62638 0.93191 0.0
C685 C 0.46467 0.62428 0.00387 0.0
C686 C 0.47862 0.57293 0.00348 0.0
C687 C 0.47021 0.57636 0.92705 0.0
N688 N 0.45175 0.60759 0.81488 0.0
N689 N 0.49321 0.59644 0.10627 0.0
C690 C 0.45712 0.60328 0.89034 0.0
C691 C 0.47862 0.5977 0.03966 0.0
N692 N 0.4343 0.65047 0.90347 0.0
N693 N 0.4863 0.54589 0.04154 0.0
H694 H 0.49388 0.61409 0.13479 0.0
H695 H 0.50664 0.57853 0.13037 0.0
H696 H 0.48595 0.52723 0.0167 0.0
H697 H 0.4901 0.54165 0.09913 0.0
H698 H 0.42188 0.65202 0.8545 0.0
H699 H 0.43008 0.66785 0.9326 0.0
H700 H 0.44568 0.62782 0.78412 0.0
H701 H 0.45578 0.59163 0.78133 0.0
C702 C 0.9086 0.52987 0.03497 0.0
C703 C 0.88355 0.53872 0.98822 0.0
C704 C 0.90618 0.51454 0.8901 0.0
C705 C 0.9331 0.51108 0.93061 0.0
N706 N 0.96066 0.51531 0.04111 0.0
N707 N 0.85927 0.54192 0.86832 0.0
C708 C 0.93442 0.51838 0.00346 0.0
C709 C 0.88234 0.53139 0.91521 0.0
N710 N 0.90751 0.53203 0.10947 0.0
N711 N 0.9036 0.50221 0.82695 0.0
H712 H 0.84156 0.55479 0.88424 0.0
H713 H 0.85891 0.5401 0.81165 0.0
H714 H 0.92041 0.48906 0.8082 0.0
H715 H 0.88386 0.50228 0.79809 0.0
H716 H 0.92422 0.52357 0.14744 0.0
H717 H 0.88876 0.53993 0.13475 0.0
H718 H 0.964 0.52368 0.09029 0.0
H719 H 0.97949 0.50534 0.02079 0.0
C720 C 0.03704 0.16131 0.03439 0.0
C721 C 0.01566 0.18407 0.00652 0.0
C722 C 0.99943 0.1549 0.91405 0.0
C723 C 0.02053 0.13231 0.94285 0.0
N724 N 0.06569 0.11826 0.00986 0.0
N725 N 0.9835 0.20591 0.90468 0.0
C726 C 0.04173 0.13737 0.99528 0.0
C727 C 0.99935 0.18202 0.94074 0.0
N728 N 0.05083 0.16081 0.10173 0.0
N729 N 0.97822 0.14988 0.86551 0.0
H730 H 0.98347 0.22601 0.92281 0.0
H731 H 0.97298 0.20642 0.85331 0.0
H732 H 0.97768 0.13037 0.84489 0.0
H733 H 0.96022 0.16442 0.84942 0.0
H734 H 0.06409 0.14307 0.12758 0.0
H735 H 0.04699 0.17659 0.13579 0.0
H736 H 0.08327 0.12177 0.0433 0.0
H737 H 0.06912 0.10048 0.98169 0.0
C738 C 0.36564 0.08519 0.0878 0.0
C739 C 0.3422 0.06956 0.06645 0.0
C740 C 0.37587 0.04595 0.98468 0.0
C741 C 0.39861 0.06299 0.0026 0.0
N742 N 0.41266 0.10421 0.05427 0.0
N743 N 0.32345 0.04073 0.98016 0.0
C744 C 0.3925 0.0845 0.04833 0.0
C745 C 0.34682 0.05186 0.00985 0.0
N746 N 0.36332 0.09887 0.14925 0.0
N747 N 0.38225 0.02285 0.94839 0.0
H748 H 0.30193 0.04498 0.99688 0.0
H749 H 0.32514 0.02983 0.93412 0.0
H750 H 0.40338 0.01689 0.93225 0.0
H751 H 0.36706 0.00796 0.9407 0.0
H752 H 0.38093 0.10794 0.17124 0.0
H753 H 0.34491 0.09864 0.18318 0.0
H754 H 0.40847 0.12207 0.08157 0.0
H755 H 0.43234 0.10428 0.02495 0.0
C756 C 0.50513 0.39509 0.98869 0.0
C757 C 0.48808 0.39386 0.05432 0.0
C758 C 0.46719 0.44355 0.00974 0.0
C759 C 0.48745 0.44605 0.9499 0.0
N760 N 0.52953 0.42505 0.89055 0.0
N761 N 0.45619 0.41891 0.13359 0.0
C762 C 0.50755 0.42208 0.94176 0.0
C763 C 0.46964 0.41849 0.06624 0.0
N764 N 0.51888 0.37021 0.971 0.0
N765 N 0.44617 0.46543 0.01406 0.0
H766 H 0.45807 0.40159 0.1774 0.0
H767 H 0.44528 0.43737 0.14866 0.0
H768 H 0.44485 0.48485 0.97683 0.0
H769 H 0.42883 0.46349 0.05145 0.0
H770 H 0.53072 0.3692 0.92227 0.0
H771 H 0.51626 0.34987 0.00215 0.0
H772 H 0.54691 0.40955 0.88908 0.0
H773 H 0.53176 0.44376 0.85251 0.0
C774 C 0.12361 0.49417 0.9103 0.0
C775 C 0.12522 0.48198 0.98686 0.0
C776 C 0.07183 0.47737 0.9853 0.0
C777 C 0.06998 0.49378 0.91246 0.0
N778 N 0.09444 0.52396 0.8135 0.0
N779 N 0.09948 0.4668 0.10178 0.0
C780 C 0.09593 0.50399 0.87717 0.0
C781 C 0.09899 0.47453 0.02572 0.0
N782 N 0.14857 0.49612 0.86877 0.0
N783 N 0.04757 0.46518 0.01673 0.0
H784 H 0.11843 0.46576 0.13438 0.0
H785 H 0.08055 0.46415 0.13348 0.0
H786 H 0.02704 0.46804 0.99028 0.0
H787 H 0.04838 0.45054 0.06647 0.0
H788 H 0.14825 0.50239 0.81085 0.0
H789 H 0.16922 0.48841 0.89101 0.0
H790 H 0.11267 0.53413 0.79061 0.0
H791 H 0.07484 0.53229 0.78705 0.0
C792 C 0.95176 0.865 0.59598 0.0
C793 C 0.96073 0.86879 0.52015 0.0
C794 C 0.97436 0.91786 0.53097 0.0
C795 C 0.9703 0.91195 0.6091 0.0
N796 N 0.95476 0.8809 0.71753 0.0
N797 N 0.98153 0.89863 0.41481 0.0
C798 C 0.9583 0.88597 0.6418 0.0
C799 C 0.9717 0.89546 0.48686 0.0
N800 N 0.93713 0.84127 0.62381 0.0
N801 N 0.98164 0.94484 0.49986 0.0
H802 H 0.98015 0.88284 0.38049 0.0
H803 H 0.99281 0.91613 0.39014 0.0
H804 H 0.98415 0.96118 0.53208 0.0
H805 H 0.98261 0.95179 0.44244 0.0
H806 H 0.92792 0.83817 0.67683 0.0
H807 H 0.93214 0.82571 0.59115 0.0
H808 H 0.9493 0.86116 0.74715 0.0
H809 H 0.95852 0.8965 0.75119 0.0
C810 C 0.66381 0.99078 0.60693 0.0
C811 C 0.6694 0.97441 0.54799 0.0
C812 C 0.62028 0.95641 0.56552 0.0
C813 C 0.61285 0.97717 0.61261 0.0
N814 N 0.62694 0.01761 0.66961 0.0
N815 N 0.65015 0.94489 0.46278 0.0
C816 C 0.63454 0.99507 0.63217 0.0
C817 C 0.64706 0.95767 0.5256 0.0
N818 N 0.68645 1.00244 0.63826 0.0
N819 N 0.6014 0.93566 0.55841 0.0
H820 H 0.66847 0.94645 0.4286 0.0
H821 H 0.63315 0.93513 0.44024 0.0
H822 H 0.58181 0.93419 0.58801 0.0
H823 H 0.60666 0.91834 0.52982 0.0
H824 H 0.68408 0.0125 0.68562 0.0
H825 H 0.70814 0.9993 0.62141 0.0
H826 H 0.6414 0.03301 0.6785 0.0
H827 H 0.60554 0.02273 0.68527 0.0
C828 C 0.51918 0.64014 0.61888 0.0
C829 C 0.51132 0.64047 0.54288 0.0
C830 C 0.50585 0.58799 0.56837 0.0
C831 C 0.51064 0.58822 0.64582 0.0
N832 N 0.51813 0.6153 0.74681 0.0
N833 N 0.49389 0.61561 0.44597 0.0
C834 C 0.51656 0.61446 0.67166 0.0
C835 C 0.5038 0.6146 0.51779 0.0
N836 N 0.52954 0.6643 0.6404 0.0
N837 N 0.50431 0.56214 0.54279 0.0
H838 H 0.49275 0.63445 0.40654 0.0
H839 H 0.48473 0.59834 0.42682 0.0
H840 H 0.50623 0.54222 0.57799 0.0
H841 H 0.50388 0.56016 0.48625 0.0
H842 H 0.53873 0.66458 0.69296 0.0
H843 H 0.53106 0.6836 0.60357 0.0
H844 H 0.51877 0.63439 0.7693 0.0
H845 H 0.51638 0.59716 0.78747 0.0
C846 C 0.88488 0.57339 0.60129 0.0
C847 C 0.87822 0.55454 0.5501 0.0
C848 C 0.9232 0.52469 0.58815 0.0
C849 C 0.92838 0.54148 0.6452 0.0
N850 N 0.90765 0.57634 0.72032 0.0
N851 N 0.88599 0.50669 0.51658 0.0
C852 C 0.90731 0.56425 0.65633 0.0
C853 C 0.89563 0.52822 0.5513 0.0
N854 N 0.87104 0.60041 0.59581 0.0
N855 N 0.94505 0.5068 0.56502 0.0
H856 H 0.86528 0.50821 0.49126 0.0
H857 H 0.89722 0.48634 0.52065 0.0
H858 H 0.96672 0.50617 0.58354 0.0
H859 H 0.94244 0.49575 0.5199 0.0
H860 H 0.87738 0.61572 0.62769 0.0
H861 H 0.85525 0.60848 0.55495 0.0
H862 H 0.89114 0.59128 0.73289 0.0
H863 H 0.92213 0.56891 0.76479 0.0
loop_
_geom_bond_atom_site_label_1
_geom_bond_atom_site_label_2
_geom_bond_distance
_geom_bond_site_symmetry_2
_ccdc_geom_bond_type
C0 C1 1.386 . S
C0 C2 1.397 . S
C0 H24 0.931 . S
C1 C0 1.386 . S
C1 C5 1.397 . S
C2 C0 1.397 . S
C2 C3 1.384 1_556 S
C2 H25 0.930 . S
C3 C2 1.384 1_554 S
C3 C4 1.377 . S
C3 C6 1.481 . S
C4 C3 1.377 . S
C4 C5 1.389 1_554 S
C4 H26 0.929 . S
C5 C1 1.397 . S
C5 C4 1.389 1_556 S
C5 H27 0.930 1_556 S
C6 C3 1.481 . S
C6 C7 1.387 . S
C6 C11 1.390 . S
C7 C6 1.387 . S
C7 C8 1.401 . S
C7 H28 0.930 . S
C8 C7 1.401 . S
C8 C9 1.376 . S
C8 C17 1.511 . S
C9 C8 1.376 . S
C9 C10 1.392 . S
C9 H30 0.931 . S
C10 C9 1.392 . S
C10 C11 1.361 . S
C10 C12 1.500 . S
C11 C6 1.390 . S
C11 C10 1.361 . S
C11 H29 0.931 . S
C12 C10 1.500 . S
C12 C13 1.371 . S
C12 C14 1.365 . S
C13 C12 1.371 . S
C13 C23 1.386 . S
C13 H31 0.931 . S
C14 C12 1.365 . S
C14 C15 1.409 . S
C14 H32 0.929 . S
C15 C14 1.409 . S
C15 C16 1.380 . S
C15 H33 0.930 . S
C16 C15 1.380 . S
C16 C23 1.357 . S
C17 C8 1.511 . S
C17 C18 1.341 . S
C17 C19 1.371 . S
C18 C17 1.341 . S
C18 C22 1.394 . S
C18 H34 0.930 . S
C19 C17 1.371 . S
C19 C20 1.392 . S
C19 H35 0.931 . S
C20 C19 1.392 . S
C20 C21 1.331 . S
C20 H38 0.932 . S
C21 C20 1.331 . S
C21 C22 1.336 . S
C22 C18 1.394 . S
C22 C21 1.336 . S
C22 H37 0.929 1_554 S
C23 C13 1.386 . S
C23 C16 1.357 . S
C23 H36 0.928 . S
H24 C0 0.931 . S
H25 C2 0.930 . S
H26 C4 0.929 . S
H27 C5 0.930 1_554 S
H28 C7 0.930 . S
H29 C11 0.931 . S
H30 C9 0.931 . S
H31 C13 0.931 . S
H32 C14 0.929 . S
H33 C15 0.930 . S
H34 C18 0.930 . S
H35 C19 0.931 . S
H36 C23 0.928 . S
H37 C22 0.929 1_556 S
H38 C20 0.932 . S
C39 C40 1.395 . S
C39 C41 1.397 . S
C39 H63 0.931 . S
C40 C39 1.395 . S
C40 C44 1.389 1_655 S
C41 C39 1.397 . S
C41 C42 1.389 1_556 S
C41 H64 0.930 . S
C42 C41 1.389 1_554 S
C42 C43 1.372 1_655 S
C42 C45 1.479 . S
C43 C42 1.372 1_455 S
C43 C44 1.389 1_554 S
C43 H65 0.929 . S
C44 C40 1.389 1_455 S
C44 C43 1.389 1_556 S
C44 H66 0.931 . S
C45 C42 1.479 . S
C45 C46 1.391 . S
C45 C50 1.390 . S
C46 C45 1.391 . S
C46 C47 1.400 . S
C46 H67 0.930 . S
C47 C46 1.400 . S
C47 C48 1.376 . S
C47 C56 1.515 . S
C48 C47 1.376 . S
C48 C49 1.393 . S
C48 H69 0.931 . S
C49 C48 1.393 . S
C49 C50 1.362 . S
C49 C51 1.499 1_655 S
C50 C45 1.390 . S
C50 C49 1.362 . S
C50 H68 0.930 . S
C51 C49 1.499 1_455 S
C51 C52 1.360 1_455 S
C51 C53 1.377 . S
C52 C51 1.360 1_655 S
C52 C62 1.386 . S
C52 H70 0.931 . S
C53 C51 1.377 . S
C53 C54 1.409 . S
C53 H71 0.929 . S
C54 C53 1.409 . S
C54 C55 1.380 . S
C54 H72 0.930 . S
C55 C54 1.380 . S
C55 C62 1.357 1_455 S
C56 C47 1.515 . S
C56 C57 1.341 . S
C56 C58 1.371 1_655 S
C57 C56 1.341 . S
C57 C61 1.394 . S
C57 H73 0.930 1_554 S
C58 C56 1.371 1_455 S
C58 C59 1.392 . S
C58 H74 0.931 . S
C59 C58 1.392 . S
C59 C60 1.322 1_455 S
C59 H77 0.932 . S
C60 C59 1.322 1_655 S
C60 C61 1.344 . S
C61 C57 1.394 . S
C61 C60 1.344 . S
C61 H76 0.929 1_554 S
C62 C52 1.386 . S
C62 C55 1.357 1_655 S
C62 H75 0.928 . S
H63 C39 0.931 . S
H64 C41 0.930 . S
H65 C43 0.929 . S
H66 C44 0.931 . S
H67 C46 0.930 . S
H68 C50 0.930 . S
H69 C48 0.931 . S
H70 C52 0.931 . S
H71 C53 0.929 . S
H72 C54 0.930 . S
H73 C57 0.930 1_556 S
H74 C58 0.931 . S
H75 C62 0.928 . S
H76 C61 0.929 1_556 S
H77 C59 0.932 . S
C78 C79 1.386 . S
C78 C80 1.397 . S
C78 H102 0.931 . S
C79 C78 1.386 . S
C79 C83 1.397 . S
C80 C78 1.397 . S
C80 C81 1.384 . S
C80 H103 0.930 . S
C81 C80 1.384 . S
C81 C82 1.377 . S
C81 C84 1.481 1_556 S
C82 C81 1.377 . S
C82 C83 1.389 . S
C82 H104 0.929 1_556 S
C83 C79 1.397 . S
C83 C82 1.389 . S
C83 H105 0.931 . S
C84 C81 1.481 1_554 S
C84 C85 1.387 . S
C84 C89 1.390 . S
C85 C84 1.387 . S
C85 C86 1.401 . S
C85 H106 0.930 1_554 S
C86 C85 1.401 . S
C86 C87 1.376 . S
C86 C95 1.511 . S
C87 C86 1.376 . S
C87 C88 1.392 . S
C87 H108 0.931 . S
C88 C87 1.392 . S
C88 C89 1.361 . S
C88 C90 1.500 . S
C89 C84 1.390 . S
C89 C88 1.361 . S
C89 H107 0.931 . S
C90 C88 1.500 . S
C90 C91 1.371 . S
C90 C92 1.365 . S
C91 C90 1.371 . S
C91 C101 1.386 . S
C91 H109 0.931 . S
C92 C90 1.365 . S
C92 C93 1.409 . S
C92 H110 0.929 . S
C93 C92 1.409 . S
C93 C94 1.380 . S
C93 H111 0.930 . S
C94 C93 1.380 . S
C94 C101 1.357 . S
C95 C86 1.511 . S
C95 C96 1.341 . S
C95 C97 1.371 . S
C96 C95 1.341 . S
C96 C100 1.394 1_554 S
C96 H112 0.930 1_554 S
C97 C95 1.371 . S
C97 C98 1.392 . S
C97 H113 0.931 . S
C98 C97 1.392 . S
C98 C99 1.331 . S
C98 H116 0.932 . S
C99 C98 1.331 . S
C99 C100 1.336 1_554 S
C100 C96 1.394 1_556 S
C100 C99 1.336 1_556 S
C100 H115 0.929 . S
C101 C91 1.386 . S
C101 C94 1.357 . S
C101 H114 0.928 . S
H102 C78 0.931 . S
H103 C80 0.930 . S
H104 C82 0.929 1_554 S
H105 C83 0.931 . S
H106 C85 0.930 1_556 S
H107 C89 0.931 . S
H108 C87 0.931 . S
H109 C91 0.931 . S
H110 C92 0.929 . S
H111 C93 0.930 . S
H112 C96 0.930 1_556 S
H113 C97 0.931 . S
H114 C101 0.928 . S
H115 C100 0.929 . S
H116 C98 0.932 . S
C117 C118 1.386 . S
C117 C119 1.397 . S
C117 H141 0.931 . S
C118 C117 1.386 . S
C118 C122 1.397 . S
C119 C117 1.397 . S
C119 C120 1.384 . S
C119 H142 0.930 . S
C120 C119 1.384 . S
C120 C121 1.377 . S
C120 C123 1.481 . S
C121 C120 1.377 . S
C121 C122 1.389 . S
C121 H143 0.929 . S
C122 C118 1.397 . S
C122 C121 1.389 . S
C122 H144 0.931 . S
C123 C120 1.481 . S
C123 C124 1.387 . S
C123 C128 1.390 . S
C124 C123 1.387 . S
C124 C125 1.401 . S
C124 H145 0.930 . S
C125 C124 1.401 . S
C125 C126 1.376 . S
C125 C134 1.511 . S
C126 C125 1.376 . S
C126 C127 1.392 . S
C126 H147 0.931 . S
C127 C126 1.392 . S
C127 C128 1.361 . S
C127 C129 1.500 . S
C128 C123 1.390 . S
C128 C127 1.361 . S
C128 H146 0.931 . S
C129 C127 1.500 . S
C129 C130 1.371 1_554 S
C129 C131 1.365 . S
C130 C129 1.371 1_556 S
C130 C140 1.386 . S
C130 H148 0.931 . S
C131 C129 1.365 . S
C131 C132 1.409 1_554 S
C131 H149 0.929 . S
C132 C131 1.409 1_556 S
C132 C133 1.380 . S
C132 H150 0.930 1_556 S
C133 C132 1.380 . S
C133 C140 1.357 . S
C134 C125 1.511 . S
C134 C135 1.341 . S
C134 C136 1.371 . S
C135 C134 1.341 . S
C135 C139 1.394 . S
C135 H151 0.930 . S
C136 C134 1.371 . S
C136 C137 1.392 1_554 S
C136 H152 0.931 1_554 S
C137 C136 1.392 1_556 S
C137 C138 1.331 1_556 S
C137 H155 0.932 . S
C138 C137 1.331 1_554 S
C138 C139 1.336 . S
C139 C135 1.394 . S
C139 C138 1.336 . S
C139 H154 0.929 . S
C140 C130 1.386 . S
C140 C133 1.357 . S
C140 H153 0.928 . S
H141 C117 0.931 . S
H142 C119 0.930 . S
H143 C121 0.929 . S
H144 C122 0.931 . S
H145 C124 0.930 . S
H146 C128 0.931 . S
H147 C126 0.931 . S
H148 C130 0.931 . S
H149 C131 0.929 . S
H150 C132 0.930 1_554 S
H151 C135 0.930 . S
H152 C136 0.931 1_556 S
H153 C140 0.928 . S
H154 C139 0.929 . S
H155 C137 0.932 . S
C156 C157 1.386 . S
C156 C158 1.397 . S
C156 H180 0.931 . S
C157 C156 1.386 . S
C157 C161 1.397 . S
C158 C156 1.397 . S
C158 C159 1.384 . S
C158 H181 0.930 . S
C159 C158 1.384 . S
C159 C160 1.377 . S
C159 C162 1.481 . S
C160 C159 1.377 . S
C160 C161 1.389 . S
C160 H182 0.929 . S
C161 C157 1.397 . S
C161 C160 1.389 . S
C161 H183 0.931 . S
C162 C159 1.481 . S
C162 C163 1.387 . S
C162 C167 1.390 . S
C163 C162 1.387 . S
C163 C164 1.401 . S
C163 H184 0.930 . S
C164 C163 1.401 . S
C164 C165 1.376 . S
C164 C173 1.511 . S
C165 C164 1.376 . S
C165 C166 1.392 . S
C165 H186 0.931 . S
C166 C165 1.392 . S
C166 C167 1.361 . S
C166 C168 1.500 . S
C167 C162 1.390 . S
C167 C166 1.361 . S
C167 H185 0.931 . S
C168 C166 1.500 . S
C168 C169 1.371 . S
C168 C170 1.365 . S
C169 C168 1.371 . S
C169 C179 1.386 . S
C169 H187 0.931 . S
C170 C168 1.365 . S
C170 C171 1.409 . S
C170 H188 0.929 . S
C171 C170 1.409 . S
C171 C172 1.380 . S
C171 H189 0.930 . S
C172 C171 1.380 . S
C172 C179 1.357 . S
C173 C164 1.511 . S
C173 C174 1.341 . S
C173 C175 1.371 . S
C174 C173 1.341 . S
C174 C178 1.394 . S
C174 H190 0.930 . S
C175 C173 1.371 . S
C175 C176 1.392 . S
C175 H191 0.931 . S
C176 C175 1.392 . S
C176 C177 1.331 . S
C176 H194 0.932 . S
C177 C176 1.331 . S
C177 C178 1.336 . S
C178 C174 1.394 . S
C178 C177 1.336 . S
C178 H193 0.929 . S
C179 C169 1.386 . S
C179 C172 1.357 . S
C179 H192 0.928 . S
H180 C156 0.931 . S
H181 C158 0.930 . S
H182 C160 0.929 . S
H183 C161 0.931 . S
H184 C163 0.930 . S
H185 C167 0.931 . S
H186 C165 0.931 . S
H187 C169 0.931 . S
H188 C170 0.929 . S
H189 C171 0.930 . S
H190 C174 0.930 . S
H191 C175 0.931 . S
H192 C179 0.928 . S
H193 C178 0.929 . S
H194 C176 0.932 . S
C195 C196 1.389 . S
C195 C197 1.397 . S
C195 H219 0.931 . S
C196 C195 1.389 . S
C196 C200 1.394 1_655 S
C197 C195 1.397 . S
C197 C198 1.383 . S
C197 H220 0.930 . S
C198 C197 1.383 . S
C198 C199 1.378 1_655 S
C198 C201 1.482 . S
C199 C198 1.378 1_455 S
C199 C200 1.389 . S
C199 H221 0.929 . S
C200 C196 1.394 1_455 S
C200 C199 1.389 . S
C200 H222 0.931 . S
C201 C198 1.482 . S
C201 C202 1.386 . S
C201 C206 1.390 . S
C202 C201 1.386 . S
C202 C203 1.403 . S
C202 H223 0.930 . S
C203 C202 1.403 . S
C203 C204 1.376 . S
C203 C212 1.511 . S
C204 C203 1.376 . S
C204 C205 1.394 1_655 S
C204 H225 0.931 . S
C205 C204 1.394 1_455 S
C205 C206 1.361 1_455 S
C205 C207 1.499 . S
C206 C201 1.390 . S
C206 C205 1.361 1_655 S
C206 H224 0.931 . S
C207 C205 1.499 . S
C207 C208 1.358 1_455 S
C207 C209 1.378 . S
C208 C207 1.358 1_655 S
C208 C218 1.386 . S
C208 H226 0.931 . S
C209 C207 1.378 . S
C209 C210 1.409 . S
C209 H227 0.929 . S
C210 C209 1.409 . S
C210 C211 1.384 . S
C210 H228 0.930 . S
C211 C210 1.384 . S
C211 C218 1.354 1_455 S
C212 C203 1.511 . S
C212 C213 1.341 . S
C212 C214 1.371 1_655 S
C213 C212 1.341 . S
C213 C217 1.394 . S
C213 H229 0.930 . S
C214 C212 1.371 1_455 S
C214 C215 1.392 . S
C214 H230 0.931 . S
C215 C214 1.392 . S
C215 C216 1.325 1_455 S
C215 H233 0.932 . S
C216 C215 1.325 1_655 S
C216 C217 1.343 . S
C217 C213 1.394 . S
C217 C216 1.343 . S
C217 H232 0.929 . S
C218 C208 1.386 . S
C218 C211 1.354 1_655 S
C218 H231 0.928 . S
H219 C195 0.931 . S
H220 C197 0.930 . S
H221 C199 0.929 . S
H222 C200 0.931 . S
H223 C202 0.930 . S
H224 C206 0.931 . S
H225 C204 0.931 . S
H226 C208 0.931 . S
H227 C209 0.929 . S
H228 C210 0.930 . S
H229 C213 0.930 . S
H230 C214 0.931 . S
H231 C218 0.928 . S
H232 C217 0.929 . S
H233 C215 0.932 . S
C234 C235 1.386 . S
C234 C236 1.397 . S
C234 H258 0.931 . S
C235 C234 1.386 . S
C235 C239 1.397 . S
C236 C234 1.397 . S
C236 C237 1.384 . S
C236 H259 0.930 . S
C237 C236 1.384 . S
C237 C238 1.377 . S
C237 C240 1.481 . S
C238 C237 1.377 . S
C238 C239 1.389 . S
C238 H260 0.929 . S
C239 C235 1.397 . S
C239 C238 1.389 . S
C239 H261 0.931 . S
C240 C237 1.481 . S
C240 C241 1.387 . S
C240 C245 1.390 . S
C241 C240 1.387 . S
C241 C242 1.401 . S
C241 H262 0.930 . S
C242 C241 1.401 . S
C242 C243 1.376 . S
C242 C251 1.511 . S
C243 C242 1.376 . S
C243 C244 1.392 . S
C243 H264 0.931 . S
C244 C243 1.392 . S
C244 C245 1.361 . S
C244 C246 1.500 . S
C245 C240 1.390 . S
C245 C244 1.361 . S
C245 H263 0.931 . S
C246 C244 1.500 . S
C246 C247 1.371 . S
C246 C248 1.365 . S
C247 C246 1.371 . S
C247 C257 1.386 . S
C247 H265 0.931 . S
C248 C246 1.365 . S
C248 C249 1.409 . S
C248 H266 0.929 . S
C249 C248 1.409 . S
C249 C250 1.380 . S
C249 H267 0.930 . S
C250 C249 1.380 . S
C250 C257 1.357 . S
C251 C242 1.511 . S
C251 C252 1.341 . S
C251 C253 1.371 . S
C252 C251 1.341 . S
C252 C256 1.394 . S
C252 H268 0.930 . S
C253 C251 1.371 . S
C253 C254 1.392 . S
C253 H269 0.931 . S
C254 C253 1.392 . S
C254 C255 1.331 . S
C254 H272 0.932 . S
C255 C254 1.331 . S
C255 C256 1.336 . S
C256 C252 1.394 . S
C256 C255 1.336 . S
C256 H271 0.929 . S
C257 C247 1.386 . S
C257 C250 1.357 . S
C257 H270 0.928 . S
H258 C234 0.931 . S
H259 C236 0.930 . S
H260 C238 0.929 . S
H261 C239 0.931 . S
H262 C241 0.930 . S
H263 C245 0.931 . S
H264 C243 0.931 . S
H265 C247 0.931 . S
H266 C248 0.929 . S
H267 C249 0.930 . S
H268 C252 0.930 . S
H269 C253 0.931 . S
H270 C257 0.928 . S
H271 C256 0.929 . S
H272 C254 0.932 . S
C273 C274 1.386 . S
C273 C275 1.397 . S
C273 H297 0.931 . S
C274 C273 1.386 . S
C274 C278 1.397 . S
C275 C273 1.397 . S
C275 C276 1.384 . S
C275 H298 0.930 . S
C276 C275 1.384 . S
C276 C277 1.377 . S
C276 C279 1.481 . S
C277 C276 1.377 . S
C277 C278 1.389 . S
C277 H299 0.929 . S
C278 C274 1.397 . S
C278 C277 1.389 . S
C278 H300 0.931 . S
C279 C276 1.481 . S
C279 C280 1.387 . S
C279 C284 1.390 . S
C280 C279 1.387 . S
C280 C281 1.401 . S
C280 H301 0.930 . S
C281 C280 1.401 . S
C281 C282 1.376 . S
C281 C290 1.511 . S
C282 C281 1.376 . S
C282 C283 1.392 . S
C282 H303 0.931 . S
C283 C282 1.392 . S
C283 C284 1.361 . S
C283 C285 1.500 . S
C284 C279 1.390 . S
C284 C283 1.361 . S
C284 H302 0.931 . S
C285 C283 1.500 . S
C285 C286 1.371 . S
C285 C287 1.365 . S
C286 C285 1.371 . S
C286 C296 1.386 . S
C286 H304 0.931 . S
C287 C285 1.365 . S
C287 C288 1.409 . S
C287 H305 0.929 . S
C288 C287 1.409 . S
C288 C289 1.380 . S
C288 H306 0.930 . S
C289 C288 1.380 . S
C289 C296 1.357 . S
C290 C281 1.511 . S
C290 C291 1.341 . S
C290 C292 1.371 . S
C291 C290 1.341 . S
C291 C295 1.394 . S
C291 H307 0.930 . S
C292 C290 1.371 . S
C292 C293 1.392 . S
C292 H308 0.931 . S
C293 C292 1.392 . S
C293 C294 1.331 . S
C293 H311 0.932 . S
C294 C293 1.331 . S
C294 C295 1.336 . S
C295 C291 1.394 . S
C295 C294 1.336 . S
C295 H310 0.929 . S
C296 C286 1.386 . S
C296 C289 1.357 . S
C296 H309 0.928 . S
H297 C273 0.931 . S
H298 C275 0.930 . S
H299 C277 0.929 . S
H300 C278 0.931 . S
H301 C280 0.930 . S
H302 C284 0.931 . S
H303 C282 0.931 . S
H304 C286 0.931 . S
H305 C287 0.929 . S
H306 C288 0.930 . S
H307 C291 0.930 . S
H308 C292 0.931 . S
H309 C296 0.928 . S
H310 C295 0.929 . S
H311 C293 0.932 . S
Co312 N317 2.057 . S
Co312 O329 2.021 . S
Co312 O332 2.062 1_455 S
Co312 O336 2.117 1_455 S
Co312 O337 2.020 1_545 S
C313 O333 1.259 1_545 S
C313 O336 1.258 . S
Co314 N323 2.040 1_545 S
Co314 O330 2.125 1_655 S
Co314 O331 2.050 . S
Co314 O333 2.017 1_545 S
Co314 O338 2.038 1_645 S
C315 N317 1.316 . S
C315 N318 1.347 1_556 S
C315 H320 0.931 . S
C316 N317 1.375 1_655 S
C316 C319 1.350 1_556 S
C316 H321 0.930 . S
N317 Co312 2.057 . S
N317 C315 1.316 . S
N317 C316 1.375 1_455 S
N318 C315 1.347 1_554 S
N318 C319 1.373 1_455 S
C319 C316 1.350 1_554 S
C319 N318 1.373 1_655 S
C319 H340 0.931 . S
H320 C315 0.931 . S
H321 C316 0.930 . S
C322 O329 1.259 . S
C322 O330 1.258 . S
N323 Co314 2.040 1_565 S
N323 C324 1.342 . S
N323 C325 1.344 1_655 S
C324 N323 1.342 . S
C324 N326 1.347 . S
C324 H335 0.931 . S
C325 N323 1.344 1_455 S
C325 C327 1.350 . S
C325 H334 0.930 . S
N326 C324 1.347 . S
N326 C327 1.373 1_655 S
C327 C325 1.350 . S
C327 N326 1.373 1_455 S
C327 H341 0.931 . S
C328 O331 1.256 . S
C328 O332 1.255 . S
O329 Co312 2.021 . S
O329 C322 1.259 . S
O330 Co314 2.125 1_455 S
O330 C322 1.258 . S
O331 Co314 2.050 . S
O331 C328 1.256 . S
O332 Co312 2.062 1_655 S
O332 C328 1.255 . S
O333 C313 1.259 1_565 S
O333 Co314 2.017 1_565 S
H334 C325 0.930 . S
H335 C324 0.931 . S
O336 Co312 2.117 1_655 S
O336 C313 1.258 . S
O337 Co312 2.020 1_565 S
O337 C339 1.256 . S
O338 Co314 2.038 1_465 S
O338 C339 1.255 . S
C339 O337 1.256 . S
C339 O338 1.255 . S
H340 C319 0.931 . S
H341 C327 0.931 . S
Co342 N347 2.057 . S
Co342 O359 2.021 . S
Co342 O362 2.062 . S
Co342 O366 2.117 1_545 S
Co342 O367 2.020 . S
C343 O363 1.259 . S
C343 O366 1.258 . S
Co344 N353 2.057 . S
Co344 O360 2.117 . S
Co344 O361 2.020 . S
Co344 O363 2.021 1_545 S
Co344 O368 2.062 1_545 S
C345 N347 1.316 . S
C345 N348 1.347 1_556 S
C345 H350 0.931 . S
C346 N347 1.375 . S
C346 C349 1.350 1_556 S
C346 H351 0.930 1_545 S
N347 Co342 2.057 . S
N347 C345 1.316 . S
N347 C346 1.375 . S
N348 C345 1.347 1_554 S
N348 C349 1.373 . S
C349 C346 1.350 1_554 S
C349 N348 1.373 . S
C349 H370 0.931 . S
H350 C345 0.931 . S
H351 C346 0.930 1_565 S
C352 O359 1.259 . S
C352 O360 1.258 . S
N353 Co344 2.057 . S
N353 C354 1.316 1_545 S
N353 C355 1.375 . S
C354 N353 1.316 1_565 S
C354 N356 1.347 . S
C354 H365 0.931 . S
C355 N353 1.375 . S
C355 C357 1.350 . S
C355 H364 0.930 . S
N356 C354 1.347 . S
N356 C357 1.373 1_565 S
C357 C355 1.350 . S
C357 N356 1.373 1_545 S
C357 H371 0.931 . S
C358 O361 1.256 . S
C358 O362 1.255 . S
O359 Co342 2.021 . S
O359 C352 1.259 . S
O360 Co344 2.117 . S
O360 C352 1.258 . S
O361 Co344 2.020 . S
O361 C358 1.256 . S
O362 Co342 2.062 . S
O362 C358 1.255 . S
O363 C343 1.259 . S
O363 Co344 2.021 1_565 S
H364 C355 0.930 . S
H365 C354 0.931 . S
O366 Co342 2.117 1_565 S
O366 C343 1.258 . S
O367 Co342 2.020 . S
O367 C369 1.256 . S
O368 Co344 2.062 1_565 S
O368 C369 1.255 1_565 S
C369 O367 1.256 . S
C369 O368 1.255 1_545 S
H370 C349 0.931 . S
H371 C357 0.931 . S
Co372 N377 2.057 . S
Co372 O389 2.021 . S
Co372 O392 2.062 . S
Co372 O396 2.117 . S
Co372 O397 2.020 . S
C373 O393 1.259 . S
C373 O396 1.258 . S
Co374 N383 2.057 . S
Co374 O390 2.117 . S
Co374 O391 2.020 . S
Co374 O393 2.021 . S
Co374 O398 2.062 . S
C375 N377 1.316 . S
C375 N378 1.347 . S
C375 H380 0.931 . S
C376 N377 1.375 . S
C376 C379 1.350 . S
C376 H381 0.930 . S
N377 Co372 2.057 . S
N377 C375 1.316 . S
N377 C376 1.375 . S
N378 C375 1.347 . S
N378 C379 1.373 . S
C379 C376 1.350 . S
C379 N378 1.373 . S
C379 H400 0.931 . S
H380 C375 0.931 . S
H381 C376 0.930 . S
C382 O389 1.259 . S
C382 O390 1.258 . S
N383 Co374 2.057 . S
N383 C384 1.316 . S
N383 C385 1.375 . S
C384 N383 1.316 . S
C384 N386 1.347 . S
C384 H395 0.931 . S
C385 N383 1.375 . S
C385 C387 1.350 . S
C385 H394 0.930 . S
N386 C384 1.347 . S
N386 C387 1.373 . S
C387 C385 1.350 . S
C387 N386 1.373 . S
C387 H401 0.931 . S
C388 O391 1.256 . S
C388 O392 1.255 . S
O389 Co372 2.021 . S
O389 C382 1.259 . S
O390 Co374 2.117 . S
O390 C382 1.258 . S
O391 Co374 2.020 . S
O391 C388 1.256 . S
O392 Co372 2.062 . S
O392 C388 1.255 . S
O393 C373 1.259 . S
O393 Co374 2.021 . S
H394 C385 0.930 . S
H395 C384 0.931 . S
O396 Co372 2.117 . S
O396 C373 1.258 . S
O397 Co372 2.020 . S
O397 C399 1.256 . S
O398 Co374 2.062 . S
O398 C399 1.255 . S
C399 O397 1.256 . S
C399 O398 1.255 . S
H400 C379 0.931 . S
H401 C387 0.931 . S
Co402 N407 2.057 . S
Co402 O419 2.021 1_455 S
Co402 O422 2.062 1_455 S
Co402 O426 2.117 . S
Co402 O427 2.020 . S
C403 O423 1.259 . S
C403 O426 1.258 . S
Co404 N413 2.057 . S
Co404 O420 2.117 . S
Co404 O421 2.020 . S
Co404 O423 2.021 1_655 S
Co404 O428 2.062 1_655 S
C405 N407 1.316 . S
C405 N408 1.347 . S
C405 H410 0.931 1_455 S
C406 N407 1.375 . S
C406 C409 1.350 . S
C406 H411 0.930 . S
N407 Co402 2.057 . S
N407 C405 1.316 . S
N407 C406 1.375 . S
N408 C405 1.347 . S
N408 C409 1.373 . S
C409 C406 1.350 . S
C409 N408 1.373 . S
C409 H430 0.931 . S
H410 C405 0.931 1_655 S
H411 C406 0.930 . S
C412 O419 1.259 . S
C412 O420 1.258 . S
N413 Co404 2.057 . S
N413 C414 1.316 . S
N413 C415 1.375 . S
C414 N413 1.316 . S
C414 N416 1.347 . S
C414 H425 0.931 1_655 S
C415 N413 1.375 . S
C415 C417 1.350 . S
C415 H424 0.930 . S
N416 C414 1.347 . S
N416 C417 1.373 . S
C417 C415 1.350 . S
C417 N416 1.373 . S
C417 H431 0.931 . S
C418 O421 1.256 . S
C418 O422 1.255 . S
O419 Co402 2.021 1_655 S
O419 C412 1.259 . S
O420 Co404 2.117 . S
O420 C412 1.258 . S
O421 Co404 2.020 . S
O421 C418 1.256 . S
O422 Co402 2.062 1_655 S
O422 C418 1.255 . S
O423 C403 1.259 . S
O423 Co404 2.021 1_455 S
H424 C415 0.930 . S
H425 C414 0.931 1_455 S
O426 Co402 2.117 . S
O426 C403 1.258 . S
O427 Co402 2.020 . S
O427 C429 1.256 . S
O428 Co404 2.062 1_455 S
O428 C429 1.255 . S
C429 O427 1.256 . S
C429 O428 1.255 . S
H430 C409 0.931 . S
H431 C417 0.931 . S
C432 C433 1.363 . S
C432 C438 1.379 . S
C432 N440 1.356 . S
C433 C432 1.363 . S
C433 C439 1.363 . S
C434 C435 1.363 . S
C434 C439 1.379 . S
C434 N441 1.356 . S
C435 C434 1.363 . S
C435 C438 1.363 . S
N436 C438 1.356 . S
N436 H448 0.984 1_545 S
N436 H449 0.985 1_545 S
N437 C439 1.356 . S
N437 H442 0.984 . S
N437 H443 0.985 . S
C438 C432 1.379 . S
C438 C435 1.363 . S
C438 N436 1.356 . S
C439 C433 1.363 . S
C439 C434 1.379 . S
C439 N437 1.356 . S
N440 C432 1.356 . S
N440 H446 0.984 . S
N440 H447 0.984 . S
N441 C434 1.356 . S
N441 H444 0.984 . S
N441 H445 0.985 . S
H442 N437 0.984 . S
H443 N437 0.985 . S
H444 N441 0.984 . S
H445 N441 0.985 . S
H446 N440 0.984 . S
H447 N440 0.984 . S
H448 N436 0.984 1_565 S
H449 N436 0.985 1_565 S
C450 C451 1.363 . S
C450 C456 1.379 . S
C450 N458 1.356 . S
C451 C450 1.363 . S
C451 C457 1.363 . S
C452 C453 1.363 . S
C452 C457 1.379 . S
C452 N459 1.356 . S
C453 C452 1.363 . S
C453 C456 1.363 . S
N454 C456 1.356 . S
N454 H466 0.984 . S
N454 H467 0.985 . S
N455 C457 1.356 . S
N455 H460 0.984 . S
N455 H461 0.985 . S
C456 C450 1.379 . S
C456 C453 1.363 . S
C456 N454 1.356 . S
C457 C451 1.363 . S
C457 C452 1.379 . S
C457 N455 1.356 . S
N458 C450 1.356 . S
N458 H464 0.984 . S
N458 H465 0.984 . S
N459 C452 1.356 . S
N459 H462 0.984 . S
N459 H463 0.985 . S
H460 N455 0.984 . S
H461 N455 0.985 . S
H462 N459 0.984 . S
H463 N459 0.985 . S
H464 N458 0.984 . S
H465 N458 0.984 . S
H466 N454 0.984 . S
H467 N454 0.985 . S
C468 C469 1.363 . S
C468 C474 1.379 . S
C468 N476 1.356 . S
C469 C468 1.363 . S
C469 C475 1.363 . S
C470 C471 1.363 . S
C470 C475 1.379 . S
C470 N477 1.356 . S
C471 C470 1.363 . S
C471 C474 1.363 . S
N472 C474 1.356 . S
N472 H484 0.984 . S
N472 H485 0.985 . S
N473 C475 1.356 . S
N473 H478 0.984 . S
N473 H479 0.985 . S
C474 C468 1.379 . S
C474 C471 1.363 . S
C474 N472 1.356 . S
C475 C469 1.363 . S
C475 C470 1.379 . S
C475 N473 1.356 . S
N476 C468 1.356 . S
N476 H482 0.984 . S
N476 H483 0.984 . S
N477 C470 1.356 . S
N477 H480 0.984 . S
N477 H481 0.985 . S
H478 N473 0.984 . S
H479 N473 0.985 . S
H480 N477 0.984 . S
H481 N477 0.985 . S
H482 N476 0.984 . S
H483 N476 0.984 . S
H484 N472 0.984 . S
H485 N472 0.985 . S
C486 C487 1.363 1_455 S
C486 C492 1.379 . S
C486 N494 1.356 . S
C487 C486 1.363 1_655 S
C487 C493 1.363 . S
C488 C489 1.363 . S
C488 C493 1.379 . S
C488 N495 1.356 . S
C489 C488 1.363 . S
C489 C492 1.363 1_655 S
N490 C492 1.356 . S
N490 H502 0.984 . S
N490 H503 0.985 . S
N491 C493 1.356 . S
N491 H496 0.984 . S
N491 H497 0.985 . S
C492 C486 1.379 . S
C492 C489 1.363 1_455 S
C492 N490 1.356 . S
C493 C487 1.363 . S
C493 C488 1.379 . S
C493 N491 1.356 . S
N494 C486 1.356 . S
N494 H500 0.984 . S
N494 H501 0.984 . S
N495 C488 1.356 . S
N495 H498 0.984 . S
N495 H499 0.985 . S
H496 N491 0.984 . S
H497 N491 0.985 . S
H498 N495 0.984 . S
H499 N495 0.985 . S
H500 N494 0.984 . S
H501 N494 0.984 . S
H502 N490 0.984 . S
H503 N490 0.985 . S
C504 C505 1.363 . S
C504 C510 1.379 . S
C504 N512 1.356 . S
C505 C504 1.363 . S
C505 C511 1.363 . S
C506 C507 1.363 1_545 S
C506 C511 1.379 1_545 S
C506 N513 1.356 . S
C507 C506 1.363 1_565 S
C507 C510 1.363 . S
N508 C510 1.356 . S
N508 H520 0.984 . S
N508 H521 0.985 . S
N509 C511 1.356 1_554 S
N509 H514 0.984 . S
N509 H515 0.985 1_565 S
C510 C504 1.379 . S
C510 C507 1.363 . S
C510 N508 1.356 . S
C511 C505 1.363 . S
C511 C506 1.379 1_565 S
C511 N509 1.356 1_556 S
N512 C504 1.356 . S
N512 H518 0.984 . S
N512 H519 0.984 . S
N513 C506 1.356 . S
N513 H516 0.984 . S
N513 H517 0.985 . S
H514 N509 0.984 . S
H515 N509 0.985 1_545 S
H516 N513 0.984 . S
H517 N513 0.985 . S
H518 N512 0.984 . S
H519 N512 0.984 . S
H520 N508 0.984 . S
H521 N508 0.985 . S
C522 C523 1.363 . S
C522 C528 1.379 . S
C522 N530 1.356 . S
C523 C522 1.363 . S
C523 C529 1.363 . S
C524 C525 1.363 . S
C524 C529 1.379 . S
C524 N531 1.356 . S
C525 C524 1.363 . S
C525 C528 1.363 . S
N526 C528 1.356 . S
N526 H538 0.984 . S
N526 H539 0.985 . S
N527 C529 1.356 1_554 S
N527 H532 0.984 . S
N527 H533 0.985 . S
C528 C522 1.379 . S
C528 C525 1.363 . S
C528 N526 1.356 . S
C529 C523 1.363 . S
C529 C524 1.379 . S
C529 N527 1.356 1_556 S
N530 C522 1.356 . S
N530 H536 0.984 . S
N530 H537 0.984 . S
N531 C524 1.356 . S
N531 H534 0.984 . S
N531 H535 0.985 . S
H532 N527 0.984 . S
H533 N527 0.985 . S
H534 N531 0.984 . S
H535 N531 0.985 . S
H536 N530 0.984 . S
H537 N530 0.984 . S
H538 N526 0.984 . S
H539 N526 0.985 . S
C540 C541 1.363 1_556 S
C540 C546 1.379 . S
C540 N548 1.356 . S
C541 C540 1.363 1_554 S
C541 C547 1.363 . S
C542 C543 1.363 . S
C542 C547 1.379 1_556 S
C542 N549 1.356 . S
C543 C542 1.363 . S
C543 C546 1.363 . S
N544 C546 1.356 . S
N544 H556 0.984 . S
N544 H557 0.985 . S
N545 C547 1.356 . S
N545 H550 0.984 . S
N545 H551 0.985 . S
C546 C540 1.379 . S
C546 C543 1.363 . S
C546 N544 1.356 . S
C547 C541 1.363 . S
C547 C542 1.379 1_554 S
C547 N545 1.356 . S
N548 C540 1.356 . S
N548 H554 0.984 . S
N548 H555 0.984 1_556 S
N549 C542 1.356 . S
N549 H552 0.984 . S
N549 H553 0.985 1_556 S
H550 N545 0.984 . S
H551 N545 0.985 . S
H552 N549 0.984 . S
H553 N549 0.985 1_554 S
H554 N548 0.984 . S
H555 N548 0.984 1_554 S
H556 N544 0.984 . S
H557 N544 0.985 . S
C558 C559 1.363 1_556 S
C558 C564 1.379 . S
C558 N566 1.356 1_556 S
C559 C558 1.363 1_554 S
C559 C565 1.363 1_454 S
C560 C561 1.363 1_655 S
C560 C565 1.379 . S
C560 N567 1.356 . S
C561 C560 1.363 1_455 S
C561 C564 1.363 . S
N562 C564 1.356 . S
N562 H574 0.984 . S
N562 H575 0.985 . S
N563 C565 1.356 1_554 S
N563 H568 0.984 . S
N563 H569 0.985 . S
C564 C558 1.379 . S
C564 C561 1.363 . S
C564 N562 1.356 . S
C565 C559 1.363 1_656 S
C565 C560 1.379 . S
C565 N563 1.356 1_556 S
N566 C558 1.356 1_554 S
N566 H572 0.984 . S
N566 H573 0.984 . S
N567 C560 1.356 . S
N567 H570 0.984 . S
N567 H571 0.985 . S
H568 N563 0.984 . S
H569 N563 0.985 . S
H570 N567 0.984 . S
H571 N567 0.985 . S
H572 N566 0.984 . S
H573 N566 0.984 . S
H574 N562 0.984 . S
H575 N562 0.985 . S
C576 C577 1.363 1_655 S
C576 C582 1.379 . S
C576 N584 1.356 . S
C577 C576 1.363 1_455 S
C577 C583 1.363 . S
C578 C579 1.363 . S
C578 C583 1.379 1_655 S
C578 N585 1.356 . S
C579 C578 1.363 . S
C579 C582 1.363 . S
N580 C582 1.356 . S
N580 H592 0.984 . S
N580 H593 0.985 . S
N581 C583 1.356 . S
N581 H586 0.984 . S
N581 H587 0.985 . S
C582 C576 1.379 . S
C582 C579 1.363 . S
C582 N580 1.356 . S
C583 C577 1.363 . S
C583 C578 1.379 1_455 S
C583 N581 1.356 . S
N584 C576 1.356 . S
N584 H590 0.984 . S
N584 H591 0.984 1_655 S
N585 C578 1.356 . S
N585 H588 0.984 . S
N585 H589 0.985 . S
H586 N581 0.984 . S
H587 N581 0.985 . S
H588 N585 0.984 . S
H589 N585 0.985 . S
H590 N584 0.984 . S
H591 N584 0.984 1_455 S
H592 N580 0.984 . S
H593 N580 0.985 . S
C594 C595 1.363 . S
C594 C600 1.379 . S
C594 N602 1.356 . S
C595 C594 1.363 . S
C595 C601 1.363 . S
C596 C597 1.363 . S
C596 C601 1.379 . S
C596 N603 1.356 . S
C597 C596 1.363 . S
C597 C600 1.363 . S
N598 C600 1.356 . S
N598 H610 0.984 . S
N598 H611 0.985 . S
N599 C601 1.356 . S
N599 H604 0.984 . S
N599 H605 0.985 . S
C600 C594 1.379 . S
C600 C597 1.363 . S
C600 N598 1.356 . S
C601 C595 1.363 . S
C601 C596 1.379 . S
C601 N599 1.356 . S
N602 C594 1.356 . S
N602 H608 0.984 . S
N602 H609 0.984 . S
N603 C596 1.356 . S
N603 H606 0.984 . S
N603 H607 0.985 . S
H604 N599 0.984 . S
H605 N599 0.985 . S
H606 N603 0.984 . S
H607 N603 0.985 . S
H608 N602 0.984 . S
H609 N602 0.984 . S
H610 N598 0.984 . S
H611 N598 0.985 . S
C612 C613 1.363 . S
C612 C618 1.379 . S
C612 N620 1.356 . S
C613 C612 1.363 . S
C613 C619 1.363 . S
C614 C615 1.363 . S
C614 C619 1.379 . S
C614 N621 1.356 . S
C615 C614 1.363 . S
C615 C618 1.363 . S
N616 C618 1.356 . S
N616 H628 0.984 . S
N616 H629 0.985 . S
N617 C619 1.356 . S
N617 H622 0.984 . S
N617 H623 0.985 . S
C618 C612 1.379 . S
C618 C615 1.363 . S
C618 N616 1.356 . S
C619 C613 1.363 . S
C619 C614 1.379 . S
C619 N617 1.356 . S
N620 C612 1.356 . S
N620 H626 0.984 . S
N620 H627 0.984 . S
N621 C614 1.356 . S
N621 H624 0.984 . S
N621 H625 0.985 . S
H622 N617 0.984 . S
H623 N617 0.985 . S
H624 N621 0.984 . S
H625 N621 0.985 . S
H626 N620 0.984 . S
H627 N620 0.984 . S
H628 N616 0.984 . S
H629 N616 0.985 . S
C630 C631 1.363 . S
C630 C636 1.379 . S
C630 N638 1.356 . S
C631 C630 1.363 . S
C631 C637 1.363 . S
C632 C633 1.363 . S
C632 C637 1.379 . S
C632 N639 1.356 . S
C633 C632 1.363 . S
C633 C636 1.363 . S
N634 C636 1.356 . S
N634 H646 0.984 . S
N634 H647 0.985 . S
N635 C637 1.356 . S
N635 H640 0.984 . S
N635 H641 0.985 . S
C636 C630 1.379 . S
C636 C633 1.363 . S
C636 N634 1.356 . S
C637 C631 1.363 . S
C637 C632 1.379 . S
C637 N635 1.356 . S
N638 C630 1.356 . S
N638 H644 0.984 . S
N638 H645 0.984 . S
N639 C632 1.356 . S
N639 H642 0.984 . S
N639 H643 0.985 . S
H640 N635 0.984 . S
H641 N635 0.985 . S
H642 N639 0.984 . S
H643 N639 0.985 . S
H644 N638 0.984 . S
H645 N638 0.984 . S
H646 N634 0.984 . S
H647 N634 0.985 . S
C648 C649 1.363 1_455 S
C648 C654 1.379 . S
C648 N656 1.356 . S
C649 C648 1.363 1_655 S
C649 C655 1.363 . S
C650 C651 1.363 1_655 S
C650 C655 1.379 . S
C650 N657 1.356 . S
C651 C650 1.363 1_455 S
C651 C654 1.363 . S
N652 C654 1.356 . S
N652 H664 0.984 . S
N652 H665 0.985 . S
N653 C655 1.356 . S
N653 H658 0.984 . S
N653 H659 0.985 . S
C654 C648 1.379 . S
C654 C651 1.363 . S
C654 N652 1.356 . S
C655 C649 1.363 . S
C655 C650 1.379 . S
C655 N653 1.356 . S
N656 C648 1.356 . S
N656 H662 0.984 . S
N656 H663 0.984 . S
N657 C650 1.356 . S
N657 H660 0.984 . S
N657 H661 0.989 . S
H658 N653 0.984 . S
H659 N653 0.985 . S
H660 N657 0.984 . S
H661 N657 0.989 . S
H662 N656 0.984 . S
H663 N656 0.984 . S
H664 N652 0.984 . S
H665 N652 0.985 . S
C666 C667 1.363 . S
C666 C672 1.379 . S
C666 N674 1.356 . S
C667 C666 1.363 . S
C667 C673 1.363 . S
C668 C669 1.363 . S
C668 C673 1.379 . S
C668 N675 1.356 1_565 S
C669 C668 1.363 . S
C669 C672 1.363 . S
N670 C672 1.356 . S
N670 H682 0.984 . S
N670 H683 0.985 . S
N671 C673 1.356 . S
N671 H676 0.984 . S
N671 H677 0.985 . S
C672 C666 1.379 . S
C672 C669 1.363 . S
C672 N670 1.356 . S
C673 C667 1.363 . S
C673 C668 1.379 . S
C673 N671 1.356 . S
N674 C666 1.356 . S
N674 H680 0.984 . S
N674 H681 0.984 . S
N675 C668 1.356 1_545 S
N675 H678 0.984 . S
N675 H679 0.985 . S
H676 N671 0.984 . S
H677 N671 0.985 . S
H678 N675 0.984 . S
H679 N675 0.985 . S
H680 N674 0.984 . S
H681 N674 0.984 . S
H682 N670 0.984 . S
H683 N670 0.985 . S
C684 C685 1.363 . S
C684 C690 1.379 . S
C684 N692 1.356 . S
C685 C684 1.363 . S
C685 C691 1.363 . S
C686 C687 1.363 . S
C686 C691 1.379 . S
C686 N693 1.356 . S
C687 C686 1.363 . S
C687 C690 1.363 . S
N688 C690 1.356 . S
N688 H700 0.984 . S
N688 H701 0.985 . S
N689 C691 1.356 . S
N689 H694 0.984 . S
N689 H695 0.985 1_556 S
C690 C684 1.379 . S
C690 C687 1.363 . S
C690 N688 1.356 . S
C691 C685 1.363 . S
C691 C686 1.379 . S
C691 N689 1.356 . S
N692 C684 1.356 . S
N692 H698 0.984 . S
N692 H699 0.984 . S
N693 C686 1.356 . S
N693 H696 0.984 . S
N693 H697 0.985 1_556 S
H694 N689 0.984 . S
H695 N689 0.985 1_554 S
H696 N693 0.984 . S
H697 N693 0.985 1_554 S
H698 N692 0.984 . S
H699 N692 0.984 . S
H700 N688 0.984 . S
H701 N688 0.985 . S
C702 C703 1.363 . S
C702 C708 1.379 . S
C702 N710 1.356 . S
C703 C702 1.363 . S
C703 C709 1.363 . S
C704 C705 1.363 . S
C704 C709 1.379 . S
C704 N711 1.356 . S
C705 C704 1.363 . S
C705 C708 1.363 . S
N706 C708 1.356 . S
N706 H718 0.984 1_556 S
N706 H719 0.985 . S
N707 C709 1.356 . S
N707 H712 0.984 . S
N707 H713 0.985 . S
C708 C702 1.379 . S
C708 C705 1.363 . S
C708 N706 1.356 . S
C709 C703 1.363 . S
C709 C704 1.379 . S
C709 N707 1.356 . S
N710 C702 1.356 . S
N710 H716 0.984 1_556 S
N710 H717 0.984 . S
N711 C704 1.356 . S
N711 H714 0.984 . S
N711 H715 0.985 . S
H712 N707 0.984 . S
H713 N707 0.985 . S
H714 N711 0.984 . S
H715 N711 0.985 . S
H716 N710 0.984 1_554 S
H717 N710 0.984 . S
H718 N706 0.984 1_554 S
H719 N706 0.985 . S
C720 C721 1.363 . S
C720 C726 1.379 . S
C720 N728 1.356 . S
C721 C720 1.363 . S
C721 C727 1.363 1_455 S
C722 C723 1.363 1_655 S
C722 C727 1.379 . S
C722 N729 1.356 1_554 S
C723 C722 1.363 1_455 S
C723 C726 1.363 . S
N724 C726 1.356 . S
N724 H736 0.984 . S
N724 H737 0.985 . S
N725 C727 1.356 . S
N725 H730 0.984 . S
N725 H731 0.985 1_554 S
C726 C720 1.379 . S
C726 C723 1.363 . S
C726 N724 1.356 . S
C727 C721 1.363 1_655 S
C727 C722 1.379 . S
C727 N725 1.356 . S
N728 C720 1.356 . S
N728 H734 0.984 . S
N728 H735 0.984 . S
N729 C722 1.356 1_556 S
N729 H732 0.984 . S
N729 H733 0.985 . S
H730 N725 0.984 . S
H731 N725 0.985 1_556 S
H732 N729 0.984 . S
H733 N729 0.985 . S
H734 N728 0.984 . S
H735 N728 0.984 . S
H736 N724 0.984 . S
H737 N724 0.985 . S
C738 C739 1.363 . S
C738 C744 1.379 . S
C738 N746 1.356 . S
C739 C738 1.363 . S
C739 C745 1.363 . S
C740 C741 1.363 . S
C740 C745 1.379 . S
C740 N747 1.356 1_554 S
C741 C740 1.363 . S
C741 C744 1.363 . S
N742 C744 1.356 . S
N742 H754 0.984 . S
N742 H755 0.985 . S
N743 C745 1.356 . S
N743 H748 0.984 . S
N743 H749 0.985 1_554 S
C744 C738 1.379 . S
C744 C741 1.363 . S
C744 N742 1.356 . S
C745 C739 1.363 . S
C745 C740 1.379 . S
C745 N743 1.356 . S
N746 C738 1.356 . S
N746 H752 0.984 . S
N746 H753 0.984 . S
N747 C740 1.356 1_556 S
N747 H750 0.984 . S
N747 H751 0.985 . S
H748 N743 0.984 . S
H749 N743 0.985 1_556 S
H750 N747 0.984 . S
H751 N747 0.985 . S
H752 N746 0.984 . S
H753 N746 0.984 . S
H754 N742 0.984 . S
H755 N742 0.985 . S
C756 C757 1.363 1_556 S
C756 C762 1.379 . S
C756 N764 1.356 . S
C757 C756 1.363 1_554 S
C757 C763 1.363 . S
C758 C759 1.363 1_554 S
C758 C763 1.379 . S
C758 N765 1.356 . S
C759 C758 1.363 1_556 S
C759 C762 1.363 . S
N760 C762 1.356 . S
N760 H772 0.984 . S
N760 H773 0.985 . S
N761 C763 1.356 . S
N761 H766 0.984 . S
N761 H767 0.985 . S
C762 C756 1.379 . S
C762 C759 1.363 . S
C762 N760 1.356 . S
C763 C757 1.363 . S
C763 C758 1.379 . S
C763 N761 1.356 . S
N764 C756 1.356 . S
N764 H770 0.984 . S
N764 H771 0.984 1_556 S
N765 C758 1.356 . S
N765 H768 0.984 . S
N765 H769 0.985 . S
H766 N761 0.984 . S
H767 N761 0.985 . S
H768 N765 0.984 . S
H769 N765 0.985 . S
H770 N764 0.984 . S
H771 N764 0.984 1_554 S
H772 N760 0.984 . S
H773 N760 0.985 . S
C774 C775 1.363 1_556 S
C774 C780 1.379 . S
C774 N782 1.356 . S
C775 C774 1.363 1_554 S
C775 C781 1.363 . S
C776 C777 1.363 1_554 S
C776 C781 1.379 . S
C776 N783 1.356 . S
C777 C776 1.363 1_556 S
C777 C780 1.363 . S
N778 C780 1.356 . S
N778 H790 0.984 . S
N778 H791 0.985 . S
N779 C781 1.356 . S
N779 H784 0.984 . S
N779 H785 0.985 . S
C780 C774 1.379 . S
C780 C777 1.363 . S
C780 N778 1.356 . S
C781 C775 1.363 . S
C781 C776 1.379 . S
C781 N779 1.356 . S
N782 C774 1.356 . S
N782 H788 0.984 . S
N782 H789 0.984 1_556 S
N783 C776 1.356 . S
N783 H786 0.984 . S
N783 H787 0.985 . S
H784 N779 0.984 . S
H785 N779 0.985 . S
H786 N783 0.984 . S
H787 N783 0.985 . S
H788 N782 0.984 . S
H789 N782 0.984 1_554 S
H790 N778 0.984 . S
H791 N778 0.985 . S
C792 C793 1.363 . S
C792 C798 1.379 . S
C792 N800 1.356 . S
C793 C792 1.363 . S
C793 C799 1.363 1_655 S
C794 C795 1.363 1_455 S
C794 C799 1.379 . S
C794 N801 1.356 . S
C795 C794 1.363 1_655 S
C795 C798 1.363 . S
N796 C798 1.356 . S
N796 H808 0.984 . S
N796 H809 0.985 . S
N797 C799 1.356 . S
N797 H802 0.984 . S
N797 H803 0.985 . S
C798 C792 1.379 . S
C798 C795 1.363 . S
C798 N796 1.356 . S
C799 C793 1.363 1_455 S
C799 C794 1.379 . S
C799 N797 1.356 . S
N800 C792 1.356 . S
N800 H806 0.984 . S
N800 H807 0.984 . S
N801 C794 1.356 . S
N801 H804 0.984 . S
N801 H805 0.985 . S
H802 N797 0.984 . S
H803 N797 0.985 . S
H804 N801 0.984 . S
H805 N801 0.985 . S
H806 N800 0.984 . S
H807 N800 0.984 . S
H808 N796 0.984 . S
H809 N796 0.985 . S
C810 C811 1.363 . S
C810 C816 1.379 . S
C810 N818 1.356 . S
C811 C810 1.363 . S
C811 C817 1.363 . S
C812 C813 1.363 . S
C812 C817 1.379 . S
C812 N819 1.356 . S
C813 C812 1.363 . S
C813 C816 1.363 . S
N814 C816 1.356 1_545 S
N814 H826 0.984 . S
N814 H827 0.985 . S
N815 C817 1.356 . S
N815 H820 0.984 . S
N815 H821 0.985 . S
C816 C810 1.379 . S
C816 C813 1.363 . S
C816 N814 1.356 1_565 S
C817 C811 1.363 . S
C817 C812 1.379 . S
C817 N815 1.356 . S
N818 C810 1.356 . S
N818 H824 0.984 1_565 S
N818 H825 0.984 . S
N819 C812 1.356 . S
N819 H822 0.984 . S
N819 H823 0.985 . S
H820 N815 0.984 . S
H821 N815 0.985 . S
H822 N819 0.984 . S
H823 N819 0.985 . S
H824 N818 0.984 1_545 S
H825 N818 0.984 . S
H826 N814 0.984 . S
H827 N814 0.985 . S
C828 C829 1.363 . S
C828 C834 1.379 . S
C828 N836 1.356 . S
C829 C828 1.363 . S
C829 C835 1.363 . S
C830 C831 1.363 . S
C830 C835 1.379 . S
C830 N837 1.356 . S
C831 C830 1.363 . S
C831 C834 1.363 . S
N832 C834 1.356 . S
N832 H844 0.984 . S
N832 H845 0.985 . S
N833 C835 1.356 . S
N833 H838 0.984 . S
N833 H839 0.985 . S
C834 C828 1.379 . S
C834 C831 1.363 . S
C834 N832 1.356 . S
C835 C829 1.363 . S
C835 C830 1.379 . S
C835 N833 1.356 . S
N836 C828 1.356 . S
N836 H842 0.984 . S
N836 H843 0.984 . S
N837 C830 1.356 . S
N837 H840 0.984 . S
N837 H841 0.985 . S
H838 N833 0.984 . S
H839 N833 0.985 . S
H840 N837 0.984 . S
H841 N837 0.985 . S
H842 N836 0.984 . S
H843 N836 0.984 . S
H844 N832 0.984 . S
H845 N832 0.985 . S
C846 C847 1.363 . S
C846 C852 1.379 . S
C846 N854 1.356 . S
C847 C846 1.363 . S
C847 C853 1.363 . S
C848 C849 1.363 . S
C848 C853 1.379 . S
C848 N855 1.356 . S
C849 C848 1.363 . S
C849 C852 1.363 . S
N850 C852 1.356 . S
N850 H862 0.984 . S
N850 H863 0.985 . S
N851 C853 1.356 . S
N851 H856 0.984 . S
N851 H857 0.985 . S
C852 C846 1.379 . S
C852 C849 1.363 . S
C852 N850 1.356 . S
C853 C847 1.363 . S
C853 C848 1.379 . S
C853 N851 1.356 . S
N854 C846 1.356 . S
N854 H860 0.984 . S
N854 H861 0.984 . S
N855 C848 1.356 . S
N855 H858 0.984 . S
N855 H859 0.985 . S
H856 N851 0.984 . S
H857 N851 0.985 . S
H858 N855 0.984 . S
H859 N855 0.985 . S
H860 N854 0.984 . S
H861 N854 0.984 . S
H862 N850 0.984 . S
H863 N850 0.985 . S
C433 C255 1.917 . S
C435 C322 1.967 . S
C453 C352 1.820 . S
C451 C294 1.779 . S
C471 N386 1.890 . S
C469 C177 1.827 . S
C489 N416 1.496 . S
C487 C216 1.569 . S
C507 C313 1.970 1_565 S
C505 C99 1.944 1_556 S
C523 C138 1.784 1_556 S
C525 C343 1.820 . S
C541 C21 1.848 . S
C543 N378 1.890 . S
C559 C60 1.572 1_455 S
C561 N408 1.498 . S
C579 C328 0.660 . S
C577 C196 0.707 1_455 S
C597 C358 1.212 . S
C595 C235 1.098 . S
C615 C399 0.950 . S
C613 C289 0.935 . S
C631 C157 1.037 . S
C633 C429 1.092 . S
C649 C40 0.705 . S
C651 C339 0.656 . S
C669 C369 1.212 1_565 S
C667 C79 1.110 . S
C687 C388 0.950 . S
C685 C133 0.934 . S
C703 C1 1.051 . S
C705 C418 1.097 . S
C721 C211 1.697 . S
C723 N318 1.818 . S
C739 C250 1.826 . S
C741 N348 1.967 . S
C759 C373 2.013 . S
C757 C274 1.900 . S
C777 C403 2.217 . S
C775 C172 2.064 . S
C793 C55 1.698 1_655 S
C795 N326 1.819 . S
C813 N356 1.967 . S
C811 C94 1.823 . S
C831 C382 2.013 . S
C829 C118 1.905 . S
C847 C16 2.061 . S
C849 C412 2.220 . S
