# Generated by pormake.
# Topology ptr, (4,4)-cn, num edge types: 1
# Building blocks:
#     Node 0, Type 0, BuildingBlock: UXUYUI_clean_sbu_0, # of connection points: 4
#     Node 1, Type 0, BuildingBlock: UXUYUI_clean_sbu_0, # of connection points: 4
#     Node 2, Type 0, BuildingBlock: UXUYUI_clean_sbu_0, # of connection points: 4
#     Node 3, Type 0, BuildingBlock: UXUYUI_clean_sbu_0, # of connection points: 4
#     Node 4, Type 0, BuildingBlock: UXUYUI_clean_sbu_0, # of connection points: 4
#     Node 5, Type 0, BuildingBlock: UXUYUI_clean_sbu_0, # of connection points: 4
#     Node 6, Type 0, BuildingBlock: UXUYUI_clean_sbu_0, # of connection points: 4
#     Node 7, Type 0, BuildingBlock: UXUYUI_clean_sbu_0, # of connection points: 4
#     Node 8, Type 0, BuildingBlock: UXUYUI_clean_sbu_0, # of connection points: 4
#     Node 9, Type 0, BuildingBlock: UXUYUI_clean_sbu_0, # of connection points: 4
#     Node 10, Type 0, BuildingBlock: UXUYUI_clean_sbu_0, # of connection points: 4
#     Node 11, Type 0, BuildingBlock: UXUYUI_clean_sbu_0, # of connection points: 4
#     Node 12, Type 0, BuildingBlock: UXUYUI_clean_sbu_0, # of connection points: 4
#     Node 13, Type 0, BuildingBlock: UXUYUI_clean_sbu_0, # of connection points: 4
#     Node 14, Type 0, BuildingBlock: UXUYUI_clean_sbu_0, # of connection points: 4
#     Node 15, Type 0, BuildingBlock: UXUYUI_clean_sbu_0, # of connection points: 4
#     Node 16, Type 0, BuildingBlock: UXUYUI_clean_sbu_0, # of connection points: 4
#     Node 17, Type 0, BuildingBlock: UXUYUI_clean_sbu_0, # of connection points: 4
#     Node 18, Type 1, BuildingBlock: NAWXER_clean_linker_0, # of connection points: 4
#     Node 19, Type 1, BuildingBlock: NAWXER_clean_linker_0, # of connection points: 4
#     Node 20, Type 1, BuildingBlock: NAWXER_clean_linker_0, # of connection points: 4
#     Node 21, Type 1, BuildingBlock: NAWXER_clean_linker_0, # of connection points: 4
#     Node 22, Type 1, BuildingBlock: NAWXER_clean_linker_0, # of connection points: 4
#     Node 23, Type 1, BuildingBlock: NAWXER_clean_linker_0, # of connection points: 4
#     Node 24, Type 1, BuildingBlock: NAWXER_clean_linker_0, # of connection points: 4
#     Node 25, Type 1, BuildingBlock: NAWXER_clean_linker_0, # of connection points: 4
#     Node 26, Type 1, BuildingBlock: NAWXER_clean_linker_0, # of connection points: 4
#     Node 27, Type 1, BuildingBlock: NAWXER_clean_linker_0, # of connection points: 4
#     Node 28, Type 1, BuildingBlock: NAWXER_clean_linker_0, # of connection points: 4
#     Node 29, Type 1, BuildingBlock: NAWXER_clean_linker_0, # of connection points: 4
#     Node 30, Type 1, BuildingBlock: NAWXER_clean_linker_0, # of connection points: 4
#     Node 31, Type 1, BuildingBlock: NAWXER_clean_linker_0, # of connection points: 4
#     Node 32, Type 1, BuildingBlock: NAWXER_clean_linker_0, # of connection points: 4
#     Node 33, Type 1, BuildingBlock: NAWXER_clean_linker_0, # of connection points: 4
#     Node 34, Type 1, BuildingBlock: NAWXER_clean_linker_0, # of connection points: 4
#     Node 35, Type 1, BuildingBlock: NAWXER_clean_linker_0, # of connection points: 4
#     Edge 36, Type (0, 1), BuildingBlock: ZUJKAS_clean_linker_0, # of connection points: 2
#     Edge 37, Type (0, 1), BuildingBlock: ZUJKAS_clean_linker_0, # of connection points: 2
#     Edge 38, Type (0, 1), BuildingBlock: ZUJKAS_clean_linker_0, # of connection points: 2
#     Edge 39, Type (0, 1), BuildingBlock: ZUJKAS_clean_linker_0, # of connection points: 2
#     Edge 40, Type (0, 1), BuildingBlock: ZUJKAS_clean_linker_0, # of connection points: 2
#     Edge 41, Type (0, 1), BuildingBlock: ZUJKAS_clean_linker_0, # of connection points: 2
#     Edge 42, Type (0, 1), BuildingBlock: ZUJKAS_clean_linker_0, # of connection points: 2
#     Edge 43, Type (0, 1), BuildingBlock: ZUJKAS_clean_linker_0, # of connection points: 2
#     Edge 44, Type (0, 1), BuildingBlock: ZUJKAS_clean_linker_0, # of connection points: 2
#     Edge 45, Type (0, 1), BuildingBlock: ZUJKAS_clean_linker_0, # of connection points: 2
#     Edge 46, Type (0, 1), BuildingBlock: ZUJKAS_clean_linker_0, # of connection points: 2
#     Edge 47, Type (0, 1), BuildingBlock: ZUJKAS_clean_linker_0, # of connection points: 2
#     Edge 48, Type (0, 1), BuildingBlock: ZUJKAS_clean_linker_0, # of connection points: 2
#     Edge 49, Type (0, 1), BuildingBlock: ZUJKAS_clean_linker_0, # of connection points: 2
#     Edge 50, Type (0, 1), BuildingBlock: ZUJKAS_clean_linker_0, # of connection points: 2
#     Edge 51, Type (0, 1), BuildingBlock: ZUJKAS_clean_linker_0, # of connection points: 2
#     Edge 52, Type (0, 1), BuildingBlock: ZUJKAS_clean_linker_0, # of connection points: 2
#     Edge 53, Type (0, 1), BuildingBlock: ZUJKAS_clean_linker_0, # of connection points: 2
#     Edge 54, Type (0, 1), BuildingBlock: ZUJKAS_clean_linker_0, # of connection points: 2
#     Edge 55, Type (0, 1), BuildingBlock: ZUJKAS_clean_linker_0, # of connection points: 2
#     Edge 56, Type (0, 1), BuildingBlock: ZUJKAS_clean_linker_0, # of connection points: 2
#     Edge 57, Type (0, 1), BuildingBlock: ZUJKAS_clean_linker_0, # of connection points: 2
#     Edge 58, Type (0, 1), BuildingBlock: ZUJKAS_clean_linker_0, # of connection points: 2
#     Edge 59, Type (0, 1), BuildingBlock: ZUJKAS_clean_linker_0, # of connection points: 2
#     Edge 60, Type (0, 1), BuildingBlock: ZUJKAS_clean_linker_0, # of connection points: 2
#     Edge 61, Type (0, 1), BuildingBlock: ZUJKAS_clean_linker_0, # of connection points: 2
#     Edge 62, Type (0, 1), BuildingBlock: ZUJKAS_clean_linker_0, # of connection points: 2
#     Edge 63, Type (0, 1), BuildingBlock: ZUJKAS_clean_linker_0, # of connection points: 2
#     Edge 64, Type (0, 1), BuildingBlock: ZUJKAS_clean_linker_0, # of connection points: 2
#     Edge 65, Type (0, 1), BuildingBlock: ZUJKAS_clean_linker_0, # of connection points: 2
#     Edge 66, Type (0, 1), BuildingBlock: ZUJKAS_clean_linker_0, # of connection points: 2
#     Edge 67, Type (0, 1), BuildingBlock: ZUJKAS_clean_linker_0, # of connection points: 2
#     Edge 68, Type (0, 1), BuildingBlock: ZUJKAS_clean_linker_0, # of connection points: 2
#     Edge 69, Type (0, 1), BuildingBlock: ZUJKAS_clean_linker_0, # of connection points: 2
#     Edge 70, Type (0, 1), BuildingBlock: ZUJKAS_clean_linker_0, # of connection points: 2
#     Edge 71, Type (0, 1), BuildingBlock: ZUJKAS_clean_linker_0, # of connection points: 2
#     Edge 72, Type (0, 1), BuildingBlock: ZUJKAS_clean_linker_0, # of connection points: 2
#     Edge 73, Type (0, 1), BuildingBlock: ZUJKAS_clean_linker_0, # of connection points: 2
#     Edge 74, Type (0, 1), BuildingBlock: ZUJKAS_clean_linker_0, # of connection points: 2
#     Edge 75, Type (0, 1), BuildingBlock: ZUJKAS_clean_linker_0, # of connection points: 2
#     Edge 76, Type (0, 1), BuildingBlock: ZUJKAS_clean_linker_0, # of connection points: 2
#     Edge 77, Type (0, 1), BuildingBlock: ZUJKAS_clean_linker_0, # of connection points: 2
#     Edge 78, Type (0, 1), BuildingBlock: ZUJKAS_clean_linker_0, # of connection points: 2
#     Edge 79, Type (0, 1), BuildingBlock: ZUJKAS_clean_linker_0, # of connection points: 2
#     Edge 80, Type (0, 1), BuildingBlock: ZUJKAS_clean_linker_0, # of connection points: 2
#     Edge 81, Type (0, 1), BuildingBlock: ZUJKAS_clean_linker_0, # of connection points: 2
#     Edge 82, Type (0, 1), BuildingBlock: ZUJKAS_clean_linker_0, # of connection points: 2
#     Edge 83, Type (0, 1), BuildingBlock: ZUJKAS_clean_linker_0, # of connection points: 2
#     Edge 84, Type (0, 1), BuildingBlock: ZUJKAS_clean_linker_0, # of connection points: 2
#     Edge 85, Type (0, 1), BuildingBlock: ZUJKAS_clean_linker_0, # of connection points: 2
#     Edge 86, Type (0, 1), BuildingBlock: ZUJKAS_clean_linker_0, # of connection points: 2
#     Edge 87, Type (0, 1), BuildingBlock: ZUJKAS_clean_linker_0, # of connection points: 2
#     Edge 88, Type (0, 1), BuildingBlock: ZUJKAS_clean_linker_0, # of connection points: 2
#     Edge 89, Type (0, 1), BuildingBlock: ZUJKAS_clean_linker_0, # of connection points: 2
#     Edge 90, Type (0, 1), BuildingBlock: ZUJKAS_clean_linker_0, # of connection points: 2
#     Edge 91, Type (0, 1), BuildingBlock: ZUJKAS_clean_linker_0, # of connection points: 2
#     Edge 92, Type (0, 1), BuildingBlock: ZUJKAS_clean_linker_0, # of connection points: 2
#     Edge 93, Type (0, 1), BuildingBlock: ZUJKAS_clean_linker_0, # of connection points: 2
#     Edge 94, Type (0, 1), BuildingBlock: ZUJKAS_clean_linker_0, # of connection points: 2
#     Edge 95, Type (0, 1), BuildingBlock: ZUJKAS_clean_linker_0, # of connection points: 2
#     Edge 96, Type (0, 1), BuildingBlock: ZUJKAS_clean_linker_0, # of connection points: 2
#     Edge 97, Type (0, 1), BuildingBlock: ZUJKAS_clean_linker_0, # of connection points: 2
#     Edge 98, Type (0, 1), BuildingBlock: ZUJKAS_clean_linker_0, # of connection points: 2
#     Edge 99, Type (0, 1), BuildingBlock: ZUJKAS_clean_linker_0, # of connection points: 2
#     Edge 100, Type (0, 1), BuildingBlock: ZUJKAS_clean_linker_0, # of connection points: 2
#     Edge 101, Type (0, 1), BuildingBlock: ZUJKAS_clean_linker_0, # of connection points: 2
#     Edge 102, Type (0, 1), BuildingBlock: ZUJKAS_clean_linker_0, # of connection points: 2
#     Edge 103, Type (0, 1), BuildingBlock: ZUJKAS_clean_linker_0, # of connection points: 2
#     Edge 104, Type (0, 1), BuildingBlock: ZUJKAS_clean_linker_0, # of connection points: 2
#     Edge 105, Type (0, 1), BuildingBlock: ZUJKAS_clean_linker_0, # of connection points: 2
#     Edge 106, Type (0, 1), BuildingBlock: ZUJKAS_clean_linker_0, # of connection points: 2
#     Edge 107, Type (0, 1), BuildingBlock: ZUJKAS_clean_linker_0, # of connection points: 2
# Relax obj value: 0.097
# Max RMSD: 0.293
# Mean RMSD: 0.120
data_MOF--net-ptr--node1-UXUYUI_clean_sbu_0--node2-NAWXER_clean_linker_0--edge1-ZUJKAS_clean_linker_0
_symmetry_space_group_name_H-M    P1
_symmetry_Int_Tables_number       1
_symmetry_cell_setting            triclinic
loop_
_symmetry_equiv_pos_as_xyz
'x, y, z'
_cell_length_a     126.45994
_cell_length_b     126.44875
_cell_length_c     89.165789
_cell_angle_alpha  90.155408
_cell_angle_beta   89.848422
_cell_angle_gamma 120.2063
loop_
_atom_site_label
_atom_site_type_symbol
_atom_site_fract_x
_atom_site_fract_y
_atom_site_fract_z
_atom_type_partial_charge
Li0 Li 0.99347 0.33506 0.00433 0.0
Li1 Li 0.01416 0.34531 0.0146 0.0
Li2 Li -0.00038 0.35164 0.02229 0.0
Li3 Li 0.00833 0.35646 0.99732 0.0
C4 C 0.9885 0.32843 0.03446 0.0
N5 N 0.96849 0.31429 0.0525 0.0
C6 C 0.98971 0.32256 0.04703 0.0
C7 C 0.97712 0.32713 0.03106 0.0
C8 C 0.97948 0.31544 0.05601 0.0
C9 C 0.96711 0.31994 0.04032 0.0
C10 C 0.0147 0.33772 0.98372 0.0
C11 C 0.03025 0.34201 0.96514 0.0
N12 N 0.02595 0.3298 0.96364 0.0
C13 C 0.01032 0.32521 0.98183 0.0
C14 C 0.02465 0.34619 0.97517 0.0
C15 C 0.01618 0.3214 0.9717 0.0
C16 C 0.97547 0.32013 0.98366 0.0
N17 N 0.98112 0.31996 0.99651 0.0
C18 C 0.97065 0.29812 0.99627 0.0
C19 C 0.97885 0.30928 0.00293 0.0
C20 C 0.96487 0.29799 0.98278 0.0
C21 C 0.96726 0.30918 0.97655 0.0
H22 H 0.9776 0.3288 0.97875 0.0
H23 H 0.98371 0.30944 0.01297 0.0
C24 C 0.03473 0.34993 0.03199 0.0
N25 N 0.02656 0.34228 0.02165 0.0
C26 C 0.0431 0.34717 0.03845 0.0
C27 C 0.03449 0.32871 0.02349 0.0
C28 C 0.02627 0.33181 0.01738 0.0
C29 C 0.04296 0.33637 0.03432 0.0
H30 H 0.03453 0.35801 0.03555 0.0
H31 H 0.01935 0.32562 0.00966 0.0
C32 C 0.98734 0.35784 0.00101 0.0
N33 N 0.98068 0.37532 0.99659 0.0
C34 C 0.9948 0.36977 0.00631 0.0
C35 C 0.97651 0.3548 0.99346 0.0
C36 C 0.99127 0.37848 0.00396 0.0
C37 C 0.9733 0.36377 0.99134 0.0
C38 C 0.02867 0.37187 0.01518 0.0
C39 C 0.03209 0.383 0.02228 0.0
C40 C 0.03716 0.37069 0.00636 0.0
C41 C 0.04396 0.39282 0.02033 0.0
C42 C 0.04895 0.38071 0.0047 0.0
N43 N 0.05208 0.39149 0.01164 0.0
C44 C 0.00334 0.3637 0.04959 0.0
C45 C 0.98355 0.35669 0.03955 0.0
C46 C 0.00091 0.36932 0.06152 0.0
N47 N 0.99477 0.35771 0.03883 0.0
C48 C 0.98077 0.36227 0.05123 0.0
C49 C 0.98957 0.36881 0.06231 0.0
H50 H 0.01218 0.36436 0.04868 0.0
H51 H 0.97688 0.35181 0.03087 0.0
C52 C 0.00815 0.36238 0.9674 0.0
N53 N 0.01279 0.36751 0.98097 0.0
C54 C 0.0094 0.36975 0.95513 0.0
C55 C 0.02051 0.38757 0.97092 0.0
C56 C 0.019 0.37985 0.98291 0.0
C57 C 0.01546 0.38252 0.95688 0.0
H58 H 0.00309 0.35252 0.96627 0.0
H59 H 0.02228 0.38372 0.99388 0.0
O60 O 0.99848 0.33548 0.02564 0.0
O61 O 0.00895 0.34161 0.9934 0.0
O62 O 0.99064 0.34916 0.00301 0.0
O63 O 0.01703 0.36223 0.01688 0.0
H64 H 0.99847 0.3235 0.04981 0.0
H65 H 0.97599 0.33159 0.02138 0.0
H66 H 0.98028 0.31084 0.06578 0.0
H67 H 0.95825 0.31885 0.03783 0.0
H68 H 0.03799 0.34847 0.9585 0.0
H69 H 0.00255 0.31852 0.98821 0.0
H70 H 0.02796 0.35589 0.97615 0.0
H71 H 0.01295 0.31175 0.97022 0.0
H72 H 0.9692 0.2897 0.0013 0.0
H73 H 0.96292 0.30947 0.96623 0.0
H74 H 0.04949 0.35333 0.04674 0.0
H75 H 0.03388 0.32016 0.02025 0.0
H76 H 0.00322 0.3723 0.01216 0.0
H77 H 0.97066 0.34561 0.98926 0.0
H78 H 0.99695 0.38774 0.008 0.0
H79 H 0.96494 0.36155 0.98551 0.0
H80 H 0.0256 0.38405 0.02915 0.0
H81 H 0.03471 0.36209 0.001 0.0
H82 H 0.04673 0.40151 0.02571 0.0
H83 H 0.05562 0.37992 0.99791 0.0
H84 H 0.008 0.37439 0.06974 0.0
H85 H 0.97188 0.36158 0.05152 0.0
H86 H 0.00544 0.36549 0.94447 0.0
H87 H 0.02505 0.39735 0.97283 0.0
Li88 Li 0.66123 0.65333 0.00179 0.0
Li89 Li 0.65116 0.66258 0.01549 0.0
Li90 Li 0.64519 0.64066 0.02032 0.0
Li91 Li 0.63915 0.64688 0.99748 0.0
C92 C 0.6706 0.65674 0.03212 0.0
N93 N 0.68962 0.6585 0.04925 0.0
C94 C 0.67925 0.66799 0.0383 0.0
C95 C 0.67151 0.64636 0.03492 0.0
C96 C 0.68884 0.6687 0.04684 0.0
C97 C 0.68121 0.64744 0.04354 0.0
C98 C 0.65807 0.6747 0.98941 0.0
C99 C 0.65433 0.69135 0.98506 0.0
N100 N 0.66639 0.6988 0.98182 0.0
C101 C 0.6704 0.68248 0.9859 0.0
C102 C 0.64994 0.67913 0.98885 0.0
C103 C 0.67444 0.69465 0.98214 0.0
C104 C 0.67562 0.65123 0.97914 0.0
N105 N 0.67612 0.65674 0.99245 0.0
C106 C 0.69794 0.66825 0.99136 0.0
C107 C 0.68697 0.66515 0.99859 0.0
C108 C 0.69773 0.66275 0.97758 0.0
C109 C 0.68638 0.6541 0.97148 0.0
H110 H 0.66684 0.64472 0.97441 0.0
H111 H 0.68711 0.66974 0.00887 0.0
C112 C 0.64559 0.67824 0.03247 0.0
N113 N 0.65441 0.6775 0.02459 0.0
C114 C 0.64825 0.68921 0.03949 0.0
C115 C 0.66893 0.6984 0.02996 0.0
C116 C 0.66592 0.68726 0.02329 0.0
C117 C 0.66006 0.69945 0.03827 0.0
H118 H 0.63655 0.6703 0.03345 0.0
H119 H 0.67281 0.68634 0.01719 0.0
C120 C 0.64766 0.62632 0.99677 0.0
N121 N 0.64933 0.60563 0.99163 0.0
C122 C 0.63806 0.61609 0.98978 0.0
C123 C 0.6582 0.62609 0.00088 0.0
C124 C 0.63904 0.6057 0.98736 0.0
C125 C 0.65885 0.61553 0.99825 0.0
C126 C 0.6224 0.64402 0.01774 0.0
C127 C 0.61395 0.63224 0.02268 0.0
C128 C 0.61825 0.65149 0.01181 0.0
C129 C 0.60145 0.62806 0.02134 0.0
C130 C 0.60568 0.64697 0.01064 0.0
N131 N 0.59761 0.63544 0.01538 0.0
C132 C 0.64264 0.63156 0.04973 0.0
C133 C 0.63285 0.61627 0.0311 0.0
C134 C 0.63821 0.6227 0.06101 0.0
N135 N 0.63989 0.6282 0.03512 0.0
C136 C 0.62825 0.60712 0.04199 0.0
C137 C 0.6308 0.61029 0.05721 0.0
H138 H 0.64808 0.64115 0.05263 0.0
H139 H 0.63049 0.61385 0.01949 0.0
C140 C 0.62742 0.64818 0.97093 0.0
N141 N 0.62653 0.64113 0.98288 0.0
C142 C 0.61832 0.64363 0.95993 0.0
C143 C 0.60755 0.62473 0.97387 0.0
C144 C 0.61687 0.62961 0.98452 0.0
C145 C 0.60824 0.63173 0.96131 0.0
H146 H 0.63528 0.65727 0.96982 0.0
H147 H 0.6165 0.62413 0.99401 0.0
O148 O 0.66112 0.6559 0.0238 0.0
O149 O 0.65398 0.6628 0.99332 0.0
O150 O 0.64684 0.63658 0.99916 0.0
O151 O 0.63468 0.64821 0.01875 0.0
H152 H 0.67862 0.67609 0.03646 0.0
H153 H 0.6647 0.6375 0.03071 0.0
H154 H 0.69564 0.67737 0.05159 0.0
H155 H 0.68202 0.63947 0.04576 0.0
H156 H 0.64815 0.69492 0.98468 0.0
H157 H 0.67681 0.6792 0.98617 0.0
H158 H 0.64035 0.6732 0.99139 0.0
H159 H 0.68397 0.7008 0.97949 0.0
H160 H 0.70648 0.67516 0.99628 0.0
H161 H 0.68583 0.64961 0.96091 0.0
H162 H 0.64115 0.68967 0.04577 0.0
H163 H 0.6782 0.70603 0.02896 0.0
H164 H 0.6299 0.61614 0.98632 0.0
H165 H 0.66589 0.63402 0.00582 0.0
H166 H 0.63164 0.59769 0.98207 0.0
H167 H 0.66695 0.61524 0.0014 0.0
H168 H 0.61699 0.62636 0.02738 0.0
H169 H 0.62467 0.66067 0.00809 0.0
H170 H 0.5948 0.61894 0.02503 0.0
H171 H 0.60234 0.65263 0.00598 0.0
H172 H 0.64024 0.62559 0.07261 0.0
H173 H 0.62265 0.59767 0.03852 0.0
H174 H 0.61918 0.64934 0.95044 0.0
H175 H 0.60006 0.61543 0.97524 0.0
Li176 Li 0.34934 0.99586 0.99604 0.0
Li177 Li 0.3543 0.00454 0.02087 0.0
Li178 Li 0.33281 0.98921 0.01476 0.0
Li179 Li 0.34277 0.01004 0.00491 0.0
C180 C 0.34415 0.97504 0.01363 0.0
N181 N 0.33733 0.95067 0.01075 0.0
C182 C 0.35059 0.97042 0.02125 0.0
C183 C 0.33419 0.96726 0.00462 0.0
C184 C 0.34702 0.95808 0.01962 0.0
C185 C 0.33089 0.95497 0.00329 0.0
C186 C 0.37166 0.02106 0.00409 0.0
C187 C 0.38795 0.03921 0.01568 0.0
N188 N 0.39621 0.03627 0.01028 0.0
C189 C 0.38033 0.01825 0.9986 0.0
C190 C 0.3755 0.03165 0.01264 0.0
C191 C 0.39269 0.02605 0.00186 0.0
C192 C 0.36008 0.00046 0.96782 0.0
N193 N 0.35592 0.99193 0.9789 0.0
C194 C 0.36411 0.98091 0.96626 0.0
C195 C 0.35775 0.98222 0.97828 0.0
C196 C 0.36876 0.98975 0.95485 0.0
C197 C 0.36646 0.9995 0.9556 0.0
H198 H 0.35895 0.00835 0.9688 0.0
H199 H 0.35481 0.97573 0.98734 0.0
C200 C 0.36592 0.01458 0.04904 0.0
N201 N 0.36637 0.00922 0.036 0.0
C202 C 0.37459 0.01711 0.06026 0.0
C203 C 0.38409 0.00879 0.04424 0.0
C204 C 0.37515 0.00624 0.03348 0.0
C205 C 0.38381 0.01418 0.05789 0.0
H206 H 0.3587 0.01666 0.05084 0.0
H207 H 0.37507 0.00169 0.02316 0.0
C208 C 0.32962 0.99297 0.97922 0.0
N209 N 0.32308 0.99024 0.94929 0.0
C210 C 0.33486 0.00308 0.96962 0.0
C211 C 0.32097 0.9815 0.9736 0.0
C212 C 0.33146 0.00151 0.95453 0.0
C213 C 0.31781 0.9803 0.95844 0.0
C214 C 0.33448 0.01168 0.0312 0.0
C215 C 0.32181 0.00651 0.0326 0.0
C216 C 0.34218 0.02407 0.03451 0.0
C217 C 0.31706 0.01388 0.03711 0.0
C218 C 0.33707 0.03113 0.03896 0.0
N219 N 0.32472 0.02594 0.04015 0.0
C220 C 0.31795 0.97105 0.03544 0.0
C221 C 0.30728 0.97359 0.01522 0.0
C222 C 0.30694 0.96266 0.04226 0.0
N223 N 0.31788 0.97642 0.0223 0.0
C224 C 0.29605 0.96526 0.02165 0.0
C225 C 0.29579 0.95987 0.03551 0.0
H226 H 0.32656 0.97357 0.04083 0.0
H227 H 0.30755 0.97818 0.00489 0.0
C228 C 0.34807 0.03357 0.99474 0.0
N229 N 0.33909 0.02215 0.99864 0.0
C230 C 0.34506 0.04193 0.9888 0.0
C231 C 0.32365 0.02666 0.99128 0.0
C232 C 0.32707 0.0186 0.99708 0.0
C233 C 0.3327 0.03845 0.98685 0.0
H234 H 0.35756 0.03607 0.99586 0.0
H235 H 0.32014 0.00936 -3e-05 0.0
O236 O 0.34743 0.98706 0.01531 0.0
O237 O 0.35948 0.01343 0.00124 0.0
O238 O 0.33279 0.9943 0.99406 0.0
O239 O 0.3393 0.00468 0.02649 0.0
H240 H 0.35828 0.97633 0.02834 0.0
H241 H 0.32911 0.97069 0.99868 0.0
H242 H 0.35194 0.95438 0.02543 0.0
H243 H 0.32322 0.94885 0.99633 0.0
H244 H 0.39103 0.0474 0.02236 0.0
H245 H 0.37754 0.01005 0.99207 0.0
H246 H 0.36893 0.03396 0.01701 0.0
H247 H 0.39949 0.02395 0.99776 0.0
H248 H 0.36588 0.97337 0.96631 0.0
H249 H 0.36982 0.00651 0.94703 0.0
H250 H 0.37407 0.02124 0.07069 0.0
H251 H 0.39091 0.00618 0.04211 0.0
H252 H 0.34161 0.01202 0.97371 0.0
H253 H 0.3167 0.97359 0.98087 0.0
H254 H 0.33551 0.00924 0.94697 0.0
H255 H 0.31115 0.97147 0.95395 0.0
H256 H 0.31571 0.99694 0.03012 0.0
H257 H 0.352 0.0282 0.03352 0.0
H258 H 0.30727 0.01001 0.03816 0.0
H259 H 0.34293 0.04075 0.04145 0.0
H260 H 0.30715 0.95859 0.05285 0.0
H261 H 0.28769 0.96351 0.01616 0.0
H262 H 0.35232 0.05095 0.98559 0.0
H263 H 0.31402 0.02354 0.98973 0.0
Li264 Li 0.01252 0.66773 0.01349 0.0
Li265 Li 0.9969 0.64687 0.02029 0.0
Li266 Li 0.00606 0.65194 0.99457 0.0
Li267 Li 0.99146 0.6582 0.00221 0.0
C268 C 0.02545 0.65665 0.01965 0.0
N269 N 0.04849 0.66469 0.03131 0.0
C270 C 0.02676 0.65259 0.03371 0.0
C271 C 0.03586 0.66466 0.01144 0.0
C272 C 0.03849 0.6568 0.03944 0.0
C273 C 0.04742 0.66866 0.01755 0.0
C274 C 0.9903 0.6625 0.03589 0.0
C275 C 0.97148 0.6583 0.04799 0.0
N276 N 0.97776 0.66346 0.06084 0.0
C277 C 0.99659 0.66794 0.04916 0.0
C278 C 0.97766 0.65779 0.03524 0.0
C279 C 0.99008 0.66826 0.06167 0.0
C280 C 0.02922 0.69317 0.01395 0.0
N281 N 0.02531 0.68256 0.02161 0.0
C282 C 0.03795 0.69341 0.04249 0.0
C283 C 0.02955 0.68248 0.03556 0.0
C284 C 0.04189 0.70458 0.03508 0.0
C285 C 0.03758 0.70436 0.0205 0.0
H286 H 0.02553 0.69298 0.00296 0.0
H287 H 0.02612 0.67394 0.04153 0.0
C288 C 0.98603 0.623 0.03205 0.0
N289 N 0.99169 0.63503 0.03589 0.0
C290 C 0.9835 0.61411 0.04292 0.0
C291 C 0.99265 0.63015 0.06155 0.0
C292 C 0.99492 0.63871 0.05032 0.0
C293 C 0.98706 0.61766 0.05786 0.0
H294 H 0.98387 0.62031 0.02043 0.0
H295 H -0.00013 0.64835 0.05299 0.0
C296 C 0.0118 0.67163 0.9781 0.0
N297 N 0.01999 0.67784 0.94893 0.0
C298 C 0.00348 0.66923 0.9665 0.0
C299 C 0.02431 0.67735 0.9749 0.0
C300 C 0.00779 0.67239 0.95182 0.0
C301 C 0.02826 0.68037 0.96007 0.0
C302 C 0.9765 0.63255 0.99915 0.0
C303 C 0.97213 0.62569 0.98597 0.0
C304 C 0.96848 0.63033 0.01109 0.0
C305 C 0.95973 0.61687 0.98487 0.0
C306 C 0.95615 0.62142 0.00957 0.0
N307 N 0.95206 0.61494 0.99659 0.0
C308 C 0.0198 0.64292 0.9798 0.0
C309 C 0.00378 0.64237 0.96547 0.0
C310 C 0.02215 0.63669 0.96852 0.0
N311 N 0.01065 0.64548 0.97815 0.0
C312 C 0.00582 0.63615 0.95389 0.0
C313 C 0.01494 0.633 0.95548 0.0
H314 H 0.02499 0.64528 0.99009 0.0
H315 H 0.99638 0.64427 0.96459 0.0
C316 C 0.98023 0.67232 0.00067 0.0
N317 N 0.97944 0.66185 0.99541 0.0
C318 C 0.9724 0.67619 0.99524 0.0
C319 C 0.96299 0.65836 0.97917 0.0
C320 C 0.97104 0.65486 0.98487 0.0
C321 C 0.9637 0.66923 0.98424 0.0
H322 H 0.98712 0.67778 0.0089 0.0
H323 H 0.97085 0.64681 0.98049 0.0
O324 O 0.01403 0.65273 0.01393 0.0
O325 O 0.99657 0.66227 0.02346 0.0
O326 O 0.00774 0.66848 0.99253 0.0
O327 O 0.98862 0.64126 0.00037 0.0
H328 H 0.01882 0.64629 0.04016 0.0
H329 H 0.035 0.66778 0.00048 0.0
H330 H 0.03964 0.65378 0.05034 0.0
H331 H 0.05555 0.67492 0.01134 0.0
H332 H 0.9617 0.65464 0.04764 0.0
H333 H 0.00637 0.67179 0.04984 0.0
H334 H 0.97266 0.65389 0.02498 0.0
H335 H 0.99483 0.67234 0.07204 0.0
H336 H 0.04115 0.69311 0.05365 0.0
H337 H 0.04023 0.71274 0.01445 0.0
H338 H 0.97908 0.60459 0.03957 0.0
H339 H 0.99581 0.63335 0.07283 0.0
H340 H 0.99378 0.66485 0.96878 0.0
H341 H 0.03089 0.67947 0.98377 0.0
H342 H 0.00144 0.6705 0.94272 0.0
H343 H 0.03791 0.68475 0.95743 0.0
H344 H 0.97822 0.62719 0.97666 0.0
H345 H 0.97176 0.63527 0.02152 0.0
H346 H 0.95621 0.61154 0.97471 0.0
H347 H 0.94985 0.61962 0.01874 0.0
H348 H 0.02933 0.63451 0.97015 0.0
H349 H -9e-05 0.63331 0.94416 0.0
H350 H 0.9732 0.68459 0.99951 0.0
H351 H 0.95659 0.65285 0.97049 0.0
Li352 Li 0.33768 0.34873 0.01512 0.0
Li353 Li 0.35938 0.35474 0.02077 0.0
Li354 Li 0.35369 0.36079 0.99695 0.0
Li355 Li 0.34773 0.33993 0.00164 0.0
C356 C 0.34905 0.37446 0.01744 0.0
N357 N 0.34297 0.39259 0.01658 0.0
C358 C 0.35576 0.38517 0.0258 0.0
C359 C 0.33926 0.37296 0.00862 0.0
C360 C 0.35254 0.39423 0.02523 0.0
C361 C 0.33634 0.38224 0.00835 0.0
C362 C 0.33966 0.32656 0.02601 0.0
C363 C 0.34261 0.30928 0.02922 0.0
N364 N 0.33027 0.30171 0.02968 0.0
C365 C 0.32701 0.31862 0.02664 0.0
C366 C 0.34753 0.32187 0.02743 0.0
C367 C 0.32244 0.30609 0.02847 0.0
C368 C 0.31215 0.3382 0.01686 0.0
N369 N 0.32286 0.34579 0.02394 0.0
C370 C 0.31219 0.3479 0.04478 0.0
C371 C 0.3231 0.35074 0.03755 0.0
C372 C 0.30093 0.33981 0.03795 0.0
C373 C 0.30102 0.33506 0.02371 0.0
H374 H 0.31228 0.33429 0.00611 0.0
H375 H 0.33179 0.35674 0.04288 0.0
C376 C 0.38077 0.37217 0.03468 0.0
N377 N 0.37142 0.36045 0.03593 0.0
C378 C 0.38967 0.37727 0.04584 0.0
C379 C 0.37927 0.35803 0.05919 0.0
C380 C 0.37051 0.35332 0.0478 0.0
C381 C 0.38893 0.3702 0.05837 0.0
H382 H 0.38119 0.37759 0.02509 0.0
H383 H 0.3629 0.34405 0.04851 0.0
C384 C 0.33553 0.34419 0.97819 0.0
N385 N 0.33186 0.34018 0.94768 0.0
C386 C 0.34476 0.34465 0.96907 0.0
C387 C 0.32443 0.34169 0.97179 0.0
C388 C 0.34273 0.34259 0.95368 0.0
C389 C 0.32275 0.33969 0.95634 0.0
C390 C 0.37387 0.35207 0.99632 0.0
C391 C 0.37888 0.35493 0.9819 0.0
C392 C 0.37865 0.34743 0.00686 0.0
C393 C 0.38843 0.35287 0.97817 0.0
C394 C 0.38821 0.34551 0.0027 0.0
N395 N 0.39285 0.34823 0.98855 0.0
C396 C 0.37215 0.38073 0.98195 0.0
C397 C 0.35236 0.37536 0.97325 0.0
C398 C 0.37757 0.38991 0.97118 0.0
N399 N 0.35978 0.37359 0.98265 0.0
C400 C 0.35741 0.38446 0.96227 0.0
C401 C 0.37019 0.39176 0.96101 0.0
H402 H 0.3778 0.37917 0.98968 0.0
H403 H 0.34254 0.36958 0.97411 0.0
C404 C 0.33181 0.31708 0.98985 0.0
N405 N 0.34396 0.32477 0.99222 0.0
C406 C 0.3277 0.30579 0.98288 0.0
C407 C 0.34867 0.3105 0.98082 0.0
C408 C 0.35238 0.32168 0.98793 0.0
C409 C 0.33617 0.30239 0.97815 0.0
H410 H 0.32529 0.31973 0.99341 0.0
H411 H 0.36197 0.32785 0.98988 0.0
O412 O 0.35217 0.36555 0.01782 0.0
O413 O 0.34429 0.33882 0.02385 0.0
O414 O 0.33728 0.3462 0.9933 0.0
O415 O 0.36462 0.35418 0.0002 0.0
H416 H 0.36338 0.38646 0.03264 0.0
H417 H 0.334 0.36475 0.00203 0.0
H418 H 0.35764 0.40257 0.03164 0.0
H419 H 0.32879 0.38121 0.00157 0.0
H420 H 0.3486 0.30552 0.03021 0.0
H421 H 0.32078 0.32208 0.0256 0.0
H422 H 0.35734 0.32787 0.02701 0.0
H423 H 0.31267 0.29983 0.02888 0.0
H424 H 0.31256 0.35192 0.05564 0.0
H425 H 0.29258 0.32866 0.01812 0.0
H426 H 0.39704 0.38664 0.04469 0.0
H427 H 0.37832 0.35233 0.06873 0.0
H428 H 0.35336 0.34652 0.97383 0.0
H429 H 0.31721 0.34134 0.97868 0.0
H430 H 0.3498 0.34291 0.94651 0.0
H431 H 0.31421 0.33776 0.95123 0.0
H432 H 0.37546 0.35873 0.97366 0.0
H433 H 0.37501 0.34529 0.01811 0.0
H434 H 0.39236 0.35499 0.96702 0.0
H435 H 0.39194 0.34186 0.01073 0.0
H436 H 0.38746 0.39547 0.97079 0.0
H437 H 0.35139 0.38553 0.95461 0.0
H438 H 0.31796 0.29978 0.98133 0.0
H439 H 0.35555 0.30834 0.97722 0.0
Li440 Li 0.65443 0.98645 0.01335 0.0
Li441 Li 0.6483 0.00129 0.02121 0.0
Li442 Li 0.64461 0.99312 0.9948 0.0
Li443 Li 0.66518 0.00794 0.00319 0.0
C444 C 0.62893 0.97266 0.01794 0.0
N445 N 0.61134 0.94922 0.02613 0.0
C446 C 0.6235 0.97047 0.03212 0.0
C447 C 0.6253 0.96296 0.00786 0.0
C448 C 0.61465 0.95854 0.03607 0.0
C449 C 0.61643 0.95117 0.01223 0.0
C450 C 0.66871 0.00601 0.0383 0.0
C451 C 0.67965 0.0221 0.05639 0.0
N452 N 0.67755 0.01355 0.067 0.0
C453 C 0.66679 0.99739 0.04933 0.0
C454 C 0.67531 0.01848 0.0418 0.0
C455 C 0.67128 0.00138 0.06379 0.0
C456 C 0.66792 0.97466 0.01484 0.0
N457 N 0.65743 0.9739 0.01998 0.0
C458 C 0.65357 0.95711 0.03582 0.0
C459 C 0.65023 0.96531 0.03023 0.0
C460 C 0.66452 0.95789 0.03099 0.0
C461 C 0.67167 0.96671 0.02023 0.0
H462 H 0.67355 0.98168 0.00683 0.0
H463 H 0.64218 0.96512 0.03458 0.0
C464 C 0.6355 0.01213 0.03339 0.0
N465 N 0.64123 0.00584 0.03708 0.0
C466 C 0.62918 0.01473 0.04427 0.0
C467 C 0.6348 0.0044 0.06261 0.0
C468 C 0.641 0.00198 0.05136 0.0
C469 C 0.62864 0.01072 0.05908 0.0
H470 H 0.63556 0.01485 0.0219 0.0
H471 H 0.64518 0.99657 0.05392 0.0
C472 C 0.65888 0.98586 0.97973 0.0
N473 N 0.65701 0.97294 0.95387 0.0
C474 C 0.66438 0.99208 0.96646 0.0
C475 C 0.65264 0.97308 0.97992 0.0
C476 C 0.66327 0.98539 0.95348 0.0
C477 C 0.65174 0.96671 0.96672 0.0
C478 C 0.65508 0.02231 0.99954 0.0
C479 C 0.65367 0.02641 0.98555 0.0
C480 C 0.66093 0.03073 0.01111 0.0
C481 C 0.65835 0.03892 0.98331 0.0
C482 C 0.66547 0.04316 0.00844 0.0
N483 N 0.66411 0.04697 0.9947 0.0
C484 C 0.62174 0.98112 0.97966 0.0
C485 C 0.63877 0.99493 0.96497 0.0
C486 C 0.61381 0.97907 0.96771 0.0
N487 N 0.63396 0.98895 0.97808 0.0
C488 C 0.63118 0.9932 0.95276 0.0
C489 C 0.6185 0.9853 0.95411 0.0
H490 H 0.61809 0.9768 0.99034 0.0
H491 H 0.64847 0.00139 0.96416 0.0
C492 C 0.69082 0.02422 0.0042 0.0
N493 N 0.68045 0.02074 0.99619 0.0
C494 C 0.70221 0.03272 0.99824 0.0
C495 C 0.69196 0.03398 0.97604 0.0
C496 C 0.68081 0.02543 0.98239 0.0
C497 C 0.70288 0.03762 0.98391 0.0
H498 H 0.69028 0.02013 0.01501 0.0
H499 H 0.67245 0.02221 0.97607 0.0
O500 O 0.63764 0.98428 0.01393 0.0
O501 O 0.66446 0.00227 0.02405 0.0
O502 O 0.65984 0.99226 0.99254 0.0
O503 O 0.65068 0.01011 0.00191 0.0
H504 H 0.62612 0.97787 0.04003 0.0
H505 H 0.62921 0.96453 0.99673 0.0
H506 H 0.61042 0.9567 0.04704 0.0
H507 H 0.61356 0.94358 0.00454 0.0
H508 H 0.68473 0.03172 0.05927 0.0
H509 H 0.66178 0.98772 0.04681 0.0
H510 H 0.67716 0.02529 0.03332 0.0
H511 H 0.66977 0.9948 0.07247 0.0
H512 H 0.64792 0.95058 0.04432 0.0
H513 H 0.68015 0.96757 0.01619 0.0
H514 H 0.62462 0.01969 0.04108 0.0
H515 H 0.6344 0.0009 0.07379 0.0
H516 H 0.66938 0.00197 0.96616 0.0
H517 H 0.6486 0.96811 0.99017 0.0
H518 H 0.66739 0.99009 0.9431 0.0
H519 H 0.64689 0.95681 0.96669 0.0
H520 H 0.64908 0.02001 0.9765 0.0
H521 H 0.66188 0.02768 0.02207 0.0
H522 H 0.65739 0.04223 0.97252 0.0
H523 H 0.67005 0.04978 0.0173 0.0
H524 H 0.60407 0.97309 0.96933 0.0
H525 H 0.63518 0.99816 0.94247 0.0
H526 H 0.71041 0.03531 0.0047 0.0
H527 H 0.69206 0.03732 0.96484 0.0
Li528 Li 0.65437 0.67059 0.33862 0.0
Li529 Li 0.67335 0.67981 0.35117 0.0
Li530 Li 0.65875 0.68693 0.35518 0.0
Li531 Li 0.66983 0.69128 0.33075 0.0
C532 C 0.64889 0.65968 0.3655 0.0
N533 N 0.63216 0.63636 0.37515 0.0
C534 C 0.65289 0.65179 0.37043 0.0
C535 C 0.63639 0.65573 0.36558 0.0
C536 C 0.64429 0.64003 0.37525 0.0
C537 C 0.62807 0.64389 0.37046 0.0
C538 C 0.66873 0.66657 0.32058 0.0
C539 C 0.66164 0.65573 0.29711 0.0
N540 N 0.66343 0.64671 0.30253 0.0
C541 C 0.67053 0.6572 0.3259 0.0
C542 C 0.6643 0.66587 0.30605 0.0
C543 C 0.6678 0.64724 0.3166 0.0
C544 C 0.63391 0.6559 0.32031 0.0
N545 N 0.64177 0.65546 0.33033 0.0
C546 C 0.63289 0.63393 0.32643 0.0
C547 C 0.64137 0.64475 0.33349 0.0
C548 C 0.62482 0.63414 0.31584 0.0
C549 C 0.62532 0.64529 0.31286 0.0
H550 H 0.63452 0.66455 0.3178 0.0
H551 H 0.64792 0.64464 0.34112 0.0
C552 C 0.68498 0.67634 0.37584 0.0
N553 N 0.6854 0.67746 0.36067 0.0
C554 C 0.69315 0.6738 0.38323 0.0
C555 C 0.70226 0.67398 0.35927 0.0
C556 C 0.69396 0.67662 0.35236 0.0
C557 C 0.70179 0.67234 0.3749 0.0
H558 H 0.67813 0.6772 0.38215 0.0
H559 H 0.69414 0.6777 0.34032 0.0
C560 C 0.64499 0.68978 0.3355 0.0
N561 N 0.63088 0.70065 0.33886 0.0
C562 C 0.64974 0.70205 0.33161 0.0
C563 C 0.63304 0.683 0.34096 0.0
C564 C 0.64246 0.70739 0.33342 0.0
C565 C 0.62606 0.68867 0.34262 0.0
C566 C 0.68671 0.70261 0.35994 0.0
C567 C 0.68568 0.70427 0.37527 0.0
C568 C 0.69817 0.70606 0.35377 0.0
C569 C 0.69618 0.70939 0.38419 0.0
C570 C 0.70844 0.71113 0.36308 0.0
N571 N 0.70724 0.71268 0.37796 0.0
C572 C 0.64495 0.68736 0.38031 0.0
C573 C 0.65761 0.70641 0.36839 0.0
C574 C 0.64129 0.69298 0.39099 0.0
N575 N 0.65298 0.69413 0.36933 0.0
C576 C 0.65421 0.71239 0.37881 0.0
C577 C 0.64602 0.70568 0.39039 0.0
H578 H 0.64158 0.67766 0.38098 0.0
H579 H 0.66409 0.71157 0.35961 0.0
C580 C 0.67058 0.70024 0.30165 0.0
N581 N 0.67657 0.70285 0.31498 0.0
C582 C 0.67476 0.70897 0.29023 0.0
C583 C 0.69116 0.72292 0.30652 0.0
C584 C 0.68668 0.71392 0.3176 0.0
C585 C 0.68512 0.72054 0.29265 0.0
H586 H 0.66233 0.69151 0.30006 0.0
H587 H 0.69109 0.71586 0.32842 0.0
O588 O 0.65718 0.67124 0.3608 0.0
O589 O 0.67116 0.67631 0.3296 0.0
O590 O 0.65207 0.68446 0.33416 0.0
O591 O 0.67649 0.6973 0.3511 0.0
H592 H 0.66251 0.65465 0.37038 0.0
H593 H 0.63313 0.66169 0.36177 0.0
H594 H 0.64725 0.63381 0.37902 0.0
H595 H 0.61837 0.64069 0.37049 0.0
H596 H 0.65812 0.65502 0.28588 0.0
H597 H 0.67374 0.65747 0.33719 0.0
H598 H 0.6628 0.67299 0.30178 0.0
H599 H 0.66907 0.63989 0.32061 0.0
H600 H 0.63297 0.62558 0.32883 0.0
H601 H 0.61922 0.64582 0.30479 0.0
H602 H 0.69263 0.67288 0.39532 0.0
H603 H 0.70869 0.67286 0.35238 0.0
H604 H 0.659 0.70745 0.32743 0.0
H605 H 0.62921 0.67347 0.34392 0.0
H606 H 0.64604 0.7169 0.33055 0.0
H607 H 0.61681 0.68355 0.34691 0.0
H608 H 0.67687 0.70152 0.38026 0.0
H609 H 0.69908 0.70462 0.34198 0.0
H610 H 0.69553 0.71071 0.39607 0.0
H611 H 0.71735 0.71377 0.35848 0.0
H612 H 0.6351 0.68749 0.39986 0.0
H613 H 0.65798 0.72218 0.37783 0.0
H614 H 0.66968 0.70683 0.27983 0.0
H615 H 0.6992 0.7317 0.30884 0.0
Li616 Li 0.30215 0.97979 0.33376 0.0
Li617 Li 0.30801 0.97377 0.35709 0.0
Li618 Li 0.31645 0.99602 0.35107 0.0
Li619 Li 0.32341 0.98362 0.33806 0.0
C620 C 0.28948 0.98461 0.35758 0.0
N621 N 0.26985 0.98793 0.36335 0.0
C622 C 0.27923 0.97564 0.36524 0.0
C623 C 0.28981 0.99535 0.35305 0.0
C624 C 0.26938 0.97746 0.36799 0.0
C625 C 0.27979 0.99684 0.35602 0.0
C626 C 0.30216 0.95543 0.33781 0.0
C627 C 0.30222 0.9373 0.34604 0.0
N628 N 0.29042 0.93034 0.34141 0.0
C629 C 0.29007 0.94809 0.33303 0.0
C630 C 0.30832 0.95 0.34426 0.0
C631 C 0.28429 0.93542 0.33498 0.0
C632 C 0.29322 0.9755 0.3045 0.0
N633 N 0.28974 0.97519 0.319 0.0
C634 C 0.26897 0.96729 0.31154 0.0
C635 C 0.27789 0.97121 0.32269 0.0
C636 C 0.27223 0.96729 0.29645 0.0
C637 C 0.28459 0.97158 0.293 0.0
H638 H 0.3027 0.97858 0.30193 0.0
H639 H 0.27526 0.97082 0.33427 0.0
C640 C 0.30927 0.96309 0.38449 0.0
N641 N 0.30195 0.96193 0.37271 0.0
C642 C 0.30485 0.95445 0.39603 0.0
C643 C 0.28548 0.9436 0.38305 0.0
C644 C 0.29023 0.95249 0.37187 0.0
C645 C 0.29281 0.94453 0.39536 0.0
H646 H 0.31851 0.97075 0.38497 0.0
H647 H 0.28454 0.9519 0.36252 0.0
C648 C 0.31957 0.00412 0.32045 0.0
N649 N 0.32237 0.02326 0.3027 0.0
C650 C 0.33083 0.01193 0.31364 0.0
C651 C 0.30968 0.00592 0.31799 0.0
C652 C 0.33208 0.02159 0.30478 0.0
C653 C 0.31129 0.01568 0.30904 0.0
C654 C 0.33659 0.99075 0.36295 0.0
C655 C 0.34563 0.00299 0.36492 0.0
C656 C 0.33967 0.9816 0.36402 0.0
C657 C 0.35767 0.0059 0.36771 0.0
C658 C 0.35181 0.98488 0.3668 0.0
N659 N 0.36049 0.99686 0.36856 0.0
C660 C 0.31609 0.01218 0.37243 0.0
C661 C 0.33037 0.02198 0.35276 0.0
C662 C 0.31968 0.02343 0.37926 0.0
N663 N 0.32139 0.01168 0.35938 0.0
C664 C 0.33425 0.03343 0.3592 0.0
C665 C 0.32891 0.03425 0.37266 0.0
H666 H 0.30911 0.00382 0.37758 0.0
H667 H 0.33474 0.02131 0.34268 0.0
C668 C 0.33623 0.9742 0.32207 0.0
N669 N 0.33722 0.98441 0.3285 0.0
C670 C 0.34628 0.97472 0.3148 0.0
C671 C 0.35815 0.99624 0.32101 0.0
C672 C 0.34786 0.99531 0.32805 0.0
C673 C 0.35742 0.98586 0.31422 0.0
H674 H 0.32763 0.96567 0.32247 0.0
H675 H 0.34832 0.00332 0.3331 0.0
O676 O 0.2992 0.98294 0.35481 0.0
O677 O 0.30792 0.96786 0.33616 0.0
O678 O 0.3182 0.99458 0.3291 0.0
O679 O 0.3248 0.98774 0.35998 0.0
H680 H 0.27884 0.96733 0.36898 0.0
H681 H 0.29778 0.00255 0.3475 0.0
H682 H 0.26136 0.97056 0.37383 0.0
H683 H 0.27993 0.0051 0.35256 0.0
H684 H 0.30685 0.93299 0.35111 0.0
H685 H 0.28517 0.95212 0.32797 0.0
H686 H 0.31769 0.95553 0.34795 0.0
H687 H 0.27491 0.92964 0.33141 0.0
H688 H 0.25959 0.9642 0.31474 0.0
H689 H 0.28752 0.97156 0.28158 0.0
H690 H 0.31079 0.95547 0.40533 0.0
H691 H 0.27608 0.93622 0.38224 0.0
H692 H 0.33855 0.01059 0.31524 0.0
H693 H 0.30081 -0.00021 0.32277 0.0
H694 H 0.34077 0.02775 0.29954 0.0
H695 H 0.30371 0.01718 0.30709 0.0
H696 H 0.3434 0.01018 0.3642 0.0
H697 H 0.33278 0.97208 0.3626 0.0
H698 H 0.36477 0.01534 0.36917 0.0
H699 H 0.35434 0.9779 0.36754 0.0
H700 H 0.31525 0.02365 0.38958 0.0
H701 H 0.34157 0.04151 0.35389 0.0
H702 H 0.34537 0.9665 0.30978 0.0
H703 H 0.36651 0.00503 0.32062 0.0
Li704 Li 0.02096 0.32624 0.33059 0.0
Li705 Li 0.02621 0.33599 0.35599 0.0
Li706 Li 0.00467 0.32198 0.3483 0.0
Li707 Li 0.01639 0.34182 0.33731 0.0
C708 C 0.0134 0.30583 0.34954 0.0
N709 N 0.00392 0.28086 0.34738 0.0
C710 C 0.01625 0.2997 0.36038 0.0
C711 C 0.00572 0.29927 0.3376 0.0
C712 C 0.01137 0.28707 0.35909 0.0
C713 C 0.00102 0.28665 0.33671 0.0
C714 C 0.03904 0.35399 0.32826 0.0
C715 C 0.04999 0.37604 0.32728 0.0
N716 N 0.05066 0.37551 0.31209 0.0
C717 C 0.0399 0.35366 0.31266 0.0
C718 C 0.04418 0.36525 0.33566 0.0
C719 C 0.0458 0.36464 0.30468 0.0
C720 C 0.02201 0.31815 0.30131 0.0
N721 N 0.0265 0.31969 0.31547 0.0
C722 C 0.04007 0.31265 0.30816 0.0
C723 C 0.03528 0.31698 0.3191 0.0
C724 C 0.03578 0.31114 0.29333 0.0
C725 C 0.02654 0.31386 0.28999 0.0
H726 H 0.01504 0.32045 0.29878 0.0
H727 H 0.0387 0.31838 0.33047 0.0
C728 C 0.03311 0.33549 0.38574 0.0
N729 N 0.03735 0.34064 0.37208 0.0
C730 C 0.04117 0.33852 0.39779 0.0
C731 C 0.05773 0.35223 0.38147 0.0
C732 C 0.04937 0.34888 0.36973 0.0
C733 C 0.05367 0.34696 0.3957 0.0
H734 H 0.02347 0.32897 0.38723 0.0
H735 H 0.05246 0.35274 0.35869 0.0
C736 C 0.99479 0.32533 0.3224 0.0
N737 N 0.97299 0.32363 0.31387 0.0
C738 C 0.98937 0.33036 0.33142 0.0
C739 C 0.98911 0.31944 0.30903 0.0
C740 C 0.97836 0.32942 0.32692 0.0
C741 C 0.97809 0.31867 0.30492 0.0
C742 C 0.01133 0.34615 0.36804 0.0
C743 C -0.0 0.34445 0.37265 0.0
C744 C 0.02209 0.35615 0.37348 0.0
C745 C -0.00037 0.35291 0.38243 0.0
C746 C 0.02134 0.3644 0.38325 0.0
N747 N 0.01022 0.36263 0.38747 0.0
C748 C 0.98745 0.31033 0.37095 0.0
C749 C 0.98028 0.30177 0.34684 0.0
C750 C 0.97614 0.30219 0.37732 0.0
N751 N 0.98925 0.31004 0.35596 0.0
C752 C 0.96878 0.29353 0.35271 0.0
C753 C 0.9666 0.29374 0.36813 0.0
H754 H 0.99479 0.317 0.37791 0.0
H755 H 0.982 0.30162 0.33499 0.0
C756 C 0.01374 0.3546 0.31355 0.0
N757 N 0.0155 0.35524 0.32864 0.0
C758 C 0.01284 0.36378 0.30605 0.0
C759 C 0.01585 0.37432 0.32967 0.0
C760 C 0.01665 0.3649 0.33673 0.0
C761 C 0.01384 0.37377 0.31414 0.0
H762 H 0.01308 0.34695 0.30731 0.0
H763 H 0.01822 0.3654 0.34862 0.0
O764 O 0.01806 0.31818 0.35072 0.0
O765 O 0.03299 0.34332 0.33621 0.0
O766 O 0.00556 0.32609 0.32656 0.0
O767 O 0.01183 0.33779 0.35873 0.0
H768 H 0.02217 0.30467 0.3697 0.0
H769 H 0.00338 0.30385 0.32913 0.0
H770 H 0.0135 0.28221 0.3674 0.0
H771 H 0.99506 0.28145 0.32754 0.0
H772 H 0.05393 0.38482 0.33285 0.0
H773 H 0.03594 0.34501 0.30675 0.0
H774 H 0.04356 0.36567 0.34773 0.0
H775 H 0.04647 0.36453 0.29259 0.0
H776 H 0.0473 0.31086 0.31119 0.0
H777 H 0.02291 0.31273 0.27875 0.0
H778 H 0.03767 0.33432 0.40861 0.0
H779 H 0.06732 0.35862 0.37933 0.0
H780 H 0.99363 0.33499 0.34175 0.0
H781 H 0.99315 0.31545 0.30194 0.0
H782 H 0.97408 0.33328 0.3338 0.0
H783 H 0.97359 0.31412 0.29461 0.0
H784 H 0.99157 0.33665 0.36876 0.0
H785 H 0.03093 0.35763 0.37007 0.0
H786 H 0.99093 0.35173 0.38604 0.0
H787 H 0.02959 0.37222 0.38746 0.0
H788 H 0.97478 0.30272 0.38923 0.0
H789 H 0.9617 0.28704 0.3453 0.0
H790 H 0.0115 0.36311 0.29402 0.0
H791 H 0.01661 0.38184 0.33634 0.0
Li792 Li 0.67781 0.99344 0.34895 0.0
Li793 Li 0.66402 0.97193 0.35472 0.0
Li794 Li 0.67462 0.97823 0.3306 0.0
Li795 Li 0.65795 0.98193 0.33674 0.0
C796 C 0.692 0.98586 0.35935 0.0
N797 N 0.71239 0.99832 0.37738 0.0
C798 C 0.69106 0.98387 0.37483 0.0
C799 C 0.70332 0.99415 0.35303 0.0
C800 C 0.70147 0.99026 0.38375 0.0
C801 C 0.71351 0.00038 0.36234 0.0
C802 C 0.65332 0.98959 0.36161 0.0
C803 C 0.63266 0.98522 0.36587 0.0
N804 N 0.63679 0.99743 0.36667 0.0
C805 C 0.65736 0.00209 0.36247 0.0
C806 C 0.64088 0.98107 0.36335 0.0
C807 C 0.64886 0.00587 0.36505 0.0
C808 C 0.69674 0.01847 0.349 0.0
N809 N 0.68904 0.00878 0.35766 0.0
C810 C 0.69637 0.02093 0.37986 0.0
C811 C 0.68873 0.00978 0.37281 0.0
C812 C 0.70439 0.03114 0.37122 0.0
C813 C 0.7046 0.02979 0.3556 0.0
H814 H 0.69666 0.01746 0.33696 0.0
H815 H 0.68243 0.00193 0.37938 0.0
C816 C 0.6636 0.95231 0.36981 0.0
N817 N 0.65885 0.95985 0.36999 0.0
C818 C 0.66024 0.94332 0.38078 0.0
C819 C 0.64722 0.95008 0.39199 0.0
C820 C 0.65085 0.95895 0.3808 0.0
C821 C 0.65196 0.94214 0.3921 0.0
H822 H 0.67003 0.95331 0.36113 0.0
H823 H 0.64736 0.96519 0.38082 0.0
C824 C 0.6783 0.99649 0.31336 0.0
N825 N 0.6869 0.00159 0.28422 0.0
C826 C 0.67021 0.99418 0.3015 0.0
C827 C 0.69078 0.00145 0.3104 0.0
C828 C 0.67474 0.99682 0.28685 0.0
C829 C 0.69494 0.00394 0.29559 0.0
C830 C 0.65091 0.9538 0.3366 0.0
C831 C 0.65605 0.94674 0.33221 0.0
C832 C 0.63958 0.94823 0.3439 0.0
C833 C 0.64978 0.93421 0.33527 0.0
C834 C 0.63362 0.93567 0.34679 0.0
N835 N 0.6388 0.92898 0.34245 0.0
C836 C 0.69214 0.97364 0.31618 0.0
C837 C 0.67463 0.9694 0.30193 0.0
C838 C 0.69652 0.96952 0.30446 0.0
N839 N 0.68136 0.97346 0.31469 0.0
C840 C 0.6787 0.9653 0.28993 0.0
C841 C 0.68971 0.96517 0.29115 0.0
H842 H 0.69719 0.97673 0.32655 0.0
H843 H 0.66602 0.96923 0.30116 0.0
C844 C 0.64657 0.99461 0.32615 0.0
N845 N 0.64484 0.98322 0.32842 0.0
C846 C 0.63744 0.99608 0.31947 0.0
C847 C 0.62489 0.97407 0.31764 0.0
C848 C 0.63428 0.97303 0.32435 0.0
C849 C 0.62645 0.98572 0.31501 0.0
H850 H 0.65514 0.00256 0.32937 0.0
H851 H 0.63324 0.9641 0.32605 0.0
O852 O 0.68186 0.97992 0.35047 0.0
O853 O 0.66147 0.9857 0.3588 0.0
O854 O 0.67402 0.99376 0.32776 0.0
O855 O 0.65703 0.96614 0.33402 0.0
H856 H 0.68236 0.97757 0.37993 0.0
H857 H 0.70419 0.99588 0.34109 0.0
H858 H 0.70087 0.98885 0.39576 0.0
H859 H 0.72231 0.00688 0.35761 0.0
H860 H 0.623 0.97873 0.36714 0.0
H861 H 0.66692 0.00883 0.36099 0.0
H862 H 0.63756 0.97137 0.3625 0.0
H863 H 0.65185 0.01552 0.36569 0.0
H864 H 0.69601 0.02155 0.39195 0.0
H865 H 0.71054 0.03748 0.34852 0.0
H866 H 0.66403 0.93732 0.38033 0.0
H867 H 0.64096 0.9496 0.40063 0.0
H868 H 0.66052 0.99025 0.30354 0.0
H869 H 0.69715 0.00315 0.31941 0.0
H870 H 0.66857 0.99503 0.27756 0.0
H871 H 0.70455 0.00768 0.29313 0.0
H872 H 0.66485 0.9509 0.32666 0.0
H873 H 0.63554 0.95357 0.34754 0.0
H874 H 0.65368 0.92864 0.33199 0.0
H875 H 0.6249 0.93126 0.35254 0.0
H876 H 0.70496 0.96941 0.30599 0.0
H877 H 0.67322 0.96219 0.27983 0.0
H878 H 0.63898 0.00523 0.31777 0.0
H879 H 0.61664 0.96585 0.31416 0.0
Li880 Li 0.02815 0.69111 0.35704 0.0
Li881 Li 0.00573 0.68293 0.35177 0.0
Li882 Li 0.01692 0.67548 0.33883 0.0
Li883 Li 0.02077 0.69537 0.33236 0.0
C884 C 0.01262 0.66354 0.36383 0.0
N885 N 0.01005 0.64081 0.36879 0.0
C886 C 0.00117 0.65298 0.36237 0.0
C887 C 0.02276 0.66256 0.36791 0.0
C888 C 6e-05 0.64156 0.36489 0.0
C889 C 0.02127 0.65098 0.37036 0.0
C890 C 0.01907 0.70899 0.36187 0.0
C891 C 0.01709 0.72689 0.36477 0.0
N892 N 0.01876 0.72669 0.37981 0.0
C893 C 0.02081 0.709 0.37734 0.0
C894 C 0.01724 0.71804 0.35551 0.0
C895 C 0.0206 0.71801 0.38622 0.0
C896 C 0.05189 0.7072 0.36766 0.0
N897 N 0.04071 0.69781 0.3716 0.0
C898 C 0.04736 0.69832 0.39677 0.0
C899 C 0.03831 0.69325 0.38576 0.0
C900 C 0.05901 0.70813 0.39311 0.0
C901 C 0.06124 0.71251 0.37828 0.0
H902 H 0.05352 0.71058 0.35626 0.0
H903 H 0.02928 0.6858 0.38856 0.0
C904 C 0.98059 0.66779 0.35535 0.0
N905 N 0.99024 0.67837 0.36052 0.0
C906 C 0.96897 0.66333 0.36153 0.0
C907 C 0.97736 0.68087 0.37807 0.0
C908 C 0.98883 0.68496 0.3716 0.0
C909 C 0.96726 0.66986 0.37314 0.0
H910 H 0.98197 0.66275 0.34648 0.0
H911 H 0.99658 0.69327 0.37562 0.0
C912 C 0.0396 0.68814 0.32584 0.0
N913 N 0.05254 0.68311 0.30481 0.0
C914 C 0.03522 0.68503 0.31117 0.0
C915 C 0.05057 0.68875 0.32981 0.0
C916 C 0.04189 0.68249 0.30071 0.0
C917 C 0.05698 0.68616 0.31901 0.0
C918 C 0.99684 0.68197 0.32313 0.0
C919 C 0.99001 0.67498 0.31087 0.0
C920 C 0.99519 0.69146 0.32842 0.0
C921 C 0.98165 0.6776 0.3041 0.0
C922 C 0.98673 0.69379 0.32136 0.0
N923 N 0.98019 0.68687 0.30944 0.0
C924 C 0.0048 0.65346 0.32298 0.0
C925 C 0.02454 0.65822 0.33112 0.0
C926 C 0.00312 0.64291 0.31583 0.0
N927 N 0.01544 0.66095 0.33024 0.0
C928 C 0.02328 0.64778 0.32405 0.0
C929 C 0.0125 0.64004 0.31611 0.0
H930 H 0.99762 0.65572 0.32273 0.0
H931 H 0.03283 0.66419 0.3372 0.0
C932 C 0.03357 0.71917 0.32061 0.0
N933 N 0.02534 0.70736 0.31713 0.0
C934 C 0.03787 0.72817 0.30951 0.0
C935 C 0.0251 0.71266 0.29149 0.0
C936 C 0.02102 0.70398 0.30294 0.0
C937 C 0.03374 0.72493 0.29468 0.0
H938 H 0.03699 0.72155 0.33195 0.0
H939 H 0.01463 0.69449 0.30041 0.0
O940 O 0.01395 0.67478 0.36109 0.0
O941 O 0.01946 0.70038 0.35293 0.0
O942 O 0.03314 0.6905 0.3363 0.0
O943 O 0.00512 0.67951 0.32977 0.0
H944 H 0.99324 0.65358 0.35918 0.0
H945 H 0.03172 0.67064 0.36894 0.0
H946 H 0.99127 0.6333 0.36371 0.0
H947 H 0.02905 0.65007 0.37343 0.0
H948 H 0.01566 0.73393 0.36 0.0
H949 H 0.0221 0.702 0.38247 0.0
H950 H 0.01596 0.71825 0.34354 0.0
H951 H 0.02187 0.71807 0.39822 0.0
H952 H 0.04515 0.69477 0.40808 0.0
H953 H 0.07012 0.71993 0.37489 0.0
H954 H 0.9614 0.65488 0.35726 0.0
H955 H 0.97647 0.68611 0.38712 0.0
H956 H 0.02667 0.68437 0.30799 0.0
H957 H 0.05405 0.69112 0.34114 0.0
H958 H 0.03858 0.68 0.28934 0.0
H959 H 0.06547 0.68655 0.32193 0.0
H960 H 0.99122 0.66764 0.30657 0.0
H961 H 0.00031 0.69692 0.3379 0.0
H962 H 0.97632 0.67227 0.29459 0.0
H963 H 0.98535 0.70109 0.32536 0.0
H964 H 0.99455 0.63707 0.31014 0.0
H965 H 0.03077 0.64596 0.32451 0.0
H966 H 0.04468 0.73747 0.31242 0.0
H967 H 0.02163 0.70978 0.28023 0.0
Li968 Li 0.31437 0.33968 0.35591 0.0
Li969 Li 0.31997 0.32417 0.35045 0.0
Li970 Li 0.32993 0.34452 0.33707 0.0
Li971 Li 0.30888 0.32877 0.33111 0.0
C972 C 0.33437 0.34637 0.37232 0.0
N973 N 0.3416 0.3573 0.40018 0.0
C974 C 0.3327 0.33925 0.38504 0.0
C975 C 0.33989 0.35906 0.37375 0.0
C976 C 0.33636 0.34494 0.39903 0.0
C977 C 0.34343 0.36441 0.38793 0.0
C978 C 0.29454 0.31013 0.35481 0.0
C979 C 0.28308 0.28881 0.34781 0.0
N980 N 0.277 0.2862 0.36112 0.0
C981 C 0.28808 0.30725 0.36834 0.0
C982 C 0.29194 0.30085 0.34441 0.0
C983 C 0.27929 0.2951 0.37135 0.0
C984 C 0.3071 0.35551 0.36931 0.0
N985 N 0.30883 0.34587 0.37167 0.0
C986 C 0.30177 0.34395 0.39694 0.0
C987 C 0.3063 0.3401 0.38514 0.0
C988 C 0.29975 0.3538 0.39481 0.0
C989 C 0.30259 0.35968 0.38081 0.0
H990 H 0.309 0.35982 0.35842 0.0
H991 H 0.30768 0.33241 0.38668 0.0
C992 C 0.33198 0.31067 0.35297 0.0
N993 N 0.32289 0.31212 0.35895 0.0
C994 C 0.33499 0.30247 0.3594 0.0
C995 C 0.31927 0.29747 0.37806 0.0
C996 C 0.31655 0.30574 0.37125 0.0
C997 C 0.32867 0.29583 0.3722 0.0
H998 H 0.33705 0.31606 0.34337 0.0
H999 H 0.30962 0.30732 0.37605 0.0
C1000 C 0.31906 0.3572 0.3282 0.0
N1001 N 0.32712 0.37904 0.31318 0.0
C1002 C 0.31497 0.35723 0.31365 0.0
C1003 C 0.32711 0.3683 0.33517 0.0
C1004 C 0.31919 0.36836 0.30623 0.0
C1005 C 0.33112 0.37924 0.32737 0.0
C1006 C 0.32418 0.3212 0.31683 0.0
C1007 C 0.33005 0.3271 0.30355 0.0
C1008 C 0.31882 0.30849 0.31787 0.0
C1009 C 0.33015 0.32016 0.29138 0.0
C1010 C 0.31912 0.30187 0.30547 0.0
N1011 N 0.32471 0.30779 0.29258 0.0
C1012 C 0.35535 0.36073 0.33688 0.0
C1013 C 0.34537 0.36089 0.31449 0.0
C1014 C 0.36672 0.36915 0.33083 0.0
N1015 N 0.34499 0.35677 0.32866 0.0
C1016 C 0.35651 0.36938 0.30805 0.0
C1017 C 0.36739 0.37353 0.31619 0.0
H1018 H 0.35481 0.35718 0.34804 0.0
H1019 H 0.33705 0.35738 0.30805 0.0
C1020 C 0.28487 0.31602 0.31925 0.0
N1021 N 0.29694 0.32217 0.31554 0.0
C1022 C 0.27594 0.31143 0.30806 0.0
C1023 C 0.29202 0.31989 0.28943 0.0
C1024 C 0.30063 0.32422 0.30097 0.0
C1025 C 0.27949 0.31341 0.29292 0.0
H1026 H 0.28215 0.31484 0.3309 0.0
H1027 H 0.31024 0.32952 0.2983 0.0
O1028 O 0.33067 0.34094 0.35856 0.0
O1029 O 0.30327 0.32198 0.35174 0.0
O1030 O 0.31511 0.34638 0.33559 0.0
O1031 O 0.32409 0.32789 0.3289 0.0
H1032 H 0.3285 0.32942 0.38415 0.0
H1033 H 0.34146 0.36473 0.36401 0.0
H1034 H 0.33504 0.33952 0.40898 0.0
H1035 H 0.34766 0.37423 0.3892 0.0
H1036 H 0.28099 0.28155 0.33985 0.0
H1037 H 0.28985 0.31432 0.37646 0.0
H1038 H 0.29658 0.30295 0.33372 0.0
H1039 H 0.27427 0.29274 0.38182 0.0
H1040 H 0.29983 0.33923 0.40759 0.0
H1041 H 0.301 0.36719 0.37862 0.0
H1042 H 0.34243 0.30163 0.35467 0.0
H1043 H 0.31413 0.2925 0.38787 0.0
H1044 H 0.30863 0.34876 0.30814 0.0
H1045 H 0.33025 0.36846 0.34646 0.0
H1046 H 0.31614 0.36851 0.29495 0.0
H1047 H 0.33742 0.38788 0.33261 0.0
H1048 H 0.33439 0.33693 0.30257 0.0
H1049 H 0.3146 0.30377 0.32819 0.0
H1050 H 0.33456 0.32462 0.281 0.0
H1051 H 0.31497 0.29203 0.30613 0.0
H1052 H 0.37489 0.37216 0.33749 0.0
H1053 H 0.35665 0.37236 0.29664 0.0
H1054 H 0.26637 0.3067 0.31123 0.0
H1055 H 0.29513 0.32165 0.27789 0.0
Li1056 Li 0.3226 0.0076 0.66937 0.0
Li1057 Li 0.34224 0.01902 0.68197 0.0
Li1058 Li 0.32603 0.02386 0.68613 0.0
Li1059 Li 0.33717 0.02872 0.66243 0.0
C1060 C 0.31928 0.99674 0.69516 0.0
N1061 N 0.30558 0.97204 0.70151 0.0
C1062 C 0.32499 0.98977 0.69658 0.0
C1063 C 0.30661 0.99115 0.69702 0.0
C1064 C 0.3179 0.9773 0.6998 0.0
C1065 C 0.29985 0.97865 0.7002 0.0
C1066 C 0.34363 0.0156 0.64653 0.0
C1067 C 0.36003 0.02599 0.62865 0.0
N1068 N 0.35227 0.01929 0.6174 0.0
C1069 C 0.33582 0.00882 0.63479 0.0
C1070 C 0.35584 0.02425 0.64345 0.0
C1071 C 0.34037 0.01081 0.62014 0.0
C1072 C 0.29947 0.98843 0.65888 0.0
N1073 N 0.31124 0.99175 0.66207 0.0
C1074 C 0.30765 0.97195 0.65516 0.0
C1075 C 0.31544 0.98382 0.66028 0.0
C1076 C 0.29541 0.96819 0.65183 0.0
C1077 C 0.29134 0.97661 0.65375 0.0
H1078 H 0.29639 0.99493 0.66036 0.0
H1079 H 0.32489 0.98677 0.6628 0.0
C1080 C 0.3548 0.01727 0.70683 0.0
N1081 N 0.35486 0.01765 0.6916 0.0
C1082 C 0.36383 0.01621 0.71448 0.0
C1083 C 0.3728 0.01592 0.6906 0.0
C1084 C 0.36356 0.01693 0.68342 0.0
C1085 C 0.37299 0.01552 0.70634 0.0
H1086 H 0.3477 0.01777 0.71302 0.0
H1087 H 0.36328 0.01707 0.67132 0.0
C1088 C 0.31144 0.02535 0.66679 0.0
N1089 N 0.29614 0.03483 0.67077 0.0
C1090 C 0.31481 0.03698 0.6613 0.0
C1091 C 0.30026 0.01852 0.67424 0.0
C1092 C 0.30695 0.04161 0.66343 0.0
C1093 C 0.29267 0.02349 0.67616 0.0
C1094 C 0.35353 0.04146 0.69153 0.0
C1095 C 0.35191 0.04308 0.70671 0.0
C1096 C 0.36533 0.0456 0.68597 0.0
C1097 C 0.36213 0.04882 0.71607 0.0
C1098 C 0.3753 0.05126 0.69571 0.0
N1099 N 0.37351 0.05274 0.71043 0.0
C1100 C 0.31221 0.02301 0.71198 0.0
C1101 C 0.32246 0.04195 0.69909 0.0
C1102 C 0.30806 0.02805 0.72287 0.0
N1103 N 0.3193 0.03002 0.70045 0.0
C1104 C 0.31854 0.04736 0.70971 0.0
C1105 C 0.31136 0.04043 0.7219 0.0
H1106 H 0.31002 0.01361 0.71293 0.0
H1107 H 0.32823 0.04733 0.68988 0.0
C1108 C 0.33738 0.03702 0.63295 0.0
N1109 N 0.34331 0.04012 0.64634 0.0
C1110 C 0.3416 0.04533 0.62107 0.0
C1111 C 0.35789 0.05989 0.63705 0.0
C1112 C 0.35336 0.0513 0.64859 0.0
C1113 C 0.35196 0.05698 0.62308 0.0
H1114 H 0.32928 0.02813 0.63158 0.0
H1115 H 0.3578 0.05359 0.6594 0.0
O1116 O 0.32602 0.00889 0.69162 0.0
O1117 O 0.33929 0.01395 0.66092 0.0
O1118 O 0.31912 0.02075 0.66508 0.0
O1119 O 0.34362 0.03561 0.68225 0.0
H1120 H 0.33477 0.9939 0.69502 0.0
H1121 H 0.30202 0.99636 0.69576 0.0
H1122 H 0.32219 0.97178 0.70086 0.0
H1123 H 0.29002 0.97419 0.70155 0.0
H1124 H 0.36943 0.03271 0.62609 0.0
H1125 H 0.32632 0.00219 0.63691 0.0
H1126 H 0.36196 0.02972 0.65235 0.0
H1127 H 0.33443 0.00565 0.61095 0.0
H1128 H 0.31126 0.96586 0.65359 0.0
H1129 H 0.28195 0.97408 0.65145 0.0
H1130 H 0.36371 0.01604 0.72662 0.0
H1131 H 0.37959 0.01523 0.68391 0.0
H1132 H 0.32346 0.04243 0.65561 0.0
H1133 H 0.29757 0.00958 0.67872 0.0
H1134 H 0.30946 0.05061 0.6593 0.0
H1135 H 0.28404 0.01835 0.68201 0.0
H1136 H 0.34287 0.03983 0.71127 0.0
H1137 H 0.36674 0.04425 0.67432 0.0
H1138 H 0.361 0.0501 0.72785 0.0
H1139 H 0.38446 0.05442 0.69157 0.0
H1140 H 0.30268 0.02243 0.7322 0.0
H1141 H 0.32119 0.05689 0.70844 0.0
H1142 H 0.33664 0.04278 0.61058 0.0
H1143 H 0.36595 0.06873 0.63905 0.0
Li1144 Li 0.99558 0.31585 0.66757 0.0
Li1145 Li 0.98376 0.32313 0.6797 0.0
Li1146 Li 0.97898 0.30225 0.6837 0.0
Li1147 Li 0.97375 0.30863 0.65936 0.0
C1148 C 0.0055 0.32082 0.69421 0.0
N1149 N 0.02904 0.3277 0.70303 0.0
C1150 C 0.0139 0.33309 0.69732 0.0
C1151 C 0.00905 0.31204 0.69568 0.0
C1152 C 0.02576 0.33638 0.70175 0.0
C1153 C 0.021 0.3157 0.70011 0.0
C1154 C 0.99092 0.33653 0.6541 0.0
C1155 C 0.98602 0.34964 0.63975 0.0
N1156 N 0.99578 0.35962 0.64593 0.0
C1157 C 0.00092 0.34692 0.66027 0.0
C1158 C 0.98342 0.33789 0.64373 0.0
C1159 C 0.00321 0.35851 0.65602 0.0
C1160 C 0.01257 0.31142 0.65207 0.0
N1161 N 0.01129 0.31999 0.65979 0.0
C1162 C 0.03226 0.33494 0.65537 0.0
C1163 C 0.02083 0.33159 0.66146 0.0
C1164 C 0.03383 0.32632 0.64723 0.0
C1165 C 0.02382 0.3144 0.64564 0.0
H1166 H 0.00481 0.30231 0.6507 0.0
H1167 H 0.01957 0.33832 0.66737 0.0
C1168 C 0.98871 0.33942 0.70375 0.0
N1169 N 0.98397 0.33669 0.68967 0.0
C1170 C 0.9893 0.34926 0.71158 0.0
C1171 C 0.97967 0.35306 0.69053 0.0
C1172 C 0.97919 0.34308 0.68316 0.0
C1173 C 0.98489 0.35632 0.70488 0.0
H1174 H 0.99204 0.33392 0.70891 0.0
H1175 H 0.97496 0.34042 0.67225 0.0
C1176 C 0.97819 0.28674 0.66238 0.0
N1177 N 0.96983 0.26191 0.66225 0.0
C1178 C 0.96693 0.27861 0.65582 0.0
C1179 C 0.98525 0.28225 0.66871 0.0
C1180 C 0.96285 0.26608 0.6559 0.0
C1181 C 0.98085 0.26967 0.66858 0.0
C1182 C 0.96094 0.31127 0.68908 0.0
C1183 C 0.96173 0.31021 0.70458 0.0
C1184 C 0.95401 0.31616 0.68339 0.0
C1185 C 0.95558 0.31409 0.71415 0.0
C1186 C 0.948 0.31993 0.69334 0.0
N1187 N 0.94891 0.31883 0.70839 0.0
C1188 C 0.97851 0.29037 0.71093 0.0
C1189 C 0.96181 0.27894 0.69457 0.0
C1190 C 0.97335 0.28112 0.72171 0.0
N1191 N 0.97271 0.2891 0.69768 0.0
C1192 C 0.9564 0.26941 0.70493 0.0
C1193 C 0.96208 0.27048 0.71883 0.0
H1194 H 0.98695 0.29873 0.71336 0.0
H1195 H 0.95719 0.27833 0.68416 0.0
C1196 C 0.96637 0.30408 0.62896 0.0
N1197 N 0.96247 0.30342 0.64332 0.0
C1198 C 0.95794 0.29972 0.61718 0.0
C1199 C 0.94172 0.29429 0.63524 0.0
C1200 C 0.95043 0.29865 0.64664 0.0
C1201 C 0.9454 0.29467 0.62026 0.0
H1202 H 0.97602 0.30782 0.6267 0.0
H1203 H 0.94757 0.29807 0.65819 0.0
O1204 O 0.99387 0.31741 0.68971 0.0
O1205 O 0.98851 0.32509 0.65806 0.0
O1206 O 0.98229 0.29903 0.66252 0.0
O1207 O 0.96718 0.30785 0.67955 0.0
H1208 H 0.01139 0.34005 0.69608 0.0
H1209 H 0.00267 0.30251 0.69338 0.0
H1210 H 0.03238 0.34586 0.7041 0.0
H1211 H 0.02387 0.30901 0.70123 0.0
H1212 H 0.98028 0.35083 0.63177 0.0
H1213 H 0.00667 0.34605 0.66853 0.0
H1214 H 0.97564 0.32996 0.63886 0.0
H1215 H 0.01085 0.36662 0.66081 0.0
H1216 H 0.03969 0.34427 0.65665 0.0
H1217 H 0.02468 0.30749 0.63946 0.0
H1218 H 0.99337 0.35146 0.72265 0.0
H1219 H 0.97591 0.3581 0.68512 0.0
H1220 H 0.96135 0.2819 0.65083 0.0
H1221 H 0.99404 0.28842 0.67367 0.0
H1222 H 0.95412 0.25968 0.65094 0.0
H1223 H 0.9862 0.26607 0.67351 0.0
H1224 H 0.96716 0.30658 0.70917 0.0
H1225 H 0.95346 0.31723 0.67143 0.0
H1226 H 0.95616 0.31337 0.72618 0.0
H1227 H 0.94267 0.32379 0.6891 0.0
H1228 H 0.97795 0.28251 0.73238 0.0
H1229 H 0.94778 0.26135 0.70211 0.0
H1230 H 0.9612 0.30004 0.60585 0.0
H1231 H 0.93219 0.29065 0.63816 0.0
Li1232 Li 0.6817 0.67612 0.6678 0.0
Li1233 Li 0.67232 0.65686 0.68172 0.0
Li1234 Li 0.69444 0.67283 0.68607 0.0
Li1235 Li 0.688 0.6603 0.66324 0.0
C1236 C 0.67819 0.68261 0.69703 0.0
N1237 N 0.67575 0.70061 0.71156 0.0
C1238 C 0.66684 0.68001 0.70279 0.0
C1239 C 0.68834 0.6943 0.69892 0.0
C1240 C 0.66578 0.68925 0.71002 0.0
C1241 C 0.68692 0.70329 0.70623 0.0
C1242 C 0.66066 0.65082 0.65451 0.0
C1243 C 0.64588 0.63015 0.64732 0.0
N1244 N 0.63765 0.63378 0.64426 0.0
C1245 C 0.65212 0.65438 0.6511 0.0
C1246 C 0.65757 0.63864 0.65244 0.0
C1247 C 0.64052 0.64562 0.64601 0.0
C1248 C 0.68475 0.69421 0.6467 0.0
N1249 N 0.67812 0.68751 0.65869 0.0
C1250 C 0.66503 0.696 0.65709 0.0
C1251 C 0.66836 0.68819 0.66386 0.0
C1252 C 0.67169 0.70305 0.6447 0.0
C1253 C 0.68168 0.7021 0.63949 0.0
H1254 H 0.69231 0.6933 0.64262 0.0
H1255 H 0.66292 0.68238 0.67298 0.0
C1256 C 0.65704 0.63679 0.70062 0.0
N1257 N 0.65746 0.64541 0.69118 0.0
C1258 C 0.64621 0.62887 0.70818 0.0
C1259 C 0.63648 0.63885 0.69608 0.0
C1260 C 0.6475 0.64661 0.68888 0.0
C1261 C 0.63574 0.62988 0.70601 0.0
H1262 H 0.66519 0.63624 0.70254 0.0
H1263 H 0.64819 0.65378 0.68166 0.0
C1264 C 0.70952 0.68867 0.66297 0.0
N1265 N 0.73214 0.70943 0.65904 0.0
C1266 C 0.71929 0.68774 0.65714 0.0
C1267 C 0.7112 0.70019 0.66651 0.0
C1268 C 0.73067 0.69833 0.65532 0.0
C1269 C 0.72272 0.71057 0.66452 0.0
C1270 C 0.68929 0.64547 0.68487 0.0
C1271 C 0.70053 0.64762 0.69042 0.0
C1272 C 0.68065 0.63376 0.67993 0.0
C1273 C 0.70306 0.63806 0.6906 0.0
C1274 C 0.68352 0.62444 0.6803 0.0
N1275 N 0.69457 0.62677 0.68556 0.0
C1276 C 0.7043 0.68163 0.7149 0.0
C1277 C 0.71856 0.68254 0.69692 0.0
C1278 C 0.71327 0.68603 0.72606 0.0
N1279 N 0.7071 0.68 0.70066 0.0
C1280 C 0.7278 0.68698 0.70768 0.0
C1281 C 0.72519 0.68867 0.72251 0.0
H1282 H 0.69504 0.67928 0.71768 0.0
H1283 H 0.72043 0.68067 0.68571 0.0
C1284 C 0.6876 0.64956 0.6351 0.0
N1285 N 0.69348 0.65324 0.64849 0.0
C1286 C 0.69206 0.64509 0.62388 0.0
C1287 C 0.70845 0.64819 0.64051 0.0
C1288 C 0.70375 0.6527 0.65133 0.0
C1289 C 0.70265 0.64441 0.62652 0.0
H1290 H 0.67959 0.65032 0.63302 0.0
H1291 H 0.70851 0.65611 0.66183 0.0
O1292 O 0.67937 0.67366 0.68988 0.0
O1293 O 0.67205 0.65926 0.65959 0.0
O1294 O 0.6983 0.67838 0.66479 0.0
O1295 O 0.68669 0.65475 0.68453 0.0
H1296 H 0.65891 0.67097 0.7016 0.0
H1297 H 0.69726 0.69637 0.69497 0.0
H1298 H 0.65702 0.68738 0.71442 0.0
H1299 H 0.6947 0.71239 0.70773 0.0
H1300 H 0.64335 0.62068 0.64573 0.0
H1301 H 0.65439 0.66379 0.65248 0.0
H1302 H 0.66416 0.63578 0.65465 0.0
H1303 H 0.63379 0.64824 0.64344 0.0
H1304 H 0.65709 0.69625 0.66123 0.0
H1305 H 0.68705 0.70739 0.62997 0.0
H1306 H 0.64615 0.62226 0.71592 0.0
H1307 H 0.62864 0.6399 0.69393 0.0
H1308 H 0.71812 0.67892 0.65415 0.0
H1309 H 0.70366 0.70114 0.67056 0.0
H1310 H 0.73834 0.69772 0.65095 0.0
H1311 H 0.72415 0.71953 0.66726 0.0
H1312 H 0.70727 0.6566 0.69443 0.0
H1313 H 0.67181 0.63186 0.67595 0.0
H1314 H 0.71176 0.63963 0.69475 0.0
H1315 H 0.67693 0.61534 0.67645 0.0
H1316 H 0.71087 0.68722 0.73735 0.0
H1317 H 0.73678 0.6886 0.70453 0.0
H1318 H 0.68734 0.64229 0.61322 0.0
H1319 H 0.71679 0.64808 0.64288 0.0
Li1320 Li 0.34306 0.32838 0.68327 0.0
Li1321 Li 0.3278 0.30685 0.68773 0.0
Li1322 Li 0.33891 0.31338 0.66304 0.0
Li1323 Li 0.32289 0.31802 0.66981 0.0
C1324 C 0.35716 0.31696 0.68746 0.0
N1325 N 0.38059 0.32276 0.69541 0.0
C1326 C 0.35933 0.31338 0.70139 0.0
C1327 C 0.36688 0.32332 0.67748 0.0
C1328 C 0.37125 0.31645 0.70523 0.0
C1329 C 0.37866 0.32621 0.68172 0.0
C1330 C 0.32107 0.31966 0.7054 0.0
C1331 C 0.30342 0.30968 0.72159 0.0
N1332 N 0.31062 0.31561 0.73359 0.0
C1333 C 0.32827 0.32575 0.71786 0.0
C1334 C 0.30852 0.31165 0.70724 0.0
C1335 C 0.32283 0.32355 0.73203 0.0
C1336 C 0.35458 0.35356 0.68714 0.0
N1337 N 0.35468 0.34347 0.69215 0.0
C1338 C 0.36986 0.35539 0.71044 0.0
C1339 C 0.36211 0.34417 0.70357 0.0
C1340 C 0.36985 0.36595 0.70561 0.0
C1341 C 0.36215 0.36495 0.69371 0.0
H1342 H 0.34845 0.3527 0.67818 0.0
H1343 H 0.36175 0.33598 0.7077 0.0
C1344 C 0.31321 0.28265 0.69829 0.0
N1345 N 0.32153 0.29427 0.70246 0.0
C1346 C 0.30888 0.27314 0.70871 0.0
C1347 C 0.32166 0.28776 0.72756 0.0
C1348 C 0.32582 0.29696 0.71674 0.0
C1349 C 0.31315 0.27565 0.72355 0.0
H1350 H 0.31008 0.28072 0.68681 0.0
H1351 H 0.33264 0.30622 0.71968 0.0
C1352 C 0.34687 0.3369 0.65074 0.0
N1353 N 0.36183 0.35241 0.62846 0.0
C1354 C 0.3418 0.33825 0.63748 0.0
C1355 C 0.35954 0.34363 0.65278 0.0
C1356 C 0.34952 0.34607 0.62631 0.0
C1357 C 0.36696 0.35137 0.64135 0.0
C1358 C 0.31063 0.29508 0.65932 0.0
C1359 C 0.31087 0.29231 0.64419 0.0
C1360 C 0.2994 0.29113 0.66646 0.0
C1361 C 0.29986 0.28579 0.63637 0.0
C1362 C 0.28859 0.28464 0.65825 0.0
N1363 N 0.28904 0.28214 0.64349 0.0
C1364 C 0.35083 0.30169 0.65076 0.0
C1365 C 0.34479 0.31132 0.6327 0.0
C1366 C 0.3553 0.29728 0.63951 0.0
N1367 N 0.34574 0.3086 0.64719 0.0
C1368 C 0.34909 0.30705 0.62108 0.0
C1369 C 0.35436 0.29985 0.62442 0.0
H1370 H 0.35118 0.29938 0.66234 0.0
H1371 H 0.34035 0.31648 0.6301 0.0
C1372 C 0.30598 0.32622 0.67109 0.0
N1373 N 0.31061 0.3209 0.66198 0.0
C1374 C 0.29771 0.32947 0.66548 0.0
C1375 C 0.29895 0.32147 0.64129 0.0
C1376 C 0.30729 0.3185 0.64732 0.0
C1377 C 0.29417 0.32717 0.65037 0.0
H1378 H 0.30894 0.32822 0.68263 0.0
H1379 H 0.31137 0.31458 0.64021 0.0
O1380 O 0.34554 0.31402 0.68355 0.0
O1381 O 0.32625 0.32162 0.69145 0.0
O1382 O 0.33942 0.32932 0.66182 0.0
O1383 O 0.32132 0.30155 0.66714 0.0
H1384 H 0.35191 0.30833 0.7092 0.0
H1385 H 0.36533 0.32586 0.6665 0.0
H1386 H 0.37307 0.3138 0.71602 0.0
H1387 H 0.38627 0.33115 0.67411 0.0
H1388 H 0.29373 0.30344 0.72318 0.0
H1389 H 0.33798 0.33204 0.71664 0.0
H1390 H 0.30279 0.30699 0.69769 0.0
H1391 H 0.32831 0.32814 0.74179 0.0
H1392 H 0.3755 0.35572 0.71976 0.0
H1393 H 0.36193 0.37288 0.68956 0.0
H1394 H 0.30229 0.26392 0.70519 0.0
H1395 H 0.32534 0.29004 0.73882 0.0
H1396 H 0.33201 0.33323 0.63577 0.0
H1397 H 0.36362 0.34302 0.66313 0.0
H1398 H 0.34571 0.34711 0.61594 0.0
H1399 H 0.37678 0.35661 0.64278 0.0
H1400 H 0.31946 0.2952 0.63852 0.0
H1401 H 0.29904 0.29307 0.67819 0.0
H1402 H 0.29992 0.28363 0.62463 0.0
H1403 H 0.27984 0.28159 0.66361 0.0
H1404 H 0.35905 0.29155 0.64259 0.0
H1405 H 0.34818 0.30925 0.6096 0.0
H1406 H 0.29419 0.33381 0.67285 0.0
H1407 H 0.29661 0.31973 0.62951 0.0
Li1408 Li 0.67727 0.01811 0.68055 0.0
Li1409 Li 0.69817 0.02252 0.68555 0.0
Li1410 Li 0.69235 0.02818 0.6613 0.0
Li1411 Li 0.68582 0.00682 0.66657 0.0
C1412 C 0.6891 0.04102 0.69057 0.0
N1413 N 0.68179 0.054 0.70857 0.0
C1414 C 0.69335 0.04394 0.7053 0.0
C1415 C 0.68123 0.04481 0.68494 0.0
C1416 C 0.68953 0.0505 0.71424 0.0
C1417 C 0.6776 0.05132 0.69424 0.0
C1418 C 0.68189 0.99854 0.69864 0.0
C1419 C 0.68636 0.9829 0.70621 0.0
N1420 N 0.68021 0.98148 0.71927 0.0
C1421 C 0.67547 0.99681 0.71206 0.0
C1422 C 0.68726 0.99144 0.69562 0.0
C1423 C 0.67478 0.98818 0.72238 0.0
C1424 C 0.65272 0.01264 0.68137 0.0
N1425 N 0.66294 0.01636 0.68979 0.0
C1426 C 0.65265 0.01754 0.71167 0.0
C1427 C 0.66306 0.01871 0.70469 0.0
C1428 C 0.64196 0.01374 0.70326 0.0
C1429 C 0.64205 0.01124 0.68792 0.0
H1430 H 0.65284 0.01072 0.66957 0.0
H1431 H 0.67126 0.02148 0.71117 0.0
C1432 C 0.72207 0.03671 0.69621 0.0
N1433 N 0.71066 0.02781 0.70031 0.0
C1434 C 0.73154 0.04163 0.70669 0.0
C1435 C 0.71738 0.02806 0.7254 0.0
C1436 C 0.70817 0.02343 0.71456 0.0
C1437 C 0.72924 0.03738 0.72156 0.0
H1438 H 0.72373 0.04013 0.68484 0.0
H1439 H 0.699 0.01654 0.71765 0.0
C1440 C 0.67248 0.01544 0.64511 0.0
N1441 N 0.66658 0.01957 0.61675 0.0
C1442 C 0.67323 0.00897 0.63282 0.0
C1443 C 0.6686 0.02392 0.64301 0.0
C1444 C 0.67023 0.0112 0.61856 0.0
C1445 C 0.66571 0.02591 0.62857 0.0
C1446 C 0.71179 0.01808 0.66162 0.0
C1447 C 0.71786 0.02126 0.64781 0.0
C1448 C 0.7151 0.01228 0.67242 0.0
C1449 C 0.72698 0.01837 0.64493 0.0
C1450 C 0.72428 0.00956 0.66912 0.0
N1451 N 0.72997 0.01262 0.65556 0.0
C1452 C 0.69966 0.05136 0.64866 0.0
C1453 C 0.69997 0.03695 0.63187 0.0
C1454 C 0.7037 0.06016 0.63735 0.0
N1455 N 0.69788 0.04003 0.64573 0.0
C1456 C 0.70399 0.04546 0.62022 0.0
C1457 C 0.70596 0.05727 0.62291 0.0
H1458 H 0.69801 0.05359 0.6598 0.0
H1459 H 0.69853 0.02789 0.62988 0.0
C1460 C 0.6701 0.98204 0.66202 0.0
N1461 N 0.6814 0.99131 0.65823 0.0
C1462 C 0.66567 0.97038 0.65595 0.0
C1463 C 0.68465 0.97801 0.64226 0.0
C1464 C 0.68869 0.98954 0.64853 0.0
C1465 C 0.67296 0.96824 0.64586 0.0
H1466 H 0.66446 0.98377 0.66962 0.0
H1467 H 0.69754 0.99707 0.64548 0.0
O1468 O 0.69264 0.03449 0.6817 0.0
O1469 O 0.68256 0.0069 0.68838 0.0
O1470 O 0.67559 0.01354 0.65911 0.0
O1471 O 0.70285 0.02088 0.66459 0.0
H1472 H 0.69948 0.04113 0.70983 0.0
H1473 H 0.67785 0.04261 0.67357 0.0
H1474 H 0.6927 0.05278 0.72569 0.0
H1475 H 0.67144 0.05423 0.69006 0.0
H1476 H 0.6905 0.97737 0.70401 0.0
H1477 H 0.67113 0.0021 0.71453 0.0
H1478 H 0.69197 0.99237 0.68515 0.0
H1479 H 0.66992 0.98681 0.73285 0.0
H1480 H 0.65289 0.01938 0.72358 0.0
H1481 H 0.634 0.00835 0.68104 0.0
H1482 H 0.74047 0.04895 0.70327 0.0
H1483 H 0.71521 0.02443 0.73668 0.0
H1484 H 0.67621 0.00238 0.63424 0.0
H1485 H 0.66795 0.02899 0.65241 0.0
H1486 H 0.67084 0.00631 0.60893 0.0
H1487 H 0.66278 0.0325 0.62677 0.0
H1488 H 0.71553 0.02587 0.63938 0.0
H1489 H 0.71075 0.01003 0.68329 0.0
H1490 H 0.7317 0.02072 0.63426 0.0
H1491 H 0.72691 0.00506 0.67738 0.0
H1492 H 0.70499 0.06912 0.63989 0.0
H1493 H 0.70579 0.04289 0.60932 0.0
H1494 H 0.65652 0.9632 0.65887 0.0
H1495 H 0.69064 0.97677 0.63467 0.0
Li1496 Li 0.97689 0.6745 0.68767 0.0
Li1497 Li 0.98072 0.6577 0.68288 0.0
Li1498 Li 0.99235 0.67795 0.66937 0.0
Li1499 Li 0.97092 0.6635 0.66304 0.0
C1500 C 0.99602 0.67984 0.70464 0.0
N1501 N 0.00296 0.69115 0.73231 0.0
C1502 C 0.99393 0.67287 0.71759 0.0
C1503 C 0.00179 0.69258 0.70572 0.0
C1504 C 0.99747 0.67875 0.73149 0.0
C1505 C 0.00518 0.69812 0.71982 0.0
C1506 C 0.95494 0.64559 0.68579 0.0
C1507 C 0.94186 0.62479 0.67746 0.0
N1508 N 0.93514 0.62239 0.69023 0.0
C1509 C 0.94781 0.64294 0.69876 0.0
C1510 C 0.95187 0.63647 0.675 0.0
C1511 C 0.93788 0.63115 0.70083 0.0
C1512 C 0.97117 0.69162 0.7009 0.0
N1513 N 0.97179 0.68132 0.70312 0.0
C1514 C 0.96365 0.67909 0.72785 0.0
C1515 C 0.96824 0.6751 0.71628 0.0
C1516 C 0.96264 0.68955 0.72581 0.0
C1517 C 0.96663 0.69596 0.71219 0.0
H1518 H 0.97392 0.6963 0.69025 0.0
H1519 H 0.9688 0.66691 0.71771 0.0
C1520 C 0.99008 0.64178 0.68663 0.0
N1521 N 0.98183 0.64476 0.69197 0.0
C1522 C 0.9913 0.63253 0.69346 0.0
C1523 C 0.97567 0.62975 0.71129 0.0
C1524 C 0.97474 0.63903 0.70411 0.0
C1525 C 0.98406 0.62641 0.70601 0.0
H1526 H 0.99579 0.64668 0.67715 0.0
H1527 H 0.96852 0.64181 0.7084 0.0
C1528 C 0.98315 0.69178 0.65895 0.0
N1529 N 0.99258 0.71289 0.64203 0.0
C1530 C 0.97948 0.69125 0.64406 0.0
C1531 C 0.9915 0.70306 0.66529 0.0
C1532 C 0.98438 0.70202 0.63568 0.0
C1533 C 0.9962 0.71363 0.65653 0.0
C1534 C 0.98526 0.65394 0.64974 0.0
C1535 C 0.99196 0.65941 0.63672 0.0
C1536 C 0.97892 0.64118 0.65099 0.0
C1537 C 0.99196 0.65204 0.62502 0.0
C1538 C 0.97915 0.63412 0.63905 0.0
N1539 N 0.9856 0.63965 0.62641 0.0
C1540 C 0.01803 0.69296 0.66986 0.0
C1541 C 0.00887 0.69319 0.64682 0.0
C1542 C 0.02968 0.70076 0.66401 0.0
N1543 N 0.00794 0.68932 0.66122 0.0
C1544 C 0.0203 0.70104 0.64055 0.0
C1545 C 0.03094 0.70484 0.64911 0.0
H1546 H 0.01706 0.6896 0.68121 0.0
H1547 H 0.00074 0.69001 0.64008 0.0
C1548 C 0.94729 0.65455 0.65177 0.0
N1549 N 0.95881 0.65751 0.64768 0.0
C1550 C 0.93793 0.65017 0.64115 0.0
C1551 C 0.95253 0.65221 0.62218 0.0
C1552 C 0.9616 0.65652 0.63319 0.0
C1553 C 0.9405 0.64895 0.62611 0.0
H1554 H 0.94537 0.65567 0.66331 0.0
H1555 H 0.97087 0.65925 0.6301 0.0
O1556 O 0.99242 0.67423 0.69096 0.0
O1557 O 0.96473 0.6571 0.68363 0.0
O1558 O 0.97848 0.68132 0.66731 0.0
O1559 O 0.98526 0.66105 0.66136 0.0
H1560 H 0.98953 0.66301 0.71695 0.0
H1561 H 0.00359 0.69812 0.69579 0.0
H1562 H 0.99583 0.67346 0.74162 0.0
H1563 H 0.00959 0.70797 0.72083 0.0
H1564 H 0.9394 0.61766 0.66918 0.0
H1565 H 0.94994 0.64991 0.70716 0.0
H1566 H 0.95704 0.63843 0.66472 0.0
H1567 H 0.93233 0.62896 0.71086 0.0
H1568 H 0.96084 0.67397 0.73823 0.0
H1569 H 0.96588 0.70398 0.7101 0.0
H1570 H 0.99803 0.63039 0.68918 0.0
H1571 H 0.96986 0.62523 0.72088 0.0
H1572 H 0.97296 0.68261 0.63901 0.0
H1573 H 0.99436 0.70366 0.67682 0.0
H1574 H 0.98166 0.70174 0.62412 0.0
H1575 H 0.00273 0.72241 0.66127 0.0
H1576 H 0.99703 0.66924 0.63558 0.0
H1577 H 0.974 0.63675 0.66112 0.0
H1578 H 0.99703 0.65617 0.61484 0.0
H1579 H 0.97426 0.62425 0.63987 0.0
H1580 H 0.03762 0.70329 0.67096 0.0
H1581 H 0.02079 0.70407 0.62909 0.0
H1582 H 0.92885 0.64801 0.64462 0.0
H1583 H 0.95491 0.6514 0.61072 0.0
C1584 C 0.19049 0.30578 0.1332 0.0
C1585 C 0.18921 0.29904 0.1201 0.0
C1586 C 0.18026 0.30337 0.14173 0.0
C1587 C 0.16855 0.29401 0.13752 0.0
C1588 C 0.17746 0.2898 0.11574 0.0
C1589 C 0.16721 0.28733 0.12437 0.0
C1590 C 0.15765 0.29188 0.14615 0.0
C1591 C 0.18006 0.28285 0.17697 0.0
C1592 C 0.18518 0.29117 0.18893 0.0
C1593 C 0.1708 0.28265 0.16819 0.0
C1594 C 0.16653 0.29076 0.17128 0.0
C1595 C 0.1807 0.29908 0.19215 0.0
C1596 C 0.1714 0.29881 0.18348 0.0
C1597 C 0.15699 0.29098 0.16196 0.0
C1598 C 0.10717 0.2847 0.17564 0.0
C1599 C 0.11053 0.29282 0.18786 0.0
C1600 C 0.11612 0.28407 0.16708 0.0
C1601 C 0.12858 0.29159 0.17055 0.0
C1602 C 0.12298 0.30012 0.19147 0.0
C1603 C 0.1319 0.29947 0.18294 0.0
C1604 C 0.1383 0.2913 0.16158 0.0
C1605 C 0.12085 0.30628 0.13109 0.0
C1606 C 0.11489 0.29883 0.11861 0.0
C1607 C 0.12855 0.30402 0.13999 0.0
C1608 C 0.13036 0.29418 0.1367 0.0
C1609 C 0.11684 0.28907 0.11523 0.0
C1610 C 0.12458 0.28682 0.12415 0.0
C1611 C 0.13888 0.29207 0.14577 0.0
H1612 H 0.19937 0.31317 0.13664 0.0
H1613 H 0.1815 0.30903 0.15146 0.0
H1614 H 0.1762 0.28445 0.1057 0.0
H1615 H 0.15824 0.2802 0.12078 0.0
H1616 H 0.18334 0.27664 0.17425 0.0
H1617 H 0.16701 0.2762 0.15899 0.0
H1618 H 0.18434 0.30545 0.20145 0.0
H1619 H 0.16818 0.30508 0.18613 0.0
H1620 H 0.09764 0.27896 0.17259 0.0
H1621 H 0.11332 0.27771 0.15777 0.0
H1622 H 0.12586 0.30628 0.20099 0.0
H1623 H 0.14144 0.30528 0.18593 0.0
H1624 H 0.11979 0.31405 0.1338 0.0
H1625 H 0.13325 0.31009 0.14931 0.0
H1626 H 0.11233 0.28312 0.10576 0.0
H1627 H 0.12598 0.27928 0.12132 0.0
N1628 N 0.1485 0.29227 0.13865 0.0
N1629 N 0.14739 0.29082 0.16904 0.0
C1630 C 0.69546 0.88222 0.13081 0.0
C1631 C 0.7017 0.88641 0.11711 0.0
C1632 C 0.69751 0.87449 0.13994 0.0
C1633 C 0.70611 0.87107 0.13578 0.0
C1634 C 0.71012 0.8828 0.11278 0.0
C1635 C 0.71229 0.87519 0.12204 0.0
C1636 C 0.7079 0.86238 0.14502 0.0
C1637 C 0.7183 0.8954 0.17398 0.0
C1638 C 0.71064 0.8928 0.18655 0.0
C1639 C 0.71806 0.8859 0.16561 0.0
C1640 C 0.71009 0.87364 0.16964 0.0
C1641 C 0.70298 0.88053 0.19078 0.0
C1642 C 0.70275 0.87107 0.18245 0.0
C1643 C 0.7093 0.86335 0.16079 0.0
C1644 C 0.71508 0.81987 0.17631 0.0
C1645 C 0.70777 0.81598 0.18931 0.0
C1646 C 0.71543 0.82907 0.16728 0.0
C1647 C 0.70834 0.83441 0.17095 0.0
C1648 C 0.70088 0.82152 0.19309 0.0
C1649 C 0.70121 0.83067 0.18404 0.0
C1650 C 0.70839 0.84404 0.16148 0.0
C1651 C 0.69134 0.81005 0.13322 0.0
C1652 C 0.69837 0.81067 0.12065 0.0
C1653 C 0.69423 0.82056 0.14145 0.0
C1654 C 0.70425 0.8319 0.13736 0.0
C1655 C 0.70836 0.82209 0.1165 0.0
C1656 C 0.7112 0.83263 0.12473 0.0
C1657 C 0.70702 0.84309 0.14574 0.0
H1658 H 0.68872 0.88463 0.13425 0.0
H1659 H 0.69219 0.871 0.15012 0.0
H1660 H 0.71504 0.88591 0.10227 0.0
H1661 H 0.71879 0.8725 0.11847 0.0
H1662 H 0.72431 0.90476 0.17046 0.0
H1663 H 0.72403 0.88811 0.15597 0.0
H1664 H 0.69716 0.87823 0.20059 0.0
H1665 H 0.69663 0.8617 0.18588 0.0
H1666 H 0.72064 0.81591 0.17324 0.0
H1667 H 0.7213 0.83204 0.15748 0.0
H1668 H 0.69505 0.81864 0.20292 0.0
H1669 H 0.69569 0.83468 0.18714 0.0
H1670 H 0.68341 0.80148 0.13652 0.0
H1671 H 0.6885 0.81985 0.1509 0.0
H1672 H 0.71403 0.82289 0.10697 0.0
H1673 H 0.7189 0.84133 0.1213 0.0
N1674 N 0.70691 0.85233 0.13811 0.0
N1675 N 0.70942 0.85411 0.16837 0.0
C1676 C 0.11703 0.81375 0.13376 0.0
C1677 C 0.11215 0.81493 0.12014 0.0
C1678 C 0.12429 0.82402 0.1426 0.0
C1679 C 0.12664 0.83565 0.13814 0.0
C1680 C 0.11458 0.82659 0.11563 0.0
C1681 C 0.12179 0.83686 0.12453 0.0
C1682 C 0.13505 0.84668 0.14687 0.0
C1683 C 0.10307 0.82379 0.17746 0.0
C1684 C 0.10631 0.81992 0.19056 0.0
C1685 C 0.11211 0.83278 0.16828 0.0
C1686 C 0.12455 0.83793 0.17197 0.0
C1687 C 0.11876 0.8252 0.19425 0.0
C1688 C 0.12775 0.83414 0.1851 0.0
C1689 C 0.13436 0.84751 0.16261 0.0
C1690 C 0.17589 0.8985 0.17659 0.0
C1691 C 0.18025 0.89573 0.18963 0.0
C1692 C 0.16705 0.88912 0.16763 0.0
C1693 C 0.16253 0.87681 0.17149 0.0
C1694 C 0.17564 0.88339 0.19345 0.0
C1695 C 0.16683 0.87405 0.18453 0.0
C1696 C 0.15308 0.86666 0.16239 0.0
C1697 C 0.18649 0.88466 0.13311 0.0
C1698 C 0.18501 0.88943 0.11957 0.0
C1699 C 0.17639 0.87716 0.14204 0.0
C1700 C 0.1646 0.87443 0.13775 0.0
C1701 C 0.17319 0.88661 0.11523 0.0
C1702 C 0.16307 0.87913 0.12422 0.0
C1703 C 0.15378 0.86583 0.14666 0.0
H1704 H 0.11556 0.80494 0.13738 0.0
H1705 H 0.12833 0.82289 0.15272 0.0
H1706 H 0.1109 0.82777 0.10522 0.0
H1707 H 0.12364 0.84577 0.12076 0.0
H1708 H 0.09355 0.82001 0.17442 0.0
H1709 H 0.10939 0.83577 0.1584 0.0
H1710 H 0.1216 0.82229 0.20411 0.0
H1711 H 0.13728 0.83798 0.1882 0.0
H1712 H 0.17914 0.90792 0.17345 0.0
H1713 H 0.16366 0.89148 0.1578 0.0
H1714 H 0.17894 0.88091 0.20326 0.0
H1715 H 0.16349 0.86463 0.18774 0.0
H1716 H 0.19544 0.88642 0.13659 0.0
H1717 H 0.17777 0.87325 0.15212 0.0
H1718 H 0.17176 0.8902 0.10489 0.0
H1719 H 0.15403 0.877 0.1206 0.0
N1720 N 0.14469 0.85592 0.13951 0.0
N1721 N 0.14343 0.85744 0.16972 0.0
C1722 C 0.29976 0.11597 0.84437 0.0
C1723 C 0.29045 0.1093 0.83386 0.0
C1724 C 0.29924 0.1246 0.85366 0.0
C1725 C 0.2893 0.1266 0.85283 0.0
C1726 C 0.28046 0.11127 0.83311 0.0
C1727 C 0.27994 0.1199 0.84244 0.0
C1728 C 0.2892 0.13644 0.86175 0.0
C1729 C 0.28766 0.1088 0.89467 0.0
C1730 C 0.29753 0.11351 0.90476 0.0
C1731 C 0.28559 0.11669 0.8858 0.0
C1732 C 0.29351 0.12942 0.88666 0.0
C1733 C 0.30525 0.12625 0.90584 0.0
C1734 C 0.30324 0.1341 0.89692 0.0
C1735 C 0.2917 0.13804 0.8773 0.0
C1736 C 0.28866 0.1835 0.89116 0.0
C1737 C 0.29857 0.18907 0.90116 0.0
C1738 C 0.28628 0.17296 0.88326 0.0
C1739 C 0.29396 0.16798 0.88496 0.0
C1740 C 0.306 0.18387 0.90316 0.0
C1741 C 0.30371 0.17343 0.89515 0.0
C1742 C 0.29188 0.157 0.87649 0.0
C1743 C 0.30022 0.18565 0.84143 0.0
C1744 C 0.29038 0.18288 0.83176 0.0
C1745 C 0.29981 0.17677 0.85106 0.0
C1746 C 0.28953 0.16495 0.85132 0.0
C1747 C 0.2801 0.171 0.83203 0.0
C1748 C 0.27972 0.1621 0.84164 0.0
C1749 C 0.28934 0.15538 0.86096 0.0
H1750 H 0.30754 0.11462 0.84531 0.0
H1751 H 0.30677 0.12991 0.86125 0.0
H1752 H 0.27324 0.10642 0.82498 0.0
H1753 H 0.27229 0.12145 0.84144 0.0
H1754 H 0.28146 0.09903 0.89377 0.0
H1755 H 0.27778 0.11285 0.87834 0.0
H1756 H 0.31301 0.13015 0.91338 0.0
H1757 H 0.30944 0.14388 0.89785 0.0
H1758 H 0.28267 0.18722 0.88959 0.0
H1759 H 0.27844 0.1687 0.87587 0.0
H1760 H 0.31377 0.18802 0.91069 0.0
H1761 H 0.30972 0.16974 0.89675 0.0
H1762 H 0.3084 0.19459 0.84129 0.0
H1763 H 0.30764 0.17907 0.85812 0.0
H1764 H 0.27232 0.16858 0.82483 0.0
H1765 H 0.27176 0.15299 0.84157 0.0
N1766 N 0.28802 0.14513 0.85423 0.0
N1767 N 0.29298 0.14828 0.88399 0.0
C1768 C 0.89454 0.18037 0.89296 0.0
C1769 C 0.89005 0.18607 0.90253 0.0
C1770 C 0.88648 0.1702 0.88439 0.0
C1771 C 0.87382 0.16575 0.88497 0.0
C1772 C 0.87738 0.18141 0.90337 0.0
C1773 C 0.86935 0.17135 0.8947 0.0
C1774 C 0.86504 0.15507 0.87594 0.0
C1775 C 0.88837 0.18378 0.84208 0.0
C1776 C 0.89447 0.18034 0.83169 0.0
C1777 C 0.87952 0.17512 0.85167 0.0
C1778 C 0.87681 0.16289 0.85134 0.0
C1779 C 0.89172 0.1681 0.83132 0.0
C1780 C 0.88296 0.15946 0.84105 0.0
C1781 C 0.86676 0.15345 0.8606 0.0
C1782 C 0.81776 0.1141 0.84054 0.0
C1783 C 0.82084 0.10687 0.83157 0.0
C1784 C 0.82638 0.12294 0.85017 0.0
C1785 C 0.83823 0.12468 0.85112 0.0
C1786 C 0.83271 0.1086 0.83262 0.0
C1787 C 0.84135 0.11749 0.84223 0.0
C1788 C 0.84766 0.13465 0.86042 0.0
C1789 C 0.81942 0.10754 0.89238 0.0
C1790 C 0.8135 0.11242 0.90092 0.0
C1791 C 0.82996 0.11526 0.88413 0.0
C1792 C 0.8347 0.12797 0.88422 0.0
C1793 C 0.81842 0.12516 0.90117 0.0
C1794 C 0.82893 0.13285 0.89296 0.0
C1795 C 0.84585 0.13639 0.87566 0.0
H1796 H 0.90427 0.18367 0.89227 0.0
H1797 H 0.89015 0.1658 0.87736 0.0
H1798 H 0.87366 0.18569 0.91054 0.0
H1799 H 0.85963 0.16806 0.89544 0.0
H1800 H 0.89009 0.19308 0.84239 0.0
H1801 H 0.87456 0.17794 0.85903 0.0
H1802 H 0.8963 0.1652 0.82344 0.0
H1803 H 0.8809 0.15005 0.84043 0.0
H1804 H 0.80881 0.11322 0.83978 0.0
H1805 H 0.82388 0.12864 0.85658 0.0
H1806 H 0.83536 0.10312 0.82598 0.0
H1807 H 0.85049 0.11878 0.84269 0.0
H1808 H 0.81584 0.09776 0.89193 0.0
H1809 H 0.83442 0.11129 0.87777 0.0
H1810 H 0.81422 0.12923 0.90786 0.0
H1811 H 0.8325 0.14263 0.89334 0.0
N1812 N 0.85461 0.14652 0.88278 0.0
N1813 N 0.85805 0.14322 0.85352 0.0
C1814 C 0.81695 0.71188 0.89061 0.0
C1815 C 0.81144 0.702 0.90067 0.0
C1816 C 0.82754 0.71433 0.88277 0.0
C1817 C 0.83265 0.70678 0.88464 0.0
C1818 C 0.81678 0.69471 0.90283 0.0
C1819 C 0.82728 0.69709 0.89492 0.0
C1820 C 0.84364 0.70889 0.87619 0.0
C1821 C 0.81446 0.69952 0.84161 0.0
C1822 C 0.81721 0.70875 0.83098 0.0
C1823 C 0.82347 0.70031 0.85132 0.0
C1824 C 0.83538 0.71046 0.8508 0.0
C1825 C 0.82917 0.71887 0.83042 0.0
C1826 C 0.83818 0.71967 0.84018 0.0
C1827 C 0.84511 0.71107 0.86058 0.0
C1828 C 0.88597 0.70231 0.84524 0.0
C1829 C 0.8922 0.71135 0.83428 0.0
C1830 C 0.87708 0.70256 0.85428 0.0
C1831 C 0.8744 0.71203 0.85282 0.0
C1832 C 0.8895 0.72082 0.83284 0.0
C1833 C 0.88065 0.72112 0.84198 0.0
C1834 C 0.86436 0.71187 0.86159 0.0
C1835 C 0.89247 0.7151 0.89497 0.0
C1836 C 0.88812 0.70503 0.90473 0.0
C1837 C 0.88433 0.71678 0.88609 0.0
C1838 C 0.87171 0.70834 0.8867 0.0
C1839 C 0.87546 0.69677 0.90553 0.0
C1840 C 0.86735 0.69845 0.89667 0.0
C1841 C 0.86287 0.70967 0.8772 0.0
H1842 H 0.81313 0.71777 0.8889 0.0
H1843 H 0.83172 0.7221 0.87526 0.0
H1844 H 0.81268 0.68696 0.91039 0.0
H1845 H 0.83108 0.69118 0.89663 0.0
H1846 H 0.80533 0.69165 0.84243 0.0
H1847 H 0.82116 0.69289 0.85909 0.0
H1848 H 0.83165 0.72603 0.82219 0.0
H1849 H 0.84736 0.72748 0.83942 0.0
H1850 H 0.88788 0.69493 0.84676 0.0
H1851 H 0.87211 0.69519 0.86219 0.0
H1852 H 0.89397 0.72782 0.82435 0.0
H1853 H 0.87858 0.72839 0.84047 0.0
H1854 H 0.90215 0.72173 0.89428 0.0
H1855 H 0.88788 0.72466 0.87877 0.0
H1856 H 0.87181 0.68883 0.91275 0.0
H1857 H 0.85766 0.69184 0.89736 0.0
N1858 N 0.85256 0.70823 0.88384 0.0
N1859 N 0.85546 0.71257 0.85392 0.0
C1860 C 0.77404 0.62371 0.45587 0.0
C1861 C 0.77872 0.63439 0.44713 0.0
C1862 C 0.78192 0.62113 0.464 0.0
C1863 C 0.79461 0.62924 0.46359 0.0
C1864 C 0.79146 0.6423 0.44649 0.0
C1865 C 0.79931 0.6397 0.45455 0.0
C1866 C 0.80312 0.62703 0.47256 0.0
C1867 C 0.78117 0.63502 0.5057 0.0
C1868 C 0.77467 0.62579 0.51636 0.0
C1869 C 0.78981 0.63454 0.49638 0.0
C1870 C 0.79192 0.62467 0.49723 0.0
C1871 C 0.77683 0.61592 0.51722 0.0
C1872 C 0.7854 0.6154 0.50778 0.0
C1873 C 0.80164 0.6245 0.4881 0.0
C1874 C 0.85084 0.63453 0.50699 0.0
C1875 C 0.84779 0.62529 0.5177 0.0
C1876 C 0.84198 0.63399 0.49723 0.0
C1877 C 0.82992 0.62411 0.49781 0.0
C1878 C 0.83574 0.61535 0.51819 0.0
C1879 C 0.82686 0.61482 0.5084 0.0
C1880 C 0.82029 0.62406 0.48838 0.0
C1881 C 0.8465 0.62107 0.45713 0.0
C1882 C 0.85282 0.63124 0.44762 0.0
C1883 C 0.83628 0.61938 0.46524 0.0
C1884 C 0.83228 0.62788 0.46408 0.0
C1885 C 0.8486 0.63957 0.44625 0.0
C1886 C 0.83839 0.63786 0.45433 0.0
C1887 C 0.82169 0.62648 0.47282 0.0
H1888 H 0.76429 0.61731 0.4564 0.0
H1889 H 0.77811 0.61285 0.47064 0.0
H1890 H 0.79538 0.65069 0.44005 0.0
H1891 H 0.80908 0.64606 0.45406 0.0
H1892 H 0.77968 0.6427 0.50463 0.0
H1893 H 0.79501 0.64205 0.48872 0.0
H1894 H 0.77216 0.60877 0.52548 0.0
H1895 H 0.78705 0.60781 0.50883 0.0
H1896 H 0.86006 0.64226 0.50627 0.0
H1897 H 0.8445 0.64147 0.48949 0.0
H1898 H 0.83307 0.60818 0.52645 0.0
H1899 H 0.81756 0.60722 0.5092 0.0
H1900 H 0.84939 0.61437 0.45823 0.0
H1901 H 0.83151 0.61142 0.47239 0.0
H1902 H 0.85334 0.64758 0.43918 0.0
H1903 H 0.83545 0.64452 0.45322 0.0
N1904 N 0.8131 0.62796 0.46556 0.0
N1905 N 0.81026 0.62305 0.49538 0.0
C1906 C 0.35852 0.21521 0.46584 0.0
C1907 C 0.3648 0.22069 0.45247 0.0
C1908 C 0.36147 0.20771 0.47412 0.0
C1909 C 0.37087 0.20565 0.46932 0.0
C1910 C 0.37411 0.21849 0.44759 0.0
C1911 C 0.37706 0.21097 0.4559 0.0
C1912 C 0.37367 0.1973 0.47772 0.0
C1913 C 0.38342 0.22959 0.50786 0.0
C1914 C 0.37679 0.22649 0.52138 0.0
C1915 C 0.38322 0.22047 0.49871 0.0
C1916 C 0.37619 0.20809 0.50281 0.0
C1917 C 0.36995 0.21411 0.52554 0.0
C1918 C 0.36969 0.20503 0.51639 0.0
C1919 C 0.37569 0.19818 0.49337 0.0
C1920 C 0.3844 0.15596 0.50571 0.0
C1921 C 0.37781 0.15195 0.51923 0.0
C1922 C 0.38405 0.16505 0.49718 0.0
C1923 C 0.37688 0.17008 0.50186 0.0
C1924 C 0.37091 0.15723 0.52405 0.0
C1925 C 0.37048 0.16621 0.51548 0.0
C1926 C 0.37602 0.17948 0.49291 0.0
C1927 C 0.3599 0.14567 0.4645 0.0
C1928 C 0.36641 0.14691 0.45119 0.0
C1929 C 0.36235 0.15595 0.47296 0.0
C1930 C 0.37147 0.16767 0.46842 0.0
C1931 C 0.37535 0.15868 0.44648 0.0
C1932 C 0.37782 0.16898 0.45499 0.0
C1933 C 0.37397 0.17858 0.47727 0.0
H1934 H 0.35112 0.21649 0.46973 0.0
H1935 H 0.35626 0.20335 0.48416 0.0
H1936 H 0.37916 0.22263 0.43739 0.0
H1937 H 0.38423 0.20937 0.45191 0.0
H1938 H 0.3889 0.23907 0.50446 0.0
H1939 H 0.38859 0.22311 0.4885 0.0
H1940 H 0.36459 0.2114 0.53577 0.0
H1941 H 0.36424 0.19556 0.51982 0.0
H1942 H 0.38992 0.15216 0.50184 0.0
H1943 H 0.38938 0.16814 0.48695 0.0
H1944 H 0.36564 0.15424 0.53433 0.0
H1945 H 0.36492 0.16997 0.51937 0.0
H1946 H 0.35276 0.13677 0.46825 0.0
H1947 H 0.35702 0.15475 0.48301 0.0
H1948 H 0.38055 0.15993 0.4363 0.0
H1949 H 0.38478 0.17796 0.45119 0.0
N1950 N 0.37298 0.18758 0.47026 0.0
N1951 N 0.37674 0.18921 0.50032 0.0
C1952 C 0.78533 0.14385 0.46163 0.0
C1953 C 0.77949 0.1446 0.4486 0.0
C1954 C 0.79313 0.15437 0.46975 0.0
C1955 C 0.79519 0.16585 0.46511 0.0
C1956 C 0.78172 0.15615 0.44384 0.0
C1957 C 0.78957 0.16669 0.45199 0.0
C1958 C 0.80373 0.17702 0.4735 0.0
C1959 C 0.77135 0.15487 0.50347 0.0
C1960 C 0.77424 0.15111 0.51691 0.0
C1961 C 0.78063 0.16374 0.49445 0.0
C1962 C 0.79297 0.16881 0.49857 0.0
C1963 C 0.78658 0.15639 0.52113 0.0
C1964 C 0.79583 0.16516 0.51209 0.0
C1965 C 0.80303 0.17811 0.48919 0.0
C1966 C 0.84603 0.22847 0.50261 0.0
C1967 C 0.85045 0.22544 0.5154 0.0
C1968 C 0.83672 0.21928 0.49391 0.0
C1969 C 0.83179 0.2069 0.49777 0.0
C1970 C 0.84536 0.21304 0.51927 0.0
C1971 C 0.8361 0.2039 0.51061 0.0
C1972 C 0.82206 0.19692 0.48876 0.0
C1973 C 0.85542 0.21489 0.45953 0.0
C1974 C 0.85392 0.21979 0.44612 0.0
C1975 C 0.8453 0.20715 0.4683 0.0
C1976 C 0.8335 0.20439 0.46402 0.0
C1977 C 0.84208 0.2168 0.44166 0.0
C1978 C 0.83195 0.20914 0.45053 0.0
C1979 C 0.82269 0.19591 0.47303 0.0
H1980 H 0.78406 0.13516 0.4654 0.0
H1981 H 0.79769 0.15355 0.47956 0.0
H1982 H 0.77733 0.15703 0.4339 0.0
H1983 H 0.79116 0.17549 0.44812 0.0
H1984 H 0.76191 0.15108 0.50004 0.0
H1985 H 0.77815 0.16666 0.4843 0.0
H1986 H 0.78911 0.15358 0.53133 0.0
H1987 H 0.80527 0.16897 0.51555 0.0
H1988 H 0.84965 0.23794 0.49945 0.0
H1989 H 0.83335 0.22183 0.48423 0.0
H1990 H 0.84868 0.21036 0.5289 0.0
H1991 H 0.83244 0.19442 0.51381 0.0
H1992 H 0.86441 0.21681 0.46306 0.0
H1993 H 0.8467 0.20319 0.47832 0.0
H1994 H 0.84066 0.22046 0.43138 0.0
H1995 H 0.8229 0.20696 0.4469 0.0
N1996 N 0.81346 0.18603 0.466 0.0
N1997 N 0.81226 0.18797 0.49619 0.0
C1998 C 0.98115 0.52676 0.17413 0.0
C1999 C 0.98847 0.53161 0.16124 0.0
C2000 C 0.98222 0.5183 0.18312 0.0
C2001 C 0.99069 0.5146 0.17944 0.0
C2002 C 0.99689 0.52782 0.1576 0.0
C2003 C 0.99792 0.51935 0.16655 0.0
C2004 C 0.99177 0.50546 0.18859 0.0
C2005 C 0.00528 0.53883 0.21781 0.0
C2006 C 0.99801 0.53696 0.23058 0.0
C2007 C 0.00367 0.5289 0.20916 0.0
C2008 C 0.99471 0.51693 0.21308 0.0
C2009 C 0.98911 0.52496 0.23454 0.0
C2010 C 0.98754 0.51503 0.22592 0.0
C2011 C 0.9932 0.50633 0.20432 0.0
C2012 C 0.00644 0.4681 0.21811 0.0
C2013 C -0.00038 0.46297 0.23127 0.0
C2014 C 0.00445 0.47609 0.2094 0.0
C2015 C 0.99551 0.47901 0.21359 0.0
C2016 C 0.99081 0.46609 0.23556 0.0
C2017 C 0.98883 0.47409 0.22684 0.0
C2018 C 0.99347 0.48762 0.20459 0.0
C2019 C 0.98166 0.4542 0.1762 0.0
C2020 C 0.98812 0.45632 0.16265 0.0
C2021 C 0.98277 0.464 0.18472 0.0
C2022 C 0.99058 0.47612 0.18002 0.0
C2023 C 0.99571 0.46843 0.15781 0.0
C2024 C 0.9969 0.47822 0.16639 0.0
C2025 C 0.99186 0.48664 0.18886 0.0
H2026 H 0.97443 0.52932 0.17712 0.0
H2027 H 0.97631 0.51452 0.19281 0.0
H2028 H 0.00279 0.53149 0.14788 0.0
H2029 H 0.00448 0.51658 0.16348 0.0
H2030 H 0.01218 0.54797 0.21446 0.0
H2031 H 0.00951 0.53057 0.1995 0.0
H2032 H 0.98349 0.52323 0.24444 0.0
H2033 H 0.98069 0.50585 0.22925 0.0
H2034 H 0.01346 0.46609 0.21467 0.0
H2035 H 0.00999 0.48009 0.19947 0.0
H2036 H 0.98533 0.46221 0.24556 0.0
H2037 H 0.98197 0.47632 0.23034 0.0
H2038 H 0.97557 0.44496 0.18007 0.0
H2039 H 0.97743 0.46209 0.1949 0.0
H2040 H 0.00086 0.47034 0.14746 0.0
H2041 H 0.00289 0.48747 0.16246 0.0
N2042 N 0.99119 0.49567 0.18147 0.0
N2043 N 0.99396 0.49736 0.21172 0.0
C2044 C 0.48587 0.43996 0.17707 0.0
C2045 C 0.48138 0.44279 0.1642 0.0
C2046 C 0.49527 0.44927 0.18553 0.0
C2047 C 0.50026 0.46158 0.18131 0.0
C2048 C 0.48673 0.45509 0.15974 0.0
C2049 C 0.49608 0.46436 0.16817 0.0
C2050 C 0.5098 0.4717 0.19037 0.0
C2051 C 0.47606 0.45402 0.21922 0.0
C2052 C 0.47738 0.44925 0.23286 0.0
C2053 C 0.48627 0.46154 0.21044 0.0
C2054 C 0.49801 0.46423 0.21493 0.0
C2055 C 0.48917 0.45208 0.23742 0.0
C2056 C 0.49938 0.45955 0.22856 0.0
C2057 C 0.50893 0.4727 0.20608 0.0
C2058 C 0.54548 0.52477 0.21825 0.0
C2059 C 0.55119 0.52403 0.23139 0.0
C2060 C 0.538 0.51429 0.20988 0.0
C2061 C 0.53614 0.50285 0.21439 0.0
C2062 C 0.54923 0.51252 0.23595 0.0
C2063 C 0.54169 0.50202 0.22757 0.0
C2064 C 0.52777 0.49169 0.20588 0.0
C2065 C 0.56038 0.51435 0.17667 0.0
C2066 C 0.55756 0.51883 0.16378 0.0
C2067 C 0.55104 0.50509 0.18523 0.0
C2068 C 0.53874 0.50019 0.18107 0.0
C2069 C 0.54525 0.51367 0.15946 0.0
C2070 C 0.53595 0.5044 0.16798 0.0
C2071 C 0.52866 0.49069 0.19021 0.0
H2072 H 0.48195 0.43057 0.18079 0.0
H2073 H 0.49855 0.44687 0.19542 0.0
H2074 H 0.48368 0.45756 0.1497 0.0
H2075 H 0.49988 0.47377 0.16459 0.0
H2076 H 0.46712 0.45196 0.2153 0.0
H2077 H 0.48499 0.46538 0.20023 0.0
H2078 H 0.49054 0.44874 0.24798 0.0
H2079 H 0.50838 0.46171 0.23239 0.0
H2080 H 0.54656 0.53342 0.2146 0.0
H2081 H 0.53348 0.5151 0.20001 0.0
H2082 H 0.55356 0.51164 0.24596 0.0
H2083 H 0.54025 0.49325 0.23133 0.0
H2084 H 0.56977 0.51816 0.18027 0.0
H2085 H 0.55344 0.50179 0.19511 0.0
H2086 H 0.5428 0.51675 0.14943 0.0
H2087 H 0.52653 0.50068 0.16447 0.0
N2088 N 0.5196 0.48077 0.18307 0.0
N2089 N 0.518 0.48262 0.21323 0.0
C2090 C 0.46878 0.01152 0.22311 0.0
C2091 C 0.46223 0.00119 0.23232 0.0
C2092 C 0.47879 0.01302 0.21472 0.0
C2093 C 0.48231 0.00411 0.21517 0.0
C2094 C 0.46603 0.99249 0.23308 0.0
C2095 C 0.47599 0.99397 0.22463 0.0
C2096 C 0.49275 0.00541 0.20617 0.0
C2097 C 0.46419 0.00167 0.17344 0.0
C2098 C 0.46797 0.01152 0.16344 0.0
C2099 C 0.47272 0.00061 0.18227 0.0
C2100 C 0.48518 0.00957 0.18162 0.0
C2101 C 0.4805 0.02033 0.16259 0.0
C2102 C 0.489 0.01934 0.17157 0.0
C2103 C 0.49436 0.00849 0.19076 0.0
C2104 C 0.53579 0.00072 0.17304 0.0
C2105 C 0.54272 0.01104 0.16396 0.0
C2106 C 0.52621 -0.00018 0.18183 0.0
C2107 C 0.52345 0.00928 0.18184 0.0
C2108 C 0.53986 0.02044 0.16389 0.0
C2109 C 0.53026 0.01953 0.17267 0.0
C2110 C 0.51315 0.00831 0.19083 0.0
C2111 C 0.54114 0.01072 0.2237 0.0
C2112 C 0.53704 0.00021 0.23261 0.0
C2113 C 0.53287 0.01238 0.21509 0.0
C2114 C 0.52037 0.0035 0.21513 0.0
C2115 C 0.5245 0.99144 0.23282 0.0
C2116 C 0.51624 0.99312 0.22422 0.0
C2117 C 0.51147 0.00514 0.20618 0.0
H2118 H 0.46607 0.01837 0.22219 0.0
H2119 H 0.48374 0.02111 0.20784 0.0
H2120 H 0.46136 0.98457 0.2403 0.0
H2121 H 0.47866 0.98708 0.22534 0.0
H2122 H 0.45462 0.99475 0.17449 0.0
H2123 H 0.46955 0.99273 0.18952 0.0
H2124 H 0.4838 0.02789 0.15479 0.0
H2125 H 0.49859 0.02625 0.17067 0.0
H2126 H 0.53779 0.99334 0.17339 0.0
H2127 H 0.52088 0.99167 0.18851 0.0
H2128 H 0.54489 0.02842 0.15683 0.0
H2129 H 0.52818 0.02686 0.17236 0.0
H2130 H 0.55075 0.01761 0.22325 0.0
H2131 H 0.53624 0.02062 0.20845 0.0
H2132 H 0.52103 0.98335 0.23976 0.0
H2133 H 0.50661 0.98623 0.22457 0.0
N2134 N 0.50132 0.00376 0.21322 0.0
N2135 N 0.50456 0.00992 0.18374 0.0
C2136 C 0.53899 0.00467 0.79795 0.0
C2137 C 0.53686 0.99819 0.78439 0.0
C2138 C 0.52922 0.00322 0.80678 0.0
C2139 C 0.51711 0.99507 0.80242 0.0
C2140 C 0.52471 0.99022 0.7799 0.0
C2141 C 0.51494 0.98871 0.78881 0.0
C2142 C 0.50667 0.99363 0.81153 0.0
C2143 C 0.52666 0.98018 0.84014 0.0
C2144 C 0.53206 0.98741 0.85296 0.0
C2145 C 0.51813 0.98161 0.83176 0.0
C2146 C 0.51491 0.99032 0.836 0.0
C2147 C 0.52864 0.99597 0.8573 0.0
C2148 C 0.52009 0.99735 0.84896 0.0
C2149 C 0.50594 0.99199 0.82725 0.0
C2150 C 0.4556 0.98346 0.84161 0.0
C2151 C 0.45824 0.99069 0.8546 0.0
C2152 C 0.46507 0.98404 0.83285 0.0
C2153 C 0.47734 0.99196 0.83683 0.0
C2154 C 0.47053 0.99841 0.8587 0.0
C2155 C 0.47998 0.99899 0.84994 0.0
C2156 C 0.48748 0.99275 0.82767 0.0
C2157 C 0.4687 0.00758 0.79925 0.0
C2158 C 0.46287 0.00038 0.78655 0.0
C2159 C 0.47694 0.00564 0.80752 0.0
C2160 C 0.47944 0.99641 0.80332 0.0
C2161 C 0.46557 0.99127 0.78224 0.0
C2162 C 0.47384 0.98937 0.7905 0.0
C2163 C 0.48818 0.99433 0.81195 0.0
H2164 H 0.54822 0.01082 0.8018 0.0
H2165 H 0.53116 0.00856 0.81697 0.0
H2166 H 0.52273 0.98527 0.7694 0.0
H2167 H 0.50567 0.98254 0.78509 0.0
H2168 H 0.52913 0.97353 0.8365 0.0
H2169 H 0.51405 0.97588 0.82198 0.0
H2170 H 0.53248 0.00152 0.86727 0.0
H2171 H 0.51762 0.00403 0.85253 0.0
H2172 H 0.44624 0.97744 0.83812 0.0
H2173 H 0.46279 0.97828 0.823 0.0
H2174 H 0.47286 0.00392 0.86879 0.0
H2175 H 0.48937 0.00504 0.85333 0.0
H2176 H 0.46704 0.01483 0.80269 0.0
H2177 H 0.48143 0.01143 0.81713 0.0
H2178 H 0.46115 0.98549 0.77261 0.0
H2179 H 0.47572 0.98227 0.78701 0.0
N2180 N 0.4977 0.99464 0.80448 0.0
N2181 N 0.49642 0.99171 0.83472 0.0
C2182 C 0.99258 0.53159 0.79955 0.0
C2183 C -0.00041 0.53683 0.78654 0.0
C2184 C 0.99412 0.52317 0.80796 0.0
C2185 C 0.00281 0.51994 0.80363 0.0
C2186 C 0.0081 0.53338 0.78207 0.0
C2187 C 0.00965 0.52496 0.79051 0.0
C2188 C 0.00448 0.51097 0.81239 0.0
C2189 C 0.0167 0.54393 0.84198 0.0
C2190 C 0.00995 0.5416 0.85534 0.0
C2191 C 0.01551 0.53426 0.8331 0.0
C2192 C 0.00737 0.52208 0.83726 0.0
C2193 C 0.00196 0.5294 0.85958 0.0
C2194 C 0.00072 0.51975 0.85066 0.0
C2195 C 0.00606 0.5117 0.82812 0.0
C2196 C 0.01704 0.47158 0.84122 0.0
C2197 C 0.00951 0.46616 0.8538 0.0
C2198 C 0.01594 0.48025 0.83273 0.0
C2199 C 0.00728 0.48364 0.83667 0.0
C2200 C 0.00096 0.46968 0.85781 0.0
C2201 C -7e-05 0.47841 0.84939 0.0
C2202 C 0.00602 0.49282 0.82785 0.0
C2203 C 0.99272 0.45957 0.79883 0.0
C2204 C -0.0006 0.46148 0.78549 0.0
C2205 C 0.99429 0.46948 0.80748 0.0
C2206 C 0.00274 0.48151 0.80312 0.0
C2207 C 0.00765 0.47356 0.78098 0.0
C2208 C 0.00927 0.48346 0.78969 0.0
C2209 C 0.00443 0.49209 0.81213 0.0
H2210 H 0.98576 0.53386 0.80311 0.0
H2211 H 0.98845 0.51911 0.81778 0.0
H2212 H 0.0137 0.53732 0.77217 0.0
H2213 H 0.01632 0.5225 0.78689 0.0
H2214 H 0.02309 0.55323 0.83856 0.0
H2215 H 0.02104 0.53632 0.82307 0.0
H2216 H 0.99655 0.5273 0.86973 0.0
H2217 H 0.99446 0.51043 0.85416 0.0
H2218 H 0.02369 0.46902 0.83787 0.0
H2219 H 0.02187 0.48435 0.82313 0.0
H2220 H 0.99517 0.4658 0.86758 0.0
H2221 H 0.99328 0.48099 0.8527 0.0
H2222 H 0.98634 0.4504 0.80269 0.0
H2223 H 0.98883 0.46771 0.81753 0.0
H2224 H 0.01278 0.47537 0.77063 0.0
H2225 H 0.01569 0.49267 0.78598 0.0
N2226 N 0.00381 0.50124 0.805 0.0
N2227 N 0.00669 0.50255 0.83524 0.0
C2228 C 0.51797 0.55751 0.79461 0.0
C2229 C 0.5237 0.55272 0.78555 0.0
C2230 C 0.50723 0.54969 0.80243 0.0
C2231 C 0.50214 0.53694 0.80154 0.0
C2232 C 0.5183 0.53995 0.78426 0.0
C2233 C 0.50764 0.53216 0.79216 0.0
C2234 C 0.49104 0.52842 0.81013 0.0
C2235 C 0.5198 0.55077 0.84429 0.0
C2236 C 0.51679 0.55777 0.85376 0.0
C2237 C 0.51093 0.54172 0.83509 0.0
C2238 C 0.49893 0.53965 0.83495 0.0
C2239 C 0.50472 0.55554 0.85381 0.0
C2240 C 0.49586 0.54653 0.84451 0.0
C2241 C 0.4894 0.52986 0.82554 0.0
C2242 C 0.44863 0.4805 0.84277 0.0
C2243 C 0.4422 0.48359 0.85311 0.0
C2244 C 0.45759 0.48941 0.83355 0.0
C2245 C 0.46016 0.50158 0.8342 0.0
C2246 C 0.44478 0.49579 0.85377 0.0
C2247 C 0.45373 0.5047 0.84445 0.0
C2248 C 0.47021 0.5112 0.82514 0.0
C2249 C 0.44207 0.48514 0.79261 0.0
C2250 C 0.44623 0.47881 0.78359 0.0
C2251 C 0.45033 0.49532 0.801 0.0
C2252 C 0.46289 0.49928 0.80064 0.0
C2253 C 0.45884 0.483 0.78302 0.0
C2254 C 0.46708 0.49317 0.79139 0.0
C2255 C 0.47179 0.50983 0.8097 0.0
H2256 H 0.52189 0.56729 0.79589 0.0
H2257 H 0.50296 0.55362 0.80923 0.0
H2258 H 0.52228 0.53593 0.7771 0.0
H2259 H 0.5038 0.52236 0.79111 0.0
H2260 H 0.52895 0.55208 0.84425 0.0
H2261 H 0.51342 0.53622 0.82823 0.0
H2262 H 0.50214 0.56081 0.86096 0.0
H2263 H 0.48662 0.54497 0.84473 0.0
H2264 H 0.44681 0.47119 0.84187 0.0
H2265 H 0.4627 0.48681 0.82612 0.0
H2266 H 0.44014 0.49851 0.86176 0.0
H2267 H 0.4557 0.51407 0.84533 0.0
H2268 H 0.43243 0.48227 0.79309 0.0
H2269 H 0.44691 0.50009 0.80776 0.0
H2270 H 0.46234 0.47826 0.77636 0.0
H2271 H 0.47673 0.49609 0.7909 0.0
N2272 N 0.48218 0.51844 0.80286 0.0
N2273 N 0.47902 0.52123 0.83241 0.0
C2274 C 0.63458 0.78237 0.51189 0.0
C2275 C 0.62548 0.77599 0.50104 0.0
C2276 C 0.63385 0.79072 0.5215 0.0
C2277 C 0.62389 0.79269 0.52066 0.0
C2278 C 0.61553 0.77802 0.50019 0.0
C2279 C 0.61479 0.78635 0.50986 0.0
C2280 C 0.62343 0.80203 0.5302 0.0
C2281 C 0.62154 0.77285 0.56041 0.0
C2282 C 0.6312 0.77712 0.57075 0.0
C2283 C 0.61934 0.78111 0.55254 0.0
C2284 C 0.62697 0.79379 0.55463 0.0
C2285 C 0.6385 0.78976 0.57325 0.0
C2286 C 0.63639 0.798 0.56528 0.0
C2287 C 0.62533 0.80282 0.54589 0.0
C2288 C 0.62115 0.84705 0.56288 0.0
C2289 C 0.63118 0.85271 0.57273 0.0
C2290 C 0.6191 0.83686 0.55439 0.0
C2291 C 0.6271 0.83223 0.55551 0.0
C2292 C 0.63898 0.84784 0.57404 0.0
C2293 C 0.63691 0.83768 0.5656 0.0
C2294 C 0.62541 0.82173 0.54633 0.0
C2295 C 0.63525 0.85224 0.51345 0.0
C2296 C 0.62644 0.84976 0.50233 0.0
C2297 C 0.63417 0.84296 0.52289 0.0
C2298 C 0.62413 0.83104 0.5216 0.0
C2299 C 0.61635 0.83783 0.50112 0.0
C2300 C 0.61525 0.82854 0.51061 0.0
C2301 C 0.62351 0.82095 0.53067 0.0
H2302 H 0.64232 0.78097 0.51293 0.0
H2303 H 0.64118 0.79577 0.52943 0.0
H2304 H 0.60848 0.77341 0.4918 0.0
H2305 H 0.60714 0.78789 0.50885 0.0
H2306 H 0.61566 0.76314 0.55845 0.0
H2307 H 0.61174 0.77759 0.54478 0.0
H2308 H 0.64607 0.79331 0.58107 0.0
H2309 H 0.64236 0.80772 0.56717 0.0
H2310 H 0.61486 0.85045 0.56179 0.0
H2311 H 0.61128 0.83262 0.54696 0.0
H2312 H 0.64689 0.85206 0.58134 0.0
H2313 H 0.64319 0.83425 0.56667 0.0
H2314 H 0.64309 0.86135 0.51475 0.0
H2315 H 0.64136 0.84506 0.53095 0.0
H2316 H 0.60949 0.83557 0.49252 0.0
H2317 H 0.60755 0.81936 0.50925 0.0
N2318 N 0.6225 0.81108 0.52324 0.0
N2319 N 0.62629 0.81266 0.55329 0.0
C2320 C 0.15363 0.77486 0.51568 0.0
C2321 C 0.14876 0.7783 0.50374 0.0
C2322 C 0.1628 0.78376 0.52479 0.0
C2323 C 0.16725 0.79625 0.52207 0.0
C2324 C 0.15338 0.7908 0.50094 0.0
C2325 C 0.16258 0.79967 0.50995 0.0
C2326 C 0.17688 0.80587 0.53156 0.0
C2327 C 0.14339 0.78664 0.5601 0.0
C2328 C 0.14461 0.78094 0.57296 0.0
C2329 C 0.15367 0.79471 0.5518 0.0
C2330 C 0.16536 0.79707 0.55596 0.0
C2331 C 0.15634 0.78353 0.57737 0.0
C2332 C 0.16664 0.79155 0.56894 0.0
C2333 C 0.17629 0.80593 0.54739 0.0
C2334 C 0.2147 0.85707 0.56279 0.0
C2335 C 0.22027 0.85521 0.57533 0.0
C2336 C 0.2066 0.84721 0.55392 0.0
C2337 C 0.20408 0.83531 0.5572 0.0
C2338 C 0.21752 0.84326 0.57884 0.0
C2339 C 0.20946 0.83338 0.56986 0.0
C2340 C 0.19527 0.82481 0.54799 0.0
C2341 C 0.22688 0.84881 0.51739 0.0
C2342 C 0.2235 0.85441 0.50629 0.0
C2343 C 0.21791 0.83914 0.52589 0.0
C2344 C 0.20545 0.8349 0.5233 0.0
C2345 C 0.21102 0.85004 0.50365 0.0
C2346 C 0.2021 0.84031 0.51198 0.0
C2347 C 0.19575 0.8248 0.53216 0.0
H2348 H 0.15024 0.76528 0.51809 0.0
H2349 H 0.16644 0.78091 0.53391 0.0
H2350 H 0.14997 0.79373 0.49167 0.0
H2351 H 0.16595 0.80925 0.50757 0.0
H2352 H 0.13451 0.78507 0.55666 0.0
H2353 H 0.15246 0.79927 0.54225 0.0
H2354 H 0.15754 0.77928 0.58725 0.0
H2355 H 0.1756 0.79341 0.57251 0.0
H2356 H 0.2164 0.86613 0.56003 0.0
H2357 H 0.20216 0.8489 0.54461 0.0
H2358 H 0.22168 0.84156 0.58844 0.0
H2359 H 0.20749 0.82425 0.57273 0.0
H2360 H 0.23644 0.852 0.51961 0.0
H2361 H 0.22068 0.83496 0.53444 0.0
H2362 H 0.20816 0.85406 0.495 0.0
H2363 H 0.19254 0.83714 0.50975 0.0
N2364 N 0.18652 0.81536 0.52458 0.0
N2365 N 0.18559 0.81534 0.55501 0.0
C2366 C 0.22949 0.38172 0.51233 0.0
C2367 C 0.22662 0.37365 0.50015 0.0
C2368 C 0.22016 0.38167 0.52088 0.0
C2369 C 0.20783 0.37354 0.51735 0.0
C2370 C 0.21428 0.36576 0.49646 0.0
C2371 C 0.20499 0.36576 0.50491 0.0
C2372 C 0.19775 0.373 0.52643 0.0
C2373 C 0.21602 0.35832 0.55589 0.0
C2374 C 0.22073 0.3646 0.56948 0.0
C2375 C 0.20853 0.36084 0.54695 0.0
C2376 C 0.20585 0.36995 0.55116 0.0
C2377 C 0.21799 0.37368 0.57374 0.0
C2378 C 0.21057 0.37628 0.56468 0.0
C2379 C 0.19719 0.37201 0.54224 0.0
C2380 C 0.14528 0.35591 0.55581 0.0
C2381 C 0.14609 0.36356 0.56775 0.0
C2382 C 0.15563 0.35847 0.54743 0.0
C2383 C 0.167 0.36878 0.55074 0.0
C2384 C 0.15755 0.37381 0.57118 0.0
C2385 C 0.16793 0.37634 0.5628 0.0
C2386 C 0.17798 0.37128 0.54206 0.0
C2387 C 0.15344 0.37742 0.51138 0.0
C2388 C 0.14855 0.36866 0.49984 0.0
C2389 C 0.16326 0.37868 0.51997 0.0
C2390 C 0.16834 0.37123 0.51709 0.0
C2391 C 0.15382 0.3614 0.49682 0.0
C2392 C 0.16367 0.36274 0.5053 0.0
C2393 C 0.17845 0.37205 0.52627 0.0
H2394 H 0.23893 0.38791 0.51541 0.0
H2395 H 0.22257 0.38792 0.53026 0.0
H2396 H 0.21179 0.35959 0.48697 0.0
H2397 H 0.19555 0.35949 0.50191 0.0
H2398 H 0.21803 0.35136 0.55217 0.0
H2399 H 0.20464 0.35547 0.53688 0.0
H2400 H 0.22131 0.37855 0.58424 0.0
H2401 H 0.20841 0.38317 0.56831 0.0
H2402 H 0.13669 0.34777 0.55309 0.0
H2403 H 0.15478 0.35228 0.53847 0.0
H2404 H 0.15848 0.37993 0.58024 0.0
H2405 H 0.17666 0.38426 0.56562 0.0
H2406 H 0.14955 0.38314 0.51392 0.0
H2407 H 0.16686 0.38544 0.52886 0.0
H2408 H 0.15037 0.35473 0.48783 0.0
H2409 H 0.1675 0.35695 0.50282 0.0
N2410 N 0.1883 0.37287 0.51907 0.0
N2411 N 0.18738 0.37133 0.54946 0.0
H2412 H 0.99472 0.37003 0.09228 0.0
H2413 H 0.99247 0.38279 0.1113 0.0
H2414 H 0.9775 0.3962 0.07791 0.0
H2415 H 0.97955 0.38337 0.05895 0.0
H2416 H 0.00368 0.40726 0.11154 0.0
H2417 H 0.95362 0.38855 0.11171 0.0
H2418 H 0.96057 0.38063 0.10301 0.0
H2419 H 0.95998 0.39276 0.09322 0.0
C2420 C 0.99082 0.37561 0.08905 0.0
C2421 C 0.98726 0.37567 0.07415 0.0
C2422 C 0.98951 0.38286 0.09993 0.0
C2423 C 0.98464 0.3903 0.09609 0.0
C2424 C 0.98095 0.39027 0.08124 0.0
H2425 H 0.98482 0.45309 0.13238 0.0
H2426 H 0.98357 0.43631 0.11723 0.0
C2427 C 0.98216 0.38295 0.0704 0.0
C2428 C 0.98434 0.39886 0.10726 0.0
H2429 H 0.96588 0.40856 0.12257 0.0
C2430 C 0.99538 0.40741 0.11413 0.0
C2431 C 0.9735 0.39906 0.11064 0.0
C2432 C 0.96123 0.38967 0.10437 0.0
C2433 C 0.99594 0.41643 0.12383 0.0
C2434 C 0.98519 0.41688 0.12675 0.0
C2435 C 0.9741 0.40819 0.1202 0.0
C2436 C 0.98545 0.42667 0.13609 0.0
C2437 C 0.00807 0.42569 0.13054 0.0
C2438 C 0.9868 0.42667 0.15169 0.0
C2439 C 0.9875 0.43622 0.16038 0.0
C2440 C 0.98694 0.44595 0.15355 0.0
C2441 C 0.98543 0.4458 0.13792 0.0
C2442 C 0.98464 0.4362 0.12927 0.0
H2443 H 0.0158 0.42491 0.12585 0.0
H2444 H 0.00984 0.43511 0.12853 0.0
H2445 H 0.00779 0.42433 0.14286 0.0
H2446 H 0.98741 0.41934 0.15711 0.0
H2447 H 0.98874 0.43614 0.17238 0.0
H2448 H 0.64137 0.60848 0.08323 0.0
H2449 H 0.63181 0.59302 0.10298 0.0
H2450 H 0.59822 0.57523 0.07771 0.0
H2451 H 0.60757 0.59065 0.05811 0.0
H2452 H 0.61095 0.58752 0.11992 0.0
H2453 H 0.60416 0.54702 0.08785 0.0
H2454 H 0.61448 0.5625 0.08175 0.0
H2455 H 0.59831 0.55547 0.07827 0.0
C2456 C 0.63195 0.60128 0.08189 0.0
C2457 C 0.62527 0.60076 0.06903 0.0
C2458 C 0.62653 0.59242 0.09314 0.0
C2459 C 0.61439 0.58287 0.09165 0.0
C2460 C 0.6077 0.58235 0.07888 0.0
H2461 H 0.5575 0.53871 0.15206 0.0
H2462 H 0.57296 0.55461 0.13601 0.0
C2463 C 0.61308 0.59118 0.06767 0.0
C2464 C 0.60839 0.57374 0.10375 0.0
H2465 H 0.59197 0.54298 0.11012 0.0
C2466 C 0.60696 0.57779 0.11787 0.0
C2467 C 0.60338 0.56107 0.10113 0.0
C2468 C 0.60526 0.55625 0.08647 0.0
C2469 C 0.60002 0.56943 0.12917 0.0
C2470 C 0.59425 0.55674 0.12616 0.0
C2471 C 0.59629 0.55272 0.11235 0.0
C2472 C 0.58535 0.54751 0.1367 0.0
C2473 C 0.59877 0.57427 0.14415 0.0
C2474 C 0.5871 0.53811 0.14222 0.0
C2475 C 0.5782 0.52892 0.1513 0.0
C2476 C 0.56734 0.5289 0.15484 0.0
C2477 C 0.56571 0.5384 0.14941 0.0
C2478 C 0.5746 0.54759 0.1404 0.0
H2479 H 0.60657 0.58363 0.14629 0.0
H2480 H 0.59026 0.57478 0.14422 0.0
H2481 H 0.59821 0.56818 0.15344 0.0
H2482 H 0.59529 0.53783 0.13937 0.0
H2483 H 0.57966 0.52165 0.1552 0.0
H2484 H 0.40858 0.0249 0.05525 0.0
H2485 H 0.42301 0.02585 0.07421 0.0
H2486 H 0.39348 0.00816 0.10611 0.0
H2487 H 0.37907 0.00751 0.08729 0.0
H2488 H 0.41406 0.02601 0.11926 0.0
H2489 H 0.42499 0.996 0.0852 0.0
H2490 H 0.42815 0.00971 0.07556 0.0
H2491 H 0.41264 0.99862 0.08053 0.0
C2492 C 0.40521 0.02132 0.06636 0.0
C2493 C 0.39272 0.01603 0.0698 0.0
C2494 C 0.41344 0.02181 0.07714 0.0
C2495 C 0.40927 0.01678 0.09144 0.0
C2496 C 0.39688 0.01202 0.09512 0.0
H2497 H 0.44784 0.99289 0.14959 0.0
H2498 H 0.43319 0.99439 0.13333 0.0
C2499 C 0.38867 0.01168 0.08439 0.0
C2500 C 0.4177 0.01605 0.10236 0.0
H2501 H 0.43712 0.00495 0.10687 0.0
C2502 C 0.41909 0.02139 0.11659 0.0
C2503 C 0.42407 0.0098 0.09895 0.0
C2504 C 0.42231 0.0031 0.0843 0.0
C2505 C 0.42681 0.02077 0.12743 0.0
C2506 C 0.43355 0.01494 0.12378 0.0
C2507 C 0.43205 0.00951 0.10961 0.0
C2508 C 0.44207 0.01413 0.13451 0.0
C2509 C 0.42742 0.02611 0.14278 0.0
C2510 C 0.45195 0.02474 0.14062 0.0
C2511 C 0.46023 0.0239 0.1502 0.0
C2512 C 0.45893 0.01244 0.15366 0.0
C2513 C 0.44903 0.00185 0.14745 0.0
C2514 C 0.44069 0.00269 0.13802 0.0
H2515 H 0.41917 0.02683 0.14514 0.0
H2516 H 0.42831 0.0205 0.15169 0.0
H2517 H 0.43551 0.03547 0.14332 0.0
H2518 H 0.45338 0.03369 0.13781 0.0
H2519 H 0.46766 0.03224 0.15489 0.0
H2520 H 0.38977 0.00888 0.94356 0.0
H2521 H 0.40371 0.00819 0.92513 0.0
H2522 H 0.3804 0.96907 0.92138 0.0
H2523 H 0.36613 0.96971 0.93949 0.0
H2524 H 0.41593 0.99513 0.92874 0.0
H2525 H 0.38713 0.98031 0.8774 0.0
H2526 H 0.38345 0.98641 0.89365 0.0
H2527 H 0.38034 0.9709 0.89365 0.0
C2528 C 0.38743 0.00015 0.93856 0.0
C2529 C 0.37678 0.98935 0.94293 0.0
C2530 C 0.39546 -0.00023 0.92812 0.0
C2531 C 0.39302 0.9886 0.92179 0.0
C2532 C 0.38235 0.97781 0.92595 0.0
H2533 H 0.43661 0.97041 0.86265 0.0
H2534 H 0.42049 0.96958 0.87878 0.0
C2535 C 0.37427 0.97818 0.93641 0.0
C2536 C 0.40209 0.98825 0.91158 0.0
H2537 H 0.40643 0.98156 0.87576 0.0
C2538 C 0.41386 0.99219 0.91715 0.0
C2539 C 0.39932 0.98432 0.89651 0.0
C2540 C 0.38691 0.98033 0.88985 0.0
C2541 C 0.42297 0.99231 0.90805 0.0
C2542 C 0.42028 0.98857 0.89291 0.0
C2543 C 0.40845 0.98444 0.88738 0.0
C2544 C 0.42973 0.98912 0.88262 0.0
C2545 C 0.43537 0.99629 0.91476 0.0
C2546 C 0.44011 0.00041 0.87921 0.0
C2547 C 0.44929 0.00092 0.86999 0.0
C2548 C 0.44824 0.99015 0.86393 0.0
C2549 C 0.43766 0.97887 0.86706 0.0
C2550 C 0.42847 0.97838 0.8763 0.0
H2551 H 0.435 0.99583 0.92721 0.0
H2552 H 0.43908 0.99053 0.91056 0.0
H2553 H 0.44182 0.00591 0.91151 0.0
H2554 H 0.44113 0.00882 0.88374 0.0
H2555 H 0.4572 0.00976 0.86755 0.0
H2556 H 0.0346 0.40461 0.94777 0.0
H2557 H 0.03418 0.41845 0.92883 0.0
H2558 H 0.99642 0.39227 0.91933 0.0
H2559 H 0.99668 0.37847 0.93829 0.0
H2560 H 0.02582 0.41277 0.89581 0.0
H2561 H 0.99869 0.42582 0.93283 0.0
H2562 H 0.00765 0.41948 0.94007 0.0
H2563 H 0.99335 0.40973 0.93092 0.0
C2564 C 0.02623 0.40179 0.94159 0.0
C2565 C 0.01567 0.39046 0.94454 0.0
C2566 C 0.02603 0.40966 0.93075 0.0
C2567 C 0.01525 0.40637 0.92281 0.0
C2568 C 0.00481 0.39496 0.92541 0.0
H2569 H 0.99106 0.44441 0.86442 0.0
H2570 H 0.99281 0.42964 0.88032 0.0
C2571 C 0.00501 0.38706 0.93617 0.0
C2572 C 0.0147 0.41508 0.9123 0.0
H2573 H 0.00246 0.43355 0.90818 0.0
C2574 C 0.02076 0.41737 0.89848 0.0
C2575 C 0.00805 0.42098 0.91588 0.0
C2576 C 0.00161 0.41899 0.93076 0.0
C2577 C 0.02014 0.42527 0.88793 0.0
C2578 C 0.01351 0.43123 0.89153 0.0
C2579 C 0.00751 0.42896 0.90543 0.0
C2580 C 0.01261 0.43985 0.88111 0.0
C2581 C 0.0263 0.42691 0.87291 0.0
C2582 C 0.02315 0.4505 0.87627 0.0
C2583 C 0.02217 0.45894 0.86713 0.0
C2584 C 0.01061 0.45694 0.86286 0.0
C2585 C 8e-05 0.44624 0.86765 0.0
C2586 C 0.00107 0.43778 0.87669 0.0
H2587 H 0.0279 0.41923 0.87035 0.0
H2588 H 0.02074 0.42761 0.86376 0.0
H2589 H 0.03532 0.43548 0.87308 0.0
H2590 H 0.03213 0.45245 0.87985 0.0
H2591 H 0.03043 0.46719 0.86377 0.0
H2592 H 0.61167 0.63319 0.93094 0.0
H2593 H 0.59617 0.62283 0.91147 0.0
H2594 H 0.56803 0.60739 0.94536 0.0
H2595 H 0.58343 0.61791 0.96487 0.0
H2596 H 0.58094 0.5972 0.90992 0.0
H2597 H 0.55363 0.62036 0.91382 0.0
H2598 H 0.56888 0.62692 0.92143 0.0
H2599 H 0.55605 0.61505 0.93143 0.0
C2600 C 0.60215 0.62782 0.93422 0.0
C2601 C 0.59877 0.62636 0.94944 0.0
C2602 C 0.59333 0.62186 0.92309 0.0
C2603 C 0.58096 0.61446 0.92697 0.0
C2604 C 0.57751 0.61323 0.94212 0.0
H2605 H 0.51423 0.56189 0.88331 0.0
H2606 H 0.53007 0.57638 0.90037 0.0
C2607 C 0.58632 0.61914 0.95325 0.0
C2608 C 0.57181 0.6072 0.91534 0.0
H2609 H 0.54495 0.60185 0.89966 0.0
C2610 C 0.57314 0.59829 0.90754 0.0
C2611 C 0.56161 0.60862 0.91237 0.0
C2612 C 0.55997 0.61832 0.9201 0.0
C2613 C 0.56435 0.59049 0.89713 0.0
C2614 C 0.55409 0.59184 0.89422 0.0
C2615 C 0.55283 0.60086 0.9019 0.0
C2616 C 0.54439 0.5837 0.88359 0.0
C2617 C 0.56591 0.5806 0.88975 0.0
C2618 C 0.54714 0.58324 0.86843 0.0
C2619 C 0.53813 0.57496 0.85868 0.0
C2620 C 0.52617 0.56708 0.86388 0.0
C2621 C 0.52334 0.56789 0.87895 0.0
C2622 C 0.53238 0.57613 0.88871 0.0
H2623 H 0.57251 0.57887 0.89591 0.0
H2624 H 0.55703 0.5719 0.88902 0.0
H2625 H 0.56945 0.58349 0.87819 0.0
H2626 H 0.55629 0.5892 0.86418 0.0
H2627 H 0.54052 0.5747 0.84706 0.0
H2628 H 0.01813 0.61354 0.96073 0.0
H2629 H 0.01846 0.59931 0.94242 0.0
H2630 H 0.01431 0.6197 0.90652 0.0
H2631 H 0.01422 0.63419 0.92479 0.0
H2632 H 0.99857 0.58536 0.92192 0.0
H2633 H 0.04291 0.61442 0.89267 0.0
H2634 H 0.03967 0.61816 0.91105 0.0
H2635 H 0.03298 0.62068 0.89472 0.0
C2636 C 0.01758 0.61518 0.94892 0.0
C2637 C 0.0162 0.62503 0.94421 0.0
C2638 C 0.01768 0.60699 0.93849 0.0
C2639 C 0.0165 0.60852 0.92314 0.0
C2640 C 0.01539 0.61847 0.91832 0.0
H2641 H 0.01099 0.56283 0.84649 0.0
H2642 H 0.0125 0.57932 0.86252 0.0
C2643 C 0.01524 0.62666 0.92877 0.0
C2644 C 0.0156 0.59919 0.91236 0.0
H2645 H 0.03036 0.59436 0.88336 0.0
C2646 C 0.00552 0.58731 0.91349 0.0
C2647 C 0.02462 0.60184 0.9013 0.0
C2648 C 0.03572 0.61444 0.89984 0.0
C2649 C 0.00421 0.57794 0.90386 0.0
C2650 C 0.01339 0.58049 0.89305 0.0
C2651 C 0.02337 0.59244 0.89171 0.0
C2652 C 0.01291 0.57075 0.8833 0.0
C2653 C 0.99293 0.56545 0.90524 0.0
C2654 C 0.01291 0.56062 0.88968 0.0
C2655 C 0.01204 0.55121 0.88059 0.0
C2656 C 0.01127 0.55181 0.86491 0.0
C2657 C 0.01163 0.56214 0.85852 0.0
C2658 C 0.01245 0.57154 0.86765 0.0
H2659 H 0.98532 0.56592 0.91086 0.0
H2660 H 0.98974 0.56111 0.89407 0.0
H2661 H 0.99511 0.55949 0.91211 0.0
H2662 H 0.01357 0.55998 0.90172 0.0
H2663 H 0.01204 0.54349 0.88582 0.0
H2664 H 0.36324 0.40785 0.95085 0.0
H2665 H 0.3729 0.42319 0.93097 0.0
H2666 H 0.39978 0.41217 0.92441 0.0
H2667 H 0.39002 0.39664 0.94382 0.0
H2668 H 0.3969 0.44278 0.92992 0.0
H2669 H 0.38773 0.41154 0.88188 0.0
H2670 H 0.37978 0.40637 0.89957 0.0
H2671 H 0.39482 0.40835 0.89726 0.0
C2672 C 0.37111 0.40859 0.94501 0.0
C2673 C 0.37587 0.40103 0.94892 0.0
C2674 C 0.37664 0.41739 0.93372 0.0
C2675 C 0.38693 0.41867 0.92606 0.0
C2676 C 0.3917 0.41116 0.92997 0.0
H2677 H 0.44418 0.46573 0.8678 0.0
H2678 H 0.42947 0.45021 0.88486 0.0
C2679 C 0.3862 0.4024 0.94122 0.0
C2680 C 0.39311 0.4282 0.91443 0.0
H2681 H 0.40375 0.4324 0.87845 0.0
C2682 C 0.39823 0.44053 0.91858 0.0
C2683 C 0.39476 0.42522 0.89963 0.0
C2684 C 0.38887 0.41214 0.89426 0.0
C2685 C 0.40555 0.44998 0.90855 0.0
C2686 C 0.40768 0.44697 0.89401 0.0
C2687 C 0.40214 0.43466 0.88966 0.0
C2688 C 0.41637 0.4564 0.88352 0.0
C2689 C 0.41145 0.4631 0.91378 0.0
C2690 C 0.41381 0.46496 0.87705 0.0
C2691 C 0.42217 0.47381 0.86715 0.0
C2692 C 0.43321 0.47421 0.86355 0.0
C2693 C 0.43568 0.46557 0.8701 0.0
C2694 C 0.42732 0.45673 0.87992 0.0
H2695 H 0.41027 0.4638 0.92602 0.0
H2696 H 0.42138 0.46805 0.91113 0.0
H2697 H 0.40727 0.46776 0.90777 0.0
H2698 H 0.40531 0.46474 0.87957 0.0
H2699 H 0.41992 0.48023 0.86217 0.0
H2700 H 0.59832 0.96454 0.94369 0.0
H2701 H 0.58388 0.96312 0.92441 0.0
H2702 H 0.60514 0.00217 0.91784 0.0
H2703 H 0.61958 0.00366 0.93697 0.0
H2704 H 0.56989 0.97389 0.92498 0.0
H2705 H 0.60004 0.98984 0.87507 0.0
H2706 H 0.60425 0.98528 0.89218 0.0
H2707 H 0.60624 0.00036 0.89046 0.0
C2708 C 0.59995 0.9728 0.93805 0.0
C2709 C 0.61013 0.9842 0.94179 0.0
C2710 C 0.59173 0.97197 0.927 0.0
C2711 C 0.59355 0.98251 0.91949 0.0
C2712 C 0.60374 0.99387 0.92316 0.0
H2713 H 0.55362 0.00552 0.86451 0.0
H2714 H 0.56825 0.00325 0.88011 0.0
C2715 C 0.61198 0.99471 0.93413 0.0
C2716 C 0.58438 0.98181 0.90861 0.0
H2717 H 0.58124 0.99012 0.87323 0.0
C2718 C 0.57231 0.97726 0.91358 0.0
C2719 C 0.58758 0.98622 0.89376 0.0
C2720 C 0.60021 0.99058 0.88749 0.0
C2721 C 0.56348 0.97747 0.90431 0.0
C2722 C 0.56679 0.98225 0.88964 0.0
C2723 C 0.57876 0.98651 0.88452 0.0
C2724 C 0.55811 0.98346 0.87973 0.0
C2725 C 0.5508 0.97304 0.91044 0.0
C2726 C 0.54766 0.97307 0.8742 0.0
C2727 C 0.53927 0.97433 0.86532 0.0
C2728 C 0.54119 0.98601 0.86186 0.0
C2729 C 0.5518 0.9964 0.86718 0.0
C2730 C 0.5602 0.99512 0.87599 0.0
H2731 H 0.55034 0.97166 0.92278 0.0
H2732 H 0.54773 0.97965 0.9078 0.0
H2733 H 0.54429 0.96417 0.9051 0.0
H2734 H 0.54597 0.96399 0.87685 0.0
H2735 H 0.53115 0.96616 0.86145 0.0
H2736 H 0.60592 0.00791 0.05559 0.0
H2737 H 0.59311 0.00986 0.07464 0.0
H2738 H 0.62131 0.01915 0.10769 0.0
H2739 H 0.63424 0.01723 0.08862 0.0
H2740 H 0.59863 0.00142 0.11746 0.0
H2741 H 0.596 0.04045 0.09372 0.0
H2742 H 0.59177 0.02829 0.08043 0.0
H2743 H 0.60717 0.03648 0.08753 0.0
C2744 C 0.60951 0.0106 0.06683 0.0
C2745 C 0.62114 0.0125 0.07056 0.0
C2746 C 0.60217 0.01172 0.07772 0.0
C2747 C 0.60634 0.01485 0.09252 0.0
C2748 C 0.61795 0.01678 0.0963 0.0
H2749 H 0.56542 0.03102 0.15914 0.0
H2750 H 0.58169 0.0324 0.14284 0.0
C2751 C 0.6253 0.01564 0.08542 0.0
C2752 C 0.59827 0.01544 0.10417 0.0
H2753 H 0.58106 0.02858 0.11241 0.0
C2754 C 0.59489 0.00746 0.11645 0.0
C2755 C 0.59354 0.02344 0.10296 0.0
C2756 C 0.5974 0.03274 0.09053 0.0
C2757 C 0.58653 0.00691 0.12724 0.0
C2758 C 0.58126 0.0144 0.12554 0.0
C2759 C 0.58501 0.02273 0.1136 0.0
C2760 C 0.57156 0.01347 0.13575 0.0
C2761 C 0.58344 0.99833 0.14036 0.0
C2762 C 0.56043 0.00241 0.13703 0.0
C2763 C 0.55113 0.0016 0.14629 0.0
C2764 C 0.55273 0.01187 0.15436 0.0
C2765 C 0.56387 0.02297 0.15298 0.0
C2766 C 0.57319 0.02376 0.14374 0.0
H2767 H 0.59076 0.99611 0.14246 0.0
H2768 H 0.58199 0.00231 0.15074 0.0
H2769 H 0.57488 0.98964 0.13788 0.0
H2770 H 0.55886 0.99444 0.13067 0.0
H2771 H 0.54258 0.99299 0.14688 0.0
H2772 H 0.98082 0.61641 0.08764 0.0
H2773 H 0.98062 0.60233 0.10663 0.0
H2774 H 0.99008 0.58408 0.07277 0.0
H2775 H 0.99081 0.59835 0.05392 0.0
H2776 H 0.96704 0.57675 0.10865 0.0
H2777 H 0.01668 0.59332 0.10424 0.0
H2778 H 0.00981 0.60157 0.09635 0.0
H2779 H 0.00898 0.58873 0.08651 0.0
C2780 C 0.98292 0.60944 0.08426 0.0
C2781 C 0.98589 0.60856 0.06925 0.0
C2782 C 0.98273 0.60136 0.0951 0.0
C2783 C 0.98556 0.59232 0.09114 0.0
C2784 C 0.98811 0.59116 0.07611 0.0
H2785 H 0.98895 0.53261 0.13059 0.0
H2786 H 0.9879 0.5477 0.11459 0.0
C2787 C 0.98835 0.59923 0.0653 0.0
C2788 C 0.98598 0.58413 0.10266 0.0
H2789 H 0.0046 0.57447 0.11726 0.0
C2790 C 0.97528 0.57633 0.11068 0.0
C2791 C 0.99677 0.58369 0.10535 0.0
C2792 C 0.00875 0.59236 0.09777 0.0
C2793 C 0.97497 0.56772 0.12087 0.0
C2794 C 0.98564 0.567 0.1231 0.0
C2795 C 0.99641 0.57502 0.1154 0.0
C2796 C 0.98576 0.55768 0.13295 0.0
C2797 C 0.96316 0.55917 0.12882 0.0
C2798 C 0.98494 0.55835 0.14857 0.0
C2799 C 0.98568 0.54981 0.15779 0.0
C2800 C 0.98728 0.54048 0.15151 0.0
C2801 C 0.98794 0.53979 0.13582 0.0
C2802 C 0.98725 0.54835 0.12664 0.0
H2803 H 0.95528 0.55972 0.12423 0.0
H2804 H 0.96117 0.54958 0.12789 0.0
H2805 H 0.96406 0.56157 0.14091 0.0
H2806 H 0.98396 0.56561 0.15363 0.0
H2807 H 0.9853 0.5507 0.16984 0.0
H2808 H 0.3976 0.39264 0.07123 0.0
H2809 H 0.41276 0.40193 0.09122 0.0
H2810 H 0.41572 0.36947 0.09364 0.0
H2811 H 0.40059 0.3601 0.07343 0.0
H2812 H 0.41141 0.39124 0.12167 0.0
H2813 H 0.45167 0.39947 0.0871 0.0
H2814 H 0.43771 0.39725 0.07869 0.0
H2815 H 0.43818 0.3845 0.08668 0.0
C2816 C 0.40154 0.3875 0.07592 0.0
C2817 C 0.39798 0.37568 0.07068 0.0
C2818 C 0.41013 0.39279 0.0874 0.0
C2819 C 0.41539 0.3864 0.09379 0.0
C2820 C 0.4118 0.37455 0.08874 0.0
H2821 H 0.47757 0.42015 0.15617 0.0
H2822 H 0.46087 0.40461 0.14081 0.0
C2823 C 0.40313 0.36921 0.07728 0.0
C2824 C 0.4247 0.39233 0.10566 0.0
H2825 H 0.45551 0.4072 0.11168 0.0
C2826 C 0.42105 0.39461 0.11958 0.0
C2827 C 0.43721 0.39658 0.1029 0.0
C2828 C 0.44153 0.39441 0.08804 0.0
C2829 C 0.42966 0.4014 0.13071 0.0
C2830 C 0.44226 0.40627 0.12764 0.0
C2831 C 0.44585 0.40349 0.11397 0.0
C2832 C 0.45187 0.41517 0.13784 0.0
C2833 C 0.42519 0.4034 0.14556 0.0
C2834 C 0.45236 0.42625 0.1412 0.0
C2835 C 0.4618 0.43507 0.14999 0.0
C2836 C 0.47106 0.43307 0.15548 0.0
C2837 C 0.47051 0.42191 0.15223 0.0
C2838 C 0.46102 0.41306 0.14341 0.0
H2839 H 0.41573 0.39592 0.14801 0.0
H2840 H 0.43126 0.40398 0.1549 0.0
H2841 H 0.42506 0.4121 0.14514 0.0
H2842 H 0.44555 0.4282 0.13676 0.0
H2843 H 0.46187 0.44351 0.15243 0.0
H2844 H 0.62353 0.69816 0.40304 0.0
H2845 H 0.61847 0.7085 0.42266 0.0
H2846 H 0.65605 0.73778 0.42358 0.0
H2847 H 0.66126 0.72737 0.40433 0.0
H2848 H 0.64575 0.72863 0.45219 0.0
H2849 H 0.61605 0.73965 0.41748 0.0
H2850 H 0.61216 0.72388 0.41758 0.0
H2851 H 0.62633 0.73523 0.40932 0.0
C2852 C 0.63072 0.70677 0.40747 0.0
C2853 C 0.64279 0.71198 0.40206 0.0
C2854 C 0.62779 0.71272 0.41856 0.0
C2855 C 0.63686 0.72397 0.4244 0.0
C2856 C 0.64891 0.72914 0.41913 0.0
H2857 H 0.64613 0.7795 0.48672 0.0
H2858 H 0.64809 0.76585 0.46899 0.0
C2859 C 0.65184 0.72322 0.40805 0.0
C2860 C 0.63394 0.73034 0.43624 0.0
H2861 H 0.61831 0.74539 0.44298 0.0
C2862 C 0.63971 0.73226 0.45021 0.0
C2863 C 0.626 0.73498 0.43362 0.0
C2864 C 0.61982 0.73344 0.41867 0.0
C2865 C 0.63788 0.73883 0.46161 0.0
C2866 C 0.63023 0.74379 0.45884 0.0
C2867 C 0.62418 0.74158 0.44503 0.0
C2868 C 0.62896 0.75186 0.46984 0.0
C2869 C 0.64413 0.74042 0.47651 0.0
C2870 C 0.61749 0.74863 0.47596 0.0
C2871 C 0.61634 0.75641 0.48616 0.0
C2872 C 0.62663 0.7676 0.49033 0.0
C2873 C 0.63807 0.77083 0.48403 0.0
C2874 C 0.63921 0.76305 0.47387 0.0
H2875 H 0.64672 0.73332 0.47828 0.0
H2876 H 0.65263 0.7495 0.47681 0.0
H2877 H 0.63816 0.74001 0.48592 0.0
H2878 H 0.60946 0.74004 0.47291 0.0
H2879 H 0.60741 0.75361 0.49089 0.0
H2880 H 0.27925 0.91967 0.39267 0.0
H2881 H 0.26935 0.90466 0.41274 0.0
H2882 H 0.28485 0.93362 0.44564 0.0
H2883 H 0.29489 0.94868 0.42561 0.0
H2884 H 0.2854 0.91267 0.45451 0.0
H2885 H 0.23933 0.90125 0.43444 0.0
H2886 H 0.24845 0.8993 0.42047 0.0
H2887 H 0.25317 0.91433 0.42765 0.0
C2888 C 0.28057 0.92283 0.40419 0.0
C2889 C 0.28772 0.93536 0.40757 0.0
C2890 C 0.27492 0.91425 0.41563 0.0
C2891 C 0.27618 0.91807 0.43064 0.0
C2892 C 0.28374 0.9305 0.43412 0.0
H2893 H 0.22467 0.87608 0.50045 0.0
H2894 H 0.23863 0.89216 0.48332 0.0
C2895 C 0.28947 0.93909 0.42267 0.0
C2896 C 0.26915 0.90916 0.44262 0.0
H2897 H 0.24003 0.88889 0.45385 0.0
C2898 C 0.27548 0.90747 0.45442 0.0
C2899 C 0.25621 0.90256 0.44258 0.0
C2900 C 0.24887 0.90451 0.43069 0.0
C2901 C 0.26918 0.89919 0.4661 0.0
C2902 C 0.25624 0.89231 0.46578 0.0
C2903 C 0.24995 0.89412 0.45404 0.0
C2904 C 0.2489 0.88327 0.47751 0.0
C2905 C 0.27641 0.89807 0.47879 0.0
C2906 C 0.25018 0.87302 0.48015 0.0
C2907 C 0.24226 0.86385 0.49005 0.0
C2908 C 0.23282 0.86471 0.49725 0.0
C2909 C 0.2318 0.87514 0.49492 0.0
C2910 C 0.23977 0.88433 0.48517 0.0
H2911 H 0.28573 0.90623 0.47955 0.0
H2912 H 0.27167 0.89685 0.4897 0.0
H2913 H 0.27742 0.88995 0.47683 0.0
H2914 H 0.25698 0.87187 0.47412 0.0
H2915 H 0.24315 0.85583 0.49153 0.0
H2916 H 0.05481 0.33106 0.41537 0.0
H2917 H 0.07025 0.33566 0.43469 0.0
H2918 H 0.0882 0.37391 0.42306 0.0
H2919 H 0.07268 0.36942 0.40382 0.0
H2920 H 0.09633 0.3476 0.42768 0.0
H2921 H 0.0852 0.37296 0.47004 0.0
H2922 H 0.07418 0.36277 0.45644 0.0
H2923 H 0.08616 0.37763 0.45079 0.0
C2924 C 0.0619 0.34048 0.41712 0.0
C2925 C 0.06254 0.34988 0.40808 0.0
C2926 C 0.07073 0.34308 0.4281 0.0
C2927 C 0.08027 0.35513 0.43036 0.0
C2928 C 0.0808 0.36458 0.4216 0.0
H2929 H 0.14517 0.38637 0.48695 0.0
H2930 H 0.12842 0.38335 0.47035 0.0
C2931 C 0.07201 0.36198 0.41054 0.0
C2932 C 0.09015 0.35763 0.44108 0.0
H2933 H 0.10307 0.37181 0.4742 0.0
C2934 C 0.0978 0.35286 0.43788 0.0
C2935 C 0.09208 0.36461 0.45424 0.0
C2936 C 0.08395 0.36975 0.45822 0.0
C2937 C 0.1074 0.35493 0.44749 0.0
C2938 C 0.10919 0.36168 0.46086 0.0
C2939 C 0.10162 0.36659 0.46398 0.0
C2940 C 0.1188 0.36358 0.47177 0.0
C2941 C 0.1157 0.35006 0.44307 0.0
C2942 C 0.11871 0.35349 0.47841 0.0
C2943 C 0.12826 0.35519 0.48777 0.0
C2944 C 0.13799 0.36702 0.49085 0.0
C2945 C 0.13777 0.37715 0.48478 0.0
C2946 C 0.12824 0.37544 0.47529 0.0
H2947 H 0.11532 0.34827 0.43082 0.0
H2948 H 0.12534 0.35657 0.44622 0.0
H2949 H 0.11272 0.34129 0.44897 0.0
H2950 H 0.11134 0.34428 0.47615 0.0
H2951 H 0.12807 0.34723 0.49255 0.0
H2952 H 0.04236 0.29357 0.29479 0.0
H2953 H 0.05332 0.28874 0.27582 0.0
H2954 H 0.05272 0.31513 0.24585 0.0
H2955 H 0.04189 0.32014 0.26479 0.0
H2956 H 0.04739 0.29213 0.23201 0.0
H2957 H 0.08985 0.31357 0.26636 0.0
H2958 H 0.07633 0.30199 0.27563 0.0
H2959 H 0.07723 0.31606 0.27006 0.0
C2960 C 0.04455 0.29834 0.28416 0.0
C2961 C 0.04135 0.30732 0.28136 0.0
C2962 C 0.05077 0.29554 0.27333 0.0
C2963 C 0.05394 0.30169 0.25954 0.0
C2964 C 0.05033 0.31028 0.25644 0.0
H2965 H 0.11138 0.31354 0.19831 0.0
H2966 H 0.09683 0.31503 0.21499 0.0
C2967 C 0.04411 0.3131 0.26726 0.0
C2968 C 0.06163 0.29971 0.24866 0.0
H2969 H 0.09036 0.30421 0.24369 0.0
C2970 C 0.05677 0.29472 0.23454 0.0
C2971 C 0.07389 0.30324 0.25199 0.0
C2972 C 0.07972 0.30911 0.26677 0.0
C2973 C 0.0639 0.29312 0.22364 0.0
C2974 C 0.07612 0.29655 0.22705 0.0
C2975 C 0.08095 0.30154 0.24117 0.0
C2976 C 0.0843 0.2955 0.216 0.0
C2977 C 0.05842 0.28808 0.20846 0.0
C2978 C 0.08201 0.28402 0.21096 0.0
C2979 C 0.09035 0.28312 0.20147 0.0
C2980 C 0.10116 0.29371 0.19696 0.0
C2981 C 0.10324 0.3052 0.20177 0.0
C2982 C 0.09491 0.30608 0.21123 0.0
H2983 H 0.04982 0.28825 0.2066 0.0
H2984 H 0.065 0.29338 0.19939 0.0
H2985 H 0.0563 0.27846 0.20761 0.0
H2986 H 0.07396 0.27573 0.21473 0.0
H2987 H 0.08856 0.27414 0.19809 0.0
H2988 H 0.68679 0.71833 0.26226 0.0
H2989 H 0.69266 0.73428 0.2432 0.0
H2990 H 0.69825 0.76047 0.27782 0.0
H2991 H 0.69242 0.74465 0.29687 0.0
H2992 H 0.68137 0.74749 0.23712 0.0
H2993 H 0.72953 0.77881 0.25348 0.0
H2994 H 0.72086 0.76327 0.26022 0.0
H2995 H 0.71908 0.77516 0.26886 0.0
C2996 C 0.68933 0.72751 0.2658 0.0
C2997 C 0.68922 0.73025 0.28108 0.0
C2998 C 0.69273 0.73661 0.25492 0.0
C2999 C 0.69612 0.74861 0.25912 0.0
C3000 C 0.69602 0.75136 0.27436 0.0
H3001 H 0.70807 0.8152 0.21992 0.0
H3002 H 0.70579 0.79842 0.23574 0.0
C3003 C 0.69266 0.7423 0.28523 0.0
C3004 C 0.699 0.7581 0.24758 0.0
H3005 H 0.72042 0.78715 0.23733 0.0
C3006 C 0.68998 0.7561 0.237 0.0
C3007 C 0.71024 0.7693 0.24746 0.0
C3008 C 0.72053 0.77173 0.25802 0.0
C3009 C 0.69167 0.76522 0.22674 0.0
C3010 C 0.70275 0.77656 0.22696 0.0
C3011 C 0.71192 0.77844 0.23724 0.0
C3012 C 0.70471 0.78685 0.2172 0.0
C3013 C 0.68139 0.76284 0.21618 0.0
C3014 C 0.70508 0.78598 0.20153 0.0
C3015 C 0.70631 0.79553 0.19245 0.0
C3016 C 0.7072 0.80612 0.19889 0.0
C3017 C 0.70718 0.80708 0.21461 0.0
C3018 C 0.70597 0.79754 0.22366 0.0
H3019 H 0.67263 0.75461 0.21946 0.0
H3020 H 0.67999 0.77083 0.21583 0.0
H3021 H 0.68377 0.76133 0.2047 0.0
H3022 H 0.70429 0.77786 0.19635 0.0
H3023 H 0.70624 0.79449 0.18038 0.0
H3024 H 0.27389 0.97569 0.26762 0.0
H3025 H 0.25857 0.9666 0.24768 0.0
H3026 H 0.23382 0.93869 0.27826 0.0
H3027 H 0.24911 0.94743 0.29809 0.0
H3028 H 0.24789 0.94161 0.23723 0.0
H3029 H 0.21298 0.95205 0.25883 0.0
H3030 H 0.22875 0.96024 0.26491 0.0
H3031 H 0.21832 0.94538 0.27247 0.0
C3032 C 0.2652 0.96761 0.27011 0.0
C3033 C 0.26274 0.96232 0.2845 0.0
C3034 C 0.25643 0.96249 0.25873 0.0
C3035 C 0.24502 0.9521 0.26159 0.0
C3036 C 0.24248 0.94688 0.27594 0.0
H3037 H 0.18094 0.89662 0.22024 0.0
H3038 H 0.19713 0.91178 0.23622 0.0
C3039 C 0.25124 0.95192 0.28728 0.0
C3040 C 0.23599 0.94614 0.24941 0.0
H3041 H 0.2064 0.93656 0.23992 0.0
C3042 C 0.23888 0.94066 0.23762 0.0
C3043 C 0.22428 0.94495 0.25003 0.0
C3044 C 0.2209 0.95106 0.26216 0.0
C3045 C 0.23009 0.9334 0.22687 0.0
C3046 C 0.21821 0.93183 0.22779 0.0
C3047 C 0.21551 0.93776 0.23924 0.0
C3048 C 0.20815 0.9232 0.21787 0.0
C3049 C 0.23341 0.92692 0.21514 0.0
C3050 C 0.20885 0.92473 0.20224 0.0
C3051 C 0.19966 0.91596 0.19302 0.0
C3052 C 0.18958 0.90557 0.19931 0.0
C3053 C 0.1887 0.90437 0.21501 0.0
C3054 C 0.19789 0.91309 0.22418 0.0
H3055 H 0.24204 0.92705 0.21791 0.0
H3056 H 0.22599 0.91725 0.21388 0.0
H3057 H 0.23469 0.93154 0.20418 0.0
H3058 H 0.21658 0.9326 0.19716 0.0
H3059 H 0.20062 0.91715 0.18098 0.0
H3060 H 0.71308 0.97344 0.28073 0.0
H3061 H 0.7195 0.96441 0.26085 0.0
H3062 H 0.68194 0.93634 0.25396 0.0
H3063 H 0.67547 0.94506 0.27389 0.0
H3064 H 0.7152 0.93995 0.25992 0.0
H3065 H 0.69425 0.94974 0.21138 0.0
H3066 H 0.69701 0.95769 0.22908 0.0
H3067 H 0.68383 0.94269 0.22675 0.0
C3068 C 0.70619 0.96533 0.275 0.0
C3069 C 0.69374 0.96003 0.27884 0.0
C3070 C 0.70988 0.96024 0.26359 0.0
C3071 C 0.70116 0.94986 0.25576 0.0
C3072 C 0.68877 0.94454 0.2596 0.0
H3073 H 0.69068 0.89328 0.19721 0.0
H3074 H 0.69026 0.90882 0.2131 0.0
C3075 C 0.68509 0.94956 0.27101 0.0
C3076 C 0.70494 0.94406 0.24412 0.0
H3077 H 0.69929 0.93394 0.20791 0.0
C3078 C 0.71196 0.93883 0.24845 0.0
C3079 C 0.70069 0.94266 0.22919 0.0
C3080 C 0.69363 0.94859 0.22376 0.0
C3081 C 0.71417 0.93154 0.23848 0.0
C3082 C 0.70939 0.92963 0.22376 0.0
C3083 C 0.7029 0.93539 0.21923 0.0
C3084 C 0.70992 0.92072 0.21343 0.0
C3085 C 0.72096 0.92534 0.24404 0.0
C3086 C 0.72111 0.92239 0.20811 0.0
C3087 C 0.72139 0.91345 0.19909 0.0
C3088 C 0.71046 0.90273 0.19526 0.0
C3089 C 0.69926 0.90133 0.20021 0.0
C3090 C 0.699 0.91024 0.20919 0.0
H3091 H 0.72218 0.92608 0.25641 0.0
H3092 H 0.71602 0.91551 0.24088 0.0
H3093 H 0.73015 0.9297 0.23876 0.0
H3094 H 0.72963 0.93053 0.21108 0.0
H3095 H 0.73016 0.91478 0.19546 0.0
H3096 H 0.03859 0.74863 0.29516 0.0
H3097 H 0.04879 0.76422 0.27573 0.0
H3098 H 0.05085 0.73768 0.24729 0.0
H3099 H 0.04092 0.72213 0.26674 0.0
H3100 H 0.07324 0.75941 0.25156 0.0
H3101 H 0.03663 0.76896 0.23462 0.0
H3102 H 0.03915 0.7694 0.2545 0.0
H3103 H 0.0335 0.75521 0.2445 0.0
C3104 C 0.04115 0.7461 0.28473 0.0
C3105 C 0.03895 0.73415 0.28249 0.0
C3106 C 0.04684 0.75498 0.27358 0.0
C3107 C 0.05042 0.75205 0.26001 0.0
C3108 C 0.04804 0.74008 0.25764 0.0
H3109 H 0.08573 0.79863 0.18216 0.0
H3110 H 0.07129 0.78203 0.19854 0.0
C3111 C 0.04232 0.73119 0.26874 0.0
C3112 C 0.05759 0.7617 0.24885 0.0
H3113 H 0.05683 0.78295 0.22599 0.0
C3114 C 0.06962 0.76449 0.24588 0.0
C3115 C 0.0528 0.76824 0.24141 0.0
C3116 C 0.03977 0.76526 0.24378 0.0
C3117 C 0.07712 0.7739 0.23596 0.0
C3118 C 0.07248 0.78072 0.22892 0.0
C3119 C 0.06035 0.77773 0.23153 0.0
C3120 C 0.08033 0.79118 0.21911 0.0
C3121 C 0.09 0.77654 0.23311 0.0
C3122 C 0.08993 0.80189 0.22533 0.0
C3123 C 0.09812 0.81138 0.21607 0.0
C3124 C 0.09687 0.81032 0.20037 0.0
C3125 C 0.0869 0.79976 0.1942 0.0
C3126 C 0.07868 0.79026 0.20351 0.0
H3127 H 0.09138 0.769 0.23709 0.0
H3128 H 0.09221 0.77801 0.22096 0.0
H3129 H 0.09653 0.78504 0.23912 0.0
H3130 H 0.09125 0.80279 0.23737 0.0
H3131 H 0.10554 0.8195 0.22119 0.0
H3132 H 0.25843 0.29124 0.29038 0.0
H3133 H 0.24258 0.28482 0.27109 0.0
H3134 H 0.26347 0.3199 0.24942 0.0
H3135 H 0.27937 0.32627 0.26848 0.0
H3136 H 0.2287 0.29468 0.26503 0.0
H3137 H 0.25489 0.29731 0.21404 0.0
H3138 H 0.26061 0.29768 0.23267 0.0
H3139 H 0.2622 0.31138 0.22439 0.0
C3140 C 0.25967 0.29753 0.28142 0.0
C3141 C 0.27016 0.30923 0.28088 0.0
C3142 C 0.25064 0.29384 0.27039 0.0
C3143 C 0.25195 0.30179 0.25864 0.0
C3144 C 0.26243 0.31346 0.25809 0.0
H3145 H 0.20633 0.3115 0.19742 0.0
H3146 H 0.22233 0.31259 0.21386 0.0
C3147 C 0.2715 0.31711 0.26903 0.0
C3148 C 0.24195 0.29828 0.24763 0.0
H3149 H 0.2361 0.29747 0.21012 0.0
C3150 C 0.23027 0.29507 0.25303 0.0
C3151 C 0.24398 0.29875 0.23195 0.0
C3152 C 0.25607 0.30134 0.22543 0.0
C3153 C 0.22074 0.29288 0.24319 0.0
C3154 C 0.22297 0.29394 0.22759 0.0
C3155 C 0.23449 0.29674 0.22213 0.0
C3156 C 0.21365 0.29302 0.21691 0.0
C3157 C 0.20847 0.28994 0.24948 0.0
C3158 C 0.20361 0.28162 0.21307 0.0
C3159 C 0.19446 0.28095 0.20365 0.0
C3160 C 0.19521 0.29171 0.19808 0.0
C3161 C 0.20544 0.30308 0.20172 0.0
C3162 C 0.21461 0.30372 0.21101 0.0
H3163 H 0.20844 0.29018 0.26193 0.0
H3164 H 0.20588 0.29656 0.24516 0.0
H3165 H 0.20137 0.28067 0.24571 0.0
H3166 H 0.20276 0.27327 0.21755 0.0
H3167 H 0.18664 0.27208 0.20109 0.0
H3168 H 0.28091 0.33897 0.41344 0.0
H3169 H 0.27131 0.34501 0.43284 0.0
H3170 H 0.29632 0.38304 0.42301 0.0
H3171 H 0.30603 0.37707 0.40352 0.0
H3172 H 0.28143 0.35955 0.45849 0.0
H3173 H 0.26261 0.38006 0.41915 0.0
H3174 H 0.26851 0.37046 0.4128 0.0
H3175 H 0.27884 0.38605 0.41812 0.0
C3176 C 0.28447 0.34863 0.4155 0.0
C3177 C 0.29422 0.35755 0.40692 0.0
C3178 C 0.27894 0.35206 0.42655 0.0
C3179 C 0.28301 0.36446 0.42923 0.0
C3180 C 0.29289 0.37341 0.42091 0.0
H3181 H 0.24775 0.393 0.48912 0.0
H3182 H 0.26317 0.39215 0.47316 0.0
C3183 C 0.29842 0.36998 0.4098 0.0
C3184 C 0.27671 0.36786 0.44064 0.0
H3185 H 0.25826 0.38018 0.44479 0.0
C3186 C 0.27645 0.36416 0.45553 0.0
C3187 C 0.27027 0.37392 0.43674 0.0
C3188 C 0.26995 0.37779 0.42083 0.0
C3189 C 0.26967 0.36609 0.46657 0.0
C3190 C 0.26286 0.37172 0.46254 0.0
C3191 C 0.26351 0.37588 0.44781 0.0
C3192 C 0.25414 0.37238 0.47307 0.0
C3193 C 0.26973 0.36195 0.4824 0.0
C3194 C 0.24399 0.36156 0.47824 0.0
C3195 C 0.23521 0.36201 0.48727 0.0
C3196 C 0.23638 0.37331 0.49128 0.0
C3197 C 0.24667 0.38417 0.48631 0.0
C3198 C 0.25544 0.3837 0.47717 0.0
H3199 H 0.27798 0.36123 0.48462 0.0
H3200 H 0.26938 0.36834 0.49069 0.0
H3201 H 0.26156 0.35277 0.48412 0.0
H3202 H 0.24271 0.35273 0.47499 0.0
H3203 H 0.22743 0.3535 0.49104 0.0
H3204 H 0.62923 0.92729 0.40418 0.0
H3205 H 0.62365 0.91199 0.42403 0.0
H3206 H 0.66114 0.92038 0.42655 0.0
H3207 H 0.66685 0.93588 0.40707 0.0
H3208 H 0.62647 0.89125 0.42389 0.0
H3209 H 0.65259 0.92287 0.47033 0.0
H3210 H 0.64925 0.92805 0.45308 0.0
H3211 H 0.66163 0.92494 0.45388 0.0
C3212 C 0.63631 0.92598 0.4091 0.0
C3213 C 0.64849 0.93282 0.40408 0.0
C3214 C 0.63309 0.9172 0.42037 0.0
C3215 C 0.64202 0.9152 0.42689 0.0
C3216 C 0.65416 0.92194 0.42184 0.0
H3217 H 0.64757 0.86664 0.48857 0.0
H3218 H 0.65036 0.88242 0.47068 0.0
C3219 C 0.65737 0.93069 0.41058 0.0
C3220 C 0.63864 0.90579 0.43866 0.0
H3221 H 0.64529 0.90166 0.47449 0.0
C3222 C 0.63045 0.89351 0.43503 0.0
C3223 C 0.64384 0.9088 0.45317 0.0
C3224 C 0.65223 0.92189 0.45793 0.0
C3225 C 0.62773 0.88409 0.44532 0.0
C3226 C 0.63321 0.88709 0.45968 0.0
C3227 C 0.64114 0.89939 0.46345 0.0
C3228 C 0.63133 0.87757 0.47072 0.0
C3229 C 0.61941 0.87098 0.44056 0.0
C3230 C 0.61972 0.8697 0.47681 0.0
C3231 C 0.6181 0.86068 0.48713 0.0
C3232 C 0.62809 0.85945 0.4916 0.0
C3233 C 0.63972 0.86745 0.48556 0.0
C3234 C 0.64132 0.87644 0.47526 0.0
H3235 H 0.618 0.87011 0.42823 0.0
H3236 H 0.6232 0.86514 0.44411 0.0
H3237 H 0.61035 0.86743 0.44602 0.0
H3238 H 0.61194 0.87057 0.47364 0.0
H3239 H 0.60906 0.85476 0.49172 0.0
H3240 H 0.07552 0.73251 0.39687 0.0
H3241 H 0.09105 0.74212 0.41637 0.0
H3242 H 0.07968 0.70675 0.43564 0.0
H3243 H 0.06426 0.69697 0.41594 0.0
H3244 H 0.08174 0.7251 0.45645 0.0
H3245 H 0.12327 0.74122 0.4212 0.0
H3246 H 0.11244 0.74522 0.41411 0.0
H3247 H 0.10829 0.7294 0.41517 0.0
C3248 C 0.07645 0.72673 0.40507 0.0
C3249 C 0.06866 0.71395 0.40478 0.0
C3250 C 0.08532 0.73225 0.41623 0.0
C3251 C 0.08659 0.72512 0.42731 0.0
C3252 C 0.07885 0.71239 0.42713 0.0
H3253 H 0.14749 0.7579 0.49123 0.0
H3254 H 0.13193 0.74336 0.4738 0.0
C3255 C 0.07 0.70684 0.41592 0.0
C3256 C 0.09568 0.73108 0.43943 0.0
H3257 H 0.12621 0.7499 0.44573 0.0
C3258 C 0.09148 0.7304 0.45417 0.0
C3259 C 0.10838 0.73785 0.43641 0.0
C3260 C 0.11341 0.7384 0.42089 0.0
C3261 C 0.09962 0.7368 0.46589 0.0
C3262 C 0.11225 0.74412 0.46271 0.0
C3263 C 0.11651 0.74434 0.4481 0.0
C3264 C 0.1211 0.75223 0.47413 0.0
C3265 C 0.09464 0.7358 0.48153 0.0
C3266 C 0.12012 0.76199 0.48006 0.0
C3267 C 0.12896 0.77027 0.48995 0.0
C3268 C 0.13897 0.76898 0.49407 0.0
C3269 C 0.13981 0.75905 0.48836 0.0
C3270 C 0.13098 0.75079 0.47837 0.0
H3271 H 0.08557 0.72739 0.4829 0.0
H3272 H 0.10102 0.73574 0.49003 0.0
H3273 H 0.09351 0.74381 0.48379 0.0
H3274 H 0.11267 0.76337 0.47675 0.0
H3275 H 0.12803 0.77778 0.49427 0.0
H3276 H 0.28923 0.03119 0.73626 0.0
H3277 H 0.28379 0.04089 0.75637 0.0
H3278 H 0.32007 0.07247 0.75459 0.0
H3279 H 0.32566 0.0628 0.73479 0.0
H3280 H 0.31124 0.06269 0.78416 0.0
H3281 H 0.27828 0.07059 0.75166 0.0
H3282 H 0.27599 0.05535 0.75142 0.0
H3283 H 0.28932 0.06758 0.74267 0.0
C3284 C 0.29605 0.04019 0.74019 0.0
C3285 C 0.30785 0.04627 0.73387 0.0
C3286 C 0.2929 0.04574 0.75158 0.0
C3287 C 0.3015 0.05744 0.75682 0.0
C3288 C 0.31329 0.06347 0.75062 0.0
H3289 H 0.31082 0.11283 0.81887 0.0
H3290 H 0.31258 0.09905 0.80118 0.0
C3291 C 0.31643 0.05796 0.73923 0.0
C3292 C 0.29841 0.06341 0.76898 0.0
H3293 H 0.28179 0.07726 0.77678 0.0
C3294 C 0.30474 0.0658 0.7826 0.0
C3295 C 0.28986 0.06736 0.76691 0.0
C3296 C 0.28299 0.06519 0.75236 0.0
C3297 C 0.30292 0.07227 0.79415 0.0
C3298 C 0.29474 0.07667 0.79188 0.0
C3299 C 0.28808 0.0739 0.77846 0.0
C3300 C 0.29358 0.08482 0.80289 0.0
C3301 C 0.3098 0.07436 0.80868 0.0
C3302 C 0.28223 0.08152 0.80945 0.0
C3303 C 0.28119 0.08941 0.8196 0.0
C3304 C 0.29147 0.10076 0.82329 0.0
C3305 C 0.30279 0.10405 0.81655 0.0
C3306 C 0.30381 0.09618 0.80643 0.0
H3307 H 0.31261 0.06742 0.81037 0.0
H3308 H 0.31822 0.0835 0.80838 0.0
H3309 H 0.30419 0.0741 0.81842 0.0
H3310 H 0.27421 0.07281 0.80678 0.0
H3311 H 0.27237 0.08658 0.82466 0.0
H3312 H 0.97273 0.26224 0.73904 0.0
H3313 H 0.96265 0.24709 0.75888 0.0
H3314 H 0.92761 0.24139 0.74457 0.0
H3315 H 0.93762 0.25699 0.72534 0.0
H3316 H 0.93006 0.24395 0.77429 0.0
H3317 H 0.94321 0.21029 0.75539 0.0
H3318 H 0.95599 0.22536 0.75849 0.0
H3319 H 0.94525 0.22285 0.74379 0.0
C3320 C 0.96288 0.25782 0.74015 0.0
C3321 C 0.956 0.26083 0.73049 0.0
C3322 C 0.95712 0.24902 0.75138 0.0
C3323 C 0.94435 0.24294 0.75305 0.0
C3324 C 0.93746 0.2459 0.74342 0.0
H3325 H 0.89557 0.17725 0.80154 0.0
H3326 H 0.90852 0.19268 0.78309 0.0
C3327 C 0.94321 0.25475 0.73231 0.0
C3328 C 0.9381 0.23383 0.76515 0.0
H3329 H 0.93315 0.20652 0.77893 0.0
C3330 C 0.93074 0.23577 0.77531 0.0
C3331 C 0.93892 0.2231 0.76638 0.0
C3332 C 0.94617 0.22018 0.75536 0.0
C3333 C 0.92408 0.22724 0.78657 0.0
C3334 C 0.92509 0.21664 0.788 0.0
C3335 C 0.9325 0.21472 0.7779 0.0
C3336 C 0.918 0.20714 0.79941 0.0
C3337 C 0.9157 0.22949 0.79647 0.0
C3338 C 0.91926 0.21005 0.81475 0.0
C3339 C 0.9118 0.20127 0.8253 0.0
C3340 C 0.9031 0.18937 0.82071 0.0
C3341 C 0.90225 0.18632 0.80542 0.0
C3342 C 0.90962 0.19514 0.79486 0.0
H3343 H 0.91355 0.23622 0.79142 0.0
H3344 H 0.90697 0.22087 0.79861 0.0
H3345 H 0.92025 0.23324 0.8074 0.0
H3346 H 0.92588 0.21917 0.81854 0.0
H3347 H 0.91278 0.20381 0.83704 0.0
H3348 H 0.74939 0.70635 0.72078 0.0
H3349 H 0.76533 0.71133 0.73955 0.0
H3350 H 0.73846 0.68458 0.76958 0.0
H3351 H 0.72248 0.67954 0.75091 0.0
H3352 H 0.75509 0.70653 0.78385 0.0
H3353 H 0.77873 0.68847 0.74847 0.0
H3354 H 0.77668 0.70009 0.73972 0.0
H3355 H 0.76354 0.68558 0.74432 0.0
C3356 C 0.74688 0.70154 0.73139 0.0
C3357 C 0.73469 0.69248 0.73432 0.0
C3358 C 0.75599 0.70439 0.74209 0.0
C3359 C 0.7531 0.69818 0.75584 0.0
C3360 C 0.74088 0.68946 0.75902 0.0
H3361 H 0.80026 0.68819 0.81623 0.0
H3362 H 0.78468 0.68623 0.79853 0.0
C3363 C 0.73175 0.68663 0.74836 0.0
C3364 C 0.76283 0.70041 0.76673 0.0
H3365 H 0.78823 0.69783 0.77135 0.0
C3366 C 0.76237 0.70467 0.78113 0.0
C3367 C 0.7722 0.69781 0.76319 0.0
C3368 C 0.77281 0.69263 0.74814 0.0
C3369 C 0.77106 0.70642 0.7921 0.0
C3370 C 0.78054 0.70401 0.78846 0.0
C3371 C 0.78099 0.69976 0.77406 0.0
C3372 C 0.7898 0.70532 0.79959 0.0
C3373 C 0.76982 0.7105 0.8076 0.0
C3374 C 0.7979 0.71672 0.80602 0.0
C3375 C 0.80676 0.71786 0.81628 0.0
C3376 C 0.80772 0.70761 0.82023 0.0
C3377 C 0.79963 0.69622 0.81366 0.0
C3378 C 0.79078 0.6951 0.80345 0.0
H3379 H 0.76053 0.70913 0.80956 0.0
H3380 H 0.77173 0.70545 0.81634 0.0
H3381 H 0.77653 0.7204 0.80892 0.0
H3382 H 0.79744 0.72477 0.80299 0.0
H3383 H 0.8128 0.72674 0.82119 0.0
H3384 H 0.71143 0.62868 0.62894 0.0
H3385 H 0.72217 0.62375 0.60973 0.0
H3386 H 0.71714 0.64656 0.57804 0.0
H3387 H 0.70624 0.65137 0.59712 0.0
H3388 H 0.71361 0.62521 0.56523 0.0
H3389 H 0.75705 0.6481 0.5974 0.0
H3390 H 0.74448 0.63605 0.60748 0.0
H3391 H 0.74401 0.64956 0.60237 0.0
C3392 C 0.71258 0.63259 0.61785 0.0
C3393 C 0.70809 0.64048 0.61455 0.0
C3394 C 0.71873 0.62979 0.60691 0.0
C3395 C 0.72068 0.635 0.59256 0.0
C3396 C 0.71577 0.64248 0.58906 0.0
H3397 H 0.77751 0.64638 0.53025 0.0
H3398 H 0.76369 0.64803 0.54795 0.0
C3399 C 0.70952 0.64519 0.59995 0.0
C3400 C 0.72823 0.63307 0.58137 0.0
H3401 H 0.75691 0.6377 0.57528 0.0
C3402 C 0.72307 0.62792 0.56741 0.0
C3403 C 0.74064 0.63679 0.58418 0.0
C3404 C 0.74693 0.64304 0.59861 0.0
C3405 C 0.72999 0.62636 0.55618 0.0
C3406 C 0.74231 0.62983 0.55913 0.0
C3407 C 0.74744 0.63496 0.57309 0.0
C3408 C 0.75025 0.6287 0.54773 0.0
C3409 C 0.72415 0.62135 0.54113 0.0
C3410 C 0.74729 0.61727 0.54171 0.0
C3411 C 0.7551 0.61631 0.53136 0.0
C3412 C 0.76609 0.62676 0.52698 0.0
C3413 C 0.76902 0.63818 0.53311 0.0
C3414 C 0.76118 0.63913 0.54335 0.0
H3415 H 0.71589 0.62217 0.53941 0.0
H3416 H 0.73069 0.62618 0.53185 0.0
H3417 H 0.72129 0.61151 0.54049 0.0
H3418 H 0.73902 0.60907 0.54515 0.0
H3419 H 0.75253 0.60739 0.5268 0.0
H3420 H 0.35974 0.08135 0.62556 0.0
H3421 H 0.36627 0.09647 0.6055 0.0
H3422 H 0.36039 0.06875 0.57296 0.0
H3423 H 0.35388 0.0535 0.59303 0.0
H3424 H 0.38544 0.10389 0.58427 0.0
H3425 H 0.33964 0.08305 0.55716 0.0
H3426 H 0.34174 0.07889 0.5758 0.0
H3427 H 0.34587 0.07316 0.55973 0.0
C3428 C 0.35997 0.07847 0.61417 0.0
C3429 C 0.35627 0.06621 0.61088 0.0
C3430 C 0.36366 0.08713 0.60271 0.0
C3431 C 0.36368 0.08369 0.58775 0.0
C3432 C 0.36023 0.07152 0.58442 0.0
H3433 H 0.37515 0.13023 0.50936 0.0
H3434 H 0.37341 0.11333 0.5247 0.0
C3435 C 0.35651 0.06284 0.59589 0.0
C3436 C 0.36713 0.09291 0.57573 0.0
H3437 H 0.35538 0.10117 0.54658 0.0
C3438 C 0.37891 0.10325 0.57593 0.0
C3439 C 0.35861 0.092 0.56482 0.0
C3440 C 0.34572 0.08124 0.56435 0.0
C3441 C 0.38231 0.11287 0.56574 0.0
C3442 C 0.37362 0.1122 0.55526 0.0
C3443 C 0.36202 0.10164 0.55464 0.0
C3444 C 0.37595 0.12277 0.54583 0.0
C3445 C 0.39512 0.12374 0.5664 0.0
C3446 C 0.378 0.13366 0.55264 0.0
C3447 C 0.37899 0.14327 0.54395 0.0
C3448 C 0.37789 0.14217 0.52826 0.0
C3449 C 0.37616 0.13138 0.52141 0.0
C3450 C 0.37511 0.12172 0.53014 0.0
H3451 H 0.40159 0.12126 0.57148 0.0
H3452 H 0.39848 0.12758 0.55506 0.0
H3453 H 0.39512 0.13097 0.57348 0.0
H3454 H 0.37844 0.13457 0.56474 0.0
H3455 H 0.38042 0.15151 0.54952 0.0
H3456 H 0.9471 0.30337 0.59156 0.0
H3457 H 0.93176 0.29452 0.57157 0.0
H3458 H 0.90743 0.26563 0.60137 0.0
H3459 H 0.92274 0.27408 0.62119 0.0
H3460 H 0.9201 0.26867 0.56033 0.0
H3461 H 0.88726 0.28124 0.58406 0.0
H3462 H 0.90328 0.28909 0.58908 0.0
H3463 H 0.89291 0.27444 0.59714 0.0
C3464 C 0.93852 0.29508 0.59383 0.0
C3465 C 0.93614 0.2895 0.60805 0.0
C3466 C 0.92975 0.2901 0.58243 0.0
C3467 C 0.91843 0.27955 0.58512 0.0
C3468 C 0.91604 0.27392 0.5992 0.0
H3469 H 0.85207 0.22653 0.54595 0.0
H3470 H 0.86917 0.24118 0.56128 0.0
C3471 C 0.9248 0.27881 0.61054 0.0
C3472 C 0.90914 0.27405 0.57314 0.0
H3473 H 0.87973 0.26605 0.56483 0.0
C3474 C 0.91134 0.26825 0.5611 0.0
C3475 C 0.89776 0.27356 0.57428 0.0
C3476 C 0.89515 0.28 0.58676 0.0
C3477 C 0.90214 0.26132 0.5506 0.0
C3478 C 0.89056 0.26044 0.55206 0.0
C3479 C 0.8886 0.26673 0.56374 0.0
C3480 C 0.88003 0.25211 0.54252 0.0
C3481 C 0.90466 0.25444 0.53859 0.0
C3482 C 0.88034 0.25354 0.52689 0.0
C3483 C 0.8706 0.24506 0.51804 0.0
C3484 C 0.86038 0.23505 0.52472 0.0
C3485 C 0.85992 0.23397 0.54043 0.0
C3486 C 0.86964 0.2424 0.54922 0.0
H3487 H 0.9131 0.25409 0.54092 0.0
H3488 H 0.89687 0.24493 0.53753 0.0
H3489 H 0.90587 0.25909 0.52766 0.0
H3490 H 0.88816 0.26112 0.52152 0.0
H3491 H 0.87125 0.24613 0.50597 0.0
H3492 H 0.34234 0.28945 0.59825 0.0
H3493 H 0.34771 0.27892 0.57929 0.0
H3494 H 0.38009 0.28707 0.60427 0.0
H3495 H 0.37494 0.29786 0.62317 0.0
H3496 H 0.38312 0.29012 0.57151 0.0
H3497 H 0.34433 0.24511 0.58955 0.0
H3498 H 0.34047 0.2566 0.58502 0.0
H3499 H 0.35003 0.25874 0.60091 0.0
C3500 C 0.35073 0.28922 0.59958 0.0
C3501 C 0.35818 0.29442 0.61227 0.0
C3502 C 0.35373 0.28312 0.58879 0.0
C3503 C 0.3642 0.28212 0.5905 0.0
C3504 C 0.37193 0.28772 0.60281 0.0
H3505 H 0.37873 0.22823 0.55188 0.0
H3506 H 0.37665 0.24265 0.56818 0.0
C3507 C 0.36893 0.2938 0.61363 0.0
C3508 C 0.3667 0.27458 0.57996 0.0
H3509 H 0.35576 0.2451 0.56862 0.0
C3510 C 0.37716 0.28028 0.57082 0.0
C3511 C 0.35895 0.26175 0.57928 0.0
C3512 C 0.34786 0.25513 0.58928 0.0
C3513 C 0.38001 0.27343 0.56087 0.0
C3514 C 0.37214 0.26061 0.56004 0.0
C3515 C 0.36174 0.25494 0.56925 0.0
C3516 C 0.3746 0.25276 0.54998 0.0
C3517 C 0.3915 0.27989 0.55154 0.0
C3518 C 0.37425 0.25375 0.53434 0.0
C3519 C 0.37538 0.24547 0.52498 0.0
C3520 C 0.37678 0.23602 0.53114 0.0
C3521 C 0.37748 0.2353 0.54681 0.0
C3522 C 0.37636 0.24356 0.55613 0.0
H3523 H 0.39786 0.28925 0.55581 0.0
H3524 H 0.39635 0.2746 0.55136 0.0
H3525 H 0.38903 0.28067 0.53983 0.0
H3526 H 0.37269 0.26066 0.52939 0.0
H3527 H 0.37467 0.24617 0.51296 0.0
H3528 H 0.69929 0.05426 0.59328 0.0
H3529 H 0.70791 0.06958 0.57328 0.0
H3530 H 0.73187 0.09666 0.60526 0.0
H3531 H 0.7234 0.08144 0.62527 0.0
H3532 H 0.72004 0.10491 0.58508 0.0
H3533 H 0.74249 0.08246 0.55566 0.0
H3534 H 0.72634 0.07308 0.55909 0.0
H3535 H 0.73678 0.07856 0.57461 0.0
C3536 C 0.70644 0.06347 0.59603 0.0
C3537 C 0.71071 0.06662 0.61085 0.0
C3538 C 0.71133 0.0722 0.58461 0.0
C3539 C 0.72061 0.08419 0.58779 0.0
C3540 C 0.72469 0.08744 0.6026 0.0
H3541 H 0.77226 0.15123 0.54738 0.0
H3542 H 0.75748 0.13473 0.56338 0.0
C3543 C 0.71981 0.07874 0.61402 0.0
C3544 C 0.72638 0.09337 0.57571 0.0
H3545 H 0.74532 0.10079 0.54539 0.0
C3546 C 0.72549 0.10398 0.57631 0.0
C3547 C 0.73341 0.09207 0.56426 0.0
C3548 C 0.73493 0.08098 0.56334 0.0
C3549 C 0.73167 0.11348 0.56592 0.0
C3550 C 0.73909 0.11239 0.55485 0.0
C3551 C 0.7396 0.10158 0.5539 0.0
C3552 C 0.74725 0.12274 0.54499 0.0
C3553 C 0.73028 0.12462 0.56698 0.0
C3554 C 0.74648 0.12142 0.52933 0.0
C3555 C 0.75501 0.13081 0.52014 0.0
C3556 C 0.76453 0.1416 0.52649 0.0
C3557 C 0.76509 0.14298 0.54217 0.0
C3558 C 0.75657 0.13362 0.55132 0.0
H3559 H 0.72155 0.12246 0.57256 0.0
H3560 H 0.73789 0.13174 0.57377 0.0
H3561 H 0.73057 0.12849 0.55571 0.0
H3562 H 0.73943 0.11303 0.52425 0.0
H3563 H 0.75442 0.12944 0.50811 0.0
H3564 H 0.91673 0.63035 0.62843 0.0
H3565 H 0.90041 0.624 0.60985 0.0
H3566 H 0.92583 0.65146 0.57926 0.0
H3567 H 0.94216 0.65789 0.59777 0.0
H3568 H 0.89181 0.63833 0.59807 0.0
H3569 H 0.90917 0.62099 0.55275 0.0
H3570 H 0.91506 0.62352 0.57165 0.0
H3571 H 0.92018 0.63614 0.55886 0.0
C3572 C 0.91885 0.63501 0.61773 0.0
C3573 C 0.93074 0.64462 0.61457 0.0
C3574 C 0.90954 0.63133 0.60711 0.0
C3575 C 0.91196 0.63713 0.5931 0.0
C3576 C 0.92383 0.64665 0.58985 0.0
H3577 H 0.86424 0.64571 0.53299 0.0
H3578 H 0.87932 0.64756 0.55142 0.0
C3579 C 0.93315 0.65033 0.60046 0.0
C3580 C 0.90189 0.63384 0.58229 0.0
H3581 H 0.89315 0.62497 0.54607 0.0
C3582 C 0.89204 0.63528 0.58675 0.0
C3583 C 0.90213 0.62972 0.56759 0.0
C3584 C 0.91214 0.62738 0.56245 0.0
C3585 C 0.88264 0.63316 0.57673 0.0
C3586 C 0.88323 0.62968 0.5618 0.0
C3587 C 0.89282 0.62777 0.55749 0.0
C3588 C 0.87423 0.62848 0.55038 0.0
C3589 C 0.87219 0.63471 0.58218 0.0
C3590 C 0.86659 0.61719 0.54341 0.0
C3591 C 0.858 0.61612 0.53274 0.0
C3592 C 0.85703 0.62636 0.52878 0.0
C3593 C 0.86484 0.63768 0.53566 0.0
C3594 C 0.87338 0.63873 0.54632 0.0
H3595 H 0.87133 0.63406 0.59459 0.0
H3596 H 0.87388 0.64387 0.57882 0.0
H3597 H 0.86339 0.6277 0.57715 0.0
H3598 H 0.86719 0.6092 0.54633 0.0
H3599 H 0.85219 0.60731 0.52752 0.0
H3600 H 0.94234 0.6749 0.74246 0.0
H3601 H 0.93271 0.68102 0.7617 0.0
H3602 H 0.96015 0.71887 0.75505 0.0
H3603 H 0.96991 0.71281 0.73571 0.0
H3604 H 0.94274 0.69381 0.78842 0.0
H3605 H 0.92787 0.71899 0.75088 0.0
H3606 H 0.93285 0.70883 0.74375 0.0
H3607 H 0.94388 0.72381 0.75038 0.0
C3608 C 0.9464 0.68453 0.74516 0.0
C3609 C 0.95691 0.69338 0.73758 0.0
C3610 C 0.94085 0.68801 0.75611 0.0
C3611 C 0.94564 0.7004 0.75969 0.0
C3612 C 0.95618 0.70928 0.75225 0.0
H3613 H 0.91413 0.73006 0.82377 0.0
H3614 H 0.92834 0.72855 0.80633 0.0
C3615 C 0.96174 0.7058 0.74123 0.0
C3616 C 0.93953 0.70385 0.7713 0.0
H3617 H 0.92289 0.71806 0.77649 0.0
C3618 C 0.93848 0.69919 0.78584 0.0
C3619 C 0.93404 0.71093 0.76792 0.0
C3620 C 0.9346 0.71587 0.75237 0.0
C3621 C 0.93184 0.70118 0.79701 0.0
C3622 C 0.92598 0.70786 0.79347 0.0
C3623 C 0.92741 0.71293 0.77912 0.0
C3624 C 0.91756 0.70887 0.80417 0.0
C3625 C 0.93103 0.69599 0.81247 0.0
C3626 C 0.90674 0.69832 0.80851 0.0
C3627 C 0.89857 0.69914 0.81831 0.0
C3628 C 0.90105 0.71056 0.82399 0.0
C3629 C 0.91189 0.72114 0.81953 0.0
C3630 C 0.92006 0.7203 0.80964 0.0
H3631 H 0.93861 0.69413 0.81452 0.0
H3632 H 0.93127 0.70234 0.82127 0.0
H3633 H 0.92226 0.68722 0.81354 0.0
H3634 H 0.90453 0.68944 0.80413 0.0
H3635 H 0.89019 0.69084 0.8212 0.0
H3636 H 0.31129 0.25338 0.71944 0.0
H3637 H 0.3058 0.23724 0.73809 0.0
H3638 H 0.30088 0.25919 0.77138 0.0
H3639 H 0.3063 0.27538 0.75275 0.0
H3640 H 0.31902 0.24164 0.7673 0.0
H3641 H 0.26895 0.22378 0.77262 0.0
H3642 H 0.27756 0.23183 0.75614 0.0
H3643 H 0.27892 0.24014 0.77303 0.0
C3644 C 0.30885 0.25469 0.73067 0.0
C3645 C 0.3092 0.26563 0.73464 0.0
C3646 C 0.30578 0.2455 0.7413 0.0
C3647 C 0.30286 0.24702 0.75603 0.0
C3648 C 0.303 0.25783 0.76001 0.0
H3649 H 0.29989 0.20744 0.83672 0.0
H3650 H 0.30257 0.22304 0.81849 0.0
C3651 C 0.30617 0.26708 0.7494 0.0
C3652 C 0.30032 0.23756 0.76741 0.0
H3653 H 0.27763 0.21553 0.78903 0.0
C3654 C 0.30999 0.23593 0.77207 0.0
C3655 C 0.28851 0.23014 0.77352 0.0
C3656 C 0.27782 0.23144 0.76856 0.0
C3657 C 0.30816 0.22709 0.78282 0.0
C3658 C 0.29637 0.21973 0.78901 0.0
C3659 C 0.28667 0.22128 0.78428 0.0
C3660 C 0.29401 0.21023 0.80024 0.0
C3661 C 0.31878 0.22555 0.78742 0.0
C3662 C 0.28815 0.19789 0.796 0.0
C3663 C 0.28674 0.18896 0.80631 0.0
C3664 C 0.2911 0.19224 0.82108 0.0
C3665 C 0.29662 0.20462 0.82538 0.0
C3666 C 0.29809 0.21354 0.81503 0.0
H3667 H 0.32696 0.23094 0.78025 0.0
H3668 H 0.32128 0.22861 0.79922 0.0
H3669 H 0.31615 0.21575 0.78685 0.0
H3670 H 0.28499 0.19521 0.78459 0.0
H3671 H 0.28259 0.17956 0.80255 0.0
H3672 H 0.72704 0.04285 0.75074 0.0
H3673 H 0.74327 0.05306 0.76935 0.0
H3674 H 0.76982 0.05527 0.7372 0.0
H3675 H 0.75361 0.04479 0.71856 0.0
H3676 H 0.76135 0.04635 0.78014 0.0
H3677 H 0.78183 0.09138 0.75117 0.0
H3678 H 0.76641 0.07919 0.7475 0.0
H3679 H 0.77918 0.07844 0.73994 0.0
C3680 C 0.73629 0.0453 0.74767 0.0
C3681 C 0.73902 0.04303 0.73311 0.0
C3682 C 0.74555 0.05119 0.75831 0.0
C3683 C 0.75772 0.05501 0.75457 0.0
C3684 C 0.76048 0.05252 0.7402 0.0
H3685 H 0.82514 0.10206 0.80292 0.0
H3686 H 0.81019 0.08835 0.78454 0.0
C3687 C 0.75121 0.04658 0.72957 0.0
C3688 C 0.76756 0.06193 0.76559 0.0
H3689 H 0.7916 0.0904 0.77308 0.0
C3690 C 0.76801 0.05597 0.77861 0.0
C3691 C 0.77621 0.07445 0.76349 0.0
C3692 C 0.77591 0.08132 0.74984 0.0
C3693 C 0.77696 0.06223 0.78963 0.0
C3694 C 0.78546 0.07484 0.78769 0.0
C3695 C 0.78509 0.08073 0.77454 0.0
C3696 C 0.7946 0.08225 0.79932 0.0
C3697 C 0.7773 0.05524 0.80312 0.0
C3698 C 0.79081 0.08334 0.81376 0.0
C3699 C 0.79935 0.09105 0.82437 0.0
C3700 C 0.81185 0.09797 0.82068 0.0
C3701 C 0.81563 0.09674 0.80624 0.0
C3702 C 0.80708 0.08897 0.79567 0.0
H3703 H 0.77292 0.04528 0.80072 0.0
H3704 H 0.78684 0.05862 0.80688 0.0
H3705 H 0.77219 0.05643 0.81247 0.0
H3706 H 0.7812 0.07846 0.81674 0.0
H3707 H 0.79613 0.09169 0.83542 0.0
H3708 H 0.04808 0.33767 0.0642 0.0
H3709 H 0.06052 0.33066 0.07698 0.0
H3710 H 0.0681 0.31927 0.03464 0.0
H3711 H 0.05582 0.32647 0.02168 0.0
H3712 H 0.05614 0.30567 0.07552 0.0
H3713 H 0.1023 0.34068 0.05497 0.0
H3714 H 0.08936 0.34306 0.05459 0.0
H3715 H 0.0905 0.33312 0.0411 0.0
C3716 C 0.05256 0.33388 0.05757 0.0
C3717 C 0.05102 0.33268 0.04192 0.0
C3718 C 0.05958 0.32979 0.0649 0.0
C3719 C 0.06527 0.32454 0.05673 0.0
C3720 C 0.06387 0.32343 0.0411 0.0
H3721 H 0.11326 0.29809 0.08794 0.0
H3722 H 0.10052 0.30312 0.07228 0.0
C3723 C 0.0568 0.32746 0.03375 0.0
C3724 C 0.0723 0.31985 0.0647 0.0
H3725 H 0.10121 0.32514 0.07056 0.0
C3726 C 0.066 0.30989 0.07443 0.0
C3727 C 0.08511 0.32533 0.0631 0.0
C3728 C 0.09229 0.3362 0.05296 0.0
C3729 C 0.0722 0.30528 0.08272 0.0
C3730 C 0.08508 0.311 0.08149 0.0
C3731 C 0.09134 0.32079 0.07149 0.0
C3732 C 0.09228 0.30731 0.09096 0.0
C3733 C 0.06489 0.29427 0.09261 0.0
C3734 C 0.09189 0.30803 0.10664 0.0
C3735 C 0.09904 0.30505 0.1156 0.0
C3736 C 0.10686 0.30143 0.10906 0.0
C3737 C 0.10721 0.30068 0.09333 0.0
C3738 C 0.10001 0.30363 0.08437 0.0
H3739 H 0.05524 0.2888 0.0888 0.0
H3740 H 0.06894 0.28826 0.09282 0.0
H3741 H 0.06481 0.2974 0.10423 0.0
H3742 H 0.08618 0.31109 0.11195 0.0
H3743 H 0.09847 0.30562 0.12767 0.0
H3744 H 0.65468 0.70248 0.06707 0.0
H3745 H 0.66122 0.72179 0.08036 0.0
H3746 H 0.67951 0.74193 0.04044 0.0
H3747 H 0.67297 0.72266 0.02703 0.0
H3748 H 0.68853 0.7423 0.08169 0.0
H3749 H 0.65618 0.75523 0.05699 0.0
H3750 H 0.65261 0.7395 0.05809 0.0
H3751 H 0.66356 0.74961 0.04462 0.0
C3752 C 0.65993 0.71102 0.06107 0.0
C3753 C 0.66332 0.71108 0.04602 0.0
C3754 C 0.66371 0.72201 0.06868 0.0
C3755 C 0.67078 0.73322 0.06132 0.0
C3756 C 0.67399 0.73333 0.04624 0.0
H3757 H 0.69885 0.80842 0.09009 0.0
H3758 H 0.69304 0.78986 0.07557 0.0
C3759 C 0.67031 0.72235 0.03865 0.0
C3760 C 0.67525 0.74481 0.06961 0.0
H3761 H 0.67092 0.76917 0.0739 0.0
C3762 C 0.6847 0.7482 0.08003 0.0
C3763 C 0.67028 0.75247 0.06723 0.0
C3764 C 0.66005 0.74907 0.05619 0.0
C3765 C 0.68939 0.75916 0.08817 0.0
C3766 C 0.68423 0.76672 0.08608 0.0
C3767 C 0.67484 0.76335 0.07551 0.0
C3768 C 0.68826 0.77804 0.09495 0.0
C3769 C 0.69999 0.76264 0.09867 0.0
C3770 C 0.68746 0.77755 0.11065 0.0
C3771 C 0.69095 0.78816 0.11899 0.0
C3772 C 0.69513 0.79947 0.11178 0.0
C3773 C 0.69587 0.79992 0.09602 0.0
C3774 C 0.69246 0.7893 0.0877 0.0
H3775 H 0.70521 0.75804 0.09554 0.0
H3776 H 0.70636 0.77268 0.09875 0.0
H3777 H 0.69643 0.75972 0.11022 0.0
H3778 H 0.684 0.76892 0.11648 0.0
H3779 H 0.69037 0.7875 0.1311 0.0
H3780 H 0.27404 0.9422 0.02343 0.0
H3781 H 0.25436 0.93025 0.03633 0.0
H3782 H 0.27127 0.94773 0.07813 0.0
H3783 H 0.29082 0.95993 0.06532 0.0
H3784 H 0.24823 0.914 0.06086 0.0
H3785 H 0.24206 0.95334 0.07479 0.0
H3786 H 0.25299 0.95429 0.06102 0.0
H3787 H 0.25651 0.95532 0.08068 0.0
C3788 C 0.27354 0.94354 0.03535 0.0
C3789 C 0.28399 0.95204 0.04334 0.0
C3790 C 0.26232 0.93668 0.0427 0.0
C3791 C 0.26134 0.93828 0.05812 0.0
C3792 C 0.27179 0.94654 0.06617 0.0
H3793 H 0.20767 0.90769 0.12811 0.0
H3794 H 0.22572 0.9193 0.11225 0.0
C3795 C 0.283 0.95338 0.05886 0.0
C3796 C 0.24944 0.93123 0.0659 0.0
H3797 H 0.22879 0.93452 0.08717 0.0
C3798 C 0.24389 0.91845 0.06649 0.0
C3799 C 0.24382 0.9371 0.07318 0.0
C3800 C 0.24908 0.95076 0.07229 0.0
C3801 C 0.23307 0.91138 0.07468 0.0
C3802 C 0.22762 0.91728 0.08225 0.0
C3803 C 0.23303 0.93004 0.08139 0.0
C3804 C 0.21654 0.91042 0.09162 0.0
C3805 C 0.2278 0.89772 0.0756 0.0
C3806 C 0.20537 0.90176 0.0852 0.0
C3807 C 0.19505 0.89508 0.09423 0.0
C3808 C 0.19575 0.89698 0.10984 0.0
C3809 C 0.2069 0.90589 0.11616 0.0
C3810 C 0.21719 0.91257 0.10712 0.0
H3811 H 0.23444 0.89496 0.07181 0.0
H3812 H 0.22493 0.89444 0.08726 0.0
H3813 H 0.21959 0.89308 0.06833 0.0
H3814 H 0.20466 0.90012 0.07322 0.0
H3815 H 0.18662 0.88822 0.08905 0.0
H3816 H 0.31443 0.04297 0.99487 0.0
H3817 H 0.30796 0.05572 0.98166 0.0
H3818 H 0.33651 0.06527 0.9489 0.0
H3819 H 0.34306 0.0526 0.96205 0.0
H3820 H 0.33487 0.08512 0.95839 0.0
H3821 H 0.28922 0.04669 0.94211 0.0
H3822 H 0.29218 0.04779 0.9619 0.0
H3823 H 0.30118 0.04432 0.94936 0.0
C3824 C 0.31931 0.04777 0.98483 0.0
C3825 C 0.32923 0.04676 0.97947 0.0
C3826 C 0.31558 0.05501 0.97728 0.0
C3827 C 0.32161 0.06125 0.96416 0.0
C3828 C 0.3317 0.06049 0.95899 0.0
H3829 H 0.29723 0.09267 0.8958 0.0
H3830 H 0.3028 0.07991 0.9106 0.0
C3831 C 0.33547 0.05331 0.96656 0.0
C3832 C 0.31747 0.0686 0.95577 0.0
H3833 H 0.29315 0.06673 0.93682 0.0
C3834 C 0.32575 0.08111 0.95367 0.0
C3835 C 0.30562 0.06329 0.94946 0.0
C3836 C 0.29656 0.04977 0.95067 0.0
C3837 C 0.32248 0.0885 0.94551 0.0
C3838 C 0.31051 0.08326 0.93956 0.0
C3839 C 0.30227 0.07073 0.94154 0.0
C3840 C 0.30651 0.09061 0.93091 0.0
C3841 C 0.33195 0.10177 0.94304 0.0
C3842 C 0.30644 0.10064 0.93756 0.0
C3843 C 0.30329 0.10794 0.92914 0.0
C3844 C 0.30001 0.10525 0.91396 0.0
C3845 C 0.29964 0.09492 0.90749 0.0
C3846 C 0.30286 0.08766 0.91591 0.0
H3847 H 0.34138 0.10351 0.94488 0.0
H3848 H 0.33136 0.10471 0.9315 0.0
H3849 H 0.33033 0.10752 0.95108 0.0
H3850 H 0.30893 0.10289 0.94923 0.0
H3851 H 0.30344 0.11571 0.93449 0.0
H3852 H 0.96468 0.29314 0.95291 0.0
H3853 H 0.95194 0.27367 0.93996 0.0
H3854 H 0.93456 0.25688 0.98184 0.0
H3855 H 0.94718 0.27638 0.99488 0.0
H3856 H 0.95043 0.25008 0.94773 0.0
H3857 H 0.90607 0.24927 0.95146 0.0
H3858 H 0.92065 0.26322 0.9533 0.0
H3859 H 0.91477 0.25249 0.96849 0.0
C3860 C 0.95803 0.28535 0.95933 0.0
C3861 C 0.95687 0.28629 0.9749 0.0
C3862 C 0.95084 0.27423 0.95194 0.0
C3863 C 0.94229 0.26391 0.95995 0.0
C3864 C 0.94105 0.2648 0.97547 0.0
H3865 H 0.88799 0.19052 0.93205 0.0
H3866 H 0.90123 0.20908 0.9464 0.0
C3867 C 0.9483 0.2759 0.9829 0.0
C3868 C 0.93481 0.25215 0.95208 0.0
H3869 H 0.90567 0.23196 0.94092 0.0
C3870 C 0.94064 0.24609 0.94621 0.0
C3871 C 0.92207 0.247 0.95024 0.0
C3872 C 0.91547 0.25332 0.95609 0.0
C3873 C 0.934 0.23489 0.93862 0.0
C3874 C 0.92126 0.22981 0.93655 0.0
C3875 C 0.91544 0.23587 0.94252 0.0
C3876 C 0.91376 0.21831 0.92806 0.0
C3877 C 0.94065 0.2285 0.93317 0.0
C3878 C 0.91643 0.21734 0.913 0.0
C3879 C 0.90892 0.20672 0.9048 0.0
C3880 C 0.89851 0.19697 0.91148 0.0
C3881 C 0.89591 0.19793 0.92659 0.0
C3882 C 0.90347 0.20851 0.9348 0.0
H3883 H 0.9493 0.23157 0.93945 0.0
H3884 H 0.93486 0.21841 0.93429 0.0
H3885 H 0.94303 0.23069 0.92116 0.0
H3886 H 0.92414 0.22491 0.90745 0.0
H3887 H 0.91103 0.2063 0.89311 0.0
H3888 H 0.70232 0.66755 0.94765 0.0
H3889 H 0.72164 0.67421 0.93436 0.0
H3890 H 0.73862 0.67319 0.97577 0.0
H3891 H 0.7193 0.66632 0.98911 0.0
H3892 H 0.74484 0.69586 0.94113 0.0
H3893 H 0.74652 0.65289 0.94573 0.0
H3894 H 0.73258 0.65334 0.94835 0.0
H3895 H 0.74381 0.65851 0.96302 0.0
C3896 C 0.71012 0.66857 0.95388 0.0
C3897 C 0.70929 0.66636 0.96941 0.0
C3898 C 0.72115 0.67245 0.9463 0.0
C3899 C 0.73149 0.67407 0.95408 0.0
C3900 C 0.73069 0.67184 0.96955 0.0
H3901 H 0.80604 0.69608 0.93022 0.0
H3902 H 0.78671 0.68996 0.94311 0.0
C3903 C 0.71968 0.66801 0.97716 0.0
C3904 C 0.74322 0.67845 0.9461 0.0
H3905 H 0.76422 0.67028 0.93627 0.0
C3906 C 0.74908 0.69027 0.93998 0.0
C3907 C 0.74868 0.67112 0.94471 0.0
C3908 C 0.74256 0.65822 0.95068 0.0
C3909 C 0.76045 0.69508 0.93274 0.0
C3910 C 0.76592 0.68774 0.93134 0.0
C3911 C 0.76001 0.67589 0.9374 0.0
C3912 C 0.7778 0.69214 0.92364 0.0
C3913 C 0.76662 0.70806 0.92702 0.0
C3914 C 0.7792 0.69542 0.90843 0.0
C3915 C 0.79025 0.69895 0.90105 0.0
C3916 C 0.80003 0.69911 0.90872 0.0
C3917 C 0.79863 0.69593 0.92399 0.0
C3918 C 0.78761 0.69247 0.93137 0.0
H3919 H 0.76294 0.71344 0.93252 0.0
H3920 H 0.77666 0.71279 0.9289 0.0
H3921 H 0.76498 0.70794 0.91479 0.0
H3922 H 0.77166 0.69496 0.90217 0.0
H3923 H 0.79101 0.70117 0.88923 0.0
H3924 H 0.97035 0.69244 0.97543 0.0
H3925 H 0.95764 0.69933 0.9631 0.0
H3926 H 0.92662 0.6627 0.96535 0.0
H3927 H 0.9393 0.65572 0.97765 0.0
H3928 H 0.92995 0.67274 0.9374 0.0
H3929 H 0.93118 0.70514 0.98038 0.0
H3930 H 0.94606 0.70812 0.97468 0.0
H3931 H 0.93588 0.69411 0.98428 0.0
C3932 C 0.96077 0.6859 0.97355 0.0
C3933 C 0.95581 0.67354 0.97756 0.0
C3934 C 0.95352 0.68985 0.96651 0.0
C3935 C 0.94115 0.68156 0.9635 0.0
C3936 C 0.93614 0.66925 0.96761 0.0
H3937 H 0.88545 0.69739 0.9339 0.0
H3938 H 0.89862 0.69202 0.94803 0.0
C3939 C 0.9434 0.66527 0.97459 0.0
C3940 C 0.93359 0.68557 0.95532 0.0
H3941 H 0.92298 0.70562 0.95654 0.0
C3942 C 0.92838 0.6799 0.94161 0.0
C3943 C 0.93149 0.69484 0.96091 0.0
C3944 C 0.93634 0.70083 0.97594 0.0
C3945 C 0.92121 0.68332 0.93323 0.0
C3946 C 0.91943 0.69285 0.93858 0.0
C3947 C 0.92451 0.69843 0.95239 0.0
C3948 C 0.91192 0.69682 0.93024 0.0
C3949 C 0.91541 0.67651 0.91888 0.0
C3950 C 0.9152 0.70158 0.91568 0.0
C3951 C 0.90763 0.70454 0.90751 0.0
C3952 C 0.89669 0.70287 0.9138 0.0
C3953 C 0.8937 0.69856 0.92862 0.0
C3954 C 0.90125 0.69558 0.93676 0.0
H3955 H 0.91511 0.66758 0.91835 0.0
H3956 H 0.90595 0.67483 0.91772 0.0
H3957 H 0.92086 0.68209 0.90919 0.0
H3958 H 0.92353 0.70282 0.91055 0.0
H3959 H 0.91017 0.70779 0.8961 0.0
H3960 H 0.31784 0.29127 0.95739 0.0
H3961 H 0.31077 0.27164 0.94483 0.0
H3962 H 0.33808 0.26718 0.96817 0.0
H3963 H 0.34502 0.28666 0.98117 0.0
H3964 H 0.33619 0.26348 0.93485 0.0
H3965 H 0.29223 0.23679 0.96578 0.0
H3966 H 0.29562 0.25144 0.95853 0.0
H3967 H 0.30493 0.25071 0.97316 0.0
C3968 C 0.32224 0.28605 0.96005 0.0
C3969 C 0.33197 0.29053 0.97037 0.0
C3970 C 0.31821 0.27486 0.95281 0.0
C3971 C 0.32384 0.26796 0.9557 0.0
C3972 C 0.33362 0.27241 0.96583 0.0
H3973 H 0.30411 0.19417 0.93083 0.0
H3974 H 0.31 0.2134 0.94397 0.0
C3975 C 0.33762 0.28357 0.97317 0.0
C3976 C 0.31966 0.2562 0.94792 0.0
H3977 H 0.29579 0.22685 0.94551 0.0
C3978 C 0.32737 0.25546 0.93716 0.0
C3979 C 0.30818 0.24579 0.95107 0.0
C3980 C 0.29975 0.24611 0.96283 0.0
C3981 C 0.32381 0.24455 0.9293 0.0
C3982 C 0.31225 0.23419 0.9323 0.0
C3983 C 0.3046 0.23488 0.94319 0.0
C3984 C 0.30812 0.22245 0.92447 0.0
C3985 C 0.33245 0.24409 0.91796 0.0
C3986 C 0.30493 0.22118 0.90925 0.0
C3987 C 0.30153 0.21022 0.90174 0.0
C3988 C 0.30134 0.20039 0.90933 0.0
C3989 C 0.30431 0.20164 0.92467 0.0
C3990 C 0.30761 0.21257 0.93219 0.0
H3991 H 0.34175 0.25228 0.91863 0.0
H3992 H 0.33316 0.23577 0.91966 0.0
H3993 H 0.32882 0.24361 0.90651 0.0
H3994 H 0.30522 0.22872 0.90317 0.0
H3995 H 0.29937 0.20953 0.8899 0.0
H3996 H 0.70939 0.05828 0.96753 0.0
H3997 H 0.72856 0.07088 0.95396 0.0
H3998 H 0.74259 0.04829 0.97039 0.0
H3999 H 0.72343 0.03561 0.98398 0.0
H4000 H 0.7596 0.07358 0.97164 0.0
H4001 H 0.73791 0.05953 0.91554 0.0
H4002 H 0.73093 0.06563 0.9277 0.0
H4003 H 0.73031 0.05153 0.93251 0.0
C4004 C 0.71655 0.05599 0.96824 0.0
C4005 C 0.71486 0.0459 0.97674 0.0
C4006 C 0.72748 0.06318 0.96047 0.0
C4007 C 0.73688 0.06035 0.96095 0.0
C4008 C 0.73541 0.05057 0.96984 0.0
H4009 H 0.80871 0.0925 0.91803 0.0
H4010 H 0.79023 0.0795 0.9327 0.0
C4011 C 0.72449 0.04338 0.97765 0.0
C4012 C 0.74817 0.06752 0.952 0.0
H4013 H 0.75857 0.0757 0.91614 0.0
C4014 C 0.75941 0.074 0.9595 0.0
C4015 C 0.74786 0.06798 0.93617 0.0
C4016 C 0.73613 0.06071 0.92747 0.0
C4017 C 0.77034 0.08125 0.95159 0.0
C4018 C 0.77 0.08184 0.93577 0.0
C4019 C 0.75878 0.07524 0.92828 0.0
C4020 C 0.78113 0.08952 0.92678 0.0
C4021 C 0.7821 0.08848 0.96023 0.0
C4022 C 0.78197 0.09923 0.91829 0.0
C4023 C 0.79243 0.10658 0.9098 0.0
C4024 C 0.80225 0.10433 0.90959 0.0
C4025 C 0.80128 0.09444 0.91791 0.0
C4026 C 0.7908 0.08709 0.92642 0.0
H4027 H 0.78041 0.08919 0.97232 0.0
H4028 H 0.78756 0.08386 0.95929 0.0
H4029 H 0.78765 0.09785 0.95558 0.0
H4030 H 0.77455 0.10118 0.91832 0.0
H4031 H 0.79281 0.114 0.90333 0.0
H4032 H 0.65133 0.93328 0.03645 0.0
H4033 H 0.65816 0.9208 0.04962 0.0
H4034 H 0.69412 0.9525 0.05471 0.0
H4035 H 0.68741 0.96495 0.04132 0.0
H4036 H 0.69533 0.93233 0.04739 0.0
H4037 H 0.66285 0.922 0.09452 0.0
H4038 H 0.6555 0.91727 0.0766 0.0
H4039 H 0.66553 0.93328 0.08042 0.0
C4040 C 0.66069 0.93755 0.04035 0.0
C4041 C 0.66882 0.95009 0.03793 0.0
C4042 C 0.66458 0.93044 0.04791 0.0
C4043 C 0.67658 0.93579 0.05342 0.0
C4044 C 0.68481 0.9482 0.05059 0.0
H4045 H 0.7004 0.90658 0.12496 0.0
H4046 H 0.69504 0.91886 0.10893 0.0
C4047 C 0.68097 0.95529 0.0429 0.0
C4048 C 0.68051 0.92856 0.06247 0.0
H4049 H 0.67411 0.91166 0.09447 0.0
C4050 C 0.69071 0.92781 0.0577 0.0
C4051 C 0.6746 0.92286 0.07604 0.0
C4052 C 0.66409 0.92397 0.0823 0.0
C4053 C 0.6951 0.92144 0.06609 0.0
C4054 C 0.68893 0.91541 0.07941 0.0
C4055 C 0.67878 0.91621 0.0842 0.0
C4056 C 0.69293 0.90838 0.08877 0.0
C4057 C 0.70648 0.92151 0.06079 0.0
C4058 C 0.69356 0.89843 0.08277 0.0
C4059 C 0.69674 0.89149 0.09189 0.0
C4060 C 0.69912 0.89424 0.10722 0.0
C4061 C 0.69853 0.90422 0.11319 0.0
C4062 C 0.69549 0.91124 0.10405 0.0
H4063 H 0.71201 0.92932 0.05314 0.0
H4064 H 0.7123 0.92203 0.07039 0.0
H4065 H 0.7038 0.91294 0.0545 0.0
H4066 H 0.69131 0.89585 0.07112 0.0
H4067 H 0.69695 0.88372 0.08705 0.0
H4068 H 0.04075 0.7102 0.06444 0.0
H4069 H 0.05362 0.72957 0.07733 0.0
H4070 H 0.07366 0.74521 0.03643 0.0
H4071 H 0.06096 0.72572 0.02341 0.0
H4072 H 0.08024 0.74261 0.0797 0.0
H4073 H 0.06213 0.76934 0.05115 0.0
H4074 H 0.05394 0.75281 0.05131 0.0
H4075 H 0.06703 0.76102 0.03938 0.0
C4076 C 0.04799 0.71768 0.05819 0.0
C4077 C 0.04986 0.71637 0.04289 0.0
C4078 C 0.05527 0.72877 0.06556 0.0
C4079 C 0.06448 0.73881 0.05779 0.0
C4080 C 0.06645 0.73759 0.04255 0.0
H4081 H 0.1138 0.81314 0.08973 0.0
H4082 H 0.10261 0.79485 0.07406 0.0
C4083 C 0.05919 0.72646 0.03514 0.0
C4084 C 0.07209 0.75048 0.06582 0.0
H4085 H 0.07768 0.77976 0.06908 0.0
C4086 C 0.07973 0.75075 0.07736 0.0
C4087 C 0.07142 0.76107 0.06264 0.0
C4088 C 0.06315 0.76112 0.05052 0.0
C4089 C 0.0867 0.76136 0.08592 0.0
C4090 C 0.08576 0.77185 0.08306 0.0
C4091 C 0.07833 0.77167 0.07128 0.0
C4092 C 0.0922 0.78301 0.09244 0.0
C4093 C 0.09509 0.76125 0.09785 0.0
C4094 C 0.08981 0.78245 0.10788 0.0
C4095 C 0.09616 0.79286 0.11684 0.0
C4096 C 0.10493 0.80406 0.11048 0.0
C4097 C 0.10703 0.80467 0.09492 0.0
C4098 C 0.1007 0.79423 0.08598 0.0
H4099 H 0.09743 0.75401 0.09571 0.0
H4100 H 0.1037 0.77022 0.09853 0.0
H4101 H 0.09043 0.75936 0.1089 0.0
H4102 H 0.08304 0.77395 0.11302 0.0
H4103 H 0.09419 0.79216 0.12874 0.0
H4104 H 0.27932 0.33617 0.02616 0.0
H4105 H 0.25986 0.32909 0.0393 0.0
H4106 H 0.27654 0.32759 0.08074 0.0
H4107 H 0.29592 0.33443 0.06772 0.0
H4108 H 0.24626 0.30678 0.05634 0.0
H4109 H 0.26055 0.34845 0.09081 0.0
H4110 H 0.26884 0.34841 0.07431 0.0
H4111 H 0.27068 0.34237 0.0917 0.0
C4112 C 0.27884 0.3343 0.03806 0.0
C4113 C 0.28921 0.33594 0.0459 0.0
C4114 C 0.26774 0.3303 0.04554 0.0
C4115 C 0.26684 0.32798 0.061 0.0
C4116 C 0.27713 0.32957 0.06885 0.0
H4117 H 0.2116 0.30362 0.12972 0.0
H4118 H 0.23004 0.31005 0.11465 0.0
C4119 C 0.28821 0.33353 0.06139 0.0
C4120 C 0.25508 0.32359 0.06892 0.0
H4121 H 0.2416 0.3309 0.09713 0.0
C4122 C 0.24517 0.31206 0.06518 0.0
C4123 C 0.25376 0.33054 0.08044 0.0
C4124 C 0.26398 0.34318 0.08451 0.0
C4125 C 0.23403 0.30711 0.073 0.0
C4126 C 0.23276 0.314 0.08466 0.0
C4127 C 0.24263 0.32561 0.08823 0.0
C4128 C 0.22135 0.30933 0.0935 0.0
C4129 C 0.22387 0.29441 0.06905 0.0
C4130 C 0.21034 0.30673 0.08657 0.0
C4131 C 0.19979 0.30304 0.09516 0.0
C4132 C 0.20011 0.30201 0.11083 0.0
C4133 C 0.21111 0.30445 0.11768 0.0
C4134 C 0.22163 0.30809 0.1091 0.0
H4135 H 0.22732 0.28923 0.0626 0.0
H4136 H 0.21917 0.28915 0.07929 0.0
H4137 H 0.21703 0.29511 0.06201 0.0
H4138 H 0.20999 0.30788 0.07459 0.0
H4139 H 0.19149 0.3014 0.08959 0.0
H4140 H 0.7259 0.68008 0.36879 0.0
H4141 H 0.73878 0.67302 0.38034 0.0
H4142 H 0.70914 0.64959 0.40992 0.0
H4143 H 0.69603 0.65609 0.39798 0.0
H4144 H 0.74629 0.6746 0.40927 0.0
H4145 H 0.71848 0.62589 0.3924 0.0
H4146 H 0.71616 0.6377 0.38452 0.0
H4147 H 0.70986 0.63128 0.40259 0.0
C4148 C 0.72207 0.67331 0.37762 0.0
C4149 C 0.7099 0.66861 0.38238 0.0
C4150 C 0.72947 0.66935 0.38427 0.0
C4151 C 0.72483 0.66061 0.39578 0.0
C4152 C 0.71281 0.65613 0.40082 0.0
H4153 H 0.75683 0.6315 0.45679 0.0
H4154 H 0.74369 0.63761 0.44385 0.0
C4155 C 0.70538 0.66001 0.39412 0.0
C4156 C 0.73265 0.65633 0.40272 0.0
H4157 H 0.73417 0.63068 0.41044 0.0
C4158 C 0.74369 0.66501 0.40943 0.0
C4159 C 0.72924 0.64381 0.40285 0.0
C4160 C 0.71785 0.63414 0.39508 0.0
C4161 C 0.75128 0.66146 0.41656 0.0
C4162 C 0.74773 0.64894 0.41695 0.0
C4163 C 0.73677 0.64026 0.41017 0.0
C4164 C 0.75537 0.64473 0.42435 0.0
C4165 C 0.76297 0.67105 0.42386 0.0
C4166 C 0.76612 0.64654 0.41747 0.0
C4167 C 0.77356 0.64293 0.42471 0.0
C4168 C 0.7704 0.6375 0.43901 0.0
C4169 C 0.75946 0.63551 0.44572 0.0
C4170 C 0.75198 0.63906 0.43841 0.0
H4171 H 0.7637 0.68018 0.42411 0.0
H4172 H 0.76354 0.6683 0.43552 0.0
H4173 H 0.77092 0.67183 0.41756 0.0
H4174 H 0.76877 0.65081 0.40653 0.0
H4175 H 0.7818 0.6444 0.41911 0.0
H4176 H 0.33296 0.03981 0.4025 0.0
H4177 H 0.33991 0.05964 0.41452 0.0
H4178 H 0.34185 0.07585 0.37138 0.0
H4179 H 0.33456 0.05596 0.35928 0.0
H4180 H 0.362 0.08184 0.40918 0.0
H4181 H 0.3211 0.08589 0.39686 0.0
H4182 H 0.32096 0.07158 0.39532 0.0
H4183 H 0.32797 0.08296 0.38092 0.0
C4184 C 0.3347 0.04755 0.39558 0.0
C4185 C 0.33312 0.04629 0.37994 0.0
C4186 C 0.33876 0.05888 0.40246 0.0
C4187 C 0.34125 0.06915 0.39385 0.0
C4188 C 0.3398 0.06798 0.37824 0.0
H4189 H 0.36419 0.14409 0.42069 0.0
H4190 H 0.35908 0.12569 0.40609 0.0
C4191 C 0.33574 0.05664 0.37134 0.0
C4192 C 0.34558 0.08111 0.40127 0.0
H4193 H 0.33774 0.10279 0.40866 0.0
C4194 C 0.35672 0.08644 0.40907 0.0
C4195 C 0.33867 0.08709 0.40102 0.0
C4196 C 0.32646 0.08158 0.39319 0.0
C4197 C 0.36114 0.09761 0.41666 0.0
C4198 C 0.35413 0.10347 0.41664 0.0
C4199 C 0.3431 0.09826 0.40862 0.0
C4200 C 0.35781 0.11477 0.42538 0.0
C4201 C 0.37334 0.10309 0.42452 0.0
C4202 C 0.35874 0.11469 0.44105 0.0
C4203 C 0.36171 0.12517 0.44939 0.0
C4204 C 0.36372 0.13593 0.44223 0.0
C4205 C 0.36284 0.136 0.42651 0.0
C4206 C 0.35986 0.12549 0.41817 0.0
H4207 H 0.37904 0.09941 0.41998 0.0
H4208 H 0.3785 0.11321 0.42344 0.0
H4209 H 0.37179 0.10078 0.43662 0.0
H4210 H 0.35698 0.10644 0.44685 0.0
H4211 H 0.36242 0.12486 0.46147 0.0
H4212 H 0.96125 0.28034 0.39388 0.0
H4213 H 0.94106 0.26729 0.4051 0.0
H4214 H 0.92417 0.2753 0.36829 0.0
H4215 H 0.94435 0.28846 0.35704 0.0
H4216 H 0.9171 0.2785 0.39864 0.0
H4217 H 0.91322 0.23319 0.38936 0.0
H4218 H 0.92742 0.24476 0.39739 0.0
H4219 H 0.92348 0.24662 0.37863 0.0
C4220 C 0.95323 0.2793 0.38817 0.0
C4221 C 0.95436 0.28539 0.37458 0.0
C4222 C 0.94172 0.27178 0.39452 0.0
C4223 C 0.93116 0.27027 0.38742 0.0
C4224 C 0.93223 0.27631 0.37385 0.0
H4225 H 0.85634 0.21864 0.41579 0.0
H4226 H 0.87458 0.23127 0.40049 0.0
C4227 C 0.94374 0.28375 0.36742 0.0
C4228 C 0.91906 0.26279 0.39454 0.0
H4229 H 0.89861 0.23371 0.40573 0.0
C4230 C 0.91299 0.2687 0.4001 0.0
C4231 C 0.91372 0.25 0.39626 0.0
C4232 C 0.91972 0.24321 0.39 0.0
C4233 C 0.90185 0.26217 0.40782 0.0
C4234 C 0.89675 0.24946 0.41005 0.0
C4235 C 0.90261 0.24348 0.40405 0.0
C4236 C 0.88557 0.24228 0.4191 0.0
C4237 C 0.89564 0.2689 0.41363 0.0
C4238 C 0.88578 0.24432 0.43459 0.0
C4239 C 0.87543 0.23712 0.44333 0.0
C4240 C 0.86469 0.22778 0.43671 0.0
C4241 C 0.86445 0.22586 0.42115 0.0
C4242 C 0.87485 0.23301 0.41242 0.0
H4243 H 0.89921 0.27794 0.40812 0.0
H4244 H 0.8856 0.26341 0.41183 0.0
H4245 H 0.89729 0.27045 0.42586 0.0
H4246 H 0.89403 0.25135 0.43995 0.0
H4247 H 0.87584 0.23885 0.45529 0.0
H4248 H 0.02779 0.39855 0.31815 0.0
H4249 H 0.02572 0.41455 0.30537 0.0
H4250 H 0.99547 0.38701 0.2797 0.0
H4251 H 0.99728 0.37097 0.29264 0.0
H4252 H 0.02715 0.41916 0.27401 0.0
H4253 H 0.98214 0.40813 0.29781 0.0
H4254 H 0.99152 0.40261 0.30594 0.0
H4255 H 0.98242 0.39528 0.28961 0.0
C4256 C 0.02061 0.39591 0.30991 0.0
C4257 C 0.01267 0.38351 0.30642 0.0
C4258 C 0.01949 0.40505 0.30257 0.0
C4259 C 0.01035 0.40193 0.29175 0.0
C4260 C 0.00246 0.38958 0.28819 0.0
H4261 H 0.00329 0.44455 0.22151 0.0
H4262 H 0.00662 0.43042 0.23671 0.0
C4263 C 0.00359 0.38044 0.29548 0.0
C4264 C 0.00923 0.41159 0.28387 0.0
H4265 H 0.98945 0.42196 0.2772 0.0
C4266 C 0.01895 0.41984 0.27477 0.0
C4267 C 0.99857 0.41252 0.28506 0.0
C4268 C 0.9881 0.40425 0.29524 0.0
C4269 C 0.01815 0.42881 0.26644 0.0
C4270 C 0.00728 0.4294 0.26714 0.0
C4271 C 0.99771 0.42139 0.27659 0.0
C4272 C 0.00558 0.43816 0.25796 0.0
C4273 C 0.02893 0.4376 0.25701 0.0
C4274 C 0.00368 0.44703 0.2649 0.0
C4275 C 0.0018 0.45513 0.25625 0.0
C4276 C 0.0017 0.45443 0.2405 0.0
C4277 C 0.00354 0.44547 0.2336 0.0
C4278 C 0.00543 0.43739 0.24226 0.0
H4279 H 0.03753 0.43801 0.26067 0.0
H4280 H 0.02725 0.43451 0.24515 0.0
H4281 H 0.03023 0.44696 0.25752 0.0
H4282 H 0.00373 0.44773 0.27702 0.0
H4283 H 0.00055 0.46202 0.2619 0.0
H4284 H 0.61052 0.61104 0.32694 0.0
H4285 H 0.59776 0.5922 0.31272 0.0
H4286 H 0.60732 0.61296 0.27166 0.0
H4287 H 0.62021 0.63181 0.28575 0.0
H4288 H 0.57748 0.58691 0.29172 0.0
H4289 H 0.61684 0.58576 0.26543 0.0
H4290 H 0.61842 0.59459 0.2821 0.0
H4291 H 0.61692 0.59999 0.26408 0.0
C4292 C 0.60989 0.61158 0.31488 0.0
C4293 C 0.61639 0.62288 0.30744 0.0
C4294 C 0.60258 0.60084 0.3068 0.0
C4295 C 0.60175 0.60122 0.29116 0.0
C4296 C 0.60797 0.6125 0.28373 0.0
H4297 H 0.5676 0.54699 0.22124 0.0
H4298 H 0.57949 0.56557 0.23606 0.0
C4299 C 0.61523 0.62325 0.2918 0.0
C4300 C 0.59449 0.58978 0.28258 0.0
H4301 H 0.59707 0.57091 0.25729 0.0
C4302 C 0.58173 0.58336 0.28422 0.0
C4303 C 0.60012 0.58525 0.27282 0.0
C4304 C 0.61384 0.59167 0.27102 0.0
C4305 C 0.57438 0.57258 0.27608 0.0
C4306 C 0.58001 0.568 0.26635 0.0
C4307 C 0.59279 0.57443 0.26477 0.0
C4308 C 0.5728 0.55666 0.25749 0.0
C4309 C 0.56066 0.5664 0.27768 0.0
C4310 C 0.56526 0.54544 0.26465 0.0
C4311 C 0.55833 0.53481 0.2562 0.0
C4312 C 0.55893 0.5352 0.24043 0.0
C4313 C 0.56675 0.54641 0.23334 0.0
C4314 C 0.57362 0.55703 0.2418 0.0
H4315 H 0.55777 0.57274 0.28227 0.0
H4316 H 0.55605 0.56283 0.26673 0.0
H4317 H 0.55746 0.55858 0.28553 0.0
H4318 H 0.5647 0.5449 0.27677 0.0
H4319 H 0.55235 0.52636 0.26202 0.0
H4320 H 0.3578 0.97616 0.28695 0.0
H4321 H 0.37562 0.97817 0.27346 0.0
H4322 H 0.39907 -0.0002 0.30976 0.0
H4323 H 0.38127 0.99769 0.32343 0.0
H4324 H 0.39703 0.00117 0.26504 0.0
H4325 H 0.40791 0.97252 0.30192 0.0
H4326 H 0.39311 0.97144 0.30191 0.0
H4327 H 0.40581 0.98397 0.31124 0.0
C4328 C 0.36673 0.9812 0.29215 0.0
C4329 C 0.36815 0.98674 0.30626 0.0
C4330 C 0.37689 0.9824 0.2844 0.0
C4331 C 0.3886 0.98904 0.2907 0.0
C4332 C 0.39006 0.99452 0.30481 0.0
H4333 H 0.45938 0.01853 0.2474 0.0
H4334 H 0.44141 0.01559 0.26136 0.0
C4335 C 0.37992 0.99339 0.31254 0.0
C4336 C 0.39936 0.99061 0.28224 0.0
H4337 H 0.42217 0.98364 0.28267 0.0
C4338 C 0.40253 0.99733 0.26886 0.0
C4339 C 0.40642 0.98549 0.28724 0.0
C4340 C 0.40313 0.97786 0.3013 0.0
C4341 C 0.41271 0.99923 0.26041 0.0
C4342 C 0.41991 0.99433 0.26557 0.0
C4343 C 0.41665 0.98745 0.27884 0.0
C4344 C 0.43079 0.99611 0.2572 0.0
C4345 C 0.41562 0.00633 0.24595 0.0
C4346 C 0.43078 0.98609 0.25044 0.0
C4347 C 0.44098 0.98774 0.24236 0.0
C4348 C 0.45142 0.99944 0.24102 0.0
C4349 C 0.45142 0.00944 0.24799 0.0
C4350 C 0.44119 0.00778 0.25601 0.0
H4351 H 0.40786 0.00737 0.24206 0.0
H4352 H 0.42366 0.0156 0.24768 0.0
H4353 H 0.41799 0.00175 0.23699 0.0
H4354 H 0.42281 0.97701 0.25125 0.0
H4355 H 0.4406 0.97987 0.23696 0.0
H4356 H 0.60163 0.97239 0.31916 0.0
H4357 H 0.58586 0.97423 0.30545 0.0
H4358 H 0.61383 0.00408 0.27973 0.0
H4359 H 0.62962 0.00212 0.29307 0.0
H4360 H 0.5827 0.99495 0.30283 0.0
H4361 H 0.59085 0.9797 0.24773 0.0
H4362 H 0.59653 0.97719 0.26512 0.0
H4363 H 0.60431 0.99196 0.25629 0.0
C4364 C 0.60441 0.97928 0.31051 0.0
C4365 C 0.61687 0.98708 0.30716 0.0
C4366 C 0.5954 0.98037 0.30276 0.0
C4367 C 0.5987 0.98918 0.29146 0.0
C4368 C 0.61111 0.9971 0.28826 0.0
H4369 H 0.55617 0.01717 0.24947 0.0
H4370 H 0.57078 0.01415 0.26412 0.0
C4371 C 0.62012 0.99605 0.29601 0.0
C4372 C 0.58917 0.99016 0.28304 0.0
H4373 H 0.57774 0.9881 0.24784 0.0
C4374 C 0.58156 0.9934 0.29082 0.0
C4375 C 0.58763 0.98797 0.26742 0.0
C4376 C 0.59518 0.9839 0.25863 0.0
C4377 C 0.57261 0.99482 0.2833 0.0
C4378 C 0.57138 0.99307 0.26759 0.0
C4379 C 0.5788 0.98954 0.25987 0.0
C4380 C 0.56246 0.99487 0.2589 0.0
C4381 C 0.56448 0.99805 0.29223 0.0
C4382 C 0.55313 0.98509 0.25087 0.0
C4383 C 0.54485 0.98681 0.24238 0.0
C4384 C 0.54581 0.99838 0.24169 0.0
C4385 C 0.55524 0.00818 0.24969 0.0
C4386 C 0.5635 0.00644 0.2582 0.0
H4387 H 0.56447 0.99601 0.30435 0.0
H4388 H 0.56788 0.00799 0.29108 0.0
H4389 H 0.55493 0.99298 0.28803 0.0
H4390 H 0.55225 0.97612 0.25118 0.0
H4391 H 0.5378 0.97913 0.23618 0.0
H4392 H 0.00222 0.63173 0.28853 0.0
H4393 H -0.00018 0.61389 0.27493 0.0
H4394 H 0.01786 0.60634 0.31082 0.0
H4395 H 0.01983 0.62391 0.32485 0.0
H4396 H 0.01751 0.60936 0.26472 0.0
H4397 H 0.98689 0.57338 0.30492 0.0
H4398 H 0.98991 0.58892 0.30598 0.0
H4399 H 0.00092 0.58514 0.313 0.0
C4400 C 0.00549 0.62617 0.29368 0.0
C4401 C 0.01112 0.62919 0.30785 0.0
C4402 C 0.00421 0.61603 0.28582 0.0
C4403 C 0.00851 0.6087 0.29195 0.0
C4404 C 0.01426 0.61175 0.30601 0.0
H4405 H 0.01957 0.55653 0.23996 0.0
H4406 H 0.02242 0.57397 0.25506 0.0
C4407 C 0.01551 0.62187 0.31393 0.0
C4408 C 0.0072 0.59806 0.28338 0.0
H4409 H 0.99441 0.56701 0.2845 0.0
C4410 C 0.01246 0.6001 0.26903 0.0
C4411 C 0.00049 0.58598 0.28898 0.0
C4412 C 0.99412 0.58316 0.304 0.0
C4413 C 0.01121 0.59038 0.26012 0.0
C4414 C 0.00474 0.57832 0.26586 0.0
C4415 C -0.00055 0.57628 0.28019 0.0
C4416 C 0.00308 0.56767 0.257 0.0
C4417 C 0.01655 0.59308 0.2445 0.0
C4418 C 0.99125 0.55819 0.25346 0.0
C4419 C 0.9896 0.54819 0.24493 0.0
C4420 C -0.00025 0.54749 0.2398 0.0
C4421 C 0.01159 0.55693 0.24354 0.0
C4422 C 0.01322 0.56689 0.25214 0.0
H4423 H 0.0183 0.60212 0.24043 0.0
H4424 H 0.0254 0.59324 0.24457 0.0
H4425 H 0.01035 0.58593 0.23645 0.0
H4426 H 0.9833 0.55861 0.25713 0.0
H4427 H 0.98038 0.5411 0.24214 0.0
H4428 H 0.3882 0.37205 0.3169 0.0
H4429 H 0.40768 0.38539 0.30426 0.0
H4430 H 0.39305 0.40714 0.28671 0.0
H4431 H 0.37358 0.39393 0.29946 0.0
H4432 H 0.41019 0.38988 0.272 0.0
H4433 H 0.42671 0.43232 0.30578 0.0
H4434 H 0.41529 0.41743 0.3126 0.0
H4435 H 0.41117 0.42537 0.29929 0.0
C4436 C 0.3892 0.37979 0.31056 0.0
C4437 C 0.37938 0.38197 0.3092 0.0
C4438 C 0.4003 0.38735 0.30329 0.0
C4439 C 0.40181 0.39729 0.2947 0.0
C4440 C 0.39209 0.39959 0.29346 0.0
H4441 H 0.45782 0.45235 0.23851 0.0
H4442 H 0.4397 0.43938 0.25358 0.0
C4443 C 0.38096 0.39199 0.30064 0.0
C4444 C 0.41332 0.40488 0.28638 0.0
H4445 H 0.4377 0.43387 0.28353 0.0
C4446 C 0.41628 0.39948 0.27456 0.0
C4447 C 0.42115 0.41739 0.28975 0.0
C4448 C 0.41852 0.4235 0.30262 0.0
C4449 C 0.42673 0.40636 0.26572 0.0
C4450 C 0.43458 0.41891 0.26906 0.0
C4451 C 0.43167 0.42426 0.281 0.0
C4452 C 0.44566 0.42672 0.26002 0.0
C4453 C 0.42905 0.40024 0.25258 0.0
C4454 C 0.4551 0.42399 0.25879 0.0
C4455 C 0.4654 0.43129 0.24999 0.0
C4456 C 0.46652 0.44154 0.24239 0.0
C4457 C 0.45715 0.44439 0.24394 0.0
C4458 C 0.44684 0.43705 0.25267 0.0
H4459 H 0.42064 0.39167 0.24923 0.0
H4460 H 0.43251 0.40644 0.24274 0.0
H4461 H 0.43606 0.39784 0.25576 0.0
H4462 H 0.45449 0.4162 0.26462 0.0
H4463 H 0.47241 0.42879 0.24898 0.0
H4464 H 0.3309 0.29342 0.40229 0.0
H4465 H 0.33705 0.28018 0.41478 0.0
H4466 H 0.3406 0.26646 0.37186 0.0
H4467 H 0.33441 0.27968 0.35923 0.0
H4468 H 0.32603 0.2547 0.41361 0.0
H4469 H 0.37371 0.27742 0.39186 0.0
H4470 H 0.36429 0.28438 0.39071 0.0
H4471 H 0.36204 0.2725 0.37777 0.0
C4472 C 0.33289 0.28752 0.3955 0.0
C4473 C 0.33218 0.2876 0.37976 0.0
C4474 C 0.33646 0.28001 0.40265 0.0
C4475 C 0.33944 0.27249 0.39423 0.0
C4476 C 0.33859 0.27241 0.37854 0.0
H4477 H 0.36261 0.22118 0.42195 0.0
H4478 H 0.35636 0.23354 0.40743 0.0
C4479 C 0.33505 0.27994 0.37135 0.0
C4480 C 0.34325 0.2646 0.40198 0.0
H4481 H 0.36716 0.25954 0.40637 0.0
C4482 C 0.33502 0.25575 0.41204 0.0
C4483 C 0.35497 0.26599 0.39985 0.0
C4484 C 0.36432 0.27564 0.38957 0.0
C4485 C 0.33819 0.24822 0.42003 0.0
C4486 C 0.34997 0.24973 0.41807 0.0
C4487 C 0.35814 0.25844 0.40784 0.0
C4488 C 0.35407 0.24252 0.42681 0.0
C4489 C 0.32887 0.23863 0.43041 0.0
C4490 C 0.35508 0.24369 0.44246 0.0
C4491 C 0.35871 0.23672 0.45077 0.0
C4492 C 0.36144 0.22847 0.44356 0.0
C4493 C 0.36067 0.22752 0.42782 0.0
C4494 C 0.35705 0.23452 0.41952 0.0
H4495 H 0.31943 0.23654 0.42777 0.0
H4496 H 0.32919 0.23002 0.42975 0.0
H4497 H 0.33094 0.24204 0.44212 0.0
H4498 H 0.35307 0.25002 0.44825 0.0
H4499 H 0.35944 0.23784 0.46284 0.0
H4500 H 0.72852 0.04753 0.36558 0.0
H4501 H 0.74146 0.06737 0.37776 0.0
H4502 H 0.71101 0.06173 0.40537 0.0
H4503 H 0.69798 0.042 0.39312 0.0
H4504 H 0.72492 0.08575 0.39115 0.0
H4505 H 0.75377 0.07141 0.42217 0.0
H4506 H 0.7521 0.06833 0.40235 0.0
H4507 H 0.73904 0.06053 0.41443 0.0
C4508 C 0.72457 0.05056 0.37418 0.0
C4509 C 0.71226 0.04318 0.37847 0.0
C4510 C 0.73198 0.06184 0.38118 0.0
C4511 C 0.72719 0.06592 0.39254 0.0
C4512 C 0.71487 0.05868 0.39667 0.0
H4513 H 0.76273 0.12208 0.45955 0.0
H4514 H 0.75003 0.1033 0.44537 0.0
C4515 C 0.70748 0.04739 0.38974 0.0
C4516 C 0.73501 0.07771 0.40022 0.0
H4517 H 0.75904 0.0921 0.42441 0.0
C4518 C 0.73241 0.08718 0.39839 0.0
C4519 C 0.74468 0.07944 0.40974 0.0
C4520 C 0.74756 0.06939 0.41244 0.0
C4521 C 0.73929 0.09843 0.40582 0.0
C4522 C 0.74902 0.10019 0.41525 0.0
C4523 C 0.75159 0.0907 0.4171 0.0
C4524 C 0.75645 0.11171 0.42364 0.0
C4525 C 0.73596 0.10824 0.40383 0.0
C4526 C 0.76426 0.12264 0.41608 0.0
C4527 C 0.77161 0.13338 0.42416 0.0
C4528 C 0.7713 0.13335 0.43994 0.0
C4529 C 0.76333 0.12238 0.44743 0.0
C4530 C 0.75603 0.11166 0.43935 0.0
H4531 H 0.72684 0.10462 0.39853 0.0
H4532 H 0.73596 0.11242 0.4148 0.0
H4533 H 0.74288 0.11557 0.39654 0.0
H4534 H 0.76483 0.1228 0.40396 0.0
H4535 H 0.77777 0.14161 0.41805 0.0
H4536 H 0.95592 0.6826 0.3812 0.0
H4537 H 0.93617 0.67474 0.39382 0.0
H4538 H 0.93139 0.63848 0.39396 0.0
H4539 H 0.95113 0.64626 0.38132 0.0
H4540 H 0.91053 0.63872 0.38529 0.0
H4541 H 0.92942 0.665 0.43792 0.0
H4542 H 0.934 0.67441 0.42144 0.0
H4543 H 0.9389 0.66342 0.42395 0.0
C4544 C 0.9507 0.67297 0.38401 0.0
C4545 C 0.95511 0.66506 0.38034 0.0
C4546 C 0.93943 0.6685 0.39123 0.0
C4547 C 0.93243 0.65608 0.39505 0.0
C4548 C 0.93668 0.64811 0.39114 0.0
H4549 H 0.87145 0.62812 0.45793 0.0
H4550 H 0.89033 0.63277 0.44486 0.0
C4551 C 0.94793 0.65256 0.38387 0.0
C4552 C 0.92063 0.65138 0.40304 0.0
H4553 H 0.90782 0.65512 0.43486 0.0
C4554 C 0.90993 0.64224 0.39617 0.0
C4555 C 0.91991 0.65584 0.41734 0.0
C4556 C 0.93118 0.66512 0.42568 0.0
C4557 C 0.89845 0.63768 0.40305 0.0
C4558 C 0.89767 0.64257 0.41703 0.0
C4559 C 0.90842 0.65146 0.42408 0.0
C4560 C 0.88581 0.63882 0.42444 0.0
C4561 C 0.88729 0.62761 0.39534 0.0
C4562 C 0.87699 0.64064 0.41726 0.0
C4563 C 0.86614 0.63787 0.42464 0.0
C4564 C 0.86396 0.63337 0.43941 0.0
C4565 C 0.87276 0.63142 0.4465 0.0
C4566 C 0.88359 0.63415 0.43908 0.0
H4567 H 0.88977 0.62245 0.38735 0.0
H4568 H 0.88063 0.6211 0.40361 0.0
H4569 H 0.88275 0.6317 0.38889 0.0
H4570 H 0.87861 0.64446 0.40607 0.0
H4571 H 0.85951 0.63937 0.4188 0.0
H4572 H 0.39754 0.02736 0.70035 0.0
H4573 H 0.41328 0.02492 0.71322 0.0
H4574 H 0.3859 0.99851 0.74308 0.0
H4575 H 0.37009 0.00072 0.73013 0.0
H4576 H 0.41937 0.02861 0.74472 0.0
H4577 H 0.4038 0.98111 0.72573 0.0
H4578 H 0.39916 0.99085 0.71658 0.0
H4579 H 0.39211 0.98342 0.73392 0.0
C4580 C 0.39486 0.02095 0.70957 0.0
C4581 C 0.38257 0.01419 0.71421 0.0
C4582 C 0.40386 0.01962 0.71695 0.0
C4583 C 0.4007 0.01144 0.72897 0.0
C4584 C 0.38848 0.00475 0.7337 0.0
H4585 H 0.44543 0.00519 0.79736 0.0
H4586 H 0.43087 0.00844 0.783 0.0
C4587 C 0.37949 0.00611 0.72638 0.0
C4588 C 0.41022 0.01001 0.73674 0.0
H4589 H 0.41916 0.98926 0.74454 0.0
C4590 C 0.41938 0.02004 0.74464 0.0
C4591 C 0.41024 0.99884 0.73645 0.0
C4592 C 0.40087 0.98795 0.72762 0.0
C4593 C 0.42842 0.01909 0.7526 0.0
C4594 C 0.4282 0.0078 0.75271 0.0
C4595 C 0.41922 0.99787 0.74451 0.0
C4596 C 0.43719 0.00609 0.76135 0.0
C4597 C 0.43819 0.03018 0.76076 0.0
C4598 C 0.44542 0.00352 0.75392 0.0
C4599 C 0.4538 0.00172 0.76207 0.0
C4600 C 0.45402 0.00236 0.77784 0.0
C4601 C 0.44567 0.00485 0.78524 0.0
C4602 C 0.43732 0.00669 0.77706 0.0
H4603 H 0.43873 0.03876 0.75678 0.0
H4604 H 0.43604 0.02923 0.77292 0.0
H4605 H 0.44729 0.03097 0.7593 0.0
H4606 H 0.44541 0.003 0.74178 0.0
H4607 H 0.4602 -3e-05 0.75602 0.0
H4608 H 0.99227 0.37893 0.69321 0.0
H4609 H 0.99473 0.39702 0.70643 0.0
H4610 H 0.98214 0.3762 0.74739 0.0
H4611 H 0.97976 0.3581 0.73427 0.0
H4612 H 0.97822 0.4011 0.72143 0.0
H4613 H 0.01448 0.40549 0.76012 0.0
H4614 H 0.00973 0.39556 0.74393 0.0
H4615 H 0.00081 0.39077 0.76089 0.0
C4616 C 0.98995 0.37819 0.70501 0.0
C4617 C 0.9859 0.36713 0.71275 0.0
C4618 C 0.9914 0.38854 0.71255 0.0
C4619 C 0.98884 0.38801 0.72794 0.0
C4620 C 0.98448 0.37689 0.7356 0.0
H4621 H 0.9781 0.44015 0.77939 0.0
H4622 H 0.97561 0.42253 0.76511 0.0
C4623 C 0.9831 0.36656 0.72809 0.0
C4624 C 0.99067 0.39909 0.73595 0.0
H4625 H 0.00587 0.41804 0.7653 0.0
C4626 C 0.9843 0.40484 0.73098 0.0
C4627 C 0.99877 0.40406 0.74826 0.0
C4628 C 0.00644 0.39874 0.75354 0.0
C4629 C 0.98562 0.41533 0.73818 0.0
C4630 C 0.99333 0.42 0.75087 0.0
C4631 C -0.00013 0.41437 0.75566 0.0
C4632 C 0.99479 0.43074 0.75936 0.0
C4633 C 0.97891 0.4214 0.73197 0.0
C4634 C 0.00644 0.44108 0.7612 0.0
C4635 C 0.00793 0.45108 0.76959 0.0
C4636 C 0.99779 0.45093 0.77635 0.0
C4637 C 0.98612 0.44054 0.77447 0.0
C4638 C 0.98465 0.43052 0.76613 0.0
H4639 H 0.97637 0.41893 0.72002 0.0
H4640 H 0.97035 0.41832 0.73845 0.0
H4641 H 0.98454 0.43152 0.73289 0.0
H4642 H 0.0144 0.44139 0.75616 0.0
H4643 H 0.01706 0.45884 0.77101 0.0
H4644 H 0.61968 0.63613 0.71812 0.0
H4645 H 0.60062 0.62293 0.73152 0.0
H4646 H 0.60675 0.59252 0.72673 0.0
H4647 H 0.62567 0.60552 0.71282 0.0
H4648 H 0.57983 0.59688 0.71905 0.0
H4649 H 0.60124 0.59841 0.77418 0.0
H4650 H 0.60849 0.61074 0.76076 0.0
H4651 H 0.60805 0.59656 0.75731 0.0
C4652 C 0.61693 0.6266 0.71971 0.0
C4653 C 0.62421 0.62188 0.71432 0.0
C4654 C 0.60608 0.61911 0.72746 0.0
C4655 C 0.60237 0.60683 0.73011 0.0
C4656 C 0.60956 0.60204 0.72484 0.0
H4657 H 0.54347 0.54967 0.7816 0.0
H4658 H 0.56224 0.56274 0.76768 0.0
C4659 C 0.62039 0.6095 0.71698 0.0
C4660 C 0.5909 0.59897 0.73832 0.0
H4661 H 0.5798 0.5862 0.77256 0.0
C4662 C 0.57976 0.59453 0.73075 0.0
C4663 C 0.59097 0.59594 0.75352 0.0
C4664 C 0.60279 0.60066 0.76204 0.0
C4665 C 0.56859 0.58693 0.73799 0.0
C4666 C 0.56861 0.58401 0.75331 0.0
C4667 C 0.5798 0.58849 0.76085 0.0
C4668 C 0.55714 0.57614 0.76167 0.0
C4669 C 0.55691 0.58186 0.72905 0.0
C4670 C 0.54809 0.57942 0.76309 0.0
C4671 C 0.53724 0.57185 0.77085 0.0
C4672 C 0.5353 0.56094 0.7775 0.0
C4673 C 0.54454 0.55786 0.77635 0.0
C4674 C 0.55532 0.56538 0.7685 0.0
H4675 H 0.55866 0.5821 0.71681 0.0
H4676 H 0.55032 0.57227 0.73233 0.0
H4677 H 0.55259 0.58748 0.73121 0.0
H4678 H 0.54942 0.58783 0.7582 0.0
H4679 H 0.53032 0.57448 0.77145 0.0
H4680 H 0.66957 0.70536 0.61455 0.0
H4681 H 0.66248 0.71788 0.60195 0.0
H4682 H 0.65796 0.73096 0.64483 0.0
H4683 H 0.66514 0.71857 0.65751 0.0
H4684 H 0.63849 0.71652 0.60824 0.0
H4685 H 0.6795 0.76228 0.61823 0.0
H4686 H 0.68009 0.7483 0.61875 0.0
H4687 H 0.67353 0.75222 0.63414 0.0
C4688 C 0.66722 0.71103 0.62127 0.0
C4689 C 0.66793 0.71102 0.63701 0.0
C4690 C 0.6631 0.71809 0.61408 0.0
C4691 C 0.65979 0.72536 0.62249 0.0
C4692 C 0.66059 0.72547 0.63817 0.0
H4693 H 0.63617 0.77689 0.60049 0.0
H4694 H 0.64228 0.76364 0.6131 0.0
C4695 C 0.66461 0.71834 0.64538 0.0
C4696 C 0.65519 0.73262 0.6149 0.0
H4697 H 0.66232 0.7619 0.60734 0.0
C4698 C 0.64368 0.72644 0.60797 0.0
C4699 C 0.66199 0.74553 0.6147 0.0
C4700 C 0.67451 0.75254 0.62175 0.0
C4701 C 0.63868 0.73289 0.60102 0.0
C4702 C 0.64554 0.74583 0.6007 0.0
C4703 C 0.65707 0.75198 0.60762 0.0
C4704 C 0.64101 0.75323 0.59319 0.0
C4705 C 0.62599 0.72578 0.59445 0.0
C4706 C 0.63821 0.75174 0.57782 0.0
C4707 C 0.63463 0.75925 0.57063 0.0
C4708 C 0.63398 0.7685 0.57863 0.0
C4709 C 0.63667 0.76989 0.59404 0.0
C4710 C 0.64015 0.76232 0.60124 0.0
H4711 H 0.62069 0.7165 0.59945 0.0
H4712 H 0.62083 0.73065 0.5962 0.0
H4713 H 0.62671 0.72466 0.58221 0.0
H4714 H 0.63911 0.745 0.5713 0.0
H4715 H 0.6328 0.7581 0.55869 0.0
H4716 H 0.27828 0.96132 0.6296 0.0
H4717 H 0.26521 0.94082 0.61935 0.0
H4718 H 0.28077 0.92624 0.65028 0.0
H4719 H 0.29374 0.94669 0.66083 0.0
H4720 H 0.28053 0.91933 0.61991 0.0
H4721 H 0.23508 0.91113 0.63839 0.0
H4722 H 0.24425 0.92549 0.62901 0.0
H4723 H 0.24922 0.92275 0.6467 0.0
C4724 C 0.27876 0.95373 0.63444 0.0
C4725 C 0.28705 0.95565 0.64605 0.0
C4726 C 0.2713 0.94202 0.62855 0.0
C4727 C 0.27194 0.93202 0.63418 0.0
C4728 C 0.28013 0.93386 0.64582 0.0
H4729 H 0.22088 0.85673 0.60597 0.0
H4730 H 0.23403 0.87467 0.62146 0.0
C4731 C 0.28757 0.94556 0.65176 0.0
C4732 C 0.26453 0.91977 0.62734 0.0
H4733 H 0.23515 0.89771 0.61952 0.0
C4734 C 0.2706 0.91453 0.61995 0.0
C4735 C 0.2516 0.91348 0.62758 0.0
C4736 C 0.24463 0.91842 0.63596 0.0
C4737 C 0.26407 0.90337 0.61226 0.0
C4738 C 0.25115 0.8974 0.61186 0.0
C4739 C 0.24507 0.90238 0.61977 0.0
C4740 C 0.24381 0.88632 0.60266 0.0
C4741 C 0.27102 0.8981 0.60453 0.0
C4742 C 0.24499 0.88697 0.58699 0.0
C4743 C 0.23753 0.87678 0.57815 0.0
C4744 C 0.22871 0.86575 0.58482 0.0
C4745 C 0.22768 0.86506 0.60054 0.0
C4746 C 0.23512 0.8753 0.60938 0.0
H4747 H 0.28038 0.9019 0.60922 0.0
H4748 H 0.26611 0.88798 0.60556 0.0
H4749 H 0.27191 0.90044 0.59243 0.0
H4750 H 0.25152 0.89544 0.58158 0.0
H4751 H 0.23858 0.87755 0.56608 0.0
H4752 H 0.05673 0.33964 0.6593 0.0
H4753 H 0.07641 0.34662 0.64667 0.0
H4754 H 0.05746 0.32827 0.60615 0.0
H4755 H 0.03776 0.3213 0.61865 0.0
H4756 H 0.08412 0.33019 0.62962 0.0
H4757 H 0.0822 0.36623 0.59602 0.0
H4758 H 0.0738 0.3604 0.61334 0.0
H4759 H 0.06859 0.35136 0.59656 0.0
C4760 C 0.05677 0.3371 0.6477 0.0
C4761 C 0.04572 0.32995 0.63994 0.0
C4762 C 0.06799 0.34105 0.64055 0.0
C4763 C 0.06832 0.33802 0.62549 0.0
C4764 C 0.05734 0.33074 0.61777 0.0
H4765 H 0.12281 0.35513 0.5575 0.0
H4766 H 0.10437 0.34916 0.57226 0.0
C4767 C 0.04612 0.32669 0.62495 0.0
C4768 C 0.08015 0.34257 0.61773 0.0
H4769 H 0.09835 0.36251 0.59069 0.0
C4770 C 0.08731 0.33731 0.62117 0.0
C4771 C 0.08419 0.35182 0.60673 0.0
C4772 C 0.07688 0.35788 0.60294 0.0
C4773 C 0.09832 0.34084 0.61353 0.0
C4774 C 0.10236 0.35008 0.60245 0.0
C4775 C 0.09524 0.35545 0.5992 0.0
C4776 C 0.11369 0.35398 0.59365 0.0
C4777 C 0.10526 0.33432 0.61702 0.0
C4778 C 0.1251 0.35888 0.60076 0.0
C4779 C 0.13566 0.36215 0.59236 0.0
C4780 C 0.13501 0.36069 0.57668 0.0
C4781 C 0.12361 0.35613 0.56958 0.0
C4782 C 0.11306 0.35281 0.57799 0.0
H4783 H 0.09941 0.32548 0.62282 0.0
H4784 H 0.10897 0.33253 0.60663 0.0
H4785 H 0.11305 0.34015 0.62451 0.0
H4786 H 0.12583 0.36012 0.61281 0.0
H4787 H 0.14427 0.36557 0.5982 0.0
H4788 H 0.29551 0.34924 0.65404 0.0
H4789 H 0.28267 0.3563 0.64225 0.0
H4790 H 0.26178 0.32142 0.62013 0.0
H4791 H 0.27455 0.31426 0.6319 0.0
H4792 H 0.27917 0.35596 0.60874 0.0
H4793 H 0.23627 0.32917 0.64157 0.0
H4794 H 0.2511 0.33275 0.64865 0.0
H4795 H 0.24357 0.32099 0.63478 0.0
C4796 C 0.28806 0.34302 0.64684 0.0
C4797 C 0.286 0.33119 0.6439 0.0
C4798 C 0.2808 0.34708 0.64008 0.0
C4799 C 0.27126 0.33933 0.63045 0.0
C4800 C 0.26905 0.32747 0.62766 0.0
H4801 H 0.21721 0.34183 0.57539 0.0
H4802 H 0.22991 0.33657 0.59057 0.0
C4803 C 0.27638 0.32343 0.6343 0.0
C4804 C 0.26398 0.34383 0.6227 0.0
H4805 H 0.23526 0.33974 0.62024 0.0
C4806 C 0.2696 0.35253 0.6113 0.0
C4807 C 0.25152 0.33925 0.6261 0.0
C4808 C 0.24522 0.33008 0.63851 0.0
C4809 C 0.26292 0.35649 0.60279 0.0
C4810 C 0.25039 0.35185 0.60611 0.0
C4811 C 0.24486 0.34331 0.61774 0.0
C4812 C 0.24269 0.35523 0.59714 0.0
C4813 C 0.26923 0.36522 0.58997 0.0
C4814 C 0.24557 0.36746 0.59595 0.0
C4815 C 0.23843 0.37054 0.58704 0.0
C4816 C 0.22821 0.36141 0.57929 0.0
C4817 C 0.22518 0.34913 0.58089 0.0
C4818 C 0.23236 0.34609 0.5897 0.0
H4819 H 0.27779 0.36542 0.58657 0.0
H4820 H 0.26313 0.3627 0.58005 0.0
H4821 H 0.2717 0.37461 0.5935 0.0
H4822 H 0.25335 0.37464 0.60187 0.0
H4823 H 0.24105 0.38008 0.58603 0.0
H4824 H 0.65908 0.94572 0.65897 0.0
H4825 H 0.65106 0.9256 0.64726 0.0
H4826 H 0.66834 0.94279 0.60552 0.0
H4827 H 0.6761 0.96296 0.61694 0.0
H4828 H 0.63587 0.91676 0.6192 0.0
H4829 H 0.68043 0.91794 0.61637 0.0
H4830 H 0.67771 0.92746 0.62912 0.0
H4831 H 0.68032 0.93127 0.60958 0.0
C4832 C 0.66109 0.94525 0.64726 0.0
C4833 C 0.66827 0.95598 0.63891 0.0
C4834 C 0.65655 0.93374 0.64063 0.0
C4835 C 0.65921 0.93276 0.6256 0.0
C4836 C 0.66633 0.9434 0.6172 0.0
H4837 H 0.62939 0.87229 0.56305 0.0
H4838 H 0.63518 0.89128 0.57664 0.0
C4839 C 0.67081 0.95491 0.62378 0.0
C4840 C 0.6545 0.9206 0.61863 0.0
H4841 H 0.66358 0.90141 0.60424 0.0
C4842 C 0.64189 0.91335 0.61596 0.0
C4843 C 0.66241 0.91621 0.61456 0.0
C4844 C 0.67597 0.92355 0.61762 0.0
C4845 C 0.63701 0.90186 0.60901 0.0
C4846 C 0.64496 0.8976 0.60463 0.0
C4847 C 0.65753 0.90476 0.60757 0.0
C4848 C 0.64047 0.88575 0.59688 0.0
C4849 C 0.62339 0.89431 0.60649 0.0
C4850 C 0.64151 0.87638 0.60381 0.0
C4851 C 0.63813 0.8655 0.59614 0.0
C4852 C 0.63378 0.86385 0.58131 0.0
C4853 C 0.63253 0.87319 0.57452 0.0
C4854 C 0.63586 0.88406 0.58224 0.0
H4855 H 0.6183 0.89771 0.61323 0.0
H4856 H 0.6214 0.89474 0.59446 0.0
H4857 H 0.61994 0.88457 0.60936 0.0
H4858 H 0.64506 0.87755 0.61512 0.0
H4859 H 0.63903 0.85842 0.60179 0.0
H4860 H 0.03848 0.70374 0.62065 0.0
H4861 H 0.05851 0.71698 0.60935 0.0
H4862 H 0.07145 0.7368 0.65096 0.0
H4863 H 0.0513 0.7238 0.66232 0.0
H4864 H 0.07083 0.74438 0.60843 0.0
H4865 H 0.09722 0.72623 0.63778 0.0
H4866 H 0.08079 0.71735 0.63573 0.0
H4867 H 0.08747 0.72975 0.6489 0.0
C4868 C 0.04552 0.71098 0.62739 0.0
C4869 C 0.04324 0.71274 0.64238 0.0
C4870 C 0.05699 0.71847 0.62094 0.0
C4871 C 0.06644 0.72777 0.62938 0.0
C4872 C 0.06429 0.72954 0.64435 0.0
H4873 H 0.14168 0.78034 0.60344 0.0
H4874 H 0.12289 0.76759 0.61777 0.0
C4875 C 0.05278 0.72209 0.65082 0.0
C4876 C 0.07839 0.73588 0.62222 0.0
H4877 H 0.10805 0.74242 0.62074 0.0
C4878 C 0.07899 0.74399 0.61112 0.0
C4879 C 0.08898 0.73539 0.62591 0.0
C4880 C 0.08868 0.72669 0.63767 0.0
C4881 C 0.08994 0.75162 0.60351 0.0
C4882 C 0.10048 0.75086 0.60682 0.0
C4883 C 0.09994 0.74293 0.61817 0.0
C4884 C 0.11203 0.75803 0.59833 0.0
C4885 C 0.09015 0.76053 0.59211 0.0
C4886 C 0.11222 0.75659 0.58275 0.0
C4887 C 0.12289 0.76385 0.57457 0.0
C4888 C 0.13361 0.77259 0.58185 0.0
C4889 C 0.13356 0.77365 0.59755 0.0
C4890 C 0.12284 0.76641 0.60573 0.0
H4891 H 0.08266 0.76255 0.59411 0.0
H4892 H 0.09902 0.76928 0.59231 0.0
H4893 H 0.08886 0.75648 0.58074 0.0
H4894 H 0.10407 0.74992 0.57688 0.0
H4895 H 0.12273 0.76268 0.56251 0.0
H4896 H 0.98692 0.60821 0.69339 0.0
H4897 H 0.98919 0.59242 0.70636 0.0
H4898 H 0.98665 0.60713 0.74903 0.0
H4899 H 0.98446 0.62297 0.7362 0.0
H4900 H 0.00723 0.59544 0.72715 0.0
H4901 H 0.96082 0.57072 0.75239 0.0
H4902 H 0.96474 0.58156 0.73728 0.0
H4903 H 0.96901 0.58686 0.75624 0.0
C4904 C 0.98689 0.60811 0.70554 0.0
C4905 C 0.98542 0.61679 0.71377 0.0
C4906 C 0.98814 0.59905 0.71291 0.0
C4907 C 0.98787 0.59849 0.72863 0.0
C4908 C 0.98657 0.60723 0.73688 0.0
H4909 H 0.99676 0.55561 0.79703 0.0
H4910 H 0.99398 0.57036 0.78239 0.0
C4911 C 0.98532 0.61627 0.72953 0.0
C4912 C 0.98929 0.58898 0.73647 0.0
H4913 H 0.97526 0.56543 0.76139 0.0
C4914 C 0.00021 0.5888 0.73454 0.0
C4915 C 0.9801 0.58035 0.74608 0.0
C4916 C 0.96795 0.57977 0.74804 0.0
C4917 C 0.00235 0.58044 0.74235 0.0
C4918 C 0.99323 0.57193 0.75214 0.0
C4919 C 0.98224 0.57201 0.75391 0.0
C4920 C 0.99497 0.56299 0.76086 0.0
C4921 C 0.01448 0.58099 0.7404 0.0
C4922 C 0.99632 0.5539 0.75356 0.0
C4923 C 0.99786 0.54542 0.76189 0.0
C4924 C 0.99799 0.54585 0.77766 0.0
C4925 C 0.99655 0.55494 0.78491 0.0
C4926 C 0.99502 0.56341 0.77657 0.0
H4927 H 0.02147 0.58975 0.73526 0.0
H4928 H 0.01798 0.57989 0.75135 0.0
H4929 H 0.01324 0.57342 0.73295 0.0
H4930 H 0.99606 0.55328 0.74144 0.0
H4931 H 0.99873 0.5384 0.75598 0.0
H4932 H 0.39364 0.37608 0.7148 0.0
H4933 H 0.40599 0.3955 0.72801 0.0
H4934 H 0.37567 0.40207 0.72704 0.0
H4935 H 0.36328 0.38269 0.71382 0.0
H4936 H 0.3975 0.42237 0.7191 0.0
H4937 H 0.40242 0.4022 0.77195 0.0
H4938 H 0.40734 0.39753 0.7556 0.0
H4939 H 0.3915 0.39316 0.75762 0.0
C4940 C 0.38958 0.38163 0.7175 0.0
C4941 C 0.37748 0.37784 0.71331 0.0
C4942 C 0.39664 0.3927 0.72506 0.0
C4943 C 0.39167 0.40012 0.72871 0.0
C4944 C 0.37966 0.39645 0.72436 0.0
H4945 H 0.42392 0.46018 0.79281 0.0
H4946 H 0.40999 0.44149 0.77913 0.0
C4947 C 0.37262 0.38541 0.71674 0.0
C4948 C 0.39903 0.41177 0.73693 0.0
H4949 H 0.41479 0.4238 0.76944 0.0
C4950 C 0.40124 0.4227 0.73013 0.0
C4951 C 0.40371 0.41213 0.75143 0.0
C4952 C 0.40104 0.40062 0.75966 0.0
C4953 C 0.40827 0.43403 0.73731 0.0
C4954 C 0.41338 0.43443 0.75154 0.0
C4955 C 0.41094 0.42347 0.75847 0.0
C4956 C 0.42145 0.44611 0.75937 0.0
C4957 C 0.41002 0.44544 0.72967 0.0
C4958 C 0.43248 0.45491 0.75278 0.0
C4959 C 0.44039 0.46565 0.7605 0.0
C4960 C 0.43748 0.46774 0.77504 0.0
C4961 C 0.42636 0.45894 0.78156 0.0
C4962 C 0.41843 0.44821 0.7738 0.0
H4963 H 0.40275 0.44328 0.72124 0.0
H4964 H 0.41001 0.45202 0.73794 0.0
H4965 H 0.41895 0.44995 0.72374 0.0
H4966 H 0.4351 0.45337 0.74177 0.0
H4967 H 0.44883 0.47229 0.7551 0.0
H4968 H 0.64004 0.02931 0.7229 0.0
H4969 H 0.62154 0.02639 0.73561 0.0
H4970 H 0.60011 0.99192 0.71278 0.0
H4971 H 0.61856 0.99472 0.70007 0.0
H4972 H 0.59699 0.02025 0.71964 0.0
H4973 H 0.59508 0.98624 0.76083 0.0
H4974 H 0.6092 0.99733 0.75191 0.0
H4975 H 0.59791 0.98451 0.74141 0.0
C4976 C 0.63139 0.0211 0.72063 0.0
C4977 C 0.63073 0.01222 0.71054 0.0
C4978 C 0.62085 0.01949 0.72782 0.0
C4979 C 0.60954 0.00893 0.72515 0.0
C4980 C 0.6088 0.00011 0.71498 0.0
H4981 H 0.53896 0.98062 0.76881 0.0
H4982 H 0.55614 0.9833 0.7534 0.0
C4983 C 0.61931 0.00175 0.70769 0.0
C4984 C 0.59853 0.00705 0.73321 0.0
H4985 H 0.57939 0.99106 0.76203 0.0
C4986 C 0.5931 0.01387 0.7289 0.0
C4987 C 0.59351 0.99866 0.74518 0.0
C4988 C 0.5992 0.99127 0.75024 0.0
C4989 C 0.58264 0.01246 0.73627 0.0
C4990 C 0.57775 0.00425 0.7485 0.0
C4991 C 0.58316 0.99735 0.75268 0.0
C4992 C 0.56714 0.0028 0.75729 0.0
C4993 C 0.57683 0.01962 0.73071 0.0
C4994 C 0.56766 0.01286 0.76466 0.0
C4995 C 0.55779 0.0114 0.77332 0.0
C4996 C 0.54727 -0.0002 0.77494 0.0
C4997 C 0.54683 0.98972 0.76761 0.0
C4998 C 0.55667 0.99121 0.75888 0.0
H4999 H 0.5793 0.02245 0.71884 0.0
H5000 H 0.56671 0.01419 0.73166 0.0
H5001 H 0.58016 0.02803 0.73757 0.0
H5002 H 0.57576 0.02184 0.76387 0.0
H5003 H 0.5584 0.01938 0.77868 0.0
loop_
_geom_bond_atom_site_label_1
_geom_bond_atom_site_label_2
_geom_bond_distance
_geom_bond_site_symmetry_2
_ccdc_geom_bond_type
Li0 N17 1.992 1_554 S
Li0 O60 1.956 . S
Li0 O61 1.970 1_654 S
Li0 O62 1.961 . S
Li1 N25 1.990 . S
Li1 O60 1.970 1_455 S
Li1 O61 1.956 1_554 S
Li1 O63 1.961 . S
Li2 N47 1.990 . S
Li2 O60 1.961 . S
Li2 O62 1.956 . S
Li2 O63 1.970 1_655 S
Li3 N53 1.990 . S
Li3 O61 1.961 . S
Li3 O62 1.970 1_456 S
Li3 O63 1.956 1_556 S
C4 C6 1.343 1_655 S
C4 C7 1.356 . S
C4 O60 1.325 . S
N5 C8 1.314 . S
N5 C9 1.279 . S
C6 C4 1.343 1_455 S
C6 C8 1.353 1_455 S
C6 H64 0.935 . S
C7 C4 1.356 . S
C7 C9 1.358 . S
C7 H65 0.930 . S
C8 N5 1.314 . S
C8 C6 1.353 1_655 S
C8 H66 0.882 1_655 S
C9 N5 1.279 . S
C9 C7 1.358 . S
C9 H67 0.930 . S
C10 C13 1.348 . S
C10 C14 1.356 . S
C10 O61 1.325 . S
C11 N12 1.279 . S
C11 C14 1.358 . S
C11 H68 0.930 . S
N12 C11 1.279 . S
N12 C15 1.314 . S
C13 C10 1.348 . S
C13 C15 1.353 . S
C13 H69 0.929 1_455 S
C14 C10 1.356 . S
C14 C11 1.358 . S
C14 H70 0.930 . S
C15 N12 1.314 . S
C15 C13 1.353 . S
C15 H71 0.930 . S
C16 N17 1.309 . S
C16 C21 1.353 . S
C16 H22 0.930 . S
N17 Li0 1.992 1_556 S
N17 C16 1.309 . S
N17 C19 1.282 1_556 S
C18 C19 1.358 . S
C18 C20 1.356 1_554 S
C18 H72 0.930 . S
C19 N17 1.282 1_554 S
C19 C18 1.358 . S
C19 H23 0.930 . S
C20 C18 1.356 1_556 S
C20 C21 1.348 . S
C21 C16 1.353 . S
C21 C20 1.348 . S
C21 H73 0.929 . S
H22 C16 0.930 . S
H23 C19 0.930 . S
C24 N25 1.314 . S
C24 C26 1.353 . S
C24 H30 0.930 . S
N25 Li1 1.990 . S
N25 C24 1.314 . S
N25 C28 1.279 . S
C26 C24 1.353 . S
C26 C29 1.348 . S
C26 H74 0.929 . S
C27 C28 1.358 . S
C27 C29 1.356 . S
C27 H75 0.930 . S
C28 N25 1.279 . S
C28 C27 1.358 . S
C28 H31 0.930 . S
C29 C26 1.348 . S
C29 C27 1.356 . S
H30 C24 0.930 . S
H31 C28 0.930 . S
C32 C34 1.345 . S
C32 C35 1.357 1_556 S
C32 O62 1.326 1_556 S
N33 C36 1.314 . S
N33 C37 1.279 1_556 S
C34 C32 1.345 . S
C34 C36 1.353 . S
C34 H76 0.929 . S
C35 C32 1.357 1_554 S
C35 C37 1.358 . S
C35 H77 0.930 . S
C36 N33 1.314 . S
C36 C34 1.353 . S
C36 H78 0.930 . S
C37 N33 1.279 1_554 S
C37 C35 1.358 . S
C37 H79 0.930 . S
C38 C39 1.348 . S
C38 C40 1.356 . S
C38 O63 1.325 . S
C39 C38 1.348 . S
C39 C41 1.353 . S
C39 H80 0.929 . S
C40 C38 1.356 . S
C40 C42 1.358 . S
C40 H81 0.930 . S
C41 C39 1.353 . S
C41 N43 1.314 . S
C41 H82 0.930 . S
C42 C40 1.358 . S
C42 N43 1.279 . S
C42 H83 0.930 . S
N43 C41 1.314 . S
N43 C42 1.279 . S
C44 C46 1.353 . S
C44 N47 1.314 . S
C44 H50 0.945 . S
C45 N47 1.279 . S
C45 C48 1.358 . S
C45 H51 0.930 . S
C46 C44 1.353 . S
C46 C49 1.348 . S
C46 H84 0.929 . S
N47 Li2 1.990 . S
N47 C44 1.314 . S
N47 C45 1.279 . S
C48 C45 1.358 . S
C48 C49 1.356 . S
C48 H85 0.930 . S
C49 C46 1.348 . S
C49 C48 1.356 . S
H50 C44 0.945 . S
H51 C45 0.930 . S
C52 N53 1.314 . S
C52 C54 1.353 . S
C52 H58 0.930 . S
N53 Li3 1.990 . S
N53 C52 1.314 . S
N53 C56 1.279 . S
C54 C52 1.353 . S
C54 C57 1.348 . S
C54 H86 0.929 . S
C55 C56 1.358 . S
C55 C57 1.356 . S
C55 H87 0.930 . S
C56 N53 1.279 . S
C56 C55 1.358 . S
C56 H59 0.930 . S
C57 C54 1.348 . S
C57 C55 1.356 . S
H58 C52 0.930 . S
H59 C56 0.930 . S
O60 Li0 1.956 . S
O60 Li1 1.970 1_655 S
O60 Li2 1.961 . S
O60 C4 1.325 . S
O61 Li0 1.970 1_456 S
O61 Li1 1.956 1_556 S
O61 Li3 1.961 . S
O61 C10 1.325 . S
O62 Li0 1.961 . S
O62 Li2 1.956 . S
O62 Li3 1.970 1_654 S
O62 C32 1.326 1_554 S
O63 Li1 1.961 . S
O63 Li2 1.970 1_455 S
O63 Li3 1.956 1_554 S
O63 C38 1.325 . S
H64 C6 0.935 . S
H65 C7 0.930 . S
H66 C8 0.882 1_455 S
H67 C9 0.930 . S
H68 C11 0.930 . S
H69 C13 0.929 1_655 S
H70 C14 0.930 . S
H71 C15 0.930 . S
H72 C18 0.930 . S
H73 C21 0.929 . S
H74 C26 0.929 . S
H75 C27 0.930 . S
H76 C34 0.929 . S
H77 C35 0.930 . S
H78 C36 0.930 . S
H79 C37 0.930 . S
H80 C39 0.929 . S
H81 C40 0.930 . S
H82 C41 0.930 . S
H83 C42 0.930 . S
H84 C46 0.929 . S
H85 C48 0.930 . S
H86 C54 0.929 . S
H87 C55 0.930 . S
Li88 N105 1.990 1_554 S
Li88 O148 1.956 . S
Li88 O149 1.970 1_554 S
Li88 O150 1.961 . S
Li89 N113 1.990 . S
Li89 O148 1.970 . S
Li89 O149 1.956 1_554 S
Li89 O151 1.961 . S
Li90 N135 1.990 . S
Li90 O148 1.961 . S
Li90 O150 1.956 . S
Li90 O151 1.970 . S
Li91 N141 1.990 . S
Li91 O149 1.961 . S
Li91 O150 1.970 1_556 S
Li91 O151 1.956 1_556 S
C92 C94 1.348 . S
C92 C95 1.356 . S
C92 O148 1.325 . S
N93 C96 1.314 . S
N93 C97 1.279 . S
C94 C92 1.348 . S
C94 C96 1.353 . S
C94 H152 0.929 . S
C95 C92 1.356 . S
C95 C97 1.358 . S
C95 H153 0.930 . S
C96 N93 1.314 . S
C96 C94 1.353 . S
C96 H154 0.930 . S
C97 N93 1.279 . S
C97 C95 1.358 . S
C97 H155 0.930 . S
C98 C101 1.348 . S
C98 C102 1.356 . S
C98 O149 1.325 . S
C99 N100 1.279 . S
C99 C102 1.358 . S
C99 H156 0.930 . S
N100 C99 1.279 . S
N100 C103 1.314 . S
C101 C98 1.348 . S
C101 C103 1.353 . S
C101 H157 0.929 . S
C102 C98 1.356 . S
C102 C99 1.358 . S
C102 H158 0.930 . S
C103 N100 1.314 . S
C103 C101 1.353 . S
C103 H159 0.930 . S
C104 N105 1.314 . S
C104 C109 1.353 . S
C104 H110 0.930 . S
N105 Li88 1.990 1_556 S
N105 C104 1.314 . S
N105 C107 1.279 1_556 S
C106 C107 1.358 1_556 S
C106 C108 1.356 . S
C106 H160 0.930 1_556 S
C107 N105 1.279 1_554 S
C107 C106 1.358 1_554 S
C107 H111 0.930 . S
C108 C106 1.356 . S
C108 C109 1.348 . S
C109 C104 1.353 . S
C109 C108 1.348 . S
C109 H161 0.929 . S
H110 C104 0.930 . S
H111 C107 0.930 . S
C112 N113 1.314 . S
C112 C114 1.353 . S
C112 H118 0.930 . S
N113 Li89 1.990 . S
N113 C112 1.314 . S
N113 C116 1.279 . S
C114 C112 1.353 . S
C114 C117 1.348 . S
C114 H162 0.929 . S
C115 C116 1.358 . S
C115 C117 1.356 . S
C115 H163 0.930 . S
C116 N113 1.279 . S
C116 C115 1.358 . S
C116 H119 0.930 . S
C117 C114 1.348 . S
C117 C115 1.356 . S
H118 C112 0.930 . S
H119 C116 0.930 . S
C120 C122 1.348 . S
C120 C123 1.350 1_556 S
C120 O150 1.325 1_556 S
N121 C124 1.314 . S
N121 C125 1.279 . S
C122 C120 1.348 . S
C122 C124 1.353 . S
C122 H164 0.929 . S
C123 C120 1.350 1_554 S
C123 C125 1.349 1_554 S
C123 H165 0.946 . S
C124 N121 1.314 . S
C124 C122 1.353 . S
C124 H166 0.930 . S
C125 N121 1.279 . S
C125 C123 1.349 1_556 S
C125 H167 0.930 . S
C126 C127 1.348 . S
C126 C128 1.356 . S
C126 O151 1.325 . S
C127 C126 1.348 . S
C127 C129 1.353 . S
C127 H168 0.929 . S
C128 C126 1.356 . S
C128 C130 1.358 . S
C128 H169 0.930 . S
C129 C127 1.353 . S
C129 N131 1.314 . S
C129 H170 0.930 . S
C130 C128 1.358 . S
C130 N131 1.279 . S
C130 H171 0.930 . S
N131 C129 1.314 . S
N131 C130 1.279 . S
C132 C134 1.353 . S
C132 N135 1.314 . S
C132 H138 0.930 . S
C133 N135 1.279 . S
C133 C136 1.358 . S
C133 H139 0.930 . S
C134 C132 1.353 . S
C134 C137 1.348 . S
C134 H172 0.929 . S
N135 Li90 1.990 . S
N135 C132 1.314 . S
N135 C133 1.279 . S
C136 C133 1.358 . S
C136 C137 1.356 . S
C136 H173 0.930 . S
C137 C134 1.348 . S
C137 C136 1.356 . S
H138 C132 0.930 . S
H139 C133 0.930 . S
C140 N141 1.314 . S
C140 C142 1.353 . S
C140 H146 0.930 . S
N141 Li91 1.990 . S
N141 C140 1.314 . S
N141 C144 1.279 . S
C142 C140 1.353 . S
C142 C145 1.348 . S
C142 H174 0.929 . S
C143 C144 1.358 . S
C143 C145 1.356 . S
C143 H175 0.930 . S
C144 N141 1.279 . S
C144 C143 1.358 . S
C144 H147 0.930 . S
C145 C142 1.348 . S
C145 C143 1.356 . S
H146 C140 0.930 . S
H147 C144 0.930 . S
O148 Li88 1.956 . S
O148 Li89 1.970 . S
O148 Li90 1.961 . S
O148 C92 1.325 . S
O149 Li88 1.970 1_556 S
O149 Li89 1.956 1_556 S
O149 Li91 1.961 . S
O149 C98 1.325 . S
O150 Li88 1.961 . S
O150 Li90 1.956 . S
O150 Li91 1.970 1_554 S
O150 C120 1.325 1_554 S
O151 Li89 1.961 . S
O151 Li90 1.970 . S
O151 Li91 1.956 1_554 S
O151 C126 1.325 . S
H152 C94 0.929 . S
H153 C95 0.930 . S
H154 C96 0.930 . S
H155 C97 0.930 . S
H156 C99 0.930 . S
H157 C101 0.929 . S
H158 C102 0.930 . S
H159 C103 0.930 . S
H160 C106 0.930 1_554 S
H161 C109 0.929 . S
H162 C114 0.929 . S
H163 C115 0.930 . S
H164 C122 0.929 . S
H165 C123 0.946 . S
H166 C124 0.930 . S
H167 C125 0.930 . S
H168 C127 0.929 . S
H169 C128 0.930 . S
H170 C129 0.930 . S
H171 C130 0.930 . S
H172 C134 0.929 . S
H173 C136 0.930 . S
H174 C142 0.929 . S
H175 C143 0.930 . S
Li176 N193 1.990 . S
Li176 O236 1.956 1_556 S
Li176 O237 1.970 1_566 S
Li176 O238 1.961 . S
Li177 N201 1.990 . S
Li177 O236 1.970 1_545 S
Li177 O237 1.956 . S
Li177 O239 1.961 . S
Li178 N223 1.990 . S
Li178 O236 1.961 . S
Li178 O238 1.956 1_554 S
Li178 O239 1.970 1_565 S
Li179 N229 1.989 . S
Li179 O237 1.961 . S
Li179 O238 1.970 1_544 S
Li179 O239 1.956 . S
C180 C182 1.348 . S
C180 C183 1.356 . S
C180 O236 1.325 . S
N181 C184 1.314 . S
N181 C185 1.279 . S
C182 C180 1.348 . S
C182 C184 1.353 . S
C182 H240 0.929 . S
C183 C180 1.356 . S
C183 C185 1.358 . S
C183 H241 0.930 . S
C184 N181 1.314 . S
C184 C182 1.353 . S
C184 H242 0.930 . S
C185 N181 1.279 . S
C185 C183 1.358 . S
C185 H243 0.930 . S
C186 C189 1.350 1_554 S
C186 C190 1.354 . S
C186 O237 1.324 . S
C187 N188 1.279 1_554 S
C187 C190 1.358 . S
C187 H244 0.930 . S
N188 C187 1.279 1_556 S
N188 C191 1.314 . S
C189 C186 1.350 1_556 S
C189 C191 1.353 . S
C189 H245 0.929 . S
C190 C186 1.354 . S
C190 C187 1.358 . S
C190 H246 0.930 . S
C191 N188 1.314 . S
C191 C189 1.353 . S
C191 H247 0.930 . S
C192 N193 1.314 . S
C192 C197 1.353 . S
C192 H198 0.947 . S
N193 Li176 1.990 . S
N193 C192 1.314 . S
N193 C195 1.279 . S
C194 C195 1.358 . S
C194 C196 1.356 . S
C194 H248 0.930 . S
C195 N193 1.279 . S
C195 C194 1.358 . S
C195 H199 0.930 . S
C196 C194 1.356 . S
C196 C197 1.348 . S
C197 C192 1.353 . S
C197 C196 1.348 . S
C197 H249 0.929 . S
H198 C192 0.947 . S
H199 C195 0.930 . S
C200 N201 1.314 . S
C200 C202 1.353 . S
C200 H206 0.930 . S
N201 Li177 1.990 . S
N201 C200 1.314 . S
N201 C204 1.279 . S
C202 C200 1.353 . S
C202 C205 1.348 . S
C202 H250 0.929 . S
C203 C204 1.358 . S
C203 C205 1.356 . S
C203 H251 0.930 . S
C204 N201 1.279 . S
C204 C203 1.358 . S
C204 H207 0.930 . S
C205 C202 1.348 . S
C205 C203 1.356 . S
H206 C200 0.930 . S
H207 C204 0.930 . S
C208 C210 1.344 1_565 S
C208 C211 1.356 . S
C208 O238 1.325 . S
N209 C212 1.314 . S
N209 C213 1.279 . S
C210 C208 1.344 1_545 S
C210 C212 1.353 1_545 S
C210 H252 0.933 . S
C211 C208 1.356 . S
C211 C213 1.358 . S
C211 H253 0.930 . S
C212 N209 1.314 . S
C212 C210 1.353 1_565 S
C212 H254 0.884 1_565 S
C213 N209 1.279 . S
C213 C211 1.358 . S
C213 H255 0.930 . S
C214 C215 1.348 . S
C214 C216 1.356 . S
C214 O239 1.325 . S
C215 C214 1.348 . S
C215 C217 1.353 . S
C215 H256 0.929 1_545 S
C216 C214 1.356 . S
C216 C218 1.358 . S
C216 H257 0.930 . S
C217 C215 1.353 . S
C217 N219 1.314 . S
C217 H258 0.930 . S
C218 C216 1.358 . S
C218 N219 1.279 . S
C218 H259 0.930 . S
N219 C217 1.314 . S
N219 C218 1.279 . S
C220 C222 1.353 . S
C220 N223 1.314 . S
C220 H226 0.930 . S
C221 N223 1.279 . S
C221 C224 1.358 . S
C221 H227 0.930 . S
C222 C220 1.353 . S
C222 C225 1.348 . S
C222 H260 0.929 . S
N223 Li178 1.990 . S
N223 C220 1.314 . S
N223 C221 1.279 . S
C224 C221 1.358 . S
C224 C225 1.356 . S
C224 H261 0.930 . S
C225 C222 1.348 . S
C225 C224 1.356 . S
H226 C220 0.930 . S
H227 C221 0.930 . S
C228 N229 1.319 1_556 S
C228 C230 1.353 . S
C228 H234 0.930 . S
N229 Li179 1.989 . S
N229 C228 1.319 1_554 S
N229 C232 1.276 . S
C230 C228 1.353 . S
C230 C233 1.348 . S
C230 H262 0.929 . S
C231 C232 1.358 . S
C231 C233 1.356 1_554 S
C231 H263 0.930 . S
C232 N229 1.276 . S
C232 C231 1.358 . S
C232 H235 0.930 . S
C233 C230 1.348 . S
C233 C231 1.356 1_556 S
H234 C228 0.930 . S
H235 C232 0.930 . S
O236 Li176 1.956 1_554 S
O236 Li177 1.970 1_565 S
O236 Li178 1.961 . S
O236 C180 1.325 . S
O237 Li176 1.970 1_544 S
O237 Li177 1.956 . S
O237 Li179 1.961 . S
O237 C186 1.324 . S
O238 Li176 1.961 . S
O238 Li178 1.956 1_556 S
O238 Li179 1.970 1_566 S
O238 C208 1.325 . S
O239 Li177 1.961 . S
O239 Li178 1.970 1_545 S
O239 Li179 1.956 . S
O239 C214 1.325 . S
H240 C182 0.929 . S
H241 C183 0.930 . S
H242 C184 0.930 . S
H243 C185 0.930 . S
H244 C187 0.930 . S
H245 C189 0.929 . S
H246 C190 0.930 . S
H247 C191 0.930 . S
H248 C194 0.930 . S
H249 C197 0.929 . S
H250 C202 0.929 . S
H251 C203 0.930 . S
H252 C210 0.933 . S
H253 C211 0.930 . S
H254 C212 0.884 1_545 S
H255 C213 0.930 . S
H256 C215 0.929 1_565 S
H257 C216 0.930 . S
H258 C217 0.930 . S
H259 C218 0.930 . S
H260 C222 0.929 . S
H261 C224 0.930 . S
H262 C230 0.929 . S
H263 C231 0.930 . S
Li264 N281 1.990 . S
Li264 O324 1.956 . S
Li264 O325 1.970 1_455 S
Li264 O326 1.961 1_554 S
Li265 N289 1.990 . S
Li265 O324 1.970 1_655 S
Li265 O325 1.956 . S
Li265 O327 1.961 . S
Li266 N311 1.990 . S
Li266 O324 1.961 1_556 S
Li266 O326 1.956 . S
Li266 O327 1.970 1_456 S
Li267 N317 1.990 1_554 S
Li267 O325 1.961 . S
Li267 O326 1.970 1_654 S
Li267 O327 1.956 . S
C268 C270 1.348 . S
C268 C271 1.356 . S
C268 O324 1.325 . S
N269 C272 1.314 . S
N269 C273 1.279 . S
C270 C268 1.348 . S
C270 C272 1.353 . S
C270 H328 0.929 . S
C271 C268 1.356 . S
C271 C273 1.358 . S
C271 H329 0.964 . S
C272 N269 1.314 . S
C272 C270 1.353 . S
C272 H330 0.930 . S
C273 N269 1.279 . S
C273 C271 1.358 . S
C273 H331 0.930 . S
C274 C277 1.341 1_655 S
C274 C278 1.356 . S
C274 O325 1.325 . S
C275 N276 1.279 . S
C275 C278 1.358 . S
C275 H332 0.930 . S
N276 C275 1.279 . S
N276 C279 1.314 . S
C277 C274 1.341 1_455 S
C277 C279 1.342 1_455 S
C277 H333 0.948 . S
C278 C274 1.356 . S
C278 C275 1.358 . S
C278 H334 0.930 . S
C279 N276 1.314 . S
C279 C277 1.342 1_655 S
C279 H335 0.930 1_655 S
C280 N281 1.314 . S
C280 C285 1.353 . S
C280 H286 0.930 . S
N281 Li264 1.990 . S
N281 C280 1.314 . S
N281 C283 1.279 . S
C282 C283 1.358 . S
C282 C284 1.356 . S
C282 H336 0.930 . S
C283 N281 1.279 . S
C283 C282 1.358 . S
C283 H287 0.930 . S
C284 C282 1.356 . S
C284 C285 1.348 . S
C285 C280 1.353 . S
C285 C284 1.348 . S
C285 H337 0.929 . S
H286 C280 0.930 . S
H287 C283 0.930 . S
C288 N289 1.314 . S
C288 C290 1.353 . S
C288 H294 0.930 . S
N289 Li265 1.990 . S
N289 C288 1.314 . S
N289 C292 1.279 . S
C290 C288 1.353 . S
C290 C293 1.348 . S
C290 H338 0.929 . S
C291 C292 1.358 . S
C291 C293 1.356 . S
C291 H339 0.930 . S
C292 N289 1.279 . S
C292 C291 1.358 . S
C292 H295 0.930 . S
C293 C290 1.348 . S
C293 C291 1.356 . S
H294 C288 0.930 . S
H295 C292 0.930 . S
C296 C298 1.334 1_455 S
C296 C299 1.356 . S
C296 O326 1.325 . S
N297 C300 1.314 . S
N297 C301 1.279 . S
C298 C296 1.334 1_655 S
C298 C300 1.353 1_655 S
C298 H340 0.944 . S
C299 C296 1.356 . S
C299 C301 1.358 . S
C299 H341 0.930 . S
C300 N297 1.314 . S
C300 C298 1.353 1_455 S
C300 H342 0.930 1_455 S
C301 N297 1.279 . S
C301 C299 1.358 . S
C301 H343 0.930 . S
C302 C303 1.372 . S
C302 C304 1.341 1_556 S
C302 O327 1.318 1_556 S
C303 C302 1.372 . S
C303 C305 1.353 . S
C303 H344 0.929 . S
C304 C302 1.341 1_554 S
C304 C306 1.358 . S
C304 H345 0.930 . S
C305 C303 1.353 . S
C305 N307 1.314 . S
C305 H346 0.930 . S
C306 C304 1.358 . S
C306 N307 1.279 1_554 S
C306 H347 0.930 . S
N307 C305 1.314 . S
N307 C306 1.279 1_556 S
C308 C310 1.353 . S
C308 N311 1.314 . S
C308 H314 0.930 . S
C309 N311 1.279 . S
C309 C312 1.358 . S
C309 H315 0.930 . S
C310 C308 1.353 . S
C310 C313 1.348 . S
C310 H348 0.929 . S
N311 Li266 1.990 . S
N311 C308 1.314 . S
N311 C309 1.279 . S
C312 C309 1.358 . S
C312 C313 1.356 . S
C312 H349 0.930 . S
C313 C310 1.348 . S
C313 C312 1.356 . S
H314 C308 0.930 . S
H315 C309 0.930 . S
C316 N317 1.314 1_554 S
C316 C318 1.353 1_554 S
C316 H322 0.930 . S
N317 Li267 1.990 1_556 S
N317 C316 1.314 1_556 S
N317 C320 1.279 . S
C318 C316 1.353 1_556 S
C318 C321 1.348 . S
C318 H350 0.929 1_556 S
C319 C320 1.358 . S
C319 C321 1.356 . S
C319 H351 0.930 . S
C320 N317 1.279 . S
C320 C319 1.358 . S
C320 H323 0.930 . S
C321 C318 1.348 . S
C321 C319 1.356 . S
H322 C316 0.930 . S
H323 C320 0.930 . S
O324 Li264 1.956 . S
O324 Li265 1.970 1_455 S
O324 Li266 1.961 1_554 S
O324 C268 1.325 . S
O325 Li264 1.970 1_655 S
O325 Li265 1.956 . S
O325 Li267 1.961 . S
O325 C274 1.325 . S
O326 Li264 1.961 1_556 S
O326 Li266 1.956 . S
O326 Li267 1.970 1_456 S
O326 C296 1.325 . S
O327 Li265 1.961 . S
O327 Li266 1.970 1_654 S
O327 Li267 1.956 . S
O327 C302 1.318 1_554 S
H328 C270 0.929 . S
H329 C271 0.964 . S
H330 C272 0.930 . S
H331 C273 0.930 . S
H332 C275 0.930 . S
H333 C277 0.948 . S
H334 C278 0.930 . S
H335 C279 0.930 1_455 S
H336 C282 0.930 . S
H337 C285 0.929 . S
H338 C290 0.929 . S
H339 C291 0.930 . S
H340 C298 0.944 . S
H341 C299 0.930 . S
H342 C300 0.930 1_655 S
H343 C301 0.930 . S
H344 C303 0.929 . S
H345 C304 0.930 . S
H346 C305 0.930 . S
H347 C306 0.930 . S
H348 C310 0.929 . S
H349 C312 0.930 . S
H350 C318 0.929 1_554 S
H351 C319 0.930 . S
Li352 N369 1.990 . S
Li352 O412 1.956 . S
Li352 O413 1.970 . S
Li352 O414 1.961 1_554 S
Li353 N377 1.990 . S
Li353 O412 1.970 . S
Li353 O413 1.956 . S
Li353 O415 1.961 . S
Li354 N399 1.990 . S
Li354 O412 1.961 1_556 S
Li354 O414 1.956 . S
Li354 O415 1.970 1_556 S
Li355 N405 1.990 1_554 S
Li355 O413 1.961 . S
Li355 O414 1.970 1_554 S
Li355 O415 1.956 . S
C356 C358 1.348 . S
C356 C359 1.356 . S
C356 O412 1.325 . S
N357 C360 1.314 . S
N357 C361 1.279 . S
C358 C356 1.348 . S
C358 C360 1.353 . S
C358 H416 0.929 . S
C359 C356 1.356 . S
C359 C361 1.358 . S
C359 H417 0.930 . S
C360 N357 1.314 . S
C360 C358 1.353 . S
C360 H418 0.930 . S
C361 N357 1.279 . S
C361 C359 1.358 . S
C361 H419 0.930 . S
C362 C365 1.348 . S
C362 C366 1.356 . S
C362 O413 1.325 . S
C363 N364 1.279 . S
C363 C366 1.358 . S
C363 H420 0.930 . S
N364 C363 1.279 . S
N364 C367 1.314 . S
C365 C362 1.348 . S
C365 C367 1.353 . S
C365 H421 0.929 . S
C366 C362 1.356 . S
C366 C363 1.358 . S
C366 H422 0.930 . S
C367 N364 1.314 . S
C367 C365 1.353 . S
C367 H423 0.930 . S
C368 N369 1.314 . S
C368 C373 1.353 . S
C368 H374 0.930 . S
N369 Li352 1.990 . S
N369 C368 1.314 . S
N369 C371 1.279 . S
C370 C371 1.358 . S
C370 C372 1.356 . S
C370 H424 0.930 . S
C371 N369 1.279 . S
C371 C370 1.358 . S
C371 H375 0.930 . S
C372 C370 1.356 . S
C372 C373 1.348 . S
C373 C368 1.353 . S
C373 C372 1.348 . S
C373 H425 0.929 . S
H374 C368 0.930 . S
H375 C371 0.930 . S
C376 N377 1.314 . S
C376 C378 1.353 . S
C376 H382 0.930 . S
N377 Li353 1.990 . S
N377 C376 1.314 . S
N377 C380 1.279 . S
C378 C376 1.353 . S
C378 C381 1.348 . S
C378 H426 0.929 . S
C379 C380 1.358 . S
C379 C381 1.356 . S
C379 H427 0.930 . S
C380 N377 1.279 . S
C380 C379 1.358 . S
C380 H383 0.930 . S
C381 C378 1.348 . S
C381 C379 1.356 . S
H382 C376 0.930 . S
H383 C380 0.930 . S
C384 C386 1.348 . S
C384 C387 1.356 . S
C384 O414 1.325 . S
N385 C388 1.314 . S
N385 C389 1.279 . S
C386 C384 1.348 . S
C386 C388 1.353 . S
C386 H428 0.929 . S
C387 C384 1.356 . S
C387 C389 1.358 . S
C387 H429 0.930 . S
C388 N385 1.314 . S
C388 C386 1.353 . S
C388 H430 0.930 . S
C389 N385 1.279 . S
C389 C387 1.358 . S
C389 H431 0.930 . S
C390 C391 1.348 . S
C390 C392 1.356 1_556 S
C390 O415 1.325 1_556 S
C391 C390 1.348 . S
C391 C393 1.353 . S
C391 H432 0.929 . S
C392 C390 1.356 1_554 S
C392 C394 1.358 1_554 S
C392 H433 0.930 . S
C393 C391 1.353 . S
C393 N395 1.314 . S
C393 H434 0.930 . S
C394 C392 1.358 1_556 S
C394 N395 1.279 . S
C394 H435 0.930 1_556 S
N395 C393 1.314 . S
N395 C394 1.279 . S
C396 C398 1.353 . S
C396 N399 1.314 . S
C396 H402 0.930 . S
C397 N399 1.279 . S
C397 C400 1.358 . S
C397 H403 0.930 . S
C398 C396 1.353 . S
C398 C401 1.348 . S
C398 H436 0.929 . S
N399 Li354 1.990 . S
N399 C396 1.314 . S
N399 C397 1.279 . S
C400 C397 1.358 . S
C400 C401 1.356 . S
C400 H437 0.930 . S
C401 C398 1.348 . S
C401 C400 1.356 . S
H402 C396 0.930 . S
H403 C397 0.930 . S
C404 N405 1.314 . S
C404 C406 1.353 . S
C404 H410 0.930 1_556 S
N405 Li355 1.990 1_556 S
N405 C404 1.314 . S
N405 C408 1.279 . S
C406 C404 1.353 . S
C406 C409 1.348 . S
C406 H438 0.929 . S
C407 C408 1.358 . S
C407 C409 1.356 . S
C407 H439 0.930 . S
C408 N405 1.279 . S
C408 C407 1.358 . S
C408 H411 0.930 . S
C409 C406 1.348 . S
C409 C407 1.356 . S
H410 C404 0.930 1_554 S
H411 C408 0.930 . S
O412 Li352 1.956 . S
O412 Li353 1.970 . S
O412 Li354 1.961 1_554 S
O412 C356 1.325 . S
O413 Li352 1.970 . S
O413 Li353 1.956 . S
O413 Li355 1.961 . S
O413 C362 1.325 . S
O414 Li352 1.961 1_556 S
O414 Li354 1.956 . S
O414 Li355 1.970 1_556 S
O414 C384 1.325 . S
O415 Li353 1.961 . S
O415 Li354 1.970 1_554 S
O415 Li355 1.956 . S
O415 C390 1.325 1_554 S
H416 C358 0.929 . S
H417 C359 0.930 . S
H418 C360 0.930 . S
H419 C361 0.930 . S
H420 C363 0.930 . S
H421 C365 0.929 . S
H422 C366 0.930 . S
H423 C367 0.930 . S
H424 C370 0.930 . S
H425 C373 0.929 . S
H426 C378 0.929 . S
H427 C379 0.930 . S
H428 C386 0.929 . S
H429 C387 0.930 . S
H430 C388 0.930 . S
H431 C389 0.930 . S
H432 C391 0.929 . S
H433 C392 0.930 . S
H434 C393 0.930 . S
H435 C394 0.930 1_554 S
H436 C398 0.929 . S
H437 C400 0.930 . S
H438 C406 0.929 . S
H439 C407 0.930 . S
Li440 N457 1.990 . S
Li440 O500 1.956 . S
Li440 O501 1.970 1_565 S
Li440 O502 1.961 1_554 S
Li441 N465 1.990 . S
Li441 O500 1.970 1_545 S
Li441 O501 1.956 . S
Li441 O503 1.961 . S
Li442 N487 1.990 . S
Li442 O500 1.961 1_556 S
Li442 O502 1.956 . S
Li442 O503 1.970 1_566 S
Li443 N493 1.985 1_554 S
Li443 O501 1.961 . S
Li443 O502 1.970 1_544 S
Li443 O503 1.956 . S
C444 C446 1.348 . S
C444 C447 1.356 . S
C444 O500 1.325 . S
N445 C448 1.314 . S
N445 C449 1.279 . S
C446 C444 1.348 . S
C446 C448 1.353 . S
C446 H504 0.929 . S
C447 C444 1.356 . S
C447 C449 1.358 . S
C447 H505 0.930 . S
C448 N445 1.314 . S
C448 C446 1.353 . S
C448 H506 0.930 . S
C449 N445 1.279 . S
C449 C447 1.358 . S
C449 H507 0.930 . S
C450 C453 1.334 1_545 S
C450 C454 1.356 . S
C450 O501 1.325 . S
C451 N452 1.279 . S
C451 C454 1.358 . S
C451 H508 0.930 . S
N452 C451 1.279 . S
N452 C455 1.314 . S
C453 C450 1.334 1_565 S
C453 C455 1.353 1_565 S
C453 H509 0.944 . S
C454 C450 1.356 . S
C454 C451 1.358 . S
C454 H510 0.930 . S
C455 N452 1.314 . S
C455 C453 1.353 1_545 S
C455 H511 0.930 1_545 S
C456 N457 1.314 . S
C456 C461 1.353 . S
C456 H462 0.930 . S
N457 Li440 1.990 . S
N457 C456 1.314 . S
N457 C459 1.279 . S
C458 C459 1.358 . S
C458 C460 1.356 . S
C458 H512 0.930 . S
C459 N457 1.279 . S
C459 C458 1.358 . S
C459 H463 0.930 . S
C460 C458 1.356 . S
C460 C461 1.348 . S
C461 C456 1.353 . S
C461 C460 1.348 . S
C461 H513 0.929 . S
H462 C456 0.930 . S
H463 C459 0.930 . S
C464 N465 1.314 . S
C464 C466 1.353 . S
C464 H470 0.930 . S
N465 Li441 1.990 . S
N465 C464 1.314 . S
N465 C468 1.279 . S
C466 C464 1.353 . S
C466 C469 1.348 . S
C466 H514 0.929 . S
C467 C468 1.358 . S
C467 C469 1.356 . S
C467 H515 0.930 . S
C468 N465 1.279 . S
C468 C467 1.358 . S
C468 H471 0.930 . S
C469 C466 1.348 . S
C469 C467 1.356 . S
H470 C464 0.930 . S
H471 C468 0.930 . S
C472 C474 1.341 1_565 S
C472 C475 1.356 . S
C472 O502 1.325 . S
N473 C476 1.314 . S
N473 C477 1.279 . S
C474 C472 1.341 1_545 S
C474 C476 1.342 1_545 S
C474 H516 0.947 . S
C475 C472 1.356 . S
C475 C477 1.358 . S
C475 H517 0.930 . S
C476 N473 1.314 . S
C476 C474 1.342 1_565 S
C476 H518 0.930 1_565 S
C477 N473 1.279 . S
C477 C475 1.358 . S
C477 H519 0.930 . S
C478 C479 1.314 1_554 S
C478 C480 1.377 . S
C478 O503 1.335 . S
C479 C478 1.314 1_556 S
C479 C481 1.353 . S
C479 H520 0.929 . S
C480 C478 1.377 . S
C480 C482 1.358 . S
C480 H521 0.930 . S
C481 C479 1.353 . S
C481 N483 1.314 . S
C481 H522 0.930 . S
C482 C480 1.358 . S
C482 N483 1.279 1_554 S
C482 H523 0.930 . S
N483 C481 1.314 . S
N483 C482 1.279 1_556 S
C484 C486 1.353 . S
C484 N487 1.314 . S
C484 H490 0.930 . S
C485 N487 1.279 . S
C485 C488 1.358 . S
C485 H491 0.930 . S
C486 C484 1.353 . S
C486 C489 1.348 . S
C486 H524 0.929 . S
N487 Li442 1.990 . S
N487 C484 1.314 . S
N487 C485 1.279 . S
C488 C485 1.358 . S
C488 C489 1.356 . S
C488 H525 0.930 . S
C489 C486 1.348 . S
C489 C488 1.356 . S
H490 C484 0.930 . S
H491 C485 0.930 . S
C492 N493 1.310 1_554 S
C492 C494 1.353 1_554 S
C492 H498 0.930 . S
N493 Li443 1.985 1_556 S
N493 C492 1.310 1_556 S
N493 C496 1.292 . S
C494 C492 1.353 1_556 S
C494 C497 1.348 . S
C494 H526 0.929 1_556 S
C495 C496 1.358 . S
C495 C497 1.356 . S
C495 H527 0.930 . S
C496 N493 1.292 . S
C496 C495 1.358 . S
C496 H499 0.930 . S
C497 C494 1.348 . S
C497 C495 1.356 . S
H498 C492 0.930 . S
H499 C496 0.930 . S
O500 Li440 1.956 . S
O500 Li441 1.970 1_565 S
O500 Li442 1.961 1_554 S
O500 C444 1.325 . S
O501 Li440 1.970 1_545 S
O501 Li441 1.956 . S
O501 Li443 1.961 . S
O501 C450 1.325 . S
O502 Li440 1.961 1_556 S
O502 Li442 1.956 . S
O502 Li443 1.970 1_566 S
O502 C472 1.325 . S
O503 Li441 1.961 . S
O503 Li442 1.970 1_544 S
O503 Li443 1.956 . S
O503 C478 1.335 . S
H504 C446 0.929 . S
H505 C447 0.930 . S
H506 C448 0.930 . S
H507 C449 0.930 . S
H508 C451 0.930 . S
H509 C453 0.944 . S
H510 C454 0.930 . S
H511 C455 0.930 1_565 S
H512 C458 0.930 . S
H513 C461 0.929 . S
H514 C466 0.929 . S
H515 C467 0.930 . S
H516 C474 0.947 . S
H517 C475 0.930 . S
H518 C476 0.930 1_545 S
H519 C477 0.930 . S
H520 C479 0.929 . S
H521 C480 0.930 . S
H522 C481 0.930 . S
H523 C482 0.930 . S
H524 C486 0.929 . S
H525 C488 0.930 . S
H526 C494 0.929 1_554 S
H527 C495 0.930 . S
Li528 N545 1.990 . S
Li528 O588 1.956 . S
Li528 O589 1.970 . S
Li528 O590 1.961 . S
Li529 N553 1.990 . S
Li529 O588 1.970 . S
Li529 O589 1.956 . S
Li529 O591 1.961 . S
Li530 N575 1.990 . S
Li530 O588 1.961 . S
Li530 O590 1.956 . S
Li530 O591 1.970 . S
Li531 N581 1.990 . S
Li531 O589 1.961 . S
Li531 O590 1.970 . S
Li531 O591 1.956 . S
C532 C534 1.348 . S
C532 C535 1.356 . S
C532 O588 1.325 . S
N533 C536 1.314 . S
N533 C537 1.279 . S
C534 C532 1.348 . S
C534 C536 1.353 . S
C534 H592 0.929 . S
C535 C532 1.356 . S
C535 C537 1.358 . S
C535 H593 0.930 . S
C536 N533 1.314 . S
C536 C534 1.353 . S
C536 H594 0.930 . S
C537 N533 1.279 . S
C537 C535 1.358 . S
C537 H595 0.930 . S
C538 C541 1.348 . S
C538 C542 1.356 . S
C538 O589 1.325 . S
C539 N540 1.279 . S
C539 C542 1.358 . S
C539 H596 0.930 . S
N540 C539 1.279 . S
N540 C543 1.314 . S
C541 C538 1.348 . S
C541 C543 1.353 . S
C541 H597 0.929 . S
C542 C538 1.356 . S
C542 C539 1.358 . S
C542 H598 0.930 . S
C543 N540 1.314 . S
C543 C541 1.353 . S
C543 H599 0.930 . S
C544 N545 1.314 . S
C544 C549 1.353 . S
C544 H550 0.930 . S
N545 Li528 1.990 . S
N545 C544 1.314 . S
N545 C547 1.279 . S
C546 C547 1.358 . S
C546 C548 1.356 . S
C546 H600 0.930 . S
C547 N545 1.279 . S
C547 C546 1.358 . S
C547 H551 0.930 . S
C548 C546 1.356 . S
C548 C549 1.348 . S
C549 C544 1.353 . S
C549 C548 1.348 . S
C549 H601 0.929 . S
H550 C544 0.930 . S
H551 C547 0.930 . S
C552 N553 1.314 . S
C552 C554 1.353 . S
C552 H558 0.930 . S
N553 Li529 1.990 . S
N553 C552 1.314 . S
N553 C556 1.279 . S
C554 C552 1.353 . S
C554 C557 1.348 . S
C554 H602 0.929 . S
C555 C556 1.358 . S
C555 C557 1.356 . S
C555 H603 0.930 . S
C556 N553 1.279 . S
C556 C555 1.358 . S
C556 H559 0.930 . S
C557 C554 1.348 . S
C557 C555 1.356 . S
H558 C552 0.930 . S
H559 C556 0.930 . S
C560 C562 1.348 . S
C560 C563 1.356 . S
C560 O590 1.325 . S
N561 C564 1.314 . S
N561 C565 1.279 . S
C562 C560 1.348 . S
C562 C564 1.353 . S
C562 H604 0.929 . S
C563 C560 1.356 . S
C563 C565 1.358 . S
C563 H605 0.930 . S
C564 N561 1.314 . S
C564 C562 1.353 . S
C564 H606 0.930 . S
C565 N561 1.279 . S
C565 C563 1.358 . S
C565 H607 0.930 . S
C566 C567 1.348 . S
C566 C568 1.356 . S
C566 O591 1.325 . S
C567 C566 1.348 . S
C567 C569 1.353 . S
C567 H608 0.929 . S
C568 C566 1.356 . S
C568 C570 1.358 . S
C568 H609 0.930 . S
C569 C567 1.353 . S
C569 N571 1.314 . S
C569 H610 0.930 . S
C570 C568 1.358 . S
C570 N571 1.279 . S
C570 H611 0.930 . S
N571 C569 1.314 . S
N571 C570 1.279 . S
C572 C574 1.353 . S
C572 N575 1.314 . S
C572 H578 0.930 . S
C573 N575 1.279 . S
C573 C576 1.358 . S
C573 H579 0.930 . S
C574 C572 1.353 . S
C574 C577 1.348 . S
C574 H612 0.929 . S
N575 Li530 1.990 . S
N575 C572 1.314 . S
N575 C573 1.279 . S
C576 C573 1.358 . S
C576 C577 1.356 . S
C576 H613 0.930 . S
C577 C574 1.348 . S
C577 C576 1.356 . S
H578 C572 0.930 . S
H579 C573 0.930 . S
C580 N581 1.314 . S
C580 C582 1.353 . S
C580 H586 0.930 . S
N581 Li531 1.990 . S
N581 C580 1.314 . S
N581 C584 1.279 . S
C582 C580 1.353 . S
C582 C585 1.348 . S
C582 H614 0.929 . S
C583 C584 1.358 . S
C583 C585 1.356 . S
C583 H615 0.930 . S
C584 N581 1.279 . S
C584 C583 1.358 . S
C584 H587 0.930 . S
C585 C582 1.348 . S
C585 C583 1.356 . S
H586 C580 0.930 . S
H587 C584 0.930 . S
O588 Li528 1.956 . S
O588 Li529 1.970 . S
O588 Li530 1.961 . S
O588 C532 1.325 . S
O589 Li528 1.970 . S
O589 Li529 1.956 . S
O589 Li531 1.961 . S
O589 C538 1.325 . S
O590 Li528 1.961 . S
O590 Li530 1.956 . S
O590 Li531 1.970 . S
O590 C560 1.325 . S
O591 Li529 1.961 . S
O591 Li530 1.970 . S
O591 Li531 1.956 . S
O591 C566 1.325 . S
H592 C534 0.929 . S
H593 C535 0.930 . S
H594 C536 0.930 . S
H595 C537 0.930 . S
H596 C539 0.930 . S
H597 C541 0.929 . S
H598 C542 0.930 . S
H599 C543 0.930 . S
H600 C546 0.930 . S
H601 C549 0.929 . S
H602 C554 0.929 . S
H603 C555 0.930 . S
H604 C562 0.929 . S
H605 C563 0.930 . S
H606 C564 0.930 . S
H607 C565 0.930 . S
H608 C567 0.929 . S
H609 C568 0.930 . S
H610 C569 0.930 . S
H611 C570 0.930 . S
H612 C574 0.929 . S
H613 C576 0.930 . S
H614 C582 0.929 . S
H615 C583 0.930 . S
Li616 N633 1.990 . S
Li616 O676 1.956 . S
Li616 O677 1.970 . S
Li616 O678 1.961 . S
Li617 N641 1.990 . S
Li617 O676 1.970 . S
Li617 O677 1.956 . S
Li617 O679 1.961 . S
Li618 N663 1.990 1_565 S
Li618 O676 1.961 . S
Li618 O678 1.956 . S
Li618 O679 1.970 . S
Li619 N669 1.990 . S
Li619 O677 1.961 . S
Li619 O678 1.970 . S
Li619 O679 1.956 . S
C620 C622 1.348 . S
C620 C623 1.356 . S
C620 O676 1.325 . S
N621 C624 1.314 . S
N621 C625 1.279 . S
C622 C620 1.348 . S
C622 C624 1.353 . S
C622 H680 0.929 . S
C623 C620 1.356 . S
C623 C625 1.358 . S
C623 H681 0.930 . S
C624 N621 1.314 . S
C624 C622 1.353 . S
C624 H682 0.930 . S
C625 N621 1.279 . S
C625 C623 1.358 . S
C625 H683 0.930 . S
C626 C629 1.348 . S
C626 C630 1.356 . S
C626 O677 1.325 . S
C627 N628 1.279 . S
C627 C630 1.358 . S
C627 H684 0.930 . S
N628 C627 1.279 . S
N628 C631 1.314 . S
C629 C626 1.348 . S
C629 C631 1.353 . S
C629 H685 0.929 . S
C630 C626 1.356 . S
C630 C627 1.358 . S
C630 H686 0.930 . S
C631 N628 1.314 . S
C631 C629 1.353 . S
C631 H687 0.930 . S
C632 N633 1.314 . S
C632 C637 1.353 . S
C632 H638 0.930 . S
N633 Li616 1.990 . S
N633 C632 1.314 . S
N633 C635 1.279 . S
C634 C635 1.358 . S
C634 C636 1.356 . S
C634 H688 0.930 . S
C635 N633 1.279 . S
C635 C634 1.358 . S
C635 H639 0.930 . S
C636 C634 1.356 . S
C636 C637 1.348 . S
C637 C632 1.353 . S
C637 C636 1.348 . S
C637 H689 0.929 . S
H638 C632 0.930 . S
H639 C635 0.930 . S
C640 N641 1.314 . S
C640 C642 1.353 . S
C640 H646 0.930 . S
N641 Li617 1.990 . S
N641 C640 1.314 . S
N641 C644 1.279 . S
C642 C640 1.353 . S
C642 C645 1.348 . S
C642 H690 0.929 . S
C643 C644 1.358 . S
C643 C645 1.356 . S
C643 H691 0.930 . S
C644 N641 1.279 . S
C644 C643 1.358 . S
C644 H647 0.930 . S
C645 C642 1.348 . S
C645 C643 1.356 . S
H646 C640 0.930 . S
H647 C644 0.930 . S
C648 C650 1.348 . S
C648 C651 1.356 . S
C648 O678 1.325 1_545 S
N649 C652 1.314 . S
N649 C653 1.279 . S
C650 C648 1.348 . S
C650 C652 1.353 . S
C650 H692 0.929 . S
C651 C648 1.356 . S
C651 C653 1.358 . S
C651 H693 0.930 . S
C652 N649 1.314 . S
C652 C650 1.353 . S
C652 H694 0.930 . S
C653 N649 1.279 . S
C653 C651 1.358 . S
C653 H695 0.930 . S
C654 C655 1.348 1_565 S
C654 C656 1.356 . S
C654 O679 1.325 . S
C655 C654 1.348 1_545 S
C655 C657 1.353 . S
C655 H696 0.929 . S
C656 C654 1.356 . S
C656 C658 1.358 . S
C656 H697 0.930 . S
C657 C655 1.353 . S
C657 N659 1.314 1_545 S
C657 H698 0.930 . S
C658 C656 1.358 . S
C658 N659 1.279 . S
C658 H699 0.930 . S
N659 C657 1.314 1_565 S
N659 C658 1.279 . S
C660 C662 1.353 . S
C660 N663 1.314 . S
C660 H666 0.930 . S
C661 N663 1.279 . S
C661 C664 1.358 . S
C661 H667 0.930 . S
C662 C660 1.353 . S
C662 C665 1.348 . S
C662 H700 0.929 . S
N663 Li618 1.990 1_545 S
N663 C660 1.314 . S
N663 C661 1.279 . S
C664 C661 1.358 . S
C664 C665 1.356 . S
C664 H701 0.930 . S
C665 C662 1.348 . S
C665 C664 1.356 . S
H666 C660 0.930 . S
H667 C661 0.930 . S
C668 N669 1.314 . S
C668 C670 1.353 . S
C668 H674 0.930 . S
N669 Li619 1.990 . S
N669 C668 1.314 . S
N669 C672 1.279 . S
C670 C668 1.353 . S
C670 C673 1.348 . S
C670 H702 0.929 . S
C671 C672 1.358 . S
C671 C673 1.356 . S
C671 H703 0.930 . S
C672 N669 1.279 . S
C672 C671 1.358 . S
C672 H675 0.930 . S
C673 C670 1.348 . S
C673 C671 1.356 . S
H674 C668 0.930 . S
H675 C672 0.930 . S
O676 Li616 1.956 . S
O676 Li617 1.970 . S
O676 Li618 1.961 . S
O676 C620 1.325 . S
O677 Li616 1.970 . S
O677 Li617 1.956 . S
O677 Li619 1.961 . S
O677 C626 1.325 . S
O678 Li616 1.961 . S
O678 Li618 1.956 . S
O678 Li619 1.970 . S
O678 C648 1.325 1_565 S
O679 Li617 1.961 . S
O679 Li618 1.970 . S
O679 Li619 1.956 . S
O679 C654 1.325 . S
H680 C622 0.929 . S
H681 C623 0.930 . S
H682 C624 0.930 . S
H683 C625 0.930 . S
H684 C627 0.930 . S
H685 C629 0.929 . S
H686 C630 0.930 . S
H687 C631 0.930 . S
H688 C634 0.930 . S
H689 C637 0.929 . S
H690 C642 0.929 . S
H691 C643 0.930 . S
H692 C650 0.929 . S
H693 C651 0.930 . S
H694 C652 0.930 . S
H695 C653 0.930 . S
H696 C655 0.929 . S
H697 C656 0.930 . S
H698 C657 0.930 . S
H699 C658 0.930 . S
H700 C662 0.929 . S
H701 C664 0.930 . S
H702 C670 0.929 . S
H703 C671 0.930 . S
Li704 N721 1.990 . S
Li704 O764 1.956 . S
Li704 O765 1.970 . S
Li704 O766 1.961 . S
Li705 N729 1.990 . S
Li705 O764 1.970 . S
Li705 O765 1.956 . S
Li705 O767 1.961 . S
Li706 N751 1.990 1_455 S
Li706 O764 1.961 . S
Li706 O766 1.956 . S
Li706 O767 1.970 . S
Li707 N757 1.990 . S
Li707 O765 1.961 . S
Li707 O766 1.970 . S
Li707 O767 1.956 . S
C708 C710 1.348 . S
C708 C711 1.356 . S
C708 O764 1.325 . S
N709 C712 1.314 . S
N709 C713 1.279 . S
C710 C708 1.348 . S
C710 C712 1.353 . S
C710 H768 0.929 . S
C711 C708 1.356 . S
C711 C713 1.358 . S
C711 H769 0.930 . S
C712 N709 1.314 . S
C712 C710 1.353 . S
C712 H770 0.930 . S
C713 N709 1.279 . S
C713 C711 1.358 . S
C713 H771 0.930 . S
C714 C717 1.348 . S
C714 C718 1.356 . S
C714 O765 1.325 . S
C715 N716 1.279 . S
C715 C718 1.358 . S
C715 H772 0.930 . S
N716 C715 1.279 . S
N716 C719 1.314 . S
C717 C714 1.348 . S
C717 C719 1.353 . S
C717 H773 0.929 . S
C718 C714 1.356 . S
C718 C715 1.358 . S
C718 H774 0.930 . S
C719 N716 1.314 . S
C719 C717 1.353 . S
C719 H775 0.930 . S
C720 N721 1.314 . S
C720 C725 1.353 . S
C720 H726 0.930 . S
N721 Li704 1.990 . S
N721 C720 1.314 . S
N721 C723 1.279 . S
C722 C723 1.358 . S
C722 C724 1.356 . S
C722 H776 0.930 . S
C723 N721 1.279 . S
C723 C722 1.358 . S
C723 H727 0.930 . S
C724 C722 1.356 . S
C724 C725 1.348 . S
C725 C720 1.353 . S
C725 C724 1.348 . S
C725 H777 0.929 . S
H726 C720 0.930 . S
H727 C723 0.930 . S
C728 N729 1.314 . S
C728 C730 1.353 . S
C728 H734 0.930 . S
N729 Li705 1.990 . S
N729 C728 1.314 . S
N729 C732 1.279 . S
C730 C728 1.353 . S
C730 C733 1.348 . S
C730 H778 0.929 . S
C731 C732 1.358 . S
C731 C733 1.356 . S
C731 H779 0.930 . S
C732 N729 1.279 . S
C732 C731 1.358 . S
C732 H735 0.930 . S
C733 C730 1.348 . S
C733 C731 1.356 . S
H734 C728 0.930 . S
H735 C732 0.930 . S
C736 C738 1.278 1_455 S
C736 C739 1.369 1_455 S
C736 O766 1.378 . S
N737 C740 1.314 . S
N737 C741 1.279 . S
C738 C736 1.278 1_655 S
C738 C740 1.353 . S
C738 H780 0.929 . S
C739 C736 1.369 1_655 S
C739 C741 1.358 . S
C739 H781 0.996 . S
C740 N737 1.314 . S
C740 C738 1.353 . S
C740 H782 0.930 . S
C741 N737 1.279 . S
C741 C739 1.358 . S
C741 H783 0.930 . S
C742 C743 1.268 1_455 S
C742 C744 1.356 . S
C742 O767 1.325 . S
C743 C742 1.268 1_655 S
C743 C745 1.404 . S
C743 H784 0.964 . S
C744 C742 1.356 . S
C744 C746 1.358 . S
C744 H785 0.930 . S
C745 C743 1.404 . S
C745 N747 1.314 1_655 S
C745 H786 0.930 . S
C746 C744 1.358 . S
C746 N747 1.279 . S
C746 H787 0.930 . S
N747 C745 1.314 1_455 S
N747 C746 1.279 . S
C748 C750 1.353 . S
C748 N751 1.314 . S
C748 H754 0.930 . S
C749 N751 1.279 . S
C749 C752 1.358 . S
C749 H755 0.930 . S
C750 C748 1.353 . S
C750 C753 1.348 . S
C750 H788 0.929 . S
N751 Li706 1.990 1_655 S
N751 C748 1.314 . S
N751 C749 1.279 . S
C752 C749 1.358 . S
C752 C753 1.356 . S
C752 H789 0.930 . S
C753 C750 1.348 . S
C753 C752 1.356 . S
H754 C748 0.930 . S
H755 C749 0.930 . S
C756 N757 1.314 . S
C756 C758 1.353 . S
C756 H762 0.930 . S
N757 Li707 1.990 . S
N757 C756 1.314 . S
N757 C760 1.279 . S
C758 C756 1.353 . S
C758 C761 1.348 . S
C758 H790 0.929 . S
C759 C760 1.358 . S
C759 C761 1.356 . S
C759 H791 0.930 . S
C760 N757 1.279 . S
C760 C759 1.358 . S
C760 H763 0.930 . S
C761 C758 1.348 . S
C761 C759 1.356 . S
H762 C756 0.930 . S
H763 C760 0.930 . S
O764 Li704 1.956 . S
O764 Li705 1.970 . S
O764 Li706 1.961 . S
O764 C708 1.325 . S
O765 Li704 1.970 . S
O765 Li705 1.956 . S
O765 Li707 1.961 . S
O765 C714 1.325 . S
O766 Li704 1.961 . S
O766 Li706 1.956 . S
O766 Li707 1.970 . S
O766 C736 1.378 . S
O767 Li705 1.961 . S
O767 Li706 1.970 . S
O767 Li707 1.956 . S
O767 C742 1.325 . S
H768 C710 0.929 . S
H769 C711 0.930 . S
H770 C712 0.930 . S
H771 C713 0.930 . S
H772 C715 0.930 . S
H773 C717 0.929 . S
H774 C718 0.930 . S
H775 C719 0.930 . S
H776 C722 0.930 . S
H777 C725 0.929 . S
H778 C730 0.929 . S
H779 C731 0.930 . S
H780 C738 0.929 . S
H781 C739 0.996 . S
H782 C740 0.930 . S
H783 C741 0.930 . S
H784 C743 0.964 . S
H785 C744 0.930 . S
H786 C745 0.930 . S
H787 C746 0.930 . S
H788 C750 0.929 . S
H789 C752 0.930 . S
H790 C758 0.929 . S
H791 C759 0.930 . S
Li792 N809 1.990 1_565 S
Li792 O852 1.956 . S
Li792 O853 1.970 . S
Li792 O854 1.961 . S
Li793 N817 1.990 . S
Li793 O852 1.970 . S
Li793 O853 1.956 . S
Li793 O855 1.961 . S
Li794 N839 1.990 . S
Li794 O852 1.961 . S
Li794 O854 1.956 . S
Li794 O855 1.970 . S
Li795 N845 1.990 . S
Li795 O853 1.961 . S
Li795 O854 1.970 . S
Li795 O855 1.956 . S
C796 C798 1.348 . S
C796 C799 1.356 . S
C796 O852 1.325 . S
N797 C800 1.314 . S
N797 C801 1.279 . S
C798 C796 1.348 . S
C798 C800 1.353 . S
C798 H856 0.929 . S
C799 C796 1.356 . S
C799 C801 1.358 . S
C799 H857 0.930 . S
C800 N797 1.314 . S
C800 C798 1.353 . S
C800 H858 0.930 . S
C801 N797 1.279 . S
C801 C799 1.358 . S
C801 H859 0.930 . S
C802 C805 1.348 . S
C802 C806 1.356 . S
C802 O853 1.325 . S
C803 N804 1.279 . S
C803 C806 1.358 . S
C803 H860 0.930 . S
N804 C803 1.279 . S
N804 C807 1.314 1_565 S
C805 C802 1.348 . S
C805 C807 1.353 1_565 S
C805 H861 0.929 1_565 S
C806 C802 1.356 . S
C806 C803 1.358 . S
C806 H862 0.930 . S
C807 N804 1.314 1_545 S
C807 C805 1.353 1_545 S
C807 H863 0.930 . S
C808 N809 1.314 . S
C808 C813 1.353 . S
C808 H814 0.930 . S
N809 Li792 1.990 1_545 S
N809 C808 1.314 . S
N809 C811 1.279 . S
C810 C811 1.358 . S
C810 C812 1.356 . S
C810 H864 0.930 . S
C811 N809 1.279 . S
C811 C810 1.358 . S
C811 H815 0.930 . S
C812 C810 1.356 . S
C812 C813 1.348 . S
C813 C808 1.353 . S
C813 C812 1.348 . S
C813 H865 0.929 . S
H814 C808 0.930 . S
H815 C811 0.930 . S
C816 N817 1.314 . S
C816 C818 1.353 . S
C816 H822 0.930 . S
N817 Li793 1.990 . S
N817 C816 1.314 . S
N817 C820 1.279 . S
C818 C816 1.353 . S
C818 C821 1.348 . S
C818 H866 0.929 . S
C819 C820 1.358 . S
C819 C821 1.356 . S
C819 H867 0.930 . S
C820 N817 1.279 . S
C820 C819 1.358 . S
C820 H823 0.930 . S
C821 C818 1.348 . S
C821 C819 1.356 . S
H822 C816 0.930 . S
H823 C820 0.930 . S
C824 C826 1.331 . S
C824 C827 1.358 . S
C824 O854 1.318 1_545 S
N825 C828 1.314 . S
N825 C829 1.279 . S
C826 C824 1.331 . S
C826 C828 1.385 . S
C826 H868 0.922 1_545 S
C827 C824 1.358 . S
C827 C829 1.358 . S
C827 H869 0.930 . S
C828 N825 1.314 . S
C828 C826 1.385 . S
C828 H870 0.930 . S
C829 N825 1.279 . S
C829 C827 1.358 . S
C829 H871 0.930 . S
C830 C831 1.348 . S
C830 C832 1.356 . S
C830 O855 1.325 . S
C831 C830 1.348 . S
C831 C833 1.353 . S
C831 H872 0.929 . S
C832 C830 1.356 . S
C832 C834 1.358 . S
C832 H873 0.930 . S
C833 C831 1.353 . S
C833 N835 1.314 . S
C833 H874 0.930 . S
C834 C832 1.358 . S
C834 N835 1.279 . S
C834 H875 0.930 . S
N835 C833 1.314 . S
N835 C834 1.279 . S
C836 C838 1.353 . S
C836 N839 1.314 . S
C836 H842 0.930 . S
C837 N839 1.279 . S
C837 C840 1.358 . S
C837 H843 0.930 . S
C838 C836 1.353 . S
C838 C841 1.348 . S
C838 H876 0.929 . S
N839 Li794 1.990 . S
N839 C836 1.314 . S
N839 C837 1.279 . S
C840 C837 1.358 . S
C840 C841 1.356 . S
C840 H877 0.930 . S
C841 C838 1.348 . S
C841 C840 1.356 . S
H842 C836 0.930 . S
H843 C837 0.930 . S
C844 N845 1.314 . S
C844 C846 1.353 . S
C844 H850 0.930 . S
N845 Li795 1.990 . S
N845 C844 1.314 . S
N845 C848 1.279 . S
C846 C844 1.353 . S
C846 C849 1.348 . S
C846 H878 0.909 1_565 S
C847 C848 1.358 . S
C847 C849 1.356 . S
C847 H879 0.930 . S
C848 N845 1.279 . S
C848 C847 1.358 . S
C848 H851 0.930 . S
C849 C846 1.348 . S
C849 C847 1.356 . S
H850 C844 0.930 . S
H851 C848 0.930 . S
O852 Li792 1.956 . S
O852 Li793 1.970 . S
O852 Li794 1.961 . S
O852 C796 1.325 . S
O853 Li792 1.970 . S
O853 Li793 1.956 . S
O853 Li795 1.961 . S
O853 C802 1.325 . S
O854 Li792 1.961 . S
O854 Li794 1.956 . S
O854 Li795 1.970 . S
O854 C824 1.318 1_565 S
O855 Li793 1.961 . S
O855 Li794 1.970 . S
O855 Li795 1.956 . S
O855 C830 1.325 . S
H856 C798 0.929 . S
H857 C799 0.930 . S
H858 C800 0.930 . S
H859 C801 0.930 . S
H860 C803 0.930 . S
H861 C805 0.929 1_545 S
H862 C806 0.930 . S
H863 C807 0.930 . S
H864 C810 0.930 . S
H865 C813 0.929 . S
H866 C818 0.929 . S
H867 C819 0.930 . S
H868 C826 0.922 1_565 S
H869 C827 0.930 . S
H870 C828 0.930 . S
H871 C829 0.930 . S
H872 C831 0.929 . S
H873 C832 0.930 . S
H874 C833 0.930 . S
H875 C834 0.930 . S
H876 C838 0.929 . S
H877 C840 0.930 . S
H878 C846 0.909 1_545 S
H879 C847 0.930 . S
Li880 N897 1.990 . S
Li880 O940 1.956 . S
Li880 O941 1.970 . S
Li880 O942 1.961 . S
Li881 N905 1.990 1_455 S
Li881 O940 1.970 . S
Li881 O941 1.956 . S
Li881 O943 1.961 . S
Li882 N927 1.990 . S
Li882 O940 1.961 . S
Li882 O942 1.956 . S
Li882 O943 1.970 . S
Li883 N933 1.990 . S
Li883 O941 1.961 . S
Li883 O942 1.970 . S
Li883 O943 1.956 . S
C884 C886 1.348 . S
C884 C887 1.356 . S
C884 O940 1.325 . S
N885 C888 1.314 1_455 S
N885 C889 1.279 . S
C886 C884 1.348 . S
C886 C888 1.353 1_455 S
C886 H944 0.929 1_455 S
C887 C884 1.356 . S
C887 C889 1.358 . S
C887 H945 0.930 . S
C888 N885 1.314 1_655 S
C888 C886 1.353 1_655 S
C888 H946 0.930 . S
C889 N885 1.279 . S
C889 C887 1.358 . S
C889 H947 0.930 . S
C890 C893 1.348 . S
C890 C894 1.356 . S
C890 O941 1.325 . S
C891 N892 1.279 . S
C891 C894 1.358 . S
C891 H948 0.930 . S
N892 C891 1.279 . S
N892 C895 1.314 . S
C893 C890 1.348 . S
C893 C895 1.353 . S
C893 H949 0.929 . S
C894 C890 1.356 . S
C894 C891 1.358 . S
C894 H950 0.930 . S
C895 N892 1.314 . S
C895 C893 1.353 . S
C895 H951 0.930 . S
C896 N897 1.314 . S
C896 C901 1.353 . S
C896 H902 0.930 . S
N897 Li880 1.990 . S
N897 C896 1.314 . S
N897 C899 1.279 . S
C898 C899 1.358 . S
C898 C900 1.356 . S
C898 H952 0.930 . S
C899 N897 1.279 . S
C899 C898 1.358 . S
C899 H903 0.930 . S
C900 C898 1.356 . S
C900 C901 1.348 . S
C901 C896 1.353 . S
C901 C900 1.348 . S
C901 H953 0.929 . S
H902 C896 0.930 . S
H903 C899 0.930 . S
C904 N905 1.314 . S
C904 C906 1.353 . S
C904 H910 0.930 . S
N905 Li881 1.990 1_655 S
N905 C904 1.314 . S
N905 C908 1.279 . S
C906 C904 1.353 . S
C906 C909 1.348 . S
C906 H954 0.929 . S
C907 C908 1.358 . S
C907 C909 1.356 . S
C907 H955 0.930 . S
C908 N905 1.279 . S
C908 C907 1.358 . S
C908 H911 0.930 . S
C909 C906 1.348 . S
C909 C907 1.356 . S
H910 C904 0.930 . S
H911 C908 0.930 . S
C912 C914 1.348 . S
C912 C915 1.356 . S
C912 O942 1.325 . S
N913 C916 1.314 . S
N913 C917 1.279 . S
C914 C912 1.348 . S
C914 C916 1.353 . S
C914 H956 0.929 . S
C915 C912 1.356 . S
C915 C917 1.358 . S
C915 H957 0.930 . S
C916 N913 1.314 . S
C916 C914 1.353 . S
C916 H958 0.930 . S
C917 N913 1.279 . S
C917 C915 1.358 . S
C917 H959 0.930 . S
C918 C919 1.321 . S
C918 C920 1.438 . S
C918 O943 1.276 1_655 S
C919 C918 1.321 . S
C919 C921 1.353 . S
C919 H960 0.929 1_655 S
C920 C918 1.438 . S
C920 C922 1.358 . S
C920 H961 0.930 . S
C921 C919 1.353 . S
C921 N923 1.314 . S
C921 H962 0.930 . S
C922 C920 1.358 . S
C922 N923 1.279 . S
C922 H963 0.930 . S
N923 C921 1.314 . S
N923 C922 1.279 . S
C924 C926 1.353 . S
C924 N927 1.314 . S
C924 H930 0.930 . S
C925 N927 1.279 . S
C925 C928 1.358 . S
C925 H931 0.930 . S
C926 C924 1.353 . S
C926 C929 1.348 . S
C926 H964 0.890 1_455 S
N927 Li882 1.990 . S
N927 C924 1.314 . S
N927 C925 1.279 . S
C928 C925 1.358 . S
C928 C929 1.356 . S
C928 H965 0.930 . S
C929 C926 1.348 . S
C929 C928 1.356 . S
H930 C924 0.930 . S
H931 C925 0.930 . S
C932 N933 1.314 . S
C932 C934 1.353 . S
C932 H938 0.930 . S
N933 Li883 1.990 . S
N933 C932 1.314 . S
N933 C936 1.279 . S
C934 C932 1.353 . S
C934 C937 1.348 . S
C934 H966 0.929 . S
C935 C936 1.358 . S
C935 C937 1.356 . S
C935 H967 0.930 . S
C936 N933 1.279 . S
C936 C935 1.358 . S
C936 H939 0.930 . S
C937 C934 1.348 . S
C937 C935 1.356 . S
H938 C932 0.930 . S
H939 C936 0.930 . S
O940 Li880 1.956 . S
O940 Li881 1.970 . S
O940 Li882 1.961 . S
O940 C884 1.325 . S
O941 Li880 1.970 . S
O941 Li881 1.956 . S
O941 Li883 1.961 . S
O941 C890 1.325 . S
O942 Li880 1.961 . S
O942 Li882 1.956 . S
O942 Li883 1.970 . S
O942 C912 1.325 . S
O943 Li881 1.961 . S
O943 Li882 1.970 . S
O943 Li883 1.956 . S
O943 C918 1.276 1_455 S
H944 C886 0.929 1_655 S
H945 C887 0.930 . S
H946 C888 0.930 . S
H947 C889 0.930 . S
H948 C891 0.930 . S
H949 C893 0.929 . S
H950 C894 0.930 . S
H951 C895 0.930 . S
H952 C898 0.930 . S
H953 C901 0.929 . S
H954 C906 0.929 . S
H955 C907 0.930 . S
H956 C914 0.929 . S
H957 C915 0.930 . S
H958 C916 0.930 . S
H959 C917 0.930 . S
H960 C919 0.929 1_455 S
H961 C920 0.930 . S
H962 C921 0.930 . S
H963 C922 0.930 . S
H964 C926 0.890 1_655 S
H965 C928 0.930 . S
H966 C934 0.929 . S
H967 C935 0.930 . S
Li968 N985 1.990 . S
Li968 O1028 1.956 . S
Li968 O1029 1.970 . S
Li968 O1030 1.961 . S
Li969 N993 1.990 . S
Li969 O1028 1.970 . S
Li969 O1029 1.956 . S
Li969 O1031 1.961 . S
Li970 N1015 1.990 . S
Li970 O1028 1.961 . S
Li970 O1030 1.956 . S
Li970 O1031 1.970 . S
Li971 N1021 1.990 . S
Li971 O1029 1.961 . S
Li971 O1030 1.970 . S
Li971 O1031 1.956 . S
C972 C974 1.348 . S
C972 C975 1.356 . S
C972 O1028 1.325 . S
N973 C976 1.314 . S
N973 C977 1.279 . S
C974 C972 1.348 . S
C974 C976 1.353 . S
C974 H1032 0.929 . S
C975 C972 1.356 . S
C975 C977 1.358 . S
C975 H1033 0.930 . S
C976 N973 1.314 . S
C976 C974 1.353 . S
C976 H1034 0.930 . S
C977 N973 1.279 . S
C977 C975 1.358 . S
C977 H1035 0.930 . S
C978 C981 1.348 . S
C978 C982 1.356 . S
C978 O1029 1.325 . S
C979 N980 1.279 . S
C979 C982 1.358 . S
C979 H1036 0.930 . S
N980 C979 1.279 . S
N980 C983 1.314 . S
C981 C978 1.348 . S
C981 C983 1.353 . S
C981 H1037 0.929 . S
C982 C978 1.356 . S
C982 C979 1.358 . S
C982 H1038 0.930 . S
C983 N980 1.314 . S
C983 C981 1.353 . S
C983 H1039 0.930 . S
C984 N985 1.314 . S
C984 C989 1.353 . S
C984 H990 0.930 . S
N985 Li968 1.990 . S
N985 C984 1.314 . S
N985 C987 1.279 . S
C986 C987 1.358 . S
C986 C988 1.356 . S
C986 H1040 0.930 . S
C987 N985 1.279 . S
C987 C986 1.358 . S
C987 H991 0.930 . S
C988 C986 1.356 . S
C988 C989 1.348 . S
C989 C984 1.353 . S
C989 C988 1.348 . S
C989 H1041 0.929 . S
H990 C984 0.930 . S
H991 C987 0.930 . S
C992 N993 1.314 . S
C992 C994 1.353 . S
C992 H998 0.930 . S
N993 Li969 1.990 . S
N993 C992 1.314 . S
N993 C996 1.279 . S
C994 C992 1.353 . S
C994 C997 1.348 . S
C994 H1042 0.929 . S
C995 C996 1.358 . S
C995 C997 1.356 . S
C995 H1043 0.930 . S
C996 N993 1.279 . S
C996 C995 1.358 . S
C996 H999 0.930 . S
C997 C994 1.348 . S
C997 C995 1.356 . S
H998 C992 0.930 . S
H999 C996 0.930 . S
C1000 C1002 1.348 . S
C1000 C1003 1.356 . S
C1000 O1030 1.325 . S
N1001 C1004 1.314 . S
N1001 C1005 1.279 . S
C1002 C1000 1.348 . S
C1002 C1004 1.353 . S
C1002 H1044 0.929 . S
C1003 C1000 1.356 . S
C1003 C1005 1.358 . S
C1003 H1045 0.930 . S
C1004 N1001 1.314 . S
C1004 C1002 1.353 . S
C1004 H1046 0.930 . S
C1005 N1001 1.279 . S
C1005 C1003 1.358 . S
C1005 H1047 0.930 . S
C1006 C1007 1.348 . S
C1006 C1008 1.356 . S
C1006 O1031 1.325 . S
C1007 C1006 1.348 . S
C1007 C1009 1.353 . S
C1007 H1048 0.929 . S
C1008 C1006 1.356 . S
C1008 C1010 1.358 . S
C1008 H1049 0.930 . S
C1009 C1007 1.353 . S
C1009 N1011 1.314 . S
C1009 H1050 0.930 . S
C1010 C1008 1.358 . S
C1010 N1011 1.279 . S
C1010 H1051 0.930 . S
N1011 C1009 1.314 . S
N1011 C1010 1.279 . S
C1012 C1014 1.353 . S
C1012 N1015 1.314 . S
C1012 H1018 0.930 . S
C1013 N1015 1.279 . S
C1013 C1016 1.358 . S
C1013 H1019 0.930 . S
C1014 C1012 1.353 . S
C1014 C1017 1.348 . S
C1014 H1052 0.929 . S
N1015 Li970 1.990 . S
N1015 C1012 1.314 . S
N1015 C1013 1.279 . S
C1016 C1013 1.358 . S
C1016 C1017 1.356 . S
C1016 H1053 0.930 . S
C1017 C1014 1.348 . S
C1017 C1016 1.356 . S
H1018 C1012 0.930 . S
H1019 C1013 0.930 . S
C1020 N1021 1.314 . S
C1020 C1022 1.353 . S
C1020 H1026 0.930 . S
N1021 Li971 1.990 . S
N1021 C1020 1.314 . S
N1021 C1024 1.279 . S
C1022 C1020 1.353 . S
C1022 C1025 1.348 . S
C1022 H1054 0.929 . S
C1023 C1024 1.358 . S
C1023 C1025 1.356 . S
C1023 H1055 0.930 . S
C1024 N1021 1.279 . S
C1024 C1023 1.358 . S
C1024 H1027 0.930 . S
C1025 C1022 1.348 . S
C1025 C1023 1.356 . S
H1026 C1020 0.930 . S
H1027 C1024 0.930 . S
O1028 Li968 1.956 . S
O1028 Li969 1.970 . S
O1028 Li970 1.961 . S
O1028 C972 1.325 . S
O1029 Li968 1.970 . S
O1029 Li969 1.956 . S
O1029 Li971 1.961 . S
O1029 C978 1.325 . S
O1030 Li968 1.961 . S
O1030 Li970 1.956 . S
O1030 Li971 1.970 . S
O1030 C1000 1.325 . S
O1031 Li969 1.961 . S
O1031 Li970 1.970 . S
O1031 Li971 1.956 . S
O1031 C1006 1.325 . S
H1032 C974 0.929 . S
H1033 C975 0.930 . S
H1034 C976 0.930 . S
H1035 C977 0.930 . S
H1036 C979 0.930 . S
H1037 C981 0.929 . S
H1038 C982 0.930 . S
H1039 C983 0.930 . S
H1040 C986 0.930 . S
H1041 C989 0.929 . S
H1042 C994 0.929 . S
H1043 C995 0.930 . S
H1044 C1002 0.929 . S
H1045 C1003 0.930 . S
H1046 C1004 0.930 . S
H1047 C1005 0.930 . S
H1048 C1007 0.929 . S
H1049 C1008 0.930 . S
H1050 C1009 0.930 . S
H1051 C1010 0.930 . S
H1052 C1014 0.929 . S
H1053 C1016 0.930 . S
H1054 C1022 0.929 . S
H1055 C1023 0.930 . S
Li1056 N1073 1.990 1_545 S
Li1056 O1116 1.956 . S
Li1056 O1117 1.970 . S
Li1056 O1118 1.961 . S
Li1057 N1081 1.990 . S
Li1057 O1116 1.970 . S
Li1057 O1117 1.956 . S
Li1057 O1119 1.961 . S
Li1058 N1103 1.990 . S
Li1058 O1116 1.961 . S
Li1058 O1118 1.956 . S
Li1058 O1119 1.970 . S
Li1059 N1109 1.990 . S
Li1059 O1117 1.961 . S
Li1059 O1118 1.970 . S
Li1059 O1119 1.956 . S
C1060 C1062 1.278 1_545 S
C1060 C1063 1.369 1_545 S
C1060 O1116 1.378 . S
N1061 C1064 1.314 . S
N1061 C1065 1.279 . S
C1062 C1060 1.278 1_565 S
C1062 C1064 1.353 . S
C1062 H1120 0.929 . S
C1063 C1060 1.369 1_565 S
C1063 C1065 1.358 . S
C1063 H1121 0.996 . S
C1064 N1061 1.314 . S
C1064 C1062 1.353 . S
C1064 H1122 0.930 . S
C1065 N1061 1.279 . S
C1065 C1063 1.358 . S
C1065 H1123 0.930 . S
C1066 C1069 1.268 1_545 S
C1066 C1070 1.356 . S
C1066 O1117 1.325 . S
C1067 N1068 1.279 . S
C1067 C1070 1.358 . S
C1067 H1124 0.930 . S
N1068 C1067 1.279 . S
N1068 C1071 1.314 1_545 S
C1069 C1066 1.268 1_565 S
C1069 C1071 1.404 . S
C1069 H1125 0.964 . S
C1070 C1066 1.356 . S
C1070 C1067 1.358 . S
C1070 H1126 0.930 . S
C1071 N1068 1.314 1_565 S
C1071 C1069 1.404 . S
C1071 H1127 0.930 . S
C1072 N1073 1.314 . S
C1072 C1077 1.353 . S
C1072 H1078 0.930 . S
N1073 Li1056 1.990 1_565 S
N1073 C1072 1.314 . S
N1073 C1075 1.279 . S
C1074 C1075 1.358 . S
C1074 C1076 1.356 . S
C1074 H1128 0.930 . S
C1075 N1073 1.279 . S
C1075 C1074 1.358 . S
C1075 H1079 0.930 . S
C1076 C1074 1.356 . S
C1076 C1077 1.348 . S
C1077 C1072 1.353 . S
C1077 C1076 1.348 . S
C1077 H1129 0.929 . S
H1078 C1072 0.930 . S
H1079 C1075 0.930 . S
C1080 N1081 1.314 . S
C1080 C1082 1.353 . S
C1080 H1086 0.930 . S
N1081 Li1057 1.990 . S
N1081 C1080 1.314 . S
N1081 C1084 1.279 . S
C1082 C1080 1.353 . S
C1082 C1085 1.348 . S
C1082 H1130 0.929 . S
C1083 C1084 1.358 . S
C1083 C1085 1.356 . S
C1083 H1131 0.930 . S
C1084 N1081 1.279 . S
C1084 C1083 1.358 . S
C1084 H1087 0.930 . S
C1085 C1082 1.348 . S
C1085 C1083 1.356 . S
H1086 C1080 0.930 . S
H1087 C1084 0.930 . S
C1088 C1090 1.348 . S
C1088 C1091 1.356 . S
C1088 O1118 1.325 . S
N1089 C1092 1.314 . S
N1089 C1093 1.279 . S
C1090 C1088 1.348 . S
C1090 C1092 1.353 . S
C1090 H1132 0.929 . S
C1091 C1088 1.356 . S
C1091 C1093 1.358 . S
C1091 H1133 0.930 . S
C1092 N1089 1.314 . S
C1092 C1090 1.353 . S
C1092 H1134 0.930 . S
C1093 N1089 1.279 . S
C1093 C1091 1.358 . S
C1093 H1135 0.930 . S
C1094 C1095 1.348 . S
C1094 C1096 1.356 . S
C1094 O1119 1.325 . S
C1095 C1094 1.348 . S
C1095 C1097 1.353 . S
C1095 H1136 0.929 . S
C1096 C1094 1.356 . S
C1096 C1098 1.358 . S
C1096 H1137 0.930 . S
C1097 C1095 1.353 . S
C1097 N1099 1.314 . S
C1097 H1138 0.930 . S
C1098 C1096 1.358 . S
C1098 N1099 1.279 . S
C1098 H1139 0.930 . S
N1099 C1097 1.314 . S
N1099 C1098 1.279 . S
C1100 C1102 1.353 . S
C1100 N1103 1.314 . S
C1100 H1106 0.930 . S
C1101 N1103 1.279 . S
C1101 C1104 1.358 . S
C1101 H1107 0.930 . S
C1102 C1100 1.353 . S
C1102 C1105 1.348 . S
C1102 H1140 0.929 . S
N1103 Li1058 1.990 . S
N1103 C1100 1.314 . S
N1103 C1101 1.279 . S
C1104 C1101 1.358 . S
C1104 C1105 1.356 . S
C1104 H1141 0.930 . S
C1105 C1102 1.348 . S
C1105 C1104 1.356 . S
H1106 C1100 0.930 . S
H1107 C1101 0.930 . S
C1108 N1109 1.314 . S
C1108 C1110 1.353 . S
C1108 H1114 0.930 . S
N1109 Li1059 1.990 . S
N1109 C1108 1.314 . S
N1109 C1112 1.279 . S
C1110 C1108 1.353 . S
C1110 C1113 1.348 . S
C1110 H1142 0.929 . S
C1111 C1112 1.358 . S
C1111 C1113 1.356 . S
C1111 H1143 0.930 . S
C1112 N1109 1.279 . S
C1112 C1111 1.358 . S
C1112 H1115 0.930 . S
C1113 C1110 1.348 . S
C1113 C1111 1.356 . S
H1114 C1108 0.930 . S
H1115 C1112 0.930 . S
O1116 Li1056 1.956 . S
O1116 Li1057 1.970 . S
O1116 Li1058 1.961 . S
O1116 C1060 1.378 . S
O1117 Li1056 1.970 . S
O1117 Li1057 1.956 . S
O1117 Li1059 1.961 . S
O1117 C1066 1.325 . S
O1118 Li1056 1.961 . S
O1118 Li1058 1.956 . S
O1118 Li1059 1.970 . S
O1118 C1088 1.325 . S
O1119 Li1057 1.961 . S
O1119 Li1058 1.970 . S
O1119 Li1059 1.956 . S
O1119 C1094 1.325 . S
H1120 C1062 0.929 . S
H1121 C1063 0.996 . S
H1122 C1064 0.930 . S
H1123 C1065 0.930 . S
H1124 C1067 0.930 . S
H1125 C1069 0.964 . S
H1126 C1070 0.930 . S
H1127 C1071 0.930 . S
H1128 C1074 0.930 . S
H1129 C1077 0.929 . S
H1130 C1082 0.929 . S
H1131 C1083 0.930 . S
H1132 C1090 0.929 . S
H1133 C1091 0.930 . S
H1134 C1092 0.930 . S
H1135 C1093 0.930 . S
H1136 C1095 0.929 . S
H1137 C1096 0.930 . S
H1138 C1097 0.930 . S
H1139 C1098 0.930 . S
H1140 C1102 0.929 . S
H1141 C1104 0.930 . S
H1142 C1110 0.929 . S
H1143 C1111 0.930 . S
Li1144 N1161 1.990 1_655 S
Li1144 O1204 1.956 . S
Li1144 O1205 1.970 . S
Li1144 O1206 1.961 . S
Li1145 N1169 1.990 . S
Li1145 O1204 1.970 . S
Li1145 O1205 1.956 . S
Li1145 O1207 1.961 . S
Li1146 N1191 1.990 . S
Li1146 O1204 1.961 . S
Li1146 O1206 1.956 . S
Li1146 O1207 1.970 . S
Li1147 N1197 1.990 . S
Li1147 O1205 1.961 . S
Li1147 O1206 1.970 . S
Li1147 O1207 1.956 . S
C1148 C1150 1.348 . S
C1148 C1151 1.356 . S
C1148 O1204 1.325 1_455 S
N1149 C1152 1.314 . S
N1149 C1153 1.279 . S
C1150 C1148 1.348 . S
C1150 C1152 1.353 . S
C1150 H1208 0.929 . S
C1151 C1148 1.356 . S
C1151 C1153 1.358 . S
C1151 H1209 0.930 . S
C1152 N1149 1.314 . S
C1152 C1150 1.353 . S
C1152 H1210 0.930 . S
C1153 N1149 1.279 . S
C1153 C1151 1.358 . S
C1153 H1211 0.930 . S
C1154 C1157 1.348 1_655 S
C1154 C1158 1.356 . S
C1154 O1205 1.325 . S
C1155 N1156 1.279 . S
C1155 C1158 1.358 . S
C1155 H1212 0.930 . S
N1156 C1155 1.279 . S
N1156 C1159 1.314 1_655 S
C1157 C1154 1.348 1_455 S
C1157 C1159 1.353 . S
C1157 H1213 0.929 . S
C1158 C1154 1.356 . S
C1158 C1155 1.358 . S
C1158 H1214 0.930 . S
C1159 N1156 1.314 1_455 S
C1159 C1157 1.353 . S
C1159 H1215 0.930 . S
C1160 N1161 1.314 . S
C1160 C1165 1.353 . S
C1160 H1166 0.930 . S
N1161 Li1144 1.990 1_455 S
N1161 C1160 1.314 . S
N1161 C1163 1.279 . S
C1162 C1163 1.358 . S
C1162 C1164 1.356 . S
C1162 H1216 0.930 . S
C1163 N1161 1.279 . S
C1163 C1162 1.358 . S
C1163 H1167 0.930 . S
C1164 C1162 1.356 . S
C1164 C1165 1.348 . S
C1165 C1160 1.353 . S
C1165 C1164 1.348 . S
C1165 H1217 0.929 . S
H1166 C1160 0.930 . S
H1167 C1163 0.930 . S
C1168 N1169 1.314 . S
C1168 C1170 1.353 . S
C1168 H1174 0.930 . S
N1169 Li1145 1.990 . S
N1169 C1168 1.314 . S
N1169 C1172 1.279 . S
C1170 C1168 1.353 . S
C1170 C1173 1.348 . S
C1170 H1218 0.929 . S
C1171 C1172 1.358 . S
C1171 C1173 1.356 . S
C1171 H1219 0.930 . S
C1172 N1169 1.279 . S
C1172 C1171 1.358 . S
C1172 H1175 0.930 . S
C1173 C1170 1.348 . S
C1173 C1171 1.356 . S
H1174 C1168 0.930 . S
H1175 C1172 0.930 . S
C1176 C1178 1.348 . S
C1176 C1179 1.356 . S
C1176 O1206 1.325 . S
N1177 C1180 1.314 . S
N1177 C1181 1.279 . S
C1178 C1176 1.348 . S
C1178 C1180 1.353 . S
C1178 H1220 0.929 . S
C1179 C1176 1.356 . S
C1179 C1181 1.358 . S
C1179 H1221 0.930 . S
C1180 N1177 1.314 . S
C1180 C1178 1.353 . S
C1180 H1222 0.930 . S
C1181 N1177 1.279 . S
C1181 C1179 1.358 . S
C1181 H1223 0.930 . S
C1182 C1183 1.348 . S
C1182 C1184 1.356 . S
C1182 O1207 1.325 . S
C1183 C1182 1.348 . S
C1183 C1185 1.353 . S
C1183 H1224 0.929 . S
C1184 C1182 1.356 . S
C1184 C1186 1.358 . S
C1184 H1225 0.930 . S
C1185 C1183 1.353 . S
C1185 N1187 1.314 . S
C1185 H1226 0.930 . S
C1186 C1184 1.358 . S
C1186 N1187 1.279 . S
C1186 H1227 0.930 . S
N1187 C1185 1.314 . S
N1187 C1186 1.279 . S
C1188 C1190 1.353 . S
C1188 N1191 1.314 . S
C1188 H1194 0.930 . S
C1189 N1191 1.279 . S
C1189 C1192 1.358 . S
C1189 H1195 0.930 . S
C1190 C1188 1.353 . S
C1190 C1193 1.348 . S
C1190 H1228 0.929 . S
N1191 Li1146 1.990 . S
N1191 C1188 1.314 . S
N1191 C1189 1.279 . S
C1192 C1189 1.358 . S
C1192 C1193 1.356 . S
C1192 H1229 0.930 . S
C1193 C1190 1.348 . S
C1193 C1192 1.356 . S
H1194 C1188 0.930 . S
H1195 C1189 0.930 . S
C1196 N1197 1.314 . S
C1196 C1198 1.353 . S
C1196 H1202 0.930 . S
N1197 Li1147 1.990 . S
N1197 C1196 1.314 . S
N1197 C1200 1.279 . S
C1198 C1196 1.353 . S
C1198 C1201 1.348 . S
C1198 H1230 0.929 . S
C1199 C1200 1.358 . S
C1199 C1201 1.356 . S
C1199 H1231 0.930 . S
C1200 N1197 1.279 . S
C1200 C1199 1.358 . S
C1200 H1203 0.930 . S
C1201 C1198 1.348 . S
C1201 C1199 1.356 . S
H1202 C1196 0.930 . S
H1203 C1200 0.930 . S
O1204 Li1144 1.956 . S
O1204 Li1145 1.970 . S
O1204 Li1146 1.961 . S
O1204 C1148 1.325 1_655 S
O1205 Li1144 1.970 . S
O1205 Li1145 1.956 . S
O1205 Li1147 1.961 . S
O1205 C1154 1.325 . S
O1206 Li1144 1.961 . S
O1206 Li1146 1.956 . S
O1206 Li1147 1.970 . S
O1206 C1176 1.325 . S
O1207 Li1145 1.961 . S
O1207 Li1146 1.970 . S
O1207 Li1147 1.956 . S
O1207 C1182 1.325 . S
H1208 C1150 0.929 . S
H1209 C1151 0.930 . S
H1210 C1152 0.930 . S
H1211 C1153 0.930 . S
H1212 C1155 0.930 . S
H1213 C1157 0.929 . S
H1214 C1158 0.930 . S
H1215 C1159 0.930 . S
H1216 C1162 0.930 . S
H1217 C1165 0.929 . S
H1218 C1170 0.929 . S
H1219 C1171 0.930 . S
H1220 C1178 0.929 . S
H1221 C1179 0.930 . S
H1222 C1180 0.930 . S
H1223 C1181 0.930 . S
H1224 C1183 0.929 . S
H1225 C1184 0.930 . S
H1226 C1185 0.930 . S
H1227 C1186 0.930 . S
H1228 C1190 0.929 . S
H1229 C1192 0.930 . S
H1230 C1198 0.929 . S
H1231 C1199 0.930 . S
Li1232 N1249 1.990 . S
Li1232 O1292 1.956 . S
Li1232 O1293 1.970 . S
Li1232 O1294 1.961 . S
Li1233 N1257 1.990 . S
Li1233 O1292 1.970 . S
Li1233 O1293 1.956 . S
Li1233 O1295 1.961 . S
Li1234 N1279 1.990 . S
Li1234 O1292 1.961 . S
Li1234 O1294 1.956 . S
Li1234 O1295 1.970 . S
Li1235 N1285 1.990 . S
Li1235 O1293 1.961 . S
Li1235 O1294 1.970 . S
Li1235 O1295 1.956 . S
C1236 C1238 1.348 . S
C1236 C1239 1.356 . S
C1236 O1292 1.325 . S
N1237 C1240 1.314 . S
N1237 C1241 1.279 . S
C1238 C1236 1.348 . S
C1238 C1240 1.353 . S
C1238 H1296 0.929 . S
C1239 C1236 1.356 . S
C1239 C1241 1.358 . S
C1239 H1297 0.930 . S
C1240 N1237 1.314 . S
C1240 C1238 1.353 . S
C1240 H1298 0.930 . S
C1241 N1237 1.279 . S
C1241 C1239 1.358 . S
C1241 H1299 0.930 . S
C1242 C1245 1.348 . S
C1242 C1246 1.356 . S
C1242 O1293 1.325 . S
C1243 N1244 1.279 . S
C1243 C1246 1.358 . S
C1243 H1300 0.930 . S
N1244 C1243 1.279 . S
N1244 C1247 1.314 . S
C1245 C1242 1.348 . S
C1245 C1247 1.353 . S
C1245 H1301 0.929 . S
C1246 C1242 1.356 . S
C1246 C1243 1.358 . S
C1246 H1302 0.930 . S
C1247 N1244 1.314 . S
C1247 C1245 1.353 . S
C1247 H1303 0.930 . S
C1248 N1249 1.314 . S
C1248 C1253 1.353 . S
C1248 H1254 0.930 . S
N1249 Li1232 1.990 . S
N1249 C1248 1.314 . S
N1249 C1251 1.279 . S
C1250 C1251 1.358 . S
C1250 C1252 1.356 . S
C1250 H1304 0.930 . S
C1251 N1249 1.279 . S
C1251 C1250 1.358 . S
C1251 H1255 0.930 . S
C1252 C1250 1.356 . S
C1252 C1253 1.348 . S
C1253 C1248 1.353 . S
C1253 C1252 1.348 . S
C1253 H1305 0.929 . S
H1254 C1248 0.930 . S
H1255 C1251 0.930 . S
C1256 N1257 1.314 . S
C1256 C1258 1.353 . S
C1256 H1262 0.930 . S
N1257 Li1233 1.990 . S
N1257 C1256 1.314 . S
N1257 C1260 1.279 . S
C1258 C1256 1.353 . S
C1258 C1261 1.348 . S
C1258 H1306 0.929 . S
C1259 C1260 1.358 . S
C1259 C1261 1.356 . S
C1259 H1307 0.930 . S
C1260 N1257 1.279 . S
C1260 C1259 1.358 . S
C1260 H1263 0.930 . S
C1261 C1258 1.348 . S
C1261 C1259 1.356 . S
H1262 C1256 0.930 . S
H1263 C1260 0.930 . S
C1264 C1266 1.348 . S
C1264 C1267 1.356 . S
C1264 O1294 1.325 . S
N1265 C1268 1.314 . S
N1265 C1269 1.279 . S
C1266 C1264 1.348 . S
C1266 C1268 1.353 . S
C1266 H1308 0.929 . S
C1267 C1264 1.356 . S
C1267 C1269 1.358 . S
C1267 H1309 0.930 . S
C1268 N1265 1.314 . S
C1268 C1266 1.353 . S
C1268 H1310 0.930 . S
C1269 N1265 1.279 . S
C1269 C1267 1.358 . S
C1269 H1311 0.930 . S
C1270 C1271 1.348 . S
C1270 C1272 1.356 . S
C1270 O1295 1.325 . S
C1271 C1270 1.348 . S
C1271 C1273 1.353 . S
C1271 H1312 0.929 . S
C1272 C1270 1.356 . S
C1272 C1274 1.358 . S
C1272 H1313 0.930 . S
C1273 C1271 1.353 . S
C1273 N1275 1.314 . S
C1273 H1314 0.930 . S
C1274 C1272 1.358 . S
C1274 N1275 1.279 . S
C1274 H1315 0.930 . S
N1275 C1273 1.314 . S
N1275 C1274 1.279 . S
C1276 C1278 1.353 . S
C1276 N1279 1.314 . S
C1276 H1282 0.930 . S
C1277 N1279 1.279 . S
C1277 C1280 1.358 . S
C1277 H1283 0.930 . S
C1278 C1276 1.353 . S
C1278 C1281 1.348 . S
C1278 H1316 0.929 . S
N1279 Li1234 1.990 . S
N1279 C1276 1.314 . S
N1279 C1277 1.279 . S
C1280 C1277 1.358 . S
C1280 C1281 1.356 . S
C1280 H1317 0.930 . S
C1281 C1278 1.348 . S
C1281 C1280 1.356 . S
H1282 C1276 0.930 . S
H1283 C1277 0.930 . S
C1284 N1285 1.314 . S
C1284 C1286 1.353 . S
C1284 H1290 0.930 . S
N1285 Li1235 1.990 . S
N1285 C1284 1.314 . S
N1285 C1288 1.279 . S
C1286 C1284 1.353 . S
C1286 C1289 1.348 . S
C1286 H1318 0.929 . S
C1287 C1288 1.358 . S
C1287 C1289 1.356 . S
C1287 H1319 0.930 . S
C1288 N1285 1.279 . S
C1288 C1287 1.358 . S
C1288 H1291 0.930 . S
C1289 C1286 1.348 . S
C1289 C1287 1.356 . S
H1290 C1284 0.930 . S
H1291 C1288 0.930 . S
O1292 Li1232 1.956 . S
O1292 Li1233 1.970 . S
O1292 Li1234 1.961 . S
O1292 C1236 1.325 . S
O1293 Li1232 1.970 . S
O1293 Li1233 1.956 . S
O1293 Li1235 1.961 . S
O1293 C1242 1.325 . S
O1294 Li1232 1.961 . S
O1294 Li1234 1.956 . S
O1294 Li1235 1.970 . S
O1294 C1264 1.325 . S
O1295 Li1233 1.961 . S
O1295 Li1234 1.970 . S
O1295 Li1235 1.956 . S
O1295 C1270 1.325 . S
H1296 C1238 0.929 . S
H1297 C1239 0.930 . S
H1298 C1240 0.930 . S
H1299 C1241 0.930 . S
H1300 C1243 0.930 . S
H1301 C1245 0.929 . S
H1302 C1246 0.930 . S
H1303 C1247 0.930 . S
H1304 C1250 0.930 . S
H1305 C1253 0.929 . S
H1306 C1258 0.929 . S
H1307 C1259 0.930 . S
H1308 C1266 0.929 . S
H1309 C1267 0.930 . S
H1310 C1268 0.930 . S
H1311 C1269 0.930 . S
H1312 C1271 0.929 . S
H1313 C1272 0.930 . S
H1314 C1273 0.930 . S
H1315 C1274 0.930 . S
H1316 C1278 0.929 . S
H1317 C1280 0.930 . S
H1318 C1286 0.929 . S
H1319 C1287 0.930 . S
Li1320 N1337 1.990 . S
Li1320 O1380 1.956 . S
Li1320 O1381 1.970 . S
Li1320 O1382 1.961 . S
Li1321 N1345 1.990 . S
Li1321 O1380 1.970 . S
Li1321 O1381 1.956 . S
Li1321 O1383 1.961 . S
Li1322 N1367 1.990 . S
Li1322 O1380 1.961 . S
Li1322 O1382 1.956 . S
Li1322 O1383 1.970 . S
Li1323 N1373 1.990 . S
Li1323 O1381 1.961 . S
Li1323 O1382 1.970 . S
Li1323 O1383 1.956 . S
C1324 C1326 1.348 . S
C1324 C1327 1.356 . S
C1324 O1380 1.325 . S
N1325 C1328 1.314 . S
N1325 C1329 1.279 . S
C1326 C1324 1.348 . S
C1326 C1328 1.353 . S
C1326 H1384 0.929 . S
C1327 C1324 1.356 . S
C1327 C1329 1.358 . S
C1327 H1385 0.930 . S
C1328 N1325 1.314 . S
C1328 C1326 1.353 . S
C1328 H1386 0.930 . S
C1329 N1325 1.279 . S
C1329 C1327 1.358 . S
C1329 H1387 0.930 . S
C1330 C1333 1.348 . S
C1330 C1334 1.356 . S
C1330 O1381 1.325 . S
C1331 N1332 1.279 . S
C1331 C1334 1.358 . S
C1331 H1388 0.930 . S
N1332 C1331 1.279 . S
N1332 C1335 1.314 . S
C1333 C1330 1.348 . S
C1333 C1335 1.353 . S
C1333 H1389 0.929 . S
C1334 C1330 1.356 . S
C1334 C1331 1.358 . S
C1334 H1390 0.930 . S
C1335 N1332 1.314 . S
C1335 C1333 1.353 . S
C1335 H1391 0.930 . S
C1336 N1337 1.314 . S
C1336 C1341 1.353 . S
C1336 H1342 0.930 . S
N1337 Li1320 1.990 . S
N1337 C1336 1.314 . S
N1337 C1339 1.279 . S
C1338 C1339 1.358 . S
C1338 C1340 1.356 . S
C1338 H1392 0.930 . S
C1339 N1337 1.279 . S
C1339 C1338 1.358 . S
C1339 H1343 0.930 . S
C1340 C1338 1.356 . S
C1340 C1341 1.348 . S
C1341 C1336 1.353 . S
C1341 C1340 1.348 . S
C1341 H1393 0.929 . S
H1342 C1336 0.930 . S
H1343 C1339 0.930 . S
C1344 N1345 1.314 . S
C1344 C1346 1.353 . S
C1344 H1350 0.930 . S
N1345 Li1321 1.990 . S
N1345 C1344 1.314 . S
N1345 C1348 1.279 . S
C1346 C1344 1.353 . S
C1346 C1349 1.348 . S
C1346 H1394 0.929 . S
C1347 C1348 1.358 . S
C1347 C1349 1.356 . S
C1347 H1395 0.930 . S
C1348 N1345 1.279 . S
C1348 C1347 1.358 . S
C1348 H1351 0.930 . S
C1349 C1346 1.348 . S
C1349 C1347 1.356 . S
H1350 C1344 0.930 . S
H1351 C1348 0.930 . S
C1352 C1354 1.348 . S
C1352 C1355 1.356 . S
C1352 O1382 1.325 . S
N1353 C1356 1.314 . S
N1353 C1357 1.279 . S
C1354 C1352 1.348 . S
C1354 C1356 1.353 . S
C1354 H1396 0.929 . S
C1355 C1352 1.356 . S
C1355 C1357 1.358 . S
C1355 H1397 0.930 . S
C1356 N1353 1.314 . S
C1356 C1354 1.353 . S
C1356 H1398 0.930 . S
C1357 N1353 1.279 . S
C1357 C1355 1.358 . S
C1357 H1399 0.930 . S
C1358 C1359 1.348 . S
C1358 C1360 1.356 . S
C1358 O1383 1.325 . S
C1359 C1358 1.348 . S
C1359 C1361 1.353 . S
C1359 H1400 0.929 . S
C1360 C1358 1.356 . S
C1360 C1362 1.358 . S
C1360 H1401 0.930 . S
C1361 C1359 1.353 . S
C1361 N1363 1.314 . S
C1361 H1402 0.930 . S
C1362 C1360 1.358 . S
C1362 N1363 1.279 . S
C1362 H1403 0.930 . S
N1363 C1361 1.314 . S
N1363 C1362 1.279 . S
C1364 C1366 1.353 . S
C1364 N1367 1.314 . S
C1364 H1370 0.930 . S
C1365 N1367 1.279 . S
C1365 C1368 1.358 . S
C1365 H1371 0.930 . S
C1366 C1364 1.353 . S
C1366 C1369 1.348 . S
C1366 H1404 0.929 . S
N1367 Li1322 1.990 . S
N1367 C1364 1.314 . S
N1367 C1365 1.279 . S
C1368 C1365 1.358 . S
C1368 C1369 1.356 . S
C1368 H1405 0.930 . S
C1369 C1366 1.348 . S
C1369 C1368 1.356 . S
H1370 C1364 0.930 . S
H1371 C1365 0.930 . S
C1372 N1373 1.314 . S
C1372 C1374 1.353 . S
C1372 H1378 0.930 . S
N1373 Li1323 1.990 . S
N1373 C1372 1.314 . S
N1373 C1376 1.279 . S
C1374 C1372 1.353 . S
C1374 C1377 1.348 . S
C1374 H1406 0.929 . S
C1375 C1376 1.358 . S
C1375 C1377 1.356 . S
C1375 H1407 0.930 . S
C1376 N1373 1.279 . S
C1376 C1375 1.358 . S
C1376 H1379 0.930 . S
C1377 C1374 1.348 . S
C1377 C1375 1.356 . S
H1378 C1372 0.930 . S
H1379 C1376 0.930 . S
O1380 Li1320 1.956 . S
O1380 Li1321 1.970 . S
O1380 Li1322 1.961 . S
O1380 C1324 1.325 . S
O1381 Li1320 1.970 . S
O1381 Li1321 1.956 . S
O1381 Li1323 1.961 . S
O1381 C1330 1.325 . S
O1382 Li1320 1.961 . S
O1382 Li1322 1.956 . S
O1382 Li1323 1.970 . S
O1382 C1352 1.325 . S
O1383 Li1321 1.961 . S
O1383 Li1322 1.970 . S
O1383 Li1323 1.956 . S
O1383 C1358 1.325 . S
H1384 C1326 0.929 . S
H1385 C1327 0.930 . S
H1386 C1328 0.930 . S
H1387 C1329 0.930 . S
H1388 C1331 0.930 . S
H1389 C1333 0.929 . S
H1390 C1334 0.930 . S
H1391 C1335 0.930 . S
H1392 C1338 0.930 . S
H1393 C1341 0.929 . S
H1394 C1346 0.929 . S
H1395 C1347 0.930 . S
H1396 C1354 0.929 . S
H1397 C1355 0.930 . S
H1398 C1356 0.930 . S
H1399 C1357 0.930 . S
H1400 C1359 0.929 . S
H1401 C1360 0.930 . S
H1402 C1361 0.930 . S
H1403 C1362 0.930 . S
H1404 C1366 0.929 . S
H1405 C1368 0.930 . S
H1406 C1374 0.929 . S
H1407 C1375 0.930 . S
Li1408 N1425 1.990 . S
Li1408 O1468 1.956 . S
Li1408 O1469 1.970 . S
Li1408 O1470 1.961 . S
Li1409 N1433 1.990 . S
Li1409 O1468 1.970 . S
Li1409 O1469 1.956 . S
Li1409 O1471 1.961 . S
Li1410 N1455 1.990 . S
Li1410 O1468 1.961 . S
Li1410 O1470 1.956 . S
Li1410 O1471 1.970 . S
Li1411 N1461 1.990 1_545 S
Li1411 O1469 1.961 . S
Li1411 O1470 1.970 . S
Li1411 O1471 1.956 . S
C1412 C1414 1.348 . S
C1412 C1415 1.356 . S
C1412 O1468 1.325 . S
N1413 C1416 1.314 . S
N1413 C1417 1.279 . S
C1414 C1412 1.348 . S
C1414 C1416 1.353 . S
C1414 H1472 0.929 . S
C1415 C1412 1.356 . S
C1415 C1417 1.358 . S
C1415 H1473 0.930 . S
C1416 N1413 1.314 . S
C1416 C1414 1.353 . S
C1416 H1474 0.930 . S
C1417 N1413 1.279 . S
C1417 C1415 1.358 . S
C1417 H1475 0.930 . S
C1418 C1421 1.322 . S
C1418 C1422 1.437 . S
C1418 O1469 1.276 1_565 S
C1419 N1420 1.279 . S
C1419 C1422 1.358 . S
C1419 H1476 0.930 . S
N1420 C1419 1.279 . S
N1420 C1423 1.314 . S
C1421 C1418 1.322 . S
C1421 C1423 1.353 . S
C1421 H1477 0.929 1_565 S
C1422 C1418 1.437 . S
C1422 C1419 1.358 . S
C1422 H1478 0.930 . S
C1423 N1420 1.314 . S
C1423 C1421 1.353 . S
C1423 H1479 0.930 . S
C1424 N1425 1.314 . S
C1424 C1429 1.353 . S
C1424 H1430 0.930 . S
N1425 Li1408 1.990 . S
N1425 C1424 1.314 . S
N1425 C1427 1.279 . S
C1426 C1427 1.358 . S
C1426 C1428 1.356 . S
C1426 H1480 0.930 . S
C1427 N1425 1.279 . S
C1427 C1426 1.358 . S
C1427 H1431 0.930 . S
C1428 C1426 1.356 . S
C1428 C1429 1.348 . S
C1429 C1424 1.353 . S
C1429 C1428 1.348 . S
C1429 H1481 0.890 1_545 S
H1430 C1424 0.930 . S
H1431 C1427 0.930 . S
C1432 N1433 1.314 . S
C1432 C1434 1.353 . S
C1432 H1438 0.930 . S
N1433 Li1409 1.990 . S
N1433 C1432 1.314 . S
N1433 C1436 1.279 . S
C1434 C1432 1.353 . S
C1434 C1437 1.348 . S
C1434 H1482 0.929 . S
C1435 C1436 1.358 . S
C1435 C1437 1.356 . S
C1435 H1483 0.930 . S
C1436 N1433 1.279 . S
C1436 C1435 1.358 . S
C1436 H1439 0.930 . S
C1437 C1434 1.348 . S
C1437 C1435 1.356 . S
H1438 C1432 0.930 . S
H1439 C1436 0.930 . S
C1440 C1442 1.348 . S
C1440 C1443 1.356 . S
C1440 O1470 1.325 . S
N1441 C1444 1.314 1_545 S
N1441 C1445 1.279 . S
C1442 C1440 1.348 . S
C1442 C1444 1.353 1_545 S
C1442 H1484 0.929 1_545 S
C1443 C1440 1.356 . S
C1443 C1445 1.358 . S
C1443 H1485 0.930 . S
C1444 N1441 1.314 1_565 S
C1444 C1442 1.353 1_565 S
C1444 H1486 0.930 . S
C1445 N1441 1.279 . S
C1445 C1443 1.358 . S
C1445 H1487 0.930 . S
C1446 C1447 1.348 . S
C1446 C1448 1.356 . S
C1446 O1471 1.325 . S
C1447 C1446 1.348 . S
C1447 C1449 1.353 . S
C1447 H1488 0.929 . S
C1448 C1446 1.356 . S
C1448 C1450 1.358 . S
C1448 H1489 0.930 . S
C1449 C1447 1.353 . S
C1449 N1451 1.314 . S
C1449 H1490 0.930 . S
C1450 C1448 1.358 . S
C1450 N1451 1.279 . S
C1450 H1491 0.930 . S
N1451 C1449 1.314 . S
N1451 C1450 1.279 . S
C1452 C1454 1.353 . S
C1452 N1455 1.314 . S
C1452 H1458 0.930 . S
C1453 N1455 1.279 . S
C1453 C1456 1.358 . S
C1453 H1459 0.930 . S
C1454 C1452 1.353 . S
C1454 C1457 1.348 . S
C1454 H1492 0.929 . S
N1455 Li1410 1.990 . S
N1455 C1452 1.314 . S
N1455 C1453 1.279 . S
C1456 C1453 1.358 . S
C1456 C1457 1.356 . S
C1456 H1493 0.930 . S
C1457 C1454 1.348 . S
C1457 C1456 1.356 . S
H1458 C1452 0.930 . S
H1459 C1453 0.930 . S
C1460 N1461 1.314 . S
C1460 C1462 1.353 . S
C1460 H1466 0.930 . S
N1461 Li1411 1.990 1_565 S
N1461 C1460 1.314 . S
N1461 C1464 1.279 . S
C1462 C1460 1.353 . S
C1462 C1465 1.348 . S
C1462 H1494 0.929 . S
C1463 C1464 1.358 . S
C1463 C1465 1.356 . S
C1463 H1495 0.930 . S
C1464 N1461 1.279 . S
C1464 C1463 1.358 . S
C1464 H1467 0.930 . S
C1465 C1462 1.348 . S
C1465 C1463 1.356 . S
H1466 C1460 0.930 . S
H1467 C1464 0.930 . S
O1468 Li1408 1.956 . S
O1468 Li1409 1.970 . S
O1468 Li1410 1.961 . S
O1468 C1412 1.325 . S
O1469 Li1408 1.970 . S
O1469 Li1409 1.956 . S
O1469 Li1411 1.961 . S
O1469 C1418 1.276 1_545 S
O1470 Li1408 1.961 . S
O1470 Li1410 1.956 . S
O1470 Li1411 1.970 . S
O1470 C1440 1.325 . S
O1471 Li1409 1.961 . S
O1471 Li1410 1.970 . S
O1471 Li1411 1.956 . S
O1471 C1446 1.325 . S
H1472 C1414 0.929 . S
H1473 C1415 0.930 . S
H1474 C1416 0.930 . S
H1475 C1417 0.930 . S
H1476 C1419 0.930 . S
H1477 C1421 0.929 1_545 S
H1478 C1422 0.930 . S
H1479 C1423 0.930 . S
H1480 C1426 0.930 . S
H1481 C1429 0.890 1_565 S
H1482 C1434 0.929 . S
H1483 C1435 0.930 . S
H1484 C1442 0.929 1_565 S
H1485 C1443 0.930 . S
H1486 C1444 0.930 . S
H1487 C1445 0.930 . S
H1488 C1447 0.929 . S
H1489 C1448 0.930 . S
H1490 C1449 0.930 . S
H1491 C1450 0.930 . S
H1492 C1454 0.929 . S
H1493 C1456 0.930 . S
H1494 C1462 0.929 . S
H1495 C1463 0.930 . S
Li1496 N1513 1.990 . S
Li1496 O1556 1.956 . S
Li1496 O1557 1.970 . S
Li1496 O1558 1.961 . S
Li1497 N1521 1.990 . S
Li1497 O1556 1.970 . S
Li1497 O1557 1.956 . S
Li1497 O1559 1.961 . S
Li1498 N1543 1.990 1_655 S
Li1498 O1556 1.961 . S
Li1498 O1558 1.956 . S
Li1498 O1559 1.970 . S
Li1499 N1549 1.990 . S
Li1499 O1557 1.961 . S
Li1499 O1558 1.970 . S
Li1499 O1559 1.956 . S
C1500 C1502 1.331 . S
C1500 C1503 1.358 . S
C1500 O1556 1.317 1_455 S
N1501 C1504 1.314 . S
N1501 C1505 1.279 . S
C1502 C1500 1.331 . S
C1502 C1504 1.386 . S
C1502 H1560 0.922 1_455 S
C1503 C1500 1.358 . S
C1503 C1505 1.358 . S
C1503 H1561 0.930 . S
C1504 N1501 1.314 . S
C1504 C1502 1.386 . S
C1504 H1562 0.930 . S
C1505 N1501 1.279 . S
C1505 C1503 1.358 . S
C1505 H1563 0.930 . S
C1506 C1509 1.348 . S
C1506 C1510 1.356 . S
C1506 O1557 1.325 . S
C1507 N1508 1.279 . S
C1507 C1510 1.358 . S
C1507 H1564 0.930 . S
N1508 C1507 1.279 . S
N1508 C1511 1.314 . S
C1509 C1506 1.348 . S
C1509 C1511 1.353 . S
C1509 H1565 0.929 . S
C1510 C1506 1.356 . S
C1510 C1507 1.358 . S
C1510 H1566 0.930 . S
C1511 N1508 1.314 . S
C1511 C1509 1.353 . S
C1511 H1567 0.930 . S
C1512 N1513 1.314 . S
C1512 C1517 1.353 . S
C1512 H1518 0.930 . S
N1513 Li1496 1.990 . S
N1513 C1512 1.314 . S
N1513 C1515 1.279 . S
C1514 C1515 1.358 . S
C1514 C1516 1.356 . S
C1514 H1568 0.930 . S
C1515 N1513 1.279 . S
C1515 C1514 1.358 . S
C1515 H1519 0.930 . S
C1516 C1514 1.356 . S
C1516 C1517 1.348 . S
C1517 C1512 1.353 . S
C1517 C1516 1.348 . S
C1517 H1569 0.929 . S
H1518 C1512 0.930 . S
H1519 C1515 0.930 . S
C1520 N1521 1.314 . S
C1520 C1522 1.353 . S
C1520 H1526 0.930 . S
N1521 Li1497 1.990 . S
N1521 C1520 1.314 . S
N1521 C1524 1.279 . S
C1522 C1520 1.353 . S
C1522 C1525 1.348 . S
C1522 H1570 0.908 1_655 S
C1523 C1524 1.358 . S
C1523 C1525 1.356 . S
C1523 H1571 0.930 . S
C1524 N1521 1.279 . S
C1524 C1523 1.358 . S
C1524 H1527 0.930 . S
C1525 C1522 1.348 . S
C1525 C1523 1.356 . S
H1526 C1520 0.930 . S
H1527 C1524 0.930 . S
C1528 C1530 1.348 . S
C1528 C1531 1.356 . S
C1528 O1558 1.325 . S
N1529 C1532 1.314 . S
N1529 C1533 1.279 . S
C1530 C1528 1.348 . S
C1530 C1532 1.353 . S
C1530 H1572 0.929 . S
C1531 C1528 1.356 . S
C1531 C1533 1.358 . S
C1531 H1573 0.930 . S
C1532 N1529 1.314 . S
C1532 C1530 1.353 . S
C1532 H1574 0.930 . S
C1533 N1529 1.279 . S
C1533 C1531 1.358 . S
C1533 H1575 0.930 . S
C1534 C1535 1.348 . S
C1534 C1536 1.356 . S
C1534 O1559 1.325 . S
C1535 C1534 1.348 . S
C1535 C1537 1.353 1_655 S
C1535 H1576 0.929 1_655 S
C1536 C1534 1.356 . S
C1536 C1538 1.358 . S
C1536 H1577 0.930 . S
C1537 C1535 1.353 1_455 S
C1537 N1539 1.314 1_455 S
C1537 H1578 0.930 . S
C1538 C1536 1.358 . S
C1538 N1539 1.279 . S
C1538 H1579 0.930 . S
N1539 C1537 1.314 1_655 S
N1539 C1538 1.279 . S
C1540 C1542 1.353 . S
C1540 N1543 1.314 . S
C1540 H1546 0.930 . S
C1541 N1543 1.279 . S
C1541 C1544 1.358 . S
C1541 H1547 0.930 . S
C1542 C1540 1.353 . S
C1542 C1545 1.348 . S
C1542 H1580 0.929 . S
N1543 Li1498 1.990 1_455 S
N1543 C1540 1.314 . S
N1543 C1541 1.279 . S
C1544 C1541 1.358 . S
C1544 C1545 1.356 . S
C1544 H1581 0.930 . S
C1545 C1542 1.348 . S
C1545 C1544 1.356 . S
H1546 C1540 0.930 . S
H1547 C1541 0.930 . S
C1548 N1549 1.314 . S
C1548 C1550 1.353 . S
C1548 H1554 0.930 . S
N1549 Li1499 1.990 . S
N1549 C1548 1.314 . S
N1549 C1552 1.279 . S
C1550 C1548 1.353 . S
C1550 C1553 1.348 . S
C1550 H1582 0.929 . S
C1551 C1552 1.358 . S
C1551 C1553 1.356 . S
C1551 H1583 0.930 . S
C1552 N1549 1.279 . S
C1552 C1551 1.358 . S
C1552 H1555 0.930 . S
C1553 C1550 1.348 . S
C1553 C1551 1.356 . S
H1554 C1548 0.930 . S
H1555 C1552 0.930 . S
O1556 Li1496 1.956 . S
O1556 Li1497 1.970 . S
O1556 Li1498 1.961 . S
O1556 C1500 1.317 1_655 S
O1557 Li1496 1.970 . S
O1557 Li1497 1.956 . S
O1557 Li1499 1.961 . S
O1557 C1506 1.325 . S
O1558 Li1496 1.961 . S
O1558 Li1498 1.956 . S
O1558 Li1499 1.970 . S
O1558 C1528 1.325 . S
O1559 Li1497 1.961 . S
O1559 Li1498 1.970 . S
O1559 Li1499 1.956 . S
O1559 C1534 1.325 . S
H1560 C1502 0.922 1_655 S
H1561 C1503 0.930 . S
H1562 C1504 0.930 . S
H1563 C1505 0.930 . S
H1564 C1507 0.930 . S
H1565 C1509 0.929 . S
H1566 C1510 0.930 . S
H1567 C1511 0.930 . S
H1568 C1514 0.930 . S
H1569 C1517 0.929 . S
H1570 C1522 0.908 1_455 S
H1571 C1523 0.930 . S
H1572 C1530 0.929 . S
H1573 C1531 0.930 . S
H1574 C1532 0.930 . S
H1575 C1533 0.930 . S
H1576 C1535 0.929 1_455 S
H1577 C1536 0.930 . S
H1578 C1537 0.930 . S
H1579 C1538 0.930 . S
H1580 C1542 0.929 . S
H1581 C1544 0.930 . S
H1582 C1550 0.929 . S
H1583 C1551 0.930 . S
C1584 C1585 1.384 . S
C1584 C1586 1.384 . S
C1584 H1612 0.931 . S
C1585 C1584 1.384 . S
C1585 C1588 1.382 . S
C1586 C1584 1.384 . S
C1586 C1587 1.381 . S
C1586 H1613 0.930 . S
C1587 C1586 1.381 . S
C1587 C1589 1.381 . S
C1587 C1590 1.487 . S
C1588 C1585 1.382 . S
C1588 C1589 1.387 . S
C1588 H1614 0.930 . S
C1589 C1587 1.381 . S
C1589 C1588 1.387 . S
C1589 H1615 0.931 . S
C1590 C1587 1.487 . S
C1590 C1597 1.399 . S
C1590 N1628 1.343 . S
C1591 C1592 1.384 . S
C1591 C1593 1.384 . S
C1591 H1616 0.931 . S
C1592 C1591 1.384 . S
C1592 C1595 1.382 . S
C1593 C1591 1.384 . S
C1593 C1594 1.381 . S
C1593 H1617 0.930 . S
C1594 C1593 1.381 . S
C1594 C1596 1.381 . S
C1594 C1597 1.487 . S
C1595 C1592 1.382 . S
C1595 C1596 1.387 . S
C1595 H1618 0.930 . S
C1596 C1594 1.381 . S
C1596 C1595 1.387 . S
C1596 H1619 0.931 . S
C1597 C1590 1.399 . S
C1597 C1594 1.487 . S
C1597 N1629 1.343 . S
C1598 C1599 1.384 . S
C1598 C1600 1.384 . S
C1598 H1620 0.931 . S
C1599 C1598 1.384 . S
C1599 C1602 1.382 . S
C1600 C1598 1.384 . S
C1600 C1601 1.381 . S
C1600 H1621 0.930 . S
C1601 C1600 1.381 . S
C1601 C1603 1.381 . S
C1601 C1604 1.487 . S
C1602 C1599 1.382 . S
C1602 C1603 1.387 . S
C1602 H1622 0.930 . S
C1603 C1601 1.381 . S
C1603 C1602 1.387 . S
C1603 H1623 0.931 . S
C1604 C1601 1.487 . S
C1604 C1611 1.399 . S
C1604 N1629 1.343 . S
C1605 C1606 1.384 . S
C1605 C1607 1.384 . S
C1605 H1624 0.931 . S
C1606 C1605 1.384 . S
C1606 C1609 1.382 . S
C1607 C1605 1.384 . S
C1607 C1608 1.381 . S
C1607 H1625 0.930 . S
C1608 C1607 1.381 . S
C1608 C1610 1.381 . S
C1608 C1611 1.487 . S
C1609 C1606 1.382 . S
C1609 C1610 1.387 . S
C1609 H1626 0.930 . S
C1610 C1608 1.381 . S
C1610 C1609 1.387 . S
C1610 H1627 0.931 . S
C1611 C1604 1.399 . S
C1611 C1608 1.487 . S
C1611 N1628 1.343 . S
H1612 C1584 0.931 . S
H1613 C1586 0.930 . S
H1614 C1588 0.930 . S
H1615 C1589 0.931 . S
H1616 C1591 0.931 . S
H1617 C1593 0.930 . S
H1618 C1595 0.930 . S
H1619 C1596 0.931 . S
H1620 C1598 0.931 . S
H1621 C1600 0.930 . S
H1622 C1602 0.930 . S
H1623 C1603 0.931 . S
H1624 C1605 0.931 . S
H1625 C1607 0.930 . S
H1626 C1609 0.930 . S
H1627 C1610 0.931 . S
N1628 C1590 1.343 . S
N1628 C1611 1.343 . S
N1629 C1597 1.343 . S
N1629 C1604 1.343 . S
C1630 C1631 1.384 . S
C1630 C1632 1.384 . S
C1630 H1658 0.931 . S
C1631 C1630 1.384 . S
C1631 C1634 1.382 . S
C1632 C1630 1.384 . S
C1632 C1633 1.381 . S
C1632 H1659 0.930 . S
C1633 C1632 1.381 . S
C1633 C1635 1.381 . S
C1633 C1636 1.487 . S
C1634 C1631 1.382 . S
C1634 C1635 1.387 . S
C1634 H1660 0.930 . S
C1635 C1633 1.381 . S
C1635 C1634 1.387 . S
C1635 H1661 0.931 . S
C1636 C1633 1.487 . S
C1636 C1643 1.399 . S
C1636 N1674 1.343 . S
C1637 C1638 1.384 . S
C1637 C1639 1.384 . S
C1637 H1662 0.931 . S
C1638 C1637 1.384 . S
C1638 C1641 1.382 . S
C1639 C1637 1.384 . S
C1639 C1640 1.381 . S
C1639 H1663 0.930 . S
C1640 C1639 1.381 . S
C1640 C1642 1.381 . S
C1640 C1643 1.487 . S
C1641 C1638 1.382 . S
C1641 C1642 1.387 . S
C1641 H1664 0.930 . S
C1642 C1640 1.381 . S
C1642 C1641 1.387 . S
C1642 H1665 0.931 . S
C1643 C1636 1.399 . S
C1643 C1640 1.487 . S
C1643 N1675 1.343 . S
C1644 C1645 1.384 . S
C1644 C1646 1.384 . S
C1644 H1666 0.931 . S
C1645 C1644 1.384 . S
C1645 C1648 1.382 . S
C1646 C1644 1.384 . S
C1646 C1647 1.381 . S
C1646 H1667 0.930 . S
C1647 C1646 1.381 . S
C1647 C1649 1.381 . S
C1647 C1650 1.487 . S
C1648 C1645 1.382 . S
C1648 C1649 1.387 . S
C1648 H1668 0.930 . S
C1649 C1647 1.381 . S
C1649 C1648 1.387 . S
C1649 H1669 0.931 . S
C1650 C1647 1.487 . S
C1650 C1657 1.399 . S
C1650 N1675 1.343 . S
C1651 C1652 1.384 . S
C1651 C1653 1.384 . S
C1651 H1670 0.931 . S
C1652 C1651 1.384 . S
C1652 C1655 1.382 . S
C1653 C1651 1.384 . S
C1653 C1654 1.381 . S
C1653 H1671 0.930 . S
C1654 C1653 1.381 . S
C1654 C1656 1.381 . S
C1654 C1657 1.487 . S
C1655 C1652 1.382 . S
C1655 C1656 1.387 . S
C1655 H1672 0.930 . S
C1656 C1654 1.381 . S
C1656 C1655 1.387 . S
C1656 H1673 0.931 . S
C1657 C1650 1.399 . S
C1657 C1654 1.487 . S
C1657 N1674 1.343 . S
H1658 C1630 0.931 . S
H1659 C1632 0.930 . S
H1660 C1634 0.930 . S
H1661 C1635 0.931 . S
H1662 C1637 0.931 . S
H1663 C1639 0.930 . S
H1664 C1641 0.930 . S
H1665 C1642 0.931 . S
H1666 C1644 0.931 . S
H1667 C1646 0.930 . S
H1668 C1648 0.930 . S
H1669 C1649 0.931 . S
H1670 C1651 0.931 . S
H1671 C1653 0.930 . S
H1672 C1655 0.930 . S
H1673 C1656 0.931 . S
N1674 C1636 1.343 . S
N1674 C1657 1.343 . S
N1675 C1643 1.343 . S
N1675 C1650 1.343 . S
C1676 C1677 1.384 . S
C1676 C1678 1.384 . S
C1676 H1704 0.931 . S
C1677 C1676 1.384 . S
C1677 C1680 1.382 . S
C1678 C1676 1.384 . S
C1678 C1679 1.381 . S
C1678 H1705 0.930 . S
C1679 C1678 1.381 . S
C1679 C1681 1.381 . S
C1679 C1682 1.487 . S
C1680 C1677 1.382 . S
C1680 C1681 1.387 . S
C1680 H1706 0.930 . S
C1681 C1679 1.381 . S
C1681 C1680 1.387 . S
C1681 H1707 0.931 . S
C1682 C1679 1.487 . S
C1682 C1689 1.399 . S
C1682 N1720 1.343 . S
C1683 C1684 1.384 . S
C1683 C1685 1.384 . S
C1683 H1708 0.931 . S
C1684 C1683 1.384 . S
C1684 C1687 1.382 . S
C1685 C1683 1.384 . S
C1685 C1686 1.381 . S
C1685 H1709 0.930 . S
C1686 C1685 1.381 . S
C1686 C1688 1.381 . S
C1686 C1689 1.487 . S
C1687 C1684 1.382 . S
C1687 C1688 1.387 . S
C1687 H1710 0.930 . S
C1688 C1686 1.381 . S
C1688 C1687 1.387 . S
C1688 H1711 0.931 . S
C1689 C1682 1.399 . S
C1689 C1686 1.487 . S
C1689 N1721 1.343 . S
C1690 C1691 1.384 . S
C1690 C1692 1.384 . S
C1690 H1712 0.931 . S
C1691 C1690 1.384 . S
C1691 C1694 1.382 . S
C1692 C1690 1.384 . S
C1692 C1693 1.381 . S
C1692 H1713 0.930 . S
C1693 C1692 1.381 . S
C1693 C1695 1.381 . S
C1693 C1696 1.487 . S
C1694 C1691 1.382 . S
C1694 C1695 1.387 . S
C1694 H1714 0.930 . S
C1695 C1693 1.381 . S
C1695 C1694 1.387 . S
C1695 H1715 0.931 . S
C1696 C1693 1.487 . S
C1696 C1703 1.399 . S
C1696 N1721 1.343 . S
C1697 C1698 1.384 . S
C1697 C1699 1.384 . S
C1697 H1716 0.931 . S
C1698 C1697 1.384 . S
C1698 C1701 1.382 . S
C1699 C1697 1.384 . S
C1699 C1700 1.381 . S
C1699 H1717 0.930 . S
C1700 C1699 1.381 . S
C1700 C1702 1.381 . S
C1700 C1703 1.487 . S
C1701 C1698 1.382 . S
C1701 C1702 1.387 . S
C1701 H1718 0.930 . S
C1702 C1700 1.381 . S
C1702 C1701 1.387 . S
C1702 H1719 0.931 . S
C1703 C1696 1.399 . S
C1703 C1700 1.487 . S
C1703 N1720 1.343 . S
H1704 C1676 0.931 . S
H1705 C1678 0.930 . S
H1706 C1680 0.930 . S
H1707 C1681 0.931 . S
H1708 C1683 0.931 . S
H1709 C1685 0.930 . S
H1710 C1687 0.930 . S
H1711 C1688 0.931 . S
H1712 C1690 0.931 . S
H1713 C1692 0.930 . S
H1714 C1694 0.930 . S
H1715 C1695 0.931 . S
H1716 C1697 0.931 . S
H1717 C1699 0.930 . S
H1718 C1701 0.930 . S
H1719 C1702 0.931 . S
N1720 C1682 1.343 . S
N1720 C1703 1.343 . S
N1721 C1689 1.343 . S
N1721 C1696 1.343 . S
C1722 C1723 1.384 . S
C1722 C1724 1.384 . S
C1722 H1750 0.931 . S
C1723 C1722 1.384 . S
C1723 C1726 1.382 . S
C1724 C1722 1.384 . S
C1724 C1725 1.381 . S
C1724 H1751 0.930 . S
C1725 C1724 1.381 . S
C1725 C1727 1.381 . S
C1725 C1728 1.487 . S
C1726 C1723 1.382 . S
C1726 C1727 1.387 . S
C1726 H1752 0.930 . S
C1727 C1725 1.381 . S
C1727 C1726 1.387 . S
C1727 H1753 0.931 . S
C1728 C1725 1.487 . S
C1728 C1735 1.399 . S
C1728 N1766 1.343 . S
C1729 C1730 1.384 . S
C1729 C1731 1.384 . S
C1729 H1754 0.931 . S
C1730 C1729 1.384 . S
C1730 C1733 1.382 . S
C1731 C1729 1.384 . S
C1731 C1732 1.381 . S
C1731 H1755 0.930 . S
C1732 C1731 1.381 . S
C1732 C1734 1.381 . S
C1732 C1735 1.487 . S
C1733 C1730 1.382 . S
C1733 C1734 1.387 . S
C1733 H1756 0.930 . S
C1734 C1732 1.381 . S
C1734 C1733 1.387 . S
C1734 H1757 0.931 . S
C1735 C1728 1.399 . S
C1735 C1732 1.487 . S
C1735 N1767 1.343 . S
C1736 C1737 1.384 . S
C1736 C1738 1.384 . S
C1736 H1758 0.931 . S
C1737 C1736 1.384 . S
C1737 C1740 1.382 . S
C1738 C1736 1.384 . S
C1738 C1739 1.381 . S
C1738 H1759 0.930 . S
C1739 C1738 1.381 . S
C1739 C1741 1.381 . S
C1739 C1742 1.487 . S
C1740 C1737 1.382 . S
C1740 C1741 1.387 . S
C1740 H1760 0.930 . S
C1741 C1739 1.381 . S
C1741 C1740 1.387 . S
C1741 H1761 0.931 . S
C1742 C1739 1.487 . S
C1742 C1749 1.399 . S
C1742 N1767 1.343 . S
C1743 C1744 1.384 . S
C1743 C1745 1.384 . S
C1743 H1762 0.931 . S
C1744 C1743 1.384 . S
C1744 C1747 1.382 . S
C1745 C1743 1.384 . S
C1745 C1746 1.381 . S
C1745 H1763 0.930 . S
C1746 C1745 1.381 . S
C1746 C1748 1.381 . S
C1746 C1749 1.487 . S
C1747 C1744 1.382 . S
C1747 C1748 1.387 . S
C1747 H1764 0.930 . S
C1748 C1746 1.381 . S
C1748 C1747 1.387 . S
C1748 H1765 0.931 . S
C1749 C1742 1.399 . S
C1749 C1746 1.487 . S
C1749 N1766 1.343 . S
H1750 C1722 0.931 . S
H1751 C1724 0.930 . S
H1752 C1726 0.930 . S
H1753 C1727 0.931 . S
H1754 C1729 0.931 . S
H1755 C1731 0.930 . S
H1756 C1733 0.930 . S
H1757 C1734 0.931 . S
H1758 C1736 0.931 . S
H1759 C1738 0.930 . S
H1760 C1740 0.930 . S
H1761 C1741 0.931 . S
H1762 C1743 0.931 . S
H1763 C1745 0.930 . S
H1764 C1747 0.930 . S
H1765 C1748 0.931 . S
N1766 C1728 1.343 . S
N1766 C1749 1.343 . S
N1767 C1735 1.343 . S
N1767 C1742 1.343 . S
C1768 C1769 1.384 . S
C1768 C1770 1.384 . S
C1768 H1796 0.931 . S
C1769 C1768 1.384 . S
C1769 C1772 1.382 . S
C1770 C1768 1.384 . S
C1770 C1771 1.381 . S
C1770 H1797 0.930 . S
C1771 C1770 1.381 . S
C1771 C1773 1.381 . S
C1771 C1774 1.487 . S
C1772 C1769 1.382 . S
C1772 C1773 1.387 . S
C1772 H1798 0.930 . S
C1773 C1771 1.381 . S
C1773 C1772 1.387 . S
C1773 H1799 0.931 . S
C1774 C1771 1.487 . S
C1774 C1781 1.399 . S
C1774 N1812 1.343 . S
C1775 C1776 1.384 . S
C1775 C1777 1.384 . S
C1775 H1800 0.931 . S
C1776 C1775 1.384 . S
C1776 C1779 1.382 . S
C1777 C1775 1.384 . S
C1777 C1778 1.381 . S
C1777 H1801 0.930 . S
C1778 C1777 1.381 . S
C1778 C1780 1.381 . S
C1778 C1781 1.487 . S
C1779 C1776 1.382 . S
C1779 C1780 1.387 . S
C1779 H1802 0.930 . S
C1780 C1778 1.381 . S
C1780 C1779 1.387 . S
C1780 H1803 0.931 . S
C1781 C1774 1.399 . S
C1781 C1778 1.487 . S
C1781 N1813 1.343 . S
C1782 C1783 1.384 . S
C1782 C1784 1.384 . S
C1782 H1804 0.931 . S
C1783 C1782 1.384 . S
C1783 C1786 1.382 . S
C1784 C1782 1.384 . S
C1784 C1785 1.381 . S
C1784 H1805 0.930 . S
C1785 C1784 1.381 . S
C1785 C1787 1.381 . S
C1785 C1788 1.487 . S
C1786 C1783 1.382 . S
C1786 C1787 1.387 . S
C1786 H1806 0.930 . S
C1787 C1785 1.381 . S
C1787 C1786 1.387 . S
C1787 H1807 0.931 . S
C1788 C1785 1.487 . S
C1788 C1795 1.399 . S
C1788 N1813 1.343 . S
C1789 C1790 1.384 . S
C1789 C1791 1.384 . S
C1789 H1808 0.931 . S
C1790 C1789 1.384 . S
C1790 C1793 1.382 . S
C1791 C1789 1.384 . S
C1791 C1792 1.381 . S
C1791 H1809 0.930 . S
C1792 C1791 1.381 . S
C1792 C1794 1.381 . S
C1792 C1795 1.487 . S
C1793 C1790 1.382 . S
C1793 C1794 1.387 . S
C1793 H1810 0.930 . S
C1794 C1792 1.381 . S
C1794 C1793 1.387 . S
C1794 H1811 0.931 . S
C1795 C1788 1.399 . S
C1795 C1792 1.487 . S
C1795 N1812 1.343 . S
H1796 C1768 0.931 . S
H1797 C1770 0.930 . S
H1798 C1772 0.930 . S
H1799 C1773 0.931 . S
H1800 C1775 0.931 . S
H1801 C1777 0.930 . S
H1802 C1779 0.930 . S
H1803 C1780 0.931 . S
H1804 C1782 0.931 . S
H1805 C1784 0.930 . S
H1806 C1786 0.930 . S
H1807 C1787 0.931 . S
H1808 C1789 0.931 . S
H1809 C1791 0.930 . S
H1810 C1793 0.930 . S
H1811 C1794 0.931 . S
N1812 C1774 1.343 . S
N1812 C1795 1.343 . S
N1813 C1781 1.343 . S
N1813 C1788 1.343 . S
C1814 C1815 1.384 . S
C1814 C1816 1.384 . S
C1814 H1842 0.931 . S
C1815 C1814 1.384 . S
C1815 C1818 1.382 . S
C1816 C1814 1.384 . S
C1816 C1817 1.381 . S
C1816 H1843 0.930 . S
C1817 C1816 1.381 . S
C1817 C1819 1.381 . S
C1817 C1820 1.487 . S
C1818 C1815 1.382 . S
C1818 C1819 1.387 . S
C1818 H1844 0.930 . S
C1819 C1817 1.381 . S
C1819 C1818 1.387 . S
C1819 H1845 0.931 . S
C1820 C1817 1.487 . S
C1820 C1827 1.399 . S
C1820 N1858 1.343 . S
C1821 C1822 1.384 . S
C1821 C1823 1.384 . S
C1821 H1846 0.931 . S
C1822 C1821 1.384 . S
C1822 C1825 1.382 . S
C1823 C1821 1.384 . S
C1823 C1824 1.381 . S
C1823 H1847 0.930 . S
C1824 C1823 1.381 . S
C1824 C1826 1.381 . S
C1824 C1827 1.487 . S
C1825 C1822 1.382 . S
C1825 C1826 1.387 . S
C1825 H1848 0.930 . S
C1826 C1824 1.381 . S
C1826 C1825 1.387 . S
C1826 H1849 0.931 . S
C1827 C1820 1.399 . S
C1827 C1824 1.487 . S
C1827 N1859 1.343 . S
C1828 C1829 1.384 . S
C1828 C1830 1.384 . S
C1828 H1850 0.931 . S
C1829 C1828 1.384 . S
C1829 C1832 1.382 . S
C1830 C1828 1.384 . S
C1830 C1831 1.381 . S
C1830 H1851 0.930 . S
C1831 C1830 1.381 . S
C1831 C1833 1.381 . S
C1831 C1834 1.487 . S
C1832 C1829 1.382 . S
C1832 C1833 1.387 . S
C1832 H1852 0.930 . S
C1833 C1831 1.381 . S
C1833 C1832 1.387 . S
C1833 H1853 0.931 . S
C1834 C1831 1.487 . S
C1834 C1841 1.399 . S
C1834 N1859 1.343 . S
C1835 C1836 1.384 . S
C1835 C1837 1.384 . S
C1835 H1854 0.931 . S
C1836 C1835 1.384 . S
C1836 C1839 1.382 . S
C1837 C1835 1.384 . S
C1837 C1838 1.381 . S
C1837 H1855 0.930 . S
C1838 C1837 1.381 . S
C1838 C1840 1.381 . S
C1838 C1841 1.487 . S
C1839 C1836 1.382 . S
C1839 C1840 1.387 . S
C1839 H1856 0.930 . S
C1840 C1838 1.381 . S
C1840 C1839 1.387 . S
C1840 H1857 0.931 . S
C1841 C1834 1.399 . S
C1841 C1838 1.487 . S
C1841 N1858 1.343 . S
H1842 C1814 0.931 . S
H1843 C1816 0.930 . S
H1844 C1818 0.930 . S
H1845 C1819 0.931 . S
H1846 C1821 0.931 . S
H1847 C1823 0.930 . S
H1848 C1825 0.930 . S
H1849 C1826 0.931 . S
H1850 C1828 0.931 . S
H1851 C1830 0.930 . S
H1852 C1832 0.930 . S
H1853 C1833 0.931 . S
H1854 C1835 0.931 . S
H1855 C1837 0.930 . S
H1856 C1839 0.930 . S
H1857 C1840 0.931 . S
N1858 C1820 1.343 . S
N1858 C1841 1.343 . S
N1859 C1827 1.343 . S
N1859 C1834 1.343 . S
C1860 C1861 1.384 . S
C1860 C1862 1.384 . S
C1860 H1888 0.931 . S
C1861 C1860 1.384 . S
C1861 C1864 1.382 . S
C1862 C1860 1.384 . S
C1862 C1863 1.381 . S
C1862 H1889 0.930 . S
C1863 C1862 1.381 . S
C1863 C1865 1.381 . S
C1863 C1866 1.487 . S
C1864 C1861 1.382 . S
C1864 C1865 1.387 . S
C1864 H1890 0.930 . S
C1865 C1863 1.381 . S
C1865 C1864 1.387 . S
C1865 H1891 0.931 . S
C1866 C1863 1.487 . S
C1866 C1873 1.399 . S
C1866 N1904 1.343 . S
C1867 C1868 1.384 . S
C1867 C1869 1.384 . S
C1867 H1892 0.931 . S
C1868 C1867 1.384 . S
C1868 C1871 1.382 . S
C1869 C1867 1.384 . S
C1869 C1870 1.381 . S
C1869 H1893 0.930 . S
C1870 C1869 1.381 . S
C1870 C1872 1.381 . S
C1870 C1873 1.487 . S
C1871 C1868 1.382 . S
C1871 C1872 1.387 . S
C1871 H1894 0.930 . S
C1872 C1870 1.381 . S
C1872 C1871 1.387 . S
C1872 H1895 0.931 . S
C1873 C1866 1.399 . S
C1873 C1870 1.487 . S
C1873 N1905 1.343 . S
C1874 C1875 1.384 . S
C1874 C1876 1.384 . S
C1874 H1896 0.931 . S
C1875 C1874 1.384 . S
C1875 C1878 1.382 . S
C1876 C1874 1.384 . S
C1876 C1877 1.381 . S
C1876 H1897 0.930 . S
C1877 C1876 1.381 . S
C1877 C1879 1.381 . S
C1877 C1880 1.487 . S
C1878 C1875 1.382 . S
C1878 C1879 1.387 . S
C1878 H1898 0.930 . S
C1879 C1877 1.381 . S
C1879 C1878 1.387 . S
C1879 H1899 0.931 . S
C1880 C1877 1.487 . S
C1880 C1887 1.399 . S
C1880 N1905 1.343 . S
C1881 C1882 1.384 . S
C1881 C1883 1.384 . S
C1881 H1900 0.931 . S
C1882 C1881 1.384 . S
C1882 C1885 1.382 . S
C1883 C1881 1.384 . S
C1883 C1884 1.381 . S
C1883 H1901 0.930 . S
C1884 C1883 1.381 . S
C1884 C1886 1.381 . S
C1884 C1887 1.487 . S
C1885 C1882 1.382 . S
C1885 C1886 1.387 . S
C1885 H1902 0.930 . S
C1886 C1884 1.381 . S
C1886 C1885 1.387 . S
C1886 H1903 0.931 . S
C1887 C1880 1.399 . S
C1887 C1884 1.487 . S
C1887 N1904 1.343 . S
H1888 C1860 0.931 . S
H1889 C1862 0.930 . S
H1890 C1864 0.930 . S
H1891 C1865 0.931 . S
H1892 C1867 0.931 . S
H1893 C1869 0.930 . S
H1894 C1871 0.930 . S
H1895 C1872 0.931 . S
H1896 C1874 0.931 . S
H1897 C1876 0.930 . S
H1898 C1878 0.930 . S
H1899 C1879 0.931 . S
H1900 C1881 0.931 . S
H1901 C1883 0.930 . S
H1902 C1885 0.930 . S
H1903 C1886 0.931 . S
N1904 C1866 1.343 . S
N1904 C1887 1.343 . S
N1905 C1873 1.343 . S
N1905 C1880 1.343 . S
C1906 C1907 1.384 . S
C1906 C1908 1.384 . S
C1906 H1934 0.931 . S
C1907 C1906 1.384 . S
C1907 C1910 1.382 . S
C1908 C1906 1.384 . S
C1908 C1909 1.381 . S
C1908 H1935 0.930 . S
C1909 C1908 1.381 . S
C1909 C1911 1.381 . S
C1909 C1912 1.487 . S
C1910 C1907 1.382 . S
C1910 C1911 1.387 . S
C1910 H1936 0.930 . S
C1911 C1909 1.381 . S
C1911 C1910 1.387 . S
C1911 H1937 0.931 . S
C1912 C1909 1.487 . S
C1912 C1919 1.399 . S
C1912 N1950 1.343 . S
C1913 C1914 1.384 . S
C1913 C1915 1.384 . S
C1913 H1938 0.931 . S
C1914 C1913 1.384 . S
C1914 C1917 1.382 . S
C1915 C1913 1.384 . S
C1915 C1916 1.381 . S
C1915 H1939 0.930 . S
C1916 C1915 1.381 . S
C1916 C1918 1.381 . S
C1916 C1919 1.487 . S
C1917 C1914 1.382 . S
C1917 C1918 1.387 . S
C1917 H1940 0.930 . S
C1918 C1916 1.381 . S
C1918 C1917 1.387 . S
C1918 H1941 0.931 . S
C1919 C1912 1.399 . S
C1919 C1916 1.487 . S
C1919 N1951 1.343 . S
C1920 C1921 1.384 . S
C1920 C1922 1.384 . S
C1920 H1942 0.931 . S
C1921 C1920 1.384 . S
C1921 C1924 1.382 . S
C1922 C1920 1.384 . S
C1922 C1923 1.381 . S
C1922 H1943 0.930 . S
C1923 C1922 1.381 . S
C1923 C1925 1.381 . S
C1923 C1926 1.487 . S
C1924 C1921 1.382 . S
C1924 C1925 1.387 . S
C1924 H1944 0.930 . S
C1925 C1923 1.381 . S
C1925 C1924 1.387 . S
C1925 H1945 0.931 . S
C1926 C1923 1.487 . S
C1926 C1933 1.399 . S
C1926 N1951 1.343 . S
C1927 C1928 1.384 . S
C1927 C1929 1.384 . S
C1927 H1946 0.931 . S
C1928 C1927 1.384 . S
C1928 C1931 1.382 . S
C1929 C1927 1.384 . S
C1929 C1930 1.381 . S
C1929 H1947 0.930 . S
C1930 C1929 1.381 . S
C1930 C1932 1.381 . S
C1930 C1933 1.487 . S
C1931 C1928 1.382 . S
C1931 C1932 1.387 . S
C1931 H1948 0.930 . S
C1932 C1930 1.381 . S
C1932 C1931 1.387 . S
C1932 H1949 0.931 . S
C1933 C1926 1.399 . S
C1933 C1930 1.487 . S
C1933 N1950 1.343 . S
H1934 C1906 0.931 . S
H1935 C1908 0.930 . S
H1936 C1910 0.930 . S
H1937 C1911 0.931 . S
H1938 C1913 0.931 . S
H1939 C1915 0.930 . S
H1940 C1917 0.930 . S
H1941 C1918 0.931 . S
H1942 C1920 0.931 . S
H1943 C1922 0.930 . S
H1944 C1924 0.930 . S
H1945 C1925 0.931 . S
H1946 C1927 0.931 . S
H1947 C1929 0.930 . S
H1948 C1931 0.930 . S
H1949 C1932 0.931 . S
N1950 C1912 1.343 . S
N1950 C1933 1.343 . S
N1951 C1919 1.343 . S
N1951 C1926 1.343 . S
C1952 C1953 1.384 . S
C1952 C1954 1.384 . S
C1952 H1980 0.931 . S
C1953 C1952 1.384 . S
C1953 C1956 1.382 . S
C1954 C1952 1.384 . S
C1954 C1955 1.381 . S
C1954 H1981 0.930 . S
C1955 C1954 1.381 . S
C1955 C1957 1.381 . S
C1955 C1958 1.487 . S
C1956 C1953 1.382 . S
C1956 C1957 1.387 . S
C1956 H1982 0.930 . S
C1957 C1955 1.381 . S
C1957 C1956 1.387 . S
C1957 H1983 0.931 . S
C1958 C1955 1.487 . S
C1958 C1965 1.399 . S
C1958 N1996 1.343 . S
C1959 C1960 1.384 . S
C1959 C1961 1.384 . S
C1959 H1984 0.931 . S
C1960 C1959 1.384 . S
C1960 C1963 1.382 . S
C1961 C1959 1.384 . S
C1961 C1962 1.381 . S
C1961 H1985 0.930 . S
C1962 C1961 1.381 . S
C1962 C1964 1.381 . S
C1962 C1965 1.487 . S
C1963 C1960 1.382 . S
C1963 C1964 1.387 . S
C1963 H1986 0.930 . S
C1964 C1962 1.381 . S
C1964 C1963 1.387 . S
C1964 H1987 0.931 . S
C1965 C1958 1.399 . S
C1965 C1962 1.487 . S
C1965 N1997 1.343 . S
C1966 C1967 1.384 . S
C1966 C1968 1.384 . S
C1966 H1988 0.931 . S
C1967 C1966 1.384 . S
C1967 C1970 1.382 . S
C1968 C1966 1.384 . S
C1968 C1969 1.381 . S
C1968 H1989 0.930 . S
C1969 C1968 1.381 . S
C1969 C1971 1.381 . S
C1969 C1972 1.487 . S
C1970 C1967 1.382 . S
C1970 C1971 1.387 . S
C1970 H1990 0.930 . S
C1971 C1969 1.381 . S
C1971 C1970 1.387 . S
C1971 H1991 0.931 . S
C1972 C1969 1.487 . S
C1972 C1979 1.399 . S
C1972 N1997 1.343 . S
C1973 C1974 1.384 . S
C1973 C1975 1.384 . S
C1973 H1992 0.931 . S
C1974 C1973 1.384 . S
C1974 C1977 1.382 . S
C1975 C1973 1.384 . S
C1975 C1976 1.381 . S
C1975 H1993 0.930 . S
C1976 C1975 1.381 . S
C1976 C1978 1.381 . S
C1976 C1979 1.487 . S
C1977 C1974 1.382 . S
C1977 C1978 1.387 . S
C1977 H1994 0.930 . S
C1978 C1976 1.381 . S
C1978 C1977 1.387 . S
C1978 H1995 0.931 . S
C1979 C1972 1.399 . S
C1979 C1976 1.487 . S
C1979 N1996 1.343 . S
H1980 C1952 0.931 . S
H1981 C1954 0.930 . S
H1982 C1956 0.930 . S
H1983 C1957 0.931 . S
H1984 C1959 0.931 . S
H1985 C1961 0.930 . S
H1986 C1963 0.930 . S
H1987 C1964 0.931 . S
H1988 C1966 0.931 . S
H1989 C1968 0.930 . S
H1990 C1970 0.930 . S
H1991 C1971 0.931 . S
H1992 C1973 0.931 . S
H1993 C1975 0.930 . S
H1994 C1977 0.930 . S
H1995 C1978 0.931 . S
N1996 C1958 1.343 . S
N1996 C1979 1.343 . S
N1997 C1965 1.343 . S
N1997 C1972 1.343 . S
C1998 C1999 1.384 . S
C1998 C2000 1.384 . S
C1998 H2026 0.931 . S
C1999 C1998 1.384 . S
C1999 C2002 1.382 1_655 S
C2000 C1998 1.384 . S
C2000 C2001 1.395 . S
C2000 H2027 0.930 . S
C2001 C2000 1.395 . S
C2001 C2003 1.374 1_655 S
C2001 C2004 1.477 1_655 S
C2002 C1999 1.382 1_455 S
C2002 C2003 1.387 . S
C2002 H2028 0.930 . S
C2003 C2001 1.374 1_455 S
C2003 C2002 1.387 . S
C2003 H2029 0.931 . S
C2004 C2001 1.477 1_455 S
C2004 C2011 1.399 1_455 S
C2004 N2042 1.318 . S
C2005 C2006 1.384 . S
C2005 C2007 1.384 . S
C2005 H2030 0.931 . S
C2006 C2005 1.384 . S
C2006 C2009 1.382 1_455 S
C2007 C2005 1.384 . S
C2007 C2008 1.384 . S
C2007 H2031 0.930 . S
C2008 C2007 1.384 . S
C2008 C2010 1.373 1_455 S
C2008 C2011 1.491 1_455 S
C2009 C2006 1.382 1_655 S
C2009 C2010 1.387 . S
C2009 H2032 0.930 . S
C2010 C2008 1.373 1_655 S
C2010 C2009 1.387 . S
C2010 H2033 0.931 . S
C2011 C2004 1.399 1_655 S
C2011 C2008 1.491 1_655 S
C2011 N2043 1.362 . S
C2012 C2013 1.384 . S
C2012 C2014 1.384 . S
C2012 H2034 0.931 . S
C2013 C2012 1.384 . S
C2013 C2016 1.382 1_455 S
C2014 C2012 1.384 . S
C2014 C2015 1.419 . S
C2014 H2035 0.930 . S
C2015 C2014 1.419 . S
C2015 C2017 1.362 1_455 S
C2015 C2018 1.466 . S
C2016 C2013 1.382 1_655 S
C2016 C2017 1.387 . S
C2016 H2036 0.930 . S
C2017 C2015 1.362 1_655 S
C2017 C2016 1.387 . S
C2017 H2037 0.931 . S
C2018 C2015 1.466 . S
C2018 C2025 1.399 . S
C2018 N2043 1.329 1_455 S
C2019 C2020 1.384 . S
C2019 C2021 1.384 . S
C2019 H2038 0.931 . S
C2020 C2019 1.384 . S
C2020 C2023 1.382 1_655 S
C2021 C2019 1.384 . S
C2021 C2022 1.380 . S
C2021 H2039 0.930 . S
C2022 C2021 1.380 . S
C2022 C2024 1.386 1_655 S
C2022 C2025 1.491 1_655 S
C2023 C2020 1.382 1_455 S
C2023 C2024 1.387 . S
C2023 H2040 0.930 . S
C2024 C2022 1.386 1_455 S
C2024 C2023 1.387 . S
C2024 H2041 0.931 . S
C2025 C2018 1.399 . S
C2025 C2022 1.491 1_455 S
C2025 N2042 1.362 . S
H2026 C1998 0.931 . S
H2027 C2000 0.930 . S
H2028 C2002 0.930 . S
H2029 C2003 0.931 . S
H2030 C2005 0.931 . S
H2031 C2007 0.930 . S
H2032 C2009 0.930 . S
H2033 C2010 0.931 . S
H2034 C2012 0.931 . S
H2035 C2014 0.930 . S
H2036 C2016 0.930 . S
H2037 C2017 0.931 . S
H2038 C2019 0.931 . S
H2039 C2021 0.930 . S
H2040 C2023 0.930 . S
H2041 C2024 0.931 . S
N2042 C2004 1.318 . S
N2042 C2025 1.362 . S
N2043 C2011 1.362 . S
N2043 C2018 1.329 1_655 S
C2044 C2045 1.384 . S
C2044 C2046 1.384 . S
C2044 H2072 0.931 . S
C2045 C2044 1.384 . S
C2045 C2048 1.382 . S
C2046 C2044 1.384 . S
C2046 C2047 1.381 . S
C2046 H2073 0.930 . S
C2047 C2046 1.381 . S
C2047 C2049 1.381 . S
C2047 C2050 1.487 . S
C2048 C2045 1.382 . S
C2048 C2049 1.387 . S
C2048 H2074 0.930 . S
C2049 C2047 1.381 . S
C2049 C2048 1.387 . S
C2049 H2075 0.931 . S
C2050 C2047 1.487 . S
C2050 C2057 1.399 . S
C2050 N2088 1.343 . S
C2051 C2052 1.384 . S
C2051 C2053 1.384 . S
C2051 H2076 0.931 . S
C2052 C2051 1.384 . S
C2052 C2055 1.382 . S
C2053 C2051 1.384 . S
C2053 C2054 1.381 . S
C2053 H2077 0.930 . S
C2054 C2053 1.381 . S
C2054 C2056 1.381 . S
C2054 C2057 1.487 . S
C2055 C2052 1.382 . S
C2055 C2056 1.387 . S
C2055 H2078 0.930 . S
C2056 C2054 1.381 . S
C2056 C2055 1.387 . S
C2056 H2079 0.931 . S
C2057 C2050 1.399 . S
C2057 C2054 1.487 . S
C2057 N2089 1.343 . S
C2058 C2059 1.384 . S
C2058 C2060 1.384 . S
C2058 H2080 0.931 . S
C2059 C2058 1.384 . S
C2059 C2062 1.382 . S
C2060 C2058 1.384 . S
C2060 C2061 1.381 . S
C2060 H2081 0.930 . S
C2061 C2060 1.381 . S
C2061 C2063 1.381 . S
C2061 C2064 1.487 . S
C2062 C2059 1.382 . S
C2062 C2063 1.387 . S
C2062 H2082 0.930 . S
C2063 C2061 1.381 . S
C2063 C2062 1.387 . S
C2063 H2083 0.931 . S
C2064 C2061 1.487 . S
C2064 C2071 1.399 . S
C2064 N2089 1.343 . S
C2065 C2066 1.384 . S
C2065 C2067 1.384 . S
C2065 H2084 0.931 . S
C2066 C2065 1.384 . S
C2066 C2069 1.382 . S
C2067 C2065 1.384 . S
C2067 C2068 1.381 . S
C2067 H2085 0.930 . S
C2068 C2067 1.381 . S
C2068 C2070 1.381 . S
C2068 C2071 1.487 . S
C2069 C2066 1.382 . S
C2069 C2070 1.387 . S
C2069 H2086 0.930 . S
C2070 C2068 1.381 . S
C2070 C2069 1.387 . S
C2070 H2087 0.931 . S
C2071 C2064 1.399 . S
C2071 C2068 1.487 . S
C2071 N2088 1.343 . S
H2072 C2044 0.931 . S
H2073 C2046 0.930 . S
H2074 C2048 0.930 . S
H2075 C2049 0.931 . S
H2076 C2051 0.931 . S
H2077 C2053 0.930 . S
H2078 C2055 0.930 . S
H2079 C2056 0.931 . S
H2080 C2058 0.931 . S
H2081 C2060 0.930 . S
H2082 C2062 0.930 . S
H2083 C2063 0.931 . S
H2084 C2065 0.931 . S
H2085 C2067 0.930 . S
H2086 C2069 0.930 . S
H2087 C2070 0.931 . S
N2088 C2050 1.343 . S
N2088 C2071 1.343 . S
N2089 C2057 1.343 . S
N2089 C2064 1.343 . S
C2090 C2091 1.384 1_545 S
C2090 C2092 1.384 . S
C2090 H2118 0.931 . S
C2091 C2090 1.384 1_565 S
C2091 C2094 1.382 . S
C2092 C2090 1.384 . S
C2092 C2093 1.381 1_545 S
C2092 H2119 0.930 . S
C2093 C2092 1.381 1_565 S
C2093 C2095 1.381 . S
C2093 C2096 1.487 . S
C2094 C2091 1.382 . S
C2094 C2095 1.387 . S
C2094 H2120 0.930 . S
C2095 C2093 1.381 . S
C2095 C2094 1.387 . S
C2095 H2121 0.931 . S
C2096 C2093 1.487 . S
C2096 C2103 1.389 1_565 S
C2096 N2134 1.343 . S
C2097 C2098 1.384 1_565 S
C2097 C2099 1.384 . S
C2097 H2122 0.931 . S
C2098 C2097 1.384 1_545 S
C2098 C2101 1.382 . S
C2099 C2097 1.384 . S
C2099 C2100 1.381 1_565 S
C2099 H2123 0.930 . S
C2100 C2099 1.381 1_545 S
C2100 C2102 1.381 . S
C2100 C2103 1.537 . S
C2101 C2098 1.382 . S
C2101 C2102 1.387 . S
C2101 H2124 0.930 . S
C2102 C2100 1.381 . S
C2102 C2101 1.387 . S
C2102 H2125 0.931 . S
C2103 C2096 1.389 1_545 S
C2103 C2100 1.537 . S
C2103 N2135 1.310 . S
C2104 C2105 1.384 1_565 S
C2104 C2106 1.384 . S
C2104 H2126 0.931 . S
C2105 C2104 1.384 1_545 S
C2105 C2108 1.382 . S
C2106 C2104 1.384 . S
C2106 C2107 1.381 1_565 S
C2106 H2127 0.930 . S
C2107 C2106 1.381 1_545 S
C2107 C2109 1.381 . S
C2107 C2110 1.456 . S
C2108 C2105 1.382 . S
C2108 C2109 1.387 . S
C2108 H2128 0.930 . S
C2109 C2107 1.381 . S
C2109 C2108 1.387 . S
C2109 H2129 0.931 . S
C2110 C2107 1.456 . S
C2110 C2117 1.390 1_545 S
C2110 N2135 1.393 . S
C2111 C2112 1.384 1_545 S
C2111 C2113 1.384 . S
C2111 H2130 0.931 . S
C2112 C2111 1.384 1_565 S
C2112 C2115 1.382 . S
C2113 C2111 1.384 . S
C2113 C2114 1.381 1_545 S
C2113 H2131 0.930 . S
C2114 C2113 1.381 1_565 S
C2114 C2116 1.381 . S
C2114 C2117 1.487 . S
C2115 C2112 1.382 . S
C2115 C2116 1.387 . S
C2115 H2132 0.930 . S
C2116 C2114 1.381 . S
C2116 C2115 1.387 . S
C2116 H2133 0.931 . S
C2117 C2110 1.390 1_565 S
C2117 C2114 1.487 . S
C2117 N2134 1.343 . S
H2118 C2090 0.931 . S
H2119 C2092 0.930 . S
H2120 C2094 0.930 . S
H2121 C2095 0.931 . S
H2122 C2097 0.931 . S
H2123 C2099 0.930 . S
H2124 C2101 0.930 . S
H2125 C2102 0.931 . S
H2126 C2104 0.931 . S
H2127 C2106 0.930 . S
H2128 C2108 0.930 . S
H2129 C2109 0.931 . S
H2130 C2111 0.931 . S
H2131 C2113 0.930 . S
H2132 C2115 0.930 . S
H2133 C2116 0.931 . S
N2134 C2096 1.343 . S
N2134 C2117 1.343 . S
N2135 C2103 1.310 . S
N2135 C2110 1.393 . S
C2136 C2137 1.384 . S
C2136 C2138 1.384 . S
C2136 H2164 0.931 . S
C2137 C2136 1.384 . S
C2137 C2140 1.382 1_545 S
C2138 C2136 1.384 . S
C2138 C2139 1.385 . S
C2138 H2165 0.930 . S
C2139 C2138 1.385 . S
C2139 C2141 1.372 1_545 S
C2139 C2142 1.491 1_545 S
C2140 C2137 1.382 1_565 S
C2140 C2141 1.387 . S
C2140 H2166 0.930 . S
C2141 C2139 1.372 1_565 S
C2141 C2140 1.387 . S
C2141 H2167 0.931 . S
C2142 C2139 1.491 1_565 S
C2142 C2149 1.399 1_565 S
C2142 N2180 1.362 . S
C2143 C2144 1.384 . S
C2143 C2145 1.384 . S
C2143 H2168 0.931 . S
C2144 C2143 1.384 . S
C2144 C2147 1.382 1_565 S
C2145 C2143 1.384 . S
C2145 C2146 1.395 . S
C2145 H2169 0.930 . S
C2146 C2145 1.395 . S
C2146 C2148 1.374 1_565 S
C2146 C2149 1.477 1_565 S
C2147 C2144 1.382 1_545 S
C2147 C2148 1.387 . S
C2147 H2170 0.930 . S
C2148 C2146 1.374 1_545 S
C2148 C2147 1.387 . S
C2148 H2171 0.931 . S
C2149 C2142 1.399 1_545 S
C2149 C2146 1.477 1_545 S
C2149 N2181 1.318 . S
C2150 C2151 1.384 . S
C2150 C2152 1.384 . S
C2150 H2172 0.931 . S
C2151 C2150 1.384 . S
C2151 C2154 1.382 1_565 S
C2152 C2150 1.384 . S
C2152 C2153 1.380 . S
C2152 H2173 0.930 . S
C2153 C2152 1.380 . S
C2153 C2155 1.386 1_565 S
C2153 C2156 1.491 1_565 S
C2154 C2151 1.382 1_545 S
C2154 C2155 1.387 . S
C2154 H2174 0.930 . S
C2155 C2153 1.386 1_545 S
C2155 C2154 1.387 . S
C2155 H2175 0.931 . S
C2156 C2153 1.491 1_545 S
C2156 C2163 1.399 . S
C2156 N2181 1.362 . S
C2157 C2158 1.384 . S
C2157 C2159 1.384 . S
C2157 H2176 0.931 . S
C2158 C2157 1.384 . S
C2158 C2161 1.382 1_545 S
C2159 C2157 1.384 . S
C2159 C2160 1.419 . S
C2159 H2177 0.930 . S
C2160 C2159 1.419 . S
C2160 C2162 1.362 1_545 S
C2160 C2163 1.466 . S
C2161 C2158 1.382 1_565 S
C2161 C2162 1.387 . S
C2161 H2178 0.930 . S
C2162 C2160 1.362 1_565 S
C2162 C2161 1.387 . S
C2162 H2179 0.931 . S
C2163 C2156 1.399 . S
C2163 C2160 1.466 . S
C2163 N2180 1.329 1_545 S
H2164 C2136 0.931 . S
H2165 C2138 0.930 . S
H2166 C2140 0.930 . S
H2167 C2141 0.931 . S
H2168 C2143 0.931 . S
H2169 C2145 0.930 . S
H2170 C2147 0.930 . S
H2171 C2148 0.931 . S
H2172 C2150 0.931 . S
H2173 C2152 0.930 . S
H2174 C2154 0.930 . S
H2175 C2155 0.931 . S
H2176 C2157 0.931 . S
H2177 C2159 0.930 . S
H2178 C2161 0.930 . S
H2179 C2162 0.931 . S
N2180 C2142 1.362 . S
N2180 C2163 1.329 1_565 S
N2181 C2149 1.318 . S
N2181 C2156 1.362 . S
C2182 C2183 1.384 . S
C2182 C2184 1.384 . S
C2182 H2210 0.931 . S
C2183 C2182 1.384 . S
C2183 C2186 1.382 1_655 S
C2184 C2182 1.384 . S
C2184 C2185 1.424 . S
C2184 H2211 0.930 . S
C2185 C2184 1.424 . S
C2185 C2187 1.360 1_655 S
C2185 C2188 1.465 . S
C2186 C2183 1.382 1_455 S
C2186 C2187 1.387 . S
C2186 H2212 0.930 . S
C2187 C2185 1.360 1_455 S
C2187 C2186 1.387 . S
C2187 H2213 0.931 . S
C2188 C2185 1.465 . S
C2188 C2195 1.399 . S
C2188 N2226 1.331 1_655 S
C2189 C2190 1.384 . S
C2189 C2191 1.384 . S
C2189 H2214 0.931 . S
C2190 C2189 1.384 . S
C2190 C2193 1.382 1_455 S
C2191 C2189 1.384 . S
C2191 C2192 1.381 . S
C2191 H2215 0.930 . S
C2192 C2191 1.381 . S
C2192 C2194 1.383 1_455 S
C2192 C2195 1.493 1_455 S
C2193 C2190 1.382 1_655 S
C2193 C2194 1.387 . S
C2193 H2216 0.930 . S
C2194 C2192 1.383 1_655 S
C2194 C2193 1.387 . S
C2194 H2217 0.931 . S
C2195 C2188 1.399 . S
C2195 C2192 1.493 1_655 S
C2195 N2227 1.360 . S
C2196 C2197 1.384 . S
C2196 C2198 1.384 . S
C2196 H2218 0.931 . S
C2197 C2196 1.384 . S
C2197 C2200 1.382 1_455 S
C2198 C2196 1.384 . S
C2198 C2199 1.401 . S
C2198 H2219 0.930 . S
C2199 C2198 1.401 . S
C2199 C2201 1.371 1_455 S
C2199 C2202 1.475 1_455 S
C2200 C2197 1.382 1_655 S
C2200 C2201 1.387 . S
C2200 H2220 0.930 . S
C2201 C2199 1.371 1_655 S
C2201 C2200 1.387 . S
C2201 H2221 0.931 . S
C2202 C2199 1.475 1_655 S
C2202 C2209 1.399 1_655 S
C2202 N2227 1.319 . S
C2203 C2204 1.384 . S
C2203 C2205 1.384 . S
C2203 H2222 0.931 . S
C2204 C2203 1.384 . S
C2204 C2207 1.382 1_655 S
C2205 C2203 1.384 . S
C2205 C2206 1.386 . S
C2205 H2223 0.930 . S
C2206 C2205 1.386 . S
C2206 C2208 1.370 1_655 S
C2206 C2209 1.493 1_655 S
C2207 C2204 1.382 1_455 S
C2207 C2208 1.387 . S
C2207 H2224 0.930 . S
C2208 C2206 1.370 1_455 S
C2208 C2207 1.387 . S
C2208 H2225 0.931 . S
C2209 C2202 1.399 1_455 S
C2209 C2206 1.493 1_455 S
C2209 N2226 1.360 . S
H2210 C2182 0.931 . S
H2211 C2184 0.930 . S
H2212 C2186 0.930 . S
H2213 C2187 0.931 . S
H2214 C2189 0.931 . S
H2215 C2191 0.930 . S
H2216 C2193 0.930 . S
H2217 C2194 0.931 . S
H2218 C2196 0.931 . S
H2219 C2198 0.930 . S
H2220 C2200 0.930 . S
H2221 C2201 0.931 . S
H2222 C2203 0.931 . S
H2223 C2205 0.930 . S
H2224 C2207 0.930 . S
H2225 C2208 0.931 . S
N2226 C2188 1.331 1_455 S
N2226 C2209 1.360 . S
N2227 C2195 1.360 . S
N2227 C2202 1.319 . S
C2228 C2229 1.384 . S
C2228 C2230 1.384 . S
C2228 H2256 0.931 . S
C2229 C2228 1.384 . S
C2229 C2232 1.382 . S
C2230 C2228 1.384 . S
C2230 C2231 1.381 . S
C2230 H2257 0.930 . S
C2231 C2230 1.381 . S
C2231 C2233 1.381 . S
C2231 C2234 1.487 . S
C2232 C2229 1.382 . S
C2232 C2233 1.387 . S
C2232 H2258 0.930 . S
C2233 C2231 1.381 . S
C2233 C2232 1.387 . S
C2233 H2259 0.931 . S
C2234 C2231 1.487 . S
C2234 C2241 1.399 . S
C2234 N2272 1.343 . S
C2235 C2236 1.384 . S
C2235 C2237 1.384 . S
C2235 H2260 0.931 . S
C2236 C2235 1.384 . S
C2236 C2239 1.382 . S
C2237 C2235 1.384 . S
C2237 C2238 1.381 . S
C2237 H2261 0.930 . S
C2238 C2237 1.381 . S
C2238 C2240 1.381 . S
C2238 C2241 1.487 . S
C2239 C2236 1.382 . S
C2239 C2240 1.387 . S
C2239 H2262 0.930 . S
C2240 C2238 1.381 . S
C2240 C2239 1.387 . S
C2240 H2263 0.931 . S
C2241 C2234 1.399 . S
C2241 C2238 1.487 . S
C2241 N2273 1.343 . S
C2242 C2243 1.384 . S
C2242 C2244 1.384 . S
C2242 H2264 0.931 . S
C2243 C2242 1.384 . S
C2243 C2246 1.382 . S
C2244 C2242 1.384 . S
C2244 C2245 1.381 . S
C2244 H2265 0.930 . S
C2245 C2244 1.381 . S
C2245 C2247 1.381 . S
C2245 C2248 1.487 . S
C2246 C2243 1.382 . S
C2246 C2247 1.387 . S
C2246 H2266 0.930 . S
C2247 C2245 1.381 . S
C2247 C2246 1.387 . S
C2247 H2267 0.931 . S
C2248 C2245 1.487 . S
C2248 C2255 1.399 . S
C2248 N2273 1.343 . S
C2249 C2250 1.384 . S
C2249 C2251 1.384 . S
C2249 H2268 0.931 . S
C2250 C2249 1.384 . S
C2250 C2253 1.382 . S
C2251 C2249 1.384 . S
C2251 C2252 1.381 . S
C2251 H2269 0.930 . S
C2252 C2251 1.381 . S
C2252 C2254 1.381 . S
C2252 C2255 1.487 . S
C2253 C2250 1.382 . S
C2253 C2254 1.387 . S
C2253 H2270 0.930 . S
C2254 C2252 1.381 . S
C2254 C2253 1.387 . S
C2254 H2271 0.931 . S
C2255 C2248 1.399 . S
C2255 C2252 1.487 . S
C2255 N2272 1.343 . S
H2256 C2228 0.931 . S
H2257 C2230 0.930 . S
H2258 C2232 0.930 . S
H2259 C2233 0.931 . S
H2260 C2235 0.931 . S
H2261 C2237 0.930 . S
H2262 C2239 0.930 . S
H2263 C2240 0.931 . S
H2264 C2242 0.931 . S
H2265 C2244 0.930 . S
H2266 C2246 0.930 . S
H2267 C2247 0.931 . S
H2268 C2249 0.931 . S
H2269 C2251 0.930 . S
H2270 C2253 0.930 . S
H2271 C2254 0.931 . S
N2272 C2234 1.343 . S
N2272 C2255 1.343 . S
N2273 C2241 1.343 . S
N2273 C2248 1.343 . S
C2274 C2275 1.384 . S
C2274 C2276 1.384 . S
C2274 H2302 0.931 . S
C2275 C2274 1.384 . S
C2275 C2278 1.382 . S
C2276 C2274 1.384 . S
C2276 C2277 1.381 . S
C2276 H2303 0.930 . S
C2277 C2276 1.381 . S
C2277 C2279 1.381 . S
C2277 C2280 1.487 . S
C2278 C2275 1.382 . S
C2278 C2279 1.387 . S
C2278 H2304 0.930 . S
C2279 C2277 1.381 . S
C2279 C2278 1.387 . S
C2279 H2305 0.931 . S
C2280 C2277 1.487 . S
C2280 C2287 1.399 . S
C2280 N2318 1.343 . S
C2281 C2282 1.384 . S
C2281 C2283 1.384 . S
C2281 H2306 0.931 . S
C2282 C2281 1.384 . S
C2282 C2285 1.382 . S
C2283 C2281 1.384 . S
C2283 C2284 1.381 . S
C2283 H2307 0.930 . S
C2284 C2283 1.381 . S
C2284 C2286 1.381 . S
C2284 C2287 1.487 . S
C2285 C2282 1.382 . S
C2285 C2286 1.387 . S
C2285 H2308 0.930 . S
C2286 C2284 1.381 . S
C2286 C2285 1.387 . S
C2286 H2309 0.931 . S
C2287 C2280 1.399 . S
C2287 C2284 1.487 . S
C2287 N2319 1.343 . S
C2288 C2289 1.384 . S
C2288 C2290 1.384 . S
C2288 H2310 0.931 . S
C2289 C2288 1.384 . S
C2289 C2292 1.382 . S
C2290 C2288 1.384 . S
C2290 C2291 1.381 . S
C2290 H2311 0.930 . S
C2291 C2290 1.381 . S
C2291 C2293 1.381 . S
C2291 C2294 1.487 . S
C2292 C2289 1.382 . S
C2292 C2293 1.387 . S
C2292 H2312 0.930 . S
C2293 C2291 1.381 . S
C2293 C2292 1.387 . S
C2293 H2313 0.931 . S
C2294 C2291 1.487 . S
C2294 C2301 1.399 . S
C2294 N2319 1.343 . S
C2295 C2296 1.384 . S
C2295 C2297 1.384 . S
C2295 H2314 0.931 . S
C2296 C2295 1.384 . S
C2296 C2299 1.382 . S
C2297 C2295 1.384 . S
C2297 C2298 1.381 . S
C2297 H2315 0.930 . S
C2298 C2297 1.381 . S
C2298 C2300 1.381 . S
C2298 C2301 1.487 . S
C2299 C2296 1.382 . S
C2299 C2300 1.387 . S
C2299 H2316 0.930 . S
C2300 C2298 1.381 . S
C2300 C2299 1.387 . S
C2300 H2317 0.931 . S
C2301 C2294 1.399 . S
C2301 C2298 1.487 . S
C2301 N2318 1.343 . S
H2302 C2274 0.931 . S
H2303 C2276 0.930 . S
H2304 C2278 0.930 . S
H2305 C2279 0.931 . S
H2306 C2281 0.931 . S
H2307 C2283 0.930 . S
H2308 C2285 0.930 . S
H2309 C2286 0.931 . S
H2310 C2288 0.931 . S
H2311 C2290 0.930 . S
H2312 C2292 0.930 . S
H2313 C2293 0.931 . S
H2314 C2295 0.931 . S
H2315 C2297 0.930 . S
H2316 C2299 0.930 . S
H2317 C2300 0.931 . S
N2318 C2280 1.343 . S
N2318 C2301 1.343 . S
N2319 C2287 1.343 . S
N2319 C2294 1.343 . S
C2320 C2321 1.384 . S
C2320 C2322 1.384 . S
C2320 H2348 0.931 . S
C2321 C2320 1.384 . S
C2321 C2324 1.382 . S
C2322 C2320 1.384 . S
C2322 C2323 1.381 . S
C2322 H2349 0.930 . S
C2323 C2322 1.381 . S
C2323 C2325 1.381 . S
C2323 C2326 1.487 . S
C2324 C2321 1.382 . S
C2324 C2325 1.387 . S
C2324 H2350 0.930 . S
C2325 C2323 1.381 . S
C2325 C2324 1.387 . S
C2325 H2351 0.931 . S
C2326 C2323 1.487 . S
C2326 C2333 1.399 . S
C2326 N2364 1.343 . S
C2327 C2328 1.384 . S
C2327 C2329 1.384 . S
C2327 H2352 0.931 . S
C2328 C2327 1.384 . S
C2328 C2331 1.382 . S
C2329 C2327 1.384 . S
C2329 C2330 1.381 . S
C2329 H2353 0.930 . S
C2330 C2329 1.381 . S
C2330 C2332 1.381 . S
C2330 C2333 1.487 . S
C2331 C2328 1.382 . S
C2331 C2332 1.387 . S
C2331 H2354 0.930 . S
C2332 C2330 1.381 . S
C2332 C2331 1.387 . S
C2332 H2355 0.931 . S
C2333 C2326 1.399 . S
C2333 C2330 1.487 . S
C2333 N2365 1.343 . S
C2334 C2335 1.384 . S
C2334 C2336 1.384 . S
C2334 H2356 0.931 . S
C2335 C2334 1.384 . S
C2335 C2338 1.382 . S
C2336 C2334 1.384 . S
C2336 C2337 1.381 . S
C2336 H2357 0.930 . S
C2337 C2336 1.381 . S
C2337 C2339 1.381 . S
C2337 C2340 1.487 . S
C2338 C2335 1.382 . S
C2338 C2339 1.387 . S
C2338 H2358 0.930 . S
C2339 C2337 1.381 . S
C2339 C2338 1.387 . S
C2339 H2359 0.931 . S
C2340 C2337 1.487 . S
C2340 C2347 1.399 . S
C2340 N2365 1.343 . S
C2341 C2342 1.384 . S
C2341 C2343 1.384 . S
C2341 H2360 0.931 . S
C2342 C2341 1.384 . S
C2342 C2345 1.382 . S
C2343 C2341 1.384 . S
C2343 C2344 1.381 . S
C2343 H2361 0.930 . S
C2344 C2343 1.381 . S
C2344 C2346 1.381 . S
C2344 C2347 1.487 . S
C2345 C2342 1.382 . S
C2345 C2346 1.387 . S
C2345 H2362 0.930 . S
C2346 C2344 1.381 . S
C2346 C2345 1.387 . S
C2346 H2363 0.931 . S
C2347 C2340 1.399 . S
C2347 C2344 1.487 . S
C2347 N2364 1.343 . S
H2348 C2320 0.931 . S
H2349 C2322 0.930 . S
H2350 C2324 0.930 . S
H2351 C2325 0.931 . S
H2352 C2327 0.931 . S
H2353 C2329 0.930 . S
H2354 C2331 0.930 . S
H2355 C2332 0.931 . S
H2356 C2334 0.931 . S
H2357 C2336 0.930 . S
H2358 C2338 0.930 . S
H2359 C2339 0.931 . S
H2360 C2341 0.931 . S
H2361 C2343 0.930 . S
H2362 C2345 0.930 . S
H2363 C2346 0.931 . S
N2364 C2326 1.343 . S
N2364 C2347 1.343 . S
N2365 C2333 1.343 . S
N2365 C2340 1.343 . S
C2366 C2367 1.384 . S
C2366 C2368 1.384 . S
C2366 H2394 0.931 . S
C2367 C2366 1.384 . S
C2367 C2370 1.382 . S
C2368 C2366 1.384 . S
C2368 C2369 1.381 . S
C2368 H2395 0.930 . S
C2369 C2368 1.381 . S
C2369 C2371 1.381 . S
C2369 C2372 1.487 . S
C2370 C2367 1.382 . S
C2370 C2371 1.387 . S
C2370 H2396 0.930 . S
C2371 C2369 1.381 . S
C2371 C2370 1.387 . S
C2371 H2397 0.931 . S
C2372 C2369 1.487 . S
C2372 C2379 1.399 . S
C2372 N2410 1.343 . S
C2373 C2374 1.384 . S
C2373 C2375 1.384 . S
C2373 H2398 0.931 . S
C2374 C2373 1.384 . S
C2374 C2377 1.382 . S
C2375 C2373 1.384 . S
C2375 C2376 1.381 . S
C2375 H2399 0.930 . S
C2376 C2375 1.381 . S
C2376 C2378 1.381 . S
C2376 C2379 1.487 . S
C2377 C2374 1.382 . S
C2377 C2378 1.387 . S
C2377 H2400 0.930 . S
C2378 C2376 1.381 . S
C2378 C2377 1.387 . S
C2378 H2401 0.931 . S
C2379 C2372 1.399 . S
C2379 C2376 1.487 . S
C2379 N2411 1.343 . S
C2380 C2381 1.384 . S
C2380 C2382 1.384 . S
C2380 H2402 0.931 . S
C2381 C2380 1.384 . S
C2381 C2384 1.382 . S
C2382 C2380 1.384 . S
C2382 C2383 1.381 . S
C2382 H2403 0.930 . S
C2383 C2382 1.381 . S
C2383 C2385 1.381 . S
C2383 C2386 1.487 . S
C2384 C2381 1.382 . S
C2384 C2385 1.387 . S
C2384 H2404 0.930 . S
C2385 C2383 1.381 . S
C2385 C2384 1.387 . S
C2385 H2405 0.931 . S
C2386 C2383 1.487 . S
C2386 C2393 1.399 . S
C2386 N2411 1.343 . S
C2387 C2388 1.384 . S
C2387 C2389 1.384 . S
C2387 H2406 0.931 . S
C2388 C2387 1.384 . S
C2388 C2391 1.382 . S
C2389 C2387 1.384 . S
C2389 C2390 1.381 . S
C2389 H2407 0.930 . S
C2390 C2389 1.381 . S
C2390 C2392 1.381 . S
C2390 C2393 1.487 . S
C2391 C2388 1.382 . S
C2391 C2392 1.387 . S
C2391 H2408 0.930 . S
C2392 C2390 1.381 . S
C2392 C2391 1.387 . S
C2392 H2409 0.931 . S
C2393 C2386 1.399 . S
C2393 C2390 1.487 . S
C2393 N2410 1.343 . S
H2394 C2366 0.931 . S
H2395 C2368 0.930 . S
H2396 C2370 0.930 . S
H2397 C2371 0.931 . S
H2398 C2373 0.931 . S
H2399 C2375 0.930 . S
H2400 C2377 0.930 . S
H2401 C2378 0.931 . S
H2402 C2380 0.931 . S
H2403 C2382 0.930 . S
H2404 C2384 0.930 . S
H2405 C2385 0.931 . S
H2406 C2387 0.931 . S
H2407 C2389 0.930 . S
H2408 C2391 0.930 . S
H2409 C2392 0.931 . S
N2410 C2372 1.343 . S
N2410 C2393 1.343 . S
N2411 C2379 1.343 . S
N2411 C2386 1.343 . S
H2412 C2420 0.929 . S
H2413 C2422 0.930 . S
H2414 C2424 0.930 . S
H2415 C2427 0.929 . S
H2416 C2430 0.930 . S
H2417 C2432 0.960 . S
H2418 C2432 0.960 . S
H2419 C2432 0.960 . S
C2420 H2412 0.929 . S
C2420 C2421 1.377 . S
C2420 C2422 1.384 . S
C2421 C2420 1.377 . S
C2421 C2427 1.390 . S
C2422 H2413 0.930 . S
C2422 C2420 1.384 . S
C2422 C2423 1.372 . S
C2423 C2422 1.372 . S
C2423 C2424 1.400 . S
C2423 C2428 1.490 . S
C2424 H2414 0.930 . S
C2424 C2423 1.400 . S
C2424 C2427 1.386 . S
H2425 C2441 0.930 . S
H2426 C2442 0.931 . S
C2427 H2415 0.929 . S
C2427 C2421 1.390 . S
C2427 C2424 1.386 . S
C2428 C2423 1.490 . S
C2428 C2430 1.395 1_655 S
C2428 C2431 1.403 . S
H2429 C2435 0.930 . S
C2430 H2416 0.930 . S
C2430 C2428 1.395 1_455 S
C2430 C2433 1.403 . S
C2431 C2428 1.403 . S
C2431 C2432 1.524 . S
C2431 C2435 1.400 . S
C2432 H2417 0.960 . S
C2432 H2418 0.960 . S
C2432 H2419 0.960 . S
C2432 C2431 1.524 . S
C2433 C2430 1.403 . S
C2433 C2434 1.392 1_455 S
C2433 C2437 1.495 . S
C2434 C2433 1.392 1_655 S
C2434 C2435 1.385 . S
C2434 C2436 1.478 . S
C2435 H2429 0.930 . S
C2435 C2431 1.400 . S
C2435 C2434 1.385 . S
C2436 C2434 1.478 . S
C2436 C2438 1.360 1_655 S
C2436 C2442 1.383 . S
C2437 C2433 1.495 . S
C2437 H2443 0.959 . S
C2437 H2444 0.961 . S
C2437 H2445 0.960 . S
C2438 C2436 1.360 1_455 S
C2438 C2439 1.372 . S
C2438 H2446 0.978 . S
C2439 C2438 1.372 . S
C2439 C2440 1.383 1_455 S
C2439 H2447 0.929 . S
C2440 C2439 1.383 1_655 S
C2440 C2441 1.377 . S
C2441 H2425 0.930 . S
C2441 C2440 1.377 . S
C2441 C2442 1.379 . S
C2442 H2426 0.931 . S
C2442 C2436 1.383 . S
C2442 C2441 1.379 . S
H2443 C2437 0.959 . S
H2444 C2437 0.961 . S
H2445 C2437 0.960 . S
H2446 C2438 0.978 . S
H2447 C2439 0.929 . S
H2448 C2456 0.929 . S
H2449 C2458 0.930 . S
H2450 C2460 0.930 . S
H2451 C2463 0.929 . S
H2452 C2466 0.930 . S
H2453 C2468 0.960 . S
H2454 C2468 0.960 . S
H2455 C2468 0.960 . S
C2456 H2448 0.929 . S
C2456 C2457 1.377 . S
C2456 C2458 1.384 . S
C2457 C2456 1.377 . S
C2457 C2463 1.390 . S
C2458 H2449 0.930 . S
C2458 C2456 1.384 . S
C2458 C2459 1.372 . S
C2459 C2458 1.372 . S
C2459 C2460 1.400 . S
C2459 C2464 1.490 . S
C2460 H2450 0.930 . S
C2460 C2459 1.400 . S
C2460 C2463 1.386 . S
H2461 C2477 0.930 . S
H2462 C2478 0.931 . S
C2463 H2451 0.929 . S
C2463 C2457 1.390 . S
C2463 C2460 1.386 . S
C2464 C2459 1.490 . S
C2464 C2466 1.395 . S
C2464 C2467 1.403 . S
H2465 C2471 0.930 . S
C2466 H2452 0.930 . S
C2466 C2464 1.395 . S
C2466 C2469 1.403 . S
C2467 C2464 1.403 . S
C2467 C2468 1.524 . S
C2467 C2471 1.400 . S
C2468 H2453 0.960 . S
C2468 H2454 0.960 . S
C2468 H2455 0.960 . S
C2468 C2467 1.524 . S
C2469 C2466 1.403 . S
C2469 C2470 1.392 . S
C2469 C2473 1.495 . S
C2470 C2469 1.392 . S
C2470 C2471 1.385 . S
C2470 C2472 1.478 . S
C2471 H2465 0.930 . S
C2471 C2467 1.400 . S
C2471 C2470 1.385 . S
C2472 C2470 1.478 . S
C2472 C2474 1.381 . S
C2472 C2478 1.383 . S
C2473 C2469 1.495 . S
C2473 H2479 0.959 . S
C2473 H2480 0.961 . S
C2473 H2481 0.960 . S
C2474 C2472 1.381 . S
C2474 C2475 1.394 . S
C2474 H2482 0.930 . S
C2475 C2474 1.394 . S
C2475 C2476 1.383 . S
C2475 H2483 0.929 . S
C2476 C2475 1.383 . S
C2476 C2477 1.377 . S
C2477 H2461 0.930 . S
C2477 C2476 1.377 . S
C2477 C2478 1.379 . S
C2478 H2462 0.931 . S
C2478 C2472 1.383 . S
C2478 C2477 1.379 . S
H2479 C2473 0.959 . S
H2480 C2473 0.961 . S
H2481 C2473 0.960 . S
H2482 C2474 0.930 . S
H2483 C2475 0.929 . S
H2484 C2492 0.929 . S
H2485 C2494 0.930 . S
H2486 C2496 0.930 1_565 S
H2487 C2499 0.919 1_565 S
H2488 C2502 0.930 . S
H2489 C2504 0.936 1_565 S
H2490 C2504 0.960 . S
H2491 C2504 0.960 1_565 S
C2492 H2484 0.929 . S
C2492 C2493 1.377 . S
C2492 C2494 1.384 . S
C2493 C2492 1.377 . S
C2493 C2499 1.390 . S
C2494 H2485 0.930 . S
C2494 C2492 1.384 . S
C2494 C2495 1.372 . S
C2495 C2494 1.372 . S
C2495 C2496 1.400 . S
C2495 C2500 1.490 . S
C2496 H2486 0.930 1_545 S
C2496 C2495 1.400 . S
C2496 C2499 1.386 . S
H2497 C2513 0.930 . S
H2498 C2514 0.931 . S
C2499 H2487 0.919 1_545 S
C2499 C2493 1.390 . S
C2499 C2496 1.386 . S
C2500 C2495 1.490 . S
C2500 C2502 1.395 . S
C2500 C2503 1.403 . S
H2501 C2507 0.930 . S
C2502 H2488 0.930 . S
C2502 C2500 1.395 . S
C2502 C2505 1.403 . S
C2503 C2500 1.403 . S
C2503 C2504 1.524 . S
C2503 C2507 1.400 . S
C2504 H2489 0.936 1_545 S
C2504 H2490 0.960 . S
C2504 H2491 0.960 1_545 S
C2504 C2503 1.524 . S
C2505 C2502 1.403 . S
C2505 C2506 1.392 . S
C2505 C2509 1.495 . S
C2506 C2505 1.392 . S
C2506 C2507 1.385 . S
C2506 C2508 1.478 . S
C2507 H2501 0.930 . S
C2507 C2503 1.400 . S
C2507 C2506 1.385 . S
C2508 C2506 1.478 . S
C2508 C2510 1.381 . S
C2508 C2514 1.383 1_545 S
C2509 C2505 1.495 . S
C2509 H2515 0.959 . S
C2509 H2516 0.961 . S
C2509 H2517 0.960 . S
C2510 C2508 1.381 . S
C2510 C2511 1.394 . S
C2510 H2518 0.930 . S
C2511 C2510 1.394 . S
C2511 C2512 1.383 . S
C2511 H2519 0.929 . S
C2512 C2511 1.383 . S
C2512 C2513 1.377 1_545 S
C2513 H2497 0.930 . S
C2513 C2512 1.377 1_565 S
C2513 C2514 1.379 . S
C2514 H2498 0.931 . S
C2514 C2508 1.383 1_565 S
C2514 C2513 1.379 . S
H2515 C2509 0.959 . S
H2516 C2509 0.961 . S
H2517 C2509 0.960 . S
H2518 C2510 0.930 . S
H2519 C2511 0.929 . S
H2520 C2528 0.929 1_545 S
H2521 C2530 0.930 1_545 S
H2522 C2532 0.930 . S
H2523 C2535 0.929 . S
H2524 C2538 0.930 . S
H2525 C2540 0.960 . S
H2526 C2540 0.960 . S
H2527 C2540 0.960 . S
C2528 H2520 0.929 1_565 S
C2528 C2529 1.377 . S
C2528 C2530 1.384 . S
C2529 C2528 1.377 . S
C2529 C2535 1.390 . S
C2530 H2521 0.930 1_565 S
C2530 C2528 1.384 . S
C2530 C2531 1.372 . S
C2531 C2530 1.372 . S
C2531 C2532 1.400 . S
C2531 C2536 1.490 . S
C2532 H2522 0.930 . S
C2532 C2531 1.400 . S
C2532 C2535 1.386 . S
H2533 C2549 0.930 . S
H2534 C2550 0.931 . S
C2535 H2523 0.929 . S
C2535 C2529 1.390 . S
C2535 C2532 1.386 . S
C2536 C2531 1.490 . S
C2536 C2538 1.395 . S
C2536 C2539 1.403 . S
H2537 C2543 0.930 . S
C2538 H2524 0.930 . S
C2538 C2536 1.395 . S
C2538 C2541 1.403 . S
C2539 C2536 1.403 . S
C2539 C2540 1.524 . S
C2539 C2543 1.400 . S
C2540 H2525 0.960 . S
C2540 H2526 0.960 . S
C2540 H2527 0.960 . S
C2540 C2539 1.524 . S
C2541 C2538 1.403 . S
C2541 C2542 1.392 . S
C2541 C2545 1.495 1_565 S
C2542 C2541 1.392 . S
C2542 C2543 1.385 . S
C2542 C2544 1.478 . S
C2543 H2537 0.930 . S
C2543 C2539 1.400 . S
C2543 C2542 1.385 . S
C2544 C2542 1.478 . S
C2544 C2546 1.381 1_565 S
C2544 C2550 1.383 . S
C2545 C2541 1.495 1_545 S
C2545 H2551 0.959 . S
C2545 H2552 0.961 1_545 S
C2545 H2553 0.960 . S
C2546 C2544 1.381 1_545 S
C2546 C2547 1.394 . S
C2546 H2554 0.930 . S
C2547 C2546 1.394 . S
C2547 C2548 1.383 1_545 S
C2547 H2555 0.929 . S
C2548 C2547 1.383 1_565 S
C2548 C2549 1.377 . S
C2549 H2533 0.930 . S
C2549 C2548 1.377 . S
C2549 C2550 1.379 . S
C2550 H2534 0.931 . S
C2550 C2544 1.383 . S
C2550 C2549 1.379 . S
H2551 C2545 0.959 . S
H2552 C2545 0.961 1_565 S
H2553 C2545 0.960 . S
H2554 C2546 0.930 . S
H2555 C2547 0.929 . S
H2556 C2564 0.929 . S
H2557 C2566 0.930 . S
H2558 C2568 0.930 1_655 S
H2559 C2571 0.929 . S
H2560 C2574 0.930 . S
H2561 C2576 0.960 . S
H2562 C2576 0.960 . S
H2563 C2576 0.960 . S
C2564 H2556 0.929 . S
C2564 C2565 1.377 . S
C2564 C2566 1.384 . S
C2565 C2564 1.377 . S
C2565 C2571 1.390 . S
C2566 H2557 0.930 . S
C2566 C2564 1.384 . S
C2566 C2567 1.372 . S
C2567 C2566 1.372 . S
C2567 C2568 1.400 . S
C2567 C2572 1.490 . S
C2568 H2558 0.930 1_455 S
C2568 C2567 1.400 . S
C2568 C2571 1.386 . S
H2569 C2585 0.930 . S
H2570 C2586 0.931 . S
C2571 H2559 0.929 . S
C2571 C2565 1.390 . S
C2571 C2568 1.386 . S
C2572 C2567 1.490 . S
C2572 C2574 1.395 . S
C2572 C2575 1.403 . S
H2573 C2579 0.930 . S
C2574 H2560 0.930 . S
C2574 C2572 1.395 . S
C2574 C2577 1.403 . S
C2575 C2572 1.403 . S
C2575 C2576 1.524 . S
C2575 C2579 1.400 . S
C2576 H2561 0.960 . S
C2576 H2562 0.960 . S
C2576 H2563 0.960 . S
C2576 C2575 1.524 . S
C2577 C2574 1.403 . S
C2577 C2578 1.392 . S
C2577 C2581 1.495 . S
C2578 C2577 1.392 . S
C2578 C2579 1.385 . S
C2578 C2580 1.478 . S
C2579 H2573 0.930 . S
C2579 C2575 1.400 . S
C2579 C2578 1.385 . S
C2580 C2578 1.478 . S
C2580 C2582 1.381 . S
C2580 C2586 1.383 1_455 S
C2581 C2577 1.495 . S
C2581 H2587 0.959 . S
C2581 H2588 0.961 . S
C2581 H2589 0.960 . S
C2582 C2580 1.381 . S
C2582 C2583 1.394 . S
C2582 H2590 0.930 . S
C2583 C2582 1.394 . S
C2583 C2584 1.383 . S
C2583 H2591 0.929 . S
C2584 C2583 1.383 . S
C2584 C2585 1.377 1_455 S
C2585 H2569 0.930 . S
C2585 C2584 1.377 1_655 S
C2585 C2586 1.379 . S
C2586 H2570 0.931 . S
C2586 C2580 1.383 1_655 S
C2586 C2585 1.379 . S
H2587 C2581 0.959 . S
H2588 C2581 0.961 . S
H2589 C2581 0.960 . S
H2590 C2582 0.930 . S
H2591 C2583 0.929 . S
H2592 C2600 0.929 . S
H2593 C2602 0.930 . S
H2594 C2604 0.930 . S
H2595 C2607 0.929 . S
H2596 C2610 0.930 . S
H2597 C2612 0.960 . S
H2598 C2612 0.960 . S
H2599 C2612 0.960 . S
C2600 H2592 0.929 . S
C2600 C2601 1.377 . S
C2600 C2602 1.384 . S
C2601 C2600 1.377 . S
C2601 C2607 1.390 . S
C2602 H2593 0.930 . S
C2602 C2600 1.384 . S
C2602 C2603 1.372 . S
C2603 C2602 1.372 . S
C2603 C2604 1.400 . S
C2603 C2608 1.490 . S
C2604 H2594 0.930 . S
C2604 C2603 1.400 . S
C2604 C2607 1.386 . S
H2605 C2621 0.930 . S
H2606 C2622 0.931 . S
C2607 H2595 0.929 . S
C2607 C2601 1.390 . S
C2607 C2604 1.386 . S
C2608 C2603 1.490 . S
C2608 C2610 1.395 . S
C2608 C2611 1.403 . S
H2609 C2615 0.930 . S
C2610 H2596 0.930 . S
C2610 C2608 1.395 . S
C2610 C2613 1.403 . S
C2611 C2608 1.403 . S
C2611 C2612 1.524 . S
C2611 C2615 1.400 . S
C2612 H2597 0.960 . S
C2612 H2598 0.960 . S
C2612 H2599 0.960 . S
C2612 C2611 1.524 . S
C2613 C2610 1.403 . S
C2613 C2614 1.392 . S
C2613 C2617 1.495 . S
C2614 C2613 1.392 . S
C2614 C2615 1.385 . S
C2614 C2616 1.478 . S
C2615 H2609 0.930 . S
C2615 C2611 1.400 . S
C2615 C2614 1.385 . S
C2616 C2614 1.478 . S
C2616 C2618 1.381 . S
C2616 C2622 1.383 . S
C2617 C2613 1.495 . S
C2617 H2623 0.959 . S
C2617 H2624 0.961 . S
C2617 H2625 0.960 . S
C2618 C2616 1.381 . S
C2618 C2619 1.394 . S
C2618 H2626 0.930 . S
C2619 C2618 1.394 . S
C2619 C2620 1.383 . S
C2619 H2627 0.929 . S
C2620 C2619 1.383 . S
C2620 C2621 1.377 . S
C2621 H2605 0.930 . S
C2621 C2620 1.377 . S
C2621 C2622 1.379 . S
C2622 H2606 0.931 . S
C2622 C2616 1.383 . S
C2622 C2621 1.379 . S
H2623 C2617 0.959 . S
H2624 C2617 0.961 . S
H2625 C2617 0.960 . S
H2626 C2618 0.930 . S
H2627 C2619 0.929 . S
H2628 C2636 0.929 . S
H2629 C2638 0.930 . S
H2630 C2640 0.930 . S
H2631 C2643 0.929 . S
H2632 C2646 0.867 1_655 S
H2633 C2648 0.960 . S
H2634 C2648 0.960 . S
H2635 C2648 0.960 . S
C2636 H2628 0.929 . S
C2636 C2637 1.377 . S
C2636 C2638 1.384 . S
C2637 C2636 1.377 . S
C2637 C2643 1.390 . S
C2638 H2629 0.930 . S
C2638 C2636 1.384 . S
C2638 C2639 1.372 . S
C2639 C2638 1.372 . S
C2639 C2640 1.400 . S
C2639 C2644 1.490 . S
C2640 H2630 0.930 . S
C2640 C2639 1.400 . S
C2640 C2643 1.386 . S
H2641 C2657 0.956 . S
H2642 C2658 0.931 . S
C2643 H2631 0.929 . S
C2643 C2637 1.390 . S
C2643 C2640 1.386 . S
C2644 C2639 1.490 . S
C2644 C2646 1.441 . S
C2644 C2647 1.403 . S
H2645 C2651 0.930 . S
C2646 H2632 0.867 1_455 S
C2646 C2644 1.441 . S
C2646 C2649 1.427 1_455 S
C2647 C2644 1.403 . S
C2647 C2648 1.524 . S
C2647 C2651 1.400 . S
C2648 H2633 0.960 . S
C2648 H2634 0.960 . S
C2648 H2635 0.960 . S
C2648 C2647 1.524 . S
C2649 C2646 1.427 1_655 S
C2649 C2650 1.392 1_655 S
C2649 C2653 1.495 . S
C2650 C2649 1.392 1_455 S
C2650 C2651 1.385 . S
C2650 C2652 1.478 . S
C2651 H2645 0.930 . S
C2651 C2647 1.400 . S
C2651 C2650 1.385 . S
C2652 C2650 1.478 . S
C2652 C2654 1.381 . S
C2652 C2658 1.383 . S
C2653 C2649 1.495 . S
C2653 H2659 0.959 . S
C2653 H2660 0.961 . S
C2653 H2661 0.960 . S
C2654 C2652 1.381 . S
C2654 C2655 1.394 . S
C2654 H2662 0.930 . S
C2655 C2654 1.394 . S
C2655 C2656 1.383 . S
C2655 H2663 0.929 . S
C2656 C2655 1.383 . S
C2656 C2657 1.377 . S
C2657 H2641 0.956 . S
C2657 C2656 1.377 . S
C2657 C2658 1.379 . S
C2658 H2642 0.931 . S
C2658 C2652 1.383 . S
C2658 C2657 1.379 . S
H2659 C2653 0.959 . S
H2660 C2653 0.961 . S
H2661 C2653 0.960 . S
H2662 C2654 0.930 . S
H2663 C2655 0.929 . S
H2664 C2672 0.929 . S
H2665 C2674 0.930 . S
H2666 C2676 0.930 . S
H2667 C2679 0.929 . S
H2668 C2682 0.930 . S
H2669 C2684 0.960 . S
H2670 C2684 0.960 . S
H2671 C2684 0.960 . S
C2672 H2664 0.929 . S
C2672 C2673 1.377 . S
C2672 C2674 1.384 . S
C2673 C2672 1.377 . S
C2673 C2679 1.390 . S
C2674 H2665 0.930 . S
C2674 C2672 1.384 . S
C2674 C2675 1.372 . S
C2675 C2674 1.372 . S
C2675 C2676 1.400 . S
C2675 C2680 1.490 . S
C2676 H2666 0.930 . S
C2676 C2675 1.400 . S
C2676 C2679 1.386 . S
H2677 C2693 0.930 . S
H2678 C2694 0.931 . S
C2679 H2667 0.929 . S
C2679 C2673 1.390 . S
C2679 C2676 1.386 . S
C2680 C2675 1.490 . S
C2680 C2682 1.395 . S
C2680 C2683 1.403 . S
H2681 C2687 0.930 . S
C2682 H2668 0.930 . S
C2682 C2680 1.395 . S
C2682 C2685 1.403 . S
C2683 C2680 1.403 . S
C2683 C2684 1.524 . S
C2683 C2687 1.400 . S
C2684 H2669 0.960 . S
C2684 H2670 0.960 . S
C2684 H2671 0.960 . S
C2684 C2683 1.524 . S
C2685 C2682 1.403 . S
C2685 C2686 1.392 . S
C2685 C2689 1.495 . S
C2686 C2685 1.392 . S
C2686 C2687 1.385 . S
C2686 C2688 1.478 . S
C2687 H2681 0.930 . S
C2687 C2683 1.400 . S
C2687 C2686 1.385 . S
C2688 C2686 1.478 . S
C2688 C2690 1.381 . S
C2688 C2694 1.383 . S
C2689 C2685 1.495 . S
C2689 H2695 0.959 . S
C2689 H2696 0.961 . S
C2689 H2697 0.960 . S
C2690 C2688 1.381 . S
C2690 C2691 1.394 . S
C2690 H2698 0.930 . S
C2691 C2690 1.394 . S
C2691 C2692 1.383 . S
C2691 H2699 0.929 . S
C2692 C2691 1.383 . S
C2692 C2693 1.377 . S
C2693 H2677 0.930 . S
C2693 C2692 1.377 . S
C2693 C2694 1.379 . S
C2694 H2678 0.931 . S
C2694 C2688 1.383 . S
C2694 C2693 1.379 . S
H2695 C2689 0.959 . S
H2696 C2689 0.961 . S
H2697 C2689 0.960 . S
H2698 C2690 0.930 . S
H2699 C2691 0.929 . S
H2700 C2708 0.929 . S
H2701 C2710 0.930 . S
H2702 C2712 0.930 1_545 S
H2703 C2715 0.929 1_545 S
H2704 C2718 0.930 . S
H2705 C2720 0.960 . S
H2706 C2720 0.960 . S
H2707 C2720 0.956 . S
C2708 H2700 0.929 . S
C2708 C2709 1.377 . S
C2708 C2710 1.384 . S
C2709 C2708 1.377 . S
C2709 C2715 1.390 . S
C2710 H2701 0.930 . S
C2710 C2708 1.384 . S
C2710 C2711 1.372 . S
C2711 C2710 1.372 . S
C2711 C2712 1.400 . S
C2711 C2716 1.490 . S
C2712 H2702 0.930 1_565 S
C2712 C2711 1.400 . S
C2712 C2715 1.386 . S
H2713 C2729 0.930 . S
H2714 C2730 0.931 . S
C2715 H2703 0.929 1_565 S
C2715 C2709 1.390 . S
C2715 C2712 1.386 . S
C2716 C2711 1.490 . S
C2716 C2718 1.395 . S
C2716 C2719 1.403 . S
H2717 C2723 0.930 . S
C2718 H2704 0.930 . S
C2718 C2716 1.395 . S
C2718 C2721 1.403 . S
C2719 C2716 1.403 . S
C2719 C2720 1.524 . S
C2719 C2723 1.400 . S
C2720 H2705 0.960 . S
C2720 H2706 0.960 . S
C2720 H2707 0.956 . S
C2720 C2719 1.524 . S
C2721 C2718 1.403 . S
C2721 C2722 1.392 . S
C2721 C2725 1.495 . S
C2722 C2721 1.392 . S
C2722 C2723 1.385 . S
C2722 C2724 1.478 . S
C2723 H2717 0.930 . S
C2723 C2719 1.400 . S
C2723 C2722 1.385 . S
C2724 C2722 1.478 . S
C2724 C2726 1.381 . S
C2724 C2730 1.383 1_565 S
C2725 C2721 1.495 . S
C2725 H2731 0.959 . S
C2725 H2732 0.961 . S
C2725 H2733 0.960 . S
C2726 C2724 1.381 . S
C2726 C2727 1.394 . S
C2726 H2734 0.930 . S
C2727 C2726 1.394 . S
C2727 C2728 1.383 . S
C2727 H2735 0.929 . S
C2728 C2727 1.383 . S
C2728 C2729 1.377 1_565 S
C2729 H2713 0.930 . S
C2729 C2728 1.377 1_545 S
C2729 C2730 1.379 . S
C2730 H2714 0.931 . S
C2730 C2724 1.383 1_545 S
C2730 C2729 1.379 . S
H2731 C2725 0.959 . S
H2732 C2725 0.961 . S
H2733 C2725 0.960 . S
H2734 C2726 0.930 . S
H2735 C2727 0.929 . S
H2736 C2744 0.950 . S
H2737 C2746 0.930 1_565 S
H2738 C2748 0.930 . S
H2739 C2751 0.929 . S
H2740 C2754 0.828 1_565 S
H2741 C2756 0.960 . S
H2742 C2756 0.960 . S
H2743 C2756 0.960 . S
C2744 H2736 0.950 . S
C2744 C2745 1.377 . S
C2744 C2746 1.384 . S
C2745 C2744 1.377 . S
C2745 C2751 1.390 . S
C2746 H2737 0.930 1_545 S
C2746 C2744 1.384 . S
C2746 C2747 1.372 . S
C2747 C2746 1.372 . S
C2747 C2748 1.400 . S
C2747 C2752 1.490 . S
C2748 H2738 0.930 . S
C2748 C2747 1.400 . S
C2748 C2751 1.386 . S
H2749 C2765 0.930 . S
H2750 C2766 0.931 . S
C2751 H2739 0.929 . S
C2751 C2745 1.390 . S
C2751 C2748 1.386 . S
C2752 C2747 1.490 . S
C2752 C2754 1.474 . S
C2752 C2755 1.403 . S
H2753 C2759 0.930 . S
C2754 H2740 0.828 1_545 S
C2754 C2752 1.474 . S
C2754 C2757 1.430 1_545 S
C2755 C2752 1.403 . S
C2755 C2756 1.524 . S
C2755 C2759 1.400 . S
C2756 H2741 0.960 . S
C2756 H2742 0.960 . S
C2756 H2743 0.960 . S
C2756 C2755 1.524 . S
C2757 C2754 1.430 1_565 S
C2757 C2758 1.392 1_565 S
C2757 C2761 1.495 . S
C2758 C2757 1.392 1_545 S
C2758 C2759 1.385 . S
C2758 C2760 1.478 . S
C2759 H2753 0.930 . S
C2759 C2755 1.400 . S
C2759 C2758 1.385 . S
C2760 C2758 1.478 . S
C2760 C2762 1.381 1_545 S
C2760 C2766 1.383 . S
C2761 C2757 1.495 . S
C2761 H2767 0.959 . S
C2761 H2768 0.961 . S
C2761 H2769 0.960 . S
C2762 C2760 1.381 1_565 S
C2762 C2763 1.394 . S
C2762 H2770 0.930 . S
C2763 C2762 1.394 . S
C2763 C2764 1.383 1_565 S
C2763 H2771 0.929 . S
C2764 C2763 1.383 1_545 S
C2764 C2765 1.377 . S
C2765 H2749 0.930 . S
C2765 C2764 1.377 . S
C2765 C2766 1.379 . S
C2766 H2750 0.931 . S
C2766 C2760 1.383 . S
C2766 C2765 1.379 . S
H2767 C2761 0.959 . S
H2768 C2761 0.961 . S
H2769 C2761 0.960 . S
H2770 C2762 0.930 . S
H2771 C2763 0.929 . S
H2772 C2780 0.929 . S
H2773 C2782 0.930 . S
H2774 C2784 0.930 . S
H2775 C2787 0.929 . S
H2776 C2790 0.930 . S
H2777 C2792 0.960 . S
H2778 C2792 0.960 . S
H2779 C2792 0.960 . S
C2780 H2772 0.929 . S
C2780 C2781 1.377 . S
C2780 C2782 1.384 . S
C2781 C2780 1.377 . S
C2781 C2787 1.390 . S
C2782 H2773 0.930 . S
C2782 C2780 1.384 . S
C2782 C2783 1.372 . S
C2783 C2782 1.372 . S
C2783 C2784 1.400 . S
C2783 C2788 1.490 . S
C2784 H2774 0.930 . S
C2784 C2783 1.400 . S
C2784 C2787 1.386 . S
H2785 C2801 0.930 1_455 S
H2786 C2802 0.931 . S
C2787 H2775 0.929 . S
C2787 C2781 1.390 . S
C2787 C2784 1.386 . S
C2788 C2783 1.490 . S
C2788 C2790 1.395 . S
C2788 C2791 1.463 . S
H2789 C2795 0.910 1_455 S
C2790 H2776 0.930 . S
C2790 C2788 1.395 . S
C2790 C2793 1.403 . S
C2791 C2788 1.463 . S
C2791 C2792 1.491 1_655 S
C2791 C2795 1.383 . S
C2792 H2777 0.960 . S
C2792 H2778 0.960 . S
C2792 H2779 0.960 . S
C2792 C2791 1.491 1_455 S
C2793 C2790 1.403 . S
C2793 C2794 1.392 . S
C2793 C2797 1.495 . S
C2794 C2793 1.392 . S
C2794 C2795 1.396 . S
C2794 C2796 1.478 . S
C2795 H2789 0.910 1_655 S
C2795 C2791 1.383 . S
C2795 C2794 1.396 . S
C2796 C2794 1.478 . S
C2796 C2798 1.381 . S
C2796 C2802 1.383 . S
C2797 C2793 1.495 . S
C2797 H2803 0.959 . S
C2797 H2804 0.961 . S
C2797 H2805 0.960 . S
C2798 C2796 1.381 . S
C2798 C2799 1.394 . S
C2798 H2806 0.930 . S
C2799 C2798 1.394 . S
C2799 C2800 1.383 . S
C2799 H2807 0.929 . S
C2800 C2799 1.383 . S
C2800 C2801 1.377 . S
C2801 H2785 0.930 1_655 S
C2801 C2800 1.377 . S
C2801 C2802 1.379 . S
C2802 H2786 0.931 . S
C2802 C2796 1.383 . S
C2802 C2801 1.379 . S
H2803 C2797 0.959 . S
H2804 C2797 0.961 . S
H2805 C2797 0.960 . S
H2806 C2798 0.930 . S
H2807 C2799 0.929 . S
H2808 C2816 0.929 . S
H2809 C2818 0.930 . S
H2810 C2820 0.930 . S
H2811 C2823 0.929 . S
H2812 C2826 0.930 . S
H2813 C2828 0.960 . S
H2814 C2828 0.960 . S
H2815 C2828 0.960 . S
C2816 H2808 0.929 . S
C2816 C2817 1.377 . S
C2816 C2818 1.384 . S
C2817 C2816 1.377 . S
C2817 C2823 1.390 . S
C2818 H2809 0.930 . S
C2818 C2816 1.384 . S
C2818 C2819 1.372 . S
C2819 C2818 1.372 . S
C2819 C2820 1.400 . S
C2819 C2824 1.490 . S
C2820 H2810 0.930 . S
C2820 C2819 1.400 . S
C2820 C2823 1.386 . S
H2821 C2837 0.930 . S
H2822 C2838 0.931 . S
C2823 H2811 0.929 . S
C2823 C2817 1.390 . S
C2823 C2820 1.386 . S
C2824 C2819 1.490 . S
C2824 C2826 1.395 . S
C2824 C2827 1.403 . S
H2825 C2831 0.930 . S
C2826 H2812 0.930 . S
C2826 C2824 1.395 . S
C2826 C2829 1.403 . S
C2827 C2824 1.403 . S
C2827 C2828 1.524 . S
C2827 C2831 1.400 . S
C2828 H2813 0.960 . S
C2828 H2814 0.960 . S
C2828 H2815 0.960 . S
C2828 C2827 1.524 . S
C2829 C2826 1.403 . S
C2829 C2830 1.392 . S
C2829 C2833 1.495 . S
C2830 C2829 1.392 . S
C2830 C2831 1.385 . S
C2830 C2832 1.478 . S
C2831 H2825 0.930 . S
C2831 C2827 1.400 . S
C2831 C2830 1.385 . S
C2832 C2830 1.478 . S
C2832 C2834 1.381 . S
C2832 C2838 1.383 . S
C2833 C2829 1.495 . S
C2833 H2839 0.959 . S
C2833 H2840 0.961 . S
C2833 H2841 0.960 . S
C2834 C2832 1.381 . S
C2834 C2835 1.394 . S
C2834 H2842 0.930 . S
C2835 C2834 1.394 . S
C2835 C2836 1.383 . S
C2835 H2843 0.929 . S
C2836 C2835 1.383 . S
C2836 C2837 1.377 . S
C2837 H2821 0.930 . S
C2837 C2836 1.377 . S
C2837 C2838 1.379 . S
C2838 H2822 0.931 . S
C2838 C2832 1.383 . S
C2838 C2837 1.379 . S
H2839 C2833 0.959 . S
H2840 C2833 0.961 . S
H2841 C2833 0.960 . S
H2842 C2834 0.930 . S
H2843 C2835 0.929 . S
H2844 C2852 0.929 . S
H2845 C2854 0.930 . S
H2846 C2856 0.930 . S
H2847 C2859 0.929 . S
H2848 C2862 0.930 . S
H2849 C2864 0.960 . S
H2850 C2864 0.960 . S
H2851 C2864 0.960 . S
C2852 H2844 0.929 . S
C2852 C2853 1.377 . S
C2852 C2854 1.384 . S
C2853 C2852 1.377 . S
C2853 C2859 1.390 . S
C2854 H2845 0.930 . S
C2854 C2852 1.384 . S
C2854 C2855 1.372 . S
C2855 C2854 1.372 . S
C2855 C2856 1.400 . S
C2855 C2860 1.490 . S
C2856 H2846 0.930 . S
C2856 C2855 1.400 . S
C2856 C2859 1.386 . S
H2857 C2873 0.930 . S
H2858 C2874 0.931 . S
C2859 H2847 0.929 . S
C2859 C2853 1.390 . S
C2859 C2856 1.386 . S
C2860 C2855 1.490 . S
C2860 C2862 1.395 . S
C2860 C2863 1.403 . S
H2861 C2867 0.930 . S
C2862 H2848 0.930 . S
C2862 C2860 1.395 . S
C2862 C2865 1.403 . S
C2863 C2860 1.403 . S
C2863 C2864 1.524 . S
C2863 C2867 1.400 . S
C2864 H2849 0.960 . S
C2864 H2850 0.960 . S
C2864 H2851 0.960 . S
C2864 C2863 1.524 . S
C2865 C2862 1.403 . S
C2865 C2866 1.392 . S
C2865 C2869 1.495 . S
C2866 C2865 1.392 . S
C2866 C2867 1.385 . S
C2866 C2868 1.478 . S
C2867 H2861 0.930 . S
C2867 C2863 1.400 . S
C2867 C2866 1.385 . S
C2868 C2866 1.478 . S
C2868 C2870 1.381 . S
C2868 C2874 1.383 . S
C2869 C2865 1.495 . S
C2869 H2875 0.959 . S
C2869 H2876 0.961 . S
C2869 H2877 0.960 . S
C2870 C2868 1.381 . S
C2870 C2871 1.394 . S
C2870 H2878 0.930 . S
C2871 C2870 1.394 . S
C2871 C2872 1.383 . S
C2871 H2879 0.929 . S
C2872 C2871 1.383 . S
C2872 C2873 1.377 . S
C2873 H2857 0.930 . S
C2873 C2872 1.377 . S
C2873 C2874 1.379 . S
C2874 H2858 0.931 . S
C2874 C2868 1.383 . S
C2874 C2873 1.379 . S
H2875 C2869 0.959 . S
H2876 C2869 0.961 . S
H2877 C2869 0.960 . S
H2878 C2870 0.930 . S
H2879 C2871 0.929 . S
H2880 C2888 0.929 . S
H2881 C2890 0.930 . S
H2882 C2892 0.930 . S
H2883 C2895 0.929 . S
H2884 C2898 0.930 . S
H2885 C2900 0.960 . S
H2886 C2900 0.960 . S
H2887 C2900 0.960 . S
C2888 H2880 0.929 . S
C2888 C2889 1.377 . S
C2888 C2890 1.384 . S
C2889 C2888 1.377 . S
C2889 C2895 1.390 . S
C2890 H2881 0.930 . S
C2890 C2888 1.384 . S
C2890 C2891 1.372 . S
C2891 C2890 1.372 . S
C2891 C2892 1.400 . S
C2891 C2896 1.490 . S
C2892 H2882 0.930 . S
C2892 C2891 1.400 . S
C2892 C2895 1.386 . S
H2893 C2909 0.930 . S
H2894 C2910 0.931 . S
C2895 H2883 0.929 . S
C2895 C2889 1.390 . S
C2895 C2892 1.386 . S
C2896 C2891 1.490 . S
C2896 C2898 1.395 . S
C2896 C2899 1.403 . S
H2897 C2903 0.930 . S
C2898 H2884 0.930 . S
C2898 C2896 1.395 . S
C2898 C2901 1.403 . S
C2899 C2896 1.403 . S
C2899 C2900 1.524 . S
C2899 C2903 1.400 . S
C2900 H2885 0.960 . S
C2900 H2886 0.960 . S
C2900 H2887 0.960 . S
C2900 C2899 1.524 . S
C2901 C2898 1.403 . S
C2901 C2902 1.392 . S
C2901 C2905 1.495 . S
C2902 C2901 1.392 . S
C2902 C2903 1.385 . S
C2902 C2904 1.478 . S
C2903 H2897 0.930 . S
C2903 C2899 1.400 . S
C2903 C2902 1.385 . S
C2904 C2902 1.478 . S
C2904 C2906 1.381 . S
C2904 C2910 1.383 . S
C2905 C2901 1.495 . S
C2905 H2911 0.959 . S
C2905 H2912 0.961 . S
C2905 H2913 0.960 . S
C2906 C2904 1.381 . S
C2906 C2907 1.394 . S
C2906 H2914 0.930 . S
C2907 C2906 1.394 . S
C2907 C2908 1.383 . S
C2907 H2915 0.929 . S
C2908 C2907 1.383 . S
C2908 C2909 1.377 . S
C2909 H2893 0.930 . S
C2909 C2908 1.377 . S
C2909 C2910 1.379 . S
C2910 H2894 0.931 . S
C2910 C2904 1.383 . S
C2910 C2909 1.379 . S
H2911 C2905 0.959 . S
H2912 C2905 0.961 . S
H2913 C2905 0.960 . S
H2914 C2906 0.930 . S
H2915 C2907 0.929 . S
H2916 C2924 0.929 . S
H2917 C2926 0.930 . S
H2918 C2928 0.930 . S
H2919 C2931 0.929 . S
H2920 C2934 0.930 . S
H2921 C2936 0.960 . S
H2922 C2936 0.960 . S
H2923 C2936 0.960 . S
C2924 H2916 0.929 . S
C2924 C2925 1.377 . S
C2924 C2926 1.384 . S
C2925 C2924 1.377 . S
C2925 C2931 1.390 . S
C2926 H2917 0.930 . S
C2926 C2924 1.384 . S
C2926 C2927 1.372 . S
C2927 C2926 1.372 . S
C2927 C2928 1.400 . S
C2927 C2932 1.490 . S
C2928 H2918 0.930 . S
C2928 C2927 1.400 . S
C2928 C2931 1.386 . S
H2929 C2945 0.930 . S
H2930 C2946 0.931 . S
C2931 H2919 0.929 . S
C2931 C2925 1.390 . S
C2931 C2928 1.386 . S
C2932 C2927 1.490 . S
C2932 C2934 1.395 . S
C2932 C2935 1.403 . S
H2933 C2939 0.930 . S
C2934 H2920 0.930 . S
C2934 C2932 1.395 . S
C2934 C2937 1.403 . S
C2935 C2932 1.403 . S
C2935 C2936 1.524 . S
C2935 C2939 1.400 . S
C2936 H2921 0.960 . S
C2936 H2922 0.960 . S
C2936 H2923 0.960 . S
C2936 C2935 1.524 . S
C2937 C2934 1.403 . S
C2937 C2938 1.392 . S
C2937 C2941 1.495 . S
C2938 C2937 1.392 . S
C2938 C2939 1.385 . S
C2938 C2940 1.478 . S
C2939 H2933 0.930 . S
C2939 C2935 1.400 . S
C2939 C2938 1.385 . S
C2940 C2938 1.478 . S
C2940 C2942 1.381 . S
C2940 C2946 1.383 . S
C2941 C2937 1.495 . S
C2941 H2947 0.959 . S
C2941 H2948 0.961 . S
C2941 H2949 0.960 . S
C2942 C2940 1.381 . S
C2942 C2943 1.394 . S
C2942 H2950 0.930 . S
C2943 C2942 1.394 . S
C2943 C2944 1.383 . S
C2943 H2951 0.929 . S
C2944 C2943 1.383 . S
C2944 C2945 1.377 . S
C2945 H2929 0.930 . S
C2945 C2944 1.377 . S
C2945 C2946 1.379 . S
C2946 H2930 0.931 . S
C2946 C2940 1.383 . S
C2946 C2945 1.379 . S
H2947 C2941 0.959 . S
H2948 C2941 0.961 . S
H2949 C2941 0.960 . S
H2950 C2942 0.930 . S
H2951 C2943 0.929 . S
H2952 C2960 0.929 . S
H2953 C2962 0.930 . S
H2954 C2964 0.930 . S
H2955 C2967 0.929 . S
H2956 C2970 0.930 . S
H2957 C2972 0.960 . S
H2958 C2972 0.960 . S
H2959 C2972 0.960 . S
C2960 H2952 0.929 . S
C2960 C2961 1.377 . S
C2960 C2962 1.384 . S
C2961 C2960 1.377 . S
C2961 C2967 1.390 . S
C2962 H2953 0.930 . S
C2962 C2960 1.384 . S
C2962 C2963 1.372 . S
C2963 C2962 1.372 . S
C2963 C2964 1.400 . S
C2963 C2968 1.490 . S
C2964 H2954 0.930 . S
C2964 C2963 1.400 . S
C2964 C2967 1.386 . S
H2965 C2981 0.930 . S
H2966 C2982 0.931 . S
C2967 H2955 0.929 . S
C2967 C2961 1.390 . S
C2967 C2964 1.386 . S
C2968 C2963 1.490 . S
C2968 C2970 1.395 . S
C2968 C2971 1.403 . S
H2969 C2975 0.930 . S
C2970 H2956 0.930 . S
C2970 C2968 1.395 . S
C2970 C2973 1.403 . S
C2971 C2968 1.403 . S
C2971 C2972 1.524 . S
C2971 C2975 1.400 . S
C2972 H2957 0.960 . S
C2972 H2958 0.960 . S
C2972 H2959 0.960 . S
C2972 C2971 1.524 . S
C2973 C2970 1.403 . S
C2973 C2974 1.392 . S
C2973 C2977 1.495 . S
C2974 C2973 1.392 . S
C2974 C2975 1.385 . S
C2974 C2976 1.478 . S
C2975 H2969 0.930 . S
C2975 C2971 1.400 . S
C2975 C2974 1.385 . S
C2976 C2974 1.478 . S
C2976 C2978 1.381 . S
C2976 C2982 1.383 . S
C2977 C2973 1.495 . S
C2977 H2983 0.959 . S
C2977 H2984 0.961 . S
C2977 H2985 0.960 . S
C2978 C2976 1.381 . S
C2978 C2979 1.394 . S
C2978 H2986 0.930 . S
C2979 C2978 1.394 . S
C2979 C2980 1.383 . S
C2979 H2987 0.929 . S
C2980 C2979 1.383 . S
C2980 C2981 1.377 . S
C2981 H2965 0.930 . S
C2981 C2980 1.377 . S
C2981 C2982 1.379 . S
C2982 H2966 0.931 . S
C2982 C2976 1.383 . S
C2982 C2981 1.379 . S
H2983 C2977 0.959 . S
H2984 C2977 0.961 . S
H2985 C2977 0.960 . S
H2986 C2978 0.930 . S
H2987 C2979 0.929 . S
H2988 C2996 0.929 . S
H2989 C2998 0.930 . S
H2990 C3000 0.930 . S
H2991 C3003 0.929 . S
H2992 C3006 0.930 . S
H2993 C3008 0.960 . S
H2994 C3008 0.960 . S
H2995 C3008 0.960 . S
C2996 H2988 0.929 . S
C2996 C2997 1.377 . S
C2996 C2998 1.384 . S
C2997 C2996 1.377 . S
C2997 C3003 1.390 . S
C2998 H2989 0.930 . S
C2998 C2996 1.384 . S
C2998 C2999 1.372 . S
C2999 C2998 1.372 . S
C2999 C3000 1.400 . S
C2999 C3004 1.490 . S
C3000 H2990 0.930 . S
C3000 C2999 1.400 . S
C3000 C3003 1.386 . S
H3001 C3017 0.930 . S
H3002 C3018 0.931 . S
C3003 H2991 0.929 . S
C3003 C2997 1.390 . S
C3003 C3000 1.386 . S
C3004 C2999 1.490 . S
C3004 C3006 1.395 . S
C3004 C3007 1.403 . S
H3005 C3011 0.930 . S
C3006 H2992 0.930 . S
C3006 C3004 1.395 . S
C3006 C3009 1.403 . S
C3007 C3004 1.403 . S
C3007 C3008 1.524 . S
C3007 C3011 1.400 . S
C3008 H2993 0.960 . S
C3008 H2994 0.960 . S
C3008 H2995 0.960 . S
C3008 C3007 1.524 . S
C3009 C3006 1.403 . S
C3009 C3010 1.392 . S
C3009 C3013 1.495 . S
C3010 C3009 1.392 . S
C3010 C3011 1.385 . S
C3010 C3012 1.478 . S
C3011 H3005 0.930 . S
C3011 C3007 1.400 . S
C3011 C3010 1.385 . S
C3012 C3010 1.478 . S
C3012 C3014 1.381 . S
C3012 C3018 1.383 . S
C3013 C3009 1.495 . S
C3013 H3019 0.959 . S
C3013 H3020 0.961 . S
C3013 H3021 0.960 . S
C3014 C3012 1.381 . S
C3014 C3015 1.394 . S
C3014 H3022 0.930 . S
C3015 C3014 1.394 . S
C3015 C3016 1.383 . S
C3015 H3023 0.929 . S
C3016 C3015 1.383 . S
C3016 C3017 1.377 . S
C3017 H3001 0.930 . S
C3017 C3016 1.377 . S
C3017 C3018 1.379 . S
C3018 H3002 0.931 . S
C3018 C3012 1.383 . S
C3018 C3017 1.379 . S
H3019 C3013 0.959 . S
H3020 C3013 0.961 . S
H3021 C3013 0.960 . S
H3022 C3014 0.930 . S
H3023 C3015 0.929 . S
H3024 C3032 0.929 . S
H3025 C3034 0.930 . S
H3026 C3036 0.930 . S
H3027 C3039 0.929 . S
H3028 C3042 0.930 . S
H3029 C3044 0.960 . S
H3030 C3044 0.960 . S
H3031 C3044 0.960 . S
C3032 H3024 0.929 . S
C3032 C3033 1.377 . S
C3032 C3034 1.384 . S
C3033 C3032 1.377 . S
C3033 C3039 1.390 . S
C3034 H3025 0.930 . S
C3034 C3032 1.384 . S
C3034 C3035 1.372 . S
C3035 C3034 1.372 . S
C3035 C3036 1.400 . S
C3035 C3040 1.490 . S
C3036 H3026 0.930 . S
C3036 C3035 1.400 . S
C3036 C3039 1.386 . S
H3037 C3053 0.930 . S
H3038 C3054 0.931 . S
C3039 H3027 0.929 . S
C3039 C3033 1.390 . S
C3039 C3036 1.386 . S
C3040 C3035 1.490 . S
C3040 C3042 1.395 . S
C3040 C3043 1.403 . S
H3041 C3047 0.930 . S
C3042 H3028 0.930 . S
C3042 C3040 1.395 . S
C3042 C3045 1.403 . S
C3043 C3040 1.403 . S
C3043 C3044 1.524 . S
C3043 C3047 1.400 . S
C3044 H3029 0.960 . S
C3044 H3030 0.960 . S
C3044 H3031 0.960 . S
C3044 C3043 1.524 . S
C3045 C3042 1.403 . S
C3045 C3046 1.392 . S
C3045 C3049 1.495 . S
C3046 C3045 1.392 . S
C3046 C3047 1.385 . S
C3046 C3048 1.478 . S
C3047 H3041 0.930 . S
C3047 C3043 1.400 . S
C3047 C3046 1.385 . S
C3048 C3046 1.478 . S
C3048 C3050 1.381 . S
C3048 C3054 1.383 . S
C3049 C3045 1.495 . S
C3049 H3055 0.959 . S
C3049 H3056 0.961 . S
C3049 H3057 0.960 . S
C3050 C3048 1.381 . S
C3050 C3051 1.394 . S
C3050 H3058 0.930 . S
C3051 C3050 1.394 . S
C3051 C3052 1.383 . S
C3051 H3059 0.929 . S
C3052 C3051 1.383 . S
C3052 C3053 1.377 . S
C3053 H3037 0.930 . S
C3053 C3052 1.377 . S
C3053 C3054 1.379 . S
C3054 H3038 0.931 . S
C3054 C3048 1.383 . S
C3054 C3053 1.379 . S
H3055 C3049 0.959 . S
H3056 C3049 0.961 . S
H3057 C3049 0.960 . S
H3058 C3050 0.930 . S
H3059 C3051 0.929 . S
H3060 C3068 0.929 . S
H3061 C3070 0.930 . S
H3062 C3072 0.930 . S
H3063 C3075 0.929 . S
H3064 C3078 0.930 . S
H3065 C3080 0.960 . S
H3066 C3080 0.960 . S
H3067 C3080 0.960 . S
C3068 H3060 0.929 . S
C3068 C3069 1.377 . S
C3068 C3070 1.384 . S
C3069 C3068 1.377 . S
C3069 C3075 1.390 . S
C3070 H3061 0.930 . S
C3070 C3068 1.384 . S
C3070 C3071 1.372 . S
C3071 C3070 1.372 . S
C3071 C3072 1.400 . S
C3071 C3076 1.490 . S
C3072 H3062 0.930 . S
C3072 C3071 1.400 . S
C3072 C3075 1.386 . S
H3073 C3089 0.930 . S
H3074 C3090 0.931 . S
C3075 H3063 0.929 . S
C3075 C3069 1.390 . S
C3075 C3072 1.386 . S
C3076 C3071 1.490 . S
C3076 C3078 1.395 . S
C3076 C3079 1.403 . S
H3077 C3083 0.930 . S
C3078 H3064 0.930 . S
C3078 C3076 1.395 . S
C3078 C3081 1.403 . S
C3079 C3076 1.403 . S
C3079 C3080 1.524 . S
C3079 C3083 1.400 . S
C3080 H3065 0.960 . S
C3080 H3066 0.960 . S
C3080 H3067 0.960 . S
C3080 C3079 1.524 . S
C3081 C3078 1.403 . S
C3081 C3082 1.392 . S
C3081 C3085 1.495 . S
C3082 C3081 1.392 . S
C3082 C3083 1.385 . S
C3082 C3084 1.478 . S
C3083 H3077 0.930 . S
C3083 C3079 1.400 . S
C3083 C3082 1.385 . S
C3084 C3082 1.478 . S
C3084 C3086 1.381 . S
C3084 C3090 1.383 . S
C3085 C3081 1.495 . S
C3085 H3091 0.959 . S
C3085 H3092 0.961 . S
C3085 H3093 0.960 . S
C3086 C3084 1.381 . S
C3086 C3087 1.394 . S
C3086 H3094 0.930 . S
C3087 C3086 1.394 . S
C3087 C3088 1.383 . S
C3087 H3095 0.929 . S
C3088 C3087 1.383 . S
C3088 C3089 1.377 . S
C3089 H3073 0.930 . S
C3089 C3088 1.377 . S
C3089 C3090 1.379 . S
C3090 H3074 0.931 . S
C3090 C3084 1.383 . S
C3090 C3089 1.379 . S
H3091 C3085 0.959 . S
H3092 C3085 0.961 . S
H3093 C3085 0.960 . S
H3094 C3086 0.930 . S
H3095 C3087 0.929 . S
H3096 C3104 0.929 . S
H3097 C3106 0.930 . S
H3098 C3108 0.930 . S
H3099 C3111 0.929 . S
H3100 C3114 0.930 . S
H3101 C3116 0.960 . S
H3102 C3116 0.960 . S
H3103 C3116 0.960 . S
C3104 H3096 0.929 . S
C3104 C3105 1.377 . S
C3104 C3106 1.384 . S
C3105 C3104 1.377 . S
C3105 C3111 1.390 . S
C3106 H3097 0.930 . S
C3106 C3104 1.384 . S
C3106 C3107 1.372 . S
C3107 C3106 1.372 . S
C3107 C3108 1.400 . S
C3107 C3112 1.490 . S
C3108 H3098 0.930 . S
C3108 C3107 1.400 . S
C3108 C3111 1.386 . S
H3109 C3125 0.930 . S
H3110 C3126 0.931 . S
C3111 H3099 0.929 . S
C3111 C3105 1.390 . S
C3111 C3108 1.386 . S
C3112 C3107 1.490 . S
C3112 C3114 1.395 . S
C3112 C3115 1.403 . S
H3113 C3119 0.930 . S
C3114 H3100 0.930 . S
C3114 C3112 1.395 . S
C3114 C3117 1.403 . S
C3115 C3112 1.403 . S
C3115 C3116 1.524 . S
C3115 C3119 1.400 . S
C3116 H3101 0.960 . S
C3116 H3102 0.960 . S
C3116 H3103 0.960 . S
C3116 C3115 1.524 . S
C3117 C3114 1.403 . S
C3117 C3118 1.392 . S
C3117 C3121 1.495 . S
C3118 C3117 1.392 . S
C3118 C3119 1.385 . S
C3118 C3120 1.478 . S
C3119 H3113 0.930 . S
C3119 C3115 1.400 . S
C3119 C3118 1.385 . S
C3120 C3118 1.478 . S
C3120 C3122 1.381 . S
C3120 C3126 1.383 . S
C3121 C3117 1.495 . S
C3121 H3127 0.959 . S
C3121 H3128 0.961 . S
C3121 H3129 0.960 . S
C3122 C3120 1.381 . S
C3122 C3123 1.394 . S
C3122 H3130 0.930 . S
C3123 C3122 1.394 . S
C3123 C3124 1.383 . S
C3123 H3131 0.929 . S
C3124 C3123 1.383 . S
C3124 C3125 1.377 . S
C3125 H3109 0.930 . S
C3125 C3124 1.377 . S
C3125 C3126 1.379 . S
C3126 H3110 0.931 . S
C3126 C3120 1.383 . S
C3126 C3125 1.379 . S
H3127 C3121 0.959 . S
H3128 C3121 0.961 . S
H3129 C3121 0.960 . S
H3130 C3122 0.930 . S
H3131 C3123 0.929 . S
H3132 C3140 0.929 . S
H3133 C3142 0.930 . S
H3134 C3144 0.930 . S
H3135 C3147 0.929 . S
H3136 C3150 0.930 . S
H3137 C3152 0.960 . S
H3138 C3152 0.960 . S
H3139 C3152 0.960 . S
C3140 H3132 0.929 . S
C3140 C3141 1.377 . S
C3140 C3142 1.384 . S
C3141 C3140 1.377 . S
C3141 C3147 1.390 . S
C3142 H3133 0.930 . S
C3142 C3140 1.384 . S
C3142 C3143 1.372 . S
C3143 C3142 1.372 . S
C3143 C3144 1.400 . S
C3143 C3148 1.490 . S
C3144 H3134 0.930 . S
C3144 C3143 1.400 . S
C3144 C3147 1.386 . S
H3145 C3161 0.930 . S
H3146 C3162 0.931 . S
C3147 H3135 0.929 . S
C3147 C3141 1.390 . S
C3147 C3144 1.386 . S
C3148 C3143 1.490 . S
C3148 C3150 1.395 . S
C3148 C3151 1.403 . S
H3149 C3155 0.930 . S
C3150 H3136 0.930 . S
C3150 C3148 1.395 . S
C3150 C3153 1.403 . S
C3151 C3148 1.403 . S
C3151 C3152 1.524 . S
C3151 C3155 1.400 . S
C3152 H3137 0.960 . S
C3152 H3138 0.960 . S
C3152 H3139 0.960 . S
C3152 C3151 1.524 . S
C3153 C3150 1.403 . S
C3153 C3154 1.392 . S
C3153 C3157 1.495 . S
C3154 C3153 1.392 . S
C3154 C3155 1.385 . S
C3154 C3156 1.478 . S
C3155 H3149 0.930 . S
C3155 C3151 1.400 . S
C3155 C3154 1.385 . S
C3156 C3154 1.478 . S
C3156 C3158 1.381 . S
C3156 C3162 1.383 . S
C3157 C3153 1.495 . S
C3157 H3163 0.959 . S
C3157 H3164 0.961 . S
C3157 H3165 0.960 . S
C3158 C3156 1.381 . S
C3158 C3159 1.394 . S
C3158 H3166 0.930 . S
C3159 C3158 1.394 . S
C3159 C3160 1.383 . S
C3159 H3167 0.929 . S
C3160 C3159 1.383 . S
C3160 C3161 1.377 . S
C3161 H3145 0.930 . S
C3161 C3160 1.377 . S
C3161 C3162 1.379 . S
C3162 H3146 0.931 . S
C3162 C3156 1.383 . S
C3162 C3161 1.379 . S
H3163 C3157 0.959 . S
H3164 C3157 0.961 . S
H3165 C3157 0.960 . S
H3166 C3158 0.930 . S
H3167 C3159 0.929 . S
H3168 C3176 0.929 . S
H3169 C3178 0.930 . S
H3170 C3180 0.930 . S
H3171 C3183 0.929 . S
H3172 C3186 0.930 . S
H3173 C3188 0.960 . S
H3174 C3188 0.960 . S
H3175 C3188 0.960 . S
C3176 H3168 0.929 . S
C3176 C3177 1.377 . S
C3176 C3178 1.384 . S
C3177 C3176 1.377 . S
C3177 C3183 1.390 . S
C3178 H3169 0.930 . S
C3178 C3176 1.384 . S
C3178 C3179 1.372 . S
C3179 C3178 1.372 . S
C3179 C3180 1.400 . S
C3179 C3184 1.490 . S
C3180 H3170 0.930 . S
C3180 C3179 1.400 . S
C3180 C3183 1.386 . S
H3181 C3197 0.930 . S
H3182 C3198 0.931 . S
C3183 H3171 0.929 . S
C3183 C3177 1.390 . S
C3183 C3180 1.386 . S
C3184 C3179 1.490 . S
C3184 C3186 1.395 . S
C3184 C3187 1.403 . S
H3185 C3191 0.930 . S
C3186 H3172 0.930 . S
C3186 C3184 1.395 . S
C3186 C3189 1.403 . S
C3187 C3184 1.403 . S
C3187 C3188 1.524 . S
C3187 C3191 1.400 . S
C3188 H3173 0.960 . S
C3188 H3174 0.960 . S
C3188 H3175 0.960 . S
C3188 C3187 1.524 . S
C3189 C3186 1.403 . S
C3189 C3190 1.392 . S
C3189 C3193 1.495 . S
C3190 C3189 1.392 . S
C3190 C3191 1.385 . S
C3190 C3192 1.478 . S
C3191 H3185 0.930 . S
C3191 C3187 1.400 . S
C3191 C3190 1.385 . S
C3192 C3190 1.478 . S
C3192 C3194 1.381 . S
C3192 C3198 1.383 . S
C3193 C3189 1.495 . S
C3193 H3199 0.959 . S
C3193 H3200 0.961 . S
C3193 H3201 0.960 . S
C3194 C3192 1.381 . S
C3194 C3195 1.394 . S
C3194 H3202 0.930 . S
C3195 C3194 1.394 . S
C3195 C3196 1.383 . S
C3195 H3203 0.929 . S
C3196 C3195 1.383 . S
C3196 C3197 1.377 . S
C3197 H3181 0.930 . S
C3197 C3196 1.377 . S
C3197 C3198 1.379 . S
C3198 H3182 0.931 . S
C3198 C3192 1.383 . S
C3198 C3197 1.379 . S
H3199 C3193 0.959 . S
H3200 C3193 0.961 . S
H3201 C3193 0.960 . S
H3202 C3194 0.930 . S
H3203 C3195 0.929 . S
H3204 C3212 0.929 . S
H3205 C3214 0.930 . S
H3206 C3216 0.930 . S
H3207 C3219 0.929 . S
H3208 C3222 0.930 . S
H3209 C3224 0.960 . S
H3210 C3224 0.960 . S
H3211 C3224 0.960 . S
C3212 H3204 0.929 . S
C3212 C3213 1.377 . S
C3212 C3214 1.384 . S
C3213 C3212 1.377 . S
C3213 C3219 1.390 . S
C3214 H3205 0.930 . S
C3214 C3212 1.384 . S
C3214 C3215 1.372 . S
C3215 C3214 1.372 . S
C3215 C3216 1.400 . S
C3215 C3220 1.490 . S
C3216 H3206 0.930 . S
C3216 C3215 1.400 . S
C3216 C3219 1.386 . S
H3217 C3233 0.930 . S
H3218 C3234 0.931 . S
C3219 H3207 0.929 . S
C3219 C3213 1.390 . S
C3219 C3216 1.386 . S
C3220 C3215 1.490 . S
C3220 C3222 1.395 . S
C3220 C3223 1.403 . S
H3221 C3227 0.930 . S
C3222 H3208 0.930 . S
C3222 C3220 1.395 . S
C3222 C3225 1.403 . S
C3223 C3220 1.403 . S
C3223 C3224 1.524 . S
C3223 C3227 1.400 . S
C3224 H3209 0.960 . S
C3224 H3210 0.960 . S
C3224 H3211 0.960 . S
C3224 C3223 1.524 . S
C3225 C3222 1.403 . S
C3225 C3226 1.392 . S
C3225 C3229 1.495 . S
C3226 C3225 1.392 . S
C3226 C3227 1.385 . S
C3226 C3228 1.478 . S
C3227 H3221 0.930 . S
C3227 C3223 1.400 . S
C3227 C3226 1.385 . S
C3228 C3226 1.478 . S
C3228 C3230 1.381 . S
C3228 C3234 1.383 . S
C3229 C3225 1.495 . S
C3229 H3235 0.959 . S
C3229 H3236 0.961 . S
C3229 H3237 0.960 . S
C3230 C3228 1.381 . S
C3230 C3231 1.394 . S
C3230 H3238 0.930 . S
C3231 C3230 1.394 . S
C3231 C3232 1.383 . S
C3231 H3239 0.929 . S
C3232 C3231 1.383 . S
C3232 C3233 1.377 . S
C3233 H3217 0.930 . S
C3233 C3232 1.377 . S
C3233 C3234 1.379 . S
C3234 H3218 0.931 . S
C3234 C3228 1.383 . S
C3234 C3233 1.379 . S
H3235 C3229 0.959 . S
H3236 C3229 0.961 . S
H3237 C3229 0.960 . S
H3238 C3230 0.930 . S
H3239 C3231 0.929 . S
H3240 C3248 0.929 . S
H3241 C3250 0.930 . S
H3242 C3252 0.930 . S
H3243 C3255 0.929 . S
H3244 C3258 0.930 . S
H3245 C3260 0.960 . S
H3246 C3260 0.960 . S
H3247 C3260 0.960 . S
C3248 H3240 0.929 . S
C3248 C3249 1.377 . S
C3248 C3250 1.384 . S
C3249 C3248 1.377 . S
C3249 C3255 1.390 . S
C3250 H3241 0.930 . S
C3250 C3248 1.384 . S
C3250 C3251 1.372 . S
C3251 C3250 1.372 . S
C3251 C3252 1.400 . S
C3251 C3256 1.490 . S
C3252 H3242 0.930 . S
C3252 C3251 1.400 . S
C3252 C3255 1.386 . S
H3253 C3269 0.930 . S
H3254 C3270 0.931 . S
C3255 H3243 0.929 . S
C3255 C3249 1.390 . S
C3255 C3252 1.386 . S
C3256 C3251 1.490 . S
C3256 C3258 1.395 . S
C3256 C3259 1.403 . S
H3257 C3263 0.930 . S
C3258 H3244 0.930 . S
C3258 C3256 1.395 . S
C3258 C3261 1.403 . S
C3259 C3256 1.403 . S
C3259 C3260 1.524 . S
C3259 C3263 1.400 . S
C3260 H3245 0.960 . S
C3260 H3246 0.960 . S
C3260 H3247 0.960 . S
C3260 C3259 1.524 . S
C3261 C3258 1.403 . S
C3261 C3262 1.392 . S
C3261 C3265 1.495 . S
C3262 C3261 1.392 . S
C3262 C3263 1.385 . S
C3262 C3264 1.478 . S
C3263 H3257 0.930 . S
C3263 C3259 1.400 . S
C3263 C3262 1.385 . S
C3264 C3262 1.478 . S
C3264 C3266 1.381 . S
C3264 C3270 1.383 . S
C3265 C3261 1.495 . S
C3265 H3271 0.959 . S
C3265 H3272 0.961 . S
C3265 H3273 0.960 . S
C3266 C3264 1.381 . S
C3266 C3267 1.394 . S
C3266 H3274 0.930 . S
C3267 C3266 1.394 . S
C3267 C3268 1.383 . S
C3267 H3275 0.929 . S
C3268 C3267 1.383 . S
C3268 C3269 1.377 . S
C3269 H3253 0.930 . S
C3269 C3268 1.377 . S
C3269 C3270 1.379 . S
C3270 H3254 0.931 . S
C3270 C3264 1.383 . S
C3270 C3269 1.379 . S
H3271 C3265 0.959 . S
H3272 C3265 0.961 . S
H3273 C3265 0.960 . S
H3274 C3266 0.930 . S
H3275 C3267 0.929 . S
H3276 C3284 0.929 . S
H3277 C3286 0.930 . S
H3278 C3288 0.930 . S
H3279 C3291 0.929 . S
H3280 C3294 0.930 . S
H3281 C3296 0.960 . S
H3282 C3296 0.960 . S
H3283 C3296 0.960 . S
C3284 H3276 0.929 . S
C3284 C3285 1.377 . S
C3284 C3286 1.384 . S
C3285 C3284 1.377 . S
C3285 C3291 1.390 . S
C3286 H3277 0.930 . S
C3286 C3284 1.384 . S
C3286 C3287 1.372 . S
C3287 C3286 1.372 . S
C3287 C3288 1.400 . S
C3287 C3292 1.490 . S
C3288 H3278 0.930 . S
C3288 C3287 1.400 . S
C3288 C3291 1.386 . S
H3289 C3305 0.930 . S
H3290 C3306 0.931 . S
C3291 H3279 0.929 . S
C3291 C3285 1.390 . S
C3291 C3288 1.386 . S
C3292 C3287 1.490 . S
C3292 C3294 1.395 . S
C3292 C3295 1.403 . S
H3293 C3299 0.930 . S
C3294 H3280 0.930 . S
C3294 C3292 1.395 . S
C3294 C3297 1.403 . S
C3295 C3292 1.403 . S
C3295 C3296 1.524 . S
C3295 C3299 1.400 . S
C3296 H3281 0.960 . S
C3296 H3282 0.960 . S
C3296 H3283 0.960 . S
C3296 C3295 1.524 . S
C3297 C3294 1.403 . S
C3297 C3298 1.392 . S
C3297 C3301 1.495 . S
C3298 C3297 1.392 . S
C3298 C3299 1.385 . S
C3298 C3300 1.478 . S
C3299 H3293 0.930 . S
C3299 C3295 1.400 . S
C3299 C3298 1.385 . S
C3300 C3298 1.478 . S
C3300 C3302 1.381 . S
C3300 C3306 1.383 . S
C3301 C3297 1.495 . S
C3301 H3307 0.959 . S
C3301 H3308 0.961 . S
C3301 H3309 0.960 . S
C3302 C3300 1.381 . S
C3302 C3303 1.394 . S
C3302 H3310 0.930 . S
C3303 C3302 1.394 . S
C3303 C3304 1.383 . S
C3303 H3311 0.929 . S
C3304 C3303 1.383 . S
C3304 C3305 1.377 . S
C3305 H3289 0.930 . S
C3305 C3304 1.377 . S
C3305 C3306 1.379 . S
C3306 H3290 0.931 . S
C3306 C3300 1.383 . S
C3306 C3305 1.379 . S
H3307 C3301 0.959 . S
H3308 C3301 0.961 . S
H3309 C3301 0.960 . S
H3310 C3302 0.930 . S
H3311 C3303 0.929 . S
H3312 C3320 0.929 . S
H3313 C3322 0.930 . S
H3314 C3324 0.930 . S
H3315 C3327 0.929 . S
H3316 C3330 0.930 . S
H3317 C3332 0.960 . S
H3318 C3332 0.960 . S
H3319 C3332 0.960 . S
C3320 H3312 0.929 . S
C3320 C3321 1.377 . S
C3320 C3322 1.384 . S
C3321 C3320 1.377 . S
C3321 C3327 1.390 . S
C3322 H3313 0.930 . S
C3322 C3320 1.384 . S
C3322 C3323 1.372 . S
C3323 C3322 1.372 . S
C3323 C3324 1.400 . S
C3323 C3328 1.490 . S
C3324 H3314 0.930 . S
C3324 C3323 1.400 . S
C3324 C3327 1.386 . S
H3325 C3341 0.930 . S
H3326 C3342 0.931 . S
C3327 H3315 0.929 . S
C3327 C3321 1.390 . S
C3327 C3324 1.386 . S
C3328 C3323 1.490 . S
C3328 C3330 1.395 . S
C3328 C3331 1.403 . S
H3329 C3335 0.930 . S
C3330 H3316 0.930 . S
C3330 C3328 1.395 . S
C3330 C3333 1.403 . S
C3331 C3328 1.403 . S
C3331 C3332 1.524 . S
C3331 C3335 1.400 . S
C3332 H3317 0.960 . S
C3332 H3318 0.960 . S
C3332 H3319 0.960 . S
C3332 C3331 1.524 . S
C3333 C3330 1.403 . S
C3333 C3334 1.392 . S
C3333 C3337 1.495 . S
C3334 C3333 1.392 . S
C3334 C3335 1.385 . S
C3334 C3336 1.478 . S
C3335 H3329 0.930 . S
C3335 C3331 1.400 . S
C3335 C3334 1.385 . S
C3336 C3334 1.478 . S
C3336 C3338 1.381 . S
C3336 C3342 1.383 . S
C3337 C3333 1.495 . S
C3337 H3343 0.959 . S
C3337 H3344 0.961 . S
C3337 H3345 0.960 . S
C3338 C3336 1.381 . S
C3338 C3339 1.394 . S
C3338 H3346 0.930 . S
C3339 C3338 1.394 . S
C3339 C3340 1.383 . S
C3339 H3347 0.929 . S
C3340 C3339 1.383 . S
C3340 C3341 1.377 . S
C3341 H3325 0.930 . S
C3341 C3340 1.377 . S
C3341 C3342 1.379 . S
C3342 H3326 0.931 . S
C3342 C3336 1.383 . S
C3342 C3341 1.379 . S
H3343 C3337 0.959 . S
H3344 C3337 0.961 . S
H3345 C3337 0.960 . S
H3346 C3338 0.930 . S
H3347 C3339 0.929 . S
H3348 C3356 0.929 . S
H3349 C3358 0.930 . S
H3350 C3360 0.930 . S
H3351 C3363 0.929 . S
H3352 C3366 0.930 . S
H3353 C3368 0.960 . S
H3354 C3368 0.960 . S
H3355 C3368 0.960 . S
C3356 H3348 0.929 . S
C3356 C3357 1.377 . S
C3356 C3358 1.384 . S
C3357 C3356 1.377 . S
C3357 C3363 1.390 . S
C3358 H3349 0.930 . S
C3358 C3356 1.384 . S
C3358 C3359 1.372 . S
C3359 C3358 1.372 . S
C3359 C3360 1.400 . S
C3359 C3364 1.490 . S
C3360 H3350 0.930 . S
C3360 C3359 1.400 . S
C3360 C3363 1.386 . S
H3361 C3377 0.930 . S
H3362 C3378 0.931 . S
C3363 H3351 0.929 . S
C3363 C3357 1.390 . S
C3363 C3360 1.386 . S
C3364 C3359 1.490 . S
C3364 C3366 1.395 . S
C3364 C3367 1.403 . S
H3365 C3371 0.930 . S
C3366 H3352 0.930 . S
C3366 C3364 1.395 . S
C3366 C3369 1.403 . S
C3367 C3364 1.403 . S
C3367 C3368 1.524 . S
C3367 C3371 1.400 . S
C3368 H3353 0.960 . S
C3368 H3354 0.960 . S
C3368 H3355 0.960 . S
C3368 C3367 1.524 . S
C3369 C3366 1.403 . S
C3369 C3370 1.392 . S
C3369 C3373 1.495 . S
C3370 C3369 1.392 . S
C3370 C3371 1.385 . S
C3370 C3372 1.478 . S
C3371 H3365 0.930 . S
C3371 C3367 1.400 . S
C3371 C3370 1.385 . S
C3372 C3370 1.478 . S
C3372 C3374 1.381 . S
C3372 C3378 1.383 . S
C3373 C3369 1.495 . S
C3373 H3379 0.959 . S
C3373 H3380 0.961 . S
C3373 H3381 0.960 . S
C3374 C3372 1.381 . S
C3374 C3375 1.394 . S
C3374 H3382 0.930 . S
C3375 C3374 1.394 . S
C3375 C3376 1.383 . S
C3375 H3383 0.929 . S
C3376 C3375 1.383 . S
C3376 C3377 1.377 . S
C3377 H3361 0.930 . S
C3377 C3376 1.377 . S
C3377 C3378 1.379 . S
C3378 H3362 0.931 . S
C3378 C3372 1.383 . S
C3378 C3377 1.379 . S
H3379 C3373 0.959 . S
H3380 C3373 0.961 . S
H3381 C3373 0.960 . S
H3382 C3374 0.930 . S
H3383 C3375 0.929 . S
H3384 C3392 0.929 . S
H3385 C3394 0.930 . S
H3386 C3396 0.930 . S
H3387 C3399 0.929 . S
H3388 C3402 0.930 . S
H3389 C3404 0.960 . S
H3390 C3404 0.960 . S
H3391 C3404 0.960 . S
C3392 H3384 0.929 . S
C3392 C3393 1.377 . S
C3392 C3394 1.384 . S
C3393 C3392 1.377 . S
C3393 C3399 1.390 . S
C3394 H3385 0.930 . S
C3394 C3392 1.384 . S
C3394 C3395 1.372 . S
C3395 C3394 1.372 . S
C3395 C3396 1.400 . S
C3395 C3400 1.490 . S
C3396 H3386 0.930 . S
C3396 C3395 1.400 . S
C3396 C3399 1.386 . S
H3397 C3413 0.930 . S
H3398 C3414 0.931 . S
C3399 H3387 0.929 . S
C3399 C3393 1.390 . S
C3399 C3396 1.386 . S
C3400 C3395 1.490 . S
C3400 C3402 1.395 . S
C3400 C3403 1.403 . S
H3401 C3407 0.930 . S
C3402 H3388 0.930 . S
C3402 C3400 1.395 . S
C3402 C3405 1.403 . S
C3403 C3400 1.403 . S
C3403 C3404 1.524 . S
C3403 C3407 1.400 . S
C3404 H3389 0.960 . S
C3404 H3390 0.960 . S
C3404 H3391 0.960 . S
C3404 C3403 1.524 . S
C3405 C3402 1.403 . S
C3405 C3406 1.392 . S
C3405 C3409 1.495 . S
C3406 C3405 1.392 . S
C3406 C3407 1.385 . S
C3406 C3408 1.478 . S
C3407 H3401 0.930 . S
C3407 C3403 1.400 . S
C3407 C3406 1.385 . S
C3408 C3406 1.478 . S
C3408 C3410 1.381 . S
C3408 C3414 1.383 . S
C3409 C3405 1.495 . S
C3409 H3415 0.959 . S
C3409 H3416 0.961 . S
C3409 H3417 0.960 . S
C3410 C3408 1.381 . S
C3410 C3411 1.394 . S
C3410 H3418 0.930 . S
C3411 C3410 1.394 . S
C3411 C3412 1.383 . S
C3411 H3419 0.929 . S
C3412 C3411 1.383 . S
C3412 C3413 1.377 . S
C3413 H3397 0.930 . S
C3413 C3412 1.377 . S
C3413 C3414 1.379 . S
C3414 H3398 0.931 . S
C3414 C3408 1.383 . S
C3414 C3413 1.379 . S
H3415 C3409 0.959 . S
H3416 C3409 0.961 . S
H3417 C3409 0.960 . S
H3418 C3410 0.930 . S
H3419 C3411 0.929 . S
H3420 C3428 0.929 . S
H3421 C3430 0.930 . S
H3422 C3432 0.930 . S
H3423 C3435 0.929 . S
H3424 C3438 0.930 . S
H3425 C3440 0.960 . S
H3426 C3440 0.960 . S
H3427 C3440 0.960 . S
C3428 H3420 0.929 . S
C3428 C3429 1.377 . S
C3428 C3430 1.384 . S
C3429 C3428 1.377 . S
C3429 C3435 1.390 . S
C3430 H3421 0.930 . S
C3430 C3428 1.384 . S
C3430 C3431 1.372 . S
C3431 C3430 1.372 . S
C3431 C3432 1.400 . S
C3431 C3436 1.490 . S
C3432 H3422 0.930 . S
C3432 C3431 1.400 . S
C3432 C3435 1.386 . S
H3433 C3449 0.930 . S
H3434 C3450 0.931 . S
C3435 H3423 0.929 . S
C3435 C3429 1.390 . S
C3435 C3432 1.386 . S
C3436 C3431 1.490 . S
C3436 C3438 1.395 . S
C3436 C3439 1.403 . S
H3437 C3443 0.930 . S
C3438 H3424 0.930 . S
C3438 C3436 1.395 . S
C3438 C3441 1.403 . S
C3439 C3436 1.403 . S
C3439 C3440 1.524 . S
C3439 C3443 1.400 . S
C3440 H3425 0.960 . S
C3440 H3426 0.960 . S
C3440 H3427 0.960 . S
C3440 C3439 1.524 . S
C3441 C3438 1.403 . S
C3441 C3442 1.392 . S
C3441 C3445 1.495 . S
C3442 C3441 1.392 . S
C3442 C3443 1.385 . S
C3442 C3444 1.478 . S
C3443 H3437 0.930 . S
C3443 C3439 1.400 . S
C3443 C3442 1.385 . S
C3444 C3442 1.478 . S
C3444 C3446 1.381 . S
C3444 C3450 1.383 . S
C3445 C3441 1.495 . S
C3445 H3451 0.959 . S
C3445 H3452 0.961 . S
C3445 H3453 0.960 . S
C3446 C3444 1.381 . S
C3446 C3447 1.394 . S
C3446 H3454 0.930 . S
C3447 C3446 1.394 . S
C3447 C3448 1.383 . S
C3447 H3455 0.929 . S
C3448 C3447 1.383 . S
C3448 C3449 1.377 . S
C3449 H3433 0.930 . S
C3449 C3448 1.377 . S
C3449 C3450 1.379 . S
C3450 H3434 0.931 . S
C3450 C3444 1.383 . S
C3450 C3449 1.379 . S
H3451 C3445 0.959 . S
H3452 C3445 0.961 . S
H3453 C3445 0.960 . S
H3454 C3446 0.930 . S
H3455 C3447 0.929 . S
H3456 C3464 0.929 . S
H3457 C3466 0.930 . S
H3458 C3468 0.930 . S
H3459 C3471 0.929 . S
H3460 C3474 0.930 . S
H3461 C3476 0.960 . S
H3462 C3476 0.960 . S
H3463 C3476 0.960 . S
C3464 H3456 0.929 . S
C3464 C3465 1.377 . S
C3464 C3466 1.384 . S
C3465 C3464 1.377 . S
C3465 C3471 1.390 . S
C3466 H3457 0.930 . S
C3466 C3464 1.384 . S
C3466 C3467 1.372 . S
C3467 C3466 1.372 . S
C3467 C3468 1.400 . S
C3467 C3472 1.490 . S
C3468 H3458 0.930 . S
C3468 C3467 1.400 . S
C3468 C3471 1.386 . S
H3469 C3485 0.930 . S
H3470 C3486 0.931 . S
C3471 H3459 0.929 . S
C3471 C3465 1.390 . S
C3471 C3468 1.386 . S
C3472 C3467 1.490 . S
C3472 C3474 1.395 . S
C3472 C3475 1.403 . S
H3473 C3479 0.930 . S
C3474 H3460 0.930 . S
C3474 C3472 1.395 . S
C3474 C3477 1.403 . S
C3475 C3472 1.403 . S
C3475 C3476 1.524 . S
C3475 C3479 1.400 . S
C3476 H3461 0.960 . S
C3476 H3462 0.960 . S
C3476 H3463 0.960 . S
C3476 C3475 1.524 . S
C3477 C3474 1.403 . S
C3477 C3478 1.392 . S
C3477 C3481 1.495 . S
C3478 C3477 1.392 . S
C3478 C3479 1.385 . S
C3478 C3480 1.478 . S
C3479 H3473 0.930 . S
C3479 C3475 1.400 . S
C3479 C3478 1.385 . S
C3480 C3478 1.478 . S
C3480 C3482 1.381 . S
C3480 C3486 1.383 . S
C3481 C3477 1.495 . S
C3481 H3487 0.959 . S
C3481 H3488 0.961 . S
C3481 H3489 0.960 . S
C3482 C3480 1.381 . S
C3482 C3483 1.394 . S
C3482 H3490 0.930 . S
C3483 C3482 1.394 . S
C3483 C3484 1.383 . S
C3483 H3491 0.929 . S
C3484 C3483 1.383 . S
C3484 C3485 1.377 . S
C3485 H3469 0.930 . S
C3485 C3484 1.377 . S
C3485 C3486 1.379 . S
C3486 H3470 0.931 . S
C3486 C3480 1.383 . S
C3486 C3485 1.379 . S
H3487 C3481 0.959 . S
H3488 C3481 0.961 . S
H3489 C3481 0.960 . S
H3490 C3482 0.930 . S
H3491 C3483 0.929 . S
H3492 C3500 0.929 . S
H3493 C3502 0.930 . S
H3494 C3504 0.930 . S
H3495 C3507 0.929 . S
H3496 C3510 0.930 . S
H3497 C3512 0.960 . S
H3498 C3512 0.960 . S
H3499 C3512 0.960 . S
C3500 H3492 0.929 . S
C3500 C3501 1.377 . S
C3500 C3502 1.384 . S
C3501 C3500 1.377 . S
C3501 C3507 1.390 . S
C3502 H3493 0.930 . S
C3502 C3500 1.384 . S
C3502 C3503 1.372 . S
C3503 C3502 1.372 . S
C3503 C3504 1.400 . S
C3503 C3508 1.490 . S
C3504 H3494 0.930 . S
C3504 C3503 1.400 . S
C3504 C3507 1.386 . S
H3505 C3521 0.930 . S
H3506 C3522 0.931 . S
C3507 H3495 0.929 . S
C3507 C3501 1.390 . S
C3507 C3504 1.386 . S
C3508 C3503 1.490 . S
C3508 C3510 1.395 . S
C3508 C3511 1.403 . S
H3509 C3515 0.930 . S
C3510 H3496 0.930 . S
C3510 C3508 1.395 . S
C3510 C3513 1.403 . S
C3511 C3508 1.403 . S
C3511 C3512 1.524 . S
C3511 C3515 1.400 . S
C3512 H3497 0.960 . S
C3512 H3498 0.960 . S
C3512 H3499 0.960 . S
C3512 C3511 1.524 . S
C3513 C3510 1.403 . S
C3513 C3514 1.392 . S
C3513 C3517 1.495 . S
C3514 C3513 1.392 . S
C3514 C3515 1.385 . S
C3514 C3516 1.478 . S
C3515 H3509 0.930 . S
C3515 C3511 1.400 . S
C3515 C3514 1.385 . S
C3516 C3514 1.478 . S
C3516 C3518 1.381 . S
C3516 C3522 1.383 . S
C3517 C3513 1.495 . S
C3517 H3523 0.959 . S
C3517 H3524 0.961 . S
C3517 H3525 0.960 . S
C3518 C3516 1.381 . S
C3518 C3519 1.394 . S
C3518 H3526 0.930 . S
C3519 C3518 1.394 . S
C3519 C3520 1.383 . S
C3519 H3527 0.929 . S
C3520 C3519 1.383 . S
C3520 C3521 1.377 . S
C3521 H3505 0.930 . S
C3521 C3520 1.377 . S
C3521 C3522 1.379 . S
C3522 H3506 0.931 . S
C3522 C3516 1.383 . S
C3522 C3521 1.379 . S
H3523 C3517 0.959 . S
H3524 C3517 0.961 . S
H3525 C3517 0.960 . S
H3526 C3518 0.930 . S
H3527 C3519 0.929 . S
H3528 C3536 0.929 . S
H3529 C3538 0.930 . S
H3530 C3540 0.930 . S
H3531 C3543 0.929 . S
H3532 C3546 0.930 . S
H3533 C3548 0.960 . S
H3534 C3548 0.960 . S
H3535 C3548 0.960 . S
C3536 H3528 0.929 . S
C3536 C3537 1.377 . S
C3536 C3538 1.384 . S
C3537 C3536 1.377 . S
C3537 C3543 1.390 . S
C3538 H3529 0.930 . S
C3538 C3536 1.384 . S
C3538 C3539 1.372 . S
C3539 C3538 1.372 . S
C3539 C3540 1.400 . S
C3539 C3544 1.490 . S
C3540 H3530 0.930 . S
C3540 C3539 1.400 . S
C3540 C3543 1.386 . S
H3541 C3557 0.930 . S
H3542 C3558 0.931 . S
C3543 H3531 0.929 . S
C3543 C3537 1.390 . S
C3543 C3540 1.386 . S
C3544 C3539 1.490 . S
C3544 C3546 1.395 . S
C3544 C3547 1.403 . S
H3545 C3551 0.930 . S
C3546 H3532 0.930 . S
C3546 C3544 1.395 . S
C3546 C3549 1.403 . S
C3547 C3544 1.403 . S
C3547 C3548 1.524 . S
C3547 C3551 1.400 . S
C3548 H3533 0.960 . S
C3548 H3534 0.960 . S
C3548 H3535 0.960 . S
C3548 C3547 1.524 . S
C3549 C3546 1.403 . S
C3549 C3550 1.392 . S
C3549 C3553 1.495 . S
C3550 C3549 1.392 . S
C3550 C3551 1.385 . S
C3550 C3552 1.478 . S
C3551 H3545 0.930 . S
C3551 C3547 1.400 . S
C3551 C3550 1.385 . S
C3552 C3550 1.478 . S
C3552 C3554 1.381 . S
C3552 C3558 1.383 . S
C3553 C3549 1.495 . S
C3553 H3559 0.959 . S
C3553 H3560 0.961 . S
C3553 H3561 0.960 . S
C3554 C3552 1.381 . S
C3554 C3555 1.394 . S
C3554 H3562 0.930 . S
C3555 C3554 1.394 . S
C3555 C3556 1.383 . S
C3555 H3563 0.929 . S
C3556 C3555 1.383 . S
C3556 C3557 1.377 . S
C3557 H3541 0.930 . S
C3557 C3556 1.377 . S
C3557 C3558 1.379 . S
C3558 H3542 0.931 . S
C3558 C3552 1.383 . S
C3558 C3557 1.379 . S
H3559 C3553 0.959 . S
H3560 C3553 0.961 . S
H3561 C3553 0.960 . S
H3562 C3554 0.930 . S
H3563 C3555 0.929 . S
H3564 C3572 0.929 . S
H3565 C3574 0.930 . S
H3566 C3576 0.930 . S
H3567 C3579 0.929 . S
H3568 C3582 0.930 . S
H3569 C3584 0.960 . S
H3570 C3584 0.960 . S
H3571 C3584 0.960 . S
C3572 H3564 0.929 . S
C3572 C3573 1.377 . S
C3572 C3574 1.384 . S
C3573 C3572 1.377 . S
C3573 C3579 1.390 . S
C3574 H3565 0.930 . S
C3574 C3572 1.384 . S
C3574 C3575 1.372 . S
C3575 C3574 1.372 . S
C3575 C3576 1.400 . S
C3575 C3580 1.490 . S
C3576 H3566 0.930 . S
C3576 C3575 1.400 . S
C3576 C3579 1.386 . S
H3577 C3593 0.930 . S
H3578 C3594 0.931 . S
C3579 H3567 0.929 . S
C3579 C3573 1.390 . S
C3579 C3576 1.386 . S
C3580 C3575 1.490 . S
C3580 C3582 1.395 . S
C3580 C3583 1.403 . S
H3581 C3587 0.930 . S
C3582 H3568 0.930 . S
C3582 C3580 1.395 . S
C3582 C3585 1.403 . S
C3583 C3580 1.403 . S
C3583 C3584 1.524 . S
C3583 C3587 1.400 . S
C3584 H3569 0.960 . S
C3584 H3570 0.960 . S
C3584 H3571 0.960 . S
C3584 C3583 1.524 . S
C3585 C3582 1.403 . S
C3585 C3586 1.392 . S
C3585 C3589 1.495 . S
C3586 C3585 1.392 . S
C3586 C3587 1.385 . S
C3586 C3588 1.478 . S
C3587 H3581 0.930 . S
C3587 C3583 1.400 . S
C3587 C3586 1.385 . S
C3588 C3586 1.478 . S
C3588 C3590 1.381 . S
C3588 C3594 1.383 . S
C3589 C3585 1.495 . S
C3589 H3595 0.959 . S
C3589 H3596 0.961 . S
C3589 H3597 0.960 . S
C3590 C3588 1.381 . S
C3590 C3591 1.394 . S
C3590 H3598 0.930 . S
C3591 C3590 1.394 . S
C3591 C3592 1.383 . S
C3591 H3599 0.929 . S
C3592 C3591 1.383 . S
C3592 C3593 1.377 . S
C3593 H3577 0.930 . S
C3593 C3592 1.377 . S
C3593 C3594 1.379 . S
C3594 H3578 0.931 . S
C3594 C3588 1.383 . S
C3594 C3593 1.379 . S
H3595 C3589 0.959 . S
H3596 C3589 0.961 . S
H3597 C3589 0.960 . S
H3598 C3590 0.930 . S
H3599 C3591 0.929 . S
H3600 C3608 0.929 . S
H3601 C3610 0.930 . S
H3602 C3612 0.930 . S
H3603 C3615 0.929 . S
H3604 C3618 0.930 . S
H3605 C3620 0.960 . S
H3606 C3620 0.960 . S
H3607 C3620 0.960 . S
C3608 H3600 0.929 . S
C3608 C3609 1.377 . S
C3608 C3610 1.384 . S
C3609 C3608 1.377 . S
C3609 C3615 1.390 . S
C3610 H3601 0.930 . S
C3610 C3608 1.384 . S
C3610 C3611 1.372 . S
C3611 C3610 1.372 . S
C3611 C3612 1.400 . S
C3611 C3616 1.490 . S
C3612 H3602 0.930 . S
C3612 C3611 1.400 . S
C3612 C3615 1.386 . S
H3613 C3629 0.930 . S
H3614 C3630 0.931 . S
C3615 H3603 0.929 . S
C3615 C3609 1.390 . S
C3615 C3612 1.386 . S
C3616 C3611 1.490 . S
C3616 C3618 1.395 . S
C3616 C3619 1.403 . S
H3617 C3623 0.930 . S
C3618 H3604 0.930 . S
C3618 C3616 1.395 . S
C3618 C3621 1.403 . S
C3619 C3616 1.403 . S
C3619 C3620 1.524 . S
C3619 C3623 1.400 . S
C3620 H3605 0.960 . S
C3620 H3606 0.960 . S
C3620 H3607 0.960 . S
C3620 C3619 1.524 . S
C3621 C3618 1.403 . S
C3621 C3622 1.392 . S
C3621 C3625 1.495 . S
C3622 C3621 1.392 . S
C3622 C3623 1.385 . S
C3622 C3624 1.478 . S
C3623 H3617 0.930 . S
C3623 C3619 1.400 . S
C3623 C3622 1.385 . S
C3624 C3622 1.478 . S
C3624 C3626 1.381 . S
C3624 C3630 1.383 . S
C3625 C3621 1.495 . S
C3625 H3631 0.959 . S
C3625 H3632 0.961 . S
C3625 H3633 0.960 . S
C3626 C3624 1.381 . S
C3626 C3627 1.394 . S
C3626 H3634 0.930 . S
C3627 C3626 1.394 . S
C3627 C3628 1.383 . S
C3627 H3635 0.929 . S
C3628 C3627 1.383 . S
C3628 C3629 1.377 . S
C3629 H3613 0.930 . S
C3629 C3628 1.377 . S
C3629 C3630 1.379 . S
C3630 H3614 0.931 . S
C3630 C3624 1.383 . S
C3630 C3629 1.379 . S
H3631 C3625 0.959 . S
H3632 C3625 0.961 . S
H3633 C3625 0.960 . S
H3634 C3626 0.930 . S
H3635 C3627 0.929 . S
H3636 C3644 0.929 . S
H3637 C3646 0.930 . S
H3638 C3648 0.930 . S
H3639 C3651 0.929 . S
H3640 C3654 0.930 . S
H3641 C3656 0.960 . S
H3642 C3656 0.960 . S
H3643 C3656 0.960 . S
C3644 H3636 0.929 . S
C3644 C3645 1.377 . S
C3644 C3646 1.384 . S
C3645 C3644 1.377 . S
C3645 C3651 1.390 . S
C3646 H3637 0.930 . S
C3646 C3644 1.384 . S
C3646 C3647 1.372 . S
C3647 C3646 1.372 . S
C3647 C3648 1.400 . S
C3647 C3652 1.490 . S
C3648 H3638 0.930 . S
C3648 C3647 1.400 . S
C3648 C3651 1.386 . S
H3649 C3665 0.930 . S
H3650 C3666 0.931 . S
C3651 H3639 0.929 . S
C3651 C3645 1.390 . S
C3651 C3648 1.386 . S
C3652 C3647 1.490 . S
C3652 C3654 1.395 . S
C3652 C3655 1.403 . S
H3653 C3659 0.930 . S
C3654 H3640 0.930 . S
C3654 C3652 1.395 . S
C3654 C3657 1.403 . S
C3655 C3652 1.403 . S
C3655 C3656 1.524 . S
C3655 C3659 1.400 . S
C3656 H3641 0.960 . S
C3656 H3642 0.960 . S
C3656 H3643 0.960 . S
C3656 C3655 1.524 . S
C3657 C3654 1.403 . S
C3657 C3658 1.392 . S
C3657 C3661 1.495 . S
C3658 C3657 1.392 . S
C3658 C3659 1.385 . S
C3658 C3660 1.478 . S
C3659 H3653 0.930 . S
C3659 C3655 1.400 . S
C3659 C3658 1.385 . S
C3660 C3658 1.478 . S
C3660 C3662 1.381 . S
C3660 C3666 1.383 . S
C3661 C3657 1.495 . S
C3661 H3667 0.959 . S
C3661 H3668 0.961 . S
C3661 H3669 0.960 . S
C3662 C3660 1.381 . S
C3662 C3663 1.394 . S
C3662 H3670 0.930 . S
C3663 C3662 1.394 . S
C3663 C3664 1.383 . S
C3663 H3671 0.929 . S
C3664 C3663 1.383 . S
C3664 C3665 1.377 . S
C3665 H3649 0.930 . S
C3665 C3664 1.377 . S
C3665 C3666 1.379 . S
C3666 H3650 0.931 . S
C3666 C3660 1.383 . S
C3666 C3665 1.379 . S
H3667 C3661 0.959 . S
H3668 C3661 0.961 . S
H3669 C3661 0.960 . S
H3670 C3662 0.930 . S
H3671 C3663 0.929 . S
H3672 C3680 0.929 . S
H3673 C3682 0.930 . S
H3674 C3684 0.930 . S
H3675 C3687 0.929 . S
H3676 C3690 0.930 . S
H3677 C3692 0.960 . S
H3678 C3692 0.960 . S
H3679 C3692 0.960 . S
C3680 H3672 0.929 . S
C3680 C3681 1.377 . S
C3680 C3682 1.384 . S
C3681 C3680 1.377 . S
C3681 C3687 1.390 . S
C3682 H3673 0.930 . S
C3682 C3680 1.384 . S
C3682 C3683 1.372 . S
C3683 C3682 1.372 . S
C3683 C3684 1.400 . S
C3683 C3688 1.490 . S
C3684 H3674 0.930 . S
C3684 C3683 1.400 . S
C3684 C3687 1.386 . S
H3685 C3701 0.930 . S
H3686 C3702 0.931 . S
C3687 H3675 0.929 . S
C3687 C3681 1.390 . S
C3687 C3684 1.386 . S
C3688 C3683 1.490 . S
C3688 C3690 1.395 . S
C3688 C3691 1.403 . S
H3689 C3695 0.930 . S
C3690 H3676 0.930 . S
C3690 C3688 1.395 . S
C3690 C3693 1.403 . S
C3691 C3688 1.403 . S
C3691 C3692 1.524 . S
C3691 C3695 1.400 . S
C3692 H3677 0.960 . S
C3692 H3678 0.960 . S
C3692 H3679 0.960 . S
C3692 C3691 1.524 . S
C3693 C3690 1.403 . S
C3693 C3694 1.392 . S
C3693 C3697 1.495 . S
C3694 C3693 1.392 . S
C3694 C3695 1.385 . S
C3694 C3696 1.478 . S
C3695 H3689 0.930 . S
C3695 C3691 1.400 . S
C3695 C3694 1.385 . S
C3696 C3694 1.478 . S
C3696 C3698 1.381 . S
C3696 C3702 1.383 . S
C3697 C3693 1.495 . S
C3697 H3703 0.959 . S
C3697 H3704 0.961 . S
C3697 H3705 0.960 . S
C3698 C3696 1.381 . S
C3698 C3699 1.394 . S
C3698 H3706 0.930 . S
C3699 C3698 1.394 . S
C3699 C3700 1.383 . S
C3699 H3707 0.929 . S
C3700 C3699 1.383 . S
C3700 C3701 1.377 . S
C3701 H3685 0.930 . S
C3701 C3700 1.377 . S
C3701 C3702 1.379 . S
C3702 H3686 0.931 . S
C3702 C3696 1.383 . S
C3702 C3701 1.379 . S
H3703 C3697 0.959 . S
H3704 C3697 0.961 . S
H3705 C3697 0.960 . S
H3706 C3698 0.930 . S
H3707 C3699 0.929 . S
H3708 C3716 0.929 . S
H3709 C3718 0.930 . S
H3710 C3720 0.930 . S
H3711 C3723 0.929 . S
H3712 C3726 0.930 . S
H3713 C3728 0.960 . S
H3714 C3728 0.960 . S
H3715 C3728 0.960 . S
C3716 H3708 0.929 . S
C3716 C3717 1.377 . S
C3716 C3718 1.384 . S
C3717 C3716 1.377 . S
C3717 C3723 1.390 . S
C3718 H3709 0.930 . S
C3718 C3716 1.384 . S
C3718 C3719 1.372 . S
C3719 C3718 1.372 . S
C3719 C3720 1.400 . S
C3719 C3724 1.490 . S
C3720 H3710 0.930 . S
C3720 C3719 1.400 . S
C3720 C3723 1.386 . S
H3721 C3737 0.930 . S
H3722 C3738 0.931 . S
C3723 H3711 0.929 . S
C3723 C3717 1.390 . S
C3723 C3720 1.386 . S
C3724 C3719 1.490 . S
C3724 C3726 1.395 . S
C3724 C3727 1.403 . S
H3725 C3731 0.930 . S
C3726 H3712 0.930 . S
C3726 C3724 1.395 . S
C3726 C3729 1.403 . S
C3727 C3724 1.403 . S
C3727 C3728 1.524 . S
C3727 C3731 1.400 . S
C3728 H3713 0.960 . S
C3728 H3714 0.960 . S
C3728 H3715 0.960 . S
C3728 C3727 1.524 . S
C3729 C3726 1.403 . S
C3729 C3730 1.392 . S
C3729 C3733 1.495 . S
C3730 C3729 1.392 . S
C3730 C3731 1.385 . S
C3730 C3732 1.478 . S
C3731 H3725 0.930 . S
C3731 C3727 1.400 . S
C3731 C3730 1.385 . S
C3732 C3730 1.478 . S
C3732 C3734 1.381 . S
C3732 C3738 1.383 . S
C3733 C3729 1.495 . S
C3733 H3739 0.959 . S
C3733 H3740 0.961 . S
C3733 H3741 0.960 . S
C3734 C3732 1.381 . S
C3734 C3735 1.394 . S
C3734 H3742 0.930 . S
C3735 C3734 1.394 . S
C3735 C3736 1.383 . S
C3735 H3743 0.929 . S
C3736 C3735 1.383 . S
C3736 C3737 1.377 . S
C3737 H3721 0.930 . S
C3737 C3736 1.377 . S
C3737 C3738 1.379 . S
C3738 H3722 0.931 . S
C3738 C3732 1.383 . S
C3738 C3737 1.379 . S
H3739 C3733 0.959 . S
H3740 C3733 0.961 . S
H3741 C3733 0.960 . S
H3742 C3734 0.930 . S
H3743 C3735 0.929 . S
H3744 C3752 0.929 . S
H3745 C3754 0.930 . S
H3746 C3756 0.930 . S
H3747 C3759 0.929 . S
H3748 C3762 0.930 . S
H3749 C3764 0.960 . S
H3750 C3764 0.960 . S
H3751 C3764 0.960 . S
C3752 H3744 0.929 . S
C3752 C3753 1.377 . S
C3752 C3754 1.384 . S
C3753 C3752 1.377 . S
C3753 C3759 1.390 . S
C3754 H3745 0.930 . S
C3754 C3752 1.384 . S
C3754 C3755 1.372 . S
C3755 C3754 1.372 . S
C3755 C3756 1.400 . S
C3755 C3760 1.490 . S
C3756 H3746 0.930 . S
C3756 C3755 1.400 . S
C3756 C3759 1.386 . S
H3757 C3773 0.930 . S
H3758 C3774 0.931 . S
C3759 H3747 0.929 . S
C3759 C3753 1.390 . S
C3759 C3756 1.386 . S
C3760 C3755 1.490 . S
C3760 C3762 1.395 . S
C3760 C3763 1.403 . S
H3761 C3767 0.930 . S
C3762 H3748 0.930 . S
C3762 C3760 1.395 . S
C3762 C3765 1.403 . S
C3763 C3760 1.403 . S
C3763 C3764 1.524 . S
C3763 C3767 1.400 . S
C3764 H3749 0.960 . S
C3764 H3750 0.960 . S
C3764 H3751 0.960 . S
C3764 C3763 1.524 . S
C3765 C3762 1.403 . S
C3765 C3766 1.392 . S
C3765 C3769 1.495 . S
C3766 C3765 1.392 . S
C3766 C3767 1.385 . S
C3766 C3768 1.478 . S
C3767 H3761 0.930 . S
C3767 C3763 1.400 . S
C3767 C3766 1.385 . S
C3768 C3766 1.478 . S
C3768 C3770 1.381 . S
C3768 C3774 1.383 . S
C3769 C3765 1.495 . S
C3769 H3775 0.959 . S
C3769 H3776 0.961 . S
C3769 H3777 0.960 . S
C3770 C3768 1.381 . S
C3770 C3771 1.394 . S
C3770 H3778 0.930 . S
C3771 C3770 1.394 . S
C3771 C3772 1.383 . S
C3771 H3779 0.929 . S
C3772 C3771 1.383 . S
C3772 C3773 1.377 . S
C3773 H3757 0.930 . S
C3773 C3772 1.377 . S
C3773 C3774 1.379 . S
C3774 H3758 0.931 . S
C3774 C3768 1.383 . S
C3774 C3773 1.379 . S
H3775 C3769 0.959 . S
H3776 C3769 0.961 . S
H3777 C3769 0.960 . S
H3778 C3770 0.930 . S
H3779 C3771 0.929 . S
H3780 C3788 0.929 . S
H3781 C3790 0.930 . S
H3782 C3792 0.930 . S
H3783 C3795 0.929 . S
H3784 C3798 0.930 . S
H3785 C3800 0.960 . S
H3786 C3800 0.960 . S
H3787 C3800 0.960 . S
C3788 H3780 0.929 . S
C3788 C3789 1.377 . S
C3788 C3790 1.384 . S
C3789 C3788 1.377 . S
C3789 C3795 1.390 . S
C3790 H3781 0.930 . S
C3790 C3788 1.384 . S
C3790 C3791 1.372 . S
C3791 C3790 1.372 . S
C3791 C3792 1.400 . S
C3791 C3796 1.490 . S
C3792 H3782 0.930 . S
C3792 C3791 1.400 . S
C3792 C3795 1.386 . S
H3793 C3809 0.930 . S
H3794 C3810 0.931 . S
C3795 H3783 0.929 . S
C3795 C3789 1.390 . S
C3795 C3792 1.386 . S
C3796 C3791 1.490 . S
C3796 C3798 1.395 . S
C3796 C3799 1.403 . S
H3797 C3803 0.930 . S
C3798 H3784 0.930 . S
C3798 C3796 1.395 . S
C3798 C3801 1.403 . S
C3799 C3796 1.403 . S
C3799 C3800 1.524 . S
C3799 C3803 1.400 . S
C3800 H3785 0.960 . S
C3800 H3786 0.960 . S
C3800 H3787 0.960 . S
C3800 C3799 1.524 . S
C3801 C3798 1.403 . S
C3801 C3802 1.392 . S
C3801 C3805 1.495 . S
C3802 C3801 1.392 . S
C3802 C3803 1.385 . S
C3802 C3804 1.478 . S
C3803 H3797 0.930 . S
C3803 C3799 1.400 . S
C3803 C3802 1.385 . S
C3804 C3802 1.478 . S
C3804 C3806 1.381 . S
C3804 C3810 1.383 . S
C3805 C3801 1.495 . S
C3805 H3811 0.959 . S
C3805 H3812 0.961 . S
C3805 H3813 0.960 . S
C3806 C3804 1.381 . S
C3806 C3807 1.394 . S
C3806 H3814 0.930 . S
C3807 C3806 1.394 . S
C3807 C3808 1.383 . S
C3807 H3815 0.929 . S
C3808 C3807 1.383 . S
C3808 C3809 1.377 . S
C3809 H3793 0.930 . S
C3809 C3808 1.377 . S
C3809 C3810 1.379 . S
C3810 H3794 0.931 . S
C3810 C3804 1.383 . S
C3810 C3809 1.379 . S
H3811 C3805 0.959 . S
H3812 C3805 0.961 . S
H3813 C3805 0.960 . S
H3814 C3806 0.930 . S
H3815 C3807 0.929 . S
H3816 C3824 0.976 . S
H3817 C3826 0.930 . S
H3818 C3828 0.930 . S
H3819 C3831 0.929 . S
H3820 C3834 0.930 . S
H3821 C3836 0.960 . S
H3822 C3836 0.960 . S
H3823 C3836 0.960 . S
C3824 H3816 0.976 . S
C3824 C3825 1.377 . S
C3824 C3826 1.384 . S
C3825 C3824 1.377 . S
C3825 C3831 1.390 . S
C3826 H3817 0.930 . S
C3826 C3824 1.384 . S
C3826 C3827 1.372 . S
C3827 C3826 1.372 . S
C3827 C3828 1.400 . S
C3827 C3832 1.490 . S
C3828 H3818 0.930 . S
C3828 C3827 1.400 . S
C3828 C3831 1.386 . S
H3829 C3845 0.930 . S
H3830 C3846 0.931 . S
C3831 H3819 0.929 . S
C3831 C3825 1.390 . S
C3831 C3828 1.386 . S
C3832 C3827 1.490 . S
C3832 C3834 1.395 . S
C3832 C3835 1.403 . S
H3833 C3839 0.930 . S
C3834 H3820 0.930 . S
C3834 C3832 1.395 . S
C3834 C3837 1.403 . S
C3835 C3832 1.403 . S
C3835 C3836 1.524 . S
C3835 C3839 1.400 . S
C3836 H3821 0.960 . S
C3836 H3822 0.960 . S
C3836 H3823 0.960 . S
C3836 C3835 1.524 . S
C3837 C3834 1.403 . S
C3837 C3838 1.392 . S
C3837 C3841 1.495 . S
C3838 C3837 1.392 . S
C3838 C3839 1.385 . S
C3838 C3840 1.478 . S
C3839 H3833 0.930 . S
C3839 C3835 1.400 . S
C3839 C3838 1.385 . S
C3840 C3838 1.478 . S
C3840 C3842 1.381 . S
C3840 C3846 1.383 . S
C3841 C3837 1.495 . S
C3841 H3847 0.959 . S
C3841 H3848 0.961 . S
C3841 H3849 0.960 . S
C3842 C3840 1.381 . S
C3842 C3843 1.394 . S
C3842 H3850 0.930 . S
C3843 C3842 1.394 . S
C3843 C3844 1.383 . S
C3843 H3851 0.929 . S
C3844 C3843 1.383 . S
C3844 C3845 1.377 . S
C3845 H3829 0.930 . S
C3845 C3844 1.377 . S
C3845 C3846 1.379 . S
C3846 H3830 0.931 . S
C3846 C3840 1.383 . S
C3846 C3845 1.379 . S
H3847 C3841 0.959 . S
H3848 C3841 0.961 . S
H3849 C3841 0.960 . S
H3850 C3842 0.930 . S
H3851 C3843 0.929 . S
H3852 C3860 0.929 . S
H3853 C3862 0.930 . S
H3854 C3864 0.930 . S
H3855 C3867 0.903 1_554 S
H3856 C3870 0.930 . S
H3857 C3872 0.960 . S
H3858 C3872 0.960 . S
H3859 C3872 0.960 . S
C3860 H3852 0.929 . S
C3860 C3861 1.377 . S
C3860 C3862 1.384 . S
C3861 C3860 1.377 . S
C3861 C3867 1.390 . S
C3862 H3853 0.930 . S
C3862 C3860 1.384 . S
C3862 C3863 1.372 . S
C3863 C3862 1.372 . S
C3863 C3864 1.400 . S
C3863 C3868 1.490 . S
C3864 H3854 0.930 . S
C3864 C3863 1.400 . S
C3864 C3867 1.386 . S
H3865 C3881 0.930 . S
H3866 C3882 0.931 . S
C3867 H3855 0.903 1_556 S
C3867 C3861 1.390 . S
C3867 C3864 1.386 . S
C3868 C3863 1.490 . S
C3868 C3870 1.395 . S
C3868 C3871 1.403 . S
H3869 C3875 0.930 . S
C3870 H3856 0.930 . S
C3870 C3868 1.395 . S
C3870 C3873 1.403 . S
C3871 C3868 1.403 . S
C3871 C3872 1.524 . S
C3871 C3875 1.400 . S
C3872 H3857 0.960 . S
C3872 H3858 0.960 . S
C3872 H3859 0.960 . S
C3872 C3871 1.524 . S
C3873 C3870 1.403 . S
C3873 C3874 1.392 . S
C3873 C3877 1.495 . S
C3874 C3873 1.392 . S
C3874 C3875 1.385 . S
C3874 C3876 1.478 . S
C3875 H3869 0.930 . S
C3875 C3871 1.400 . S
C3875 C3874 1.385 . S
C3876 C3874 1.478 . S
C3876 C3878 1.381 . S
C3876 C3882 1.383 . S
C3877 C3873 1.495 . S
C3877 H3883 0.959 . S
C3877 H3884 0.961 . S
C3877 H3885 0.960 . S
C3878 C3876 1.381 . S
C3878 C3879 1.394 . S
C3878 H3886 0.930 . S
C3879 C3878 1.394 . S
C3879 C3880 1.383 . S
C3879 H3887 0.929 . S
C3880 C3879 1.383 . S
C3880 C3881 1.377 . S
C3881 H3865 0.930 . S
C3881 C3880 1.377 . S
C3881 C3882 1.379 . S
C3882 H3866 0.931 . S
C3882 C3876 1.383 . S
C3882 C3881 1.379 . S
H3883 C3877 0.959 . S
H3884 C3877 0.961 . S
H3885 C3877 0.960 . S
H3886 C3878 0.930 . S
H3887 C3879 0.929 . S
H3888 C3896 0.929 . S
H3889 C3898 0.930 . S
H3890 C3900 0.930 . S
H3891 C3903 0.929 . S
H3892 C3906 0.930 . S
H3893 C3908 0.960 . S
H3894 C3908 0.960 . S
H3895 C3908 0.960 . S
C3896 H3888 0.929 . S
C3896 C3897 1.377 . S
C3896 C3898 1.384 . S
C3897 C3896 1.377 . S
C3897 C3903 1.390 . S
C3898 H3889 0.930 . S
C3898 C3896 1.384 . S
C3898 C3899 1.372 . S
C3899 C3898 1.372 . S
C3899 C3900 1.400 . S
C3899 C3904 1.490 . S
C3900 H3890 0.930 . S
C3900 C3899 1.400 . S
C3900 C3903 1.386 . S
H3901 C3917 0.930 . S
H3902 C3918 0.931 . S
C3903 H3891 0.929 . S
C3903 C3897 1.390 . S
C3903 C3900 1.386 . S
C3904 C3899 1.490 . S
C3904 C3906 1.395 . S
C3904 C3907 1.403 . S
H3905 C3911 0.930 . S
C3906 H3892 0.930 . S
C3906 C3904 1.395 . S
C3906 C3909 1.403 . S
C3907 C3904 1.403 . S
C3907 C3908 1.524 . S
C3907 C3911 1.400 . S
C3908 H3893 0.960 . S
C3908 H3894 0.960 . S
C3908 H3895 0.960 . S
C3908 C3907 1.524 . S
C3909 C3906 1.403 . S
C3909 C3910 1.392 . S
C3909 C3913 1.495 . S
C3910 C3909 1.392 . S
C3910 C3911 1.385 . S
C3910 C3912 1.478 . S
C3911 H3905 0.930 . S
C3911 C3907 1.400 . S
C3911 C3910 1.385 . S
C3912 C3910 1.478 . S
C3912 C3914 1.381 . S
C3912 C3918 1.383 . S
C3913 C3909 1.495 . S
C3913 H3919 0.959 . S
C3913 H3920 0.961 . S
C3913 H3921 0.960 . S
C3914 C3912 1.381 . S
C3914 C3915 1.394 . S
C3914 H3922 0.930 . S
C3915 C3914 1.394 . S
C3915 C3916 1.383 . S
C3915 H3923 0.929 . S
C3916 C3915 1.383 . S
C3916 C3917 1.377 . S
C3917 H3901 0.930 . S
C3917 C3916 1.377 . S
C3917 C3918 1.379 . S
C3918 H3902 0.931 . S
C3918 C3912 1.383 . S
C3918 C3917 1.379 . S
H3919 C3913 0.959 . S
H3920 C3913 0.961 . S
H3921 C3913 0.960 . S
H3922 C3914 0.930 . S
H3923 C3915 0.929 . S
H3924 C3932 0.929 . S
H3925 C3934 0.930 . S
H3926 C3936 0.930 . S
H3927 C3939 0.929 . S
H3928 C3942 0.930 . S
H3929 C3944 0.960 . S
H3930 C3944 0.960 . S
H3931 C3944 0.960 . S
C3932 H3924 0.929 . S
C3932 C3933 1.377 . S
C3932 C3934 1.384 . S
C3933 C3932 1.377 . S
C3933 C3939 1.390 . S
C3934 H3925 0.930 . S
C3934 C3932 1.384 . S
C3934 C3935 1.372 . S
C3935 C3934 1.372 . S
C3935 C3936 1.400 . S
C3935 C3940 1.490 . S
C3936 H3926 0.930 . S
C3936 C3935 1.400 . S
C3936 C3939 1.386 . S
H3937 C3953 0.930 . S
H3938 C3954 0.931 . S
C3939 H3927 0.929 . S
C3939 C3933 1.390 . S
C3939 C3936 1.386 . S
C3940 C3935 1.490 . S
C3940 C3942 1.395 . S
C3940 C3943 1.403 . S
H3941 C3947 0.930 . S
C3942 H3928 0.930 . S
C3942 C3940 1.395 . S
C3942 C3945 1.403 . S
C3943 C3940 1.403 . S
C3943 C3944 1.524 . S
C3943 C3947 1.400 . S
C3944 H3929 0.960 . S
C3944 H3930 0.960 . S
C3944 H3931 0.960 . S
C3944 C3943 1.524 . S
C3945 C3942 1.403 . S
C3945 C3946 1.392 . S
C3945 C3949 1.495 . S
C3946 C3945 1.392 . S
C3946 C3947 1.385 . S
C3946 C3948 1.478 . S
C3947 H3941 0.930 . S
C3947 C3943 1.400 . S
C3947 C3946 1.385 . S
C3948 C3946 1.478 . S
C3948 C3950 1.381 . S
C3948 C3954 1.383 . S
C3949 C3945 1.495 . S
C3949 H3955 0.959 . S
C3949 H3956 0.961 . S
C3949 H3957 0.960 . S
C3950 C3948 1.381 . S
C3950 C3951 1.394 . S
C3950 H3958 0.930 . S
C3951 C3950 1.394 . S
C3951 C3952 1.383 . S
C3951 H3959 0.929 . S
C3952 C3951 1.383 . S
C3952 C3953 1.377 . S
C3953 H3937 0.930 . S
C3953 C3952 1.377 . S
C3953 C3954 1.379 . S
C3954 H3938 0.931 . S
C3954 C3948 1.383 . S
C3954 C3953 1.379 . S
H3955 C3949 0.959 . S
H3956 C3949 0.961 . S
H3957 C3949 0.960 . S
H3958 C3950 0.930 . S
H3959 C3951 0.929 . S
H3960 C3968 0.929 . S
H3961 C3970 0.930 . S
H3962 C3972 0.930 . S
H3963 C3975 0.929 . S
H3964 C3978 0.930 . S
H3965 C3980 0.960 . S
H3966 C3980 0.960 . S
H3967 C3980 0.960 . S
C3968 H3960 0.929 . S
C3968 C3969 1.377 . S
C3968 C3970 1.384 . S
C3969 C3968 1.377 . S
C3969 C3975 1.390 . S
C3970 H3961 0.930 . S
C3970 C3968 1.384 . S
C3970 C3971 1.372 . S
C3971 C3970 1.372 . S
C3971 C3972 1.400 . S
C3971 C3976 1.490 . S
C3972 H3962 0.930 . S
C3972 C3971 1.400 . S
C3972 C3975 1.386 . S
H3973 C3989 0.930 . S
H3974 C3990 0.931 . S
C3975 H3963 0.929 . S
C3975 C3969 1.390 . S
C3975 C3972 1.386 . S
C3976 C3971 1.490 . S
C3976 C3978 1.395 . S
C3976 C3979 1.403 . S
H3977 C3983 0.930 . S
C3978 H3964 0.930 . S
C3978 C3976 1.395 . S
C3978 C3981 1.403 . S
C3979 C3976 1.403 . S
C3979 C3980 1.524 . S
C3979 C3983 1.400 . S
C3980 H3965 0.960 . S
C3980 H3966 0.960 . S
C3980 H3967 0.960 . S
C3980 C3979 1.524 . S
C3981 C3978 1.403 . S
C3981 C3982 1.392 . S
C3981 C3985 1.495 . S
C3982 C3981 1.392 . S
C3982 C3983 1.385 . S
C3982 C3984 1.478 . S
C3983 H3977 0.930 . S
C3983 C3979 1.400 . S
C3983 C3982 1.385 . S
C3984 C3982 1.478 . S
C3984 C3986 1.381 . S
C3984 C3990 1.383 . S
C3985 C3981 1.495 . S
C3985 H3991 0.959 . S
C3985 H3992 0.961 . S
C3985 H3993 0.960 . S
C3986 C3984 1.381 . S
C3986 C3987 1.394 . S
C3986 H3994 0.930 . S
C3987 C3986 1.394 . S
C3987 C3988 1.383 . S
C3987 H3995 0.929 . S
C3988 C3987 1.383 . S
C3988 C3989 1.377 . S
C3989 H3973 0.930 . S
C3989 C3988 1.377 . S
C3989 C3990 1.379 . S
C3990 H3974 0.931 . S
C3990 C3984 1.383 . S
C3990 C3989 1.379 . S
H3991 C3985 0.959 . S
H3992 C3985 0.961 . S
H3993 C3985 0.960 . S
H3994 C3986 0.930 . S
H3995 C3987 0.929 . S
H3996 C4004 0.929 . S
H3997 C4006 0.930 . S
H3998 C4008 0.930 . S
H3999 C4011 0.929 . S
H4000 C4014 0.930 . S
H4001 C4016 0.960 . S
H4002 C4016 0.960 . S
H4003 C4016 0.960 . S
C4004 H3996 0.929 . S
C4004 C4005 1.377 . S
C4004 C4006 1.384 . S
C4005 C4004 1.377 . S
C4005 C4011 1.390 . S
C4006 H3997 0.930 . S
C4006 C4004 1.384 . S
C4006 C4007 1.372 . S
C4007 C4006 1.372 . S
C4007 C4008 1.400 . S
C4007 C4012 1.490 . S
C4008 H3998 0.930 . S
C4008 C4007 1.400 . S
C4008 C4011 1.386 . S
H4009 C4025 0.930 . S
H4010 C4026 0.931 . S
C4011 H3999 0.929 . S
C4011 C4005 1.390 . S
C4011 C4008 1.386 . S
C4012 C4007 1.490 . S
C4012 C4014 1.395 . S
C4012 C4015 1.403 . S
H4013 C4019 0.930 . S
C4014 H4000 0.930 . S
C4014 C4012 1.395 . S
C4014 C4017 1.403 . S
C4015 C4012 1.403 . S
C4015 C4016 1.524 . S
C4015 C4019 1.400 . S
C4016 H4001 0.960 . S
C4016 H4002 0.960 . S
C4016 H4003 0.960 . S
C4016 C4015 1.524 . S
C4017 C4014 1.403 . S
C4017 C4018 1.392 . S
C4017 C4021 1.495 . S
C4018 C4017 1.392 . S
C4018 C4019 1.385 . S
C4018 C4020 1.478 . S
C4019 H4013 0.930 . S
C4019 C4015 1.400 . S
C4019 C4018 1.385 . S
C4020 C4018 1.478 . S
C4020 C4022 1.381 . S
C4020 C4026 1.383 . S
C4021 C4017 1.495 . S
C4021 H4027 0.959 . S
C4021 H4028 0.961 . S
C4021 H4029 0.960 . S
C4022 C4020 1.381 . S
C4022 C4023 1.394 . S
C4022 H4030 0.930 . S
C4023 C4022 1.394 . S
C4023 C4024 1.383 . S
C4023 H4031 0.929 . S
C4024 C4023 1.383 . S
C4024 C4025 1.377 . S
C4025 H4009 0.930 . S
C4025 C4024 1.377 . S
C4025 C4026 1.379 . S
C4026 H4010 0.931 . S
C4026 C4020 1.383 . S
C4026 C4025 1.379 . S
H4027 C4021 0.959 . S
H4028 C4021 0.961 . S
H4029 C4021 0.960 . S
H4030 C4022 0.930 . S
H4031 C4023 0.929 . S
H4032 C4040 0.929 . S
H4033 C4042 0.930 . S
H4034 C4044 0.930 . S
H4035 C4047 0.929 . S
H4036 C4050 0.930 . S
H4037 C4052 0.960 . S
H4038 C4052 0.960 . S
H4039 C4052 0.960 . S
C4040 H4032 0.929 . S
C4040 C4041 1.377 . S
C4040 C4042 1.384 . S
C4041 C4040 1.377 . S
C4041 C4047 1.390 . S
C4042 H4033 0.930 . S
C4042 C4040 1.384 . S
C4042 C4043 1.372 . S
C4043 C4042 1.372 . S
C4043 C4044 1.400 . S
C4043 C4048 1.490 . S
C4044 H4034 0.930 . S
C4044 C4043 1.400 . S
C4044 C4047 1.386 . S
H4045 C4061 0.930 . S
H4046 C4062 0.931 . S
C4047 H4035 0.929 . S
C4047 C4041 1.390 . S
C4047 C4044 1.386 . S
C4048 C4043 1.490 . S
C4048 C4050 1.395 . S
C4048 C4051 1.403 . S
H4049 C4055 0.930 . S
C4050 H4036 0.930 . S
C4050 C4048 1.395 . S
C4050 C4053 1.403 . S
C4051 C4048 1.403 . S
C4051 C4052 1.524 . S
C4051 C4055 1.400 . S
C4052 H4037 0.960 . S
C4052 H4038 0.960 . S
C4052 H4039 0.960 . S
C4052 C4051 1.524 . S
C4053 C4050 1.403 . S
C4053 C4054 1.392 . S
C4053 C4057 1.495 . S
C4054 C4053 1.392 . S
C4054 C4055 1.385 . S
C4054 C4056 1.478 . S
C4055 H4049 0.930 . S
C4055 C4051 1.400 . S
C4055 C4054 1.385 . S
C4056 C4054 1.478 . S
C4056 C4058 1.381 . S
C4056 C4062 1.383 . S
C4057 C4053 1.495 . S
C4057 H4063 0.959 . S
C4057 H4064 0.961 . S
C4057 H4065 0.960 . S
C4058 C4056 1.381 . S
C4058 C4059 1.394 . S
C4058 H4066 0.930 . S
C4059 C4058 1.394 . S
C4059 C4060 1.383 . S
C4059 H4067 0.929 . S
C4060 C4059 1.383 . S
C4060 C4061 1.377 . S
C4061 H4045 0.930 . S
C4061 C4060 1.377 . S
C4061 C4062 1.379 . S
C4062 H4046 0.931 . S
C4062 C4056 1.383 . S
C4062 C4061 1.379 . S
H4063 C4057 0.959 . S
H4064 C4057 0.961 . S
H4065 C4057 0.960 . S
H4066 C4058 0.930 . S
H4067 C4059 0.929 . S
H4068 C4076 0.929 . S
H4069 C4078 0.930 . S
H4070 C4080 0.930 . S
H4071 C4083 0.929 . S
H4072 C4086 0.930 . S
H4073 C4088 0.960 . S
H4074 C4088 0.960 . S
H4075 C4088 0.960 . S
C4076 H4068 0.929 . S
C4076 C4077 1.377 . S
C4076 C4078 1.384 . S
C4077 C4076 1.377 . S
C4077 C4083 1.390 . S
C4078 H4069 0.930 . S
C4078 C4076 1.384 . S
C4078 C4079 1.372 . S
C4079 C4078 1.372 . S
C4079 C4080 1.400 . S
C4079 C4084 1.490 . S
C4080 H4070 0.930 . S
C4080 C4079 1.400 . S
C4080 C4083 1.386 . S
H4081 C4097 0.930 . S
H4082 C4098 0.931 . S
C4083 H4071 0.929 . S
C4083 C4077 1.390 . S
C4083 C4080 1.386 . S
C4084 C4079 1.490 . S
C4084 C4086 1.395 . S
C4084 C4087 1.403 . S
H4085 C4091 0.930 . S
C4086 H4072 0.930 . S
C4086 C4084 1.395 . S
C4086 C4089 1.403 . S
C4087 C4084 1.403 . S
C4087 C4088 1.524 . S
C4087 C4091 1.400 . S
C4088 H4073 0.960 . S
C4088 H4074 0.960 . S
C4088 H4075 0.960 . S
C4088 C4087 1.524 . S
C4089 C4086 1.403 . S
C4089 C4090 1.392 . S
C4089 C4093 1.495 . S
C4090 C4089 1.392 . S
C4090 C4091 1.385 . S
C4090 C4092 1.478 . S
C4091 H4085 0.930 . S
C4091 C4087 1.400 . S
C4091 C4090 1.385 . S
C4092 C4090 1.478 . S
C4092 C4094 1.381 . S
C4092 C4098 1.383 . S
C4093 C4089 1.495 . S
C4093 H4099 0.959 . S
C4093 H4100 0.961 . S
C4093 H4101 0.960 . S
C4094 C4092 1.381 . S
C4094 C4095 1.394 . S
C4094 H4102 0.930 . S
C4095 C4094 1.394 . S
C4095 C4096 1.383 . S
C4095 H4103 0.929 . S
C4096 C4095 1.383 . S
C4096 C4097 1.377 . S
C4097 H4081 0.930 . S
C4097 C4096 1.377 . S
C4097 C4098 1.379 . S
C4098 H4082 0.931 . S
C4098 C4092 1.383 . S
C4098 C4097 1.379 . S
H4099 C4093 0.959 . S
H4100 C4093 0.961 . S
H4101 C4093 0.960 . S
H4102 C4094 0.930 . S
H4103 C4095 0.929 . S
H4104 C4112 0.929 . S
H4105 C4114 0.930 . S
H4106 C4116 0.930 . S
H4107 C4119 0.929 . S
H4108 C4122 0.930 . S
H4109 C4124 0.960 . S
H4110 C4124 0.960 . S
H4111 C4124 0.960 . S
C4112 H4104 0.929 . S
C4112 C4113 1.377 . S
C4112 C4114 1.384 . S
C4113 C4112 1.377 . S
C4113 C4119 1.390 . S
C4114 H4105 0.930 . S
C4114 C4112 1.384 . S
C4114 C4115 1.372 . S
C4115 C4114 1.372 . S
C4115 C4116 1.400 . S
C4115 C4120 1.490 . S
C4116 H4106 0.930 . S
C4116 C4115 1.400 . S
C4116 C4119 1.386 . S
H4117 C4133 0.930 . S
H4118 C4134 0.931 . S
C4119 H4107 0.929 . S
C4119 C4113 1.390 . S
C4119 C4116 1.386 . S
C4120 C4115 1.490 . S
C4120 C4122 1.395 . S
C4120 C4123 1.403 . S
H4121 C4127 0.930 . S
C4122 H4108 0.930 . S
C4122 C4120 1.395 . S
C4122 C4125 1.403 . S
C4123 C4120 1.403 . S
C4123 C4124 1.524 . S
C4123 C4127 1.400 . S
C4124 H4109 0.960 . S
C4124 H4110 0.960 . S
C4124 H4111 0.960 . S
C4124 C4123 1.524 . S
C4125 C4122 1.403 . S
C4125 C4126 1.392 . S
C4125 C4129 1.495 . S
C4126 C4125 1.392 . S
C4126 C4127 1.385 . S
C4126 C4128 1.478 . S
C4127 H4121 0.930 . S
C4127 C4123 1.400 . S
C4127 C4126 1.385 . S
C4128 C4126 1.478 . S
C4128 C4130 1.381 . S
C4128 C4134 1.383 . S
C4129 C4125 1.495 . S
C4129 H4135 0.959 . S
C4129 H4136 0.961 . S
C4129 H4137 0.960 . S
C4130 C4128 1.381 . S
C4130 C4131 1.394 . S
C4130 H4138 0.930 . S
C4131 C4130 1.394 . S
C4131 C4132 1.383 . S
C4131 H4139 0.929 . S
C4132 C4131 1.383 . S
C4132 C4133 1.377 . S
C4133 H4117 0.930 . S
C4133 C4132 1.377 . S
C4133 C4134 1.379 . S
C4134 H4118 0.931 . S
C4134 C4128 1.383 . S
C4134 C4133 1.379 . S
H4135 C4129 0.959 . S
H4136 C4129 0.961 . S
H4137 C4129 0.960 . S
H4138 C4130 0.930 . S
H4139 C4131 0.929 . S
H4140 C4148 0.929 . S
H4141 C4150 0.930 . S
H4142 C4152 0.930 . S
H4143 C4155 0.929 . S
H4144 C4158 0.930 . S
H4145 C4160 0.960 . S
H4146 C4160 0.960 . S
H4147 C4160 0.960 . S
C4148 H4140 0.929 . S
C4148 C4149 1.377 . S
C4148 C4150 1.384 . S
C4149 C4148 1.377 . S
C4149 C4155 1.390 . S
C4150 H4141 0.930 . S
C4150 C4148 1.384 . S
C4150 C4151 1.372 . S
C4151 C4150 1.372 . S
C4151 C4152 1.400 . S
C4151 C4156 1.490 . S
C4152 H4142 0.930 . S
C4152 C4151 1.400 . S
C4152 C4155 1.386 . S
H4153 C4169 0.930 . S
H4154 C4170 0.931 . S
C4155 H4143 0.929 . S
C4155 C4149 1.390 . S
C4155 C4152 1.386 . S
C4156 C4151 1.490 . S
C4156 C4158 1.395 . S
C4156 C4159 1.403 . S
H4157 C4163 0.930 . S
C4158 H4144 0.930 . S
C4158 C4156 1.395 . S
C4158 C4161 1.403 . S
C4159 C4156 1.403 . S
C4159 C4160 1.524 . S
C4159 C4163 1.400 . S
C4160 H4145 0.960 . S
C4160 H4146 0.960 . S
C4160 H4147 0.960 . S
C4160 C4159 1.524 . S
C4161 C4158 1.403 . S
C4161 C4162 1.392 . S
C4161 C4165 1.495 . S
C4162 C4161 1.392 . S
C4162 C4163 1.385 . S
C4162 C4164 1.478 . S
C4163 H4157 0.930 . S
C4163 C4159 1.400 . S
C4163 C4162 1.385 . S
C4164 C4162 1.478 . S
C4164 C4166 1.381 . S
C4164 C4170 1.383 . S
C4165 C4161 1.495 . S
C4165 H4171 0.959 . S
C4165 H4172 0.961 . S
C4165 H4173 0.960 . S
C4166 C4164 1.381 . S
C4166 C4167 1.394 . S
C4166 H4174 0.930 . S
C4167 C4166 1.394 . S
C4167 C4168 1.383 . S
C4167 H4175 0.929 . S
C4168 C4167 1.383 . S
C4168 C4169 1.377 . S
C4169 H4153 0.930 . S
C4169 C4168 1.377 . S
C4169 C4170 1.379 . S
C4170 H4154 0.931 . S
C4170 C4164 1.383 . S
C4170 C4169 1.379 . S
H4171 C4165 0.959 . S
H4172 C4165 0.961 . S
H4173 C4165 0.960 . S
H4174 C4166 0.930 . S
H4175 C4167 0.929 . S
H4176 C4184 0.929 . S
H4177 C4186 0.930 . S
H4178 C4188 0.930 . S
H4179 C4191 0.929 . S
H4180 C4194 0.930 . S
H4181 C4196 0.960 . S
H4182 C4196 0.960 . S
H4183 C4196 0.960 . S
C4184 H4176 0.929 . S
C4184 C4185 1.377 . S
C4184 C4186 1.384 . S
C4185 C4184 1.377 . S
C4185 C4191 1.390 . S
C4186 H4177 0.930 . S
C4186 C4184 1.384 . S
C4186 C4187 1.372 . S
C4187 C4186 1.372 . S
C4187 C4188 1.400 . S
C4187 C4192 1.490 . S
C4188 H4178 0.930 . S
C4188 C4187 1.400 . S
C4188 C4191 1.386 . S
H4189 C4205 0.930 . S
H4190 C4206 0.931 . S
C4191 H4179 0.929 . S
C4191 C4185 1.390 . S
C4191 C4188 1.386 . S
C4192 C4187 1.490 . S
C4192 C4194 1.395 . S
C4192 C4195 1.403 . S
H4193 C4199 0.930 . S
C4194 H4180 0.930 . S
C4194 C4192 1.395 . S
C4194 C4197 1.403 . S
C4195 C4192 1.403 . S
C4195 C4196 1.524 . S
C4195 C4199 1.400 . S
C4196 H4181 0.960 . S
C4196 H4182 0.960 . S
C4196 H4183 0.960 . S
C4196 C4195 1.524 . S
C4197 C4194 1.403 . S
C4197 C4198 1.392 . S
C4197 C4201 1.495 . S
C4198 C4197 1.392 . S
C4198 C4199 1.385 . S
C4198 C4200 1.478 . S
C4199 H4193 0.930 . S
C4199 C4195 1.400 . S
C4199 C4198 1.385 . S
C4200 C4198 1.478 . S
C4200 C4202 1.381 . S
C4200 C4206 1.383 . S
C4201 C4197 1.495 . S
C4201 H4207 0.959 . S
C4201 H4208 0.961 . S
C4201 H4209 0.960 . S
C4202 C4200 1.381 . S
C4202 C4203 1.394 . S
C4202 H4210 0.930 . S
C4203 C4202 1.394 . S
C4203 C4204 1.383 . S
C4203 H4211 0.929 . S
C4204 C4203 1.383 . S
C4204 C4205 1.377 . S
C4205 H4189 0.930 . S
C4205 C4204 1.377 . S
C4205 C4206 1.379 . S
C4206 H4190 0.931 . S
C4206 C4200 1.383 . S
C4206 C4205 1.379 . S
H4207 C4201 0.959 . S
H4208 C4201 0.961 . S
H4209 C4201 0.960 . S
H4210 C4202 0.930 . S
H4211 C4203 0.929 . S
H4212 C4220 0.929 . S
H4213 C4222 0.930 . S
H4214 C4224 0.930 . S
H4215 C4227 0.929 . S
H4216 C4230 0.930 . S
H4217 C4232 0.960 . S
H4218 C4232 0.960 . S
H4219 C4232 0.960 . S
C4220 H4212 0.929 . S
C4220 C4221 1.377 . S
C4220 C4222 1.384 . S
C4221 C4220 1.377 . S
C4221 C4227 1.390 . S
C4222 H4213 0.930 . S
C4222 C4220 1.384 . S
C4222 C4223 1.372 . S
C4223 C4222 1.372 . S
C4223 C4224 1.400 . S
C4223 C4228 1.490 . S
C4224 H4214 0.930 . S
C4224 C4223 1.400 . S
C4224 C4227 1.386 . S
H4225 C4241 0.930 . S
H4226 C4242 0.931 . S
C4227 H4215 0.929 . S
C4227 C4221 1.390 . S
C4227 C4224 1.386 . S
C4228 C4223 1.490 . S
C4228 C4230 1.395 . S
C4228 C4231 1.403 . S
H4229 C4235 0.930 . S
C4230 H4216 0.930 . S
C4230 C4228 1.395 . S
C4230 C4233 1.403 . S
C4231 C4228 1.403 . S
C4231 C4232 1.524 . S
C4231 C4235 1.400 . S
C4232 H4217 0.960 . S
C4232 H4218 0.960 . S
C4232 H4219 0.960 . S
C4232 C4231 1.524 . S
C4233 C4230 1.403 . S
C4233 C4234 1.392 . S
C4233 C4237 1.495 . S
C4234 C4233 1.392 . S
C4234 C4235 1.385 . S
C4234 C4236 1.478 . S
C4235 H4229 0.930 . S
C4235 C4231 1.400 . S
C4235 C4234 1.385 . S
C4236 C4234 1.478 . S
C4236 C4238 1.381 . S
C4236 C4242 1.383 . S
C4237 C4233 1.495 . S
C4237 H4243 0.959 . S
C4237 H4244 0.961 . S
C4237 H4245 0.960 . S
C4238 C4236 1.381 . S
C4238 C4239 1.394 . S
C4238 H4246 0.930 . S
C4239 C4238 1.394 . S
C4239 C4240 1.383 . S
C4239 H4247 0.929 . S
C4240 C4239 1.383 . S
C4240 C4241 1.377 . S
C4241 H4225 0.930 . S
C4241 C4240 1.377 . S
C4241 C4242 1.379 . S
C4242 H4226 0.931 . S
C4242 C4236 1.383 . S
C4242 C4241 1.379 . S
H4243 C4237 0.959 . S
H4244 C4237 0.961 . S
H4245 C4237 0.960 . S
H4246 C4238 0.930 . S
H4247 C4239 0.929 . S
H4248 C4256 0.929 . S
H4249 C4258 0.930 . S
H4250 C4260 0.930 . S
H4251 C4263 0.929 . S
H4252 C4266 0.930 . S
H4253 C4268 0.960 . S
H4254 C4268 0.960 . S
H4255 C4268 0.960 . S
C4256 H4248 0.929 . S
C4256 C4257 1.377 . S
C4256 C4258 1.384 . S
C4257 C4256 1.377 . S
C4257 C4263 1.390 . S
C4258 H4249 0.930 . S
C4258 C4256 1.384 . S
C4258 C4259 1.372 . S
C4259 C4258 1.372 . S
C4259 C4260 1.400 . S
C4259 C4264 1.490 . S
C4260 H4250 0.930 . S
C4260 C4259 1.400 . S
C4260 C4263 1.386 . S
H4261 C4277 0.930 . S
H4262 C4278 0.931 . S
C4263 H4251 0.929 . S
C4263 C4257 1.390 . S
C4263 C4260 1.386 . S
C4264 C4259 1.490 . S
C4264 C4266 1.395 . S
C4264 C4267 1.359 1_455 S
H4265 C4271 0.989 . S
C4266 H4252 0.930 . S
C4266 C4264 1.395 . S
C4266 C4269 1.403 . S
C4267 C4264 1.359 1_655 S
C4267 C4268 1.547 . S
C4267 C4271 1.393 . S
C4268 H4253 0.960 . S
C4268 H4254 0.960 . S
C4268 H4255 0.960 . S
C4268 C4267 1.547 . S
C4269 C4266 1.403 . S
C4269 C4270 1.392 . S
C4269 C4273 1.495 . S
C4270 C4269 1.392 . S
C4270 C4271 1.360 1_455 S
C4270 C4272 1.478 . S
C4271 H4265 0.989 . S
C4271 C4267 1.393 . S
C4271 C4270 1.360 1_655 S
C4272 C4270 1.478 . S
C4272 C4274 1.381 . S
C4272 C4278 1.383 . S
C4273 C4269 1.495 . S
C4273 H4279 0.959 . S
C4273 H4280 0.961 . S
C4273 H4281 0.960 . S
C4274 C4272 1.381 . S
C4274 C4275 1.394 . S
C4274 H4282 0.930 . S
C4275 C4274 1.394 . S
C4275 C4276 1.383 . S
C4275 H4283 0.929 . S
C4276 C4275 1.383 . S
C4276 C4277 1.377 . S
C4277 H4261 0.930 . S
C4277 C4276 1.377 . S
C4277 C4278 1.379 . S
C4278 H4262 0.931 . S
C4278 C4272 1.383 . S
C4278 C4277 1.379 . S
H4279 C4273 0.959 . S
H4280 C4273 0.961 . S
H4281 C4273 0.960 . S
H4282 C4274 0.930 . S
H4283 C4275 0.929 . S
H4284 C4292 0.929 . S
H4285 C4294 0.930 . S
H4286 C4296 0.930 . S
H4287 C4299 0.929 . S
H4288 C4302 0.930 . S
H4289 C4304 0.960 . S
H4290 C4304 0.960 . S
H4291 C4304 0.960 . S
C4292 H4284 0.929 . S
C4292 C4293 1.377 . S
C4292 C4294 1.384 . S
C4293 C4292 1.377 . S
C4293 C4299 1.390 . S
C4294 H4285 0.930 . S
C4294 C4292 1.384 . S
C4294 C4295 1.372 . S
C4295 C4294 1.372 . S
C4295 C4296 1.400 . S
C4295 C4300 1.490 . S
C4296 H4286 0.930 . S
C4296 C4295 1.400 . S
C4296 C4299 1.386 . S
H4297 C4313 0.930 . S
H4298 C4314 0.931 . S
C4299 H4287 0.929 . S
C4299 C4293 1.390 . S
C4299 C4296 1.386 . S
C4300 C4295 1.490 . S
C4300 C4302 1.395 . S
C4300 C4303 1.403 . S
H4301 C4307 0.930 . S
C4302 H4288 0.930 . S
C4302 C4300 1.395 . S
C4302 C4305 1.403 . S
C4303 C4300 1.403 . S
C4303 C4304 1.524 . S
C4303 C4307 1.400 . S
C4304 H4289 0.960 . S
C4304 H4290 0.960 . S
C4304 H4291 0.960 . S
C4304 C4303 1.524 . S
C4305 C4302 1.403 . S
C4305 C4306 1.392 . S
C4305 C4309 1.495 . S
C4306 C4305 1.392 . S
C4306 C4307 1.385 . S
C4306 C4308 1.478 . S
C4307 H4301 0.930 . S
C4307 C4303 1.400 . S
C4307 C4306 1.385 . S
C4308 C4306 1.478 . S
C4308 C4310 1.381 . S
C4308 C4314 1.383 . S
C4309 C4305 1.495 . S
C4309 H4315 0.959 . S
C4309 H4316 0.961 . S
C4309 H4317 0.960 . S
C4310 C4308 1.381 . S
C4310 C4311 1.394 . S
C4310 H4318 0.930 . S
C4311 C4310 1.394 . S
C4311 C4312 1.383 . S
C4311 H4319 0.929 . S
C4312 C4311 1.383 . S
C4312 C4313 1.377 . S
C4313 H4297 0.930 . S
C4313 C4312 1.377 . S
C4313 C4314 1.379 . S
C4314 H4298 0.931 . S
C4314 C4308 1.383 . S
C4314 C4313 1.379 . S
H4315 C4309 0.959 . S
H4316 C4309 0.961 . S
H4317 C4309 0.960 . S
H4318 C4310 0.930 . S
H4319 C4311 0.929 . S
H4320 C4328 0.929 . S
H4321 C4330 0.930 . S
H4322 C4332 0.930 . S
H4323 C4335 0.929 . S
H4324 C4338 0.898 1_545 S
H4325 C4340 0.960 . S
H4326 C4340 0.960 . S
H4327 C4340 0.960 . S
C4328 H4320 0.929 . S
C4328 C4329 1.377 . S
C4328 C4330 1.384 . S
C4329 C4328 1.377 . S
C4329 C4335 1.390 . S
C4330 H4321 0.930 . S
C4330 C4328 1.384 . S
C4330 C4331 1.372 . S
C4331 C4330 1.372 . S
C4331 C4332 1.400 . S
C4331 C4336 1.490 . S
C4332 H4322 0.930 . S
C4332 C4331 1.400 . S
C4332 C4335 1.386 . S
H4333 C4349 0.930 . S
H4334 C4350 0.931 . S
C4335 H4323 0.929 . S
C4335 C4329 1.390 . S
C4335 C4332 1.386 . S
C4336 C4331 1.490 . S
C4336 C4338 1.395 . S
C4336 C4339 1.403 . S
H4337 C4343 0.930 . S
C4338 H4324 0.898 1_565 S
C4338 C4336 1.395 . S
C4338 C4341 1.386 . S
C4339 C4336 1.403 . S
C4339 C4340 1.524 . S
C4339 C4343 1.400 . S
C4340 H4325 0.960 . S
C4340 H4326 0.960 . S
C4340 H4327 0.960 . S
C4340 C4339 1.524 . S
C4341 C4338 1.386 . S
C4341 C4342 1.442 . S
C4341 C4345 1.465 1_565 S
C4342 C4341 1.442 . S
C4342 C4343 1.385 . S
C4342 C4344 1.478 . S
C4343 H4337 0.930 . S
C4343 C4339 1.400 . S
C4343 C4342 1.385 . S
C4344 C4342 1.478 . S
C4344 C4346 1.381 . S
C4344 C4350 1.383 1_565 S
C4345 C4341 1.465 1_545 S
C4345 H4351 0.959 . S
C4345 H4352 0.961 . S
C4345 H4353 0.960 . S
C4346 C4344 1.381 . S
C4346 C4347 1.394 . S
C4346 H4354 0.930 . S
C4347 C4346 1.394 . S
C4347 C4348 1.383 . S
C4347 H4355 0.929 . S
C4348 C4347 1.383 . S
C4348 C4349 1.377 1_565 S
C4349 H4333 0.930 . S
C4349 C4348 1.377 1_545 S
C4349 C4350 1.379 . S
C4350 H4334 0.931 . S
C4350 C4344 1.383 1_545 S
C4350 C4349 1.379 . S
H4351 C4345 0.959 . S
H4352 C4345 0.961 . S
H4353 C4345 0.960 . S
H4354 C4346 0.930 . S
H4355 C4347 0.929 . S
H4356 C4364 0.929 . S
H4357 C4366 0.930 . S
H4358 C4368 0.930 1_545 S
H4359 C4371 0.929 1_545 S
H4360 C4374 0.930 . S
H4361 C4376 0.960 . S
H4362 C4376 0.960 . S
H4363 C4376 0.929 1_545 S
C4364 H4356 0.929 . S
C4364 C4365 1.377 . S
C4364 C4366 1.384 . S
C4365 C4364 1.377 . S
C4365 C4371 1.390 . S
C4366 H4357 0.930 . S
C4366 C4364 1.384 . S
C4366 C4367 1.372 . S
C4367 C4366 1.372 . S
C4367 C4368 1.400 . S
C4367 C4372 1.490 . S
C4368 H4358 0.930 1_565 S
C4368 C4367 1.400 . S
C4368 C4371 1.386 . S
H4369 C4385 0.930 . S
H4370 C4386 0.931 . S
C4371 H4359 0.929 1_565 S
C4371 C4365 1.390 . S
C4371 C4368 1.386 . S
C4372 C4367 1.490 . S
C4372 C4374 1.395 . S
C4372 C4375 1.403 . S
H4373 C4379 0.930 . S
C4374 H4360 0.930 . S
C4374 C4372 1.395 . S
C4374 C4377 1.403 . S
C4375 C4372 1.403 . S
C4375 C4376 1.524 . S
C4375 C4379 1.400 . S
C4376 H4361 0.960 . S
C4376 H4362 0.960 . S
C4376 H4363 0.929 1_565 S
C4376 C4375 1.524 . S
C4377 C4374 1.403 . S
C4377 C4378 1.392 . S
C4377 C4381 1.495 . S
C4378 C4377 1.392 . S
C4378 C4379 1.385 . S
C4378 C4380 1.478 . S
C4379 H4373 0.930 . S
C4379 C4375 1.400 . S
C4379 C4378 1.385 . S
C4380 C4378 1.478 . S
C4380 C4382 1.381 . S
C4380 C4386 1.383 1_565 S
C4381 C4377 1.495 . S
C4381 H4387 0.959 . S
C4381 H4388 0.961 . S
C4381 H4389 0.960 . S
C4382 C4380 1.381 . S
C4382 C4383 1.394 . S
C4382 H4390 0.930 . S
C4383 C4382 1.394 . S
C4383 C4384 1.383 . S
C4383 H4391 0.929 . S
C4384 C4383 1.383 . S
C4384 C4385 1.377 1_565 S
C4385 H4369 0.930 . S
C4385 C4384 1.377 1_545 S
C4385 C4386 1.379 . S
C4386 H4370 0.931 . S
C4386 C4380 1.383 1_545 S
C4386 C4385 1.379 . S
H4387 C4381 0.959 . S
H4388 C4381 0.961 . S
H4389 C4381 0.960 . S
H4390 C4382 0.930 . S
H4391 C4383 0.929 . S
H4392 C4400 0.929 1_655 S
H4393 C4402 0.930 1_655 S
H4394 C4404 0.930 . S
H4395 C4407 0.929 . S
H4396 C4410 0.930 . S
H4397 C4412 0.960 . S
H4398 C4412 0.995 . S
H4399 C4412 0.960 . S
C4400 H4392 0.929 1_455 S
C4400 C4401 1.377 . S
C4400 C4402 1.384 . S
C4401 C4400 1.377 . S
C4401 C4407 1.390 . S
C4402 H4393 0.930 1_455 S
C4402 C4400 1.384 . S
C4402 C4403 1.372 . S
C4403 C4402 1.372 . S
C4403 C4404 1.400 . S
C4403 C4408 1.490 . S
C4404 H4394 0.930 . S
C4404 C4403 1.400 . S
C4404 C4407 1.386 . S
H4405 C4421 0.930 . S
H4406 C4422 0.931 . S
C4407 H4395 0.929 . S
C4407 C4401 1.390 . S
C4407 C4404 1.386 . S
C4408 C4403 1.490 . S
C4408 C4410 1.395 . S
C4408 C4411 1.403 . S
H4409 C4415 0.930 . S
C4410 H4396 0.930 . S
C4410 C4408 1.395 . S
C4410 C4413 1.403 . S
C4411 C4408 1.403 . S
C4411 C4412 1.524 . S
C4411 C4415 1.400 . S
C4412 H4397 0.960 . S
C4412 H4398 0.995 . S
C4412 H4399 0.960 . S
C4412 C4411 1.524 . S
C4413 C4410 1.403 . S
C4413 C4414 1.392 . S
C4413 C4417 1.495 . S
C4414 C4413 1.392 . S
C4414 C4415 1.385 . S
C4414 C4416 1.478 . S
C4415 H4409 0.930 . S
C4415 C4411 1.400 . S
C4415 C4414 1.385 . S
C4416 C4414 1.478 . S
C4416 C4418 1.381 1_455 S
C4416 C4422 1.383 . S
C4417 C4413 1.495 . S
C4417 H4423 0.959 . S
C4417 H4424 0.961 . S
C4417 H4425 0.960 1_455 S
C4418 C4416 1.381 1_655 S
C4418 C4419 1.394 . S
C4418 H4426 0.930 . S
C4419 C4418 1.394 . S
C4419 C4420 1.383 1_655 S
C4419 H4427 0.929 . S
C4420 C4419 1.383 1_455 S
C4420 C4421 1.377 . S
C4421 H4405 0.930 . S
C4421 C4420 1.377 . S
C4421 C4422 1.379 . S
C4422 H4406 0.931 . S
C4422 C4416 1.383 . S
C4422 C4421 1.379 . S
H4423 C4417 0.959 . S
H4424 C4417 0.961 . S
H4425 C4417 0.960 1_655 S
H4426 C4418 0.930 . S
H4427 C4419 0.929 . S
H4428 C4436 0.929 . S
H4429 C4438 0.930 . S
H4430 C4440 0.930 . S
H4431 C4443 0.929 . S
H4432 C4446 0.930 . S
H4433 C4448 0.960 . S
H4434 C4448 0.960 . S
H4435 C4448 0.960 . S
C4436 H4428 0.929 . S
C4436 C4437 1.377 . S
C4436 C4438 1.384 . S
C4437 C4436 1.377 . S
C4437 C4443 1.390 . S
C4438 H4429 0.930 . S
C4438 C4436 1.384 . S
C4438 C4439 1.372 . S
C4439 C4438 1.372 . S
C4439 C4440 1.400 . S
C4439 C4444 1.490 . S
C4440 H4430 0.930 . S
C4440 C4439 1.400 . S
C4440 C4443 1.386 . S
H4441 C4457 0.930 . S
H4442 C4458 0.931 . S
C4443 H4431 0.929 . S
C4443 C4437 1.390 . S
C4443 C4440 1.386 . S
C4444 C4439 1.490 . S
C4444 C4446 1.395 . S
C4444 C4447 1.403 . S
H4445 C4451 0.930 . S
C4446 H4432 0.930 . S
C4446 C4444 1.395 . S
C4446 C4449 1.403 . S
C4447 C4444 1.403 . S
C4447 C4448 1.524 . S
C4447 C4451 1.400 . S
C4448 H4433 0.960 . S
C4448 H4434 0.960 . S
C4448 H4435 0.960 . S
C4448 C4447 1.524 . S
C4449 C4446 1.403 . S
C4449 C4450 1.392 . S
C4449 C4453 1.495 . S
C4450 C4449 1.392 . S
C4450 C4451 1.385 . S
C4450 C4452 1.478 . S
C4451 H4445 0.930 . S
C4451 C4447 1.400 . S
C4451 C4450 1.385 . S
C4452 C4450 1.478 . S
C4452 C4454 1.381 . S
C4452 C4458 1.383 . S
C4453 C4449 1.495 . S
C4453 H4459 0.959 . S
C4453 H4460 0.961 . S
C4453 H4461 0.960 . S
C4454 C4452 1.381 . S
C4454 C4455 1.394 . S
C4454 H4462 0.930 . S
C4455 C4454 1.394 . S
C4455 C4456 1.383 . S
C4455 H4463 0.929 . S
C4456 C4455 1.383 . S
C4456 C4457 1.377 . S
C4457 H4441 0.930 . S
C4457 C4456 1.377 . S
C4457 C4458 1.379 . S
C4458 H4442 0.931 . S
C4458 C4452 1.383 . S
C4458 C4457 1.379 . S
H4459 C4453 0.959 . S
H4460 C4453 0.961 . S
H4461 C4453 0.960 . S
H4462 C4454 0.930 . S
H4463 C4455 0.929 . S
H4464 C4472 0.929 . S
H4465 C4474 0.930 . S
H4466 C4476 0.930 . S
H4467 C4479 0.929 . S
H4468 C4482 0.930 . S
H4469 C4484 0.960 . S
H4470 C4484 0.960 . S
H4471 C4484 0.960 . S
C4472 H4464 0.929 . S
C4472 C4473 1.377 . S
C4472 C4474 1.384 . S
C4473 C4472 1.377 . S
C4473 C4479 1.390 . S
C4474 H4465 0.930 . S
C4474 C4472 1.384 . S
C4474 C4475 1.372 . S
C4475 C4474 1.372 . S
C4475 C4476 1.400 . S
C4475 C4480 1.490 . S
C4476 H4466 0.930 . S
C4476 C4475 1.400 . S
C4476 C4479 1.386 . S
H4477 C4493 0.930 . S
H4478 C4494 0.931 . S
C4479 H4467 0.929 . S
C4479 C4473 1.390 . S
C4479 C4476 1.386 . S
C4480 C4475 1.490 . S
C4480 C4482 1.395 . S
C4480 C4483 1.403 . S
H4481 C4487 0.930 . S
C4482 H4468 0.930 . S
C4482 C4480 1.395 . S
C4482 C4485 1.403 . S
C4483 C4480 1.403 . S
C4483 C4484 1.524 . S
C4483 C4487 1.400 . S
C4484 H4469 0.960 . S
C4484 H4470 0.960 . S
C4484 H4471 0.960 . S
C4484 C4483 1.524 . S
C4485 C4482 1.403 . S
C4485 C4486 1.392 . S
C4485 C4489 1.495 . S
C4486 C4485 1.392 . S
C4486 C4487 1.385 . S
C4486 C4488 1.478 . S
C4487 H4481 0.930 . S
C4487 C4483 1.400 . S
C4487 C4486 1.385 . S
C4488 C4486 1.478 . S
C4488 C4490 1.381 . S
C4488 C4494 1.383 . S
C4489 C4485 1.495 . S
C4489 H4495 0.959 . S
C4489 H4496 0.961 . S
C4489 H4497 0.960 . S
C4490 C4488 1.381 . S
C4490 C4491 1.394 . S
C4490 H4498 0.930 . S
C4491 C4490 1.394 . S
C4491 C4492 1.383 . S
C4491 H4499 0.929 . S
C4492 C4491 1.383 . S
C4492 C4493 1.377 . S
C4493 H4477 0.930 . S
C4493 C4492 1.377 . S
C4493 C4494 1.379 . S
C4494 H4478 0.931 . S
C4494 C4488 1.383 . S
C4494 C4493 1.379 . S
H4495 C4489 0.959 . S
H4496 C4489 0.961 . S
H4497 C4489 0.960 . S
H4498 C4490 0.930 . S
H4499 C4491 0.929 . S
H4500 C4508 0.929 . S
H4501 C4510 0.930 . S
H4502 C4512 0.930 . S
H4503 C4515 0.929 . S
H4504 C4518 0.930 . S
H4505 C4520 0.960 . S
H4506 C4520 0.960 . S
H4507 C4520 0.960 . S
C4508 H4500 0.929 . S
C4508 C4509 1.377 . S
C4508 C4510 1.384 . S
C4509 C4508 1.377 . S
C4509 C4515 1.390 . S
C4510 H4501 0.930 . S
C4510 C4508 1.384 . S
C4510 C4511 1.372 . S
C4511 C4510 1.372 . S
C4511 C4512 1.400 . S
C4511 C4516 1.490 . S
C4512 H4502 0.930 . S
C4512 C4511 1.400 . S
C4512 C4515 1.386 . S
H4513 C4529 0.930 . S
H4514 C4530 0.931 . S
C4515 H4503 0.929 . S
C4515 C4509 1.390 . S
C4515 C4512 1.386 . S
C4516 C4511 1.490 . S
C4516 C4518 1.395 . S
C4516 C4519 1.403 . S
H4517 C4523 0.930 . S
C4518 H4504 0.930 . S
C4518 C4516 1.395 . S
C4518 C4521 1.403 . S
C4519 C4516 1.403 . S
C4519 C4520 1.524 . S
C4519 C4523 1.400 . S
C4520 H4505 0.960 . S
C4520 H4506 0.960 . S
C4520 H4507 0.960 . S
C4520 C4519 1.524 . S
C4521 C4518 1.403 . S
C4521 C4522 1.392 . S
C4521 C4525 1.495 . S
C4522 C4521 1.392 . S
C4522 C4523 1.385 . S
C4522 C4524 1.478 . S
C4523 H4517 0.930 . S
C4523 C4519 1.400 . S
C4523 C4522 1.385 . S
C4524 C4522 1.478 . S
C4524 C4526 1.381 . S
C4524 C4530 1.383 . S
C4525 C4521 1.495 . S
C4525 H4531 0.959 . S
C4525 H4532 0.961 . S
C4525 H4533 0.960 . S
C4526 C4524 1.381 . S
C4526 C4527 1.394 . S
C4526 H4534 0.930 . S
C4527 C4526 1.394 . S
C4527 C4528 1.383 . S
C4527 H4535 0.929 . S
C4528 C4527 1.383 . S
C4528 C4529 1.377 . S
C4529 H4513 0.930 . S
C4529 C4528 1.377 . S
C4529 C4530 1.379 . S
C4530 H4514 0.931 . S
C4530 C4524 1.383 . S
C4530 C4529 1.379 . S
H4531 C4525 0.959 . S
H4532 C4525 0.961 . S
H4533 C4525 0.960 . S
H4534 C4526 0.930 . S
H4535 C4527 0.929 . S
H4536 C4544 0.929 . S
H4537 C4546 0.930 . S
H4538 C4548 0.930 . S
H4539 C4551 0.929 . S
H4540 C4554 0.930 . S
H4541 C4556 0.960 . S
H4542 C4556 0.960 . S
H4543 C4556 0.960 . S
C4544 H4536 0.929 . S
C4544 C4545 1.377 . S
C4544 C4546 1.384 . S
C4545 C4544 1.377 . S
C4545 C4551 1.390 . S
C4546 H4537 0.930 . S
C4546 C4544 1.384 . S
C4546 C4547 1.372 . S
C4547 C4546 1.372 . S
C4547 C4548 1.400 . S
C4547 C4552 1.490 . S
C4548 H4538 0.930 . S
C4548 C4547 1.400 . S
C4548 C4551 1.386 . S
H4549 C4565 0.930 . S
H4550 C4566 0.931 . S
C4551 H4539 0.929 . S
C4551 C4545 1.390 . S
C4551 C4548 1.386 . S
C4552 C4547 1.490 . S
C4552 C4554 1.395 . S
C4552 C4555 1.403 . S
H4553 C4559 0.930 . S
C4554 H4540 0.930 . S
C4554 C4552 1.395 . S
C4554 C4557 1.403 . S
C4555 C4552 1.403 . S
C4555 C4556 1.524 . S
C4555 C4559 1.400 . S
C4556 H4541 0.960 . S
C4556 H4542 0.960 . S
C4556 H4543 0.960 . S
C4556 C4555 1.524 . S
C4557 C4554 1.403 . S
C4557 C4558 1.392 . S
C4557 C4561 1.495 . S
C4558 C4557 1.392 . S
C4558 C4559 1.385 . S
C4558 C4560 1.478 . S
C4559 H4553 0.930 . S
C4559 C4555 1.400 . S
C4559 C4558 1.385 . S
C4560 C4558 1.478 . S
C4560 C4562 1.381 . S
C4560 C4566 1.383 . S
C4561 C4557 1.495 . S
C4561 H4567 0.959 . S
C4561 H4568 0.961 . S
C4561 H4569 0.960 . S
C4562 C4560 1.381 . S
C4562 C4563 1.394 . S
C4562 H4570 0.930 . S
C4563 C4562 1.394 . S
C4563 C4564 1.383 . S
C4563 H4571 0.929 . S
C4564 C4563 1.383 . S
C4564 C4565 1.377 . S
C4565 H4549 0.930 . S
C4565 C4564 1.377 . S
C4565 C4566 1.379 . S
C4566 H4550 0.931 . S
C4566 C4560 1.383 . S
C4566 C4565 1.379 . S
H4567 C4561 0.959 . S
H4568 C4561 0.961 . S
H4569 C4561 0.960 . S
H4570 C4562 0.930 . S
H4571 C4563 0.929 . S
H4572 C4580 0.929 . S
H4573 C4582 0.930 . S
H4574 C4584 0.930 . S
H4575 C4587 0.929 . S
H4576 C4590 0.930 . S
H4577 C4592 0.960 . S
H4578 C4592 0.960 . S
H4579 C4592 0.960 . S
C4580 H4572 0.929 . S
C4580 C4581 1.377 . S
C4580 C4582 1.384 . S
C4581 C4580 1.377 . S
C4581 C4587 1.390 . S
C4582 H4573 0.930 . S
C4582 C4580 1.384 . S
C4582 C4583 1.372 . S
C4583 C4582 1.372 . S
C4583 C4584 1.400 . S
C4583 C4588 1.490 . S
C4584 H4574 0.930 . S
C4584 C4583 1.400 . S
C4584 C4587 1.386 . S
H4585 C4601 0.930 . S
H4586 C4602 0.931 . S
C4587 H4575 0.929 . S
C4587 C4581 1.390 . S
C4587 C4584 1.386 . S
C4588 C4583 1.490 . S
C4588 C4590 1.395 . S
C4588 C4591 1.403 . S
H4589 C4595 0.930 1_565 S
C4590 H4576 0.930 . S
C4590 C4588 1.395 . S
C4590 C4593 1.403 . S
C4591 C4588 1.403 . S
C4591 C4592 1.524 1_545 S
C4591 C4595 1.400 . S
C4592 H4577 0.960 . S
C4592 H4578 0.960 . S
C4592 H4579 0.960 . S
C4592 C4591 1.524 1_565 S
C4593 C4590 1.403 . S
C4593 C4594 1.392 . S
C4593 C4597 1.495 . S
C4594 C4593 1.392 . S
C4594 C4595 1.385 . S
C4594 C4596 1.478 . S
C4595 H4589 0.930 1_545 S
C4595 C4591 1.400 . S
C4595 C4594 1.385 . S
C4596 C4594 1.478 . S
C4596 C4598 1.381 . S
C4596 C4602 1.383 . S
C4597 C4593 1.495 . S
C4597 H4603 0.959 . S
C4597 H4604 0.961 . S
C4597 H4605 0.960 . S
C4598 C4596 1.381 . S
C4598 C4599 1.437 . S
C4598 H4606 0.954 . S
C4599 C4598 1.437 . S
C4599 C4600 1.399 . S
C4599 H4607 0.876 1_545 S
C4600 C4599 1.399 . S
C4600 C4601 1.377 . S
C4601 H4585 0.930 . S
C4601 C4600 1.377 . S
C4601 C4602 1.379 . S
C4602 H4586 0.931 . S
C4602 C4596 1.383 . S
C4602 C4601 1.379 . S
H4603 C4597 0.959 . S
H4604 C4597 0.961 . S
H4605 C4597 0.960 . S
H4606 C4598 0.954 . S
H4607 C4599 0.876 1_565 S
H4608 C4616 0.929 1_455 S
H4609 C4618 0.930 1_455 S
H4610 C4620 0.930 . S
H4611 C4623 0.929 . S
H4612 C4626 0.930 . S
H4613 C4628 0.962 . S
H4614 C4628 0.960 1_455 S
H4615 C4628 0.960 . S
C4616 H4608 0.929 1_655 S
C4616 C4617 1.377 . S
C4616 C4618 1.384 . S
C4617 C4616 1.377 . S
C4617 C4623 1.390 . S
C4618 H4609 0.930 1_655 S
C4618 C4616 1.384 . S
C4618 C4619 1.372 . S
C4619 C4618 1.372 . S
C4619 C4620 1.400 . S
C4619 C4624 1.490 . S
C4620 H4610 0.930 . S
C4620 C4619 1.400 . S
C4620 C4623 1.386 . S
H4621 C4637 0.930 . S
H4622 C4638 0.931 . S
C4623 H4611 0.929 . S
C4623 C4617 1.390 . S
C4623 C4620 1.386 . S
C4624 C4619 1.490 . S
C4624 C4626 1.395 . S
C4624 C4627 1.403 . S
H4625 C4631 0.930 . S
C4626 H4612 0.930 . S
C4626 C4624 1.395 . S
C4626 C4629 1.403 . S
C4627 C4624 1.403 . S
C4627 C4628 1.524 . S
C4627 C4631 1.400 . S
C4628 H4613 0.962 . S
C4628 H4614 0.960 1_655 S
C4628 H4615 0.960 . S
C4628 C4627 1.524 . S
C4629 C4626 1.403 . S
C4629 C4630 1.392 . S
C4629 C4633 1.495 . S
C4630 C4629 1.392 . S
C4630 C4631 1.385 . S
C4630 C4632 1.478 . S
C4631 H4625 0.930 . S
C4631 C4627 1.400 . S
C4631 C4630 1.385 . S
C4632 C4630 1.478 . S
C4632 C4634 1.381 1_655 S
C4632 C4638 1.383 . S
C4633 C4629 1.495 . S
C4633 H4639 0.959 . S
C4633 H4640 0.961 . S
C4633 H4641 0.960 . S
C4634 C4632 1.381 1_455 S
C4634 C4635 1.394 . S
C4634 H4642 0.930 . S
C4635 C4634 1.394 . S
C4635 C4636 1.383 1_455 S
C4635 H4643 0.929 . S
C4636 C4635 1.383 1_655 S
C4636 C4637 1.377 . S
C4637 H4621 0.930 . S
C4637 C4636 1.377 . S
C4637 C4638 1.379 . S
C4638 H4622 0.931 . S
C4638 C4632 1.383 . S
C4638 C4637 1.379 . S
H4639 C4633 0.959 . S
H4640 C4633 0.961 . S
H4641 C4633 0.960 . S
H4642 C4634 0.930 . S
H4643 C4635 0.929 . S
H4644 C4652 0.929 . S
H4645 C4654 0.930 . S
H4646 C4656 0.930 . S
H4647 C4659 0.929 . S
H4648 C4662 0.930 . S
H4649 C4664 0.960 . S
H4650 C4664 0.960 . S
H4651 C4664 0.960 . S
C4652 H4644 0.929 . S
C4652 C4653 1.377 . S
C4652 C4654 1.384 . S
C4653 C4652 1.377 . S
C4653 C4659 1.390 . S
C4654 H4645 0.930 . S
C4654 C4652 1.384 . S
C4654 C4655 1.372 . S
C4655 C4654 1.372 . S
C4655 C4656 1.400 . S
C4655 C4660 1.490 . S
C4656 H4646 0.930 . S
C4656 C4655 1.400 . S
C4656 C4659 1.386 . S
H4657 C4673 0.930 . S
H4658 C4674 0.931 . S
C4659 H4647 0.929 . S
C4659 C4653 1.390 . S
C4659 C4656 1.386 . S
C4660 C4655 1.490 . S
C4660 C4662 1.395 . S
C4660 C4663 1.403 . S
H4661 C4667 0.930 . S
C4662 H4648 0.930 . S
C4662 C4660 1.395 . S
C4662 C4665 1.403 . S
C4663 C4660 1.403 . S
C4663 C4664 1.524 . S
C4663 C4667 1.400 . S
C4664 H4649 0.960 . S
C4664 H4650 0.960 . S
C4664 H4651 0.960 . S
C4664 C4663 1.524 . S
C4665 C4662 1.403 . S
C4665 C4666 1.392 . S
C4665 C4669 1.495 . S
C4666 C4665 1.392 . S
C4666 C4667 1.385 . S
C4666 C4668 1.478 . S
C4667 H4661 0.930 . S
C4667 C4663 1.400 . S
C4667 C4666 1.385 . S
C4668 C4666 1.478 . S
C4668 C4670 1.381 . S
C4668 C4674 1.383 . S
C4669 C4665 1.495 . S
C4669 H4675 0.959 . S
C4669 H4676 0.961 . S
C4669 H4677 0.960 . S
C4670 C4668 1.381 . S
C4670 C4671 1.394 . S
C4670 H4678 0.930 . S
C4671 C4670 1.394 . S
C4671 C4672 1.383 . S
C4671 H4679 0.929 . S
C4672 C4671 1.383 . S
C4672 C4673 1.377 . S
C4673 H4657 0.930 . S
C4673 C4672 1.377 . S
C4673 C4674 1.379 . S
C4674 H4658 0.931 . S
C4674 C4668 1.383 . S
C4674 C4673 1.379 . S
H4675 C4669 0.959 . S
H4676 C4669 0.961 . S
H4677 C4669 0.960 . S
H4678 C4670 0.930 . S
H4679 C4671 0.929 . S
H4680 C4688 0.929 . S
H4681 C4690 0.930 . S
H4682 C4692 0.930 . S
H4683 C4695 0.929 . S
H4684 C4698 0.930 . S
H4685 C4700 0.960 . S
H4686 C4700 0.960 . S
H4687 C4700 0.960 . S
C4688 H4680 0.929 . S
C4688 C4689 1.377 . S
C4688 C4690 1.384 . S
C4689 C4688 1.377 . S
C4689 C4695 1.390 . S
C4690 H4681 0.930 . S
C4690 C4688 1.384 . S
C4690 C4691 1.372 . S
C4691 C4690 1.372 . S
C4691 C4692 1.400 . S
C4691 C4696 1.490 . S
C4692 H4682 0.930 . S
C4692 C4691 1.400 . S
C4692 C4695 1.386 . S
H4693 C4709 0.930 . S
H4694 C4710 0.931 . S
C4695 H4683 0.929 . S
C4695 C4689 1.390 . S
C4695 C4692 1.386 . S
C4696 C4691 1.490 . S
C4696 C4698 1.395 . S
C4696 C4699 1.403 . S
H4697 C4703 0.930 . S
C4698 H4684 0.930 . S
C4698 C4696 1.395 . S
C4698 C4701 1.403 . S
C4699 C4696 1.403 . S
C4699 C4700 1.524 . S
C4699 C4703 1.400 . S
C4700 H4685 0.960 . S
C4700 H4686 0.960 . S
C4700 H4687 0.960 . S
C4700 C4699 1.524 . S
C4701 C4698 1.403 . S
C4701 C4702 1.392 . S
C4701 C4705 1.495 . S
C4702 C4701 1.392 . S
C4702 C4703 1.385 . S
C4702 C4704 1.478 . S
C4703 H4697 0.930 . S
C4703 C4699 1.400 . S
C4703 C4702 1.385 . S
C4704 C4702 1.478 . S
C4704 C4706 1.381 . S
C4704 C4710 1.383 . S
C4705 C4701 1.495 . S
C4705 H4711 0.959 . S
C4705 H4712 0.961 . S
C4705 H4713 0.960 . S
C4706 C4704 1.381 . S
C4706 C4707 1.394 . S
C4706 H4714 0.930 . S
C4707 C4706 1.394 . S
C4707 C4708 1.383 . S
C4707 H4715 0.929 . S
C4708 C4707 1.383 . S
C4708 C4709 1.377 . S
C4709 H4693 0.930 . S
C4709 C4708 1.377 . S
C4709 C4710 1.379 . S
C4710 H4694 0.931 . S
C4710 C4704 1.383 . S
C4710 C4709 1.379 . S
H4711 C4705 0.959 . S
H4712 C4705 0.961 . S
H4713 C4705 0.960 . S
H4714 C4706 0.930 . S
H4715 C4707 0.929 . S
H4716 C4724 0.929 . S
H4717 C4726 0.930 . S
H4718 C4728 0.930 . S
H4719 C4731 0.929 . S
H4720 C4734 0.930 . S
H4721 C4736 0.960 . S
H4722 C4736 0.960 . S
H4723 C4736 0.960 . S
C4724 H4716 0.929 . S
C4724 C4725 1.377 . S
C4724 C4726 1.384 . S
C4725 C4724 1.377 . S
C4725 C4731 1.390 . S
C4726 H4717 0.930 . S
C4726 C4724 1.384 . S
C4726 C4727 1.372 . S
C4727 C4726 1.372 . S
C4727 C4728 1.400 . S
C4727 C4732 1.490 . S
C4728 H4718 0.930 . S
C4728 C4727 1.400 . S
C4728 C4731 1.386 . S
H4729 C4745 0.930 . S
H4730 C4746 0.931 . S
C4731 H4719 0.929 . S
C4731 C4725 1.390 . S
C4731 C4728 1.386 . S
C4732 C4727 1.490 . S
C4732 C4734 1.395 . S
C4732 C4735 1.403 . S
H4733 C4739 0.930 . S
C4734 H4720 0.930 . S
C4734 C4732 1.395 . S
C4734 C4737 1.403 . S
C4735 C4732 1.403 . S
C4735 C4736 1.524 . S
C4735 C4739 1.400 . S
C4736 H4721 0.960 . S
C4736 H4722 0.960 . S
C4736 H4723 0.960 . S
C4736 C4735 1.524 . S
C4737 C4734 1.403 . S
C4737 C4738 1.392 . S
C4737 C4741 1.495 . S
C4738 C4737 1.392 . S
C4738 C4739 1.385 . S
C4738 C4740 1.478 . S
C4739 H4733 0.930 . S
C4739 C4735 1.400 . S
C4739 C4738 1.385 . S
C4740 C4738 1.478 . S
C4740 C4742 1.381 . S
C4740 C4746 1.383 . S
C4741 C4737 1.495 . S
C4741 H4747 0.959 . S
C4741 H4748 0.961 . S
C4741 H4749 0.960 . S
C4742 C4740 1.381 . S
C4742 C4743 1.394 . S
C4742 H4750 0.930 . S
C4743 C4742 1.394 . S
C4743 C4744 1.383 . S
C4743 H4751 0.929 . S
C4744 C4743 1.383 . S
C4744 C4745 1.377 . S
C4745 H4729 0.930 . S
C4745 C4744 1.377 . S
C4745 C4746 1.379 . S
C4746 H4730 0.931 . S
C4746 C4740 1.383 . S
C4746 C4745 1.379 . S
H4747 C4741 0.959 . S
H4748 C4741 0.961 . S
H4749 C4741 0.960 . S
H4750 C4742 0.930 . S
H4751 C4743 0.929 . S
H4752 C4760 0.929 . S
H4753 C4762 0.930 . S
H4754 C4764 0.930 . S
H4755 C4767 0.929 . S
H4756 C4770 0.930 . S
H4757 C4772 0.960 . S
H4758 C4772 0.960 . S
H4759 C4772 0.960 . S
C4760 H4752 0.929 . S
C4760 C4761 1.377 . S
C4760 C4762 1.384 . S
C4761 C4760 1.377 . S
C4761 C4767 1.390 . S
C4762 H4753 0.930 . S
C4762 C4760 1.384 . S
C4762 C4763 1.372 . S
C4763 C4762 1.372 . S
C4763 C4764 1.400 . S
C4763 C4768 1.490 . S
C4764 H4754 0.930 . S
C4764 C4763 1.400 . S
C4764 C4767 1.386 . S
H4765 C4781 0.930 . S
H4766 C4782 0.931 . S
C4767 H4755 0.929 . S
C4767 C4761 1.390 . S
C4767 C4764 1.386 . S
C4768 C4763 1.490 . S
C4768 C4770 1.395 . S
C4768 C4771 1.403 . S
H4769 C4775 0.930 . S
C4770 H4756 0.930 . S
C4770 C4768 1.395 . S
C4770 C4773 1.403 . S
C4771 C4768 1.403 . S
C4771 C4772 1.524 . S
C4771 C4775 1.400 . S
C4772 H4757 0.960 . S
C4772 H4758 0.960 . S
C4772 H4759 0.960 . S
C4772 C4771 1.524 . S
C4773 C4770 1.403 . S
C4773 C4774 1.392 . S
C4773 C4777 1.495 . S
C4774 C4773 1.392 . S
C4774 C4775 1.385 . S
C4774 C4776 1.478 . S
C4775 H4769 0.930 . S
C4775 C4771 1.400 . S
C4775 C4774 1.385 . S
C4776 C4774 1.478 . S
C4776 C4778 1.381 . S
C4776 C4782 1.383 . S
C4777 C4773 1.495 . S
C4777 H4783 0.959 . S
C4777 H4784 0.961 . S
C4777 H4785 0.960 . S
C4778 C4776 1.381 . S
C4778 C4779 1.394 . S
C4778 H4786 0.930 . S
C4779 C4778 1.394 . S
C4779 C4780 1.383 . S
C4779 H4787 0.929 . S
C4780 C4779 1.383 . S
C4780 C4781 1.377 . S
C4781 H4765 0.930 . S
C4781 C4780 1.377 . S
C4781 C4782 1.379 . S
C4782 H4766 0.931 . S
C4782 C4776 1.383 . S
C4782 C4781 1.379 . S
H4783 C4777 0.959 . S
H4784 C4777 0.961 . S
H4785 C4777 0.960 . S
H4786 C4778 0.930 . S
H4787 C4779 0.929 . S
H4788 C4796 0.929 . S
H4789 C4798 0.930 . S
H4790 C4800 0.930 . S
H4791 C4803 0.929 . S
H4792 C4806 0.930 . S
H4793 C4808 0.960 . S
H4794 C4808 0.960 . S
H4795 C4808 0.960 . S
C4796 H4788 0.929 . S
C4796 C4797 1.377 . S
C4796 C4798 1.384 . S
C4797 C4796 1.377 . S
C4797 C4803 1.390 . S
C4798 H4789 0.930 . S
C4798 C4796 1.384 . S
C4798 C4799 1.372 . S
C4799 C4798 1.372 . S
C4799 C4800 1.400 . S
C4799 C4804 1.490 . S
C4800 H4790 0.930 . S
C4800 C4799 1.400 . S
C4800 C4803 1.386 . S
H4801 C4817 0.930 . S
H4802 C4818 0.931 . S
C4803 H4791 0.929 . S
C4803 C4797 1.390 . S
C4803 C4800 1.386 . S
C4804 C4799 1.490 . S
C4804 C4806 1.395 . S
C4804 C4807 1.403 . S
H4805 C4811 0.930 . S
C4806 H4792 0.930 . S
C4806 C4804 1.395 . S
C4806 C4809 1.403 . S
C4807 C4804 1.403 . S
C4807 C4808 1.524 . S
C4807 C4811 1.400 . S
C4808 H4793 0.960 . S
C4808 H4794 0.960 . S
C4808 H4795 0.960 . S
C4808 C4807 1.524 . S
C4809 C4806 1.403 . S
C4809 C4810 1.392 . S
C4809 C4813 1.495 . S
C4810 C4809 1.392 . S
C4810 C4811 1.385 . S
C4810 C4812 1.478 . S
C4811 H4805 0.930 . S
C4811 C4807 1.400 . S
C4811 C4810 1.385 . S
C4812 C4810 1.478 . S
C4812 C4814 1.381 . S
C4812 C4818 1.383 . S
C4813 C4809 1.495 . S
C4813 H4819 0.959 . S
C4813 H4820 0.961 . S
C4813 H4821 0.960 . S
C4814 C4812 1.381 . S
C4814 C4815 1.394 . S
C4814 H4822 0.930 . S
C4815 C4814 1.394 . S
C4815 C4816 1.383 . S
C4815 H4823 0.929 . S
C4816 C4815 1.383 . S
C4816 C4817 1.377 . S
C4817 H4801 0.930 . S
C4817 C4816 1.377 . S
C4817 C4818 1.379 . S
C4818 H4802 0.931 . S
C4818 C4812 1.383 . S
C4818 C4817 1.379 . S
H4819 C4813 0.959 . S
H4820 C4813 0.961 . S
H4821 C4813 0.960 . S
H4822 C4814 0.930 . S
H4823 C4815 0.929 . S
H4824 C4832 0.929 . S
H4825 C4834 0.930 . S
H4826 C4836 0.930 . S
H4827 C4839 0.929 . S
H4828 C4842 0.930 . S
H4829 C4844 0.960 . S
H4830 C4844 0.960 . S
H4831 C4844 0.960 . S
C4832 H4824 0.929 . S
C4832 C4833 1.377 . S
C4832 C4834 1.384 . S
C4833 C4832 1.377 . S
C4833 C4839 1.390 . S
C4834 H4825 0.930 . S
C4834 C4832 1.384 . S
C4834 C4835 1.372 . S
C4835 C4834 1.372 . S
C4835 C4836 1.400 . S
C4835 C4840 1.490 . S
C4836 H4826 0.930 . S
C4836 C4835 1.400 . S
C4836 C4839 1.386 . S
H4837 C4853 0.930 . S
H4838 C4854 0.931 . S
C4839 H4827 0.929 . S
C4839 C4833 1.390 . S
C4839 C4836 1.386 . S
C4840 C4835 1.490 . S
C4840 C4842 1.395 . S
C4840 C4843 1.403 . S
H4841 C4847 0.930 . S
C4842 H4828 0.930 . S
C4842 C4840 1.395 . S
C4842 C4845 1.403 . S
C4843 C4840 1.403 . S
C4843 C4844 1.524 . S
C4843 C4847 1.400 . S
C4844 H4829 0.960 . S
C4844 H4830 0.960 . S
C4844 H4831 0.960 . S
C4844 C4843 1.524 . S
C4845 C4842 1.403 . S
C4845 C4846 1.392 . S
C4845 C4849 1.495 . S
C4846 C4845 1.392 . S
C4846 C4847 1.385 . S
C4846 C4848 1.478 . S
C4847 H4841 0.930 . S
C4847 C4843 1.400 . S
C4847 C4846 1.385 . S
C4848 C4846 1.478 . S
C4848 C4850 1.381 . S
C4848 C4854 1.383 . S
C4849 C4845 1.495 . S
C4849 H4855 0.959 . S
C4849 H4856 0.961 . S
C4849 H4857 0.960 . S
C4850 C4848 1.381 . S
C4850 C4851 1.394 . S
C4850 H4858 0.930 . S
C4851 C4850 1.394 . S
C4851 C4852 1.383 . S
C4851 H4859 0.929 . S
C4852 C4851 1.383 . S
C4852 C4853 1.377 . S
C4853 H4837 0.930 . S
C4853 C4852 1.377 . S
C4853 C4854 1.379 . S
C4854 H4838 0.931 . S
C4854 C4848 1.383 . S
C4854 C4853 1.379 . S
H4855 C4849 0.959 . S
H4856 C4849 0.961 . S
H4857 C4849 0.960 . S
H4858 C4850 0.930 . S
H4859 C4851 0.929 . S
H4860 C4868 0.929 . S
H4861 C4870 0.930 . S
H4862 C4872 0.930 . S
H4863 C4875 0.929 . S
H4864 C4878 0.930 . S
H4865 C4880 0.960 . S
H4866 C4880 0.960 . S
H4867 C4880 0.960 . S
C4868 H4860 0.929 . S
C4868 C4869 1.377 . S
C4868 C4870 1.384 . S
C4869 C4868 1.377 . S
C4869 C4875 1.390 . S
C4870 H4861 0.930 . S
C4870 C4868 1.384 . S
C4870 C4871 1.372 . S
C4871 C4870 1.372 . S
C4871 C4872 1.400 . S
C4871 C4876 1.490 . S
C4872 H4862 0.930 . S
C4872 C4871 1.400 . S
C4872 C4875 1.386 . S
H4873 C4889 0.930 . S
H4874 C4890 0.931 . S
C4875 H4863 0.929 . S
C4875 C4869 1.390 . S
C4875 C4872 1.386 . S
C4876 C4871 1.490 . S
C4876 C4878 1.395 . S
C4876 C4879 1.403 . S
H4877 C4883 0.930 . S
C4878 H4864 0.930 . S
C4878 C4876 1.395 . S
C4878 C4881 1.403 . S
C4879 C4876 1.403 . S
C4879 C4880 1.524 . S
C4879 C4883 1.400 . S
C4880 H4865 0.960 . S
C4880 H4866 0.960 . S
C4880 H4867 0.960 . S
C4880 C4879 1.524 . S
C4881 C4878 1.403 . S
C4881 C4882 1.392 . S
C4881 C4885 1.495 . S
C4882 C4881 1.392 . S
C4882 C4883 1.385 . S
C4882 C4884 1.478 . S
C4883 H4877 0.930 . S
C4883 C4879 1.400 . S
C4883 C4882 1.385 . S
C4884 C4882 1.478 . S
C4884 C4886 1.381 . S
C4884 C4890 1.383 . S
C4885 C4881 1.495 . S
C4885 H4891 0.959 . S
C4885 H4892 0.961 . S
C4885 H4893 0.960 . S
C4886 C4884 1.381 . S
C4886 C4887 1.394 . S
C4886 H4894 0.930 . S
C4887 C4886 1.394 . S
C4887 C4888 1.383 . S
C4887 H4895 0.929 . S
C4888 C4887 1.383 . S
C4888 C4889 1.377 . S
C4889 H4873 0.930 . S
C4889 C4888 1.377 . S
C4889 C4890 1.379 . S
C4890 H4874 0.931 . S
C4890 C4884 1.383 . S
C4890 C4889 1.379 . S
H4891 C4885 0.959 . S
H4892 C4885 0.961 . S
H4893 C4885 0.960 . S
H4894 C4886 0.930 . S
H4895 C4887 0.929 . S
H4896 C4904 0.929 . S
H4897 C4906 0.930 . S
H4898 C4908 0.930 . S
H4899 C4911 0.929 . S
H4900 C4914 0.912 1_455 S
H4901 C4916 0.960 . S
H4902 C4916 0.960 . S
H4903 C4916 0.960 . S
C4904 H4896 0.929 . S
C4904 C4905 1.377 . S
C4904 C4906 1.384 . S
C4905 C4904 1.377 . S
C4905 C4911 1.390 . S
C4906 H4897 0.930 . S
C4906 C4904 1.384 . S
C4906 C4907 1.372 . S
C4907 C4906 1.372 . S
C4907 C4908 1.400 . S
C4907 C4912 1.490 . S
C4908 H4898 0.930 . S
C4908 C4907 1.400 . S
C4908 C4911 1.386 . S
H4909 C4925 0.930 . S
H4910 C4926 0.931 . S
C4911 H4899 0.929 . S
C4911 C4905 1.390 . S
C4911 C4908 1.386 . S
C4912 C4907 1.490 . S
C4912 C4914 1.395 . S
C4912 C4915 1.403 . S
H4913 C4919 0.930 . S
C4914 H4900 0.912 1_655 S
C4914 C4912 1.395 . S
C4914 C4917 1.442 . S
C4915 C4912 1.403 . S
C4915 C4916 1.524 . S
C4915 C4919 1.400 . S
C4916 H4901 0.960 . S
C4916 H4902 0.960 . S
C4916 H4903 0.960 . S
C4916 C4915 1.524 . S
C4917 C4914 1.442 . S
C4917 C4918 1.411 . S
C4917 C4921 1.442 1_655 S
C4918 C4917 1.411 . S
C4918 C4919 1.385 . S
C4918 C4920 1.478 . S
C4919 H4913 0.930 . S
C4919 C4915 1.400 . S
C4919 C4918 1.385 . S
C4920 C4918 1.478 . S
C4920 C4922 1.381 . S
C4920 C4926 1.383 1_655 S
C4921 C4917 1.442 1_455 S
C4921 H4927 0.959 . S
C4921 H4928 0.961 . S
C4921 H4929 0.960 . S
C4922 C4920 1.381 . S
C4922 C4923 1.394 . S
C4922 H4930 0.930 . S
C4923 C4922 1.394 . S
C4923 C4924 1.383 . S
C4923 H4931 0.929 . S
C4924 C4923 1.383 . S
C4924 C4925 1.377 1_655 S
C4925 H4909 0.930 . S
C4925 C4924 1.377 1_455 S
C4925 C4926 1.379 . S
C4926 H4910 0.931 . S
C4926 C4920 1.383 1_455 S
C4926 C4925 1.379 . S
H4927 C4921 0.959 . S
H4928 C4921 0.961 . S
H4929 C4921 0.960 . S
H4930 C4922 0.930 . S
H4931 C4923 0.929 . S
H4932 C4940 0.929 . S
H4933 C4942 0.930 . S
H4934 C4944 0.930 . S
H4935 C4947 0.929 . S
H4936 C4950 0.930 . S
H4937 C4952 0.960 . S
H4938 C4952 0.960 . S
H4939 C4952 0.960 . S
C4940 H4932 0.929 . S
C4940 C4941 1.377 . S
C4940 C4942 1.384 . S
C4941 C4940 1.377 . S
C4941 C4947 1.390 . S
C4942 H4933 0.930 . S
C4942 C4940 1.384 . S
C4942 C4943 1.372 . S
C4943 C4942 1.372 . S
C4943 C4944 1.400 . S
C4943 C4948 1.490 . S
C4944 H4934 0.930 . S
C4944 C4943 1.400 . S
C4944 C4947 1.386 . S
H4945 C4961 0.930 . S
H4946 C4962 0.931 . S
C4947 H4935 0.929 . S
C4947 C4941 1.390 . S
C4947 C4944 1.386 . S
C4948 C4943 1.490 . S
C4948 C4950 1.395 . S
C4948 C4951 1.403 . S
H4949 C4955 0.930 . S
C4950 H4936 0.930 . S
C4950 C4948 1.395 . S
C4950 C4953 1.403 . S
C4951 C4948 1.403 . S
C4951 C4952 1.524 . S
C4951 C4955 1.400 . S
C4952 H4937 0.960 . S
C4952 H4938 0.960 . S
C4952 H4939 0.960 . S
C4952 C4951 1.524 . S
C4953 C4950 1.403 . S
C4953 C4954 1.392 . S
C4953 C4957 1.495 . S
C4954 C4953 1.392 . S
C4954 C4955 1.385 . S
C4954 C4956 1.478 . S
C4955 H4949 0.930 . S
C4955 C4951 1.400 . S
C4955 C4954 1.385 . S
C4956 C4954 1.478 . S
C4956 C4958 1.381 . S
C4956 C4962 1.383 . S
C4957 C4953 1.495 . S
C4957 H4963 0.959 . S
C4957 H4964 0.961 . S
C4957 H4965 0.960 . S
C4958 C4956 1.381 . S
C4958 C4959 1.394 . S
C4958 H4966 0.930 . S
C4959 C4958 1.394 . S
C4959 C4960 1.383 . S
C4959 H4967 0.929 . S
C4960 C4959 1.383 . S
C4960 C4961 1.377 . S
C4961 H4945 0.930 . S
C4961 C4960 1.377 . S
C4961 C4962 1.379 . S
C4962 H4946 0.931 . S
C4962 C4956 1.383 . S
C4962 C4961 1.379 . S
H4963 C4957 0.959 . S
H4964 C4957 0.961 . S
H4965 C4957 0.960 . S
H4966 C4958 0.930 . S
H4967 C4959 0.929 . S
H4968 C4976 0.929 . S
H4969 C4978 0.930 . S
H4970 C4980 0.889 1_565 S
H4971 C4983 0.929 1_565 S
H4972 C4986 0.930 . S
H4973 C4988 0.960 . S
H4974 C4988 0.966 . S
H4975 C4988 0.960 . S
C4976 H4968 0.929 . S
C4976 C4977 1.377 . S
C4976 C4978 1.384 . S
C4977 C4976 1.377 . S
C4977 C4983 1.390 . S
C4978 H4969 0.930 . S
C4978 C4976 1.384 . S
C4978 C4979 1.372 . S
C4979 C4978 1.372 . S
C4979 C4980 1.471 . S
C4979 C4984 1.490 . S
C4980 H4970 0.889 1_545 S
C4980 C4979 1.471 . S
C4980 C4983 1.359 . S
H4981 C4997 0.930 . S
H4982 C4998 0.931 . S
C4983 H4971 0.929 1_545 S
C4983 C4977 1.390 . S
C4983 C4980 1.359 . S
C4984 C4979 1.490 . S
C4984 C4986 1.395 . S
C4984 C4987 1.403 . S
H4985 C4991 0.930 1_565 S
C4986 H4972 0.930 . S
C4986 C4984 1.395 . S
C4986 C4989 1.403 . S
C4987 C4984 1.403 . S
C4987 C4988 1.524 1_545 S
C4987 C4991 1.400 . S
C4988 H4973 0.960 . S
C4988 H4974 0.966 . S
C4988 H4975 0.960 . S
C4988 C4987 1.524 1_565 S
C4989 C4986 1.403 . S
C4989 C4990 1.392 . S
C4989 C4993 1.495 . S
C4990 C4989 1.392 . S
C4990 C4991 1.385 . S
C4990 C4992 1.478 . S
C4991 H4985 0.930 1_545 S
C4991 C4987 1.400 . S
C4991 C4990 1.385 . S
C4992 C4990 1.478 . S
C4992 C4994 1.381 . S
C4992 C4998 1.383 1_545 S
C4993 C4989 1.495 . S
C4993 H4999 0.959 . S
C4993 H5000 0.961 . S
C4993 H5001 0.960 . S
C4994 C4992 1.381 . S
C4994 C4995 1.394 . S
C4994 H5002 0.930 . S
C4995 C4994 1.394 . S
C4995 C4996 1.383 . S
C4995 H5003 0.929 . S
C4996 C4995 1.383 . S
C4996 C4997 1.377 1_545 S
C4997 H4981 0.930 . S
C4997 C4996 1.377 1_565 S
C4997 C4998 1.379 . S
C4998 H4982 0.931 . S
C4998 C4992 1.383 1_565 S
C4998 C4997 1.379 . S
H4999 C4993 0.959 . S
H5000 C4993 0.961 . S
H5001 C4993 0.960 . S
H5002 C4994 0.930 . S
H5003 C4995 0.929 . S
C2421 C49 1.517 . S
C2440 C2020 1.545 . S
C2457 C137 1.602 . S
C2476 C2066 1.596 . S
C2512 C2098 1.564 . S
C2493 C205 1.539 . S
C2529 C196 1.513 . S
C2548 C2151 1.546 . S
C2565 C57 1.537 . S
C2584 C2197 1.577 . S
C2601 C145 1.602 . S
C2620 C2236 1.601 . S
C2637 C313 1.518 . S
C2656 C2190 1.546 . S
C2692 C2243 1.611 . S
C2673 C401 1.604 . S
C2728 C2144 1.574 . S
C2709 C489 1.544 . S
C2745 C469 1.514 . S
C2764 C2105 1.543 . S
C2800 C1999 1.572 . S
C2781 C293 1.540 . S
C2817 C381 1.599 . S
C2836 C2045 1.594 . S
C2853 C577 1.694 . S
C2872 C2275 1.693 . S
C2889 C645 1.662 . S
C2908 C2342 1.659 . S
C2944 C2388 1.599 . S
C2925 C733 1.617 . S
C2961 C724 1.573 . S
C2980 C1599 1.575 . S
C2997 C585 1.669 . S
C3016 C1645 1.658 . S
C3033 C636 1.670 . S
C3052 C1691 1.653 . S
C3069 C841 1.574 . S
C3088 C1638 1.562 . S
C3105 C937 1.675 . S
C3124 C1684 1.653 . S
C3160 C1592 1.665 . S
C3141 C1025 1.673 . S
C3196 C2367 1.694 . S
C3177 C988 1.698 . S
C3232 C2296 1.612 . S
C3213 C821 1.614 . S
C3268 C2321 1.643 . S
C3249 C900 1.667 . S
C3285 C1105 1.574 . S
C3304 C1723 1.576 . S
C3321 C1193 1.670 . S
C3340 C1776 1.661 . S
C3357 C1281 1.667 . S
C3376 C1822 1.673 . S
C3393 C1289 1.693 . S
C3412 C1868 1.699 . S
C3448 C1921 1.618 . S
C3429 C1113 1.614 . S
C3484 C1967 1.637 . S
C3465 C1201 1.665 . S
C3520 C1914 1.699 . S
C3501 C1369 1.698 . S
C3556 C1960 1.663 . S
C3537 C1457 1.670 . S
C3573 C1553 1.614 . S
C3592 C1875 1.610 . S
C3628 C1829 1.572 . S
C3609 C1516 1.570 . S
C3645 C1349 1.671 . S
C3664 C1744 1.666 . S
C3700 C1783 1.677 . S
C3681 C1437 1.672 . S
C3736 C1606 1.525 . S
C3717 C29 1.523 . S
C3753 C117 1.403 . S
C3772 C1652 1.395 . S
C3808 C1698 1.540 . S
C3789 C225 1.563 . S
C3844 C1730 1.504 . S
C3825 C233 1.518 . S
C3880 C1769 1.557 . S
C3861 C20 1.562 . S
C3916 C1815 1.391 . S
C3897 C108 1.402 . S
C3933 C321 1.528 . S
C3952 C1836 1.512 . S
C3969 C409 1.400 . S
C3988 C1737 1.358 . S
C4005 C497 1.565 . S
C4024 C1790 1.554 . S
C4041 C460 1.533 . S
C4060 C1631 1.554 . S
C4096 C1677 1.544 . S
C4077 C284 1.557 . S
C4113 C372 1.406 . S
C4132 C1585 1.407 . S
C4168 C1861 1.356 . S
C4149 C557 1.406 . S
C4185 C665 1.557 . S
C4204 C1928 1.554 . S
C4221 C753 1.548 . S
C4240 C1974 1.524 . S
C4276 C2013 1.071 . S
C4257 C761 1.068 . S
C4293 C548 1.400 . S
C4312 C2059 1.375 . S
C4329 C673 1.079 . S
C4348 C2091 1.075 . S
C4365 C849 1.068 . S
C4384 C2112 1.071 . S
C4401 C929 1.089 . S
C4420 C2006 1.079 . S
C4456 C2052 1.399 . S
C4437 C1017 1.409 . S
C4473 C997 1.416 . S
C4492 C1907 1.386 . S
C4509 C812 1.547 . S
C4528 C1953 1.536 . S
C4564 C1882 1.545 . S
C4545 C909 1.562 . S
C4600 C2158 1.076 . S
C4581 C1085 1.067 . S
C4617 C1173 1.078 . S
C4636 C2204 1.089 . S
C4653 C1261 1.398 . S
C4672 C2229 1.396 . S
C4708 C2282 1.389 . S
C4689 C1252 1.408 . S
C4744 C2335 1.540 . S
C4725 C1076 1.546 . S
C4761 C1164 1.557 . S
C4780 C2381 1.529 . S
C4797 C1377 1.417 . S
C4816 C2374 1.392 . S
C4833 C1465 1.562 . S
C4852 C2289 1.545 . S
C4888 C2328 1.507 . S
C4869 C1545 1.543 . S
C4924 C2183 1.076 . S
C4905 C1525 1.064 . S
C4960 C2250 1.399 . S
C4941 C1340 1.411 . S
C4977 C1428 1.086 . S
C4996 C2137 1.097 . S
