# Generated by pormake.
# Topology bpr, (3,3)-cn, num edge types: 1
# Building blocks:
#     Node 0, Type 0, BuildingBlock: WUSLED_clean_sbu_0, # of connection points: 3
#     Node 1, Type 0, BuildingBlock: WUSLED_clean_sbu_0, # of connection points: 3
#     Node 2, Type 0, BuildingBlock: WUSLED_clean_sbu_0, # of connection points: 3
#     Node 3, Type 0, BuildingBlock: WUSLED_clean_sbu_0, # of connection points: 3
#     Node 4, Type 0, BuildingBlock: WUSLED_clean_sbu_0, # of connection points: 3
#     Node 5, Type 0, BuildingBlock: WUSLED_clean_sbu_0, # of connection points: 3
#     Node 6, Type 0, BuildingBlock: WUSLED_clean_sbu_0, # of connection points: 3
#     Node 7, Type 0, BuildingBlock: WUSLED_clean_sbu_0, # of connection points: 3
#     Node 8, Type 0, BuildingBlock: WUSLED_clean_sbu_0, # of connection points: 3
#     Node 9, Type 0, BuildingBlock: WUSLED_clean_sbu_0, # of connection points: 3
#     Node 10, Type 0, BuildingBlock: WUSLED_clean_sbu_0, # of connection points: 3
#     Node 11, Type 0, BuildingBlock: WUSLED_clean_sbu_0, # of connection points: 3
#     Node 12, Type 0, BuildingBlock: WUSLED_clean_sbu_0, # of connection points: 3
#     Node 13, Type 0, BuildingBlock: WUSLED_clean_sbu_0, # of connection points: 3
#     Node 14, Type 0, BuildingBlock: WUSLED_clean_sbu_0, # of connection points: 3
#     Node 15, Type 0, BuildingBlock: WUSLED_clean_sbu_0, # of connection points: 3
#     Node 16, Type 0, BuildingBlock: WUSLED_clean_sbu_0, # of connection points: 3
#     Node 17, Type 0, BuildingBlock: WUSLED_clean_sbu_0, # of connection points: 3
#     Node 18, Type 0, BuildingBlock: WUSLED_clean_sbu_0, # of connection points: 3
#     Node 19, Type 0, BuildingBlock: WUSLED_clean_sbu_0, # of connection points: 3
#     Node 20, Type 0, BuildingBlock: WUSLED_clean_sbu_0, # of connection points: 3
#     Node 21, Type 0, BuildingBlock: WUSLED_clean_sbu_0, # of connection points: 3
#     Node 22, Type 0, BuildingBlock: WUSLED_clean_sbu_0, # of connection points: 3
#     Node 23, Type 0, BuildingBlock: WUSLED_clean_sbu_0, # of connection points: 3
#     Node 24, Type 0, BuildingBlock: WUSLED_clean_sbu_0, # of connection points: 3
#     Node 25, Type 0, BuildingBlock: WUSLED_clean_sbu_0, # of connection points: 3
#     Node 26, Type 0, BuildingBlock: WUSLED_clean_sbu_0, # of connection points: 3
#     Node 27, Type 0, BuildingBlock: WUSLED_clean_sbu_0, # of connection points: 3
#     Node 28, Type 0, BuildingBlock: WUSLED_clean_sbu_0, # of connection points: 3
#     Node 29, Type 0, BuildingBlock: WUSLED_clean_sbu_0, # of connection points: 3
#     Node 30, Type 0, BuildingBlock: WUSLED_clean_sbu_0, # of connection points: 3
#     Node 31, Type 0, BuildingBlock: WUSLED_clean_sbu_0, # of connection points: 3
#     Node 32, Type 0, BuildingBlock: WUSLED_clean_sbu_0, # of connection points: 3
#     Node 33, Type 0, BuildingBlock: WUSLED_clean_sbu_0, # of connection points: 3
#     Node 34, Type 0, BuildingBlock: WUSLED_clean_sbu_0, # of connection points: 3
#     Node 35, Type 0, BuildingBlock: WUSLED_clean_sbu_0, # of connection points: 3
#     Node 36, Type 0, BuildingBlock: WUSLED_clean_sbu_0, # of connection points: 3
#     Node 37, Type 0, BuildingBlock: WUSLED_clean_sbu_0, # of connection points: 3
#     Node 38, Type 0, BuildingBlock: WUSLED_clean_sbu_0, # of connection points: 3
#     Node 39, Type 0, BuildingBlock: WUSLED_clean_sbu_0, # of connection points: 3
#     Node 40, Type 0, BuildingBlock: WUSLED_clean_sbu_0, # of connection points: 3
#     Node 41, Type 0, BuildingBlock: WUSLED_clean_sbu_0, # of connection points: 3
#     Node 42, Type 0, BuildingBlock: WUSLED_clean_sbu_0, # of connection points: 3
#     Node 43, Type 0, BuildingBlock: WUSLED_clean_sbu_0, # of connection points: 3
#     Node 44, Type 0, BuildingBlock: WUSLED_clean_sbu_0, # of connection points: 3
#     Node 45, Type 0, BuildingBlock: WUSLED_clean_sbu_0, # of connection points: 3
#     Node 46, Type 0, BuildingBlock: WUSLED_clean_sbu_0, # of connection points: 3
#     Node 47, Type 0, BuildingBlock: WUSLED_clean_sbu_0, # of connection points: 3
#     Node 48, Type 1, BuildingBlock: QEWDON_clean_linker_0, # of connection points: 3
#     Node 49, Type 1, BuildingBlock: QEWDON_clean_linker_0, # of connection points: 3
#     Node 50, Type 1, BuildingBlock: QEWDON_clean_linker_0, # of connection points: 3
#     Node 51, Type 1, BuildingBlock: QEWDON_clean_linker_0, # of connection points: 3
#     Node 52, Type 1, BuildingBlock: QEWDON_clean_linker_0, # of connection points: 3
#     Node 53, Type 1, BuildingBlock: QEWDON_clean_linker_0, # of connection points: 3
#     Node 54, Type 1, BuildingBlock: QEWDON_clean_linker_0, # of connection points: 3
#     Node 55, Type 1, BuildingBlock: QEWDON_clean_linker_0, # of connection points: 3
#     Node 56, Type 1, BuildingBlock: QEWDON_clean_linker_0, # of connection points: 3
#     Node 57, Type 1, BuildingBlock: QEWDON_clean_linker_0, # of connection points: 3
#     Node 58, Type 1, BuildingBlock: QEWDON_clean_linker_0, # of connection points: 3
#     Node 59, Type 1, BuildingBlock: QEWDON_clean_linker_0, # of connection points: 3
#     Node 60, Type 1, BuildingBlock: QEWDON_clean_linker_0, # of connection points: 3
#     Node 61, Type 1, BuildingBlock: QEWDON_clean_linker_0, # of connection points: 3
#     Node 62, Type 1, BuildingBlock: QEWDON_clean_linker_0, # of connection points: 3
#     Node 63, Type 1, BuildingBlock: QEWDON_clean_linker_0, # of connection points: 3
#     Node 64, Type 1, BuildingBlock: QEWDON_clean_linker_0, # of connection points: 3
#     Node 65, Type 1, BuildingBlock: QEWDON_clean_linker_0, # of connection points: 3
#     Node 66, Type 1, BuildingBlock: QEWDON_clean_linker_0, # of connection points: 3
#     Node 67, Type 1, BuildingBlock: QEWDON_clean_linker_0, # of connection points: 3
#     Node 68, Type 1, BuildingBlock: QEWDON_clean_linker_0, # of connection points: 3
#     Node 69, Type 1, BuildingBlock: QEWDON_clean_linker_0, # of connection points: 3
#     Node 70, Type 1, BuildingBlock: QEWDON_clean_linker_0, # of connection points: 3
#     Node 71, Type 1, BuildingBlock: QEWDON_clean_linker_0, # of connection points: 3
#     Node 72, Type 1, BuildingBlock: QEWDON_clean_linker_0, # of connection points: 3
#     Node 73, Type 1, BuildingBlock: QEWDON_clean_linker_0, # of connection points: 3
#     Node 74, Type 1, BuildingBlock: QEWDON_clean_linker_0, # of connection points: 3
#     Node 75, Type 1, BuildingBlock: QEWDON_clean_linker_0, # of connection points: 3
#     Node 76, Type 1, BuildingBlock: QEWDON_clean_linker_0, # of connection points: 3
#     Node 77, Type 1, BuildingBlock: QEWDON_clean_linker_0, # of connection points: 3
#     Node 78, Type 1, BuildingBlock: QEWDON_clean_linker_0, # of connection points: 3
#     Node 79, Type 1, BuildingBlock: QEWDON_clean_linker_0, # of connection points: 3
#     Node 80, Type 1, BuildingBlock: QEWDON_clean_linker_0, # of connection points: 3
#     Node 81, Type 1, BuildingBlock: QEWDON_clean_linker_0, # of connection points: 3
#     Node 82, Type 1, BuildingBlock: QEWDON_clean_linker_0, # of connection points: 3
#     Node 83, Type 1, BuildingBlock: QEWDON_clean_linker_0, # of connection points: 3
#     Node 84, Type 1, BuildingBlock: QEWDON_clean_linker_0, # of connection points: 3
#     Node 85, Type 1, BuildingBlock: QEWDON_clean_linker_0, # of connection points: 3
#     Node 86, Type 1, BuildingBlock: QEWDON_clean_linker_0, # of connection points: 3
#     Node 87, Type 1, BuildingBlock: QEWDON_clean_linker_0, # of connection points: 3
#     Node 88, Type 1, BuildingBlock: QEWDON_clean_linker_0, # of connection points: 3
#     Node 89, Type 1, BuildingBlock: QEWDON_clean_linker_0, # of connection points: 3
#     Node 90, Type 1, BuildingBlock: QEWDON_clean_linker_0, # of connection points: 3
#     Node 91, Type 1, BuildingBlock: QEWDON_clean_linker_0, # of connection points: 3
#     Node 92, Type 1, BuildingBlock: QEWDON_clean_linker_0, # of connection points: 3
#     Node 93, Type 1, BuildingBlock: QEWDON_clean_linker_0, # of connection points: 3
#     Node 94, Type 1, BuildingBlock: QEWDON_clean_linker_0, # of connection points: 3
#     Node 95, Type 1, BuildingBlock: QEWDON_clean_linker_0, # of connection points: 3
#     Edge 96, Type (0, 1), BuildingBlock: UVAHIK_clean_linker_0, # of connection points: 2
#     Edge 97, Type (0, 1), BuildingBlock: UVAHIK_clean_linker_0, # of connection points: 2
#     Edge 98, Type (0, 1), BuildingBlock: UVAHIK_clean_linker_0, # of connection points: 2
#     Edge 99, Type (0, 1), BuildingBlock: UVAHIK_clean_linker_0, # of connection points: 2
#     Edge 100, Type (0, 1), BuildingBlock: UVAHIK_clean_linker_0, # of connection points: 2
#     Edge 101, Type (0, 1), BuildingBlock: UVAHIK_clean_linker_0, # of connection points: 2
#     Edge 102, Type (0, 1), BuildingBlock: UVAHIK_clean_linker_0, # of connection points: 2
#     Edge 103, Type (0, 1), BuildingBlock: UVAHIK_clean_linker_0, # of connection points: 2
#     Edge 104, Type (0, 1), BuildingBlock: UVAHIK_clean_linker_0, # of connection points: 2
#     Edge 105, Type (0, 1), BuildingBlock: UVAHIK_clean_linker_0, # of connection points: 2
#     Edge 106, Type (0, 1), BuildingBlock: UVAHIK_clean_linker_0, # of connection points: 2
#     Edge 107, Type (0, 1), BuildingBlock: UVAHIK_clean_linker_0, # of connection points: 2
#     Edge 108, Type (0, 1), BuildingBlock: UVAHIK_clean_linker_0, # of connection points: 2
#     Edge 109, Type (0, 1), BuildingBlock: UVAHIK_clean_linker_0, # of connection points: 2
#     Edge 110, Type (0, 1), BuildingBlock: UVAHIK_clean_linker_0, # of connection points: 2
#     Edge 111, Type (0, 1), BuildingBlock: UVAHIK_clean_linker_0, # of connection points: 2
#     Edge 112, Type (0, 1), BuildingBlock: UVAHIK_clean_linker_0, # of connection points: 2
#     Edge 113, Type (0, 1), BuildingBlock: UVAHIK_clean_linker_0, # of connection points: 2
#     Edge 114, Type (0, 1), BuildingBlock: UVAHIK_clean_linker_0, # of connection points: 2
#     Edge 115, Type (0, 1), BuildingBlock: UVAHIK_clean_linker_0, # of connection points: 2
#     Edge 116, Type (0, 1), BuildingBlock: UVAHIK_clean_linker_0, # of connection points: 2
#     Edge 117, Type (0, 1), BuildingBlock: UVAHIK_clean_linker_0, # of connection points: 2
#     Edge 118, Type (0, 1), BuildingBlock: UVAHIK_clean_linker_0, # of connection points: 2
#     Edge 119, Type (0, 1), BuildingBlock: UVAHIK_clean_linker_0, # of connection points: 2
#     Edge 120, Type (0, 1), BuildingBlock: UVAHIK_clean_linker_0, # of connection points: 2
#     Edge 121, Type (0, 1), BuildingBlock: UVAHIK_clean_linker_0, # of connection points: 2
#     Edge 122, Type (0, 1), BuildingBlock: UVAHIK_clean_linker_0, # of connection points: 2
#     Edge 123, Type (0, 1), BuildingBlock: UVAHIK_clean_linker_0, # of connection points: 2
#     Edge 124, Type (0, 1), BuildingBlock: UVAHIK_clean_linker_0, # of connection points: 2
#     Edge 125, Type (0, 1), BuildingBlock: UVAHIK_clean_linker_0, # of connection points: 2
#     Edge 126, Type (0, 1), BuildingBlock: UVAHIK_clean_linker_0, # of connection points: 2
#     Edge 127, Type (0, 1), BuildingBlock: UVAHIK_clean_linker_0, # of connection points: 2
#     Edge 128, Type (0, 1), BuildingBlock: UVAHIK_clean_linker_0, # of connection points: 2
#     Edge 129, Type (0, 1), BuildingBlock: UVAHIK_clean_linker_0, # of connection points: 2
#     Edge 130, Type (0, 1), BuildingBlock: UVAHIK_clean_linker_0, # of connection points: 2
#     Edge 131, Type (0, 1), BuildingBlock: UVAHIK_clean_linker_0, # of connection points: 2
#     Edge 132, Type (0, 1), BuildingBlock: UVAHIK_clean_linker_0, # of connection points: 2
#     Edge 133, Type (0, 1), BuildingBlock: UVAHIK_clean_linker_0, # of connection points: 2
#     Edge 134, Type (0, 1), BuildingBlock: UVAHIK_clean_linker_0, # of connection points: 2
#     Edge 135, Type (0, 1), BuildingBlock: UVAHIK_clean_linker_0, # of connection points: 2
#     Edge 136, Type (0, 1), BuildingBlock: UVAHIK_clean_linker_0, # of connection points: 2
#     Edge 137, Type (0, 1), BuildingBlock: UVAHIK_clean_linker_0, # of connection points: 2
#     Edge 138, Type (0, 1), BuildingBlock: UVAHIK_clean_linker_0, # of connection points: 2
#     Edge 139, Type (0, 1), BuildingBlock: UVAHIK_clean_linker_0, # of connection points: 2
#     Edge 140, Type (0, 1), BuildingBlock: UVAHIK_clean_linker_0, # of connection points: 2
#     Edge 141, Type (0, 1), BuildingBlock: UVAHIK_clean_linker_0, # of connection points: 2
#     Edge 142, Type (0, 1), BuildingBlock: UVAHIK_clean_linker_0, # of connection points: 2
#     Edge 143, Type (0, 1), BuildingBlock: UVAHIK_clean_linker_0, # of connection points: 2
#     Edge 144, Type (0, 1), BuildingBlock: UVAHIK_clean_linker_0, # of connection points: 2
#     Edge 145, Type (0, 1), BuildingBlock: UVAHIK_clean_linker_0, # of connection points: 2
#     Edge 146, Type (0, 1), BuildingBlock: UVAHIK_clean_linker_0, # of connection points: 2
#     Edge 147, Type (0, 1), BuildingBlock: UVAHIK_clean_linker_0, # of connection points: 2
#     Edge 148, Type (0, 1), BuildingBlock: UVAHIK_clean_linker_0, # of connection points: 2
#     Edge 149, Type (0, 1), BuildingBlock: UVAHIK_clean_linker_0, # of connection points: 2
#     Edge 150, Type (0, 1), BuildingBlock: UVAHIK_clean_linker_0, # of connection points: 2
#     Edge 151, Type (0, 1), BuildingBlock: UVAHIK_clean_linker_0, # of connection points: 2
#     Edge 152, Type (0, 1), BuildingBlock: UVAHIK_clean_linker_0, # of connection points: 2
#     Edge 153, Type (0, 1), BuildingBlock: UVAHIK_clean_linker_0, # of connection points: 2
#     Edge 154, Type (0, 1), BuildingBlock: UVAHIK_clean_linker_0, # of connection points: 2
#     Edge 155, Type (0, 1), BuildingBlock: UVAHIK_clean_linker_0, # of connection points: 2
#     Edge 156, Type (0, 1), BuildingBlock: UVAHIK_clean_linker_0, # of connection points: 2
#     Edge 157, Type (0, 1), BuildingBlock: UVAHIK_clean_linker_0, # of connection points: 2
#     Edge 158, Type (0, 1), BuildingBlock: UVAHIK_clean_linker_0, # of connection points: 2
#     Edge 159, Type (0, 1), BuildingBlock: UVAHIK_clean_linker_0, # of connection points: 2
#     Edge 160, Type (0, 1), BuildingBlock: UVAHIK_clean_linker_0, # of connection points: 2
#     Edge 161, Type (0, 1), BuildingBlock: UVAHIK_clean_linker_0, # of connection points: 2
#     Edge 162, Type (0, 1), BuildingBlock: UVAHIK_clean_linker_0, # of connection points: 2
#     Edge 163, Type (0, 1), BuildingBlock: UVAHIK_clean_linker_0, # of connection points: 2
#     Edge 164, Type (0, 1), BuildingBlock: UVAHIK_clean_linker_0, # of connection points: 2
#     Edge 165, Type (0, 1), BuildingBlock: UVAHIK_clean_linker_0, # of connection points: 2
#     Edge 166, Type (0, 1), BuildingBlock: UVAHIK_clean_linker_0, # of connection points: 2
#     Edge 167, Type (0, 1), BuildingBlock: UVAHIK_clean_linker_0, # of connection points: 2
#     Edge 168, Type (0, 1), BuildingBlock: UVAHIK_clean_linker_0, # of connection points: 2
#     Edge 169, Type (0, 1), BuildingBlock: UVAHIK_clean_linker_0, # of connection points: 2
#     Edge 170, Type (0, 1), BuildingBlock: UVAHIK_clean_linker_0, # of connection points: 2
#     Edge 171, Type (0, 1), BuildingBlock: UVAHIK_clean_linker_0, # of connection points: 2
#     Edge 172, Type (0, 1), BuildingBlock: UVAHIK_clean_linker_0, # of connection points: 2
#     Edge 173, Type (0, 1), BuildingBlock: UVAHIK_clean_linker_0, # of connection points: 2
#     Edge 174, Type (0, 1), BuildingBlock: UVAHIK_clean_linker_0, # of connection points: 2
#     Edge 175, Type (0, 1), BuildingBlock: UVAHIK_clean_linker_0, # of connection points: 2
#     Edge 176, Type (0, 1), BuildingBlock: UVAHIK_clean_linker_0, # of connection points: 2
#     Edge 177, Type (0, 1), BuildingBlock: UVAHIK_clean_linker_0, # of connection points: 2
#     Edge 178, Type (0, 1), BuildingBlock: UVAHIK_clean_linker_0, # of connection points: 2
#     Edge 179, Type (0, 1), BuildingBlock: UVAHIK_clean_linker_0, # of connection points: 2
#     Edge 180, Type (0, 1), BuildingBlock: UVAHIK_clean_linker_0, # of connection points: 2
#     Edge 181, Type (0, 1), BuildingBlock: UVAHIK_clean_linker_0, # of connection points: 2
#     Edge 182, Type (0, 1), BuildingBlock: UVAHIK_clean_linker_0, # of connection points: 2
#     Edge 183, Type (0, 1), BuildingBlock: UVAHIK_clean_linker_0, # of connection points: 2
#     Edge 184, Type (0, 1), BuildingBlock: UVAHIK_clean_linker_0, # of connection points: 2
#     Edge 185, Type (0, 1), BuildingBlock: UVAHIK_clean_linker_0, # of connection points: 2
#     Edge 186, Type (0, 1), BuildingBlock: UVAHIK_clean_linker_0, # of connection points: 2
#     Edge 187, Type (0, 1), BuildingBlock: UVAHIK_clean_linker_0, # of connection points: 2
#     Edge 188, Type (0, 1), BuildingBlock: UVAHIK_clean_linker_0, # of connection points: 2
#     Edge 189, Type (0, 1), BuildingBlock: UVAHIK_clean_linker_0, # of connection points: 2
#     Edge 190, Type (0, 1), BuildingBlock: UVAHIK_clean_linker_0, # of connection points: 2
#     Edge 191, Type (0, 1), BuildingBlock: UVAHIK_clean_linker_0, # of connection points: 2
#     Edge 192, Type (0, 1), BuildingBlock: UVAHIK_clean_linker_0, # of connection points: 2
#     Edge 193, Type (0, 1), BuildingBlock: UVAHIK_clean_linker_0, # of connection points: 2
#     Edge 194, Type (0, 1), BuildingBlock: UVAHIK_clean_linker_0, # of connection points: 2
#     Edge 195, Type (0, 1), BuildingBlock: UVAHIK_clean_linker_0, # of connection points: 2
#     Edge 196, Type (0, 1), BuildingBlock: UVAHIK_clean_linker_0, # of connection points: 2
#     Edge 197, Type (0, 1), BuildingBlock: UVAHIK_clean_linker_0, # of connection points: 2
#     Edge 198, Type (0, 1), BuildingBlock: UVAHIK_clean_linker_0, # of connection points: 2
#     Edge 199, Type (0, 1), BuildingBlock: UVAHIK_clean_linker_0, # of connection points: 2
#     Edge 200, Type (0, 1), BuildingBlock: UVAHIK_clean_linker_0, # of connection points: 2
#     Edge 201, Type (0, 1), BuildingBlock: UVAHIK_clean_linker_0, # of connection points: 2
#     Edge 202, Type (0, 1), BuildingBlock: UVAHIK_clean_linker_0, # of connection points: 2
#     Edge 203, Type (0, 1), BuildingBlock: UVAHIK_clean_linker_0, # of connection points: 2
#     Edge 204, Type (0, 1), BuildingBlock: UVAHIK_clean_linker_0, # of connection points: 2
#     Edge 205, Type (0, 1), BuildingBlock: UVAHIK_clean_linker_0, # of connection points: 2
#     Edge 206, Type (0, 1), BuildingBlock: UVAHIK_clean_linker_0, # of connection points: 2
#     Edge 207, Type (0, 1), BuildingBlock: UVAHIK_clean_linker_0, # of connection points: 2
#     Edge 208, Type (0, 1), BuildingBlock: UVAHIK_clean_linker_0, # of connection points: 2
#     Edge 209, Type (0, 1), BuildingBlock: UVAHIK_clean_linker_0, # of connection points: 2
#     Edge 210, Type (0, 1), BuildingBlock: UVAHIK_clean_linker_0, # of connection points: 2
#     Edge 211, Type (0, 1), BuildingBlock: UVAHIK_clean_linker_0, # of connection points: 2
#     Edge 212, Type (0, 1), BuildingBlock: UVAHIK_clean_linker_0, # of connection points: 2
#     Edge 213, Type (0, 1), BuildingBlock: UVAHIK_clean_linker_0, # of connection points: 2
#     Edge 214, Type (0, 1), BuildingBlock: UVAHIK_clean_linker_0, # of connection points: 2
#     Edge 215, Type (0, 1), BuildingBlock: UVAHIK_clean_linker_0, # of connection points: 2
#     Edge 216, Type (0, 1), BuildingBlock: UVAHIK_clean_linker_0, # of connection points: 2
#     Edge 217, Type (0, 1), BuildingBlock: UVAHIK_clean_linker_0, # of connection points: 2
#     Edge 218, Type (0, 1), BuildingBlock: UVAHIK_clean_linker_0, # of connection points: 2
#     Edge 219, Type (0, 1), BuildingBlock: UVAHIK_clean_linker_0, # of connection points: 2
#     Edge 220, Type (0, 1), BuildingBlock: UVAHIK_clean_linker_0, # of connection points: 2
#     Edge 221, Type (0, 1), BuildingBlock: UVAHIK_clean_linker_0, # of connection points: 2
#     Edge 222, Type (0, 1), BuildingBlock: UVAHIK_clean_linker_0, # of connection points: 2
#     Edge 223, Type (0, 1), BuildingBlock: UVAHIK_clean_linker_0, # of connection points: 2
#     Edge 224, Type (0, 1), BuildingBlock: UVAHIK_clean_linker_0, # of connection points: 2
#     Edge 225, Type (0, 1), BuildingBlock: UVAHIK_clean_linker_0, # of connection points: 2
#     Edge 226, Type (0, 1), BuildingBlock: UVAHIK_clean_linker_0, # of connection points: 2
#     Edge 227, Type (0, 1), BuildingBlock: UVAHIK_clean_linker_0, # of connection points: 2
#     Edge 228, Type (0, 1), BuildingBlock: UVAHIK_clean_linker_0, # of connection points: 2
#     Edge 229, Type (0, 1), BuildingBlock: UVAHIK_clean_linker_0, # of connection points: 2
#     Edge 230, Type (0, 1), BuildingBlock: UVAHIK_clean_linker_0, # of connection points: 2
#     Edge 231, Type (0, 1), BuildingBlock: UVAHIK_clean_linker_0, # of connection points: 2
#     Edge 232, Type (0, 1), BuildingBlock: UVAHIK_clean_linker_0, # of connection points: 2
#     Edge 233, Type (0, 1), BuildingBlock: UVAHIK_clean_linker_0, # of connection points: 2
#     Edge 234, Type (0, 1), BuildingBlock: UVAHIK_clean_linker_0, # of connection points: 2
#     Edge 235, Type (0, 1), BuildingBlock: UVAHIK_clean_linker_0, # of connection points: 2
#     Edge 236, Type (0, 1), BuildingBlock: UVAHIK_clean_linker_0, # of connection points: 2
#     Edge 237, Type (0, 1), BuildingBlock: UVAHIK_clean_linker_0, # of connection points: 2
#     Edge 238, Type (0, 1), BuildingBlock: UVAHIK_clean_linker_0, # of connection points: 2
#     Edge 239, Type (0, 1), BuildingBlock: UVAHIK_clean_linker_0, # of connection points: 2
# Relax obj value: 0.038
# Max RMSD: 0.188
# Mean RMSD: 0.071
data_MOF--net-bpr--node1-WUSLED_clean_sbu_0--node2-QEWDON_clean_linker_0--edge1-UVAHIK_clean_linker_0
_symmetry_space_group_name_H-M    P1
_symmetry_Int_Tables_number       1
_symmetry_cell_setting            triclinic
loop_
_symmetry_equiv_pos_as_xyz
'x, y, z'
_cell_length_a     130.34981
_cell_length_b     131.35682
_cell_length_c     138.18836
_cell_angle_alpha  86.74838
_cell_angle_beta   95.046833
_cell_angle_gamma 112.68745
loop_
_atom_site_label
_atom_site_type_symbol
_atom_site_fract_x
_atom_site_fract_y
_atom_site_fract_z
_atom_type_partial_charge
C0 C 0.99469 0.41039 0.25081 0.0
C1 C 0.99491 0.41001 0.26099 0.0
C2 C 0.98223 0.41969 0.26043 0.0
C3 C 0.98876 0.41462 0.26575 0.0
C4 C 0.98198 0.41999 0.2502 0.0
C5 C 0.98819 0.41539 0.24544 0.0
U6 U 0.01198 0.39315 0.25301 0.0
O7 O 0.01252 0.37996 0.24418 0.0
O8 O 0.02761 0.39488 0.24688 0.0
C9 C 0.02299 0.38549 0.24231 0.0
C10 C 1.00115 0.4054 0.24591 0.0
C11 C 0.02592 0.38526 0.23221 0.0
C12 C 0.03814 0.39334 0.21906 0.0
C13 C 0.0343 0.39433 0.22798 0.0
C14 C 0.02512 0.37434 0.21829 0.0
C15 C 0.03374 0.38327 0.21419 0.0
C16 C 0.0213 0.37532 0.22719 0.0
C17 C 0.01599 0.38236 0.27896 0.0
C18 C 0.02672 0.37101 0.28342 0.0
C19 C 0.01815 0.37678 0.29579 0.0
C20 C 0.01385 0.38234 0.2887 0.0
C21 C 0.02471 0.37111 0.29326 0.0
C22 C 0.02241 0.37662 0.27632 0.0
C23 C 0.01153 0.38851 0.27174 0.0
O24 O 0.01192 0.40943 0.24836 0.0
O25 O 0.99683 0.39456 0.24577 0.0
O26 O 0.0039 0.38254 0.26527 0.0
O27 O 0.01893 0.39747 0.268 0.0
H28 H 0.9998 0.40609 0.26527 0.0
H29 H 0.989 0.41405 0.27361 0.0
H30 H 0.9771 0.42389 0.2459 0.0
H31 H 0.98791 0.41574 0.23757 0.0
H32 H 0.04471 0.40042 0.21607 0.0
H33 H 0.03813 0.40209 0.23169 0.0
H34 H 0.02165 0.3664 0.21484 0.0
H35 H 0.01499 0.36812 0.23033 0.0
H36 H 0.0318 0.36679 0.28126 0.0
H37 H 0.01628 0.37686 0.30326 0.0
H38 H 0.00886 0.38669 0.29084 0.0
H39 H 0.02414 0.37657 0.2688 0.0
C40 C 0.92825 0.82723 0.54151 0.0
C41 C 0.93396 0.82904 0.55075 0.0
C42 C 0.92857 0.80923 0.55361 0.0
C43 C 0.93419 0.82016 0.55669 0.0
C44 C 0.92312 0.80747 0.54422 0.0
C45 C 0.92297 0.81639 0.53824 0.0
U46 U 0.92318 0.85361 0.54057 0.0
O47 O 0.93042 0.86929 0.53236 0.0
O48 O 0.91238 0.85961 0.53078 0.0
C49 C 0.92078 0.86831 0.52786 0.0
C50 C 0.92694 0.83646 0.53563 0.0
C51 C 0.92076 0.8706 0.51733 0.0
C52 C 0.92202 0.86597 0.5008 0.0
C53 C 0.9225 0.86368 0.51084 0.0
C54 C 0.9182 0.88213 0.50375 0.0
C55 C 0.91973 0.87516 0.49715 0.0
C56 C 0.9187 0.87986 0.51373 0.0
C57 C 0.91893 0.86328 0.56505 0.0
C58 C 0.91417 0.87922 0.56678 0.0
C59 C 0.91562 0.86791 0.5809 0.0
C60 C 0.91835 0.86113 0.57506 0.0
C61 C 0.9134 0.87698 0.57683 0.0
C62 C 0.91689 0.87239 0.56092 0.0
C63 C 0.92132 0.85569 0.55905 0.0
O64 O 0.9169 0.83664 0.53523 0.0
O65 O 0.93491 0.84625 0.53703 0.0
O66 O 0.93089 0.85973 0.55501 0.0
O67 O 0.91297 0.84972 0.55313 0.0
H68 H 0.93804 0.83732 0.5535 0.0
H69 H 0.93864 0.82186 0.56379 0.0
H70 H 0.91859 0.79919 0.54164 0.0
H71 H 0.91843 0.8148 0.53117 0.0
H72 H 0.92319 0.86041 0.4959 0.0
H73 H 0.92409 0.85648 0.51352 0.0
H74 H 0.91662 0.88938 0.50121 0.0
H75 H 0.91739 0.88531 0.51865 0.0
H76 H 0.91245 0.88609 0.56341 0.0
H77 H 0.9153 0.86607 0.58864 0.0
H78 H 0.91993 0.85414 0.57836 0.0
H79 H 0.91728 0.87413 0.55317 0.0
C80 C 0.46762 0.61054 0.77036 0.0
C81 C 0.46488 0.6199 0.76948 0.0
C82 C 0.45694 0.61506 0.75296 0.0
C83 C 0.45964 0.62217 0.76085 0.0
C84 C 0.45964 0.60565 0.75389 0.0
C85 C 0.46497 0.60342 0.76253 0.0
U86 U 0.47422 0.61496 0.79723 0.0
O87 O 0.47358 0.60334 0.80953 0.0
O88 O 0.48928 0.61719 0.80677 0.0
C89 C 0.4843 0.60819 0.81197 0.0
C90 C 0.47282 0.60801 0.77957 0.0
C91 C 0.49042 0.60087 0.81403 0.0
C92 C 0.50253 0.59209 0.80933 0.0
C93 C 0.49618 0.5985 0.80691 0.0
C94 C 0.49717 0.59014 0.82589 0.0
C95 C 0.50317 0.58791 0.81888 0.0
C96 C 0.49087 0.59655 0.82348 0.0
C97 C 0.46388 0.63447 0.80886 0.0
C98 C 0.46602 0.63686 0.82632 0.0
C99 C 0.45711 0.64701 0.8159 0.0
C100 C 0.4587 0.64208 0.80776 0.0
C101 C 0.46066 0.64438 0.82529 0.0
C102 C 0.46762 0.63195 0.81816 0.0
C103 C 0.46506 0.62901 0.80029 0.0
O104 O 0.48151 0.61626 0.78323 0.0
O105 O 0.46579 0.60256 0.78607 0.0
O106 O 0.45953 0.61827 0.80022 0.0
O107 O 0.47527 0.63206 0.79761 0.0
H108 H 0.46673 0.62542 0.7755 0.0
H109 H 0.4575 0.62938 0.76043 0.0
H110 H 0.45773 0.60006 0.74792 0.0
H111 H 0.46696 0.59612 0.76311 0.0
H112 H 0.50697 0.59044 0.80374 0.0
H113 H 0.49589 0.60174 0.79955 0.0
H114 H 0.4976 0.58721 0.83335 0.0
H115 H 0.48651 0.59833 0.82907 0.0
H116 H 0.46896 0.63476 0.83342 0.0
H117 H 0.45284 0.65265 0.81487 0.0
H118 H 0.45574 0.64409 0.80062 0.0
H119 H 0.47167 0.62611 0.81912 0.0
C120 C 0.57837 0.18432 0.05383 0.0
C121 C 0.57581 0.18306 0.0636 0.0
C122 C 0.57837 0.20243 0.06394 0.0
C123 C 0.57576 0.192 0.06858 0.0
C124 C 0.58083 0.20361 0.05412 0.0
C125 C 0.58082 0.19462 0.04912 0.0
U126 U 0.58178 0.15699 0.05476 0.0
O127 O 0.573 0.14179 0.04657 0.0
O128 O 0.5911 0.15054 0.04597 0.0
C129 C 0.58207 0.14234 0.04273 0.0
C130 C 0.57892 0.17505 0.04868 0.0
C131 C 0.58093 0.14042 0.03225 0.0
C132 C 0.58047 0.14665 0.01537 0.0
C133 C 0.58168 0.14886 0.0253 0.0
C134 C 0.57774 0.1276 0.01929 0.0
C135 C 0.57842 0.13597 0.01226 0.0
C136 C 0.57898 0.12982 0.02917 0.0
C137 C 0.58573 0.14424 0.07963 0.0
C138 C 0.59439 0.13091 0.08341 0.0
C139 C 0.5807 0.13188 0.09372 0.0
C140 C 0.57955 0.14042 0.08781 0.0
C141 C 0.58814 0.12704 0.09159 0.0
C142 C 0.59314 0.13939 0.07744 0.0
C143 C 0.5842 0.15316 0.07348 0.0
O144 O 0.58872 0.17427 0.04948 0.0
O145 O 0.57061 0.16551 0.04982 0.0
O146 O 0.57441 0.15052 0.06867 0.0
O147 O 0.59254 0.15914 0.06828 0.0
H148 H 0.57394 0.17517 0.06739 0.0
H149 H 0.57367 0.19073 0.07609 0.0
H150 H 0.58305 0.21153 0.05034 0.0
H151 H 0.5829 0.19577 0.0416 0.0
H152 H 0.58095 0.15324 0.01013 0.0
H153 H 0.58314 0.15709 0.02757 0.0
H154 H 0.57634 0.11934 0.01715 0.0
H155 H 0.57841 0.12322 0.03444 0.0
H156 H 0.60011 0.12727 0.08155 0.0
H157 H 0.57587 0.12916 0.10003 0.0
H158 H 0.57379 0.14404 0.08963 0.0
H159 H 0.59794 0.14212 0.07111 0.0
C160 C 0.02017 0.62326 0.22012 0.0
C161 C 0.02084 0.62523 0.21007 0.0
C162 C 1.00089 0.62112 0.208 0.0
C163 C 0.0113 0.6242 0.20406 0.0
C164 C 1.0003 0.61922 0.21811 0.0
C165 C 0.00986 0.6203 0.22411 0.0
U166 U 0.05014 0.62569 0.22279 0.0
O167 O 0.06424 0.63512 0.23285 0.0
O168 O 0.05852 0.61707 0.23264 0.0
C169 C 0.06522 0.6262 0.23688 0.0
C170 C 0.0301 0.62393 0.22641 0.0
C171 C 0.06614 0.62569 0.24755 0.0
C172 C 0.05924 0.62637 0.26319 0.0
C173 C 0.05815 0.62697 0.25301 0.0
C174 C 0.07627 0.62319 0.26247 0.0
C175 C 0.0683 0.62441 0.26803 0.0
C176 C 0.07519 0.62382 0.25234 0.0
C177 C 0.06504 0.62753 0.1998 0.0
C178 C 0.0826 0.6251 0.19979 0.0
C179 C 0.07539 0.63217 0.18534 0.0
C180 C 0.06613 0.63144 0.19016 0.0
C181 C 0.08372 0.62895 0.19007 0.0
C182 C 0.07336 0.62442 0.20463 0.0
C183 C 0.05517 0.62672 0.20469 0.0
O184 O 0.03294 0.61539 0.2261 0.0
O185 O 0.03863 0.63343 0.22606 0.0
O186 O 0.05623 0.63546 0.20951 0.0
O187 O 0.0502 0.61738 0.20945 0.0
H188 H 0.02873 0.62744 0.20686 0.0
H189 H 0.01202 0.62556 0.19631 0.0
H190 H 0.99244 0.61695 0.22138 0.0
H191 H 0.0092 0.61873 0.23186 0.0
H192 H 0.05292 0.62725 0.26726 0.0
H193 H 0.05107 0.62838 0.24941 0.0
H194 H 0.08343 0.62184 0.26596 0.0
H195 H 0.08145 0.62285 0.24822 0.0
H196 H 0.08879 0.62246 0.20364 0.0
H197 H 0.07606 0.63538 0.17793 0.0
H198 H 0.05982 0.63394 0.18635 0.0
H199 H 0.07266 0.62141 0.2121 0.0
C200 C 0.65513 0.76121 0.49352 0.0
C201 C 0.65273 0.75949 0.48351 0.0
C202 C 0.66392 0.74823 0.48394 0.0
C203 C 0.65704 0.75303 0.47877 0.0
C204 C 0.66631 0.75003 0.49399 0.0
C205 C 0.66195 0.75646 0.49873 0.0
U206 U 0.64252 0.7828 0.49192 0.0
O207 O 0.62916 0.78453 0.49953 0.0
O208 O 0.646 0.79751 0.50052 0.0
C209 C 0.63583 0.79392 0.50342 0.0
C210 C 0.65078 0.7682 0.49846 0.0
C211 C 0.63467 0.79564 0.51373 0.0
C212 C 0.62329 0.79153 0.52763 0.0
C213 C 0.62537 0.78865 0.51861 0.0
C214 C 0.63995 0.8082 0.52724 0.0
C215 C 0.63039 0.8015 0.53191 0.0
C216 C 0.64204 0.80532 0.51825 0.0
C217 C 0.63746 0.79445 0.46701 0.0
C218 C 0.62906 0.80811 0.46517 0.0
C219 C 0.63667 0.80362 0.45138 0.0
C220 C 0.63968 0.796 0.45719 0.0
C221 C 0.63138 0.80982 0.45531 0.0
C222 C 0.63209 0.8005 0.47097 0.0
C223 C 0.64118 0.78684 0.47314 0.0
O224 O 0.65679 0.77884 0.49794 0.0
O225 O 0.64002 0.76583 0.49682 0.0
O226 O 0.63333 0.77889 0.47759 0.0
O227 O 0.65025 0.79162 0.47879 0.0
H228 H 0.64752 0.76314 0.47934 0.0
H229 H 0.65486 0.75171 0.47108 0.0
H230 H 0.67169 0.74661 0.49819 0.0
H231 H 0.66397 0.75778 0.50645 0.0
H232 H 0.61581 0.78622 0.53101 0.0
H233 H 0.61943 0.7812 0.51529 0.0
H234 H 0.64568 0.81585 0.53041 0.0
H235 H 0.6492 0.81095 0.51464 0.0
H236 H 0.62489 0.81264 0.4684 0.0
H237 H 0.63875 0.80484 0.44387 0.0
H238 H 0.64389 0.79145 0.45404 0.0
H239 H 0.63035 0.79941 0.47857 0.0
C240 C 0.47595 0.4008 0.71281 0.0
C241 C 0.47555 0.39806 0.70307 0.0
C242 C 0.49583 0.40466 0.70389 0.0
C243 C 0.4854 0.39995 0.69865 0.0
C244 C 0.49615 0.40731 0.71367 0.0
C245 C 0.48629 0.40539 0.71808 0.0
U246 U 0.44476 0.39389 0.711 0.0
O247 O 0.43173 0.38372 0.72051 0.0
O248 O 0.43492 0.4013 0.71809 0.0
C249 C 0.4295 0.39215 0.72292 0.0
C250 C 0.46567 0.39912 0.71744 0.0
C251 C 0.42912 0.3933 0.73339 0.0
C252 C 0.43794 0.39599 0.74979 0.0
C253 C 0.43859 0.39525 0.73981 0.0
C254 C 0.41839 0.39302 0.74697 0.0
C255 C 0.4278 0.39482 0.75351 0.0
C256 C 0.41905 0.39227 0.73702 0.0
C257 C 0.42882 0.38753 0.68588 0.0
C258 C 0.40967 0.37549 0.68126 0.0
C259 C 0.41934 0.39125 0.67097 0.0
C260 C 0.42882 0.39398 0.67743 0.0
C261 C 0.40968 0.38194 0.67278 0.0
C262 C 0.41913 0.37828 0.68778 0.0
C263 C 0.43909 0.39047 0.69241 0.0
O264 O 0.46131 0.40649 0.71502 0.0
O265 O 0.45823 0.38894 0.71747 0.0
O266 O 0.43979 0.38278 0.69864 0.0
O267 O 0.44274 0.40032 0.69618 0.0
H268 H 0.46763 0.39457 0.69887 0.0
H269 H 0.48487 0.39795 0.69108 0.0
H270 H 0.50403 0.41084 0.71793 0.0
H271 H 0.48674 0.40754 0.72561 0.0
H272 H 0.44537 0.3975 0.7546 0.0
H273 H 0.44645 0.39611 0.73711 0.0
H274 H 0.41042 0.39192 0.74958 0.0
H275 H 0.41166 0.39074 0.73215 0.0
H276 H 0.4023 0.36834 0.6829 0.0
H277 H 0.41964 0.39632 0.66445 0.0
H278 H 0.43621 0.40111 0.6758 0.0
H279 H 0.41886 0.37317 0.69426 0.0
C280 C 0.86314 0.19716 0.99833 0.0
C281 C 0.85955 0.18584 1.00077 0.0
C282 C 0.86801 0.19008 0.01722 0.0
C283 C 0.86189 0.18235 0.01014 0.0
C284 C 0.8717 0.2014 0.01474 0.0
C285 C 0.86924 0.2049 0.00538 0.0
U286 U 0.86224 0.19513 0.97095 0.0
O287 O 0.84966 0.19552 0.95942 0.0
O288 O 0.86673 0.20798 0.95937 0.0
C289 C 0.85647 0.20467 0.9554 0.0
C290 C 0.86081 0.20099 0.98844 0.0
C291 C 0.85205 0.21335 0.9533 0.0
C292 C 0.84346 0.22545 0.95836 0.0
C293 C 0.84771 0.21723 0.96057 0.0
C294 C 0.84794 0.22602 0.94163 0.0
C295 C 0.8435 0.22993 0.94885 0.0
C296 C 0.85215 0.2178 0.94384 0.0
C297 C 0.87138 0.17389 0.96078 0.0
C298 C 0.86929 0.17043 0.94351 0.0
C299 C 0.87839 0.16106 0.95463 0.0
C300 C 0.87679 0.16651 0.96241 0.0
C301 C 0.8746 0.16289 0.94509 0.0
C302 C 0.86771 0.17589 0.95129 0.0
C303 C 0.86955 0.17938 0.96904 0.0
O304 O 0.86958 0.20601 0.98342 0.0
O305 O 0.85229 0.19399 0.9833 0.0
O306 O 0.85907 0.17749 0.97024 0.0
O307 O 0.87617 0.18981 0.96998 0.0
H308 H 0.85495 0.17968 0.99544 0.0
H309 H 0.85907 0.17358 0.01181 0.0
H310 H 0.87637 0.20754 0.02007 0.0
H311 H 0.87212 0.21366 0.00364 0.0
H312 H 0.84002 0.22819 0.96407 0.0
H313 H 0.84758 0.21387 0.96792 0.0
H314 H 0.84831 0.22942 0.93429 0.0
H315 H 0.85553 0.21493 0.93816 0.0
H316 H 0.86614 0.17192 0.93628 0.0
H317 H 0.88264 0.15543 0.9561 0.0
H318 H 0.87972 0.16493 0.9697 0.0
H319 H 0.86353 0.18159 0.94992 0.0
C320 C 0.22253 0.98545 0.38462 0.0
C321 C 0.2247 0.99522 0.37902 0.0
C322 C 0.20584 0.99413 0.38054 0.0
C323 C 0.21643 0.99947 0.37696 0.0
C324 C 0.20374 0.98446 0.38633 0.0
C325 C 0.21202 0.98013 0.38831 0.0
U326 U 0.2531 0.99123 0.38761 0.0
O327 O 0.26337 0.985 0.39783 0.0
O328 O 0.26332 0.98315 0.38212 0.0
C329 C 0.26696 0.98107 0.39088 0.0
C330 C 0.23136 0.98107 0.38675 0.0
C331 C 0.26719 0.97002 0.39261 0.0
C332 C 0.25837 0.95044 0.39662 0.0
C333 C 0.25766 0.96077 0.39479 0.0
C334 C 0.27807 0.95855 0.39397 0.0
C335 C 0.26862 0.94922 0.39625 0.0
C336 C 0.27735 0.96881 0.39217 0.0
C337 C 0.2726 0.02148 0.38469 0.0
C338 C 0.29227 0.02778 0.3819 0.0
C339 C 0.28478 0.04064 0.38713 0.0
C340 C 0.27422 0.03218 0.38725 0.0
C341 C 0.29394 0.03858 0.38441 0.0
C342 C 0.28171 0.0193 0.38208 0.0
C343 C 0.2614 0.01274 0.38489 0.0
O344 O 0.23738 0.98163 0.37943 0.0
O345 O 0.23742 0.98428 0.39497 0.0
O346 O 0.25874 0.00793 0.39341 0.0
O347 O 0.25837 0.00576 0.37774 0.0
H348 H 0.23281 0.99958 0.37624 0.0
H349 H 0.21837 0.00703 0.37264 0.0
H350 H 0.19565 0.98017 0.38918 0.0
H351 H 0.21023 0.97263 0.39272 0.0
H352 H 0.25092 0.94341 0.39828 0.0
H353 H 0.24973 0.96156 0.39513 0.0
H354 H 0.28613 0.95799 0.39381 0.0
H355 H 0.28479 0.97588 0.39052 0.0
H356 H 0.2991 0.0259 0.37968 0.0
H357 H 0.28577 0.04879 0.3893 0.0
H358 H 0.26731 0.03399 0.38937 0.0
H359 H 0.28063 0.01105 0.38013 0.0
C360 C 0.17779 0.97436 0.64538 0.0
C361 C 0.16879 0.97089 0.63831 0.0
C362 C 0.16473 0.95165 0.64313 0.0
C363 C 0.16237 0.95965 0.63717 0.0
C364 C 0.17374 0.9552 0.65021 0.0
C365 C 0.18021 0.96643 0.65129 0.0
U366 U 0.18075 0.00422 0.64769 0.0
O367 O 0.19201 0.01699 0.65765 0.0
O368 O 0.1927 0.01972 0.64185 0.0
C369 C 0.19734 0.02328 0.65049 0.0
C370 C 0.18464 0.98616 0.64681 0.0
C371 C 0.20961 0.02729 0.6516 0.0
C372 C 0.22719 0.02796 0.64639 0.0
C373 C 0.21554 0.02343 0.64573 0.0
C374 C 0.22716 0.0399 0.65911 0.0
C375 C 0.23312 0.03634 0.653 0.0
C376 C 0.2155 0.03545 0.65838 0.0
C377 C 0.15519 0.01159 0.6456 0.0
C378 C 0.15676 0.03023 0.64846 0.0
C379 C 0.13917 0.01665 0.64213 0.0
C380 C 0.14398 0.00879 0.64234 0.0
C381 C 0.1455 0.02746 0.6452 0.0
C382 C 0.16158 0.02236 0.64863 0.0
C383 C 0.16021 0.00332 0.64565 0.0
O384 O 0.18496 0.99284 0.63928 0.0
O385 O 0.18361 0.99012 0.65503 0.0
O386 O 0.16502 0.00167 0.65403 0.0
O387 O 0.16619 0.00409 0.63826 0.0
H388 H 0.16671 0.97684 0.63368 0.0
H389 H 0.1556 0.95723 0.63155 0.0
H390 H 0.17569 0.94932 0.65505 0.0
H391 H 0.18708 0.96894 0.65683 0.0
H392 H 0.23158 0.02498 0.64168 0.0
H393 H 0.21119 0.01705 0.64052 0.0
H394 H 0.23151 0.0464 0.66423 0.0
H395 H 0.21107 0.03853 0.66298 0.0
H396 H 0.1619 0.03851 0.65076 0.0
H397 H 0.13045 0.01424 0.63967 0.0
H398 H 0.13895 1.0005 0.63996 0.0
H399 H 0.17029 0.02469 0.6511 0.0
C400 C 0.25825 0.04448 0.87763 0.0
C401 C 0.24697 0.04181 0.87906 0.0
C402 C 0.25059 0.06116 0.88151 0.0
C403 C 0.24318 0.05005 0.88097 0.0
C404 C 0.26189 0.06381 0.87995 0.0
C405 C 0.26568 0.05553 0.87803 0.0
U406 U 0.25184 0.01413 0.87675 0.0
O407 O 0.25618 0.00401 0.86698 0.0
O408 O 0.26097 0.0038 0.88262 0.0
C409 C 0.26137 1.00027 0.87401 0.0
C410 C 0.26225 0.03566 0.87611 0.0
C411 C 0.27192 0.99946 0.87186 0.0
C412 C 0.2885 0.00503 0.86281 0.0
C413 C 0.27926 0.00691 0.86551 0.0
C414 C 0.28332 0.98846 0.873 0.0
C415 C 0.29054 0.99566 0.86639 0.0
C416 C 0.27414 0.99035 0.87569 0.0
C417 C 0.22175 0.99515 0.88158 0.0
C418 C 0.21481 0.97628 0.88804 0.0
C419 C 0.20219 0.98335 0.87882 0.0
C420 C 0.21099 0.99349 0.87758 0.0
C421 C 0.20395 0.97464 0.88416 0.0
C422 C 0.22364 0.98643 0.88673 0.0
C423 C 0.23074 0.00609 0.88045 0.0
O424 O 0.26268 0.02955 0.88388 0.0
O425 O 0.25776 0.0298 0.86832 0.0
O426 O 0.2341 0.00883 0.87164 0.0
O427 O 0.23896 0.00885 0.88726 0.0
H428 H 0.24112 0.0333 0.87885 0.0
H429 H 0.23448 0.04766 0.88228 0.0
H430 H 0.26781 0.07228 0.88022 0.0
H431 H 0.27442 0.05775 0.87695 0.0
H432 H 0.29396 0.01083 0.85781 0.0
H433 H 0.27771 0.01401 0.86246 0.0
H434 H 0.28446 0.98107 0.8758 0.0
H435 H 0.26853 0.98446 0.88054 0.0
H436 H 0.21647 0.96981 0.89226 0.0
H437 H 0.194 0.98232 0.87555 0.0
H438 H 0.20937 1.00009 0.87353 0.0
H439 H 0.2319 0.98749 0.88985 0.0
C440 C 0.28364 0.00167 0.14687 0.0
C441 C 0.27924 0.99009 0.14692 0.0
C442 C 0.26117 0.98969 0.15067 0.0
C443 C 0.26811 0.98416 0.1488 0.0
C444 C 0.26568 0.00131 0.15071 0.0
C445 C 0.27683 0.00724 0.14881 0.0
U446 U 0.31185 0.00196 0.14201 0.0
O447 O 0.32407 0.01174 0.13172 0.0
O448 O 0.32875 0.01282 0.1474 0.0
C449 C 0.33159 0.01682 0.13867 0.0
C450 C 0.29532 0.00791 0.14482 0.0
C451 C 0.33666 0.02895 0.13775 0.0
C452 C 0.33571 0.04657 0.1325 0.0
C453 C 0.33064 0.03507 0.1334 0.0
C454 C 0.3528 0.04598 0.14048 0.0
C455 C 0.34685 0.05215 0.13604 0.0
C456 C 0.34775 0.03449 0.14129 0.0
C457 C 0.31521 0.97433 0.14188 0.0
C458 C 0.33238 0.97279 0.13802 0.0
C459 C 0.31738 0.9568 0.14416 0.0
C460 C 0.31095 0.96313 0.14463 0.0
C461 C 0.3282 0.96157 0.14093 0.0
C462 C 0.32594 0.97913 0.13853 0.0
C463 C 0.30846 0.9809 0.1428 0.0
O464 O 0.3027 0.00749 0.15179 0.0
O465 O 0.29791 0.0065 0.13614 0.0
O466 O 0.30655 0.98604 0.13483 0.0
O467 O 0.31114 0.98706 0.15051 0.0
H468 H 0.28443 0.98566 0.14551 0.0
H469 H 0.26494 0.97523 0.14885 0.0
H470 H 0.26054 0.00581 0.15202 0.0
H471 H 0.28012 0.01618 0.1488 0.0
H472 H 0.33089 0.05112 0.12915 0.0
H473 H 0.32202 0.03097 0.13069 0.0
H474 H 0.36142 0.05004 0.14319 0.0
H475 H 0.35253 0.02991 0.14468 0.0
H476 H 0.34072 0.97672 0.1356 0.0
H477 H 0.31387 0.94816 0.14634 0.0
H478 H 0.30267 0.9593 0.14721 0.0
H479 H 0.32937 0.9878 0.13642 0.0
C480 C 0.42729 0.32324 0.04511 0.0
C481 C 0.43261 0.32567 0.05446 0.0
C482 C 0.42815 0.3061 0.05808 0.0
C483 C 0.43311 0.3172 0.06084 0.0
C484 C 0.42297 0.30374 0.04863 0.0
C485 C 0.42256 0.31223 0.04222 0.0
U486 U 0.42415 0.3507 0.04176 0.0
O487 O 0.43157 0.3649 0.03187 0.0
O488 O 0.41338 0.35627 0.03149 0.0
C489 C 0.42187 0.36408 0.02763 0.0
C490 C 0.42607 0.33204 0.03856 0.0
C491 C 0.42123 0.36505 0.01697 0.0
C492 C 0.42281 0.35908 1.00103 0.0
C493 C 0.42326 0.35769 0.01118 0.0
C494 C 0.41823 0.37512 0.00246 0.0
C495 C 0.42036 0.36788 0.99656 0.0
C496 C 0.41867 0.37372 0.01255 0.0
C497 C 0.42348 0.3657 0.0645 0.0
C498 C 0.41375 0.37778 0.06694 0.0
C499 C 0.43089 0.38 0.07657 0.0
C500 C 0.43164 0.37125 0.07177 0.0
C501 C 0.4219 0.38331 0.07425 0.0
C502 C 0.41456 0.36909 0.06207 0.0
C503 C 0.42438 0.35633 0.05971 0.0
O504 O 0.4164 0.333 0.0385 0.0
O505 O 0.43458 0.3416 0.03887 0.0
O506 O 0.43351 0.35859 0.0552 0.0
O507 O 0.41535 0.34976 0.05483 0.0
H508 H 0.43627 0.3341 0.05688 0.0
H509 H 0.43732 0.31937 0.06799 0.0
H510 H 0.41893 0.29529 0.04629 0.0
H511 H 0.41832 0.31019 0.03506 0.0
H512 H 0.42455 0.3534 0.9967 0.0
H513 H 0.42526 0.35095 0.0145 0.0
H514 H 0.4161 0.38184 0.99927 0.0
H515 H 0.41704 0.37945 0.01692 0.0
H516 H 0.40678 0.38022 0.06494 0.0
H517 H 0.43723 0.38402 0.08224 0.0
H518 H 0.43857 0.36876 0.07379 0.0
H519 H 0.40817 0.36502 0.05645 0.0
C520 C 0.97953 0.90839 0.21628 0.0
C521 C 0.97901 0.9061 0.20642 0.0
C522 C 0.99916 0.91144 0.20727 0.0
C523 C 0.98872 0.90759 0.20196 0.0
C524 C 0.9996 0.9136 0.2172 0.0
C525 C 0.98986 0.9121 0.22166 0.0
U526 U 0.94879 0.90274 0.21372 0.0
O527 O 0.93502 0.89288 0.22263 0.0
O528 O 0.93899 0.91062 0.22025 0.0
C529 C 0.93293 0.90148 0.22478 0.0
C530 C 0.96934 0.90717 0.22086 0.0
C531 C 0.93151 0.90248 0.23508 0.0
C532 C 0.93777 0.90285 0.25221 0.0
C533 C 0.93967 0.9025 0.24243 0.0
C534 C 0.91969 0.90344 0.24734 0.0
C535 C 0.92767 0.90316 0.25478 0.0
C536 C 0.92159 0.90309 0.2376 0.0
C537 C 0.93431 0.89705 0.18792 0.0
C538 C 0.9155 0.88528 0.18204 0.0
C539 C 0.92609 0.90144 0.17257 0.0
C540 C 0.93503 0.90386 0.1796 0.0
C541 C 0.91625 0.89209 0.17368 0.0
C542 C 0.92443 0.88775 0.18911 0.0
C543 C 0.94411 0.8996 0.19499 0.0
O544 O 0.96541 0.91485 0.21834 0.0
O545 O 0.96157 0.89716 0.22079 0.0
O546 O 0.94413 0.89173 0.2013 0.0
O547 O 0.94784 0.90941 0.19882 0.0
H548 H 0.97108 0.90322 0.20215 0.0
H549 H 0.98804 0.90569 0.19435 0.0
H550 H 0.00751 0.9167 0.22147 0.0
H551 H 0.99041 0.91395 0.22927 0.0
H552 H 0.94406 0.90254 0.25776 0.0
H553 H 0.94739 0.90204 0.2406 0.0
H554 H 0.91192 0.90387 0.24904 0.0
H555 H 0.91523 0.90315 0.23201 0.0
H556 H 0.90798 0.87808 0.18314 0.0
H557 H 0.92696 0.90678 0.16617 0.0
H558 H 0.94259 0.91102 0.17848 0.0
H559 H 0.92361 0.88235 0.19546 0.0
C560 C 0.07881 0.68799 0.55719 0.0
C561 C 0.07504 0.68514 0.56655 0.0
C562 C 0.07945 0.70448 0.5698 0.0
C563 C 0.07529 0.69328 0.57276 0.0
C564 C 0.0831 0.70728 0.56035 0.0
C565 C 0.08278 0.69911 0.55411 0.0
U566 U 0.08064 0.66034 0.55483 0.0
O567 O 0.07142 0.6464 0.54527 0.0
O568 O 0.08965 0.65444 0.54521 0.0
C569 C 0.08045 0.64693 0.54135 0.0
C570 C 0.07911 0.67947 0.55084 0.0
C571 C 0.0795 0.64598 0.53073 0.0
C572 C 0.08098 0.65387 0.51431 0.0
C573 C 0.08197 0.65522 0.5244 0.0
C574 C 0.07501 0.63408 0.51687 0.0
C575 C 0.07743 0.64326 0.51044 0.0
C576 C 0.07603 0.63544 0.5269 0.0
C577 C 0.08267 0.64436 0.57854 0.0
C578 C 0.09037 0.63018 0.58157 0.0
C579 C 0.07632 0.63078 0.59163 0.0
C580 C 0.07591 0.63998 0.5863 0.0
C581 C 0.08357 0.62579 0.58934 0.0
C582 C 0.08988 0.63936 0.57617 0.0
C583 C 0.08203 0.65412 0.57312 0.0
O584 O 0.08863 0.67813 0.55137 0.0
O585 O 0.07039 0.67009 0.55089 0.0
O586 O 0.0725 0.65254 0.56814 0.0
O587 O 0.09076 0.66023 0.56841 0.0
H588 H 0.07201 0.67661 0.56911 0.0
H589 H 0.07224 0.69077 0.5799 0.0
H590 H 0.08649 0.71582 0.55786 0.0
H591 H 0.08581 0.70148 0.54694 0.0
H592 H 0.08283 0.66109 0.50954 0.0
H593 H 0.08463 0.66343 0.52724 0.0
H594 H 0.07244 0.62582 0.51416 0.0
H595 H 0.07413 0.62822 0.53168 0.0
H596 H 0.09597 0.62646 0.5796 0.0
H597 H 0.07108 0.62768 0.59767 0.0
H598 H 0.07031 0.64373 0.58827 0.0
H599 H 0.09514 0.64253 0.57016 0.0
C600 C 0.98563 0.61716 0.77646 0.0
C601 C 0.98207 0.62601 0.77574 0.0
C602 C 0.97512 0.6215 0.79189 0.0
C603 C 0.97691 0.62819 0.78338 0.0
C604 C 0.97856 0.61254 0.79252 0.0
C605 C 0.98379 0.61041 0.78488 0.0
U606 U 0.99183 0.6213 0.75005 0.0
O607 O 0.00726 0.62501 0.74271 0.0
O608 O 0.9925 0.61005 0.73914 0.0
C609 C 0.003 0.61596 0.73766 0.0
C610 C 0.99113 0.61493 0.76841 0.0
C611 C 0.01032 0.60992 0.73663 0.0
C612 C 0.01586 0.59431 0.74015 0.0
C613 C 0.0093 0.60023 0.74201 0.0
C614 C 0.02459 0.60784 0.72767 0.0
C615 C 0.02352 0.598 0.73287 0.0
C616 C 0.01808 0.61371 0.72954 0.0
C617 C 0.97897 0.63908 0.73455 0.0
C618 C 0.98385 0.64566 0.71813 0.0
C619 C 0.96805 0.64762 0.72461 0.0
C620 C 0.97008 0.64261 0.73336 0.0
C621 C 0.97491 0.64924 0.71688 0.0
C622 C 0.98585 0.6406 0.72689 0.0
C623 C 0.98086 0.63377 0.74382 0.0
O624 O 0.98435 0.60886 0.76148 0.0
O625 O 0.99932 0.62354 0.76507 0.0
O626 O 0.9911 0.63772 0.74785 0.0
O627 O 0.97629 0.62293 0.7441 0.0
H628 H 0.98329 0.63125 0.76925 0.0
H629 H 0.97422 0.63505 0.78259 0.0
H630 H 0.97738 0.60728 0.799 0.0
H631 H 0.98644 0.60352 0.78556 0.0
H632 H 0.01489 0.58683 0.74436 0.0
H633 H 0.00335 0.59715 0.74753 0.0
H634 H 0.0302 0.61085 0.72189 0.0
H635 H 0.01892 0.62113 0.72525 0.0
H636 H 0.98936 0.64685 0.71238 0.0
H637 H 0.96097 0.65006 0.72386 0.0
H638 H 0.96465 0.64143 0.73918 0.0
H639 H 0.99275 0.63789 0.72769 0.0
C640 C 0.06888 0.18441 0.46625 0.0
C641 C 0.07307 0.18713 0.45703 0.0
C642 C 0.06885 0.20372 0.45617 0.0
C643 C 0.07308 0.19671 0.45204 0.0
C644 C 0.06444 0.20078 0.46533 0.0
C645 C 0.06448 0.19123 0.47032 0.0
U646 U 0.0718 0.15653 0.46773 0.0
O647 O 0.08143 0.15001 0.47834 0.0
O648 O 0.06323 0.14156 0.4765 0.0
C649 C 0.07249 0.14208 0.48144 0.0
C650 C 0.06927 0.17466 0.47181 0.0
C651 C 0.07207 0.14073 0.49204 0.0
C652 C 0.07454 0.14837 0.50808 0.0
C653 C 0.07417 0.14976 0.49796 0.0
C654 C 0.07036 0.12888 0.50644 0.0
C655 C 0.0728 0.13793 0.51244 0.0
C656 C 0.07001 0.13028 0.49633 0.0
C657 C 0.07588 0.1435 0.44531 0.0
C658 C 0.08583 0.13123 0.44479 0.0
C659 C 0.07083 0.12995 0.43265 0.0
C660 C 0.06922 0.13852 0.43702 0.0
C661 C 0.0792 0.12627 0.43646 0.0
C662 C 0.08415 0.13971 0.44921 0.0
C663 C 0.07402 0.15249 0.44985 0.0
O664 O 0.06083 0.16531 0.46995 0.0
O665 O 0.07898 0.17369 0.47251 0.0
O666 O 0.08233 0.1589 0.45557 0.0
O667 O 0.06425 0.14975 0.45341 0.0
H668 H 0.07648 0.18193 0.45376 0.0
H669 H 0.07662 0.19875 0.44505 0.0
H670 H 0.06092 0.20585 0.46866 0.0
H671 H 0.06114 0.18922 0.47741 0.0
H672 H 0.07654 0.15553 0.5125 0.0
H673 H 0.07577 0.1579 0.49475 0.0
H674 H 0.06879 0.1207 0.50954 0.0
H675 H 0.06832 0.12322 0.49186 0.0
H676 H 0.09226 0.12849 0.44793 0.0
H677 H 0.06565 0.12633 0.42618 0.0
H678 H 0.06279 0.14128 0.4339 0.0
H679 H 0.08932 0.1433 0.45569 0.0
C680 C 0.50381 0.3988 0.23759 0.0
C681 C 0.49973 0.3957 0.22803 0.0
C682 C 0.48956 0.4079 0.22726 0.0
C683 C 0.49268 0.40019 0.22291 0.0
C684 C 0.4937 0.41101 0.23686 0.0
C685 C 0.50076 0.40648 0.24199 0.0
U686 U 0.52043 0.38101 0.23714 0.0
O687 O 0.53738 0.38326 0.24307 0.0
O688 O 0.52302 0.36879 0.24755 0.0
C689 C 0.53385 0.37435 0.24868 0.0
C690 C 0.51134 0.39411 0.24285 0.0
C691 C 0.53886 0.37544 0.25871 0.0
C692 C 0.5398 0.38024 0.2756 0.0
C693 C 0.535 0.37973 0.26605 0.0
C694 C 0.55239 0.37236 0.27046 0.0
C695 C 0.54847 0.37643 0.27792 0.0
C696 C 0.54763 0.37187 0.26097 0.0
C697 C 0.51948 0.36759 0.21297 0.0
C698 C 0.52258 0.35089 0.21021 0.0
C699 C 0.52604 0.36521 0.19766 0.0
C700 C 0.52279 0.37149 0.20364 0.0
C701 C 0.52594 0.3548 0.20085 0.0
C702 C 0.51942 0.35724 0.21623 0.0
C703 C 0.51616 0.37448 0.2191 0.0
O704 O 0.50704 0.38333 0.24422 0.0
O705 O 0.52143 0.39774 0.23979 0.0
O706 O 0.52412 0.38387 0.22174 0.0
O707 O 0.50976 0.36937 0.22614 0.0
H708 H 0.50207 0.38983 0.22449 0.0
H709 H 0.48981 0.39775 0.21549 0.0
H710 H 0.4914 0.41686 0.24043 0.0
H711 H 0.50385 0.40897 0.24937 0.0
H712 H 0.53656 0.38338 0.28119 0.0
H713 H 0.52824 0.38255 0.26441 0.0
H714 H 0.5592 0.36958 0.27193 0.0
H715 H 0.55075 0.3686 0.25538 0.0
H716 H 0.52229 0.34288 0.21288 0.0
H717 H 0.52879 0.36862 0.19059 0.0
H718 H 0.52295 0.37948 0.201 0.0
H719 H 0.51692 0.35403 0.22342 0.0
C720 C 0.40762 0.81703 0.97951 0.0
C721 C 0.40288 0.81324 0.97022 0.0
C722 C 0.40867 0.79763 0.97259 0.0
C723 C 0.40336 0.80361 0.96681 0.0
C724 C 0.41355 0.80159 0.98183 0.0
C725 C 0.413 0.81117 0.98526 0.0
U726 U 0.40585 0.84531 0.97561 0.0
O727 O 0.39612 0.85277 0.98277 0.0
O728 O 0.41438 0.86055 0.9838 0.0
C729 C 0.40505 0.86043 0.98683 0.0
C730 C 0.40709 0.82705 0.9833 0.0
C731 C 0.40504 0.8614 0.99738 0.0
C732 C 0.40445 0.85348 0.01374 0.0
C733 C 0.40452 0.85252 0.00372 0.0
C734 C 0.40548 0.87225 0.01118 0.0
C735 C 0.40492 0.86336 0.0176 0.0
C736 C 0.40554 0.87126 1.00116 0.0
C737 C 0.40497 0.85663 0.94926 0.0
C738 C 0.39616 0.86867 0.94165 0.0
C739 C 0.41146 0.86673 0.93427 0.0
C740 C 0.41226 0.85946 0.94179 0.0
C741 C 0.40327 0.87128 0.93399 0.0
C742 C 0.39701 0.86142 0.94922 0.0
C743 C 0.40553 0.84826 0.95666 0.0
O744 O 0.41589 0.83617 0.98216 0.0
O745 O 0.39762 0.82838 0.98133 0.0
O746 O 0.39652 0.84298 0.96132 0.0
O747 O 0.4148 0.85096 0.96229 0.0
H748 H 0.39875 0.81769 0.96564 0.0
H749 H 0.39942 0.80077 0.9597 0.0
H750 H 0.4179 0.79736 0.98641 0.0
H751 H 0.41679 0.81402 0.99241 0.0
H752 H 0.40385 0.84642 0.01844 0.0
H753 H 0.40412 0.84483 1.00091 0.0
H754 H 0.406 0.88001 0.01391 0.0
H755 H 0.40599 0.87821 0.99636 0.0
H756 H 0.38972 0.87196 0.94164 0.0
H757 H 0.41723 0.86872 0.92861 0.0
H758 H 0.41849 0.85589 0.9417 0.0
H759 H 0.39129 0.8594 0.95492 0.0
C760 C 0.97259 0.38286 0.79271 0.0
C761 C 0.97338 0.38105 0.8028 0.0
C762 C 0.99343 0.38613 0.80265 0.0
C763 C 0.98371 0.38265 0.80774 0.0
C764 C 0.99255 0.38791 0.79252 0.0
C765 C 0.98222 0.38629 0.7876 0.0
U766 U 0.94156 0.37667 0.79251 0.0
O767 O 0.93108 0.38382 0.7836 0.0
O768 O 0.92756 0.36613 0.78289 0.0
C769 C 0.92525 0.37451 0.77921 0.0
C770 C 0.96181 0.3812 0.78742 0.0
C771 C 0.92419 0.37527 0.76854 0.0
C772 C 0.9324 0.38121 0.75304 0.0
C773 C 0.9336 0.38041 0.76319 0.0
C774 C 0.91241 0.37156 0.7535 0.0
C775 C 0.92178 0.3768 0.74808 0.0
C776 C 0.91361 0.37082 0.76363 0.0
C777 C 0.92804 0.37171 0.81672 0.0
C778 C 0.90834 0.36764 0.81783 0.0
C779 C 0.92019 0.36789 0.83242 0.0
C780 C 0.92933 0.37055 0.82683 0.0
C781 C 0.90956 0.36632 0.82799 0.0
C782 C 0.91752 0.37029 0.81223 0.0
C783 C 0.93775 0.37425 0.81101 0.0
O784 O 0.95423 0.37111 0.78791 0.0
O785 O 0.95786 0.38882 0.78862 0.0
O786 O 0.94106 0.38386 0.80637 0.0
O787 O 0.93757 0.36616 0.80572 0.0
H788 H 0.966 0.37842 0.80686 0.0
H789 H 0.98412 0.3813 0.81554 0.0
H790 H 0.99983 0.39043 0.78836 0.0
H791 H 0.98175 0.38769 0.7798 0.0
H792 H 0.93979 0.38519 0.74908 0.0
H793 H 0.94185 0.38383 0.76687 0.0
H794 H 0.90411 0.3682 0.74991 0.0
H795 H 0.90626 0.36682 0.76765 0.0
H796 H 0.90025 0.3664 0.81419 0.0
H797 H 0.92145 0.36711 0.84024 0.0
H798 H 0.93742 0.37167 0.83041 0.0
H799 H 0.91639 0.37115 0.8044 0.0
C800 C 0.35726 0.24167 0.52471 0.0
C801 C 0.35813 0.24305 0.53479 0.0
C802 C 0.34935 0.25646 0.53256 0.0
C803 C 0.35426 0.2504 0.53868 0.0
C804 C 0.34852 0.25506 0.52245 0.0
C805 C 0.35245 0.24773 0.51857 0.0
U806 U 0.36639 0.21771 0.5288 0.0
O807 O 0.36188 0.20226 0.52098 0.0
O808 O 0.37939 0.21371 0.52271 0.0
C809 C 0.37221 0.20442 0.51903 0.0
C810 C 0.361 0.23365 0.52064 0.0
C811 C 0.37388 0.20178 0.50922 0.0
C812 C 0.37776 0.20655 0.49227 0.0
C813 C 0.37592 0.20946 0.50141 0.0
C814 C 0.37548 0.18833 0.49872 0.0
C815 C 0.37753 0.19592 0.49082 0.0
C816 C 0.37366 0.19123 0.50779 0.0
C817 C 0.36708 0.20657 0.555 0.0
C818 C 0.37698 0.19508 0.56164 0.0
C819 C 0.36102 0.19505 0.56941 0.0
C820 C 0.3598 0.20271 0.56245 0.0
C821 C 0.36961 0.19113 0.56907 0.0
C822 C 0.37569 0.20269 0.55461 0.0
C823 C 0.36537 0.21447 0.54767 0.0
O824 O 0.37134 0.23484 0.52324 0.0
O825 O 0.35393 0.22333 0.5211 0.0
O826 O 0.35669 0.21029 0.54144 0.0
O827 O 0.37427 0.22139 0.54362 0.0
H828 H 0.36173 0.23835 0.53967 0.0
H829 H 0.35489 0.25116 0.54649 0.0
H830 H 0.3449 0.25968 0.51752 0.0
H831 H 0.35167 0.24676 0.51077 0.0
H832 H 0.37924 0.21257 0.48633 0.0
H833 H 0.37612 0.21766 0.50238 0.0
H834 H 0.37546 0.18016 0.49796 0.0
H835 H 0.37218 0.18522 0.51374 0.0
H836 H 0.38361 0.19213 0.56115 0.0
H837 H 0.35529 0.19226 0.57512 0.0
H838 H 0.35311 0.20561 0.56288 0.0
H839 H 0.38136 0.20548 0.54886 0.0
C840 C 0.52059 0.63034 0.30756 0.0
C841 C 0.51988 0.62861 0.31764 0.0
C842 C 0.50148 0.62954 0.31624 0.0
C843 C 0.51037 0.62817 0.32194 0.0
C844 C 0.50231 0.63135 0.30615 0.0
C845 C 0.51178 0.63173 0.30186 0.0
U846 U 0.55107 0.63357 0.30872 0.0
O847 O 0.5591 0.62456 0.30131 0.0
O848 O 0.56409 0.6424 0.29872 0.0
C849 C 0.56502 0.6333 0.29623 0.0
C850 C 0.53045 0.63073 0.30288 0.0
C851 C 0.56448 0.63169 0.28574 0.0
C852 C 0.5539 0.62671 0.27018 0.0
C853 C 0.55433 0.62864 0.28009 0.0
C854 C 0.57379 0.63106 0.27145 0.0
C855 C 0.56362 0.62783 0.26575 0.0
C856 C 0.57421 0.63295 0.28136 0.0
C857 C 0.5684 0.63842 0.33294 0.0
C858 C 0.58849 0.64359 0.33414 0.0
C859 C 0.57831 0.63863 0.34868 0.0
C860 C 0.56836 0.63681 0.34303 0.0
C861 C 0.58852 0.64215 0.34432 0.0
C862 C 0.5785 0.64172 0.3285 0.0
C863 C 0.55786 0.63662 0.32716 0.0
O864 O 0.53876 0.64041 0.30278 0.0
O865 O 0.53369 0.62252 0.30514 0.0
O866 O 0.55285 0.62679 0.32342 0.0
O867 O 0.55794 0.64468 0.32103 0.0
H868 H 0.52666 0.6276 0.32217 0.0
H869 H 0.51004 0.62689 0.32974 0.0
H870 H 0.49556 0.63229 0.30154 0.0
H871 H 0.51219 0.63307 0.29407 0.0
H872 H 0.54596 0.62439 0.26597 0.0
H873 H 0.54674 0.62766 0.28336 0.0
H874 H 0.5814 0.63187 0.26831 0.0
H875 H 0.58211 0.63528 0.28564 0.0
H876 H 0.5962 0.64639 0.33056 0.0
H877 H 0.57799 0.63724 0.35646 0.0
H878 H 0.56061 0.63417 0.34657 0.0
H879 H 0.57867 0.64295 0.32068 0.0
C880 C 0.12925 0.79887 0.0281 0.0
C881 C 0.13002 0.80981 0.02667 0.0
C882 C 0.12338 0.80629 0.00968 0.0
C883 C 0.12717 0.81351 0.01752 0.0
C884 C 0.12262 0.79534 0.01117 0.0
C885 C 0.12555 0.79168 0.02029 0.0
U886 U 0.13199 0.80005 0.05571 0.0
O887 O 0.12731 0.78667 0.06681 0.0
O888 O 0.14474 0.79823 0.06641 0.0
C889 C 0.13768 0.78909 0.07025 0.0
C890 C 0.13203 0.79476 0.0377 0.0
C891 C 0.14123 0.77966 0.07178 0.0
C892 C 0.15432 0.77084 0.07001 0.0
C893 C 0.15091 0.77968 0.06798 0.0
C894 C 0.13835 0.76175 0.0795 0.0
C895 C 0.14809 0.76179 0.07582 0.0
C896 C 0.135 0.7706 0.07753 0.0
C897 C 0.1245 0.82159 0.06778 0.0
C898 C 0.1308 0.82875 0.08401 0.0
C899 C 0.11457 0.83079 0.07559 0.0
C900 C 0.11577 0.82533 0.06764 0.0
C901 C 0.12215 0.83267 0.08383 0.0
C902 C 0.13194 0.8232 0.07608 0.0
C903 C 0.12578 0.8162 0.05916 0.0
O904 O 0.14093 0.80152 0.0426 0.0
O905 O 0.12356 0.78985 0.04306 0.0
O906 O 0.11871 0.80598 0.05792 0.0
O907 O 0.13605 0.81774 0.05742 0.0
H908 H 0.13277 0.81547 0.03265 0.0
H909 H 0.12774 0.82195 0.01662 0.0
H910 H 0.11984 0.78962 0.00525 0.0
H911 H 0.12488 0.78321 0.02126 0.0
H912 H 0.16181 0.77107 0.06702 0.0
H913 H 0.1559 0.78654 0.06351 0.0
H914 H 0.13346 0.755 0.08412 0.0
H915 H 0.12757 0.77043 0.08062 0.0
H916 H 0.13669 0.82996 0.0903 0.0
H917 H 0.10789 0.83381 0.07519 0.0
H918 H 0.10995 0.82415 0.0613 0.0
H919 H 0.13868 0.82027 0.0764 0.0
C920 C 0.77899 0.01897 0.63987 0.0
C921 C 0.77695 0.00768 0.63961 0.0
C922 C 0.79687 0.0117 0.64189 0.0
C923 C 0.78578 0.00408 0.64059 0.0
C924 C 0.79887 0.02302 0.64215 0.0
C925 C 0.79 0.02662 0.64114 0.0
U926 U 0.74805 0.01131 0.63862 0.0
O927 O 0.73745 0.01837 0.645 0.0
O928 O 0.73675 0.01702 0.62917 0.0
C929 C 0.73322 0.02044 0.63648 0.0
C930 C 0.76961 0.02266 0.6389 0.0
C931 C 0.7324 0.03129 0.63517 0.0
C932 C 0.74068 0.05132 0.63367 0.0
C933 C 0.74187 0.04114 0.63492 0.0
C934 C 0.72059 0.04183 0.6329 0.0
C935 C 0.73 0.05177 0.63261 0.0
C936 C 0.72179 0.03172 0.63415 0.0
C937 C 0.73048 0.98029 0.64061 0.0
C938 C 0.71036 0.97214 0.63735 0.0
C939 C 0.72045 0.96062 0.64318 0.0
C940 C 0.73043 0.96988 0.64347 0.0
C941 C 0.71031 0.96161 0.63998 0.0
C942 C 0.72039 0.98142 0.63766 0.0
C943 C 0.74118 0.98975 0.64049 0.0
O944 O 0.76319 0.0198 0.63082 0.0
O945 O 0.76394 0.02092 0.64665 0.0
O946 O 0.74374 0.99629 0.64793 0.0
O947 O 0.74332 0.99511 0.63211 0.0
H948 H 0.76849 0.00165 0.63863 0.0
H949 H 0.78392 0.99533 0.64021 0.0
H950 H 0.80728 0.02911 0.64326 0.0
H951 H 0.79173 0.03536 0.64141 0.0
H952 H 0.7481 0.05881 0.6334 0.0
H953 H 0.75014 0.04096 0.63568 0.0
H954 H 0.71226 0.04186 0.63229 0.0
H955 H 0.71439 0.02419 0.63437 0.0
H956 H 0.70272 0.97317 0.63478 0.0
H957 H 0.72068 0.95267 0.64541 0.0
H958 H 0.73815 0.96888 0.64583 0.0
H959 H 0.72029 0.98943 0.63544 0.0
C960 C 0.77469 0.00876 0.39525 0.0
C961 C 0.77161 0.9984 0.3911 0.0
C962 C 0.75208 0.99437 0.39328 0.0
C963 C 0.76041 0.99129 0.39009 0.0
C964 C 0.75523 0.00473 0.39753 0.0
C965 C 0.76645 0.01187 0.39849 0.0
U966 U 0.80499 0.01324 0.39446 0.0
O967 O 0.81907 0.02697 0.38848 0.0
O968 O 0.81975 0.02238 0.40399 0.0
C969 C 0.82451 0.02946 0.39704 0.0
C970 C 0.78648 0.01621 0.39631 0.0
C971 C 0.8289 0.04122 0.39944 0.0
C972 C 0.82819 0.05659 0.40801 0.0
C973 C 0.82357 0.04541 0.40565 0.0
C974 C 0.84332 0.05951 0.39781 0.0
C975 C 0.83819 0.06376 0.40417 0.0
C976 C 0.83874 0.04836 0.3955 0.0
C977 C 0.81158 0.9884 0.38843 0.0
C978 C 0.82998 0.9895 0.38506 0.0
C979 C 0.81539 0.97173 0.38829 0.0
C980 C 0.80802 0.9769 0.3894 0.0
C981 C 0.82648 0.97796 0.38617 0.0
C982 C 0.8226 0.99469 0.38623 0.0
C983 C 0.80373 0.99362 0.38998 0.0
O984 O 0.79231 0.01382 0.4037 0.0
O985 O 0.79166 0.0185 0.38823 0.0
O986 O 0.80324 0.00113 0.38345 0.0
O987 O 0.80381 0.99651 0.39894 0.0
H988 H 0.77788 0.99582 0.38864 0.0
H989 H 0.75828 0.98331 0.38693 0.0
H990 H 0.749 0.00736 0.39999 0.0
H991 H 0.7687 0.01983 0.40174 0.0
H992 H 0.82405 0.05956 0.41297 0.0
H993 H 0.81592 0.04004 0.40874 0.0
H994 H 0.85088 0.06482 0.39454 0.0
H995 H 0.84292 0.0453 0.39064 0.0
H996 H 0.8385 0.99453 0.38352 0.0
H997 H 0.81241 0.96282 0.38909 0.0
H998 H 0.79954 0.97192 0.39109 0.0
H999 H 0.82551 0.0036 0.38552 0.0
C1000 C 0.73994 0.9542 0.12545 0.0
C1001 C 0.74951 0.95817 0.12018 0.0
C1002 C 0.7489 0.93949 0.11902 0.0
C1003 C 0.7539 0.95089 0.11696 0.0
C1004 C 0.73932 0.93555 0.12433 0.0
C1005 C 0.73487 0.94285 0.1275 0.0
U1006 U 0.74533 0.98311 0.13257 0.0
O1007 O 0.73582 0.99379 0.12989 0.0
O1008 O 0.74055 0.98988 0.14488 0.0
C1009 C 0.73517 0.99485 0.1392 0.0
C1010 C 0.73557 0.96197 0.12912 0.0
C1011 C 0.72449 0.99452 0.1424 0.0
C1012 C 0.70549 0.99363 0.13889 0.0
C1013 C 0.71491 0.99222 0.136 0.0
C1014 C 0.71497 0.99937 0.15469 0.0
C1015 C 0.70547 0.99739 0.14824 0.0
C1016 C 0.72434 0.99797 0.1518 0.0
C1017 C 0.77503 0.00414 0.13032 0.0
C1018 C 0.78045 0.02356 0.1336 0.0
C1019 C 0.79431 0.01673 0.1295 0.0
C1020 C 0.7861 0.0061 0.1287 0.0
C1021 C 0.79158 0.0256 0.13192 0.0
C1022 C 0.77224 0.0129 0.13282 0.0
C1023 C 0.76652 0.99293 0.12936 0.0
O1024 O 0.73979 0.96578 0.13779 0.0
O1025 O 0.73498 0.96969 0.12287 0.0
O1026 O 0.75842 0.99176 0.12261 0.0
O1027 O 0.763 0.98776 0.13757 0.0
H1028 H 0.75365 0.96693 0.11863 0.0
H1029 H 0.76138 0.95423 0.11304 0.0
H1030 H 0.73522 0.92682 0.12599 0.0
H1031 H 0.72752 0.93963 0.1316 0.0
H1032 H 0.69828 0.99189 0.13377 0.0
H1033 H 0.71477 0.98962 0.12867 0.0
H1034 H 0.71536 0.00244 0.16188 0.0
H1035 H 0.73167 0.99999 0.15683 0.0
H1036 H 0.7781 0.03018 0.13558 0.0
H1037 H 0.80276 0.01805 0.12803 0.0
H1038 H 0.78838 0.99941 0.12676 0.0
H1039 H 0.76372 0.01149 0.13414 0.0
C1040 C 0.68074 0.97327 0.88292 0.0
C1041 C 0.67006 0.96991 0.8863 0.0
C1042 C 0.66785 0.95065 0.88587 0.0
C1043 C 0.66368 0.95869 0.88777 0.0
C1044 C 0.6786 0.9541 0.88252 0.0
C1045 C 0.68498 0.96532 0.88106 0.0
U1046 U 0.68391 0.0033 0.882 0.0
O1047 O 0.69815 0.01831 0.88648 0.0
O1048 O 0.69153 0.01649 0.87124 0.0
C1049 C 0.69951 0.02231 0.87754 0.0
C1050 C 0.68741 0.98501 0.88114 0.0
C1051 C 0.71087 0.02585 0.87439 0.0
C1052 C 0.72754 0.02232 0.87248 0.0
C1053 C 0.71668 0.01877 0.87543 0.0
C1054 C 0.72678 0.03996 0.86728 0.0
C1055 C 0.73272 0.03296 0.86839 0.0
C1056 C 0.71595 0.03643 0.87027 0.0
C1057 C 0.65987 0.01081 0.88831 0.0
C1058 C 0.6619 0.02975 0.89043 0.0
C1059 C 0.64349 0.01521 0.88892 0.0
C1060 C 0.64827 0.00747 0.88805 0.0
C1061 C 0.65024 0.02646 0.89011 0.0
C1062 C 0.66667 0.02199 0.8895 0.0
C1063 C 0.66473 0.00258 0.88714 0.0
O1064 O 0.68379 0.98954 0.87358 0.0
O1065 O 0.6903 0.99118 0.88885 0.0
O1066 O 0.67306 0.003 0.89341 0.0
O1067 O 0.66648 0.00125 0.87816 0.0
H1068 H 0.66665 0.97596 0.88772 0.0
H1069 H 0.65538 0.95631 0.89023 0.0
H1070 H 0.6821 0.94813 0.88109 0.0
H1071 H 0.69322 0.9678 0.87846 0.0
H1072 H 0.73185 0.0167 0.87334 0.0
H1073 H 0.71283 0.01053 0.87853 0.0
H1074 H 0.73057 0.04825 0.86426 0.0
H1075 H 0.71156 0.04199 0.86941 0.0
H1076 H 0.66736 0.0383 0.89144 0.0
H1077 H 0.63449 0.0124 0.88847 0.0
H1078 H 0.6429 0.99887 0.88706 0.0
H1079 H 0.67566 0.02473 0.88969 0.0
C1080 C 0.57573 0.68588 0.97993 0.0
C1081 C 0.5786 0.68793 0.97025 0.0
C1082 C 0.57522 0.70496 0.96979 0.0
C1083 C 0.57835 0.6974 0.96522 0.0
C1084 C 0.57222 0.70275 0.97946 0.0
C1085 C 0.57249 0.69331 0.98447 0.0
U1086 U 0.5786 0.65803 0.98105 0.0
O1087 O 0.5878 0.65114 0.99176 0.0
O1088 O 0.56961 0.64287 0.98943 0.0
C1089 C 0.57868 0.64329 0.99465 0.0
C1090 C 0.57611 0.67609 0.98538 0.0
C1091 C 0.57778 0.64188 0.00522 0.0
C1092 C 0.58145 0.6493 0.02146 0.0
C1093 C 0.58171 0.65095 0.01137 0.0
C1094 C 0.57293 0.62953 0.0193 0.0
C1095 C 0.57722 0.63854 0.02555 0.0
C1096 C 0.57324 0.63119 0.00925 0.0
C1097 C 0.5826 0.64547 0.95808 0.0
C1098 C 0.59365 0.63483 0.95501 0.0
C1099 C 0.57566 0.63087 0.94626 0.0
C1100 C 0.57433 0.63925 0.95117 0.0
C1101 C 0.58537 0.6286 0.94807 0.0
C1102 C 0.59228 0.64316 0.95997 0.0
C1103 C 0.58103 0.65438 0.96309 0.0
O1104 O 0.56768 0.66679 0.98338 0.0
O1105 O 0.58582 0.67511 0.98603 0.0
O1106 O 0.58935 0.66038 0.96904 0.0
O1107 O 0.57123 0.65179 0.96655 0.0
H1108 H 0.5811 0.68224 0.96662 0.0
H1109 H 0.58081 0.69889 0.95782 0.0
H1110 H 0.56957 0.70829 0.98314 0.0
H1111 H 0.57018 0.69181 0.99192 0.0
H1112 H 0.58488 0.65642 0.02606 0.0
H1113 H 0.58519 0.65929 0.00839 0.0
H1114 H 0.56941 0.62115 0.02219 0.0
H1115 H 0.57009 0.6241 0.00461 0.0
H1116 H 0.6013 0.63342 0.95649 0.0
H1117 H 0.56903 0.62614 0.94109 0.0
H1118 H 0.5668 0.64086 0.94957 0.0
H1119 H 0.59885 0.64782 0.96523 0.0
C1120 C 0.01749 0.12115 0.79562 0.0
C1121 C 0.01605 0.11863 0.80554 0.0
C1122 C 0.9975 0.11916 0.80342 0.0
C1123 C 0.00612 0.1176 0.8094 0.0
C1124 C 0.99907 0.12181 0.7935 0.0
C1125 C 0.00898 0.12278 0.78964 0.0
U1126 U 0.04788 0.1243 0.79848 0.0
O1127 O 0.05667 0.1161 0.79094 0.0
O1128 O 0.06201 0.13414 0.78994 0.0
C1129 C 0.06314 0.12537 0.78685 0.0
C1130 C 0.0278 0.12208 0.79141 0.0
C1131 C 0.06394 0.12501 0.77633 0.0
C1132 C 0.05901 0.12904 0.75958 0.0
C1133 C 0.05787 0.12927 0.76953 0.0
C1134 C 0.07206 0.12004 0.76312 0.0
C1135 C 0.06619 0.12448 0.75625 0.0
C1136 C 0.07097 0.12034 0.77305 0.0
C1137 C 0.06285 0.12672 0.82366 0.0
C1138 C 0.0829 0.13186 0.82606 0.0
C1139 C 0.07151 0.12616 0.83985 0.0
C1140 C 0.06198 0.12458 0.83365 0.0
C1141 C 0.08211 0.12994 0.83615 0.0
C1142 C 0.07335 0.13024 0.81987 0.0
C1143 C 0.0528 0.12539 0.81731 0.0
O1144 O 0.03611 0.13171 0.79234 0.0
O1145 O 0.03086 0.11369 0.79328 0.0
O1146 O 0.04826 0.11602 0.81273 0.0
O1147 O 0.05338 0.13401 0.81173 0.0
H1148 H 0.02259 0.11743 0.81027 0.0
H1149 H 0.00521 0.11567 0.81708 0.0
H1150 H 0.99255 0.12293 0.78868 0.0
H1151 H 0.00996 0.12474 0.78197 0.0
H1152 H 0.05444 0.13261 0.75451 0.0
H1153 H 0.05234 0.13286 0.77192 0.0
H1154 H 0.07748 0.11626 0.76083 0.0
H1155 H 0.07564 0.11693 0.77819 0.0
H1156 H 0.09093 0.13487 0.82298 0.0
H1157 H 0.07056 0.1244 0.84754 0.0
H1158 H 0.05393 0.12178 0.83668 0.0
H1159 H 0.07416 0.1319 0.81214 0.0
C1160 C 0.91172 0.32851 0.46329 0.0
C1161 C 0.91421 0.3288 0.45358 0.0
C1162 C 0.91225 0.30958 0.45503 0.0
C1163 C 0.91451 0.31943 0.4495 0.0
C1164 C 0.9096 0.3093 0.46473 0.0
C1165 C 0.90936 0.3187 0.46882 0.0
U1166 U 0.91153 0.35732 0.46054 0.0
O1167 O 0.90231 0.36518 0.4679 0.0
O1168 O 0.92059 0.37218 0.46909 0.0
C1169 C 0.91142 0.37242 0.47214 0.0
C1170 C 0.91156 0.33839 0.46767 0.0
C1171 C 0.91138 0.3731 0.48271 0.0
C1172 C 0.911 0.36484 0.49892 0.0
C1173 C 0.91108 0.36414 0.48887 0.0
C1174 C 0.91153 0.38347 0.49677 0.0
C1175 C 0.91122 0.37451 0.503 0.0
C1176 C 0.91162 0.38276 0.48671 0.0
C1177 C 0.91151 0.36947 0.43451 0.0
C1178 C 0.91482 0.38862 0.43016 0.0
C1179 C 0.90851 0.3748 0.41773 0.0
C1180 C 0.90837 0.36669 0.42476 0.0
C1181 C 0.91185 0.38589 0.42032 0.0
C1182 C 0.91465 0.38046 0.43721 0.0
C1183 C 0.91155 0.36075 0.44163 0.0
O1184 O 0.92068 0.34731 0.46698 0.0
O1185 O 0.9024 0.34026 0.46565 0.0
O1186 O 0.90239 0.35591 0.44618 0.0
O1187 O 0.9207 0.3629 0.44737 0.0
H1188 H 0.91596 0.3363 0.44918 0.0
H1189 H 0.91643 0.31988 0.44198 0.0
H1190 H 0.90793 0.30187 0.46921 0.0
H1191 H 0.9074 0.31833 0.47633 0.0
H1192 H 0.91059 0.35773 0.50348 0.0
H1193 H 0.91086 0.3566 0.48588 0.0
H1194 H 0.91184 0.39108 0.49967 0.0
H1195 H 0.91188 0.38977 0.48205 0.0
H1196 H 0.91749 0.39708 0.43239 0.0
H1197 H 0.90596 0.37236 0.41027 0.0
H1198 H 0.90585 0.35823 0.42256 0.0
H1199 H 0.91707 0.38274 0.44473 0.0
C1200 C 0.47793 0.88773 0.76092 0.0
C1201 C 0.47728 0.88622 0.77101 0.0
C1202 C 0.46375 0.89491 0.77054 0.0
C1203 C 0.4703 0.88979 0.77577 0.0
C1204 C 0.46449 0.89647 0.76041 0.0
C1205 C 0.47152 0.89289 0.75564 0.0
U1206 U 0.49693 0.8722 0.76266 0.0
O1207 O 0.49883 0.86021 0.75318 0.0
O1208 O 0.51312 0.87552 0.75685 0.0
C1209 C 0.50928 0.86644 0.75181 0.0
C1210 C 0.4852 0.88376 0.75598 0.0
C1211 C 0.51286 0.86712 0.74183 0.0
C1212 C 0.5245 0.87724 0.72884 0.0
C1213 C 0.51978 0.87715 0.73759 0.0
C1214 C 0.51516 0.85738 0.72823 0.0
C1215 C 0.52244 0.86733 0.72416 0.0
C1216 C 0.51046 0.85729 0.73696 0.0
C1217 C 0.50104 0.85982 0.78794 0.0
C1218 C 0.51704 0.85759 0.79682 0.0
C1219 C 0.49836 0.84527 0.80031 0.0
C1220 C 0.49396 0.8508 0.79323 0.0
C1221 C 0.50995 0.84871 0.80231 0.0
C1222 C 0.51264 0.86307 0.78969 0.0
C1223 C 0.49614 0.86605 0.78107 0.0
O1224 O 0.49585 0.88826 0.75883 0.0
O1225 O 0.48157 0.87298 0.75527 0.0
O1226 O 0.4889 0.86028 0.77425 0.0
O1227 O 0.50298 0.87572 0.77793 0.0
H1228 H 0.48219 0.88226 0.77521 0.0
H1229 H 0.47009 0.88861 0.78358 0.0
H1230 H 0.45949 0.90027 0.75614 0.0
H1231 H 0.47189 0.89409 0.74784 0.0
H1232 H 0.52996 0.88507 0.72585 0.0
H1233 H 0.52184 0.88488 0.74118 0.0
H1234 H 0.51351 0.84956 0.72494 0.0
H1235 H 0.5053 0.84943 0.74012 0.0
H1236 H 0.52601 0.86057 0.79823 0.0
H1237 H 0.49264 0.83836 0.80427 0.0
H1238 H 0.48499 0.84814 0.792 0.0
H1239 H 0.51834 0.86999 0.78572 0.0
C1240 C 0.97755 0.12179 0.25499 0.0
C1241 C 0.96781 0.12403 0.25457 0.0
C1242 C 0.96762 0.12567 0.23693 0.0
C1243 C 0.96286 0.12588 0.24562 0.0
C1244 C 0.97743 0.12351 0.23738 0.0
C1245 C 0.98232 0.12156 0.24635 0.0
U1246 U 0.98267 0.12605 0.28209 0.0
O1247 O 0.98251 0.11444 0.29427 0.0
O1248 O 0.99763 0.12918 0.29202 0.0
C1249 C 0.99307 0.11989 0.29697 0.0
C1250 C 0.98283 0.1199 0.2644 0.0
C1251 C 0.99983 0.11316 0.29897 0.0
C1252 C 0.01338 0.10604 0.29446 0.0
C1253 C 0.00675 0.11219 0.29214 0.0
C1254 C 0.00604 0.10159 0.31035 0.0
C1255 C 0.01312 0.1007 0.30362 0.0
C1256 C 0.99948 0.10777 0.30804 0.0
C1257 C 0.96939 0.14303 0.29371 0.0
C1258 C 0.97032 0.14432 0.31124 0.0
C1259 C 0.96106 0.15419 0.30089 0.0
C1260 C 0.96357 0.15009 0.29268 0.0
C1261 C 0.9643 0.15126 0.31027 0.0
C1262 C 0.97285 0.14026 0.30303 0.0
C1263 C 0.97156 0.1384 0.28506 0.0
O1264 O 0.99066 0.12872 0.26825 0.0
O1265 O 0.97592 0.11369 0.27072 0.0
O1266 O 0.96693 0.12758 0.28462 0.0
O1267 O 0.98196 0.14247 0.28273 0.0
H1268 H 0.96406 0.12438 0.26117 0.0
H1269 H 0.95542 0.1277 0.24551 0.0
H1270 H 0.98125 0.12325 0.2308 0.0
H1271 H 0.98986 0.11988 0.24654 0.0
H1272 H 0.01868 0.10543 0.2891 0.0
H1273 H 0.00709 0.11625 0.28506 0.0
H1274 H 0.00575 0.09773 0.31751 0.0
H1275 H 0.99421 0.10844 0.31341 0.0
H1276 H 0.97305 0.14203 0.31836 0.0
H1277 H 0.95631 0.1594 0.29989 0.0
H1278 H 0.96083 0.15229 0.28552 0.0
H1279 H 0.9774 0.13485 0.30394 0.0
C1280 C 0.52283 0.12909 0.72513 0.0
C1281 C 0.52206 0.13004 0.71495 0.0
C1282 C 0.50195 0.12466 0.71487 0.0
C1283 C 0.5117 0.12788 0.70986 0.0
C1284 C 0.50284 0.12393 0.72508 0.0
C1285 C 0.51319 0.12613 0.73016 0.0
U1286 U 0.55338 0.13298 0.72578 0.0
O1287 O 0.56784 0.14323 0.7351 0.0
O1288 O 0.56279 0.12524 0.73542 0.0
C1289 C 0.56928 0.13463 0.73938 0.0
C1290 C 0.53352 0.13064 0.73054 0.0
C1291 C 0.57014 0.13447 0.75005 0.0
C1292 C 0.56285 0.13546 0.7654 0.0
C1293 C 0.56212 0.13605 0.75524 0.0
C1294 C 0.57964 0.1317 0.76527 0.0
C1295 C 0.57159 0.1332 0.77055 0.0
C1296 C 0.57891 0.13233 0.75512 0.0
C1297 C 0.56688 0.1341 0.70217 0.0
C1298 C 0.58453 0.13198 0.70154 0.0
C1299 C 0.57643 0.13846 0.68726 0.0
C1300 C 0.56741 0.13773 0.69243 0.0
C1301 C 0.58507 0.13553 0.69173 0.0
C1302 C 0.57552 0.1313 0.70673 0.0
C1303 C 0.55725 0.13326 0.70744 0.0
O1304 O 0.53674 0.12235 0.73021 0.0
O1305 O 0.54162 0.14032 0.72933 0.0
O1306 O 0.55831 0.14216 0.712 0.0
O1307 O 0.55284 0.12411 0.71262 0.0
H1308 H 0.52944 0.13225 0.71094 0.0
H1309 H 0.51129 0.12839 0.70199 0.0
H1310 H 0.49551 0.12161 0.72916 0.0
H1311 H 0.51365 0.12536 0.73802 0.0
H1312 H 0.55658 0.13679 0.76922 0.0
H1313 H 0.55525 0.13766 0.75142 0.0
H1314 H 0.58636 0.12976 0.76897 0.0
H1315 H 0.58513 0.13101 0.75122 0.0
H1316 H 0.59096 0.12956 0.70519 0.0
H1317 H 0.57667 0.14144 0.67978 0.0
H1318 H 0.56085 0.13999 0.68883 0.0
H1319 H 0.57527 0.12853 0.71427 0.0
C1320 C 0.149 0.25634 0.98516 0.0
C1321 C 0.14608 0.25405 0.97527 0.0
C1322 C 0.15679 0.24233 0.97589 0.0
C1323 C 0.1499 0.24709 0.97069 0.0
C1324 C 0.15971 0.24468 0.98581 0.0
C1325 C 0.15584 0.25162 0.9904 0.0
U1326 U 0.13691 0.27839 0.98319 0.0
O1327 O 0.12442 0.28104 0.9913 0.0
O1328 O 0.14138 0.29374 0.99117 0.0
C1329 C 0.13151 0.29056 0.99465 0.0
C1330 C 0.14523 0.26389 0.98994 0.0
C1331 C 0.1312 0.29281 0.005 0.0
C1332 C 0.12138 0.28897 0.01983 0.0
C1333 C 0.12268 0.28579 0.01067 0.0
C1334 C 0.13733 0.30607 0.01802 0.0
C1335 C 0.12854 0.29926 0.02353 0.0
C1336 C 0.13861 0.3029 0.00885 0.0
C1337 C 0.12995 0.28832 0.9579 0.0
C1338 C 0.13007 0.30646 0.9531 0.0
C1339 C 0.11874 0.29058 0.94356 0.0
C1340 C 0.12241 0.28382 0.94993 0.0
C1341 C 0.12262 0.30202 0.94499 0.0
C1342 C 0.13365 0.29968 0.95951 0.0
C1343 C 0.13399 0.28109 0.96435 0.0
O1344 O 0.15134 0.27443 0.98872 0.0
O1345 O 0.13446 0.26166 0.98882 0.0
O1346 O 0.12647 0.27361 0.96947 0.0
O1347 O 0.14357 0.28598 0.96934 0.0
H1348 H 0.14085 0.25767 0.97109 0.0
H1349 H 0.14734 0.24535 0.9631 0.0
H1350 H 0.16512 0.2413 0.99002 0.0
H1351 H 0.15826 0.25337 0.99801 0.0
H1352 H 0.11461 0.28347 0.02394 0.0
H1353 H 0.11675 0.278 0.0079 0.0
H1354 H 0.14291 0.3141 0.02057 0.0
H1355 H 0.14513 0.30858 0.0046 0.0
H1356 H 0.13339 0.31524 0.95438 0.0
H1357 H 0.11286 0.28682 0.93751 0.0
H1358 H 0.11939 0.27506 0.9486 0.0
H1359 H 0.13942 0.30338 0.96564 0.0
C1360 C 0.35523 0.69379 0.51898 0.0
C1361 C 0.3537 0.68262 0.52012 0.0
C1362 C 0.3596 0.68512 0.53736 0.0
C1363 C 0.35579 0.67831 0.52922 0.0
C1364 C 0.36118 0.69633 0.53615 0.0
C1365 C 0.35899 0.70061 0.52704 0.0
U1366 U 0.3554 0.6941 0.49157 0.0
O1367 O 0.34332 0.69548 0.47995 0.0
O1368 O 0.36048 0.70784 0.48083 0.0
C1369 C 0.35043 0.70479 0.47644 0.0
C1370 C 0.35322 0.69845 0.50938 0.0
C1371 C 0.34619 0.71359 0.47423 0.0
C1372 C 0.33721 0.72556 0.4788 0.0
C1373 C 0.34138 0.71731 0.48125 0.0
C1374 C 0.34274 0.72646 0.46239 0.0
C1375 C 0.33778 0.73018 0.46931 0.0
C1376 C 0.34688 0.71824 0.46483 0.0
C1377 C 0.36495 0.67426 0.47982 0.0
C1378 C 0.36434 0.67381 0.46223 0.0
C1379 C 0.37163 0.662 0.47222 0.0
C1380 C 0.36962 0.66625 0.48059 0.0
C1381 C 0.36897 0.6657 0.46294 0.0
C1382 C 0.36236 0.67806 0.4706 0.0
C1383 C 0.3628 0.67866 0.48861 0.0
O1384 O 0.3622 0.70391 0.50474 0.0
O1385 O 0.34493 0.69182 0.50377 0.0
O1386 O 0.35225 0.67662 0.48965 0.0
O1387 O 0.3694 0.68892 0.49045 0.0
H1388 H 0.35088 0.6772 0.51398 0.0
H1389 H 0.3543 0.66962 0.52988 0.0
H1390 H 0.36427 0.70186 0.54219 0.0
H1391 H 0.36032 0.70928 0.52628 0.0
H1392 H 0.33339 0.7282 0.48429 0.0
H1393 H 0.34079 0.7138 0.48856 0.0
H1394 H 0.34353 0.72997 0.45508 0.0
H1395 H 0.35062 0.71549 0.45934 0.0
H1396 H 0.36234 0.67694 0.45521 0.0
H1397 H 0.37509 0.65568 0.47301 0.0
H1398 H 0.37166 0.66324 0.48766 0.0
H1399 H 0.3588 0.6843 0.46989 0.0
C1400 C 0.72113 0.48172 0.89108 0.0
C1401 C 0.72293 0.49251 0.89361 0.0
C1402 C 0.70315 0.48875 0.89033 0.0
C1403 C 0.71402 0.49598 0.89328 0.0
C1404 C 0.70138 0.47791 0.88791 0.0
C1405 C 0.7103 0.47442 0.88829 0.0
U1406 U 0.75201 0.48966 0.88968 0.0
O1407 O 0.76396 0.48327 0.89718 0.0
O1408 O 0.7615 0.48301 0.88124 0.0
C1409 C 0.76647 0.4803 0.88907 0.0
C1410 C 0.73061 0.47829 0.89082 0.0
C1411 C 0.76707 0.46933 0.88921 0.0
C1412 C 0.7598 0.44969 0.89326 0.0
C1413 C 0.75857 0.45986 0.8927 0.0
C1414 C 0.77787 0.45838 0.88666 0.0
C1415 C 0.76952 0.44885 0.89031 0.0
C1416 C 0.77664 0.46849 0.88612 0.0
C1417 C 0.77025 0.52032 0.88822 0.0
C1418 C 0.78953 0.5272 0.88408 0.0
C1419 C 0.78204 0.53967 0.89015 0.0
C1420 C 0.77173 0.53095 0.89089 0.0
C1421 C 0.79106 0.53793 0.88668 0.0
C1422 C 0.77922 0.51847 0.88487 0.0
C1423 C 0.75931 0.51128 0.88897 0.0
O1424 O 0.73542 0.48051 0.88256 0.0
O1425 O 0.73779 0.4808 0.89847 0.0
O1426 O 0.75801 0.50548 0.89716 0.0
O1427 O 0.7554 0.50516 0.88126 0.0
H1428 H 0.73126 0.49832 0.89567 0.0
H1429 H 0.7157 0.50443 0.89505 0.0
H1430 H 0.6931 0.47212 0.88568 0.0
H1431 H 0.70877 0.46609 0.88627 0.0
H1432 H 0.75316 0.4425 0.89602 0.0
H1433 H 0.7511 0.46036 0.8951 0.0
H1434 H 0.78555 0.45811 0.88449 0.0
H1435 H 0.7833 0.47573 0.88345 0.0
H1436 H 0.79625 0.52558 0.88129 0.0
H1437 H 0.78297 0.54776 0.8924 0.0
H1438 H 0.76491 0.5325 0.89356 0.0
H1439 H 0.77822 0.51028 0.8828 0.0
C1440 C 0.68494 0.4802 0.13605 0.0
C1441 C 0.67348 0.47629 0.1373 0.0
C1442 C 0.67138 0.45779 0.13314 0.0
C1443 C 0.66677 0.46519 0.13587 0.0
C1444 C 0.68287 0.46179 0.13181 0.0
C1445 C 0.68959 0.47292 0.13327 0.0
U1446 U 0.6874 0.50903 0.14108 0.0
O1447 O 0.69939 0.52191 0.15043 0.0
O1448 O 0.69767 0.52512 0.13472 0.0
C1449 C 0.7033 0.52867 0.14304 0.0
C1450 C 0.69198 0.49188 0.13757 0.0
C1451 C 0.71549 0.5334 0.14277 0.0
C1452 C 0.73338 0.53149 0.14416 0.0
C1453 C 0.72176 0.52677 0.14432 0.0
C1454 C 0.73253 0.54945 0.14073 0.0
C1455 C 0.73892 0.5429 0.1424 0.0
C1456 C 0.72093 0.54474 0.14093 0.0
C1457 C 0.66061 0.51359 0.14395 0.0
C1458 C 0.66055 0.53115 0.14855 0.0
C1459 C 0.64342 0.51679 0.14235 0.0
C1460 C 0.64914 0.50988 0.14143 0.0
C1461 C 0.64907 0.52754 0.14583 0.0
C1462 C 0.6663 0.52424 0.14757 0.0
C1463 C 0.66655 0.50639 0.14238 0.0
O1464 O 0.69064 0.49871 0.13072 0.0
O1465 O 0.69233 0.49535 0.14638 0.0
O1466 O 0.67296 0.50502 0.14981 0.0
O1467 O 0.67124 0.50807 0.13409 0.0
H1468 H 0.66974 0.48184 0.13937 0.0
H1469 H 0.65793 0.46241 0.13681 0.0
H1470 H 0.68669 0.45629 0.12979 0.0
H1471 H 0.69843 0.47583 0.13226 0.0
H1472 H 0.73803 0.52621 0.14557 0.0
H1473 H 0.71768 0.51797 0.14571 0.0
H1474 H 0.73647 0.55822 0.13917 0.0
H1475 H 0.71621 0.54996 0.13965 0.0
H1476 H 0.66515 0.53942 0.15115 0.0
H1477 H 0.63455 0.51374 0.1403 0.0
H1478 H 0.64464 0.50169 0.13863 0.0
H1479 H 0.67519 0.52725 0.14948 0.0
C1480 C 0.77228 0.56196 0.37492 0.0
C1481 C 0.76093 0.55883 0.37635 0.0
C1482 C 0.76395 0.57781 0.37979 0.0
C1483 C 0.7568 0.56666 0.37874 0.0
C1484 C 0.77531 0.58093 0.37823 0.0
C1485 C 0.77943 0.57306 0.37582 0.0
U1486 U 0.76681 0.53195 0.37274 0.0
O1487 O 0.7716 0.52268 0.36246 0.0
O1488 O 0.77631 0.52178 0.37807 0.0
C1489 C 0.77688 0.51877 0.36929 0.0
C1490 C 0.77663 0.55353 0.37291 0.0
C1491 C 0.78747 0.5181 0.36703 0.0
C1492 C 0.80279 0.52217 0.3566 0.0
C1493 C 0.79379 0.52437 0.35947 0.0
C1494 C 0.79949 0.50773 0.36902 0.0
C1495 C 0.80553 0.5136 0.36118 0.0
C1496 C 0.79058 0.50996 0.3719 0.0
C1497 C 0.73703 0.51187 0.37729 0.0
C1498 C 0.73072 0.49284 0.38335 0.0
C1499 C 0.71771 0.49948 0.37422 0.0
C1500 C 0.72623 0.50988 0.37322 0.0
C1501 C 0.71981 0.49086 0.37938 0.0
C1502 C 0.73926 0.50324 0.38228 0.0
C1503 C 0.74571 0.52305 0.37645 0.0
O1504 O 0.77726 0.54713 0.38041 0.0
O1505 O 0.77229 0.54802 0.36491 0.0
O1506 O 0.74902 0.52629 0.36768 0.0
O1507 O 0.75395 0.5258 0.38325 0.0
H1508 H 0.75528 0.55027 0.37576 0.0
H1509 H 0.74806 0.56391 0.38004 0.0
H1510 H 0.78103 0.58945 0.37887 0.0
H1511 H 0.78822 0.57563 0.37475 0.0
H1512 H 0.80727 0.52682 0.35052 0.0
H1513 H 0.79154 0.53068 0.35556 0.0
H1514 H 0.80149 0.5012 0.37279 0.0
H1515 H 0.78582 0.50499 0.37772 0.0
H1516 H 0.73262 0.48644 0.38745 0.0
H1517 H 0.70948 0.49821 0.37089 0.0
H1518 H 0.72435 0.51641 0.3693 0.0
H1519 H 0.74755 0.50455 0.38546 0.0
C1520 C 0.7782 0.50022 0.63798 0.0
C1521 C 0.77398 0.48867 0.63774 0.0
C1522 C 0.75587 0.48776 0.64189 0.0
C1523 C 0.76291 0.48249 0.63967 0.0
C1524 C 0.76021 0.49936 0.64225 0.0
C1525 C 0.77129 0.50553 0.6403 0.0
U1526 U 0.80651 0.50157 0.63197 0.0
O1527 O 0.8181 0.51198 0.62148 0.0
O1528 O 0.82341 0.51276 0.63705 0.0
C1529 C 0.8258 0.51705 0.62831 0.0
C1530 C 0.78977 0.50675 0.63576 0.0
C1531 C 0.83054 0.52919 0.62761 0.0
C1532 C 0.82896 0.54667 0.62288 0.0
C1533 C 0.82416 0.53515 0.62367 0.0
C1534 C 0.84646 0.54643 0.63017 0.0
C1535 C 0.84016 0.55243 0.62613 0.0
C1536 C 0.8417 0.53492 0.63088 0.0
C1537 C 0.81111 0.47487 0.63017 0.0
C1538 C 0.82907 0.475 0.6266 0.0
C1539 C 0.81363 0.45762 0.62913 0.0
C1540 C 0.80683 0.46333 0.63065 0.0
C1541 C 0.82484 0.46339 0.6271 0.0
C1542 C 0.82225 0.4807 0.62811 0.0
C1543 C 0.8039 0.48075 0.63189 0.0
O1544 O 0.7974 0.50626 0.64243 0.0
O1545 O 0.79213 0.50578 0.62689 0.0
O1546 O 0.80134 0.48599 0.62427 0.0
O1547 O 0.80668 0.48659 0.63981 0.0
H1548 H 0.77925 0.48444 0.63602 0.0
H1549 H 0.75988 0.47357 0.63947 0.0
H1550 H 0.75497 0.50367 0.64384 0.0
H1551 H 0.77443 0.51446 0.64051 0.0
H1552 H 0.82387 0.55109 0.61983 0.0
H1553 H 0.81549 0.5309 0.62117 0.0
H1554 H 0.85514 0.55063 0.63265 0.0
H1555 H 0.84675 0.53046 0.63393 0.0
H1556 H 0.83763 0.47969 0.62495 0.0
H1557 H 0.81016 0.44869 0.62972 0.0
H1558 H 0.79825 0.45872 0.63226 0.0
H1559 H 0.82567 0.48964 0.62769 0.0
C1560 C 0.49442 0.12087 0.28481 0.0
C1561 C 0.49154 0.13014 0.28462 0.0
C1562 C 0.48376 0.12465 0.30039 0.0
C1563 C 0.48631 0.13204 0.29235 0.0
C1564 C 0.48654 0.1153 0.30049 0.0
C1565 C 0.49185 0.11345 0.29277 0.0
U1566 U 0.50076 0.12553 0.25837 0.0
O1567 O 0.51616 0.12911 0.25108 0.0
O1568 O 0.5013 0.11435 0.24731 0.0
C1569 C 0.51192 0.12 0.24608 0.0
C1570 C 0.4999 0.11883 0.27665 0.0
C1571 C 0.51912 0.11368 0.24528 0.0
C1572 C 0.52139 0.09752 0.23949 0.0
C1573 C 0.51451 0.10281 0.24192 0.0
C1574 C 0.53767 0.11368 0.24404 0.0
C1575 C 0.53306 0.103 0.24028 0.0
C1576 C 0.5308 0.11897 0.24648 0.0
C1577 C 0.48798 0.14377 0.24328 0.0
C1578 C 0.49145 0.14935 0.22642 0.0
C1579 C 0.47797 0.15393 0.23433 0.0
C1580 C 0.48016 0.14871 0.24289 0.0
C1581 C 0.48358 0.15433 0.22598 0.0
C1582 C 0.49363 0.14411 0.23501 0.0
C1583 C 0.48998 0.13824 0.25237 0.0
O1584 O 0.49311 0.11294 0.26963 0.0
O1585 O 0.50815 0.12748 0.27342 0.0
O1586 O 0.50026 0.14206 0.2563 0.0
O1587 O 0.48533 0.12741 0.25248 0.0
H1588 H 0.49332 0.13591 0.27848 0.0
H1589 H 0.48414 0.13923 0.29198 0.0
H1590 H 0.48477 0.1095 0.3066 0.0
H1591 H 0.49396 0.10622 0.29303 0.0
H1592 H 0.51754 0.08934 0.23651 0.0
H1593 H 0.50556 0.09855 0.24075 0.0
H1594 H 0.54663 0.1181 0.24485 0.0
H1595 H 0.53466 0.12738 0.24894 0.0
H1596 H 0.49597 0.14958 0.22015 0.0
H1597 H 0.4717 0.15747 0.23422 0.0
H1598 H 0.47568 0.14847 0.2492 0.0
H1599 H 0.49969 0.14031 0.2352 0.0
C1600 C 0.98614 0.8893 0.74524 0.0
C1601 C 0.98039 0.88528 0.73631 0.0
C1602 C 0.973 0.89978 0.7351 0.0
C1603 C 0.97385 0.89044 0.73131 0.0
C1604 C 0.97879 0.90378 0.74406 0.0
C1605 C 0.98529 0.89856 0.74909 0.0
U1606 U 1.0026 0.87117 0.74462 0.0
O1607 O 0.01913 0.87293 0.75128 0.0
O1608 O 0.00437 0.85833 0.75476 0.0
C1609 C 0.01516 0.86373 0.75646 0.0
C1610 C 0.9933 0.88408 0.75037 0.0
C1611 C 0.01949 0.86422 0.76668 0.0
C1612 C 0.02095 0.8701 0.7833 0.0
C1613 C 0.01665 0.86991 0.7736 0.0
C1614 C 0.03096 0.85896 0.77913 0.0
C1615 C 0.02811 0.86455 0.78617 0.0
C1616 C 0.02668 0.85879 0.7695 0.0
C1617 C 0.00347 0.85896 0.72042 0.0
C1618 C 0.00725 0.84256 0.71799 0.0
C1619 C 0.01163 0.85726 0.70575 0.0
C1620 C 0.00761 0.86321 0.7114 0.0
C1621 C 0.01152 0.84685 0.70896 0.0
C1622 C 0.00331 0.84858 0.72368 0.0
C1623 C 0.99961 0.86561 0.72634 0.0
O1624 O 0.98879 0.87325 0.75121 0.0
O1625 O 0.00358 0.88779 0.74774 0.0
O1626 O 0.00738 0.87484 0.72954 0.0
O1627 O 0.99261 0.86022 0.7329 0.0
H1628 H 0.98106 0.87821 0.73315 0.0
H1629 H 0.96965 0.88726 0.72436 0.0
H1630 H 0.97825 0.91091 0.7472 0.0
H1631 H 0.9897 0.9018 0.75596 0.0
H1632 H 0.01856 0.87443 0.78855 0.0
H1633 H 0.0111 0.87416 0.77152 0.0
H1634 H 0.03662 0.8548 0.78102 0.0
H1635 H 0.02901 0.85442 0.76423 0.0
H1636 H 0.00689 0.83453 0.72065 0.0
H1637 H 0.01505 0.86095 0.69895 0.0
H1638 H 0.00787 0.87124 0.70877 0.0
H1639 H 1.0002 0.84511 0.73064 0.0
C1640 C 0.46715 0.87618 0.30811 0.0
C1641 C 0.46886 0.87722 0.31824 0.0
C1642 C 0.48762 0.87752 0.31772 0.0
C1643 C 0.47904 0.87793 0.32301 0.0
C1644 C 0.48583 0.87652 0.30756 0.0
C1645 C 0.47569 0.87586 0.30281 0.0
U1646 U 0.43648 0.87191 0.30805 0.0
O1647 O 0.4267 0.87972 0.29899 0.0
O1648 O 0.42222 0.86185 0.29839 0.0
C1649 C 0.42058 0.87052 0.29454 0.0
C1650 C 0.45647 0.87519 0.30297 0.0
C1651 C 0.42003 0.87128 0.28386 0.0
C1652 C 0.42909 0.87732 0.26874 0.0
C1653 C 0.42972 0.87661 0.2789 0.0
C1654 C 0.40911 0.86715 0.26838 0.0
C1655 C 0.41877 0.8726 0.26337 0.0
C1656 C 0.40974 0.86651 0.27854 0.0
C1657 C 0.42313 0.86783 0.33236 0.0
C1658 C 0.40344 0.86364 0.33372 0.0
C1659 C 0.41581 0.86542 0.34824 0.0
C1660 C 0.42477 0.86767 0.3425 0.0
C1661 C 0.40501 0.86326 0.34392 0.0
C1662 C 0.41244 0.8659 0.32797 0.0
C1663 C 0.43265 0.86983 0.32654 0.0
O1664 O 0.44845 0.86536 0.30351 0.0
O1665 O 0.45314 0.88326 0.30421 0.0
O1666 O 0.43638 0.87941 0.32186 0.0
O1667 O 0.43197 0.86153 0.32128 0.0
H1668 H 0.46231 0.87742 0.32244 0.0
H1669 H 0.48013 0.87861 0.33084 0.0
H1670 H 0.49231 0.87635 0.30326 0.0
H1671 H 0.4745 0.87506 0.29499 0.0
H1672 H 0.43669 0.88146 0.26509 0.0
H1673 H 0.43777 0.88024 0.28289 0.0
H1674 H 0.40103 0.86353 0.26445 0.0
H1675 H 0.40218 0.86233 0.28225 0.0
H1676 H 0.39522 0.86194 0.33018 0.0
H1677 H 0.41735 0.86537 0.35607 0.0
H1678 H 0.43299 0.8692 0.346 0.0
H1679 H 0.41105 0.866 0.32013 0.0
C1680 C 0.86216 0.75284 0.01686 0.0
C1681 C 0.86295 0.75385 0.02699 0.0
C1682 C 0.85533 0.7682 0.02515 0.0
C1683 C 0.8596 0.76147 0.03109 0.0
C1684 C 0.85456 0.76714 0.015 0.0
C1685 C 0.85796 0.75953 0.0109 0.0
U1686 U 0.87042 0.72831 0.02048 0.0
O1687 O 0.86554 0.71293 0.01251 0.0
O1688 O 0.88319 0.72401 0.01429 0.0
C1689 C 0.87584 0.71478 0.01067 0.0
C1690 C 0.86548 0.74464 0.01257 0.0
C1691 C 0.87752 0.71181 1.00098 0.0
C1692 C 0.87773 0.71425 0.98339 0.0
C1693 C 0.87636 0.71774 0.99246 0.0
C1694 C 0.88149 0.69903 0.99138 0.0
C1695 C 0.88017 0.70476 0.98276 0.0
C1696 C 0.88018 0.70252 1.00036 0.0
C1697 C 0.87137 0.71696 0.04652 0.0
C1698 C 0.88126 0.7053 0.05268 0.0
C1699 C 0.86582 0.70555 0.06108 0.0
C1700 C 0.86441 0.71321 0.05421 0.0
C1701 C 0.8743 0.70152 0.06044 0.0
C1702 C 0.87978 0.71291 0.04576 0.0
C1703 C 0.86959 0.72497 0.03935 0.0
O1704 O 0.87576 0.7455 0.015 0.0
O1705 O 0.85818 0.73441 0.01302 0.0
O1706 O 0.86082 0.72092 0.03319 0.0
O1707 O 0.87846 0.73187 0.03525 0.0
H1708 H 0.86609 0.74868 0.03173 0.0
H1709 H 0.86017 0.76195 0.03893 0.0
H1710 H 0.85143 0.77226 0.0102 0.0
H1711 H 0.85728 0.75886 0.00307 0.0
H1712 H 0.87662 0.71882 0.97688 0.0
H1713 H 0.8743 0.72494 0.99281 0.0
H1714 H 0.88358 0.69182 0.99118 0.0
H1715 H 0.88116 0.69788 0.00687 0.0
H1716 H 0.88794 0.70247 0.052 0.0
H1717 H 0.86014 0.70267 0.06682 0.0
H1718 H 0.85781 0.71617 0.05488 0.0
H1719 H 0.88522 0.71564 0.03984 0.0
C1720 C 0.63656 0.30293 0.51991 0.0
C1721 C 0.63676 0.3137 0.51883 0.0
C1722 C 0.63303 0.31156 0.50131 0.0
C1723 C 0.63507 0.31801 0.50959 0.0
C1724 C 0.63287 0.30079 0.50246 0.0
C1725 C 0.63463 0.29653 0.51168 0.0
U1726 U 0.63537 0.30219 0.54736 0.0
O1727 O 0.62915 0.28811 0.55764 0.0
O1728 O 0.64663 0.29966 0.55921 0.0
C1729 C 0.63903 0.29033 0.56219 0.0
C1730 C 0.63805 0.29817 0.52958 0.0
C1731 C 0.64242 0.28084 0.5641 0.0
C1732 C 0.65519 0.27157 0.56278 0.0
C1733 C 0.65196 0.28047 0.56037 0.0
C1734 C 0.63928 0.26322 0.57246 0.0
C1735 C 0.6489 0.26286 0.56888 0.0
C1736 C 0.6361 0.27212 0.57011 0.0
C1737 C 0.62582 0.32278 0.55868 0.0
C1738 C 0.63032 0.33014 0.57496 0.0
C1739 C 0.61365 0.33006 0.56568 0.0
C1740 C 0.61619 0.32518 0.55798 0.0
C1741 C 0.62075 0.33272 0.57423 0.0
C1742 C 0.63281 0.32518 0.56729 0.0
C1743 C 0.62848 0.31801 0.55029 0.0
O1744 O 0.64622 0.3046 0.53541 0.0
O1745 O 0.62882 0.29287 0.53393 0.0
O1746 O 0.62165 0.30791 0.54817 0.0
O1747 O 0.63903 0.3197 0.54969 0.0
H1748 H 0.63814 0.31875 0.52512 0.0
H1749 H 0.63513 0.32629 0.50895 0.0
H1750 H 0.63145 0.29566 0.49622 0.0
H1751 H 0.63443 0.2882 0.51238 0.0
H1752 H 0.6626 0.27148 0.55984 0.0
H1753 H 0.65698 0.28707 0.55569 0.0
H1754 H 0.63433 0.25674 0.57729 0.0
H1755 H 0.62876 0.27227 0.57312 0.0
H1756 H 0.63606 0.33218 0.58138 0.0
H1757 H 0.60611 0.33174 0.56491 0.0
H1758 H 0.61065 0.32334 0.55143 0.0
H1759 H 0.64028 0.32336 0.56804 0.0
C1760 C 0.28806 0.52312 0.13218 0.0
C1761 C 0.28693 0.51292 0.13665 0.0
C1762 C 0.30638 0.51648 0.1344 0.0
C1763 C 0.296 0.50966 0.1378 0.0
C1764 C 0.30742 0.52666 0.12983 0.0
C1765 C 0.29835 0.52995 0.12874 0.0
U1766 U 0.25693 0.51491 0.13026 0.0
O1767 O 0.24598 0.52166 0.13644 0.0
O1768 O 0.24574 0.52063 0.12061 0.0
C1769 C 0.24193 0.52383 0.12788 0.0
C1770 C 0.27845 0.52648 0.13086 0.0
C1771 C 0.24093 0.53461 0.12668 0.0
C1772 C 0.24874 0.55465 0.1272 0.0
C1773 C 0.25017 0.54458 0.12798 0.0
C1774 C 0.22889 0.54485 0.12371 0.0
C1775 C 0.23805 0.5549 0.12509 0.0
C1776 C 0.23033 0.53483 0.12449 0.0
C1777 C 0.23934 0.48399 0.13208 0.0
C1778 C 0.21928 0.47614 0.12838 0.0
C1779 C 0.22893 0.4644 0.13471 0.0
C1780 C 0.23903 0.47354 0.13512 0.0
C1781 C 0.21896 0.46556 0.13121 0.0
C1782 C 0.2294 0.48529 0.12881 0.0
C1783 C 0.25013 0.49336 0.13212 0.0
O1784 O 0.27227 0.52343 0.12269 0.0
O1785 O 0.27254 0.52479 0.13846 0.0
O1786 O 0.25258 0.49988 0.13956 0.0
O1787 O 0.25247 0.49875 0.12377 0.0
H1788 H 0.27903 0.50747 0.13929 0.0
H1789 H 0.29489 0.50185 0.14148 0.0
H1790 H 0.31521 0.53206 0.12698 0.0
H1791 H 0.29934 0.5378 0.12517 0.0
H1792 H 0.256 0.56224 0.12821 0.0
H1793 H 0.25843 0.54455 0.12968 0.0
H1794 H 0.22052 0.54468 0.12225 0.0
H1795 H 0.22309 0.52721 0.12352 0.0
H1796 H 0.21178 0.4773 0.12557 0.0
H1797 H 0.22895 0.45642 0.13711 0.0
H1798 H 0.24662 0.47241 0.13772 0.0
H1799 H 0.22951 0.49334 0.12645 0.0
C1800 C 0.31013 0.53024 0.90362 0.0
C1801 C 0.32041 0.53572 0.89957 0.0
C1802 C 0.32316 0.55246 0.90806 0.0
C1803 C 0.32683 0.54674 0.90173 0.0
C1804 C 0.31288 0.54687 0.91215 0.0
C1805 C 0.30643 0.53586 0.90993 0.0
U1806 U 0.30728 0.50163 0.89643 0.0
O1807 O 0.29653 0.48521 0.90181 0.0
O1808 O 0.29497 0.48983 0.8864 0.0
C1809 C 0.29092 0.48246 0.89335 0.0
C1810 C 0.30326 0.51864 0.90141 0.0
C1811 C 0.27873 0.47788 0.89352 0.0
C1812 C 0.26132 0.47992 0.89568 0.0
C1813 C 0.27297 0.48445 0.89571 0.0
C1814 C 0.26115 0.46224 0.8913 0.0
C1815 C 0.25528 0.46875 0.89348 0.0
C1816 C 0.27276 0.46678 0.89133 0.0
C1817 C 0.33287 0.49591 0.89199 0.0
C1818 C 0.33142 0.47727 0.88933 0.0
C1819 C 0.34911 0.49266 0.88801 0.0
C1820 C 0.34417 0.49993 0.89019 0.0
C1821 C 0.34281 0.48122 0.8876 0.0
C1822 C 0.3265 0.48455 0.89149 0.0
C1823 C 0.32782 0.50358 0.89449 0.0
O1824 O 0.3028 0.51588 0.89233 0.0
O1825 O 0.30458 0.51131 0.90774 0.0
O1826 O 0.32325 0.50148 0.90287 0.0
O1827 O 0.32159 0.50597 0.88745 0.0
H1828 H 0.32345 0.5315 0.89471 0.0
H1829 H 0.33461 0.55081 0.89833 0.0
H1830 H 0.30987 0.55093 0.91717 0.0
H1831 H 0.29855 0.53173 0.91318 0.0
H1832 H 0.25706 0.48513 0.89747 0.0
H1833 H 0.27748 0.49306 0.89742 0.0
H1834 H 0.25676 0.45367 0.88941 0.0
H1835 H 0.27709 0.46162 0.88957 0.0
H1836 H 0.32635 0.46852 0.88921 0.0
H1837 H 0.35785 0.496 0.88659 0.0
H1838 H 0.3492 0.50869 0.89051 0.0
H1839 H 0.31774 0.48131 0.89286 0.0
C1840 C 0.22593 0.44017 0.62493 0.0
C1841 C 0.23566 0.44389 0.61987 0.0
C1842 C 0.23509 0.42515 0.61955 0.0
C1843 C 0.24014 0.43646 0.61716 0.0
C1844 C 0.22539 0.42144 0.62469 0.0
C1845 C 0.22083 0.42889 0.62733 0.0
U1846 U 0.23175 0.46897 0.6324 0.0
O1847 O 0.22376 0.48077 0.62822 0.0
O1848 O 0.22552 0.47595 0.64358 0.0
C1849 C 0.22162 0.48163 0.6372 0.0
C1850 C 0.22146 0.44813 0.62805 0.0
C1851 C 0.21066 0.48207 0.63864 0.0
C1852 C 0.19476 0.47812 0.64835 0.0
C1853 C 0.20415 0.47616 0.64623 0.0
C1854 C 0.198 0.49167 0.63516 0.0
C1855 C 0.19169 0.48607 0.64296 0.0
C1856 C 0.20737 0.48971 0.63306 0.0
C1857 C 0.26258 0.48828 0.63316 0.0
C1858 C 0.26925 0.50774 0.63682 0.0
C1859 C 0.28234 0.49963 0.63335 0.0
C1860 C 0.27355 0.4894 0.63211 0.0
C1861 C 0.28029 0.50894 0.63566 0.0
C1862 C 0.26046 0.49748 0.63556 0.0
C1863 C 0.2535 0.4775 0.6316 0.0
O1864 O 0.22451 0.45143 0.63703 0.0
O1865 O 0.22213 0.45627 0.62181 0.0
O1866 O 0.24649 0.477 0.62403 0.0
O1867 O 0.24854 0.47248 0.63939 0.0
H1868 H 0.23986 0.45258 0.61808 0.0
H1869 H 0.24772 0.43962 0.61336 0.0
H1870 H 0.22128 0.41278 0.6266 0.0
H1871 H 0.21338 0.42586 0.6313 0.0
H1872 H 0.19 0.47354 0.65431 0.0
H1873 H 0.20649 0.47026 0.65072 0.0
H1874 H 0.19602 0.49795 0.63093 0.0
H1875 H 0.21232 0.49452 0.62727 0.0
H1876 H 0.26738 0.51476 0.6385 0.0
H1877 H 0.29074 0.50023 0.63255 0.0
H1878 H 0.27533 0.48236 0.63029 0.0
H1879 H 0.252 0.49674 0.63638 0.0
C1880 C 0.21652 0.51303 0.38051 0.0
C1881 C 0.2198 0.52416 0.37754 0.0
C1882 C 0.23888 0.52553 0.37667 0.0
C1883 C 0.23088 0.53035 0.37559 0.0
C1884 C 0.23552 0.51436 0.37964 0.0
C1885 C 0.22443 0.50818 0.38154 0.0
U1886 U 0.18772 0.51097 0.38628 0.0
O1887 O 0.17107 0.49928 0.38126 0.0
O1888 O 0.17638 0.50017 0.39682 0.0
C1889 C 0.16876 0.49493 0.39 0.0
C1890 C 0.20496 0.50647 0.38275 0.0
C1891 C 0.16465 0.48283 0.39068 0.0
C1892 C 0.16729 0.46568 0.38918 0.0
C1893 C 0.17143 0.47722 0.3887 0.0
C1894 C 0.1496 0.46528 0.39371 0.0
C1895 C 0.15631 0.45957 0.39168 0.0
C1896 C 0.15374 0.47681 0.39321 0.0
C1897 C 0.1818 0.53718 0.38761 0.0
C1898 C 0.16759 0.53954 0.39651 0.0
C1899 C 0.17482 0.55152 0.38265 0.0
C1900 C 0.18185 0.54599 0.38137 0.0
C1901 C 0.16763 0.5484 0.39026 0.0
C1902 C 0.17457 0.53395 0.39517 0.0
C1903 C 0.18931 0.53151 0.38608 0.0
O1904 O 0.20252 0.50756 0.39157 0.0
O1905 O 0.19724 0.50662 0.37601 0.0
O1906 O 0.18684 0.5256 0.37822 0.0
O1907 O 0.19225 0.5266 0.39376 0.0
H1908 H 0.2138 0.52807 0.37678 0.0
H1909 H 0.23324 0.53896 0.37343 0.0
H1910 H 0.24144 0.51038 0.38044 0.0
H1911 H 0.22203 0.49959 0.38383 0.0
H1912 H 0.17271 0.46154 0.38767 0.0
H1913 H 0.1799 0.48178 0.38674 0.0
H1914 H 0.14105 0.46085 0.39551 0.0
H1915 H 0.14839 0.48102 0.39473 0.0
H1916 H 0.16227 0.53698 0.40251 0.0
H1917 H 0.17494 0.55814 0.37757 0.0
H1918 H 0.18731 0.54857 0.37546 0.0
H1919 H 0.17432 0.52714 0.40007 0.0
H1920 H 0.11229 0.36568 0.13074 0.0
C1921 C 0.11188 0.36167 0.12399 0.0
C1922 C 0.12055 0.36634 0.11773 0.0
C1923 C 0.10306 0.35154 0.12185 0.0
H1924 H 0.12693 0.3644 0.10437 0.0
C1925 C 0.12022 0.36088 0.10918 0.0
C1926 C 0.11153 0.3508 0.10689 0.0
C1927 C 0.10293 0.34625 0.11321 0.0
C1928 C 0.09428 0.34613 0.12882 0.0
H1929 H 0.0961 0.33856 0.11135 0.0
C1930 C 0.0899 0.35229 0.13406 0.0
C1931 C 0.0814 0.34692 0.14039 0.0
C1932 C 0.09023 0.33459 0.13028 0.0
H1933 H 0.09361 0.32961 0.12664 0.0
C1934 C 0.08186 0.32929 0.13656 0.0
H1935 H 0.09285 0.36117 0.13303 0.0
C1936 C 0.07742 0.33538 0.14154 0.0
H1937 H 0.07098 0.33107 0.14644 0.0
H1938 H 0.07883 0.32041 0.1376 0.0
H1939 H 0.8905 0.90828 0.37061 0.0
C1940 C 0.89429 0.90727 0.37771 0.0
C1941 C 0.89365 0.91336 0.38552 0.0
C1942 C 0.89894 0.8992 0.37924 0.0
H1943 H 0.89784 0.91647 0.40078 0.0
C1944 C 0.89814 0.91163 0.39479 0.0
C1945 C 0.90262 0.90349 0.39652 0.0
C1946 C 0.90318 0.89746 0.38866 0.0
C1947 C 0.89809 0.8916 0.37135 0.0
H1948 H 0.90646 0.89104 0.38994 0.0
C1949 C 0.90077 0.89553 0.3618 0.0
C1950 C 0.89946 0.88807 0.35439 0.0
C1951 C 0.89417 0.88017 0.37336 0.0
H1952 H 0.89184 0.87687 0.38057 0.0
C1953 C 0.89294 0.8728 0.36607 0.0
H1954 H 0.90377 0.90431 0.36012 0.0
C1955 C 0.89554 0.8767 0.35666 0.0
H1956 H 0.89458 0.8708 0.35114 0.0
H1957 H 0.88991 0.86403 0.36772 0.0
H1958 H 0.37093 0.61963 0.65584 0.0
C1959 C 0.3716 0.62389 0.64884 0.0
C1960 C 0.36605 0.61798 0.64049 0.0
C1961 C 0.37773 0.63534 0.64822 0.0
H1962 H 0.36232 0.6192 0.62504 0.0
C1963 C 0.36687 0.62362 0.63146 0.0
C1964 C 0.37291 0.63505 0.63071 0.0
C1965 C 0.37832 0.64084 0.63912 0.0
C1966 C 0.38306 0.64168 0.65711 0.0
H1967 H 0.38306 0.64966 0.63857 0.0
C1968 C 0.38944 0.63793 0.6641 0.0
C1969 C 0.39464 0.64413 0.67242 0.0
C1970 C 0.38179 0.65161 0.65861 0.0
H1971 H 0.37681 0.65461 0.65342 0.0
C1972 C 0.38679 0.6577 0.66688 0.0
H1973 H 0.39062 0.63038 0.66292 0.0
C1974 C 0.39317 0.65402 0.67374 0.0
H1975 H 0.39687 0.65887 0.68014 0.0
H1976 H 0.3857 0.6653 0.66799 0.0
H1977 H 0.58152 0.093 0.89784 0.0
C1978 C 0.58149 0.09735 0.89094 0.0
C1979 C 0.58835 0.09695 0.88378 0.0
C1980 C 0.57393 0.1026 0.88892 0.0
H1981 H 0.5931 0.1019 0.86915 0.0
C1982 C 0.5879 0.10226 0.87472 0.0
C1983 C 0.58045 0.10759 0.87261 0.0
C1984 C 0.57353 0.10775 0.87977 0.0
C1985 C 0.56566 0.10182 0.89594 0.0
H1986 H 0.5677 0.11179 0.87819 0.0
C1987 C 0.56892 0.10454 0.90576 0.0
C1988 C 0.56089 0.10374 0.91228 0.0
C1989 C 0.55431 0.09823 0.89273 0.0
H1990 H 0.55158 0.09598 0.88525 0.0
C1991 C 0.54636 0.09738 0.89917 0.0
H1992 H 0.57765 0.1073 0.90828 0.0
C1993 C 0.5496 0.10012 0.90887 0.0
H1994 H 0.54326 0.09957 0.91367 0.0
H1995 H 0.53764 0.09462 0.89662 0.0
H1996 H 0.0857 0.603 0.39925 0.0
C1997 C 0.08545 0.60582 0.39174 0.0
C1998 C 0.09319 0.60517 0.38558 0.0
C1999 C 0.07719 0.60976 0.38815 0.0
H2000 H 0.09847 0.6078 0.371 0.0
C2001 C 0.09261 0.60848 0.37578 0.0
C2002 C 0.08429 0.61221 0.37199 0.0
C2003 C 0.07675 0.61302 0.37828 0.0
C2004 C 0.0685 0.60977 0.39448 0.0
H2005 H 0.07029 0.61587 0.37541 0.0
C2006 C 0.07124 0.61325 0.40418 0.0
C2007 C 0.06288 0.61311 0.41008 0.0
C2008 C 0.0573 0.6061 0.39079 0.0
H2009 H 0.05487 0.60314 0.38345 0.0
C2010 C 0.04904 0.60604 0.39657 0.0
H2011 H 0.07983 0.61603 0.40713 0.0
C2012 C 0.05178 0.60953 0.40612 0.0
H2013 H 0.04519 0.60951 0.41039 0.0
H2014 H 0.04045 0.60324 0.39363 0.0
H2015 H 0.60688 0.85846 0.6412 0.0
C2016 C 0.60628 0.85479 0.63424 0.0
C2017 C 0.61443 0.86016 0.62764 0.0
C2018 C 0.59783 0.84441 0.63214 0.0
H2019 H 0.62031 0.85922 0.61377 0.0
C2020 C 0.61396 0.85515 0.61882 0.0
C2021 C 0.60564 0.84483 0.61654 0.0
C2022 C 0.59755 0.83957 0.6232 0.0
C2023 C 0.58982 0.83824 0.63953 0.0
H2024 H 0.59102 0.83167 0.6214 0.0
C2025 C 0.58555 0.84371 0.64564 0.0
C2026 C 0.57842 0.8378 0.65289 0.0
C2027 C 0.58671 0.82674 0.64075 0.0
H2028 H 0.59001 0.82228 0.63639 0.0
C2029 C 0.5795 0.82085 0.64778 0.0
H2030 H 0.58787 0.85256 0.64485 0.0
C2031 C 0.57538 0.82631 0.65381 0.0
H2032 H 0.56977 0.82151 0.6592 0.0
H2033 H 0.57716 0.81202 0.64861 0.0
H2034 H 0.3906 0.39734 0.86916 0.0
C2035 C 0.39387 0.39584 0.87635 0.0
C2036 C 0.39308 0.40168 0.88429 0.0
C2037 C 0.39814 0.38748 0.8778 0.0
H2038 H 0.39628 0.40378 0.89978 0.0
C2039 C 0.39697 0.39936 0.89364 0.0
C2040 C 0.40138 0.39116 0.89519 0.0
C2041 C 0.40197 0.3853 0.88721 0.0
C2042 C 0.39776 0.38031 0.86973 0.0
H2043 H 0.40537 0.37895 0.88834 0.0
C2044 C 0.40193 0.38476 0.86068 0.0
C2045 C 0.40207 0.37772 0.8534 0.0
C2046 C 0.39337 0.36879 0.87124 0.0
H2047 H 0.38996 0.36515 0.87806 0.0
C2048 C 0.39329 0.36183 0.86397 0.0
H2049 H 0.40541 0.39363 0.85945 0.0
C2050 C 0.39766 0.36624 0.85514 0.0
H2051 H 0.39754 0.36066 0.84961 0.0
H2052 H 0.38987 0.35298 0.86522 0.0
H2053 H 0.88537 0.13666 0.13976 0.0
C2054 C 0.88581 0.13998 0.13238 0.0
C2055 C 0.87795 0.13397 0.12507 0.0
C2056 C 0.89384 0.15051 0.13028 0.0
H2057 H 0.8723 0.13386 0.10991 0.0
C2058 C 0.87836 0.13845 0.11557 0.0
C2059 C 0.88631 0.14889 0.11334 0.0
C2060 C 0.89403 0.15486 0.12071 0.0
C2061 C 0.90178 0.15722 0.13808 0.0
H2062 H 0.90026 0.16288 0.11895 0.0
C2063 C 0.90702 0.1524 0.14523 0.0
C2064 C 0.91486 0.15895 0.15232 0.0
C2065 C 0.90427 0.16863 0.13831 0.0
H2066 H 0.9002 0.17257 0.13306 0.0
C2067 C 0.91196 0.17512 0.14536 0.0
H2068 H 0.90529 0.14364 0.14511 0.0
C2069 C 0.91727 0.17034 0.15229 0.0
H2070 H 0.92317 0.17554 0.15773 0.0
H2071 H 0.9138 0.18388 0.14545 0.0
H2072 H 0.11531 0.06158 0.37116 0.0
C2073 C 0.10856 0.061 0.36576 0.0
C2074 C 0.09868 0.0615 0.36862 0.0
C2075 C 0.11003 0.06047 0.35586 0.0
H2076 H 0.08273 0.06199 0.3636 0.0
C2077 C 0.09015 0.06108 0.3615 0.0
C2078 C 0.09151 0.06062 0.35161 0.0
C2079 C 0.10147 0.06031 0.34884 0.0
C2080 C 0.12092 0.06132 0.35273 0.0
H2081 H 0.10266 0.06014 0.34119 0.0
C2082 C 0.12598 0.05402 0.35643 0.0
C2083 C 0.13619 0.05481 0.35309 0.0
C2084 C 0.12629 0.06956 0.34588 0.0
H2085 H 0.12261 0.07534 0.34301 0.0
C2086 C 0.1365 0.07054 0.34275 0.0
H2087 H 0.1218 0.04755 0.36161 0.0
C2088 C 0.14142 0.06323 0.3463 0.0
H2089 H 0.14939 0.06423 0.34376 0.0
H2090 H 0.14061 0.07698 0.33753 0.0
H2091 H 0.07906 0.80419 0.64999 0.0
C2092 C 0.08376 0.81277 0.64813 0.0
C2093 C 0.07952 0.82081 0.64983 0.0
C2094 C 0.09433 0.8159 0.64451 0.0
H2095 H 0.08277 0.83821 0.64932 0.0
C2096 C 0.08589 0.83196 0.64779 0.0
C2097 C 0.09652 0.83522 0.64434 0.0
C2098 C 0.10063 0.82713 0.64259 0.0
C2099 C 0.09944 0.8077 0.64386 0.0
H2100 H 0.10895 0.82959 0.64015 0.0
C2101 C 0.09449 0.79849 0.63785 0.0
C2102 C 0.09965 0.7909 0.63725 0.0
C2103 C 0.10952 0.80921 0.6493 0.0
H2104 H 0.11344 0.81621 0.65399 0.0
C2105 C 0.11458 0.80167 0.64881 0.0
H2106 H 0.08672 0.79731 0.63362 0.0
C2107 C 0.10972 0.7926 0.64283 0.0
H2108 H 0.11399 0.78703 0.64241 0.0
H2109 H 0.12235 0.80291 0.65303 0.0
H2110 H 0.37534 0.93148 0.84623 0.0
C2111 C 0.38101 0.93062 0.84136 0.0
C2112 C 0.38968 0.92736 0.84514 0.0
C2113 C 0.37941 0.93238 0.83128 0.0
H2114 H 0.40324 0.92302 0.84161 0.0
C2115 C 0.39674 0.92582 0.83875 0.0
C2116 C 0.39522 0.92739 0.82868 0.0
C2117 C 0.3867 0.93091 0.82503 0.0
C2118 C 0.36963 0.93487 0.82717 0.0
H2119 H 0.38551 0.93212 0.81726 0.0
C2120 C 0.36607 0.94222 0.83168 0.0
C2121 C 0.3568 0.94445 0.8276 0.0
C2122 C 0.36363 0.92964 0.81866 0.0
H2123 H 0.3659 0.92372 0.81515 0.0
C2124 C 0.35446 0.93178 0.81465 0.0
H2125 H 0.37063 0.94638 0.8382 0.0
C2126 C 0.35107 0.93912 0.81905 0.0
H2127 H 0.3438 0.94047 0.81584 0.0
H2128 H 0.3499 0.92765 0.80813 0.0
H2129 H 0.42948 0.19836 0.14216 0.0
C2130 C 0.42435 0.19013 0.1397 0.0
C2131 C 0.42752 0.18121 0.14245 0.0
C2132 C 0.41415 0.18835 0.13435 0.0
H2133 H 0.42258 0.16354 0.14185 0.0
C2134 C 0.42053 0.17056 0.13939 0.0
C2135 C 0.41036 0.16868 0.134 0.0
C2136 C 0.40722 0.17763 0.13151 0.0
C2137 C 0.40984 0.19726 0.13304 0.0
H2138 H 0.39923 0.17623 0.1276 0.0
C2139 C 0.41497 0.20672 0.12719 0.0
C2140 C 0.41056 0.21502 0.12605 0.0
C2141 C 0.40036 0.19618 0.13776 0.0
H2142 H 0.39632 0.18897 0.1423 0.0
C2143 C 0.39605 0.2044 0.13673 0.0
H2144 H 0.42227 0.20756 0.12351 0.0
C2145 C 0.40108 0.21374 0.13092 0.0
H2146 H 0.3974 0.21989 0.13008 0.0
H2147 H 0.38873 0.20349 0.1404 0.0
H2148 H 0.11133 0.91511 0.1492 0.0
C2149 C 0.12017 0.91893 0.15129 0.0
C2150 C 0.12707 0.91313 0.15024 0.0
C2151 C 0.12475 0.92982 0.15459 0.0
H2152 H 0.14388 0.91381 0.15167 0.0
C2153 C 0.13857 0.91825 0.15263 0.0
C2154 C 0.14336 0.92923 0.15564 0.0
C2155 C 0.13634 0.93489 0.15677 0.0
C2156 C 0.11762 0.93629 0.15493 0.0
H2157 H 0.13994 0.9434 0.15899 0.0
C2158 C 0.1073 0.93183 0.15918 0.0
C2159 C 0.10061 0.93806 0.15936 0.0
C2160 C 0.12114 0.94704 0.15085 0.0
H2161 H 0.12894 0.95063 0.1474 0.0
C2162 C 0.11455 0.95322 0.15101 0.0
H2163 H 0.1045 0.92354 0.16232 0.0
C2164 C 0.10438 0.9488 0.15524 0.0
H2165 H 0.09951 0.95386 0.15539 0.0
H2166 H 0.11735 0.96149 0.14786 0.0
H2167 H 0.32352 0.85247 0.4166 0.0
C2168 C 0.32152 0.84431 0.41989 0.0
C2169 C 0.32534 0.83685 0.41598 0.0
C2170 C 0.31585 0.84155 0.42847 0.0
H2171 H 0.32596 0.82065 0.41763 0.0
C2172 C 0.32302 0.82643 0.42056 0.0
C2173 C 0.31747 0.82359 0.42915 0.0
C2174 C 0.31383 0.83116 0.43301 0.0
C2175 C 0.31287 0.84979 0.43325 0.0
H2176 H 0.30951 0.82899 0.43963 0.0
C2177 C 0.30742 0.856 0.42798 0.0
C2178 C 0.30427 0.86343 0.43278 0.0
C2179 C 0.31542 0.85135 0.4433 0.0
H2180 H 0.31978 0.84684 0.44751 0.0
C2181 C 0.31249 0.85881 0.44803 0.0
H2182 H 0.30532 0.8548 0.42025 0.0
C2183 C 0.30693 0.86478 0.44284 0.0
H2184 H 0.30481 0.87058 0.44669 0.0
H2185 H 0.31454 0.85996 0.45576 0.0
H2186 H 0.38311 0.10635 0.6427 0.0
C2187 C 0.37446 0.10262 0.64439 0.0
C2188 C 0.36713 0.10785 0.64123 0.0
C2189 C 0.37053 0.09242 0.64948 0.0
H2190 H 0.35014 0.10673 0.64059 0.0
C2191 C 0.35585 0.10282 0.6432 0.0
C2192 C 0.35179 0.0926 0.64817 0.0
C2193 C 0.35921 0.08751 0.6514 0.0
C2194 C 0.378 0.08646 0.65227 0.0
H2195 H 0.3561 0.07956 0.65516 0.0
C2196 C 0.38837 0.09169 0.65748 0.0
C2197 C 0.39507 0.08571 0.66054 0.0
C2198 C 0.37458 0.07532 0.64989 0.0
H2199 H 0.3667 0.07115 0.6458 0.0
C2200 C 0.3813 0.06945 0.65272 0.0
H2201 H 0.39099 0.10023 0.65947 0.0
C2202 C 0.39145 0.07457 0.65805 0.0
H2203 H 0.39651 0.06982 0.66018 0.0
H2204 H 0.37861 0.06088 0.65083 0.0
H2205 H 0.17857 0.13946 0.90772 0.0
C2206 C 0.17991 0.14684 0.91163 0.0
C2207 C 0.17358 0.15323 0.90874 0.0
C2208 C 0.18735 0.14951 0.92 0.0
H2209 H 0.17018 0.16746 0.91193 0.0
C2210 C 0.17507 0.16255 0.91409 0.0
C2211 C 0.18236 0.16531 0.92247 0.0
C2212 C 0.18855 0.15882 0.9253 0.0
C2213 C 0.19317 0.14213 0.92375 0.0
H2214 H 0.19426 0.16097 0.93175 0.0
C2215 C 0.19823 0.13756 0.91753 0.0
C2216 C 0.20408 0.13099 0.92141 0.0
C2217 C 0.1937 0.13968 0.93379 0.0
H2218 H 0.18965 0.1428 0.93874 0.0
C2219 C 0.19934 0.13309 0.9376 0.0
H2220 H 0.19794 0.13937 0.90979 0.0
C2221 C 0.20455 0.12883 0.93148 0.0
H2222 H 0.20886 0.1237 0.93462 0.0
H2223 H 0.19968 0.13128 0.94533 0.0
H2224 H 0.82827 0.35329 0.90095 0.0
C2225 C 0.82612 0.34501 0.90401 0.0
C2226 C 0.82947 0.33746 0.89966 0.0
C2227 C 0.82079 0.34218 0.91276 0.0
H2228 H 0.82952 0.32103 0.90066 0.0
C2229 C 0.82695 0.32688 0.90394 0.0
C2230 C 0.82175 0.32397 0.91271 0.0
C2231 C 0.81863 0.33164 0.91704 0.0
C2232 C 0.81841 0.3505 0.91799 0.0
H2233 H 0.81464 0.32946 0.92383 0.0
C2234 C 0.81274 0.35681 0.91324 0.0
C2235 C 0.81031 0.36446 0.91843 0.0
C2236 C 0.82184 0.3521 0.92791 0.0
H2237 H 0.82634 0.34747 0.93171 0.0
C2238 C 0.81963 0.35978 0.93302 0.0
H2239 H 0.80995 0.35551 0.90562 0.0
C2240 C 0.81391 0.36591 0.92835 0.0
H2241 H 0.81242 0.37189 0.93249 0.0
H2242 H 0.82238 0.36099 0.94065 0.0
H2243 H 0.88802 0.61196 0.12697 0.0
C2244 C 0.87952 0.60777 0.129 0.0
C2245 C 0.87174 0.61271 0.1268 0.0
C2246 C 0.87628 0.5973 0.13361 0.0
H2247 H 0.85463 0.61082 0.12744 0.0
C2248 C 0.86073 0.60717 0.12938 0.0
C2249 C 0.85734 0.59666 0.13389 0.0
C2250 C 0.86517 0.59177 0.13597 0.0
C2251 C 0.88434 0.59187 0.13564 0.0
H2252 H 0.86265 0.58368 0.1395 0.0
C2253 C 0.89461 0.59724 0.14094 0.0
C2254 C 0.90206 0.59185 0.14314 0.0
C2255 C 0.88163 0.58113 0.13243 0.0
H2256 H 0.87379 0.57686 0.12831 0.0
C2257 C 0.88903 0.57582 0.13445 0.0
H2258 H 0.89671 0.60552 0.14344 0.0
C2259 C 0.89915 0.5811 0.13979 0.0
H2260 H 0.90459 0.57665 0.14147 0.0
H2261 H 0.88686 0.56753 0.13196 0.0
H2262 H 0.68807 0.65052 0.4115 0.0
C2263 C 0.68944 0.6577 0.41571 0.0
C2264 C 0.68302 0.66411 0.41332 0.0
C2265 C 0.69703 0.66006 0.42398 0.0
H2266 H 0.67966 0.67812 0.41728 0.0
C2267 C 0.6846 0.67318 0.41906 0.0
C2268 C 0.69201 0.67559 0.42737 0.0
C2269 C 0.69827 0.66906 0.42973 0.0
C2270 C 0.70294 0.65262 0.42723 0.0
H2271 H 0.70404 0.67093 0.43613 0.0
C2272 C 0.70819 0.64865 0.42068 0.0
C2273 C 0.71419 0.64206 0.42411 0.0
C2274 C 0.70342 0.64954 0.43714 0.0
H2275 H 0.69925 0.65221 0.44231 0.0
C2276 C 0.70919 0.6429 0.44049 0.0
H2277 H 0.70794 0.65096 0.41303 0.0
C2278 C 0.71459 0.63924 0.43406 0.0
H2279 H 0.71902 0.63409 0.43686 0.0
H2280 H 0.70948 0.6406 0.44813 0.0
H2281 H 0.89283 0.45475 0.33602 0.0
C2282 C 0.89876 0.45423 0.33124 0.0
C2283 C 0.90719 0.45068 0.33508 0.0
C2284 C 0.89771 0.45672 0.32125 0.0
H2285 H 0.92097 0.44661 0.33178 0.0
C2286 C 0.9146 0.44956 0.32884 0.0
C2287 C 0.91358 0.45171 0.31881 0.0
C2288 C 0.90527 0.45553 0.31511 0.0
C2289 C 0.88821 0.45966 0.31711 0.0
H2290 H 0.90448 0.45724 0.30738 0.0
C2291 C 0.88439 0.46646 0.32213 0.0
C2292 C 0.87509 0.4688 0.31831 0.0
C2293 C 0.8826 0.45528 0.3082 0.0
H2294 H 0.88508 0.44981 0.30426 0.0
C2295 C 0.87347 0.45761 0.30437 0.0
H2296 H 0.88873 0.47003 0.32892 0.0
C2297 C 0.86971 0.46426 0.30938 0.0
H2298 H 0.86239 0.46562 0.30632 0.0
H2299 H 0.86917 0.45409 0.29756 0.0
H2300 H 0.61211 0.5555 0.88257 0.0
C2301 C 0.60467 0.55439 0.87786 0.0
C2302 C 0.5957 0.55607 0.88147 0.0
C2303 C 0.60425 0.55178 0.86805 0.0
H2304 H 0.57954 0.55672 0.87787 0.0
C2305 C 0.58625 0.55494 0.87523 0.0
C2306 C 0.58575 0.55251 0.86542 0.0
C2307 C 0.59475 0.55088 0.86189 0.0
C2308 C 0.61395 0.55071 0.86398 0.0
H2309 H 0.59438 0.549 0.8543 0.0
C2310 C 0.61932 0.54409 0.86866 0.0
C2311 C 0.62807 0.54267 0.86434 0.0
C2312 C 0.6177 0.55618 0.85515 0.0
H2313 H 0.61385 0.56145 0.85148 0.0
C2314 C 0.62649 0.55495 0.85098 0.0
H2315 H 0.61644 0.53974 0.87541 0.0
C2316 C 0.63161 0.5482 0.85549 0.0
H2317 H 0.63841 0.54735 0.85209 0.0
H2318 H 0.62932 0.55921 0.84419 0.0
H2319 H 0.90323 0.63209 0.88371 0.0
C2320 C 0.90188 0.6377 0.88843 0.0
C2321 C 0.89122 0.635 0.89168 0.0
C2322 C 0.9108 0.64745 0.89138 0.0
H2323 H 0.88131 0.6398 0.90072 0.0
C2324 C 0.88951 0.642 0.8981 0.0
C2325 C 0.8983 0.6516 0.9014 0.0
C2326 C 0.90885 0.65441 0.89782 0.0
C2327 C 0.92224 0.65009 0.88816 0.0
H2328 H 0.9156 0.6619 0.90023 0.0
C2329 C 0.92388 0.64739 0.8788 0.0
C2330 C 0.93472 0.6499 0.8759 0.0
C2331 C 0.93167 0.6552 0.89456 0.0
H2332 H 0.93081 0.65709 0.9019 0.0
C2333 C 0.94238 0.65777 0.89168 0.0
H2334 H 0.9168 0.64354 0.87368 0.0
C2335 C 0.94392 0.65517 0.88243 0.0
H2336 H 0.95234 0.65709 0.88044 0.0
H2337 H 0.94954 0.66168 0.8967 0.0
H2338 H 0.10141 0.11676 0.63304 0.0
C2339 C 0.09747 0.11693 0.63958 0.0
C2340 C 0.09716 0.10927 0.6472 0.0
C2341 C 0.09342 0.12527 0.64066 0.0
H2342 H 0.09247 0.10413 0.66179 0.0
C2343 C 0.09253 0.10989 0.65585 0.0
C2344 C 0.08832 0.11807 0.65703 0.0
C2345 C 0.08869 0.12564 0.64933 0.0
C2346 C 0.09496 0.13417 0.63312 0.0
H2347 H 0.08537 0.13192 0.6501 0.0
C2348 C 0.09272 0.13181 0.62315 0.0
C2349 C 0.0945 0.14041 0.61612 0.0
C2350 C 0.09896 0.14523 0.63595 0.0
H2351 H 0.10093 0.14733 0.64355 0.0
C2352 C 0.10068 0.15374 0.62902 0.0
H2353 H 0.08966 0.12333 0.62087 0.0
C2354 C 0.09848 0.15138 0.61918 0.0
H2355 H 0.09978 0.15814 0.61394 0.0
H2356 H 0.10376 0.16222 0.63129 0.0
H2357 H 0.63102 0.37722 0.39171 0.0
C2358 C 0.62487 0.37735 0.38594 0.0
C2359 C 0.62613 0.38729 0.38084 0.0
C2360 C 0.61596 0.36749 0.38334 0.0
H2361 H 0.6196 0.39482 0.36888 0.0
C2362 C 0.61832 0.38729 0.37313 0.0
C2363 C 0.60938 0.37751 0.37041 0.0
C2364 C 0.60818 0.3677 0.3757 0.0
C2365 C 0.61528 0.35676 0.38794 0.0
H2366 H 0.60124 0.36012 0.37375 0.0
C2367 C 0.61658 0.35538 0.39811 0.0
C2368 C 0.61562 0.34501 0.40227 0.0
C2369 C 0.6133 0.34775 0.38199 0.0
H2370 H 0.61247 0.34862 0.37415 0.0
C2371 C 0.61253 0.33757 0.38606 0.0
H2372 H 0.618 0.36223 0.40277 0.0
C2373 C 0.61366 0.33618 0.39611 0.0
H2374 H 0.6131 0.32818 0.39907 0.0
H2375 H 0.61107 0.33072 0.38141 0.0
H2376 H 0.38407 0.88241 0.13416 0.0
C2377 C 0.38835 0.88237 0.14124 0.0
C2378 C 0.3886 0.88983 0.14826 0.0
C2379 C 0.39288 0.87433 0.14359 0.0
H2380 H 0.39402 0.89514 0.16299 0.0
C2381 C 0.39385 0.88946 0.15753 0.0
C2382 C 0.39841 0.88151 0.16 0.0
C2383 C 0.39793 0.874 0.15298 0.0
C2384 C 0.39161 0.86565 0.1366 0.0
H2385 H 0.40144 0.86783 0.15487 0.0
C2386 C 0.39407 0.86829 0.12681 0.0
C2387 C 0.39331 0.85995 0.12046 0.0
C2388 C 0.38803 0.85456 0.13984 0.0
H2389 H 0.38588 0.85226 0.14727 0.0
C2390 C 0.38708 0.84629 0.13354 0.0
H2391 H 0.39693 0.87681 0.12424 0.0
C2392 C 0.38975 0.84895 0.12393 0.0
H2393 H 0.38893 0.84237 0.11917 0.0
H2394 H 0.3843 0.83779 0.13611 0.0
H2395 H 0.88835 0.39022 0.6178 0.0
C2396 C 0.89155 0.39015 0.6253 0.0
C2397 C 0.89067 0.3976 0.6318 0.0
C2398 C 0.8962 0.3824 0.62852 0.0
H2399 H 0.8937 0.40281 0.64666 0.0
C2400 C 0.89456 0.39725 0.64158 0.0
C2401 C 0.89916 0.38954 0.64496 0.0
C2402 C 0.90011 0.38227 0.63834 0.0
C2403 C 0.89637 0.37396 0.62184 0.0
H2404 H 0.9036 0.37627 0.64091 0.0
C2405 C 0.89916 0.37672 0.61213 0.0
C2406 C 0.89944 0.36865 0.60596 0.0
C2407 C 0.89363 0.36298 0.6252 0.0
H2408 H 0.89116 0.3605 0.63252 0.0
C2409 C 0.89385 0.35498 0.6191 0.0
H2410 H 0.90139 0.38516 0.60945 0.0
C2411 C 0.89676 0.35778 0.60957 0.0
H2412 H 0.89673 0.35137 0.60496 0.0
H2413 H 0.89169 0.34655 0.62177 0.0
H2414 H 0.40809 0.13016 0.3907 0.0
C2415 C 0.40649 0.13548 0.39555 0.0
C2416 C 0.39553 0.13287 0.39805 0.0
C2417 C 0.41534 0.14476 0.39942 0.0
H2418 H 0.38499 0.13738 0.40656 0.0
C2419 C 0.39345 0.1395 0.40459 0.0
C2420 C 0.40215 0.14858 0.40885 0.0
C2421 C 0.41304 0.15129 0.40604 0.0
C2422 C 0.42703 0.14734 0.39689 0.0
H2423 H 0.41976 0.15837 0.40918 0.0
C2424 C 0.42936 0.14542 0.3875 0.0
C2425 C 0.44041 0.14782 0.38523 0.0
C2426 C 0.43597 0.15159 0.40395 0.0
H2427 H 0.43455 0.15286 0.41131 0.0
C2428 C 0.44691 0.15406 0.4017 0.0
H2429 H 0.42266 0.14226 0.3819 0.0
C2430 C 0.44913 0.15223 0.39242 0.0
H2431 H 0.45769 0.15404 0.39092 0.0
H2432 H 0.45369 0.15731 0.40721 0.0
H2433 H 0.57712 0.59209 0.15208 0.0
C2434 C 0.57798 0.59667 0.14523 0.0
C2435 C 0.58565 0.59631 0.13885 0.0
C2436 C 0.57081 0.60223 0.14242 0.0
H2437 H 0.59254 0.60186 0.12503 0.0
C2438 C 0.58643 0.60194 0.12984 0.0
C2439 C 0.57927 0.60738 0.12683 0.0
C2440 C 0.57157 0.60761 0.13323 0.0
C2441 C 0.5618 0.60152 0.14861 0.0
H2442 H 0.56589 0.61164 0.13094 0.0
C2443 C 0.56391 0.6033 0.15869 0.0
C2444 C 0.55521 0.60248 0.16446 0.0
C2445 C 0.55088 0.59887 0.1444 0.0
H2446 H 0.54897 0.59728 0.13671 0.0
C2447 C 0.54227 0.59806 0.15008 0.0
H2448 H 0.57228 0.6053 0.16201 0.0
C2449 C 0.54439 0.59986 0.16003 0.0
H2450 H 0.53757 0.59935 0.16423 0.0
H2451 H 0.53391 0.59604 0.14675 0.0
H2452 H 0.11134 0.86413 0.89905 0.0
C2453 C 0.10511 0.86437 0.8934 0.0
C2454 C 0.10681 0.87419 0.88795 0.0
C2455 C 0.09561 0.85479 0.89136 0.0
H2456 H 0.10051 0.88172 0.87586 0.0
C2457 C 0.0989 0.87434 0.88039 0.0
C2458 C 0.08936 0.86483 0.87821 0.0
C2459 C 0.0877 0.85518 0.88389 0.0
C2460 C 0.09431 0.8441 0.89642 0.0
H2461 H 0.08026 0.84786 0.88241 0.0
C2462 C 0.09657 0.84339 0.90656 0.0
C2463 C 0.09513 0.83313 0.9112 0.0
C2464 C 0.09083 0.83446 0.89098 0.0
H2465 H 0.08927 0.83476 0.88316 0.0
C2466 C 0.08951 0.82434 0.89552 0.0
H2467 H 0.09915 0.85073 0.91085 0.0
C2468 C 0.09162 0.82365 0.90554 0.0
H2469 H 0.09064 0.81569 0.90885 0.0
H2470 H 0.08689 0.81699 0.89124 0.0
H2471 H 0.89723 0.95552 0.64484 0.0
C2472 C 0.901 0.95265 0.65116 0.0
C2473 C 0.9029 0.94287 0.6507 0.0
C2474 C 0.9043 0.95891 0.65964 0.0
H2475 H 0.90983 0.93197 0.65835 0.0
C2476 C 0.90815 0.9394 0.65877 0.0
C2477 C 0.91167 0.9456 0.66722 0.0
C2478 C 0.90955 0.95526 0.66767 0.0
C2479 C 0.90316 0.96972 0.65987 0.0
H2480 H 0.91233 0.96014 0.67416 0.0
C2481 C 0.89306 0.97089 0.65675 0.0
C2482 C 0.8922 0.98127 0.65692 0.0
C2483 C 0.91237 0.97903 0.66314 0.0
H2484 H 0.92026 0.9784 0.66547 0.0
C2485 C 0.91157 0.98929 0.6633 0.0
H2486 H 0.8859 0.96376 0.65422 0.0
C2487 C 0.90158 0.99043 0.66022 0.0
H2488 H 0.90115 0.99847 0.66057 0.0
H2489 H 0.91872 0.9964 0.66583 0.0
H2490 H 0.93615 0.19595 0.39694 0.0
C2491 C 0.92792 0.19017 0.39862 0.0
C2492 C 0.92242 0.18093 0.39283 0.0
C2493 C 0.92309 0.19175 0.40682 0.0
H2494 H 0.90776 0.16613 0.39083 0.0
C2495 C 0.91191 0.17338 0.3952 0.0
C2496 C 0.9069 0.17479 0.40335 0.0
C2497 C 0.91254 0.18407 0.40913 0.0
C2498 C 0.9296 0.20093 0.41337 0.0
H2499 H 0.9089 0.18514 0.41557 0.0
C2500 C 0.92537 0.20879 0.41573 0.0
C2501 C 0.93206 0.2179 0.42141 0.0
C2502 C 0.94037 0.20204 0.41702 0.0
H2503 H 0.94375 0.19603 0.41536 0.0
C2504 C 0.94687 0.21086 0.42286 0.0
H2505 H 0.91713 0.20808 0.41281 0.0
C2506 C 0.9428 0.21878 0.425 0.0
H2507 H 0.94804 0.22562 0.42949 0.0
H2508 H 0.95515 0.21162 0.42566 0.0
H2509 H 0.60609 0.04493 0.16713 0.0
C2510 C 0.60261 0.04803 0.17258 0.0
C2511 C 0.59797 0.05586 0.1698 0.0
C2512 C 0.60209 0.04371 0.18219 0.0
H2513 H 0.58942 0.06562 0.17441 0.0
C2514 C 0.59294 0.05953 0.17664 0.0
C2515 C 0.59233 0.05543 0.18625 0.0
C2516 C 0.59713 0.04768 0.18903 0.0
C2517 C 0.60576 0.03439 0.18488 0.0
H2518 H 0.59667 0.04449 0.19645 0.0
C2519 C 0.61522 0.03371 0.18109 0.0
C2520 C 0.61834 0.02466 0.18358 0.0
C2521 C 0.59945 0.0258 0.19108 0.0
H2522 H 0.59196 0.02581 0.19389 0.0
C2523 C 0.6025 0.01688 0.19355 0.0
H2524 H 0.62024 0.04026 0.17636 0.0
C2525 C 0.61184 0.01629 0.18985 0.0
H2526 H 0.61385 0.00913 0.19176 0.0
H2527 H 0.59752 0.01031 0.19828 0.0
H2528 H 0.55992 0.81432 0.89468 0.0
C2529 C 0.56794 0.82115 0.89448 0.0
C2530 C 0.57104 0.8273 0.8858 0.0
C2531 C 0.57491 0.8241 0.90303 0.0
H2532 H 0.58353 0.84143 0.87926 0.0
C2533 C 0.58134 0.83631 0.88578 0.0
C2534 C 0.58836 0.83941 0.89432 0.0
C2535 C 0.58509 0.8332 0.90293 0.0
C2536 C 0.57089 0.81873 0.91237 0.0
H2537 H 0.59029 0.83563 0.90964 0.0
C2538 C 0.57239 0.80906 0.91572 0.0
C2539 C 0.56887 0.80433 0.92487 0.0
C2540 C 0.56573 0.82358 0.9181 0.0
H2541 H 0.56454 0.83105 0.9156 0.0
C2542 C 0.5621 0.81886 0.92709 0.0
H2543 H 0.5765 0.8054 0.91133 0.0
C2544 C 0.56367 0.80932 0.93047 0.0
H2545 H 0.56074 0.80578 0.93747 0.0
H2546 H 0.55809 0.82262 0.93146 0.0
H2547 H 0.87863 0.10956 0.85248 0.0
C2548 C 0.87034 0.10316 0.85253 0.0
C2549 C 0.86472 0.10076 0.86112 0.0
C2550 C 0.86512 0.09757 0.84395 0.0
H2551 H 0.84935 0.09115 0.86757 0.0
C2552 C 0.85387 0.09266 0.86107 0.0
C2553 C 0.8485 0.08707 0.85257 0.0
C2554 C 0.85421 0.08952 0.84405 0.0
C2555 C 0.87078 0.10045 0.83473 0.0
H2556 H 0.85015 0.08516 0.83748 0.0
C2557 C 0.88195 0.10158 0.83444 0.0
C2558 C 0.88707 0.10387 0.82556 0.0
C2559 C 0.86489 0.10192 0.8261 0.0
H2560 H 0.85636 0.10127 0.82613 0.0
C2561 C 0.86999 0.10435 0.81733 0.0
H2562 H 0.88651 0.1003 0.84102 0.0
C2563 C 0.88097 0.10528 0.81704 0.0
H2564 H 0.88475 0.1072 0.81014 0.0
H2565 H 0.86539 0.10551 0.81074 0.0
H2566 H 0.68433 0.15453 0.63328 0.0
C2567 C 0.68257 0.16042 0.62829 0.0
C2568 C 0.67245 0.16183 0.62858 0.0
C2569 C 0.6905 0.16678 0.6218 0.0
H2570 H 0.66261 0.17096 0.62275 0.0
C2571 C 0.67034 0.16974 0.6224 0.0
C2572 C 0.67822 0.17639 0.61605 0.0
C2573 C 0.68818 0.1747 0.61563 0.0
C2574 C 0.70148 0.16567 0.62188 0.0
H2575 H 0.69426 0.17976 0.61069 0.0
C2576 C 0.70231 0.15525 0.623 0.0
C2577 C 0.71278 0.15435 0.62342 0.0
C2578 C 0.71129 0.17516 0.6211 0.0
H2579 H 0.71102 0.1833 0.62044 0.0
C2580 C 0.72164 0.17429 0.62139 0.0
H2581 H 0.69484 0.14786 0.62364 0.0
C2582 C 0.72241 0.16399 0.62254 0.0
H2583 H 0.73056 0.16358 0.62267 0.0
H2584 H 0.72912 0.18166 0.62077 0.0
H2585 H 0.61253 0.8868 0.37883 0.0
C2586 C 0.62001 0.89417 0.37998 0.0
C2587 C 0.62662 0.89539 0.38879 0.0
C2588 C 0.62331 0.90215 0.37245 0.0
H2589 H 0.64188 0.90562 0.39663 0.0
C2590 C 0.63646 0.90487 0.39007 0.0
C2591 C 0.63985 0.91295 0.38263 0.0
C2592 C 0.63315 0.91157 0.3739 0.0
C2593 C 0.61719 0.90016 0.36272 0.0
H2594 H 0.6357 0.91775 0.36811 0.0
C2595 C 0.60549 0.89666 0.36161 0.0
C2596 C 0.59986 0.89456 0.3523 0.0
C2597 C 0.62317 0.90154 0.35443 0.0
H2598 H 0.63216 0.90408 0.35508 0.0
C2599 C 0.61763 0.89947 0.34523 0.0
H2600 H 0.60079 0.89557 0.36795 0.0
C2601 C 0.60607 0.89599 0.34415 0.0
H2602 H 0.60198 0.89457 0.3369 0.0
H2603 H 0.62232 0.90055 0.3389 0.0
H2604 H 0.83295 0.86424 0.08805 0.0
C2605 C 0.82641 0.86695 0.08962 0.0
C2606 C 0.82701 0.87176 0.0986 0.0
C2607 C 0.81787 0.86637 0.08242 0.0
H2608 H 0.81934 0.87957 0.10731 0.0
C2609 C 0.8188 0.87572 0.10045 0.0
C2610 C 0.81014 0.87514 0.09343 0.0
C2611 C 0.8097 0.87037 0.08448 0.0
C2612 C 0.81794 0.86251 0.07248 0.0
H2613 H 0.80299 0.86984 0.07906 0.0
C2614 C 0.82064 0.85329 0.07097 0.0
C2615 C 0.82047 0.84978 0.06145 0.0
C2616 C 0.81538 0.86828 0.06434 0.0
H2617 H 0.81358 0.87555 0.0652 0.0
C2618 C 0.81531 0.86488 0.05496 0.0
H2619 H 0.82258 0.84872 0.07714 0.0
C2620 C 0.8178 0.85571 0.05351 0.0
H2621 H 0.81779 0.85335 0.04613 0.0
H2622 H 0.81337 0.86943 0.04878 0.0
H2623 H 0.18603 0.65212 0.13442 0.0
C2624 C 0.18414 0.65817 0.12975 0.0
C2625 C 0.17375 0.659 0.12998 0.0
C2626 C 0.19221 0.66534 0.12373 0.0
H2627 H 0.16352 0.66789 0.12455 0.0
C2628 C 0.17147 0.66712 0.12422 0.0
C2629 C 0.17946 0.67453 0.11835 0.0
C2630 C 0.18973 0.67345 0.11798 0.0
C2631 C 0.20348 0.66491 0.12396 0.0
H2632 H 0.19591 0.67914 0.11344 0.0
C2633 C 0.20486 0.65474 0.12424 0.0
C2634 C 0.21561 0.65446 0.1248 0.0
C2635 C 0.21302 0.67477 0.12418 0.0
H2636 H 0.21229 0.68271 0.12417 0.0
C2637 C 0.22365 0.67452 0.12465 0.0
H2638 H 0.1976 0.64707 0.12409 0.0
C2639 C 0.22496 0.66447 0.12497 0.0
H2640 H 0.23331 0.66453 0.12526 0.0
H2641 H 0.23091 0.68217 0.12482 0.0
H2642 H 0.10987 0.384 0.86822 0.0
C2643 C 0.11759 0.39039 0.87092 0.0
C2644 C 0.12233 0.3892 0.88024 0.0
C2645 C 0.12307 0.39953 0.8649 0.0
H2646 H 0.13627 0.3964 0.89068 0.0
C2647 C 0.13251 0.39739 0.88357 0.0
C2648 C 0.1382 0.4065 0.8776 0.0
C2649 C 0.13333 0.40756 0.86832 0.0
C2650 C 0.1187 0.40028 0.85472 0.0
H2651 H 0.13773 0.41442 0.86356 0.0
C2652 C 0.10751 0.39898 0.85245 0.0
C2653 C 0.10366 0.40016 0.84275 0.0
C2654 C 0.12588 0.40244 0.84717 0.0
H2655 H 0.13446 0.4033 0.8487 0.0
C2656 C 0.12204 0.40339 0.83757 0.0
H2657 H 0.10195 0.39744 0.85823 0.0
C2658 C 0.11103 0.40231 0.83536 0.0
H2659 H 0.10826 0.40306 0.82783 0.0
H2660 H 0.12762 0.40501 0.83181 0.0
H2661 H 0.32116 0.35051 0.59202 0.0
C2662 C 0.3146 0.35316 0.59361 0.0
C2663 C 0.31538 0.35831 0.60245 0.0
C2664 C 0.3058 0.35214 0.58655 0.0
H2665 H 0.30783 0.36637 0.61104 0.0
C2666 C 0.30715 0.36225 0.60429 0.0
C2667 C 0.29826 0.36126 0.59741 0.0
C2668 C 0.29759 0.35608 0.58862 0.0
C2669 C 0.3056 0.34779 0.57674 0.0
H2670 H 0.29066 0.35518 0.58334 0.0
C2671 C 0.30879 0.33883 0.5755 0.0
C2672 C 0.30848 0.33489 0.56613 0.0
C2673 C 0.30235 0.35287 0.56845 0.0
H2674 H 0.30017 0.35996 0.56906 0.0
C2675 C 0.30208 0.34903 0.5592 0.0
H2676 H 0.31126 0.33477 0.58179 0.0
C2677 C 0.30508 0.34012 0.55804 0.0
H2678 H 0.30494 0.33743 0.55074 0.0
H2679 H 0.2996 0.35305 0.5529 0.0
H2680 H 0.09425 0.53754 0.66132 0.0
C2681 C 0.09097 0.54049 0.66701 0.0
C2682 C 0.08685 0.54882 0.66473 0.0
C2683 C 0.09015 0.53552 0.6764 0.0
H2684 H 0.07883 0.55874 0.66999 0.0
C2685 C 0.08198 0.55229 0.67184 0.0
C2686 C 0.08106 0.54755 0.68122 0.0
C2687 C 0.08541 0.53937 0.68352 0.0
C2688 C 0.09322 0.5257 0.67851 0.0
H2689 H 0.08475 0.53574 0.69079 0.0
C2690 C 0.10209 0.52449 0.67412 0.0
C2691 C 0.10435 0.51481 0.67576 0.0
C2692 C 0.0868 0.5171 0.68466 0.0
H2693 H 0.07971 0.51746 0.68793 0.0
C2694 C 0.08921 0.50769 0.6865 0.0
H2695 H 0.10713 0.53095 0.66932 0.0
C2696 C 0.09788 0.50653 0.6821 0.0
H2697 H 0.09953 0.49911 0.68368 0.0
H2698 H 0.08422 0.50119 0.69128 0.0
H2699 H 0.4107 0.46668 0.14169 0.0
C2700 C 0.41466 0.46322 0.14745 0.0
C2701 C 0.41817 0.45478 0.14536 0.0
C2702 C 0.41683 0.46754 0.15685 0.0
H2703 H 0.42637 0.44406 0.15094 0.0
C2704 C 0.4237 0.45057 0.15266 0.0
C2705 C 0.42593 0.45473 0.16207 0.0
C2706 C 0.42233 0.46311 0.16414 0.0
C2707 C 0.41417 0.4772 0.15898 0.0
H2708 H 0.42409 0.46642 0.17138 0.0
C2709 C 0.40383 0.47784 0.1558 0.0
C2710 C 0.40136 0.48685 0.15836 0.0
C2711 C 0.4221 0.48588 0.1644 0.0
H2712 H 0.43021 0.48578 0.16675 0.0
C2713 C 0.41973 0.49486 0.1668 0.0
H2714 H 0.3976 0.47121 0.15167 0.0
C2715 C 0.40942 0.49532 0.16387 0.0
H2716 H 0.40777 0.50239 0.16584 0.0
H2717 H 0.42591 0.50148 0.17097 0.0
H2718 H 0.58609 0.31066 0.13528 0.0
C2719 C 0.59047 0.31932 0.13346 0.0
C2720 C 0.58607 0.32707 0.13565 0.0
C2721 C 0.60081 0.32282 0.12934 0.0
H2722 H 0.58866 0.34429 0.13535 0.0
C2723 C 0.59199 0.33831 0.13353 0.0
C2724 C 0.60247 0.34198 0.1297 0.0
C2725 C 0.60675 0.33414 0.1275 0.0
C2726 C 0.60601 0.31487 0.12778 0.0
H2727 H 0.61492 0.33686 0.12469 0.0
C2728 C 0.60057 0.30569 0.12182 0.0
C2729 C 0.60604 0.29872 0.11986 0.0
C2730 C 0.61676 0.31677 0.13203 0.0
H2731 H 0.62106 0.32373 0.1367 0.0
C2732 C 0.62207 0.30971 0.13031 0.0
H2733 H 0.59234 0.30427 0.11841 0.0
C2734 C 0.61679 0.30079 0.12423 0.0
H2735 H 0.62112 0.29547 0.12295 0.0
H2736 H 0.63034 0.31122 0.13364 0.0
H2737 H 0.92429 0.69727 0.63459 0.0
C2738 C 0.91889 0.68931 0.63173 0.0
C2739 C 0.92173 0.68006 0.6337 0.0
C2740 C 0.90872 0.68816 0.62659 0.0
H2741 H 0.9163 0.66249 0.63209 0.0
C2742 C 0.91443 0.66974 0.63019 0.0
C2743 C 0.90422 0.66846 0.62512 0.0
C2744 C 0.90143 0.67774 0.62333 0.0
C2745 C 0.90493 0.69744 0.6258 0.0
H2746 H 0.89345 0.67681 0.61962 0.0
C2747 C 0.91023 0.70693 0.62006 0.0
C2748 C 0.9063 0.71558 0.61934 0.0
C2749 C 0.89576 0.69665 0.63084 0.0
H2750 H 0.89159 0.6894 0.63529 0.0
C2751 C 0.89193 0.70523 0.63023 0.0
H2752 H 0.91729 0.70753 0.61614 0.0
C2753 C 0.89713 0.71462 0.62452 0.0
H2754 H 0.89381 0.72104 0.62401 0.0
H2755 H 0.88485 0.70455 0.63414 0.0
H2756 H 0.60603 0.41161 0.64142 0.0
C2757 C 0.61493 0.41555 0.64324 0.0
C2758 C 0.62191 0.40994 0.6418 0.0
C2759 C 0.61948 0.42641 0.64659 0.0
H2760 H 0.63883 0.41092 0.64265 0.0
C2761 C 0.63345 0.41522 0.64389 0.0
C2762 C 0.63819 0.42616 0.64699 0.0
C2763 C 0.63111 0.43165 0.64845 0.0
C2764 C 0.6123 0.43271 0.64738 0.0
H2765 H 0.63465 0.44015 0.6507 0.0
C2766 C 0.60267 0.42841 0.65264 0.0
C2767 C 0.59627 0.43477 0.65372 0.0
C2768 C 0.61525 0.44327 0.64298 0.0
H2769 H 0.62253 0.44671 0.6388 0.0
C2770 C 0.60881 0.44948 0.64386 0.0
H2771 H 0.60042 0.42033 0.65616 0.0
C2772 C 0.59942 0.4453 0.64922 0.0
H2773 H 0.59456 0.4503 0.64979 0.0
H2774 H 0.61113 0.45758 0.64041 0.0
H2775 H 0.43034 0.68693 0.91347 0.0
C2776 C 0.4221 0.6805 0.91389 0.0
C2777 C 0.41751 0.67303 0.90631 0.0
C2778 C 0.41615 0.67964 0.9221 0.0
H2779 H 0.4037 0.65843 0.90155 0.0
C2780 C 0.40695 0.6646 0.90711 0.0
C2781 C 0.40094 0.6635 0.91533 0.0
C2782 C 0.40556 0.6712 0.92277 0.0
C2783 C 0.42158 0.68681 0.93043 0.0
H2784 H 0.40113 0.6704 0.92923 0.0
C2785 C 0.4177 0.69478 0.93317 0.0
C2786 C 0.42299 0.70149 0.94118 0.0
C2787 C 0.43076 0.6856 0.93571 0.0
H2788 H 0.43385 0.67951 0.93368 0.0
C2789 C 0.43594 0.69215 0.9437 0.0
H2790 H 0.41064 0.69575 0.92907 0.0
C2791 C 0.43209 0.70003 0.94644 0.0
H2792 H 0.43638 0.70515 0.95257 0.0
H2793 H 0.443 0.69115 0.94775 0.0
H2794 H 0.06283 0.31887 0.38185 0.0
C2795 C 0.07069 0.32582 0.38299 0.0
C2796 C 0.07496 0.33341 0.37533 0.0
C2797 C 0.07621 0.32751 0.39231 0.0
H2798 H 0.08799 0.34878 0.37142 0.0
C2799 C 0.08498 0.34256 0.37711 0.0
C2800 C 0.09055 0.3444 0.38641 0.0
C2801 C 0.08612 0.33677 0.39398 0.0
C2802 C 0.07058 0.32081 0.40064 0.0
H2803 H 0.0901 0.33825 0.40128 0.0
C2804 C 0.07235 0.31125 0.40395 0.0
C2805 C 0.06715 0.30529 0.41218 0.0
C2806 C 0.06351 0.32429 0.40545 0.0
H2807 H 0.06209 0.33164 0.40296 0.0
C2808 C 0.05828 0.31836 0.41352 0.0
H2809 H 0.07788 0.30861 0.40028 0.0
C2810 C 0.0601 0.30894 0.41689 0.0
H2811 H 0.05589 0.30444 0.42315 0.0
H2812 H 0.05282 0.32108 0.41719 0.0
H2813 H 0.38278 0.62065 0.36864 0.0
C2814 C 0.37476 0.61379 0.36842 0.0
C2815 C 0.36868 0.61087 0.37676 0.0
C2816 C 0.37035 0.60817 0.3597 0.0
H2817 H 0.35324 0.60011 0.38258 0.0
C2818 C 0.35819 0.60211 0.37632 0.0
C2819 C 0.35366 0.5964 0.3677 0.0
C2820 C 0.3598 0.59947 0.35942 0.0
C2821 C 0.37635 0.61183 0.35069 0.0
H2822 H 0.35635 0.59508 0.35274 0.0
C2823 C 0.38785 0.61411 0.3507 0.0
C2824 C 0.39342 0.61763 0.34208 0.0
C2825 C 0.37051 0.61316 0.34198 0.0
H2826 H 0.36171 0.61162 0.34178 0.0
C2827 C 0.37598 0.61666 0.33345 0.0
H2828 H 0.39242 0.61313 0.35738 0.0
C2829 C 0.38733 0.61886 0.33347 0.0
H2830 H 0.39131 0.62137 0.3267 0.0
H2831 H 0.3714 0.61764 0.32678 0.0
C2832 C 0.19822 0.45604 0.13255 0.0
C2833 C 0.20836 0.45569 0.1302 0.0
C2834 C 0.18828 0.44673 0.13144 0.0
C2835 C 0.17582 0.42047 0.11834 0.0
H2836 H 0.15431 0.41163 0.13798 0.0
C2837 C 0.14108 0.37749 0.11875 0.0
C2838 C 0.13025 0.37668 0.12018 0.0
C2839 C 0.1502 0.38739 0.12029 0.0
C2840 C 0.16019 0.41407 0.13238 0.0
H2841 H 0.21595 0.44528 0.12474 0.0
H2842 H 0.19876 0.42906 0.12303 0.0
H2843 H 0.17102 0.42856 0.13993 0.0
H2844 H 0.12054 0.38552 0.1247 0.0
H2845 H 0.13659 0.40292 0.12746 0.0
H2846 H 0.16512 0.40597 0.11084 0.0
C2847 C 0.19843 0.43654 0.12563 0.0
C2848 C 0.16975 0.42377 0.13349 0.0
C2849 C 0.20833 0.44582 0.12674 0.0
C2850 C 0.1288 0.3859 0.12357 0.0
C2851 C 0.13797 0.39585 0.12513 0.0
C2852 C 0.16632 0.4108 0.11725 0.0
C2853 C 0.18827 0.43689 0.12792 0.0
C2854 C 0.17776 0.42698 0.12655 0.0
C2855 C 0.14875 0.39674 0.12332 0.0
C2856 C 0.15848 0.40739 0.12432 0.0
H2857 H 0.19797 0.46349 0.1353 0.0
H2858 H 0.18058 0.44729 0.13321 0.0
H2859 H 0.18168 0.42284 0.11273 0.0
H2860 H 0.14252 0.37046 0.11639 0.0
H2861 H 0.15842 0.38773 0.11906 0.0
C2862 C 0.83462 0.9642 0.39233 0.0
C2863 C 0.83439 0.97242 0.38545 0.0
C2864 C 0.84196 0.95888 0.39172 0.0
C2865 C 0.8582 0.95173 0.37484 0.0
H2866 H 0.87333 0.94597 0.39867 0.0
C2867 C 0.88862 0.92837 0.37667 0.0
C2868 C 0.88728 0.92068 0.38443 0.0
C2869 C 0.8829 0.93554 0.37614 0.0
C2870 C 0.86912 0.94745 0.39195 0.0
H2871 H 0.84165 0.98148 0.37251 0.0
H2872 H 0.85455 0.97213 0.37145 0.0
H2873 H 0.86212 0.95705 0.39905 0.0
H2874 H 0.87836 0.91397 0.39734 0.0
H2875 H 0.86848 0.92635 0.39642 0.0
H2876 H 0.86507 0.94188 0.3678 0.0
C2877 C 0.84901 0.96981 0.37729 0.0
C2878 C 0.8627 0.95381 0.39217 0.0
C2879 C 0.8417 0.97522 0.37795 0.0
C2880 C 0.87983 0.92003 0.39142 0.0
C2881 C 0.87417 0.92713 0.3909 0.0
C2882 C 0.86463 0.94531 0.37462 0.0
C2883 C 0.84924 0.96162 0.38421 0.0
C2884 C 0.85696 0.95581 0.38367 0.0
C2885 C 0.87575 0.93511 0.38336 0.0
C2886 C 0.86993 0.94288 0.38323 0.0
H2887 H 0.82918 0.96193 0.39825 0.0
H2888 H 0.84184 0.95251 0.3971 0.0
H2889 H 0.85384 0.95311 0.36817 0.0
H2890 H 0.89428 0.92903 0.37116 0.0
H2891 H 0.88427 0.94159 0.37023 0.0
C2892 C 0.29019 0.52696 0.64413 0.0
C2893 C 0.28963 0.51987 0.63668 0.0
C2894 C 0.29898 0.53726 0.64502 0.0
C2895 C 0.32023 0.55825 0.63078 0.0
H2896 H 0.33436 0.56931 0.65602 0.0
C2897 C 0.35872 0.59876 0.63417 0.0
C2898 C 0.35873 0.6061 0.64118 0.0
C2899 C 0.35096 0.58788 0.63414 0.0
C2900 C 0.33044 0.56637 0.64892 0.0
H2901 H 0.29786 0.51811 0.62427 0.0
H2902 H 0.31326 0.53596 0.6259 0.0
H2903 H 0.3193 0.55108 0.65489 0.0
H2904 H 0.3508 0.60769 0.65384 0.0
H2905 H 0.33721 0.5887 0.65379 0.0
H2906 H 0.33123 0.57353 0.6248 0.0
C2907 C 0.30686 0.5336 0.63103 0.0
C2908 C 0.32181 0.55594 0.64828 0.0
C2909 C 0.29809 0.52331 0.63015 0.0
C2910 C 0.35109 0.6022 0.64841 0.0
C2911 C 0.34329 0.59131 0.64837 0.0
C2912 C 0.32883 0.56866 0.63142 0.0
C2913 C 0.3074 0.54071 0.63845 0.0
C2914 C 0.31661 0.55176 0.6392 0.0
C2915 C 0.34299 0.58409 0.64111 0.0
C2916 C 0.33405 0.57286 0.6405 0.0
H2917 H 0.28386 0.52452 0.64933 0.0
H2918 H 0.2991 0.54259 0.65077 0.0
H2919 H 0.31627 0.55537 0.62369 0.0
H2920 H 0.36462 0.60149 0.62859 0.0
H2921 H 0.35111 0.58247 0.62857 0.0
C2922 C 0.64958 0.04513 0.88606 0.0
C2923 C 0.6451 0.03473 0.89075 0.0
C2924 C 0.64441 0.05266 0.8862 0.0
C2925 C 0.62327 0.05891 0.89851 0.0
H2926 H 0.62104 0.07437 0.87417 0.0
C2927 C 0.60191 0.09069 0.89405 0.0
C2928 C 0.59532 0.09024 0.88535 0.0
C2929 C 0.60861 0.08447 0.89529 0.0
C2930 C 0.62154 0.07008 0.88102 0.0
H2931 H 0.63186 0.02432 0.89962 0.0
H2932 H 0.62265 0.03729 0.8996 0.0
H2933 H 0.63155 0.06253 0.87539 0.0
H2934 H 0.59015 0.0825 0.87133 0.0
H2935 H 0.6017 0.07169 0.87349 0.0
H2936 H 0.61285 0.06619 0.90399 0.0
C2937 C 0.63025 0.03969 0.8959 0.0
C2938 C 0.62771 0.0634 0.88176 0.0
C2939 C 0.63546 0.03217 0.89579 0.0
C2940 C 0.59536 0.08326 0.87802 0.0
C2941 C 0.602 0.07706 0.87926 0.0
C2942 C 0.61706 0.0656 0.89776 0.0
C2943 C 0.63458 0.04998 0.891 0.0
C2944 C 0.62856 0.05763 0.89048 0.0
C2945 C 0.6088 0.07766 0.88786 0.0
C2946 C 0.61599 0.07114 0.88895 0.0
H2947 H 0.65693 0.04736 0.88203 0.0
H2948 H 0.64807 0.06056 0.88247 0.0
H2949 H 0.62387 0.0547 0.90537 0.0
H2950 H 0.60206 0.096 0.89982 0.0
H2951 H 0.61379 0.08516 0.90198 0.0
C2952 C 0.16377 0.5658 0.38988 0.0
C2953 C 0.16015 0.55433 0.39161 0.0
C2954 C 0.15665 0.57131 0.39081 0.0
C2955 C 0.12664 0.56622 0.39092 0.0
H2956 H 0.13806 0.59633 0.39977 0.0
C2957 C 0.09777 0.58976 0.39377 0.0
C2958 C 0.10134 0.60016 0.38902 0.0
C2959 C 0.10507 0.58427 0.39567 0.0
C2960 C 0.13476 0.58792 0.39728 0.0
H2961 H 0.14612 0.53972 0.39578 0.0
H2962 H 0.13386 0.54938 0.39774 0.0
H2963 H 0.15051 0.58638 0.4001 0.0
H2964 H 0.11548 0.61324 0.38306 0.0
H2965 H 0.12826 0.60371 0.38645 0.0
H2966 H 0.1109 0.5678 0.38809 0.0
C2967 C 0.14216 0.5541 0.39548 0.0
C2968 C 0.14189 0.58222 0.39742 0.0
C2969 C 0.14926 0.54857 0.39448 0.0
C2970 C 0.1125 0.60521 0.38669 0.0
C2971 C 0.11983 0.59978 0.38868 0.0
C2972 C 0.11949 0.57188 0.39087 0.0
C2973 C 0.14572 0.56553 0.39356 0.0
C2974 C 0.13797 0.57135 0.39409 0.0
C2975 C 0.11611 0.58913 0.39296 0.0
C2976 C 0.1235 0.58284 0.39392 0.0
H2977 H 0.17215 0.57056 0.38781 0.0
H2978 H 0.15966 0.58009 0.38915 0.0
H2979 H 0.12333 0.55794 0.38815 0.0
H2980 H 0.08919 0.58564 0.39558 0.0
H2981 H 0.102 0.57611 0.39906 0.0
C2982 C 0.68971 0.95158 0.64179 0.0
C2983 C 0.69985 0.95159 0.63903 0.0
C2984 C 0.67991 0.9421 0.6408 0.0
C2985 C 0.6676 0.91611 0.62733 0.0
H2986 H 0.64726 0.9059 0.64789 0.0
C2987 C 0.6347 0.87222 0.62807 0.0
C2988 C 0.62382 0.87074 0.63003 0.0
C2989 C 0.64349 0.88238 0.6295 0.0
C2990 C 0.6528 0.90872 0.64204 0.0
H2991 H 0.70758 0.94169 0.63291 0.0
H2992 H 0.69063 0.92518 0.63136 0.0
H2993 H 0.66352 0.92328 0.64958 0.0
H2994 H 0.61368 0.87863 0.63544 0.0
H2995 H 0.62916 0.89651 0.638 0.0
H2996 H 0.65704 0.90156 0.61984 0.0
C2997 C 0.6902 0.9325 0.63423 0.0
C2998 C 0.66209 0.91868 0.643 0.0
C2999 C 0.69995 0.94194 0.63523 0.0
C3000 C 0.62199 0.87954 0.63387 0.0
C3001 C 0.63083 0.88976 0.63533 0.0
C3002 C 0.65837 0.9062 0.62639 0.0
C3003 C 0.68005 0.93247 0.63696 0.0
C3004 C 0.66971 0.92237 0.63572 0.0
C3005 C 0.64163 0.89133 0.63296 0.0
C3006 C 0.65097 0.90228 0.6338 0.0
H3007 H 0.68937 0.95887 0.6448 0.0
H3008 H 0.67221 0.94236 0.64292 0.0
H3009 H 0.67314 0.91885 0.62148 0.0
H3010 H 0.63644 0.86552 0.62534 0.0
H3011 H 0.65176 0.88324 0.62785 0.0
C3012 C 0.34239 0.46417 0.87983 0.0
C3013 C 0.34813 0.47341 0.88562 0.0
C3014 C 0.34719 0.45657 0.87834 0.0
C3015 C 0.37407 0.45282 0.87998 0.0
H3016 H 0.35542 0.42179 0.88295 0.0
C3017 C 0.39015 0.41786 0.87564 0.0
C3018 C 0.3875 0.40967 0.88305 0.0
C3019 C 0.38513 0.42561 0.87484 0.0
C3020 C 0.36074 0.43042 0.88209 0.0
H3021 H 0.36349 0.48192 0.89433 0.0
H3022 H 0.37187 0.46872 0.89168 0.0
H3023 H 0.34731 0.43561 0.88366 0.0
H3024 H 0.37722 0.40293 0.89518 0.0
H3025 H 0.36855 0.41642 0.89383 0.0
H3026 H 0.38756 0.44761 0.87869 0.0
C3027 C 0.3637 0.46742 0.88819 0.0
C3028 C 0.35607 0.43834 0.8824 0.0
C3029 C 0.35889 0.47499 0.88971 0.0
C3030 C 0.37954 0.40923 0.88947 0.0
C3031 C 0.37449 0.41689 0.88863 0.0
C3032 C 0.37873 0.44489 0.87961 0.0
C3033 C 0.35787 0.45806 0.88257 0.0
C3034 C 0.36271 0.44965 0.8815 0.0
C3035 C 0.37727 0.42522 0.88135 0.0
C3036 C 0.37215 0.43361 0.88083 0.0
H3037 H 0.33417 0.46279 0.87642 0.0
H3038 H 0.34254 0.44953 0.87385 0.0
H3039 H 0.37938 0.46146 0.87916 0.0
H3040 H 0.39626 0.4184 0.87059 0.0
H3041 H 0.38738 0.4319 0.86911 0.0
C3042 C 0.79796 0.04597 0.12835 0.0
C3043 C 0.80027 0.03697 0.13242 0.0
C3044 C 0.80628 0.05658 0.12835 0.0
C3045 C 0.83377 0.0739 0.1399 0.0
H3046 H 0.83608 0.09123 0.11594 0.0
C3047 C 0.87136 0.11484 0.13261 0.0
C3048 C 0.86897 0.1232 0.12729 0.0
C3049 C 0.86293 0.10441 0.13394 0.0
C3050 C 0.83547 0.08658 0.12274 0.0
H3051 H 0.81305 0.03212 0.13997 0.0
H3052 H 0.82762 0.05064 0.13986 0.0
H3053 H 0.82142 0.07295 0.11698 0.0
H3054 H 0.85581 0.12745 0.11975 0.0
H3055 H 0.84114 0.10938 0.12216 0.0
H3056 H 0.84788 0.08759 0.14564 0.0
C3057 C 0.81935 0.04949 0.13671 0.0
C3058 C 0.82706 0.07608 0.12333 0.0
C3059 C 0.81103 0.03886 0.13668 0.0
C3060 C 0.85794 0.12108 0.12369 0.0
C3061 C 0.84954 0.11072 0.12506 0.0
C3062 C 0.8422 0.08445 0.13932 0.0
C3063 C 0.8171 0.05845 0.13243 0.0
C3064 C 0.82608 0.06963 0.13192 0.0
C3065 C 0.85196 0.10218 0.13001 0.0
C3066 C 0.84311 0.09093 0.13073 0.0
H3067 H 0.78979 0.04478 0.12494 0.0
H3068 H 0.80424 0.06333 0.1251 0.0
H3069 H 0.83318 0.06916 0.14665 0.0
H3070 H 0.8798 0.11625 0.13543 0.0
H3071 H 0.86509 0.098 0.13775 0.0
C3072 C 0.09201 0.11871 0.42977 0.0
C3073 C 0.08115 0.11744 0.43163 0.0
C3074 C 0.09383 0.11068 0.42476 0.0
C3075 C 0.07906 0.08807 0.40769 0.0
H3076 H 0.10615 0.08231 0.41222 0.0
C3077 C 0.08745 0.05921 0.383 0.0
C3078 C 0.09768 0.06414 0.37872 0.0
C3079 C 0.08552 0.06361 0.3913 0.0
C3080 C 0.09853 0.08381 0.4109 0.0
H3081 H 0.06373 0.10655 0.4301 0.0
H3082 H 0.06689 0.09238 0.42155 0.0
H3083 H 0.10232 0.09412 0.42325 0.0
H3084 H 0.11424 0.07698 0.38029 0.0
H3085 H 0.11092 0.08459 0.39484 0.0
H3086 H 0.07534 0.07791 0.3953 0.0
C3087 C 0.074 0.09972 0.42372 0.0
C3088 C 0.09635 0.09062 0.41718 0.0
C3089 C 0.07218 0.10782 0.42863 0.0
C3090 C 0.1063 0.07293 0.38345 0.0
C3091 C 0.10438 0.07732 0.39178 0.0
C3092 C 0.08119 0.0812 0.40149 0.0
C3093 C 0.08483 0.10112 0.42157 0.0
C3094 C 0.08669 0.09301 0.41554 0.0
C3095 C 0.09381 0.07302 0.39552 0.0
C3096 C 0.09103 0.07915 0.40291 0.0
H3097 H 0.09908 0.1261 0.43192 0.0
H3098 H 0.10226 0.11216 0.42311 0.0
H3099 H 0.07164 0.08985 0.40606 0.0
H3100 H 0.0807 0.05232 0.3796 0.0
H3101 H 0.07736 0.05999 0.39414 0.0
C3102 C 0.01476 0.84106 0.69281 0.0
C3103 C 0.01612 0.84069 0.70302 0.0
C3104 C 0.01975 0.83596 0.68722 0.0
C3105 C 0.04316 0.82649 0.68883 0.0
H3106 H 0.03046 0.81496 0.66339 0.0
C3107 C 0.06811 0.81263 0.66402 0.0
C3108 C 0.06918 0.81805 0.65488 0.0
C3109 C 0.05982 0.81243 0.6699 0.0
C3110 C 0.03408 0.8181 0.6705 0.0
H3111 H 0.02358 0.83431 0.71532 0.0
H3112 H 0.0319 0.82507 0.70559 0.0
H3113 H 0.01937 0.82027 0.67395 0.0
H3114 H 0.06192 0.82669 0.64439 0.0
H3115 H 0.04736 0.82623 0.65458 0.0
H3116 H 0.05792 0.82449 0.68532 0.0
C3117 C 0.02717 0.82953 0.70189 0.0
C3118 C 0.02776 0.82121 0.67654 0.0
C3119 C 0.02226 0.83472 0.70749 0.0
C3120 C 0.06126 0.82246 0.65141 0.0
C3121 C 0.05291 0.82216 0.65724 0.0
C3122 C 0.04942 0.82329 0.68284 0.0
C3123 C 0.02616 0.83025 0.69167 0.0
C3124 C 0.03232 0.8257 0.68569 0.0
C3125 C 0.05238 0.81754 0.6667 0.0
C3126 C 0.04505 0.8193 0.67352 0.0
H3127 H 0.00992 0.8454 0.6891 0.0
H3128 H 0.01887 0.83681 0.67938 0.0
H3129 H 0.04705 0.83007 0.69574 0.0
H3130 H 0.07416 0.80925 0.6669 0.0
H3131 H 0.05954 0.80871 0.67712 0.0
C3132 C 0.39945 0.8877 0.92684 0.0
C3133 C 0.40195 0.87836 0.92556 0.0
C3134 C 0.39826 0.8943 0.91883 0.0
C3135 C 0.40602 0.90126 0.89353 0.0
H3136 H 0.38155 0.91131 0.89057 0.0
C3137 C 0.38174 0.91757 0.86054 0.0
C3138 C 0.39097 0.92461 0.85564 0.0
C3139 C 0.38324 0.91351 0.86992 0.0
C3140 C 0.38843 0.90857 0.8913 0.0
H3141 H 0.40475 0.86849 0.9148 0.0
H3142 H 0.4028 0.88001 0.90094 0.0
H3143 H 0.38384 0.90076 0.9052 0.0
H3144 H 0.40886 0.9336 0.85697 0.0
H3145 H 0.41147 0.92663 0.87336 0.0
H3146 H 0.41044 0.90871 0.87957 0.0
C3147 C 0.40197 0.88235 0.90813 0.0
C3148 C 0.3898 0.90261 0.89971 0.0
C3149 C 0.40311 0.87575 0.9161 0.0
C3150 C 0.40162 0.92805 0.86053 0.0
C3151 C 0.40311 0.92402 0.86989 0.0
C3152 C 0.40469 0.90723 0.88517 0.0
C3153 C 0.39959 0.89173 0.9094 0.0
C3154 C 0.39851 0.89874 0.90084 0.0
C3155 C 0.39399 0.91643 0.87459 0.0
C3156 C 0.3958 0.91085 0.88389 0.0
H3157 H 0.3986 0.89001 0.93403 0.0
H3158 H 0.3965 0.90152 0.92005 0.0
H3159 H 0.41291 0.89853 0.89424 0.0
H3160 H 0.37344 0.91471 0.85693 0.0
H3161 H 0.37604 0.90761 0.87329 0.0
C3162 C 0.47996 0.15489 0.20778 0.0
C3163 C 0.48095 0.1597 0.21683 0.0
C3164 C 0.47652 0.15943 0.19931 0.0
C3165 C 0.45975 0.17565 0.19166 0.0
H3166 H 0.47158 0.17725 0.16659 0.0
C3167 C 0.43911 0.18907 0.15779 0.0
C3168 C 0.43717 0.1825 0.14961 0.0
C3169 C 0.4466 0.18853 0.1655 0.0
C3170 C 0.46813 0.1768 0.17352 0.0
H3171 H 0.47977 0.17347 0.22396 0.0
H3172 H 0.47363 0.18127 0.20923 0.0
H3173 H 0.48055 0.17174 0.18108 0.0
H3174 H 0.44241 0.17102 0.14276 0.0
H3175 H 0.45509 0.16975 0.15632 0.0
H3176 H 0.44706 0.18019 0.18418 0.0
C3177 C 0.47536 0.1739 0.20871 0.0
C3178 C 0.47329 0.17366 0.18182 0.0
C3179 C 0.47885 0.1694 0.21715 0.0
C3180 C 0.44353 0.17603 0.14903 0.0
C3181 C 0.45093 0.1754 0.15679 0.0
C3182 C 0.45454 0.17868 0.18338 0.0
C3183 C 0.47395 0.16885 0.19972 0.0
C3184 C 0.46908 0.17294 0.19097 0.0
C3185 C 0.45225 0.18134 0.16528 0.0
C3186 C 0.45857 0.17919 0.17417 0.0
H3187 H 0.48141 0.14736 0.20727 0.0
H3188 H 0.47541 0.15529 0.19252 0.0
H3189 H 0.45617 0.175 0.19857 0.0
H3190 H 0.43435 0.19412 0.15853 0.0
H3191 H 0.44762 0.19345 0.17181 0.0
C3192 C 0.13082 0.84747 0.09611 0.0
C3193 C 0.12127 0.83908 0.09202 0.0
C3194 C 0.12998 0.85389 0.10349 0.0
C3195 C 0.1097 0.86263 0.11423 0.0
H3196 H 0.13396 0.87397 0.13404 0.0
C3197 C 0.11711 0.90118 0.13621 0.0
C3198 C 0.12273 0.9023 0.14548 0.0
C3199 C 0.11512 0.89188 0.13075 0.0
C3200 C 0.12698 0.87074 0.1287 0.0
H3201 H 0.1034 0.83063 0.09264 0.0
H3202 H 0.10195 0.84171 0.10567 0.0
H3203 H 0.13421 0.8606 0.12276 0.0
H3204 H 0.12988 0.89426 0.15663 0.0
H3205 H 0.12602 0.87779 0.14729 0.0
H3206 H 0.10239 0.87266 0.1203 0.0
C3207 C 0.11006 0.8435 0.10303 0.0
C3208 C 0.12723 0.86319 0.1221 0.0
C3209 C 0.11089 0.83713 0.09558 0.0
C3210 C 0.1256 0.89361 0.14947 0.0
C3211 C 0.12348 0.88424 0.14407 0.0
C3212 C 0.1094 0.87012 0.12091 0.0
C3213 C 0.11959 0.85203 0.10703 0.0
C3214 C 0.11873 0.85923 0.11463 0.0
C3215 C 0.11861 0.88344 0.13449 0.0
C3216 C 0.11816 0.87446 0.12811 0.0
H3217 H 0.13891 0.84929 0.09342 0.0
H3218 H 0.13748 0.86052 0.10623 0.0
H3219 H 0.10304 0.85982 0.10856 0.0
H3220 H 0.11493 0.90783 0.13292 0.0
H3221 H 0.11146 0.89165 0.12339 0.0
C3222 C 0.38717 0.8647 0.34809 0.0
C3223 C 0.39545 0.86033 0.35011 0.0
C3224 C 0.37837 0.86209 0.35414 0.0
C3225 C 0.36361 0.84155 0.37287 0.0
H3226 H 0.35528 0.86476 0.38141 0.0
C3227 C 0.34181 0.83708 0.40777 0.0
C3228 C 0.33255 0.84009 0.40764 0.0
C3229 C 0.34839 0.83957 0.39988 0.0
C3230 C 0.3574 0.85817 0.37897 0.0
H3231 H 0.40079 0.84955 0.35992 0.0
H3232 H 0.38567 0.84518 0.37051 0.0
H3233 H 0.36876 0.8689 0.36902 0.0
H3234 H 0.32323 0.84851 0.39919 0.0
H3235 H 0.33498 0.85308 0.38535 0.0
H3236 H 0.35255 0.83091 0.38301 0.0
C3237 C 0.38587 0.85056 0.36422 0.0
C3238 C 0.3651 0.86053 0.37187 0.0
C3239 C 0.39464 0.85318 0.35822 0.0
C3240 C 0.33029 0.84606 0.39951 0.0
C3241 C 0.33699 0.84866 0.3916 0.0
C3242 C 0.35598 0.83922 0.37997 0.0
C3243 C 0.37763 0.85498 0.36228 0.0
C3244 C 0.36851 0.8523 0.36893 0.0
C3245 C 0.34599 0.84526 0.39166 0.0
C3246 C 0.35301 0.84756 0.38327 0.0
H3247 H 0.3876 0.87029 0.34192 0.0
H3248 H 0.37212 0.86559 0.35241 0.0
H3249 H 0.36582 0.83496 0.3706 0.0
H3250 H 0.34403 0.8328 0.41403 0.0
H3251 H 0.35544 0.8371 0.40026 0.0
C3252 C 0.38118 0.18414 0.58108 0.0
C3253 C 0.37074 0.18289 0.57645 0.0
C3254 C 0.38207 0.17664 0.5884 0.0
C3255 C 0.36488 0.1559 0.60583 0.0
H3256 H 0.38964 0.14628 0.60857 0.0
C3257 C 0.36811 0.12702 0.63746 0.0
C3258 C 0.3708 0.11812 0.63517 0.0
C3259 C 0.36978 0.13593 0.63093 0.0
C3260 C 0.38265 0.14885 0.60788 0.0
H3261 H 0.35313 0.17252 0.57552 0.0
H3262 H 0.35467 0.15936 0.58811 0.0
H3263 H 0.38883 0.15932 0.59549 0.0
H3264 H 0.37781 0.11173 0.62449 0.0
H3265 H 0.38052 0.12717 0.61294 0.0
H3266 H 0.35842 0.14515 0.6179 0.0
C3267 C 0.36215 0.1663 0.58633 0.0
C3268 C 0.38225 0.15642 0.60044 0.0
C3269 C 0.36126 0.17382 0.57909 0.0
C3270 C 0.37576 0.11855 0.62646 0.0
C3271 C 0.37731 0.12741 0.61985 0.0
C3272 C 0.36526 0.14832 0.61321 0.0
C3273 C 0.37254 0.1677 0.5912 0.0
C3274 C 0.37329 0.15995 0.59927 0.0
C3275 C 0.37402 0.13605 0.62188 0.0
C3276 C 0.37411 0.14464 0.61432 0.0
H3277 H 0.38862 0.1911 0.57924 0.0
H3278 H 0.39018 0.17803 0.59204 0.0
H3279 H 0.35796 0.15856 0.60528 0.0
H3280 H 0.36437 0.12691 0.64418 0.0
H3281 H 0.36744 0.14257 0.63286 0.0
C3282 C 0.10119 0.12956 0.84036 0.0
C3283 C 0.09229 0.13221 0.84284 0.0
C3284 C 0.11077 0.13183 0.8467 0.0
C3285 C 0.12594 0.14918 0.86765 0.0
H3286 H 0.13967 0.12775 0.87262 0.0
C3287 C 0.15441 0.15058 0.90167 0.0
C3288 C 0.16475 0.14987 0.90062 0.0
C3289 C 0.14632 0.14832 0.89395 0.0
C3290 C 0.136 0.13386 0.8712 0.0
H3291 H 0.08659 0.13947 0.85389 0.0
H3292 H 0.10304 0.14312 0.86498 0.0
H3293 H 0.12406 0.12414 0.86028 0.0
H3294 H 0.17444 0.14567 0.89072 0.0
H3295 H 0.16005 0.14149 0.87714 0.0
H3296 H 0.13761 0.15873 0.87873 0.0
C3297 C 0.10273 0.13943 0.8581 0.0
C3298 C 0.12708 0.13181 0.86413 0.0
C3299 C 0.0932 0.13718 0.85179 0.0
C3300 C 0.16657 0.14631 0.89175 0.0
C3301 C 0.15837 0.14394 0.88399 0.0
C3302 C 0.13475 0.15117 0.87472 0.0
C3303 C 0.11166 0.13683 0.85563 0.0
C3304 C 0.12179 0.13935 0.86244 0.0
C3305 C 0.14826 0.14517 0.88497 0.0
C3306 C 0.13972 0.14343 0.87672 0.0
H3307 H 0.10073 0.12563 0.83356 0.0
H3308 H 0.11752 0.12978 0.84454 0.0
H3309 H 0.12227 0.1553 0.86635 0.0
H3310 H 0.15258 0.15295 0.90849 0.0
H3311 H 0.1385 0.14906 0.895 0.0
C3312 C 0.89852 0.35524 0.8416 0.0
C3313 C 0.89981 0.3631 0.83399 0.0
C3314 C 0.88959 0.35237 0.84746 0.0
C3315 C 0.86937 0.36255 0.85593 0.0
H3316 H 0.85564 0.33228 0.86534 0.0
C3317 C 0.83443 0.34733 0.88342 0.0
C3318 C 0.83649 0.3408 0.89119 0.0
C3319 C 0.84104 0.35014 0.87544 0.0
C3320 C 0.85939 0.34077 0.86277 0.0
H3321 H 0.89264 0.37404 0.82651 0.0
H3322 H 0.8769 0.3689 0.83674 0.0
H3323 H 0.86905 0.33682 0.85299 0.0
H3324 H 0.84755 0.33269 0.89687 0.0
H3325 H 0.85878 0.33734 0.88297 0.0
H3326 H 0.85975 0.36647 0.86588 0.0
C3327 C 0.88289 0.36504 0.83819 0.0
C3328 C 0.8671 0.34338 0.85572 0.0
C3329 C 0.89184 0.36791 0.83229 0.0
C3330 C 0.84545 0.3374 0.89089 0.0
C3331 C 0.85194 0.3401 0.88293 0.0
C3332 C 0.86159 0.35992 0.86298 0.0
C3333 C 0.88168 0.35725 0.84587 0.0
C3334 C 0.87243 0.35435 0.85241 0.0
C3335 C 0.84976 0.3464 0.87507 0.0
C3336 C 0.85677 0.34905 0.86666 0.0
H3337 H 0.90442 0.35127 0.84303 0.0
H3338 H 0.88902 0.34645 0.85339 0.0
H3339 H 0.87337 0.37109 0.85357 0.0
H3340 H 0.8276 0.35008 0.88343 0.0
H3341 H 0.83921 0.35504 0.86948 0.0
C3342 C 0.87857 0.68465 0.06505 0.0
C3343 C 0.87575 0.69334 0.0678 0.0
C3344 C 0.87951 0.67675 0.07192 0.0
C3345 C 0.86922 0.66389 0.09516 0.0
H3346 H 0.89342 0.65352 0.09631 0.0
C3347 C 0.8717 0.6317 0.12414 0.0
C3348 C 0.87472 0.62327 0.12116 0.0
C3349 C 0.87316 0.64106 0.11821 0.0
C3350 C 0.88654 0.65624 0.09603 0.0
H3351 H 0.87214 0.70073 0.08006 0.0
H3352 H 0.87351 0.68681 0.09196 0.0
H3353 H 0.89328 0.66818 0.08464 0.0
H3354 H 0.88192 0.61811 0.10977 0.0
H3355 H 0.88424 0.6343 0.09927 0.0
H3356 H 0.86223 0.6518 0.10624 0.0
C3357 C 0.87491 0.68608 0.08446 0.0
C3358 C 0.88648 0.66466 0.08936 0.0
C3359 C 0.87408 0.69403 0.07763 0.0
C3360 C 0.87963 0.62455 0.11229 0.0
C3361 C 0.88096 0.63385 0.10628 0.0
C3362 C 0.8692 0.65542 0.10174 0.0
C3363 C 0.87754 0.67731 0.08168 0.0
C3364 C 0.87781 0.66856 0.08886 0.0
C3365 C 0.87752 0.64212 0.10907 0.0
C3366 C 0.87786 0.65146 0.10227 0.0
H3367 H 0.87977 0.68376 0.05754 0.0
H3368 H 0.88143 0.67001 0.06954 0.0
H3369 H 0.86233 0.66661 0.09484 0.0
H3370 H 0.86799 0.63095 0.131 0.0
H3371 H 0.87068 0.64737 0.12073 0.0
C3372 C 0.60083 0.64982 0.35932 0.0
C3373 C 0.59915 0.64454 0.35042 0.0
C3374 C 0.61072 0.65204 0.36514 0.0
C3375 C 0.63483 0.64377 0.36988 0.0
H3376 H 0.64672 0.67074 0.38446 0.0
C3377 C 0.67548 0.65768 0.39627 0.0
C3378 C 0.67397 0.661 0.40536 0.0
C3379 C 0.66705 0.65553 0.3887 0.0
C3380 C 0.6435 0.66318 0.38043 0.0
H3381 H 0.60662 0.63745 0.34066 0.0
H3382 H 0.62405 0.64156 0.35075 0.0
H3383 H 0.63089 0.66763 0.37265 0.0
H3384 H 0.66209 0.66384 0.41382 0.0
H3385 H 0.64766 0.66039 0.40065 0.0
H3386 H 0.64755 0.63939 0.37779 0.0
C3387 C 0.61762 0.64386 0.35327 0.0
C3388 C 0.63439 0.66136 0.37369 0.0
C3389 C 0.60768 0.64161 0.34744 0.0
C3390 C 0.66371 0.66167 0.40682 0.0
C3391 C 0.6554 0.65966 0.39929 0.0
C3392 C 0.64405 0.64565 0.3766 0.0
C3393 C 0.61926 0.64912 0.36219 0.0
C3394 C 0.62973 0.6515 0.36853 0.0
C3395 C 0.65704 0.65675 0.39011 0.0
C3396 C 0.64826 0.65524 0.38211 0.0
H3397 H 0.59453 0.65234 0.36179 0.0
H3398 H 0.6116 0.65594 0.37203 0.0
H3399 H 0.63142 0.63606 0.36606 0.0
H3400 H 0.68328 0.65706 0.39492 0.0
H3401 H 0.66849 0.65325 0.38168 0.0
C3402 C 0.91629 0.39414 0.40364 0.0
C3403 C 0.91233 0.39451 0.41269 0.0
C3404 C 0.91636 0.4019 0.39628 0.0
C3405 C 0.90309 0.42142 0.38801 0.0
H3406 H 0.92672 0.43128 0.37032 0.0
C3407 C 0.89829 0.43949 0.34957 0.0
C3408 C 0.90779 0.44714 0.34544 0.0
C3409 C 0.89917 0.43481 0.3588 0.0
C3410 C 0.92013 0.4288 0.37526 0.0
H3411 H 0.90548 0.40347 0.42116 0.0
H3412 H 0.90582 0.4172 0.40835 0.0
H3413 H 0.92812 0.42009 0.38457 0.0
H3414 H 0.92552 0.45649 0.34794 0.0
H3415 H 0.92706 0.44858 0.36415 0.0
H3416 H 0.89514 0.43024 0.37871 0.0
C3417 C 0.90873 0.41079 0.40691 0.0
C3418 C 0.92086 0.42221 0.38338 0.0
C3419 C 0.90865 0.40299 0.41428 0.0
C3420 C 0.91809 0.45051 0.35093 0.0
C3421 C 0.91896 0.44591 0.36018 0.0
C3422 C 0.90238 0.42807 0.3799 0.0
C3423 C 0.91253 0.41029 0.39779 0.0
C3424 C 0.91224 0.41823 0.38974 0.0
C3425 C 0.90958 0.43775 0.36412 0.0
C3426 C 0.91079 0.43167 0.37332 0.0
H3427 H 0.91935 0.38783 0.4022 0.0
H3428 H 0.91921 0.40115 0.38933 0.0
H3429 H 0.89627 0.41846 0.39272 0.0
H3430 H 0.89027 0.43666 0.34546 0.0
H3431 H 0.89179 0.42846 0.36152 0.0
C3432 C 0.58328 0.6184 0.9327 0.0
C3433 C 0.58692 0.61989 0.9426 0.0
C3434 C 0.5846 0.61021 0.92755 0.0
C3435 C 0.60112 0.59313 0.92708 0.0
H3436 H 0.57658 0.57574 0.90942 0.0
C3437 C 0.58734 0.55609 0.89708 0.0
C3438 C 0.5965 0.56039 0.89132 0.0
C3439 C 0.58681 0.56178 0.90513 0.0
C3440 C 0.58347 0.58038 0.91442 0.0
H3441 H 0.59484 0.61385 0.9548 0.0
H3442 H 0.59732 0.59964 0.9457 0.0
H3443 H 0.57413 0.58887 0.91978 0.0
H3444 H 0.61267 0.57354 0.8899 0.0
H3445 H 0.61175 0.58352 0.90396 0.0
H3446 H 0.61052 0.58472 0.92155 0.0
C3447 C 0.59346 0.60487 0.94197 0.0
C3448 C 0.5821 0.58801 0.92027 0.0
C3449 C 0.59205 0.61304 0.94717 0.0
C3450 C 0.60555 0.56999 0.89426 0.0
C3451 C 0.60501 0.57572 0.90231 0.0
C3452 C 0.60252 0.58551 0.92116 0.0
C3453 C 0.58967 0.60333 0.93212 0.0
C3454 C 0.59096 0.59461 0.92654 0.0
C3455 C 0.59541 0.57192 0.90757 0.0
C3456 C 0.59374 0.57915 0.91467 0.0
H3457 H 0.57952 0.62367 0.92888 0.0
H3458 H 0.58179 0.60936 0.91991 0.0
H3459 H 0.60811 0.59813 0.93183 0.0
H3460 H 0.5803 0.54863 0.89503 0.0
H3461 H 0.57942 0.55851 0.90917 0.0
C3462 C 0.80241 0.5578 0.88259 0.0
C3463 C 0.80199 0.54729 0.88578 0.0
C3464 C 0.81263 0.56668 0.88202 0.0
C3465 C 0.84204 0.57623 0.89176 0.0
H3466 H 0.84615 0.59887 0.87153 0.0
C3467 C 0.88322 0.61444 0.88981 0.0
C3468 C 0.88187 0.62457 0.88886 0.0
C3469 C 0.87406 0.60452 0.88824 0.0
C3470 C 0.84511 0.59261 0.87723 0.0
H3471 H 0.81206 0.53792 0.89077 0.0
H3472 H 0.82989 0.55336 0.88952 0.0
H3473 H 0.82903 0.58233 0.87106 0.0
H3474 H 0.87003 0.6323 0.88507 0.0
H3475 H 0.85405 0.615 0.8823 0.0
H3476 H 0.85809 0.58659 0.89796 0.0
C3477 C 0.8223 0.55476 0.8876 0.0
C3478 C 0.83529 0.58315 0.87699 0.0
C3479 C 0.81206 0.54586 0.88821 0.0
C3480 C 0.87129 0.6246 0.88591 0.0
C3481 C 0.86217 0.61471 0.88425 0.0
C3482 C 0.85189 0.58566 0.89197 0.0
C3483 C 0.82271 0.5653 0.88456 0.0
C3484 C 0.83354 0.57493 0.88435 0.0
C3485 C 0.8634 0.60454 0.88559 0.0
C3486 C 0.85345 0.59404 0.88479 0.0
H3487 H 0.79484 0.55917 0.88052 0.0
H3488 H 0.81259 0.5747 0.87976 0.0
H3489 H 0.84093 0.57015 0.89763 0.0
H3490 H 0.89127 0.61417 0.89215 0.0
H3491 H 0.87528 0.59681 0.88925 0.0
C3492 C 0.14256 0.04289 0.6529 0.0
C3493 C 0.14037 0.03581 0.64506 0.0
C3494 C 0.1377 0.05069 0.65282 0.0
C3495 C 0.12481 0.06631 0.63649 0.0
H3496 H 0.11294 0.07041 0.66007 0.0
C3497 C 0.10019 0.09476 0.63803 0.0
C3498 C 0.10223 0.101 0.64643 0.0
C3499 C 0.10469 0.08671 0.63755 0.0
C3500 C 0.11632 0.06947 0.65345 0.0
H3501 H 0.13147 0.03148 0.63093 0.0
H3502 H 0.12289 0.04506 0.63083 0.0
H3503 H 0.12107 0.05658 0.65986 0.0
H3504 H 0.11101 0.10407 0.66071 0.0
H3505 H 0.11892 0.09016 0.65984 0.0
H3506 H 0.12015 0.0793 0.63011 0.0
C3507 C 0.12842 0.0446 0.63701 0.0
C3508 C 0.12097 0.06152 0.65333 0.0
C3509 C 0.13324 0.03675 0.63712 0.0
C3510 C 0.10908 0.09922 0.65422 0.0
C3511 C 0.1136 0.09122 0.65373 0.0
C3512 C 0.12018 0.07431 0.63661 0.0
C3513 C 0.13056 0.05163 0.64488 0.0
C3514 C 0.12534 0.0599 0.64488 0.0
C3515 C 0.11137 0.08478 0.64544 0.0
C3516 C 0.11596 0.07604 0.64513 0.0
H3517 H 0.14794 0.04232 0.65916 0.0
H3518 H 0.13961 0.05607 0.65895 0.0
H3519 H 0.1282 0.06533 0.62989 0.0
H3520 H 0.0949 0.09592 0.63193 0.0
H3521 H 0.10274 0.08183 0.63108 0.0
C3522 C 0.69984 0.47917 0.3823 0.0
C3523 C 0.71061 0.47989 0.3807 0.0
C3524 C 0.69114 0.46891 0.38337 0.0
C3525 C 0.68275 0.43935 0.37802 0.0
H3526 H 0.65978 0.43548 0.39553 0.0
C3527 C 0.64682 0.39725 0.3837 0.0
C3528 C 0.6361 0.39751 0.38288 0.0
C3529 C 0.65628 0.40704 0.38452 0.0
C3530 C 0.66612 0.43646 0.39059 0.0
H3531 H 0.72064 0.4703 0.37904 0.0
H3532 H 0.70557 0.45242 0.38123 0.0
H3533 H 0.67572 0.45303 0.3949 0.0
H3534 H 0.62686 0.40815 0.3827 0.0
H3535 H 0.64338 0.42526 0.38419 0.0
H3536 H 0.67312 0.42276 0.37373 0.0
C3537 C 0.7038 0.4598 0.38148 0.0
C3538 C 0.67524 0.44653 0.3902 0.0
C3539 C 0.71249 0.47007 0.38035 0.0
C3540 C 0.63502 0.40772 0.38327 0.0
C3541 C 0.64447 0.4175 0.38419 0.0
C3542 C 0.67368 0.42926 0.37848 0.0
C3543 C 0.69299 0.45908 0.38295 0.0
C3544 C 0.68361 0.44816 0.38381 0.0
C3545 C 0.6552 0.41728 0.38464 0.0
C3546 C 0.6652 0.42775 0.38469 0.0
H3547 H 0.69811 0.48654 0.38277 0.0
H3548 H 0.68292 0.4687 0.38436 0.0
H3549 H 0.68892 0.44034 0.3729 0.0
H3550 H 0.64791 0.38952 0.38332 0.0
H3551 H 0.66444 0.40662 0.38494 0.0
C3552 C 0.34161 0.95558 0.13308 0.0
C3553 C 0.33519 0.95492 0.14093 0.0
C3554 C 0.34811 0.94921 0.13315 0.0
C3555 C 0.36144 0.93436 0.14996 0.0
H3556 H 0.36072 0.9176 0.1275 0.0
C3557 C 0.37599 0.89849 0.15342 0.0
C3558 C 0.38263 0.89744 0.14635 0.0
C3559 C 0.37081 0.90601 0.15206 0.0
C3560 C 0.36113 0.92236 0.13378 0.0
H3561 H 0.33071 0.94721 0.15507 0.0
H3562 H 0.34192 0.93607 0.15515 0.0
H3563 H 0.35069 0.93007 0.12646 0.0
H3564 H 0.38868 0.90319 0.13214 0.0
H3565 H 0.37953 0.91645 0.12974 0.0
H3566 H 0.37173 0.92662 0.15733 0.0
C3567 C 0.34199 0.94153 0.14895 0.0
C3568 C 0.35539 0.92949 0.13319 0.0
C3569 C 0.33546 0.94782 0.14886 0.0
C3570 C 0.38363 0.90383 0.13771 0.0
C3571 C 0.3784 0.91141 0.13635 0.0
C3572 C 0.36716 0.92727 0.15054 0.0
C3573 C 0.3484 0.94215 0.14112 0.0
C3574 C 0.35529 0.93537 0.14135 0.0
C3575 C 0.37209 0.91269 0.1436 0.0
C3576 C 0.36687 0.921 0.14254 0.0
H3577 H 0.34151 0.96092 0.12684 0.0
H3578 H 0.35301 0.94989 0.12702 0.0
H3579 H 0.36174 0.93897 0.1563 0.0
H3580 H 0.3748 0.89346 0.16004 0.0
H3581 H 0.36575 0.90656 0.15767 0.0
C3582 C 0.84314 0.46106 0.62985 0.0
C3583 C 0.83211 0.45729 0.62572 0.0
C3584 C 0.84981 0.45504 0.62894 0.0
C3585 C 0.84761 0.42682 0.62479 0.0
H3586 H 0.87922 0.44113 0.6212 0.0
C3587 C 0.8748 0.40143 0.62297 0.0
C3588 C 0.88496 0.40522 0.62868 0.0
C3589 C 0.86871 0.40815 0.62108 0.0
C3590 C 0.87041 0.43701 0.62225 0.0
H3591 H 0.8196 0.44445 0.61704 0.0
H3592 H 0.83121 0.43394 0.61547 0.0
H3593 H 0.86784 0.4522 0.62087 0.0
H3594 H 0.89701 0.41927 0.63638 0.0
H3595 H 0.88632 0.43092 0.63325 0.0
H3596 H 0.85018 0.41168 0.62639 0.0
C3597 C 0.83465 0.44146 0.61956 0.0
C3598 C 0.86389 0.44336 0.62206 0.0
C3599 C 0.82799 0.44748 0.62047 0.0
C3600 C 0.88914 0.41606 0.63206 0.0
C3601 C 0.88306 0.42278 0.63018 0.0
C3602 C 0.85412 0.42049 0.62498 0.0
C3603 C 0.84559 0.44511 0.62387 0.0
C3604 C 0.85243 0.43835 0.62344 0.0
C3605 C 0.87265 0.41882 0.62485 0.0
C3606 C 0.86562 0.42551 0.62383 0.0
H3607 H 0.84654 0.4685 0.63405 0.0
H3608 H 0.85814 0.458 0.63247 0.0
H3609 H 0.83884 0.42271 0.62602 0.0
H3610 H 0.8713 0.39309 0.62031 0.0
H3611 H 0.8608 0.40491 0.61683 0.0
C3612 C 0.31484 0.04577 0.38743 0.0
C3613 C 0.30516 0.04766 0.38425 0.0
C3614 C 0.32531 0.05442 0.38762 0.0
C3615 C 0.34016 0.08319 0.37836 0.0
H3616 H 0.36064 0.08487 0.40089 0.0
C3617 C 0.37606 0.12341 0.39071 0.0
C3618 C 0.38625 0.12285 0.39433 0.0
C3619 C 0.3669 0.11382 0.38819 0.0
C3620 C 0.35509 0.08444 0.39447 0.0
H3621 H 0.299 0.06011 0.37845 0.0
H3622 H 0.31714 0.07521 0.37911 0.0
H3623 H 0.3432 0.06885 0.39903 0.0
H3624 H 0.39495 0.11186 0.3979 0.0
H3625 H 0.37889 0.09504 0.3935 0.0
H3626 H 0.35193 0.09901 0.37402 0.0
C3627 C 0.3167 0.06702 0.38133 0.0
C3628 C 0.34509 0.07524 0.39339 0.0
C3629 C 0.30625 0.05837 0.38109 0.0
C3630 C 0.38721 0.11253 0.39507 0.0
C3631 C 0.378 0.10291 0.39263 0.0
C3632 C 0.35013 0.09243 0.37948 0.0
C3633 C 0.32637 0.06519 0.38466 0.0
C3634 C 0.33741 0.07457 0.38539 0.0
C3635 C 0.36771 0.10344 0.38931 0.0
C3636 C 0.35763 0.09322 0.38762 0.0
H3637 H 0.31432 0.03765 0.38999 0.0
H3638 H 0.33259 0.05267 0.39011 0.0
H3639 H 0.33456 0.08286 0.372 0.0
H3640 H 0.37512 0.13126 0.39003 0.0
H3641 H 0.35906 0.11449 0.38572 0.0
C3642 C 0.63579 0.53576 0.13826 0.0
C3643 C 0.64308 0.5351 0.14615 0.0
C3644 C 0.63025 0.54296 0.13838 0.0
C3645 C 0.62042 0.55811 0.15433 0.0
H3646 H 0.61907 0.57506 0.13069 0.0
C3647 C 0.59831 0.58957 0.14994 0.0
C3648 C 0.59215 0.58923 0.141 0.0
C3649 C 0.60504 0.58339 0.15144 0.0
C3650 C 0.6193 0.57033 0.13733 0.0
H3651 H 0.65019 0.54136 0.16043 0.0
H3652 H 0.64043 0.55401 0.16063 0.0
H3653 H 0.62999 0.56358 0.13165 0.0
H3654 H 0.58757 0.58159 0.12692 0.0
H3655 H 0.59914 0.57084 0.12954 0.0
H3656 H 0.60949 0.56475 0.15991 0.0
C3657 C 0.63903 0.54892 0.15437 0.0
C3658 C 0.62557 0.56377 0.13788 0.0
C3659 C 0.64466 0.54175 0.15422 0.0
C3660 C 0.59246 0.58225 0.13379 0.0
C3661 C 0.59911 0.57611 0.13528 0.0
C3662 C 0.61408 0.56468 0.15377 0.0
C3663 C 0.63184 0.54966 0.1464 0.0
C3664 C 0.62601 0.5574 0.14629 0.0
C3665 C 0.60568 0.57677 0.14403 0.0
C3666 C 0.61324 0.57065 0.14516 0.0
H3667 H 0.63448 0.53083 0.13191 0.0
H3668 H 0.62466 0.54325 0.13218 0.0
H3669 H 0.6206 0.55327 0.1609 0.0
H3670 H 0.59819 0.59486 0.15562 0.0
H3671 H 0.61 0.58404 0.15826 0.0
C3672 C 0.18391 0.96381 0.88741 0.0
C3673 C 0.19445 0.96397 0.88574 0.0
C3674 C 0.17491 0.95382 0.8887 0.0
C3675 C 0.16509 0.92401 0.88382 0.0
H3676 H 0.14276 0.92175 0.90152 0.0
C3677 C 0.12765 0.88321 0.89029 0.0
C3678 C 0.11721 0.8841 0.88957 0.0
C3679 C 0.13748 0.89267 0.89086 0.0
C3680 C 0.14892 0.92227 0.89653 0.0
H3681 H 0.20378 0.95365 0.88418 0.0
H3682 H 0.18818 0.93625 0.88673 0.0
H3683 H 0.15929 0.93875 0.90059 0.0
H3684 H 0.10885 0.89554 0.88929 0.0
H3685 H 0.126 0.91207 0.89034 0.0
H3686 H 0.15468 0.90751 0.87979 0.0
C3687 C 0.18681 0.94386 0.88688 0.0
C3688 C 0.15838 0.93202 0.89596 0.0
C3689 C 0.19581 0.95386 0.88553 0.0
C3690 C 0.11679 0.89462 0.88978 0.0
C3691 C 0.1266 0.90406 0.89045 0.0
C3692 C 0.15568 0.91423 0.88445 0.0
C3693 C 0.17623 0.94371 0.88843 0.0
C3694 C 0.16651 0.93308 0.8895 0.0
C3695 C 0.13705 0.9032 0.89084 0.0
C3696 C 0.14742 0.9133 0.89072 0.0
H3697 H 0.18258 0.97142 0.88777 0.0
H3698 H 0.16686 0.95405 0.88974 0.0
H3699 H 0.17108 0.92456 0.87866 0.0
H3700 H 0.12823 0.87522 0.89006 0.0
H3701 H 0.14541 0.89175 0.89123 0.0
C3702 C 0.91473 0.89553 0.58211 0.0
C3703 C 0.91022 0.88395 0.58312 0.0
C3704 C 0.91229 0.90203 0.58853 0.0
C3705 C 0.90382 0.90077 0.61338 0.0
H3706 H 0.89866 0.92735 0.60573 0.0
C3707 C 0.8945 0.9251 0.64194 0.0
C3708 C 0.90037 0.93658 0.64164 0.0
C3709 C 0.89397 0.91878 0.63399 0.0
C3710 C 0.90015 0.91998 0.60798 0.0
H3711 H 0.89907 0.87013 0.59129 0.0
H3712 H 0.89485 0.88143 0.60246 0.0
H3713 H 0.90126 0.91616 0.59331 0.0
H3714 H 0.90981 0.95054 0.63267 0.0
H3715 H 0.90908 0.93948 0.61878 0.0
H3716 H 0.90303 0.90462 0.62801 0.0
C3717 C 0.90046 0.88551 0.59685 0.0
C3718 C 0.90164 0.91358 0.60087 0.0
C3719 C 0.90289 0.87903 0.59045 0.0
C3720 C 0.90514 0.94171 0.63304 0.0
C3721 C 0.90472 0.93536 0.62509 0.0
C3722 C 0.90238 0.90715 0.62046 0.0
C3723 C 0.90529 0.89708 0.59609 0.0
C3724 C 0.90349 0.90389 0.6035 0.0
C3725 C 0.89946 0.92377 0.62561 0.0
C3726 C 0.90051 0.91684 0.61788 0.0
H3727 H 0.92046 0.89958 0.57657 0.0
H3728 H 0.91621 0.91093 0.5878 0.0
H3729 H 0.90548 0.89349 0.61568 0.0
H3730 H 0.89068 0.92098 0.64848 0.0
H3731 H 0.88959 0.90991 0.63455 0.0
C3732 C 0.95695 0.14766 0.32682 0.0
C3733 C 0.96102 0.15504 0.319 0.0
C3734 C 0.95335 0.151 0.33485 0.0
C3735 C 0.95523 0.1754 0.348 0.0
H3736 H 0.92752 0.1552 0.35791 0.0
C3737 C 0.93292 0.18701 0.37772 0.0
C3738 C 0.92784 0.17872 0.38462 0.0
C3739 C 0.93744 0.18461 0.36972 0.0
C3740 C 0.93534 0.16089 0.35532 0.0
H3741 H 0.96477 0.17183 0.31361 0.0
H3742 H 0.95838 0.17765 0.32764 0.0
H3743 H 0.93459 0.15011 0.34403 0.0
H3744 H 0.92408 0.16159 0.3889 0.0
H3745 H 0.93203 0.15743 0.37509 0.0
H3746 H 0.95599 0.18616 0.35938 0.0
C3747 C 0.95803 0.16928 0.32755 0.0
C3748 C 0.93939 0.15797 0.34735 0.0
C3749 C 0.96158 0.16592 0.31948 0.0
C3750 C 0.92771 0.16809 0.38357 0.0
C3751 C 0.93225 0.16571 0.37564 0.0
C3752 C 0.95119 0.17832 0.35603 0.0
C3753 C 0.95375 0.16181 0.33527 0.0
C3754 C 0.94942 0.16514 0.34364 0.0
C3755 C 0.93701 0.17388 0.36853 0.0
C3756 C 0.94124 0.17104 0.35983 0.0
H3757 H 0.9563 0.1392 0.32665 0.0
H3758 H 0.95023 0.14509 0.34074 0.0
H3759 H 0.96303 0.18107 0.34534 0.0
H3760 H 0.93311 0.19527 0.37834 0.0
H3761 H 0.94099 0.19108 0.36435 0.0
C3762 C 0.59997 0.11819 0.10113 0.0
C3763 C 0.58936 0.11803 0.09796 0.0
C3764 C 0.60108 0.11013 0.10773 0.0
C3765 C 0.58548 0.09062 0.12654 0.0
H3766 H 0.60848 0.07875 0.12627 0.0
C3767 C 0.58714 0.05787 0.15465 0.0
C3768 C 0.59755 0.05992 0.15965 0.0
C3769 C 0.58634 0.06353 0.14596 0.0
C3770 C 0.60204 0.08203 0.12644 0.0
H3771 H 0.5716 0.10895 0.09874 0.0
H3772 H 0.57349 0.0948 0.1101 0.0
H3773 H 0.60661 0.09147 0.11321 0.0
H3774 H 0.61534 0.06896 0.15934 0.0
H3775 H 0.61397 0.07906 0.14408 0.0
H3776 H 0.58097 0.08136 0.13976 0.0
C3777 C 0.58098 0.10131 0.10773 0.0
C3778 C 0.60099 0.08933 0.11898 0.0
C3779 C 0.57989 0.1094 0.10121 0.0
C3780 C 0.60724 0.0672 0.15552 0.0
C3781 C 0.60643 0.07296 0.14682 0.0
C3782 C 0.58651 0.08333 0.13393 0.0
C3783 C 0.59159 0.1017 0.11124 0.0
C3784 C 0.59268 0.09371 0.11895 0.0
C3785 C 0.59593 0.07148 0.14215 0.0
C3786 C 0.59478 0.07893 0.13398 0.0
H3787 H 0.60742 0.12479 0.09879 0.0
H3788 H 0.60937 0.11074 0.11035 0.0
H3789 H 0.57918 0.09403 0.12691 0.0
H3790 H 0.57957 0.05226 0.15772 0.0
H3791 H 0.57814 0.06203 0.14244 0.0
C3792 C 0.50938 0.84052 0.81924 0.0
C3793 C 0.51463 0.84351 0.81046 0.0
C3794 C 0.51418 0.83644 0.82717 0.0
C3795 C 0.53597 0.82516 0.8346 0.0
H3796 H 0.5358 0.83743 0.85942 0.0
C3797 C 0.56686 0.82633 0.86769 0.0
C3798 C 0.56308 0.82533 0.87705 0.0
C3799 C 0.5598 0.82633 0.85946 0.0
C3800 C 0.53576 0.83374 0.85259 0.0
H3801 H 0.52883 0.84404 0.80304 0.0
H3802 H 0.53739 0.83725 0.81698 0.0
H3803 H 0.52568 0.8417 0.84524 0.0
H3804 H 0.54871 0.82294 0.88508 0.0
H3805 H 0.53635 0.8227 0.87073 0.0
H3806 H 0.54638 0.81748 0.84199 0.0
C3807 C 0.52947 0.83794 0.81769 0.0
C3808 C 0.52995 0.8362 0.84444 0.0
C3809 C 0.52464 0.84198 0.80973 0.0
C3810 C 0.55188 0.82365 0.87798 0.0
C3811 C 0.54483 0.82366 0.86976 0.0
C3812 C 0.54183 0.82272 0.84278 0.0
C3813 C 0.5244 0.8353 0.82656 0.0
C3814 C 0.53005 0.83203 0.83531 0.0
C3815 C 0.5488 0.82534 0.86043 0.0
C3816 C 0.54187 0.82707 0.85185 0.0
H3817 H 0.50173 0.84168 0.82012 0.0
H3818 H 0.50995 0.83433 0.83383 0.0
H3819 H 0.5361 0.82169 0.82771 0.0
H3820 H 0.57541 0.82752 0.86673 0.0
H3821 H 0.56314 0.82768 0.85239 0.0
C3822 C 0.87398 0.14545 0.93803 0.0
C3823 C 0.87585 0.15671 0.93688 0.0
C3824 C 0.87463 0.13949 0.93021 0.0
C3825 C 0.88499 0.14238 0.90563 0.0
H3826 H 0.86131 0.11356 0.90212 0.0
C3827 C 0.87376 0.11887 0.86947 0.0
C3828 C 0.86958 0.10728 0.86999 0.0
C3829 C 0.87638 0.12495 0.87796 0.0
C3830 C 0.86812 0.12149 0.90306 0.0
H3831 H 0.88025 0.17062 0.92665 0.0
H3832 H 0.88113 0.16015 0.91294 0.0
H3833 H 0.86221 0.12406 0.91628 0.0
H3834 H 0.86571 0.09301 0.87975 0.0
H3835 H 0.87049 0.10361 0.89457 0.0
H3836 H 0.89076 0.13983 0.89225 0.0
C3837 C 0.87926 0.15595 0.91993 0.0
C3838 C 0.86862 0.12754 0.9112 0.0
C3839 C 0.87862 0.16193 0.92776 0.0
C3840 C 0.86879 0.10193 0.87915 0.0
C3841 C 0.87146 0.108 0.88762 0.0
C3842 C 0.8845 0.13631 0.89746 0.0
C3843 C 0.87714 0.14463 0.92103 0.0
C3844 C 0.87701 0.13808 0.91256 0.0
C3845 C 0.87491 0.11956 0.88713 0.0
C3846 C 0.87601 0.12582 0.89606 0.0
H3847 H 0.87173 0.14114 0.94492 0.0
H3848 H 0.87308 0.1308 0.93134 0.0
H3849 H 0.89164 0.15042 0.90652 0.0
H3850 H 0.87435 0.12319 0.8625 0.0
H3851 H 0.87895 0.13383 0.87731 0.0
C3852 C 0.59284 0.13325 0.67634 0.0
C3853 C 0.5946 0.13622 0.68614 0.0
C3854 C 0.60179 0.13427 0.67096 0.0
C3855 C 0.63226 0.14927 0.67059 0.0
H3856 H 0.62891 0.12891 0.65017 0.0
C3857 C 0.66767 0.15586 0.64571 0.0
C3858 C 0.6643 0.15571 0.63576 0.0
C3859 C 0.65971 0.15172 0.65261 0.0
C3860 C 0.62997 0.13465 0.65586 0.0
H3861 H 0.60723 0.14243 0.69802 0.0
H3862 H 0.62281 0.1439 0.68872 0.0
H3863 H 0.61395 0.12507 0.66098 0.0
H3864 H 0.65011 0.15054 0.62518 0.0
H3865 H 0.63623 0.14324 0.63719 0.0
H3866 H 0.64823 0.15891 0.66538 0.0
C3867 C 0.6145 0.14096 0.68514 0.0
C3868 C 0.62138 0.13249 0.66203 0.0
C3869 C 0.60554 0.13999 0.6905 0.0
C3870 C 0.65291 0.15078 0.63281 0.0
C3871 C 0.64498 0.14655 0.63969 0.0
C3872 C 0.64088 0.15138 0.66447 0.0
C3873 C 0.61275 0.13821 0.67527 0.0
C3874 C 0.62232 0.1399 0.66934 0.0
C3875 C 0.64827 0.14725 0.64967 0.0
C3876 C 0.63973 0.14422 0.65691 0.0
H3877 H 0.58452 0.13015 0.67277 0.0
H3878 H 0.60012 0.13221 0.66336 0.0
H3879 H 0.63324 0.15524 0.67604 0.0
H3880 H 0.67639 0.15969 0.64818 0.0
H3881 H 0.66249 0.15228 0.66025 0.0
C3882 C 0.63041 0.82856 0.45303 0.0
C3883 C 0.62865 0.81827 0.44922 0.0
C3884 C 0.62846 0.83674 0.44716 0.0
C3885 C 0.61463 0.84154 0.42362 0.0
H3886 H 0.63711 0.87121 0.4258 0.0
C3887 C 0.62071 0.87531 0.39352 0.0
C3888 C 0.624 0.88632 0.39628 0.0
C3889 C 0.61964 0.86693 0.40053 0.0
C3890 C 0.63064 0.86302 0.4252 0.0
H3891 H 0.62305 0.8084 0.4363 0.0
H3892 H 0.61993 0.82276 0.42599 0.0
H3893 H 0.63838 0.85673 0.43702 0.0
H3894 H 0.62809 0.89706 0.40859 0.0
H3895 H 0.62621 0.88242 0.42084 0.0
H3896 H 0.60707 0.84783 0.41162 0.0
C3897 C 0.62271 0.82447 0.43356 0.0
C3898 C 0.63137 0.8547 0.43164 0.0
C3899 C 0.62464 0.81628 0.43944 0.0
C3900 C 0.6257 0.88868 0.40623 0.0
C3901 C 0.62465 0.8803 0.41324 0.0
C3902 C 0.61392 0.84987 0.41716 0.0
C3903 C 0.62472 0.83485 0.43731 0.0
C3904 C 0.62345 0.84383 0.43087 0.0
C3905 C 0.62184 0.86937 0.41046 0.0
C3906 C 0.62199 0.86068 0.4178 0.0
H3907 H 0.63358 0.83042 0.46051 0.0
H3908 H 0.62997 0.8446 0.45032 0.0
H3909 H 0.60829 0.8333 0.42292 0.0
H3910 H 0.6195 0.87321 0.38593 0.0
H3911 H 0.61759 0.85862 0.39814 0.0
C3912 C 0.90351 0.8978 0.16195 0.0
C3913 C 0.90684 0.88944 0.1661 0.0
C3914 C 0.89476 0.89537 0.15473 0.0
C3915 C 0.87923 0.87532 0.13593 0.0
H3916 H 0.85712 0.88813 0.13716 0.0
C3917 C 0.84001 0.86471 0.10875 0.0
C3918 C 0.83655 0.87339 0.10588 0.0
C3919 C 0.84859 0.86622 0.11607 0.0
C3920 C 0.8633 0.88459 0.13662 0.0
H3921 H 0.90365 0.87199 0.16587 0.0
H3922 H 0.88832 0.86773 0.15323 0.0
H3923 H 0.87198 0.89161 0.15002 0.0
H3924 H 0.83975 0.8906 0.10802 0.0
H3925 H 0.85476 0.8933 0.12059 0.0
H3926 H 0.87064 0.86844 0.12243 0.0
C3927 C 0.89252 0.87617 0.15557 0.0
C3928 C 0.8718 0.88656 0.14402 0.0
C3929 C 0.90121 0.87858 0.16286 0.0
C3930 C 0.84207 0.88369 0.11023 0.0
C3931 C 0.85066 0.88522 0.11747 0.0
C3932 C 0.87075 0.87339 0.12847 0.0
C3933 C 0.88918 0.88453 0.15144 0.0
C3934 C 0.87992 0.88204 0.14372 0.0
C3935 C 0.85392 0.87647 0.12061 0.0
C3936 C 0.86273 0.87809 0.12868 0.0
H3937 H 0.90762 0.90622 0.16433 0.0
H3938 H 0.89246 0.90201 0.15162 0.0
H3939 H 0.88543 0.87178 0.13546 0.0
H3940 H 0.83587 0.85668 0.10553 0.0
H3941 H 0.85084 0.85929 0.11835 0.0
C3942 C 0.09225 0.62705 0.17499 0.0
C3943 C 0.09352 0.62969 0.18486 0.0
C3944 C 0.10149 0.62823 0.16995 0.0
C3945 C 0.132 0.64335 0.17078 0.0
H3946 H 0.12975 0.62396 0.14985 0.0
C3947 C 0.16851 0.65183 0.14678 0.0
C3948 C 0.16547 0.65214 0.1368 0.0
C3949 C 0.16034 0.64711 0.15342 0.0
C3950 C 0.13051 0.62943 0.15569 0.0
H3951 H 0.10557 0.63543 0.19721 0.0
H3952 H 0.12165 0.63718 0.18849 0.0
H3953 H 0.11426 0.61951 0.1602 0.0
H3954 H 0.15163 0.64713 0.12586 0.0
H3955 H 0.13737 0.63882 0.1374 0.0
H3956 H 0.14817 0.65335 0.16617 0.0
C3957 C 0.11351 0.63438 0.1846 0.0
C3958 C 0.12162 0.62691 0.16159 0.0
C3959 C 0.10426 0.63325 0.18963 0.0
C3960 C 0.15419 0.64702 0.13352 0.0
C3961 C 0.14604 0.64222 0.14014 0.0
C3962 C 0.14091 0.64581 0.16492 0.0
C3963 C 0.11226 0.632 0.17466 0.0
C3964 C 0.12215 0.63398 0.16907 0.0
C3965 C 0.14899 0.64251 0.15018 0.0
C3966 C 0.14016 0.63901 0.15718 0.0
H3967 H 0.08409 0.62412 0.17112 0.0
H3968 H 0.1002 0.62645 0.16228 0.0
H3969 H 0.13267 0.64907 0.17637 0.0
H3970 H 0.17715 0.65578 0.1495 0.0
H3971 H 0.16286 0.64736 0.16112 0.0
C3972 C 0.11771 0.31863 0.94104 0.0
C3973 C 0.11929 0.30937 0.9379 0.0
C3974 C 0.11545 0.32601 0.93433 0.0
C3975 C 0.11906 0.33519 0.90861 0.0
H3976 H 0.10123 0.35164 0.91416 0.0
C3977 C 0.11484 0.36858 0.88189 0.0
C3978 C 0.11757 0.37886 0.88613 0.0
C3979 C 0.11251 0.359 0.8877 0.0
C3980 C 0.10621 0.34709 0.91251 0.0
H3981 H 0.11936 0.30048 0.92515 0.0
H3982 H 0.11499 0.31304 0.91351 0.0
H3983 H 0.10194 0.33674 0.92528 0.0
H3984 H 0.11915 0.38705 0.89968 0.0
H3985 H 0.11508 0.37032 0.90984 0.0
H3986 H 0.12344 0.3456 0.89593 0.0
C3987 C 0.11576 0.31477 0.92117 0.0
C3988 C 0.10667 0.33859 0.9189 0.0
C3989 C 0.11811 0.30745 0.92787 0.0
C3990 C 0.11715 0.37924 0.89623 0.0
C3991 C 0.11475 0.36966 0.90203 0.0
C3992 C 0.11852 0.34361 0.90221 0.0
C3993 C 0.11462 0.32426 0.92429 0.0
C3994 C 0.11326 0.33265 0.91711 0.0
C3995 C 0.11279 0.3595 0.89787 0.0
C3996 C 0.11224 0.34977 0.90416 0.0
H3997 H 0.11834 0.32028 0.94871 0.0
H3998 H 0.11473 0.33327 0.93702 0.0
H3999 H 0.12439 0.33097 0.90707 0.0
H4000 H 0.11518 0.36803 0.87414 0.0
H4001 H 0.11089 0.35127 0.88428 0.0
C4002 C 0.39598 0.38715 0.66184 0.0
C4003 C 0.39968 0.37898 0.66581 0.0
C4004 C 0.38666 0.38442 0.65519 0.0
C4005 C 0.36981 0.36368 0.63739 0.0
H4006 H 0.34773 0.37622 0.63995 0.0
C4007 C 0.32892 0.35175 0.61235 0.0
C4008 C 0.32513 0.36024 0.60956 0.0
C4009 C 0.33789 0.35359 0.61931 0.0
C4010 C 0.35388 0.37275 0.63904 0.0
H4011 H 0.39656 0.36153 0.66587 0.0
H4012 H 0.38025 0.35674 0.65422 0.0
H4013 H 0.36356 0.3803 0.65192 0.0
H4014 H 0.32809 0.37742 0.61155 0.0
H4015 H 0.34379 0.38069 0.62351 0.0
H4016 H 0.36025 0.35629 0.6244 0.0
C4017 C 0.38458 0.36527 0.65626 0.0
C4018 C 0.36294 0.37507 0.64593 0.0
C4019 C 0.39385 0.36799 0.66299 0.0
C4020 C 0.33067 0.37065 0.61371 0.0
C4021 C 0.33965 0.37251 0.62059 0.0
C4022 C 0.36077 0.36141 0.63044 0.0
C4023 C 0.38088 0.37345 0.6523 0.0
C4024 C 0.37105 0.37063 0.64514 0.0
C4025 C 0.34332 0.36399 0.62358 0.0
C4026 C 0.35274 0.366 0.63113 0.0
H4027 H 0.40024 0.39567 0.66393 0.0
H4028 H 0.38407 0.39093 0.6522 0.0
H4029 H 0.37598 0.36021 0.63654 0.0
H4030 H 0.32477 0.34363 0.6093 0.0
H4031 H 0.34042 0.34681 0.62149 0.0
C4032 C 0.09437 0.61563 0.59855 0.0
C4033 C 0.08407 0.61613 0.5952 0.0
C4034 C 0.09478 0.607 0.60481 0.0
C4035 C 0.0778 0.58712 0.62264 0.0
H4036 H 0.09957 0.57371 0.62227 0.0
C4037 C 0.07668 0.55256 0.6498 0.0
C4038 C 0.08686 0.55364 0.65481 0.0
C4039 C 0.07644 0.5588 0.64134 0.0
C4040 C 0.09348 0.57742 0.62248 0.0
H4041 H 0.06614 0.60764 0.59525 0.0
H4042 H 0.06684 0.59256 0.60603 0.0
H4043 H 0.09892 0.58734 0.60962 0.0
H4044 H 0.1048 0.56156 0.65474 0.0
H4045 H 0.10444 0.5727 0.63992 0.0
H4046 H 0.07245 0.57745 0.63552 0.0
C4047 C 0.07461 0.59896 0.60406 0.0
C4048 C 0.09311 0.58523 0.61525 0.0
C4049 C 0.0742 0.60759 0.59787 0.0
C4050 C 0.09686 0.56056 0.65092 0.0
C4051 C 0.09663 0.56691 0.64246 0.0
C4052 C 0.07816 0.57936 0.62982 0.0
C4053 C 0.0849 0.59869 0.6078 0.0
C4054 C 0.08525 0.59016 0.61525 0.0
C4055 C 0.08639 0.56638 0.63778 0.0
C4056 C 0.08597 0.57438 0.62984 0.0
H4057 H 0.10211 0.62213 0.59666 0.0
H4058 H 0.10284 0.6071 0.60761 0.0
H4059 H 0.07183 0.59095 0.62303 0.0
H4060 H 0.06887 0.54722 0.65268 0.0
H4061 H 0.06843 0.55799 0.6378 0.0
C4062 C 0.43029 0.40208 0.08153 0.0
C4063 C 0.42093 0.39233 0.07963 0.0
C4064 C 0.42955 0.4103 0.08709 0.0
C4065 C 0.40941 0.41978 0.0976 0.0
H4066 H 0.4343 0.43315 0.11644 0.0
C4067 C 0.40739 0.44165 0.13235 0.0
C4068 C 0.41695 0.45067 0.13545 0.0
C4069 C 0.40736 0.43599 0.12405 0.0
C4070 C 0.42735 0.42966 0.11111 0.0
H4071 H 0.40341 0.38364 0.08193 0.0
H4072 H 0.40215 0.39786 0.09181 0.0
H4073 H 0.43532 0.42039 0.10491 0.0
H4074 H 0.43375 0.46122 0.13225 0.0
H4075 H 0.43369 0.45149 0.11766 0.0
H4076 H 0.40131 0.42884 0.10415 0.0
C4077 C 0.41002 0.39929 0.08885 0.0
C4078 C 0.42794 0.42232 0.10447 0.0
C4079 C 0.41074 0.39111 0.0832 0.0
C4080 C 0.42625 0.45435 0.12988 0.0
C4081 C 0.42624 0.44871 0.12162 0.0
C4082 C 0.40879 0.4271 0.10431 0.0
C4083 C 0.41946 0.40893 0.09098 0.0
C4084 C 0.41896 0.41722 0.09766 0.0
C4085 C 0.41695 0.43922 0.11881 0.0
C4086 C 0.41774 0.43207 0.11118 0.0
H4087 H 0.4382 0.40333 0.07873 0.0
H4088 H 0.43693 0.4177 0.0884 0.0
H4089 H 0.40239 0.41613 0.09238 0.0
H4090 H 0.40021 0.43858 0.13667 0.0
H4091 H 0.40011 0.42866 0.12213 0.0
C4092 C 0.5271 0.34826 0.18435 0.0
C4093 C 0.52958 0.34822 0.19447 0.0
C4094 C 0.53119 0.34278 0.17828 0.0
C4095 C 0.55407 0.33283 0.17778 0.0
H4096 H 0.5386 0.32077 0.15321 0.0
C4097 C 0.576 0.31861 0.15046 0.0
C4098 C 0.57615 0.32397 0.14136 0.0
C4099 C 0.56832 0.31833 0.15704 0.0
C4100 C 0.54299 0.32405 0.16008 0.0
H4101 H 0.53805 0.342 0.20611 0.0
H4102 H 0.54483 0.33211 0.19557 0.0
H4103 H 0.52895 0.32651 0.16487 0.0
H4104 H 0.56781 0.33232 0.13163 0.0
H4105 H 0.55433 0.33173 0.14305 0.0
H4106 H 0.56815 0.33058 0.17291 0.0
C4107 C 0.53992 0.33661 0.1923 0.0
C4108 C 0.5375 0.32741 0.16674 0.0
C4109 C 0.5359 0.34218 0.19837 0.0
C4110 C 0.56786 0.32815 0.13862 0.0
C4111 C 0.56013 0.32778 0.14515 0.0
C4112 C 0.55951 0.32939 0.17117 0.0
C4113 C 0.5378 0.33701 0.18215 0.0
C4114 C 0.54307 0.33211 0.17558 0.0
C4115 C 0.56059 0.32331 0.15459 0.0
C4116 C 0.55413 0.32521 0.16214 0.0
H4117 H 0.52208 0.35264 0.18108 0.0
H4118 H 0.52947 0.3434 0.1705 0.0
H4119 H 0.55872 0.33657 0.18441 0.0
H4120 H 0.58235 0.3154 0.15279 0.0
H4121 H 0.56878 0.31471 0.16423 0.0
C4122 C 0.97356 0.65039 0.69859 0.0
C4123 C 0.97256 0.65442 0.70753 0.0
C4124 C 0.97061 0.65478 0.68982 0.0
C4125 C 0.96395 0.67841 0.67902 0.0
H4126 H 0.94627 0.657 0.65983 0.0
C4127 C 0.93309 0.68579 0.64951 0.0
C4128 C 0.93138 0.6806 0.64055 0.0
C4129 C 0.94052 0.68426 0.65684 0.0
C4130 C 0.95138 0.66314 0.66501 0.0
H4131 H 0.96819 0.66662 0.7142 0.0
H4132 H 0.96271 0.674 0.69897 0.0
H4133 H 0.95461 0.65099 0.67428 0.0
H4134 H 0.93685 0.6706 0.63194 0.0
H4135 H 0.94986 0.668 0.64472 0.0
H4136 H 0.96031 0.6905 0.66984 0.0
C4137 C 0.96589 0.66754 0.6987 0.0
C4138 C 0.95618 0.65969 0.67332 0.0
C4139 C 0.96888 0.66318 0.70746 0.0
C4140 C 0.93787 0.67457 0.63883 0.0
C4141 C 0.94529 0.67304 0.64615 0.0
C4142 C 0.9591 0.68187 0.67071 0.0
C4143 C 0.96656 0.66328 0.68977 0.0
C4144 C 0.96238 0.66723 0.68051 0.0
C4145 C 0.94638 0.67753 0.65537 0.0
C4146 C 0.95262 0.67424 0.66367 0.0
H4147 H 0.97629 0.64361 0.69835 0.0
H4148 H 0.97138 0.6514 0.68308 0.0
H4149 H 0.96883 0.68449 0.68433 0.0
H4150 H 0.92813 0.69038 0.65111 0.0
H4151 H 0.9411 0.68777 0.66387 0.0
C4152 C 0.61407 0.34675 0.58008 0.0
C4153 C 0.61838 0.3385 0.58222 0.0
C4154 C 0.61234 0.35256 0.58753 0.0
C4155 C 0.62278 0.36138 0.61229 0.0
H4156 H 0.5971 0.36948 0.61177 0.0
C4157 C 0.62085 0.3906 0.64064 0.0
C4158 C 0.61757 0.39915 0.63696 0.0
C4159 C 0.61882 0.38138 0.63507 0.0
C4160 C 0.60435 0.36734 0.61201 0.0
H4161 H 0.62385 0.32965 0.59395 0.0
H4162 H 0.62105 0.33997 0.60693 0.0
H4163 H 0.59779 0.35688 0.59973 0.0
H4164 H 0.6091 0.40454 0.6248 0.0
H4165 H 0.60574 0.3886 0.61496 0.0
H4166 H 0.62962 0.37214 0.62424 0.0
C4167 C 0.61907 0.34196 0.59946 0.0
C4168 C 0.60473 0.36011 0.60511 0.0
C4169 C 0.62072 0.33608 0.59202 0.0
C4170 C 0.6116 0.39799 0.62786 0.0
C4171 C 0.60968 0.38884 0.62222 0.0
C4172 C 0.62245 0.36867 0.61912 0.0
C4173 C 0.61496 0.35033 0.59729 0.0
C4174 C 0.61402 0.35718 0.6051 0.0
C4175 C 0.61362 0.38059 0.62562 0.0
C4176 C 0.61331 0.37188 0.61899 0.0
H4177 H 0.61234 0.34898 0.57263 0.0
H4178 H 0.60933 0.35907 0.58561 0.0
H4179 H 0.63013 0.3594 0.6124 0.0
H4180 H 0.62541 0.39128 0.64768 0.0
H4181 H 0.62172 0.37507 0.63803 0.0
C4182 C 0.45457 0.64249 0.84225 0.0
C4183 C 0.4584 0.64916 0.83397 0.0
C4184 C 0.45185 0.64678 0.85023 0.0
C4185 C 0.44327 0.669 0.85671 0.0
H4186 H 0.44867 0.65935 0.88302 0.0
C4187 C 0.4186 0.67143 0.88847 0.0
C4188 C 0.42395 0.67338 0.89786 0.0
C4189 C 0.42422 0.67035 0.88068 0.0
C4190 C 0.44724 0.66228 0.87574 0.0
H4191 H 0.46273 0.66568 0.82772 0.0
H4192 H 0.458 0.67318 0.84167 0.0
H4193 H 0.45622 0.65389 0.86961 0.0
H4194 H 0.43955 0.67616 0.90635 0.0
H4195 H 0.44945 0.67449 0.89269 0.0
H4196 H 0.43428 0.67739 0.86284 0.0
C4197 C 0.45694 0.66458 0.84193 0.0
C4198 C 0.45144 0.65902 0.86803 0.0
C4199 C 0.45965 0.66028 0.83393 0.0
C4200 C 0.43522 0.67473 0.89919 0.0
C4201 C 0.44084 0.67364 0.89139 0.0
C4202 C 0.43907 0.67228 0.86442 0.0
C4203 C 0.4529 0.65785 0.85014 0.0
C4204 C 0.44933 0.66217 0.85841 0.0
C4205 C 0.43533 0.67121 0.88208 0.0
C4206 C 0.44082 0.66878 0.87401 0.0
H4207 H 0.45334 0.63385 0.84246 0.0
H4208 H 0.44858 0.6413 0.85635 0.0
H4209 H 0.44141 0.67152 0.84938 0.0
H4210 H 0.40996 0.67047 0.88719 0.0
H4211 H 0.41967 0.66838 0.87364 0.0
C4212 C 0.02947 0.35497 0.2996 0.0
C4213 C 0.02953 0.36553 0.30095 0.0
C4214 C 0.03356 0.3496 0.3071 0.0
C4215 C 0.03932 0.34982 0.33378 0.0
H4216 H 0.05819 0.33416 0.3291 0.0
C4217 C 0.0568 0.33032 0.36569 0.0
C4218 C 0.06832 0.33282 0.36589 0.0
C4219 C 0.05093 0.33186 0.35714 0.0
C4220 C 0.05292 0.33849 0.33052 0.0
H4221 H 0.03444 0.37894 0.31102 0.0
H4222 H 0.04156 0.36965 0.32401 0.0
H4223 H 0.05054 0.3423 0.3154 0.0
H4224 H 0.08247 0.33794 0.35702 0.0
H4225 H 0.07233 0.34096 0.34221 0.0
H4226 H 0.04204 0.34651 0.34887 0.0
C4227 C 0.0381 0.36537 0.31729 0.0
C4228 C 0.04846 0.34307 0.32267 0.0
C4229 C 0.03403 0.37071 0.30983 0.0
C4230 C 0.07364 0.33611 0.35716 0.0
C4231 C 0.06779 0.33773 0.34863 0.0
C4232 C 0.04377 0.34527 0.34161 0.0
C4233 C 0.03779 0.3547 0.31607 0.0
C4234 C 0.0418 0.34899 0.32424 0.0
C4235 C 0.05645 0.33602 0.34861 0.0
C4236 C 0.05077 0.3397 0.34011 0.0
H4237 H 0.026 0.35074 0.29286 0.0
H4238 H 0.03316 0.34137 0.30595 0.0
H4239 H 0.03407 0.35416 0.33524 0.0
H4240 H 0.05241 0.32782 0.37226 0.0
H4241 H 0.04215 0.33023 0.35734 0.0
C4242 C 0.38059 0.65901 0.45335 0.0
C4243 C 0.37083 0.661 0.45403 0.0
C4244 C 0.38226 0.65453 0.44496 0.0
C4245 C 0.37244 0.65012 0.41893 0.0
H4246 H 0.38412 0.62699 0.42139 0.0
C4247 C 0.37687 0.62907 0.3851 0.0
C4248 C 0.37261 0.61747 0.3857 0.0
C4249 C 0.37886 0.63524 0.39348 0.0
C4250 C 0.38085 0.63344 0.42058 0.0
H4251 H 0.35508 0.65967 0.44647 0.0
H4252 H 0.35794 0.65183 0.43189 0.0
H4253 H 0.38277 0.63602 0.4359 0.0
H4254 H 0.36788 0.60331 0.39564 0.0
H4255 H 0.3711 0.61402 0.4102 0.0
H4256 H 0.37002 0.64723 0.40368 0.0
C4257 C 0.36443 0.65394 0.43775 0.0
C4258 C 0.38018 0.6387 0.42889 0.0
C4259 C 0.36278 0.65842 0.44612 0.0
C4260 C 0.37103 0.61223 0.39492 0.0
C4261 C 0.37299 0.61839 0.40329 0.0
C4262 C 0.37309 0.64486 0.41063 0.0
C4263 C 0.37419 0.65194 0.43706 0.0
C4264 C 0.37577 0.64696 0.42818 0.0
C4265 C 0.37662 0.62996 0.40264 0.0
C4266 C 0.37713 0.63633 0.41137 0.0
H4267 H 0.38701 0.66103 0.45927 0.0
H4268 H 0.38992 0.65321 0.44462 0.0
H4269 H 0.36917 0.65658 0.4181 0.0
H4270 H 0.37813 0.63336 0.37811 0.0
H4271 H 0.38184 0.64415 0.39274 0.0
C4272 C 0.11554 0.30164 0.0348 0.0
C4273 C 0.12645 0.30324 0.03276 0.0
C4274 C 0.1136 0.30613 0.04306 0.0
C4275 C 0.12775 0.32847 0.06048 0.0
H4276 H 0.102 0.31306 0.07527 0.0
C4277 C 0.1151 0.35056 0.08933 0.0
C4278 C 0.11184 0.34481 0.09815 0.0
C4279 C 0.11637 0.34514 0.08137 0.0
C4280 C 0.10927 0.31746 0.07126 0.0
H4281 H 0.14383 0.31047 0.03805 0.0
H4282 H 0.14046 0.31825 0.05249 0.0
H4283 H 0.10556 0.30394 0.06179 0.0
H4284 H 0.10716 0.32878 0.10545 0.0
H4285 H 0.10939 0.31932 0.09157 0.0
H4286 H 0.13159 0.34191 0.07004 0.0
C4287 C 0.13341 0.31369 0.04759 0.0
C4288 C 0.11125 0.31226 0.06346 0.0
C4289 C 0.13535 0.30921 0.03933 0.0
C4290 C 0.10956 0.33343 0.09873 0.0
C4291 C 0.11085 0.328 0.09076 0.0
C4292 C 0.12576 0.33366 0.06826 0.0
C4293 C 0.12252 0.31234 0.0495 0.0
C4294 C 0.12051 0.31771 0.05796 0.0
C4295 C 0.11444 0.33383 0.08203 0.0
C4296 C 0.11648 0.32824 0.07374 0.0
H4297 H 0.1085 0.29724 0.02983 0.0
H4298 H 0.10512 0.30504 0.04422 0.0
H4299 H 0.13488 0.33298 0.05634 0.0
H4300 H 0.11675 0.3593 0.08859 0.0
H4301 H 0.11892 0.34984 0.0747 0.0
C4302 C 0.93336 0.90879 0.27224 0.0
C4303 C 0.9252 0.90269 0.26516 0.0
C4304 C 0.93092 0.90815 0.28199 0.0
C4305 C 0.91152 0.88979 0.29926 0.0
H4306 H 0.9206 0.91567 0.31511 0.0
C4307 C 0.89456 0.88662 0.33651 0.0
C4308 C 0.90213 0.89188 0.34426 0.0
C4309 C 0.89754 0.88894 0.32693 0.0
C4310 C 0.9181 0.90835 0.31081 0.0
H4311 H 0.9081 0.89107 0.26283 0.0
H4312 H 0.90383 0.89008 0.27971 0.0
H4313 H 0.92577 0.91766 0.29828 0.0
H4314 H 0.91857 0.9041 0.34807 0.0
H4315 H 0.92387 0.90813 0.33125 0.0
H4316 H 0.90394 0.88044 0.31169 0.0
C4317 C 0.91214 0.89531 0.27777 0.0
C4318 C 0.92107 0.90949 0.30117 0.0
C4319 C 0.91455 0.89598 0.26806 0.0
C4320 C 0.91256 0.89996 0.34221 0.0
C4321 C 0.91558 0.90225 0.33259 0.0
C4322 C 0.9086 0.88865 0.30885 0.0
C4323 C 0.9203 0.90133 0.28488 0.0
C4324 C 0.91768 0.90022 0.29525 0.0
C4325 C 0.90821 0.89653 0.32486 0.0
C4326 C 0.9117 0.89792 0.31472 0.0
H4327 H 0.94162 0.9141 0.27024 0.0
H4328 H 0.93741 0.91284 0.2873 0.0
H4329 H 0.909 0.88244 0.29498 0.0
H4330 H 0.8864 0.88048 0.33787 0.0
H4331 H 0.89153 0.88461 0.32116 0.0
C4332 C 0.35935 0.68405 0.55561 0.0
C4333 C 0.3619 0.68051 0.54704 0.0
C4334 C 0.36133 0.67956 0.56467 0.0
C4335 C 0.36419 0.65482 0.57606 0.0
H4336 H 0.37796 0.6735 0.59813 0.0
C4337 C 0.37487 0.63672 0.61273 0.0
C4338 C 0.37301 0.64096 0.62122 0.0
C4339 C 0.37431 0.64192 0.6037 0.0
C4340 C 0.37398 0.66814 0.59208 0.0
H4341 H 0.36885 0.66965 0.54138 0.0
H4342 H 0.37205 0.66168 0.55715 0.0
H4343 H 0.37527 0.68184 0.58237 0.0
H4344 H 0.36913 0.65398 0.62692 0.0
H4345 H 0.36791 0.66294 0.61117 0.0
H4346 H 0.3626 0.64111 0.58573 0.0
C4347 C 0.36843 0.66787 0.55683 0.0
C4348 C 0.37247 0.67294 0.58305 0.0
C4349 C 0.36656 0.67242 0.54779 0.0
C4350 C 0.37074 0.6506 0.62051 0.0
C4351 C 0.37007 0.65575 0.61147 0.0
C4352 C 0.36559 0.65002 0.5851 0.0
C4353 C 0.36581 0.67137 0.56537 0.0
C4354 C 0.36756 0.66632 0.57494 0.0
C4355 C 0.37174 0.65142 0.60293 0.0
C4356 C 0.3705 0.65661 0.59324 0.0
H4357 H 0.35559 0.69012 0.55533 0.0
H4358 H 0.3591 0.68233 0.57112 0.0
H4359 H 0.36023 0.64951 0.56997 0.0
H4360 H 0.37676 0.62936 0.61308 0.0
H4361 H 0.37588 0.63847 0.59732 0.0
C4362 C 0.5624 0.1267 0.78624 0.0
C4363 C 0.57215 0.13209 0.78134 0.0
C4364 C 0.56297 0.12514 0.79633 0.0
C4365 C 0.58165 0.13446 0.81877 0.0
H4366 H 0.56277 0.10592 0.82906 0.0
C4367 C 0.58875 0.11816 0.85758 0.0
C4368 C 0.57929 0.11214 0.86266 0.0
C4369 C 0.58761 0.12158 0.84792 0.0
C4370 C 0.56799 0.11399 0.82633 0.0
H4371 H 0.59013 0.1404 0.78332 0.0
H4372 H 0.59116 0.13738 0.80086 0.0
H4373 H 0.56127 0.11001 0.81173 0.0
H4374 H 0.56121 0.10517 0.86163 0.0
H4375 H 0.55922 0.11126 0.84482 0.0
H4376 H 0.58854 0.1383 0.8334 0.0
C4377 C 0.58304 0.13448 0.79692 0.0
C4378 C 0.56712 0.11635 0.81638 0.0
C4379 C 0.58247 0.13608 0.78683 0.0
C4380 C 0.56867 0.10989 0.85796 0.0
C4381 C 0.56753 0.11326 0.84829 0.0
C4382 C 0.58255 0.13207 0.82873 0.0
C4383 C 0.57331 0.12888 0.80179 0.0
C4384 C 0.57397 0.12659 0.81246 0.0
C4385 C 0.57698 0.119 0.84311 0.0
C4386 C 0.57576 0.12179 0.83261 0.0
H4387 H 0.55432 0.12343 0.78226 0.0
H4388 H 0.55529 0.12094 0.79986 0.0
H4389 H 0.58695 0.14249 0.81602 0.0
H4390 H 0.59705 0.12009 0.86104 0.0
H4391 H 0.59506 0.12592 0.84411 0.0
C4392 C 0.08426 0.64848 0.49365 0.0
C4393 C 0.07616 0.64162 0.49977 0.0
C4394 C 0.08329 0.64643 0.48369 0.0
C4395 C 0.06274 0.63148 0.46388 0.0
H4396 H 0.08867 0.63251 0.45143 0.0
C4397 C 0.05838 0.61078 0.42754 0.0
C4398 C 0.06555 0.61667 0.42036 0.0
C4399 C 0.06024 0.61451 0.43704 0.0
C4400 C 0.08138 0.63231 0.45478 0.0
H4401 H 0.0605 0.62749 0.50015 0.0
H4402 H 0.0589 0.62382 0.48293 0.0
H4403 H 0.09069 0.63813 0.4683 0.0
H4404 H 0.08055 0.63094 0.41764 0.0
H4405 H 0.08387 0.63744 0.43433 0.0
H4406 H 0.05339 0.62549 0.45046 0.0
C4407 C 0.06598 0.63082 0.48576 0.0
C4408 C 0.08254 0.63555 0.46443 0.0
C4409 C 0.06696 0.63285 0.49567 0.0
C4410 C 0.0749 0.62618 0.42301 0.0
C4411 C 0.07679 0.62991 0.43256 0.0
C4412 C 0.06158 0.62821 0.45428 0.0
C4413 C 0.07416 0.63753 0.47965 0.0
C4414 C 0.07319 0.635 0.46915 0.0
C4415 C 0.06935 0.62422 0.43963 0.0
C4416 C 0.07085 0.6284 0.44966 0.0
H4417 H 0.09148 0.65527 0.49659 0.0
H4418 H 0.08969 0.65182 0.47917 0.0
H4419 H 0.0554 0.63118 0.46721 0.0
H4420 H 0.05125 0.60328 0.42581 0.0
H4421 H 0.0545 0.60978 0.44236 0.0
C4422 C 0.53986 0.87377 0.71509 0.0
C4423 C 0.52846 0.86716 0.7155 0.0
C4424 C 0.54584 0.87269 0.70755 0.0
C4425 C 0.5428 0.86062 0.68315 0.0
H4426 H 0.57155 0.85939 0.69124 0.0
C4427 C 0.56971 0.85128 0.65623 0.0
C4428 C 0.57417 0.84345 0.65965 0.0
C4429 C 0.56493 0.85585 0.66259 0.0
C4430 C 0.56353 0.85971 0.68884 0.0
H4431 H 0.5143 0.85468 0.70795 0.0
H4432 H 0.52476 0.85263 0.69494 0.0
H4433 H 0.56134 0.86422 0.70291 0.0
H4434 H 0.57758 0.83468 0.6725 0.0
H4435 H 0.56919 0.84251 0.68352 0.0
H4436 H 0.54482 0.85563 0.66917 0.0
C4437 C 0.52908 0.85871 0.70041 0.0
C4438 C 0.55773 0.86261 0.69552 0.0
C4439 C 0.5231 0.8598 0.70794 0.0
C4440 C 0.57409 0.84059 0.66961 0.0
C4441 C 0.56938 0.84518 0.67595 0.0
C4442 C 0.54862 0.85772 0.67646 0.0
C4443 C 0.54059 0.86498 0.70022 0.0
C4444 C 0.54719 0.86292 0.69281 0.0
C4445 C 0.56462 0.85277 0.67252 0.0
C4446 C 0.55897 0.85702 0.67928 0.0
H4447 H 0.5443 0.87946 0.72081 0.0
H4448 H 0.55465 0.87777 0.70757 0.0
H4449 H 0.53477 0.86091 0.68077 0.0
H4450 H 0.56962 0.85361 0.64859 0.0
H4451 H 0.56142 0.86175 0.65973 0.0
C4452 C 0.42432 0.38028 0.98168 0.0
C4453 C 0.41995 0.36956 0.98581 0.0
C4454 C 0.4233 0.38202 0.97164 0.0
C4455 C 0.40599 0.36908 0.9497 0.0
H4456 H 0.42922 0.39211 0.93629 0.0
C4457 C 0.40164 0.37718 0.9083 0.0
C4458 C 0.40475 0.38828 0.90521 0.0
C4459 C 0.40425 0.37444 0.91787 0.0
C4460 C 0.42263 0.3857 0.93995 0.0
H4461 H 0.41131 0.35224 0.98255 0.0
H4462 H 0.40972 0.35525 0.96497 0.0
H4463 H 0.43257 0.38798 0.95344 0.0
H4464 H 0.41333 0.40522 0.9097 0.0
H4465 H 0.41778 0.40045 0.92644 0.0
H4466 H 0.39602 0.36687 0.93624 0.0
C4467 C 0.4138 0.36233 0.96954 0.0
C4468 C 0.42454 0.38333 0.94978 0.0
C4469 C 0.41482 0.36059 0.97961 0.0
C4470 C 0.41073 0.39659 0.91187 0.0
C4471 C 0.41338 0.39385 0.92144 0.0
C4472 C 0.40409 0.37143 0.93987 0.0
C4473 C 0.41791 0.37308 0.96544 0.0
C4474 C 0.4162 0.37507 0.95481 0.0
C4475 C 0.41007 0.38274 0.92458 0.0
C4476 C 0.41234 0.37985 0.9349 0.0
H4477 H 0.42847 0.38737 0.98623 0.0
H4478 H 0.42648 0.39041 0.96877 0.0
H4479 H 0.39931 0.36279 0.95337 0.0
H4480 H 0.39692 0.37057 0.90339 0.0
H4481 H 0.40167 0.36581 0.92003 0.0
C4482 C 0.96909 0.13517 0.22053 0.0
C4483 C 0.96247 0.12793 0.22745 0.0
C4484 C 0.96418 0.13776 0.21183 0.0
C4485 C 0.93873 0.12833 0.19526 0.0
H4486 H 0.94811 0.15932 0.18785 0.0
C4487 C 0.91444 0.14479 0.16543 0.0
C4488 C 0.92056 0.15405 0.15981 0.0
C4489 C 0.91976 0.14092 0.17316 0.0
C4490 C 0.94551 0.15061 0.18968 0.0
H4491 H 0.94556 0.11741 0.23056 0.0
H4492 H 0.93698 0.12193 0.21535 0.0
H4493 H 0.95709 0.1538 0.20219 0.0
H4494 H 0.93709 0.16611 0.15747 0.0
H4495 H 0.94644 0.1592 0.17072 0.0
H4496 H 0.92717 0.12512 0.18271 0.0
C4497 C 0.94596 0.12561 0.21666 0.0
C4498 C 0.95065 0.14746 0.19794 0.0
C4499 C 0.95086 0.12311 0.22539 0.0
C4500 C 0.93215 0.15906 0.16179 0.0
C4501 C 0.93749 0.15513 0.16942 0.0
C4502 C 0.93363 0.13148 0.18693 0.0
C4503 C 0.95255 0.13307 0.20984 0.0
C4504 C 0.94729 0.1363 0.20085 0.0
C4505 C 0.93134 0.14617 0.17536 0.0
C4506 C 0.93693 0.14267 0.18405 0.0
H4507 H 0.97804 0.13907 0.22194 0.0
H4508 H 0.96948 0.14347 0.20668 0.0
H4509 H 0.93603 0.11966 0.19729 0.0
H4510 H 0.90548 0.14082 0.16409 0.0
H4511 H 0.91473 0.13407 0.17762 0.0
C4512 C 0.03168 0.09887 0.30421 0.0
C4513 C 0.02042 0.0945 0.30635 0.0
C4514 C 0.0388 0.09356 0.30766 0.0
C4515 C 0.04168 0.07496 0.32763 0.0
H4516 H 0.06543 0.07369 0.31332 0.0
C4517 C 0.07159 0.05573 0.34537 0.0
C4518 C 0.08297 0.06179 0.34428 0.0
C4519 C 0.06349 0.05812 0.33948 0.0
C4520 C 0.05887 0.07402 0.31742 0.0
H4521 H 0.00767 0.08076 0.31327 0.0
H4522 H 0.02007 0.07151 0.31927 0.0
H4523 H 0.05211 0.08097 0.30531 0.0
H4524 H 0.0948 0.07478 0.33589 0.0
H4525 H 0.08068 0.07908 0.32567 0.0
H4526 H 0.04855 0.06835 0.33981 0.0
C4527 C 0.02345 0.07916 0.31509 0.0
C4528 C 0.05124 0.07819 0.31283 0.0
C4529 C 0.01635 0.08446 0.31166 0.0
C4530 C 0.08608 0.06989 0.33682 0.0
C4531 C 0.07798 0.07235 0.33097 0.0
C4532 C 0.04931 0.07083 0.33221 0.0
C4533 C 0.03482 0.08377 0.31332 0.0
C4534 C 0.0426 0.07878 0.31791 0.0
C4535 C 0.06658 0.06671 0.33242 0.0
C4536 C 0.05805 0.07038 0.32721 0.0
H4537 H 0.0351 0.10664 0.30021 0.0
H4538 H 0.04753 0.09739 0.30624 0.0
H4539 H 0.03528 0.07549 0.33182 0.0
H4540 H 0.06896 0.04936 0.35099 0.0
H4541 H 0.05479 0.05344 0.34065 0.0
C4542 C 0.08354 0.71222 0.58657 0.0
C4543 C 0.08035 0.71319 0.57668 0.0
C4544 C 0.08462 0.72042 0.59304 0.0
C4545 C 0.07697 0.74444 0.59628 0.0
H4546 H 0.10175 0.75196 0.61586 0.0
C4547 C 0.09129 0.78283 0.62092 0.0
C4548 C 0.09497 0.78141 0.6306 0.0
C4549 C 0.08839 0.77426 0.61434 0.0
C4550 C 0.0947 0.74987 0.61052 0.0
H4551 H 0.0756 0.72355 0.56592 0.0
H4552 H 0.0778 0.73804 0.57718 0.0
H4553 H 0.09913 0.73774 0.60432 0.0
H4554 H 0.09765 0.76964 0.64111 0.0
H4555 H 0.0926 0.75474 0.62968 0.0
H4556 H 0.0727 0.75678 0.60247 0.0
C4557 C 0.07932 0.73083 0.57994 0.0
C4558 C 0.09319 0.7417 0.60389 0.0
C4559 C 0.0782 0.72258 0.57346 0.0
C4560 C 0.09508 0.77107 0.63366 0.0
C4561 C 0.09221 0.76254 0.6271 0.0
C4562 C 0.07853 0.75269 0.60291 0.0
C4563 C 0.08263 0.72989 0.58982 0.0
C4564 C 0.08426 0.7388 0.59672 0.0
C4565 C 0.08913 0.76412 0.6173 0.0
C4566 C 0.08736 0.75543 0.61016 0.0
H4567 H 0.08541 0.7052 0.58932 0.0
H4568 H 0.08702 0.71931 0.60061 0.0
H4569 H 0.06995 0.74235 0.59091 0.0
H4570 H 0.09118 0.79072 0.61833 0.0
H4571 H 0.08608 0.77575 0.60683 0.0
C4572 C 0.45007 0.89186 0.7832 0.0
C4573 C 0.45613 0.89847 0.77566 0.0
C4574 C 0.44311 0.89525 0.7882 0.0
C4575 C 0.438 0.92004 0.79388 0.0
H4576 H 0.4101 0.89828 0.80213 0.0
C4577 C 0.40652 0.93138 0.81398 0.0
C4578 C 0.40201 0.92451 0.822 0.0
C4579 C 0.41284 0.92851 0.80774 0.0
C4580 C 0.4179 0.90445 0.79994 0.0
H4581 H 0.45957 0.91387 0.76746 0.0
H4582 H 0.44724 0.91969 0.77607 0.0
H4583 H 0.42151 0.89269 0.79223 0.0
H4584 H 0.40042 0.90913 0.82959 0.0
H4585 H 0.41149 0.90421 0.81883 0.0
H4586 H 0.43436 0.93179 0.80165 0.0
C4587 C 0.44798 0.91192 0.77819 0.0
C4588 C 0.42446 0.90125 0.79427 0.0
C4589 C 0.45496 0.90852 0.77318 0.0
C4590 C 0.40389 0.91468 0.82357 0.0
C4591 C 0.41013 0.91179 0.81733 0.0
C4592 C 0.43141 0.92326 0.79954 0.0
C4593 C 0.44198 0.90534 0.78578 0.0
C4594 C 0.43468 0.90895 0.79128 0.0
C4595 C 0.41469 0.91865 0.80933 0.0
C4596 C 0.42136 0.91546 0.80275 0.0
H4597 H 0.45064 0.88401 0.78524 0.0
H4598 H 0.43875 0.89002 0.79408 0.0
H4599 H 0.44587 0.92618 0.79181 0.0
H4600 H 0.40524 0.93902 0.81259 0.0
H4601 H 0.41618 0.93394 0.80161 0.0
C4602 C 0.42634 0.29776 0.07499 0.0
C4603 C 0.42795 0.29702 0.06516 0.0
C4604 C 0.42571 0.28914 0.08161 0.0
C4605 C 0.43184 0.26373 0.08546 0.0
H4606 H 0.40968 0.2567 0.10438 0.0
C4607 C 0.41779 0.22376 0.11005 0.0
C4608 C 0.41539 0.22486 0.11956 0.0
C4609 C 0.42063 0.23281 0.10349 0.0
C4610 C 0.41601 0.25864 0.09923 0.0
H4611 H 0.43045 0.28664 0.05469 0.0
H4612 H 0.42902 0.27144 0.0662 0.0
H4613 H 0.41186 0.27182 0.09274 0.0
H4614 H 0.41496 0.23648 0.1299 0.0
H4615 H 0.41996 0.25221 0.11854 0.0
H4616 H 0.4358 0.25033 0.09194 0.0
C4617 C 0.42838 0.27878 0.0688 0.0
C4618 C 0.41728 0.26733 0.09254 0.0
C4619 C 0.42906 0.28745 0.06217 0.0
C4620 C 0.41655 0.23532 0.12256 0.0
C4621 C 0.41938 0.24433 0.11604 0.0
C4622 C 0.43053 0.25496 0.09215 0.0
C4623 C 0.42658 0.27947 0.07859 0.0
C4624 C 0.42525 0.27006 0.08561 0.0
C4625 C 0.42111 0.24311 0.10635 0.0
C4626 C 0.42265 0.25238 0.09917 0.0
H4627 H 0.42531 0.30491 0.07757 0.0
H4628 H 0.4245 0.29005 0.08911 0.0
H4629 H 0.43812 0.26566 0.08027 0.0
H4630 H 0.4169 0.21579 0.10752 0.0
H4631 H 0.42189 0.23159 0.09607 0.0
C4632 C 0.01818 0.91069 0.20708 0.0
C4633 C 0.00954 0.91345 0.20239 0.0
C4634 C 0.02797 0.91272 0.20248 0.0
C4635 C 0.04455 0.92999 0.18291 0.0
H4636 H 0.05869 0.90877 0.18449 0.0
C4637 C 0.0805 0.93537 0.15941 0.0
C4638 C 0.08978 0.93359 0.16393 0.0
C4639 C 0.07062 0.93221 0.16407 0.0
C4640 C 0.0549 0.91482 0.18406 0.0
H4641 H 0.00448 0.92059 0.18921 0.0
H4642 H 0.02138 0.92392 0.18115 0.0
H4643 H 0.0417 0.90475 0.1928 0.0
H4644 H 0.09581 0.92674 0.17677 0.0
H4645 H 0.07849 0.9212 0.18495 0.0
H4646 H 0.05769 0.94008 0.17421 0.0
C4647 C 0.02066 0.92028 0.18841 0.0
C4648 C 0.04516 0.91253 0.18882 0.0
C4649 C 0.0109 0.91824 0.19299 0.0
C4650 C 0.08878 0.92816 0.17307 0.0
C4651 C 0.07887 0.92499 0.17776 0.0
C4652 C 0.05424 0.93228 0.17816 0.0
C4653 C 0.02935 0.9176 0.1931 0.0
C4654 C 0.03983 0.92006 0.18825 0.0
C4655 C 0.06975 0.9272 0.17338 0.0
C4656 C 0.0595 0.9247 0.1786 0.0
H4657 H 0.01736 0.90688 0.21428 0.0
H4658 H 0.03452 0.91063 0.20633 0.0
H4659 H 0.04081 0.93609 0.18249 0.0
H4660 H 0.08092 0.93934 0.15228 0.0
H4661 H 0.06367 0.93379 0.16038 0.0
C4662 C 0.32773 0.73893 0.45742 0.0
C4663 C 0.33336 0.73893 0.46658 0.0
C4664 C 0.32428 0.74754 0.45451 0.0
C4665 C 0.33089 0.77678 0.45933 0.0
H4666 H 0.30397 0.77207 0.4427 0.0
C4667 C 0.3194 0.8132 0.44456 0.0
C4668 C 0.31648 0.81314 0.43451 0.0
C4669 C 0.31988 0.80374 0.44941 0.0
C4670 C 0.31153 0.77352 0.44732 0.0
H4671 H 0.33947 0.74784 0.47998 0.0
H4672 H 0.33323 0.76276 0.47498 0.0
H4673 H 0.30768 0.75622 0.44965 0.0
H4674 H 0.31119 0.80295 0.4218 0.0
H4675 H 0.31211 0.78646 0.43024 0.0
H4676 H 0.33482 0.79406 0.45689 0.0
C4677 C 0.33164 0.75618 0.46998 0.0
C4678 C 0.31367 0.76444 0.4513 0.0
C4679 C 0.33511 0.74756 0.47289 0.0
C4680 C 0.31356 0.80327 0.42952 0.0
C4681 C 0.31399 0.7938 0.43438 0.0
C4682 C 0.32872 0.78585 0.4554 0.0
C4683 C 0.32633 0.75636 0.46069 0.0
C4684 C 0.32348 0.76596 0.45722 0.0
C4685 C 0.3174 0.794 0.44434 0.0
C4686 C 0.31911 0.78433 0.44922 0.0
H4687 H 0.32607 0.73232 0.45243 0.0
H4688 H 0.32031 0.74744 0.44727 0.0
H4689 H 0.3386 0.77828 0.46373 0.0
H4690 H 0.32178 0.82069 0.4486 0.0
H4691 H 0.32241 0.80412 0.4571 0.0
C4692 C 0.4892 0.12783 0.7013 0.0
C4693 C 0.49084 0.12158 0.70946 0.0
C4694 C 0.4788 0.12463 0.69606 0.0
C4695 C 0.45333 0.10008 0.69092 0.0
H4696 H 0.43983 0.12096 0.68225 0.0
C4697 C 0.40818 0.08512 0.6747 0.0
C4698 C 0.40572 0.09085 0.66653 0.0
C4699 C 0.41847 0.08947 0.68 0.0
C4700 C 0.44354 0.11505 0.68452 0.0
H4701 H 0.48284 0.10708 0.7185 0.0
H4702 H 0.46473 0.10157 0.70943 0.0
H4703 H 0.45809 0.12746 0.6913 0.0
H4704 H 0.41197 0.1058 0.65766 0.0
H4705 H 0.43011 0.11339 0.66687 0.0
H4706 H 0.43896 0.08769 0.68411 0.0
C4707 C 0.47148 0.10891 0.70705 0.0
C4708 C 0.45399 0.11877 0.68971 0.0
C4709 C 0.48183 0.11214 0.71231 0.0
C4710 C 0.41364 0.10123 0.66395 0.0
C4711 C 0.42401 0.10557 0.66924 0.0
C4712 C 0.44295 0.09638 0.68571 0.0
C4713 C 0.46986 0.11507 0.69883 0.0
C4714 C 0.45894 0.1113 0.69305 0.0
C4715 C 0.42662 0.09964 0.67723 0.0
C4716 C 0.43785 0.10378 0.68254 0.0
H4717 H 0.49596 0.13519 0.69896 0.0
H4718 H 0.47782 0.12951 0.68972 0.0
H4719 H 0.45702 0.09415 0.69322 0.0
H4720 H 0.40214 0.07721 0.67698 0.0
H4721 H 0.42005 0.08481 0.68627 0.0
C4722 C 0.16404 0.23721 0.96136 0.0
C4723 C 0.16089 0.23494 0.97098 0.0
C4724 C 0.16761 0.23014 0.95665 0.0
C4725 C 0.16621 0.20138 0.95769 0.0
H4726 H 0.18947 0.21287 0.93967 0.0
C4727 C 0.18177 0.17258 0.93875 0.0
C4728 C 0.1826 0.17432 0.92866 0.0
C4729 C 0.18044 0.18042 0.94441 0.0
C4730 C 0.18292 0.20953 0.94465 0.0
H4731 H 0.15914 0.22339 0.98318 0.0
H4732 H 0.16565 0.21124 0.97508 0.0
H4733 H 0.18454 0.22563 0.94863 0.0
H4734 H 0.18328 0.18594 0.91672 0.0
H4735 H 0.1809 0.19961 0.92658 0.0
H4736 H 0.16454 0.18529 0.95367 0.0
C4737 C 0.16519 0.21842 0.97111 0.0
C4738 C 0.18007 0.21684 0.94977 0.0
C4739 C 0.16158 0.22548 0.97581 0.0
C4740 C 0.18257 0.18431 0.92445 0.0
C4741 C 0.1813 0.19218 0.93012 0.0
C4742 C 0.16909 0.19408 0.9526 0.0
C4743 C 0.16818 0.22061 0.96145 0.0
C4744 C 0.1716 0.21286 0.9563 0.0
C4745 C 0.17996 0.19022 0.94014 0.0
C4746 C 0.17742 0.19806 0.94596 0.0
H4747 H 0.16378 0.2445 0.95744 0.0
H4748 H 0.16973 0.23205 0.94918 0.0
H4749 H 0.15952 0.19799 0.96251 0.0
H4750 H 0.18166 0.16493 0.9422 0.0
H4751 H 0.17957 0.17872 0.95212 0.0
C4752 C 0.3588 0.07055 0.14298 0.0
C4753 C 0.35228 0.06435 0.1351 0.0
C4754 C 0.36411 0.08202 0.14207 0.0
C4755 C 0.37501 0.10442 0.12407 0.0
H4756 H 0.37509 0.12303 0.14491 0.0
C4757 C 0.40645 0.14946 0.12877 0.0
C4758 C 0.40255 0.15717 0.13201 0.0
C4759 C 0.39942 0.13833 0.12805 0.0
C4760 C 0.37505 0.11796 0.13898 0.0
H4761 H 0.34624 0.06529 0.12009 0.0
H4762 H 0.35556 0.08537 0.11849 0.0
H4763 H 0.36439 0.10318 0.146 0.0
H4764 H 0.38811 0.15931 0.13678 0.0
H4765 H 0.3758 0.13988 0.13546 0.0
H4766 H 0.3858 0.11922 0.11711 0.0
C4767 C 0.35655 0.08133 0.12536 0.0
C4768 C 0.36902 0.10659 0.13965 0.0
C4769 C 0.35115 0.06986 0.1263 0.0
C4770 C 0.39134 0.15359 0.13417 0.0
C4771 C 0.38432 0.14245 0.13352 0.0
C4772 C 0.38113 0.11581 0.12344 0.0
C4773 C 0.36309 0.08753 0.13324 0.0
C4774 C 0.36901 0.09968 0.13225 0.0
C4775 C 0.38835 0.13467 0.13063 0.0
C4776 C 0.38128 0.12269 0.13092 0.0
H4777 H 0.35975 0.06654 0.14987 0.0
H4778 H 0.36918 0.08655 0.14824 0.0
H4779 H 0.37522 0.09929 0.11828 0.0
H4780 H 0.41504 0.15201 0.12701 0.0
H4781 H 0.40279 0.13253 0.12586 0.0
C4782 C 0.76832 0.43155 0.89982 0.0
C4783 C 0.77129 0.43828 0.89141 0.0
C4784 C 0.77104 0.42224 0.90131 0.0
C4785 C 0.79162 0.41161 0.89465 0.0
H4786 H 0.77234 0.38436 0.90671 0.0
C4787 C 0.80647 0.37591 0.90439 0.0
C4788 C 0.80407 0.37101 0.91367 0.0
C4789 C 0.8013 0.38293 0.9004 0.0
C4790 C 0.77786 0.39193 0.90339 0.0
H4791 H 0.77885 0.44006 0.87772 0.0
H4792 H 0.78368 0.42389 0.88038 0.0
H4793 H 0.76534 0.39886 0.90217 0.0
H4794 H 0.79384 0.36909 0.92573 0.0
H4795 H 0.78511 0.38148 0.91893 0.0
H4796 H 0.80425 0.4049 0.89614 0.0
C4797 C 0.7794 0.42592 0.88588 0.0
C4798 C 0.77383 0.40024 0.90078 0.0
C4799 C 0.77664 0.4352 0.88437 0.0
C4800 C 0.79604 0.37289 0.91865 0.0
C4801 C 0.7909 0.37989 0.91467 0.0
C4802 C 0.79566 0.40334 0.8973 0.0
C4803 C 0.77682 0.41945 0.89445 0.0
C4804 C 0.78072 0.41023 0.8965 0.0
C4805 C 0.7936 0.38517 0.90557 0.0
C4806 C 0.7889 0.39346 0.90185 0.0
H4807 H 0.76431 0.43373 0.90545 0.0
H4808 H 0.76903 0.41749 0.90804 0.0
H4809 H 0.79719 0.41926 0.89149 0.0
H4810 H 0.81263 0.37465 0.90037 0.0
H4811 H 0.80346 0.38672 0.89331 0.0
C4812 C 0.75718 0.54258 0.13813 0.0
C4813 C 0.75128 0.54801 0.14231 0.0
C4814 C 0.76878 0.54754 0.13785 0.0
C4815 C 0.79178 0.57476 0.13828 0.0
H4816 H 0.8106 0.55814 0.14426 0.0
C4817 C 0.83961 0.59613 0.14009 0.0
C4818 C 0.84549 0.59064 0.13599 0.0
C4819 C 0.82827 0.59069 0.14148 0.0
C4820 C 0.80546 0.56288 0.14247 0.0
H4821 H 0.75306 0.56277 0.14976 0.0
H4822 H 0.77322 0.57145 0.14913 0.0
H4823 H 0.79048 0.54904 0.14538 0.0
H4824 H 0.84412 0.57513 0.13023 0.0
H4825 H 0.82428 0.56566 0.13253 0.0
H4826 H 0.80665 0.58854 0.13519 0.0
C4827 C 0.76885 0.56342 0.14597 0.0
C4828 C 0.79393 0.55766 0.14313 0.0
C4829 C 0.75729 0.55845 0.1463 0.0
C4830 C 0.83984 0.57953 0.13351 0.0
C4831 C 0.82847 0.5741 0.13484 0.0
C4832 C 0.80328 0.57996 0.13757 0.0
C4833 C 0.77472 0.55806 0.14169 0.0
C4834 C 0.78697 0.56355 0.14105 0.0
C4835 C 0.82251 0.57965 0.13874 0.0
C4836 C 0.81028 0.5741 0.13966 0.0
H4837 H 0.75283 0.5346 0.13488 0.0
H4838 H 0.77305 0.54326 0.1344 0.0
H4839 H 0.78663 0.57949 0.13648 0.0
H4840 H 0.84379 0.60465 0.1422 0.0
H4841 H 0.82402 0.59515 0.14469 0.0
C4842 C 0.749 0.58563 0.37935 0.0
C4843 C 0.7596 0.586 0.38289 0.0
C4844 C 0.74461 0.59282 0.38279 0.0
C4845 C 0.74716 0.60939 0.40421 0.0
H4846 H 0.72966 0.62258 0.38779 0.0
C4847 C 0.73129 0.63942 0.42009 0.0
C4848 C 0.72017 0.63804 0.41755 0.0
C4849 C 0.73654 0.63421 0.41493 0.0
C4850 C 0.73446 0.61889 0.39248 0.0
H4851 H 0.77396 0.59445 0.39273 0.0
H4852 H 0.7664 0.60709 0.39859 0.0
H4853 H 0.73804 0.61131 0.38056 0.0
H4854 H 0.70598 0.63056 0.40731 0.0
H4855 H 0.71511 0.62125 0.3983 0.0
H4856 H 0.74347 0.61673 0.41614 0.0
C4857 C 0.76142 0.60114 0.39322 0.0
C4858 C 0.73926 0.61243 0.38834 0.0
C4859 C 0.76581 0.59397 0.38977 0.0
C4860 C 0.71458 0.6318 0.40939 0.0
C4861 C 0.71982 0.62648 0.40424 0.0
C4862 C 0.74235 0.61579 0.40834 0.0
C4863 C 0.75069 0.60055 0.38989 0.0
C4864 C 0.7457 0.60761 0.39416 0.0
C4865 C 0.73077 0.62736 0.40714 0.0
C4866 C 0.73596 0.62067 0.40255 0.0
H4867 H 0.74404 0.5797 0.37395 0.0
H4868 H 0.7363 0.59208 0.3801 0.0
H4869 H 0.75183 0.60561 0.40895 0.0
H4870 H 0.73584 0.64431 0.42628 0.0
H4871 H 0.74507 0.63534 0.41721 0.0
C4872 C 0.24286 0.97422 0.14667 0.0
C4873 C 0.24924 0.98335 0.15238 0.0
C4874 C 0.23164 0.96824 0.1482 0.0
C4875 C 0.20745 0.97026 0.15876 0.0
H4876 H 0.19521 0.93849 0.15605 0.0
C4877 C 0.16098 0.94275 0.164 0.0
C4878 C 0.15571 0.93506 0.15666 0.0
C4879 C 0.17257 0.94849 0.1646 0.0
C4880 C 0.1985 0.94736 0.1568 0.0
H4881 H 0.24886 0.99329 0.16424 0.0
H4882 H 0.22924 0.9828 0.16694 0.0
H4883 H 0.21515 0.94883 0.15504 0.0
H4884 H 0.15856 0.92761 0.14405 0.0
H4885 H 0.17865 0.93739 0.14522 0.0
H4886 H 0.19072 0.96874 0.16044 0.0
C4887 C 0.23289 0.98036 0.1612 0.0
C4888 C 0.20992 0.95329 0.1562 0.0
C4889 C 0.24413 0.98637 0.15965 0.0
C4890 C 0.16232 0.93323 0.14997 0.0
C4891 C 0.17386 0.93887 0.15061 0.0
C4892 C 0.196 0.9643 0.15941 0.0
C4893 C 0.22651 0.97121 0.15549 0.0
C4894 C 0.21451 0.96484 0.15697 0.0
C4895 C 0.17913 0.9466 0.1579 0.0
C4896 C 0.19138 0.95281 0.15824 0.0
H4897 H 0.24648 0.97179 0.14089 0.0
H4898 H 0.22693 0.96139 0.14353 0.0
H4899 H 0.21068 0.97915 0.15931 0.0
H4900 H 0.15616 0.94431 0.16931 0.0
H4901 H 0.17642 0.95436 0.17033 0.0
C4902 C 0.1625 0.93171 0.64334 0.0
C4903 C 0.15771 0.93968 0.6421 0.0
C4904 C 0.15585 0.92046 0.64277 0.0
C4905 C 0.12665 0.90091 0.64474 0.0
H4906 H 0.13726 0.88028 0.63428 0.0
C4907 C 0.10456 0.8542 0.65103 0.0
C4908 C 0.10365 0.84713 0.64347 0.0
C4909 C 0.11114 0.86543 0.65032 0.0
C4910 C 0.13411 0.88594 0.63712 0.0
H4911 H 0.14208 0.94195 0.63917 0.0
H4912 H 0.13058 0.92242 0.6378 0.0
H4913 H 0.14858 0.9 0.63359 0.0
H4914 H 0.10901 0.84625 0.62926 0.0
H4915 H 0.12041 0.86601 0.6279 0.0
H4916 H 0.11206 0.88693 0.64805 0.0
C4917 C 0.13947 0.92485 0.63942 0.0
C4918 C 0.14067 0.89725 0.63685 0.0
C4919 C 0.1461 0.93609 0.64007 0.0
C4920 C 0.10959 0.85152 0.6352 0.0
C4921 C 0.11614 0.86282 0.63445 0.0
C4922 C 0.12007 0.88964 0.64495 0.0
C4923 C 0.14423 0.91687 0.64087 0.0
C4924 C 0.13707 0.90487 0.64074 0.0
C4925 C 0.11694 0.86993 0.64199 0.0
C4926 C 0.12376 0.88198 0.64126 0.0
H4927 H 0.17142 0.93416 0.64477 0.0
H4928 H 0.15982 0.91458 0.64403 0.0
H4929 H 0.12364 0.90649 0.64791 0.0
H4930 H 0.10027 0.85101 0.65759 0.0
H4931 H 0.11177 0.87057 0.65639 0.0
C4932 C 0.81179 0.49898 0.35626 0.0
C4933 C 0.81409 0.51022 0.35745 0.0
C4934 C 0.81968 0.49561 0.35276 0.0
C4935 C 0.84538 0.5057 0.33932 0.0
H4936 H 0.84643 0.47768 0.34857 0.0
C4937 C 0.86613 0.48268 0.31859 0.0
C4938 C 0.87064 0.4756 0.32368 0.0
C4939 C 0.86074 0.48805 0.3234 0.0
C4940 C 0.84643 0.48561 0.34599 0.0
H4941 H 0.82653 0.52677 0.35588 0.0
H4942 H 0.84048 0.52089 0.34994 0.0
H4943 H 0.83438 0.48483 0.35584 0.0
H4944 H 0.87348 0.46914 0.33802 0.0
H4945 H 0.86451 0.47888 0.34649 0.0
H4946 H 0.85767 0.5066 0.32964 0.0
C4947 C 0.83247 0.51466 0.35157 0.0
C4948 C 0.83934 0.48965 0.35006 0.0
C4949 C 0.82449 0.51804 0.355 0.0
C4950 C 0.87014 0.47453 0.33384 0.0
C4951 C 0.86484 0.48001 0.33868 0.0
C4952 C 0.85258 0.50171 0.33531 0.0
C4953 C 0.83018 0.50338 0.35042 0.0
C4954 C 0.83851 0.49963 0.34664 0.0
C4955 C 0.85981 0.48664 0.3335 0.0
C4956 C 0.85305 0.4915 0.33845 0.0
H4957 H 0.80377 0.49275 0.35789 0.0
H4958 H 0.81744 0.48688 0.35174 0.0
H4959 H 0.84498 0.51338 0.33644 0.0
H4960 H 0.86654 0.4839 0.31079 0.0
H4961 H 0.85693 0.49299 0.31911 0.0
C4962 C 0.68619 0.49011 0.88117 0.0
C4963 C 0.69382 0.49271 0.88937 0.0
C4964 C 0.67787 0.49441 0.87991 0.0
C4965 C 0.67119 0.51757 0.88755 0.0
H4966 H 0.64236 0.50107 0.87449 0.0
C4967 C 0.6378 0.53643 0.87858 0.0
C4968 C 0.63351 0.53531 0.86884 0.0
C4969 C 0.64401 0.53028 0.88241 0.0
C4970 C 0.65038 0.50578 0.87815 0.0
H4971 H 0.69841 0.50153 0.90288 0.0
H4972 H 0.6838 0.50893 0.90075 0.0
H4973 H 0.6554 0.49204 0.87883 0.0
H4974 H 0.6318 0.52651 0.85562 0.0
H4975 H 0.64251 0.51575 0.86228 0.0
H4976 H 0.66617 0.53135 0.88675 0.0
C4977 C 0.68439 0.50375 0.89518 0.0
C4978 C 0.65788 0.50063 0.8806 0.0
C4979 C 0.69276 0.4995 0.89641 0.0
C4980 C 0.63509 0.52759 0.86314 0.0
C4981 C 0.64115 0.52137 0.86697 0.0
C4982 C 0.66365 0.52271 0.88515 0.0
C4983 C 0.67691 0.50138 0.88685 0.0
C4984 C 0.66849 0.50652 0.88514 0.0
C4985 C 0.64586 0.52278 0.87659 0.0
C4986 C 0.65325 0.51694 0.88024 0.0
H4987 H 0.68688 0.48505 0.87554 0.0
H4988 H 0.67242 0.49255 0.87331 0.0
H4989 H 0.67931 0.52243 0.89092 0.0
H4990 H 0.63673 0.54235 0.88312 0.0
H4991 H 0.64747 0.53149 0.88986 0.0
C4992 C 0.88733 0.70772 0.96598 0.0
C4993 C 0.88118 0.70057 0.97323 0.0
C4994 C 0.88886 0.70352 0.95735 0.0
C4995 C 0.87749 0.67847 0.94224 0.0
H4996 H 0.90711 0.68901 0.93291 0.0
C4997 C 0.88997 0.65291 0.91677 0.0
C4998 C 0.89649 0.65826 0.90901 0.0
C4999 C 0.88799 0.65895 0.92386 0.0
C5000 C 0.89875 0.68608 0.93533 0.0
H5001 H 0.87145 0.68346 0.97687 0.0
H5002 H 0.8742 0.67616 0.96198 0.0
H5003 H 0.90359 0.69809 0.94649 0.0
H5004 H 0.90619 0.67428 0.90277 0.0
H5005 H 0.9028 0.68489 0.91528 0.0
H5006 H 0.87269 0.66633 0.93126 0.0
C5007 C 0.87782 0.68501 0.9629 0.0
C5008 C 0.89673 0.69129 0.94311 0.0
C5009 C 0.87634 0.68919 0.9715 0.0
C5010 C 0.90118 0.66988 0.90866 0.0
C5011 C 0.89923 0.67596 0.91582 0.0
C5012 C 0.87952 0.67326 0.93451 0.0
C5013 C 0.88418 0.69209 0.95573 0.0
C5014 C 0.88612 0.68739 0.9468 0.0
C5015 C 0.89252 0.67055 0.92346 0.0
C5016 C 0.89022 0.67684 0.93108 0.0
H5017 H 0.8912 0.71653 0.96711 0.0
H5018 H 0.89373 0.70921 0.95194 0.0
H5019 H 0.86916 0.67539 0.94474 0.0
H5020 H 0.88647 0.64399 0.91744 0.0
H5021 H 0.88302 0.65451 0.92976 0.0
C5022 C 0.07825 0.12647 0.74249 0.0
C5023 C 0.06768 0.12444 0.74569 0.0
C5024 C 0.0797 0.12625 0.73263 0.0
C5025 C 0.06423 0.11575 0.70914 0.0
H5026 H 0.09158 0.13607 0.69874 0.0
C5027 C 0.07824 0.10974 0.67206 0.0
C5028 C 0.08426 0.11915 0.66652 0.0
C5029 C 0.0753 0.11078 0.68134 0.0
C5030 C 0.08381 0.13042 0.70146 0.0
H5031 H 0.05031 0.12063 0.74094 0.0
H5032 H 0.0529 0.12057 0.72367 0.0
H5033 H 0.08823 0.13749 0.71552 0.0
H5034 H 0.09165 0.13706 0.66638 0.0
H5035 H 0.08615 0.13886 0.68234 0.0
H5036 H 0.05972 0.10884 0.69499 0.0
C5037 C 0.06005 0.12215 0.72884 0.0
C5038 C 0.08197 0.13114 0.71115 0.0
C5039 C 0.0586 0.12232 0.73873 0.0
C5040 C 0.08692 0.12963 0.67037 0.0
C5041 C 0.0839 0.13066 0.67961 0.0
C5042 C 0.06605 0.11508 0.69941 0.0
C5043 C 0.07062 0.12408 0.72566 0.0
C5044 C 0.07223 0.12372 0.71517 0.0
C5045 C 0.07825 0.12125 0.68529 0.0
C5046 C 0.07593 0.12233 0.69547 0.0
H5047 H 0.08548 0.12829 0.74761 0.0
H5048 H 0.08793 0.12762 0.73049 0.0
H5049 H 0.05667 0.10984 0.712 0.0
H5050 H 0.07591 0.10155 0.66927 0.0
H5051 H 0.07103 0.10333 0.68552 0.0
C5052 C 0.63754 0.32674 0.48847 0.0
C5053 C 0.63093 0.31596 0.4915 0.0
C5054 C 0.63577 0.33065 0.47908 0.0
C5055 C 0.62308 0.32043 0.45468 0.0
H5056 H 0.6255 0.35055 0.44932 0.0
C5057 C 0.60923 0.33342 0.41725 0.0
C5058 C 0.6166 0.34317 0.41297 0.0
C5059 C 0.61081 0.33091 0.42707 0.0
C5060 C 0.62488 0.34214 0.4507 0.0
H5061 H 0.61698 0.30102 0.48721 0.0
H5062 H 0.6138 0.30785 0.47095 0.0
H5063 H 0.62859 0.34454 0.46604 0.0
H5064 H 0.63107 0.35821 0.41579 0.0
H5065 H 0.63383 0.3538 0.43307 0.0
H5066 H 0.61932 0.31797 0.43942 0.0
C5067 C 0.62056 0.31321 0.4757 0.0
C5068 C 0.62667 0.3387 0.46028 0.0
C5069 C 0.62236 0.30928 0.48503 0.0
C5070 C 0.62524 0.35065 0.41889 0.0
C5071 C 0.62683 0.34812 0.42877 0.0
C5072 C 0.62125 0.32384 0.44517 0.0
C5073 C 0.62732 0.32389 0.47254 0.0
C5074 C 0.62569 0.32776 0.46238 0.0
C5075 C 0.61979 0.33807 0.43289 0.0
C5076 C 0.62203 0.3347 0.44306 0.0
H5077 H 0.64426 0.33205 0.49327 0.0
H5078 H 0.64121 0.33888 0.47688 0.0
H5079 H 0.62254 0.31204 0.45597 0.0
H5080 H 0.60233 0.32761 0.41294 0.0
H5081 H 0.60508 0.32323 0.43007 0.0
C5082 C 0.41138 0.86434 0.24699 0.0
C5083 C 0.41805 0.87349 0.25258 0.0
C5084 C 0.41051 0.86526 0.23684 0.0
C5085 C 0.41311 0.88565 0.21698 0.0
H5086 H 0.41364 0.86271 0.20081 0.0
C5087 C 0.40971 0.88998 0.17525 0.0
C5088 C 0.40277 0.88053 0.17016 0.0
C5089 C 0.41283 0.88919 0.18512 0.0
C5090 C 0.41337 0.86915 0.20521 0.0
H5091 H 0.42904 0.89076 0.25189 0.0
H5092 H 0.42752 0.89235 0.23417 0.0
H5093 H 0.41651 0.86114 0.21844 0.0
H5094 H 0.39383 0.86283 0.17138 0.0
H5095 H 0.3991 0.86145 0.18861 0.0
H5096 H 0.40968 0.89354 0.20385 0.0
C5097 C 0.42296 0.88448 0.23765 0.0
C5098 C 0.41504 0.86825 0.21532 0.0
C5099 C 0.4239 0.88354 0.24779 0.0
C5100 C 0.3993 0.87023 0.17508 0.0
C5101 C 0.40235 0.86945 0.18497 0.0
C5102 C 0.41137 0.88652 0.20689 0.0
C5103 C 0.41621 0.87536 0.23207 0.0
C5104 C 0.41486 0.87647 0.22131 0.0
C5105 C 0.40899 0.87895 0.19016 0.0
C5106 C 0.41142 0.87825 0.20087 0.0
H5107 H 0.40686 0.85646 0.25046 0.0
H5108 H 0.40517 0.85811 0.23275 0.0
H5109 H 0.41277 0.89205 0.22141 0.0
H5110 H 0.41262 0.89801 0.17162 0.0
H5111 H 0.41815 0.89665 0.18882 0.0
C5112 C 0.90456 0.3802 0.51757 0.0
C5113 C 0.91104 0.37519 0.5137 0.0
C5114 C 0.90411 0.3805 0.52762 0.0
C5115 C 0.90827 0.36599 0.55032 0.0
H5116 H 0.90828 0.39167 0.56286 0.0
C5117 C 0.90957 0.36728 0.59183 0.0
C5118 C 0.90235 0.37136 0.59572 0.0
C5119 C 0.91144 0.36874 0.58196 0.0
C5120 C 0.90817 0.3844 0.55945 0.0
H5121 H 0.92245 0.36693 0.51743 0.0
H5122 H 0.92164 0.36741 0.53494 0.0
H5123 H 0.90994 0.39227 0.54533 0.0
H5124 H 0.89175 0.38056 0.59238 0.0
H5125 H 0.89493 0.38305 0.57507 0.0
H5126 H 0.90635 0.35804 0.56434 0.0
C5127 C 0.91675 0.37095 0.53019 0.0
C5128 C 0.90912 0.38475 0.54941 0.0
C5129 C 0.91721 0.37066 0.52014 0.0
C5130 C 0.89741 0.37737 0.5896 0.0
C5131 C 0.89923 0.3788 0.57968 0.0
C5132 C 0.9073 0.36564 0.56033 0.0
C5133 C 0.91011 0.37577 0.53405 0.0
C5134 C 0.90921 0.37554 0.54473 0.0
C5135 C 0.90609 0.37428 0.5757 0.0
C5136 C 0.90726 0.37484 0.56504 0.0
H5137 H 0.8996 0.38366 0.51282 0.0
H5138 H 0.89881 0.38416 0.53035 0.0
H5139 H 0.90808 0.35868 0.54693 0.0
H5140 H 0.91366 0.36279 0.59641 0.0
H5141 H 0.91699 0.3654 0.5792 0.0
C5142 C 0.46953 0.11818 0.31294 0.0
C5143 C 0.47829 0.12677 0.30865 0.0
C5144 C 0.46438 0.12023 0.32067 0.0
C5145 C 0.46106 0.14313 0.33316 0.0
H5146 H 0.45242 0.12166 0.35439 0.0
C5147 C 0.45186 0.15346 0.37073 0.0
C5148 C 0.44298 0.14557 0.37548 0.0
C5149 C 0.45502 0.15103 0.36201 0.0
C5150 C 0.45464 0.12768 0.34846 0.0
H5151 H 0.48864 0.14422 0.30928 0.0
H5152 H 0.47984 0.14776 0.32283 0.0
H5153 H 0.46034 0.11764 0.34044 0.0
H5154 H 0.43029 0.12903 0.37471 0.0
H5155 H 0.43585 0.12474 0.35944 0.0
H5156 H 0.45563 0.15328 0.34134 0.0
C5157 C 0.47671 0.13948 0.32008 0.0
C5158 C 0.45918 0.12537 0.34044 0.0
C5159 C 0.4818 0.13744 0.31231 0.0
C5160 C 0.43713 0.13529 0.37118 0.0
C5161 C 0.44037 0.13281 0.3625 0.0
C5162 C 0.4566 0.14546 0.34121 0.0
C5163 C 0.4679 0.13091 0.32436 0.0
C5164 C 0.46257 0.13312 0.33271 0.0
C5165 C 0.44944 0.14061 0.35787 0.0
C5166 C 0.45344 0.13781 0.349 0.0
H5167 H 0.46653 0.10989 0.31021 0.0
H5168 H 0.45752 0.11344 0.32366 0.0
H5169 H 0.46332 0.14921 0.32727 0.0
H5170 H 0.45649 0.16148 0.37384 0.0
H5171 H 0.46209 0.15719 0.35868 0.0
C5172 C 0.58068 0.62802 0.04032 0.0
C5173 C 0.57772 0.63665 0.03627 0.0
C5174 C 0.58129 0.6262 0.05036 0.0
C5175 C 0.57171 0.63152 0.07318 0.0
H5176 H 0.59501 0.62219 0.08465 0.0
C5177 C 0.57786 0.62199 0.11466 0.0
C5178 C 0.57931 0.61199 0.11673 0.0
C5179 C 0.57802 0.6262 0.10509 0.0
C5180 C 0.58844 0.62478 0.08155 0.0
H5181 H 0.57304 0.65013 0.03966 0.0
H5182 H 0.57432 0.64705 0.05728 0.0
H5183 H 0.5948 0.62751 0.06749 0.0
H5184 H 0.58152 0.59835 0.11024 0.0
H5185 H 0.58205 0.6058 0.09374 0.0
H5186 H 0.56536 0.62868 0.08733 0.0
C5187 C 0.57605 0.64163 0.05263 0.0
C5188 C 0.58829 0.62779 0.07171 0.0
C5189 C 0.57542 0.64346 0.04255 0.0
C5190 C 0.58073 0.60624 0.109 0.0
C5191 C 0.58099 0.61048 0.09951 0.0
C5192 C 0.5719 0.62856 0.08308 0.0
C5193 C 0.57904 0.633 0.05665 0.0
C5194 C 0.57977 0.63093 0.06734 0.0
C5195 C 0.57971 0.62053 0.09745 0.0
C5196 C 0.58013 0.6249 0.08729 0.0
H5197 H 0.58267 0.62271 0.03574 0.0
H5198 H 0.58345 0.61936 0.05318 0.0
H5199 H 0.56499 0.63384 0.07004 0.0
H5200 H 0.57679 0.62665 0.12044 0.0
H5201 H 0.57702 0.63398 0.10369 0.0
C5202 C 0.03368 0.85493 0.80066 0.0
C5203 C 0.03274 0.86455 0.79642 0.0
C5204 C 0.03895 0.85508 0.80991 0.0
C5205 C 0.04829 0.87028 0.83275 0.0
H5206 H 0.06983 0.85641 0.83493 0.0
C5207 C 0.07912 0.874 0.86676 0.0
C5208 C 0.08168 0.86471 0.86951 0.0
C5209 C 0.07258 0.87409 0.85817 0.0
C5210 C 0.06373 0.86017 0.83452 0.0
H5211 H 0.03622 0.88179 0.7988 0.0
H5212 H 0.04539 0.88201 0.81509 0.0
H5213 H 0.05927 0.85631 0.81953 0.0
H5214 H 0.07916 0.84817 0.86535 0.0
H5215 H 0.06746 0.84817 0.85071 0.0
H5216 H 0.05272 0.87406 0.84781 0.0
C5217 C 0.04202 0.87436 0.81119 0.0
C5218 C 0.05769 0.86014 0.82566 0.0
C5219 C 0.03676 0.87422 0.80187 0.0
C5220 C 0.07727 0.85543 0.86358 0.0
C5221 C 0.07069 0.85549 0.85506 0.0
C5222 C 0.0543 0.87025 0.84167 0.0
C5223 C 0.04338 0.86484 0.81521 0.0
C5224 C 0.04985 0.86512 0.82468 0.0
C5225 C 0.06841 0.86488 0.85214 0.0
C5226 C 0.06205 0.86512 0.84268 0.0
H5227 H 0.03043 0.84728 0.79676 0.0
H5228 H 0.03965 0.84756 0.8129 0.0
H5229 H 0.04226 0.87414 0.83221 0.0
H5230 H 0.08226 0.88125 0.87119 0.0
H5231 H 0.07105 0.88149 0.85613 0.0
C5232 C 0.97051 0.91701 0.72858 0.0
C5233 C 0.96631 0.90544 0.72958 0.0
C5234 C 0.9645 0.92228 0.7229 0.0
C5235 C 0.93644 0.91828 0.7115 0.0
H5236 H 0.95282 0.94078 0.69304 0.0
C5237 C 0.91554 0.94177 0.68495 0.0
C5238 C 0.91819 0.94229 0.67524 0.0
C5239 C 0.92149 0.93817 0.69237 0.0
C5240 C 0.94813 0.93453 0.69817 0.0
H5241 H 0.95231 0.89036 0.7257 0.0
H5242 H 0.94187 0.89955 0.71572 0.0
H5243 H 0.96282 0.93262 0.70468 0.0
H5244 H 0.92938 0.93986 0.66575 0.0
H5245 H 0.93973 0.9336 0.67863 0.0
H5246 H 0.92171 0.92001 0.70479 0.0
C5247 C 0.94979 0.90456 0.71936 0.0
C5248 C 0.95387 0.92992 0.7049 0.0
C5249 C 0.95582 0.89928 0.72499 0.0
C5250 C 0.92707 0.93942 0.67315 0.0
C5251 C 0.93307 0.93594 0.68054 0.0
C5252 C 0.9307 0.92296 0.70481 0.0
C5253 C 0.95412 0.91611 0.71814 0.0
C5254 C 0.94807 0.92162 0.71155 0.0
C5255 C 0.93031 0.93519 0.69023 0.0
C5256 C 0.93647 0.93099 0.69795 0.0
H5257 H 0.97859 0.92199 0.73198 0.0
H5258 H 0.96802 0.9312 0.72217 0.0
H5259 H 0.93175 0.91198 0.71659 0.0
H5260 H 0.90872 0.94392 0.68676 0.0
H5261 H 0.91922 0.93773 0.69978 0.0
C5262 C 0.90478 0.2891 0.45245 0.0
C5263 C 0.91286 0.2997 0.45076 0.0
C5264 C 0.90548 0.27982 0.44851 0.0
C5265 C 0.91916 0.27156 0.42955 0.0
H5266 H 0.91284 0.24487 0.44548 0.0
C5267 C 0.9352 0.23786 0.42213 0.0
C5268 C 0.92814 0.22674 0.42341 0.0
C5269 C 0.93199 0.2463 0.42462 0.0
C5270 C 0.91446 0.2522 0.44088 0.0
H5271 H 0.92808 0.30883 0.4437 0.0
H5272 H 0.92939 0.2927 0.43694 0.0
H5273 H 0.90991 0.26053 0.45159 0.0
H5274 H 0.91208 0.21571 0.42808 0.0
H5275 H 0.90645 0.23054 0.43252 0.0
H5276 H 0.92404 0.26332 0.41897 0.0
C5277 C 0.92235 0.29154 0.44112 0.0
C5278 C 0.91279 0.26119 0.44438 0.0
C5279 C 0.92163 0.30081 0.44502 0.0
C5280 C 0.91766 0.22422 0.427 0.0
C5281 C 0.91449 0.23269 0.4296 0.0
C5282 C 0.9209 0.26261 0.42608 0.0
C5283 C 0.91429 0.28092 0.44281 0.0
C5284 C 0.91529 0.27106 0.43882 0.0
C5285 C 0.92167 0.24382 0.4285 0.0
C5286 C 0.91874 0.25289 0.43177 0.0
H5287 H 0.89784 0.28799 0.45674 0.0
H5288 H 0.89904 0.2718 0.44985 0.0
H5289 H 0.92093 0.27892 0.42497 0.0
H5290 H 0.94328 0.24004 0.41929 0.0
H5291 H 0.93775 0.25477 0.42376 0.0
C5292 C 0.53809 0.08665 0.23769 0.0
C5293 C 0.54032 0.09799 0.23638 0.0
C5294 C 0.5444 0.08187 0.2333 0.0
C5295 C 0.56091 0.08613 0.21215 0.0
H5296 H 0.57077 0.06388 0.2245 0.0
C5297 C 0.57609 0.05999 0.18981 0.0
C5298 C 0.58619 0.05898 0.19309 0.0
C5299 C 0.57071 0.06428 0.19577 0.0
C5300 C 0.56811 0.07013 0.22098 0.0
H5301 H 0.55106 0.11319 0.22953 0.0
H5302 H 0.56206 0.1049 0.22199 0.0
H5303 H 0.56136 0.07261 0.23387 0.0
H5304 H 0.59824 0.06119 0.20544 0.0
H5305 H 0.58871 0.06864 0.21596 0.0
H5306 H 0.56757 0.08369 0.19928 0.0
C5307 C 0.55541 0.09969 0.22637 0.0
C5308 C 0.56266 0.07506 0.22632 0.0
C5309 C 0.54917 0.10446 0.23079 0.0
C5310 C 0.59048 0.06186 0.2027 0.0
C5311 C 0.58503 0.06612 0.20871 0.0
C5312 C 0.56624 0.08116 0.20682 0.0
C5313 C 0.55299 0.0883 0.22743 0.0
C5314 C 0.55899 0.08312 0.22195 0.0
C5315 C 0.57522 0.06761 0.20522 0.0
C5316 C 0.56985 0.07305 0.21113 0.0
H5317 H 0.53139 0.08144 0.24201 0.0
H5318 H 0.54228 0.07306 0.23422 0.0
H5319 H 0.55809 0.09222 0.20852 0.0
H5320 H 0.57238 0.05757 0.18255 0.0
H5321 H 0.56302 0.06506 0.19294 0.0
C5322 C 0.57887 0.7252 0.96947 0.0
C5323 C 0.57515 0.71517 0.96457 0.0
C5324 C 0.57851 0.73473 0.96472 0.0
C5325 C 0.5769 0.7477 0.94054 0.0
H5326 H 0.56617 0.76588 0.95463 0.0
C5327 C 0.56801 0.78507 0.92289 0.0
C5328 C 0.57065 0.79431 0.92871 0.0
C5329 C 0.56888 0.77535 0.92685 0.0
C5330 C 0.56933 0.76099 0.95063 0.0
H5331 H 0.56821 0.70739 0.95076 0.0
H5332 H 0.56765 0.72411 0.94244 0.0
H5333 H 0.56706 0.74908 0.96229 0.0
H5334 H 0.57691 0.80082 0.94306 0.0
H5335 H 0.57858 0.78401 0.94991 0.0
H5336 H 0.57922 0.75969 0.92888 0.0
C5337 C 0.57092 0.72456 0.94996 0.0
C5338 C 0.56982 0.75134 0.95502 0.0
C5339 C 0.57125 0.71499 0.95473 0.0
C5340 C 0.57459 0.79376 0.93845 0.0
C5341 C 0.57551 0.78411 0.94238 0.0
C5342 C 0.57645 0.75741 0.93614 0.0
C5343 C 0.57444 0.73452 0.95494 0.0
C5344 C 0.57369 0.74462 0.95007 0.0
C5345 C 0.57247 0.77471 0.9367 0.0
C5346 C 0.57275 0.76422 0.94118 0.0
H5347 H 0.58216 0.72571 0.97698 0.0
H5348 H 0.58149 0.74232 0.96871 0.0
H5349 H 0.57999 0.74273 0.93656 0.0
H5350 H 0.5649 0.78524 0.91538 0.0
H5351 H 0.5664 0.76825 0.92229 0.0
C5352 C 0.98161 0.12523 0.80468 0.0
C5353 C 0.98682 0.11782 0.80743 0.0
C5354 C 0.97131 0.12368 0.80809 0.0
C5355 C 0.94632 0.10193 0.81711 0.0
H5356 H 0.93924 0.12652 0.82414 0.0
C5357 C 0.90131 0.09942 0.8176 0.0
C5358 C 0.89868 0.10465 0.82506 0.0
C5359 C 0.9123 0.10062 0.8167 0.0
C5360 C 0.94112 0.11955 0.82232 0.0
H5361 H 0.98536 0.10305 0.81601 0.0
H5362 H 0.9674 0.10039 0.82201 0.0
H5363 H 0.95824 0.1297 0.82044 0.0
H5364 H 0.90549 0.11508 0.83753 0.0
H5365 H 0.9248 0.1172 0.83594 0.0
H5366 H 0.92919 0.0918 0.81888 0.0
C5367 C 0.97127 0.10736 0.81717 0.0
C5368 C 0.95197 0.12139 0.8201 0.0
C5369 C 0.9816 0.10894 0.81381 0.0
C5370 C 0.90727 0.11092 0.83173 0.0
C5371 C 0.91832 0.1122 0.83078 0.0
C5372 C 0.93547 0.10011 0.81927 0.0
C5373 C 0.96596 0.11466 0.81429 0.0
C5374 C 0.95466 0.11262 0.81735 0.0
C5375 C 0.92096 0.10713 0.8232 0.0
C5376 C 0.9327 0.10892 0.82176 0.0
H5377 H 0.98547 0.13222 0.79986 0.0
H5378 H 0.9674 0.1294 0.80565 0.0
H5379 H 0.94809 0.09501 0.81495 0.0
H5380 H 0.89486 0.09444 0.81241 0.0
H5381 H 0.91406 0.09669 0.81073 0.0
C5382 C 0.66366 0.25552 0.57466 0.0
C5383 C 0.65244 0.25355 0.5718 0.0
C5384 C 0.66678 0.24688 0.57829 0.0
C5385 C 0.65473 0.21961 0.59048 0.0
H5386 H 0.68272 0.21737 0.58594 0.0
C5387 C 0.67175 0.19209 0.61479 0.0
C5388 C 0.67619 0.18548 0.61034 0.0
C5389 C 0.66925 0.20029 0.60948 0.0
C5390 C 0.67484 0.21784 0.58721 0.0
H5391 H 0.63584 0.24085 0.56995 0.0
H5392 H 0.64127 0.2258 0.57622 0.0
H5393 H 0.67746 0.23161 0.57726 0.0
H5394 H 0.6818 0.18256 0.59685 0.0
H5395 H 0.67741 0.19699 0.5875 0.0
H5396 H 0.65204 0.20587 0.60037 0.0
C5397 C 0.64762 0.23405 0.57588 0.0
C5398 C 0.67187 0.22605 0.58231 0.0
C5399 C 0.64451 0.24268 0.57227 0.0
C5400 C 0.67841 0.18753 0.60049 0.0
C5401 C 0.6759 0.19579 0.59514 0.0
C5402 C 0.6577 0.21146 0.59537 0.0
C5403 C 0.65875 0.23607 0.57913 0.0
C5404 C 0.6618 0.22708 0.58393 0.0
C5405 C 0.67112 0.20214 0.59955 0.0
C5406 C 0.66784 0.21053 0.5939 0.0
H5407 H 0.66996 0.26382 0.57446 0.0
H5408 H 0.6754 0.24875 0.58082 0.0
H5409 H 0.64699 0.22023 0.59201 0.0
H5410 H 0.67021 0.19094 0.62243 0.0
H5411 H 0.66585 0.20521 0.61317 0.0
C5412 C 0.50379 0.88574 0.33008 0.0
C5413 C 0.49842 0.87812 0.3227 0.0
C5414 C 0.51427 0.88671 0.33432 0.0
C5415 C 0.5389 0.88137 0.3289 0.0
H5416 H 0.5476 0.8862 0.35635 0.0
C5417 C 0.58138 0.88248 0.34459 0.0
C5418 C 0.58758 0.89109 0.35089 0.0
C5419 C 0.57008 0.88009 0.34217 0.0
C5420 C 0.54531 0.88493 0.34866 0.0
H5421 H 0.49958 0.86515 0.31438 0.0
H5422 H 0.5178 0.86681 0.32177 0.0
H5423 H 0.52859 0.8836 0.35016 0.0
H5424 H 0.58671 0.9036 0.35996 0.0
H5425 H 0.56691 0.8995 0.35565 0.0
H5426 H 0.55556 0.88283 0.32731 0.0
C5427 C 0.51405 0.87222 0.32413 0.0
C5428 C 0.53443 0.88345 0.34511 0.0
C5429 C 0.5036 0.87126 0.31989 0.0
C5430 C 0.58211 0.89689 0.35512 0.0
C5431 C 0.57078 0.89453 0.35265 0.0
C5432 C 0.54973 0.88285 0.33242 0.0
C5433 C 0.5196 0.88007 0.33127 0.0
C5434 C 0.5311 0.88161 0.33518 0.0
C5435 C 0.56471 0.8863 0.34593 0.0
C5436 C 0.55308 0.88461 0.34235 0.0
H5437 H 0.50005 0.89119 0.33236 0.0
H5438 H 0.51836 0.8929 0.33974 0.0
H5439 H 0.53671 0.88024 0.32118 0.0
H5440 H 0.58534 0.87774 0.34135 0.0
H5441 H 0.5656 0.87351 0.33717 0.0
C5442 C 0.84179 0.77754 0.0258 0.0
C5443 C 0.85159 0.77619 0.02954 0.0
C5444 C 0.83827 0.78504 0.02989 0.0
C5445 C 0.84186 0.8013 0.05204 0.0
H5446 H 0.82934 0.81839 0.03463 0.0
C5447 C 0.83269 0.83877 0.064 0.0
C5448 C 0.82312 0.84004 0.05955 0.0
C5449 C 0.83594 0.83046 0.06107 0.0
C5450 C 0.83269 0.8136 0.03962 0.0
H5451 H 0.8654 0.78179 0.0405 0.0
H5452 H 0.85931 0.79495 0.04757 0.0
H5453 H 0.83554 0.80517 0.028 0.0
H5454 H 0.80901 0.83308 0.04908 0.0
H5455 H 0.81457 0.8186 0.04405 0.0
H5456 H 0.83908 0.80989 0.06367 0.0
C5457 C 0.85423 0.79006 0.04158 0.0
C5458 C 0.83625 0.80598 0.03581 0.0
C5459 C 0.85774 0.78252 0.03751 0.0
C5460 C 0.81655 0.83246 0.05251 0.0
C5461 C 0.81977 0.82418 0.0496 0.0
C5462 C 0.83832 0.80896 0.05587 0.0
C5463 C 0.84447 0.79146 0.0378 0.0
C5464 C 0.84082 0.79967 0.04196 0.0
C5465 C 0.82966 0.82325 0.05364 0.0
C5466 C 0.8336 0.81515 0.0497 0.0
H5467 H 0.83673 0.77267 0.01979 0.0
H5468 H 0.83059 0.78572 0.02689 0.0
H5469 H 0.84524 0.79651 0.05701 0.0
H5470 H 0.83795 0.84452 0.06941 0.0
H5471 H 0.84362 0.82999 0.06432 0.0
C5472 C 0.66058 0.93107 0.88032 0.0
C5473 C 0.66095 0.93871 0.8872 0.0
C5474 C 0.65382 0.9199 0.88141 0.0
C5475 C 0.63863 0.89872 0.89946 0.0
H5476 H 0.62077 0.88366 0.87677 0.0
C5477 C 0.60065 0.85744 0.90177 0.0
C5478 C 0.59845 0.84981 0.89438 0.0
C5479 C 0.60934 0.8678 0.90124 0.0
C5480 C 0.62583 0.88767 0.88315 0.0
H5481 H 0.65472 0.94052 0.90078 0.0
H5482 H 0.64279 0.92105 0.90261 0.0
H5483 H 0.63385 0.90269 0.87515 0.0
H5484 H 0.60402 0.84683 0.88088 0.0
H5485 H 0.61928 0.86487 0.87999 0.0
H5486 H 0.63048 0.88372 0.90749 0.0
C5487 C 0.6478 0.9237 0.89639 0.0
C5488 C 0.63333 0.8986 0.88222 0.0
C5489 C 0.65453 0.93488 0.89529 0.0
C5490 C 0.60542 0.85259 0.88663 0.0
C5491 C 0.61413 0.86294 0.88611 0.0
C5492 C 0.63114 0.88777 0.90039 0.0
C5493 C 0.6473 0.91609 0.88943 0.0
C5494 C 0.63974 0.90429 0.89038 0.0
C5495 C 0.61605 0.87075 0.8933 0.0
C5496 C 0.62457 0.88214 0.89226 0.0
H5497 H 0.66534 0.93377 0.87396 0.0
H5498 H 0.65371 0.91424 0.87596 0.0
H5499 H 0.64357 0.90283 0.90586 0.0
H5500 H 0.59533 0.85563 0.90776 0.0
H5501 H 0.61048 0.87365 0.90685 0.0
C5502 C 0.2421 0.57387 0.13124 0.0
C5503 C 0.23632 0.56551 0.12456 0.0
C5504 C 0.23992 0.58352 0.13111 0.0
C5505 C 0.21812 0.59429 0.12321 0.0
H5506 H 0.24208 0.62289 0.12692 0.0
C5507 C 0.21088 0.63528 0.11886 0.0
C5508 C 0.21722 0.64382 0.12519 0.0
C5509 C 0.21302 0.62562 0.1188 0.0
C5510 C 0.23526 0.61496 0.126 0.0
H5511 H 0.22403 0.56099 0.11226 0.0
H5512 H 0.22019 0.57775 0.1121 0.0
H5513 H 0.24642 0.60646 0.12665 0.0
H5514 H 0.23041 0.64868 0.13674 0.0
H5515 H 0.23403 0.63183 0.13676 0.0
H5516 H 0.20694 0.60275 0.12265 0.0
C5517 C 0.22627 0.57677 0.11754 0.0
C5518 C 0.23777 0.60553 0.12583 0.0
C5519 C 0.22848 0.56715 0.11764 0.0
C5520 C 0.22552 0.64234 0.13165 0.0
C5521 C 0.22761 0.63268 0.13164 0.0
C5522 C 0.2156 0.60371 0.12343 0.0
C5523 C 0.23188 0.58502 0.12433 0.0
C5524 C 0.22923 0.59508 0.12444 0.0
C5525 C 0.22151 0.62425 0.12512 0.0
C5526 C 0.22414 0.61418 0.12484 0.0
H5527 H 0.24808 0.57284 0.13675 0.0
H5528 H 0.24431 0.58966 0.13651 0.0
H5529 H 0.21133 0.58634 0.12227 0.0
H5530 H 0.20451 0.63622 0.11373 0.0
H5531 H 0.20822 0.61935 0.11362 0.0
C5532 C 0.23648 0.4697 0.88916 0.0
C5533 C 0.24289 0.46385 0.89331 0.0
C5534 C 0.22483 0.46478 0.88849 0.0
C5535 C 0.20097 0.44116 0.89803 0.0
H5536 H 0.1855 0.44442 0.8735 0.0
C5537 C 0.15734 0.41029 0.88557 0.0
C5538 C 0.14966 0.41429 0.88069 0.0
C5539 C 0.16829 0.41741 0.888 0.0
C5540 C 0.18966 0.44357 0.88045 0.0
H5541 H 0.24204 0.44841 0.90039 0.0
H5542 H 0.2218 0.43976 0.89903 0.0
H5543 H 0.20548 0.45498 0.87617 0.0
H5544 H 0.1475 0.42904 0.87474 0.0
H5545 H 0.16676 0.44148 0.87887 0.0
H5546 H 0.18519 0.42948 0.90218 0.0
C5547 C 0.22574 0.44819 0.89636 0.0
C5548 C 0.20112 0.44963 0.88199 0.0
C5549 C 0.23737 0.45309 0.89702 0.0
C5550 C 0.15322 0.42566 0.8784 0.0
C5551 C 0.16424 0.43278 0.88077 0.0
C5552 C 0.18953 0.43507 0.89647 0.0
C5553 C 0.21932 0.45392 0.89199 0.0
C5554 C 0.20696 0.44834 0.89073 0.0
C5555 C 0.17191 0.42872 0.88555 0.0
C5556 C 0.18379 0.43605 0.88759 0.0
H5557 H 0.24047 0.47798 0.88617 0.0
H5558 H 0.22013 0.46947 0.88518 0.0
H5559 H 0.20515 0.44013 0.90492 0.0
H5560 H 0.15501 0.40157 0.88725 0.0
H5561 H 0.17405 0.41398 0.89151 0.0
C5562 C 0.24413 0.41819 0.60756 0.0
C5563 C 0.24012 0.41737 0.6168 0.0
C5564 C 0.24946 0.41136 0.60513 0.0
C5565 C 0.25417 0.3857 0.61278 0.0
H5566 H 0.27996 0.39898 0.59761 0.0
C5567 C 0.28594 0.36541 0.60834 0.0
C5568 C 0.29016 0.36633 0.59916 0.0
C5569 C 0.27904 0.37092 0.61019 0.0
C5570 C 0.27269 0.39509 0.60175 0.0
H5571 H 0.23845 0.40862 0.63071 0.0
H5572 H 0.2479 0.3968 0.62655 0.0
H5573 H 0.2695 0.40989 0.60144 0.0
H5574 H 0.29029 0.37368 0.5847 0.0
H5575 H 0.27819 0.3832 0.58789 0.0
H5576 H 0.25758 0.37095 0.61322 0.0
C5577 C 0.24676 0.40259 0.62109 0.0
C5578 C 0.26666 0.40135 0.60394 0.0
C5579 C 0.24135 0.40938 0.6235 0.0
C5580 C 0.28711 0.3727 0.59182 0.0
C5581 C 0.28027 0.37826 0.59368 0.0
C5582 C 0.26026 0.37945 0.61063 0.0
C5583 C 0.25101 0.40357 0.61191 0.0
C5584 C 0.25731 0.39676 0.60948 0.0
C5585 C 0.27626 0.37756 0.60293 0.0
C5586 C 0.26959 0.38407 0.60508 0.0
H5587 H 0.24315 0.42413 0.60217 0.0
H5588 H 0.25238 0.4122 0.59792 0.0
H5589 H 0.24693 0.38183 0.61695 0.0
H5590 H 0.28806 0.3605 0.61413 0.0
H5591 H 0.27616 0.37025 0.6174 0.0
C5592 C 0.75263 0.03484 0.87149 0.0
C5593 C 0.74434 0.03687 0.86545 0.0
C5594 C 0.7637 0.03905 0.869 0.0
C5595 C 0.78299 0.06131 0.85419 0.0
H5596 H 0.8024 0.04528 0.85996 0.0
C5597 C 0.8289 0.07994 0.84497 0.0
C5598 C 0.83664 0.07933 0.85251 0.0
C5599 C 0.81752 0.07363 0.8455 0.0
C5600 C 0.79708 0.04987 0.85834 0.0
H5601 H 0.74107 0.04452 0.85185 0.0
H5602 H 0.76035 0.0518 0.84744 0.0
H5603 H 0.78263 0.03635 0.86284 0.0
H5604 H 0.83858 0.07119 0.86624 0.0
H5605 H 0.81872 0.06027 0.86721 0.0
H5606 H 0.79743 0.07487 0.84982 0.0
C5607 C 0.75835 0.04715 0.85422 0.0
C5608 C 0.78577 0.04477 0.86 0.0
C5609 C 0.74731 0.04297 0.85674 0.0
C5610 C 0.8328 0.07192 0.86036 0.0
C5611 C 0.82144 0.06559 0.86087 0.0
C5612 C 0.79428 0.06639 0.8525 0.0
C5613 C 0.76672 0.04536 0.86038 0.0
C5614 C 0.77861 0.05047 0.85805 0.0
C5615 C 0.81364 0.06655 0.85355 0.0
C5616 C 0.80149 0.06078 0.85466 0.0
H5617 H 0.75064 0.03028 0.87831 0.0
H5618 H 0.76994 0.03765 0.87398 0.0
H5619 H 0.77777 0.06603 0.85276 0.0
H5620 H 0.83157 0.08563 0.83886 0.0
H5621 H 0.81174 0.07445 0.83968 0.0
C5622 C 0.85501 0.08086 0.40826 0.0
C5623 C 0.84336 0.07561 0.4068 0.0
C5624 C 0.86001 0.09211 0.41015 0.0
C5625 C 0.85484 0.11784 0.40671 0.0
H5626 H 0.88328 0.12957 0.4217 0.0
C5627 C 0.88798 0.1605 0.39896 0.0
C5628 C 0.89639 0.16583 0.40615 0.0
C5629 C 0.87944 0.15043 0.40101 0.0
C5630 C 0.87523 0.12652 0.41766 0.0
H5631 H 0.82782 0.07809 0.4065 0.0
H5632 H 0.83655 0.09771 0.41007 0.0
H5633 H 0.87244 0.10986 0.42208 0.0
H5634 H 0.90177 0.16533 0.4214 0.0
H5635 H 0.88658 0.14794 0.4251 0.0
H5636 H 0.85761 0.13453 0.40235 0.0
C5637 C 0.84183 0.09313 0.40957 0.0
C5638 C 0.86908 0.11515 0.41774 0.0
C5639 C 0.83681 0.08185 0.40762 0.0
C5640 C 0.89543 0.16142 0.41569 0.0
C5641 C 0.8868 0.15136 0.41777 0.0
C5642 C 0.86094 0.12925 0.40672 0.0
C5643 C 0.85351 0.09844 0.41073 0.0
C5644 C 0.85903 0.11061 0.41196 0.0
C5645 C 0.879 0.14547 0.41034 0.0
C5646 C 0.87143 0.13371 0.41189 0.0
H5647 H 0.86032 0.0763 0.40786 0.0
H5648 H 0.86902 0.09589 0.41085 0.0
H5649 H 0.84714 0.11469 0.40216 0.0
H5650 H 0.88839 0.1638 0.39157 0.0
H5651 H 0.87366 0.1462 0.39506 0.0
C5652 C 0.17521 0.49146 0.63858 0.0
C5653 C 0.18234 0.48897 0.64573 0.0
C5654 C 0.16688 0.49482 0.6412 0.0
C5655 C 0.15869 0.50656 0.66169 0.0
H5656 H 0.12967 0.49614 0.64752 0.0
C5657 C 0.12396 0.52135 0.6704 0.0
C5658 C 0.11325 0.51305 0.67084 0.0
C5659 C 0.13251 0.51917 0.66657 0.0
C5660 C 0.13772 0.49911 0.65158 0.0
H5661 H 0.1862 0.48808 0.66127 0.0
H5662 H 0.17151 0.49363 0.66582 0.0
H5663 H 0.14414 0.49041 0.64272 0.0
H5664 H 0.10299 0.49613 0.66714 0.0
H5665 H 0.11782 0.4923 0.66066 0.0
H5666 H 0.15213 0.51496 0.67075 0.0
C5667 C 0.17246 0.49315 0.65818 0.0
C5668 C 0.14607 0.49591 0.64876 0.0
C5669 C 0.1808 0.48979 0.65556 0.0
C5670 C 0.11118 0.50267 0.66704 0.0
C5671 C 0.11968 0.50051 0.66321 0.0
C5672 C 0.15033 0.50976 0.66452 0.0
C5673 C 0.16544 0.49578 0.65103 0.0
C5674 C 0.15664 0.4995 0.65384 0.0
C5675 C 0.13051 0.50866 0.66304 0.0
C5676 C 0.13969 0.50597 0.65957 0.0
H5677 H 0.17607 0.49083 0.63094 0.0
H5678 H 0.16169 0.49685 0.63549 0.0
H5679 H 0.16677 0.50963 0.66568 0.0
H5680 H 0.12583 0.52941 0.67329 0.0
H5681 H 0.14072 0.52569 0.66645 0.0
C5682 C 0.31461 0.5019 0.13508 0.0
C5683 C 0.31609 0.51304 0.1358 0.0
C5684 C 0.32362 0.4986 0.13689 0.0
C5685 C 0.35187 0.50777 0.14955 0.0
H5686 H 0.35434 0.48414 0.13556 0.0
C5687 C 0.38451 0.48984 0.16254 0.0
C5688 C 0.39043 0.4876 0.1555 0.0
C5689 C 0.37498 0.49205 0.15984 0.0
C5690 C 0.35383 0.49081 0.13949 0.0
H5691 H 0.32837 0.52945 0.13885 0.0
H5692 H 0.34409 0.52377 0.14166 0.0
H5693 H 0.33909 0.49028 0.13096 0.0
H5694 H 0.39081 0.48546 0.14014 0.0
H5695 H 0.37422 0.48954 0.13533 0.0
H5696 H 0.36674 0.50858 0.15787 0.0
C5697 C 0.33591 0.51753 0.13989 0.0
C5698 C 0.345 0.49426 0.13692 0.0
C5699 C 0.32689 0.52082 0.13814 0.0
C5700 C 0.38635 0.48711 0.14571 0.0
C5701 C 0.37684 0.48945 0.14298 0.0
C5702 C 0.36069 0.50438 0.15207 0.0
C5703 C 0.33438 0.50635 0.13943 0.0
C5704 C 0.34389 0.50277 0.14194 0.0
C5705 C 0.3712 0.49222 0.15 0.0
C5706 C 0.36176 0.4958 0.14714 0.0
H5707 H 0.30646 0.49569 0.13314 0.0
H5708 H 0.32208 0.48991 0.13654 0.0
H5709 H 0.35124 0.51424 0.15368 0.0
H5710 H 0.3874 0.49012 0.17015 0.0
H5711 H 0.37069 0.49381 0.16549 0.0
C5712 C 0.62863 0.81639 0.54139 0.0
C5713 C 0.62744 0.80534 0.54082 0.0
C5714 C 0.6257 0.8201 0.54959 0.0
C5715 C 0.60908 0.81053 0.57115 0.0
H5716 H 0.62757 0.83986 0.5801 0.0
C5717 C 0.60454 0.8282 0.60762 0.0
C5718 C 0.60598 0.83939 0.60747 0.0
C5719 C 0.60632 0.8235 0.59939 0.0
C5720 C 0.62224 0.8317 0.57763 0.0
H5721 H 0.6222 0.78949 0.54846 0.0
H5722 H 0.6172 0.796 0.5629 0.0
H5723 H 0.63268 0.83269 0.56625 0.0
H5724 H 0.60968 0.85418 0.59835 0.0
H5725 H 0.61282 0.84602 0.58406 0.0
H5726 H 0.59872 0.80956 0.5827 0.0
C5727 C 0.62027 0.80177 0.55691 0.0
C5728 C 0.62517 0.82758 0.56968 0.0
C5729 C 0.62317 0.79804 0.54866 0.0
C5730 C 0.60872 0.84561 0.59877 0.0
C5731 C 0.61054 0.84093 0.59059 0.0
C5732 C 0.60617 0.81465 0.57918 0.0
C5733 C 0.62153 0.81287 0.55749 0.0
C5734 C 0.61857 0.81699 0.56625 0.0
C5735 C 0.60962 0.8299 0.59087 0.0
C5736 C 0.61267 0.82533 0.58244 0.0
H5737 H 0.63164 0.82217 0.53539 0.0
H5738 H 0.62655 0.82863 0.54965 0.0
H5739 H 0.60374 0.80239 0.56866 0.0
H5740 H 0.60253 0.82321 0.61422 0.0
H5741 H 0.6056 0.81499 0.59985 0.0
C5742 C 0.42043 0.4002 0.76782 0.0
C5743 C 0.42688 0.39502 0.76416 0.0
C5744 C 0.41892 0.39969 0.77777 0.0
C5745 C 0.41926 0.3823 0.79953 0.0
H5746 H 0.41874 0.40679 0.81362 0.0
C5747 C 0.41444 0.37817 0.84045 0.0
C5748 C 0.40692 0.3821 0.84399 0.0
C5749 C 0.41794 0.381 0.83107 0.0
C5750 C 0.41878 0.39985 0.80977 0.0
H5751 H 0.437 0.38544 0.76817 0.0
H5752 H 0.43453 0.3847 0.7855 0.0
H5753 H 0.4229 0.40938 0.79651 0.0
H5754 H 0.39756 0.39252 0.84067 0.0
H5755 H 0.40356 0.39738 0.82412 0.0
H5756 H 0.41496 0.3727 0.81263 0.0
C5757 C 0.43052 0.38906 0.78066 0.0
C5758 C 0.42117 0.40134 0.79997 0.0
C5759 C 0.43204 0.38959 0.77073 0.0
C5760 C 0.4034 0.3894 0.83812 0.0
C5761 C 0.40685 0.39218 0.82865 0.0
C5762 C 0.41686 0.38081 0.80928 0.0
C5763 C 0.4238 0.39395 0.78429 0.0
C5764 C 0.42147 0.39257 0.79474 0.0
C5765 C 0.41393 0.38776 0.82493 0.0
C5766 C 0.41662 0.38957 0.81455 0.0
H5767 H 0.41644 0.40458 0.76298 0.0
H5768 H 0.41365 0.40349 0.7803 0.0
H5769 H 0.41916 0.3753 0.79568 0.0
H5770 H 0.41743 0.37267 0.84489 0.0
H5771 H 0.42364 0.37769 0.82856 0.0
C5772 C 0.86212 0.17801 0.03205 0.0
C5773 C 0.87051 0.18631 0.02714 0.0
C5774 C 0.86448 0.17426 0.04131 0.0
C5775 C 0.8853 0.18163 0.06257 0.0
H5776 H 0.87043 0.15058 0.06922 0.0
C5777 C 0.88633 0.16443 0.10195 0.0
C5778 C 0.88617 0.15371 0.10338 0.0
C5779 C 0.88524 0.16864 0.09256 0.0
C5780 C 0.87479 0.15925 0.06747 0.0
H5781 H 0.88796 0.19717 0.02805 0.0
H5782 H 0.89217 0.19048 0.04415 0.0
H5783 H 0.86705 0.15736 0.05304 0.0
H5784 H 0.88526 0.13915 0.09615 0.0
H5785 H 0.88368 0.14657 0.07976 0.0
H5786 H 0.89332 0.18343 0.07692 0.0
C5787 C 0.8837 0.18701 0.04095 0.0
C5788 C 0.8727 0.16319 0.05821 0.0
C5789 C 0.8813 0.19084 0.03171 0.0
C5790 C 0.88527 0.1474 0.09525 0.0
C5791 C 0.88431 0.15164 0.08586 0.0
C5792 C 0.88747 0.17767 0.07181 0.0
C5793 C 0.87532 0.17865 0.04586 0.0
C5794 C 0.87784 0.17444 0.05566 0.0
C5795 C 0.88408 0.16225 0.08439 0.0
C5796 C 0.88218 0.16644 0.07441 0.0
H5797 H 0.85368 0.17448 0.02876 0.0
H5798 H 0.85775 0.168 0.04494 0.0
H5799 H 0.88935 0.19037 0.06091 0.0
H5800 H 0.8869 0.16943 0.1081 0.0
H5801 H 0.88494 0.17677 0.09174 0.0
C5802 C 0.07285 0.61541 0.28338 0.0
C5803 C 0.06948 0.62356 0.27881 0.0
C5804 C 0.07448 0.61484 0.29348 0.0
C5805 C 0.06775 0.62353 0.31631 0.0
H5806 H 0.09306 0.61695 0.32709 0.0
C5807 C 0.08021 0.62337 0.35779 0.0
C5808 C 0.083 0.61445 0.36136 0.0
C5809 C 0.07875 0.6252 0.34776 0.0
C5810 C 0.08591 0.61872 0.3242 0.0
H5811 H 0.06504 0.63744 0.28132 0.0
H5812 H 0.06792 0.63647 0.29902 0.0
H5813 H 0.08999 0.61873 0.30955 0.0
H5814 H 0.08614 0.6003 0.35715 0.0
H5815 H 0.08376 0.60357 0.33977 0.0
H5816 H 0.06368 0.62348 0.33102 0.0
C5817 C 0.0692 0.63045 0.29476 0.0
C5818 C 0.08413 0.61972 0.31414 0.0
C5819 C 0.06755 0.631 0.28462 0.0
C5820 C 0.08428 0.60741 0.35467 0.0
C5821 C 0.08288 0.60927 0.34469 0.0
C5822 C 0.06954 0.62256 0.3264 0.0
C5823 C 0.0728 0.62243 0.2993 0.0
C5824 C 0.07494 0.62197 0.31005 0.0
C5825 C 0.08011 0.61818 0.34111 0.0
C5826 C 0.07856 0.61998 0.33045 0.0
H5827 H 0.07419 0.60941 0.27913 0.0
H5828 H 0.07699 0.60839 0.29674 0.0
H5829 H 0.06054 0.62519 0.3134 0.0
H5830 H 0.07924 0.62899 0.36273 0.0
H5831 H 0.07671 0.63219 0.34522 0.0
C5832 C 0.56848 0.12355 0.99842 0.0
C5833 C 0.57688 0.13342 0.00175 0.0
C5834 C 0.5672 0.12087 0.98863 0.0
C5835 C 0.58225 0.12654 0.96632 0.0
H5836 H 0.55247 0.11296 0.9539 0.0
C5837 C 0.57307 0.11676 0.9251 0.0
C5838 C 0.56412 0.10688 0.9226 0.0
C5839 C 0.57524 0.12026 0.93472 0.0
C5840 C 0.56085 0.11663 0.95728 0.0
H5841 H 0.59049 0.14826 0.99738 0.0
H5842 H 0.58816 0.14363 0.9802 0.0
H5843 H 0.55488 0.11891 0.97059 0.0
H5844 H 0.55091 0.09258 0.92834 0.0
H5845 H 0.55474 0.0986 0.94508 0.0
H5846 H 0.5882 0.12419 0.95297 0.0
C5847 C 0.58264 0.13792 0.98521 0.0
C5848 C 0.56223 0.12006 0.96685 0.0
C5849 C 0.58389 0.14063 0.99503 0.0
C5850 C 0.55772 0.10034 0.93 0.0
C5851 C 0.5599 0.10381 0.93958 0.0
C5852 C 0.58087 0.12309 0.95672 0.0
C5853 C 0.57428 0.12799 0.98191 0.0
C5854 C 0.57293 0.12494 0.97154 0.0
C5855 C 0.56851 0.11393 0.94204 0.0
C5856 C 0.57014 0.11797 0.95213 0.0
H5857 H 0.56285 0.11787 0.00338 0.0
H5858 H 0.56075 0.11311 0.98637 0.0
H5859 H 0.59061 0.13019 0.96975 0.0
H5860 H 0.5781 0.12201 0.91955 0.0
H5861 H 0.58192 0.12812 0.93636 0.0
C5862 C 0.03159 0.37531 0.19762 0.0
C5863 C 0.03852 0.38178 0.2052 0.0
C5864 C 0.03615 0.37294 0.18966 0.0
C5865 C 0.06188 0.38107 0.17648 0.0
H5866 H 0.04932 0.35038 0.16919 0.0
C5867 C 0.08347 0.3618 0.15196 0.0
C5868 C 0.0766 0.35314 0.14597 0.0
C5869 C 0.07879 0.36646 0.15835 0.0
C5870 C 0.05283 0.35903 0.17097 0.0
H5871 H 0.05574 0.39111 0.21015 0.0
H5872 H 0.06367 0.38703 0.19622 0.0
H5873 H 0.04118 0.35643 0.18173 0.0
H5874 H 0.05949 0.3431 0.14142 0.0
H5875 H 0.05131 0.3514 0.15226 0.0
H5876 H 0.07359 0.38362 0.16572 0.0
C5877 C 0.05469 0.38385 0.19642 0.0
C5878 C 0.04815 0.3625 0.1782 0.0
C5879 C 0.05013 0.3862 0.2044 0.0
C5880 C 0.06498 0.34967 0.14606 0.0
C5881 C 0.06031 0.35438 0.15234 0.0
C5882 C 0.06654 0.3776 0.16918 0.0
C5883 C 0.04776 0.377 0.18905 0.0
C5884 C 0.05261 0.37354 0.18107 0.0
C5885 C 0.06713 0.36259 0.1588 0.0
C5886 C 0.06208 0.36652 0.16634 0.0
H5887 H 0.02261 0.37194 0.1979 0.0
H5888 H 0.03056 0.36781 0.18402 0.0
H5889 H 0.06547 0.38965 0.17847 0.0
H5890 H 0.09246 0.36458 0.15207 0.0
H5891 H 0.08431 0.37272 0.16324 0.0
C5892 C 0.91015 0.88083 0.48258 0.0
C5893 C 0.91869 0.87747 0.48652 0.0
C5894 C 0.90942 0.88363 0.47273 0.0
C5895 C 0.9181 0.88066 0.44868 0.0
H5896 H 0.91048 0.90613 0.44219 0.0
C5897 C 0.91504 0.898 0.40906 0.0
C5898 C 0.90562 0.90064 0.40669 0.0
C5899 C 0.91765 0.89532 0.41869 0.0
C5900 C 0.91257 0.89897 0.44387 0.0
H5901 H 0.933 0.87414 0.48311 0.0
H5902 H 0.93171 0.87907 0.4658 0.0
H5903 H 0.91311 0.90104 0.45916 0.0
H5904 H 0.89128 0.902 0.41255 0.0
H5905 H 0.89592 0.89753 0.4292 0.0
H5906 H 0.91745 0.8786 0.4333 0.0
C5907 C 0.92556 0.87948 0.47038 0.0
C5908 C 0.91405 0.89603 0.4536 0.0
C5909 C 0.9263 0.87665 0.48028 0.0
C5910 C 0.8988 0.90035 0.41412 0.0
C5911 C 0.90143 0.89775 0.42369 0.0
C5912 C 0.91663 0.88363 0.4389 0.0
C5913 C 0.91721 0.88317 0.46653 0.0
C5914 C 0.91658 0.8867 0.45614 0.0
C5915 C 0.91092 0.89528 0.42612 0.0
C5916 C 0.91361 0.89268 0.43641 0.0
H5917 H 0.904 0.88129 0.48713 0.0
H5918 H 0.9027 0.88616 0.46997 0.0
H5919 H 0.92002 0.87341 0.45039 0.0
H5920 H 0.92047 0.89816 0.40351 0.0
H5921 H 0.92503 0.89347 0.42035 0.0
C5922 C 0.45447 0.6283 0.74004 0.0
C5923 C 0.45118 0.61746 0.74387 0.0
C5924 C 0.44868 0.63073 0.73184 0.0
C5925 C 0.42863 0.61822 0.71092 0.0
H5926 H 0.42318 0.64519 0.71139 0.0
C5927 C 0.39822 0.62934 0.6829 0.0
C5928 C 0.40164 0.64045 0.67975 0.0
C5929 C 0.40449 0.62612 0.69031 0.0
C5930 C 0.42473 0.63769 0.71108 0.0
H5931 H 0.43933 0.60064 0.74198 0.0
H5932 H 0.42915 0.6049 0.72768 0.0
H5933 H 0.43367 0.64036 0.72503 0.0
H5934 H 0.41465 0.65675 0.6815 0.0
H5935 H 0.42552 0.65116 0.69438 0.0
H5936 H 0.41954 0.61555 0.69695 0.0
C5937 C 0.4363 0.6115 0.73095 0.0
C5938 C 0.43077 0.63492 0.71891 0.0
C5939 C 0.44213 0.60905 0.73915 0.0
C5940 C 0.41164 0.64817 0.68392 0.0
C5941 C 0.41788 0.64497 0.6913 0.0
C5942 C 0.42254 0.62099 0.70307 0.0
C5943 C 0.43942 0.6224 0.72727 0.0
C5944 C 0.43287 0.6252 0.71891 0.0
C5945 C 0.41429 0.63395 0.69471 0.0
C5946 C 0.4206 0.6308 0.70304 0.0
H5947 H 0.46153 0.63493 0.7434 0.0
H5948 H 0.45147 0.63918 0.72908 0.0
H5949 H 0.43017 0.61072 0.71064 0.0
H5950 H 0.39052 0.6232 0.67988 0.0
H5951 H 0.40147 0.61758 0.69281 0.0
C5952 C 0.52122 0.58522 0.81846 0.0
C5953 C 0.51044 0.58169 0.82173 0.0
C5954 C 0.52849 0.58011 0.822 0.0
C5955 C 0.53375 0.56484 0.84362 0.0
H5956 H 0.55461 0.55971 0.82813 0.0
C5957 C 0.56528 0.54763 0.86151 0.0
C5958 C 0.57628 0.55284 0.85879 0.0
C5959 C 0.55652 0.54932 0.85602 0.0
C5960 C 0.54888 0.56115 0.83256 0.0
H5961 H 0.49861 0.56954 0.83079 0.0
H5962 H 0.5113 0.56068 0.83698 0.0
H5963 H 0.54061 0.56616 0.82021 0.0
H5964 H 0.58667 0.56355 0.84798 0.0
H5965 H 0.57143 0.56667 0.83847 0.0
H5966 H 0.54215 0.56024 0.85599 0.0
C5967 C 0.5142 0.56753 0.83182 0.0
C5968 C 0.54085 0.56483 0.82802 0.0
C5969 C 0.50694 0.57261 0.82828 0.0
C5970 C 0.57826 0.55933 0.8502 0.0
C5971 C 0.56951 0.56111 0.84474 0.0
C5972 C 0.54178 0.56123 0.84815 0.0
C5973 C 0.52514 0.57137 0.82889 0.0
C5974 C 0.53325 0.5668 0.83352 0.0
C5975 C 0.55856 0.55636 0.84773 0.0
C5976 C 0.54952 0.55942 0.84271 0.0
H5977 H 0.52423 0.59225 0.8135 0.0
H5978 H 0.5369 0.58334 0.81967 0.0
H5979 H 0.52816 0.56647 0.84809 0.0
H5980 H 0.56351 0.54248 0.86804 0.0
H5981 H 0.54817 0.54531 0.85842 0.0
C5982 C 0.58334 0.21353 0.07914 0.0
C5983 C 0.57891 0.21211 0.06942 0.0
C5984 C 0.58425 0.22279 0.0842 0.0
C5985 C 0.58696 0.25151 0.08023 0.0
H5986 H 0.5816 0.24953 0.10757 0.0
C5987 C 0.60709 0.28805 0.10583 0.0
C5988 C 0.60085 0.28945 0.11306 0.0
C5989 C 0.6027 0.27888 0.09989 0.0
C5990 C 0.58299 0.25022 0.09991 0.0
H5991 H 0.57165 0.21925 0.05753 0.0
H5992 H 0.57341 0.23551 0.06635 0.0
H5993 H 0.57685 0.23266 0.09854 0.0
H5994 H 0.58501 0.28255 0.11958 0.0
H5995 H 0.5773 0.26637 0.1092 0.0
H5996 H 0.59329 0.26905 0.08164 0.0
C5997 C 0.57625 0.22945 0.07 0.0
C5998 C 0.58038 0.24056 0.09476 0.0
C5999 C 0.57528 0.22015 0.06495 0.0
C6000 C 0.58998 0.28166 0.11405 0.0
C6001 C 0.58561 0.27239 0.10816 0.0
C6002 C 0.58963 0.26116 0.08539 0.0
C6003 C 0.58082 0.23091 0.07967 0.0
C6004 C 0.58253 0.2411 0.0849 0.0
C6005 C 0.59199 0.27084 0.10109 0.0
C6006 C 0.58788 0.26063 0.09533 0.0
H6007 H 0.58642 0.20763 0.08278 0.0
H6008 H 0.58799 0.22375 0.09158 0.0
H6009 H 0.58878 0.25222 0.07266 0.0
H6010 H 0.61545 0.29398 0.10485 0.0
H6011 H 0.60787 0.27789 0.09459 0.0
C6012 C 0.96463 0.42289 0.26226 0.0
C6013 C 0.97564 0.42449 0.26561 0.0
C6014 C 0.95824 0.42678 0.26753 0.0
C6015 C 0.95643 0.43443 0.29246 0.0
H6016 H 0.93543 0.44639 0.28018 0.0
C6017 C 0.92283 0.43947 0.31375 0.0
C6018 C 0.9207 0.44917 0.31221 0.0
C6019 C 0.92962 0.43703 0.30777 0.0
C6020 C 0.94132 0.44315 0.28372 0.0
H6021 H 0.98873 0.43195 0.27685 0.0
H6022 H 0.97763 0.43874 0.286 0.0
H6023 H 0.94737 0.44151 0.27019 0.0
H6024 H 0.92395 0.46383 0.303 0.0
H6025 H 0.93586 0.45955 0.29248 0.0
H6026 H 0.9505 0.43613 0.30598 0.0
C6027 C 0.97383 0.43426 0.27942 0.0
C6028 C 0.94808 0.44024 0.27799 0.0
C6029 C 0.98021 0.43037 0.27417 0.0
C6030 C 0.92538 0.45627 0.30436 0.0
C6031 C 0.9322 0.45381 0.29834 0.0
C6032 C 0.94967 0.4373 0.29817 0.0
C6033 C 0.96271 0.43237 0.27626 0.0
C6034 C 0.95569 0.4358 0.28229 0.0
C6035 C 0.93448 0.4442 0.30003 0.0
C6036 C 0.94197 0.44161 0.29388 0.0
H6037 H 0.96082 0.41831 0.25574 0.0
H6038 H 0.94967 0.42508 0.26493 0.0
H6039 H 0.96209 0.43092 0.29603 0.0
H6040 H 0.91913 0.43365 0.31955 0.0
H6041 H 0.93098 0.42942 0.30915 0.0
C6042 C 0.92817 0.78998 0.557 0.0
C6043 C 0.92784 0.79976 0.56037 0.0
C6044 C 0.92695 0.78095 0.56335 0.0
C6045 C 0.9155 0.76927 0.58691 0.0
H6046 H 0.93243 0.7508 0.58562 0.0
C6047 C 0.91303 0.736 0.61617 0.0
C6048 C 0.91133 0.72548 0.61295 0.0
C6049 C 0.91621 0.74515 0.60981 0.0
C6050 C 0.9276 0.75585 0.58602 0.0
H6051 H 0.926 0.80763 0.57313 0.0
H6052 H 0.92423 0.79212 0.58419 0.0
H6053 H 0.93563 0.76659 0.57432 0.0
H6054 H 0.91219 0.7164 0.60064 0.0
H6055 H 0.91779 0.73244 0.58948 0.0
H6056 H 0.90746 0.75859 0.59856 0.0
C6057 C 0.92527 0.79134 0.57661 0.0
C6058 C 0.92941 0.76488 0.57954 0.0
C6059 C 0.92645 0.80032 0.57027 0.0
C6060 C 0.9135 0.72442 0.60335 0.0
C6061 C 0.91669 0.7336 0.59695 0.0
C6062 C 0.91373 0.7603 0.59338 0.0
C6063 C 0.92535 0.78148 0.57322 0.0
C6064 C 0.92342 0.77174 0.57995 0.0
C6065 C 0.91777 0.74401 0.60005 0.0
C6066 C 0.91979 0.75352 0.59307 0.0
H6067 H 0.92935 0.78928 0.54944 0.0
H6068 H 0.92699 0.77346 0.56048 0.0
H6069 H 0.91053 0.77419 0.58729 0.0
H6070 H 0.91164 0.73713 0.62358 0.0
H6071 H 0.91724 0.7531 0.61249 0.0
C6072 C 0.50728 0.39951 0.69277 0.0
C6073 C 0.50634 0.40708 0.69909 0.0
C6074 C 0.51709 0.40195 0.6881 0.0
C6075 C 0.54168 0.42554 0.6804 0.0
H6076 H 0.55459 0.40372 0.67822 0.0
C6077 C 0.58493 0.43774 0.66616 0.0
C6078 C 0.58644 0.43068 0.65965 0.0
C6079 C 0.57532 0.43435 0.67122 0.0
C6080 C 0.55102 0.40987 0.67867 0.0
H6081 H 0.51499 0.42317 0.70544 0.0
H6082 H 0.53211 0.42736 0.6974 0.0
H6083 H 0.53742 0.39878 0.68649 0.0
H6084 H 0.57918 0.41436 0.65358 0.0
H6085 H 0.56223 0.40842 0.66237 0.0
H6086 H 0.55514 0.43661 0.67253 0.0
C6087 C 0.52524 0.41956 0.696 0.0
C6088 C 0.54119 0.40704 0.68342 0.0
C6089 C 0.51546 0.41711 0.70069 0.0
C6090 C 0.57826 0.41997 0.65858 0.0
C6091 C 0.56857 0.41657 0.66362 0.0
C6092 C 0.55145 0.42835 0.67564 0.0
C6093 C 0.52616 0.41204 0.68961 0.0
C6094 C 0.53646 0.41488 0.6844 0.0
C6095 C 0.5669 0.42381 0.66988 0.0
C6096 C 0.55632 0.4206 0.67478 0.0
H6097 H 0.50044 0.39167 0.69145 0.0
H6098 H 0.51751 0.39601 0.68318 0.0
H6099 H 0.53814 0.43171 0.68085 0.0
H6100 H 0.59119 0.44596 0.6673 0.0
H6101 H 0.57446 0.44003 0.67617 0.0
C6102 C 0.84125 0.24737 0.95289 0.0
C6103 C 0.83912 0.23876 0.94644 0.0
C6104 C 0.83768 0.256 0.95035 0.0
C6105 C 0.81878 0.26435 0.93281 0.0
H6106 H 0.84009 0.29393 0.93832 0.0
C6107 C 0.81742 0.3036 0.91255 0.0
C6108 C 0.82074 0.31337 0.91777 0.0
C6109 C 0.81802 0.29401 0.91703 0.0
C6110 C 0.83395 0.28573 0.93687 0.0
H6111 H 0.83111 0.23225 0.93244 0.0
H6112 H 0.82519 0.24742 0.92791 0.0
H6113 H 0.8443 0.27812 0.94435 0.0
H6114 H 0.82686 0.32059 0.93191 0.0
H6115 H 0.82774 0.3038 0.93976 0.0
H6116 H 0.80858 0.27205 0.92507 0.0
C6117 C 0.82952 0.24747 0.93497 0.0
C6118 C 0.83636 0.27664 0.94033 0.0
C6119 C 0.83306 0.23884 0.93752 0.0
C6120 C 0.82416 0.31318 0.9277 0.0
C6121 C 0.82479 0.3036 0.93216 0.0
C6122 C 0.81638 0.27346 0.92931 0.0
C6123 C 0.83191 0.25624 0.9413 0.0
C6124 C 0.82888 0.26584 0.93824 0.0
C6125 C 0.82199 0.29398 0.92682 0.0
C6126 C 0.824 0.28425 0.9312 0.0
H6127 H 0.84596 0.24762 0.95979 0.0
H6128 H 0.83954 0.26254 0.95545 0.0
H6129 H 0.81274 0.25615 0.9312 0.0
H6130 H 0.81466 0.30346 0.90491 0.0
H6131 H 0.81586 0.28676 0.91268 0.0
C6132 C 0.99089 0.62703 0.19376 0.0
C6133 C 0.99068 0.6196 0.20155 0.0
C6134 C 0.98137 0.62535 0.1875 0.0
C6135 C 0.95066 0.60997 0.18534 0.0
H6136 H 0.95425 0.61474 0.15769 0.0
C6137 C 0.91288 0.6029 0.15758 0.0
C6138 C 0.91263 0.59714 0.14923 0.0
C6139 C 0.92258 0.60697 0.16379 0.0
C6140 C 0.95309 0.61333 0.16539 0.0
H6141 H 0.98028 0.60456 0.20884 0.0
H6142 H 0.96374 0.60159 0.19791 0.0
H6143 H 0.97066 0.61897 0.16904 0.0
H6144 H 0.92256 0.59163 0.14063 0.0
H6145 H 0.93935 0.5985 0.15152 0.0
H6146 H 0.93308 0.60392 0.18167 0.0
C6147 C 0.97119 0.60884 0.19673 0.0
C6148 C 0.96251 0.61589 0.17191 0.0
C6149 C 0.98069 0.61053 0.203 0.0
C6150 C 0.92242 0.59589 0.14707 0.0
C6151 C 0.9321 0.59996 0.15326 0.0
C6152 C 0.94123 0.6074 0.17882 0.0
C6153 C 0.97142 0.61619 0.18886 0.0
C6154 C 0.96142 0.61411 0.18197 0.0
C6155 C 0.93226 0.6054 0.16179 0.0
C6156 C 0.94232 0.60892 0.16875 0.0
H6157 H 0.9984 0.63418 0.19253 0.0
H6158 H 0.98181 0.63128 0.18162 0.0
H6159 H 0.9495 0.60864 0.19305 0.0
H6160 H 0.90548 0.60393 0.15951 0.0
H6161 H 0.92246 0.61126 0.17022 0.0
C6162 C 0.66926 0.73177 0.48335 0.0
C6163 C 0.66851 0.74137 0.47886 0.0
C6164 C 0.67326 0.72516 0.47845 0.0
C6165 C 0.68897 0.72512 0.45717 0.0
H6166 H 0.67374 0.69337 0.45968 0.0
C6167 C 0.69218 0.69439 0.43028 0.0
C6168 C 0.69226 0.68423 0.43401 0.0
C6169 C 0.69081 0.70186 0.43636 0.0
C6170 C 0.67821 0.70221 0.45901 0.0
H6171 H 0.67174 0.75167 0.46575 0.0
H6172 H 0.67834 0.74001 0.45712 0.0
H6173 H 0.66826 0.70533 0.46907 0.0
H6174 H 0.69134 0.67413 0.44713 0.0
H6175 H 0.68906 0.68723 0.45776 0.0
H6176 H 0.6987 0.72194 0.44688 0.0
C6177 C 0.67598 0.73764 0.46448 0.0
C6178 C 0.67507 0.70909 0.4644 0.0
C6179 C 0.67202 0.74426 0.46939 0.0
C6180 C 0.69141 0.68193 0.44404 0.0
C6181 C 0.68996 0.68937 0.45011 0.0
C6182 C 0.69207 0.71823 0.45173 0.0
C6183 C 0.67658 0.72796 0.46892 0.0
C6184 C 0.68034 0.72065 0.4635 0.0
C6185 C 0.68941 0.69932 0.44631 0.0
C6186 C 0.68667 0.70669 0.45253 0.0
H6187 H 0.66655 0.72921 0.49059 0.0
H6188 H 0.67373 0.71785 0.48215 0.0
H6189 H 0.69335 0.73397 0.4564 0.0
H6190 H 0.69289 0.69643 0.4226 0.0
H6191 H 0.69036 0.70942 0.43318 0.0
C6192 C 0.85209 0.57086 0.63303 0.0
C6193 C 0.84533 0.56465 0.62526 0.0
C6194 C 0.85723 0.58233 0.63215 0.0
C6195 C 0.86725 0.60483 0.61411 0.0
H6196 H 0.86843 0.62324 0.63549 0.0
C6197 C 0.8995 0.64945 0.61897 0.0
C6198 C 0.89603 0.65721 0.62277 0.0
C6199 C 0.89218 0.63844 0.61805 0.0
C6200 C 0.86806 0.61824 0.62939 0.0
H6201 H 0.83864 0.56561 0.61046 0.0
H6202 H 0.84765 0.58572 0.60891 0.0
H6203 H 0.85763 0.60342 0.63651 0.0
H6204 H 0.88205 0.65958 0.62827 0.0
H6205 H 0.86924 0.64037 0.62657 0.0
H6206 H 0.87784 0.61966 0.60706 0.0
C6207 C 0.84897 0.58167 0.61568 0.0
C6208 C 0.86198 0.60687 0.63003 0.0
C6209 C 0.84374 0.57019 0.6166 0.0
C6210 C 0.88495 0.65382 0.62523 0.0
C6211 C 0.87764 0.6428 0.62436 0.0
C6212 C 0.87342 0.61621 0.6135 0.0
C6213 C 0.85579 0.58786 0.62345 0.0
C6214 C 0.86162 0.60002 0.62245 0.0
C6215 C 0.88126 0.63494 0.62097 0.0
C6216 C 0.87399 0.62302 0.62118 0.0
H6217 H 0.8534 0.56683 0.63982 0.0
H6218 H 0.86252 0.58686 0.63823 0.0
H6219 H 0.86718 0.59975 0.60817 0.0
H6220 H 0.90798 0.65184 0.61697 0.0
H6221 H 0.89524 0.63258 0.61547 0.0
C6222 C 0.26437 0.93173 0.40639 0.0
C6223 C 0.26967 0.93843 0.39857 0.0
C6224 C 0.26636 0.92222 0.40921 0.0
C6225 C 0.27857 0.90278 0.40147 0.0
H6226 H 0.2838 0.89888 0.42922 0.0
C6227 C 0.30189 0.87556 0.41871 0.0
C6228 C 0.29826 0.86988 0.42748 0.0
C6229 C 0.29703 0.88272 0.41443 0.0
C6230 C 0.2822 0.89972 0.42145 0.0
H6231 H 0.28069 0.93998 0.3872 0.0
H6232 H 0.28438 0.92359 0.39226 0.0
H6233 H 0.2776 0.91342 0.42316 0.0
H6234 H 0.28616 0.86659 0.43824 0.0
H6235 H 0.27766 0.87896 0.43077 0.0
H6236 H 0.28347 0.88918 0.39981 0.0
C6237 C 0.27863 0.92562 0.3962 0.0
C6238 C 0.27861 0.90807 0.41796 0.0
C6239 C 0.27662 0.93511 0.39337 0.0
C6240 C 0.28929 0.87104 0.43159 0.0
C6241 C 0.28443 0.87815 0.42732 0.0
C6242 C 0.28219 0.89442 0.40496 0.0
C6243 C 0.27371 0.91917 0.40429 0.0
C6244 C 0.27682 0.90977 0.40793 0.0
C6245 C 0.28843 0.8843 0.41884 0.0
C6246 C 0.28411 0.89283 0.415 0.0
H6247 H 0.25902 0.93406 0.41059 0.0
H6248 H 0.26229 0.91735 0.41538 0.0
H6249 H 0.27714 0.90376 0.39369 0.0
H6250 H 0.30881 0.87487 0.4154 0.0
H6251 H 0.30034 0.88738 0.40792 0.0
C6252 C 0.25206 0.04381 0.66198 0.0
C6253 C 0.24544 0.04176 0.65315 0.0
C6254 C 0.26365 0.04926 0.66203 0.0
C6255 C 0.28531 0.0688 0.64759 0.0
H6256 H 0.30549 0.05732 0.66217 0.0
C6257 C 0.33196 0.08613 0.64141 0.0
C6258 C 0.33968 0.08692 0.64937 0.0
C6259 C 0.32055 0.08073 0.64239 0.0
C6260 C 0.29999 0.06075 0.65819 0.0
H6261 H 0.24574 0.04386 0.63749 0.0
H6262 H 0.26595 0.05343 0.6376 0.0
H6263 H 0.28536 0.04766 0.66305 0.0
H6264 H 0.34151 0.08268 0.66462 0.0
H6265 H 0.32149 0.07343 0.66644 0.0
H6266 H 0.2998 0.08196 0.64283 0.0
C6267 C 0.26218 0.05079 0.64446 0.0
C6268 C 0.28846 0.05518 0.65867 0.0
C6269 C 0.25064 0.04523 0.6444 0.0
C6270 C 0.33573 0.08215 0.65835 0.0
C6271 C 0.32427 0.07682 0.65937 0.0
C6272 C 0.2968 0.07443 0.6472 0.0
C6273 C 0.2688 0.05291 0.65327 0.0
C6274 C 0.28102 0.05907 0.65325 0.0
C6275 C 0.31653 0.07606 0.65139 0.0
C6276 C 0.3043 0.07038 0.65235 0.0
H6277 H 0.24826 0.04117 0.66882 0.0
H6278 H 0.26856 0.05082 0.66893 0.0
H6279 H 0.27976 0.07209 0.64348 0.0
H6280 H 0.33478 0.08954 0.63435 0.0
H6281 H 0.31489 0.08008 0.63602 0.0
C6282 C 0.23609 0.06959 0.88043 0.0
C6283 C 0.2466 0.06982 0.88409 0.0
C6284 C 0.23203 0.07726 0.8834 0.0
C6285 C 0.23534 0.0954 0.90385 0.0
H6286 H 0.21831 0.1083 0.88653 0.0
C6287 C 0.22084 0.12746 0.91779 0.0
C6288 C 0.20978 0.12628 0.91518 0.0
C6289 C 0.22579 0.12165 0.91301 0.0
C6290 C 0.22298 0.1047 0.89147 0.0
H6291 H 0.26116 0.07852 0.89364 0.0
H6292 H 0.25418 0.09199 0.89867 0.0
H6293 H 0.22613 0.09609 0.88007 0.0
H6294 H 0.19542 0.11851 0.90519 0.0
H6295 H 0.20403 0.10817 0.89686 0.0
H6296 H 0.23209 0.10377 0.91528 0.0
C6297 C 0.24901 0.08578 0.89358 0.0
C6298 C 0.22746 0.09771 0.88777 0.0
C6299 C 0.25307 0.07813 0.8906 0.0
C6300 C 0.20397 0.11961 0.90731 0.0
C6301 C 0.20892 0.1137 0.90255 0.0
C6302 C 0.23086 0.10234 0.90754 0.0
C6303 C 0.23837 0.08535 0.89014 0.0
C6304 C 0.23372 0.09298 0.89392 0.0
C6305 C 0.21979 0.1144 0.90555 0.0
C6306 C 0.22464 0.10713 0.90142 0.0
H6307 H 0.23094 0.0634 0.87531 0.0
H6308 H 0.22378 0.07664 0.88064 0.0
H6309 H 0.23989 0.09171 0.90885 0.0
H6310 H 0.22556 0.13267 0.92375 0.0
H6311 H 0.23427 0.12266 0.91534 0.0
C6312 C 0.73883 0.48383 0.65106 0.0
C6313 C 0.74398 0.48119 0.6436 0.0
C6314 C 0.72761 0.47768 0.65255 0.0
C6315 C 0.70471 0.45077 0.64686 0.0
H6316 H 0.68545 0.46587 0.65195 0.0
C6317 C 0.65706 0.43054 0.64094 0.0
C6318 C 0.65053 0.43212 0.64785 0.0
C6319 C 0.66859 0.43627 0.64149 0.0
C6320 C 0.69075 0.46152 0.65068 0.0
H6321 H 0.7413 0.47012 0.63173 0.0
H6322 H 0.72177 0.45945 0.63427 0.0
H6323 H 0.7054 0.47641 0.65088 0.0
H6324 H 0.6511 0.441 0.66077 0.0
H6325 H 0.67132 0.45117 0.66164 0.0
H6326 H 0.69004 0.43593 0.64642 0.0
C6327 C 0.72644 0.46612 0.63913 0.0
C6328 C 0.70219 0.46755 0.65007 0.0
C6329 C 0.73765 0.47225 0.63766 0.0
C6330 C 0.65586 0.43965 0.6553 0.0
C6331 C 0.66743 0.44546 0.6558 0.0
C6332 C 0.6933 0.44476 0.64743 0.0
C6333 C 0.72127 0.46874 0.64659 0.0
C6334 C 0.70927 0.46227 0.64798 0.0
C6335 C 0.67392 0.44381 0.6489 0.0
C6336 C 0.68616 0.45008 0.64918 0.0
H6337 H 0.74352 0.49059 0.65584 0.0
H6338 H 0.72392 0.47984 0.65844 0.0
H6339 H 0.70996 0.4464 0.64547 0.0
H6340 H 0.65324 0.42505 0.63495 0.0
H6341 H 0.67332 0.43498 0.63594 0.0
C6342 C 0.66536 0.44014 0.12401 0.0
C6343 C 0.66424 0.44593 0.13183 0.0
C6344 C 0.65851 0.429 0.12278 0.0
C6345 C 0.63176 0.40778 0.1301 0.0
H6346 H 0.64417 0.38695 0.12304 0.0
C6347 C 0.60948 0.3611 0.13617 0.0
C6348 C 0.6093 0.35402 0.12884 0.0
C6349 C 0.61592 0.37237 0.13555 0.0
C6350 C 0.64055 0.3927 0.12488 0.0
H6351 H 0.65523 0.44449 0.14464 0.0
H6352 H 0.64336 0.42513 0.14254 0.0
H6353 H 0.65601 0.40658 0.12387 0.0
H6354 H 0.61586 0.35329 0.11512 0.0
H6355 H 0.62731 0.37308 0.11413 0.0
H6356 H 0.61639 0.39389 0.13132 0.0
C6357 C 0.64935 0.42922 0.13722 0.0
C6358 C 0.64733 0.40394 0.12535 0.0
C6359 C 0.65617 0.44033 0.13843 0.0
C6360 C 0.61586 0.3585 0.12091 0.0
C6361 C 0.62239 0.36982 0.12034 0.0
C6362 C 0.62502 0.39656 0.12966 0.0
C6363 C 0.65039 0.42342 0.12935 0.0
C6364 C 0.64305 0.41159 0.12813 0.0
C6365 C 0.62244 0.37687 0.12764 0.0
C6366 C 0.62939 0.38887 0.12721 0.0
H6367 H 0.67142 0.44426 0.11874 0.0
H6368 H 0.65945 0.42482 0.11659 0.0
H6369 H 0.62813 0.41347 0.13203 0.0
H6370 H 0.60479 0.35792 0.14252 0.0
H6371 H 0.61596 0.37755 0.14141 0.0
C6372 C 0.30555 0.9879 0.86911 0.0
C6373 C 0.29966 0.99293 0.86285 0.0
C6374 C 0.31317 0.98416 0.86555 0.0
C6375 C 0.31949 0.9754 0.84255 0.0
H6376 H 0.34611 0.97545 0.85752 0.0
C6377 C 0.34938 0.95951 0.82635 0.0
C6378 C 0.35282 0.95212 0.83219 0.0
C6379 C 0.34421 0.96568 0.83033 0.0
C6380 C 0.33867 0.97533 0.85328 0.0
H6381 H 0.2976 0.99833 0.84794 0.0
H6382 H 0.31114 0.99219 0.84181 0.0
H6383 H 0.33479 0.98431 0.86391 0.0
H6384 H 0.35403 0.94585 0.84691 0.0
H6385 H 0.34498 0.95669 0.8539 0.0
H6386 H 0.3233 0.96639 0.83195 0.0
C6387 C 0.30967 0.99089 0.84946 0.0
C6388 C 0.33216 0.98039 0.85694 0.0
C6389 C 0.302 0.99457 0.85301 0.0
C6390 C 0.35152 0.95151 0.84222 0.0
C6391 C 0.34633 0.95771 0.84623 0.0
C6392 C 0.326 0.9704 0.83888 0.0
C6393 C 0.31517 0.9854 0.85563 0.0
C6394 C 0.32245 0.98046 0.85163 0.0
C6395 C 0.34234 0.96464 0.84026 0.0
C6396 C 0.33566 0.97027 0.84419 0.0
H6397 H 0.30412 0.98665 0.87677 0.0
H6398 H 0.31719 0.97994 0.87053 0.0
H6399 H 0.31195 0.97502 0.83834 0.0
H6400 H 0.35047 0.96035 0.81862 0.0
H6401 H 0.34149 0.97113 0.82557 0.0
C6402 C 0.19542 0.00229 0.36859 0.0
C6403 C 0.19712 0.99873 0.37814 0.0
C6404 C 0.18791 0.00745 0.36635 0.0
C6405 C 0.1644 0.01273 0.37532 0.0
H6406 H 0.17425 0.03761 0.35715 0.0
C6407 C 0.14219 0.04373 0.36631 0.0
C6408 C 0.14146 0.04687 0.35645 0.0
C6409 C 0.14817 0.03712 0.36944 0.0
C6410 C 0.17132 0.03062 0.36217 0.0
H6411 H 0.19203 0.99747 0.39282 0.0
H6412 H 0.17897 0.00668 0.38894 0.0
H6413 H 0.18619 0.02754 0.36174 0.0
H6414 H 0.14573 0.04481 0.34206 0.0
H6415 H 0.15616 0.03343 0.3475 0.0
H6416 H 0.14953 0.01603 0.37579 0.0
C6417 C 0.18336 0.00536 0.38315 0.0
C6418 C 0.17816 0.02481 0.36479 0.0
C6419 C 0.19085 1.0001 0.38537 0.0
C6420 C 0.14637 0.0428 0.34974 0.0
C6421 C 0.15235 0.03627 0.35286 0.0
C6422 C 0.15755 0.01862 0.37273 0.0
C6423 C 0.18197 0.0093 0.37363 0.0
C6424 C 0.17473 0.01567 0.37127 0.0
C6425 C 0.15355 0.03356 0.36276 0.0
C6426 C 0.16088 0.02753 0.366 0.0
H6427 H 0.19997 0.00115 0.36282 0.0
H6428 H 0.18684 0.01009 0.35889 0.0
H6429 H 0.16148 0.00571 0.38031 0.0
H6430 H 0.13851 0.04675 0.37166 0.0
H6431 H 0.14897 0.03517 0.37712 0.0
C6432 C 0.3733 0.18194 0.47785 0.0
C6433 C 0.37951 0.19264 0.48121 0.0
C6434 C 0.37564 0.17845 0.46924 0.0
C6435 C 0.39818 0.18449 0.4526 0.0
H6436 H 0.37443 0.16355 0.43646 0.0
C6437 C 0.40532 0.16631 0.41729 0.0
C6438 C 0.39983 0.15477 0.41658 0.0
C6439 C 0.40298 0.17195 0.42458 0.0
C6440 C 0.38116 0.16938 0.44091 0.0
H6441 H 0.39291 0.20817 0.47795 0.0
H6442 H 0.39683 0.20216 0.46276 0.0
H6443 H 0.36985 0.17179 0.44996 0.0
H6444 H 0.38789 0.14016 0.42331 0.0
H6445 H 0.38364 0.15 0.43573 0.0
H6446 H 0.40947 0.182 0.44346 0.0
C6447 C 0.39025 0.19639 0.4669 0.0
C6448 C 0.37854 0.17408 0.44868 0.0
C6449 C 0.38791 0.19989 0.47555 0.0
C6450 C 0.39205 0.14906 0.4234 0.0
C6451 C 0.38963 0.1547 0.43058 0.0
C6452 C 0.40079 0.17983 0.44475 0.0
C6453 C 0.38422 0.18557 0.46368 0.0
C6454 C 0.38702 0.18151 0.45478 0.0
C6455 C 0.39502 0.1662 0.43124 0.0
C6456 C 0.39231 0.17204 0.43896 0.0
H6457 H 0.36665 0.17617 0.48192 0.0
H6458 H 0.37089 0.17002 0.46711 0.0
H6459 H 0.40494 0.19008 0.45718 0.0
H6460 H 0.4113 0.171 0.41214 0.0
H6461 H 0.40724 0.18083 0.42489 0.0
C6462 C 0.57149 0.63209 0.24933 0.0
C6463 C 0.56311 0.6254 0.2553 0.0
C6464 C 0.57107 0.62967 0.23954 0.0
C6465 C 0.55152 0.61426 0.21948 0.0
H6466 H 0.57842 0.61695 0.20771 0.0
C6467 C 0.54961 0.5977 0.18155 0.0
C6468 C 0.55727 0.60451 0.17507 0.0
C6469 C 0.55086 0.60015 0.19138 0.0
C6470 C 0.57085 0.61626 0.21087 0.0
H6471 H 0.54785 0.61081 0.25566 0.0
H6472 H 0.54713 0.60658 0.23862 0.0
H6473 H 0.57945 0.62159 0.22475 0.0
H6474 H 0.57247 0.61904 0.17391 0.0
H6475 H 0.57467 0.62334 0.19116 0.0
H6476 H 0.54291 0.60893 0.20565 0.0
C6477 C 0.55392 0.61382 0.24146 0.0
C6478 C 0.57144 0.61893 0.22063 0.0
C6479 C 0.55433 0.61624 0.25124 0.0
C6480 C 0.56647 0.61359 0.17874 0.0
C6481 C 0.56772 0.61606 0.18861 0.0
C6482 C 0.55093 0.61159 0.20975 0.0
C6483 C 0.56228 0.6205 0.23548 0.0
C6484 C 0.56176 0.6179 0.22506 0.0
C6485 C 0.5598 0.60948 0.19501 0.0
C6486 C 0.56057 0.61248 0.20534 0.0
H6487 H 0.5783 0.63929 0.2522 0.0
H6488 H 0.57756 0.63508 0.23511 0.0
H6489 H 0.54393 0.61359 0.22259 0.0
H6490 H 0.54255 0.59052 0.17898 0.0
H6491 H 0.54475 0.59476 0.19615 0.0
C6492 C 0.11041 0.80335 0.99465 0.0
C6493 C 0.12013 0.81008 0.99998 0.0
C6494 C 0.10752 0.80667 0.98538 0.0
C6495 C 0.11304 0.83091 0.96843 0.0
H6496 H 0.1011 0.80823 0.94909 0.0
C6497 C 0.10697 0.83952 0.9268 0.0
C6498 C 0.09729 0.8321 0.92188 0.0
C6499 C 0.10956 0.83766 0.93664 0.0
C6500 C 0.10431 0.81465 0.95443 0.0
H6501 H 0.13436 0.82564 0.99979 0.0
H6502 H 0.12939 0.83138 0.98352 0.0
H6503 H 0.1061 0.80337 0.96555 0.0
H6504 H 0.08235 0.81741 0.92361 0.0
H6505 H 0.08686 0.81419 0.94068 0.0
H6506 H 0.11138 0.84221 0.95713 0.0
C6507 C 0.12391 0.82361 0.98657 0.0
C6508 C 0.10716 0.81186 0.96389 0.0
C6509 C 0.12678 0.82031 0.99589 0.0
C6510 C 0.09 0.82314 0.92713 0.0
C6511 C 0.09258 0.82128 0.93691 0.0
C6512 C 0.11023 0.83372 0.95891 0.0
C6513 C 0.1143 0.81676 0.98116 0.0
C6514 C 0.11147 0.81992 0.97104 0.0
C6515 C 0.10252 0.82835 0.94172 0.0
C6516 C 0.10573 0.82559 0.95183 0.0
H6517 H 0.105 0.79552 0.99767 0.0
H6518 H 0.09992 0.8013 0.98153 0.0
H6519 H 0.11626 0.83732 0.97377 0.0
H6520 H 0.11277 0.84647 0.92295 0.0
H6521 H 0.11729 0.84324 0.94015 0.0
C6522 C 0.91296 0.36887 0.73188 0.0
C6523 C 0.92041 0.37779 0.73732 0.0
C6524 C 0.91127 0.36994 0.72181 0.0
C6525 C 0.92332 0.38734 0.7003 0.0
H6526 H 0.89293 0.37431 0.68904 0.0
C6527 C 0.91195 0.38669 0.65869 0.0
C6528 C 0.90227 0.38858 0.65551 0.0
C6529 C 0.91457 0.38538 0.66861 0.0
C6530 C 0.90146 0.37808 0.69207 0.0
H6531 H 0.93201 0.39482 0.7364 0.0
H6532 H 0.929 0.39674 0.71883 0.0
H6533 H 0.89683 0.37206 0.70638 0.0
H6534 H 0.88773 0.39052 0.66031 0.0
H6535 H 0.89243 0.38855 0.67753 0.0
H6536 H 0.92787 0.39361 0.68598 0.0
C6537 C 0.92459 0.38884 0.72234 0.0
C6538 C 0.90372 0.37666 0.70201 0.0
C6539 C 0.92631 0.38775 0.73241 0.0
C6540 C 0.89533 0.38923 0.66249 0.0
C6541 C 0.89795 0.38794 0.67238 0.0
C6542 C 0.92105 0.38877 0.69034 0.0
C6543 C 0.91696 0.37998 0.71692 0.0
C6544 C 0.91467 0.3813 0.70627 0.0
C6545 C 0.90754 0.38591 0.67557 0.0
C6546 C 0.91007 0.38421 0.68611 0.0
H6547 H 0.90843 0.36102 0.73542 0.0
H6548 H 0.9055 0.36288 0.71785 0.0
H6549 H 0.93186 0.39094 0.70332 0.0
H6550 H 0.91752 0.38623 0.65351 0.0
H6551 H 0.92198 0.38375 0.6708 0.0
C6552 C 0.41063 0.85965 0.03488 0.0
C6553 C 0.40475 0.86433 0.02828 0.0
C6554 C 0.41015 0.86019 0.04489 0.0
C6555 C 0.4032 0.87494 0.06376 0.0
H6556 H 0.39914 0.84816 0.07903 0.0
C6557 C 0.39176 0.86889 0.10409 0.0
C6558 C 0.39626 0.86251 0.11022 0.0
C6559 C 0.39353 0.87008 0.09415 0.0
C6560 C 0.40045 0.85578 0.07492 0.0
H6561 H 0.39381 0.87337 0.02709 0.0
H6562 H 0.39301 0.87434 0.04458 0.0
H6563 H 0.40085 0.84838 0.06165 0.0
H6564 H 0.40676 0.85307 0.11094 0.0
H6565 H 0.41003 0.85532 0.09374 0.0
H6566 H 0.40277 0.88232 0.0771 0.0
C6567 C 0.39809 0.87034 0.04199 0.0
C6568 C 0.40141 0.85589 0.06494 0.0
C6569 C 0.39855 0.86978 0.03196 0.0
C6570 C 0.40302 0.85786 0.10635 0.0
C6571 C 0.40484 0.85911 0.09647 0.0
C6572 C 0.40228 0.87484 0.0738 0.0
C6573 C 0.40379 0.86544 0.04857 0.0
C6574 C 0.40283 0.86546 0.05922 0.0
C6575 C 0.39988 0.86498 0.09019 0.0
C6576 C 0.40093 0.86526 0.07951 0.0
H6577 H 0.41567 0.85559 0.03232 0.0
H6578 H 0.4148 0.8565 0.04977 0.0
H6579 H 0.40438 0.88248 0.05957 0.0
H6580 H 0.38649 0.87253 0.10689 0.0
H6581 H 0.38954 0.87462 0.08952 0.0
C6582 C 0.97284 0.63492 0.80295 0.0
C6583 C 0.9698 0.62398 0.80008 0.0
C6584 C 0.96788 0.63732 0.81062 0.0
C6585 C 0.95195 0.62448 0.83217 0.0
H6586 H 0.94661 0.65159 0.8312 0.0
C6587 C 0.93097 0.6361 0.86278 0.0
C6588 C 0.93662 0.64687 0.86619 0.0
C6589 C 0.93377 0.63296 0.85418 0.0
C6590 C 0.94807 0.644 0.83159 0.0
H6591 H 0.95901 0.60699 0.80298 0.0
H6592 H 0.95023 0.61117 0.81629 0.0
H6593 H 0.95389 0.64667 0.81731 0.0
H6594 H 0.94925 0.66292 0.863 0.0
H6595 H 0.95407 0.6575 0.84798 0.0
H6596 H 0.94611 0.62185 0.84648 0.0
C6597 C 0.95662 0.6179 0.81273 0.0
C6598 C 0.95231 0.64119 0.82364 0.0
C6599 C 0.96165 0.61549 0.80508 0.0
C6600 C 0.9448 0.65455 0.86059 0.0
C6601 C 0.9475 0.65145 0.85196 0.0
C6602 C 0.94764 0.62725 0.8401 0.0
C6603 C 0.95967 0.62885 0.81561 0.0
C6604 C 0.95449 0.63148 0.82387 0.0
C6605 C 0.94217 0.64057 0.84873 0.0
C6606 C 0.94581 0.63713 0.83996 0.0
H6607 H 0.97922 0.64165 0.79936 0.0
H6608 H 0.97065 0.64583 0.81275 0.0
H6609 H 0.95364 0.617 0.83269 0.0
H6610 H 0.92468 0.62999 0.86697 0.0
H6611 H 0.92944 0.62454 0.85184 0.0
C6612 C 0.06992 0.14207 0.52934 0.0
C6613 C 0.07402 0.13657 0.52319 0.0
C6614 C 0.07148 0.14108 0.53945 0.0
C6615 C 0.09002 0.13471 0.55833 0.0
H6616 H 0.06728 0.13284 0.57543 0.0
C6617 C 0.09981 0.14457 0.59894 0.0
C6618 C 0.09218 0.13811 0.60559 0.0
C6619 C 0.09733 0.1431 0.58896 0.0
C6620 C 0.07367 0.13323 0.57075 0.0
H6621 H 0.08295 0.12567 0.52289 0.0
H6622 H 0.08551 0.1238 0.54047 0.0
H6623 H 0.06307 0.13258 0.55784 0.0
H6624 H 0.07607 0.12484 0.60699 0.0
H6625 H 0.07173 0.12221 0.58947 0.0
H6626 H 0.10064 0.13539 0.57122 0.0
C6627 C 0.08116 0.12895 0.53748 0.0
C6628 C 0.0713 0.13321 0.56068 0.0
C6629 C 0.07958 0.12993 0.5274 0.0
C6630 C 0.08213 0.12991 0.60204 0.0
C6631 C 0.07961 0.12848 0.59202 0.0
C6632 C 0.0924 0.13477 0.56839 0.0
C6633 C 0.07722 0.13459 0.54363 0.0
C6634 C 0.07949 0.13406 0.55435 0.0
C6635 C 0.08714 0.13514 0.58537 0.0
C6636 C 0.0843 0.13417 0.57472 0.0
H6637 H 0.06551 0.14716 0.52634 0.0
H6638 H 0.06844 0.14561 0.54398 0.0
H6639 H 0.09656 0.13547 0.55367 0.0
H6640 H 0.10767 0.15089 0.60147 0.0
H6641 H 0.10328 0.14844 0.58405 0.0
C6642 C 0.55607 0.36757 0.29173 0.0
C6643 C 0.55343 0.37653 0.28806 0.0
C6644 C 0.56148 0.36787 0.30095 0.0
C6645 C 0.56814 0.38155 0.32459 0.0
H6646 H 0.59258 0.37146 0.32634 0.0
C6647 C 0.59845 0.38612 0.35916 0.0
C6648 C 0.60193 0.37734 0.36154 0.0
C6649 C 0.59208 0.38622 0.35047 0.0
C6650 C 0.58569 0.37418 0.32603 0.0
H6651 H 0.55407 0.39271 0.29139 0.0
H6652 H 0.56351 0.39322 0.30759 0.0
H6653 H 0.5822 0.37126 0.31081 0.0
H6654 H 0.60133 0.36171 0.35659 0.0
H6655 H 0.59 0.3617 0.34168 0.0
H6656 H 0.57165 0.38441 0.33988 0.0
C6657 C 0.56136 0.38594 0.30329 0.0
C6658 C 0.57975 0.37407 0.31711 0.0
C6659 C 0.55595 0.38565 0.29401 0.0
C6660 C 0.59869 0.36855 0.35509 0.0
C6661 C 0.59232 0.36862 0.34645 0.0
C6662 C 0.57409 0.38161 0.33357 0.0
C6663 C 0.56437 0.37713 0.30677 0.0
C6664 C 0.57083 0.37765 0.31629 0.0
C6665 C 0.58907 0.37753 0.34394 0.0
C6666 C 0.58287 0.37782 0.33441 0.0
H6667 H 0.55401 0.3603 0.28744 0.0
H6668 H 0.56344 0.36084 0.30351 0.0
H6669 H 0.56128 0.3843 0.3242 0.0
H6670 H 0.60071 0.39298 0.364 0.0
H6671 H 0.58977 0.39323 0.34875 0.0
C6672 C 0.47303 0.40605 0.21565 0.0
C6673 C 0.48213 0.41271 0.22169 0.0
C6674 C 0.46648 0.41064 0.20989 0.0
C6675 C 0.45912 0.43526 0.20641 0.0
H6676 H 0.45158 0.42544 0.17984 0.0
C6677 C 0.42938 0.4483 0.17915 0.0
C6678 C 0.43245 0.4506 0.16951 0.0
C6679 C 0.43533 0.44394 0.18596 0.0
C6680 C 0.45366 0.42833 0.18722 0.0
H6681 H 0.4913 0.42942 0.22656 0.0
H6682 H 0.47983 0.43746 0.21649 0.0
H6683 H 0.462 0.41733 0.19097 0.0
H6684 H 0.44454 0.45068 0.15964 0.0
H6685 H 0.45482 0.44309 0.17145 0.0
H6686 H 0.45092 0.44643 0.20252 0.0
C6687 C 0.47772 0.42865 0.21628 0.0
C6688 C 0.45953 0.42357 0.19364 0.0
C6689 C 0.48429 0.42404 0.22206 0.0
C6690 C 0.44177 0.44874 0.16693 0.0
C6691 C 0.44768 0.4444 0.17371 0.0
C6692 C 0.4532 0.44 0.19996 0.0
C6693 C 0.46884 0.42203 0.21001 0.0
C6694 C 0.46236 0.42699 0.20331 0.0
C6695 C 0.44445 0.4418 0.18327 0.0
C6696 C 0.45047 0.43664 0.19027 0.0
H6697 H 0.47099 0.39726 0.21534 0.0
H6698 H 0.45956 0.40527 0.2053 0.0
H6699 H 0.46111 0.43802 0.21382 0.0
H6700 H 0.42221 0.44959 0.18135 0.0
H6701 H 0.43259 0.44197 0.19325 0.0
C6702 C 0.40807 0.77832 0.97547 0.0
C6703 C 0.40911 0.7873 0.96904 0.0
C6704 C 0.40876 0.76873 0.97224 0.0
C6705 C 0.40605 0.75281 0.95039 0.0
H6706 H 0.42466 0.74034 0.96612 0.0
C6707 C 0.41801 0.71796 0.93704 0.0
C6708 C 0.41938 0.71027 0.94399 0.0
C6709 C 0.41591 0.727 0.9399 0.0
C6710 C 0.41927 0.74357 0.9617 0.0
H6711 H 0.41166 0.79313 0.95408 0.0
H6712 H 0.41269 0.7763 0.94843 0.0
H6713 H 0.42264 0.75674 0.97146 0.0
H6714 H 0.41898 0.70562 0.95928 0.0
H6715 H 0.415 0.72113 0.96426 0.0
H6716 H 0.4026 0.73957 0.94067 0.0
C6717 C 0.41128 0.7767 0.95598 0.0
C6718 C 0.41815 0.75302 0.96476 0.0
C6719 C 0.41067 0.78634 0.95923 0.0
C6720 C 0.41812 0.71151 0.95378 0.0
C6721 C 0.41591 0.72045 0.95663 0.0
C6722 C 0.4071 0.74328 0.94736 0.0
C6723 C 0.41043 0.76783 0.96247 0.0
C6724 C 0.41153 0.75775 0.95915 0.0
C6725 C 0.41504 0.72847 0.94977 0.0
C6726 C 0.41372 0.73852 0.95299 0.0
H6727 H 0.40662 0.77865 0.98303 0.0
H6728 H 0.4079 0.76197 0.97739 0.0
H6729 H 0.40081 0.75621 0.94596 0.0
H6730 H 0.41904 0.71726 0.92944 0.0
H6731 H 0.4154 0.73303 0.93442 0.0
C6732 C 0.04101 0.59681 0.72751 0.0
C6733 C 0.03003 0.59146 0.73031 0.0
C6734 C 0.04668 0.59083 0.72399 0.0
C6735 C 0.04098 0.56434 0.71228 0.0
H6736 H 0.0732 0.57419 0.71496 0.0
C6737 C 0.06506 0.55232 0.68517 0.0
C6738 C 0.07495 0.55082 0.68831 0.0
C6739 C 0.05954 0.55601 0.69151 0.0
C6740 C 0.06418 0.5712 0.71424 0.0
H6741 H 0.01666 0.57545 0.732 0.0
H6742 H 0.02668 0.56497 0.7262 0.0
H6743 H 0.06393 0.58283 0.72437 0.0
H6744 H 0.08659 0.5517 0.70074 0.0
H6745 H 0.07679 0.55798 0.71194 0.0
H6746 H 0.04121 0.55263 0.70224 0.0
C6747 C 0.03081 0.57386 0.72649 0.0
C6748 C 0.05886 0.57627 0.71955 0.0
C6749 C 0.0251 0.57987 0.72996 0.0
C6750 C 0.07899 0.55277 0.69809 0.0
C6751 C 0.07343 0.55647 0.70447 0.0
C6752 C 0.04629 0.55923 0.70703 0.0
C6753 C 0.04158 0.57928 0.72324 0.0
C6754 C 0.0472 0.57308 0.71848 0.0
C6755 C 0.06367 0.55823 0.70123 0.0
C6756 C 0.05798 0.56277 0.70774 0.0
H6757 H 0.04517 0.6057 0.72784 0.0
H6758 H 0.05491 0.59534 0.7215 0.0
H6759 H 0.03202 0.56168 0.71117 0.0
H6760 H 0.06158 0.55072 0.67774 0.0
H6761 H 0.05216 0.55739 0.68867 0.0
C6762 C 0.0718 0.22378 0.4564 0.0
C6763 C 0.06924 0.21417 0.4511 0.0
C6764 C 0.07198 0.23355 0.45175 0.0
C6765 C 0.07446 0.24828 0.42799 0.0
H6766 H 0.06058 0.26496 0.44036 0.0
C6767 C 0.06788 0.28671 0.40986 0.0
C6768 C 0.069 0.29529 0.41601 0.0
C6769 C 0.06841 0.27681 0.41373 0.0
C6770 C 0.06463 0.2605 0.43686 0.0
H6771 H 0.06493 0.20741 0.43665 0.0
H6772 H 0.06533 0.22456 0.4285 0.0
H6773 H 0.06043 0.24771 0.44784 0.0
H6774 H 0.07227 0.30053 0.43094 0.0
H6775 H 0.07342 0.28344 0.43767 0.0
H6776 H 0.07873 0.26117 0.41703 0.0
C6777 C 0.06727 0.22449 0.43628 0.0
C6778 C 0.06452 0.25058 0.44115 0.0
C6779 C 0.06704 0.21467 0.44096 0.0
C6780 C 0.07117 0.29398 0.42604 0.0
C6781 C 0.07177 0.28416 0.4299 0.0
C6782 C 0.07462 0.25827 0.42371 0.0
C6783 C 0.06964 0.23402 0.44164 0.0
C6784 C 0.06951 0.24439 0.43682 0.0
C6785 C 0.07012 0.27533 0.42383 0.0
C6786 C 0.0698 0.26456 0.42815 0.0
H6787 H 0.0738 0.22379 0.46418 0.0
H6788 H 0.07405 0.2408 0.45607 0.0
H6789 H 0.07844 0.24373 0.42451 0.0
H6790 H 0.06614 0.28748 0.4021 0.0
H6791 H 0.06705 0.27017 0.40885 0.0
C6792 C 0.48621 0.63644 0.31779 0.0
C6793 C 0.4913 0.62897 0.32073 0.0
C6794 C 0.47638 0.63563 0.32168 0.0
C6795 C 0.45196 0.61561 0.33315 0.0
H6796 H 0.44674 0.64171 0.33884 0.0
C6797 C 0.40999 0.61248 0.34649 0.0
C6798 C 0.40548 0.61979 0.34186 0.0
C6799 C 0.42107 0.61396 0.34541 0.0
C6800 C 0.44804 0.63434 0.33724 0.0
H6801 H 0.49007 0.61485 0.33018 0.0
H6802 H 0.47292 0.61349 0.33704 0.0
H6803 H 0.46499 0.64361 0.33407 0.0
H6804 H 0.40925 0.63472 0.33292 0.0
H6805 H 0.42841 0.63718 0.3309 0.0
H6806 H 0.43495 0.60636 0.33606 0.0
C6807 C 0.47653 0.61994 0.33166 0.0
C6808 C 0.4585 0.63543 0.3345 0.0
C6809 C 0.48641 0.62078 0.3278 0.0
C6810 C 0.41242 0.62885 0.33647 0.0
C6811 C 0.42346 0.63033 0.33541 0.0
C6812 C 0.44149 0.61452 0.33586 0.0
C6813 C 0.47135 0.62731 0.3286 0.0
C6814 C 0.46053 0.62609 0.33228 0.0
C6815 C 0.42788 0.62281 0.33971 0.0
C6816 C 0.43934 0.62389 0.33778 0.0
H6817 H 0.48983 0.64292 0.31244 0.0
H6818 H 0.47256 0.64138 0.31908 0.0
H6819 H 0.4532 0.60826 0.33137 0.0
H6820 H 0.40485 0.60539 0.35065 0.0
H6821 H 0.42425 0.60808 0.34893 0.0
C6822 C 0.16306 0.75462 0.08121 0.0
C6823 C 0.15183 0.75254 0.07834 0.0
C6824 C 0.16637 0.74597 0.08441 0.0
C6825 C 0.15472 0.7179 0.09523 0.0
H6826 H 0.18325 0.71703 0.09046 0.0
C6827 C 0.17225 0.68968 0.11795 0.0
C6828 C 0.17719 0.68377 0.11315 0.0
C6829 C 0.16955 0.69801 0.1131 0.0
C6830 C 0.17521 0.7171 0.09179 0.0
H6831 H 0.13539 0.73966 0.07603 0.0
H6832 H 0.14116 0.72458 0.08151 0.0
H6833 H 0.17764 0.73142 0.08256 0.0
H6834 H 0.18347 0.68222 0.09954 0.0
H6835 H 0.17869 0.69685 0.09098 0.0
H6836 H 0.15221 0.70359 0.10437 0.0
C6837 C 0.14738 0.73293 0.08153 0.0
C6838 C 0.17205 0.72541 0.08734 0.0
C6839 C 0.14407 0.74157 0.07837 0.0
C6840 C 0.17969 0.68664 0.10343 0.0
C6841 C 0.17696 0.69502 0.09854 0.0
C6842 C 0.15788 0.70964 0.09967 0.0
C6843 C 0.15853 0.73503 0.08478 0.0
C6844 C 0.16178 0.72595 0.08907 0.0
C6845 C 0.17169 0.70068 0.10329 0.0
C6846 C 0.16822 0.7092 0.0981 0.0
H6847 H 0.16923 0.76299 0.08135 0.0
H6848 H 0.175 0.74791 0.08695 0.0
H6849 H 0.14683 0.71812 0.09684 0.0
H6850 H 0.17048 0.68787 0.12552 0.0
H6851 H 0.16577 0.70238 0.11706 0.0
C6852 C 0.00561 0.38044 0.81515 0.0
C6853 C 0.00446 0.3879 0.80782 0.0
C6854 C 0.0161 0.38189 0.81968 0.0
C6855 C 0.046 0.39533 0.81548 0.0
H6856 H 0.05071 0.39026 0.84314 0.0
C6857 C 0.09007 0.40699 0.83357 0.0
C6858 C 0.09205 0.39933 0.8402 0.0
C6859 C 0.07921 0.40574 0.83036 0.0
C6860 C 0.0495 0.39161 0.83539 0.0
H6861 H 0.0134 0.403 0.79985 0.0
H6862 H 0.03164 0.40554 0.80773 0.0
H6863 H 0.03202 0.38777 0.8361 0.0
H6864 H 0.08419 0.38459 0.84898 0.0
H6865 H 0.0651 0.38235 0.84331 0.0
H6866 H 0.06338 0.39911 0.8147 0.0
C6867 C 0.02447 0.39843 0.80984 0.0
C6868 C 0.0388 0.39018 0.83136 0.0
C6869 C 0.01401 0.39698 0.80531 0.0
C6870 C 0.0829 0.39064 0.84389 0.0
C6871 C 0.07199 0.38936 0.84064 0.0
C6872 C 0.05664 0.39675 0.81949 0.0
C6873 C 0.02568 0.39083 0.81699 0.0
C6874 C 0.03695 0.39212 0.82136 0.0
C6875 C 0.07004 0.39678 0.83367 0.0
C6876 C 0.05857 0.39501 0.82951 0.0
H6877 H 0.99844 0.3733 0.81719 0.0
H6878 H 0.01675 0.37583 0.82509 0.0
H6879 H 0.04483 0.39664 0.80772 0.0
H6880 H 0.09695 0.41391 0.83076 0.0
H6881 H 0.07801 0.41177 0.82519 0.0
C6882 C 0.33477 0.26457 0.53298 0.0
C6883 C 0.34498 0.26411 0.53671 0.0
C6884 C 0.33066 0.27175 0.53682 0.0
C6885 C 0.33349 0.28868 0.55837 0.0
H6886 H 0.31916 0.30373 0.54042 0.0
C6887 C 0.32177 0.32507 0.56897 0.0
C6888 C 0.3118 0.3255 0.56454 0.0
C6889 C 0.32559 0.31704 0.56633 0.0
C6890 C 0.32301 0.29949 0.54557 0.0
H6891 H 0.35887 0.27092 0.54742 0.0
H6892 H 0.35176 0.28353 0.55407 0.0
H6893 H 0.32636 0.29102 0.53425 0.0
H6894 H 0.29763 0.31734 0.55444 0.0
H6895 H 0.3042 0.30338 0.54992 0.0
H6896 H 0.33021 0.29733 0.56968 0.0
C6897 C 0.34683 0.2782 0.54827 0.0
C6898 C 0.32714 0.29218 0.54202 0.0
C6899 C 0.35093 0.27097 0.54444 0.0
C6900 C 0.30545 0.31737 0.55784 0.0
C6901 C 0.30924 0.30939 0.55522 0.0
C6902 C 0.32937 0.29604 0.56193 0.0
C6903 C 0.33666 0.27872 0.54448 0.0
C6904 C 0.33238 0.28661 0.54836 0.0
C6905 C 0.3195 0.30929 0.55922 0.0
C6906 C 0.32401 0.30149 0.55557 0.0
H6907 H 0.32986 0.25926 0.52715 0.0
H6908 H 0.3227 0.27176 0.53384 0.0
H6909 H 0.33737 0.28446 0.56349 0.0
H6910 H 0.32687 0.33124 0.57412 0.0
H6911 H 0.33354 0.31722 0.56954 0.0
C6912 C 0.14482 0.44131 0.3993 0.0
C6913 C 0.15173 0.44728 0.39197 0.0
C6914 C 0.13999 0.42979 0.39927 0.0
C6915 C 0.13151 0.40667 0.38255 0.0
H6916 H 0.12736 0.38883 0.40632 0.0
C6917 C 0.10827 0.35957 0.38164 0.0
C6918 C 0.10008 0.35504 0.38834 0.0
C6919 C 0.11622 0.37032 0.38263 0.0
C6920 C 0.12842 0.39371 0.39962 0.0
H6921 H 0.15913 0.44576 0.37894 0.0
H6922 H 0.15083 0.42564 0.37897 0.0
H6923 H 0.13819 0.40869 0.40697 0.0
H6924 H 0.09406 0.35813 0.40157 0.0
H6925 H 0.10789 0.37686 0.40332 0.0
H6926 H 0.12155 0.39179 0.37522 0.0
C6927 C 0.14906 0.42989 0.3847 0.0
C6928 C 0.13462 0.40508 0.39999 0.0
C6929 C 0.15391 0.44143 0.38474 0.0
C6930 C 0.10036 0.36131 0.39635 0.0
C6931 C 0.10829 0.37207 0.39734 0.0
C6932 C 0.12532 0.39532 0.38218 0.0
C6933 C 0.14193 0.42394 0.39189 0.0
C6934 C 0.1361 0.41173 0.39147 0.0
C6935 C 0.11613 0.37681 0.39036 0.0
C6936 C 0.12357 0.38871 0.39072 0.0
H6937 H 0.14308 0.44556 0.40505 0.0
H6938 H 0.13446 0.42548 0.40487 0.0
H6939 H 0.13233 0.41155 0.37586 0.0
H6940 H 0.10835 0.35489 0.37545 0.0
H6941 H 0.12227 0.37364 0.37723 0.0
C6942 C 0.72002 0.0635 0.62484 0.0
C6943 C 0.72857 0.06251 0.6313 0.0
C6944 C 0.71825 0.07337 0.62395 0.0
C6945 C 0.7237 0.09892 0.63712 0.0
H6946 H 0.71561 0.10948 0.61198 0.0
C6947 C 0.7224 0.14231 0.63111 0.0
C6948 C 0.71382 0.14345 0.62479 0.0
C6949 C 0.72384 0.13228 0.63204 0.0
C6950 C 0.71771 0.10657 0.61907 0.0
H6951 H 0.74207 0.07124 0.64181 0.0
H6952 H 0.73914 0.08854 0.64011 0.0
H6953 H 0.71923 0.09255 0.61313 0.0
H6954 H 0.6999 0.13484 0.6146 0.0
H6955 H 0.70233 0.11725 0.61633 0.0
H6956 H 0.72224 0.11297 0.64305 0.0
C6957 C 0.73368 0.08161 0.63583 0.0
C6958 C 0.71981 0.09687 0.61974 0.0
C6959 C 0.73546 0.07173 0.63671 0.0
C6960 C 0.70656 0.13423 0.61957 0.0
C6961 C 0.70803 0.12419 0.62048 0.0
C6962 C 0.72162 0.10863 0.63645 0.0
C6963 C 0.725 0.08253 0.6295 0.0
C6964 C 0.72285 0.09292 0.62877 0.0
C6965 C 0.71675 0.12312 0.62668 0.0
C6966 C 0.71862 0.11259 0.62742 0.0
H6967 H 0.71465 0.05662 0.62046 0.0
H6968 H 0.71143 0.07373 0.61906 0.0
H6969 H 0.72581 0.09603 0.64421 0.0
H6970 H 0.72806 0.14921 0.63532 0.0
H6971 H 0.7307 0.1318 0.63682 0.0
C6972 C 0.73311 0.98505 0.39972 0.0
C6973 C 0.74018 0.98676 0.39214 0.0
C6974 C 0.72204 0.97752 0.39875 0.0
C6975 C 0.70381 0.95318 0.38466 0.0
H6976 H 0.67976 0.95908 0.39454 0.0
C6977 C 0.65793 0.92522 0.37596 0.0
C6978 C 0.65089 0.92227 0.38366 0.0
C6979 C 0.6686 0.93347 0.37705 0.0
C6980 C 0.68641 0.95728 0.39182 0.0
H6981 H 0.74102 0.98225 0.37747 0.0
H6982 H 0.72174 0.96922 0.37574 0.0
H6983 H 0.69882 0.97283 0.39631 0.0
H6984 H 0.64943 0.92587 0.39847 0.0
H6985 H 0.66816 0.94026 0.40042 0.0
H6986 H 0.69144 0.93767 0.38015 0.0
C6987 C 0.7248 0.97348 0.38253 0.0
C6988 C 0.69733 0.96515 0.39285 0.0
C6989 C 0.73586 0.98096 0.38351 0.0
C6990 C 0.65469 0.92792 0.39243 0.0
C6991 C 0.66537 0.93621 0.39351 0.0
C6992 C 0.69292 0.94535 0.38362 0.0
C6993 C 0.71778 0.97156 0.39017 0.0
C6994 C 0.70616 0.96321 0.38923 0.0
C6995 C 0.6725 0.93898 0.38587 0.0
C6996 C 0.68408 0.94732 0.38714 0.0
H6997 H 0.73623 0.98932 0.40649 0.0
H6998 H 0.71691 0.97616 0.40482 0.0
H6999 H 0.71043 0.9513 0.38198 0.0
H7000 H 0.65533 0.92095 0.36914 0.0
H7001 H 0.67382 0.9355 0.37098 0.0
C7002 C 0.75492 0.92345 0.12207 0.0
C7003 C 0.75382 0.93184 0.11578 0.0
C7004 C 0.76009 0.91665 0.11919 0.0
C7005 C 0.7796 0.91577 0.10151 0.0
H7006 H 0.76964 0.8849 0.10952 0.0
C7007 C 0.79939 0.88707 0.08817 0.0
C7008 C 0.80209 0.88024 0.09529 0.0
C7009 C 0.79269 0.89271 0.09022 0.0
C7010 C 0.77256 0.89353 0.10727 0.0
H7011 H 0.75692 0.93934 0.1014 0.0
H7012 H 0.76578 0.92742 0.09633 0.0
H7013 H 0.75945 0.89595 0.1139 0.0
H7014 H 0.79947 0.87365 0.11001 0.0
H7015 H 0.78783 0.88353 0.1136 0.0
H7016 H 0.79271 0.91335 0.0949 0.0
C7017 C 0.76291 0.92625 0.10358 0.0
C7018 C 0.76674 0.89988 0.10981 0.0
C7019 C 0.7578 0.93308 0.10648 0.0
C7020 C 0.79762 0.87892 0.10439 0.0
C7021 C 0.79087 0.88451 0.10642 0.0
C7022 C 0.78538 0.90941 0.09894 0.0
C7023 C 0.76425 0.91802 0.10993 0.0
C7024 C 0.77022 0.91111 0.107 0.0
C7025 C 0.78847 0.89162 0.09942 0.0
C7026 C 0.78198 0.89822 0.10183 0.0
H7027 H 0.75207 0.92235 0.12933 0.0
H7028 H 0.7611 0.91052 0.12434 0.0
H7029 H 0.78268 0.92442 0.09937 0.0
H7030 H 0.80277 0.88835 0.08111 0.0
H7031 H 0.79089 0.89802 0.08462 0.0
C7032 C 0.25347 0.53946 0.36677 0.0
C7033 C 0.25072 0.53215 0.37484 0.0
C7034 C 0.26461 0.54577 0.36514 0.0
C7035 C 0.29352 0.54764 0.372 0.0
H7036 H 0.30159 0.57819 0.36346 0.0
C7037 C 0.33873 0.57995 0.37489 0.0
C7038 C 0.34219 0.58778 0.36726 0.0
C7039 C 0.32766 0.57249 0.37495 0.0
C7040 C 0.29946 0.56963 0.36571 0.0
H7041 H 0.25753 0.52584 0.38757 0.0
H7042 H 0.27694 0.53692 0.3848 0.0
H7043 H 0.28209 0.56659 0.3653 0.0
H7044 H 0.3368 0.59377 0.3536 0.0
H7045 H 0.31745 0.58068 0.35367 0.0
H7046 H 0.31096 0.5508 0.37262 0.0
C7047 C 0.27051 0.53761 0.3796 0.0
C7048 C 0.28826 0.56297 0.36676 0.0
C7049 C 0.25937 0.53127 0.38121 0.0
C7050 C 0.3344 0.58778 0.35954 0.0
C7051 C 0.3233 0.58036 0.35964 0.0
C7052 C 0.30472 0.55432 0.37099 0.0
C7053 C 0.27328 0.54496 0.37155 0.0
C7054 C 0.28515 0.55191 0.37 0.0
C7055 C 0.31977 0.57274 0.36741 0.0
C7056 C 0.30783 0.56542 0.36791 0.0
H7057 H 0.24699 0.54022 0.36166 0.0
H7058 H 0.26644 0.55122 0.35878 0.0
H7059 H 0.29141 0.53911 0.37433 0.0
H7060 H 0.34456 0.5797 0.3809 0.0
H7061 H 0.32519 0.56678 0.38108 0.0
C7062 C 0.325 0.5718 0.91132 0.0
C7063 C 0.33004 0.56421 0.91036 0.0
C7064 C 0.3315 0.58288 0.91325 0.0
C7065 C 0.36021 0.60165 0.92176 0.0
H7066 H 0.3518 0.62416 0.90806 0.0
C7067 C 0.38861 0.64751 0.92523 0.0
C7068 C 0.39047 0.65363 0.91642 0.0
C7069 C 0.37983 0.63719 0.92575 0.0
C7070 C 0.35429 0.61799 0.91193 0.0
H7071 H 0.34591 0.56233 0.91094 0.0
H7072 H 0.3572 0.58163 0.9139 0.0
H7073 H 0.33964 0.60481 0.90639 0.0
H7074 H 0.38401 0.65409 0.90147 0.0
H7075 H 0.36899 0.63603 0.90226 0.0
H7076 H 0.37516 0.61475 0.92684 0.0
C7077 C 0.34822 0.57903 0.91335 0.0
C7078 C 0.34724 0.60687 0.91107 0.0
C7079 C 0.34173 0.56796 0.91148 0.0
C7080 C 0.38292 0.64951 0.90833 0.0
C7081 C 0.3742 0.63918 0.90882 0.0
C7082 C 0.3673 0.61275 0.92256 0.0
C7083 C 0.3432 0.58666 0.91422 0.0
C7084 C 0.35021 0.59854 0.91582 0.0
C7085 C 0.37274 0.63272 0.91746 0.0
C7086 C 0.36454 0.62107 0.91751 0.0
H7087 H 0.31603 0.56925 0.91041 0.0
H7088 H 0.32733 0.58848 0.91398 0.0
H7089 H 0.36268 0.59549 0.92568 0.0
H7090 H 0.39429 0.6504 0.9316 0.0
H7091 H 0.37882 0.63256 0.93258 0.0
C7092 C 0.69024 0.00476 0.14462 0.0
C7093 C 0.69584 0.9997 0.15118 0.0
C7094 C 0.68169 0.00758 0.1476 0.0
C7095 C 0.66211 0.00189 0.16715 0.0
H7096 H 0.66037 0.02981 0.15847 0.0
C7097 C 0.63512 0.0196 0.18563 0.0
C7098 C 0.62816 0.02361 0.17962 0.0
C7099 C 0.64346 0.01719 0.18178 0.0
C7100 C 0.66069 0.02195 0.16088 0.0
H7101 H 0.6965 0.99337 0.16596 0.0
H7102 H 0.68187 0.9985 0.17119 0.0
H7103 H 0.67442 0.02422 0.15237 0.0
H7104 H 0.62492 0.02875 0.16487 0.0
H7105 H 0.63965 0.02465 0.15814 0.0
H7106 H 0.64852 0.99968 0.17577 0.0
C7107 C 0.68398 1.0002 0.16371 0.0
C7108 C 0.66872 0.01871 0.15737 0.0
C7109 C 0.69249 0.99736 0.16073 0.0
C7110 C 0.63016 0.02572 0.16972 0.0
C7111 C 0.63858 0.02334 0.16585 0.0
C7112 C 0.65416 0.00515 0.1707 0.0
C7113 C 0.6785 0.00541 0.15721 0.0
C7114 C 0.66961 0.00868 0.16054 0.0
C7115 C 0.64513 0.01878 0.17181 0.0
C7116 C 0.65341 0.01526 0.1677 0.0
H7117 H 0.69266 0.00681 0.13723 0.0
H7118 H 0.67758 0.01146 0.14235 0.0
H7119 H 0.66235 0.99399 0.16959 0.0
H7120 H 0.63399 0.01811 0.19333 0.0
H7121 H 0.64854 0.01396 0.18662 0.0
C7122 C 0.80526 0.99809 0.64838 0.0
C7123 C 0.80627 0.0078 0.64299 0.0
C7124 C 0.81402 0.99436 0.64935 0.0
C7125 C 0.84002 0.99724 0.6383 0.0
H7126 H 0.84698 0.98541 0.66323 0.0
C7127 C 0.88165 0.99189 0.64818 0.0
C7128 C 0.88157 0.98268 0.65393 0.0
C7129 C 0.87192 0.99394 0.64618 0.0
C7130 C 0.84504 0.98853 0.65618 0.0
H7131 H 0.81734 0.02115 0.63432 0.0
H7132 H 0.8327 0.01482 0.63622 0.0
H7133 H 0.83124 0.99119 0.66123 0.0
H7134 H 0.87111 0.96821 0.66183 0.0
H7135 H 0.85403 0.97174 0.65827 0.0
H7136 H 0.85397 0.99477 0.63332 0.0
C7137 C 0.82506 0.00998 0.63959 0.0
C7138 C 0.83601 0.99186 0.65502 0.0
C7139 C 0.81629 0.0137 0.63861 0.0
C7140 C 0.87143 0.97534 0.65734 0.0
C7141 C 0.86168 0.97744 0.65539 0.0
C7142 C 0.84907 0.99394 0.63947 0.0
C7143 C 0.82404 1.00025 0.64497 0.0
C7144 C 0.83343 0.99635 0.6461 0.0
C7145 C 0.86185 0.98686 0.6499 0.0
C7146 C 0.85176 0.98964 0.64845 0.0
H7147 H 0.79772 0.99339 0.65196 0.0
H7148 H 0.81288 0.98678 0.65347 0.0
H7149 H 0.83816 1.00046 0.63127 0.0
H7150 H 0.88932 0.99764 0.64536 0.0
H7151 H 0.87239 0.00132 0.642 0.0
loop_
_geom_bond_atom_site_label_1
_geom_bond_atom_site_label_2
_geom_bond_distance
_geom_bond_site_symmetry_2
_ccdc_geom_bond_type
C0 C1 1.264 . S
C0 C5 1.479 . S
C0 C10 1.465 . S
C1 C0 1.264 . S
C1 C3 1.339 . S
C1 H28 0.931 . S
C2 C3 1.395 . S
C2 C4 1.320 . S
C3 C1 1.339 . S
C3 C2 1.395 . S
C3 H29 0.929 . S
C4 C2 1.320 . S
C4 C5 1.405 . S
C4 H30 0.930 . S
C5 C0 1.479 . S
C5 C4 1.405 . S
C5 H31 0.931 . S
U6 O7 2.454 . S
U6 O8 2.458 1_655 S
U6 C9 2.984 1_655 S
U6 C10 2.847 . S
U6 C23 2.879 . S
U6 O24 2.441 . S
U6 O25 2.420 . S
U6 O26 2.455 1_655 S
U6 O27 2.449 . S
O7 U6 2.454 . S
O7 C9 1.353 1_655 S
O8 U6 2.458 1_455 S
O8 C9 1.286 . S
C9 U6 2.984 1_455 S
C9 O7 1.353 1_455 S
C9 O8 1.286 . S
C9 C11 1.363 . S
C10 C0 1.465 . S
C10 U6 2.847 . S
C10 O24 1.249 . S
C10 O25 1.202 . S
C11 C9 1.363 . S
C11 C13 1.408 . S
C11 C16 1.342 . S
C12 C13 1.310 . S
C12 C15 1.461 . S
C12 H32 0.932 . S
C13 C11 1.408 . S
C13 C12 1.310 . S
C13 H33 0.961 . S
C14 C15 1.474 . S
C14 C16 1.285 . S
C14 H34 0.929 . S
C15 C12 1.461 . S
C15 C14 1.474 . S
C16 C11 1.342 . S
C16 C14 1.285 . S
C16 H35 0.930 . S
C17 C20 1.424 . S
C17 C22 1.245 . S
C17 C23 1.433 1_455 S
C18 C21 1.260 . S
C18 C22 1.477 . S
C18 H36 0.932 . S
C19 C20 1.384 . S
C19 C21 1.479 . S
C19 H37 0.929 . S
C20 C17 1.424 . S
C20 C19 1.384 . S
C20 H38 0.883 1_455 S
C21 C18 1.260 . S
C21 C19 1.479 . S
C22 C17 1.245 . S
C22 C18 1.477 . S
C22 H39 0.932 . S
C23 U6 2.879 . S
C23 C17 1.433 1_655 S
C23 O26 1.305 1_655 S
C23 O27 1.274 . S
O24 U6 2.441 . S
O24 C10 1.249 . S
O25 U6 2.420 . S
O25 C10 1.202 . S
O26 U6 2.455 1_455 S
O26 C23 1.305 1_455 S
O27 U6 2.449 . S
O27 C23 1.274 . S
H28 C1 0.931 . S
H29 C3 0.929 . S
H30 C4 0.930 . S
H31 C5 0.931 . S
H32 C12 0.932 . S
H33 C13 0.961 . S
H34 C14 0.929 . S
H35 C16 0.930 . S
H36 C18 0.932 . S
H37 C19 0.929 . S
H38 C20 0.883 1_655 S
H39 C22 0.932 . S
C40 C41 1.264 . S
C40 C45 1.479 . S
C40 C50 1.465 . S
C41 C40 1.264 . S
C41 C43 1.339 . S
C41 H68 0.931 . S
C42 C43 1.395 . S
C42 C44 1.320 . S
C43 C41 1.339 . S
C43 C42 1.395 . S
C43 H69 0.929 . S
C44 C42 1.320 . S
C44 C45 1.405 . S
C44 H70 0.930 . S
C45 C40 1.479 . S
C45 C44 1.405 . S
C45 H71 0.931 . S
U46 O47 2.454 . S
U46 O48 2.458 . S
U46 C49 2.984 . S
U46 C50 2.847 . S
U46 C63 2.882 . S
U46 O64 2.441 . S
U46 O65 2.420 . S
U46 O66 2.455 . S
U46 O67 2.449 . S
O47 U46 2.454 . S
O47 C49 1.353 . S
O48 U46 2.458 . S
O48 C49 1.286 . S
C49 U46 2.984 . S
C49 O47 1.353 . S
C49 O48 1.286 . S
C49 C51 1.363 . S
C50 C40 1.465 . S
C50 U46 2.847 . S
C50 O64 1.249 . S
C50 O65 1.202 . S
C51 C49 1.363 . S
C51 C53 1.408 . S
C51 C56 1.342 . S
C52 C53 1.310 . S
C52 C55 1.461 . S
C52 H72 0.932 . S
C53 C51 1.408 . S
C53 C52 1.310 . S
C53 H73 0.930 . S
C54 C55 1.474 . S
C54 C56 1.285 . S
C54 H74 0.929 . S
C55 C52 1.461 . S
C55 C54 1.474 . S
C56 C51 1.342 . S
C56 C54 1.285 . S
C56 H75 0.930 . S
C57 C60 1.424 . S
C57 C62 1.245 . S
C57 C63 1.428 . S
C58 C61 1.260 . S
C58 C62 1.477 . S
C58 H76 0.932 . S
C59 C60 1.384 . S
C59 C61 1.479 . S
C59 H77 0.929 . S
C60 C57 1.424 . S
C60 C59 1.384 . S
C60 H78 0.928 . S
C61 C58 1.260 . S
C61 C59 1.479 . S
C62 C57 1.245 . S
C62 C58 1.477 . S
C62 H79 0.932 . S
C63 U46 2.882 . S
C63 C57 1.428 . S
C63 O66 1.301 . S
C63 O67 1.282 . S
O64 U46 2.441 . S
O64 C50 1.249 . S
O65 U46 2.420 . S
O65 C50 1.202 . S
O66 U46 2.455 . S
O66 C63 1.301 . S
O67 U46 2.449 . S
O67 C63 1.282 . S
H68 C41 0.931 . S
H69 C43 0.929 . S
H70 C44 0.930 . S
H71 C45 0.931 . S
H72 C52 0.932 . S
H73 C53 0.930 . S
H74 C54 0.929 . S
H75 C56 0.930 . S
H76 C58 0.932 . S
H77 C59 0.929 . S
H78 C60 0.928 . S
H79 C62 0.932 . S
C80 C81 1.264 . S
C80 C85 1.479 . S
C80 C90 1.465 . S
C81 C80 1.264 . S
C81 C83 1.339 . S
C81 H108 0.931 . S
C82 C83 1.395 . S
C82 C84 1.320 . S
C83 C81 1.339 . S
C83 C82 1.395 . S
C83 H109 0.929 . S
C84 C82 1.320 . S
C84 C85 1.405 . S
C84 H110 0.930 . S
C85 C80 1.479 . S
C85 C84 1.405 . S
C85 H111 0.931 . S
U86 O87 2.454 . S
U86 O88 2.458 . S
U86 C89 2.984 . S
U86 C90 2.847 . S
U86 C103 2.882 . S
U86 O104 2.441 . S
U86 O105 2.420 . S
U86 O106 2.455 . S
U86 O107 2.449 . S
O87 U86 2.454 . S
O87 C89 1.353 . S
O88 U86 2.458 . S
O88 C89 1.286 . S
C89 U86 2.984 . S
C89 O87 1.353 . S
C89 O88 1.286 . S
C89 C91 1.363 . S
C90 C80 1.465 . S
C90 U86 2.847 . S
C90 O104 1.249 . S
C90 O105 1.202 . S
C91 C89 1.363 . S
C91 C93 1.408 . S
C91 C96 1.342 . S
C92 C93 1.310 . S
C92 C95 1.461 . S
C92 H112 0.932 . S
C93 C91 1.408 . S
C93 C92 1.310 . S
C93 H113 0.930 . S
C94 C95 1.474 . S
C94 C96 1.285 . S
C94 H114 0.929 . S
C95 C92 1.461 . S
C95 C94 1.474 . S
C96 C91 1.342 . S
C96 C94 1.285 . S
C96 H115 0.930 . S
C97 C100 1.424 . S
C97 C102 1.245 . S
C97 C103 1.428 . S
C98 C101 1.260 . S
C98 C102 1.477 . S
C98 H116 0.932 . S
C99 C100 1.384 . S
C99 C101 1.479 . S
C99 H117 0.929 . S
C100 C97 1.424 . S
C100 C99 1.384 . S
C100 H118 0.928 . S
C101 C98 1.260 . S
C101 C99 1.479 . S
C102 C97 1.245 . S
C102 C98 1.477 . S
C102 H119 0.932 . S
C103 U86 2.882 . S
C103 C97 1.428 . S
C103 O106 1.301 . S
C103 O107 1.282 . S
O104 U86 2.441 . S
O104 C90 1.249 . S
O105 U86 2.420 . S
O105 C90 1.202 . S
O106 U86 2.455 . S
O106 C103 1.301 . S
O107 U86 2.449 . S
O107 C103 1.282 . S
H108 C81 0.931 . S
H109 C83 0.929 . S
H110 C84 0.930 . S
H111 C85 0.931 . S
H112 C92 0.932 . S
H113 C93 0.930 . S
H114 C94 0.929 . S
H115 C96 0.930 . S
H116 C98 0.932 . S
H117 C99 0.929 . S
H118 C100 0.928 . S
H119 C102 0.932 . S
C120 C121 1.264 . S
C120 C125 1.479 . S
C120 C130 1.465 . S
C121 C120 1.264 . S
C121 C123 1.339 . S
C121 H148 0.931 . S
C122 C123 1.395 . S
C122 C124 1.320 . S
C123 C121 1.339 . S
C123 C122 1.395 . S
C123 H149 0.929 . S
C124 C122 1.320 . S
C124 C125 1.405 . S
C124 H150 0.930 . S
C125 C120 1.479 . S
C125 C124 1.405 . S
C125 H151 0.931 . S
U126 O127 2.454 . S
U126 O128 2.458 . S
U126 C129 2.984 . S
U126 C130 2.847 . S
U126 C143 2.882 . S
U126 O144 2.441 . S
U126 O145 2.420 . S
U126 O146 2.455 . S
U126 O147 2.449 . S
O127 U126 2.454 . S
O127 C129 1.353 . S
O128 U126 2.458 . S
O128 C129 1.286 . S
C129 U126 2.984 . S
C129 O127 1.353 . S
C129 O128 1.286 . S
C129 C131 1.363 . S
C130 C120 1.465 . S
C130 U126 2.847 . S
C130 O144 1.249 . S
C130 O145 1.202 . S
C131 C129 1.363 . S
C131 C133 1.408 . S
C131 C136 1.342 . S
C132 C133 1.310 . S
C132 C135 1.461 . S
C132 H152 0.932 . S
C133 C131 1.408 . S
C133 C132 1.310 . S
C133 H153 0.930 . S
C134 C135 1.474 . S
C134 C136 1.285 . S
C134 H154 0.929 . S
C135 C132 1.461 . S
C135 C134 1.474 . S
C136 C131 1.342 . S
C136 C134 1.285 . S
C136 H155 0.930 . S
C137 C140 1.424 . S
C137 C142 1.245 . S
C137 C143 1.428 . S
C138 C141 1.260 . S
C138 C142 1.477 . S
C138 H156 0.932 . S
C139 C140 1.384 . S
C139 C141 1.479 . S
C139 H157 0.929 . S
C140 C137 1.424 . S
C140 C139 1.384 . S
C140 H158 0.928 . S
C141 C138 1.260 . S
C141 C139 1.479 . S
C142 C137 1.245 . S
C142 C138 1.477 . S
C142 H159 0.932 . S
C143 U126 2.882 . S
C143 C137 1.428 . S
C143 O146 1.301 . S
C143 O147 1.282 . S
O144 U126 2.441 . S
O144 C130 1.249 . S
O145 U126 2.420 . S
O145 C130 1.202 . S
O146 U126 2.455 . S
O146 C143 1.301 . S
O147 U126 2.449 . S
O147 C143 1.282 . S
H148 C121 0.931 . S
H149 C123 0.929 . S
H150 C124 0.930 . S
H151 C125 0.931 . S
H152 C132 0.932 . S
H153 C133 0.930 . S
H154 C134 0.929 . S
H155 C136 0.930 . S
H156 C138 0.932 . S
H157 C139 0.929 . S
H158 C140 0.928 . S
H159 C142 0.932 . S
C160 C161 1.264 . S
C160 C165 1.479 . S
C160 C170 1.465 . S
C161 C160 1.264 . S
C161 C163 1.339 . S
C161 H188 0.931 . S
C162 C163 1.395 . S
C162 C164 1.320 . S
C163 C161 1.339 . S
C163 C162 1.395 . S
C163 H189 0.929 . S
C164 C162 1.320 . S
C164 C165 1.405 . S
C164 H190 0.930 . S
C165 C160 1.479 . S
C165 C164 1.405 . S
C165 H191 0.931 . S
U166 O167 2.454 . S
U166 O168 2.458 . S
U166 C169 2.984 . S
U166 C170 2.847 . S
U166 C183 2.882 . S
U166 O184 2.441 . S
U166 O185 2.420 . S
U166 O186 2.455 . S
U166 O187 2.449 . S
O167 U166 2.454 . S
O167 C169 1.353 . S
O168 U166 2.458 . S
O168 C169 1.286 . S
C169 U166 2.984 . S
C169 O167 1.353 . S
C169 O168 1.286 . S
C169 C171 1.363 . S
C170 C160 1.465 . S
C170 U166 2.847 . S
C170 O184 1.249 . S
C170 O185 1.202 . S
C171 C169 1.363 . S
C171 C173 1.408 . S
C171 C176 1.342 . S
C172 C173 1.310 . S
C172 C175 1.461 . S
C172 H192 0.932 . S
C173 C171 1.408 . S
C173 C172 1.310 . S
C173 H193 0.930 . S
C174 C175 1.474 . S
C174 C176 1.285 . S
C174 H194 0.929 . S
C175 C172 1.461 . S
C175 C174 1.474 . S
C176 C171 1.342 . S
C176 C174 1.285 . S
C176 H195 0.930 . S
C177 C180 1.424 . S
C177 C182 1.245 . S
C177 C183 1.428 . S
C178 C181 1.260 . S
C178 C182 1.477 . S
C178 H196 0.932 . S
C179 C180 1.384 . S
C179 C181 1.479 . S
C179 H197 0.929 . S
C180 C177 1.424 . S
C180 C179 1.384 . S
C180 H198 0.928 . S
C181 C178 1.260 . S
C181 C179 1.479 . S
C182 C177 1.245 . S
C182 C178 1.477 . S
C182 H199 0.932 . S
C183 U166 2.882 . S
C183 C177 1.428 . S
C183 O186 1.301 . S
C183 O187 1.282 . S
O184 U166 2.441 . S
O184 C170 1.249 . S
O185 U166 2.420 . S
O185 C170 1.202 . S
O186 U166 2.455 . S
O186 C183 1.301 . S
O187 U166 2.449 . S
O187 C183 1.282 . S
H188 C161 0.931 . S
H189 C163 0.929 . S
H190 C164 0.930 . S
H191 C165 0.931 . S
H192 C172 0.932 . S
H193 C173 0.930 . S
H194 C174 0.929 . S
H195 C176 0.930 . S
H196 C178 0.932 . S
H197 C179 0.929 . S
H198 C180 0.928 . S
H199 C182 0.932 . S
C200 C201 1.264 . S
C200 C205 1.479 . S
C200 C210 1.465 . S
C201 C200 1.264 . S
C201 C203 1.339 . S
C201 H228 0.931 . S
C202 C203 1.395 . S
C202 C204 1.320 . S
C203 C201 1.339 . S
C203 C202 1.395 . S
C203 H229 0.929 . S
C204 C202 1.320 . S
C204 C205 1.405 . S
C204 H230 0.930 . S
C205 C200 1.479 . S
C205 C204 1.405 . S
C205 H231 0.931 . S
U206 O207 2.454 . S
U206 O208 2.458 . S
U206 C209 2.984 . S
U206 C210 2.847 . S
U206 C223 2.882 . S
U206 O224 2.441 . S
U206 O225 2.420 . S
U206 O226 2.455 . S
U206 O227 2.449 . S
O207 U206 2.454 . S
O207 C209 1.353 . S
O208 U206 2.458 . S
O208 C209 1.286 . S
C209 U206 2.984 . S
C209 O207 1.353 . S
C209 O208 1.286 . S
C209 C211 1.363 . S
C210 C200 1.465 . S
C210 U206 2.847 . S
C210 O224 1.249 . S
C210 O225 1.202 . S
C211 C209 1.363 . S
C211 C213 1.408 . S
C211 C216 1.342 . S
C212 C213 1.310 . S
C212 C215 1.461 . S
C212 H232 0.932 . S
C213 C211 1.408 . S
C213 C212 1.310 . S
C213 H233 0.930 . S
C214 C215 1.474 . S
C214 C216 1.285 . S
C214 H234 0.929 . S
C215 C212 1.461 . S
C215 C214 1.474 . S
C216 C211 1.342 . S
C216 C214 1.285 . S
C216 H235 0.930 . S
C217 C220 1.424 . S
C217 C222 1.245 . S
C217 C223 1.428 . S
C218 C221 1.260 . S
C218 C222 1.477 . S
C218 H236 0.932 . S
C219 C220 1.384 . S
C219 C221 1.479 . S
C219 H237 0.929 . S
C220 C217 1.424 . S
C220 C219 1.384 . S
C220 H238 0.928 . S
C221 C218 1.260 . S
C221 C219 1.479 . S
C222 C217 1.245 . S
C222 C218 1.477 . S
C222 H239 0.932 . S
C223 U206 2.882 . S
C223 C217 1.428 . S
C223 O226 1.301 . S
C223 O227 1.282 . S
O224 U206 2.441 . S
O224 C210 1.249 . S
O225 U206 2.420 . S
O225 C210 1.202 . S
O226 U206 2.455 . S
O226 C223 1.301 . S
O227 U206 2.449 . S
O227 C223 1.282 . S
H228 C201 0.931 . S
H229 C203 0.929 . S
H230 C204 0.930 . S
H231 C205 0.931 . S
H232 C212 0.932 . S
H233 C213 0.930 . S
H234 C214 0.929 . S
H235 C216 0.930 . S
H236 C218 0.932 . S
H237 C219 0.929 . S
H238 C220 0.928 . S
H239 C222 0.932 . S
C240 C241 1.264 . S
C240 C245 1.479 . S
C240 C250 1.465 . S
C241 C240 1.264 . S
C241 C243 1.339 . S
C241 H268 0.931 . S
C242 C243 1.395 . S
C242 C244 1.320 . S
C243 C241 1.339 . S
C243 C242 1.395 . S
C243 H269 0.929 . S
C244 C242 1.320 . S
C244 C245 1.405 . S
C244 H270 0.930 . S
C245 C240 1.479 . S
C245 C244 1.405 . S
C245 H271 0.931 . S
U246 O247 2.454 . S
U246 O248 2.458 . S
U246 C249 2.984 . S
U246 C250 2.847 . S
U246 C263 2.882 . S
U246 O264 2.441 . S
U246 O265 2.420 . S
U246 O266 2.455 . S
U246 O267 2.449 . S
O247 U246 2.454 . S
O247 C249 1.353 . S
O248 U246 2.458 . S
O248 C249 1.286 . S
C249 U246 2.984 . S
C249 O247 1.353 . S
C249 O248 1.286 . S
C249 C251 1.363 . S
C250 C240 1.465 . S
C250 U246 2.847 . S
C250 O264 1.249 . S
C250 O265 1.202 . S
C251 C249 1.363 . S
C251 C253 1.408 . S
C251 C256 1.342 . S
C252 C253 1.310 . S
C252 C255 1.461 . S
C252 H272 0.932 . S
C253 C251 1.408 . S
C253 C252 1.310 . S
C253 H273 0.930 . S
C254 C255 1.474 . S
C254 C256 1.285 . S
C254 H274 0.929 . S
C255 C252 1.461 . S
C255 C254 1.474 . S
C256 C251 1.342 . S
C256 C254 1.285 . S
C256 H275 0.930 . S
C257 C260 1.424 . S
C257 C262 1.245 . S
C257 C263 1.428 . S
C258 C261 1.260 . S
C258 C262 1.477 . S
C258 H276 0.932 . S
C259 C260 1.384 . S
C259 C261 1.479 . S
C259 H277 0.929 . S
C260 C257 1.424 . S
C260 C259 1.384 . S
C260 H278 0.928 . S
C261 C258 1.260 . S
C261 C259 1.479 . S
C262 C257 1.245 . S
C262 C258 1.477 . S
C262 H279 0.932 . S
C263 U246 2.882 . S
C263 C257 1.428 . S
C263 O266 1.301 . S
C263 O267 1.282 . S
O264 U246 2.441 . S
O264 C250 1.249 . S
O265 U246 2.420 . S
O265 C250 1.202 . S
O266 U246 2.455 . S
O266 C263 1.301 . S
O267 U246 2.449 . S
O267 C263 1.282 . S
H268 C241 0.931 . S
H269 C243 0.929 . S
H270 C244 0.930 . S
H271 C245 0.931 . S
H272 C252 0.932 . S
H273 C253 0.930 . S
H274 C254 0.929 . S
H275 C256 0.930 . S
H276 C258 0.932 . S
H277 C259 0.929 . S
H278 C260 0.928 . S
H279 C262 0.932 . S
C280 C281 1.264 . S
C280 C285 1.479 . S
C280 C290 1.465 1_554 S
C281 C280 1.264 . S
C281 C283 1.339 . S
C281 H308 0.892 1_554 S
C282 C283 1.395 . S
C282 C284 1.320 . S
C283 C281 1.339 . S
C283 C282 1.395 . S
C283 H309 0.929 . S
C284 C282 1.320 . S
C284 C285 1.405 . S
C284 H310 0.930 . S
C285 C280 1.479 . S
C285 C284 1.405 . S
C285 H311 0.931 . S
U286 O287 2.454 . S
U286 O288 2.458 . S
U286 C289 2.984 . S
U286 C290 2.847 . S
U286 C303 2.882 . S
U286 O304 2.441 . S
U286 O305 2.420 . S
U286 O306 2.455 . S
U286 O307 2.449 . S
O287 U286 2.454 . S
O287 C289 1.353 . S
O288 U286 2.458 . S
O288 C289 1.286 . S
C289 U286 2.984 . S
C289 O287 1.353 . S
C289 O288 1.286 . S
C289 C291 1.363 . S
C290 C280 1.465 1_556 S
C290 U286 2.847 . S
C290 O304 1.249 . S
C290 O305 1.202 . S
C291 C289 1.363 . S
C291 C293 1.408 . S
C291 C296 1.342 . S
C292 C293 1.310 . S
C292 C295 1.461 . S
C292 H312 0.932 . S
C293 C291 1.408 . S
C293 C292 1.310 . S
C293 H313 0.930 . S
C294 C295 1.474 . S
C294 C296 1.285 . S
C294 H314 0.929 . S
C295 C292 1.461 . S
C295 C294 1.474 . S
C296 C291 1.342 . S
C296 C294 1.285 . S
C296 H315 0.930 . S
C297 C300 1.424 . S
C297 C302 1.245 . S
C297 C303 1.428 . S
C298 C301 1.260 . S
C298 C302 1.477 . S
C298 H316 0.932 . S
C299 C300 1.384 . S
C299 C301 1.479 . S
C299 H317 0.929 . S
C300 C297 1.424 . S
C300 C299 1.384 . S
C300 H318 0.928 . S
C301 C298 1.260 . S
C301 C299 1.479 . S
C302 C297 1.245 . S
C302 C298 1.477 . S
C302 H319 0.932 . S
C303 U286 2.882 . S
C303 C297 1.428 . S
C303 O306 1.301 . S
C303 O307 1.282 . S
O304 U286 2.441 . S
O304 C290 1.249 . S
O305 U286 2.420 . S
O305 C290 1.202 . S
O306 U286 2.455 . S
O306 C303 1.301 . S
O307 U286 2.449 . S
O307 C303 1.282 . S
H308 C281 0.892 1_556 S
H309 C283 0.929 . S
H310 C284 0.930 . S
H311 C285 0.931 . S
H312 C292 0.932 . S
H313 C293 0.930 . S
H314 C294 0.929 . S
H315 C296 0.930 . S
H316 C298 0.932 . S
H317 C299 0.929 . S
H318 C300 0.928 . S
H319 C302 0.932 . S
C320 C321 1.264 . S
C320 C325 1.479 1_545 S
C320 C330 1.524 . S
C321 C320 1.264 . S
C321 C323 1.339 . S
C321 H348 0.931 . S
C322 C323 1.395 . S
C322 C324 1.320 1_545 S
C323 C321 1.339 . S
C323 C322 1.395 . S
C323 H349 0.929 . S
C324 C322 1.320 1_565 S
C324 C325 1.405 . S
C324 H350 0.930 . S
C325 C320 1.479 1_565 S
C325 C324 1.405 . S
C325 H351 0.931 . S
U326 O327 2.560 . S
U326 O328 2.559 . S
U326 C329 3.099 . S
U326 C330 2.753 1_565 S
U326 C343 2.823 1_565 S
U326 O344 2.441 . S
U326 O345 2.331 1_565 S
U326 O346 2.446 1_565 S
U326 O347 2.352 1_565 S
O327 U326 2.560 . S
O327 C329 1.353 . S
O328 U326 2.559 . S
O328 C329 1.286 . S
C329 U326 3.099 . S
C329 O327 1.353 . S
C329 O328 1.286 . S
C329 C331 1.363 . S
C330 C320 1.524 . S
C330 U326 2.753 1_545 S
C330 O344 1.145 1_545 S
C330 O345 1.257 . S
C331 C329 1.363 . S
C331 C333 1.408 . S
C331 C336 1.342 . S
C332 C333 1.310 . S
C332 C335 1.461 . S
C332 H352 0.932 . S
C333 C331 1.408 . S
C333 C332 1.310 . S
C333 H353 0.930 . S
C334 C335 1.474 . S
C334 C336 1.285 . S
C334 H354 0.929 . S
C335 C332 1.461 . S
C335 C334 1.474 . S
C336 C331 1.342 . S
C336 C334 1.285 . S
C336 H355 0.930 . S
C337 C340 1.424 . S
C337 C342 1.245 . S
C337 C343 1.428 . S
C338 C341 1.260 . S
C338 C342 1.477 . S
C338 H356 0.932 . S
C339 C340 1.384 . S
C339 C341 1.479 . S
C339 H357 0.929 . S
C340 C337 1.424 . S
C340 C339 1.384 . S
C340 H358 0.928 . S
C341 C338 1.260 . S
C341 C339 1.479 . S
C342 C337 1.245 . S
C342 C338 1.477 . S
C342 H359 0.932 . S
C343 U326 2.823 1_545 S
C343 C337 1.428 . S
C343 O346 1.301 . S
C343 O347 1.282 . S
O344 U326 2.441 . S
O344 C330 1.145 1_565 S
O345 U326 2.331 1_545 S
O345 C330 1.257 . S
O346 U326 2.446 1_545 S
O346 C343 1.301 . S
O347 U326 2.352 1_545 S
O347 C343 1.282 . S
H348 C321 0.931 . S
H349 C323 0.929 . S
H350 C324 0.930 . S
H351 C325 0.931 . S
H352 C332 0.932 . S
H353 C333 0.930 . S
H354 C334 0.929 . S
H355 C336 0.930 . S
H356 C338 0.932 . S
H357 C339 0.929 . S
H358 C340 0.928 . S
H359 C342 0.932 . S
C360 C361 1.264 . S
C360 C365 1.479 . S
C360 C370 1.465 . S
C361 C360 1.264 . S
C361 C363 1.339 . S
C361 H388 0.931 . S
C362 C363 1.395 . S
C362 C364 1.320 . S
C363 C361 1.339 . S
C363 C362 1.395 . S
C363 H389 0.929 . S
C364 C362 1.320 . S
C364 C365 1.405 . S
C364 H390 0.930 . S
C365 C360 1.479 . S
C365 C364 1.405 . S
C365 H391 0.931 . S
U366 O367 2.454 . S
U366 O368 2.458 . S
U366 C369 2.984 . S
U366 C370 2.847 1_545 S
U366 C383 2.882 . S
U366 O384 2.441 1_545 S
U366 O385 2.420 1_545 S
U366 O386 2.455 . S
U366 O387 2.449 . S
O367 U366 2.454 . S
O367 C369 1.353 . S
O368 U366 2.458 . S
O368 C369 1.286 . S
C369 U366 2.984 . S
C369 O367 1.353 . S
C369 O368 1.286 . S
C369 C371 1.363 . S
C370 C360 1.465 . S
C370 U366 2.847 1_565 S
C370 O384 1.249 . S
C370 O385 1.202 . S
C371 C369 1.363 . S
C371 C373 1.408 . S
C371 C376 1.342 . S
C372 C373 1.310 . S
C372 C375 1.461 . S
C372 H392 0.932 . S
C373 C371 1.408 . S
C373 C372 1.310 . S
C373 H393 0.930 . S
C374 C375 1.474 . S
C374 C376 1.285 . S
C374 H394 0.929 . S
C375 C372 1.461 . S
C375 C374 1.474 . S
C376 C371 1.342 . S
C376 C374 1.285 . S
C376 H395 0.930 . S
C377 C380 1.424 . S
C377 C382 1.245 . S
C377 C383 1.428 . S
C378 C381 1.260 . S
C378 C382 1.477 . S
C378 H396 0.932 . S
C379 C380 1.384 . S
C379 C381 1.479 . S
C379 H397 0.929 . S
C380 C377 1.424 . S
C380 C379 1.384 . S
C380 H398 0.928 . S
C381 C378 1.260 . S
C381 C379 1.479 . S
C382 C377 1.245 . S
C382 C378 1.477 . S
C382 H399 0.932 . S
C383 U366 2.882 . S
C383 C377 1.428 . S
C383 O386 1.301 . S
C383 O387 1.282 . S
O384 U366 2.441 1_565 S
O384 C370 1.249 . S
O385 U366 2.420 1_565 S
O385 C370 1.202 . S
O386 U366 2.455 . S
O386 C383 1.301 . S
O387 U366 2.449 . S
O387 C383 1.282 . S
H388 C361 0.931 . S
H389 C363 0.929 . S
H390 C364 0.930 . S
H391 C365 0.931 . S
H392 C372 0.932 . S
H393 C373 0.930 . S
H394 C374 0.929 . S
H395 C376 0.930 . S
H396 C378 0.932 . S
H397 C379 0.929 . S
H398 C380 0.928 . S
H399 C382 0.932 . S
C400 C401 1.264 . S
C400 C405 1.479 . S
C400 C410 1.465 . S
C401 C400 1.264 . S
C401 C403 1.339 . S
C401 H428 0.931 . S
C402 C403 1.395 . S
C402 C404 1.320 . S
C403 C401 1.339 . S
C403 C402 1.395 . S
C403 H429 0.929 . S
C404 C402 1.320 . S
C404 C405 1.405 . S
C404 H430 0.930 . S
C405 C400 1.479 . S
C405 C404 1.405 . S
C405 H431 0.931 . S
U406 O407 2.454 . S
U406 O408 2.458 1_545 S
U406 C409 2.984 1_545 S
U406 C410 2.847 . S
U406 C423 2.882 1_545 S
U406 O424 2.441 . S
U406 O425 2.420 . S
U406 O426 2.455 1_545 S
U406 O427 2.449 1_545 S
O407 U406 2.454 . S
O407 C409 1.353 1_545 S
O408 U406 2.458 1_565 S
O408 C409 1.286 . S
C409 U406 2.984 1_565 S
C409 O407 1.353 1_565 S
C409 O408 1.286 . S
C409 C411 1.363 . S
C410 C400 1.465 . S
C410 U406 2.847 . S
C410 O424 1.249 . S
C410 O425 1.202 . S
C411 C409 1.363 . S
C411 C413 1.408 1_565 S
C411 C416 1.342 . S
C412 C413 1.310 . S
C412 C415 1.461 1_545 S
C412 H432 0.932 . S
C413 C411 1.408 1_545 S
C413 C412 1.310 . S
C413 H433 0.930 . S
C414 C415 1.474 . S
C414 C416 1.285 . S
C414 H434 0.929 . S
C415 C412 1.461 1_565 S
C415 C414 1.474 . S
C416 C411 1.342 . S
C416 C414 1.285 . S
C416 H435 0.930 . S
C417 C420 1.424 . S
C417 C422 1.245 . S
C417 C423 1.428 . S
C418 C421 1.260 . S
C418 C422 1.477 . S
C418 H436 0.932 . S
C419 C420 1.384 . S
C419 C421 1.479 . S
C419 H437 0.929 . S
C420 C417 1.424 . S
C420 C419 1.384 . S
C420 H438 0.928 . S
C421 C418 1.260 . S
C421 C419 1.479 . S
C422 C417 1.245 . S
C422 C418 1.477 . S
C422 H439 0.932 . S
C423 U406 2.882 1_565 S
C423 C417 1.428 . S
C423 O426 1.301 . S
C423 O427 1.282 . S
O424 U406 2.441 . S
O424 C410 1.249 . S
O425 U406 2.420 . S
O425 C410 1.202 . S
O426 U406 2.455 1_565 S
O426 C423 1.301 . S
O427 U406 2.449 1_565 S
O427 C423 1.282 . S
H428 C401 0.931 . S
H429 C403 0.929 . S
H430 C404 0.930 . S
H431 C405 0.931 . S
H432 C412 0.932 . S
H433 C413 0.930 . S
H434 C414 0.929 . S
H435 C416 0.930 . S
H436 C418 0.932 . S
H437 C419 0.929 . S
H438 C420 0.928 . S
H439 C422 0.932 . S
C440 C441 1.264 . S
C440 C445 1.479 . S
C440 C450 1.465 . S
C441 C440 1.264 . S
C441 C443 1.339 . S
C441 H468 0.931 . S
C442 C443 1.395 . S
C442 C444 1.320 . S
C443 C441 1.339 . S
C443 C442 1.395 . S
C443 H469 0.929 . S
C444 C442 1.320 . S
C444 C445 1.405 . S
C444 H470 0.930 . S
C445 C440 1.479 . S
C445 C444 1.405 . S
C445 H471 0.931 1_565 S
U446 O447 2.520 . S
U446 O448 2.492 . S
U446 C449 3.040 . S
U446 C450 2.852 1_545 S
U446 C463 2.822 1_545 S
U446 O464 2.475 . S
U446 O465 2.398 1_545 S
U446 O466 2.416 1_545 S
U446 O467 2.382 1_545 S
O447 U446 2.520 . S
O447 C449 1.353 . S
O448 U446 2.492 . S
O448 C449 1.286 . S
C449 U446 3.040 . S
C449 O447 1.353 . S
C449 O448 1.286 . S
C449 C451 1.363 . S
C450 C440 1.465 . S
C450 U446 2.852 1_565 S
C450 O464 1.249 1_565 S
C450 O465 1.202 . S
C451 C449 1.363 . S
C451 C453 1.408 . S
C451 C456 1.342 . S
C452 C453 1.310 . S
C452 C455 1.461 . S
C452 H472 0.932 . S
C453 C451 1.408 . S
C453 C452 1.310 . S
C453 H473 0.930 . S
C454 C455 1.474 . S
C454 C456 1.285 . S
C454 H474 0.929 . S
C455 C452 1.461 . S
C455 C454 1.474 . S
C456 C451 1.342 . S
C456 C454 1.285 . S
C456 H475 0.930 . S
C457 C460 1.424 . S
C457 C462 1.245 . S
C457 C463 1.428 . S
C458 C461 1.260 . S
C458 C462 1.477 . S
C458 H476 0.932 . S
C459 C460 1.384 . S
C459 C461 1.479 . S
C459 H477 0.929 . S
C460 C457 1.424 . S
C460 C459 1.384 . S
C460 H478 0.928 . S
C461 C458 1.260 . S
C461 C459 1.479 . S
C462 C457 1.245 . S
C462 C458 1.477 . S
C462 H479 0.932 . S
C463 U446 2.822 1_565 S
C463 C457 1.428 . S
C463 O466 1.301 . S
C463 O467 1.282 . S
O464 U446 2.475 . S
O464 C450 1.249 1_545 S
O465 U446 2.398 1_565 S
O465 C450 1.202 . S
O466 U446 2.416 1_565 S
O466 C463 1.301 . S
O467 U446 2.382 1_565 S
O467 C463 1.282 . S
H468 C441 0.931 . S
H469 C443 0.929 . S
H470 C444 0.930 . S
H471 C445 0.931 1_545 S
H472 C452 0.932 . S
H473 C453 0.930 . S
H474 C454 0.929 . S
H475 C456 0.930 . S
H476 C458 0.932 . S
H477 C459 0.929 . S
H478 C460 0.928 . S
H479 C462 0.932 . S
C480 C481 1.264 . S
C480 C485 1.479 . S
C480 C490 1.465 . S
C481 C480 1.264 . S
C481 C483 1.339 . S
C481 H508 0.931 . S
C482 C483 1.395 . S
C482 C484 1.320 . S
C483 C481 1.339 . S
C483 C482 1.395 . S
C483 H509 0.929 . S
C484 C482 1.320 . S
C484 C485 1.405 . S
C484 H510 0.930 . S
C485 C480 1.479 . S
C485 C484 1.405 . S
C485 H511 0.931 . S
U486 O487 2.454 . S
U486 O488 2.458 . S
U486 C489 2.984 . S
U486 C490 2.847 . S
U486 C503 2.882 . S
U486 O504 2.441 . S
U486 O505 2.420 . S
U486 O506 2.455 . S
U486 O507 2.449 . S
O487 U486 2.454 . S
O487 C489 1.353 . S
O488 U486 2.458 . S
O488 C489 1.286 . S
C489 U486 2.984 . S
C489 O487 1.353 . S
C489 O488 1.286 . S
C489 C491 1.363 . S
C490 C480 1.465 . S
C490 U486 2.847 . S
C490 O504 1.249 . S
C490 O505 1.202 . S
C491 C489 1.363 . S
C491 C493 1.437 . S
C491 C496 1.342 . S
C492 C493 1.270 1_556 S
C492 C495 1.461 . S
C492 H512 0.932 . S
C493 C491 1.437 . S
C493 C492 1.270 1_554 S
C493 H513 0.943 . S
C494 C495 1.474 . S
C494 C496 1.285 1_556 S
C494 H514 0.929 . S
C495 C492 1.461 . S
C495 C494 1.474 . S
C496 C491 1.342 . S
C496 C494 1.285 1_554 S
C496 H515 0.930 . S
C497 C500 1.424 . S
C497 C502 1.245 . S
C497 C503 1.428 . S
C498 C501 1.260 . S
C498 C502 1.477 . S
C498 H516 0.932 . S
C499 C500 1.384 . S
C499 C501 1.479 . S
C499 H517 0.929 . S
C500 C497 1.424 . S
C500 C499 1.384 . S
C500 H518 0.928 . S
C501 C498 1.260 . S
C501 C499 1.479 . S
C502 C497 1.245 . S
C502 C498 1.477 . S
C502 H519 0.932 . S
C503 U486 2.882 . S
C503 C497 1.428 . S
C503 O506 1.301 . S
C503 O507 1.282 . S
O504 U486 2.441 . S
O504 C490 1.249 . S
O505 U486 2.420 . S
O505 C490 1.202 . S
O506 U486 2.455 . S
O506 C503 1.301 . S
O507 U486 2.449 . S
O507 C503 1.282 . S
H508 C481 0.931 . S
H509 C483 0.929 . S
H510 C484 0.930 . S
H511 C485 0.931 . S
H512 C492 0.932 . S
H513 C493 0.943 . S
H514 C494 0.929 . S
H515 C496 0.930 . S
H516 C498 0.932 . S
H517 C499 0.929 . S
H518 C500 0.928 . S
H519 C502 0.932 . S
C520 C521 1.264 . S
C520 C525 1.479 . S
C520 C530 1.465 . S
C521 C520 1.264 . S
C521 C523 1.339 . S
C521 H548 0.931 . S
C522 C523 1.395 . S
C522 C524 1.320 . S
C523 C521 1.339 . S
C523 C522 1.395 . S
C523 H549 0.929 . S
C524 C522 1.320 . S
C524 C525 1.405 . S
C524 H550 0.930 1_655 S
C525 C520 1.479 . S
C525 C524 1.405 . S
C525 H551 0.931 . S
U526 O527 2.454 . S
U526 O528 2.458 . S
U526 C529 2.984 . S
U526 C530 2.847 . S
U526 C543 2.882 . S
U526 O544 2.441 . S
U526 O545 2.420 . S
U526 O546 2.455 . S
U526 O547 2.449 . S
O527 U526 2.454 . S
O527 C529 1.353 . S
O528 U526 2.458 . S
O528 C529 1.286 . S
C529 U526 2.984 . S
C529 O527 1.353 . S
C529 O528 1.286 . S
C529 C531 1.363 . S
C530 C520 1.465 . S
C530 U526 2.847 . S
C530 O544 1.249 . S
C530 O545 1.202 . S
C531 C529 1.363 . S
C531 C533 1.408 . S
C531 C536 1.342 . S
C532 C533 1.310 . S
C532 C535 1.461 . S
C532 H552 0.932 . S
C533 C531 1.408 . S
C533 C532 1.310 . S
C533 H553 0.930 . S
C534 C535 1.474 . S
C534 C536 1.285 . S
C534 H554 0.929 . S
C535 C532 1.461 . S
C535 C534 1.474 . S
C536 C531 1.342 . S
C536 C534 1.285 . S
C536 H555 0.930 . S
C537 C540 1.424 . S
C537 C542 1.245 . S
C537 C543 1.428 . S
C538 C541 1.260 . S
C538 C542 1.477 . S
C538 H556 0.932 . S
C539 C540 1.384 . S
C539 C541 1.479 . S
C539 H557 0.929 . S
C540 C537 1.424 . S
C540 C539 1.384 . S
C540 H558 0.928 . S
C541 C538 1.260 . S
C541 C539 1.479 . S
C542 C537 1.245 . S
C542 C538 1.477 . S
C542 H559 0.932 . S
C543 U526 2.882 . S
C543 C537 1.428 . S
C543 O546 1.301 . S
C543 O547 1.282 . S
O544 U526 2.441 . S
O544 C530 1.249 . S
O545 U526 2.420 . S
O545 C530 1.202 . S
O546 U526 2.455 . S
O546 C543 1.301 . S
O547 U526 2.449 . S
O547 C543 1.282 . S
H548 C521 0.931 . S
H549 C523 0.929 . S
H550 C524 0.930 1_455 S
H551 C525 0.931 . S
H552 C532 0.932 . S
H553 C533 0.930 . S
H554 C534 0.929 . S
H555 C536 0.930 . S
H556 C538 0.932 . S
H557 C539 0.929 . S
H558 C540 0.928 . S
H559 C542 0.932 . S
C560 C561 1.264 . S
C560 C565 1.479 . S
C560 C570 1.465 . S
C561 C560 1.264 . S
C561 C563 1.339 . S
C561 H588 0.931 . S
C562 C563 1.395 . S
C562 C564 1.320 . S
C563 C561 1.339 . S
C563 C562 1.395 . S
C563 H589 0.929 . S
C564 C562 1.320 . S
C564 C565 1.405 . S
C564 H590 0.930 . S
C565 C560 1.479 . S
C565 C564 1.405 . S
C565 H591 0.931 . S
U566 O567 2.454 . S
U566 O568 2.458 . S
U566 C569 2.984 . S
U566 C570 2.847 . S
U566 C583 2.882 . S
U566 O584 2.441 . S
U566 O585 2.420 . S
U566 O586 2.455 . S
U566 O587 2.449 . S
O567 U566 2.454 . S
O567 C569 1.353 . S
O568 U566 2.458 . S
O568 C569 1.286 . S
C569 U566 2.984 . S
C569 O567 1.353 . S
C569 O568 1.286 . S
C569 C571 1.363 . S
C570 C560 1.465 . S
C570 U566 2.847 . S
C570 O584 1.249 . S
C570 O585 1.202 . S
C571 C569 1.363 . S
C571 C573 1.408 . S
C571 C576 1.342 . S
C572 C573 1.310 . S
C572 C575 1.461 . S
C572 H592 0.932 . S
C573 C571 1.408 . S
C573 C572 1.310 . S
C573 H593 0.930 . S
C574 C575 1.474 . S
C574 C576 1.285 . S
C574 H594 0.929 . S
C575 C572 1.461 . S
C575 C574 1.474 . S
C576 C571 1.342 . S
C576 C574 1.285 . S
C576 H595 0.930 . S
C577 C580 1.424 . S
C577 C582 1.245 . S
C577 C583 1.428 . S
C578 C581 1.260 . S
C578 C582 1.477 . S
C578 H596 0.932 . S
C579 C580 1.384 . S
C579 C581 1.479 . S
C579 H597 0.929 . S
C580 C577 1.424 . S
C580 C579 1.384 . S
C580 H598 0.928 . S
C581 C578 1.260 . S
C581 C579 1.479 . S
C582 C577 1.245 . S
C582 C578 1.477 . S
C582 H599 0.932 . S
C583 U566 2.882 . S
C583 C577 1.428 . S
C583 O586 1.301 . S
C583 O587 1.282 . S
O584 U566 2.441 . S
O584 C570 1.249 . S
O585 U566 2.420 . S
O585 C570 1.202 . S
O586 U566 2.455 . S
O586 C583 1.301 . S
O587 U566 2.449 . S
O587 C583 1.282 . S
H588 C561 0.931 . S
H589 C563 0.929 . S
H590 C564 0.930 . S
H591 C565 0.931 . S
H592 C572 0.932 . S
H593 C573 0.930 . S
H594 C574 0.929 . S
H595 C576 0.930 . S
H596 C578 0.932 . S
H597 C579 0.929 . S
H598 C580 0.928 . S
H599 C582 0.932 . S
C600 C601 1.264 . S
C600 C605 1.479 . S
C600 C610 1.465 1_655 S
C601 C600 1.264 . S
C601 C603 1.339 . S
C601 H628 0.931 . S
C602 C603 1.395 . S
C602 C604 1.320 . S
C603 C601 1.339 . S
C603 C602 1.395 . S
C603 H629 0.929 . S
C604 C602 1.320 . S
C604 C605 1.405 . S
C604 H630 0.930 . S
C605 C600 1.479 . S
C605 C604 1.405 . S
C605 H631 0.931 1_655 S
U606 O607 2.454 . S
U606 O608 2.458 . S
U606 C609 2.984 . S
U606 C610 2.847 . S
U606 C623 2.851 1_455 S
U606 O624 2.441 . S
U606 O625 2.425 1_455 S
U606 O626 2.455 . S
U606 O627 2.449 1_455 S
O607 U606 2.454 . S
O607 C609 1.353 . S
O608 U606 2.458 . S
O608 C609 1.286 . S
C609 U606 2.984 . S
C609 O607 1.353 . S
C609 O608 1.286 . S
C609 C611 1.363 . S
C610 C600 1.465 1_455 S
C610 U606 2.847 . S
C610 O624 1.249 . S
C610 O625 1.204 1_455 S
C611 C609 1.363 . S
C611 C613 1.408 . S
C611 C616 1.342 . S
C612 C613 1.310 . S
C612 C615 1.461 . S
C612 H632 0.932 . S
C613 C611 1.408 . S
C613 C612 1.310 . S
C613 H633 0.930 . S
C614 C615 1.474 . S
C614 C616 1.285 . S
C614 H634 0.929 . S
C615 C612 1.461 . S
C615 C614 1.474 . S
C616 C611 1.342 . S
C616 C614 1.285 . S
C616 H635 0.930 . S
C617 C620 1.424 . S
C617 C622 1.245 . S
C617 C623 1.467 . S
C618 C621 1.260 . S
C618 C622 1.477 . S
C618 H636 0.932 . S
C619 C620 1.384 . S
C619 C621 1.479 . S
C619 H637 0.929 . S
C620 C617 1.424 . S
C620 C619 1.384 . S
C620 H638 0.928 . S
C621 C618 1.260 . S
C621 C619 1.479 . S
C622 C617 1.245 . S
C622 C618 1.477 . S
C622 H639 0.979 . S
C623 U606 2.851 1_655 S
C623 C617 1.467 . S
C623 O626 1.242 1_655 S
C623 O627 1.301 . S
O624 U606 2.441 . S
O624 C610 1.249 . S
O625 U606 2.425 1_655 S
O625 C610 1.204 1_655 S
O626 U606 2.455 . S
O626 C623 1.242 1_455 S
O627 U606 2.449 1_655 S
O627 C623 1.301 . S
H628 C601 0.931 . S
H629 C603 0.929 . S
H630 C604 0.930 . S
H631 C605 0.931 1_455 S
H632 C612 0.932 . S
H633 C613 0.930 . S
H634 C614 0.929 . S
H635 C616 0.930 . S
H636 C618 0.932 . S
H637 C619 0.929 . S
H638 C620 0.928 . S
H639 C622 0.979 . S
C640 C641 1.264 . S
C640 C645 1.479 . S
C640 C650 1.465 . S
C641 C640 1.264 . S
C641 C643 1.339 . S
C641 H668 0.931 . S
C642 C643 1.395 . S
C642 C644 1.320 . S
C643 C641 1.339 . S
C643 C642 1.395 . S
C643 H669 0.929 . S
C644 C642 1.320 . S
C644 C645 1.405 . S
C644 H670 0.930 . S
C645 C640 1.479 . S
C645 C644 1.405 . S
C645 H671 0.931 . S
U646 O647 2.454 . S
U646 O648 2.458 . S
U646 C649 2.984 . S
U646 C650 2.847 . S
U646 C663 2.882 . S
U646 O664 2.441 . S
U646 O665 2.420 . S
U646 O666 2.455 . S
U646 O667 2.449 . S
O647 U646 2.454 . S
O647 C649 1.353 . S
O648 U646 2.458 . S
O648 C649 1.286 . S
C649 U646 2.984 . S
C649 O647 1.353 . S
C649 O648 1.286 . S
C649 C651 1.363 . S
C650 C640 1.465 . S
C650 U646 2.847 . S
C650 O664 1.249 . S
C650 O665 1.202 . S
C651 C649 1.363 . S
C651 C653 1.408 . S
C651 C656 1.342 . S
C652 C653 1.310 . S
C652 C655 1.461 . S
C652 H672 0.932 . S
C653 C651 1.408 . S
C653 C652 1.310 . S
C653 H673 0.930 . S
C654 C655 1.474 . S
C654 C656 1.285 . S
C654 H674 0.929 . S
C655 C652 1.461 . S
C655 C654 1.474 . S
C656 C651 1.342 . S
C656 C654 1.285 . S
C656 H675 0.930 . S
C657 C660 1.424 . S
C657 C662 1.245 . S
C657 C663 1.428 . S
C658 C661 1.260 . S
C658 C662 1.477 . S
C658 H676 0.932 . S
C659 C660 1.384 . S
C659 C661 1.479 . S
C659 H677 0.929 . S
C660 C657 1.424 . S
C660 C659 1.384 . S
C660 H678 0.928 . S
C661 C658 1.260 . S
C661 C659 1.479 . S
C662 C657 1.245 . S
C662 C658 1.477 . S
C662 H679 0.932 . S
C663 U646 2.882 . S
C663 C657 1.428 . S
C663 O666 1.301 . S
C663 O667 1.282 . S
O664 U646 2.441 . S
O664 C650 1.249 . S
O665 U646 2.420 . S
O665 C650 1.202 . S
O666 U646 2.455 . S
O666 C663 1.301 . S
O667 U646 2.449 . S
O667 C663 1.282 . S
H668 C641 0.931 . S
H669 C643 0.929 . S
H670 C644 0.930 . S
H671 C645 0.931 . S
H672 C652 0.932 . S
H673 C653 0.930 . S
H674 C654 0.929 . S
H675 C656 0.930 . S
H676 C658 0.932 . S
H677 C659 0.929 . S
H678 C660 0.928 . S
H679 C662 0.932 . S
C680 C681 1.264 . S
C680 C685 1.479 . S
C680 C690 1.465 . S
C681 C680 1.264 . S
C681 C683 1.339 . S
C681 H708 0.931 . S
C682 C683 1.395 . S
C682 C684 1.320 . S
C683 C681 1.339 . S
C683 C682 1.395 . S
C683 H709 0.929 . S
C684 C682 1.320 . S
C684 C685 1.405 . S
C684 H710 0.930 . S
C685 C680 1.479 . S
C685 C684 1.405 . S
C685 H711 0.931 . S
U686 O687 2.454 . S
U686 O688 2.458 . S
U686 C689 2.984 . S
U686 C690 2.847 . S
U686 C703 2.882 . S
U686 O704 2.441 . S
U686 O705 2.420 . S
U686 O706 2.455 . S
U686 O707 2.449 . S
O687 U686 2.454 . S
O687 C689 1.353 . S
O688 U686 2.458 . S
O688 C689 1.286 . S
C689 U686 2.984 . S
C689 O687 1.353 . S
C689 O688 1.286 . S
C689 C691 1.363 . S
C690 C680 1.465 . S
C690 U686 2.847 . S
C690 O704 1.249 . S
C690 O705 1.202 . S
C691 C689 1.363 . S
C691 C693 1.408 . S
C691 C696 1.342 . S
C692 C693 1.310 . S
C692 C695 1.461 . S
C692 H712 0.932 . S
C693 C691 1.408 . S
C693 C692 1.310 . S
C693 H713 0.930 . S
C694 C695 1.474 . S
C694 C696 1.285 . S
C694 H714 0.929 . S
C695 C692 1.461 . S
C695 C694 1.474 . S
C696 C691 1.342 . S
C696 C694 1.285 . S
C696 H715 0.930 . S
C697 C700 1.424 . S
C697 C702 1.245 . S
C697 C703 1.428 . S
C698 C701 1.260 . S
C698 C702 1.477 . S
C698 H716 0.932 . S
C699 C700 1.384 . S
C699 C701 1.479 . S
C699 H717 0.929 . S
C700 C697 1.424 . S
C700 C699 1.384 . S
C700 H718 0.928 . S
C701 C698 1.260 . S
C701 C699 1.479 . S
C702 C697 1.245 . S
C702 C698 1.477 . S
C702 H719 0.932 . S
C703 U686 2.882 . S
C703 C697 1.428 . S
C703 O706 1.301 . S
C703 O707 1.282 . S
O704 U686 2.441 . S
O704 C690 1.249 . S
O705 U686 2.420 . S
O705 C690 1.202 . S
O706 U686 2.455 . S
O706 C703 1.301 . S
O707 U686 2.449 . S
O707 C703 1.282 . S
H708 C681 0.931 . S
H709 C683 0.929 . S
H710 C684 0.930 . S
H711 C685 0.931 . S
H712 C692 0.932 . S
H713 C693 0.930 . S
H714 C694 0.929 . S
H715 C696 0.930 . S
H716 C698 0.932 . S
H717 C699 0.929 . S
H718 C700 0.928 . S
H719 C702 0.932 . S
C720 C721 1.264 . S
C720 C725 1.479 . S
C720 C730 1.465 . S
C721 C720 1.264 . S
C721 C723 1.339 . S
C721 H748 0.931 . S
C722 C723 1.395 . S
C722 C724 1.320 . S
C723 C721 1.339 . S
C723 C722 1.395 . S
C723 H749 0.929 . S
C724 C722 1.320 . S
C724 C725 1.405 . S
C724 H750 0.930 . S
C725 C720 1.479 . S
C725 C724 1.405 . S
C725 H751 0.931 . S
U726 O727 2.454 . S
U726 O728 2.458 . S
U726 C729 2.984 . S
U726 C730 2.847 . S
U726 C743 2.882 . S
U726 O744 2.441 . S
U726 O745 2.420 . S
U726 O746 2.455 . S
U726 O747 2.449 . S
O727 U726 2.454 . S
O727 C729 1.353 . S
O728 U726 2.458 . S
O728 C729 1.286 . S
C729 U726 2.984 . S
C729 O727 1.353 . S
C729 O728 1.286 . S
C729 C731 1.363 . S
C730 C720 1.465 . S
C730 U726 2.847 . S
C730 O744 1.249 . S
C730 O745 1.202 . S
C731 C729 1.363 . S
C731 C733 1.408 1_556 S
C731 C736 1.342 . S
C732 C733 1.310 . S
C732 C735 1.461 . S
C732 H752 0.932 . S
C733 C731 1.408 1_554 S
C733 C732 1.310 . S
C733 H753 0.930 . S
C734 C735 1.474 . S
C734 C736 1.285 1_554 S
C734 H754 0.929 . S
C735 C732 1.461 . S
C735 C734 1.474 . S
C736 C731 1.342 . S
C736 C734 1.285 1_556 S
C736 H755 0.930 . S
C737 C740 1.424 . S
C737 C742 1.245 . S
C737 C743 1.428 . S
C738 C741 1.260 . S
C738 C742 1.477 . S
C738 H756 0.932 . S
C739 C740 1.384 . S
C739 C741 1.479 . S
C739 H757 0.929 . S
C740 C737 1.424 . S
C740 C739 1.384 . S
C740 H758 0.928 . S
C741 C738 1.260 . S
C741 C739 1.479 . S
C742 C737 1.245 . S
C742 C738 1.477 . S
C742 H759 0.932 . S
C743 U726 2.882 . S
C743 C737 1.428 . S
C743 O746 1.301 . S
C743 O747 1.282 . S
O744 U726 2.441 . S
O744 C730 1.249 . S
O745 U726 2.420 . S
O745 C730 1.202 . S
O746 U726 2.455 . S
O746 C743 1.301 . S
O747 U726 2.449 . S
O747 C743 1.282 . S
H748 C721 0.931 . S
H749 C723 0.929 . S
H750 C724 0.930 . S
H751 C725 0.931 . S
H752 C732 0.932 . S
H753 C733 0.930 . S
H754 C734 0.929 . S
H755 C736 0.930 . S
H756 C738 0.932 . S
H757 C739 0.929 . S
H758 C740 0.928 . S
H759 C742 0.932 . S
C760 C761 1.264 . S
C760 C765 1.479 . S
C760 C770 1.465 . S
C761 C760 1.264 . S
C761 C763 1.339 . S
C761 H788 0.931 . S
C762 C763 1.395 . S
C762 C764 1.320 . S
C763 C761 1.339 . S
C763 C762 1.395 . S
C763 H789 0.929 . S
C764 C762 1.320 . S
C764 C765 1.405 . S
C764 H790 0.930 . S
C765 C760 1.479 . S
C765 C764 1.405 . S
C765 H791 0.931 . S
U766 O767 2.454 . S
U766 O768 2.458 . S
U766 C769 2.984 . S
U766 C770 2.847 . S
U766 C783 2.882 . S
U766 O784 2.441 . S
U766 O785 2.420 . S
U766 O786 2.455 . S
U766 O787 2.449 . S
O767 U766 2.454 . S
O767 C769 1.353 . S
O768 U766 2.458 . S
O768 C769 1.286 . S
C769 U766 2.984 . S
C769 O767 1.353 . S
C769 O768 1.286 . S
C769 C771 1.363 . S
C770 C760 1.465 . S
C770 U766 2.847 . S
C770 O784 1.249 . S
C770 O785 1.202 . S
C771 C769 1.363 . S
C771 C773 1.408 . S
C771 C776 1.342 . S
C772 C773 1.310 . S
C772 C775 1.461 . S
C772 H792 0.932 . S
C773 C771 1.408 . S
C773 C772 1.310 . S
C773 H793 0.930 . S
C774 C775 1.474 . S
C774 C776 1.285 . S
C774 H794 0.929 . S
C775 C772 1.461 . S
C775 C774 1.474 . S
C776 C771 1.342 . S
C776 C774 1.285 . S
C776 H795 0.930 . S
C777 C780 1.424 . S
C777 C782 1.245 . S
C777 C783 1.428 . S
C778 C781 1.260 . S
C778 C782 1.477 . S
C778 H796 0.932 . S
C779 C780 1.384 . S
C779 C781 1.479 . S
C779 H797 0.929 . S
C780 C777 1.424 . S
C780 C779 1.384 . S
C780 H798 0.928 . S
C781 C778 1.260 . S
C781 C779 1.479 . S
C782 C777 1.245 . S
C782 C778 1.477 . S
C782 H799 0.932 . S
C783 U766 2.882 . S
C783 C777 1.428 . S
C783 O786 1.301 . S
C783 O787 1.282 . S
O784 U766 2.441 . S
O784 C770 1.249 . S
O785 U766 2.420 . S
O785 C770 1.202 . S
O786 U766 2.455 . S
O786 C783 1.301 . S
O787 U766 2.449 . S
O787 C783 1.282 . S
H788 C761 0.931 . S
H789 C763 0.929 . S
H790 C764 0.930 . S
H791 C765 0.931 . S
H792 C772 0.932 . S
H793 C773 0.930 . S
H794 C774 0.929 . S
H795 C776 0.930 . S
H796 C778 0.932 . S
H797 C779 0.929 . S
H798 C780 0.928 . S
H799 C782 0.932 . S
C800 C801 1.264 . S
C800 C805 1.479 . S
C800 C810 1.465 . S
C801 C800 1.264 . S
C801 C803 1.339 . S
C801 H828 0.931 . S
C802 C803 1.395 . S
C802 C804 1.320 . S
C803 C801 1.339 . S
C803 C802 1.395 . S
C803 H829 0.929 . S
C804 C802 1.320 . S
C804 C805 1.405 . S
C804 H830 0.930 . S
C805 C800 1.479 . S
C805 C804 1.405 . S
C805 H831 0.931 . S
U806 O807 2.454 . S
U806 O808 2.458 . S
U806 C809 2.984 . S
U806 C810 2.847 . S
U806 C823 2.882 . S
U806 O824 2.441 . S
U806 O825 2.420 . S
U806 O826 2.455 . S
U806 O827 2.449 . S
O807 U806 2.454 . S
O807 C809 1.353 . S
O808 U806 2.458 . S
O808 C809 1.286 . S
C809 U806 2.984 . S
C809 O807 1.353 . S
C809 O808 1.286 . S
C809 C811 1.363 . S
C810 C800 1.465 . S
C810 U806 2.847 . S
C810 O824 1.249 . S
C810 O825 1.202 . S
C811 C809 1.363 . S
C811 C813 1.408 . S
C811 C816 1.342 . S
C812 C813 1.310 . S
C812 C815 1.461 . S
C812 H832 0.932 . S
C813 C811 1.408 . S
C813 C812 1.310 . S
C813 H833 0.930 . S
C814 C815 1.474 . S
C814 C816 1.285 . S
C814 H834 0.929 . S
C815 C812 1.461 . S
C815 C814 1.474 . S
C816 C811 1.342 . S
C816 C814 1.285 . S
C816 H835 0.930 . S
C817 C820 1.424 . S
C817 C822 1.245 . S
C817 C823 1.428 . S
C818 C821 1.260 . S
C818 C822 1.477 . S
C818 H836 0.932 . S
C819 C820 1.384 . S
C819 C821 1.479 . S
C819 H837 0.929 . S
C820 C817 1.424 . S
C820 C819 1.384 . S
C820 H838 0.928 . S
C821 C818 1.260 . S
C821 C819 1.479 . S
C822 C817 1.245 . S
C822 C818 1.477 . S
C822 H839 0.932 . S
C823 U806 2.882 . S
C823 C817 1.428 . S
C823 O826 1.301 . S
C823 O827 1.282 . S
O824 U806 2.441 . S
O824 C810 1.249 . S
O825 U806 2.420 . S
O825 C810 1.202 . S
O826 U806 2.455 . S
O826 C823 1.301 . S
O827 U806 2.449 . S
O827 C823 1.282 . S
H828 C801 0.931 . S
H829 C803 0.929 . S
H830 C804 0.930 . S
H831 C805 0.931 . S
H832 C812 0.932 . S
H833 C813 0.930 . S
H834 C814 0.929 . S
H835 C816 0.930 . S
H836 C818 0.932 . S
H837 C819 0.929 . S
H838 C820 0.928 . S
H839 C822 0.932 . S
C840 C841 1.264 . S
C840 C845 1.479 . S
C840 C850 1.465 . S
C841 C840 1.264 . S
C841 C843 1.339 . S
C841 H868 0.931 . S
C842 C843 1.395 . S
C842 C844 1.320 . S
C843 C841 1.339 . S
C843 C842 1.395 . S
C843 H869 0.929 . S
C844 C842 1.320 . S
C844 C845 1.405 . S
C844 H870 0.930 . S
C845 C840 1.479 . S
C845 C844 1.405 . S
C845 H871 0.931 . S
U846 O847 2.454 . S
U846 O848 2.458 . S
U846 C849 2.984 . S
U846 C850 2.847 . S
U846 C863 2.882 . S
U846 O864 2.441 . S
U846 O865 2.420 . S
U846 O866 2.455 . S
U846 O867 2.449 . S
O847 U846 2.454 . S
O847 C849 1.353 . S
O848 U846 2.458 . S
O848 C849 1.286 . S
C849 U846 2.984 . S
C849 O847 1.353 . S
C849 O848 1.286 . S
C849 C851 1.363 . S
C850 C840 1.465 . S
C850 U846 2.847 . S
C850 O864 1.249 . S
C850 O865 1.202 . S
C851 C849 1.363 . S
C851 C853 1.408 . S
C851 C856 1.342 . S
C852 C853 1.310 . S
C852 C855 1.461 . S
C852 H872 0.932 . S
C853 C851 1.408 . S
C853 C852 1.310 . S
C853 H873 0.930 . S
C854 C855 1.474 . S
C854 C856 1.285 . S
C854 H874 0.929 . S
C855 C852 1.461 . S
C855 C854 1.474 . S
C856 C851 1.342 . S
C856 C854 1.285 . S
C856 H875 0.930 . S
C857 C860 1.424 . S
C857 C862 1.245 . S
C857 C863 1.428 . S
C858 C861 1.260 . S
C858 C862 1.477 . S
C858 H876 0.932 . S
C859 C860 1.384 . S
C859 C861 1.479 . S
C859 H877 0.929 . S
C860 C857 1.424 . S
C860 C859 1.384 . S
C860 H878 0.928 . S
C861 C858 1.260 . S
C861 C859 1.479 . S
C862 C857 1.245 . S
C862 C858 1.477 . S
C862 H879 0.932 . S
C863 U846 2.882 . S
C863 C857 1.428 . S
C863 O866 1.301 . S
C863 O867 1.282 . S
O864 U846 2.441 . S
O864 C850 1.249 . S
O865 U846 2.420 . S
O865 C850 1.202 . S
O866 U846 2.455 . S
O866 C863 1.301 . S
O867 U846 2.449 . S
O867 C863 1.282 . S
H868 C841 0.931 . S
H869 C843 0.929 . S
H870 C844 0.930 . S
H871 C845 0.931 . S
H872 C852 0.932 . S
H873 C853 0.930 . S
H874 C854 0.929 . S
H875 C856 0.930 . S
H876 C858 0.932 . S
H877 C859 0.929 . S
H878 C860 0.928 . S
H879 C862 0.932 . S
C880 C881 1.264 . S
C880 C885 1.479 . S
C880 C890 1.465 . S
C881 C880 1.264 . S
C881 C883 1.339 . S
C881 H908 0.931 . S
C882 C883 1.395 . S
C882 C884 1.320 . S
C883 C881 1.339 . S
C883 C882 1.395 . S
C883 H909 0.929 . S
C884 C882 1.320 . S
C884 C885 1.405 . S
C884 H910 0.930 . S
C885 C880 1.479 . S
C885 C884 1.405 . S
C885 H911 0.931 . S
U886 O887 2.454 . S
U886 O888 2.458 . S
U886 C889 2.984 . S
U886 C890 2.847 . S
U886 C903 2.882 . S
U886 O904 2.441 . S
U886 O905 2.420 . S
U886 O906 2.455 . S
U886 O907 2.449 . S
O887 U886 2.454 . S
O887 C889 1.353 . S
O888 U886 2.458 . S
O888 C889 1.286 . S
C889 U886 2.984 . S
C889 O887 1.353 . S
C889 O888 1.286 . S
C889 C891 1.363 . S
C890 C880 1.465 . S
C890 U886 2.847 . S
C890 O904 1.249 . S
C890 O905 1.202 . S
C891 C889 1.363 . S
C891 C893 1.408 . S
C891 C896 1.342 . S
C892 C893 1.310 . S
C892 C895 1.461 . S
C892 H912 0.932 . S
C893 C891 1.408 . S
C893 C892 1.310 . S
C893 H913 0.930 . S
C894 C895 1.474 . S
C894 C896 1.285 . S
C894 H914 0.929 . S
C895 C892 1.461 . S
C895 C894 1.474 . S
C896 C891 1.342 . S
C896 C894 1.285 . S
C896 H915 0.930 . S
C897 C900 1.424 . S
C897 C902 1.245 . S
C897 C903 1.428 . S
C898 C901 1.260 . S
C898 C902 1.477 . S
C898 H916 0.932 . S
C899 C900 1.384 . S
C899 C901 1.479 . S
C899 H917 0.929 . S
C900 C897 1.424 . S
C900 C899 1.384 . S
C900 H918 0.928 . S
C901 C898 1.260 . S
C901 C899 1.479 . S
C902 C897 1.245 . S
C902 C898 1.477 . S
C902 H919 0.932 . S
C903 U886 2.882 . S
C903 C897 1.428 . S
C903 O906 1.301 . S
C903 O907 1.282 . S
O904 U886 2.441 . S
O904 C890 1.249 . S
O905 U886 2.420 . S
O905 C890 1.202 . S
O906 U886 2.455 . S
O906 C903 1.301 . S
O907 U886 2.449 . S
O907 C903 1.282 . S
H908 C881 0.931 . S
H909 C883 0.929 . S
H910 C884 0.930 . S
H911 C885 0.931 . S
H912 C892 0.932 . S
H913 C893 0.930 . S
H914 C894 0.929 . S
H915 C896 0.930 . S
H916 C898 0.932 . S
H917 C899 0.929 . S
H918 C900 0.928 . S
H919 C902 0.932 . S
C920 C921 1.373 . S
C920 C925 1.421 1_565 S
C920 C930 1.373 1_565 S
C921 C920 1.373 . S
C921 C923 1.339 . S
C921 H948 0.931 . S
C922 C923 1.395 . S
C922 C924 1.320 1_565 S
C923 C921 1.339 . S
C923 C922 1.395 . S
C923 H949 0.929 . S
C924 C922 1.320 1_545 S
C924 C925 1.405 . S
C924 H950 0.930 . S
C925 C920 1.421 1_545 S
C925 C924 1.405 . S
C925 H951 0.931 . S
U926 O927 2.454 . S
U926 O928 2.458 . S
U926 C929 2.984 . S
U926 C930 2.884 . S
U926 C943 2.882 1_545 S
U926 O944 2.441 . S
U926 O945 2.420 1_545 S
U926 O946 2.455 1_545 S
U926 O947 2.449 1_545 S
O927 U926 2.454 . S
O927 C929 1.353 . S
O928 U926 2.458 . S
O928 C929 1.286 . S
C929 U926 2.984 . S
C929 O927 1.353 . S
C929 O928 1.286 . S
C929 C931 1.363 . S
C930 C920 1.373 1_545 S
C930 U926 2.884 . S
C930 O944 1.336 . S
C930 O945 1.159 1_545 S
C931 C929 1.363 . S
C931 C933 1.408 . S
C931 C936 1.342 . S
C932 C933 1.310 . S
C932 C935 1.461 . S
C932 H952 0.932 . S
C933 C931 1.408 . S
C933 C932 1.310 . S
C933 H953 0.930 . S
C934 C935 1.474 . S
C934 C936 1.285 . S
C934 H954 0.929 . S
C935 C932 1.461 . S
C935 C934 1.474 . S
C936 C931 1.342 . S
C936 C934 1.285 . S
C936 H955 0.930 . S
C937 C940 1.424 . S
C937 C942 1.245 . S
C937 C943 1.428 . S
C938 C941 1.260 . S
C938 C942 1.477 . S
C938 H956 0.932 . S
C939 C940 1.384 . S
C939 C941 1.479 . S
C939 H957 0.929 . S
C940 C937 1.424 . S
C940 C939 1.384 . S
C940 H958 0.928 . S
C941 C938 1.260 . S
C941 C939 1.479 . S
C942 C937 1.245 . S
C942 C938 1.477 . S
C942 H959 0.932 . S
C943 U926 2.882 1_565 S
C943 C937 1.428 . S
C943 O946 1.301 . S
C943 O947 1.282 . S
O944 U926 2.441 . S
O944 C930 1.336 . S
O945 U926 2.420 1_565 S
O945 C930 1.159 1_565 S
O946 U926 2.455 1_565 S
O946 C943 1.301 . S
O947 U926 2.449 1_565 S
O947 C943 1.282 . S
H948 C921 0.931 . S
H949 C923 0.929 . S
H950 C924 0.930 . S
H951 C925 0.931 . S
H952 C932 0.932 . S
H953 C933 0.930 . S
H954 C934 0.929 . S
H955 C936 0.930 . S
H956 C938 0.932 . S
H957 C939 0.929 . S
H958 C940 0.928 . S
H959 C942 0.932 . S
C960 C961 1.264 . S
C960 C965 1.479 . S
C960 C970 1.465 . S
C961 C960 1.264 . S
C961 C963 1.339 . S
C961 H988 0.931 . S
C962 C963 1.395 . S
C962 C964 1.320 . S
C963 C961 1.339 . S
C963 C962 1.395 . S
C963 H989 0.929 . S
C964 C962 1.320 . S
C964 C965 1.405 . S
C964 H990 0.930 . S
C965 C960 1.479 . S
C965 C964 1.405 . S
C965 H991 0.925 . S
U966 O967 2.454 . S
U966 O968 2.458 . S
U966 C969 2.984 . S
U966 C970 2.847 1_545 S
U966 C983 2.882 1_545 S
U966 O984 2.441 . S
U966 O985 2.420 1_545 S
U966 O986 2.406 1_545 S
U966 O987 2.449 1_545 S
O967 U966 2.454 . S
O967 C969 1.353 . S
O968 U966 2.458 . S
O968 C969 1.286 . S
C969 U966 2.984 . S
C969 O967 1.353 . S
C969 O968 1.286 . S
C969 C971 1.363 . S
C970 C960 1.465 . S
C970 U966 2.847 1_565 S
C970 O984 1.249 1_565 S
C970 O985 1.202 . S
C971 C969 1.363 . S
C971 C973 1.408 . S
C971 C976 1.342 . S
C972 C973 1.310 . S
C972 C975 1.461 . S
C972 H992 0.932 . S
C973 C971 1.408 . S
C973 C972 1.310 . S
C973 H993 0.930 . S
C974 C975 1.474 . S
C974 C976 1.285 . S
C974 H994 0.929 . S
C975 C972 1.461 . S
C975 C974 1.474 . S
C976 C971 1.342 . S
C976 C974 1.285 . S
C976 H995 0.930 . S
C977 C980 1.424 . S
C977 C982 1.245 . S
C977 C983 1.428 . S
C978 C981 1.260 . S
C978 C982 1.477 . S
C978 H996 0.932 . S
C979 C980 1.384 . S
C979 C981 1.479 . S
C979 H997 0.929 . S
C980 C977 1.424 . S
C980 C979 1.384 . S
C980 H998 0.928 . S
C981 C978 1.260 . S
C981 C979 1.479 . S
C982 C977 1.245 . S
C982 C978 1.477 . S
C982 H999 0.932 . S
C983 U966 2.882 1_565 S
C983 C977 1.428 . S
C983 O986 1.391 . S
C983 O987 1.282 . S
O984 U966 2.441 . S
O984 C970 1.249 1_545 S
O985 U966 2.420 1_565 S
O985 C970 1.202 . S
O986 U966 2.406 1_565 S
O986 C983 1.391 . S
O987 U966 2.449 1_565 S
O987 C983 1.282 . S
H988 C961 0.931 . S
H989 C963 0.929 . S
H990 C964 0.930 . S
H991 C965 0.925 . S
H992 C972 0.932 . S
H993 C973 0.930 . S
H994 C974 0.929 . S
H995 C976 0.930 . S
H996 C978 0.932 . S
H997 C979 0.929 . S
H998 C980 0.928 . S
H999 C982 0.932 . S
C1000 C1001 1.264 . S
C1000 C1005 1.479 . S
C1000 C1010 1.465 . S
C1001 C1000 1.264 . S
C1001 C1003 1.339 . S
C1001 H1028 0.931 . S
C1002 C1003 1.395 . S
C1002 C1004 1.320 . S
C1003 C1001 1.339 . S
C1003 C1002 1.395 . S
C1003 H1029 0.929 . S
C1004 C1002 1.320 . S
C1004 C1005 1.405 . S
C1004 H1030 0.930 . S
C1005 C1000 1.479 . S
C1005 C1004 1.405 . S
C1005 H1031 0.931 . S
U1006 O1007 2.454 1_545 S
U1006 O1008 2.457 . S
U1006 C1009 2.980 1_545 S
U1006 C1010 2.848 1_545 S
U1006 C1023 2.882 . S
U1006 O1024 2.442 1_545 S
U1006 O1025 2.421 1_545 S
U1006 O1026 2.454 . S
U1006 O1027 2.449 . S
O1007 U1006 2.454 1_565 S
O1007 C1009 1.344 . S
O1008 U1006 2.457 . S
O1008 C1009 1.291 1_545 S
C1009 U1006 2.980 1_565 S
C1009 O1007 1.344 . S
C1009 O1008 1.291 1_565 S
C1009 C1011 1.371 1_565 S
C1010 C1000 1.465 . S
C1010 U1006 2.848 1_565 S
C1010 O1024 1.249 . S
C1010 O1025 1.202 . S
C1011 C1009 1.371 1_545 S
C1011 C1013 1.413 1_545 S
C1011 C1016 1.333 . S
C1012 C1013 1.310 . S
C1012 C1015 1.427 1_565 S
C1012 H1032 0.932 . S
C1013 C1011 1.413 1_565 S
C1013 C1012 1.310 . S
C1013 H1033 0.930 . S
C1014 C1015 1.492 . S
C1014 C1016 1.285 . S
C1014 H1034 0.929 . S
C1015 C1012 1.427 1_545 S
C1015 C1014 1.492 . S
C1016 C1011 1.333 . S
C1016 C1014 1.285 . S
C1016 H1035 0.930 . S
C1017 C1020 1.424 . S
C1017 C1022 1.245 . S
C1017 C1023 1.428 . S
C1018 C1021 1.260 . S
C1018 C1022 1.477 . S
C1018 H1036 0.932 . S
C1019 C1020 1.384 . S
C1019 C1021 1.479 . S
C1019 H1037 0.929 . S
C1020 C1017 1.424 . S
C1020 C1019 1.384 . S
C1020 H1038 0.928 . S
C1021 C1018 1.260 . S
C1021 C1019 1.479 . S
C1022 C1017 1.245 . S
C1022 C1018 1.477 . S
C1022 H1039 0.932 . S
C1023 U1006 2.882 . S
C1023 C1017 1.428 . S
C1023 O1026 1.301 . S
C1023 O1027 1.282 . S
O1024 U1006 2.442 1_565 S
O1024 C1010 1.249 . S
O1025 U1006 2.421 1_565 S
O1025 C1010 1.202 . S
O1026 U1006 2.454 . S
O1026 C1023 1.301 . S
O1027 U1006 2.449 . S
O1027 C1023 1.282 . S
H1028 C1001 0.931 . S
H1029 C1003 0.929 . S
H1030 C1004 0.930 . S
H1031 C1005 0.931 . S
H1032 C1012 0.932 . S
H1033 C1013 0.930 . S
H1034 C1014 0.929 . S
H1035 C1016 0.930 . S
H1036 C1018 0.932 . S
H1037 C1019 0.929 . S
H1038 C1020 0.928 . S
H1039 C1022 0.932 . S
C1040 C1041 1.264 . S
C1040 C1045 1.479 . S
C1040 C1050 1.465 . S
C1041 C1040 1.264 . S
C1041 C1043 1.339 . S
C1041 H1068 0.931 . S
C1042 C1043 1.395 . S
C1042 C1044 1.320 . S
C1043 C1041 1.339 . S
C1043 C1042 1.395 . S
C1043 H1069 0.929 . S
C1044 C1042 1.320 . S
C1044 C1045 1.405 . S
C1044 H1070 0.930 . S
C1045 C1040 1.479 . S
C1045 C1044 1.405 . S
C1045 H1071 0.931 . S
U1046 O1047 2.471 . S
U1046 O1048 2.441 1_565 S
U1046 C1049 2.984 1_565 S
U1046 C1050 2.881 . S
U1046 C1063 2.848 1_565 S
U1046 O1064 2.480 . S
U1046 O1065 2.443 . S
U1046 O1066 2.416 1_565 S
U1046 O1067 2.427 1_565 S
O1047 U1046 2.471 . S
O1047 C1049 1.353 1_565 S
O1048 U1046 2.441 1_545 S
O1048 C1049 1.286 . S
C1049 U1046 2.984 1_545 S
C1049 O1047 1.353 1_545 S
C1049 O1048 1.286 . S
C1049 C1051 1.363 . S
C1050 C1040 1.465 . S
C1050 U1046 2.881 . S
C1050 O1064 1.249 . S
C1050 O1065 1.202 . S
C1051 C1049 1.363 . S
C1051 C1053 1.408 . S
C1051 C1056 1.342 . S
C1052 C1053 1.310 . S
C1052 C1055 1.461 . S
C1052 H1072 0.932 . S
C1053 C1051 1.408 . S
C1053 C1052 1.310 . S
C1053 H1073 0.857 1_545 S
C1054 C1055 1.474 . S
C1054 C1056 1.285 . S
C1054 H1074 0.929 . S
C1055 C1052 1.461 . S
C1055 C1054 1.474 . S
C1056 C1051 1.342 . S
C1056 C1054 1.285 . S
C1056 H1075 0.930 . S
C1057 C1060 1.424 . S
C1057 C1062 1.245 . S
C1057 C1063 1.428 . S
C1058 C1061 1.260 . S
C1058 C1062 1.477 . S
C1058 H1076 0.932 . S
C1059 C1060 1.384 . S
C1059 C1061 1.479 . S
C1059 H1077 0.929 . S
C1060 C1057 1.424 . S
C1060 C1059 1.384 . S
C1060 H1078 0.928 . S
C1061 C1058 1.260 . S
C1061 C1059 1.479 . S
C1062 C1057 1.245 . S
C1062 C1058 1.477 . S
C1062 H1079 0.932 . S
C1063 U1046 2.848 1_545 S
C1063 C1057 1.428 . S
C1063 O1066 1.301 . S
C1063 O1067 1.282 . S
O1064 U1046 2.480 . S
O1064 C1050 1.249 . S
O1065 U1046 2.443 . S
O1065 C1050 1.202 . S
O1066 U1046 2.416 1_545 S
O1066 C1063 1.301 . S
O1067 U1046 2.427 1_545 S
O1067 C1063 1.282 . S
H1068 C1041 0.931 . S
H1069 C1043 0.929 . S
H1070 C1044 0.930 . S
H1071 C1045 0.931 . S
H1072 C1052 0.932 . S
H1073 C1053 0.857 1_565 S
H1074 C1054 0.929 . S
H1075 C1056 0.930 . S
H1076 C1058 0.932 . S
H1077 C1059 0.929 . S
H1078 C1060 0.928 . S
H1079 C1062 0.932 . S
C1080 C1081 1.264 . S
C1080 C1085 1.479 . S
C1080 C1090 1.465 . S
C1081 C1080 1.264 . S
C1081 C1083 1.339 . S
C1081 H1108 0.931 . S
C1082 C1083 1.395 . S
C1082 C1084 1.320 . S
C1083 C1081 1.339 . S
C1083 C1082 1.395 . S
C1083 H1109 0.929 . S
C1084 C1082 1.320 . S
C1084 C1085 1.405 . S
C1084 H1110 0.930 . S
C1085 C1080 1.479 . S
C1085 C1084 1.405 . S
C1085 H1111 0.931 . S
U1086 O1087 2.336 1_556 S
U1086 O1088 2.531 . S
U1086 C1089 2.984 1_556 S
U1086 C1090 2.847 . S
U1086 C1103 2.882 . S
U1086 O1104 2.441 . S
U1086 O1105 2.420 . S
U1086 O1106 2.455 . S
U1086 O1107 2.449 . S
O1087 U1086 2.336 1_554 S
O1087 C1089 1.410 . S
O1088 U1086 2.531 . S
O1088 C1089 1.220 1_556 S
C1089 U1086 2.984 1_554 S
C1089 O1087 1.410 . S
C1089 O1088 1.220 1_554 S
C1089 C1091 1.363 . S
C1090 C1080 1.465 . S
C1090 U1086 2.847 . S
C1090 O1104 1.249 . S
C1090 O1105 1.202 . S
C1091 C1089 1.363 . S
C1091 C1093 1.408 . S
C1091 C1096 1.342 . S
C1092 C1093 1.310 . S
C1092 C1095 1.461 . S
C1092 H1112 0.932 . S
C1093 C1091 1.408 . S
C1093 C1092 1.310 . S
C1093 H1113 0.930 . S
C1094 C1095 1.474 . S
C1094 C1096 1.285 . S
C1094 H1114 0.929 . S
C1095 C1092 1.461 . S
C1095 C1094 1.474 . S
C1096 C1091 1.342 . S
C1096 C1094 1.285 . S
C1096 H1115 0.930 . S
C1097 C1100 1.424 . S
C1097 C1102 1.245 . S
C1097 C1103 1.428 . S
C1098 C1101 1.260 . S
C1098 C1102 1.477 . S
C1098 H1116 0.932 . S
C1099 C1100 1.384 . S
C1099 C1101 1.479 . S
C1099 H1117 0.929 . S
C1100 C1097 1.424 . S
C1100 C1099 1.384 . S
C1100 H1118 0.928 . S
C1101 C1098 1.260 . S
C1101 C1099 1.479 . S
C1102 C1097 1.245 . S
C1102 C1098 1.477 . S
C1102 H1119 0.932 . S
C1103 U1086 2.882 . S
C1103 C1097 1.428 . S
C1103 O1106 1.301 . S
C1103 O1107 1.282 . S
O1104 U1086 2.441 . S
O1104 C1090 1.249 . S
O1105 U1086 2.420 . S
O1105 C1090 1.202 . S
O1106 U1086 2.455 . S
O1106 C1103 1.301 . S
O1107 U1086 2.449 . S
O1107 C1103 1.282 . S
H1108 C1081 0.931 . S
H1109 C1083 0.929 . S
H1110 C1084 0.930 . S
H1111 C1085 0.931 . S
H1112 C1092 0.932 . S
H1113 C1093 0.930 . S
H1114 C1094 0.929 . S
H1115 C1096 0.930 . S
H1116 C1098 0.932 . S
H1117 C1099 0.929 . S
H1118 C1100 0.928 . S
H1119 C1102 0.932 . S
C1120 C1121 1.264 . S
C1120 C1125 1.479 . S
C1120 C1130 1.465 . S
C1121 C1120 1.264 . S
C1121 C1123 1.339 . S
C1121 H1148 0.931 . S
C1122 C1123 1.395 . S
C1122 C1124 1.320 . S
C1123 C1121 1.339 . S
C1123 C1122 1.395 . S
C1123 H1149 0.929 . S
C1124 C1122 1.320 . S
C1124 C1125 1.405 . S
C1124 H1150 0.930 . S
C1125 C1120 1.479 . S
C1125 C1124 1.405 . S
C1125 H1151 0.931 . S
U1126 O1127 2.454 . S
U1126 O1128 2.458 . S
U1126 C1129 2.984 . S
U1126 C1130 2.847 . S
U1126 C1143 2.882 . S
U1126 O1144 2.441 . S
U1126 O1145 2.420 . S
U1126 O1146 2.455 . S
U1126 O1147 2.449 . S
O1127 U1126 2.454 . S
O1127 C1129 1.353 . S
O1128 U1126 2.458 . S
O1128 C1129 1.286 . S
C1129 U1126 2.984 . S
C1129 O1127 1.353 . S
C1129 O1128 1.286 . S
C1129 C1131 1.363 . S
C1130 C1120 1.465 . S
C1130 U1126 2.847 . S
C1130 O1144 1.249 . S
C1130 O1145 1.202 . S
C1131 C1129 1.363 . S
C1131 C1133 1.408 . S
C1131 C1136 1.342 . S
C1132 C1133 1.310 . S
C1132 C1135 1.461 . S
C1132 H1152 0.932 . S
C1133 C1131 1.408 . S
C1133 C1132 1.310 . S
C1133 H1153 0.930 . S
C1134 C1135 1.474 . S
C1134 C1136 1.285 . S
C1134 H1154 0.929 . S
C1135 C1132 1.461 . S
C1135 C1134 1.474 . S
C1136 C1131 1.342 . S
C1136 C1134 1.285 . S
C1136 H1155 0.930 . S
C1137 C1140 1.424 . S
C1137 C1142 1.245 . S
C1137 C1143 1.428 . S
C1138 C1141 1.260 . S
C1138 C1142 1.477 . S
C1138 H1156 0.932 . S
C1139 C1140 1.384 . S
C1139 C1141 1.479 . S
C1139 H1157 0.929 . S
C1140 C1137 1.424 . S
C1140 C1139 1.384 . S
C1140 H1158 0.928 . S
C1141 C1138 1.260 . S
C1141 C1139 1.479 . S
C1142 C1137 1.245 . S
C1142 C1138 1.477 . S
C1142 H1159 0.932 . S
C1143 U1126 2.882 . S
C1143 C1137 1.428 . S
C1143 O1146 1.301 . S
C1143 O1147 1.282 . S
O1144 U1126 2.441 . S
O1144 C1130 1.249 . S
O1145 U1126 2.420 . S
O1145 C1130 1.202 . S
O1146 U1126 2.455 . S
O1146 C1143 1.301 . S
O1147 U1126 2.449 . S
O1147 C1143 1.282 . S
H1148 C1121 0.931 . S
H1149 C1123 0.929 . S
H1150 C1124 0.930 . S
H1151 C1125 0.931 . S
H1152 C1132 0.932 . S
H1153 C1133 0.930 . S
H1154 C1134 0.929 . S
H1155 C1136 0.930 . S
H1156 C1138 0.932 . S
H1157 C1139 0.929 . S
H1158 C1140 0.928 . S
H1159 C1142 0.932 . S
C1160 C1161 1.264 . S
C1160 C1165 1.479 . S
C1160 C1170 1.465 . S
C1161 C1160 1.264 . S
C1161 C1163 1.339 . S
C1161 H1188 0.931 . S
C1162 C1163 1.395 . S
C1162 C1164 1.320 . S
C1163 C1161 1.339 . S
C1163 C1162 1.395 . S
C1163 H1189 0.929 . S
C1164 C1162 1.320 . S
C1164 C1165 1.405 . S
C1164 H1190 0.930 . S
C1165 C1160 1.479 . S
C1165 C1164 1.405 . S
C1165 H1191 0.931 . S
U1166 O1167 2.454 . S
U1166 O1168 2.458 . S
U1166 C1169 2.984 . S
U1166 C1170 2.847 . S
U1166 C1183 2.882 . S
U1166 O1184 2.441 . S
U1166 O1185 2.420 . S
U1166 O1186 2.455 . S
U1166 O1187 2.449 . S
O1167 U1166 2.454 . S
O1167 C1169 1.353 . S
O1168 U1166 2.458 . S
O1168 C1169 1.286 . S
C1169 U1166 2.984 . S
C1169 O1167 1.353 . S
C1169 O1168 1.286 . S
C1169 C1171 1.363 . S
C1170 C1160 1.465 . S
C1170 U1166 2.847 . S
C1170 O1184 1.249 . S
C1170 O1185 1.202 . S
C1171 C1169 1.363 . S
C1171 C1173 1.408 . S
C1171 C1176 1.342 . S
C1172 C1173 1.310 . S
C1172 C1175 1.461 . S
C1172 H1192 0.932 . S
C1173 C1171 1.408 . S
C1173 C1172 1.310 . S
C1173 H1193 0.930 . S
C1174 C1175 1.474 . S
C1174 C1176 1.285 . S
C1174 H1194 0.929 . S
C1175 C1172 1.461 . S
C1175 C1174 1.474 . S
C1176 C1171 1.342 . S
C1176 C1174 1.285 . S
C1176 H1195 0.930 . S
C1177 C1180 1.424 . S
C1177 C1182 1.245 . S
C1177 C1183 1.428 . S
C1178 C1181 1.260 . S
C1178 C1182 1.477 . S
C1178 H1196 0.932 . S
C1179 C1180 1.384 . S
C1179 C1181 1.479 . S
C1179 H1197 0.929 . S
C1180 C1177 1.424 . S
C1180 C1179 1.384 . S
C1180 H1198 0.928 . S
C1181 C1178 1.260 . S
C1181 C1179 1.479 . S
C1182 C1177 1.245 . S
C1182 C1178 1.477 . S
C1182 H1199 0.932 . S
C1183 U1166 2.882 . S
C1183 C1177 1.428 . S
C1183 O1186 1.301 . S
C1183 O1187 1.282 . S
O1184 U1166 2.441 . S
O1184 C1170 1.249 . S
O1185 U1166 2.420 . S
O1185 C1170 1.202 . S
O1186 U1166 2.455 . S
O1186 C1183 1.301 . S
O1187 U1166 2.449 . S
O1187 C1183 1.282 . S
H1188 C1161 0.931 . S
H1189 C1163 0.929 . S
H1190 C1164 0.930 . S
H1191 C1165 0.931 . S
H1192 C1172 0.932 . S
H1193 C1173 0.930 . S
H1194 C1174 0.929 . S
H1195 C1176 0.930 . S
H1196 C1178 0.932 . S
H1197 C1179 0.929 . S
H1198 C1180 0.928 . S
H1199 C1182 0.932 . S
C1200 C1201 1.264 . S
C1200 C1205 1.479 . S
C1200 C1210 1.465 . S
C1201 C1200 1.264 . S
C1201 C1203 1.339 . S
C1201 H1228 0.931 . S
C1202 C1203 1.395 . S
C1202 C1204 1.320 . S
C1203 C1201 1.339 . S
C1203 C1202 1.395 . S
C1203 H1229 0.929 . S
C1204 C1202 1.320 . S
C1204 C1205 1.405 . S
C1204 H1230 0.930 . S
C1205 C1200 1.479 . S
C1205 C1204 1.405 . S
C1205 H1231 0.931 . S
U1206 O1207 2.454 . S
U1206 O1208 2.458 . S
U1206 C1209 2.984 . S
U1206 C1210 2.847 . S
U1206 C1223 2.882 . S
U1206 O1224 2.441 . S
U1206 O1225 2.420 . S
U1206 O1226 2.455 . S
U1206 O1227 2.449 . S
O1207 U1206 2.454 . S
O1207 C1209 1.353 . S
O1208 U1206 2.458 . S
O1208 C1209 1.286 . S
C1209 U1206 2.984 . S
C1209 O1207 1.353 . S
C1209 O1208 1.286 . S
C1209 C1211 1.363 . S
C1210 C1200 1.465 . S
C1210 U1206 2.847 . S
C1210 O1224 1.249 . S
C1210 O1225 1.202 . S
C1211 C1209 1.363 . S
C1211 C1213 1.408 . S
C1211 C1216 1.342 . S
C1212 C1213 1.310 . S
C1212 C1215 1.461 . S
C1212 H1232 0.932 . S
C1213 C1211 1.408 . S
C1213 C1212 1.310 . S
C1213 H1233 0.930 . S
C1214 C1215 1.474 . S
C1214 C1216 1.285 . S
C1214 H1234 0.929 . S
C1215 C1212 1.461 . S
C1215 C1214 1.474 . S
C1216 C1211 1.342 . S
C1216 C1214 1.285 . S
C1216 H1235 0.930 . S
C1217 C1220 1.424 . S
C1217 C1222 1.245 . S
C1217 C1223 1.428 . S
C1218 C1221 1.260 . S
C1218 C1222 1.477 . S
C1218 H1236 0.932 . S
C1219 C1220 1.384 . S
C1219 C1221 1.479 . S
C1219 H1237 0.929 . S
C1220 C1217 1.424 . S
C1220 C1219 1.384 . S
C1220 H1238 0.928 . S
C1221 C1218 1.260 . S
C1221 C1219 1.479 . S
C1222 C1217 1.245 . S
C1222 C1218 1.477 . S
C1222 H1239 0.932 . S
C1223 U1206 2.882 . S
C1223 C1217 1.428 . S
C1223 O1226 1.301 . S
C1223 O1227 1.282 . S
O1224 U1206 2.441 . S
O1224 C1210 1.249 . S
O1225 U1206 2.420 . S
O1225 C1210 1.202 . S
O1226 U1206 2.455 . S
O1226 C1223 1.301 . S
O1227 U1206 2.449 . S
O1227 C1223 1.282 . S
H1228 C1201 0.931 . S
H1229 C1203 0.929 . S
H1230 C1204 0.930 . S
H1231 C1205 0.931 . S
H1232 C1212 0.932 . S
H1233 C1213 0.930 . S
H1234 C1214 0.929 . S
H1235 C1216 0.930 . S
H1236 C1218 0.932 . S
H1237 C1219 0.929 . S
H1238 C1220 0.928 . S
H1239 C1222 0.932 . S
C1240 C1241 1.264 . S
C1240 C1245 1.479 . S
C1240 C1250 1.465 . S
C1241 C1240 1.264 . S
C1241 C1243 1.339 . S
C1241 H1268 0.931 . S
C1242 C1243 1.395 . S
C1242 C1244 1.320 . S
C1243 C1241 1.339 . S
C1243 C1242 1.395 . S
C1243 H1269 0.929 . S
C1244 C1242 1.320 . S
C1244 C1245 1.405 . S
C1244 H1270 0.930 . S
C1245 C1240 1.479 . S
C1245 C1244 1.405 . S
C1245 H1271 0.931 . S
U1246 O1247 2.454 1_655 S
U1246 O1248 2.458 1_655 S
U1246 C1249 2.984 1_655 S
U1246 C1250 2.847 . S
U1246 C1263 2.882 . S
U1246 O1264 2.441 . S
U1246 O1265 2.420 . S
U1246 O1266 2.455 . S
U1246 O1267 2.449 . S
O1247 U1246 2.454 1_455 S
O1247 C1249 1.353 . S
O1248 U1246 2.458 1_455 S
O1248 C1249 1.286 . S
C1249 U1246 2.984 1_455 S
C1249 O1247 1.353 . S
C1249 O1248 1.286 . S
C1249 C1251 1.363 . S
C1250 C1240 1.465 . S
C1250 U1246 2.847 . S
C1250 O1264 1.249 . S
C1250 O1265 1.202 . S
C1251 C1249 1.363 . S
C1251 C1253 1.408 . S
C1251 C1256 1.342 . S
C1252 C1253 1.310 . S
C1252 C1255 1.461 . S
C1252 H1272 0.932 . S
C1253 C1251 1.408 . S
C1253 C1252 1.310 . S
C1253 H1273 0.930 . S
C1254 C1255 1.474 . S
C1254 C1256 1.285 . S
C1254 H1274 0.929 . S
C1255 C1252 1.461 . S
C1255 C1254 1.474 . S
C1256 C1251 1.342 . S
C1256 C1254 1.285 . S
C1256 H1275 0.930 . S
C1257 C1260 1.424 . S
C1257 C1262 1.245 . S
C1257 C1263 1.428 . S
C1258 C1261 1.260 . S
C1258 C1262 1.477 . S
C1258 H1276 0.932 . S
C1259 C1260 1.384 . S
C1259 C1261 1.479 . S
C1259 H1277 0.929 . S
C1260 C1257 1.424 . S
C1260 C1259 1.384 . S
C1260 H1278 0.928 . S
C1261 C1258 1.260 . S
C1261 C1259 1.479 . S
C1262 C1257 1.245 . S
C1262 C1258 1.477 . S
C1262 H1279 0.932 . S
C1263 U1246 2.882 . S
C1263 C1257 1.428 . S
C1263 O1266 1.301 . S
C1263 O1267 1.282 . S
O1264 U1246 2.441 . S
O1264 C1250 1.249 . S
O1265 U1246 2.420 . S
O1265 C1250 1.202 . S
O1266 U1246 2.455 . S
O1266 C1263 1.301 . S
O1267 U1246 2.449 . S
O1267 C1263 1.282 . S
H1268 C1241 0.931 . S
H1269 C1243 0.929 . S
H1270 C1244 0.930 . S
H1271 C1245 0.931 . S
H1272 C1252 0.932 . S
H1273 C1253 0.930 . S
H1274 C1254 0.929 . S
H1275 C1256 0.930 . S
H1276 C1258 0.932 . S
H1277 C1259 0.929 . S
H1278 C1260 0.928 . S
H1279 C1262 0.932 . S
C1280 C1281 1.264 . S
C1280 C1285 1.479 . S
C1280 C1290 1.465 . S
C1281 C1280 1.264 . S
C1281 C1283 1.339 . S
C1281 H1308 0.931 . S
C1282 C1283 1.395 . S
C1282 C1284 1.320 . S
C1283 C1281 1.339 . S
C1283 C1282 1.395 . S
C1283 H1309 0.929 . S
C1284 C1282 1.320 . S
C1284 C1285 1.405 . S
C1284 H1310 0.930 . S
C1285 C1280 1.479 . S
C1285 C1284 1.405 . S
C1285 H1311 0.931 . S
U1286 O1287 2.454 . S
U1286 O1288 2.458 . S
U1286 C1289 2.984 . S
U1286 C1290 2.847 . S
U1286 C1303 2.882 . S
U1286 O1304 2.441 . S
U1286 O1305 2.420 . S
U1286 O1306 2.455 . S
U1286 O1307 2.449 . S
O1287 U1286 2.454 . S
O1287 C1289 1.353 . S
O1288 U1286 2.458 . S
O1288 C1289 1.286 . S
C1289 U1286 2.984 . S
C1289 O1287 1.353 . S
C1289 O1288 1.286 . S
C1289 C1291 1.363 . S
C1290 C1280 1.465 . S
C1290 U1286 2.847 . S
C1290 O1304 1.249 . S
C1290 O1305 1.202 . S
C1291 C1289 1.363 . S
C1291 C1293 1.408 . S
C1291 C1296 1.342 . S
C1292 C1293 1.310 . S
C1292 C1295 1.461 . S
C1292 H1312 0.932 . S
C1293 C1291 1.408 . S
C1293 C1292 1.310 . S
C1293 H1313 0.930 . S
C1294 C1295 1.474 . S
C1294 C1296 1.285 . S
C1294 H1314 0.929 . S
C1295 C1292 1.461 . S
C1295 C1294 1.474 . S
C1296 C1291 1.342 . S
C1296 C1294 1.285 . S
C1296 H1315 0.930 . S
C1297 C1300 1.424 . S
C1297 C1302 1.245 . S
C1297 C1303 1.428 . S
C1298 C1301 1.260 . S
C1298 C1302 1.477 . S
C1298 H1316 0.932 . S
C1299 C1300 1.384 . S
C1299 C1301 1.479 . S
C1299 H1317 0.929 . S
C1300 C1297 1.424 . S
C1300 C1299 1.384 . S
C1300 H1318 0.928 . S
C1301 C1298 1.260 . S
C1301 C1299 1.479 . S
C1302 C1297 1.245 . S
C1302 C1298 1.477 . S
C1302 H1319 0.932 . S
C1303 U1286 2.882 . S
C1303 C1297 1.428 . S
C1303 O1306 1.301 . S
C1303 O1307 1.282 . S
O1304 U1286 2.441 . S
O1304 C1290 1.249 . S
O1305 U1286 2.420 . S
O1305 C1290 1.202 . S
O1306 U1286 2.455 . S
O1306 C1303 1.301 . S
O1307 U1286 2.449 . S
O1307 C1303 1.282 . S
H1308 C1281 0.931 . S
H1309 C1283 0.929 . S
H1310 C1284 0.930 . S
H1311 C1285 0.931 . S
H1312 C1292 0.932 . S
H1313 C1293 0.930 . S
H1314 C1294 0.929 . S
H1315 C1296 0.930 . S
H1316 C1298 0.932 . S
H1317 C1299 0.929 . S
H1318 C1300 0.928 . S
H1319 C1302 0.932 . S
C1320 C1321 1.264 . S
C1320 C1325 1.479 . S
C1320 C1330 1.465 . S
C1321 C1320 1.264 . S
C1321 C1323 1.339 . S
C1321 H1348 0.931 . S
C1322 C1323 1.395 . S
C1322 C1324 1.320 . S
C1323 C1321 1.339 . S
C1323 C1322 1.395 . S
C1323 H1349 0.929 . S
C1324 C1322 1.320 . S
C1324 C1325 1.405 . S
C1324 H1350 0.930 . S
C1325 C1320 1.479 . S
C1325 C1324 1.405 . S
C1325 H1351 0.931 . S
U1326 O1327 2.454 . S
U1326 O1328 2.458 . S
U1326 C1329 2.984 . S
U1326 C1330 2.847 . S
U1326 C1343 2.882 . S
U1326 O1344 2.441 . S
U1326 O1345 2.420 . S
U1326 O1346 2.455 . S
U1326 O1347 2.449 . S
O1327 U1326 2.454 . S
O1327 C1329 1.353 . S
O1328 U1326 2.458 . S
O1328 C1329 1.286 . S
C1329 U1326 2.984 . S
C1329 O1327 1.353 . S
C1329 O1328 1.286 . S
C1329 C1331 1.363 1_556 S
C1330 C1320 1.465 . S
C1330 U1326 2.847 . S
C1330 O1344 1.249 . S
C1330 O1345 1.202 . S
C1331 C1329 1.363 1_554 S
C1331 C1333 1.408 . S
C1331 C1336 1.342 . S
C1332 C1333 1.310 . S
C1332 C1335 1.461 . S
C1332 H1352 0.932 . S
C1333 C1331 1.408 . S
C1333 C1332 1.310 . S
C1333 H1353 0.930 . S
C1334 C1335 1.474 . S
C1334 C1336 1.285 . S
C1334 H1354 0.929 . S
C1335 C1332 1.461 . S
C1335 C1334 1.474 . S
C1336 C1331 1.342 . S
C1336 C1334 1.285 . S
C1336 H1355 0.930 . S
C1337 C1340 1.424 . S
C1337 C1342 1.245 . S
C1337 C1343 1.428 . S
C1338 C1341 1.260 . S
C1338 C1342 1.477 . S
C1338 H1356 0.932 . S
C1339 C1340 1.384 . S
C1339 C1341 1.479 . S
C1339 H1357 0.929 . S
C1340 C1337 1.424 . S
C1340 C1339 1.384 . S
C1340 H1358 0.928 . S
C1341 C1338 1.260 . S
C1341 C1339 1.479 . S
C1342 C1337 1.245 . S
C1342 C1338 1.477 . S
C1342 H1359 0.932 . S
C1343 U1326 2.882 . S
C1343 C1337 1.428 . S
C1343 O1346 1.301 . S
C1343 O1347 1.282 . S
O1344 U1326 2.441 . S
O1344 C1330 1.249 . S
O1345 U1326 2.420 . S
O1345 C1330 1.202 . S
O1346 U1326 2.455 . S
O1346 C1343 1.301 . S
O1347 U1326 2.449 . S
O1347 C1343 1.282 . S
H1348 C1321 0.931 . S
H1349 C1323 0.929 . S
H1350 C1324 0.930 . S
H1351 C1325 0.931 . S
H1352 C1332 0.932 . S
H1353 C1333 0.930 . S
H1354 C1334 0.929 . S
H1355 C1336 0.930 . S
H1356 C1338 0.932 . S
H1357 C1339 0.929 . S
H1358 C1340 0.928 . S
H1359 C1342 0.932 . S
C1360 C1361 1.264 . S
C1360 C1365 1.479 . S
C1360 C1370 1.465 . S
C1361 C1360 1.264 . S
C1361 C1363 1.339 . S
C1361 H1388 0.931 . S
C1362 C1363 1.395 . S
C1362 C1364 1.320 . S
C1363 C1361 1.339 . S
C1363 C1362 1.395 . S
C1363 H1389 0.929 . S
C1364 C1362 1.320 . S
C1364 C1365 1.405 . S
C1364 H1390 0.930 . S
C1365 C1360 1.479 . S
C1365 C1364 1.405 . S
C1365 H1391 0.931 . S
U1366 O1367 2.454 . S
U1366 O1368 2.458 . S
U1366 C1369 2.984 . S
U1366 C1370 2.847 . S
U1366 C1383 2.882 . S
U1366 O1384 2.441 . S
U1366 O1385 2.420 . S
U1366 O1386 2.455 . S
U1366 O1387 2.449 . S
O1367 U1366 2.454 . S
O1367 C1369 1.353 . S
O1368 U1366 2.458 . S
O1368 C1369 1.286 . S
C1369 U1366 2.984 . S
C1369 O1367 1.353 . S
C1369 O1368 1.286 . S
C1369 C1371 1.363 . S
C1370 C1360 1.465 . S
C1370 U1366 2.847 . S
C1370 O1384 1.249 . S
C1370 O1385 1.202 . S
C1371 C1369 1.363 . S
C1371 C1373 1.408 . S
C1371 C1376 1.342 . S
C1372 C1373 1.310 . S
C1372 C1375 1.461 . S
C1372 H1392 0.932 . S
C1373 C1371 1.408 . S
C1373 C1372 1.310 . S
C1373 H1393 0.930 . S
C1374 C1375 1.474 . S
C1374 C1376 1.285 . S
C1374 H1394 0.929 . S
C1375 C1372 1.461 . S
C1375 C1374 1.474 . S
C1376 C1371 1.342 . S
C1376 C1374 1.285 . S
C1376 H1395 0.930 . S
C1377 C1380 1.424 . S
C1377 C1382 1.245 . S
C1377 C1383 1.428 . S
C1378 C1381 1.260 . S
C1378 C1382 1.477 . S
C1378 H1396 0.932 . S
C1379 C1380 1.384 . S
C1379 C1381 1.479 . S
C1379 H1397 0.929 . S
C1380 C1377 1.424 . S
C1380 C1379 1.384 . S
C1380 H1398 0.928 . S
C1381 C1378 1.260 . S
C1381 C1379 1.479 . S
C1382 C1377 1.245 . S
C1382 C1378 1.477 . S
C1382 H1399 0.932 . S
C1383 U1366 2.882 . S
C1383 C1377 1.428 . S
C1383 O1386 1.301 . S
C1383 O1387 1.282 . S
O1384 U1366 2.441 . S
O1384 C1370 1.249 . S
O1385 U1366 2.420 . S
O1385 C1370 1.202 . S
O1386 U1366 2.455 . S
O1386 C1383 1.301 . S
O1387 U1366 2.449 . S
O1387 C1383 1.282 . S
H1388 C1361 0.931 . S
H1389 C1363 0.929 . S
H1390 C1364 0.930 . S
H1391 C1365 0.931 . S
H1392 C1372 0.932 . S
H1393 C1373 0.930 . S
H1394 C1374 0.929 . S
H1395 C1376 0.930 . S
H1396 C1378 0.932 . S
H1397 C1379 0.929 . S
H1398 C1380 0.928 . S
H1399 C1382 0.932 . S
C1400 C1401 1.264 . S
C1400 C1405 1.479 . S
C1400 C1410 1.465 . S
C1401 C1400 1.264 . S
C1401 C1403 1.339 . S
C1401 H1428 0.931 . S
C1402 C1403 1.395 . S
C1402 C1404 1.320 . S
C1403 C1401 1.339 . S
C1403 C1402 1.395 . S
C1403 H1429 0.929 . S
C1404 C1402 1.320 . S
C1404 C1405 1.405 . S
C1404 H1430 0.930 . S
C1405 C1400 1.479 . S
C1405 C1404 1.405 . S
C1405 H1431 0.931 . S
U1406 O1407 2.454 . S
U1406 O1408 2.458 . S
U1406 C1409 2.984 . S
U1406 C1410 2.847 . S
U1406 C1423 2.882 . S
U1406 O1424 2.441 . S
U1406 O1425 2.420 . S
U1406 O1426 2.455 . S
U1406 O1427 2.449 . S
O1407 U1406 2.454 . S
O1407 C1409 1.353 . S
O1408 U1406 2.458 . S
O1408 C1409 1.286 . S
C1409 U1406 2.984 . S
C1409 O1407 1.353 . S
C1409 O1408 1.286 . S
C1409 C1411 1.363 . S
C1410 C1400 1.465 . S
C1410 U1406 2.847 . S
C1410 O1424 1.249 . S
C1410 O1425 1.202 . S
C1411 C1409 1.363 . S
C1411 C1413 1.408 . S
C1411 C1416 1.342 . S
C1412 C1413 1.310 . S
C1412 C1415 1.461 . S
C1412 H1432 0.932 . S
C1413 C1411 1.408 . S
C1413 C1412 1.310 . S
C1413 H1433 0.930 . S
C1414 C1415 1.474 . S
C1414 C1416 1.285 . S
C1414 H1434 0.929 . S
C1415 C1412 1.461 . S
C1415 C1414 1.474 . S
C1416 C1411 1.342 . S
C1416 C1414 1.285 . S
C1416 H1435 0.930 . S
C1417 C1420 1.424 . S
C1417 C1422 1.245 . S
C1417 C1423 1.428 . S
C1418 C1421 1.260 . S
C1418 C1422 1.477 . S
C1418 H1436 0.932 . S
C1419 C1420 1.384 . S
C1419 C1421 1.479 . S
C1419 H1437 0.929 . S
C1420 C1417 1.424 . S
C1420 C1419 1.384 . S
C1420 H1438 0.928 . S
C1421 C1418 1.260 . S
C1421 C1419 1.479 . S
C1422 C1417 1.245 . S
C1422 C1418 1.477 . S
C1422 H1439 0.932 . S
C1423 U1406 2.882 . S
C1423 C1417 1.428 . S
C1423 O1426 1.301 . S
C1423 O1427 1.282 . S
O1424 U1406 2.441 . S
O1424 C1410 1.249 . S
O1425 U1406 2.420 . S
O1425 C1410 1.202 . S
O1426 U1406 2.455 . S
O1426 C1423 1.301 . S
O1427 U1406 2.449 . S
O1427 C1423 1.282 . S
H1428 C1401 0.931 . S
H1429 C1403 0.929 . S
H1430 C1404 0.930 . S
H1431 C1405 0.931 . S
H1432 C1412 0.932 . S
H1433 C1413 0.930 . S
H1434 C1414 0.929 . S
H1435 C1416 0.930 . S
H1436 C1418 0.932 . S
H1437 C1419 0.929 . S
H1438 C1420 0.928 . S
H1439 C1422 0.932 . S
C1440 C1441 1.264 . S
C1440 C1445 1.479 . S
C1440 C1450 1.465 . S
C1441 C1440 1.264 . S
C1441 C1443 1.339 . S
C1441 H1468 0.931 . S
C1442 C1443 1.395 . S
C1442 C1444 1.320 . S
C1443 C1441 1.339 . S
C1443 C1442 1.395 . S
C1443 H1469 0.929 . S
C1444 C1442 1.320 . S
C1444 C1445 1.405 . S
C1444 H1470 0.930 . S
C1445 C1440 1.479 . S
C1445 C1444 1.405 . S
C1445 H1471 0.931 . S
U1446 O1447 2.454 . S
U1446 O1448 2.458 . S
U1446 C1449 2.984 . S
U1446 C1450 2.847 . S
U1446 C1463 2.882 . S
U1446 O1464 2.441 . S
U1446 O1465 2.420 . S
U1446 O1466 2.455 . S
U1446 O1467 2.449 . S
O1447 U1446 2.454 . S
O1447 C1449 1.353 . S
O1448 U1446 2.458 . S
O1448 C1449 1.286 . S
C1449 U1446 2.984 . S
C1449 O1447 1.353 . S
C1449 O1448 1.286 . S
C1449 C1451 1.363 . S
C1450 C1440 1.465 . S
C1450 U1446 2.847 . S
C1450 O1464 1.249 . S
C1450 O1465 1.202 . S
C1451 C1449 1.363 . S
C1451 C1453 1.408 . S
C1451 C1456 1.342 . S
C1452 C1453 1.310 . S
C1452 C1455 1.461 . S
C1452 H1472 0.932 . S
C1453 C1451 1.408 . S
C1453 C1452 1.310 . S
C1453 H1473 0.930 . S
C1454 C1455 1.474 . S
C1454 C1456 1.285 . S
C1454 H1474 0.929 . S
C1455 C1452 1.461 . S
C1455 C1454 1.474 . S
C1456 C1451 1.342 . S
C1456 C1454 1.285 . S
C1456 H1475 0.930 . S
C1457 C1460 1.424 . S
C1457 C1462 1.245 . S
C1457 C1463 1.428 . S
C1458 C1461 1.260 . S
C1458 C1462 1.477 . S
C1458 H1476 0.932 . S
C1459 C1460 1.384 . S
C1459 C1461 1.479 . S
C1459 H1477 0.929 . S
C1460 C1457 1.424 . S
C1460 C1459 1.384 . S
C1460 H1478 0.928 . S
C1461 C1458 1.260 . S
C1461 C1459 1.479 . S
C1462 C1457 1.245 . S
C1462 C1458 1.477 . S
C1462 H1479 0.932 . S
C1463 U1446 2.882 . S
C1463 C1457 1.428 . S
C1463 O1466 1.301 . S
C1463 O1467 1.282 . S
O1464 U1446 2.441 . S
O1464 C1450 1.249 . S
O1465 U1446 2.420 . S
O1465 C1450 1.202 . S
O1466 U1446 2.455 . S
O1466 C1463 1.301 . S
O1467 U1446 2.449 . S
O1467 C1463 1.282 . S
H1468 C1441 0.931 . S
H1469 C1443 0.929 . S
H1470 C1444 0.930 . S
H1471 C1445 0.931 . S
H1472 C1452 0.932 . S
H1473 C1453 0.930 . S
H1474 C1454 0.929 . S
H1475 C1456 0.930 . S
H1476 C1458 0.932 . S
H1477 C1459 0.929 . S
H1478 C1460 0.928 . S
H1479 C1462 0.932 . S
C1480 C1481 1.264 . S
C1480 C1485 1.479 . S
C1480 C1490 1.465 . S
C1481 C1480 1.264 . S
C1481 C1483 1.339 . S
C1481 H1508 0.931 . S
C1482 C1483 1.395 . S
C1482 C1484 1.320 . S
C1483 C1481 1.339 . S
C1483 C1482 1.395 . S
C1483 H1509 0.929 . S
C1484 C1482 1.320 . S
C1484 C1485 1.405 . S
C1484 H1510 0.930 . S
C1485 C1480 1.479 . S
C1485 C1484 1.405 . S
C1485 H1511 0.931 . S
U1486 O1487 2.454 . S
U1486 O1488 2.458 . S
U1486 C1489 2.984 . S
U1486 C1490 2.847 . S
U1486 C1503 2.882 . S
U1486 O1504 2.441 . S
U1486 O1505 2.420 . S
U1486 O1506 2.455 . S
U1486 O1507 2.449 . S
O1487 U1486 2.454 . S
O1487 C1489 1.353 . S
O1488 U1486 2.458 . S
O1488 C1489 1.286 . S
C1489 U1486 2.984 . S
C1489 O1487 1.353 . S
C1489 O1488 1.286 . S
C1489 C1491 1.363 . S
C1490 C1480 1.465 . S
C1490 U1486 2.847 . S
C1490 O1504 1.249 . S
C1490 O1505 1.202 . S
C1491 C1489 1.363 . S
C1491 C1493 1.408 . S
C1491 C1496 1.342 . S
C1492 C1493 1.310 . S
C1492 C1495 1.461 . S
C1492 H1512 0.932 . S
C1493 C1491 1.408 . S
C1493 C1492 1.310 . S
C1493 H1513 0.930 . S
C1494 C1495 1.474 . S
C1494 C1496 1.285 . S
C1494 H1514 0.929 . S
C1495 C1492 1.461 . S
C1495 C1494 1.474 . S
C1496 C1491 1.342 . S
C1496 C1494 1.285 . S
C1496 H1515 0.930 . S
C1497 C1500 1.424 . S
C1497 C1502 1.245 . S
C1497 C1503 1.428 . S
C1498 C1501 1.260 . S
C1498 C1502 1.477 . S
C1498 H1516 0.932 . S
C1499 C1500 1.384 . S
C1499 C1501 1.479 . S
C1499 H1517 0.929 . S
C1500 C1497 1.424 . S
C1500 C1499 1.384 . S
C1500 H1518 0.928 . S
C1501 C1498 1.260 . S
C1501 C1499 1.479 . S
C1502 C1497 1.245 . S
C1502 C1498 1.477 . S
C1502 H1519 0.932 . S
C1503 U1486 2.882 . S
C1503 C1497 1.428 . S
C1503 O1506 1.301 . S
C1503 O1507 1.282 . S
O1504 U1486 2.441 . S
O1504 C1490 1.249 . S
O1505 U1486 2.420 . S
O1505 C1490 1.202 . S
O1506 U1486 2.455 . S
O1506 C1503 1.301 . S
O1507 U1486 2.449 . S
O1507 C1503 1.282 . S
H1508 C1481 0.931 . S
H1509 C1483 0.929 . S
H1510 C1484 0.930 . S
H1511 C1485 0.931 . S
H1512 C1492 0.932 . S
H1513 C1493 0.930 . S
H1514 C1494 0.929 . S
H1515 C1496 0.930 . S
H1516 C1498 0.932 . S
H1517 C1499 0.929 . S
H1518 C1500 0.928 . S
H1519 C1502 0.932 . S
C1520 C1521 1.264 . S
C1520 C1525 1.479 . S
C1520 C1530 1.465 . S
C1521 C1520 1.264 . S
C1521 C1523 1.339 . S
C1521 H1548 0.931 . S
C1522 C1523 1.395 . S
C1522 C1524 1.320 . S
C1523 C1521 1.339 . S
C1523 C1522 1.395 . S
C1523 H1549 0.929 . S
C1524 C1522 1.320 . S
C1524 C1525 1.405 . S
C1524 H1550 0.930 . S
C1525 C1520 1.479 . S
C1525 C1524 1.405 . S
C1525 H1551 0.931 . S
U1526 O1527 2.454 . S
U1526 O1528 2.458 . S
U1526 C1529 2.984 . S
U1526 C1530 2.847 . S
U1526 C1543 2.882 . S
U1526 O1544 2.441 . S
U1526 O1545 2.420 . S
U1526 O1546 2.455 . S
U1526 O1547 2.449 . S
O1527 U1526 2.454 . S
O1527 C1529 1.353 . S
O1528 U1526 2.458 . S
O1528 C1529 1.286 . S
C1529 U1526 2.984 . S
C1529 O1527 1.353 . S
C1529 O1528 1.286 . S
C1529 C1531 1.363 . S
C1530 C1520 1.465 . S
C1530 U1526 2.847 . S
C1530 O1544 1.249 . S
C1530 O1545 1.202 . S
C1531 C1529 1.363 . S
C1531 C1533 1.408 . S
C1531 C1536 1.342 . S
C1532 C1533 1.310 . S
C1532 C1535 1.461 . S
C1532 H1552 0.932 . S
C1533 C1531 1.408 . S
C1533 C1532 1.310 . S
C1533 H1553 0.930 . S
C1534 C1535 1.474 . S
C1534 C1536 1.285 . S
C1534 H1554 0.929 . S
C1535 C1532 1.461 . S
C1535 C1534 1.474 . S
C1536 C1531 1.342 . S
C1536 C1534 1.285 . S
C1536 H1555 0.930 . S
C1537 C1540 1.424 . S
C1537 C1542 1.245 . S
C1537 C1543 1.428 . S
C1538 C1541 1.260 . S
C1538 C1542 1.477 . S
C1538 H1556 0.932 . S
C1539 C1540 1.384 . S
C1539 C1541 1.479 . S
C1539 H1557 0.929 . S
C1540 C1537 1.424 . S
C1540 C1539 1.384 . S
C1540 H1558 0.928 . S
C1541 C1538 1.260 . S
C1541 C1539 1.479 . S
C1542 C1537 1.245 . S
C1542 C1538 1.477 . S
C1542 H1559 0.932 . S
C1543 U1526 2.882 . S
C1543 C1537 1.428 . S
C1543 O1546 1.301 . S
C1543 O1547 1.282 . S
O1544 U1526 2.441 . S
O1544 C1530 1.249 . S
O1545 U1526 2.420 . S
O1545 C1530 1.202 . S
O1546 U1526 2.455 . S
O1546 C1543 1.301 . S
O1547 U1526 2.449 . S
O1547 C1543 1.282 . S
H1548 C1521 0.931 . S
H1549 C1523 0.929 . S
H1550 C1524 0.930 . S
H1551 C1525 0.931 . S
H1552 C1532 0.932 . S
H1553 C1533 0.930 . S
H1554 C1534 0.929 . S
H1555 C1536 0.930 . S
H1556 C1538 0.932 . S
H1557 C1539 0.929 . S
H1558 C1540 0.928 . S
H1559 C1542 0.932 . S
C1560 C1561 1.264 . S
C1560 C1565 1.479 . S
C1560 C1570 1.465 . S
C1561 C1560 1.264 . S
C1561 C1563 1.339 . S
C1561 H1588 0.931 . S
C1562 C1563 1.395 . S
C1562 C1564 1.320 . S
C1563 C1561 1.339 . S
C1563 C1562 1.395 . S
C1563 H1589 0.929 . S
C1564 C1562 1.320 . S
C1564 C1565 1.405 . S
C1564 H1590 0.930 . S
C1565 C1560 1.479 . S
C1565 C1564 1.405 . S
C1565 H1591 0.931 . S
U1566 O1567 2.454 . S
U1566 O1568 2.458 . S
U1566 C1569 2.984 . S
U1566 C1570 2.847 . S
U1566 C1583 2.882 . S
U1566 O1584 2.441 . S
U1566 O1585 2.420 . S
U1566 O1586 2.455 . S
U1566 O1587 2.449 . S
O1567 U1566 2.454 . S
O1567 C1569 1.353 . S
O1568 U1566 2.458 . S
O1568 C1569 1.286 . S
C1569 U1566 2.984 . S
C1569 O1567 1.353 . S
C1569 O1568 1.286 . S
C1569 C1571 1.363 . S
C1570 C1560 1.465 . S
C1570 U1566 2.847 . S
C1570 O1584 1.249 . S
C1570 O1585 1.202 . S
C1571 C1569 1.363 . S
C1571 C1573 1.408 . S
C1571 C1576 1.342 . S
C1572 C1573 1.310 . S
C1572 C1575 1.461 . S
C1572 H1592 0.932 . S
C1573 C1571 1.408 . S
C1573 C1572 1.310 . S
C1573 H1593 0.930 . S
C1574 C1575 1.474 . S
C1574 C1576 1.285 . S
C1574 H1594 0.929 . S
C1575 C1572 1.461 . S
C1575 C1574 1.474 . S
C1576 C1571 1.342 . S
C1576 C1574 1.285 . S
C1576 H1595 0.930 . S
C1577 C1580 1.424 . S
C1577 C1582 1.245 . S
C1577 C1583 1.428 . S
C1578 C1581 1.260 . S
C1578 C1582 1.477 . S
C1578 H1596 0.932 . S
C1579 C1580 1.384 . S
C1579 C1581 1.479 . S
C1579 H1597 0.929 . S
C1580 C1577 1.424 . S
C1580 C1579 1.384 . S
C1580 H1598 0.928 . S
C1581 C1578 1.260 . S
C1581 C1579 1.479 . S
C1582 C1577 1.245 . S
C1582 C1578 1.477 . S
C1582 H1599 0.932 . S
C1583 U1566 2.882 . S
C1583 C1577 1.428 . S
C1583 O1586 1.301 . S
C1583 O1587 1.282 . S
O1584 U1566 2.441 . S
O1584 C1570 1.249 . S
O1585 U1566 2.420 . S
O1585 C1570 1.202 . S
O1586 U1566 2.455 . S
O1586 C1583 1.301 . S
O1587 U1566 2.449 . S
O1587 C1583 1.282 . S
H1588 C1561 0.931 . S
H1589 C1563 0.929 . S
H1590 C1564 0.930 . S
H1591 C1565 0.931 . S
H1592 C1572 0.932 . S
H1593 C1573 0.930 . S
H1594 C1574 0.929 . S
H1595 C1576 0.930 . S
H1596 C1578 0.932 . S
H1597 C1579 0.929 . S
H1598 C1580 0.928 . S
H1599 C1582 0.932 . S
C1600 C1601 1.264 . S
C1600 C1605 1.479 . S
C1600 C1610 1.465 . S
C1601 C1600 1.264 . S
C1601 C1603 1.339 . S
C1601 H1628 0.931 . S
C1602 C1603 1.395 . S
C1602 C1604 1.320 . S
C1603 C1601 1.339 . S
C1603 C1602 1.395 . S
C1603 H1629 0.929 . S
C1604 C1602 1.320 . S
C1604 C1605 1.405 . S
C1604 H1630 0.930 . S
C1605 C1600 1.479 . S
C1605 C1604 1.405 . S
C1605 H1631 0.931 . S
U1606 O1607 2.454 . S
U1606 O1608 2.458 . S
U1606 C1609 2.984 . S
U1606 C1610 2.847 1_455 S
U1606 C1623 2.882 . S
U1606 O1624 2.441 1_455 S
U1606 O1625 2.420 1_455 S
U1606 O1626 2.455 . S
U1606 O1627 2.449 . S
O1607 U1606 2.454 . S
O1607 C1609 1.353 . S
O1608 U1606 2.458 . S
O1608 C1609 1.286 . S
C1609 U1606 2.984 . S
C1609 O1607 1.353 . S
C1609 O1608 1.286 . S
C1609 C1611 1.363 . S
C1610 C1600 1.465 . S
C1610 U1606 2.847 1_655 S
C1610 O1624 1.249 . S
C1610 O1625 1.202 . S
C1611 C1609 1.363 . S
C1611 C1613 1.408 . S
C1611 C1616 1.342 . S
C1612 C1613 1.310 . S
C1612 C1615 1.461 . S
C1612 H1632 0.932 . S
C1613 C1611 1.408 . S
C1613 C1612 1.310 . S
C1613 H1633 0.930 . S
C1614 C1615 1.474 . S
C1614 C1616 1.285 . S
C1614 H1634 0.929 . S
C1615 C1612 1.461 . S
C1615 C1614 1.474 . S
C1616 C1611 1.342 . S
C1616 C1614 1.285 . S
C1616 H1635 0.930 . S
C1617 C1620 1.424 . S
C1617 C1622 1.245 . S
C1617 C1623 1.428 . S
C1618 C1621 1.260 . S
C1618 C1622 1.477 . S
C1618 H1636 0.932 . S
C1619 C1620 1.384 . S
C1619 C1621 1.479 . S
C1619 H1637 0.929 . S
C1620 C1617 1.424 . S
C1620 C1619 1.384 . S
C1620 H1638 0.928 . S
C1621 C1618 1.260 . S
C1621 C1619 1.479 . S
C1622 C1617 1.245 . S
C1622 C1618 1.477 . S
C1622 H1639 0.932 . S
C1623 U1606 2.882 . S
C1623 C1617 1.428 . S
C1623 O1626 1.301 . S
C1623 O1627 1.282 . S
O1624 U1606 2.441 1_655 S
O1624 C1610 1.249 . S
O1625 U1606 2.420 1_655 S
O1625 C1610 1.202 . S
O1626 U1606 2.455 . S
O1626 C1623 1.301 . S
O1627 U1606 2.449 . S
O1627 C1623 1.282 . S
H1628 C1601 0.931 . S
H1629 C1603 0.929 . S
H1630 C1604 0.930 . S
H1631 C1605 0.931 . S
H1632 C1612 0.932 . S
H1633 C1613 0.930 . S
H1634 C1614 0.929 . S
H1635 C1616 0.930 . S
H1636 C1618 0.932 . S
H1637 C1619 0.929 . S
H1638 C1620 0.928 . S
H1639 C1622 0.932 . S
C1640 C1641 1.264 . S
C1640 C1645 1.479 . S
C1640 C1650 1.465 . S
C1641 C1640 1.264 . S
C1641 C1643 1.339 . S
C1641 H1668 0.931 . S
C1642 C1643 1.395 . S
C1642 C1644 1.320 . S
C1643 C1641 1.339 . S
C1643 C1642 1.395 . S
C1643 H1669 0.929 . S
C1644 C1642 1.320 . S
C1644 C1645 1.405 . S
C1644 H1670 0.930 . S
C1645 C1640 1.479 . S
C1645 C1644 1.405 . S
C1645 H1671 0.931 . S
U1646 O1647 2.454 . S
U1646 O1648 2.458 . S
U1646 C1649 2.984 . S
U1646 C1650 2.847 . S
U1646 C1663 2.882 . S
U1646 O1664 2.441 . S
U1646 O1665 2.420 . S
U1646 O1666 2.455 . S
U1646 O1667 2.449 . S
O1647 U1646 2.454 . S
O1647 C1649 1.353 . S
O1648 U1646 2.458 . S
O1648 C1649 1.286 . S
C1649 U1646 2.984 . S
C1649 O1647 1.353 . S
C1649 O1648 1.286 . S
C1649 C1651 1.363 . S
C1650 C1640 1.465 . S
C1650 U1646 2.847 . S
C1650 O1664 1.249 . S
C1650 O1665 1.202 . S
C1651 C1649 1.363 . S
C1651 C1653 1.408 . S
C1651 C1656 1.342 . S
C1652 C1653 1.310 . S
C1652 C1655 1.461 . S
C1652 H1672 0.932 . S
C1653 C1651 1.408 . S
C1653 C1652 1.310 . S
C1653 H1673 0.930 . S
C1654 C1655 1.474 . S
C1654 C1656 1.285 . S
C1654 H1674 0.929 . S
C1655 C1652 1.461 . S
C1655 C1654 1.474 . S
C1656 C1651 1.342 . S
C1656 C1654 1.285 . S
C1656 H1675 0.930 . S
C1657 C1660 1.424 . S
C1657 C1662 1.245 . S
C1657 C1663 1.428 . S
C1658 C1661 1.260 . S
C1658 C1662 1.477 . S
C1658 H1676 0.932 . S
C1659 C1660 1.384 . S
C1659 C1661 1.479 . S
C1659 H1677 0.929 . S
C1660 C1657 1.424 . S
C1660 C1659 1.384 . S
C1660 H1678 0.928 . S
C1661 C1658 1.260 . S
C1661 C1659 1.479 . S
C1662 C1657 1.245 . S
C1662 C1658 1.477 . S
C1662 H1679 0.932 . S
C1663 U1646 2.882 . S
C1663 C1657 1.428 . S
C1663 O1666 1.301 . S
C1663 O1667 1.282 . S
O1664 U1646 2.441 . S
O1664 C1650 1.249 . S
O1665 U1646 2.420 . S
O1665 C1650 1.202 . S
O1666 U1646 2.455 . S
O1666 C1663 1.301 . S
O1667 U1646 2.449 . S
O1667 C1663 1.282 . S
H1668 C1641 0.931 . S
H1669 C1643 0.929 . S
H1670 C1644 0.930 . S
H1671 C1645 0.931 . S
H1672 C1652 0.932 . S
H1673 C1653 0.930 . S
H1674 C1654 0.929 . S
H1675 C1656 0.930 . S
H1676 C1658 0.932 . S
H1677 C1659 0.929 . S
H1678 C1660 0.928 . S
H1679 C1662 0.932 . S
C1680 C1681 1.264 . S
C1680 C1685 1.479 . S
C1680 C1690 1.465 . S
C1681 C1680 1.264 . S
C1681 C1683 1.339 . S
C1681 H1708 0.931 . S
C1682 C1683 1.395 . S
C1682 C1684 1.320 . S
C1683 C1681 1.339 . S
C1683 C1682 1.395 . S
C1683 H1709 0.929 . S
C1684 C1682 1.320 . S
C1684 C1685 1.405 . S
C1684 H1710 0.930 . S
C1685 C1680 1.479 . S
C1685 C1684 1.405 . S
C1685 H1711 0.907 1_554 S
U1686 O1687 2.454 1_554 S
U1686 O1688 2.458 1_554 S
U1686 C1689 2.984 1_554 S
U1686 C1690 2.847 . S
U1686 C1703 2.882 . S
U1686 O1704 2.441 . S
U1686 O1705 2.420 . S
U1686 O1706 2.455 . S
U1686 O1707 2.449 . S
O1687 U1686 2.454 1_556 S
O1687 C1689 1.353 . S
O1688 U1686 2.458 1_556 S
O1688 C1689 1.286 . S
C1689 U1686 2.984 1_556 S
C1689 O1687 1.353 . S
C1689 O1688 1.286 . S
C1689 C1691 1.363 . S
C1690 C1680 1.465 . S
C1690 U1686 2.847 . S
C1690 O1704 1.249 . S
C1690 O1705 1.202 . S
C1691 C1689 1.363 . S
C1691 C1693 1.408 . S
C1691 C1696 1.342 . S
C1692 C1693 1.310 . S
C1692 C1695 1.461 . S
C1692 H1712 0.932 . S
C1693 C1691 1.408 . S
C1693 C1692 1.310 . S
C1693 H1713 0.930 . S
C1694 C1695 1.474 . S
C1694 C1696 1.285 . S
C1694 H1714 0.929 . S
C1695 C1692 1.461 . S
C1695 C1694 1.474 . S
C1696 C1691 1.342 . S
C1696 C1694 1.285 . S
C1696 H1715 0.930 . S
C1697 C1700 1.424 . S
C1697 C1702 1.245 . S
C1697 C1703 1.428 . S
C1698 C1701 1.260 . S
C1698 C1702 1.477 . S
C1698 H1716 0.932 . S
C1699 C1700 1.384 . S
C1699 C1701 1.479 . S
C1699 H1717 0.929 . S
C1700 C1697 1.424 . S
C1700 C1699 1.384 . S
C1700 H1718 0.928 . S
C1701 C1698 1.260 . S
C1701 C1699 1.479 . S
C1702 C1697 1.245 . S
C1702 C1698 1.477 . S
C1702 H1719 0.932 . S
C1703 U1686 2.882 . S
C1703 C1697 1.428 . S
C1703 O1706 1.301 . S
C1703 O1707 1.282 . S
O1704 U1686 2.441 . S
O1704 C1690 1.249 . S
O1705 U1686 2.420 . S
O1705 C1690 1.202 . S
O1706 U1686 2.455 . S
O1706 C1703 1.301 . S
O1707 U1686 2.449 . S
O1707 C1703 1.282 . S
H1708 C1681 0.931 . S
H1709 C1683 0.929 . S
H1710 C1684 0.930 . S
H1711 C1685 0.907 1_556 S
H1712 C1692 0.932 . S
H1713 C1693 0.930 . S
H1714 C1694 0.929 . S
H1715 C1696 0.930 . S
H1716 C1698 0.932 . S
H1717 C1699 0.929 . S
H1718 C1700 0.928 . S
H1719 C1702 0.932 . S
C1720 C1721 1.264 . S
C1720 C1725 1.479 . S
C1720 C1730 1.465 . S
C1721 C1720 1.264 . S
C1721 C1723 1.339 . S
C1721 H1748 0.931 . S
C1722 C1723 1.395 . S
C1722 C1724 1.320 . S
C1723 C1721 1.339 . S
C1723 C1722 1.395 . S
C1723 H1749 0.929 . S
C1724 C1722 1.320 . S
C1724 C1725 1.405 . S
C1724 H1750 0.930 . S
C1725 C1720 1.479 . S
C1725 C1724 1.405 . S
C1725 H1751 0.931 . S
U1726 O1727 2.454 . S
U1726 O1728 2.458 . S
U1726 C1729 2.984 . S
U1726 C1730 2.847 . S
U1726 C1743 2.882 . S
U1726 O1744 2.441 . S
U1726 O1745 2.420 . S
U1726 O1746 2.455 . S
U1726 O1747 2.449 . S
O1727 U1726 2.454 . S
O1727 C1729 1.353 . S
O1728 U1726 2.458 . S
O1728 C1729 1.286 . S
C1729 U1726 2.984 . S
C1729 O1727 1.353 . S
C1729 O1728 1.286 . S
C1729 C1731 1.363 . S
C1730 C1720 1.465 . S
C1730 U1726 2.847 . S
C1730 O1744 1.249 . S
C1730 O1745 1.202 . S
C1731 C1729 1.363 . S
C1731 C1733 1.408 . S
C1731 C1736 1.342 . S
C1732 C1733 1.310 . S
C1732 C1735 1.461 . S
C1732 H1752 0.932 . S
C1733 C1731 1.408 . S
C1733 C1732 1.310 . S
C1733 H1753 0.930 . S
C1734 C1735 1.474 . S
C1734 C1736 1.285 . S
C1734 H1754 0.929 . S
C1735 C1732 1.461 . S
C1735 C1734 1.474 . S
C1736 C1731 1.342 . S
C1736 C1734 1.285 . S
C1736 H1755 0.930 . S
C1737 C1740 1.424 . S
C1737 C1742 1.245 . S
C1737 C1743 1.428 . S
C1738 C1741 1.260 . S
C1738 C1742 1.477 . S
C1738 H1756 0.932 . S
C1739 C1740 1.384 . S
C1739 C1741 1.479 . S
C1739 H1757 0.929 . S
C1740 C1737 1.424 . S
C1740 C1739 1.384 . S
C1740 H1758 0.928 . S
C1741 C1738 1.260 . S
C1741 C1739 1.479 . S
C1742 C1737 1.245 . S
C1742 C1738 1.477 . S
C1742 H1759 0.932 . S
C1743 U1726 2.882 . S
C1743 C1737 1.428 . S
C1743 O1746 1.301 . S
C1743 O1747 1.282 . S
O1744 U1726 2.441 . S
O1744 C1730 1.249 . S
O1745 U1726 2.420 . S
O1745 C1730 1.202 . S
O1746 U1726 2.455 . S
O1746 C1743 1.301 . S
O1747 U1726 2.449 . S
O1747 C1743 1.282 . S
H1748 C1721 0.931 . S
H1749 C1723 0.929 . S
H1750 C1724 0.930 . S
H1751 C1725 0.931 . S
H1752 C1732 0.932 . S
H1753 C1733 0.930 . S
H1754 C1734 0.929 . S
H1755 C1736 0.930 . S
H1756 C1738 0.932 . S
H1757 C1739 0.929 . S
H1758 C1740 0.928 . S
H1759 C1742 0.932 . S
C1760 C1761 1.264 . S
C1760 C1765 1.479 . S
C1760 C1770 1.465 . S
C1761 C1760 1.264 . S
C1761 C1763 1.339 . S
C1761 H1788 0.931 . S
C1762 C1763 1.395 . S
C1762 C1764 1.320 . S
C1763 C1761 1.339 . S
C1763 C1762 1.395 . S
C1763 H1789 0.929 . S
C1764 C1762 1.320 . S
C1764 C1765 1.405 . S
C1764 H1790 0.930 . S
C1765 C1760 1.479 . S
C1765 C1764 1.405 . S
C1765 H1791 0.931 . S
U1766 O1767 2.454 . S
U1766 O1768 2.458 . S
U1766 C1769 2.984 . S
U1766 C1770 2.847 . S
U1766 C1783 2.882 . S
U1766 O1784 2.441 . S
U1766 O1785 2.420 . S
U1766 O1786 2.455 . S
U1766 O1787 2.449 . S
O1767 U1766 2.454 . S
O1767 C1769 1.353 . S
O1768 U1766 2.458 . S
O1768 C1769 1.286 . S
C1769 U1766 2.984 . S
C1769 O1767 1.353 . S
C1769 O1768 1.286 . S
C1769 C1771 1.363 . S
C1770 C1760 1.465 . S
C1770 U1766 2.847 . S
C1770 O1784 1.249 . S
C1770 O1785 1.202 . S
C1771 C1769 1.363 . S
C1771 C1773 1.408 . S
C1771 C1776 1.342 . S
C1772 C1773 1.310 . S
C1772 C1775 1.461 . S
C1772 H1792 0.932 . S
C1773 C1771 1.408 . S
C1773 C1772 1.310 . S
C1773 H1793 0.930 . S
C1774 C1775 1.474 . S
C1774 C1776 1.285 . S
C1774 H1794 0.929 . S
C1775 C1772 1.461 . S
C1775 C1774 1.474 . S
C1776 C1771 1.342 . S
C1776 C1774 1.285 . S
C1776 H1795 0.930 . S
C1777 C1780 1.424 . S
C1777 C1782 1.245 . S
C1777 C1783 1.428 . S
C1778 C1781 1.260 . S
C1778 C1782 1.477 . S
C1778 H1796 0.932 . S
C1779 C1780 1.384 . S
C1779 C1781 1.479 . S
C1779 H1797 0.929 . S
C1780 C1777 1.424 . S
C1780 C1779 1.384 . S
C1780 H1798 0.928 . S
C1781 C1778 1.260 . S
C1781 C1779 1.479 . S
C1782 C1777 1.245 . S
C1782 C1778 1.477 . S
C1782 H1799 0.932 . S
C1783 U1766 2.882 . S
C1783 C1777 1.428 . S
C1783 O1786 1.301 . S
C1783 O1787 1.282 . S
O1784 U1766 2.441 . S
O1784 C1770 1.249 . S
O1785 U1766 2.420 . S
O1785 C1770 1.202 . S
O1786 U1766 2.455 . S
O1786 C1783 1.301 . S
O1787 U1766 2.449 . S
O1787 C1783 1.282 . S
H1788 C1761 0.931 . S
H1789 C1763 0.929 . S
H1790 C1764 0.930 . S
H1791 C1765 0.931 . S
H1792 C1772 0.932 . S
H1793 C1773 0.930 . S
H1794 C1774 0.929 . S
H1795 C1776 0.930 . S
H1796 C1778 0.932 . S
H1797 C1779 0.929 . S
H1798 C1780 0.928 . S
H1799 C1782 0.932 . S
C1800 C1801 1.264 . S
C1800 C1805 1.479 . S
C1800 C1810 1.465 . S
C1801 C1800 1.264 . S
C1801 C1803 1.339 . S
C1801 H1828 0.931 . S
C1802 C1803 1.395 . S
C1802 C1804 1.320 . S
C1803 C1801 1.339 . S
C1803 C1802 1.395 . S
C1803 H1829 0.929 . S
C1804 C1802 1.320 . S
C1804 C1805 1.405 . S
C1804 H1830 0.930 . S
C1805 C1800 1.479 . S
C1805 C1804 1.405 . S
C1805 H1831 0.931 . S
U1806 O1807 2.454 . S
U1806 O1808 2.458 . S
U1806 C1809 2.984 . S
U1806 C1810 2.847 . S
U1806 C1823 2.882 . S
U1806 O1824 2.441 . S
U1806 O1825 2.420 . S
U1806 O1826 2.455 . S
U1806 O1827 2.449 . S
O1807 U1806 2.454 . S
O1807 C1809 1.353 . S
O1808 U1806 2.458 . S
O1808 C1809 1.286 . S
C1809 U1806 2.984 . S
C1809 O1807 1.353 . S
C1809 O1808 1.286 . S
C1809 C1811 1.363 . S
C1810 C1800 1.465 . S
C1810 U1806 2.847 . S
C1810 O1824 1.249 . S
C1810 O1825 1.202 . S
C1811 C1809 1.363 . S
C1811 C1813 1.408 . S
C1811 C1816 1.342 . S
C1812 C1813 1.310 . S
C1812 C1815 1.461 . S
C1812 H1832 0.932 . S
C1813 C1811 1.408 . S
C1813 C1812 1.310 . S
C1813 H1833 0.930 . S
C1814 C1815 1.474 . S
C1814 C1816 1.285 . S
C1814 H1834 0.929 . S
C1815 C1812 1.461 . S
C1815 C1814 1.474 . S
C1816 C1811 1.342 . S
C1816 C1814 1.285 . S
C1816 H1835 0.930 . S
C1817 C1820 1.424 . S
C1817 C1822 1.245 . S
C1817 C1823 1.428 . S
C1818 C1821 1.260 . S
C1818 C1822 1.477 . S
C1818 H1836 0.932 . S
C1819 C1820 1.384 . S
C1819 C1821 1.479 . S
C1819 H1837 0.929 . S
C1820 C1817 1.424 . S
C1820 C1819 1.384 . S
C1820 H1838 0.928 . S
C1821 C1818 1.260 . S
C1821 C1819 1.479 . S
C1822 C1817 1.245 . S
C1822 C1818 1.477 . S
C1822 H1839 0.932 . S
C1823 U1806 2.882 . S
C1823 C1817 1.428 . S
C1823 O1826 1.301 . S
C1823 O1827 1.282 . S
O1824 U1806 2.441 . S
O1824 C1810 1.249 . S
O1825 U1806 2.420 . S
O1825 C1810 1.202 . S
O1826 U1806 2.455 . S
O1826 C1823 1.301 . S
O1827 U1806 2.449 . S
O1827 C1823 1.282 . S
H1828 C1801 0.931 . S
H1829 C1803 0.929 . S
H1830 C1804 0.930 . S
H1831 C1805 0.931 . S
H1832 C1812 0.932 . S
H1833 C1813 0.930 . S
H1834 C1814 0.929 . S
H1835 C1816 0.930 . S
H1836 C1818 0.932 . S
H1837 C1819 0.929 . S
H1838 C1820 0.928 . S
H1839 C1822 0.932 . S
C1840 C1841 1.264 . S
C1840 C1845 1.479 . S
C1840 C1850 1.465 . S
C1841 C1840 1.264 . S
C1841 C1843 1.339 . S
C1841 H1868 0.931 . S
C1842 C1843 1.395 . S
C1842 C1844 1.320 . S
C1843 C1841 1.339 . S
C1843 C1842 1.395 . S
C1843 H1869 0.929 . S
C1844 C1842 1.320 . S
C1844 C1845 1.405 . S
C1844 H1870 0.930 . S
C1845 C1840 1.479 . S
C1845 C1844 1.405 . S
C1845 H1871 0.931 . S
U1846 O1847 2.454 . S
U1846 O1848 2.458 . S
U1846 C1849 2.984 . S
U1846 C1850 2.847 . S
U1846 C1863 2.882 . S
U1846 O1864 2.441 . S
U1846 O1865 2.420 . S
U1846 O1866 2.455 . S
U1846 O1867 2.449 . S
O1847 U1846 2.454 . S
O1847 C1849 1.353 . S
O1848 U1846 2.458 . S
O1848 C1849 1.286 . S
C1849 U1846 2.984 . S
C1849 O1847 1.353 . S
C1849 O1848 1.286 . S
C1849 C1851 1.363 . S
C1850 C1840 1.465 . S
C1850 U1846 2.847 . S
C1850 O1864 1.249 . S
C1850 O1865 1.202 . S
C1851 C1849 1.363 . S
C1851 C1853 1.408 . S
C1851 C1856 1.342 . S
C1852 C1853 1.310 . S
C1852 C1855 1.461 . S
C1852 H1872 0.932 . S
C1853 C1851 1.408 . S
C1853 C1852 1.310 . S
C1853 H1873 0.930 . S
C1854 C1855 1.474 . S
C1854 C1856 1.285 . S
C1854 H1874 0.929 . S
C1855 C1852 1.461 . S
C1855 C1854 1.474 . S
C1856 C1851 1.342 . S
C1856 C1854 1.285 . S
C1856 H1875 0.930 . S
C1857 C1860 1.424 . S
C1857 C1862 1.245 . S
C1857 C1863 1.428 . S
C1858 C1861 1.260 . S
C1858 C1862 1.477 . S
C1858 H1876 0.932 . S
C1859 C1860 1.384 . S
C1859 C1861 1.479 . S
C1859 H1877 0.929 . S
C1860 C1857 1.424 . S
C1860 C1859 1.384 . S
C1860 H1878 0.928 . S
C1861 C1858 1.260 . S
C1861 C1859 1.479 . S
C1862 C1857 1.245 . S
C1862 C1858 1.477 . S
C1862 H1879 0.932 . S
C1863 U1846 2.882 . S
C1863 C1857 1.428 . S
C1863 O1866 1.301 . S
C1863 O1867 1.282 . S
O1864 U1846 2.441 . S
O1864 C1850 1.249 . S
O1865 U1846 2.420 . S
O1865 C1850 1.202 . S
O1866 U1846 2.455 . S
O1866 C1863 1.301 . S
O1867 U1846 2.449 . S
O1867 C1863 1.282 . S
H1868 C1841 0.931 . S
H1869 C1843 0.929 . S
H1870 C1844 0.930 . S
H1871 C1845 0.931 . S
H1872 C1852 0.932 . S
H1873 C1853 0.930 . S
H1874 C1854 0.929 . S
H1875 C1856 0.930 . S
H1876 C1858 0.932 . S
H1877 C1859 0.929 . S
H1878 C1860 0.928 . S
H1879 C1862 0.932 . S
C1880 C1881 1.264 . S
C1880 C1885 1.479 . S
C1880 C1890 1.465 . S
C1881 C1880 1.264 . S
C1881 C1883 1.339 . S
C1881 H1908 0.931 . S
C1882 C1883 1.395 . S
C1882 C1884 1.320 . S
C1883 C1881 1.339 . S
C1883 C1882 1.395 . S
C1883 H1909 0.929 . S
C1884 C1882 1.320 . S
C1884 C1885 1.405 . S
C1884 H1910 0.930 . S
C1885 C1880 1.479 . S
C1885 C1884 1.405 . S
C1885 H1911 0.931 . S
U1886 O1887 2.454 . S
U1886 O1888 2.458 . S
U1886 C1889 2.984 . S
U1886 C1890 2.847 . S
U1886 C1903 2.882 . S
U1886 O1904 2.441 . S
U1886 O1905 2.420 . S
U1886 O1906 2.455 . S
U1886 O1907 2.449 . S
O1887 U1886 2.454 . S
O1887 C1889 1.353 . S
O1888 U1886 2.458 . S
O1888 C1889 1.286 . S
C1889 U1886 2.984 . S
C1889 O1887 1.353 . S
C1889 O1888 1.286 . S
C1889 C1891 1.363 . S
C1890 C1880 1.465 . S
C1890 U1886 2.847 . S
C1890 O1904 1.249 . S
C1890 O1905 1.202 . S
C1891 C1889 1.363 . S
C1891 C1893 1.408 . S
C1891 C1896 1.342 . S
C1892 C1893 1.310 . S
C1892 C1895 1.461 . S
C1892 H1912 0.932 . S
C1893 C1891 1.408 . S
C1893 C1892 1.310 . S
C1893 H1913 0.930 . S
C1894 C1895 1.474 . S
C1894 C1896 1.285 . S
C1894 H1914 0.929 . S
C1895 C1892 1.461 . S
C1895 C1894 1.474 . S
C1896 C1891 1.342 . S
C1896 C1894 1.285 . S
C1896 H1915 0.930 . S
C1897 C1900 1.424 . S
C1897 C1902 1.245 . S
C1897 C1903 1.428 . S
C1898 C1901 1.260 . S
C1898 C1902 1.477 . S
C1898 H1916 0.932 . S
C1899 C1900 1.384 . S
C1899 C1901 1.479 . S
C1899 H1917 0.929 . S
C1900 C1897 1.424 . S
C1900 C1899 1.384 . S
C1900 H1918 0.928 . S
C1901 C1898 1.260 . S
C1901 C1899 1.479 . S
C1902 C1897 1.245 . S
C1902 C1898 1.477 . S
C1902 H1919 0.932 . S
C1903 U1886 2.882 . S
C1903 C1897 1.428 . S
C1903 O1906 1.301 . S
C1903 O1907 1.282 . S
O1904 U1886 2.441 . S
O1904 C1890 1.249 . S
O1905 U1886 2.420 . S
O1905 C1890 1.202 . S
O1906 U1886 2.455 . S
O1906 C1903 1.301 . S
O1907 U1886 2.449 . S
O1907 C1903 1.282 . S
H1908 C1881 0.931 . S
H1909 C1883 0.929 . S
H1910 C1884 0.930 . S
H1911 C1885 0.931 . S
H1912 C1892 0.932 . S
H1913 C1893 0.930 . S
H1914 C1894 0.929 . S
H1915 C1896 0.930 . S
H1916 C1898 0.932 . S
H1917 C1899 0.929 . S
H1918 C1900 0.928 . S
H1919 C1902 0.932 . S
H1920 C1921 0.949 . S
C1921 H1920 0.949 . S
C1921 C1922 1.395 . S
C1921 C1923 1.391 . S
C1922 C1921 1.395 . S
C1922 C1925 1.390 . S
C1923 C1921 1.391 . S
C1923 C1927 1.387 . S
C1923 C1928 1.491 . S
H1924 C1925 0.950 . S
C1925 C1922 1.390 . S
C1925 H1924 0.950 . S
C1925 C1926 1.378 . S
C1926 C1925 1.378 . S
C1926 C1927 1.409 . S
C1927 C1923 1.387 . S
C1927 C1926 1.409 . S
C1927 H1929 0.951 . S
C1928 C1923 1.491 . S
C1928 C1930 1.382 . S
C1928 C1932 1.404 . S
H1929 C1927 0.951 . S
C1930 C1928 1.382 . S
C1930 C1931 1.390 . S
C1930 H1935 0.949 . S
C1931 C1930 1.390 . S
C1931 C1936 1.399 . S
C1932 C1928 1.404 . S
C1932 H1933 0.950 . S
C1932 C1934 1.375 . S
H1933 C1932 0.950 . S
C1934 C1932 1.375 . S
C1934 C1936 1.382 . S
C1934 H1938 0.950 . S
H1935 C1930 0.949 . S
C1936 C1931 1.399 . S
C1936 C1934 1.382 . S
C1936 H1937 0.952 . S
H1937 C1936 0.952 . S
H1938 C1934 0.950 . S
H1939 C1940 0.949 . S
C1940 H1939 0.949 . S
C1940 C1941 1.395 . S
C1940 C1942 1.391 . S
C1941 C1940 1.395 . S
C1941 C1944 1.390 . S
C1942 C1940 1.391 . S
C1942 C1946 1.387 . S
C1942 C1947 1.491 . S
H1943 C1944 0.950 . S
C1944 C1941 1.390 . S
C1944 H1943 0.950 . S
C1944 C1945 1.378 . S
C1945 C1944 1.378 . S
C1945 C1946 1.409 . S
C1946 C1942 1.387 . S
C1946 C1945 1.409 . S
C1946 H1948 0.951 . S
C1947 C1942 1.491 . S
C1947 C1949 1.382 . S
C1947 C1951 1.404 . S
H1948 C1946 0.951 . S
C1949 C1947 1.382 . S
C1949 C1950 1.390 . S
C1949 H1954 0.949 . S
C1950 C1949 1.390 . S
C1950 C1955 1.399 . S
C1951 C1947 1.404 . S
C1951 H1952 0.950 . S
C1951 C1953 1.375 . S
H1952 C1951 0.950 . S
C1953 C1951 1.375 . S
C1953 C1955 1.382 . S
C1953 H1957 0.950 . S
H1954 C1949 0.949 . S
C1955 C1950 1.399 . S
C1955 C1953 1.382 . S
C1955 H1956 0.952 . S
H1956 C1955 0.952 . S
H1957 C1953 0.950 . S
H1958 C1959 0.949 . S
C1959 H1958 0.949 . S
C1959 C1960 1.395 . S
C1959 C1961 1.391 . S
C1960 C1959 1.395 . S
C1960 C1963 1.390 . S
C1961 C1959 1.391 . S
C1961 C1965 1.387 . S
C1961 C1966 1.491 . S
H1962 C1963 0.950 . S
C1963 C1960 1.390 . S
C1963 H1962 0.950 . S
C1963 C1964 1.378 . S
C1964 C1963 1.378 . S
C1964 C1965 1.409 . S
C1965 C1961 1.387 . S
C1965 C1964 1.409 . S
C1965 H1967 0.951 . S
C1966 C1961 1.491 . S
C1966 C1968 1.382 . S
C1966 C1970 1.404 . S
H1967 C1965 0.951 . S
C1968 C1966 1.382 . S
C1968 C1969 1.390 . S
C1968 H1973 0.949 . S
C1969 C1968 1.390 . S
C1969 C1974 1.399 . S
C1970 C1966 1.404 . S
C1970 H1971 0.950 . S
C1970 C1972 1.375 . S
H1971 C1970 0.950 . S
C1972 C1970 1.375 . S
C1972 C1974 1.382 . S
C1972 H1976 0.950 . S
H1973 C1968 0.949 . S
C1974 C1969 1.399 . S
C1974 C1972 1.382 . S
C1974 H1975 0.952 . S
H1975 C1974 0.952 . S
H1976 C1972 0.950 . S
H1977 C1978 0.949 . S
C1978 H1977 0.949 . S
C1978 C1979 1.395 . S
C1978 C1980 1.391 . S
C1979 C1978 1.395 . S
C1979 C1982 1.390 . S
C1980 C1978 1.391 . S
C1980 C1984 1.387 . S
C1980 C1985 1.491 . S
H1981 C1982 0.950 . S
C1982 C1979 1.390 . S
C1982 H1981 0.950 . S
C1982 C1983 1.378 . S
C1983 C1982 1.378 . S
C1983 C1984 1.409 . S
C1984 C1980 1.387 . S
C1984 C1983 1.409 . S
C1984 H1986 0.951 . S
C1985 C1980 1.491 . S
C1985 C1987 1.382 . S
C1985 C1989 1.404 . S
H1986 C1984 0.951 . S
C1987 C1985 1.382 . S
C1987 C1988 1.390 . S
C1987 H1992 0.949 . S
C1988 C1987 1.390 . S
C1988 C1993 1.399 . S
C1989 C1985 1.404 . S
C1989 H1990 0.950 . S
C1989 C1991 1.375 . S
H1990 C1989 0.950 . S
C1991 C1989 1.375 . S
C1991 C1993 1.382 . S
C1991 H1995 0.950 . S
H1992 C1987 0.949 . S
C1993 C1988 1.399 . S
C1993 C1991 1.382 . S
C1993 H1994 0.952 . S
H1994 C1993 0.952 . S
H1995 C1991 0.950 . S
H1996 C1997 0.949 . S
C1997 H1996 0.949 . S
C1997 C1998 1.395 . S
C1997 C1999 1.391 . S
C1998 C1997 1.395 . S
C1998 C2001 1.390 . S
C1999 C1997 1.391 . S
C1999 C2003 1.387 . S
C1999 C2004 1.491 . S
H2000 C2001 0.950 . S
C2001 C1998 1.390 . S
C2001 H2000 0.950 . S
C2001 C2002 1.378 . S
C2002 C2001 1.378 . S
C2002 C2003 1.409 . S
C2003 C1999 1.387 . S
C2003 C2002 1.409 . S
C2003 H2005 0.951 . S
C2004 C1999 1.491 . S
C2004 C2006 1.382 . S
C2004 C2008 1.404 . S
H2005 C2003 0.951 . S
C2006 C2004 1.382 . S
C2006 C2007 1.390 . S
C2006 H2011 0.949 . S
C2007 C2006 1.390 . S
C2007 C2012 1.399 . S
C2008 C2004 1.404 . S
C2008 H2009 0.950 . S
C2008 C2010 1.375 . S
H2009 C2008 0.950 . S
C2010 C2008 1.375 . S
C2010 C2012 1.382 . S
C2010 H2014 0.950 . S
H2011 C2006 0.949 . S
C2012 C2007 1.399 . S
C2012 C2010 1.382 . S
C2012 H2013 0.952 . S
H2013 C2012 0.952 . S
H2014 C2010 0.950 . S
H2015 C2016 0.949 . S
C2016 H2015 0.949 . S
C2016 C2017 1.395 . S
C2016 C2018 1.391 . S
C2017 C2016 1.395 . S
C2017 C2020 1.390 . S
C2018 C2016 1.391 . S
C2018 C2022 1.387 . S
C2018 C2023 1.491 . S
H2019 C2020 0.950 . S
C2020 C2017 1.390 . S
C2020 H2019 0.950 . S
C2020 C2021 1.378 . S
C2021 C2020 1.378 . S
C2021 C2022 1.409 . S
C2022 C2018 1.387 . S
C2022 C2021 1.409 . S
C2022 H2024 0.951 . S
C2023 C2018 1.491 . S
C2023 C2025 1.382 . S
C2023 C2027 1.404 . S
H2024 C2022 0.951 . S
C2025 C2023 1.382 . S
C2025 C2026 1.390 . S
C2025 H2030 0.949 . S
C2026 C2025 1.390 . S
C2026 C2031 1.399 . S
C2027 C2023 1.404 . S
C2027 H2028 0.950 . S
C2027 C2029 1.375 . S
H2028 C2027 0.950 . S
C2029 C2027 1.375 . S
C2029 C2031 1.382 . S
C2029 H2033 0.950 . S
H2030 C2025 0.949 . S
C2031 C2026 1.399 . S
C2031 C2029 1.382 . S
C2031 H2032 0.952 . S
H2032 C2031 0.952 . S
H2033 C2029 0.950 . S
H2034 C2035 0.949 . S
C2035 H2034 0.949 . S
C2035 C2036 1.395 . S
C2035 C2037 1.391 . S
C2036 C2035 1.395 . S
C2036 C2039 1.390 . S
C2037 C2035 1.391 . S
C2037 C2041 1.387 . S
C2037 C2042 1.491 . S
H2038 C2039 0.950 . S
C2039 C2036 1.390 . S
C2039 H2038 0.950 . S
C2039 C2040 1.378 . S
C2040 C2039 1.378 . S
C2040 C2041 1.409 . S
C2041 C2037 1.387 . S
C2041 C2040 1.409 . S
C2041 H2043 0.951 . S
C2042 C2037 1.491 . S
C2042 C2044 1.382 . S
C2042 C2046 1.404 . S
H2043 C2041 0.951 . S
C2044 C2042 1.382 . S
C2044 C2045 1.390 . S
C2044 H2049 0.949 . S
C2045 C2044 1.390 . S
C2045 C2050 1.399 . S
C2046 C2042 1.404 . S
C2046 H2047 0.950 . S
C2046 C2048 1.375 . S
H2047 C2046 0.950 . S
C2048 C2046 1.375 . S
C2048 C2050 1.382 . S
C2048 H2052 0.950 . S
H2049 C2044 0.949 . S
C2050 C2045 1.399 . S
C2050 C2048 1.382 . S
C2050 H2051 0.952 . S
H2051 C2050 0.952 . S
H2052 C2048 0.950 . S
H2053 C2054 0.949 . S
C2054 H2053 0.949 . S
C2054 C2055 1.395 . S
C2054 C2056 1.391 . S
C2055 C2054 1.395 . S
C2055 C2058 1.390 . S
C2056 C2054 1.391 . S
C2056 C2060 1.387 . S
C2056 C2061 1.491 . S
H2057 C2058 0.950 . S
C2058 C2055 1.390 . S
C2058 H2057 0.950 . S
C2058 C2059 1.378 . S
C2059 C2058 1.378 . S
C2059 C2060 1.409 . S
C2060 C2056 1.387 . S
C2060 C2059 1.409 . S
C2060 H2062 0.951 . S
C2061 C2056 1.491 . S
C2061 C2063 1.382 . S
C2061 C2065 1.404 . S
H2062 C2060 0.951 . S
C2063 C2061 1.382 . S
C2063 C2064 1.390 . S
C2063 H2068 0.949 . S
C2064 C2063 1.390 . S
C2064 C2069 1.399 . S
C2065 C2061 1.404 . S
C2065 H2066 0.950 . S
C2065 C2067 1.375 . S
H2066 C2065 0.950 . S
C2067 C2065 1.375 . S
C2067 C2069 1.382 . S
C2067 H2071 0.950 . S
H2068 C2063 0.949 . S
C2069 C2064 1.399 . S
C2069 C2067 1.382 . S
C2069 H2070 0.952 . S
H2070 C2069 0.952 . S
H2071 C2067 0.950 . S
H2072 C2073 0.949 . S
C2073 H2072 0.949 . S
C2073 C2074 1.395 . S
C2073 C2075 1.391 . S
C2074 C2073 1.395 . S
C2074 C2077 1.390 . S
C2075 C2073 1.391 . S
C2075 C2079 1.387 . S
C2075 C2080 1.491 . S
H2076 C2077 0.950 . S
C2077 C2074 1.390 . S
C2077 H2076 0.950 . S
C2077 C2078 1.378 . S
C2078 C2077 1.378 . S
C2078 C2079 1.409 . S
C2079 C2075 1.387 . S
C2079 C2078 1.409 . S
C2079 H2081 0.951 . S
C2080 C2075 1.491 . S
C2080 C2082 1.382 . S
C2080 C2084 1.404 . S
H2081 C2079 0.951 . S
C2082 C2080 1.382 . S
C2082 C2083 1.390 . S
C2082 H2087 0.949 . S
C2083 C2082 1.390 . S
C2083 C2088 1.399 . S
C2084 C2080 1.404 . S
C2084 H2085 0.950 . S
C2084 C2086 1.375 . S
H2085 C2084 0.950 . S
C2086 C2084 1.375 . S
C2086 C2088 1.382 . S
C2086 H2090 0.950 . S
H2087 C2082 0.949 . S
C2088 C2083 1.399 . S
C2088 C2086 1.382 . S
C2088 H2089 0.952 . S
H2089 C2088 0.952 . S
H2090 C2086 0.950 . S
H2091 C2092 0.949 . S
C2092 H2091 0.949 . S
C2092 C2093 1.395 . S
C2092 C2094 1.391 . S
C2093 C2092 1.395 . S
C2093 C2096 1.390 . S
C2094 C2092 1.391 . S
C2094 C2098 1.387 . S
C2094 C2099 1.491 . S
H2095 C2096 0.950 . S
C2096 C2093 1.390 . S
C2096 H2095 0.950 . S
C2096 C2097 1.378 . S
C2097 C2096 1.378 . S
C2097 C2098 1.409 . S
C2098 C2094 1.387 . S
C2098 C2097 1.409 . S
C2098 H2100 0.951 . S
C2099 C2094 1.491 . S
C2099 C2101 1.382 . S
C2099 C2103 1.404 . S
H2100 C2098 0.951 . S
C2101 C2099 1.382 . S
C2101 C2102 1.390 . S
C2101 H2106 0.949 . S
C2102 C2101 1.390 . S
C2102 C2107 1.399 . S
C2103 C2099 1.404 . S
C2103 H2104 0.950 . S
C2103 C2105 1.375 . S
H2104 C2103 0.950 . S
C2105 C2103 1.375 . S
C2105 C2107 1.382 . S
C2105 H2109 0.950 . S
H2106 C2101 0.949 . S
C2107 C2102 1.399 . S
C2107 C2105 1.382 . S
C2107 H2108 0.952 . S
H2108 C2107 0.952 . S
H2109 C2105 0.950 . S
H2110 C2111 0.949 . S
C2111 H2110 0.949 . S
C2111 C2112 1.395 . S
C2111 C2113 1.391 . S
C2112 C2111 1.395 . S
C2112 C2115 1.390 . S
C2113 C2111 1.391 . S
C2113 C2117 1.387 . S
C2113 C2118 1.491 . S
H2114 C2115 0.950 . S
C2115 C2112 1.390 . S
C2115 H2114 0.950 . S
C2115 C2116 1.378 . S
C2116 C2115 1.378 . S
C2116 C2117 1.409 . S
C2117 C2113 1.387 . S
C2117 C2116 1.409 . S
C2117 H2119 0.951 . S
C2118 C2113 1.491 . S
C2118 C2120 1.382 . S
C2118 C2122 1.404 . S
H2119 C2117 0.951 . S
C2120 C2118 1.382 . S
C2120 C2121 1.390 . S
C2120 H2125 0.949 . S
C2121 C2120 1.390 . S
C2121 C2126 1.399 . S
C2122 C2118 1.404 . S
C2122 H2123 0.950 . S
C2122 C2124 1.375 . S
H2123 C2122 0.950 . S
C2124 C2122 1.375 . S
C2124 C2126 1.382 . S
C2124 H2128 0.950 . S
H2125 C2120 0.949 . S
C2126 C2121 1.399 . S
C2126 C2124 1.382 . S
C2126 H2127 0.952 . S
H2127 C2126 0.952 . S
H2128 C2124 0.950 . S
H2129 C2130 0.949 . S
C2130 H2129 0.949 . S
C2130 C2131 1.395 . S
C2130 C2132 1.391 . S
C2131 C2130 1.395 . S
C2131 C2134 1.390 . S
C2132 C2130 1.391 . S
C2132 C2136 1.387 . S
C2132 C2137 1.491 . S
H2133 C2134 0.950 . S
C2134 C2131 1.390 . S
C2134 H2133 0.950 . S
C2134 C2135 1.378 . S
C2135 C2134 1.378 . S
C2135 C2136 1.409 . S
C2136 C2132 1.387 . S
C2136 C2135 1.409 . S
C2136 H2138 0.951 . S
C2137 C2132 1.491 . S
C2137 C2139 1.382 . S
C2137 C2141 1.404 . S
H2138 C2136 0.951 . S
C2139 C2137 1.382 . S
C2139 C2140 1.390 . S
C2139 H2144 0.949 . S
C2140 C2139 1.390 . S
C2140 C2145 1.399 . S
C2141 C2137 1.404 . S
C2141 H2142 0.950 . S
C2141 C2143 1.375 . S
H2142 C2141 0.950 . S
C2143 C2141 1.375 . S
C2143 C2145 1.382 . S
C2143 H2147 0.950 . S
H2144 C2139 0.949 . S
C2145 C2140 1.399 . S
C2145 C2143 1.382 . S
C2145 H2146 0.952 . S
H2146 C2145 0.952 . S
H2147 C2143 0.950 . S
H2148 C2149 0.949 . S
C2149 H2148 0.949 . S
C2149 C2150 1.395 . S
C2149 C2151 1.391 . S
C2150 C2149 1.395 . S
C2150 C2153 1.390 . S
C2151 C2149 1.391 . S
C2151 C2155 1.387 . S
C2151 C2156 1.491 . S
H2152 C2153 0.950 . S
C2153 C2150 1.390 . S
C2153 H2152 0.950 . S
C2153 C2154 1.378 . S
C2154 C2153 1.378 . S
C2154 C2155 1.409 . S
C2155 C2151 1.387 . S
C2155 C2154 1.409 . S
C2155 H2157 0.951 . S
C2156 C2151 1.491 . S
C2156 C2158 1.382 . S
C2156 C2160 1.404 . S
H2157 C2155 0.951 . S
C2158 C2156 1.382 . S
C2158 C2159 1.390 . S
C2158 H2163 0.949 . S
C2159 C2158 1.390 . S
C2159 C2164 1.399 . S
C2160 C2156 1.404 . S
C2160 H2161 0.950 . S
C2160 C2162 1.375 . S
H2161 C2160 0.950 . S
C2162 C2160 1.375 . S
C2162 C2164 1.382 . S
C2162 H2166 0.950 . S
H2163 C2158 0.949 . S
C2164 C2159 1.399 . S
C2164 C2162 1.382 . S
C2164 H2165 0.952 . S
H2165 C2164 0.952 . S
H2166 C2162 0.950 . S
H2167 C2168 0.949 . S
C2168 H2167 0.949 . S
C2168 C2169 1.395 . S
C2168 C2170 1.391 . S
C2169 C2168 1.395 . S
C2169 C2172 1.390 . S
C2170 C2168 1.391 . S
C2170 C2174 1.387 . S
C2170 C2175 1.491 . S
H2171 C2172 0.950 . S
C2172 C2169 1.390 . S
C2172 H2171 0.950 . S
C2172 C2173 1.378 . S
C2173 C2172 1.378 . S
C2173 C2174 1.409 . S
C2174 C2170 1.387 . S
C2174 C2173 1.409 . S
C2174 H2176 0.951 . S
C2175 C2170 1.491 . S
C2175 C2177 1.382 . S
C2175 C2179 1.404 . S
H2176 C2174 0.951 . S
C2177 C2175 1.382 . S
C2177 C2178 1.390 . S
C2177 H2182 0.949 . S
C2178 C2177 1.390 . S
C2178 C2183 1.399 . S
C2179 C2175 1.404 . S
C2179 H2180 0.950 . S
C2179 C2181 1.375 . S
H2180 C2179 0.950 . S
C2181 C2179 1.375 . S
C2181 C2183 1.382 . S
C2181 H2185 0.950 . S
H2182 C2177 0.949 . S
C2183 C2178 1.399 . S
C2183 C2181 1.382 . S
C2183 H2184 0.952 . S
H2184 C2183 0.952 . S
H2185 C2181 0.950 . S
H2186 C2187 0.949 . S
C2187 H2186 0.949 . S
C2187 C2188 1.395 . S
C2187 C2189 1.391 . S
C2188 C2187 1.395 . S
C2188 C2191 1.390 . S
C2189 C2187 1.391 . S
C2189 C2193 1.387 . S
C2189 C2194 1.491 . S
H2190 C2191 0.950 . S
C2191 C2188 1.390 . S
C2191 H2190 0.950 . S
C2191 C2192 1.378 . S
C2192 C2191 1.378 . S
C2192 C2193 1.409 . S
C2193 C2189 1.387 . S
C2193 C2192 1.409 . S
C2193 H2195 0.951 . S
C2194 C2189 1.491 . S
C2194 C2196 1.382 . S
C2194 C2198 1.404 . S
H2195 C2193 0.951 . S
C2196 C2194 1.382 . S
C2196 C2197 1.390 . S
C2196 H2201 0.949 . S
C2197 C2196 1.390 . S
C2197 C2202 1.399 . S
C2198 C2194 1.404 . S
C2198 H2199 0.950 . S
C2198 C2200 1.375 . S
H2199 C2198 0.950 . S
C2200 C2198 1.375 . S
C2200 C2202 1.382 . S
C2200 H2204 0.950 . S
H2201 C2196 0.949 . S
C2202 C2197 1.399 . S
C2202 C2200 1.382 . S
C2202 H2203 0.952 . S
H2203 C2202 0.952 . S
H2204 C2200 0.950 . S
H2205 C2206 0.949 . S
C2206 H2205 0.949 . S
C2206 C2207 1.395 . S
C2206 C2208 1.391 . S
C2207 C2206 1.395 . S
C2207 C2210 1.390 . S
C2208 C2206 1.391 . S
C2208 C2212 1.387 . S
C2208 C2213 1.491 . S
H2209 C2210 0.950 . S
C2210 C2207 1.390 . S
C2210 H2209 0.950 . S
C2210 C2211 1.378 . S
C2211 C2210 1.378 . S
C2211 C2212 1.409 . S
C2212 C2208 1.387 . S
C2212 C2211 1.409 . S
C2212 H2214 0.951 . S
C2213 C2208 1.491 . S
C2213 C2215 1.382 . S
C2213 C2217 1.404 . S
H2214 C2212 0.951 . S
C2215 C2213 1.382 . S
C2215 C2216 1.390 . S
C2215 H2220 0.949 . S
C2216 C2215 1.390 . S
C2216 C2221 1.399 . S
C2217 C2213 1.404 . S
C2217 H2218 0.950 . S
C2217 C2219 1.375 . S
H2218 C2217 0.950 . S
C2219 C2217 1.375 . S
C2219 C2221 1.382 . S
C2219 H2223 0.950 . S
H2220 C2215 0.949 . S
C2221 C2216 1.399 . S
C2221 C2219 1.382 . S
C2221 H2222 0.952 . S
H2222 C2221 0.952 . S
H2223 C2219 0.950 . S
H2224 C2225 0.949 . S
C2225 H2224 0.949 . S
C2225 C2226 1.395 . S
C2225 C2227 1.391 . S
C2226 C2225 1.395 . S
C2226 C2229 1.390 . S
C2227 C2225 1.391 . S
C2227 C2231 1.387 . S
C2227 C2232 1.491 . S
H2228 C2229 0.950 . S
C2229 C2226 1.390 . S
C2229 H2228 0.950 . S
C2229 C2230 1.378 . S
C2230 C2229 1.378 . S
C2230 C2231 1.409 . S
C2231 C2227 1.387 . S
C2231 C2230 1.409 . S
C2231 H2233 0.951 . S
C2232 C2227 1.491 . S
C2232 C2234 1.382 . S
C2232 C2236 1.404 . S
H2233 C2231 0.951 . S
C2234 C2232 1.382 . S
C2234 C2235 1.390 . S
C2234 H2239 0.949 . S
C2235 C2234 1.390 . S
C2235 C2240 1.399 . S
C2236 C2232 1.404 . S
C2236 H2237 0.950 . S
C2236 C2238 1.375 . S
H2237 C2236 0.950 . S
C2238 C2236 1.375 . S
C2238 C2240 1.382 . S
C2238 H2242 0.950 . S
H2239 C2234 0.949 . S
C2240 C2235 1.399 . S
C2240 C2238 1.382 . S
C2240 H2241 0.952 . S
H2241 C2240 0.952 . S
H2242 C2238 0.950 . S
H2243 C2244 0.949 . S
C2244 H2243 0.949 . S
C2244 C2245 1.395 . S
C2244 C2246 1.391 . S
C2245 C2244 1.395 . S
C2245 C2248 1.390 . S
C2246 C2244 1.391 . S
C2246 C2250 1.387 . S
C2246 C2251 1.491 . S
H2247 C2248 0.950 . S
C2248 C2245 1.390 . S
C2248 H2247 0.950 . S
C2248 C2249 1.378 . S
C2249 C2248 1.378 . S
C2249 C2250 1.409 . S
C2250 C2246 1.387 . S
C2250 C2249 1.409 . S
C2250 H2252 0.951 . S
C2251 C2246 1.491 . S
C2251 C2253 1.382 . S
C2251 C2255 1.404 . S
H2252 C2250 0.951 . S
C2253 C2251 1.382 . S
C2253 C2254 1.390 . S
C2253 H2258 0.949 . S
C2254 C2253 1.390 . S
C2254 C2259 1.399 . S
C2255 C2251 1.404 . S
C2255 H2256 0.950 . S
C2255 C2257 1.375 . S
H2256 C2255 0.950 . S
C2257 C2255 1.375 . S
C2257 C2259 1.382 . S
C2257 H2261 0.950 . S
H2258 C2253 0.949 . S
C2259 C2254 1.399 . S
C2259 C2257 1.382 . S
C2259 H2260 0.952 . S
H2260 C2259 0.952 . S
H2261 C2257 0.950 . S
H2262 C2263 0.949 . S
C2263 H2262 0.949 . S
C2263 C2264 1.395 . S
C2263 C2265 1.391 . S
C2264 C2263 1.395 . S
C2264 C2267 1.390 . S
C2265 C2263 1.391 . S
C2265 C2269 1.387 . S
C2265 C2270 1.491 . S
H2266 C2267 0.950 . S
C2267 C2264 1.390 . S
C2267 H2266 0.950 . S
C2267 C2268 1.378 . S
C2268 C2267 1.378 . S
C2268 C2269 1.409 . S
C2269 C2265 1.387 . S
C2269 C2268 1.409 . S
C2269 H2271 0.951 . S
C2270 C2265 1.491 . S
C2270 C2272 1.382 . S
C2270 C2274 1.404 . S
H2271 C2269 0.951 . S
C2272 C2270 1.382 . S
C2272 C2273 1.390 . S
C2272 H2277 0.949 . S
C2273 C2272 1.390 . S
C2273 C2278 1.399 . S
C2274 C2270 1.404 . S
C2274 H2275 0.950 . S
C2274 C2276 1.375 . S
H2275 C2274 0.950 . S
C2276 C2274 1.375 . S
C2276 C2278 1.382 . S
C2276 H2280 0.950 . S
H2277 C2272 0.949 . S
C2278 C2273 1.399 . S
C2278 C2276 1.382 . S
C2278 H2279 0.952 . S
H2279 C2278 0.952 . S
H2280 C2276 0.950 . S
H2281 C2282 0.949 . S
C2282 H2281 0.949 . S
C2282 C2283 1.395 . S
C2282 C2284 1.391 . S
C2283 C2282 1.395 . S
C2283 C2286 1.390 . S
C2284 C2282 1.391 . S
C2284 C2288 1.387 . S
C2284 C2289 1.491 . S
H2285 C2286 0.950 . S
C2286 C2283 1.390 . S
C2286 H2285 0.950 . S
C2286 C2287 1.378 . S
C2287 C2286 1.378 . S
C2287 C2288 1.409 . S
C2288 C2284 1.387 . S
C2288 C2287 1.409 . S
C2288 H2290 0.951 . S
C2289 C2284 1.491 . S
C2289 C2291 1.382 . S
C2289 C2293 1.404 . S
H2290 C2288 0.951 . S
C2291 C2289 1.382 . S
C2291 C2292 1.390 . S
C2291 H2296 0.949 . S
C2292 C2291 1.390 . S
C2292 C2297 1.399 . S
C2293 C2289 1.404 . S
C2293 H2294 0.950 . S
C2293 C2295 1.375 . S
H2294 C2293 0.950 . S
C2295 C2293 1.375 . S
C2295 C2297 1.382 . S
C2295 H2299 0.950 . S
H2296 C2291 0.949 . S
C2297 C2292 1.399 . S
C2297 C2295 1.382 . S
C2297 H2298 0.952 . S
H2298 C2297 0.952 . S
H2299 C2295 0.950 . S
H2300 C2301 0.949 . S
C2301 H2300 0.949 . S
C2301 C2302 1.395 . S
C2301 C2303 1.391 . S
C2302 C2301 1.395 . S
C2302 C2305 1.390 . S
C2303 C2301 1.391 . S
C2303 C2307 1.387 . S
C2303 C2308 1.491 . S
H2304 C2305 0.950 . S
C2305 C2302 1.390 . S
C2305 H2304 0.950 . S
C2305 C2306 1.378 . S
C2306 C2305 1.378 . S
C2306 C2307 1.409 . S
C2307 C2303 1.387 . S
C2307 C2306 1.409 . S
C2307 H2309 0.951 . S
C2308 C2303 1.491 . S
C2308 C2310 1.382 . S
C2308 C2312 1.404 . S
H2309 C2307 0.951 . S
C2310 C2308 1.382 . S
C2310 C2311 1.390 . S
C2310 H2315 0.949 . S
C2311 C2310 1.390 . S
C2311 C2316 1.399 . S
C2312 C2308 1.404 . S
C2312 H2313 0.950 . S
C2312 C2314 1.375 . S
H2313 C2312 0.950 . S
C2314 C2312 1.375 . S
C2314 C2316 1.382 . S
C2314 H2318 0.950 . S
H2315 C2310 0.949 . S
C2316 C2311 1.399 . S
C2316 C2314 1.382 . S
C2316 H2317 0.952 . S
H2317 C2316 0.952 . S
H2318 C2314 0.950 . S
H2319 C2320 0.949 . S
C2320 H2319 0.949 . S
C2320 C2321 1.395 . S
C2320 C2322 1.391 . S
C2321 C2320 1.395 . S
C2321 C2324 1.390 . S
C2322 C2320 1.391 . S
C2322 C2326 1.387 . S
C2322 C2327 1.491 . S
H2323 C2324 0.950 . S
C2324 C2321 1.390 . S
C2324 H2323 0.950 . S
C2324 C2325 1.378 . S
C2325 C2324 1.378 . S
C2325 C2326 1.409 . S
C2326 C2322 1.387 . S
C2326 C2325 1.409 . S
C2326 H2328 0.951 . S
C2327 C2322 1.491 . S
C2327 C2329 1.382 . S
C2327 C2331 1.404 . S
H2328 C2326 0.951 . S
C2329 C2327 1.382 . S
C2329 C2330 1.390 . S
C2329 H2334 0.949 . S
C2330 C2329 1.390 . S
C2330 C2335 1.399 . S
C2331 C2327 1.404 . S
C2331 H2332 0.950 . S
C2331 C2333 1.375 . S
H2332 C2331 0.950 . S
C2333 C2331 1.375 . S
C2333 C2335 1.382 . S
C2333 H2337 0.950 . S
H2334 C2329 0.949 . S
C2335 C2330 1.399 . S
C2335 C2333 1.382 . S
C2335 H2336 0.952 . S
H2336 C2335 0.952 . S
H2337 C2333 0.950 . S
H2338 C2339 0.949 . S
C2339 H2338 0.949 . S
C2339 C2340 1.395 . S
C2339 C2341 1.391 . S
C2340 C2339 1.395 . S
C2340 C2343 1.390 . S
C2341 C2339 1.391 . S
C2341 C2345 1.387 . S
C2341 C2346 1.491 . S
H2342 C2343 0.950 . S
C2343 C2340 1.390 . S
C2343 H2342 0.950 . S
C2343 C2344 1.378 . S
C2344 C2343 1.378 . S
C2344 C2345 1.409 . S
C2345 C2341 1.387 . S
C2345 C2344 1.409 . S
C2345 H2347 0.951 . S
C2346 C2341 1.491 . S
C2346 C2348 1.382 . S
C2346 C2350 1.404 . S
H2347 C2345 0.951 . S
C2348 C2346 1.382 . S
C2348 C2349 1.390 . S
C2348 H2353 0.949 . S
C2349 C2348 1.390 . S
C2349 C2354 1.399 . S
C2350 C2346 1.404 . S
C2350 H2351 0.950 . S
C2350 C2352 1.375 . S
H2351 C2350 0.950 . S
C2352 C2350 1.375 . S
C2352 C2354 1.382 . S
C2352 H2356 0.950 . S
H2353 C2348 0.949 . S
C2354 C2349 1.399 . S
C2354 C2352 1.382 . S
C2354 H2355 0.952 . S
H2355 C2354 0.952 . S
H2356 C2352 0.950 . S
H2357 C2358 0.949 . S
C2358 H2357 0.949 . S
C2358 C2359 1.395 . S
C2358 C2360 1.391 . S
C2359 C2358 1.395 . S
C2359 C2362 1.390 . S
C2360 C2358 1.391 . S
C2360 C2364 1.387 . S
C2360 C2365 1.491 . S
H2361 C2362 0.950 . S
C2362 C2359 1.390 . S
C2362 H2361 0.950 . S
C2362 C2363 1.378 . S
C2363 C2362 1.378 . S
C2363 C2364 1.409 . S
C2364 C2360 1.387 . S
C2364 C2363 1.409 . S
C2364 H2366 0.951 . S
C2365 C2360 1.491 . S
C2365 C2367 1.382 . S
C2365 C2369 1.404 . S
H2366 C2364 0.951 . S
C2367 C2365 1.382 . S
C2367 C2368 1.390 . S
C2367 H2372 0.949 . S
C2368 C2367 1.390 . S
C2368 C2373 1.399 . S
C2369 C2365 1.404 . S
C2369 H2370 0.950 . S
C2369 C2371 1.375 . S
H2370 C2369 0.950 . S
C2371 C2369 1.375 . S
C2371 C2373 1.382 . S
C2371 H2375 0.950 . S
H2372 C2367 0.949 . S
C2373 C2368 1.399 . S
C2373 C2371 1.382 . S
C2373 H2374 0.952 . S
H2374 C2373 0.952 . S
H2375 C2371 0.950 . S
H2376 C2377 0.949 . S
C2377 H2376 0.949 . S
C2377 C2378 1.395 . S
C2377 C2379 1.391 . S
C2378 C2377 1.395 . S
C2378 C2381 1.390 . S
C2379 C2377 1.391 . S
C2379 C2383 1.387 . S
C2379 C2384 1.491 . S
H2380 C2381 0.950 . S
C2381 C2378 1.390 . S
C2381 H2380 0.950 . S
C2381 C2382 1.378 . S
C2382 C2381 1.378 . S
C2382 C2383 1.409 . S
C2383 C2379 1.387 . S
C2383 C2382 1.409 . S
C2383 H2385 0.951 . S
C2384 C2379 1.491 . S
C2384 C2386 1.382 . S
C2384 C2388 1.404 . S
H2385 C2383 0.951 . S
C2386 C2384 1.382 . S
C2386 C2387 1.390 . S
C2386 H2391 0.949 . S
C2387 C2386 1.390 . S
C2387 C2392 1.399 . S
C2388 C2384 1.404 . S
C2388 H2389 0.950 . S
C2388 C2390 1.375 . S
H2389 C2388 0.950 . S
C2390 C2388 1.375 . S
C2390 C2392 1.382 . S
C2390 H2394 0.950 . S
H2391 C2386 0.949 . S
C2392 C2387 1.399 . S
C2392 C2390 1.382 . S
C2392 H2393 0.952 . S
H2393 C2392 0.952 . S
H2394 C2390 0.950 . S
H2395 C2396 0.949 . S
C2396 H2395 0.949 . S
C2396 C2397 1.395 . S
C2396 C2398 1.391 . S
C2397 C2396 1.395 . S
C2397 C2400 1.390 . S
C2398 C2396 1.391 . S
C2398 C2402 1.387 . S
C2398 C2403 1.491 . S
H2399 C2400 0.950 . S
C2400 C2397 1.390 . S
C2400 H2399 0.950 . S
C2400 C2401 1.378 . S
C2401 C2400 1.378 . S
C2401 C2402 1.409 . S
C2402 C2398 1.387 . S
C2402 C2401 1.409 . S
C2402 H2404 0.951 . S
C2403 C2398 1.491 . S
C2403 C2405 1.382 . S
C2403 C2407 1.404 . S
H2404 C2402 0.951 . S
C2405 C2403 1.382 . S
C2405 C2406 1.390 . S
C2405 H2410 0.949 . S
C2406 C2405 1.390 . S
C2406 C2411 1.399 . S
C2407 C2403 1.404 . S
C2407 H2408 0.950 . S
C2407 C2409 1.375 . S
H2408 C2407 0.950 . S
C2409 C2407 1.375 . S
C2409 C2411 1.382 . S
C2409 H2413 0.950 . S
H2410 C2405 0.949 . S
C2411 C2406 1.399 . S
C2411 C2409 1.382 . S
C2411 H2412 0.952 . S
H2412 C2411 0.952 . S
H2413 C2409 0.950 . S
H2414 C2415 0.949 . S
C2415 H2414 0.949 . S
C2415 C2416 1.395 . S
C2415 C2417 1.391 . S
C2416 C2415 1.395 . S
C2416 C2419 1.390 . S
C2417 C2415 1.391 . S
C2417 C2421 1.387 . S
C2417 C2422 1.491 . S
H2418 C2419 0.950 . S
C2419 C2416 1.390 . S
C2419 H2418 0.950 . S
C2419 C2420 1.378 . S
C2420 C2419 1.378 . S
C2420 C2421 1.409 . S
C2421 C2417 1.387 . S
C2421 C2420 1.409 . S
C2421 H2423 0.951 . S
C2422 C2417 1.491 . S
C2422 C2424 1.382 . S
C2422 C2426 1.404 . S
H2423 C2421 0.951 . S
C2424 C2422 1.382 . S
C2424 C2425 1.390 . S
C2424 H2429 0.949 . S
C2425 C2424 1.390 . S
C2425 C2430 1.399 . S
C2426 C2422 1.404 . S
C2426 H2427 0.950 . S
C2426 C2428 1.375 . S
H2427 C2426 0.950 . S
C2428 C2426 1.375 . S
C2428 C2430 1.382 . S
C2428 H2432 0.950 . S
H2429 C2424 0.949 . S
C2430 C2425 1.399 . S
C2430 C2428 1.382 . S
C2430 H2431 0.952 . S
H2431 C2430 0.952 . S
H2432 C2428 0.950 . S
H2433 C2434 0.949 . S
C2434 H2433 0.949 . S
C2434 C2435 1.395 . S
C2434 C2436 1.391 . S
C2435 C2434 1.395 . S
C2435 C2438 1.390 . S
C2436 C2434 1.391 . S
C2436 C2440 1.387 . S
C2436 C2441 1.491 . S
H2437 C2438 0.950 . S
C2438 C2435 1.390 . S
C2438 H2437 0.950 . S
C2438 C2439 1.378 . S
C2439 C2438 1.378 . S
C2439 C2440 1.409 . S
C2440 C2436 1.387 . S
C2440 C2439 1.409 . S
C2440 H2442 0.951 . S
C2441 C2436 1.491 . S
C2441 C2443 1.382 . S
C2441 C2445 1.404 . S
H2442 C2440 0.951 . S
C2443 C2441 1.382 . S
C2443 C2444 1.390 . S
C2443 H2448 0.949 . S
C2444 C2443 1.390 . S
C2444 C2449 1.399 . S
C2445 C2441 1.404 . S
C2445 H2446 0.950 . S
C2445 C2447 1.375 . S
H2446 C2445 0.950 . S
C2447 C2445 1.375 . S
C2447 C2449 1.382 . S
C2447 H2451 0.950 . S
H2448 C2443 0.949 . S
C2449 C2444 1.399 . S
C2449 C2447 1.382 . S
C2449 H2450 0.952 . S
H2450 C2449 0.952 . S
H2451 C2447 0.950 . S
H2452 C2453 0.949 . S
C2453 H2452 0.949 . S
C2453 C2454 1.395 . S
C2453 C2455 1.391 . S
C2454 C2453 1.395 . S
C2454 C2457 1.390 . S
C2455 C2453 1.391 . S
C2455 C2459 1.387 . S
C2455 C2460 1.491 . S
H2456 C2457 0.950 . S
C2457 C2454 1.390 . S
C2457 H2456 0.950 . S
C2457 C2458 1.378 . S
C2458 C2457 1.378 . S
C2458 C2459 1.409 . S
C2459 C2455 1.387 . S
C2459 C2458 1.409 . S
C2459 H2461 0.951 . S
C2460 C2455 1.491 . S
C2460 C2462 1.382 . S
C2460 C2464 1.404 . S
H2461 C2459 0.951 . S
C2462 C2460 1.382 . S
C2462 C2463 1.390 . S
C2462 H2467 0.949 . S
C2463 C2462 1.390 . S
C2463 C2468 1.399 . S
C2464 C2460 1.404 . S
C2464 H2465 0.950 . S
C2464 C2466 1.375 . S
H2465 C2464 0.950 . S
C2466 C2464 1.375 . S
C2466 C2468 1.382 . S
C2466 H2470 0.950 . S
H2467 C2462 0.949 . S
C2468 C2463 1.399 . S
C2468 C2466 1.382 . S
C2468 H2469 0.952 . S
H2469 C2468 0.952 . S
H2470 C2466 0.950 . S
H2471 C2472 0.949 . S
C2472 H2471 0.949 . S
C2472 C2473 1.395 . S
C2472 C2474 1.391 . S
C2473 C2472 1.395 . S
C2473 C2476 1.390 . S
C2474 C2472 1.391 . S
C2474 C2478 1.387 . S
C2474 C2479 1.491 . S
H2475 C2476 0.950 . S
C2476 C2473 1.390 . S
C2476 H2475 0.950 . S
C2476 C2477 1.378 . S
C2477 C2476 1.378 . S
C2477 C2478 1.409 . S
C2478 C2474 1.387 . S
C2478 C2477 1.409 . S
C2478 H2480 0.951 . S
C2479 C2474 1.491 . S
C2479 C2481 1.382 . S
C2479 C2483 1.404 . S
H2480 C2478 0.951 . S
C2481 C2479 1.382 . S
C2481 C2482 1.390 . S
C2481 H2486 0.949 . S
C2482 C2481 1.390 . S
C2482 C2487 1.395 . S
C2483 C2479 1.404 . S
C2483 H2484 0.950 . S
C2483 C2485 1.375 1_565 S
H2484 C2483 0.950 . S
C2485 C2483 1.375 1_545 S
C2485 C2487 1.381 1_545 S
C2485 H2489 0.950 . S
H2486 C2481 0.949 . S
C2487 C2482 1.395 . S
C2487 C2485 1.381 1_565 S
C2487 H2488 0.956 1_565 S
H2488 C2487 0.956 1_545 S
H2489 C2485 0.950 . S
H2490 C2491 0.949 . S
C2491 H2490 0.949 . S
C2491 C2492 1.395 . S
C2491 C2493 1.391 . S
C2492 C2491 1.395 . S
C2492 C2495 1.390 . S
C2493 C2491 1.391 . S
C2493 C2497 1.387 . S
C2493 C2498 1.491 . S
H2494 C2495 0.950 . S
C2495 C2492 1.390 . S
C2495 H2494 0.950 . S
C2495 C2496 1.378 . S
C2496 C2495 1.378 . S
C2496 C2497 1.409 . S
C2497 C2493 1.387 . S
C2497 C2496 1.409 . S
C2497 H2499 0.951 . S
C2498 C2493 1.491 . S
C2498 C2500 1.382 . S
C2498 C2502 1.404 . S
H2499 C2497 0.951 . S
C2500 C2498 1.382 . S
C2500 C2501 1.390 . S
C2500 H2505 0.949 . S
C2501 C2500 1.390 . S
C2501 C2506 1.399 . S
C2502 C2498 1.404 . S
C2502 H2503 0.950 . S
C2502 C2504 1.375 . S
H2503 C2502 0.950 . S
C2504 C2502 1.375 . S
C2504 C2506 1.382 . S
C2504 H2508 0.950 . S
H2505 C2500 0.949 . S
C2506 C2501 1.399 . S
C2506 C2504 1.382 . S
C2506 H2507 0.952 . S
H2507 C2506 0.952 . S
H2508 C2504 0.950 . S
H2509 C2510 0.949 . S
C2510 H2509 0.949 . S
C2510 C2511 1.395 . S
C2510 C2512 1.391 . S
C2511 C2510 1.395 . S
C2511 C2514 1.390 . S
C2512 C2510 1.391 . S
C2512 C2516 1.387 . S
C2512 C2517 1.491 . S
H2513 C2514 0.950 . S
C2514 C2511 1.390 . S
C2514 H2513 0.950 . S
C2514 C2515 1.378 . S
C2515 C2514 1.378 . S
C2515 C2516 1.409 . S
C2516 C2512 1.387 . S
C2516 C2515 1.409 . S
C2516 H2518 0.951 . S
C2517 C2512 1.491 . S
C2517 C2519 1.382 . S
C2517 C2521 1.404 . S
H2518 C2516 0.951 . S
C2519 C2517 1.382 . S
C2519 C2520 1.390 . S
C2519 H2524 0.949 . S
C2520 C2519 1.390 . S
C2520 C2525 1.375 1_545 S
C2521 C2517 1.404 . S
C2521 H2522 0.950 . S
C2521 C2523 1.375 1_545 S
H2522 C2521 0.950 . S
C2523 C2521 1.375 1_565 S
C2523 C2525 1.375 . S
C2523 H2527 0.950 . S
H2524 C2519 0.949 . S
C2525 C2520 1.375 1_565 S
C2525 C2523 1.375 . S
C2525 H2526 0.983 . S
H2526 C2525 0.983 . S
H2527 C2523 0.950 . S
H2528 C2529 0.949 . S
C2529 H2528 0.949 . S
C2529 C2530 1.395 . S
C2529 C2531 1.391 . S
C2530 C2529 1.395 . S
C2530 C2533 1.390 . S
C2531 C2529 1.391 . S
C2531 C2535 1.387 . S
C2531 C2536 1.491 . S
H2532 C2533 0.950 . S
C2533 C2530 1.390 . S
C2533 H2532 0.950 . S
C2533 C2534 1.378 . S
C2534 C2533 1.378 . S
C2534 C2535 1.409 . S
C2535 C2531 1.387 . S
C2535 C2534 1.409 . S
C2535 H2537 0.951 . S
C2536 C2531 1.491 . S
C2536 C2538 1.382 . S
C2536 C2540 1.404 . S
H2537 C2535 0.951 . S
C2538 C2536 1.382 . S
C2538 C2539 1.390 . S
C2538 H2543 0.949 . S
C2539 C2538 1.390 . S
C2539 C2544 1.399 . S
C2540 C2536 1.404 . S
C2540 H2541 0.950 . S
C2540 C2542 1.375 . S
H2541 C2540 0.950 . S
C2542 C2540 1.375 . S
C2542 C2544 1.382 . S
C2542 H2546 0.950 . S
H2543 C2538 0.949 . S
C2544 C2539 1.399 . S
C2544 C2542 1.382 . S
C2544 H2545 0.952 . S
H2545 C2544 0.952 . S
H2546 C2542 0.950 . S
H2547 C2548 0.949 . S
C2548 H2547 0.949 . S
C2548 C2549 1.395 . S
C2548 C2550 1.391 . S
C2549 C2548 1.395 . S
C2549 C2552 1.390 . S
C2550 C2548 1.391 . S
C2550 C2554 1.387 . S
C2550 C2555 1.491 . S
H2551 C2552 0.950 . S
C2552 C2549 1.390 . S
C2552 H2551 0.950 . S
C2552 C2553 1.378 . S
C2553 C2552 1.378 . S
C2553 C2554 1.409 . S
C2554 C2550 1.387 . S
C2554 C2553 1.409 . S
C2554 H2556 0.951 . S
C2555 C2550 1.491 . S
C2555 C2557 1.382 . S
C2555 C2559 1.404 . S
H2556 C2554 0.951 . S
C2557 C2555 1.382 . S
C2557 C2558 1.390 . S
C2557 H2562 0.949 . S
C2558 C2557 1.390 . S
C2558 C2563 1.399 . S
C2559 C2555 1.404 . S
C2559 H2560 0.950 . S
C2559 C2561 1.375 . S
H2560 C2559 0.950 . S
C2561 C2559 1.375 . S
C2561 C2563 1.382 . S
C2561 H2565 0.950 . S
H2562 C2557 0.949 . S
C2563 C2558 1.399 . S
C2563 C2561 1.382 . S
C2563 H2564 0.952 . S
H2564 C2563 0.952 . S
H2565 C2561 0.950 . S
H2566 C2567 0.949 . S
C2567 H2566 0.949 . S
C2567 C2568 1.395 . S
C2567 C2569 1.391 . S
C2568 C2567 1.395 . S
C2568 C2571 1.390 . S
C2569 C2567 1.391 . S
C2569 C2573 1.387 . S
C2569 C2574 1.491 . S
H2570 C2571 0.950 . S
C2571 C2568 1.390 . S
C2571 H2570 0.950 . S
C2571 C2572 1.378 . S
C2572 C2571 1.378 . S
C2572 C2573 1.409 . S
C2573 C2569 1.387 . S
C2573 C2572 1.409 . S
C2573 H2575 0.951 . S
C2574 C2569 1.491 . S
C2574 C2576 1.382 . S
C2574 C2578 1.404 . S
H2575 C2573 0.951 . S
C2576 C2574 1.382 . S
C2576 C2577 1.390 . S
C2576 H2581 0.949 . S
C2577 C2576 1.390 . S
C2577 C2582 1.399 . S
C2578 C2574 1.404 . S
C2578 H2579 0.950 . S
C2578 C2580 1.375 . S
H2579 C2578 0.950 . S
C2580 C2578 1.375 . S
C2580 C2582 1.382 . S
C2580 H2584 0.950 . S
H2581 C2576 0.949 . S
C2582 C2577 1.399 . S
C2582 C2580 1.382 . S
C2582 H2583 0.952 . S
H2583 C2582 0.952 . S
H2584 C2580 0.950 . S
H2585 C2586 0.949 . S
C2586 H2585 0.949 . S
C2586 C2587 1.395 . S
C2586 C2588 1.391 . S
C2587 C2586 1.395 . S
C2587 C2590 1.390 . S
C2588 C2586 1.391 . S
C2588 C2592 1.387 . S
C2588 C2593 1.491 . S
H2589 C2590 0.950 . S
C2590 C2587 1.390 . S
C2590 H2589 0.950 . S
C2590 C2591 1.378 . S
C2591 C2590 1.378 . S
C2591 C2592 1.409 . S
C2592 C2588 1.387 . S
C2592 C2591 1.409 . S
C2592 H2594 0.951 . S
C2593 C2588 1.491 . S
C2593 C2595 1.382 . S
C2593 C2597 1.404 . S
H2594 C2592 0.951 . S
C2595 C2593 1.382 . S
C2595 C2596 1.390 . S
C2595 H2600 0.949 . S
C2596 C2595 1.390 . S
C2596 C2601 1.399 . S
C2597 C2593 1.404 . S
C2597 H2598 0.950 . S
C2597 C2599 1.375 . S
H2598 C2597 0.950 . S
C2599 C2597 1.375 . S
C2599 C2601 1.382 . S
C2599 H2603 0.950 . S
H2600 C2595 0.949 . S
C2601 C2596 1.399 . S
C2601 C2599 1.382 . S
C2601 H2602 0.952 . S
H2602 C2601 0.952 . S
H2603 C2599 0.950 . S
H2604 C2605 0.949 . S
C2605 H2604 0.949 . S
C2605 C2606 1.395 . S
C2605 C2607 1.391 . S
C2606 C2605 1.395 . S
C2606 C2609 1.390 . S
C2607 C2605 1.391 . S
C2607 C2611 1.387 . S
C2607 C2612 1.491 . S
H2608 C2609 0.950 . S
C2609 C2606 1.390 . S
C2609 H2608 0.950 . S
C2609 C2610 1.378 . S
C2610 C2609 1.378 . S
C2610 C2611 1.409 . S
C2611 C2607 1.387 . S
C2611 C2610 1.409 . S
C2611 H2613 0.951 . S
C2612 C2607 1.491 . S
C2612 C2614 1.382 . S
C2612 C2616 1.404 . S
H2613 C2611 0.951 . S
C2614 C2612 1.382 . S
C2614 C2615 1.390 . S
C2614 H2619 0.949 . S
C2615 C2614 1.390 . S
C2615 C2620 1.399 . S
C2616 C2612 1.404 . S
C2616 H2617 0.950 . S
C2616 C2618 1.375 . S
H2617 C2616 0.950 . S
C2618 C2616 1.375 . S
C2618 C2620 1.382 . S
C2618 H2622 0.950 . S
H2619 C2614 0.949 . S
C2620 C2615 1.399 . S
C2620 C2618 1.382 . S
C2620 H2621 0.952 . S
H2621 C2620 0.952 . S
H2622 C2618 0.950 . S
H2623 C2624 0.949 . S
C2624 H2623 0.949 . S
C2624 C2625 1.395 . S
C2624 C2626 1.391 . S
C2625 C2624 1.395 . S
C2625 C2628 1.390 . S
C2626 C2624 1.391 . S
C2626 C2630 1.387 . S
C2626 C2631 1.491 . S
H2627 C2628 0.950 . S
C2628 C2625 1.390 . S
C2628 H2627 0.950 . S
C2628 C2629 1.378 . S
C2629 C2628 1.378 . S
C2629 C2630 1.409 . S
C2630 C2626 1.387 . S
C2630 C2629 1.409 . S
C2630 H2632 0.951 . S
C2631 C2626 1.491 . S
C2631 C2633 1.382 . S
C2631 C2635 1.404 . S
H2632 C2630 0.951 . S
C2633 C2631 1.382 . S
C2633 C2634 1.390 . S
C2633 H2638 0.949 . S
C2634 C2633 1.390 . S
C2634 C2639 1.399 . S
C2635 C2631 1.404 . S
C2635 H2636 0.950 . S
C2635 C2637 1.375 . S
H2636 C2635 0.950 . S
C2637 C2635 1.375 . S
C2637 C2639 1.382 . S
C2637 H2641 0.950 . S
H2638 C2633 0.949 . S
C2639 C2634 1.399 . S
C2639 C2637 1.382 . S
C2639 H2640 0.952 . S
H2640 C2639 0.952 . S
H2641 C2637 0.950 . S
H2642 C2643 0.949 . S
C2643 H2642 0.949 . S
C2643 C2644 1.395 . S
C2643 C2645 1.391 . S
C2644 C2643 1.395 . S
C2644 C2647 1.390 . S
C2645 C2643 1.391 . S
C2645 C2649 1.387 . S
C2645 C2650 1.491 . S
H2646 C2647 0.950 . S
C2647 C2644 1.390 . S
C2647 H2646 0.950 . S
C2647 C2648 1.378 . S
C2648 C2647 1.378 . S
C2648 C2649 1.409 . S
C2649 C2645 1.387 . S
C2649 C2648 1.409 . S
C2649 H2651 0.951 . S
C2650 C2645 1.491 . S
C2650 C2652 1.382 . S
C2650 C2654 1.404 . S
H2651 C2649 0.951 . S
C2652 C2650 1.382 . S
C2652 C2653 1.390 . S
C2652 H2657 0.949 . S
C2653 C2652 1.390 . S
C2653 C2658 1.399 . S
C2654 C2650 1.404 . S
C2654 H2655 0.950 . S
C2654 C2656 1.375 . S
H2655 C2654 0.950 . S
C2656 C2654 1.375 . S
C2656 C2658 1.382 . S
C2656 H2660 0.950 . S
H2657 C2652 0.949 . S
C2658 C2653 1.399 . S
C2658 C2656 1.382 . S
C2658 H2659 0.952 . S
H2659 C2658 0.952 . S
H2660 C2656 0.950 . S
H2661 C2662 0.949 . S
C2662 H2661 0.949 . S
C2662 C2663 1.395 . S
C2662 C2664 1.391 . S
C2663 C2662 1.395 . S
C2663 C2666 1.390 . S
C2664 C2662 1.391 . S
C2664 C2668 1.387 . S
C2664 C2669 1.491 . S
H2665 C2666 0.950 . S
C2666 C2663 1.390 . S
C2666 H2665 0.950 . S
C2666 C2667 1.378 . S
C2667 C2666 1.378 . S
C2667 C2668 1.409 . S
C2668 C2664 1.387 . S
C2668 C2667 1.409 . S
C2668 H2670 0.951 . S
C2669 C2664 1.491 . S
C2669 C2671 1.382 . S
C2669 C2673 1.404 . S
H2670 C2668 0.951 . S
C2671 C2669 1.382 . S
C2671 C2672 1.390 . S
C2671 H2676 0.949 . S
C2672 C2671 1.390 . S
C2672 C2677 1.399 . S
C2673 C2669 1.404 . S
C2673 H2674 0.950 . S
C2673 C2675 1.375 . S
H2674 C2673 0.950 . S
C2675 C2673 1.375 . S
C2675 C2677 1.382 . S
C2675 H2679 0.950 . S
H2676 C2671 0.949 . S
C2677 C2672 1.399 . S
C2677 C2675 1.382 . S
C2677 H2678 0.952 . S
H2678 C2677 0.952 . S
H2679 C2675 0.950 . S
H2680 C2681 0.949 . S
C2681 H2680 0.949 . S
C2681 C2682 1.395 . S
C2681 C2683 1.391 . S
C2682 C2681 1.395 . S
C2682 C2685 1.390 . S
C2683 C2681 1.391 . S
C2683 C2687 1.387 . S
C2683 C2688 1.491 . S
H2684 C2685 0.950 . S
C2685 C2682 1.390 . S
C2685 H2684 0.950 . S
C2685 C2686 1.378 . S
C2686 C2685 1.378 . S
C2686 C2687 1.409 . S
C2687 C2683 1.387 . S
C2687 C2686 1.409 . S
C2687 H2689 0.951 . S
C2688 C2683 1.491 . S
C2688 C2690 1.382 . S
C2688 C2692 1.404 . S
H2689 C2687 0.951 . S
C2690 C2688 1.382 . S
C2690 C2691 1.390 . S
C2690 H2695 0.949 . S
C2691 C2690 1.390 . S
C2691 C2696 1.399 . S
C2692 C2688 1.404 . S
C2692 H2693 0.950 . S
C2692 C2694 1.375 . S
H2693 C2692 0.950 . S
C2694 C2692 1.375 . S
C2694 C2696 1.382 . S
C2694 H2698 0.950 . S
H2695 C2690 0.949 . S
C2696 C2691 1.399 . S
C2696 C2694 1.382 . S
C2696 H2697 0.952 . S
H2697 C2696 0.952 . S
H2698 C2694 0.950 . S
H2699 C2700 0.949 . S
C2700 H2699 0.949 . S
C2700 C2701 1.395 . S
C2700 C2702 1.391 . S
C2701 C2700 1.395 . S
C2701 C2704 1.390 . S
C2702 C2700 1.391 . S
C2702 C2706 1.387 . S
C2702 C2707 1.491 . S
H2703 C2704 0.950 . S
C2704 C2701 1.390 . S
C2704 H2703 0.950 . S
C2704 C2705 1.378 . S
C2705 C2704 1.378 . S
C2705 C2706 1.409 . S
C2706 C2702 1.387 . S
C2706 C2705 1.409 . S
C2706 H2708 0.951 . S
C2707 C2702 1.491 . S
C2707 C2709 1.382 . S
C2707 C2711 1.404 . S
H2708 C2706 0.951 . S
C2709 C2707 1.382 . S
C2709 C2710 1.390 . S
C2709 H2714 0.949 . S
C2710 C2709 1.390 . S
C2710 C2715 1.399 . S
C2711 C2707 1.404 . S
C2711 H2712 0.950 . S
C2711 C2713 1.375 . S
H2712 C2711 0.950 . S
C2713 C2711 1.375 . S
C2713 C2715 1.382 . S
C2713 H2717 0.950 . S
H2714 C2709 0.949 . S
C2715 C2710 1.399 . S
C2715 C2713 1.382 . S
C2715 H2716 0.952 . S
H2716 C2715 0.952 . S
H2717 C2713 0.950 . S
H2718 C2719 0.949 . S
C2719 H2718 0.949 . S
C2719 C2720 1.395 . S
C2719 C2721 1.391 . S
C2720 C2719 1.395 . S
C2720 C2723 1.390 . S
C2721 C2719 1.391 . S
C2721 C2725 1.387 . S
C2721 C2726 1.491 . S
H2722 C2723 0.950 . S
C2723 C2720 1.390 . S
C2723 H2722 0.950 . S
C2723 C2724 1.378 . S
C2724 C2723 1.378 . S
C2724 C2725 1.409 . S
C2725 C2721 1.387 . S
C2725 C2724 1.409 . S
C2725 H2727 0.951 . S
C2726 C2721 1.491 . S
C2726 C2728 1.382 . S
C2726 C2730 1.404 . S
H2727 C2725 0.951 . S
C2728 C2726 1.382 . S
C2728 C2729 1.390 . S
C2728 H2733 0.949 . S
C2729 C2728 1.390 . S
C2729 C2734 1.399 . S
C2730 C2726 1.404 . S
C2730 H2731 0.950 . S
C2730 C2732 1.375 . S
H2731 C2730 0.950 . S
C2732 C2730 1.375 . S
C2732 C2734 1.382 . S
C2732 H2736 0.950 . S
H2733 C2728 0.949 . S
C2734 C2729 1.399 . S
C2734 C2732 1.382 . S
C2734 H2735 0.952 . S
H2735 C2734 0.952 . S
H2736 C2732 0.950 . S
H2737 C2738 0.949 . S
C2738 H2737 0.949 . S
C2738 C2739 1.395 . S
C2738 C2740 1.391 . S
C2739 C2738 1.395 . S
C2739 C2742 1.390 . S
C2740 C2738 1.391 . S
C2740 C2744 1.387 . S
C2740 C2745 1.491 . S
H2741 C2742 0.950 . S
C2742 C2739 1.390 . S
C2742 H2741 0.950 . S
C2742 C2743 1.378 . S
C2743 C2742 1.378 . S
C2743 C2744 1.409 . S
C2744 C2740 1.387 . S
C2744 C2743 1.409 . S
C2744 H2746 0.951 . S
C2745 C2740 1.491 . S
C2745 C2747 1.382 . S
C2745 C2749 1.404 . S
H2746 C2744 0.951 . S
C2747 C2745 1.382 . S
C2747 C2748 1.390 . S
C2747 H2752 0.949 . S
C2748 C2747 1.390 . S
C2748 C2753 1.399 . S
C2749 C2745 1.404 . S
C2749 H2750 0.950 . S
C2749 C2751 1.375 . S
H2750 C2749 0.950 . S
C2751 C2749 1.375 . S
C2751 C2753 1.382 . S
C2751 H2755 0.950 . S
H2752 C2747 0.949 . S
C2753 C2748 1.399 . S
C2753 C2751 1.382 . S
C2753 H2754 0.952 . S
H2754 C2753 0.952 . S
H2755 C2751 0.950 . S
H2756 C2757 0.949 . S
C2757 H2756 0.949 . S
C2757 C2758 1.395 . S
C2757 C2759 1.391 . S
C2758 C2757 1.395 . S
C2758 C2761 1.390 . S
C2759 C2757 1.391 . S
C2759 C2763 1.387 . S
C2759 C2764 1.491 . S
H2760 C2761 0.950 . S
C2761 C2758 1.390 . S
C2761 H2760 0.950 . S
C2761 C2762 1.378 . S
C2762 C2761 1.378 . S
C2762 C2763 1.409 . S
C2763 C2759 1.387 . S
C2763 C2762 1.409 . S
C2763 H2765 0.951 . S
C2764 C2759 1.491 . S
C2764 C2766 1.382 . S
C2764 C2768 1.404 . S
H2765 C2763 0.951 . S
C2766 C2764 1.382 . S
C2766 C2767 1.390 . S
C2766 H2771 0.949 . S
C2767 C2766 1.390 . S
C2767 C2772 1.399 . S
C2768 C2764 1.404 . S
C2768 H2769 0.950 . S
C2768 C2770 1.375 . S
H2769 C2768 0.950 . S
C2770 C2768 1.375 . S
C2770 C2772 1.382 . S
C2770 H2774 0.950 . S
H2771 C2766 0.949 . S
C2772 C2767 1.399 . S
C2772 C2770 1.382 . S
C2772 H2773 0.952 . S
H2773 C2772 0.952 . S
H2774 C2770 0.950 . S
H2775 C2776 0.949 . S
C2776 H2775 0.949 . S
C2776 C2777 1.395 . S
C2776 C2778 1.391 . S
C2777 C2776 1.395 . S
C2777 C2780 1.390 . S
C2778 C2776 1.391 . S
C2778 C2782 1.387 . S
C2778 C2783 1.491 . S
H2779 C2780 0.950 . S
C2780 C2777 1.390 . S
C2780 H2779 0.950 . S
C2780 C2781 1.378 . S
C2781 C2780 1.378 . S
C2781 C2782 1.409 . S
C2782 C2778 1.387 . S
C2782 C2781 1.409 . S
C2782 H2784 0.951 . S
C2783 C2778 1.491 . S
C2783 C2785 1.382 . S
C2783 C2787 1.404 . S
H2784 C2782 0.951 . S
C2785 C2783 1.382 . S
C2785 C2786 1.390 . S
C2785 H2790 0.949 . S
C2786 C2785 1.390 . S
C2786 C2791 1.399 . S
C2787 C2783 1.404 . S
C2787 H2788 0.950 . S
C2787 C2789 1.375 . S
H2788 C2787 0.950 . S
C2789 C2787 1.375 . S
C2789 C2791 1.382 . S
C2789 H2793 0.950 . S
H2790 C2785 0.949 . S
C2791 C2786 1.399 . S
C2791 C2789 1.382 . S
C2791 H2792 0.952 . S
H2792 C2791 0.952 . S
H2793 C2789 0.950 . S
H2794 C2795 0.949 . S
C2795 H2794 0.949 . S
C2795 C2796 1.395 . S
C2795 C2797 1.391 . S
C2796 C2795 1.395 . S
C2796 C2799 1.390 . S
C2797 C2795 1.391 . S
C2797 C2801 1.387 . S
C2797 C2802 1.491 . S
H2798 C2799 0.950 . S
C2799 C2796 1.390 . S
C2799 H2798 0.950 . S
C2799 C2800 1.378 . S
C2800 C2799 1.378 . S
C2800 C2801 1.409 . S
C2801 C2797 1.387 . S
C2801 C2800 1.409 . S
C2801 H2803 0.951 . S
C2802 C2797 1.491 . S
C2802 C2804 1.382 . S
C2802 C2806 1.404 . S
H2803 C2801 0.951 . S
C2804 C2802 1.382 . S
C2804 C2805 1.390 . S
C2804 H2809 0.949 . S
C2805 C2804 1.390 . S
C2805 C2810 1.399 . S
C2806 C2802 1.404 . S
C2806 H2807 0.950 . S
C2806 C2808 1.375 . S
H2807 C2806 0.950 . S
C2808 C2806 1.375 . S
C2808 C2810 1.382 . S
C2808 H2812 0.950 . S
H2809 C2804 0.949 . S
C2810 C2805 1.399 . S
C2810 C2808 1.382 . S
C2810 H2811 0.952 . S
H2811 C2810 0.952 . S
H2812 C2808 0.950 . S
H2813 C2814 0.949 . S
C2814 H2813 0.949 . S
C2814 C2815 1.395 . S
C2814 C2816 1.391 . S
C2815 C2814 1.395 . S
C2815 C2818 1.390 . S
C2816 C2814 1.391 . S
C2816 C2820 1.387 . S
C2816 C2821 1.491 . S
H2817 C2818 0.950 . S
C2818 C2815 1.390 . S
C2818 H2817 0.950 . S
C2818 C2819 1.378 . S
C2819 C2818 1.378 . S
C2819 C2820 1.409 . S
C2820 C2816 1.387 . S
C2820 C2819 1.409 . S
C2820 H2822 0.951 . S
C2821 C2816 1.491 . S
C2821 C2823 1.382 . S
C2821 C2825 1.404 . S
H2822 C2820 0.951 . S
C2823 C2821 1.382 . S
C2823 C2824 1.390 . S
C2823 H2828 0.949 . S
C2824 C2823 1.390 . S
C2824 C2829 1.399 . S
C2825 C2821 1.404 . S
C2825 H2826 0.950 . S
C2825 C2827 1.375 . S
H2826 C2825 0.950 . S
C2827 C2825 1.375 . S
C2827 C2829 1.382 . S
C2827 H2831 0.950 . S
H2828 C2823 0.949 . S
C2829 C2824 1.399 . S
C2829 C2827 1.382 . S
C2829 H2830 0.952 . S
H2830 C2829 0.952 . S
H2831 C2827 0.950 . S
C2832 C2833 1.349 . S
C2832 C2834 1.327 . S
C2832 H2857 0.950 . S
C2833 C2832 1.349 . S
C2833 C2849 1.349 . S
C2834 C2832 1.327 . S
C2834 C2853 1.429 . S
C2834 H2858 0.950 . S
C2835 C2852 1.574 . S
C2835 C2854 1.368 . S
C2835 H2859 0.949 . S
H2836 C2840 0.949 . S
C2837 C2838 1.349 . S
C2837 C2839 1.327 . S
C2837 H2860 0.950 . S
C2838 C2837 1.349 . S
C2838 C2850 1.349 . S
C2839 C2837 1.327 . S
C2839 C2855 1.429 . S
C2839 H2861 0.950 . S
C2840 H2836 0.949 . S
C2840 C2848 1.574 . S
C2840 C2856 1.368 . S
H2841 C2849 0.950 . S
H2842 C2847 0.950 . S
H2843 C2848 0.949 . S
H2844 C2850 0.950 . S
H2845 C2851 0.950 . S
H2846 C2852 0.949 . S
C2847 H2842 0.950 . S
C2847 C2849 1.327 . S
C2847 C2853 1.429 . S
C2848 C2840 1.574 . S
C2848 H2843 0.949 . S
C2848 C2854 1.368 . S
C2849 C2833 1.349 . S
C2849 H2841 0.950 . S
C2849 C2847 1.327 . S
C2850 C2838 1.349 . S
C2850 H2844 0.950 . S
C2850 C2851 1.327 . S
C2851 H2845 0.950 . S
C2851 C2850 1.327 . S
C2851 C2855 1.429 . S
C2852 C2835 1.574 . S
C2852 H2846 0.949 . S
C2852 C2856 1.368 . S
C2853 C2834 1.429 . S
C2853 C2847 1.429 . S
C2853 C2854 1.523 . S
C2854 C2835 1.368 . S
C2854 C2848 1.368 . S
C2854 C2853 1.523 . S
C2855 C2839 1.429 . S
C2855 C2851 1.429 . S
C2855 C2856 1.523 . S
C2856 C2840 1.368 . S
C2856 C2852 1.368 . S
C2856 C2855 1.523 . S
H2857 C2832 0.950 . S
H2858 C2834 0.950 . S
H2859 C2835 0.949 . S
H2860 C2837 0.950 . S
H2861 C2839 0.950 . S
C2862 C2863 1.349 . S
C2862 C2864 1.327 . S
C2862 H2887 0.950 . S
C2863 C2862 1.349 . S
C2863 C2879 1.349 . S
C2864 C2862 1.327 . S
C2864 C2883 1.429 . S
C2864 H2888 0.950 . S
C2865 C2882 1.574 . S
C2865 C2884 1.368 . S
C2865 H2889 0.949 . S
H2866 C2870 0.949 . S
C2867 C2868 1.349 . S
C2867 C2869 1.327 . S
C2867 H2890 0.950 . S
C2868 C2867 1.349 . S
C2868 C2880 1.349 . S
C2869 C2867 1.327 . S
C2869 C2885 1.429 . S
C2869 H2891 0.950 . S
C2870 H2866 0.949 . S
C2870 C2878 1.574 . S
C2870 C2886 1.368 . S
H2871 C2879 0.950 . S
H2872 C2877 0.950 . S
H2873 C2878 0.949 . S
H2874 C2880 0.950 . S
H2875 C2881 0.950 . S
H2876 C2882 0.949 . S
C2877 H2872 0.950 . S
C2877 C2879 1.327 . S
C2877 C2883 1.429 . S
C2878 C2870 1.574 . S
C2878 H2873 0.949 . S
C2878 C2884 1.368 . S
C2879 C2863 1.349 . S
C2879 H2871 0.950 . S
C2879 C2877 1.327 . S
C2880 C2868 1.349 . S
C2880 H2874 0.950 . S
C2880 C2881 1.327 . S
C2881 H2875 0.950 . S
C2881 C2880 1.327 . S
C2881 C2885 1.429 . S
C2882 C2865 1.574 . S
C2882 H2876 0.949 . S
C2882 C2886 1.368 . S
C2883 C2864 1.429 . S
C2883 C2877 1.429 . S
C2883 C2884 1.523 . S
C2884 C2865 1.368 . S
C2884 C2878 1.368 . S
C2884 C2883 1.523 . S
C2885 C2869 1.429 . S
C2885 C2881 1.429 . S
C2885 C2886 1.523 . S
C2886 C2870 1.368 . S
C2886 C2882 1.368 . S
C2886 C2885 1.523 . S
H2887 C2862 0.950 . S
H2888 C2864 0.950 . S
H2889 C2865 0.949 . S
H2890 C2867 0.950 . S
H2891 C2869 0.950 . S
C2892 C2893 1.349 . S
C2892 C2894 1.327 . S
C2892 H2917 0.950 . S
C2893 C2892 1.349 . S
C2893 C2909 1.349 . S
C2894 C2892 1.327 . S
C2894 C2913 1.429 . S
C2894 H2918 0.950 . S
C2895 C2912 1.574 . S
C2895 C2914 1.368 . S
C2895 H2919 0.949 . S
H2896 C2900 0.949 . S
C2897 C2898 1.349 . S
C2897 C2899 1.327 . S
C2897 H2920 0.950 . S
C2898 C2897 1.349 . S
C2898 C2910 1.349 . S
C2899 C2897 1.327 . S
C2899 C2915 1.429 . S
C2899 H2921 0.950 . S
C2900 H2896 0.949 . S
C2900 C2908 1.574 . S
C2900 C2916 1.368 . S
H2901 C2909 0.950 . S
H2902 C2907 0.950 . S
H2903 C2908 0.949 . S
H2904 C2910 0.950 . S
H2905 C2911 0.950 . S
H2906 C2912 0.949 . S
C2907 H2902 0.950 . S
C2907 C2909 1.327 . S
C2907 C2913 1.429 . S
C2908 C2900 1.574 . S
C2908 H2903 0.949 . S
C2908 C2914 1.368 . S
C2909 C2893 1.349 . S
C2909 H2901 0.950 . S
C2909 C2907 1.327 . S
C2910 C2898 1.349 . S
C2910 H2904 0.950 . S
C2910 C2911 1.327 . S
C2911 H2905 0.950 . S
C2911 C2910 1.327 . S
C2911 C2915 1.429 . S
C2912 C2895 1.574 . S
C2912 H2906 0.949 . S
C2912 C2916 1.368 . S
C2913 C2894 1.429 . S
C2913 C2907 1.429 . S
C2913 C2914 1.523 . S
C2914 C2895 1.368 . S
C2914 C2908 1.368 . S
C2914 C2913 1.523 . S
C2915 C2899 1.429 . S
C2915 C2911 1.429 . S
C2915 C2916 1.523 . S
C2916 C2900 1.368 . S
C2916 C2912 1.368 . S
C2916 C2915 1.523 . S
H2917 C2892 0.950 . S
H2918 C2894 0.950 . S
H2919 C2895 0.949 . S
H2920 C2897 0.950 . S
H2921 C2899 0.950 . S
C2922 C2923 1.349 . S
C2922 C2924 1.327 . S
C2922 H2947 0.950 . S
C2923 C2922 1.349 . S
C2923 C2939 1.349 . S
C2924 C2922 1.327 . S
C2924 C2943 1.429 . S
C2924 H2948 0.950 . S
C2925 C2942 1.574 . S
C2925 C2944 1.368 . S
C2925 H2949 0.949 . S
H2926 C2930 0.949 . S
C2927 C2928 1.349 . S
C2927 C2929 1.327 . S
C2927 H2950 0.950 . S
C2928 C2927 1.349 . S
C2928 C2940 1.349 . S
C2929 C2927 1.327 . S
C2929 C2945 1.429 . S
C2929 H2951 0.950 . S
C2930 H2926 0.949 . S
C2930 C2938 1.574 . S
C2930 C2946 1.368 . S
H2931 C2939 0.950 . S
H2932 C2937 0.950 . S
H2933 C2938 0.949 . S
H2934 C2940 0.950 . S
H2935 C2941 0.950 . S
H2936 C2942 0.949 . S
C2937 H2932 0.950 . S
C2937 C2939 1.327 . S
C2937 C2943 1.429 . S
C2938 C2930 1.574 . S
C2938 H2933 0.949 . S
C2938 C2944 1.368 . S
C2939 C2923 1.349 . S
C2939 H2931 0.950 . S
C2939 C2937 1.327 . S
C2940 C2928 1.349 . S
C2940 H2934 0.950 . S
C2940 C2941 1.327 . S
C2941 H2935 0.950 . S
C2941 C2940 1.327 . S
C2941 C2945 1.429 . S
C2942 C2925 1.574 . S
C2942 H2936 0.949 . S
C2942 C2946 1.368 . S
C2943 C2924 1.429 . S
C2943 C2937 1.429 . S
C2943 C2944 1.523 . S
C2944 C2925 1.368 . S
C2944 C2938 1.368 . S
C2944 C2943 1.523 . S
C2945 C2929 1.429 . S
C2945 C2941 1.429 . S
C2945 C2946 1.523 . S
C2946 C2930 1.368 . S
C2946 C2942 1.368 . S
C2946 C2945 1.523 . S
H2947 C2922 0.950 . S
H2948 C2924 0.950 . S
H2949 C2925 0.949 . S
H2950 C2927 0.950 . S
H2951 C2929 0.950 . S
C2952 C2953 1.349 . S
C2952 C2954 1.327 . S
C2952 H2977 0.950 . S
C2953 C2952 1.349 . S
C2953 C2969 1.349 . S
C2954 C2952 1.327 . S
C2954 C2973 1.429 . S
C2954 H2978 0.950 . S
C2955 C2972 1.574 . S
C2955 C2974 1.368 . S
C2955 H2979 0.949 . S
H2956 C2960 0.949 . S
C2957 C2958 1.349 . S
C2957 C2959 1.327 . S
C2957 H2980 0.950 . S
C2958 C2957 1.349 . S
C2958 C2970 1.349 . S
C2959 C2957 1.327 . S
C2959 C2975 1.429 . S
C2959 H2981 0.950 . S
C2960 H2956 0.949 . S
C2960 C2968 1.574 . S
C2960 C2976 1.368 . S
H2961 C2969 0.950 . S
H2962 C2967 0.950 . S
H2963 C2968 0.949 . S
H2964 C2970 0.950 . S
H2965 C2971 0.950 . S
H2966 C2972 0.949 . S
C2967 H2962 0.950 . S
C2967 C2969 1.327 . S
C2967 C2973 1.429 . S
C2968 C2960 1.574 . S
C2968 H2963 0.949 . S
C2968 C2974 1.368 . S
C2969 C2953 1.349 . S
C2969 H2961 0.950 . S
C2969 C2967 1.327 . S
C2970 C2958 1.349 . S
C2970 H2964 0.950 . S
C2970 C2971 1.327 . S
C2971 H2965 0.950 . S
C2971 C2970 1.327 . S
C2971 C2975 1.429 . S
C2972 C2955 1.574 . S
C2972 H2966 0.949 . S
C2972 C2976 1.368 . S
C2973 C2954 1.429 . S
C2973 C2967 1.429 . S
C2973 C2974 1.523 . S
C2974 C2955 1.368 . S
C2974 C2968 1.368 . S
C2974 C2973 1.523 . S
C2975 C2959 1.429 . S
C2975 C2971 1.429 . S
C2975 C2976 1.523 . S
C2976 C2960 1.368 . S
C2976 C2972 1.368 . S
C2976 C2975 1.523 . S
H2977 C2952 0.950 . S
H2978 C2954 0.950 . S
H2979 C2955 0.949 . S
H2980 C2957 0.950 . S
H2981 C2959 0.950 . S
C2982 C2983 1.349 . S
C2982 C2984 1.327 . S
C2982 H3007 0.950 . S
C2983 C2982 1.349 . S
C2983 C2999 1.349 . S
C2984 C2982 1.327 . S
C2984 C3003 1.429 . S
C2984 H3008 0.950 . S
C2985 C3002 1.574 . S
C2985 C3004 1.368 . S
C2985 H3009 0.949 . S
H2986 C2990 0.949 . S
C2987 C2988 1.349 . S
C2987 C2989 1.327 . S
C2987 H3010 0.950 . S
C2988 C2987 1.349 . S
C2988 C3000 1.349 . S
C2989 C2987 1.327 . S
C2989 C3005 1.429 . S
C2989 H3011 0.950 . S
C2990 H2986 0.949 . S
C2990 C2998 1.574 . S
C2990 C3006 1.368 . S
H2991 C2999 0.950 . S
H2992 C2997 0.950 . S
H2993 C2998 0.949 . S
H2994 C3000 0.950 . S
H2995 C3001 0.950 . S
H2996 C3002 0.949 . S
C2997 H2992 0.950 . S
C2997 C2999 1.327 . S
C2997 C3003 1.429 . S
C2998 C2990 1.574 . S
C2998 H2993 0.949 . S
C2998 C3004 1.368 . S
C2999 C2983 1.349 . S
C2999 H2991 0.950 . S
C2999 C2997 1.327 . S
C3000 C2988 1.349 . S
C3000 H2994 0.950 . S
C3000 C3001 1.327 . S
C3001 H2995 0.950 . S
C3001 C3000 1.327 . S
C3001 C3005 1.429 . S
C3002 C2985 1.574 . S
C3002 H2996 0.949 . S
C3002 C3006 1.368 . S
C3003 C2984 1.429 . S
C3003 C2997 1.429 . S
C3003 C3004 1.523 . S
C3004 C2985 1.368 . S
C3004 C2998 1.368 . S
C3004 C3003 1.523 . S
C3005 C2989 1.429 . S
C3005 C3001 1.429 . S
C3005 C3006 1.523 . S
C3006 C2990 1.368 . S
C3006 C3002 1.368 . S
C3006 C3005 1.523 . S
H3007 C2982 0.950 . S
H3008 C2984 0.950 . S
H3009 C2985 0.949 . S
H3010 C2987 0.950 . S
H3011 C2989 0.950 . S
C3012 C3013 1.349 . S
C3012 C3014 1.327 . S
C3012 H3037 0.950 . S
C3013 C3012 1.349 . S
C3013 C3029 1.349 . S
C3014 C3012 1.327 . S
C3014 C3033 1.429 . S
C3014 H3038 0.950 . S
C3015 C3032 1.574 . S
C3015 C3034 1.368 . S
C3015 H3039 0.949 . S
H3016 C3020 0.949 . S
C3017 C3018 1.349 . S
C3017 C3019 1.327 . S
C3017 H3040 0.950 . S
C3018 C3017 1.349 . S
C3018 C3030 1.349 . S
C3019 C3017 1.327 . S
C3019 C3035 1.429 . S
C3019 H3041 0.950 . S
C3020 H3016 0.949 . S
C3020 C3028 1.574 . S
C3020 C3036 1.368 . S
H3021 C3029 0.950 . S
H3022 C3027 0.950 . S
H3023 C3028 0.949 . S
H3024 C3030 0.950 . S
H3025 C3031 0.950 . S
H3026 C3032 0.949 . S
C3027 H3022 0.950 . S
C3027 C3029 1.327 . S
C3027 C3033 1.429 . S
C3028 C3020 1.574 . S
C3028 H3023 0.949 . S
C3028 C3034 1.368 . S
C3029 C3013 1.349 . S
C3029 H3021 0.950 . S
C3029 C3027 1.327 . S
C3030 C3018 1.349 . S
C3030 H3024 0.950 . S
C3030 C3031 1.327 . S
C3031 H3025 0.950 . S
C3031 C3030 1.327 . S
C3031 C3035 1.429 . S
C3032 C3015 1.574 . S
C3032 H3026 0.949 . S
C3032 C3036 1.368 . S
C3033 C3014 1.429 . S
C3033 C3027 1.429 . S
C3033 C3034 1.523 . S
C3034 C3015 1.368 . S
C3034 C3028 1.368 . S
C3034 C3033 1.523 . S
C3035 C3019 1.429 . S
C3035 C3031 1.429 . S
C3035 C3036 1.523 . S
C3036 C3020 1.368 . S
C3036 C3032 1.368 . S
C3036 C3035 1.523 . S
H3037 C3012 0.950 . S
H3038 C3014 0.950 . S
H3039 C3015 0.949 . S
H3040 C3017 0.950 . S
H3041 C3019 0.950 . S
C3042 C3043 1.349 . S
C3042 C3044 1.327 . S
C3042 H3067 0.950 . S
C3043 C3042 1.349 . S
C3043 C3059 1.349 . S
C3044 C3042 1.327 . S
C3044 C3063 1.429 . S
C3044 H3068 0.950 . S
C3045 C3062 1.574 . S
C3045 C3064 1.368 . S
C3045 H3069 0.949 . S
H3046 C3050 0.949 . S
C3047 C3048 1.349 . S
C3047 C3049 1.327 . S
C3047 H3070 0.950 . S
C3048 C3047 1.349 . S
C3048 C3060 1.349 . S
C3049 C3047 1.327 . S
C3049 C3065 1.429 . S
C3049 H3071 0.950 . S
C3050 H3046 0.949 . S
C3050 C3058 1.574 . S
C3050 C3066 1.368 . S
H3051 C3059 0.950 . S
H3052 C3057 0.950 . S
H3053 C3058 0.949 . S
H3054 C3060 0.950 . S
H3055 C3061 0.950 . S
H3056 C3062 0.949 . S
C3057 H3052 0.950 . S
C3057 C3059 1.327 . S
C3057 C3063 1.429 . S
C3058 C3050 1.574 . S
C3058 H3053 0.949 . S
C3058 C3064 1.368 . S
C3059 C3043 1.349 . S
C3059 H3051 0.950 . S
C3059 C3057 1.327 . S
C3060 C3048 1.349 . S
C3060 H3054 0.950 . S
C3060 C3061 1.327 . S
C3061 H3055 0.950 . S
C3061 C3060 1.327 . S
C3061 C3065 1.429 . S
C3062 C3045 1.574 . S
C3062 H3056 0.949 . S
C3062 C3066 1.368 . S
C3063 C3044 1.429 . S
C3063 C3057 1.429 . S
C3063 C3064 1.523 . S
C3064 C3045 1.368 . S
C3064 C3058 1.368 . S
C3064 C3063 1.523 . S
C3065 C3049 1.429 . S
C3065 C3061 1.429 . S
C3065 C3066 1.523 . S
C3066 C3050 1.368 . S
C3066 C3062 1.368 . S
C3066 C3065 1.523 . S
H3067 C3042 0.950 . S
H3068 C3044 0.950 . S
H3069 C3045 0.949 . S
H3070 C3047 0.950 . S
H3071 C3049 0.950 . S
C3072 C3073 1.349 . S
C3072 C3074 1.327 . S
C3072 H3097 0.950 . S
C3073 C3072 1.349 . S
C3073 C3089 1.349 . S
C3074 C3072 1.327 . S
C3074 C3093 1.429 . S
C3074 H3098 0.950 . S
C3075 C3092 1.574 . S
C3075 C3094 1.368 . S
C3075 H3099 0.949 . S
H3076 C3080 0.949 . S
C3077 C3078 1.349 . S
C3077 C3079 1.327 . S
C3077 H3100 0.950 . S
C3078 C3077 1.349 . S
C3078 C3090 1.349 . S
C3079 C3077 1.327 . S
C3079 C3095 1.429 . S
C3079 H3101 0.950 . S
C3080 H3076 0.949 . S
C3080 C3088 1.574 . S
C3080 C3096 1.368 . S
H3081 C3089 0.950 . S
H3082 C3087 0.950 . S
H3083 C3088 0.949 . S
H3084 C3090 0.950 . S
H3085 C3091 0.950 . S
H3086 C3092 0.949 . S
C3087 H3082 0.950 . S
C3087 C3089 1.327 . S
C3087 C3093 1.429 . S
C3088 C3080 1.574 . S
C3088 H3083 0.949 . S
C3088 C3094 1.368 . S
C3089 C3073 1.349 . S
C3089 H3081 0.950 . S
C3089 C3087 1.327 . S
C3090 C3078 1.349 . S
C3090 H3084 0.950 . S
C3090 C3091 1.327 . S
C3091 H3085 0.950 . S
C3091 C3090 1.327 . S
C3091 C3095 1.429 . S
C3092 C3075 1.574 . S
C3092 H3086 0.949 . S
C3092 C3096 1.368 . S
C3093 C3074 1.429 . S
C3093 C3087 1.429 . S
C3093 C3094 1.523 . S
C3094 C3075 1.368 . S
C3094 C3088 1.368 . S
C3094 C3093 1.523 . S
C3095 C3079 1.429 . S
C3095 C3091 1.429 . S
C3095 C3096 1.523 . S
C3096 C3080 1.368 . S
C3096 C3092 1.368 . S
C3096 C3095 1.523 . S
H3097 C3072 0.950 . S
H3098 C3074 0.950 . S
H3099 C3075 0.949 . S
H3100 C3077 0.950 . S
H3101 C3079 0.950 . S
C3102 C3103 1.349 . S
C3102 C3104 1.327 . S
C3102 H3127 0.950 . S
C3103 C3102 1.349 . S
C3103 C3119 1.349 . S
C3104 C3102 1.327 . S
C3104 C3123 1.429 . S
C3104 H3128 0.950 . S
C3105 C3122 1.574 . S
C3105 C3124 1.368 . S
C3105 H3129 0.949 . S
H3106 C3110 0.949 . S
C3107 C3108 1.349 . S
C3107 C3109 1.327 . S
C3107 H3130 0.950 . S
C3108 C3107 1.349 . S
C3108 C3120 1.349 . S
C3109 C3107 1.327 . S
C3109 C3125 1.429 . S
C3109 H3131 0.950 . S
C3110 H3106 0.949 . S
C3110 C3118 1.574 . S
C3110 C3126 1.368 . S
H3111 C3119 0.950 . S
H3112 C3117 0.950 . S
H3113 C3118 0.949 . S
H3114 C3120 0.950 . S
H3115 C3121 0.950 . S
H3116 C3122 0.949 . S
C3117 H3112 0.950 . S
C3117 C3119 1.327 . S
C3117 C3123 1.429 . S
C3118 C3110 1.574 . S
C3118 H3113 0.949 . S
C3118 C3124 1.368 . S
C3119 C3103 1.349 . S
C3119 H3111 0.950 . S
C3119 C3117 1.327 . S
C3120 C3108 1.349 . S
C3120 H3114 0.950 . S
C3120 C3121 1.327 . S
C3121 H3115 0.950 . S
C3121 C3120 1.327 . S
C3121 C3125 1.429 . S
C3122 C3105 1.574 . S
C3122 H3116 0.949 . S
C3122 C3126 1.368 . S
C3123 C3104 1.429 . S
C3123 C3117 1.429 . S
C3123 C3124 1.523 . S
C3124 C3105 1.368 . S
C3124 C3118 1.368 . S
C3124 C3123 1.523 . S
C3125 C3109 1.429 . S
C3125 C3121 1.429 . S
C3125 C3126 1.523 . S
C3126 C3110 1.368 . S
C3126 C3122 1.368 . S
C3126 C3125 1.523 . S
H3127 C3102 0.950 . S
H3128 C3104 0.950 . S
H3129 C3105 0.949 . S
H3130 C3107 0.950 . S
H3131 C3109 0.950 . S
C3132 C3133 1.349 . S
C3132 C3134 1.327 . S
C3132 H3157 0.950 . S
C3133 C3132 1.349 . S
C3133 C3149 1.349 . S
C3134 C3132 1.327 . S
C3134 C3153 1.429 . S
C3134 H3158 0.950 . S
C3135 C3152 1.574 . S
C3135 C3154 1.368 . S
C3135 H3159 0.949 . S
H3136 C3140 0.949 . S
C3137 C3138 1.349 . S
C3137 C3139 1.327 . S
C3137 H3160 0.950 . S
C3138 C3137 1.349 . S
C3138 C3150 1.349 . S
C3139 C3137 1.327 . S
C3139 C3155 1.429 . S
C3139 H3161 0.950 . S
C3140 H3136 0.949 . S
C3140 C3148 1.574 . S
C3140 C3156 1.368 . S
H3141 C3149 0.950 . S
H3142 C3147 0.950 . S
H3143 C3148 0.949 . S
H3144 C3150 0.950 . S
H3145 C3151 0.950 . S
H3146 C3152 0.949 . S
C3147 H3142 0.950 . S
C3147 C3149 1.327 . S
C3147 C3153 1.429 . S
C3148 C3140 1.574 . S
C3148 H3143 0.949 . S
C3148 C3154 1.368 . S
C3149 C3133 1.349 . S
C3149 H3141 0.950 . S
C3149 C3147 1.327 . S
C3150 C3138 1.349 . S
C3150 H3144 0.950 . S
C3150 C3151 1.327 . S
C3151 H3145 0.950 . S
C3151 C3150 1.327 . S
C3151 C3155 1.429 . S
C3152 C3135 1.574 . S
C3152 H3146 0.949 . S
C3152 C3156 1.368 . S
C3153 C3134 1.429 . S
C3153 C3147 1.429 . S
C3153 C3154 1.523 . S
C3154 C3135 1.368 . S
C3154 C3148 1.368 . S
C3154 C3153 1.523 . S
C3155 C3139 1.429 . S
C3155 C3151 1.429 . S
C3155 C3156 1.523 . S
C3156 C3140 1.368 . S
C3156 C3152 1.368 . S
C3156 C3155 1.523 . S
H3157 C3132 0.950 . S
H3158 C3134 0.950 . S
H3159 C3135 0.949 . S
H3160 C3137 0.950 . S
H3161 C3139 0.950 . S
C3162 C3163 1.349 . S
C3162 C3164 1.327 . S
C3162 H3187 0.950 . S
C3163 C3162 1.349 . S
C3163 C3179 1.349 . S
C3164 C3162 1.327 . S
C3164 C3183 1.429 . S
C3164 H3188 0.950 . S
C3165 C3182 1.574 . S
C3165 C3184 1.368 . S
C3165 H3189 0.949 . S
H3166 C3170 0.949 . S
C3167 C3168 1.349 . S
C3167 C3169 1.327 . S
C3167 H3190 0.950 . S
C3168 C3167 1.349 . S
C3168 C3180 1.349 . S
C3169 C3167 1.327 . S
C3169 C3185 1.429 . S
C3169 H3191 0.950 . S
C3170 H3166 0.949 . S
C3170 C3178 1.574 . S
C3170 C3186 1.368 . S
H3171 C3179 0.950 . S
H3172 C3177 0.950 . S
H3173 C3178 0.949 . S
H3174 C3180 0.950 . S
H3175 C3181 0.950 . S
H3176 C3182 0.949 . S
C3177 H3172 0.950 . S
C3177 C3179 1.327 . S
C3177 C3183 1.429 . S
C3178 C3170 1.574 . S
C3178 H3173 0.949 . S
C3178 C3184 1.368 . S
C3179 C3163 1.349 . S
C3179 H3171 0.950 . S
C3179 C3177 1.327 . S
C3180 C3168 1.349 . S
C3180 H3174 0.950 . S
C3180 C3181 1.327 . S
C3181 H3175 0.950 . S
C3181 C3180 1.327 . S
C3181 C3185 1.429 . S
C3182 C3165 1.574 . S
C3182 H3176 0.949 . S
C3182 C3186 1.368 . S
C3183 C3164 1.429 . S
C3183 C3177 1.429 . S
C3183 C3184 1.523 . S
C3184 C3165 1.368 . S
C3184 C3178 1.368 . S
C3184 C3183 1.523 . S
C3185 C3169 1.429 . S
C3185 C3181 1.429 . S
C3185 C3186 1.523 . S
C3186 C3170 1.368 . S
C3186 C3182 1.368 . S
C3186 C3185 1.523 . S
H3187 C3162 0.950 . S
H3188 C3164 0.950 . S
H3189 C3165 0.949 . S
H3190 C3167 0.950 . S
H3191 C3169 0.950 . S
C3192 C3193 1.349 . S
C3192 C3194 1.327 . S
C3192 H3217 0.950 . S
C3193 C3192 1.349 . S
C3193 C3209 1.349 . S
C3194 C3192 1.327 . S
C3194 C3213 1.429 . S
C3194 H3218 0.950 . S
C3195 C3212 1.574 . S
C3195 C3214 1.368 . S
C3195 H3219 0.949 . S
H3196 C3200 0.949 . S
C3197 C3198 1.349 . S
C3197 C3199 1.327 . S
C3197 H3220 0.950 . S
C3198 C3197 1.349 . S
C3198 C3210 1.349 . S
C3199 C3197 1.327 . S
C3199 C3215 1.429 . S
C3199 H3221 0.950 . S
C3200 H3196 0.949 . S
C3200 C3208 1.574 . S
C3200 C3216 1.368 . S
H3201 C3209 0.950 . S
H3202 C3207 0.950 . S
H3203 C3208 0.949 . S
H3204 C3210 0.950 . S
H3205 C3211 0.950 . S
H3206 C3212 0.949 . S
C3207 H3202 0.950 . S
C3207 C3209 1.327 . S
C3207 C3213 1.429 . S
C3208 C3200 1.574 . S
C3208 H3203 0.949 . S
C3208 C3214 1.368 . S
C3209 C3193 1.349 . S
C3209 H3201 0.950 . S
C3209 C3207 1.327 . S
C3210 C3198 1.349 . S
C3210 H3204 0.950 . S
C3210 C3211 1.327 . S
C3211 H3205 0.950 . S
C3211 C3210 1.327 . S
C3211 C3215 1.429 . S
C3212 C3195 1.574 . S
C3212 H3206 0.949 . S
C3212 C3216 1.368 . S
C3213 C3194 1.429 . S
C3213 C3207 1.429 . S
C3213 C3214 1.523 . S
C3214 C3195 1.368 . S
C3214 C3208 1.368 . S
C3214 C3213 1.523 . S
C3215 C3199 1.429 . S
C3215 C3211 1.429 . S
C3215 C3216 1.523 . S
C3216 C3200 1.368 . S
C3216 C3212 1.368 . S
C3216 C3215 1.523 . S
H3217 C3192 0.950 . S
H3218 C3194 0.950 . S
H3219 C3195 0.949 . S
H3220 C3197 0.950 . S
H3221 C3199 0.950 . S
C3222 C3223 1.349 . S
C3222 C3224 1.327 . S
C3222 H3247 0.950 . S
C3223 C3222 1.349 . S
C3223 C3239 1.349 . S
C3224 C3222 1.327 . S
C3224 C3243 1.429 . S
C3224 H3248 0.950 . S
C3225 C3242 1.574 . S
C3225 C3244 1.368 . S
C3225 H3249 0.949 . S
H3226 C3230 0.949 . S
C3227 C3228 1.349 . S
C3227 C3229 1.327 . S
C3227 H3250 0.950 . S
C3228 C3227 1.349 . S
C3228 C3240 1.349 . S
C3229 C3227 1.327 . S
C3229 C3245 1.429 . S
C3229 H3251 0.950 . S
C3230 H3226 0.949 . S
C3230 C3238 1.574 . S
C3230 C3246 1.368 . S
H3231 C3239 0.950 . S
H3232 C3237 0.950 . S
H3233 C3238 0.949 . S
H3234 C3240 0.950 . S
H3235 C3241 0.950 . S
H3236 C3242 0.949 . S
C3237 H3232 0.950 . S
C3237 C3239 1.327 . S
C3237 C3243 1.429 . S
C3238 C3230 1.574 . S
C3238 H3233 0.949 . S
C3238 C3244 1.368 . S
C3239 C3223 1.349 . S
C3239 H3231 0.950 . S
C3239 C3237 1.327 . S
C3240 C3228 1.349 . S
C3240 H3234 0.950 . S
C3240 C3241 1.327 . S
C3241 H3235 0.950 . S
C3241 C3240 1.327 . S
C3241 C3245 1.429 . S
C3242 C3225 1.574 . S
C3242 H3236 0.949 . S
C3242 C3246 1.368 . S
C3243 C3224 1.429 . S
C3243 C3237 1.429 . S
C3243 C3244 1.523 . S
C3244 C3225 1.368 . S
C3244 C3238 1.368 . S
C3244 C3243 1.523 . S
C3245 C3229 1.429 . S
C3245 C3241 1.429 . S
C3245 C3246 1.523 . S
C3246 C3230 1.368 . S
C3246 C3242 1.368 . S
C3246 C3245 1.523 . S
H3247 C3222 0.950 . S
H3248 C3224 0.950 . S
H3249 C3225 0.949 . S
H3250 C3227 0.950 . S
H3251 C3229 0.950 . S
C3252 C3253 1.349 . S
C3252 C3254 1.327 . S
C3252 H3277 0.950 . S
C3253 C3252 1.349 . S
C3253 C3269 1.349 . S
C3254 C3252 1.327 . S
C3254 C3273 1.429 . S
C3254 H3278 0.950 . S
C3255 C3272 1.574 . S
C3255 C3274 1.368 . S
C3255 H3279 0.949 . S
H3256 C3260 0.949 . S
C3257 C3258 1.349 . S
C3257 C3259 1.327 . S
C3257 H3280 0.950 . S
C3258 C3257 1.349 . S
C3258 C3270 1.349 . S
C3259 C3257 1.327 . S
C3259 C3275 1.429 . S
C3259 H3281 0.950 . S
C3260 H3256 0.949 . S
C3260 C3268 1.574 . S
C3260 C3276 1.368 . S
H3261 C3269 0.950 . S
H3262 C3267 0.950 . S
H3263 C3268 0.949 . S
H3264 C3270 0.950 . S
H3265 C3271 0.950 . S
H3266 C3272 0.949 . S
C3267 H3262 0.950 . S
C3267 C3269 1.327 . S
C3267 C3273 1.429 . S
C3268 C3260 1.574 . S
C3268 H3263 0.949 . S
C3268 C3274 1.368 . S
C3269 C3253 1.349 . S
C3269 H3261 0.950 . S
C3269 C3267 1.327 . S
C3270 C3258 1.349 . S
C3270 H3264 0.950 . S
C3270 C3271 1.327 . S
C3271 H3265 0.950 . S
C3271 C3270 1.327 . S
C3271 C3275 1.429 . S
C3272 C3255 1.574 . S
C3272 H3266 0.949 . S
C3272 C3276 1.368 . S
C3273 C3254 1.429 . S
C3273 C3267 1.429 . S
C3273 C3274 1.523 . S
C3274 C3255 1.368 . S
C3274 C3268 1.368 . S
C3274 C3273 1.523 . S
C3275 C3259 1.429 . S
C3275 C3271 1.429 . S
C3275 C3276 1.523 . S
C3276 C3260 1.368 . S
C3276 C3272 1.368 . S
C3276 C3275 1.523 . S
H3277 C3252 0.950 . S
H3278 C3254 0.950 . S
H3279 C3255 0.949 . S
H3280 C3257 0.950 . S
H3281 C3259 0.950 . S
C3282 C3283 1.349 . S
C3282 C3284 1.327 . S
C3282 H3307 0.950 . S
C3283 C3282 1.349 . S
C3283 C3299 1.349 . S
C3284 C3282 1.327 . S
C3284 C3303 1.429 . S
C3284 H3308 0.950 . S
C3285 C3302 1.574 . S
C3285 C3304 1.368 . S
C3285 H3309 0.949 . S
H3286 C3290 0.949 . S
C3287 C3288 1.349 . S
C3287 C3289 1.327 . S
C3287 H3310 0.950 . S
C3288 C3287 1.349 . S
C3288 C3300 1.349 . S
C3289 C3287 1.327 . S
C3289 C3305 1.429 . S
C3289 H3311 0.950 . S
C3290 H3286 0.949 . S
C3290 C3298 1.574 . S
C3290 C3306 1.368 . S
H3291 C3299 0.950 . S
H3292 C3297 0.950 . S
H3293 C3298 0.949 . S
H3294 C3300 0.950 . S
H3295 C3301 0.950 . S
H3296 C3302 0.949 . S
C3297 H3292 0.950 . S
C3297 C3299 1.327 . S
C3297 C3303 1.429 . S
C3298 C3290 1.574 . S
C3298 H3293 0.949 . S
C3298 C3304 1.368 . S
C3299 C3283 1.349 . S
C3299 H3291 0.950 . S
C3299 C3297 1.327 . S
C3300 C3288 1.349 . S
C3300 H3294 0.950 . S
C3300 C3301 1.327 . S
C3301 H3295 0.950 . S
C3301 C3300 1.327 . S
C3301 C3305 1.429 . S
C3302 C3285 1.574 . S
C3302 H3296 0.949 . S
C3302 C3306 1.368 . S
C3303 C3284 1.429 . S
C3303 C3297 1.429 . S
C3303 C3304 1.523 . S
C3304 C3285 1.368 . S
C3304 C3298 1.368 . S
C3304 C3303 1.523 . S
C3305 C3289 1.429 . S
C3305 C3301 1.429 . S
C3305 C3306 1.523 . S
C3306 C3290 1.368 . S
C3306 C3302 1.368 . S
C3306 C3305 1.523 . S
H3307 C3282 0.950 . S
H3308 C3284 0.950 . S
H3309 C3285 0.949 . S
H3310 C3287 0.950 . S
H3311 C3289 0.950 . S
C3312 C3313 1.349 . S
C3312 C3314 1.327 . S
C3312 H3337 0.950 . S
C3313 C3312 1.349 . S
C3313 C3329 1.349 . S
C3314 C3312 1.327 . S
C3314 C3333 1.429 . S
C3314 H3338 0.950 . S
C3315 C3332 1.574 . S
C3315 C3334 1.368 . S
C3315 H3339 0.949 . S
H3316 C3320 0.949 . S
C3317 C3318 1.349 . S
C3317 C3319 1.327 . S
C3317 H3340 0.950 . S
C3318 C3317 1.349 . S
C3318 C3330 1.349 . S
C3319 C3317 1.327 . S
C3319 C3335 1.429 . S
C3319 H3341 0.950 . S
C3320 H3316 0.949 . S
C3320 C3328 1.574 . S
C3320 C3336 1.368 . S
H3321 C3329 0.950 . S
H3322 C3327 0.950 . S
H3323 C3328 0.949 . S
H3324 C3330 0.950 . S
H3325 C3331 0.950 . S
H3326 C3332 0.949 . S
C3327 H3322 0.950 . S
C3327 C3329 1.327 . S
C3327 C3333 1.429 . S
C3328 C3320 1.574 . S
C3328 H3323 0.949 . S
C3328 C3334 1.368 . S
C3329 C3313 1.349 . S
C3329 H3321 0.950 . S
C3329 C3327 1.327 . S
C3330 C3318 1.349 . S
C3330 H3324 0.950 . S
C3330 C3331 1.327 . S
C3331 H3325 0.950 . S
C3331 C3330 1.327 . S
C3331 C3335 1.429 . S
C3332 C3315 1.574 . S
C3332 H3326 0.949 . S
C3332 C3336 1.368 . S
C3333 C3314 1.429 . S
C3333 C3327 1.429 . S
C3333 C3334 1.523 . S
C3334 C3315 1.368 . S
C3334 C3328 1.368 . S
C3334 C3333 1.523 . S
C3335 C3319 1.429 . S
C3335 C3331 1.429 . S
C3335 C3336 1.523 . S
C3336 C3320 1.368 . S
C3336 C3332 1.368 . S
C3336 C3335 1.523 . S
H3337 C3312 0.950 . S
H3338 C3314 0.950 . S
H3339 C3315 0.949 . S
H3340 C3317 0.950 . S
H3341 C3319 0.950 . S
C3342 C3343 1.349 . S
C3342 C3344 1.327 . S
C3342 H3367 0.950 . S
C3343 C3342 1.349 . S
C3343 C3359 1.349 . S
C3344 C3342 1.327 . S
C3344 C3363 1.429 . S
C3344 H3368 0.950 . S
C3345 C3362 1.574 . S
C3345 C3364 1.368 . S
C3345 H3369 0.949 . S
H3346 C3350 0.949 . S
C3347 C3348 1.349 . S
C3347 C3349 1.327 . S
C3347 H3370 0.950 . S
C3348 C3347 1.349 . S
C3348 C3360 1.349 . S
C3349 C3347 1.327 . S
C3349 C3365 1.429 . S
C3349 H3371 0.950 . S
C3350 H3346 0.949 . S
C3350 C3358 1.574 . S
C3350 C3366 1.368 . S
H3351 C3359 0.950 . S
H3352 C3357 0.950 . S
H3353 C3358 0.949 . S
H3354 C3360 0.950 . S
H3355 C3361 0.950 . S
H3356 C3362 0.949 . S
C3357 H3352 0.950 . S
C3357 C3359 1.327 . S
C3357 C3363 1.429 . S
C3358 C3350 1.574 . S
C3358 H3353 0.949 . S
C3358 C3364 1.368 . S
C3359 C3343 1.349 . S
C3359 H3351 0.950 . S
C3359 C3357 1.327 . S
C3360 C3348 1.349 . S
C3360 H3354 0.950 . S
C3360 C3361 1.327 . S
C3361 H3355 0.950 . S
C3361 C3360 1.327 . S
C3361 C3365 1.429 . S
C3362 C3345 1.574 . S
C3362 H3356 0.949 . S
C3362 C3366 1.368 . S
C3363 C3344 1.429 . S
C3363 C3357 1.429 . S
C3363 C3364 1.523 . S
C3364 C3345 1.368 . S
C3364 C3358 1.368 . S
C3364 C3363 1.523 . S
C3365 C3349 1.429 . S
C3365 C3361 1.429 . S
C3365 C3366 1.523 . S
C3366 C3350 1.368 . S
C3366 C3362 1.368 . S
C3366 C3365 1.523 . S
H3367 C3342 0.950 . S
H3368 C3344 0.950 . S
H3369 C3345 0.949 . S
H3370 C3347 0.950 . S
H3371 C3349 0.950 . S
C3372 C3373 1.349 . S
C3372 C3374 1.327 . S
C3372 H3397 0.950 . S
C3373 C3372 1.349 . S
C3373 C3389 1.349 . S
C3374 C3372 1.327 . S
C3374 C3393 1.429 . S
C3374 H3398 0.950 . S
C3375 C3392 1.574 . S
C3375 C3394 1.368 . S
C3375 H3399 0.949 . S
H3376 C3380 0.949 . S
C3377 C3378 1.349 . S
C3377 C3379 1.327 . S
C3377 H3400 0.950 . S
C3378 C3377 1.349 . S
C3378 C3390 1.349 . S
C3379 C3377 1.327 . S
C3379 C3395 1.429 . S
C3379 H3401 0.950 . S
C3380 H3376 0.949 . S
C3380 C3388 1.574 . S
C3380 C3396 1.368 . S
H3381 C3389 0.950 . S
H3382 C3387 0.950 . S
H3383 C3388 0.949 . S
H3384 C3390 0.950 . S
H3385 C3391 0.950 . S
H3386 C3392 0.949 . S
C3387 H3382 0.950 . S
C3387 C3389 1.327 . S
C3387 C3393 1.429 . S
C3388 C3380 1.574 . S
C3388 H3383 0.949 . S
C3388 C3394 1.368 . S
C3389 C3373 1.349 . S
C3389 H3381 0.950 . S
C3389 C3387 1.327 . S
C3390 C3378 1.349 . S
C3390 H3384 0.950 . S
C3390 C3391 1.327 . S
C3391 H3385 0.950 . S
C3391 C3390 1.327 . S
C3391 C3395 1.429 . S
C3392 C3375 1.574 . S
C3392 H3386 0.949 . S
C3392 C3396 1.368 . S
C3393 C3374 1.429 . S
C3393 C3387 1.429 . S
C3393 C3394 1.523 . S
C3394 C3375 1.368 . S
C3394 C3388 1.368 . S
C3394 C3393 1.523 . S
C3395 C3379 1.429 . S
C3395 C3391 1.429 . S
C3395 C3396 1.523 . S
C3396 C3380 1.368 . S
C3396 C3392 1.368 . S
C3396 C3395 1.523 . S
H3397 C3372 0.950 . S
H3398 C3374 0.950 . S
H3399 C3375 0.949 . S
H3400 C3377 0.950 . S
H3401 C3379 0.950 . S
C3402 C3403 1.349 . S
C3402 C3404 1.327 . S
C3402 H3427 0.950 . S
C3403 C3402 1.349 . S
C3403 C3419 1.349 . S
C3404 C3402 1.327 . S
C3404 C3423 1.429 . S
C3404 H3428 0.950 . S
C3405 C3422 1.574 . S
C3405 C3424 1.368 . S
C3405 H3429 0.949 . S
H3406 C3410 0.949 . S
C3407 C3408 1.349 . S
C3407 C3409 1.327 . S
C3407 H3430 0.950 . S
C3408 C3407 1.349 . S
C3408 C3420 1.349 . S
C3409 C3407 1.327 . S
C3409 C3425 1.429 . S
C3409 H3431 0.950 . S
C3410 H3406 0.949 . S
C3410 C3418 1.574 . S
C3410 C3426 1.368 . S
H3411 C3419 0.950 . S
H3412 C3417 0.950 . S
H3413 C3418 0.949 . S
H3414 C3420 0.950 . S
H3415 C3421 0.950 . S
H3416 C3422 0.949 . S
C3417 H3412 0.950 . S
C3417 C3419 1.327 . S
C3417 C3423 1.429 . S
C3418 C3410 1.574 . S
C3418 H3413 0.949 . S
C3418 C3424 1.368 . S
C3419 C3403 1.349 . S
C3419 H3411 0.950 . S
C3419 C3417 1.327 . S
C3420 C3408 1.349 . S
C3420 H3414 0.950 . S
C3420 C3421 1.327 . S
C3421 H3415 0.950 . S
C3421 C3420 1.327 . S
C3421 C3425 1.429 . S
C3422 C3405 1.574 . S
C3422 H3416 0.949 . S
C3422 C3426 1.368 . S
C3423 C3404 1.429 . S
C3423 C3417 1.429 . S
C3423 C3424 1.523 . S
C3424 C3405 1.368 . S
C3424 C3418 1.368 . S
C3424 C3423 1.523 . S
C3425 C3409 1.429 . S
C3425 C3421 1.429 . S
C3425 C3426 1.523 . S
C3426 C3410 1.368 . S
C3426 C3422 1.368 . S
C3426 C3425 1.523 . S
H3427 C3402 0.950 . S
H3428 C3404 0.950 . S
H3429 C3405 0.949 . S
H3430 C3407 0.950 . S
H3431 C3409 0.950 . S
C3432 C3433 1.349 . S
C3432 C3434 1.327 . S
C3432 H3457 0.950 . S
C3433 C3432 1.349 . S
C3433 C3449 1.349 . S
C3434 C3432 1.327 . S
C3434 C3453 1.429 . S
C3434 H3458 0.950 . S
C3435 C3452 1.574 . S
C3435 C3454 1.368 . S
C3435 H3459 0.949 . S
H3436 C3440 0.949 . S
C3437 C3438 1.349 . S
C3437 C3439 1.327 . S
C3437 H3460 0.950 . S
C3438 C3437 1.349 . S
C3438 C3450 1.349 . S
C3439 C3437 1.327 . S
C3439 C3455 1.429 . S
C3439 H3461 0.950 . S
C3440 H3436 0.949 . S
C3440 C3448 1.574 . S
C3440 C3456 1.368 . S
H3441 C3449 0.950 . S
H3442 C3447 0.950 . S
H3443 C3448 0.949 . S
H3444 C3450 0.950 . S
H3445 C3451 0.950 . S
H3446 C3452 0.949 . S
C3447 H3442 0.950 . S
C3447 C3449 1.327 . S
C3447 C3453 1.429 . S
C3448 C3440 1.574 . S
C3448 H3443 0.949 . S
C3448 C3454 1.368 . S
C3449 C3433 1.349 . S
C3449 H3441 0.950 . S
C3449 C3447 1.327 . S
C3450 C3438 1.349 . S
C3450 H3444 0.950 . S
C3450 C3451 1.327 . S
C3451 H3445 0.950 . S
C3451 C3450 1.327 . S
C3451 C3455 1.429 . S
C3452 C3435 1.574 . S
C3452 H3446 0.949 . S
C3452 C3456 1.368 . S
C3453 C3434 1.429 . S
C3453 C3447 1.429 . S
C3453 C3454 1.523 . S
C3454 C3435 1.368 . S
C3454 C3448 1.368 . S
C3454 C3453 1.523 . S
C3455 C3439 1.429 . S
C3455 C3451 1.429 . S
C3455 C3456 1.523 . S
C3456 C3440 1.368 . S
C3456 C3452 1.368 . S
C3456 C3455 1.523 . S
H3457 C3432 0.950 . S
H3458 C3434 0.950 . S
H3459 C3435 0.949 . S
H3460 C3437 0.950 . S
H3461 C3439 0.950 . S
C3462 C3463 1.349 . S
C3462 C3464 1.327 . S
C3462 H3487 0.950 . S
C3463 C3462 1.349 . S
C3463 C3479 1.349 . S
C3464 C3462 1.327 . S
C3464 C3483 1.429 . S
C3464 H3488 0.950 . S
C3465 C3482 1.574 . S
C3465 C3484 1.368 . S
C3465 H3489 0.949 . S
H3466 C3470 0.949 . S
C3467 C3468 1.349 . S
C3467 C3469 1.327 . S
C3467 H3490 0.950 . S
C3468 C3467 1.349 . S
C3468 C3480 1.349 . S
C3469 C3467 1.327 . S
C3469 C3485 1.429 . S
C3469 H3491 0.950 . S
C3470 H3466 0.949 . S
C3470 C3478 1.574 . S
C3470 C3486 1.368 . S
H3471 C3479 0.950 . S
H3472 C3477 0.950 . S
H3473 C3478 0.949 . S
H3474 C3480 0.950 . S
H3475 C3481 0.950 . S
H3476 C3482 0.949 . S
C3477 H3472 0.950 . S
C3477 C3479 1.327 . S
C3477 C3483 1.429 . S
C3478 C3470 1.574 . S
C3478 H3473 0.949 . S
C3478 C3484 1.368 . S
C3479 C3463 1.349 . S
C3479 H3471 0.950 . S
C3479 C3477 1.327 . S
C3480 C3468 1.349 . S
C3480 H3474 0.950 . S
C3480 C3481 1.327 . S
C3481 H3475 0.950 . S
C3481 C3480 1.327 . S
C3481 C3485 1.429 . S
C3482 C3465 1.574 . S
C3482 H3476 0.949 . S
C3482 C3486 1.368 . S
C3483 C3464 1.429 . S
C3483 C3477 1.429 . S
C3483 C3484 1.523 . S
C3484 C3465 1.368 . S
C3484 C3478 1.368 . S
C3484 C3483 1.523 . S
C3485 C3469 1.429 . S
C3485 C3481 1.429 . S
C3485 C3486 1.523 . S
C3486 C3470 1.368 . S
C3486 C3482 1.368 . S
C3486 C3485 1.523 . S
H3487 C3462 0.950 . S
H3488 C3464 0.950 . S
H3489 C3465 0.949 . S
H3490 C3467 0.950 . S
H3491 C3469 0.950 . S
C3492 C3493 1.349 . S
C3492 C3494 1.327 . S
C3492 H3517 0.950 . S
C3493 C3492 1.349 . S
C3493 C3509 1.349 . S
C3494 C3492 1.327 . S
C3494 C3513 1.429 . S
C3494 H3518 0.950 . S
C3495 C3512 1.574 . S
C3495 C3514 1.368 . S
C3495 H3519 0.949 . S
H3496 C3500 0.949 . S
C3497 C3498 1.349 . S
C3497 C3499 1.327 . S
C3497 H3520 0.950 . S
C3498 C3497 1.349 . S
C3498 C3510 1.349 . S
C3499 C3497 1.327 . S
C3499 C3515 1.429 . S
C3499 H3521 0.950 . S
C3500 H3496 0.949 . S
C3500 C3508 1.574 . S
C3500 C3516 1.368 . S
H3501 C3509 0.950 . S
H3502 C3507 0.950 . S
H3503 C3508 0.949 . S
H3504 C3510 0.950 . S
H3505 C3511 0.950 . S
H3506 C3512 0.949 . S
C3507 H3502 0.950 . S
C3507 C3509 1.327 . S
C3507 C3513 1.429 . S
C3508 C3500 1.574 . S
C3508 H3503 0.949 . S
C3508 C3514 1.368 . S
C3509 C3493 1.349 . S
C3509 H3501 0.950 . S
C3509 C3507 1.327 . S
C3510 C3498 1.349 . S
C3510 H3504 0.950 . S
C3510 C3511 1.327 . S
C3511 H3505 0.950 . S
C3511 C3510 1.327 . S
C3511 C3515 1.429 . S
C3512 C3495 1.574 . S
C3512 H3506 0.949 . S
C3512 C3516 1.368 . S
C3513 C3494 1.429 . S
C3513 C3507 1.429 . S
C3513 C3514 1.523 . S
C3514 C3495 1.368 . S
C3514 C3508 1.368 . S
C3514 C3513 1.523 . S
C3515 C3499 1.429 . S
C3515 C3511 1.429 . S
C3515 C3516 1.523 . S
C3516 C3500 1.368 . S
C3516 C3512 1.368 . S
C3516 C3515 1.523 . S
H3517 C3492 0.950 . S
H3518 C3494 0.950 . S
H3519 C3495 0.949 . S
H3520 C3497 0.950 . S
H3521 C3499 0.950 . S
C3522 C3523 1.349 . S
C3522 C3524 1.327 . S
C3522 H3547 0.950 . S
C3523 C3522 1.349 . S
C3523 C3539 1.349 . S
C3524 C3522 1.327 . S
C3524 C3543 1.429 . S
C3524 H3548 0.950 . S
C3525 C3542 1.574 . S
C3525 C3544 1.368 . S
C3525 H3549 0.949 . S
H3526 C3530 0.949 . S
C3527 C3528 1.349 . S
C3527 C3529 1.327 . S
C3527 H3550 0.950 . S
C3528 C3527 1.349 . S
C3528 C3540 1.349 . S
C3529 C3527 1.327 . S
C3529 C3545 1.429 . S
C3529 H3551 0.950 . S
C3530 H3526 0.949 . S
C3530 C3538 1.574 . S
C3530 C3546 1.368 . S
H3531 C3539 0.950 . S
H3532 C3537 0.950 . S
H3533 C3538 0.949 . S
H3534 C3540 0.950 . S
H3535 C3541 0.950 . S
H3536 C3542 0.949 . S
C3537 H3532 0.950 . S
C3537 C3539 1.327 . S
C3537 C3543 1.429 . S
C3538 C3530 1.574 . S
C3538 H3533 0.949 . S
C3538 C3544 1.368 . S
C3539 C3523 1.349 . S
C3539 H3531 0.950 . S
C3539 C3537 1.327 . S
C3540 C3528 1.349 . S
C3540 H3534 0.950 . S
C3540 C3541 1.327 . S
C3541 H3535 0.950 . S
C3541 C3540 1.327 . S
C3541 C3545 1.429 . S
C3542 C3525 1.574 . S
C3542 H3536 0.949 . S
C3542 C3546 1.368 . S
C3543 C3524 1.429 . S
C3543 C3537 1.429 . S
C3543 C3544 1.523 . S
C3544 C3525 1.368 . S
C3544 C3538 1.368 . S
C3544 C3543 1.523 . S
C3545 C3529 1.429 . S
C3545 C3541 1.429 . S
C3545 C3546 1.523 . S
C3546 C3530 1.368 . S
C3546 C3542 1.368 . S
C3546 C3545 1.523 . S
H3547 C3522 0.950 . S
H3548 C3524 0.950 . S
H3549 C3525 0.949 . S
H3550 C3527 0.950 . S
H3551 C3529 0.950 . S
C3552 C3553 1.349 . S
C3552 C3554 1.327 . S
C3552 H3577 0.950 . S
C3553 C3552 1.349 . S
C3553 C3569 1.349 . S
C3554 C3552 1.327 . S
C3554 C3573 1.429 . S
C3554 H3578 0.950 . S
C3555 C3572 1.574 . S
C3555 C3574 1.368 . S
C3555 H3579 0.949 . S
H3556 C3560 0.949 . S
C3557 C3558 1.349 . S
C3557 C3559 1.327 . S
C3557 H3580 0.950 . S
C3558 C3557 1.349 . S
C3558 C3570 1.349 . S
C3559 C3557 1.327 . S
C3559 C3575 1.429 . S
C3559 H3581 0.950 . S
C3560 H3556 0.949 . S
C3560 C3568 1.574 . S
C3560 C3576 1.368 . S
H3561 C3569 0.950 . S
H3562 C3567 0.950 . S
H3563 C3568 0.949 . S
H3564 C3570 0.950 . S
H3565 C3571 0.950 . S
H3566 C3572 0.949 . S
C3567 H3562 0.950 . S
C3567 C3569 1.327 . S
C3567 C3573 1.429 . S
C3568 C3560 1.574 . S
C3568 H3563 0.949 . S
C3568 C3574 1.368 . S
C3569 C3553 1.349 . S
C3569 H3561 0.950 . S
C3569 C3567 1.327 . S
C3570 C3558 1.349 . S
C3570 H3564 0.950 . S
C3570 C3571 1.327 . S
C3571 H3565 0.950 . S
C3571 C3570 1.327 . S
C3571 C3575 1.429 . S
C3572 C3555 1.574 . S
C3572 H3566 0.949 . S
C3572 C3576 1.368 . S
C3573 C3554 1.429 . S
C3573 C3567 1.429 . S
C3573 C3574 1.523 . S
C3574 C3555 1.368 . S
C3574 C3568 1.368 . S
C3574 C3573 1.523 . S
C3575 C3559 1.429 . S
C3575 C3571 1.429 . S
C3575 C3576 1.523 . S
C3576 C3560 1.368 . S
C3576 C3572 1.368 . S
C3576 C3575 1.523 . S
H3577 C3552 0.950 . S
H3578 C3554 0.950 . S
H3579 C3555 0.949 . S
H3580 C3557 0.950 . S
H3581 C3559 0.950 . S
C3582 C3583 1.349 . S
C3582 C3584 1.327 . S
C3582 H3607 0.950 . S
C3583 C3582 1.349 . S
C3583 C3599 1.349 . S
C3584 C3582 1.327 . S
C3584 C3603 1.429 . S
C3584 H3608 0.950 . S
C3585 C3602 1.574 . S
C3585 C3604 1.368 . S
C3585 H3609 0.949 . S
H3586 C3590 0.949 . S
C3587 C3588 1.349 . S
C3587 C3589 1.327 . S
C3587 H3610 0.950 . S
C3588 C3587 1.349 . S
C3588 C3600 1.349 . S
C3589 C3587 1.327 . S
C3589 C3605 1.429 . S
C3589 H3611 0.950 . S
C3590 H3586 0.949 . S
C3590 C3598 1.574 . S
C3590 C3606 1.368 . S
H3591 C3599 0.950 . S
H3592 C3597 0.950 . S
H3593 C3598 0.949 . S
H3594 C3600 0.950 . S
H3595 C3601 0.950 . S
H3596 C3602 0.949 . S
C3597 H3592 0.950 . S
C3597 C3599 1.327 . S
C3597 C3603 1.429 . S
C3598 C3590 1.574 . S
C3598 H3593 0.949 . S
C3598 C3604 1.368 . S
C3599 C3583 1.349 . S
C3599 H3591 0.950 . S
C3599 C3597 1.327 . S
C3600 C3588 1.349 . S
C3600 H3594 0.950 . S
C3600 C3601 1.327 . S
C3601 H3595 0.950 . S
C3601 C3600 1.327 . S
C3601 C3605 1.429 . S
C3602 C3585 1.574 . S
C3602 H3596 0.949 . S
C3602 C3606 1.368 . S
C3603 C3584 1.429 . S
C3603 C3597 1.429 . S
C3603 C3604 1.523 . S
C3604 C3585 1.368 . S
C3604 C3598 1.368 . S
C3604 C3603 1.523 . S
C3605 C3589 1.429 . S
C3605 C3601 1.429 . S
C3605 C3606 1.523 . S
C3606 C3590 1.368 . S
C3606 C3602 1.368 . S
C3606 C3605 1.523 . S
H3607 C3582 0.950 . S
H3608 C3584 0.950 . S
H3609 C3585 0.949 . S
H3610 C3587 0.950 . S
H3611 C3589 0.950 . S
C3612 C3613 1.349 . S
C3612 C3614 1.327 . S
C3612 H3637 0.950 . S
C3613 C3612 1.349 . S
C3613 C3629 1.349 . S
C3614 C3612 1.327 . S
C3614 C3633 1.429 . S
C3614 H3638 0.950 . S
C3615 C3632 1.574 . S
C3615 C3634 1.368 . S
C3615 H3639 0.949 . S
H3616 C3620 0.949 . S
C3617 C3618 1.349 . S
C3617 C3619 1.327 . S
C3617 H3640 0.950 . S
C3618 C3617 1.349 . S
C3618 C3630 1.349 . S
C3619 C3617 1.327 . S
C3619 C3635 1.429 . S
C3619 H3641 0.950 . S
C3620 H3616 0.949 . S
C3620 C3628 1.574 . S
C3620 C3636 1.368 . S
H3621 C3629 0.950 . S
H3622 C3627 0.950 . S
H3623 C3628 0.949 . S
H3624 C3630 0.950 . S
H3625 C3631 0.950 . S
H3626 C3632 0.949 . S
C3627 H3622 0.950 . S
C3627 C3629 1.327 . S
C3627 C3633 1.429 . S
C3628 C3620 1.574 . S
C3628 H3623 0.949 . S
C3628 C3634 1.368 . S
C3629 C3613 1.349 . S
C3629 H3621 0.950 . S
C3629 C3627 1.327 . S
C3630 C3618 1.349 . S
C3630 H3624 0.950 . S
C3630 C3631 1.327 . S
C3631 H3625 0.950 . S
C3631 C3630 1.327 . S
C3631 C3635 1.429 . S
C3632 C3615 1.574 . S
C3632 H3626 0.949 . S
C3632 C3636 1.368 . S
C3633 C3614 1.429 . S
C3633 C3627 1.429 . S
C3633 C3634 1.523 . S
C3634 C3615 1.368 . S
C3634 C3628 1.368 . S
C3634 C3633 1.523 . S
C3635 C3619 1.429 . S
C3635 C3631 1.429 . S
C3635 C3636 1.523 . S
C3636 C3620 1.368 . S
C3636 C3632 1.368 . S
C3636 C3635 1.523 . S
H3637 C3612 0.950 . S
H3638 C3614 0.950 . S
H3639 C3615 0.949 . S
H3640 C3617 0.950 . S
H3641 C3619 0.950 . S
C3642 C3643 1.349 . S
C3642 C3644 1.327 . S
C3642 H3667 0.950 . S
C3643 C3642 1.349 . S
C3643 C3659 1.349 . S
C3644 C3642 1.327 . S
C3644 C3663 1.429 . S
C3644 H3668 0.950 . S
C3645 C3662 1.574 . S
C3645 C3664 1.368 . S
C3645 H3669 0.949 . S
H3646 C3650 0.949 . S
C3647 C3648 1.349 . S
C3647 C3649 1.327 . S
C3647 H3670 0.950 . S
C3648 C3647 1.349 . S
C3648 C3660 1.349 . S
C3649 C3647 1.327 . S
C3649 C3665 1.429 . S
C3649 H3671 0.950 . S
C3650 H3646 0.949 . S
C3650 C3658 1.574 . S
C3650 C3666 1.368 . S
H3651 C3659 0.950 . S
H3652 C3657 0.950 . S
H3653 C3658 0.949 . S
H3654 C3660 0.950 . S
H3655 C3661 0.950 . S
H3656 C3662 0.949 . S
C3657 H3652 0.950 . S
C3657 C3659 1.327 . S
C3657 C3663 1.429 . S
C3658 C3650 1.574 . S
C3658 H3653 0.949 . S
C3658 C3664 1.368 . S
C3659 C3643 1.349 . S
C3659 H3651 0.950 . S
C3659 C3657 1.327 . S
C3660 C3648 1.349 . S
C3660 H3654 0.950 . S
C3660 C3661 1.327 . S
C3661 H3655 0.950 . S
C3661 C3660 1.327 . S
C3661 C3665 1.429 . S
C3662 C3645 1.574 . S
C3662 H3656 0.949 . S
C3662 C3666 1.368 . S
C3663 C3644 1.429 . S
C3663 C3657 1.429 . S
C3663 C3664 1.523 . S
C3664 C3645 1.368 . S
C3664 C3658 1.368 . S
C3664 C3663 1.523 . S
C3665 C3649 1.429 . S
C3665 C3661 1.429 . S
C3665 C3666 1.523 . S
C3666 C3650 1.368 . S
C3666 C3662 1.368 . S
C3666 C3665 1.523 . S
H3667 C3642 0.950 . S
H3668 C3644 0.950 . S
H3669 C3645 0.949 . S
H3670 C3647 0.950 . S
H3671 C3649 0.950 . S
C3672 C3673 1.349 . S
C3672 C3674 1.327 . S
C3672 H3697 0.950 . S
C3673 C3672 1.349 . S
C3673 C3689 1.349 . S
C3674 C3672 1.327 . S
C3674 C3693 1.429 . S
C3674 H3698 0.950 . S
C3675 C3692 1.574 . S
C3675 C3694 1.368 . S
C3675 H3699 0.949 . S
H3676 C3680 0.949 . S
C3677 C3678 1.349 . S
C3677 C3679 1.327 . S
C3677 H3700 0.950 . S
C3678 C3677 1.349 . S
C3678 C3690 1.349 . S
C3679 C3677 1.327 . S
C3679 C3695 1.429 . S
C3679 H3701 0.950 . S
C3680 H3676 0.949 . S
C3680 C3688 1.574 . S
C3680 C3696 1.368 . S
H3681 C3689 0.950 . S
H3682 C3687 0.950 . S
H3683 C3688 0.949 . S
H3684 C3690 0.950 . S
H3685 C3691 0.950 . S
H3686 C3692 0.949 . S
C3687 H3682 0.950 . S
C3687 C3689 1.327 . S
C3687 C3693 1.429 . S
C3688 C3680 1.574 . S
C3688 H3683 0.949 . S
C3688 C3694 1.368 . S
C3689 C3673 1.349 . S
C3689 H3681 0.950 . S
C3689 C3687 1.327 . S
C3690 C3678 1.349 . S
C3690 H3684 0.950 . S
C3690 C3691 1.327 . S
C3691 H3685 0.950 . S
C3691 C3690 1.327 . S
C3691 C3695 1.429 . S
C3692 C3675 1.574 . S
C3692 H3686 0.949 . S
C3692 C3696 1.368 . S
C3693 C3674 1.429 . S
C3693 C3687 1.429 . S
C3693 C3694 1.523 . S
C3694 C3675 1.368 . S
C3694 C3688 1.368 . S
C3694 C3693 1.523 . S
C3695 C3679 1.429 . S
C3695 C3691 1.429 . S
C3695 C3696 1.523 . S
C3696 C3680 1.368 . S
C3696 C3692 1.368 . S
C3696 C3695 1.523 . S
H3697 C3672 0.950 . S
H3698 C3674 0.950 . S
H3699 C3675 0.949 . S
H3700 C3677 0.950 . S
H3701 C3679 0.950 . S
C3702 C3703 1.349 . S
C3702 C3704 1.327 . S
C3702 H3727 0.950 . S
C3703 C3702 1.349 . S
C3703 C3719 1.349 . S
C3704 C3702 1.327 . S
C3704 C3723 1.429 . S
C3704 H3728 0.950 . S
C3705 C3722 1.574 . S
C3705 C3724 1.368 . S
C3705 H3729 0.949 . S
H3706 C3710 0.949 . S
C3707 C3708 1.349 . S
C3707 C3709 1.327 . S
C3707 H3730 0.950 . S
C3708 C3707 1.349 . S
C3708 C3720 1.349 . S
C3709 C3707 1.327 . S
C3709 C3725 1.429 . S
C3709 H3731 0.950 . S
C3710 H3706 0.949 . S
C3710 C3718 1.574 . S
C3710 C3726 1.368 . S
H3711 C3719 0.950 . S
H3712 C3717 0.950 . S
H3713 C3718 0.949 . S
H3714 C3720 0.950 . S
H3715 C3721 0.950 . S
H3716 C3722 0.949 . S
C3717 H3712 0.950 . S
C3717 C3719 1.327 . S
C3717 C3723 1.429 . S
C3718 C3710 1.574 . S
C3718 H3713 0.949 . S
C3718 C3724 1.368 . S
C3719 C3703 1.349 . S
C3719 H3711 0.950 . S
C3719 C3717 1.327 . S
C3720 C3708 1.349 . S
C3720 H3714 0.950 . S
C3720 C3721 1.327 . S
C3721 H3715 0.950 . S
C3721 C3720 1.327 . S
C3721 C3725 1.429 . S
C3722 C3705 1.574 . S
C3722 H3716 0.949 . S
C3722 C3726 1.368 . S
C3723 C3704 1.429 . S
C3723 C3717 1.429 . S
C3723 C3724 1.523 . S
C3724 C3705 1.368 . S
C3724 C3718 1.368 . S
C3724 C3723 1.523 . S
C3725 C3709 1.429 . S
C3725 C3721 1.429 . S
C3725 C3726 1.523 . S
C3726 C3710 1.368 . S
C3726 C3722 1.368 . S
C3726 C3725 1.523 . S
H3727 C3702 0.950 . S
H3728 C3704 0.950 . S
H3729 C3705 0.949 . S
H3730 C3707 0.950 . S
H3731 C3709 0.950 . S
C3732 C3733 1.349 . S
C3732 C3734 1.327 . S
C3732 H3757 0.950 . S
C3733 C3732 1.349 . S
C3733 C3749 1.349 . S
C3734 C3732 1.327 . S
C3734 C3753 1.429 . S
C3734 H3758 0.950 . S
C3735 C3752 1.574 . S
C3735 C3754 1.368 . S
C3735 H3759 0.949 . S
H3736 C3740 0.949 . S
C3737 C3738 1.349 . S
C3737 C3739 1.327 . S
C3737 H3760 0.950 . S
C3738 C3737 1.349 . S
C3738 C3750 1.349 . S
C3739 C3737 1.327 . S
C3739 C3755 1.429 . S
C3739 H3761 0.950 . S
C3740 H3736 0.949 . S
C3740 C3748 1.574 . S
C3740 C3756 1.368 . S
H3741 C3749 0.950 . S
H3742 C3747 0.950 . S
H3743 C3748 0.949 . S
H3744 C3750 0.950 . S
H3745 C3751 0.950 . S
H3746 C3752 0.949 . S
C3747 H3742 0.950 . S
C3747 C3749 1.327 . S
C3747 C3753 1.429 . S
C3748 C3740 1.574 . S
C3748 H3743 0.949 . S
C3748 C3754 1.368 . S
C3749 C3733 1.349 . S
C3749 H3741 0.950 . S
C3749 C3747 1.327 . S
C3750 C3738 1.349 . S
C3750 H3744 0.950 . S
C3750 C3751 1.327 . S
C3751 H3745 0.950 . S
C3751 C3750 1.327 . S
C3751 C3755 1.429 . S
C3752 C3735 1.574 . S
C3752 H3746 0.949 . S
C3752 C3756 1.368 . S
C3753 C3734 1.429 . S
C3753 C3747 1.429 . S
C3753 C3754 1.523 . S
C3754 C3735 1.368 . S
C3754 C3748 1.368 . S
C3754 C3753 1.523 . S
C3755 C3739 1.429 . S
C3755 C3751 1.429 . S
C3755 C3756 1.523 . S
C3756 C3740 1.368 . S
C3756 C3752 1.368 . S
C3756 C3755 1.523 . S
H3757 C3732 0.950 . S
H3758 C3734 0.950 . S
H3759 C3735 0.949 . S
H3760 C3737 0.950 . S
H3761 C3739 0.950 . S
C3762 C3763 1.349 . S
C3762 C3764 1.327 . S
C3762 H3787 0.950 . S
C3763 C3762 1.349 . S
C3763 C3779 1.349 . S
C3764 C3762 1.327 . S
C3764 C3783 1.429 . S
C3764 H3788 0.950 . S
C3765 C3782 1.574 . S
C3765 C3784 1.368 . S
C3765 H3789 0.949 . S
H3766 C3770 0.949 . S
C3767 C3768 1.349 . S
C3767 C3769 1.327 . S
C3767 H3790 0.950 . S
C3768 C3767 1.349 . S
C3768 C3780 1.349 . S
C3769 C3767 1.327 . S
C3769 C3785 1.429 . S
C3769 H3791 0.950 . S
C3770 H3766 0.949 . S
C3770 C3778 1.574 . S
C3770 C3786 1.368 . S
H3771 C3779 0.950 . S
H3772 C3777 0.950 . S
H3773 C3778 0.949 . S
H3774 C3780 0.950 . S
H3775 C3781 0.950 . S
H3776 C3782 0.949 . S
C3777 H3772 0.950 . S
C3777 C3779 1.327 . S
C3777 C3783 1.429 . S
C3778 C3770 1.574 . S
C3778 H3773 0.949 . S
C3778 C3784 1.368 . S
C3779 C3763 1.349 . S
C3779 H3771 0.950 . S
C3779 C3777 1.327 . S
C3780 C3768 1.349 . S
C3780 H3774 0.950 . S
C3780 C3781 1.327 . S
C3781 H3775 0.950 . S
C3781 C3780 1.327 . S
C3781 C3785 1.429 . S
C3782 C3765 1.574 . S
C3782 H3776 0.949 . S
C3782 C3786 1.368 . S
C3783 C3764 1.429 . S
C3783 C3777 1.429 . S
C3783 C3784 1.523 . S
C3784 C3765 1.368 . S
C3784 C3778 1.368 . S
C3784 C3783 1.523 . S
C3785 C3769 1.429 . S
C3785 C3781 1.429 . S
C3785 C3786 1.523 . S
C3786 C3770 1.368 . S
C3786 C3782 1.368 . S
C3786 C3785 1.523 . S
H3787 C3762 0.950 . S
H3788 C3764 0.950 . S
H3789 C3765 0.949 . S
H3790 C3767 0.950 . S
H3791 C3769 0.950 . S
C3792 C3793 1.349 . S
C3792 C3794 1.327 . S
C3792 H3817 0.950 . S
C3793 C3792 1.349 . S
C3793 C3809 1.349 . S
C3794 C3792 1.327 . S
C3794 C3813 1.429 . S
C3794 H3818 0.950 . S
C3795 C3812 1.574 . S
C3795 C3814 1.368 . S
C3795 H3819 0.949 . S
H3796 C3800 0.949 . S
C3797 C3798 1.349 . S
C3797 C3799 1.327 . S
C3797 H3820 0.950 . S
C3798 C3797 1.349 . S
C3798 C3810 1.349 . S
C3799 C3797 1.327 . S
C3799 C3815 1.429 . S
C3799 H3821 0.950 . S
C3800 H3796 0.949 . S
C3800 C3808 1.574 . S
C3800 C3816 1.368 . S
H3801 C3809 0.950 . S
H3802 C3807 0.950 . S
H3803 C3808 0.949 . S
H3804 C3810 0.950 . S
H3805 C3811 0.950 . S
H3806 C3812 0.949 . S
C3807 H3802 0.950 . S
C3807 C3809 1.327 . S
C3807 C3813 1.429 . S
C3808 C3800 1.574 . S
C3808 H3803 0.949 . S
C3808 C3814 1.368 . S
C3809 C3793 1.349 . S
C3809 H3801 0.950 . S
C3809 C3807 1.327 . S
C3810 C3798 1.349 . S
C3810 H3804 0.950 . S
C3810 C3811 1.327 . S
C3811 H3805 0.950 . S
C3811 C3810 1.327 . S
C3811 C3815 1.429 . S
C3812 C3795 1.574 . S
C3812 H3806 0.949 . S
C3812 C3816 1.368 . S
C3813 C3794 1.429 . S
C3813 C3807 1.429 . S
C3813 C3814 1.523 . S
C3814 C3795 1.368 . S
C3814 C3808 1.368 . S
C3814 C3813 1.523 . S
C3815 C3799 1.429 . S
C3815 C3811 1.429 . S
C3815 C3816 1.523 . S
C3816 C3800 1.368 . S
C3816 C3812 1.368 . S
C3816 C3815 1.523 . S
H3817 C3792 0.950 . S
H3818 C3794 0.950 . S
H3819 C3795 0.949 . S
H3820 C3797 0.950 . S
H3821 C3799 0.950 . S
C3822 C3823 1.349 . S
C3822 C3824 1.327 . S
C3822 H3847 0.950 . S
C3823 C3822 1.349 . S
C3823 C3839 1.349 . S
C3824 C3822 1.327 . S
C3824 C3843 1.429 . S
C3824 H3848 0.950 . S
C3825 C3842 1.574 . S
C3825 C3844 1.368 . S
C3825 H3849 0.949 . S
H3826 C3830 0.949 . S
C3827 C3828 1.349 . S
C3827 C3829 1.327 . S
C3827 H3850 0.950 . S
C3828 C3827 1.349 . S
C3828 C3840 1.349 . S
C3829 C3827 1.327 . S
C3829 C3845 1.429 . S
C3829 H3851 0.950 . S
C3830 H3826 0.949 . S
C3830 C3838 1.574 . S
C3830 C3846 1.368 . S
H3831 C3839 0.950 . S
H3832 C3837 0.950 . S
H3833 C3838 0.949 . S
H3834 C3840 0.950 . S
H3835 C3841 0.950 . S
H3836 C3842 0.949 . S
C3837 H3832 0.950 . S
C3837 C3839 1.327 . S
C3837 C3843 1.429 . S
C3838 C3830 1.574 . S
C3838 H3833 0.949 . S
C3838 C3844 1.368 . S
C3839 C3823 1.349 . S
C3839 H3831 0.950 . S
C3839 C3837 1.327 . S
C3840 C3828 1.349 . S
C3840 H3834 0.950 . S
C3840 C3841 1.327 . S
C3841 H3835 0.950 . S
C3841 C3840 1.327 . S
C3841 C3845 1.429 . S
C3842 C3825 1.574 . S
C3842 H3836 0.949 . S
C3842 C3846 1.368 . S
C3843 C3824 1.429 . S
C3843 C3837 1.429 . S
C3843 C3844 1.523 . S
C3844 C3825 1.368 . S
C3844 C3838 1.368 . S
C3844 C3843 1.523 . S
C3845 C3829 1.429 . S
C3845 C3841 1.429 . S
C3845 C3846 1.523 . S
C3846 C3830 1.368 . S
C3846 C3842 1.368 . S
C3846 C3845 1.523 . S
H3847 C3822 0.950 . S
H3848 C3824 0.950 . S
H3849 C3825 0.949 . S
H3850 C3827 0.950 . S
H3851 C3829 0.950 . S
C3852 C3853 1.349 . S
C3852 C3854 1.327 . S
C3852 H3877 0.950 . S
C3853 C3852 1.349 . S
C3853 C3869 1.349 . S
C3854 C3852 1.327 . S
C3854 C3873 1.429 . S
C3854 H3878 0.950 . S
C3855 C3872 1.574 . S
C3855 C3874 1.368 . S
C3855 H3879 0.949 . S
H3856 C3860 0.949 . S
C3857 C3858 1.349 . S
C3857 C3859 1.327 . S
C3857 H3880 0.950 . S
C3858 C3857 1.349 . S
C3858 C3870 1.349 . S
C3859 C3857 1.327 . S
C3859 C3875 1.429 . S
C3859 H3881 0.950 . S
C3860 H3856 0.949 . S
C3860 C3868 1.574 . S
C3860 C3876 1.368 . S
H3861 C3869 0.950 . S
H3862 C3867 0.950 . S
H3863 C3868 0.949 . S
H3864 C3870 0.950 . S
H3865 C3871 0.950 . S
H3866 C3872 0.949 . S
C3867 H3862 0.950 . S
C3867 C3869 1.327 . S
C3867 C3873 1.429 . S
C3868 C3860 1.574 . S
C3868 H3863 0.949 . S
C3868 C3874 1.368 . S
C3869 C3853 1.349 . S
C3869 H3861 0.950 . S
C3869 C3867 1.327 . S
C3870 C3858 1.349 . S
C3870 H3864 0.950 . S
C3870 C3871 1.327 . S
C3871 H3865 0.950 . S
C3871 C3870 1.327 . S
C3871 C3875 1.429 . S
C3872 C3855 1.574 . S
C3872 H3866 0.949 . S
C3872 C3876 1.368 . S
C3873 C3854 1.429 . S
C3873 C3867 1.429 . S
C3873 C3874 1.523 . S
C3874 C3855 1.368 . S
C3874 C3868 1.368 . S
C3874 C3873 1.523 . S
C3875 C3859 1.429 . S
C3875 C3871 1.429 . S
C3875 C3876 1.523 . S
C3876 C3860 1.368 . S
C3876 C3872 1.368 . S
C3876 C3875 1.523 . S
H3877 C3852 0.950 . S
H3878 C3854 0.950 . S
H3879 C3855 0.949 . S
H3880 C3857 0.950 . S
H3881 C3859 0.950 . S
C3882 C3883 1.349 . S
C3882 C3884 1.327 . S
C3882 H3907 0.950 . S
C3883 C3882 1.349 . S
C3883 C3899 1.349 . S
C3884 C3882 1.327 . S
C3884 C3903 1.429 . S
C3884 H3908 0.950 . S
C3885 C3902 1.574 . S
C3885 C3904 1.368 . S
C3885 H3909 0.949 . S
H3886 C3890 0.949 . S
C3887 C3888 1.349 . S
C3887 C3889 1.327 . S
C3887 H3910 0.950 . S
C3888 C3887 1.349 . S
C3888 C3900 1.349 . S
C3889 C3887 1.327 . S
C3889 C3905 1.429 . S
C3889 H3911 0.950 . S
C3890 H3886 0.949 . S
C3890 C3898 1.574 . S
C3890 C3906 1.368 . S
H3891 C3899 0.950 . S
H3892 C3897 0.950 . S
H3893 C3898 0.949 . S
H3894 C3900 0.950 . S
H3895 C3901 0.950 . S
H3896 C3902 0.949 . S
C3897 H3892 0.950 . S
C3897 C3899 1.327 . S
C3897 C3903 1.429 . S
C3898 C3890 1.574 . S
C3898 H3893 0.949 . S
C3898 C3904 1.368 . S
C3899 C3883 1.349 . S
C3899 H3891 0.950 . S
C3899 C3897 1.327 . S
C3900 C3888 1.349 . S
C3900 H3894 0.950 . S
C3900 C3901 1.327 . S
C3901 H3895 0.950 . S
C3901 C3900 1.327 . S
C3901 C3905 1.429 . S
C3902 C3885 1.574 . S
C3902 H3896 0.949 . S
C3902 C3906 1.368 . S
C3903 C3884 1.429 . S
C3903 C3897 1.429 . S
C3903 C3904 1.523 . S
C3904 C3885 1.368 . S
C3904 C3898 1.368 . S
C3904 C3903 1.523 . S
C3905 C3889 1.429 . S
C3905 C3901 1.429 . S
C3905 C3906 1.523 . S
C3906 C3890 1.368 . S
C3906 C3902 1.368 . S
C3906 C3905 1.523 . S
H3907 C3882 0.950 . S
H3908 C3884 0.950 . S
H3909 C3885 0.949 . S
H3910 C3887 0.950 . S
H3911 C3889 0.950 . S
C3912 C3913 1.349 . S
C3912 C3914 1.327 . S
C3912 H3937 0.950 . S
C3913 C3912 1.349 . S
C3913 C3929 1.349 . S
C3914 C3912 1.327 . S
C3914 C3933 1.429 . S
C3914 H3938 0.950 . S
C3915 C3932 1.574 . S
C3915 C3934 1.368 . S
C3915 H3939 0.949 . S
H3916 C3920 0.949 . S
C3917 C3918 1.349 . S
C3917 C3919 1.327 . S
C3917 H3940 0.950 . S
C3918 C3917 1.349 . S
C3918 C3930 1.349 . S
C3919 C3917 1.327 . S
C3919 C3935 1.429 . S
C3919 H3941 0.950 . S
C3920 H3916 0.949 . S
C3920 C3928 1.574 . S
C3920 C3936 1.368 . S
H3921 C3929 0.950 . S
H3922 C3927 0.950 . S
H3923 C3928 0.949 . S
H3924 C3930 0.950 . S
H3925 C3931 0.950 . S
H3926 C3932 0.949 . S
C3927 H3922 0.950 . S
C3927 C3929 1.327 . S
C3927 C3933 1.429 . S
C3928 C3920 1.574 . S
C3928 H3923 0.949 . S
C3928 C3934 1.368 . S
C3929 C3913 1.349 . S
C3929 H3921 0.950 . S
C3929 C3927 1.327 . S
C3930 C3918 1.349 . S
C3930 H3924 0.950 . S
C3930 C3931 1.327 . S
C3931 H3925 0.950 . S
C3931 C3930 1.327 . S
C3931 C3935 1.429 . S
C3932 C3915 1.574 . S
C3932 H3926 0.949 . S
C3932 C3936 1.368 . S
C3933 C3914 1.429 . S
C3933 C3927 1.429 . S
C3933 C3934 1.523 . S
C3934 C3915 1.368 . S
C3934 C3928 1.368 . S
C3934 C3933 1.523 . S
C3935 C3919 1.429 . S
C3935 C3931 1.429 . S
C3935 C3936 1.523 . S
C3936 C3920 1.368 . S
C3936 C3932 1.368 . S
C3936 C3935 1.523 . S
H3937 C3912 0.950 . S
H3938 C3914 0.950 . S
H3939 C3915 0.949 . S
H3940 C3917 0.950 . S
H3941 C3919 0.950 . S
C3942 C3943 1.349 . S
C3942 C3944 1.327 . S
C3942 H3967 0.950 . S
C3943 C3942 1.349 . S
C3943 C3959 1.349 . S
C3944 C3942 1.327 . S
C3944 C3963 1.429 . S
C3944 H3968 0.950 . S
C3945 C3962 1.574 . S
C3945 C3964 1.368 . S
C3945 H3969 0.949 . S
H3946 C3950 0.949 . S
C3947 C3948 1.349 . S
C3947 C3949 1.327 . S
C3947 H3970 0.950 . S
C3948 C3947 1.349 . S
C3948 C3960 1.349 . S
C3949 C3947 1.327 . S
C3949 C3965 1.429 . S
C3949 H3971 0.950 . S
C3950 H3946 0.949 . S
C3950 C3958 1.574 . S
C3950 C3966 1.368 . S
H3951 C3959 0.950 . S
H3952 C3957 0.950 . S
H3953 C3958 0.949 . S
H3954 C3960 0.950 . S
H3955 C3961 0.950 . S
H3956 C3962 0.949 . S
C3957 H3952 0.950 . S
C3957 C3959 1.327 . S
C3957 C3963 1.429 . S
C3958 C3950 1.574 . S
C3958 H3953 0.949 . S
C3958 C3964 1.368 . S
C3959 C3943 1.349 . S
C3959 H3951 0.950 . S
C3959 C3957 1.327 . S
C3960 C3948 1.349 . S
C3960 H3954 0.950 . S
C3960 C3961 1.327 . S
C3961 H3955 0.950 . S
C3961 C3960 1.327 . S
C3961 C3965 1.429 . S
C3962 C3945 1.574 . S
C3962 H3956 0.949 . S
C3962 C3966 1.368 . S
C3963 C3944 1.429 . S
C3963 C3957 1.429 . S
C3963 C3964 1.523 . S
C3964 C3945 1.368 . S
C3964 C3958 1.368 . S
C3964 C3963 1.523 . S
C3965 C3949 1.429 . S
C3965 C3961 1.429 . S
C3965 C3966 1.523 . S
C3966 C3950 1.368 . S
C3966 C3962 1.368 . S
C3966 C3965 1.523 . S
H3967 C3942 0.950 . S
H3968 C3944 0.950 . S
H3969 C3945 0.949 . S
H3970 C3947 0.950 . S
H3971 C3949 0.950 . S
C3972 C3973 1.349 . S
C3972 C3974 1.327 . S
C3972 H3997 0.950 . S
C3973 C3972 1.349 . S
C3973 C3989 1.349 . S
C3974 C3972 1.327 . S
C3974 C3993 1.429 . S
C3974 H3998 0.950 . S
C3975 C3992 1.574 . S
C3975 C3994 1.368 . S
C3975 H3999 0.949 . S
H3976 C3980 0.949 . S
C3977 C3978 1.349 . S
C3977 C3979 1.327 . S
C3977 H4000 0.950 . S
C3978 C3977 1.349 . S
C3978 C3990 1.349 . S
C3979 C3977 1.327 . S
C3979 C3995 1.429 . S
C3979 H4001 0.950 . S
C3980 H3976 0.949 . S
C3980 C3988 1.574 . S
C3980 C3996 1.368 . S
H3981 C3989 0.950 . S
H3982 C3987 0.950 . S
H3983 C3988 0.949 . S
H3984 C3990 0.950 . S
H3985 C3991 0.950 . S
H3986 C3992 0.949 . S
C3987 H3982 0.950 . S
C3987 C3989 1.327 . S
C3987 C3993 1.429 . S
C3988 C3980 1.574 . S
C3988 H3983 0.949 . S
C3988 C3994 1.368 . S
C3989 C3973 1.349 . S
C3989 H3981 0.950 . S
C3989 C3987 1.327 . S
C3990 C3978 1.349 . S
C3990 H3984 0.950 . S
C3990 C3991 1.327 . S
C3991 H3985 0.950 . S
C3991 C3990 1.327 . S
C3991 C3995 1.429 . S
C3992 C3975 1.574 . S
C3992 H3986 0.949 . S
C3992 C3996 1.368 . S
C3993 C3974 1.429 . S
C3993 C3987 1.429 . S
C3993 C3994 1.523 . S
C3994 C3975 1.368 . S
C3994 C3988 1.368 . S
C3994 C3993 1.523 . S
C3995 C3979 1.429 . S
C3995 C3991 1.429 . S
C3995 C3996 1.523 . S
C3996 C3980 1.368 . S
C3996 C3992 1.368 . S
C3996 C3995 1.523 . S
H3997 C3972 0.950 . S
H3998 C3974 0.950 . S
H3999 C3975 0.949 . S
H4000 C3977 0.950 . S
H4001 C3979 0.950 . S
C4002 C4003 1.349 . S
C4002 C4004 1.327 . S
C4002 H4027 0.950 . S
C4003 C4002 1.349 . S
C4003 C4019 1.349 . S
C4004 C4002 1.327 . S
C4004 C4023 1.429 . S
C4004 H4028 0.950 . S
C4005 C4022 1.574 . S
C4005 C4024 1.368 . S
C4005 H4029 0.949 . S
H4006 C4010 0.949 . S
C4007 C4008 1.349 . S
C4007 C4009 1.327 . S
C4007 H4030 0.950 . S
C4008 C4007 1.349 . S
C4008 C4020 1.349 . S
C4009 C4007 1.327 . S
C4009 C4025 1.429 . S
C4009 H4031 0.950 . S
C4010 H4006 0.949 . S
C4010 C4018 1.574 . S
C4010 C4026 1.368 . S
H4011 C4019 0.950 . S
H4012 C4017 0.950 . S
H4013 C4018 0.949 . S
H4014 C4020 0.950 . S
H4015 C4021 0.950 . S
H4016 C4022 0.949 . S
C4017 H4012 0.950 . S
C4017 C4019 1.327 . S
C4017 C4023 1.429 . S
C4018 C4010 1.574 . S
C4018 H4013 0.949 . S
C4018 C4024 1.368 . S
C4019 C4003 1.349 . S
C4019 H4011 0.950 . S
C4019 C4017 1.327 . S
C4020 C4008 1.349 . S
C4020 H4014 0.950 . S
C4020 C4021 1.327 . S
C4021 H4015 0.950 . S
C4021 C4020 1.327 . S
C4021 C4025 1.429 . S
C4022 C4005 1.574 . S
C4022 H4016 0.949 . S
C4022 C4026 1.368 . S
C4023 C4004 1.429 . S
C4023 C4017 1.429 . S
C4023 C4024 1.523 . S
C4024 C4005 1.368 . S
C4024 C4018 1.368 . S
C4024 C4023 1.523 . S
C4025 C4009 1.429 . S
C4025 C4021 1.429 . S
C4025 C4026 1.523 . S
C4026 C4010 1.368 . S
C4026 C4022 1.368 . S
C4026 C4025 1.523 . S
H4027 C4002 0.950 . S
H4028 C4004 0.950 . S
H4029 C4005 0.949 . S
H4030 C4007 0.950 . S
H4031 C4009 0.950 . S
C4032 C4033 1.349 . S
C4032 C4034 1.327 . S
C4032 H4057 0.950 . S
C4033 C4032 1.349 . S
C4033 C4049 1.349 . S
C4034 C4032 1.327 . S
C4034 C4053 1.429 . S
C4034 H4058 0.950 . S
C4035 C4052 1.574 . S
C4035 C4054 1.368 . S
C4035 H4059 0.949 . S
H4036 C4040 0.949 . S
C4037 C4038 1.349 . S
C4037 C4039 1.327 . S
C4037 H4060 0.950 . S
C4038 C4037 1.349 . S
C4038 C4050 1.349 . S
C4039 C4037 1.327 . S
C4039 C4055 1.429 . S
C4039 H4061 0.950 . S
C4040 H4036 0.949 . S
C4040 C4048 1.574 . S
C4040 C4056 1.368 . S
H4041 C4049 0.950 . S
H4042 C4047 0.950 . S
H4043 C4048 0.949 . S
H4044 C4050 0.950 . S
H4045 C4051 0.950 . S
H4046 C4052 0.949 . S
C4047 H4042 0.950 . S
C4047 C4049 1.327 . S
C4047 C4053 1.429 . S
C4048 C4040 1.574 . S
C4048 H4043 0.949 . S
C4048 C4054 1.368 . S
C4049 C4033 1.349 . S
C4049 H4041 0.950 . S
C4049 C4047 1.327 . S
C4050 C4038 1.349 . S
C4050 H4044 0.950 . S
C4050 C4051 1.327 . S
C4051 H4045 0.950 . S
C4051 C4050 1.327 . S
C4051 C4055 1.429 . S
C4052 C4035 1.574 . S
C4052 H4046 0.949 . S
C4052 C4056 1.368 . S
C4053 C4034 1.429 . S
C4053 C4047 1.429 . S
C4053 C4054 1.523 . S
C4054 C4035 1.368 . S
C4054 C4048 1.368 . S
C4054 C4053 1.523 . S
C4055 C4039 1.429 . S
C4055 C4051 1.429 . S
C4055 C4056 1.523 . S
C4056 C4040 1.368 . S
C4056 C4052 1.368 . S
C4056 C4055 1.523 . S
H4057 C4032 0.950 . S
H4058 C4034 0.950 . S
H4059 C4035 0.949 . S
H4060 C4037 0.950 . S
H4061 C4039 0.950 . S
C4062 C4063 1.349 . S
C4062 C4064 1.327 . S
C4062 H4087 0.950 . S
C4063 C4062 1.349 . S
C4063 C4079 1.349 . S
C4064 C4062 1.327 . S
C4064 C4083 1.429 . S
C4064 H4088 0.950 . S
C4065 C4082 1.574 . S
C4065 C4084 1.368 . S
C4065 H4089 0.949 . S
H4066 C4070 0.949 . S
C4067 C4068 1.349 . S
C4067 C4069 1.327 . S
C4067 H4090 0.950 . S
C4068 C4067 1.349 . S
C4068 C4080 1.349 . S
C4069 C4067 1.327 . S
C4069 C4085 1.429 . S
C4069 H4091 0.950 . S
C4070 H4066 0.949 . S
C4070 C4078 1.574 . S
C4070 C4086 1.368 . S
H4071 C4079 0.950 . S
H4072 C4077 0.950 . S
H4073 C4078 0.949 . S
H4074 C4080 0.950 . S
H4075 C4081 0.950 . S
H4076 C4082 0.949 . S
C4077 H4072 0.950 . S
C4077 C4079 1.327 . S
C4077 C4083 1.429 . S
C4078 C4070 1.574 . S
C4078 H4073 0.949 . S
C4078 C4084 1.368 . S
C4079 C4063 1.349 . S
C4079 H4071 0.950 . S
C4079 C4077 1.327 . S
C4080 C4068 1.349 . S
C4080 H4074 0.950 . S
C4080 C4081 1.327 . S
C4081 H4075 0.950 . S
C4081 C4080 1.327 . S
C4081 C4085 1.429 . S
C4082 C4065 1.574 . S
C4082 H4076 0.949 . S
C4082 C4086 1.368 . S
C4083 C4064 1.429 . S
C4083 C4077 1.429 . S
C4083 C4084 1.523 . S
C4084 C4065 1.368 . S
C4084 C4078 1.368 . S
C4084 C4083 1.523 . S
C4085 C4069 1.429 . S
C4085 C4081 1.429 . S
C4085 C4086 1.523 . S
C4086 C4070 1.368 . S
C4086 C4082 1.368 . S
C4086 C4085 1.523 . S
H4087 C4062 0.950 . S
H4088 C4064 0.950 . S
H4089 C4065 0.949 . S
H4090 C4067 0.950 . S
H4091 C4069 0.950 . S
C4092 C4093 1.349 . S
C4092 C4094 1.327 . S
C4092 H4117 0.950 . S
C4093 C4092 1.349 . S
C4093 C4109 1.349 . S
C4094 C4092 1.327 . S
C4094 C4113 1.429 . S
C4094 H4118 0.950 . S
C4095 C4112 1.574 . S
C4095 C4114 1.368 . S
C4095 H4119 0.949 . S
H4096 C4100 0.949 . S
C4097 C4098 1.349 . S
C4097 C4099 1.327 . S
C4097 H4120 0.950 . S
C4098 C4097 1.349 . S
C4098 C4110 1.349 . S
C4099 C4097 1.327 . S
C4099 C4115 1.429 . S
C4099 H4121 0.950 . S
C4100 H4096 0.949 . S
C4100 C4108 1.574 . S
C4100 C4116 1.368 . S
H4101 C4109 0.950 . S
H4102 C4107 0.950 . S
H4103 C4108 0.949 . S
H4104 C4110 0.950 . S
H4105 C4111 0.950 . S
H4106 C4112 0.949 . S
C4107 H4102 0.950 . S
C4107 C4109 1.327 . S
C4107 C4113 1.429 . S
C4108 C4100 1.574 . S
C4108 H4103 0.949 . S
C4108 C4114 1.368 . S
C4109 C4093 1.349 . S
C4109 H4101 0.950 . S
C4109 C4107 1.327 . S
C4110 C4098 1.349 . S
C4110 H4104 0.950 . S
C4110 C4111 1.327 . S
C4111 H4105 0.950 . S
C4111 C4110 1.327 . S
C4111 C4115 1.429 . S
C4112 C4095 1.574 . S
C4112 H4106 0.949 . S
C4112 C4116 1.368 . S
C4113 C4094 1.429 . S
C4113 C4107 1.429 . S
C4113 C4114 1.523 . S
C4114 C4095 1.368 . S
C4114 C4108 1.368 . S
C4114 C4113 1.523 . S
C4115 C4099 1.429 . S
C4115 C4111 1.429 . S
C4115 C4116 1.523 . S
C4116 C4100 1.368 . S
C4116 C4112 1.368 . S
C4116 C4115 1.523 . S
H4117 C4092 0.950 . S
H4118 C4094 0.950 . S
H4119 C4095 0.949 . S
H4120 C4097 0.950 . S
H4121 C4099 0.950 . S
C4122 C4123 1.349 . S
C4122 C4124 1.327 . S
C4122 H4147 0.950 . S
C4123 C4122 1.349 . S
C4123 C4139 1.349 . S
C4124 C4122 1.327 . S
C4124 C4143 1.429 . S
C4124 H4148 0.950 . S
C4125 C4142 1.574 . S
C4125 C4144 1.368 . S
C4125 H4149 0.949 . S
H4126 C4130 0.949 . S
C4127 C4128 1.349 . S
C4127 C4129 1.327 . S
C4127 H4150 0.950 . S
C4128 C4127 1.349 . S
C4128 C4140 1.349 . S
C4129 C4127 1.327 . S
C4129 C4145 1.429 . S
C4129 H4151 0.950 . S
C4130 H4126 0.949 . S
C4130 C4138 1.574 . S
C4130 C4146 1.368 . S
H4131 C4139 0.950 . S
H4132 C4137 0.950 . S
H4133 C4138 0.949 . S
H4134 C4140 0.950 . S
H4135 C4141 0.950 . S
H4136 C4142 0.949 . S
C4137 H4132 0.950 . S
C4137 C4139 1.327 . S
C4137 C4143 1.429 . S
C4138 C4130 1.574 . S
C4138 H4133 0.949 . S
C4138 C4144 1.368 . S
C4139 C4123 1.349 . S
C4139 H4131 0.950 . S
C4139 C4137 1.327 . S
C4140 C4128 1.349 . S
C4140 H4134 0.950 . S
C4140 C4141 1.327 . S
C4141 H4135 0.950 . S
C4141 C4140 1.327 . S
C4141 C4145 1.429 . S
C4142 C4125 1.574 . S
C4142 H4136 0.949 . S
C4142 C4146 1.368 . S
C4143 C4124 1.429 . S
C4143 C4137 1.429 . S
C4143 C4144 1.523 . S
C4144 C4125 1.368 . S
C4144 C4138 1.368 . S
C4144 C4143 1.523 . S
C4145 C4129 1.429 . S
C4145 C4141 1.429 . S
C4145 C4146 1.523 . S
C4146 C4130 1.368 . S
C4146 C4142 1.368 . S
C4146 C4145 1.523 . S
H4147 C4122 0.950 . S
H4148 C4124 0.950 . S
H4149 C4125 0.949 . S
H4150 C4127 0.950 . S
H4151 C4129 0.950 . S
C4152 C4153 1.349 . S
C4152 C4154 1.327 . S
C4152 H4177 0.950 . S
C4153 C4152 1.349 . S
C4153 C4169 1.349 . S
C4154 C4152 1.327 . S
C4154 C4173 1.429 . S
C4154 H4178 0.950 . S
C4155 C4172 1.574 . S
C4155 C4174 1.368 . S
C4155 H4179 0.949 . S
H4156 C4160 0.949 . S
C4157 C4158 1.349 . S
C4157 C4159 1.327 . S
C4157 H4180 0.950 . S
C4158 C4157 1.349 . S
C4158 C4170 1.349 . S
C4159 C4157 1.327 . S
C4159 C4175 1.429 . S
C4159 H4181 0.950 . S
C4160 H4156 0.949 . S
C4160 C4168 1.574 . S
C4160 C4176 1.368 . S
H4161 C4169 0.950 . S
H4162 C4167 0.950 . S
H4163 C4168 0.949 . S
H4164 C4170 0.950 . S
H4165 C4171 0.950 . S
H4166 C4172 0.949 . S
C4167 H4162 0.950 . S
C4167 C4169 1.327 . S
C4167 C4173 1.429 . S
C4168 C4160 1.574 . S
C4168 H4163 0.949 . S
C4168 C4174 1.368 . S
C4169 C4153 1.349 . S
C4169 H4161 0.950 . S
C4169 C4167 1.327 . S
C4170 C4158 1.349 . S
C4170 H4164 0.950 . S
C4170 C4171 1.327 . S
C4171 H4165 0.950 . S
C4171 C4170 1.327 . S
C4171 C4175 1.429 . S
C4172 C4155 1.574 . S
C4172 H4166 0.949 . S
C4172 C4176 1.368 . S
C4173 C4154 1.429 . S
C4173 C4167 1.429 . S
C4173 C4174 1.523 . S
C4174 C4155 1.368 . S
C4174 C4168 1.368 . S
C4174 C4173 1.523 . S
C4175 C4159 1.429 . S
C4175 C4171 1.429 . S
C4175 C4176 1.523 . S
C4176 C4160 1.368 . S
C4176 C4172 1.368 . S
C4176 C4175 1.523 . S
H4177 C4152 0.950 . S
H4178 C4154 0.950 . S
H4179 C4155 0.949 . S
H4180 C4157 0.950 . S
H4181 C4159 0.950 . S
C4182 C4183 1.349 . S
C4182 C4184 1.327 . S
C4182 H4207 0.950 . S
C4183 C4182 1.349 . S
C4183 C4199 1.349 . S
C4184 C4182 1.327 . S
C4184 C4203 1.429 . S
C4184 H4208 0.950 . S
C4185 C4202 1.574 . S
C4185 C4204 1.368 . S
C4185 H4209 0.949 . S
H4186 C4190 0.949 . S
C4187 C4188 1.349 . S
C4187 C4189 1.327 . S
C4187 H4210 0.950 . S
C4188 C4187 1.349 . S
C4188 C4200 1.349 . S
C4189 C4187 1.327 . S
C4189 C4205 1.429 . S
C4189 H4211 0.950 . S
C4190 H4186 0.949 . S
C4190 C4198 1.574 . S
C4190 C4206 1.368 . S
H4191 C4199 0.950 . S
H4192 C4197 0.950 . S
H4193 C4198 0.949 . S
H4194 C4200 0.950 . S
H4195 C4201 0.950 . S
H4196 C4202 0.949 . S
C4197 H4192 0.950 . S
C4197 C4199 1.327 . S
C4197 C4203 1.429 . S
C4198 C4190 1.574 . S
C4198 H4193 0.949 . S
C4198 C4204 1.368 . S
C4199 C4183 1.349 . S
C4199 H4191 0.950 . S
C4199 C4197 1.327 . S
C4200 C4188 1.349 . S
C4200 H4194 0.950 . S
C4200 C4201 1.327 . S
C4201 H4195 0.950 . S
C4201 C4200 1.327 . S
C4201 C4205 1.429 . S
C4202 C4185 1.574 . S
C4202 H4196 0.949 . S
C4202 C4206 1.368 . S
C4203 C4184 1.429 . S
C4203 C4197 1.429 . S
C4203 C4204 1.523 . S
C4204 C4185 1.368 . S
C4204 C4198 1.368 . S
C4204 C4203 1.523 . S
C4205 C4189 1.429 . S
C4205 C4201 1.429 . S
C4205 C4206 1.523 . S
C4206 C4190 1.368 . S
C4206 C4202 1.368 . S
C4206 C4205 1.523 . S
H4207 C4182 0.950 . S
H4208 C4184 0.950 . S
H4209 C4185 0.949 . S
H4210 C4187 0.950 . S
H4211 C4189 0.950 . S
C4212 C4213 1.349 . S
C4212 C4214 1.327 . S
C4212 H4237 0.950 . S
C4213 C4212 1.349 . S
C4213 C4229 1.349 . S
C4214 C4212 1.327 . S
C4214 C4233 1.429 . S
C4214 H4238 0.950 . S
C4215 C4232 1.574 . S
C4215 C4234 1.368 . S
C4215 H4239 0.949 . S
H4216 C4220 0.949 . S
C4217 C4218 1.349 . S
C4217 C4219 1.327 . S
C4217 H4240 0.950 . S
C4218 C4217 1.349 . S
C4218 C4230 1.349 . S
C4219 C4217 1.327 . S
C4219 C4235 1.429 . S
C4219 H4241 0.950 . S
C4220 H4216 0.949 . S
C4220 C4228 1.574 . S
C4220 C4236 1.368 . S
H4221 C4229 0.950 . S
H4222 C4227 0.950 . S
H4223 C4228 0.949 . S
H4224 C4230 0.950 . S
H4225 C4231 0.950 . S
H4226 C4232 0.949 . S
C4227 H4222 0.950 . S
C4227 C4229 1.327 . S
C4227 C4233 1.429 . S
C4228 C4220 1.574 . S
C4228 H4223 0.949 . S
C4228 C4234 1.368 . S
C4229 C4213 1.349 . S
C4229 H4221 0.950 . S
C4229 C4227 1.327 . S
C4230 C4218 1.349 . S
C4230 H4224 0.950 . S
C4230 C4231 1.327 . S
C4231 H4225 0.950 . S
C4231 C4230 1.327 . S
C4231 C4235 1.429 . S
C4232 C4215 1.574 . S
C4232 H4226 0.949 . S
C4232 C4236 1.368 . S
C4233 C4214 1.429 . S
C4233 C4227 1.429 . S
C4233 C4234 1.523 . S
C4234 C4215 1.368 . S
C4234 C4228 1.368 . S
C4234 C4233 1.523 . S
C4235 C4219 1.429 . S
C4235 C4231 1.429 . S
C4235 C4236 1.523 . S
C4236 C4220 1.368 . S
C4236 C4232 1.368 . S
C4236 C4235 1.523 . S
H4237 C4212 0.950 . S
H4238 C4214 0.950 . S
H4239 C4215 0.949 . S
H4240 C4217 0.950 . S
H4241 C4219 0.950 . S
C4242 C4243 1.349 . S
C4242 C4244 1.327 . S
C4242 H4267 0.950 . S
C4243 C4242 1.349 . S
C4243 C4259 1.349 . S
C4244 C4242 1.327 . S
C4244 C4263 1.429 . S
C4244 H4268 0.950 . S
C4245 C4262 1.574 . S
C4245 C4264 1.368 . S
C4245 H4269 0.949 . S
H4246 C4250 0.949 . S
C4247 C4248 1.349 . S
C4247 C4249 1.327 . S
C4247 H4270 0.950 . S
C4248 C4247 1.349 . S
C4248 C4260 1.349 . S
C4249 C4247 1.327 . S
C4249 C4265 1.429 . S
C4249 H4271 0.950 . S
C4250 H4246 0.949 . S
C4250 C4258 1.574 . S
C4250 C4266 1.368 . S
H4251 C4259 0.950 . S
H4252 C4257 0.950 . S
H4253 C4258 0.949 . S
H4254 C4260 0.950 . S
H4255 C4261 0.950 . S
H4256 C4262 0.949 . S
C4257 H4252 0.950 . S
C4257 C4259 1.327 . S
C4257 C4263 1.429 . S
C4258 C4250 1.574 . S
C4258 H4253 0.949 . S
C4258 C4264 1.368 . S
C4259 C4243 1.349 . S
C4259 H4251 0.950 . S
C4259 C4257 1.327 . S
C4260 C4248 1.349 . S
C4260 H4254 0.950 . S
C4260 C4261 1.327 . S
C4261 H4255 0.950 . S
C4261 C4260 1.327 . S
C4261 C4265 1.429 . S
C4262 C4245 1.574 . S
C4262 H4256 0.949 . S
C4262 C4266 1.368 . S
C4263 C4244 1.429 . S
C4263 C4257 1.429 . S
C4263 C4264 1.523 . S
C4264 C4245 1.368 . S
C4264 C4258 1.368 . S
C4264 C4263 1.523 . S
C4265 C4249 1.429 . S
C4265 C4261 1.429 . S
C4265 C4266 1.523 . S
C4266 C4250 1.368 . S
C4266 C4262 1.368 . S
C4266 C4265 1.523 . S
H4267 C4242 0.950 . S
H4268 C4244 0.950 . S
H4269 C4245 0.949 . S
H4270 C4247 0.950 . S
H4271 C4249 0.950 . S
C4272 C4273 1.349 . S
C4272 C4274 1.327 . S
C4272 H4297 0.950 . S
C4273 C4272 1.349 . S
C4273 C4289 1.349 . S
C4274 C4272 1.327 . S
C4274 C4293 1.429 . S
C4274 H4298 0.950 . S
C4275 C4292 1.574 . S
C4275 C4294 1.368 . S
C4275 H4299 0.949 . S
H4276 C4280 0.949 . S
C4277 C4278 1.349 . S
C4277 C4279 1.327 . S
C4277 H4300 0.950 . S
C4278 C4277 1.349 . S
C4278 C4290 1.349 . S
C4279 C4277 1.327 . S
C4279 C4295 1.429 . S
C4279 H4301 0.950 . S
C4280 H4276 0.949 . S
C4280 C4288 1.574 . S
C4280 C4296 1.368 . S
H4281 C4289 0.950 . S
H4282 C4287 0.950 . S
H4283 C4288 0.949 . S
H4284 C4290 0.950 . S
H4285 C4291 0.950 . S
H4286 C4292 0.949 . S
C4287 H4282 0.950 . S
C4287 C4289 1.327 . S
C4287 C4293 1.429 . S
C4288 C4280 1.574 . S
C4288 H4283 0.949 . S
C4288 C4294 1.368 . S
C4289 C4273 1.349 . S
C4289 H4281 0.950 . S
C4289 C4287 1.327 . S
C4290 C4278 1.349 . S
C4290 H4284 0.950 . S
C4290 C4291 1.327 . S
C4291 H4285 0.950 . S
C4291 C4290 1.327 . S
C4291 C4295 1.429 . S
C4292 C4275 1.574 . S
C4292 H4286 0.949 . S
C4292 C4296 1.368 . S
C4293 C4274 1.429 . S
C4293 C4287 1.429 . S
C4293 C4294 1.523 . S
C4294 C4275 1.368 . S
C4294 C4288 1.368 . S
C4294 C4293 1.523 . S
C4295 C4279 1.429 . S
C4295 C4291 1.429 . S
C4295 C4296 1.523 . S
C4296 C4280 1.368 . S
C4296 C4292 1.368 . S
C4296 C4295 1.523 . S
H4297 C4272 0.950 . S
H4298 C4274 0.950 . S
H4299 C4275 0.949 . S
H4300 C4277 0.950 . S
H4301 C4279 0.950 . S
C4302 C4303 1.349 . S
C4302 C4304 1.327 . S
C4302 H4327 0.950 . S
C4303 C4302 1.349 . S
C4303 C4319 1.349 . S
C4304 C4302 1.327 . S
C4304 C4323 1.429 . S
C4304 H4328 0.950 . S
C4305 C4322 1.574 . S
C4305 C4324 1.368 . S
C4305 H4329 0.949 . S
H4306 C4310 0.949 . S
C4307 C4308 1.349 . S
C4307 C4309 1.327 . S
C4307 H4330 0.950 . S
C4308 C4307 1.349 . S
C4308 C4320 1.349 . S
C4309 C4307 1.327 . S
C4309 C4325 1.429 . S
C4309 H4331 0.950 . S
C4310 H4306 0.949 . S
C4310 C4318 1.574 . S
C4310 C4326 1.368 . S
H4311 C4319 0.950 . S
H4312 C4317 0.950 . S
H4313 C4318 0.949 . S
H4314 C4320 0.950 . S
H4315 C4321 0.950 . S
H4316 C4322 0.949 . S
C4317 H4312 0.950 . S
C4317 C4319 1.327 . S
C4317 C4323 1.429 . S
C4318 C4310 1.574 . S
C4318 H4313 0.949 . S
C4318 C4324 1.368 . S
C4319 C4303 1.349 . S
C4319 H4311 0.950 . S
C4319 C4317 1.327 . S
C4320 C4308 1.349 . S
C4320 H4314 0.950 . S
C4320 C4321 1.327 . S
C4321 H4315 0.950 . S
C4321 C4320 1.327 . S
C4321 C4325 1.429 . S
C4322 C4305 1.574 . S
C4322 H4316 0.949 . S
C4322 C4326 1.368 . S
C4323 C4304 1.429 . S
C4323 C4317 1.429 . S
C4323 C4324 1.523 . S
C4324 C4305 1.368 . S
C4324 C4318 1.368 . S
C4324 C4323 1.523 . S
C4325 C4309 1.429 . S
C4325 C4321 1.429 . S
C4325 C4326 1.523 . S
C4326 C4310 1.368 . S
C4326 C4322 1.368 . S
C4326 C4325 1.523 . S
H4327 C4302 0.950 . S
H4328 C4304 0.950 . S
H4329 C4305 0.949 . S
H4330 C4307 0.950 . S
H4331 C4309 0.950 . S
C4332 C4333 1.349 . S
C4332 C4334 1.327 . S
C4332 H4357 0.950 . S
C4333 C4332 1.349 . S
C4333 C4349 1.349 . S
C4334 C4332 1.327 . S
C4334 C4353 1.429 . S
C4334 H4358 0.950 . S
C4335 C4352 1.574 . S
C4335 C4354 1.368 . S
C4335 H4359 0.949 . S
H4336 C4340 0.949 . S
C4337 C4338 1.349 . S
C4337 C4339 1.327 . S
C4337 H4360 0.950 . S
C4338 C4337 1.349 . S
C4338 C4350 1.349 . S
C4339 C4337 1.327 . S
C4339 C4355 1.429 . S
C4339 H4361 0.950 . S
C4340 H4336 0.949 . S
C4340 C4348 1.574 . S
C4340 C4356 1.368 . S
H4341 C4349 0.950 . S
H4342 C4347 0.950 . S
H4343 C4348 0.949 . S
H4344 C4350 0.950 . S
H4345 C4351 0.950 . S
H4346 C4352 0.949 . S
C4347 H4342 0.950 . S
C4347 C4349 1.327 . S
C4347 C4353 1.429 . S
C4348 C4340 1.574 . S
C4348 H4343 0.949 . S
C4348 C4354 1.368 . S
C4349 C4333 1.349 . S
C4349 H4341 0.950 . S
C4349 C4347 1.327 . S
C4350 C4338 1.349 . S
C4350 H4344 0.950 . S
C4350 C4351 1.327 . S
C4351 H4345 0.950 . S
C4351 C4350 1.327 . S
C4351 C4355 1.429 . S
C4352 C4335 1.574 . S
C4352 H4346 0.949 . S
C4352 C4356 1.368 . S
C4353 C4334 1.429 . S
C4353 C4347 1.429 . S
C4353 C4354 1.523 . S
C4354 C4335 1.368 . S
C4354 C4348 1.368 . S
C4354 C4353 1.523 . S
C4355 C4339 1.429 . S
C4355 C4351 1.429 . S
C4355 C4356 1.523 . S
C4356 C4340 1.368 . S
C4356 C4352 1.368 . S
C4356 C4355 1.523 . S
H4357 C4332 0.950 . S
H4358 C4334 0.950 . S
H4359 C4335 0.949 . S
H4360 C4337 0.950 . S
H4361 C4339 0.950 . S
C4362 C4363 1.349 . S
C4362 C4364 1.327 . S
C4362 H4387 0.950 . S
C4363 C4362 1.349 . S
C4363 C4379 1.349 . S
C4364 C4362 1.327 . S
C4364 C4383 1.429 . S
C4364 H4388 0.950 . S
C4365 C4382 1.574 . S
C4365 C4384 1.368 . S
C4365 H4389 0.949 . S
H4366 C4370 0.949 . S
C4367 C4368 1.349 . S
C4367 C4369 1.327 . S
C4367 H4390 0.950 . S
C4368 C4367 1.349 . S
C4368 C4380 1.349 . S
C4369 C4367 1.327 . S
C4369 C4385 1.429 . S
C4369 H4391 0.950 . S
C4370 H4366 0.949 . S
C4370 C4378 1.574 . S
C4370 C4386 1.368 . S
H4371 C4379 0.950 . S
H4372 C4377 0.950 . S
H4373 C4378 0.949 . S
H4374 C4380 0.950 . S
H4375 C4381 0.950 . S
H4376 C4382 0.949 . S
C4377 H4372 0.950 . S
C4377 C4379 1.327 . S
C4377 C4383 1.429 . S
C4378 C4370 1.574 . S
C4378 H4373 0.949 . S
C4378 C4384 1.368 . S
C4379 C4363 1.349 . S
C4379 H4371 0.950 . S
C4379 C4377 1.327 . S
C4380 C4368 1.349 . S
C4380 H4374 0.950 . S
C4380 C4381 1.327 . S
C4381 H4375 0.950 . S
C4381 C4380 1.327 . S
C4381 C4385 1.429 . S
C4382 C4365 1.574 . S
C4382 H4376 0.949 . S
C4382 C4386 1.368 . S
C4383 C4364 1.429 . S
C4383 C4377 1.429 . S
C4383 C4384 1.523 . S
C4384 C4365 1.368 . S
C4384 C4378 1.368 . S
C4384 C4383 1.523 . S
C4385 C4369 1.429 . S
C4385 C4381 1.429 . S
C4385 C4386 1.523 . S
C4386 C4370 1.368 . S
C4386 C4382 1.368 . S
C4386 C4385 1.523 . S
H4387 C4362 0.950 . S
H4388 C4364 0.950 . S
H4389 C4365 0.949 . S
H4390 C4367 0.950 . S
H4391 C4369 0.950 . S
C4392 C4393 1.349 . S
C4392 C4394 1.327 . S
C4392 H4417 0.950 . S
C4393 C4392 1.349 . S
C4393 C4409 1.349 . S
C4394 C4392 1.327 . S
C4394 C4413 1.429 . S
C4394 H4418 0.950 . S
C4395 C4412 1.574 . S
C4395 C4414 1.368 . S
C4395 H4419 0.949 . S
H4396 C4400 0.949 . S
C4397 C4398 1.349 . S
C4397 C4399 1.327 . S
C4397 H4420 0.950 . S
C4398 C4397 1.349 . S
C4398 C4410 1.349 . S
C4399 C4397 1.327 . S
C4399 C4415 1.429 . S
C4399 H4421 0.950 . S
C4400 H4396 0.949 . S
C4400 C4408 1.574 . S
C4400 C4416 1.368 . S
H4401 C4409 0.950 . S
H4402 C4407 0.950 . S
H4403 C4408 0.949 . S
H4404 C4410 0.950 . S
H4405 C4411 0.950 . S
H4406 C4412 0.949 . S
C4407 H4402 0.950 . S
C4407 C4409 1.327 . S
C4407 C4413 1.429 . S
C4408 C4400 1.574 . S
C4408 H4403 0.949 . S
C4408 C4414 1.368 . S
C4409 C4393 1.349 . S
C4409 H4401 0.950 . S
C4409 C4407 1.327 . S
C4410 C4398 1.349 . S
C4410 H4404 0.950 . S
C4410 C4411 1.327 . S
C4411 H4405 0.950 . S
C4411 C4410 1.327 . S
C4411 C4415 1.429 . S
C4412 C4395 1.574 . S
C4412 H4406 0.949 . S
C4412 C4416 1.368 . S
C4413 C4394 1.429 . S
C4413 C4407 1.429 . S
C4413 C4414 1.523 . S
C4414 C4395 1.368 . S
C4414 C4408 1.368 . S
C4414 C4413 1.523 . S
C4415 C4399 1.429 . S
C4415 C4411 1.429 . S
C4415 C4416 1.523 . S
C4416 C4400 1.368 . S
C4416 C4412 1.368 . S
C4416 C4415 1.523 . S
H4417 C4392 0.950 . S
H4418 C4394 0.950 . S
H4419 C4395 0.949 . S
H4420 C4397 0.950 . S
H4421 C4399 0.950 . S
C4422 C4423 1.349 . S
C4422 C4424 1.327 . S
C4422 H4447 0.950 . S
C4423 C4422 1.349 . S
C4423 C4439 1.349 . S
C4424 C4422 1.327 . S
C4424 C4443 1.429 . S
C4424 H4448 0.950 . S
C4425 C4442 1.574 . S
C4425 C4444 1.368 . S
C4425 H4449 0.949 . S
H4426 C4430 0.949 . S
C4427 C4428 1.349 . S
C4427 C4429 1.327 . S
C4427 H4450 0.950 . S
C4428 C4427 1.349 . S
C4428 C4440 1.349 . S
C4429 C4427 1.327 . S
C4429 C4445 1.429 . S
C4429 H4451 0.950 . S
C4430 H4426 0.949 . S
C4430 C4438 1.574 . S
C4430 C4446 1.368 . S
H4431 C4439 0.950 . S
H4432 C4437 0.950 . S
H4433 C4438 0.949 . S
H4434 C4440 0.950 . S
H4435 C4441 0.950 . S
H4436 C4442 0.949 . S
C4437 H4432 0.950 . S
C4437 C4439 1.327 . S
C4437 C4443 1.429 . S
C4438 C4430 1.574 . S
C4438 H4433 0.949 . S
C4438 C4444 1.368 . S
C4439 C4423 1.349 . S
C4439 H4431 0.950 . S
C4439 C4437 1.327 . S
C4440 C4428 1.349 . S
C4440 H4434 0.950 . S
C4440 C4441 1.327 . S
C4441 H4435 0.950 . S
C4441 C4440 1.327 . S
C4441 C4445 1.429 . S
C4442 C4425 1.574 . S
C4442 H4436 0.949 . S
C4442 C4446 1.368 . S
C4443 C4424 1.429 . S
C4443 C4437 1.429 . S
C4443 C4444 1.523 . S
C4444 C4425 1.368 . S
C4444 C4438 1.368 . S
C4444 C4443 1.523 . S
C4445 C4429 1.429 . S
C4445 C4441 1.429 . S
C4445 C4446 1.523 . S
C4446 C4430 1.368 . S
C4446 C4442 1.368 . S
C4446 C4445 1.523 . S
H4447 C4422 0.950 . S
H4448 C4424 0.950 . S
H4449 C4425 0.949 . S
H4450 C4427 0.950 . S
H4451 C4429 0.950 . S
C4452 C4453 1.349 . S
C4452 C4454 1.327 . S
C4452 H4477 0.950 . S
C4453 C4452 1.349 . S
C4453 C4469 1.349 . S
C4454 C4452 1.327 . S
C4454 C4473 1.429 . S
C4454 H4478 0.950 . S
C4455 C4472 1.574 . S
C4455 C4474 1.368 . S
C4455 H4479 0.949 . S
H4456 C4460 0.949 . S
C4457 C4458 1.349 . S
C4457 C4459 1.327 . S
C4457 H4480 0.950 . S
C4458 C4457 1.349 . S
C4458 C4470 1.349 . S
C4459 C4457 1.327 . S
C4459 C4475 1.429 . S
C4459 H4481 0.950 . S
C4460 H4456 0.949 . S
C4460 C4468 1.574 . S
C4460 C4476 1.368 . S
H4461 C4469 0.950 . S
H4462 C4467 0.950 . S
H4463 C4468 0.949 . S
H4464 C4470 0.950 . S
H4465 C4471 0.950 . S
H4466 C4472 0.949 . S
C4467 H4462 0.950 . S
C4467 C4469 1.327 . S
C4467 C4473 1.429 . S
C4468 C4460 1.574 . S
C4468 H4463 0.949 . S
C4468 C4474 1.368 . S
C4469 C4453 1.349 . S
C4469 H4461 0.950 . S
C4469 C4467 1.327 . S
C4470 C4458 1.349 . S
C4470 H4464 0.950 . S
C4470 C4471 1.327 . S
C4471 H4465 0.950 . S
C4471 C4470 1.327 . S
C4471 C4475 1.429 . S
C4472 C4455 1.574 . S
C4472 H4466 0.949 . S
C4472 C4476 1.368 . S
C4473 C4454 1.429 . S
C4473 C4467 1.429 . S
C4473 C4474 1.523 . S
C4474 C4455 1.368 . S
C4474 C4468 1.368 . S
C4474 C4473 1.523 . S
C4475 C4459 1.429 . S
C4475 C4471 1.429 . S
C4475 C4476 1.523 . S
C4476 C4460 1.368 . S
C4476 C4472 1.368 . S
C4476 C4475 1.523 . S
H4477 C4452 0.950 . S
H4478 C4454 0.950 . S
H4479 C4455 0.949 . S
H4480 C4457 0.950 . S
H4481 C4459 0.950 . S
C4482 C4483 1.349 . S
C4482 C4484 1.327 . S
C4482 H4507 0.950 . S
C4483 C4482 1.349 . S
C4483 C4499 1.349 . S
C4484 C4482 1.327 . S
C4484 C4503 1.429 . S
C4484 H4508 0.950 . S
C4485 C4502 1.574 . S
C4485 C4504 1.368 . S
C4485 H4509 0.949 . S
H4486 C4490 0.949 . S
C4487 C4488 1.349 . S
C4487 C4489 1.327 . S
C4487 H4510 0.950 . S
C4488 C4487 1.349 . S
C4488 C4500 1.349 . S
C4489 C4487 1.327 . S
C4489 C4505 1.429 . S
C4489 H4511 0.950 . S
C4490 H4486 0.949 . S
C4490 C4498 1.574 . S
C4490 C4506 1.368 . S
H4491 C4499 0.950 . S
H4492 C4497 0.950 . S
H4493 C4498 0.949 . S
H4494 C4500 0.950 . S
H4495 C4501 0.950 . S
H4496 C4502 0.949 . S
C4497 H4492 0.950 . S
C4497 C4499 1.327 . S
C4497 C4503 1.429 . S
C4498 C4490 1.574 . S
C4498 H4493 0.949 . S
C4498 C4504 1.368 . S
C4499 C4483 1.349 . S
C4499 H4491 0.950 . S
C4499 C4497 1.327 . S
C4500 C4488 1.349 . S
C4500 H4494 0.950 . S
C4500 C4501 1.327 . S
C4501 H4495 0.950 . S
C4501 C4500 1.327 . S
C4501 C4505 1.429 . S
C4502 C4485 1.574 . S
C4502 H4496 0.949 . S
C4502 C4506 1.368 . S
C4503 C4484 1.429 . S
C4503 C4497 1.429 . S
C4503 C4504 1.523 . S
C4504 C4485 1.368 . S
C4504 C4498 1.368 . S
C4504 C4503 1.523 . S
C4505 C4489 1.429 . S
C4505 C4501 1.429 . S
C4505 C4506 1.523 . S
C4506 C4490 1.368 . S
C4506 C4502 1.368 . S
C4506 C4505 1.523 . S
H4507 C4482 0.950 . S
H4508 C4484 0.950 . S
H4509 C4485 0.949 . S
H4510 C4487 0.950 . S
H4511 C4489 0.950 . S
C4512 C4513 1.349 . S
C4512 C4514 1.327 . S
C4512 H4537 0.950 . S
C4513 C4512 1.349 . S
C4513 C4529 1.349 . S
C4514 C4512 1.327 . S
C4514 C4533 1.429 . S
C4514 H4538 0.950 . S
C4515 C4532 1.574 . S
C4515 C4534 1.368 . S
C4515 H4539 0.949 . S
H4516 C4520 0.949 . S
C4517 C4518 1.349 . S
C4517 C4519 1.327 . S
C4517 H4540 0.950 . S
C4518 C4517 1.349 . S
C4518 C4530 1.349 . S
C4519 C4517 1.327 . S
C4519 C4535 1.429 . S
C4519 H4541 0.950 . S
C4520 H4516 0.949 . S
C4520 C4528 1.574 . S
C4520 C4536 1.368 . S
H4521 C4529 0.950 . S
H4522 C4527 0.950 . S
H4523 C4528 0.949 . S
H4524 C4530 0.950 . S
H4525 C4531 0.950 . S
H4526 C4532 0.949 . S
C4527 H4522 0.950 . S
C4527 C4529 1.327 . S
C4527 C4533 1.429 . S
C4528 C4520 1.574 . S
C4528 H4523 0.949 . S
C4528 C4534 1.368 . S
C4529 C4513 1.349 . S
C4529 H4521 0.950 . S
C4529 C4527 1.327 . S
C4530 C4518 1.349 . S
C4530 H4524 0.950 . S
C4530 C4531 1.327 . S
C4531 H4525 0.950 . S
C4531 C4530 1.327 . S
C4531 C4535 1.429 . S
C4532 C4515 1.574 . S
C4532 H4526 0.949 . S
C4532 C4536 1.368 . S
C4533 C4514 1.429 . S
C4533 C4527 1.429 . S
C4533 C4534 1.523 . S
C4534 C4515 1.368 . S
C4534 C4528 1.368 . S
C4534 C4533 1.523 . S
C4535 C4519 1.429 . S
C4535 C4531 1.429 . S
C4535 C4536 1.523 . S
C4536 C4520 1.368 . S
C4536 C4532 1.368 . S
C4536 C4535 1.523 . S
H4537 C4512 0.950 . S
H4538 C4514 0.950 . S
H4539 C4515 0.949 . S
H4540 C4517 0.950 . S
H4541 C4519 0.950 . S
C4542 C4543 1.349 . S
C4542 C4544 1.327 . S
C4542 H4567 0.950 . S
C4543 C4542 1.349 . S
C4543 C4559 1.349 . S
C4544 C4542 1.327 . S
C4544 C4563 1.429 . S
C4544 H4568 0.950 . S
C4545 C4562 1.574 . S
C4545 C4564 1.368 . S
C4545 H4569 0.949 . S
H4546 C4550 0.949 . S
C4547 C4548 1.349 . S
C4547 C4549 1.327 . S
C4547 H4570 0.950 . S
C4548 C4547 1.349 . S
C4548 C4560 1.349 . S
C4549 C4547 1.327 . S
C4549 C4565 1.429 . S
C4549 H4571 0.950 . S
C4550 H4546 0.949 . S
C4550 C4558 1.574 . S
C4550 C4566 1.368 . S
H4551 C4559 0.950 . S
H4552 C4557 0.950 . S
H4553 C4558 0.949 . S
H4554 C4560 0.950 . S
H4555 C4561 0.950 . S
H4556 C4562 0.949 . S
C4557 H4552 0.950 . S
C4557 C4559 1.327 . S
C4557 C4563 1.429 . S
C4558 C4550 1.574 . S
C4558 H4553 0.949 . S
C4558 C4564 1.368 . S
C4559 C4543 1.349 . S
C4559 H4551 0.950 . S
C4559 C4557 1.327 . S
C4560 C4548 1.349 . S
C4560 H4554 0.950 . S
C4560 C4561 1.327 . S
C4561 H4555 0.950 . S
C4561 C4560 1.327 . S
C4561 C4565 1.429 . S
C4562 C4545 1.574 . S
C4562 H4556 0.949 . S
C4562 C4566 1.368 . S
C4563 C4544 1.429 . S
C4563 C4557 1.429 . S
C4563 C4564 1.523 . S
C4564 C4545 1.368 . S
C4564 C4558 1.368 . S
C4564 C4563 1.523 . S
C4565 C4549 1.429 . S
C4565 C4561 1.429 . S
C4565 C4566 1.523 . S
C4566 C4550 1.368 . S
C4566 C4562 1.368 . S
C4566 C4565 1.523 . S
H4567 C4542 0.950 . S
H4568 C4544 0.950 . S
H4569 C4545 0.949 . S
H4570 C4547 0.950 . S
H4571 C4549 0.950 . S
C4572 C4573 1.349 . S
C4572 C4574 1.327 . S
C4572 H4597 0.950 . S
C4573 C4572 1.349 . S
C4573 C4589 1.349 . S
C4574 C4572 1.327 . S
C4574 C4593 1.429 . S
C4574 H4598 0.950 . S
C4575 C4592 1.574 . S
C4575 C4594 1.368 . S
C4575 H4599 0.949 . S
H4576 C4580 0.949 . S
C4577 C4578 1.349 . S
C4577 C4579 1.327 . S
C4577 H4600 0.950 . S
C4578 C4577 1.349 . S
C4578 C4590 1.349 . S
C4579 C4577 1.327 . S
C4579 C4595 1.429 . S
C4579 H4601 0.950 . S
C4580 H4576 0.949 . S
C4580 C4588 1.574 . S
C4580 C4596 1.368 . S
H4581 C4589 0.950 . S
H4582 C4587 0.950 . S
H4583 C4588 0.949 . S
H4584 C4590 0.950 . S
H4585 C4591 0.950 . S
H4586 C4592 0.949 . S
C4587 H4582 0.950 . S
C4587 C4589 1.327 . S
C4587 C4593 1.429 . S
C4588 C4580 1.574 . S
C4588 H4583 0.949 . S
C4588 C4594 1.368 . S
C4589 C4573 1.349 . S
C4589 H4581 0.950 . S
C4589 C4587 1.327 . S
C4590 C4578 1.349 . S
C4590 H4584 0.950 . S
C4590 C4591 1.327 . S
C4591 H4585 0.950 . S
C4591 C4590 1.327 . S
C4591 C4595 1.429 . S
C4592 C4575 1.574 . S
C4592 H4586 0.949 . S
C4592 C4596 1.368 . S
C4593 C4574 1.429 . S
C4593 C4587 1.429 . S
C4593 C4594 1.523 . S
C4594 C4575 1.368 . S
C4594 C4588 1.368 . S
C4594 C4593 1.523 . S
C4595 C4579 1.429 . S
C4595 C4591 1.429 . S
C4595 C4596 1.523 . S
C4596 C4580 1.368 . S
C4596 C4592 1.368 . S
C4596 C4595 1.523 . S
H4597 C4572 0.950 . S
H4598 C4574 0.950 . S
H4599 C4575 0.949 . S
H4600 C4577 0.950 . S
H4601 C4579 0.950 . S
C4602 C4603 1.349 . S
C4602 C4604 1.327 . S
C4602 H4627 0.950 . S
C4603 C4602 1.349 . S
C4603 C4619 1.349 . S
C4604 C4602 1.327 . S
C4604 C4623 1.429 . S
C4604 H4628 0.950 . S
C4605 C4622 1.574 . S
C4605 C4624 1.368 . S
C4605 H4629 0.949 . S
H4606 C4610 0.949 . S
C4607 C4608 1.349 . S
C4607 C4609 1.327 . S
C4607 H4630 0.950 . S
C4608 C4607 1.349 . S
C4608 C4620 1.349 . S
C4609 C4607 1.327 . S
C4609 C4625 1.429 . S
C4609 H4631 0.950 . S
C4610 H4606 0.949 . S
C4610 C4618 1.574 . S
C4610 C4626 1.368 . S
H4611 C4619 0.950 . S
H4612 C4617 0.950 . S
H4613 C4618 0.949 . S
H4614 C4620 0.950 . S
H4615 C4621 0.950 . S
H4616 C4622 0.949 . S
C4617 H4612 0.950 . S
C4617 C4619 1.327 . S
C4617 C4623 1.429 . S
C4618 C4610 1.574 . S
C4618 H4613 0.949 . S
C4618 C4624 1.368 . S
C4619 C4603 1.349 . S
C4619 H4611 0.950 . S
C4619 C4617 1.327 . S
C4620 C4608 1.349 . S
C4620 H4614 0.950 . S
C4620 C4621 1.327 . S
C4621 H4615 0.950 . S
C4621 C4620 1.327 . S
C4621 C4625 1.429 . S
C4622 C4605 1.574 . S
C4622 H4616 0.949 . S
C4622 C4626 1.368 . S
C4623 C4604 1.429 . S
C4623 C4617 1.429 . S
C4623 C4624 1.523 . S
C4624 C4605 1.368 . S
C4624 C4618 1.368 . S
C4624 C4623 1.523 . S
C4625 C4609 1.429 . S
C4625 C4621 1.429 . S
C4625 C4626 1.523 . S
C4626 C4610 1.368 . S
C4626 C4622 1.368 . S
C4626 C4625 1.523 . S
H4627 C4602 0.950 . S
H4628 C4604 0.950 . S
H4629 C4605 0.949 . S
H4630 C4607 0.950 . S
H4631 C4609 0.950 . S
C4632 C4633 1.349 . S
C4632 C4634 1.327 . S
C4632 H4657 0.950 . S
C4633 C4632 1.349 . S
C4633 C4649 1.349 . S
C4634 C4632 1.327 . S
C4634 C4653 1.429 . S
C4634 H4658 0.950 . S
C4635 C4652 1.574 . S
C4635 C4654 1.368 . S
C4635 H4659 0.949 . S
H4636 C4640 0.949 . S
C4637 C4638 1.349 . S
C4637 C4639 1.327 . S
C4637 H4660 0.950 . S
C4638 C4637 1.349 . S
C4638 C4650 1.349 . S
C4639 C4637 1.327 . S
C4639 C4655 1.429 . S
C4639 H4661 0.950 . S
C4640 H4636 0.949 . S
C4640 C4648 1.574 . S
C4640 C4656 1.368 . S
H4641 C4649 0.950 . S
H4642 C4647 0.950 . S
H4643 C4648 0.949 . S
H4644 C4650 0.950 . S
H4645 C4651 0.950 . S
H4646 C4652 0.949 . S
C4647 H4642 0.950 . S
C4647 C4649 1.327 . S
C4647 C4653 1.429 . S
C4648 C4640 1.574 . S
C4648 H4643 0.949 . S
C4648 C4654 1.368 . S
C4649 C4633 1.349 . S
C4649 H4641 0.950 . S
C4649 C4647 1.327 . S
C4650 C4638 1.349 . S
C4650 H4644 0.950 . S
C4650 C4651 1.327 . S
C4651 H4645 0.950 . S
C4651 C4650 1.327 . S
C4651 C4655 1.429 . S
C4652 C4635 1.574 . S
C4652 H4646 0.949 . S
C4652 C4656 1.368 . S
C4653 C4634 1.429 . S
C4653 C4647 1.429 . S
C4653 C4654 1.523 . S
C4654 C4635 1.368 . S
C4654 C4648 1.368 . S
C4654 C4653 1.523 . S
C4655 C4639 1.429 . S
C4655 C4651 1.429 . S
C4655 C4656 1.523 . S
C4656 C4640 1.368 . S
C4656 C4652 1.368 . S
C4656 C4655 1.523 . S
H4657 C4632 0.950 . S
H4658 C4634 0.950 . S
H4659 C4635 0.949 . S
H4660 C4637 0.950 . S
H4661 C4639 0.950 . S
C4662 C4663 1.349 . S
C4662 C4664 1.327 . S
C4662 H4687 0.950 . S
C4663 C4662 1.349 . S
C4663 C4679 1.349 . S
C4664 C4662 1.327 . S
C4664 C4683 1.429 . S
C4664 H4688 0.950 . S
C4665 C4682 1.574 . S
C4665 C4684 1.368 . S
C4665 H4689 0.949 . S
H4666 C4670 0.949 . S
C4667 C4668 1.349 . S
C4667 C4669 1.327 . S
C4667 H4690 0.950 . S
C4668 C4667 1.349 . S
C4668 C4680 1.349 . S
C4669 C4667 1.327 . S
C4669 C4685 1.429 . S
C4669 H4691 0.950 . S
C4670 H4666 0.949 . S
C4670 C4678 1.574 . S
C4670 C4686 1.368 . S
H4671 C4679 0.950 . S
H4672 C4677 0.950 . S
H4673 C4678 0.949 . S
H4674 C4680 0.950 . S
H4675 C4681 0.950 . S
H4676 C4682 0.949 . S
C4677 H4672 0.950 . S
C4677 C4679 1.327 . S
C4677 C4683 1.429 . S
C4678 C4670 1.574 . S
C4678 H4673 0.949 . S
C4678 C4684 1.368 . S
C4679 C4663 1.349 . S
C4679 H4671 0.950 . S
C4679 C4677 1.327 . S
C4680 C4668 1.349 . S
C4680 H4674 0.950 . S
C4680 C4681 1.327 . S
C4681 H4675 0.950 . S
C4681 C4680 1.327 . S
C4681 C4685 1.429 . S
C4682 C4665 1.574 . S
C4682 H4676 0.949 . S
C4682 C4686 1.368 . S
C4683 C4664 1.429 . S
C4683 C4677 1.429 . S
C4683 C4684 1.523 . S
C4684 C4665 1.368 . S
C4684 C4678 1.368 . S
C4684 C4683 1.523 . S
C4685 C4669 1.429 . S
C4685 C4681 1.429 . S
C4685 C4686 1.523 . S
C4686 C4670 1.368 . S
C4686 C4682 1.368 . S
C4686 C4685 1.523 . S
H4687 C4662 0.950 . S
H4688 C4664 0.950 . S
H4689 C4665 0.949 . S
H4690 C4667 0.950 . S
H4691 C4669 0.950 . S
C4692 C4693 1.349 . S
C4692 C4694 1.327 . S
C4692 H4717 0.950 . S
C4693 C4692 1.349 . S
C4693 C4709 1.349 . S
C4694 C4692 1.327 . S
C4694 C4713 1.429 . S
C4694 H4718 0.950 . S
C4695 C4712 1.574 . S
C4695 C4714 1.368 . S
C4695 H4719 0.949 . S
H4696 C4700 0.949 . S
C4697 C4698 1.349 . S
C4697 C4699 1.327 . S
C4697 H4720 0.950 . S
C4698 C4697 1.349 . S
C4698 C4710 1.349 . S
C4699 C4697 1.327 . S
C4699 C4715 1.429 . S
C4699 H4721 0.950 . S
C4700 H4696 0.949 . S
C4700 C4708 1.574 . S
C4700 C4716 1.368 . S
H4701 C4709 0.950 . S
H4702 C4707 0.950 . S
H4703 C4708 0.949 . S
H4704 C4710 0.950 . S
H4705 C4711 0.950 . S
H4706 C4712 0.949 . S
C4707 H4702 0.950 . S
C4707 C4709 1.327 . S
C4707 C4713 1.429 . S
C4708 C4700 1.574 . S
C4708 H4703 0.949 . S
C4708 C4714 1.368 . S
C4709 C4693 1.349 . S
C4709 H4701 0.950 . S
C4709 C4707 1.327 . S
C4710 C4698 1.349 . S
C4710 H4704 0.950 . S
C4710 C4711 1.327 . S
C4711 H4705 0.950 . S
C4711 C4710 1.327 . S
C4711 C4715 1.429 . S
C4712 C4695 1.574 . S
C4712 H4706 0.949 . S
C4712 C4716 1.368 . S
C4713 C4694 1.429 . S
C4713 C4707 1.429 . S
C4713 C4714 1.523 . S
C4714 C4695 1.368 . S
C4714 C4708 1.368 . S
C4714 C4713 1.523 . S
C4715 C4699 1.429 . S
C4715 C4711 1.429 . S
C4715 C4716 1.523 . S
C4716 C4700 1.368 . S
C4716 C4712 1.368 . S
C4716 C4715 1.523 . S
H4717 C4692 0.950 . S
H4718 C4694 0.950 . S
H4719 C4695 0.949 . S
H4720 C4697 0.950 . S
H4721 C4699 0.950 . S
C4722 C4723 1.349 . S
C4722 C4724 1.327 . S
C4722 H4747 0.950 . S
C4723 C4722 1.349 . S
C4723 C4739 1.349 . S
C4724 C4722 1.327 . S
C4724 C4743 1.429 . S
C4724 H4748 0.950 . S
C4725 C4742 1.574 . S
C4725 C4744 1.368 . S
C4725 H4749 0.949 . S
H4726 C4730 0.949 . S
C4727 C4728 1.349 . S
C4727 C4729 1.327 . S
C4727 H4750 0.950 . S
C4728 C4727 1.349 . S
C4728 C4740 1.349 . S
C4729 C4727 1.327 . S
C4729 C4745 1.429 . S
C4729 H4751 0.950 . S
C4730 H4726 0.949 . S
C4730 C4738 1.574 . S
C4730 C4746 1.368 . S
H4731 C4739 0.950 . S
H4732 C4737 0.950 . S
H4733 C4738 0.949 . S
H4734 C4740 0.950 . S
H4735 C4741 0.950 . S
H4736 C4742 0.949 . S
C4737 H4732 0.950 . S
C4737 C4739 1.327 . S
C4737 C4743 1.429 . S
C4738 C4730 1.574 . S
C4738 H4733 0.949 . S
C4738 C4744 1.368 . S
C4739 C4723 1.349 . S
C4739 H4731 0.950 . S
C4739 C4737 1.327 . S
C4740 C4728 1.349 . S
C4740 H4734 0.950 . S
C4740 C4741 1.327 . S
C4741 H4735 0.950 . S
C4741 C4740 1.327 . S
C4741 C4745 1.429 . S
C4742 C4725 1.574 . S
C4742 H4736 0.949 . S
C4742 C4746 1.368 . S
C4743 C4724 1.429 . S
C4743 C4737 1.429 . S
C4743 C4744 1.523 . S
C4744 C4725 1.368 . S
C4744 C4738 1.368 . S
C4744 C4743 1.523 . S
C4745 C4729 1.429 . S
C4745 C4741 1.429 . S
C4745 C4746 1.523 . S
C4746 C4730 1.368 . S
C4746 C4742 1.368 . S
C4746 C4745 1.523 . S
H4747 C4722 0.950 . S
H4748 C4724 0.950 . S
H4749 C4725 0.949 . S
H4750 C4727 0.950 . S
H4751 C4729 0.950 . S
C4752 C4753 1.349 . S
C4752 C4754 1.327 . S
C4752 H4777 0.950 . S
C4753 C4752 1.349 . S
C4753 C4769 1.349 . S
C4754 C4752 1.327 . S
C4754 C4773 1.429 . S
C4754 H4778 0.950 . S
C4755 C4772 1.574 . S
C4755 C4774 1.368 . S
C4755 H4779 0.949 . S
H4756 C4760 0.949 . S
C4757 C4758 1.349 . S
C4757 C4759 1.327 . S
C4757 H4780 0.950 . S
C4758 C4757 1.349 . S
C4758 C4770 1.349 . S
C4759 C4757 1.327 . S
C4759 C4775 1.429 . S
C4759 H4781 0.950 . S
C4760 H4756 0.949 . S
C4760 C4768 1.574 . S
C4760 C4776 1.368 . S
H4761 C4769 0.950 . S
H4762 C4767 0.950 . S
H4763 C4768 0.949 . S
H4764 C4770 0.950 . S
H4765 C4771 0.950 . S
H4766 C4772 0.949 . S
C4767 H4762 0.950 . S
C4767 C4769 1.327 . S
C4767 C4773 1.429 . S
C4768 C4760 1.574 . S
C4768 H4763 0.949 . S
C4768 C4774 1.368 . S
C4769 C4753 1.349 . S
C4769 H4761 0.950 . S
C4769 C4767 1.327 . S
C4770 C4758 1.349 . S
C4770 H4764 0.950 . S
C4770 C4771 1.327 . S
C4771 H4765 0.950 . S
C4771 C4770 1.327 . S
C4771 C4775 1.429 . S
C4772 C4755 1.574 . S
C4772 H4766 0.949 . S
C4772 C4776 1.368 . S
C4773 C4754 1.429 . S
C4773 C4767 1.429 . S
C4773 C4774 1.523 . S
C4774 C4755 1.368 . S
C4774 C4768 1.368 . S
C4774 C4773 1.523 . S
C4775 C4759 1.429 . S
C4775 C4771 1.429 . S
C4775 C4776 1.523 . S
C4776 C4760 1.368 . S
C4776 C4772 1.368 . S
C4776 C4775 1.523 . S
H4777 C4752 0.950 . S
H4778 C4754 0.950 . S
H4779 C4755 0.949 . S
H4780 C4757 0.950 . S
H4781 C4759 0.950 . S
C4782 C4783 1.349 . S
C4782 C4784 1.327 . S
C4782 H4807 0.950 . S
C4783 C4782 1.349 . S
C4783 C4799 1.349 . S
C4784 C4782 1.327 . S
C4784 C4803 1.429 . S
C4784 H4808 0.950 . S
C4785 C4802 1.574 . S
C4785 C4804 1.368 . S
C4785 H4809 0.949 . S
H4786 C4790 0.949 . S
C4787 C4788 1.349 . S
C4787 C4789 1.327 . S
C4787 H4810 0.950 . S
C4788 C4787 1.349 . S
C4788 C4800 1.349 . S
C4789 C4787 1.327 . S
C4789 C4805 1.429 . S
C4789 H4811 0.950 . S
C4790 H4786 0.949 . S
C4790 C4798 1.574 . S
C4790 C4806 1.368 . S
H4791 C4799 0.950 . S
H4792 C4797 0.950 . S
H4793 C4798 0.949 . S
H4794 C4800 0.950 . S
H4795 C4801 0.950 . S
H4796 C4802 0.949 . S
C4797 H4792 0.950 . S
C4797 C4799 1.327 . S
C4797 C4803 1.429 . S
C4798 C4790 1.574 . S
C4798 H4793 0.949 . S
C4798 C4804 1.368 . S
C4799 C4783 1.349 . S
C4799 H4791 0.950 . S
C4799 C4797 1.327 . S
C4800 C4788 1.349 . S
C4800 H4794 0.950 . S
C4800 C4801 1.327 . S
C4801 H4795 0.950 . S
C4801 C4800 1.327 . S
C4801 C4805 1.429 . S
C4802 C4785 1.574 . S
C4802 H4796 0.949 . S
C4802 C4806 1.368 . S
C4803 C4784 1.429 . S
C4803 C4797 1.429 . S
C4803 C4804 1.523 . S
C4804 C4785 1.368 . S
C4804 C4798 1.368 . S
C4804 C4803 1.523 . S
C4805 C4789 1.429 . S
C4805 C4801 1.429 . S
C4805 C4806 1.523 . S
C4806 C4790 1.368 . S
C4806 C4802 1.368 . S
C4806 C4805 1.523 . S
H4807 C4782 0.950 . S
H4808 C4784 0.950 . S
H4809 C4785 0.949 . S
H4810 C4787 0.950 . S
H4811 C4789 0.950 . S
C4812 C4813 1.349 . S
C4812 C4814 1.327 . S
C4812 H4837 0.950 . S
C4813 C4812 1.349 . S
C4813 C4829 1.349 . S
C4814 C4812 1.327 . S
C4814 C4833 1.429 . S
C4814 H4838 0.950 . S
C4815 C4832 1.574 . S
C4815 C4834 1.368 . S
C4815 H4839 0.949 . S
H4816 C4820 0.949 . S
C4817 C4818 1.349 . S
C4817 C4819 1.327 . S
C4817 H4840 0.950 . S
C4818 C4817 1.349 . S
C4818 C4830 1.349 . S
C4819 C4817 1.327 . S
C4819 C4835 1.429 . S
C4819 H4841 0.950 . S
C4820 H4816 0.949 . S
C4820 C4828 1.574 . S
C4820 C4836 1.368 . S
H4821 C4829 0.950 . S
H4822 C4827 0.950 . S
H4823 C4828 0.949 . S
H4824 C4830 0.950 . S
H4825 C4831 0.950 . S
H4826 C4832 0.949 . S
C4827 H4822 0.950 . S
C4827 C4829 1.327 . S
C4827 C4833 1.429 . S
C4828 C4820 1.574 . S
C4828 H4823 0.949 . S
C4828 C4834 1.368 . S
C4829 C4813 1.349 . S
C4829 H4821 0.950 . S
C4829 C4827 1.327 . S
C4830 C4818 1.349 . S
C4830 H4824 0.950 . S
C4830 C4831 1.327 . S
C4831 H4825 0.950 . S
C4831 C4830 1.327 . S
C4831 C4835 1.429 . S
C4832 C4815 1.574 . S
C4832 H4826 0.949 . S
C4832 C4836 1.368 . S
C4833 C4814 1.429 . S
C4833 C4827 1.429 . S
C4833 C4834 1.523 . S
C4834 C4815 1.368 . S
C4834 C4828 1.368 . S
C4834 C4833 1.523 . S
C4835 C4819 1.429 . S
C4835 C4831 1.429 . S
C4835 C4836 1.523 . S
C4836 C4820 1.368 . S
C4836 C4832 1.368 . S
C4836 C4835 1.523 . S
H4837 C4812 0.950 . S
H4838 C4814 0.950 . S
H4839 C4815 0.949 . S
H4840 C4817 0.950 . S
H4841 C4819 0.950 . S
C4842 C4843 1.349 . S
C4842 C4844 1.327 . S
C4842 H4867 0.950 . S
C4843 C4842 1.349 . S
C4843 C4859 1.349 . S
C4844 C4842 1.327 . S
C4844 C4863 1.429 . S
C4844 H4868 0.950 . S
C4845 C4862 1.574 . S
C4845 C4864 1.368 . S
C4845 H4869 0.949 . S
H4846 C4850 0.949 . S
C4847 C4848 1.349 . S
C4847 C4849 1.327 . S
C4847 H4870 0.950 . S
C4848 C4847 1.349 . S
C4848 C4860 1.349 . S
C4849 C4847 1.327 . S
C4849 C4865 1.429 . S
C4849 H4871 0.950 . S
C4850 H4846 0.949 . S
C4850 C4858 1.574 . S
C4850 C4866 1.368 . S
H4851 C4859 0.950 . S
H4852 C4857 0.950 . S
H4853 C4858 0.949 . S
H4854 C4860 0.950 . S
H4855 C4861 0.950 . S
H4856 C4862 0.949 . S
C4857 H4852 0.950 . S
C4857 C4859 1.327 . S
C4857 C4863 1.429 . S
C4858 C4850 1.574 . S
C4858 H4853 0.949 . S
C4858 C4864 1.368 . S
C4859 C4843 1.349 . S
C4859 H4851 0.950 . S
C4859 C4857 1.327 . S
C4860 C4848 1.349 . S
C4860 H4854 0.950 . S
C4860 C4861 1.327 . S
C4861 H4855 0.950 . S
C4861 C4860 1.327 . S
C4861 C4865 1.429 . S
C4862 C4845 1.574 . S
C4862 H4856 0.949 . S
C4862 C4866 1.368 . S
C4863 C4844 1.429 . S
C4863 C4857 1.429 . S
C4863 C4864 1.523 . S
C4864 C4845 1.368 . S
C4864 C4858 1.368 . S
C4864 C4863 1.523 . S
C4865 C4849 1.429 . S
C4865 C4861 1.429 . S
C4865 C4866 1.523 . S
C4866 C4850 1.368 . S
C4866 C4862 1.368 . S
C4866 C4865 1.523 . S
H4867 C4842 0.950 . S
H4868 C4844 0.950 . S
H4869 C4845 0.949 . S
H4870 C4847 0.950 . S
H4871 C4849 0.950 . S
C4872 C4873 1.349 . S
C4872 C4874 1.327 . S
C4872 H4897 0.950 . S
C4873 C4872 1.349 . S
C4873 C4889 1.349 . S
C4874 C4872 1.327 . S
C4874 C4893 1.429 . S
C4874 H4898 0.950 . S
C4875 C4892 1.574 . S
C4875 C4894 1.368 . S
C4875 H4899 0.949 . S
H4876 C4880 0.949 . S
C4877 C4878 1.349 . S
C4877 C4879 1.327 . S
C4877 H4900 0.950 . S
C4878 C4877 1.349 . S
C4878 C4890 1.349 . S
C4879 C4877 1.327 . S
C4879 C4895 1.429 . S
C4879 H4901 0.950 . S
C4880 H4876 0.949 . S
C4880 C4888 1.574 . S
C4880 C4896 1.368 . S
H4881 C4889 0.950 . S
H4882 C4887 0.950 . S
H4883 C4888 0.949 . S
H4884 C4890 0.950 . S
H4885 C4891 0.950 . S
H4886 C4892 0.949 . S
C4887 H4882 0.950 . S
C4887 C4889 1.327 . S
C4887 C4893 1.429 . S
C4888 C4880 1.574 . S
C4888 H4883 0.949 . S
C4888 C4894 1.368 . S
C4889 C4873 1.349 . S
C4889 H4881 0.950 . S
C4889 C4887 1.327 . S
C4890 C4878 1.349 . S
C4890 H4884 0.950 . S
C4890 C4891 1.327 . S
C4891 H4885 0.950 . S
C4891 C4890 1.327 . S
C4891 C4895 1.429 . S
C4892 C4875 1.574 . S
C4892 H4886 0.949 . S
C4892 C4896 1.368 . S
C4893 C4874 1.429 . S
C4893 C4887 1.429 . S
C4893 C4894 1.523 . S
C4894 C4875 1.368 . S
C4894 C4888 1.368 . S
C4894 C4893 1.523 . S
C4895 C4879 1.429 . S
C4895 C4891 1.429 . S
C4895 C4896 1.523 . S
C4896 C4880 1.368 . S
C4896 C4892 1.368 . S
C4896 C4895 1.523 . S
H4897 C4872 0.950 . S
H4898 C4874 0.950 . S
H4899 C4875 0.949 . S
H4900 C4877 0.950 . S
H4901 C4879 0.950 . S
C4902 C4903 1.349 . S
C4902 C4904 1.327 . S
C4902 H4927 0.950 . S
C4903 C4902 1.349 . S
C4903 C4919 1.349 . S
C4904 C4902 1.327 . S
C4904 C4923 1.429 . S
C4904 H4928 0.950 . S
C4905 C4922 1.574 . S
C4905 C4924 1.368 . S
C4905 H4929 0.949 . S
H4906 C4910 0.949 . S
C4907 C4908 1.349 . S
C4907 C4909 1.327 . S
C4907 H4930 0.950 . S
C4908 C4907 1.349 . S
C4908 C4920 1.349 . S
C4909 C4907 1.327 . S
C4909 C4925 1.429 . S
C4909 H4931 0.950 . S
C4910 H4906 0.949 . S
C4910 C4918 1.574 . S
C4910 C4926 1.368 . S
H4911 C4919 0.950 . S
H4912 C4917 0.950 . S
H4913 C4918 0.949 . S
H4914 C4920 0.950 . S
H4915 C4921 0.950 . S
H4916 C4922 0.949 . S
C4917 H4912 0.950 . S
C4917 C4919 1.327 . S
C4917 C4923 1.429 . S
C4918 C4910 1.574 . S
C4918 H4913 0.949 . S
C4918 C4924 1.368 . S
C4919 C4903 1.349 . S
C4919 H4911 0.950 . S
C4919 C4917 1.327 . S
C4920 C4908 1.349 . S
C4920 H4914 0.950 . S
C4920 C4921 1.327 . S
C4921 H4915 0.950 . S
C4921 C4920 1.327 . S
C4921 C4925 1.429 . S
C4922 C4905 1.574 . S
C4922 H4916 0.949 . S
C4922 C4926 1.368 . S
C4923 C4904 1.429 . S
C4923 C4917 1.429 . S
C4923 C4924 1.523 . S
C4924 C4905 1.368 . S
C4924 C4918 1.368 . S
C4924 C4923 1.523 . S
C4925 C4909 1.429 . S
C4925 C4921 1.429 . S
C4925 C4926 1.523 . S
C4926 C4910 1.368 . S
C4926 C4922 1.368 . S
C4926 C4925 1.523 . S
H4927 C4902 0.950 . S
H4928 C4904 0.950 . S
H4929 C4905 0.949 . S
H4930 C4907 0.950 . S
H4931 C4909 0.950 . S
C4932 C4933 1.349 . S
C4932 C4934 1.327 . S
C4932 H4957 0.950 . S
C4933 C4932 1.349 . S
C4933 C4949 1.349 . S
C4934 C4932 1.327 . S
C4934 C4953 1.429 . S
C4934 H4958 0.950 . S
C4935 C4952 1.574 . S
C4935 C4954 1.368 . S
C4935 H4959 0.949 . S
H4936 C4940 0.949 . S
C4937 C4938 1.349 . S
C4937 C4939 1.327 . S
C4937 H4960 0.950 . S
C4938 C4937 1.349 . S
C4938 C4950 1.349 . S
C4939 C4937 1.327 . S
C4939 C4955 1.429 . S
C4939 H4961 0.950 . S
C4940 H4936 0.949 . S
C4940 C4948 1.574 . S
C4940 C4956 1.368 . S
H4941 C4949 0.950 . S
H4942 C4947 0.950 . S
H4943 C4948 0.949 . S
H4944 C4950 0.950 . S
H4945 C4951 0.950 . S
H4946 C4952 0.949 . S
C4947 H4942 0.950 . S
C4947 C4949 1.327 . S
C4947 C4953 1.429 . S
C4948 C4940 1.574 . S
C4948 H4943 0.949 . S
C4948 C4954 1.368 . S
C4949 C4933 1.349 . S
C4949 H4941 0.950 . S
C4949 C4947 1.327 . S
C4950 C4938 1.349 . S
C4950 H4944 0.950 . S
C4950 C4951 1.327 . S
C4951 H4945 0.950 . S
C4951 C4950 1.327 . S
C4951 C4955 1.429 . S
C4952 C4935 1.574 . S
C4952 H4946 0.949 . S
C4952 C4956 1.368 . S
C4953 C4934 1.429 . S
C4953 C4947 1.429 . S
C4953 C4954 1.523 . S
C4954 C4935 1.368 . S
C4954 C4948 1.368 . S
C4954 C4953 1.523 . S
C4955 C4939 1.429 . S
C4955 C4951 1.429 . S
C4955 C4956 1.523 . S
C4956 C4940 1.368 . S
C4956 C4952 1.368 . S
C4956 C4955 1.523 . S
H4957 C4932 0.950 . S
H4958 C4934 0.950 . S
H4959 C4935 0.949 . S
H4960 C4937 0.950 . S
H4961 C4939 0.950 . S
C4962 C4963 1.349 . S
C4962 C4964 1.327 . S
C4962 H4987 0.950 . S
C4963 C4962 1.349 . S
C4963 C4979 1.349 . S
C4964 C4962 1.327 . S
C4964 C4983 1.429 . S
C4964 H4988 0.950 . S
C4965 C4982 1.574 . S
C4965 C4984 1.368 . S
C4965 H4989 0.949 . S
H4966 C4970 0.949 . S
C4967 C4968 1.349 . S
C4967 C4969 1.327 . S
C4967 H4990 0.950 . S
C4968 C4967 1.349 . S
C4968 C4980 1.349 . S
C4969 C4967 1.327 . S
C4969 C4985 1.429 . S
C4969 H4991 0.950 . S
C4970 H4966 0.949 . S
C4970 C4978 1.574 . S
C4970 C4986 1.368 . S
H4971 C4979 0.950 . S
H4972 C4977 0.950 . S
H4973 C4978 0.949 . S
H4974 C4980 0.950 . S
H4975 C4981 0.950 . S
H4976 C4982 0.949 . S
C4977 H4972 0.950 . S
C4977 C4979 1.327 . S
C4977 C4983 1.429 . S
C4978 C4970 1.574 . S
C4978 H4973 0.949 . S
C4978 C4984 1.368 . S
C4979 C4963 1.349 . S
C4979 H4971 0.950 . S
C4979 C4977 1.327 . S
C4980 C4968 1.349 . S
C4980 H4974 0.950 . S
C4980 C4981 1.327 . S
C4981 H4975 0.950 . S
C4981 C4980 1.327 . S
C4981 C4985 1.429 . S
C4982 C4965 1.574 . S
C4982 H4976 0.949 . S
C4982 C4986 1.368 . S
C4983 C4964 1.429 . S
C4983 C4977 1.429 . S
C4983 C4984 1.523 . S
C4984 C4965 1.368 . S
C4984 C4978 1.368 . S
C4984 C4983 1.523 . S
C4985 C4969 1.429 . S
C4985 C4981 1.429 . S
C4985 C4986 1.523 . S
C4986 C4970 1.368 . S
C4986 C4982 1.368 . S
C4986 C4985 1.523 . S
H4987 C4962 0.950 . S
H4988 C4964 0.950 . S
H4989 C4965 0.949 . S
H4990 C4967 0.950 . S
H4991 C4969 0.950 . S
C4992 C4993 1.349 . S
C4992 C4994 1.327 . S
C4992 H5017 0.950 . S
C4993 C4992 1.349 . S
C4993 C5009 1.349 . S
C4994 C4992 1.327 . S
C4994 C5013 1.429 . S
C4994 H5018 0.950 . S
C4995 C5012 1.574 . S
C4995 C5014 1.368 . S
C4995 H5019 0.949 . S
H4996 C5000 0.949 . S
C4997 C4998 1.349 . S
C4997 C4999 1.327 . S
C4997 H5020 0.950 . S
C4998 C4997 1.349 . S
C4998 C5010 1.349 . S
C4999 C4997 1.327 . S
C4999 C5015 1.429 . S
C4999 H5021 0.950 . S
C5000 H4996 0.949 . S
C5000 C5008 1.574 . S
C5000 C5016 1.368 . S
H5001 C5009 0.950 . S
H5002 C5007 0.950 . S
H5003 C5008 0.949 . S
H5004 C5010 0.950 . S
H5005 C5011 0.950 . S
H5006 C5012 0.949 . S
C5007 H5002 0.950 . S
C5007 C5009 1.327 . S
C5007 C5013 1.429 . S
C5008 C5000 1.574 . S
C5008 H5003 0.949 . S
C5008 C5014 1.368 . S
C5009 C4993 1.349 . S
C5009 H5001 0.950 . S
C5009 C5007 1.327 . S
C5010 C4998 1.349 . S
C5010 H5004 0.950 . S
C5010 C5011 1.327 . S
C5011 H5005 0.950 . S
C5011 C5010 1.327 . S
C5011 C5015 1.429 . S
C5012 C4995 1.574 . S
C5012 H5006 0.949 . S
C5012 C5016 1.368 . S
C5013 C4994 1.429 . S
C5013 C5007 1.429 . S
C5013 C5014 1.523 . S
C5014 C4995 1.368 . S
C5014 C5008 1.368 . S
C5014 C5013 1.523 . S
C5015 C4999 1.429 . S
C5015 C5011 1.429 . S
C5015 C5016 1.523 . S
C5016 C5000 1.368 . S
C5016 C5012 1.368 . S
C5016 C5015 1.523 . S
H5017 C4992 0.950 . S
H5018 C4994 0.950 . S
H5019 C4995 0.949 . S
H5020 C4997 0.950 . S
H5021 C4999 0.950 . S
C5022 C5023 1.349 . S
C5022 C5024 1.327 . S
C5022 H5047 0.950 . S
C5023 C5022 1.349 . S
C5023 C5039 1.349 . S
C5024 C5022 1.327 . S
C5024 C5043 1.429 . S
C5024 H5048 0.950 . S
C5025 C5042 1.574 . S
C5025 C5044 1.368 . S
C5025 H5049 0.949 . S
H5026 C5030 0.949 . S
C5027 C5028 1.349 . S
C5027 C5029 1.327 . S
C5027 H5050 0.950 . S
C5028 C5027 1.349 . S
C5028 C5040 1.349 . S
C5029 C5027 1.327 . S
C5029 C5045 1.429 . S
C5029 H5051 0.950 . S
C5030 H5026 0.949 . S
C5030 C5038 1.574 . S
C5030 C5046 1.368 . S
H5031 C5039 0.950 . S
H5032 C5037 0.950 . S
H5033 C5038 0.949 . S
H5034 C5040 0.950 . S
H5035 C5041 0.950 . S
H5036 C5042 0.949 . S
C5037 H5032 0.950 . S
C5037 C5039 1.327 . S
C5037 C5043 1.429 . S
C5038 C5030 1.574 . S
C5038 H5033 0.949 . S
C5038 C5044 1.368 . S
C5039 C5023 1.349 . S
C5039 H5031 0.950 . S
C5039 C5037 1.327 . S
C5040 C5028 1.349 . S
C5040 H5034 0.950 . S
C5040 C5041 1.327 . S
C5041 H5035 0.950 . S
C5041 C5040 1.327 . S
C5041 C5045 1.429 . S
C5042 C5025 1.574 . S
C5042 H5036 0.949 . S
C5042 C5046 1.368 . S
C5043 C5024 1.429 . S
C5043 C5037 1.429 . S
C5043 C5044 1.523 . S
C5044 C5025 1.368 . S
C5044 C5038 1.368 . S
C5044 C5043 1.523 . S
C5045 C5029 1.429 . S
C5045 C5041 1.429 . S
C5045 C5046 1.523 . S
C5046 C5030 1.368 . S
C5046 C5042 1.368 . S
C5046 C5045 1.523 . S
H5047 C5022 0.950 . S
H5048 C5024 0.950 . S
H5049 C5025 0.949 . S
H5050 C5027 0.950 . S
H5051 C5029 0.950 . S
C5052 C5053 1.349 . S
C5052 C5054 1.327 . S
C5052 H5077 0.950 . S
C5053 C5052 1.349 . S
C5053 C5069 1.349 . S
C5054 C5052 1.327 . S
C5054 C5073 1.429 . S
C5054 H5078 0.950 . S
C5055 C5072 1.574 . S
C5055 C5074 1.368 . S
C5055 H5079 0.949 . S
H5056 C5060 0.949 . S
C5057 C5058 1.349 . S
C5057 C5059 1.327 . S
C5057 H5080 0.950 . S
C5058 C5057 1.349 . S
C5058 C5070 1.349 . S
C5059 C5057 1.327 . S
C5059 C5075 1.429 . S
C5059 H5081 0.950 . S
C5060 H5056 0.949 . S
C5060 C5068 1.574 . S
C5060 C5076 1.368 . S
H5061 C5069 0.950 . S
H5062 C5067 0.950 . S
H5063 C5068 0.949 . S
H5064 C5070 0.950 . S
H5065 C5071 0.950 . S
H5066 C5072 0.949 . S
C5067 H5062 0.950 . S
C5067 C5069 1.327 . S
C5067 C5073 1.429 . S
C5068 C5060 1.574 . S
C5068 H5063 0.949 . S
C5068 C5074 1.368 . S
C5069 C5053 1.349 . S
C5069 H5061 0.950 . S
C5069 C5067 1.327 . S
C5070 C5058 1.349 . S
C5070 H5064 0.950 . S
C5070 C5071 1.327 . S
C5071 H5065 0.950 . S
C5071 C5070 1.327 . S
C5071 C5075 1.429 . S
C5072 C5055 1.574 . S
C5072 H5066 0.949 . S
C5072 C5076 1.368 . S
C5073 C5054 1.429 . S
C5073 C5067 1.429 . S
C5073 C5074 1.523 . S
C5074 C5055 1.368 . S
C5074 C5068 1.368 . S
C5074 C5073 1.523 . S
C5075 C5059 1.429 . S
C5075 C5071 1.429 . S
C5075 C5076 1.523 . S
C5076 C5060 1.368 . S
C5076 C5072 1.368 . S
C5076 C5075 1.523 . S
H5077 C5052 0.950 . S
H5078 C5054 0.950 . S
H5079 C5055 0.949 . S
H5080 C5057 0.950 . S
H5081 C5059 0.950 . S
C5082 C5083 1.349 . S
C5082 C5084 1.327 . S
C5082 H5107 0.950 . S
C5083 C5082 1.349 . S
C5083 C5099 1.349 . S
C5084 C5082 1.327 . S
C5084 C5103 1.429 . S
C5084 H5108 0.950 . S
C5085 C5102 1.574 . S
C5085 C5104 1.368 . S
C5085 H5109 0.949 . S
H5086 C5090 0.949 . S
C5087 C5088 1.349 . S
C5087 C5089 1.327 . S
C5087 H5110 0.950 . S
C5088 C5087 1.349 . S
C5088 C5100 1.349 . S
C5089 C5087 1.327 . S
C5089 C5105 1.429 . S
C5089 H5111 0.950 . S
C5090 H5086 0.949 . S
C5090 C5098 1.574 . S
C5090 C5106 1.368 . S
H5091 C5099 0.950 . S
H5092 C5097 0.950 . S
H5093 C5098 0.949 . S
H5094 C5100 0.950 . S
H5095 C5101 0.950 . S
H5096 C5102 0.949 . S
C5097 H5092 0.950 . S
C5097 C5099 1.327 . S
C5097 C5103 1.429 . S
C5098 C5090 1.574 . S
C5098 H5093 0.949 . S
C5098 C5104 1.368 . S
C5099 C5083 1.349 . S
C5099 H5091 0.950 . S
C5099 C5097 1.327 . S
C5100 C5088 1.349 . S
C5100 H5094 0.950 . S
C5100 C5101 1.327 . S
C5101 H5095 0.950 . S
C5101 C5100 1.327 . S
C5101 C5105 1.429 . S
C5102 C5085 1.574 . S
C5102 H5096 0.949 . S
C5102 C5106 1.368 . S
C5103 C5084 1.429 . S
C5103 C5097 1.429 . S
C5103 C5104 1.523 . S
C5104 C5085 1.368 . S
C5104 C5098 1.368 . S
C5104 C5103 1.523 . S
C5105 C5089 1.429 . S
C5105 C5101 1.429 . S
C5105 C5106 1.523 . S
C5106 C5090 1.368 . S
C5106 C5102 1.368 . S
C5106 C5105 1.523 . S
H5107 C5082 0.950 . S
H5108 C5084 0.950 . S
H5109 C5085 0.949 . S
H5110 C5087 0.950 . S
H5111 C5089 0.950 . S
C5112 C5113 1.349 . S
C5112 C5114 1.327 . S
C5112 H5137 0.950 . S
C5113 C5112 1.349 . S
C5113 C5129 1.349 . S
C5114 C5112 1.327 . S
C5114 C5133 1.429 . S
C5114 H5138 0.950 . S
C5115 C5132 1.574 . S
C5115 C5134 1.368 . S
C5115 H5139 0.949 . S
H5116 C5120 0.949 . S
C5117 C5118 1.349 . S
C5117 C5119 1.327 . S
C5117 H5140 0.950 . S
C5118 C5117 1.349 . S
C5118 C5130 1.349 . S
C5119 C5117 1.327 . S
C5119 C5135 1.429 . S
C5119 H5141 0.950 . S
C5120 H5116 0.949 . S
C5120 C5128 1.574 . S
C5120 C5136 1.368 . S
H5121 C5129 0.950 . S
H5122 C5127 0.950 . S
H5123 C5128 0.949 . S
H5124 C5130 0.950 . S
H5125 C5131 0.950 . S
H5126 C5132 0.949 . S
C5127 H5122 0.950 . S
C5127 C5129 1.327 . S
C5127 C5133 1.429 . S
C5128 C5120 1.574 . S
C5128 H5123 0.949 . S
C5128 C5134 1.368 . S
C5129 C5113 1.349 . S
C5129 H5121 0.950 . S
C5129 C5127 1.327 . S
C5130 C5118 1.349 . S
C5130 H5124 0.950 . S
C5130 C5131 1.327 . S
C5131 H5125 0.950 . S
C5131 C5130 1.327 . S
C5131 C5135 1.429 . S
C5132 C5115 1.574 . S
C5132 H5126 0.949 . S
C5132 C5136 1.368 . S
C5133 C5114 1.429 . S
C5133 C5127 1.429 . S
C5133 C5134 1.523 . S
C5134 C5115 1.368 . S
C5134 C5128 1.368 . S
C5134 C5133 1.523 . S
C5135 C5119 1.429 . S
C5135 C5131 1.429 . S
C5135 C5136 1.523 . S
C5136 C5120 1.368 . S
C5136 C5132 1.368 . S
C5136 C5135 1.523 . S
H5137 C5112 0.950 . S
H5138 C5114 0.950 . S
H5139 C5115 0.949 . S
H5140 C5117 0.950 . S
H5141 C5119 0.950 . S
C5142 C5143 1.349 . S
C5142 C5144 1.327 . S
C5142 H5167 0.950 . S
C5143 C5142 1.349 . S
C5143 C5159 1.349 . S
C5144 C5142 1.327 . S
C5144 C5163 1.429 . S
C5144 H5168 0.950 . S
C5145 C5162 1.574 . S
C5145 C5164 1.368 . S
C5145 H5169 0.949 . S
H5146 C5150 0.949 . S
C5147 C5148 1.349 . S
C5147 C5149 1.327 . S
C5147 H5170 0.950 . S
C5148 C5147 1.349 . S
C5148 C5160 1.349 . S
C5149 C5147 1.327 . S
C5149 C5165 1.429 . S
C5149 H5171 0.950 . S
C5150 H5146 0.949 . S
C5150 C5158 1.574 . S
C5150 C5166 1.368 . S
H5151 C5159 0.950 . S
H5152 C5157 0.950 . S
H5153 C5158 0.949 . S
H5154 C5160 0.950 . S
H5155 C5161 0.950 . S
H5156 C5162 0.949 . S
C5157 H5152 0.950 . S
C5157 C5159 1.327 . S
C5157 C5163 1.429 . S
C5158 C5150 1.574 . S
C5158 H5153 0.949 . S
C5158 C5164 1.368 . S
C5159 C5143 1.349 . S
C5159 H5151 0.950 . S
C5159 C5157 1.327 . S
C5160 C5148 1.349 . S
C5160 H5154 0.950 . S
C5160 C5161 1.327 . S
C5161 H5155 0.950 . S
C5161 C5160 1.327 . S
C5161 C5165 1.429 . S
C5162 C5145 1.574 . S
C5162 H5156 0.949 . S
C5162 C5166 1.368 . S
C5163 C5144 1.429 . S
C5163 C5157 1.429 . S
C5163 C5164 1.523 . S
C5164 C5145 1.368 . S
C5164 C5158 1.368 . S
C5164 C5163 1.523 . S
C5165 C5149 1.429 . S
C5165 C5161 1.429 . S
C5165 C5166 1.523 . S
C5166 C5150 1.368 . S
C5166 C5162 1.368 . S
C5166 C5165 1.523 . S
H5167 C5142 0.950 . S
H5168 C5144 0.950 . S
H5169 C5145 0.949 . S
H5170 C5147 0.950 . S
H5171 C5149 0.950 . S
C5172 C5173 1.349 . S
C5172 C5174 1.327 . S
C5172 H5197 0.950 . S
C5173 C5172 1.349 . S
C5173 C5189 1.349 . S
C5174 C5172 1.327 . S
C5174 C5193 1.429 . S
C5174 H5198 0.950 . S
C5175 C5192 1.574 . S
C5175 C5194 1.368 . S
C5175 H5199 0.949 . S
H5176 C5180 0.949 . S
C5177 C5178 1.349 . S
C5177 C5179 1.327 . S
C5177 H5200 0.950 . S
C5178 C5177 1.349 . S
C5178 C5190 1.349 . S
C5179 C5177 1.327 . S
C5179 C5195 1.429 . S
C5179 H5201 0.950 . S
C5180 H5176 0.949 . S
C5180 C5188 1.574 . S
C5180 C5196 1.368 . S
H5181 C5189 0.950 . S
H5182 C5187 0.950 . S
H5183 C5188 0.949 . S
H5184 C5190 0.950 . S
H5185 C5191 0.950 . S
H5186 C5192 0.949 . S
C5187 H5182 0.950 . S
C5187 C5189 1.327 . S
C5187 C5193 1.429 . S
C5188 C5180 1.574 . S
C5188 H5183 0.949 . S
C5188 C5194 1.368 . S
C5189 C5173 1.349 . S
C5189 H5181 0.950 . S
C5189 C5187 1.327 . S
C5190 C5178 1.349 . S
C5190 H5184 0.950 . S
C5190 C5191 1.327 . S
C5191 H5185 0.950 . S
C5191 C5190 1.327 . S
C5191 C5195 1.429 . S
C5192 C5175 1.574 . S
C5192 H5186 0.949 . S
C5192 C5196 1.368 . S
C5193 C5174 1.429 . S
C5193 C5187 1.429 . S
C5193 C5194 1.523 . S
C5194 C5175 1.368 . S
C5194 C5188 1.368 . S
C5194 C5193 1.523 . S
C5195 C5179 1.429 . S
C5195 C5191 1.429 . S
C5195 C5196 1.523 . S
C5196 C5180 1.368 . S
C5196 C5192 1.368 . S
C5196 C5195 1.523 . S
H5197 C5172 0.950 . S
H5198 C5174 0.950 . S
H5199 C5175 0.949 . S
H5200 C5177 0.950 . S
H5201 C5179 0.950 . S
C5202 C5203 1.349 . S
C5202 C5204 1.327 . S
C5202 H5227 0.950 . S
C5203 C5202 1.349 . S
C5203 C5219 1.349 . S
C5204 C5202 1.327 . S
C5204 C5223 1.429 . S
C5204 H5228 0.950 . S
C5205 C5222 1.574 . S
C5205 C5224 1.368 . S
C5205 H5229 0.949 . S
H5206 C5210 0.949 . S
C5207 C5208 1.349 . S
C5207 C5209 1.327 . S
C5207 H5230 0.950 . S
C5208 C5207 1.349 . S
C5208 C5220 1.349 . S
C5209 C5207 1.327 . S
C5209 C5225 1.429 . S
C5209 H5231 0.950 . S
C5210 H5206 0.949 . S
C5210 C5218 1.574 . S
C5210 C5226 1.368 . S
H5211 C5219 0.950 . S
H5212 C5217 0.950 . S
H5213 C5218 0.949 . S
H5214 C5220 0.950 . S
H5215 C5221 0.950 . S
H5216 C5222 0.949 . S
C5217 H5212 0.950 . S
C5217 C5219 1.327 . S
C5217 C5223 1.429 . S
C5218 C5210 1.574 . S
C5218 H5213 0.949 . S
C5218 C5224 1.368 . S
C5219 C5203 1.349 . S
C5219 H5211 0.950 . S
C5219 C5217 1.327 . S
C5220 C5208 1.349 . S
C5220 H5214 0.950 . S
C5220 C5221 1.327 . S
C5221 H5215 0.950 . S
C5221 C5220 1.327 . S
C5221 C5225 1.429 . S
C5222 C5205 1.574 . S
C5222 H5216 0.949 . S
C5222 C5226 1.368 . S
C5223 C5204 1.429 . S
C5223 C5217 1.429 . S
C5223 C5224 1.523 . S
C5224 C5205 1.368 . S
C5224 C5218 1.368 . S
C5224 C5223 1.523 . S
C5225 C5209 1.429 . S
C5225 C5221 1.429 . S
C5225 C5226 1.523 . S
C5226 C5210 1.368 . S
C5226 C5222 1.368 . S
C5226 C5225 1.523 . S
H5227 C5202 0.950 . S
H5228 C5204 0.950 . S
H5229 C5205 0.949 . S
H5230 C5207 0.950 . S
H5231 C5209 0.950 . S
C5232 C5233 1.349 . S
C5232 C5234 1.327 . S
C5232 H5257 0.950 . S
C5233 C5232 1.349 . S
C5233 C5249 1.349 . S
C5234 C5232 1.327 . S
C5234 C5253 1.429 . S
C5234 H5258 0.950 . S
C5235 C5252 1.574 . S
C5235 C5254 1.368 . S
C5235 H5259 0.949 . S
H5236 C5240 0.949 . S
C5237 C5238 1.349 . S
C5237 C5239 1.327 . S
C5237 H5260 0.950 . S
C5238 C5237 1.349 . S
C5238 C5250 1.349 . S
C5239 C5237 1.327 . S
C5239 C5255 1.429 . S
C5239 H5261 0.950 . S
C5240 H5236 0.949 . S
C5240 C5248 1.574 . S
C5240 C5256 1.368 . S
H5241 C5249 0.950 . S
H5242 C5247 0.950 . S
H5243 C5248 0.949 . S
H5244 C5250 0.950 . S
H5245 C5251 0.950 . S
H5246 C5252 0.949 . S
C5247 H5242 0.950 . S
C5247 C5249 1.327 . S
C5247 C5253 1.429 . S
C5248 C5240 1.574 . S
C5248 H5243 0.949 . S
C5248 C5254 1.368 . S
C5249 C5233 1.349 . S
C5249 H5241 0.950 . S
C5249 C5247 1.327 . S
C5250 C5238 1.349 . S
C5250 H5244 0.950 . S
C5250 C5251 1.327 . S
C5251 H5245 0.950 . S
C5251 C5250 1.327 . S
C5251 C5255 1.429 . S
C5252 C5235 1.574 . S
C5252 H5246 0.949 . S
C5252 C5256 1.368 . S
C5253 C5234 1.429 . S
C5253 C5247 1.429 . S
C5253 C5254 1.523 . S
C5254 C5235 1.368 . S
C5254 C5248 1.368 . S
C5254 C5253 1.523 . S
C5255 C5239 1.429 . S
C5255 C5251 1.429 . S
C5255 C5256 1.523 . S
C5256 C5240 1.368 . S
C5256 C5252 1.368 . S
C5256 C5255 1.523 . S
H5257 C5232 0.950 . S
H5258 C5234 0.950 . S
H5259 C5235 0.949 . S
H5260 C5237 0.950 . S
H5261 C5239 0.950 . S
C5262 C5263 1.349 . S
C5262 C5264 1.327 . S
C5262 H5287 0.950 . S
C5263 C5262 1.349 . S
C5263 C5279 1.349 . S
C5264 C5262 1.327 . S
C5264 C5283 1.429 . S
C5264 H5288 0.950 . S
C5265 C5282 1.574 . S
C5265 C5284 1.368 . S
C5265 H5289 0.949 . S
H5266 C5270 0.949 . S
C5267 C5268 1.349 . S
C5267 C5269 1.327 . S
C5267 H5290 0.950 . S
C5268 C5267 1.349 . S
C5268 C5280 1.349 . S
C5269 C5267 1.327 . S
C5269 C5285 1.429 . S
C5269 H5291 0.950 . S
C5270 H5266 0.949 . S
C5270 C5278 1.574 . S
C5270 C5286 1.368 . S
H5271 C5279 0.950 . S
H5272 C5277 0.950 . S
H5273 C5278 0.949 . S
H5274 C5280 0.950 . S
H5275 C5281 0.950 . S
H5276 C5282 0.949 . S
C5277 H5272 0.950 . S
C5277 C5279 1.327 . S
C5277 C5283 1.429 . S
C5278 C5270 1.574 . S
C5278 H5273 0.949 . S
C5278 C5284 1.368 . S
C5279 C5263 1.349 . S
C5279 H5271 0.950 . S
C5279 C5277 1.327 . S
C5280 C5268 1.349 . S
C5280 H5274 0.950 . S
C5280 C5281 1.327 . S
C5281 H5275 0.950 . S
C5281 C5280 1.327 . S
C5281 C5285 1.429 . S
C5282 C5265 1.574 . S
C5282 H5276 0.949 . S
C5282 C5286 1.368 . S
C5283 C5264 1.429 . S
C5283 C5277 1.429 . S
C5283 C5284 1.523 . S
C5284 C5265 1.368 . S
C5284 C5278 1.368 . S
C5284 C5283 1.523 . S
C5285 C5269 1.429 . S
C5285 C5281 1.429 . S
C5285 C5286 1.523 . S
C5286 C5270 1.368 . S
C5286 C5282 1.368 . S
C5286 C5285 1.523 . S
H5287 C5262 0.950 . S
H5288 C5264 0.950 . S
H5289 C5265 0.949 . S
H5290 C5267 0.950 . S
H5291 C5269 0.950 . S
C5292 C5293 1.349 . S
C5292 C5294 1.327 . S
C5292 H5317 0.950 . S
C5293 C5292 1.349 . S
C5293 C5309 1.349 . S
C5294 C5292 1.327 . S
C5294 C5313 1.429 . S
C5294 H5318 0.950 . S
C5295 C5312 1.574 . S
C5295 C5314 1.368 . S
C5295 H5319 0.949 . S
H5296 C5300 0.949 . S
C5297 C5298 1.349 . S
C5297 C5299 1.327 . S
C5297 H5320 0.950 . S
C5298 C5297 1.349 . S
C5298 C5310 1.349 . S
C5299 C5297 1.327 . S
C5299 C5315 1.429 . S
C5299 H5321 0.950 . S
C5300 H5296 0.949 . S
C5300 C5308 1.574 . S
C5300 C5316 1.368 . S
H5301 C5309 0.950 . S
H5302 C5307 0.950 . S
H5303 C5308 0.949 . S
H5304 C5310 0.950 . S
H5305 C5311 0.950 . S
H5306 C5312 0.949 . S
C5307 H5302 0.950 . S
C5307 C5309 1.327 . S
C5307 C5313 1.429 . S
C5308 C5300 1.574 . S
C5308 H5303 0.949 . S
C5308 C5314 1.368 . S
C5309 C5293 1.349 . S
C5309 H5301 0.950 . S
C5309 C5307 1.327 . S
C5310 C5298 1.349 . S
C5310 H5304 0.950 . S
C5310 C5311 1.327 . S
C5311 H5305 0.950 . S
C5311 C5310 1.327 . S
C5311 C5315 1.429 . S
C5312 C5295 1.574 . S
C5312 H5306 0.949 . S
C5312 C5316 1.368 . S
C5313 C5294 1.429 . S
C5313 C5307 1.429 . S
C5313 C5314 1.523 . S
C5314 C5295 1.368 . S
C5314 C5308 1.368 . S
C5314 C5313 1.523 . S
C5315 C5299 1.429 . S
C5315 C5311 1.429 . S
C5315 C5316 1.523 . S
C5316 C5300 1.368 . S
C5316 C5312 1.368 . S
C5316 C5315 1.523 . S
H5317 C5292 0.950 . S
H5318 C5294 0.950 . S
H5319 C5295 0.949 . S
H5320 C5297 0.950 . S
H5321 C5299 0.950 . S
C5322 C5323 1.349 . S
C5322 C5324 1.327 . S
C5322 H5347 0.950 . S
C5323 C5322 1.349 . S
C5323 C5339 1.349 . S
C5324 C5322 1.327 . S
C5324 C5343 1.429 . S
C5324 H5348 0.950 . S
C5325 C5342 1.574 . S
C5325 C5344 1.368 . S
C5325 H5349 0.949 . S
H5326 C5330 0.949 . S
C5327 C5328 1.349 . S
C5327 C5329 1.327 . S
C5327 H5350 0.950 . S
C5328 C5327 1.349 . S
C5328 C5340 1.349 . S
C5329 C5327 1.327 . S
C5329 C5345 1.429 . S
C5329 H5351 0.950 . S
C5330 H5326 0.949 . S
C5330 C5338 1.574 . S
C5330 C5346 1.368 . S
H5331 C5339 0.950 . S
H5332 C5337 0.950 . S
H5333 C5338 0.949 . S
H5334 C5340 0.950 . S
H5335 C5341 0.950 . S
H5336 C5342 0.949 . S
C5337 H5332 0.950 . S
C5337 C5339 1.327 . S
C5337 C5343 1.429 . S
C5338 C5330 1.574 . S
C5338 H5333 0.949 . S
C5338 C5344 1.368 . S
C5339 C5323 1.349 . S
C5339 H5331 0.950 . S
C5339 C5337 1.327 . S
C5340 C5328 1.349 . S
C5340 H5334 0.950 . S
C5340 C5341 1.327 . S
C5341 H5335 0.950 . S
C5341 C5340 1.327 . S
C5341 C5345 1.429 . S
C5342 C5325 1.574 . S
C5342 H5336 0.949 . S
C5342 C5346 1.368 . S
C5343 C5324 1.429 . S
C5343 C5337 1.429 . S
C5343 C5344 1.523 . S
C5344 C5325 1.368 . S
C5344 C5338 1.368 . S
C5344 C5343 1.523 . S
C5345 C5329 1.429 . S
C5345 C5341 1.429 . S
C5345 C5346 1.523 . S
C5346 C5330 1.368 . S
C5346 C5342 1.368 . S
C5346 C5345 1.523 . S
H5347 C5322 0.950 . S
H5348 C5324 0.950 . S
H5349 C5325 0.949 . S
H5350 C5327 0.950 . S
H5351 C5329 0.950 . S
C5352 C5353 1.349 . S
C5352 C5354 1.327 . S
C5352 H5377 0.950 . S
C5353 C5352 1.349 . S
C5353 C5369 1.349 . S
C5354 C5352 1.327 . S
C5354 C5373 1.429 . S
C5354 H5378 0.950 . S
C5355 C5372 1.574 . S
C5355 C5374 1.368 . S
C5355 H5379 0.949 . S
H5356 C5360 0.949 . S
C5357 C5358 1.349 . S
C5357 C5359 1.327 . S
C5357 H5380 0.950 . S
C5358 C5357 1.349 . S
C5358 C5370 1.349 . S
C5359 C5357 1.327 . S
C5359 C5375 1.429 . S
C5359 H5381 0.950 . S
C5360 H5356 0.949 . S
C5360 C5368 1.574 . S
C5360 C5376 1.368 . S
H5361 C5369 0.950 1_455 S
H5362 C5367 0.950 . S
H5363 C5368 0.949 . S
H5364 C5370 0.950 . S
H5365 C5371 0.950 . S
H5366 C5372 0.949 . S
C5367 H5362 0.950 . S
C5367 C5369 1.327 . S
C5367 C5373 1.429 . S
C5368 C5360 1.574 . S
C5368 H5363 0.949 . S
C5368 C5374 1.368 . S
C5369 C5353 1.349 . S
C5369 H5361 0.950 1_655 S
C5369 C5367 1.327 . S
C5370 C5358 1.349 . S
C5370 H5364 0.950 . S
C5370 C5371 1.327 . S
C5371 H5365 0.950 . S
C5371 C5370 1.327 . S
C5371 C5375 1.429 . S
C5372 C5355 1.574 . S
C5372 H5366 0.949 . S
C5372 C5376 1.368 . S
C5373 C5354 1.429 . S
C5373 C5367 1.429 . S
C5373 C5374 1.523 . S
C5374 C5355 1.368 . S
C5374 C5368 1.368 . S
C5374 C5373 1.523 . S
C5375 C5359 1.429 . S
C5375 C5371 1.429 . S
C5375 C5376 1.523 . S
C5376 C5360 1.368 . S
C5376 C5372 1.368 . S
C5376 C5375 1.523 . S
H5377 C5352 0.950 . S
H5378 C5354 0.950 . S
H5379 C5355 0.949 . S
H5380 C5357 0.950 . S
H5381 C5359 0.950 . S
C5382 C5383 1.349 . S
C5382 C5384 1.327 . S
C5382 H5407 0.950 . S
C5383 C5382 1.349 . S
C5383 C5399 1.349 . S
C5384 C5382 1.327 . S
C5384 C5403 1.429 . S
C5384 H5408 0.950 . S
C5385 C5402 1.574 . S
C5385 C5404 1.368 . S
C5385 H5409 0.949 . S
H5386 C5390 0.949 . S
C5387 C5388 1.349 . S
C5387 C5389 1.327 . S
C5387 H5410 0.950 . S
C5388 C5387 1.349 . S
C5388 C5400 1.349 . S
C5389 C5387 1.327 . S
C5389 C5405 1.429 . S
C5389 H5411 0.950 . S
C5390 H5386 0.949 . S
C5390 C5398 1.574 . S
C5390 C5406 1.368 . S
H5391 C5399 0.950 . S
H5392 C5397 0.950 . S
H5393 C5398 0.949 . S
H5394 C5400 0.950 . S
H5395 C5401 0.950 . S
H5396 C5402 0.949 . S
C5397 H5392 0.950 . S
C5397 C5399 1.327 . S
C5397 C5403 1.429 . S
C5398 C5390 1.574 . S
C5398 H5393 0.949 . S
C5398 C5404 1.368 . S
C5399 C5383 1.349 . S
C5399 H5391 0.950 . S
C5399 C5397 1.327 . S
C5400 C5388 1.349 . S
C5400 H5394 0.950 . S
C5400 C5401 1.327 . S
C5401 H5395 0.950 . S
C5401 C5400 1.327 . S
C5401 C5405 1.429 . S
C5402 C5385 1.574 . S
C5402 H5396 0.949 . S
C5402 C5406 1.368 . S
C5403 C5384 1.429 . S
C5403 C5397 1.429 . S
C5403 C5404 1.523 . S
C5404 C5385 1.368 . S
C5404 C5398 1.368 . S
C5404 C5403 1.523 . S
C5405 C5389 1.429 . S
C5405 C5401 1.429 . S
C5405 C5406 1.523 . S
C5406 C5390 1.368 . S
C5406 C5402 1.368 . S
C5406 C5405 1.523 . S
H5407 C5382 0.950 . S
H5408 C5384 0.950 . S
H5409 C5385 0.949 . S
H5410 C5387 0.950 . S
H5411 C5389 0.950 . S
C5412 C5413 1.349 . S
C5412 C5414 1.327 . S
C5412 H5437 0.950 . S
C5413 C5412 1.349 . S
C5413 C5429 1.349 . S
C5414 C5412 1.327 . S
C5414 C5433 1.429 . S
C5414 H5438 0.950 . S
C5415 C5432 1.574 . S
C5415 C5434 1.368 . S
C5415 H5439 0.949 . S
H5416 C5420 0.949 . S
C5417 C5418 1.349 . S
C5417 C5419 1.327 . S
C5417 H5440 0.950 . S
C5418 C5417 1.349 . S
C5418 C5430 1.349 . S
C5419 C5417 1.327 . S
C5419 C5435 1.429 . S
C5419 H5441 0.950 . S
C5420 H5416 0.949 . S
C5420 C5428 1.574 . S
C5420 C5436 1.368 . S
H5421 C5429 0.950 . S
H5422 C5427 0.950 . S
H5423 C5428 0.949 . S
H5424 C5430 0.950 . S
H5425 C5431 0.950 . S
H5426 C5432 0.949 . S
C5427 H5422 0.950 . S
C5427 C5429 1.327 . S
C5427 C5433 1.429 . S
C5428 C5420 1.574 . S
C5428 H5423 0.949 . S
C5428 C5434 1.368 . S
C5429 C5413 1.349 . S
C5429 H5421 0.950 . S
C5429 C5427 1.327 . S
C5430 C5418 1.349 . S
C5430 H5424 0.950 . S
C5430 C5431 1.327 . S
C5431 H5425 0.950 . S
C5431 C5430 1.327 . S
C5431 C5435 1.429 . S
C5432 C5415 1.574 . S
C5432 H5426 0.949 . S
C5432 C5436 1.368 . S
C5433 C5414 1.429 . S
C5433 C5427 1.429 . S
C5433 C5434 1.523 . S
C5434 C5415 1.368 . S
C5434 C5428 1.368 . S
C5434 C5433 1.523 . S
C5435 C5419 1.429 . S
C5435 C5431 1.429 . S
C5435 C5436 1.523 . S
C5436 C5420 1.368 . S
C5436 C5432 1.368 . S
C5436 C5435 1.523 . S
H5437 C5412 0.950 . S
H5438 C5414 0.950 . S
H5439 C5415 0.949 . S
H5440 C5417 0.950 . S
H5441 C5419 0.950 . S
C5442 C5443 1.349 . S
C5442 C5444 1.327 . S
C5442 H5467 0.950 . S
C5443 C5442 1.349 . S
C5443 C5459 1.349 . S
C5444 C5442 1.327 . S
C5444 C5463 1.429 . S
C5444 H5468 0.950 . S
C5445 C5462 1.574 . S
C5445 C5464 1.368 . S
C5445 H5469 0.949 . S
H5446 C5450 0.949 . S
C5447 C5448 1.349 . S
C5447 C5449 1.327 . S
C5447 H5470 0.950 . S
C5448 C5447 1.349 . S
C5448 C5460 1.349 . S
C5449 C5447 1.327 . S
C5449 C5465 1.429 . S
C5449 H5471 0.950 . S
C5450 H5446 0.949 . S
C5450 C5458 1.574 . S
C5450 C5466 1.368 . S
H5451 C5459 0.950 . S
H5452 C5457 0.950 . S
H5453 C5458 0.949 . S
H5454 C5460 0.950 . S
H5455 C5461 0.950 . S
H5456 C5462 0.949 . S
C5457 H5452 0.950 . S
C5457 C5459 1.327 . S
C5457 C5463 1.429 . S
C5458 C5450 1.574 . S
C5458 H5453 0.949 . S
C5458 C5464 1.368 . S
C5459 C5443 1.349 . S
C5459 H5451 0.950 . S
C5459 C5457 1.327 . S
C5460 C5448 1.349 . S
C5460 H5454 0.950 . S
C5460 C5461 1.327 . S
C5461 H5455 0.950 . S
C5461 C5460 1.327 . S
C5461 C5465 1.429 . S
C5462 C5445 1.574 . S
C5462 H5456 0.949 . S
C5462 C5466 1.368 . S
C5463 C5444 1.429 . S
C5463 C5457 1.429 . S
C5463 C5464 1.523 . S
C5464 C5445 1.368 . S
C5464 C5458 1.368 . S
C5464 C5463 1.523 . S
C5465 C5449 1.429 . S
C5465 C5461 1.429 . S
C5465 C5466 1.523 . S
C5466 C5450 1.368 . S
C5466 C5462 1.368 . S
C5466 C5465 1.523 . S
H5467 C5442 0.950 . S
H5468 C5444 0.950 . S
H5469 C5445 0.949 . S
H5470 C5447 0.950 . S
H5471 C5449 0.950 . S
C5472 C5473 1.349 . S
C5472 C5474 1.327 . S
C5472 H5497 0.950 . S
C5473 C5472 1.349 . S
C5473 C5489 1.349 . S
C5474 C5472 1.327 . S
C5474 C5493 1.429 . S
C5474 H5498 0.950 . S
C5475 C5492 1.574 . S
C5475 C5494 1.368 . S
C5475 H5499 0.949 . S
H5476 C5480 0.949 . S
C5477 C5478 1.349 . S
C5477 C5479 1.327 . S
C5477 H5500 0.950 . S
C5478 C5477 1.349 . S
C5478 C5490 1.349 . S
C5479 C5477 1.327 . S
C5479 C5495 1.429 . S
C5479 H5501 0.950 . S
C5480 H5476 0.949 . S
C5480 C5488 1.574 . S
C5480 C5496 1.368 . S
H5481 C5489 0.950 . S
H5482 C5487 0.950 . S
H5483 C5488 0.949 . S
H5484 C5490 0.950 . S
H5485 C5491 0.950 . S
H5486 C5492 0.949 . S
C5487 H5482 0.950 . S
C5487 C5489 1.327 . S
C5487 C5493 1.429 . S
C5488 C5480 1.574 . S
C5488 H5483 0.949 . S
C5488 C5494 1.368 . S
C5489 C5473 1.349 . S
C5489 H5481 0.950 . S
C5489 C5487 1.327 . S
C5490 C5478 1.349 . S
C5490 H5484 0.950 . S
C5490 C5491 1.327 . S
C5491 H5485 0.950 . S
C5491 C5490 1.327 . S
C5491 C5495 1.429 . S
C5492 C5475 1.574 . S
C5492 H5486 0.949 . S
C5492 C5496 1.368 . S
C5493 C5474 1.429 . S
C5493 C5487 1.429 . S
C5493 C5494 1.523 . S
C5494 C5475 1.368 . S
C5494 C5488 1.368 . S
C5494 C5493 1.523 . S
C5495 C5479 1.429 . S
C5495 C5491 1.429 . S
C5495 C5496 1.523 . S
C5496 C5480 1.368 . S
C5496 C5492 1.368 . S
C5496 C5495 1.523 . S
H5497 C5472 0.950 . S
H5498 C5474 0.950 . S
H5499 C5475 0.949 . S
H5500 C5477 0.950 . S
H5501 C5479 0.950 . S
C5502 C5503 1.349 . S
C5502 C5504 1.327 . S
C5502 H5527 0.950 . S
C5503 C5502 1.349 . S
C5503 C5519 1.349 . S
C5504 C5502 1.327 . S
C5504 C5523 1.429 . S
C5504 H5528 0.950 . S
C5505 C5522 1.574 . S
C5505 C5524 1.368 . S
C5505 H5529 0.949 . S
H5506 C5510 0.949 . S
C5507 C5508 1.349 . S
C5507 C5509 1.327 . S
C5507 H5530 0.950 . S
C5508 C5507 1.349 . S
C5508 C5520 1.349 . S
C5509 C5507 1.327 . S
C5509 C5525 1.429 . S
C5509 H5531 0.950 . S
C5510 H5506 0.949 . S
C5510 C5518 1.574 . S
C5510 C5526 1.368 . S
H5511 C5519 0.950 . S
H5512 C5517 0.950 . S
H5513 C5518 0.949 . S
H5514 C5520 0.950 . S
H5515 C5521 0.950 . S
H5516 C5522 0.949 . S
C5517 H5512 0.950 . S
C5517 C5519 1.327 . S
C5517 C5523 1.429 . S
C5518 C5510 1.574 . S
C5518 H5513 0.949 . S
C5518 C5524 1.368 . S
C5519 C5503 1.349 . S
C5519 H5511 0.950 . S
C5519 C5517 1.327 . S
C5520 C5508 1.349 . S
C5520 H5514 0.950 . S
C5520 C5521 1.327 . S
C5521 H5515 0.950 . S
C5521 C5520 1.327 . S
C5521 C5525 1.429 . S
C5522 C5505 1.574 . S
C5522 H5516 0.949 . S
C5522 C5526 1.368 . S
C5523 C5504 1.429 . S
C5523 C5517 1.429 . S
C5523 C5524 1.523 . S
C5524 C5505 1.368 . S
C5524 C5518 1.368 . S
C5524 C5523 1.523 . S
C5525 C5509 1.429 . S
C5525 C5521 1.429 . S
C5525 C5526 1.523 . S
C5526 C5510 1.368 . S
C5526 C5522 1.368 . S
C5526 C5525 1.523 . S
H5527 C5502 0.950 . S
H5528 C5504 0.950 . S
H5529 C5505 0.949 . S
H5530 C5507 0.950 . S
H5531 C5509 0.950 . S
C5532 C5533 1.349 . S
C5532 C5534 1.327 . S
C5532 H5557 0.950 . S
C5533 C5532 1.349 . S
C5533 C5549 1.349 . S
C5534 C5532 1.327 . S
C5534 C5553 1.429 . S
C5534 H5558 0.950 . S
C5535 C5552 1.574 . S
C5535 C5554 1.368 . S
C5535 H5559 0.949 . S
H5536 C5540 0.949 . S
C5537 C5538 1.349 . S
C5537 C5539 1.327 . S
C5537 H5560 0.950 . S
C5538 C5537 1.349 . S
C5538 C5550 1.349 . S
C5539 C5537 1.327 . S
C5539 C5555 1.429 . S
C5539 H5561 0.950 . S
C5540 H5536 0.949 . S
C5540 C5548 1.574 . S
C5540 C5556 1.368 . S
H5541 C5549 0.950 . S
H5542 C5547 0.950 . S
H5543 C5548 0.949 . S
H5544 C5550 0.950 . S
H5545 C5551 0.950 . S
H5546 C5552 0.949 . S
C5547 H5542 0.950 . S
C5547 C5549 1.327 . S
C5547 C5553 1.429 . S
C5548 C5540 1.574 . S
C5548 H5543 0.949 . S
C5548 C5554 1.368 . S
C5549 C5533 1.349 . S
C5549 H5541 0.950 . S
C5549 C5547 1.327 . S
C5550 C5538 1.349 . S
C5550 H5544 0.950 . S
C5550 C5551 1.327 . S
C5551 H5545 0.950 . S
C5551 C5550 1.327 . S
C5551 C5555 1.429 . S
C5552 C5535 1.574 . S
C5552 H5546 0.949 . S
C5552 C5556 1.368 . S
C5553 C5534 1.429 . S
C5553 C5547 1.429 . S
C5553 C5554 1.523 . S
C5554 C5535 1.368 . S
C5554 C5548 1.368 . S
C5554 C5553 1.523 . S
C5555 C5539 1.429 . S
C5555 C5551 1.429 . S
C5555 C5556 1.523 . S
C5556 C5540 1.368 . S
C5556 C5552 1.368 . S
C5556 C5555 1.523 . S
H5557 C5532 0.950 . S
H5558 C5534 0.950 . S
H5559 C5535 0.949 . S
H5560 C5537 0.950 . S
H5561 C5539 0.950 . S
C5562 C5563 1.349 . S
C5562 C5564 1.327 . S
C5562 H5587 0.950 . S
C5563 C5562 1.349 . S
C5563 C5579 1.349 . S
C5564 C5562 1.327 . S
C5564 C5583 1.429 . S
C5564 H5588 0.950 . S
C5565 C5582 1.574 . S
C5565 C5584 1.368 . S
C5565 H5589 0.949 . S
H5566 C5570 0.949 . S
C5567 C5568 1.349 . S
C5567 C5569 1.327 . S
C5567 H5590 0.950 . S
C5568 C5567 1.349 . S
C5568 C5580 1.349 . S
C5569 C5567 1.327 . S
C5569 C5585 1.429 . S
C5569 H5591 0.950 . S
C5570 H5566 0.949 . S
C5570 C5578 1.574 . S
C5570 C5586 1.368 . S
H5571 C5579 0.950 . S
H5572 C5577 0.950 . S
H5573 C5578 0.949 . S
H5574 C5580 0.950 . S
H5575 C5581 0.950 . S
H5576 C5582 0.949 . S
C5577 H5572 0.950 . S
C5577 C5579 1.327 . S
C5577 C5583 1.429 . S
C5578 C5570 1.574 . S
C5578 H5573 0.949 . S
C5578 C5584 1.368 . S
C5579 C5563 1.349 . S
C5579 H5571 0.950 . S
C5579 C5577 1.327 . S
C5580 C5568 1.349 . S
C5580 H5574 0.950 . S
C5580 C5581 1.327 . S
C5581 H5575 0.950 . S
C5581 C5580 1.327 . S
C5581 C5585 1.429 . S
C5582 C5565 1.574 . S
C5582 H5576 0.949 . S
C5582 C5586 1.368 . S
C5583 C5564 1.429 . S
C5583 C5577 1.429 . S
C5583 C5584 1.523 . S
C5584 C5565 1.368 . S
C5584 C5578 1.368 . S
C5584 C5583 1.523 . S
C5585 C5569 1.429 . S
C5585 C5581 1.429 . S
C5585 C5586 1.523 . S
C5586 C5570 1.368 . S
C5586 C5582 1.368 . S
C5586 C5585 1.523 . S
H5587 C5562 0.950 . S
H5588 C5564 0.950 . S
H5589 C5565 0.949 . S
H5590 C5567 0.950 . S
H5591 C5569 0.950 . S
C5592 C5593 1.349 . S
C5592 C5594 1.327 . S
C5592 H5617 0.950 . S
C5593 C5592 1.349 . S
C5593 C5609 1.349 . S
C5594 C5592 1.327 . S
C5594 C5613 1.429 . S
C5594 H5618 0.950 . S
C5595 C5612 1.574 . S
C5595 C5614 1.368 . S
C5595 H5619 0.949 . S
H5596 C5600 0.949 . S
C5597 C5598 1.349 . S
C5597 C5599 1.327 . S
C5597 H5620 0.950 . S
C5598 C5597 1.349 . S
C5598 C5610 1.349 . S
C5599 C5597 1.327 . S
C5599 C5615 1.429 . S
C5599 H5621 0.950 . S
C5600 H5596 0.949 . S
C5600 C5608 1.574 . S
C5600 C5616 1.368 . S
H5601 C5609 0.950 . S
H5602 C5607 0.950 . S
H5603 C5608 0.949 . S
H5604 C5610 0.950 . S
H5605 C5611 0.950 . S
H5606 C5612 0.949 . S
C5607 H5602 0.950 . S
C5607 C5609 1.327 . S
C5607 C5613 1.429 . S
C5608 C5600 1.574 . S
C5608 H5603 0.949 . S
C5608 C5614 1.368 . S
C5609 C5593 1.349 . S
C5609 H5601 0.950 . S
C5609 C5607 1.327 . S
C5610 C5598 1.349 . S
C5610 H5604 0.950 . S
C5610 C5611 1.327 . S
C5611 H5605 0.950 . S
C5611 C5610 1.327 . S
C5611 C5615 1.429 . S
C5612 C5595 1.574 . S
C5612 H5606 0.949 . S
C5612 C5616 1.368 . S
C5613 C5594 1.429 . S
C5613 C5607 1.429 . S
C5613 C5614 1.523 . S
C5614 C5595 1.368 . S
C5614 C5608 1.368 . S
C5614 C5613 1.523 . S
C5615 C5599 1.429 . S
C5615 C5611 1.429 . S
C5615 C5616 1.523 . S
C5616 C5600 1.368 . S
C5616 C5612 1.368 . S
C5616 C5615 1.523 . S
H5617 C5592 0.950 . S
H5618 C5594 0.950 . S
H5619 C5595 0.949 . S
H5620 C5597 0.950 . S
H5621 C5599 0.950 . S
C5622 C5623 1.349 . S
C5622 C5624 1.327 . S
C5622 H5647 0.950 . S
C5623 C5622 1.349 . S
C5623 C5639 1.349 . S
C5624 C5622 1.327 . S
C5624 C5643 1.429 . S
C5624 H5648 0.950 . S
C5625 C5642 1.574 . S
C5625 C5644 1.368 . S
C5625 H5649 0.949 . S
H5626 C5630 0.949 . S
C5627 C5628 1.349 . S
C5627 C5629 1.327 . S
C5627 H5650 0.950 . S
C5628 C5627 1.349 . S
C5628 C5640 1.349 . S
C5629 C5627 1.327 . S
C5629 C5645 1.429 . S
C5629 H5651 0.950 . S
C5630 H5626 0.949 . S
C5630 C5638 1.574 . S
C5630 C5646 1.368 . S
H5631 C5639 0.950 . S
H5632 C5637 0.950 . S
H5633 C5638 0.949 . S
H5634 C5640 0.950 . S
H5635 C5641 0.950 . S
H5636 C5642 0.949 . S
C5637 H5632 0.950 . S
C5637 C5639 1.327 . S
C5637 C5643 1.429 . S
C5638 C5630 1.574 . S
C5638 H5633 0.949 . S
C5638 C5644 1.368 . S
C5639 C5623 1.349 . S
C5639 H5631 0.950 . S
C5639 C5637 1.327 . S
C5640 C5628 1.349 . S
C5640 H5634 0.950 . S
C5640 C5641 1.327 . S
C5641 H5635 0.950 . S
C5641 C5640 1.327 . S
C5641 C5645 1.429 . S
C5642 C5625 1.574 . S
C5642 H5636 0.949 . S
C5642 C5646 1.368 . S
C5643 C5624 1.429 . S
C5643 C5637 1.429 . S
C5643 C5644 1.523 . S
C5644 C5625 1.368 . S
C5644 C5638 1.368 . S
C5644 C5643 1.523 . S
C5645 C5629 1.429 . S
C5645 C5641 1.429 . S
C5645 C5646 1.523 . S
C5646 C5630 1.368 . S
C5646 C5642 1.368 . S
C5646 C5645 1.523 . S
H5647 C5622 0.950 . S
H5648 C5624 0.950 . S
H5649 C5625 0.949 . S
H5650 C5627 0.950 . S
H5651 C5629 0.950 . S
C5652 C5653 1.349 . S
C5652 C5654 1.327 . S
C5652 H5677 0.950 . S
C5653 C5652 1.349 . S
C5653 C5669 1.349 . S
C5654 C5652 1.327 . S
C5654 C5673 1.429 . S
C5654 H5678 0.950 . S
C5655 C5672 1.574 . S
C5655 C5674 1.368 . S
C5655 H5679 0.949 . S
H5656 C5660 0.949 . S
C5657 C5658 1.349 . S
C5657 C5659 1.327 . S
C5657 H5680 0.950 . S
C5658 C5657 1.349 . S
C5658 C5670 1.349 . S
C5659 C5657 1.327 . S
C5659 C5675 1.429 . S
C5659 H5681 0.950 . S
C5660 H5656 0.949 . S
C5660 C5668 1.574 . S
C5660 C5676 1.368 . S
H5661 C5669 0.950 . S
H5662 C5667 0.950 . S
H5663 C5668 0.949 . S
H5664 C5670 0.950 . S
H5665 C5671 0.950 . S
H5666 C5672 0.949 . S
C5667 H5662 0.950 . S
C5667 C5669 1.327 . S
C5667 C5673 1.429 . S
C5668 C5660 1.574 . S
C5668 H5663 0.949 . S
C5668 C5674 1.368 . S
C5669 C5653 1.349 . S
C5669 H5661 0.950 . S
C5669 C5667 1.327 . S
C5670 C5658 1.349 . S
C5670 H5664 0.950 . S
C5670 C5671 1.327 . S
C5671 H5665 0.950 . S
C5671 C5670 1.327 . S
C5671 C5675 1.429 . S
C5672 C5655 1.574 . S
C5672 H5666 0.949 . S
C5672 C5676 1.368 . S
C5673 C5654 1.429 . S
C5673 C5667 1.429 . S
C5673 C5674 1.523 . S
C5674 C5655 1.368 . S
C5674 C5668 1.368 . S
C5674 C5673 1.523 . S
C5675 C5659 1.429 . S
C5675 C5671 1.429 . S
C5675 C5676 1.523 . S
C5676 C5660 1.368 . S
C5676 C5672 1.368 . S
C5676 C5675 1.523 . S
H5677 C5652 0.950 . S
H5678 C5654 0.950 . S
H5679 C5655 0.949 . S
H5680 C5657 0.950 . S
H5681 C5659 0.950 . S
C5682 C5683 1.349 . S
C5682 C5684 1.327 . S
C5682 H5707 0.950 . S
C5683 C5682 1.349 . S
C5683 C5699 1.349 . S
C5684 C5682 1.327 . S
C5684 C5703 1.429 . S
C5684 H5708 0.950 . S
C5685 C5702 1.574 . S
C5685 C5704 1.368 . S
C5685 H5709 0.949 . S
H5686 C5690 0.949 . S
C5687 C5688 1.349 . S
C5687 C5689 1.327 . S
C5687 H5710 0.950 . S
C5688 C5687 1.349 . S
C5688 C5700 1.349 . S
C5689 C5687 1.327 . S
C5689 C5705 1.429 . S
C5689 H5711 0.950 . S
C5690 H5686 0.949 . S
C5690 C5698 1.574 . S
C5690 C5706 1.368 . S
H5691 C5699 0.950 . S
H5692 C5697 0.950 . S
H5693 C5698 0.949 . S
H5694 C5700 0.950 . S
H5695 C5701 0.950 . S
H5696 C5702 0.949 . S
C5697 H5692 0.950 . S
C5697 C5699 1.327 . S
C5697 C5703 1.429 . S
C5698 C5690 1.574 . S
C5698 H5693 0.949 . S
C5698 C5704 1.368 . S
C5699 C5683 1.349 . S
C5699 H5691 0.950 . S
C5699 C5697 1.327 . S
C5700 C5688 1.349 . S
C5700 H5694 0.950 . S
C5700 C5701 1.327 . S
C5701 H5695 0.950 . S
C5701 C5700 1.327 . S
C5701 C5705 1.429 . S
C5702 C5685 1.574 . S
C5702 H5696 0.949 . S
C5702 C5706 1.368 . S
C5703 C5684 1.429 . S
C5703 C5697 1.429 . S
C5703 C5704 1.523 . S
C5704 C5685 1.368 . S
C5704 C5698 1.368 . S
C5704 C5703 1.523 . S
C5705 C5689 1.429 . S
C5705 C5701 1.429 . S
C5705 C5706 1.523 . S
C5706 C5690 1.368 . S
C5706 C5702 1.368 . S
C5706 C5705 1.523 . S
H5707 C5682 0.950 . S
H5708 C5684 0.950 . S
H5709 C5685 0.949 . S
H5710 C5687 0.950 . S
H5711 C5689 0.950 . S
C5712 C5713 1.349 . S
C5712 C5714 1.327 . S
C5712 H5737 0.950 . S
C5713 C5712 1.349 . S
C5713 C5729 1.349 . S
C5714 C5712 1.327 . S
C5714 C5733 1.429 . S
C5714 H5738 0.950 . S
C5715 C5732 1.574 . S
C5715 C5734 1.368 . S
C5715 H5739 0.949 . S
H5716 C5720 0.949 . S
C5717 C5718 1.349 . S
C5717 C5719 1.327 . S
C5717 H5740 0.950 . S
C5718 C5717 1.349 . S
C5718 C5730 1.349 . S
C5719 C5717 1.327 . S
C5719 C5735 1.429 . S
C5719 H5741 0.950 . S
C5720 H5716 0.949 . S
C5720 C5728 1.574 . S
C5720 C5736 1.368 . S
H5721 C5729 0.950 . S
H5722 C5727 0.950 . S
H5723 C5728 0.949 . S
H5724 C5730 0.950 . S
H5725 C5731 0.950 . S
H5726 C5732 0.949 . S
C5727 H5722 0.950 . S
C5727 C5729 1.327 . S
C5727 C5733 1.429 . S
C5728 C5720 1.574 . S
C5728 H5723 0.949 . S
C5728 C5734 1.368 . S
C5729 C5713 1.349 . S
C5729 H5721 0.950 . S
C5729 C5727 1.327 . S
C5730 C5718 1.349 . S
C5730 H5724 0.950 . S
C5730 C5731 1.327 . S
C5731 H5725 0.950 . S
C5731 C5730 1.327 . S
C5731 C5735 1.429 . S
C5732 C5715 1.574 . S
C5732 H5726 0.949 . S
C5732 C5736 1.368 . S
C5733 C5714 1.429 . S
C5733 C5727 1.429 . S
C5733 C5734 1.523 . S
C5734 C5715 1.368 . S
C5734 C5728 1.368 . S
C5734 C5733 1.523 . S
C5735 C5719 1.429 . S
C5735 C5731 1.429 . S
C5735 C5736 1.523 . S
C5736 C5720 1.368 . S
C5736 C5732 1.368 . S
C5736 C5735 1.523 . S
H5737 C5712 0.950 . S
H5738 C5714 0.950 . S
H5739 C5715 0.949 . S
H5740 C5717 0.950 . S
H5741 C5719 0.950 . S
C5742 C5743 1.349 . S
C5742 C5744 1.327 . S
C5742 H5767 0.950 . S
C5743 C5742 1.349 . S
C5743 C5759 1.349 . S
C5744 C5742 1.327 . S
C5744 C5763 1.429 . S
C5744 H5768 0.950 . S
C5745 C5762 1.574 . S
C5745 C5764 1.368 . S
C5745 H5769 0.949 . S
H5746 C5750 0.949 . S
C5747 C5748 1.349 . S
C5747 C5749 1.327 . S
C5747 H5770 0.950 . S
C5748 C5747 1.349 . S
C5748 C5760 1.349 . S
C5749 C5747 1.327 . S
C5749 C5765 1.429 . S
C5749 H5771 0.950 . S
C5750 H5746 0.949 . S
C5750 C5758 1.574 . S
C5750 C5766 1.368 . S
H5751 C5759 0.950 . S
H5752 C5757 0.950 . S
H5753 C5758 0.949 . S
H5754 C5760 0.950 . S
H5755 C5761 0.950 . S
H5756 C5762 0.949 . S
C5757 H5752 0.950 . S
C5757 C5759 1.327 . S
C5757 C5763 1.429 . S
C5758 C5750 1.574 . S
C5758 H5753 0.949 . S
C5758 C5764 1.368 . S
C5759 C5743 1.349 . S
C5759 H5751 0.950 . S
C5759 C5757 1.327 . S
C5760 C5748 1.349 . S
C5760 H5754 0.950 . S
C5760 C5761 1.327 . S
C5761 H5755 0.950 . S
C5761 C5760 1.327 . S
C5761 C5765 1.429 . S
C5762 C5745 1.574 . S
C5762 H5756 0.949 . S
C5762 C5766 1.368 . S
C5763 C5744 1.429 . S
C5763 C5757 1.429 . S
C5763 C5764 1.523 . S
C5764 C5745 1.368 . S
C5764 C5758 1.368 . S
C5764 C5763 1.523 . S
C5765 C5749 1.429 . S
C5765 C5761 1.429 . S
C5765 C5766 1.523 . S
C5766 C5750 1.368 . S
C5766 C5762 1.368 . S
C5766 C5765 1.523 . S
H5767 C5742 0.950 . S
H5768 C5744 0.950 . S
H5769 C5745 0.949 . S
H5770 C5747 0.950 . S
H5771 C5749 0.950 . S
C5772 C5773 1.349 . S
C5772 C5774 1.327 . S
C5772 H5797 0.950 . S
C5773 C5772 1.349 . S
C5773 C5789 1.349 . S
C5774 C5772 1.327 . S
C5774 C5793 1.429 . S
C5774 H5798 0.950 . S
C5775 C5792 1.574 . S
C5775 C5794 1.368 . S
C5775 H5799 0.949 . S
H5776 C5780 0.949 . S
C5777 C5778 1.349 . S
C5777 C5779 1.327 . S
C5777 H5800 0.950 . S
C5778 C5777 1.349 . S
C5778 C5790 1.349 . S
C5779 C5777 1.327 . S
C5779 C5795 1.429 . S
C5779 H5801 0.950 . S
C5780 H5776 0.949 . S
C5780 C5788 1.574 . S
C5780 C5796 1.368 . S
H5781 C5789 0.950 . S
H5782 C5787 0.950 . S
H5783 C5788 0.949 . S
H5784 C5790 0.950 . S
H5785 C5791 0.950 . S
H5786 C5792 0.949 . S
C5787 H5782 0.950 . S
C5787 C5789 1.327 . S
C5787 C5793 1.429 . S
C5788 C5780 1.574 . S
C5788 H5783 0.949 . S
C5788 C5794 1.368 . S
C5789 C5773 1.349 . S
C5789 H5781 0.950 . S
C5789 C5787 1.327 . S
C5790 C5778 1.349 . S
C5790 H5784 0.950 . S
C5790 C5791 1.327 . S
C5791 H5785 0.950 . S
C5791 C5790 1.327 . S
C5791 C5795 1.429 . S
C5792 C5775 1.574 . S
C5792 H5786 0.949 . S
C5792 C5796 1.368 . S
C5793 C5774 1.429 . S
C5793 C5787 1.429 . S
C5793 C5794 1.523 . S
C5794 C5775 1.368 . S
C5794 C5788 1.368 . S
C5794 C5793 1.523 . S
C5795 C5779 1.429 . S
C5795 C5791 1.429 . S
C5795 C5796 1.523 . S
C5796 C5780 1.368 . S
C5796 C5792 1.368 . S
C5796 C5795 1.523 . S
H5797 C5772 0.950 . S
H5798 C5774 0.950 . S
H5799 C5775 0.949 . S
H5800 C5777 0.950 . S
H5801 C5779 0.950 . S
C5802 C5803 1.349 . S
C5802 C5804 1.327 . S
C5802 H5827 0.950 . S
C5803 C5802 1.349 . S
C5803 C5819 1.349 . S
C5804 C5802 1.327 . S
C5804 C5823 1.429 . S
C5804 H5828 0.950 . S
C5805 C5822 1.574 . S
C5805 C5824 1.368 . S
C5805 H5829 0.949 . S
H5806 C5810 0.949 . S
C5807 C5808 1.349 . S
C5807 C5809 1.327 . S
C5807 H5830 0.950 . S
C5808 C5807 1.349 . S
C5808 C5820 1.349 . S
C5809 C5807 1.327 . S
C5809 C5825 1.429 . S
C5809 H5831 0.950 . S
C5810 H5806 0.949 . S
C5810 C5818 1.574 . S
C5810 C5826 1.368 . S
H5811 C5819 0.950 . S
H5812 C5817 0.950 . S
H5813 C5818 0.949 . S
H5814 C5820 0.950 . S
H5815 C5821 0.950 . S
H5816 C5822 0.949 . S
C5817 H5812 0.950 . S
C5817 C5819 1.327 . S
C5817 C5823 1.429 . S
C5818 C5810 1.574 . S
C5818 H5813 0.949 . S
C5818 C5824 1.368 . S
C5819 C5803 1.349 . S
C5819 H5811 0.950 . S
C5819 C5817 1.327 . S
C5820 C5808 1.349 . S
C5820 H5814 0.950 . S
C5820 C5821 1.327 . S
C5821 H5815 0.950 . S
C5821 C5820 1.327 . S
C5821 C5825 1.429 . S
C5822 C5805 1.574 . S
C5822 H5816 0.949 . S
C5822 C5826 1.368 . S
C5823 C5804 1.429 . S
C5823 C5817 1.429 . S
C5823 C5824 1.523 . S
C5824 C5805 1.368 . S
C5824 C5818 1.368 . S
C5824 C5823 1.523 . S
C5825 C5809 1.429 . S
C5825 C5821 1.429 . S
C5825 C5826 1.523 . S
C5826 C5810 1.368 . S
C5826 C5822 1.368 . S
C5826 C5825 1.523 . S
H5827 C5802 0.950 . S
H5828 C5804 0.950 . S
H5829 C5805 0.949 . S
H5830 C5807 0.950 . S
H5831 C5809 0.950 . S
C5832 C5833 1.349 1_556 S
C5832 C5834 1.327 . S
C5832 H5857 0.957 . S
C5833 C5832 1.349 1_554 S
C5833 C5849 1.349 . S
C5834 C5832 1.327 . S
C5834 C5853 1.429 . S
C5834 H5858 0.950 . S
C5835 C5852 1.574 . S
C5835 C5854 1.368 . S
C5835 H5859 0.949 . S
H5836 C5840 0.949 . S
C5837 C5838 1.349 . S
C5837 C5839 1.327 . S
C5837 H5860 0.950 . S
C5838 C5837 1.349 . S
C5838 C5850 1.349 . S
C5839 C5837 1.327 . S
C5839 C5855 1.429 . S
C5839 H5861 0.950 . S
C5840 H5836 0.949 . S
C5840 C5848 1.574 . S
C5840 C5856 1.368 . S
H5841 C5849 0.950 . S
H5842 C5847 0.950 . S
H5843 C5848 0.949 . S
H5844 C5850 0.950 . S
H5845 C5851 0.950 . S
H5846 C5852 0.949 . S
C5847 H5842 0.950 . S
C5847 C5849 1.327 1_556 S
C5847 C5853 1.429 . S
C5848 C5840 1.574 . S
C5848 H5843 0.949 . S
C5848 C5854 1.368 . S
C5849 C5833 1.349 . S
C5849 H5841 0.950 . S
C5849 C5847 1.327 1_554 S
C5850 C5838 1.349 . S
C5850 H5844 0.950 . S
C5850 C5851 1.327 . S
C5851 H5845 0.950 . S
C5851 C5850 1.327 . S
C5851 C5855 1.429 . S
C5852 C5835 1.574 . S
C5852 H5846 0.949 . S
C5852 C5856 1.368 . S
C5853 C5834 1.429 . S
C5853 C5847 1.429 . S
C5853 C5854 1.523 . S
C5854 C5835 1.368 . S
C5854 C5848 1.368 . S
C5854 C5853 1.523 . S
C5855 C5839 1.429 . S
C5855 C5851 1.429 . S
C5855 C5856 1.523 . S
C5856 C5840 1.368 . S
C5856 C5852 1.368 . S
C5856 C5855 1.523 . S
H5857 C5832 0.957 . S
H5858 C5834 0.950 . S
H5859 C5835 0.949 . S
H5860 C5837 0.950 . S
H5861 C5839 0.950 . S
C5862 C5863 1.349 . S
C5862 C5864 1.327 . S
C5862 H5887 0.950 . S
C5863 C5862 1.349 . S
C5863 C5879 1.349 . S
C5864 C5862 1.327 . S
C5864 C5883 1.429 . S
C5864 H5888 0.950 . S
C5865 C5882 1.574 . S
C5865 C5884 1.368 . S
C5865 H5889 0.949 . S
H5866 C5870 0.949 . S
C5867 C5868 1.349 . S
C5867 C5869 1.327 . S
C5867 H5890 0.950 . S
C5868 C5867 1.349 . S
C5868 C5880 1.349 . S
C5869 C5867 1.327 . S
C5869 C5885 1.429 . S
C5869 H5891 0.950 . S
C5870 H5866 0.949 . S
C5870 C5878 1.574 . S
C5870 C5886 1.368 . S
H5871 C5879 0.950 . S
H5872 C5877 0.950 . S
H5873 C5878 0.949 . S
H5874 C5880 0.950 . S
H5875 C5881 0.950 . S
H5876 C5882 0.949 . S
C5877 H5872 0.950 . S
C5877 C5879 1.327 . S
C5877 C5883 1.429 . S
C5878 C5870 1.574 . S
C5878 H5873 0.949 . S
C5878 C5884 1.368 . S
C5879 C5863 1.349 . S
C5879 H5871 0.950 . S
C5879 C5877 1.327 . S
C5880 C5868 1.349 . S
C5880 H5874 0.950 . S
C5880 C5881 1.327 . S
C5881 H5875 0.950 . S
C5881 C5880 1.327 . S
C5881 C5885 1.429 . S
C5882 C5865 1.574 . S
C5882 H5876 0.949 . S
C5882 C5886 1.368 . S
C5883 C5864 1.429 . S
C5883 C5877 1.429 . S
C5883 C5884 1.523 . S
C5884 C5865 1.368 . S
C5884 C5878 1.368 . S
C5884 C5883 1.523 . S
C5885 C5869 1.429 . S
C5885 C5881 1.429 . S
C5885 C5886 1.523 . S
C5886 C5870 1.368 . S
C5886 C5882 1.368 . S
C5886 C5885 1.523 . S
H5887 C5862 0.950 . S
H5888 C5864 0.950 . S
H5889 C5865 0.949 . S
H5890 C5867 0.950 . S
H5891 C5869 0.950 . S
C5892 C5893 1.349 . S
C5892 C5894 1.327 . S
C5892 H5917 0.950 . S
C5893 C5892 1.349 . S
C5893 C5909 1.349 . S
C5894 C5892 1.327 . S
C5894 C5913 1.429 . S
C5894 H5918 0.950 . S
C5895 C5912 1.574 . S
C5895 C5914 1.368 . S
C5895 H5919 0.949 . S
H5896 C5900 0.949 . S
C5897 C5898 1.349 . S
C5897 C5899 1.327 . S
C5897 H5920 0.950 . S
C5898 C5897 1.349 . S
C5898 C5910 1.349 . S
C5899 C5897 1.327 . S
C5899 C5915 1.429 . S
C5899 H5921 0.950 . S
C5900 H5896 0.949 . S
C5900 C5908 1.574 . S
C5900 C5916 1.368 . S
H5901 C5909 0.950 . S
H5902 C5907 0.950 . S
H5903 C5908 0.949 . S
H5904 C5910 0.950 . S
H5905 C5911 0.950 . S
H5906 C5912 0.949 . S
C5907 H5902 0.950 . S
C5907 C5909 1.327 . S
C5907 C5913 1.429 . S
C5908 C5900 1.574 . S
C5908 H5903 0.949 . S
C5908 C5914 1.368 . S
C5909 C5893 1.349 . S
C5909 H5901 0.950 . S
C5909 C5907 1.327 . S
C5910 C5898 1.349 . S
C5910 H5904 0.950 . S
C5910 C5911 1.327 . S
C5911 H5905 0.950 . S
C5911 C5910 1.327 . S
C5911 C5915 1.429 . S
C5912 C5895 1.574 . S
C5912 H5906 0.949 . S
C5912 C5916 1.368 . S
C5913 C5894 1.429 . S
C5913 C5907 1.429 . S
C5913 C5914 1.523 . S
C5914 C5895 1.368 . S
C5914 C5908 1.368 . S
C5914 C5913 1.523 . S
C5915 C5899 1.429 . S
C5915 C5911 1.429 . S
C5915 C5916 1.523 . S
C5916 C5900 1.368 . S
C5916 C5912 1.368 . S
C5916 C5915 1.523 . S
H5917 C5892 0.950 . S
H5918 C5894 0.950 . S
H5919 C5895 0.949 . S
H5920 C5897 0.950 . S
H5921 C5899 0.950 . S
C5922 C5923 1.349 . S
C5922 C5924 1.327 . S
C5922 H5947 0.950 . S
C5923 C5922 1.349 . S
C5923 C5939 1.349 . S
C5924 C5922 1.327 . S
C5924 C5943 1.429 . S
C5924 H5948 0.950 . S
C5925 C5942 1.574 . S
C5925 C5944 1.368 . S
C5925 H5949 0.949 . S
H5926 C5930 0.949 . S
C5927 C5928 1.349 . S
C5927 C5929 1.327 . S
C5927 H5950 0.950 . S
C5928 C5927 1.349 . S
C5928 C5940 1.349 . S
C5929 C5927 1.327 . S
C5929 C5945 1.429 . S
C5929 H5951 0.950 . S
C5930 H5926 0.949 . S
C5930 C5938 1.574 . S
C5930 C5946 1.368 . S
H5931 C5939 0.950 . S
H5932 C5937 0.950 . S
H5933 C5938 0.949 . S
H5934 C5940 0.950 . S
H5935 C5941 0.950 . S
H5936 C5942 0.949 . S
C5937 H5932 0.950 . S
C5937 C5939 1.327 . S
C5937 C5943 1.429 . S
C5938 C5930 1.574 . S
C5938 H5933 0.949 . S
C5938 C5944 1.368 . S
C5939 C5923 1.349 . S
C5939 H5931 0.950 . S
C5939 C5937 1.327 . S
C5940 C5928 1.349 . S
C5940 H5934 0.950 . S
C5940 C5941 1.327 . S
C5941 H5935 0.950 . S
C5941 C5940 1.327 . S
C5941 C5945 1.429 . S
C5942 C5925 1.574 . S
C5942 H5936 0.949 . S
C5942 C5946 1.368 . S
C5943 C5924 1.429 . S
C5943 C5937 1.429 . S
C5943 C5944 1.523 . S
C5944 C5925 1.368 . S
C5944 C5938 1.368 . S
C5944 C5943 1.523 . S
C5945 C5929 1.429 . S
C5945 C5941 1.429 . S
C5945 C5946 1.523 . S
C5946 C5930 1.368 . S
C5946 C5942 1.368 . S
C5946 C5945 1.523 . S
H5947 C5922 0.950 . S
H5948 C5924 0.950 . S
H5949 C5925 0.949 . S
H5950 C5927 0.950 . S
H5951 C5929 0.950 . S
C5952 C5953 1.349 . S
C5952 C5954 1.327 . S
C5952 H5977 0.950 . S
C5953 C5952 1.349 . S
C5953 C5969 1.349 . S
C5954 C5952 1.327 . S
C5954 C5973 1.429 . S
C5954 H5978 0.950 . S
C5955 C5972 1.574 . S
C5955 C5974 1.368 . S
C5955 H5979 0.949 . S
H5956 C5960 0.949 . S
C5957 C5958 1.349 . S
C5957 C5959 1.327 . S
C5957 H5980 0.950 . S
C5958 C5957 1.349 . S
C5958 C5970 1.349 . S
C5959 C5957 1.327 . S
C5959 C5975 1.429 . S
C5959 H5981 0.950 . S
C5960 H5956 0.949 . S
C5960 C5968 1.574 . S
C5960 C5976 1.368 . S
H5961 C5969 0.950 . S
H5962 C5967 0.950 . S
H5963 C5968 0.949 . S
H5964 C5970 0.950 . S
H5965 C5971 0.950 . S
H5966 C5972 0.949 . S
C5967 H5962 0.950 . S
C5967 C5969 1.327 . S
C5967 C5973 1.429 . S
C5968 C5960 1.574 . S
C5968 H5963 0.949 . S
C5968 C5974 1.368 . S
C5969 C5953 1.349 . S
C5969 H5961 0.950 . S
C5969 C5967 1.327 . S
C5970 C5958 1.349 . S
C5970 H5964 0.950 . S
C5970 C5971 1.327 . S
C5971 H5965 0.950 . S
C5971 C5970 1.327 . S
C5971 C5975 1.429 . S
C5972 C5955 1.574 . S
C5972 H5966 0.949 . S
C5972 C5976 1.368 . S
C5973 C5954 1.429 . S
C5973 C5967 1.429 . S
C5973 C5974 1.523 . S
C5974 C5955 1.368 . S
C5974 C5968 1.368 . S
C5974 C5973 1.523 . S
C5975 C5959 1.429 . S
C5975 C5971 1.429 . S
C5975 C5976 1.523 . S
C5976 C5960 1.368 . S
C5976 C5972 1.368 . S
C5976 C5975 1.523 . S
H5977 C5952 0.950 . S
H5978 C5954 0.950 . S
H5979 C5955 0.949 . S
H5980 C5957 0.950 . S
H5981 C5959 0.950 . S
C5982 C5983 1.349 . S
C5982 C5984 1.327 . S
C5982 H6007 0.950 . S
C5983 C5982 1.349 . S
C5983 C5999 1.349 . S
C5984 C5982 1.327 . S
C5984 C6003 1.429 . S
C5984 H6008 0.950 . S
C5985 C6002 1.574 . S
C5985 C6004 1.368 . S
C5985 H6009 0.949 . S
H5986 C5990 0.949 . S
C5987 C5988 1.349 . S
C5987 C5989 1.327 . S
C5987 H6010 0.950 . S
C5988 C5987 1.349 . S
C5988 C6000 1.349 . S
C5989 C5987 1.327 . S
C5989 C6005 1.429 . S
C5989 H6011 0.950 . S
C5990 H5986 0.949 . S
C5990 C5998 1.574 . S
C5990 C6006 1.368 . S
H5991 C5999 0.950 . S
H5992 C5997 0.950 . S
H5993 C5998 0.949 . S
H5994 C6000 0.950 . S
H5995 C6001 0.950 . S
H5996 C6002 0.949 . S
C5997 H5992 0.950 . S
C5997 C5999 1.327 . S
C5997 C6003 1.429 . S
C5998 C5990 1.574 . S
C5998 H5993 0.949 . S
C5998 C6004 1.368 . S
C5999 C5983 1.349 . S
C5999 H5991 0.950 . S
C5999 C5997 1.327 . S
C6000 C5988 1.349 . S
C6000 H5994 0.950 . S
C6000 C6001 1.327 . S
C6001 H5995 0.950 . S
C6001 C6000 1.327 . S
C6001 C6005 1.429 . S
C6002 C5985 1.574 . S
C6002 H5996 0.949 . S
C6002 C6006 1.368 . S
C6003 C5984 1.429 . S
C6003 C5997 1.429 . S
C6003 C6004 1.523 . S
C6004 C5985 1.368 . S
C6004 C5998 1.368 . S
C6004 C6003 1.523 . S
C6005 C5989 1.429 . S
C6005 C6001 1.429 . S
C6005 C6006 1.523 . S
C6006 C5990 1.368 . S
C6006 C6002 1.368 . S
C6006 C6005 1.523 . S
H6007 C5982 0.950 . S
H6008 C5984 0.950 . S
H6009 C5985 0.949 . S
H6010 C5987 0.950 . S
H6011 C5989 0.950 . S
C6012 C6013 1.349 . S
C6012 C6014 1.327 . S
C6012 H6037 0.950 . S
C6013 C6012 1.349 . S
C6013 C6029 1.349 . S
C6014 C6012 1.327 . S
C6014 C6033 1.429 . S
C6014 H6038 0.950 . S
C6015 C6032 1.574 . S
C6015 C6034 1.368 . S
C6015 H6039 0.949 . S
H6016 C6020 0.949 . S
C6017 C6018 1.349 . S
C6017 C6019 1.327 . S
C6017 H6040 0.950 . S
C6018 C6017 1.349 . S
C6018 C6030 1.349 . S
C6019 C6017 1.327 . S
C6019 C6035 1.429 . S
C6019 H6041 0.950 . S
C6020 H6016 0.949 . S
C6020 C6028 1.574 . S
C6020 C6036 1.368 . S
H6021 C6029 0.950 . S
H6022 C6027 0.950 . S
H6023 C6028 0.949 . S
H6024 C6030 0.950 . S
H6025 C6031 0.950 . S
H6026 C6032 0.949 . S
C6027 H6022 0.950 . S
C6027 C6029 1.327 . S
C6027 C6033 1.429 . S
C6028 C6020 1.574 . S
C6028 H6023 0.949 . S
C6028 C6034 1.368 . S
C6029 C6013 1.349 . S
C6029 H6021 0.950 . S
C6029 C6027 1.327 . S
C6030 C6018 1.349 . S
C6030 H6024 0.950 . S
C6030 C6031 1.327 . S
C6031 H6025 0.950 . S
C6031 C6030 1.327 . S
C6031 C6035 1.429 . S
C6032 C6015 1.574 . S
C6032 H6026 0.949 . S
C6032 C6036 1.368 . S
C6033 C6014 1.429 . S
C6033 C6027 1.429 . S
C6033 C6034 1.523 . S
C6034 C6015 1.368 . S
C6034 C6028 1.368 . S
C6034 C6033 1.523 . S
C6035 C6019 1.429 . S
C6035 C6031 1.429 . S
C6035 C6036 1.523 . S
C6036 C6020 1.368 . S
C6036 C6032 1.368 . S
C6036 C6035 1.523 . S
H6037 C6012 0.950 . S
H6038 C6014 0.950 . S
H6039 C6015 0.949 . S
H6040 C6017 0.950 . S
H6041 C6019 0.950 . S
C6042 C6043 1.349 . S
C6042 C6044 1.327 . S
C6042 H6067 0.950 . S
C6043 C6042 1.349 . S
C6043 C6059 1.349 . S
C6044 C6042 1.327 . S
C6044 C6063 1.429 . S
C6044 H6068 0.950 . S
C6045 C6062 1.574 . S
C6045 C6064 1.368 . S
C6045 H6069 0.949 . S
H6046 C6050 0.949 . S
C6047 C6048 1.349 . S
C6047 C6049 1.327 . S
C6047 H6070 0.950 . S
C6048 C6047 1.349 . S
C6048 C6060 1.349 . S
C6049 C6047 1.327 . S
C6049 C6065 1.429 . S
C6049 H6071 0.950 . S
C6050 H6046 0.949 . S
C6050 C6058 1.574 . S
C6050 C6066 1.368 . S
H6051 C6059 0.950 . S
H6052 C6057 0.950 . S
H6053 C6058 0.949 . S
H6054 C6060 0.950 . S
H6055 C6061 0.950 . S
H6056 C6062 0.949 . S
C6057 H6052 0.950 . S
C6057 C6059 1.327 . S
C6057 C6063 1.429 . S
C6058 C6050 1.574 . S
C6058 H6053 0.949 . S
C6058 C6064 1.368 . S
C6059 C6043 1.349 . S
C6059 H6051 0.950 . S
C6059 C6057 1.327 . S
C6060 C6048 1.349 . S
C6060 H6054 0.950 . S
C6060 C6061 1.327 . S
C6061 H6055 0.950 . S
C6061 C6060 1.327 . S
C6061 C6065 1.429 . S
C6062 C6045 1.574 . S
C6062 H6056 0.949 . S
C6062 C6066 1.368 . S
C6063 C6044 1.429 . S
C6063 C6057 1.429 . S
C6063 C6064 1.523 . S
C6064 C6045 1.368 . S
C6064 C6058 1.368 . S
C6064 C6063 1.523 . S
C6065 C6049 1.429 . S
C6065 C6061 1.429 . S
C6065 C6066 1.523 . S
C6066 C6050 1.368 . S
C6066 C6062 1.368 . S
C6066 C6065 1.523 . S
H6067 C6042 0.950 . S
H6068 C6044 0.950 . S
H6069 C6045 0.949 . S
H6070 C6047 0.950 . S
H6071 C6049 0.950 . S
C6072 C6073 1.349 . S
C6072 C6074 1.327 . S
C6072 H6097 0.950 . S
C6073 C6072 1.349 . S
C6073 C6089 1.349 . S
C6074 C6072 1.327 . S
C6074 C6093 1.429 . S
C6074 H6098 0.950 . S
C6075 C6092 1.574 . S
C6075 C6094 1.368 . S
C6075 H6099 0.949 . S
H6076 C6080 0.949 . S
C6077 C6078 1.349 . S
C6077 C6079 1.327 . S
C6077 H6100 0.950 . S
C6078 C6077 1.349 . S
C6078 C6090 1.349 . S
C6079 C6077 1.327 . S
C6079 C6095 1.429 . S
C6079 H6101 0.950 . S
C6080 H6076 0.949 . S
C6080 C6088 1.574 . S
C6080 C6096 1.368 . S
H6081 C6089 0.950 . S
H6082 C6087 0.950 . S
H6083 C6088 0.949 . S
H6084 C6090 0.950 . S
H6085 C6091 0.950 . S
H6086 C6092 0.949 . S
C6087 H6082 0.950 . S
C6087 C6089 1.327 . S
C6087 C6093 1.429 . S
C6088 C6080 1.574 . S
C6088 H6083 0.949 . S
C6088 C6094 1.368 . S
C6089 C6073 1.349 . S
C6089 H6081 0.950 . S
C6089 C6087 1.327 . S
C6090 C6078 1.349 . S
C6090 H6084 0.950 . S
C6090 C6091 1.327 . S
C6091 H6085 0.950 . S
C6091 C6090 1.327 . S
C6091 C6095 1.429 . S
C6092 C6075 1.574 . S
C6092 H6086 0.949 . S
C6092 C6096 1.368 . S
C6093 C6074 1.429 . S
C6093 C6087 1.429 . S
C6093 C6094 1.523 . S
C6094 C6075 1.368 . S
C6094 C6088 1.368 . S
C6094 C6093 1.523 . S
C6095 C6079 1.429 . S
C6095 C6091 1.429 . S
C6095 C6096 1.523 . S
C6096 C6080 1.368 . S
C6096 C6092 1.368 . S
C6096 C6095 1.523 . S
H6097 C6072 0.950 . S
H6098 C6074 0.950 . S
H6099 C6075 0.949 . S
H6100 C6077 0.950 . S
H6101 C6079 0.950 . S
C6102 C6103 1.349 . S
C6102 C6104 1.327 . S
C6102 H6127 0.950 . S
C6103 C6102 1.349 . S
C6103 C6119 1.349 . S
C6104 C6102 1.327 . S
C6104 C6123 1.429 . S
C6104 H6128 0.950 . S
C6105 C6122 1.574 . S
C6105 C6124 1.368 . S
C6105 H6129 0.949 . S
H6106 C6110 0.949 . S
C6107 C6108 1.349 . S
C6107 C6109 1.327 . S
C6107 H6130 0.950 . S
C6108 C6107 1.349 . S
C6108 C6120 1.349 . S
C6109 C6107 1.327 . S
C6109 C6125 1.429 . S
C6109 H6131 0.950 . S
C6110 H6106 0.949 . S
C6110 C6118 1.574 . S
C6110 C6126 1.368 . S
H6111 C6119 0.950 . S
H6112 C6117 0.950 . S
H6113 C6118 0.949 . S
H6114 C6120 0.950 . S
H6115 C6121 0.950 . S
H6116 C6122 0.949 . S
C6117 H6112 0.950 . S
C6117 C6119 1.327 . S
C6117 C6123 1.429 . S
C6118 C6110 1.574 . S
C6118 H6113 0.949 . S
C6118 C6124 1.368 . S
C6119 C6103 1.349 . S
C6119 H6111 0.950 . S
C6119 C6117 1.327 . S
C6120 C6108 1.349 . S
C6120 H6114 0.950 . S
C6120 C6121 1.327 . S
C6121 H6115 0.950 . S
C6121 C6120 1.327 . S
C6121 C6125 1.429 . S
C6122 C6105 1.574 . S
C6122 H6116 0.949 . S
C6122 C6126 1.368 . S
C6123 C6104 1.429 . S
C6123 C6117 1.429 . S
C6123 C6124 1.523 . S
C6124 C6105 1.368 . S
C6124 C6118 1.368 . S
C6124 C6123 1.523 . S
C6125 C6109 1.429 . S
C6125 C6121 1.429 . S
C6125 C6126 1.523 . S
C6126 C6110 1.368 . S
C6126 C6122 1.368 . S
C6126 C6125 1.523 . S
H6127 C6102 0.950 . S
H6128 C6104 0.950 . S
H6129 C6105 0.949 . S
H6130 C6107 0.950 . S
H6131 C6109 0.950 . S
C6132 C6133 1.349 . S
C6132 C6134 1.327 . S
C6132 H6157 0.950 1_655 S
C6133 C6132 1.349 . S
C6133 C6149 1.349 . S
C6134 C6132 1.327 . S
C6134 C6153 1.429 . S
C6134 H6158 0.950 . S
C6135 C6152 1.574 . S
C6135 C6154 1.368 . S
C6135 H6159 0.949 . S
H6136 C6140 0.949 . S
C6137 C6138 1.349 . S
C6137 C6139 1.327 . S
C6137 H6160 0.950 . S
C6138 C6137 1.349 . S
C6138 C6150 1.349 . S
C6139 C6137 1.327 . S
C6139 C6155 1.429 . S
C6139 H6161 0.950 . S
C6140 H6136 0.949 . S
C6140 C6148 1.574 . S
C6140 C6156 1.368 . S
H6141 C6149 0.950 . S
H6142 C6147 0.950 . S
H6143 C6148 0.949 . S
H6144 C6150 0.950 . S
H6145 C6151 0.950 . S
H6146 C6152 0.949 . S
C6147 H6142 0.950 . S
C6147 C6149 1.327 . S
C6147 C6153 1.429 . S
C6148 C6140 1.574 . S
C6148 H6143 0.949 . S
C6148 C6154 1.368 . S
C6149 C6133 1.349 . S
C6149 H6141 0.950 . S
C6149 C6147 1.327 . S
C6150 C6138 1.349 . S
C6150 H6144 0.950 . S
C6150 C6151 1.327 . S
C6151 H6145 0.950 . S
C6151 C6150 1.327 . S
C6151 C6155 1.429 . S
C6152 C6135 1.574 . S
C6152 H6146 0.949 . S
C6152 C6156 1.368 . S
C6153 C6134 1.429 . S
C6153 C6147 1.429 . S
C6153 C6154 1.523 . S
C6154 C6135 1.368 . S
C6154 C6148 1.368 . S
C6154 C6153 1.523 . S
C6155 C6139 1.429 . S
C6155 C6151 1.429 . S
C6155 C6156 1.523 . S
C6156 C6140 1.368 . S
C6156 C6152 1.368 . S
C6156 C6155 1.523 . S
H6157 C6132 0.950 1_455 S
H6158 C6134 0.950 . S
H6159 C6135 0.949 . S
H6160 C6137 0.950 . S
H6161 C6139 0.950 . S
C6162 C6163 1.349 . S
C6162 C6164 1.327 . S
C6162 H6187 0.950 . S
C6163 C6162 1.349 . S
C6163 C6179 1.349 . S
C6164 C6162 1.327 . S
C6164 C6183 1.429 . S
C6164 H6188 0.950 . S
C6165 C6182 1.574 . S
C6165 C6184 1.368 . S
C6165 H6189 0.949 . S
H6166 C6170 0.949 . S
C6167 C6168 1.349 . S
C6167 C6169 1.327 . S
C6167 H6190 0.950 . S
C6168 C6167 1.349 . S
C6168 C6180 1.349 . S
C6169 C6167 1.327 . S
C6169 C6185 1.429 . S
C6169 H6191 0.950 . S
C6170 H6166 0.949 . S
C6170 C6178 1.574 . S
C6170 C6186 1.368 . S
H6171 C6179 0.950 . S
H6172 C6177 0.950 . S
H6173 C6178 0.949 . S
H6174 C6180 0.950 . S
H6175 C6181 0.950 . S
H6176 C6182 0.949 . S
C6177 H6172 0.950 . S
C6177 C6179 1.327 . S
C6177 C6183 1.429 . S
C6178 C6170 1.574 . S
C6178 H6173 0.949 . S
C6178 C6184 1.368 . S
C6179 C6163 1.349 . S
C6179 H6171 0.950 . S
C6179 C6177 1.327 . S
C6180 C6168 1.349 . S
C6180 H6174 0.950 . S
C6180 C6181 1.327 . S
C6181 H6175 0.950 . S
C6181 C6180 1.327 . S
C6181 C6185 1.429 . S
C6182 C6165 1.574 . S
C6182 H6176 0.949 . S
C6182 C6186 1.368 . S
C6183 C6164 1.429 . S
C6183 C6177 1.429 . S
C6183 C6184 1.523 . S
C6184 C6165 1.368 . S
C6184 C6178 1.368 . S
C6184 C6183 1.523 . S
C6185 C6169 1.429 . S
C6185 C6181 1.429 . S
C6185 C6186 1.523 . S
C6186 C6170 1.368 . S
C6186 C6182 1.368 . S
C6186 C6185 1.523 . S
H6187 C6162 0.950 . S
H6188 C6164 0.950 . S
H6189 C6165 0.949 . S
H6190 C6167 0.950 . S
H6191 C6169 0.950 . S
C6192 C6193 1.349 . S
C6192 C6194 1.327 . S
C6192 H6217 0.950 . S
C6193 C6192 1.349 . S
C6193 C6209 1.349 . S
C6194 C6192 1.327 . S
C6194 C6213 1.429 . S
C6194 H6218 0.950 . S
C6195 C6212 1.574 . S
C6195 C6214 1.368 . S
C6195 H6219 0.949 . S
H6196 C6200 0.949 . S
C6197 C6198 1.349 . S
C6197 C6199 1.327 . S
C6197 H6220 0.950 . S
C6198 C6197 1.349 . S
C6198 C6210 1.349 . S
C6199 C6197 1.327 . S
C6199 C6215 1.429 . S
C6199 H6221 0.950 . S
C6200 H6196 0.949 . S
C6200 C6208 1.574 . S
C6200 C6216 1.368 . S
H6201 C6209 0.950 . S
H6202 C6207 0.950 . S
H6203 C6208 0.949 . S
H6204 C6210 0.950 . S
H6205 C6211 0.950 . S
H6206 C6212 0.949 . S
C6207 H6202 0.950 . S
C6207 C6209 1.327 . S
C6207 C6213 1.429 . S
C6208 C6200 1.574 . S
C6208 H6203 0.949 . S
C6208 C6214 1.368 . S
C6209 C6193 1.349 . S
C6209 H6201 0.950 . S
C6209 C6207 1.327 . S
C6210 C6198 1.349 . S
C6210 H6204 0.950 . S
C6210 C6211 1.327 . S
C6211 H6205 0.950 . S
C6211 C6210 1.327 . S
C6211 C6215 1.429 . S
C6212 C6195 1.574 . S
C6212 H6206 0.949 . S
C6212 C6216 1.368 . S
C6213 C6194 1.429 . S
C6213 C6207 1.429 . S
C6213 C6214 1.523 . S
C6214 C6195 1.368 . S
C6214 C6208 1.368 . S
C6214 C6213 1.523 . S
C6215 C6199 1.429 . S
C6215 C6211 1.429 . S
C6215 C6216 1.523 . S
C6216 C6200 1.368 . S
C6216 C6212 1.368 . S
C6216 C6215 1.523 . S
H6217 C6192 0.950 . S
H6218 C6194 0.950 . S
H6219 C6195 0.949 . S
H6220 C6197 0.950 . S
H6221 C6199 0.950 . S
C6222 C6223 1.349 . S
C6222 C6224 1.327 . S
C6222 H6247 0.950 . S
C6223 C6222 1.349 . S
C6223 C6239 1.349 . S
C6224 C6222 1.327 . S
C6224 C6243 1.429 . S
C6224 H6248 0.950 . S
C6225 C6242 1.574 . S
C6225 C6244 1.368 . S
C6225 H6249 0.949 . S
H6226 C6230 0.949 . S
C6227 C6228 1.349 . S
C6227 C6229 1.327 . S
C6227 H6250 0.950 . S
C6228 C6227 1.349 . S
C6228 C6240 1.349 . S
C6229 C6227 1.327 . S
C6229 C6245 1.429 . S
C6229 H6251 0.950 . S
C6230 H6226 0.949 . S
C6230 C6238 1.574 . S
C6230 C6246 1.368 . S
H6231 C6239 0.950 . S
H6232 C6237 0.950 . S
H6233 C6238 0.949 . S
H6234 C6240 0.950 . S
H6235 C6241 0.950 . S
H6236 C6242 0.949 . S
C6237 H6232 0.950 . S
C6237 C6239 1.327 . S
C6237 C6243 1.429 . S
C6238 C6230 1.574 . S
C6238 H6233 0.949 . S
C6238 C6244 1.368 . S
C6239 C6223 1.349 . S
C6239 H6231 0.950 . S
C6239 C6237 1.327 . S
C6240 C6228 1.349 . S
C6240 H6234 0.950 . S
C6240 C6241 1.327 . S
C6241 H6235 0.950 . S
C6241 C6240 1.327 . S
C6241 C6245 1.429 . S
C6242 C6225 1.574 . S
C6242 H6236 0.949 . S
C6242 C6246 1.368 . S
C6243 C6224 1.429 . S
C6243 C6237 1.429 . S
C6243 C6244 1.523 . S
C6244 C6225 1.368 . S
C6244 C6238 1.368 . S
C6244 C6243 1.523 . S
C6245 C6229 1.429 . S
C6245 C6241 1.429 . S
C6245 C6246 1.523 . S
C6246 C6230 1.368 . S
C6246 C6242 1.368 . S
C6246 C6245 1.523 . S
H6247 C6222 0.950 . S
H6248 C6224 0.950 . S
H6249 C6225 0.949 . S
H6250 C6227 0.950 . S
H6251 C6229 0.950 . S
C6252 C6253 1.349 . S
C6252 C6254 1.327 . S
C6252 H6277 0.950 . S
C6253 C6252 1.349 . S
C6253 C6269 1.349 . S
C6254 C6252 1.327 . S
C6254 C6273 1.429 . S
C6254 H6278 0.950 . S
C6255 C6272 1.574 . S
C6255 C6274 1.368 . S
C6255 H6279 0.949 . S
H6256 C6260 0.949 . S
C6257 C6258 1.349 . S
C6257 C6259 1.327 . S
C6257 H6280 0.950 . S
C6258 C6257 1.349 . S
C6258 C6270 1.349 . S
C6259 C6257 1.327 . S
C6259 C6275 1.429 . S
C6259 H6281 0.950 . S
C6260 H6256 0.949 . S
C6260 C6268 1.574 . S
C6260 C6276 1.368 . S
H6261 C6269 0.950 . S
H6262 C6267 0.950 . S
H6263 C6268 0.949 . S
H6264 C6270 0.950 . S
H6265 C6271 0.950 . S
H6266 C6272 0.949 . S
C6267 H6262 0.950 . S
C6267 C6269 1.327 . S
C6267 C6273 1.429 . S
C6268 C6260 1.574 . S
C6268 H6263 0.949 . S
C6268 C6274 1.368 . S
C6269 C6253 1.349 . S
C6269 H6261 0.950 . S
C6269 C6267 1.327 . S
C6270 C6258 1.349 . S
C6270 H6264 0.950 . S
C6270 C6271 1.327 . S
C6271 H6265 0.950 . S
C6271 C6270 1.327 . S
C6271 C6275 1.429 . S
C6272 C6255 1.574 . S
C6272 H6266 0.949 . S
C6272 C6276 1.368 . S
C6273 C6254 1.429 . S
C6273 C6267 1.429 . S
C6273 C6274 1.523 . S
C6274 C6255 1.368 . S
C6274 C6268 1.368 . S
C6274 C6273 1.523 . S
C6275 C6259 1.429 . S
C6275 C6271 1.429 . S
C6275 C6276 1.523 . S
C6276 C6260 1.368 . S
C6276 C6272 1.368 . S
C6276 C6275 1.523 . S
H6277 C6252 0.950 . S
H6278 C6254 0.950 . S
H6279 C6255 0.949 . S
H6280 C6257 0.950 . S
H6281 C6259 0.950 . S
C6282 C6283 1.349 . S
C6282 C6284 1.327 . S
C6282 H6307 0.950 . S
C6283 C6282 1.349 . S
C6283 C6299 1.349 . S
C6284 C6282 1.327 . S
C6284 C6303 1.429 . S
C6284 H6308 0.950 . S
C6285 C6302 1.574 . S
C6285 C6304 1.368 . S
C6285 H6309 0.949 . S
H6286 C6290 0.949 . S
C6287 C6288 1.349 . S
C6287 C6289 1.327 . S
C6287 H6310 0.950 . S
C6288 C6287 1.349 . S
C6288 C6300 1.349 . S
C6289 C6287 1.327 . S
C6289 C6305 1.429 . S
C6289 H6311 0.950 . S
C6290 H6286 0.949 . S
C6290 C6298 1.574 . S
C6290 C6306 1.368 . S
H6291 C6299 0.950 . S
H6292 C6297 0.950 . S
H6293 C6298 0.949 . S
H6294 C6300 0.950 . S
H6295 C6301 0.950 . S
H6296 C6302 0.949 . S
C6297 H6292 0.950 . S
C6297 C6299 1.327 . S
C6297 C6303 1.429 . S
C6298 C6290 1.574 . S
C6298 H6293 0.949 . S
C6298 C6304 1.368 . S
C6299 C6283 1.349 . S
C6299 H6291 0.950 . S
C6299 C6297 1.327 . S
C6300 C6288 1.349 . S
C6300 H6294 0.950 . S
C6300 C6301 1.327 . S
C6301 H6295 0.950 . S
C6301 C6300 1.327 . S
C6301 C6305 1.429 . S
C6302 C6285 1.574 . S
C6302 H6296 0.949 . S
C6302 C6306 1.368 . S
C6303 C6284 1.429 . S
C6303 C6297 1.429 . S
C6303 C6304 1.523 . S
C6304 C6285 1.368 . S
C6304 C6298 1.368 . S
C6304 C6303 1.523 . S
C6305 C6289 1.429 . S
C6305 C6301 1.429 . S
C6305 C6306 1.523 . S
C6306 C6290 1.368 . S
C6306 C6302 1.368 . S
C6306 C6305 1.523 . S
H6307 C6282 0.950 . S
H6308 C6284 0.950 . S
H6309 C6285 0.949 . S
H6310 C6287 0.950 . S
H6311 C6289 0.950 . S
C6312 C6313 1.349 . S
C6312 C6314 1.327 . S
C6312 H6337 0.950 . S
C6313 C6312 1.349 . S
C6313 C6329 1.349 . S
C6314 C6312 1.327 . S
C6314 C6333 1.429 . S
C6314 H6338 0.950 . S
C6315 C6332 1.574 . S
C6315 C6334 1.368 . S
C6315 H6339 0.949 . S
H6316 C6320 0.949 . S
C6317 C6318 1.349 . S
C6317 C6319 1.327 . S
C6317 H6340 0.950 . S
C6318 C6317 1.349 . S
C6318 C6330 1.349 . S
C6319 C6317 1.327 . S
C6319 C6335 1.429 . S
C6319 H6341 0.950 . S
C6320 H6316 0.949 . S
C6320 C6328 1.574 . S
C6320 C6336 1.368 . S
H6321 C6329 0.950 . S
H6322 C6327 0.950 . S
H6323 C6328 0.949 . S
H6324 C6330 0.950 . S
H6325 C6331 0.950 . S
H6326 C6332 0.949 . S
C6327 H6322 0.950 . S
C6327 C6329 1.327 . S
C6327 C6333 1.429 . S
C6328 C6320 1.574 . S
C6328 H6323 0.949 . S
C6328 C6334 1.368 . S
C6329 C6313 1.349 . S
C6329 H6321 0.950 . S
C6329 C6327 1.327 . S
C6330 C6318 1.349 . S
C6330 H6324 0.950 . S
C6330 C6331 1.327 . S
C6331 H6325 0.950 . S
C6331 C6330 1.327 . S
C6331 C6335 1.429 . S
C6332 C6315 1.574 . S
C6332 H6326 0.949 . S
C6332 C6336 1.368 . S
C6333 C6314 1.429 . S
C6333 C6327 1.429 . S
C6333 C6334 1.523 . S
C6334 C6315 1.368 . S
C6334 C6328 1.368 . S
C6334 C6333 1.523 . S
C6335 C6319 1.429 . S
C6335 C6331 1.429 . S
C6335 C6336 1.523 . S
C6336 C6320 1.368 . S
C6336 C6332 1.368 . S
C6336 C6335 1.523 . S
H6337 C6312 0.950 . S
H6338 C6314 0.950 . S
H6339 C6315 0.949 . S
H6340 C6317 0.950 . S
H6341 C6319 0.950 . S
C6342 C6343 1.349 . S
C6342 C6344 1.327 . S
C6342 H6367 0.950 . S
C6343 C6342 1.349 . S
C6343 C6359 1.349 . S
C6344 C6342 1.327 . S
C6344 C6363 1.429 . S
C6344 H6368 0.950 . S
C6345 C6362 1.574 . S
C6345 C6364 1.368 . S
C6345 H6369 0.949 . S
H6346 C6350 0.949 . S
C6347 C6348 1.349 . S
C6347 C6349 1.327 . S
C6347 H6370 0.950 . S
C6348 C6347 1.349 . S
C6348 C6360 1.349 . S
C6349 C6347 1.327 . S
C6349 C6365 1.429 . S
C6349 H6371 0.950 . S
C6350 H6346 0.949 . S
C6350 C6358 1.574 . S
C6350 C6366 1.368 . S
H6351 C6359 0.950 . S
H6352 C6357 0.950 . S
H6353 C6358 0.949 . S
H6354 C6360 0.950 . S
H6355 C6361 0.950 . S
H6356 C6362 0.949 . S
C6357 H6352 0.950 . S
C6357 C6359 1.327 . S
C6357 C6363 1.429 . S
C6358 C6350 1.574 . S
C6358 H6353 0.949 . S
C6358 C6364 1.368 . S
C6359 C6343 1.349 . S
C6359 H6351 0.950 . S
C6359 C6357 1.327 . S
C6360 C6348 1.349 . S
C6360 H6354 0.950 . S
C6360 C6361 1.327 . S
C6361 H6355 0.950 . S
C6361 C6360 1.327 . S
C6361 C6365 1.429 . S
C6362 C6345 1.574 . S
C6362 H6356 0.949 . S
C6362 C6366 1.368 . S
C6363 C6344 1.429 . S
C6363 C6357 1.429 . S
C6363 C6364 1.523 . S
C6364 C6345 1.368 . S
C6364 C6358 1.368 . S
C6364 C6363 1.523 . S
C6365 C6349 1.429 . S
C6365 C6361 1.429 . S
C6365 C6366 1.523 . S
C6366 C6350 1.368 . S
C6366 C6362 1.368 . S
C6366 C6365 1.523 . S
H6367 C6342 0.950 . S
H6368 C6344 0.950 . S
H6369 C6345 0.949 . S
H6370 C6347 0.950 . S
H6371 C6349 0.950 . S
C6372 C6373 1.349 . S
C6372 C6374 1.327 . S
C6372 H6397 0.950 . S
C6373 C6372 1.349 . S
C6373 C6389 1.349 . S
C6374 C6372 1.327 . S
C6374 C6393 1.429 . S
C6374 H6398 0.950 . S
C6375 C6392 1.574 . S
C6375 C6394 1.368 . S
C6375 H6399 0.949 . S
H6376 C6380 0.949 . S
C6377 C6378 1.349 . S
C6377 C6379 1.327 . S
C6377 H6400 0.950 . S
C6378 C6377 1.349 . S
C6378 C6390 1.349 . S
C6379 C6377 1.327 . S
C6379 C6395 1.429 . S
C6379 H6401 0.950 . S
C6380 H6376 0.949 . S
C6380 C6388 1.574 . S
C6380 C6396 1.368 . S
H6381 C6389 1.007 . S
H6382 C6387 0.950 . S
H6383 C6388 0.949 . S
H6384 C6390 0.950 . S
H6385 C6391 0.950 . S
H6386 C6392 0.949 . S
C6387 H6382 0.950 . S
C6387 C6389 1.327 . S
C6387 C6393 1.429 . S
C6388 C6380 1.574 . S
C6388 H6383 0.949 . S
C6388 C6394 1.368 . S
C6389 C6373 1.349 . S
C6389 H6381 1.007 . S
C6389 C6387 1.327 . S
C6390 C6378 1.349 . S
C6390 H6384 0.950 . S
C6390 C6391 1.327 . S
C6391 H6385 0.950 . S
C6391 C6390 1.327 . S
C6391 C6395 1.429 . S
C6392 C6375 1.574 . S
C6392 H6386 0.949 . S
C6392 C6396 1.368 . S
C6393 C6374 1.429 . S
C6393 C6387 1.429 . S
C6393 C6394 1.523 . S
C6394 C6375 1.368 . S
C6394 C6388 1.368 . S
C6394 C6393 1.523 . S
C6395 C6379 1.429 . S
C6395 C6391 1.429 . S
C6395 C6396 1.523 . S
C6396 C6380 1.368 . S
C6396 C6392 1.368 . S
C6396 C6395 1.523 . S
H6397 C6372 0.950 . S
H6398 C6374 0.950 . S
H6399 C6375 0.949 . S
H6400 C6377 0.950 . S
H6401 C6379 0.950 . S
C6402 C6403 1.349 . S
C6402 C6404 1.327 . S
C6402 H6427 0.950 . S
C6403 C6402 1.349 . S
C6403 C6419 1.349 . S
C6404 C6402 1.327 . S
C6404 C6423 1.429 . S
C6404 H6428 0.950 . S
C6405 C6422 1.574 . S
C6405 C6424 1.368 . S
C6405 H6429 0.949 . S
H6406 C6410 0.949 . S
C6407 C6408 1.349 . S
C6407 C6409 1.327 . S
C6407 H6430 0.950 . S
C6408 C6407 1.349 . S
C6408 C6420 1.349 . S
C6409 C6407 1.327 . S
C6409 C6425 1.429 . S
C6409 H6431 0.950 . S
C6410 H6406 0.949 . S
C6410 C6418 1.574 . S
C6410 C6426 1.368 . S
H6411 C6419 0.950 . S
H6412 C6417 0.950 . S
H6413 C6418 0.949 . S
H6414 C6420 0.950 . S
H6415 C6421 0.950 . S
H6416 C6422 0.949 . S
C6417 H6412 0.950 . S
C6417 C6419 1.327 . S
C6417 C6423 1.429 . S
C6418 C6410 1.574 . S
C6418 H6413 0.949 . S
C6418 C6424 1.368 . S
C6419 C6403 1.349 . S
C6419 H6411 0.950 . S
C6419 C6417 1.327 . S
C6420 C6408 1.349 . S
C6420 H6414 0.950 . S
C6420 C6421 1.327 . S
C6421 H6415 0.950 . S
C6421 C6420 1.327 . S
C6421 C6425 1.429 . S
C6422 C6405 1.574 . S
C6422 H6416 0.949 . S
C6422 C6426 1.368 . S
C6423 C6404 1.429 . S
C6423 C6417 1.429 . S
C6423 C6424 1.523 . S
C6424 C6405 1.368 . S
C6424 C6418 1.368 . S
C6424 C6423 1.523 . S
C6425 C6409 1.429 . S
C6425 C6421 1.429 . S
C6425 C6426 1.523 . S
C6426 C6410 1.368 . S
C6426 C6422 1.368 . S
C6426 C6425 1.523 . S
H6427 C6402 0.950 . S
H6428 C6404 0.950 . S
H6429 C6405 0.949 . S
H6430 C6407 0.950 . S
H6431 C6409 0.950 . S
C6432 C6433 1.349 . S
C6432 C6434 1.327 . S
C6432 H6457 0.950 . S
C6433 C6432 1.349 . S
C6433 C6449 1.349 . S
C6434 C6432 1.327 . S
C6434 C6453 1.429 . S
C6434 H6458 0.950 . S
C6435 C6452 1.574 . S
C6435 C6454 1.368 . S
C6435 H6459 0.949 . S
H6436 C6440 0.949 . S
C6437 C6438 1.349 . S
C6437 C6439 1.327 . S
C6437 H6460 0.950 . S
C6438 C6437 1.349 . S
C6438 C6450 1.349 . S
C6439 C6437 1.327 . S
C6439 C6455 1.429 . S
C6439 H6461 0.950 . S
C6440 H6436 0.949 . S
C6440 C6448 1.574 . S
C6440 C6456 1.368 . S
H6441 C6449 0.950 . S
H6442 C6447 0.950 . S
H6443 C6448 0.949 . S
H6444 C6450 0.950 . S
H6445 C6451 0.950 . S
H6446 C6452 0.949 . S
C6447 H6442 0.950 . S
C6447 C6449 1.327 . S
C6447 C6453 1.429 . S
C6448 C6440 1.574 . S
C6448 H6443 0.949 . S
C6448 C6454 1.368 . S
C6449 C6433 1.349 . S
C6449 H6441 0.950 . S
C6449 C6447 1.327 . S
C6450 C6438 1.349 . S
C6450 H6444 0.950 . S
C6450 C6451 1.327 . S
C6451 H6445 0.950 . S
C6451 C6450 1.327 . S
C6451 C6455 1.429 . S
C6452 C6435 1.574 . S
C6452 H6446 0.949 . S
C6452 C6456 1.368 . S
C6453 C6434 1.429 . S
C6453 C6447 1.429 . S
C6453 C6454 1.523 . S
C6454 C6435 1.368 . S
C6454 C6448 1.368 . S
C6454 C6453 1.523 . S
C6455 C6439 1.429 . S
C6455 C6451 1.429 . S
C6455 C6456 1.523 . S
C6456 C6440 1.368 . S
C6456 C6452 1.368 . S
C6456 C6455 1.523 . S
H6457 C6432 0.950 . S
H6458 C6434 0.950 . S
H6459 C6435 0.949 . S
H6460 C6437 0.950 . S
H6461 C6439 0.950 . S
C6462 C6463 1.349 . S
C6462 C6464 1.327 . S
C6462 H6487 0.950 . S
C6463 C6462 1.349 . S
C6463 C6479 1.349 . S
C6464 C6462 1.327 . S
C6464 C6483 1.429 . S
C6464 H6488 0.950 . S
C6465 C6482 1.574 . S
C6465 C6484 1.368 . S
C6465 H6489 0.949 . S
H6466 C6470 0.949 . S
C6467 C6468 1.349 . S
C6467 C6469 1.327 . S
C6467 H6490 0.950 . S
C6468 C6467 1.349 . S
C6468 C6480 1.349 . S
C6469 C6467 1.327 . S
C6469 C6485 1.429 . S
C6469 H6491 0.950 . S
C6470 H6466 0.949 . S
C6470 C6478 1.574 . S
C6470 C6486 1.368 . S
H6471 C6479 0.950 . S
H6472 C6477 0.950 . S
H6473 C6478 0.949 . S
H6474 C6480 0.950 . S
H6475 C6481 0.950 . S
H6476 C6482 0.949 . S
C6477 H6472 0.950 . S
C6477 C6479 1.327 . S
C6477 C6483 1.429 . S
C6478 C6470 1.574 . S
C6478 H6473 0.949 . S
C6478 C6484 1.368 . S
C6479 C6463 1.349 . S
C6479 H6471 0.950 . S
C6479 C6477 1.327 . S
C6480 C6468 1.349 . S
C6480 H6474 0.950 . S
C6480 C6481 1.327 . S
C6481 H6475 0.950 . S
C6481 C6480 1.327 . S
C6481 C6485 1.429 . S
C6482 C6465 1.574 . S
C6482 H6476 0.949 . S
C6482 C6486 1.368 . S
C6483 C6464 1.429 . S
C6483 C6477 1.429 . S
C6483 C6484 1.523 . S
C6484 C6465 1.368 . S
C6484 C6478 1.368 . S
C6484 C6483 1.523 . S
C6485 C6469 1.429 . S
C6485 C6481 1.429 . S
C6485 C6486 1.523 . S
C6486 C6470 1.368 . S
C6486 C6482 1.368 . S
C6486 C6485 1.523 . S
H6487 C6462 0.950 . S
H6488 C6464 0.950 . S
H6489 C6465 0.949 . S
H6490 C6467 0.950 . S
H6491 C6469 0.950 . S
C6492 C6493 1.349 . S
C6492 C6494 1.257 1_554 S
C6492 H6517 0.950 . S
C6493 C6492 1.349 . S
C6493 C6509 1.349 . S
C6494 C6492 1.257 1_556 S
C6494 C6513 1.453 . S
C6494 H6518 1.000 . S
C6495 C6512 1.574 . S
C6495 C6514 1.368 . S
C6495 H6519 0.949 . S
H6496 C6500 0.949 . S
C6497 C6498 1.349 . S
C6497 C6499 1.327 . S
C6497 H6520 0.950 . S
C6498 C6497 1.349 . S
C6498 C6510 1.349 . S
C6499 C6497 1.327 . S
C6499 C6515 1.429 . S
C6499 H6521 0.950 . S
C6500 H6496 0.949 . S
C6500 C6508 1.574 . S
C6500 C6516 1.368 . S
H6501 C6509 0.950 . S
H6502 C6507 0.950 . S
H6503 C6508 0.949 . S
H6504 C6510 0.950 . S
H6505 C6511 0.950 . S
H6506 C6512 0.949 . S
C6507 H6502 0.950 . S
C6507 C6509 1.327 . S
C6507 C6513 1.429 1_554 S
C6508 C6500 1.574 . S
C6508 H6503 0.949 . S
C6508 C6514 1.368 . S
C6509 C6493 1.349 . S
C6509 H6501 0.950 . S
C6509 C6507 1.327 . S
C6510 C6498 1.349 . S
C6510 H6504 0.950 . S
C6510 C6511 1.327 . S
C6511 H6505 0.950 . S
C6511 C6510 1.327 . S
C6511 C6515 1.429 . S
C6512 C6495 1.574 . S
C6512 H6506 0.949 . S
C6512 C6516 1.368 . S
C6513 C6494 1.453 . S
C6513 C6507 1.429 1_556 S
C6513 C6514 1.523 . S
C6514 C6495 1.368 . S
C6514 C6508 1.368 . S
C6514 C6513 1.523 . S
C6515 C6499 1.429 . S
C6515 C6511 1.429 . S
C6515 C6516 1.523 . S
C6516 C6500 1.368 . S
C6516 C6512 1.368 . S
C6516 C6515 1.523 . S
H6517 C6492 0.950 . S
H6518 C6494 1.000 . S
H6519 C6495 0.949 . S
H6520 C6497 0.950 . S
H6521 C6499 0.950 . S
C6522 C6523 1.349 . S
C6522 C6524 1.327 . S
C6522 H6547 0.950 . S
C6523 C6522 1.349 . S
C6523 C6539 1.349 . S
C6524 C6522 1.327 . S
C6524 C6543 1.429 . S
C6524 H6548 0.950 . S
C6525 C6542 1.574 . S
C6525 C6544 1.368 . S
C6525 H6549 0.949 . S
H6526 C6530 0.949 . S
C6527 C6528 1.349 . S
C6527 C6529 1.327 . S
C6527 H6550 0.950 . S
C6528 C6527 1.349 . S
C6528 C6540 1.349 . S
C6529 C6527 1.327 . S
C6529 C6545 1.429 . S
C6529 H6551 0.950 . S
C6530 H6526 0.949 . S
C6530 C6538 1.574 . S
C6530 C6546 1.368 . S
H6531 C6539 0.950 . S
H6532 C6537 0.950 . S
H6533 C6538 0.949 . S
H6534 C6540 0.950 . S
H6535 C6541 0.950 . S
H6536 C6542 0.949 . S
C6537 H6532 0.950 . S
C6537 C6539 1.327 . S
C6537 C6543 1.429 . S
C6538 C6530 1.574 . S
C6538 H6533 0.949 . S
C6538 C6544 1.368 . S
C6539 C6523 1.349 . S
C6539 H6531 0.950 . S
C6539 C6537 1.327 . S
C6540 C6528 1.349 . S
C6540 H6534 0.950 . S
C6540 C6541 1.327 . S
C6541 H6535 0.950 . S
C6541 C6540 1.327 . S
C6541 C6545 1.429 . S
C6542 C6525 1.574 . S
C6542 H6536 0.949 . S
C6542 C6546 1.368 . S
C6543 C6524 1.429 . S
C6543 C6537 1.429 . S
C6543 C6544 1.523 . S
C6544 C6525 1.368 . S
C6544 C6538 1.368 . S
C6544 C6543 1.523 . S
C6545 C6529 1.429 . S
C6545 C6541 1.429 . S
C6545 C6546 1.523 . S
C6546 C6530 1.368 . S
C6546 C6542 1.368 . S
C6546 C6545 1.523 . S
H6547 C6522 0.950 . S
H6548 C6524 0.950 . S
H6549 C6525 0.949 . S
H6550 C6527 0.950 . S
H6551 C6529 0.950 . S
C6552 C6553 1.349 . S
C6552 C6554 1.327 . S
C6552 H6577 0.950 . S
C6553 C6552 1.349 . S
C6553 C6569 1.349 . S
C6554 C6552 1.327 . S
C6554 C6573 1.429 . S
C6554 H6578 0.950 . S
C6555 C6572 1.574 . S
C6555 C6574 1.368 . S
C6555 H6579 0.949 . S
H6556 C6560 0.949 . S
C6557 C6558 1.349 . S
C6557 C6559 1.327 . S
C6557 H6580 0.950 . S
C6558 C6557 1.349 . S
C6558 C6570 1.349 . S
C6559 C6557 1.327 . S
C6559 C6575 1.429 . S
C6559 H6581 0.950 . S
C6560 H6556 0.949 . S
C6560 C6568 1.574 . S
C6560 C6576 1.368 . S
H6561 C6569 0.950 . S
H6562 C6567 0.950 . S
H6563 C6568 0.949 . S
H6564 C6570 0.950 . S
H6565 C6571 0.950 . S
H6566 C6572 0.949 . S
C6567 H6562 0.950 . S
C6567 C6569 1.327 . S
C6567 C6573 1.429 . S
C6568 C6560 1.574 . S
C6568 H6563 0.949 . S
C6568 C6574 1.368 . S
C6569 C6553 1.349 . S
C6569 H6561 0.950 . S
C6569 C6567 1.327 . S
C6570 C6558 1.349 . S
C6570 H6564 0.950 . S
C6570 C6571 1.327 . S
C6571 H6565 0.950 . S
C6571 C6570 1.327 . S
C6571 C6575 1.429 . S
C6572 C6555 1.574 . S
C6572 H6566 0.949 . S
C6572 C6576 1.368 . S
C6573 C6554 1.429 . S
C6573 C6567 1.429 . S
C6573 C6574 1.523 . S
C6574 C6555 1.368 . S
C6574 C6568 1.368 . S
C6574 C6573 1.523 . S
C6575 C6559 1.429 . S
C6575 C6571 1.429 . S
C6575 C6576 1.523 . S
C6576 C6560 1.368 . S
C6576 C6572 1.368 . S
C6576 C6575 1.523 . S
H6577 C6552 0.950 . S
H6578 C6554 0.950 . S
H6579 C6555 0.949 . S
H6580 C6557 0.950 . S
H6581 C6559 0.950 . S
C6582 C6583 1.349 . S
C6582 C6584 1.327 . S
C6582 H6607 0.950 . S
C6583 C6582 1.349 . S
C6583 C6599 1.349 . S
C6584 C6582 1.327 . S
C6584 C6603 1.429 . S
C6584 H6608 0.950 . S
C6585 C6602 1.574 . S
C6585 C6604 1.368 . S
C6585 H6609 0.949 . S
H6586 C6590 0.949 . S
C6587 C6588 1.349 . S
C6587 C6589 1.327 . S
C6587 H6610 0.950 . S
C6588 C6587 1.349 . S
C6588 C6600 1.349 . S
C6589 C6587 1.327 . S
C6589 C6605 1.429 . S
C6589 H6611 0.950 . S
C6590 H6586 0.949 . S
C6590 C6598 1.574 . S
C6590 C6606 1.368 . S
H6591 C6599 0.950 . S
H6592 C6597 0.950 . S
H6593 C6598 0.949 . S
H6594 C6600 0.950 . S
H6595 C6601 0.950 . S
H6596 C6602 0.949 . S
C6597 H6592 0.950 . S
C6597 C6599 1.327 . S
C6597 C6603 1.429 . S
C6598 C6590 1.574 . S
C6598 H6593 0.949 . S
C6598 C6604 1.368 . S
C6599 C6583 1.349 . S
C6599 H6591 0.950 . S
C6599 C6597 1.327 . S
C6600 C6588 1.349 . S
C6600 H6594 0.950 . S
C6600 C6601 1.327 . S
C6601 H6595 0.950 . S
C6601 C6600 1.327 . S
C6601 C6605 1.429 . S
C6602 C6585 1.574 . S
C6602 H6596 0.949 . S
C6602 C6606 1.368 . S
C6603 C6584 1.429 . S
C6603 C6597 1.429 . S
C6603 C6604 1.523 . S
C6604 C6585 1.368 . S
C6604 C6598 1.368 . S
C6604 C6603 1.523 . S
C6605 C6589 1.429 . S
C6605 C6601 1.429 . S
C6605 C6606 1.523 . S
C6606 C6590 1.368 . S
C6606 C6602 1.368 . S
C6606 C6605 1.523 . S
H6607 C6582 0.950 . S
H6608 C6584 0.950 . S
H6609 C6585 0.949 . S
H6610 C6587 0.950 . S
H6611 C6589 0.950 . S
C6612 C6613 1.349 . S
C6612 C6614 1.327 . S
C6612 H6637 0.950 . S
C6613 C6612 1.349 . S
C6613 C6629 1.349 . S
C6614 C6612 1.327 . S
C6614 C6633 1.429 . S
C6614 H6638 0.950 . S
C6615 C6632 1.574 . S
C6615 C6634 1.368 . S
C6615 H6639 0.949 . S
H6616 C6620 0.949 . S
C6617 C6618 1.349 . S
C6617 C6619 1.327 . S
C6617 H6640 0.950 . S
C6618 C6617 1.349 . S
C6618 C6630 1.349 . S
C6619 C6617 1.327 . S
C6619 C6635 1.429 . S
C6619 H6641 0.950 . S
C6620 H6616 0.949 . S
C6620 C6628 1.574 . S
C6620 C6636 1.368 . S
H6621 C6629 0.950 . S
H6622 C6627 0.950 . S
H6623 C6628 0.949 . S
H6624 C6630 0.950 . S
H6625 C6631 0.950 . S
H6626 C6632 0.949 . S
C6627 H6622 0.950 . S
C6627 C6629 1.327 . S
C6627 C6633 1.429 . S
C6628 C6620 1.574 . S
C6628 H6623 0.949 . S
C6628 C6634 1.368 . S
C6629 C6613 1.349 . S
C6629 H6621 0.950 . S
C6629 C6627 1.327 . S
C6630 C6618 1.349 . S
C6630 H6624 0.950 . S
C6630 C6631 1.327 . S
C6631 H6625 0.950 . S
C6631 C6630 1.327 . S
C6631 C6635 1.429 . S
C6632 C6615 1.574 . S
C6632 H6626 0.949 . S
C6632 C6636 1.368 . S
C6633 C6614 1.429 . S
C6633 C6627 1.429 . S
C6633 C6634 1.523 . S
C6634 C6615 1.368 . S
C6634 C6628 1.368 . S
C6634 C6633 1.523 . S
C6635 C6619 1.429 . S
C6635 C6631 1.429 . S
C6635 C6636 1.523 . S
C6636 C6620 1.368 . S
C6636 C6632 1.368 . S
C6636 C6635 1.523 . S
H6637 C6612 0.950 . S
H6638 C6614 0.950 . S
H6639 C6615 0.949 . S
H6640 C6617 0.950 . S
H6641 C6619 0.950 . S
C6642 C6643 1.349 . S
C6642 C6644 1.327 . S
C6642 H6667 0.950 . S
C6643 C6642 1.349 . S
C6643 C6659 1.349 . S
C6644 C6642 1.327 . S
C6644 C6663 1.429 . S
C6644 H6668 0.950 . S
C6645 C6662 1.574 . S
C6645 C6664 1.368 . S
C6645 H6669 0.949 . S
H6646 C6650 0.949 . S
C6647 C6648 1.349 . S
C6647 C6649 1.327 . S
C6647 H6670 0.950 . S
C6648 C6647 1.349 . S
C6648 C6660 1.349 . S
C6649 C6647 1.327 . S
C6649 C6665 1.429 . S
C6649 H6671 0.950 . S
C6650 H6646 0.949 . S
C6650 C6658 1.574 . S
C6650 C6666 1.368 . S
H6651 C6659 0.950 . S
H6652 C6657 0.950 . S
H6653 C6658 0.949 . S
H6654 C6660 0.950 . S
H6655 C6661 0.950 . S
H6656 C6662 0.949 . S
C6657 H6652 0.950 . S
C6657 C6659 1.327 . S
C6657 C6663 1.429 . S
C6658 C6650 1.574 . S
C6658 H6653 0.949 . S
C6658 C6664 1.368 . S
C6659 C6643 1.349 . S
C6659 H6651 0.950 . S
C6659 C6657 1.327 . S
C6660 C6648 1.349 . S
C6660 H6654 0.950 . S
C6660 C6661 1.327 . S
C6661 H6655 0.950 . S
C6661 C6660 1.327 . S
C6661 C6665 1.429 . S
C6662 C6645 1.574 . S
C6662 H6656 0.949 . S
C6662 C6666 1.368 . S
C6663 C6644 1.429 . S
C6663 C6657 1.429 . S
C6663 C6664 1.523 . S
C6664 C6645 1.368 . S
C6664 C6658 1.368 . S
C6664 C6663 1.523 . S
C6665 C6649 1.429 . S
C6665 C6661 1.429 . S
C6665 C6666 1.523 . S
C6666 C6650 1.368 . S
C6666 C6662 1.368 . S
C6666 C6665 1.523 . S
H6667 C6642 0.950 . S
H6668 C6644 0.950 . S
H6669 C6645 0.949 . S
H6670 C6647 0.950 . S
H6671 C6649 0.950 . S
C6672 C6673 1.349 . S
C6672 C6674 1.327 . S
C6672 H6697 0.950 . S
C6673 C6672 1.349 . S
C6673 C6689 1.349 . S
C6674 C6672 1.327 . S
C6674 C6693 1.429 . S
C6674 H6698 0.950 . S
C6675 C6692 1.574 . S
C6675 C6694 1.368 . S
C6675 H6699 0.949 . S
H6676 C6680 0.949 . S
C6677 C6678 1.349 . S
C6677 C6679 1.327 . S
C6677 H6700 0.950 . S
C6678 C6677 1.349 . S
C6678 C6690 1.349 . S
C6679 C6677 1.327 . S
C6679 C6695 1.429 . S
C6679 H6701 0.950 . S
C6680 H6676 0.949 . S
C6680 C6688 1.574 . S
C6680 C6696 1.368 . S
H6681 C6689 0.950 . S
H6682 C6687 0.950 . S
H6683 C6688 0.949 . S
H6684 C6690 0.950 . S
H6685 C6691 0.950 . S
H6686 C6692 0.949 . S
C6687 H6682 0.950 . S
C6687 C6689 1.327 . S
C6687 C6693 1.429 . S
C6688 C6680 1.574 . S
C6688 H6683 0.949 . S
C6688 C6694 1.368 . S
C6689 C6673 1.349 . S
C6689 H6681 0.950 . S
C6689 C6687 1.327 . S
C6690 C6678 1.349 . S
C6690 H6684 0.950 . S
C6690 C6691 1.327 . S
C6691 H6685 0.950 . S
C6691 C6690 1.327 . S
C6691 C6695 1.429 . S
C6692 C6675 1.574 . S
C6692 H6686 0.949 . S
C6692 C6696 1.368 . S
C6693 C6674 1.429 . S
C6693 C6687 1.429 . S
C6693 C6694 1.523 . S
C6694 C6675 1.368 . S
C6694 C6688 1.368 . S
C6694 C6693 1.523 . S
C6695 C6679 1.429 . S
C6695 C6691 1.429 . S
C6695 C6696 1.523 . S
C6696 C6680 1.368 . S
C6696 C6692 1.368 . S
C6696 C6695 1.523 . S
H6697 C6672 0.950 . S
H6698 C6674 0.950 . S
H6699 C6675 0.949 . S
H6700 C6677 0.950 . S
H6701 C6679 0.950 . S
C6702 C6703 1.349 . S
C6702 C6704 1.327 . S
C6702 H6727 0.950 . S
C6703 C6702 1.349 . S
C6703 C6719 1.349 . S
C6704 C6702 1.327 . S
C6704 C6723 1.429 . S
C6704 H6728 0.950 . S
C6705 C6722 1.574 . S
C6705 C6724 1.368 . S
C6705 H6729 0.949 . S
H6706 C6710 0.949 . S
C6707 C6708 1.349 . S
C6707 C6709 1.327 . S
C6707 H6730 0.950 . S
C6708 C6707 1.349 . S
C6708 C6720 1.349 . S
C6709 C6707 1.327 . S
C6709 C6725 1.429 . S
C6709 H6731 0.950 . S
C6710 H6706 0.949 . S
C6710 C6718 1.574 . S
C6710 C6726 1.368 . S
H6711 C6719 0.950 . S
H6712 C6717 0.950 . S
H6713 C6718 0.949 . S
H6714 C6720 0.950 . S
H6715 C6721 0.950 . S
H6716 C6722 0.949 . S
C6717 H6712 0.950 . S
C6717 C6719 1.327 . S
C6717 C6723 1.429 . S
C6718 C6710 1.574 . S
C6718 H6713 0.949 . S
C6718 C6724 1.368 . S
C6719 C6703 1.349 . S
C6719 H6711 0.950 . S
C6719 C6717 1.327 . S
C6720 C6708 1.349 . S
C6720 H6714 0.950 . S
C6720 C6721 1.327 . S
C6721 H6715 0.950 . S
C6721 C6720 1.327 . S
C6721 C6725 1.429 . S
C6722 C6705 1.574 . S
C6722 H6716 0.949 . S
C6722 C6726 1.368 . S
C6723 C6704 1.429 . S
C6723 C6717 1.429 . S
C6723 C6724 1.523 . S
C6724 C6705 1.368 . S
C6724 C6718 1.368 . S
C6724 C6723 1.523 . S
C6725 C6709 1.429 . S
C6725 C6721 1.429 . S
C6725 C6726 1.523 . S
C6726 C6710 1.368 . S
C6726 C6722 1.368 . S
C6726 C6725 1.523 . S
H6727 C6702 0.950 . S
H6728 C6704 0.950 . S
H6729 C6705 0.949 . S
H6730 C6707 0.950 . S
H6731 C6709 0.950 . S
C6732 C6733 1.349 . S
C6732 C6734 1.327 . S
C6732 H6757 0.950 . S
C6733 C6732 1.349 . S
C6733 C6749 1.349 . S
C6734 C6732 1.327 . S
C6734 C6753 1.429 . S
C6734 H6758 0.950 . S
C6735 C6752 1.574 . S
C6735 C6754 1.368 . S
C6735 H6759 0.949 . S
H6736 C6740 0.949 . S
C6737 C6738 1.349 . S
C6737 C6739 1.327 . S
C6737 H6760 0.950 . S
C6738 C6737 1.349 . S
C6738 C6750 1.349 . S
C6739 C6737 1.327 . S
C6739 C6755 1.429 . S
C6739 H6761 0.950 . S
C6740 H6736 0.949 . S
C6740 C6748 1.574 . S
C6740 C6756 1.368 . S
H6741 C6749 0.950 . S
H6742 C6747 0.950 . S
H6743 C6748 0.949 . S
H6744 C6750 0.950 . S
H6745 C6751 0.950 . S
H6746 C6752 0.949 . S
C6747 H6742 0.950 . S
C6747 C6749 1.327 . S
C6747 C6753 1.429 . S
C6748 C6740 1.574 . S
C6748 H6743 0.949 . S
C6748 C6754 1.368 . S
C6749 C6733 1.349 . S
C6749 H6741 0.950 . S
C6749 C6747 1.327 . S
C6750 C6738 1.349 . S
C6750 H6744 0.950 . S
C6750 C6751 1.327 . S
C6751 H6745 0.950 . S
C6751 C6750 1.327 . S
C6751 C6755 1.429 . S
C6752 C6735 1.574 . S
C6752 H6746 0.949 . S
C6752 C6756 1.368 . S
C6753 C6734 1.429 . S
C6753 C6747 1.429 . S
C6753 C6754 1.523 . S
C6754 C6735 1.368 . S
C6754 C6748 1.368 . S
C6754 C6753 1.523 . S
C6755 C6739 1.429 . S
C6755 C6751 1.429 . S
C6755 C6756 1.523 . S
C6756 C6740 1.368 . S
C6756 C6752 1.368 . S
C6756 C6755 1.523 . S
H6757 C6732 0.950 . S
H6758 C6734 0.950 . S
H6759 C6735 0.949 . S
H6760 C6737 0.950 . S
H6761 C6739 0.950 . S
C6762 C6763 1.349 . S
C6762 C6764 1.327 . S
C6762 H6787 0.950 . S
C6763 C6762 1.349 . S
C6763 C6779 1.349 . S
C6764 C6762 1.327 . S
C6764 C6783 1.429 . S
C6764 H6788 0.950 . S
C6765 C6782 1.574 . S
C6765 C6784 1.368 . S
C6765 H6789 0.949 . S
H6766 C6770 0.949 . S
C6767 C6768 1.349 . S
C6767 C6769 1.327 . S
C6767 H6790 0.950 . S
C6768 C6767 1.349 . S
C6768 C6780 1.349 . S
C6769 C6767 1.327 . S
C6769 C6785 1.429 . S
C6769 H6791 0.950 . S
C6770 H6766 0.949 . S
C6770 C6778 1.574 . S
C6770 C6786 1.368 . S
H6771 C6779 0.950 . S
H6772 C6777 0.950 . S
H6773 C6778 0.949 . S
H6774 C6780 0.950 . S
H6775 C6781 0.950 . S
H6776 C6782 0.949 . S
C6777 H6772 0.950 . S
C6777 C6779 1.327 . S
C6777 C6783 1.429 . S
C6778 C6770 1.574 . S
C6778 H6773 0.949 . S
C6778 C6784 1.368 . S
C6779 C6763 1.349 . S
C6779 H6771 0.950 . S
C6779 C6777 1.327 . S
C6780 C6768 1.349 . S
C6780 H6774 0.950 . S
C6780 C6781 1.327 . S
C6781 H6775 0.950 . S
C6781 C6780 1.327 . S
C6781 C6785 1.429 . S
C6782 C6765 1.574 . S
C6782 H6776 0.949 . S
C6782 C6786 1.368 . S
C6783 C6764 1.429 . S
C6783 C6777 1.429 . S
C6783 C6784 1.523 . S
C6784 C6765 1.368 . S
C6784 C6778 1.368 . S
C6784 C6783 1.523 . S
C6785 C6769 1.429 . S
C6785 C6781 1.429 . S
C6785 C6786 1.523 . S
C6786 C6770 1.368 . S
C6786 C6782 1.368 . S
C6786 C6785 1.523 . S
H6787 C6762 0.950 . S
H6788 C6764 0.950 . S
H6789 C6765 0.949 . S
H6790 C6767 0.950 . S
H6791 C6769 0.950 . S
C6792 C6793 1.349 . S
C6792 C6794 1.327 . S
C6792 H6817 0.950 . S
C6793 C6792 1.349 . S
C6793 C6809 1.349 . S
C6794 C6792 1.327 . S
C6794 C6813 1.429 . S
C6794 H6818 0.950 . S
C6795 C6812 1.574 . S
C6795 C6814 1.368 . S
C6795 H6819 0.949 . S
H6796 C6800 0.949 . S
C6797 C6798 1.349 . S
C6797 C6799 1.327 . S
C6797 H6820 0.950 . S
C6798 C6797 1.349 . S
C6798 C6810 1.349 . S
C6799 C6797 1.327 . S
C6799 C6815 1.429 . S
C6799 H6821 0.950 . S
C6800 H6796 0.949 . S
C6800 C6808 1.574 . S
C6800 C6816 1.368 . S
H6801 C6809 0.950 . S
H6802 C6807 0.950 . S
H6803 C6808 0.949 . S
H6804 C6810 0.950 . S
H6805 C6811 0.950 . S
H6806 C6812 0.949 . S
C6807 H6802 0.950 . S
C6807 C6809 1.327 . S
C6807 C6813 1.429 . S
C6808 C6800 1.574 . S
C6808 H6803 0.949 . S
C6808 C6814 1.368 . S
C6809 C6793 1.349 . S
C6809 H6801 0.950 . S
C6809 C6807 1.327 . S
C6810 C6798 1.349 . S
C6810 H6804 0.950 . S
C6810 C6811 1.327 . S
C6811 H6805 0.950 . S
C6811 C6810 1.327 . S
C6811 C6815 1.429 . S
C6812 C6795 1.574 . S
C6812 H6806 0.949 . S
C6812 C6816 1.368 . S
C6813 C6794 1.429 . S
C6813 C6807 1.429 . S
C6813 C6814 1.523 . S
C6814 C6795 1.368 . S
C6814 C6808 1.368 . S
C6814 C6813 1.523 . S
C6815 C6799 1.429 . S
C6815 C6811 1.429 . S
C6815 C6816 1.523 . S
C6816 C6800 1.368 . S
C6816 C6812 1.368 . S
C6816 C6815 1.523 . S
H6817 C6792 0.950 . S
H6818 C6794 0.950 . S
H6819 C6795 0.949 . S
H6820 C6797 0.950 . S
H6821 C6799 0.950 . S
C6822 C6823 1.349 . S
C6822 C6824 1.327 . S
C6822 H6847 0.950 . S
C6823 C6822 1.349 . S
C6823 C6839 1.349 . S
C6824 C6822 1.327 . S
C6824 C6843 1.429 . S
C6824 H6848 0.950 . S
C6825 C6842 1.574 . S
C6825 C6844 1.368 . S
C6825 H6849 0.949 . S
H6826 C6830 0.949 . S
C6827 C6828 1.349 . S
C6827 C6829 1.327 . S
C6827 H6850 0.950 . S
C6828 C6827 1.349 . S
C6828 C6840 1.349 . S
C6829 C6827 1.327 . S
C6829 C6845 1.429 . S
C6829 H6851 0.950 . S
C6830 H6826 0.949 . S
C6830 C6838 1.574 . S
C6830 C6846 1.368 . S
H6831 C6839 0.950 . S
H6832 C6837 0.950 . S
H6833 C6838 0.949 . S
H6834 C6840 0.950 . S
H6835 C6841 0.950 . S
H6836 C6842 0.949 . S
C6837 H6832 0.950 . S
C6837 C6839 1.327 . S
C6837 C6843 1.429 . S
C6838 C6830 1.574 . S
C6838 H6833 0.949 . S
C6838 C6844 1.368 . S
C6839 C6823 1.349 . S
C6839 H6831 0.950 . S
C6839 C6837 1.327 . S
C6840 C6828 1.349 . S
C6840 H6834 0.950 . S
C6840 C6841 1.327 . S
C6841 H6835 0.950 . S
C6841 C6840 1.327 . S
C6841 C6845 1.429 . S
C6842 C6825 1.574 . S
C6842 H6836 0.949 . S
C6842 C6846 1.368 . S
C6843 C6824 1.429 . S
C6843 C6837 1.429 . S
C6843 C6844 1.523 . S
C6844 C6825 1.368 . S
C6844 C6838 1.368 . S
C6844 C6843 1.523 . S
C6845 C6829 1.429 . S
C6845 C6841 1.429 . S
C6845 C6846 1.523 . S
C6846 C6830 1.368 . S
C6846 C6842 1.368 . S
C6846 C6845 1.523 . S
H6847 C6822 0.950 . S
H6848 C6824 0.950 . S
H6849 C6825 0.949 . S
H6850 C6827 0.950 . S
H6851 C6829 0.950 . S
C6852 C6853 1.349 . S
C6852 C6854 1.327 . S
C6852 H6877 0.950 . S
C6853 C6852 1.349 . S
C6853 C6869 1.349 . S
C6854 C6852 1.327 . S
C6854 C6873 1.429 1_655 S
C6854 H6878 0.984 . S
C6855 C6872 1.574 . S
C6855 C6874 1.368 . S
C6855 H6879 0.949 . S
H6856 C6860 0.949 . S
C6857 C6858 1.349 . S
C6857 C6859 1.327 . S
C6857 H6880 0.950 . S
C6858 C6857 1.349 . S
C6858 C6870 1.349 . S
C6859 C6857 1.327 . S
C6859 C6875 1.429 . S
C6859 H6881 0.950 . S
C6860 H6856 0.949 . S
C6860 C6868 1.574 . S
C6860 C6876 1.368 . S
H6861 C6869 0.950 . S
H6862 C6867 0.950 . S
H6863 C6868 0.949 . S
H6864 C6870 0.950 . S
H6865 C6871 0.950 . S
H6866 C6872 0.949 . S
C6867 H6862 0.950 . S
C6867 C6869 1.327 1_455 S
C6867 C6873 1.429 . S
C6868 C6860 1.574 . S
C6868 H6863 0.949 . S
C6868 C6874 1.368 . S
C6869 C6853 1.349 . S
C6869 H6861 0.950 . S
C6869 C6867 1.327 1_655 S
C6870 C6858 1.349 . S
C6870 H6864 0.950 . S
C6870 C6871 1.327 . S
C6871 H6865 0.950 . S
C6871 C6870 1.327 . S
C6871 C6875 1.429 . S
C6872 C6855 1.574 . S
C6872 H6866 0.949 . S
C6872 C6876 1.368 . S
C6873 C6854 1.429 1_455 S
C6873 C6867 1.429 . S
C6873 C6874 1.523 . S
C6874 C6855 1.368 . S
C6874 C6868 1.368 . S
C6874 C6873 1.523 . S
C6875 C6859 1.429 . S
C6875 C6871 1.429 . S
C6875 C6876 1.523 . S
C6876 C6860 1.368 . S
C6876 C6872 1.368 . S
C6876 C6875 1.523 . S
H6877 C6852 0.950 . S
H6878 C6854 0.984 . S
H6879 C6855 0.949 . S
H6880 C6857 0.950 . S
H6881 C6859 0.950 . S
C6882 C6883 1.349 . S
C6882 C6884 1.327 . S
C6882 H6907 0.950 . S
C6883 C6882 1.349 . S
C6883 C6899 1.349 . S
C6884 C6882 1.327 . S
C6884 C6903 1.429 . S
C6884 H6908 0.950 . S
C6885 C6902 1.574 . S
C6885 C6904 1.368 . S
C6885 H6909 0.949 . S
H6886 C6890 0.949 . S
C6887 C6888 1.349 . S
C6887 C6889 1.327 . S
C6887 H6910 0.950 . S
C6888 C6887 1.349 . S
C6888 C6900 1.349 . S
C6889 C6887 1.327 . S
C6889 C6905 1.429 . S
C6889 H6911 0.950 . S
C6890 H6886 0.949 . S
C6890 C6898 1.574 . S
C6890 C6906 1.368 . S
H6891 C6899 0.950 . S
H6892 C6897 0.950 . S
H6893 C6898 0.949 . S
H6894 C6900 0.950 . S
H6895 C6901 0.950 . S
H6896 C6902 0.949 . S
C6897 H6892 0.950 . S
C6897 C6899 1.327 . S
C6897 C6903 1.429 . S
C6898 C6890 1.574 . S
C6898 H6893 0.949 . S
C6898 C6904 1.368 . S
C6899 C6883 1.349 . S
C6899 H6891 0.950 . S
C6899 C6897 1.327 . S
C6900 C6888 1.349 . S
C6900 H6894 0.950 . S
C6900 C6901 1.327 . S
C6901 H6895 0.950 . S
C6901 C6900 1.327 . S
C6901 C6905 1.429 . S
C6902 C6885 1.574 . S
C6902 H6896 0.949 . S
C6902 C6906 1.368 . S
C6903 C6884 1.429 . S
C6903 C6897 1.429 . S
C6903 C6904 1.523 . S
C6904 C6885 1.368 . S
C6904 C6898 1.368 . S
C6904 C6903 1.523 . S
C6905 C6889 1.429 . S
C6905 C6901 1.429 . S
C6905 C6906 1.523 . S
C6906 C6890 1.368 . S
C6906 C6902 1.368 . S
C6906 C6905 1.523 . S
H6907 C6882 0.950 . S
H6908 C6884 0.950 . S
H6909 C6885 0.949 . S
H6910 C6887 0.950 . S
H6911 C6889 0.950 . S
C6912 C6913 1.349 . S
C6912 C6914 1.327 . S
C6912 H6937 0.950 . S
C6913 C6912 1.349 . S
C6913 C6929 1.349 . S
C6914 C6912 1.327 . S
C6914 C6933 1.429 . S
C6914 H6938 0.950 . S
C6915 C6932 1.574 . S
C6915 C6934 1.368 . S
C6915 H6939 0.949 . S
H6916 C6920 0.949 . S
C6917 C6918 1.349 . S
C6917 C6919 1.327 . S
C6917 H6940 0.950 . S
C6918 C6917 1.349 . S
C6918 C6930 1.349 . S
C6919 C6917 1.327 . S
C6919 C6935 1.429 . S
C6919 H6941 0.950 . S
C6920 H6916 0.949 . S
C6920 C6928 1.574 . S
C6920 C6936 1.368 . S
H6921 C6929 0.950 . S
H6922 C6927 0.950 . S
H6923 C6928 0.949 . S
H6924 C6930 0.950 . S
H6925 C6931 0.950 . S
H6926 C6932 0.949 . S
C6927 H6922 0.950 . S
C6927 C6929 1.327 . S
C6927 C6933 1.429 . S
C6928 C6920 1.574 . S
C6928 H6923 0.949 . S
C6928 C6934 1.368 . S
C6929 C6913 1.349 . S
C6929 H6921 0.950 . S
C6929 C6927 1.327 . S
C6930 C6918 1.349 . S
C6930 H6924 0.950 . S
C6930 C6931 1.327 . S
C6931 H6925 0.950 . S
C6931 C6930 1.327 . S
C6931 C6935 1.429 . S
C6932 C6915 1.574 . S
C6932 H6926 0.949 . S
C6932 C6936 1.368 . S
C6933 C6914 1.429 . S
C6933 C6927 1.429 . S
C6933 C6934 1.523 . S
C6934 C6915 1.368 . S
C6934 C6928 1.368 . S
C6934 C6933 1.523 . S
C6935 C6919 1.429 . S
C6935 C6931 1.429 . S
C6935 C6936 1.523 . S
C6936 C6920 1.368 . S
C6936 C6932 1.368 . S
C6936 C6935 1.523 . S
H6937 C6912 0.950 . S
H6938 C6914 0.950 . S
H6939 C6915 0.949 . S
H6940 C6917 0.950 . S
H6941 C6919 0.950 . S
C6942 C6943 1.349 . S
C6942 C6944 1.327 . S
C6942 H6967 0.950 . S
C6943 C6942 1.349 . S
C6943 C6959 1.349 . S
C6944 C6942 1.327 . S
C6944 C6963 1.429 . S
C6944 H6968 0.950 . S
C6945 C6962 1.574 . S
C6945 C6964 1.368 . S
C6945 H6969 0.949 . S
H6946 C6950 0.949 . S
C6947 C6948 1.349 . S
C6947 C6949 1.327 . S
C6947 H6970 0.950 . S
C6948 C6947 1.349 . S
C6948 C6960 1.349 . S
C6949 C6947 1.327 . S
C6949 C6965 1.429 . S
C6949 H6971 0.950 . S
C6950 H6946 0.949 . S
C6950 C6958 1.574 . S
C6950 C6966 1.368 . S
H6951 C6959 0.950 . S
H6952 C6957 0.950 . S
H6953 C6958 0.949 . S
H6954 C6960 0.950 . S
H6955 C6961 0.950 . S
H6956 C6962 0.949 . S
C6957 H6952 0.950 . S
C6957 C6959 1.327 . S
C6957 C6963 1.429 . S
C6958 C6950 1.574 . S
C6958 H6953 0.949 . S
C6958 C6964 1.368 . S
C6959 C6943 1.349 . S
C6959 H6951 0.950 . S
C6959 C6957 1.327 . S
C6960 C6948 1.349 . S
C6960 H6954 0.950 . S
C6960 C6961 1.327 . S
C6961 H6955 0.950 . S
C6961 C6960 1.327 . S
C6961 C6965 1.429 . S
C6962 C6945 1.574 . S
C6962 H6956 0.949 . S
C6962 C6966 1.368 . S
C6963 C6944 1.429 . S
C6963 C6957 1.429 . S
C6963 C6964 1.523 . S
C6964 C6945 1.368 . S
C6964 C6958 1.368 . S
C6964 C6963 1.523 . S
C6965 C6949 1.429 . S
C6965 C6961 1.429 . S
C6965 C6966 1.523 . S
C6966 C6950 1.368 . S
C6966 C6962 1.368 . S
C6966 C6965 1.523 . S
H6967 C6942 0.950 . S
H6968 C6944 0.950 . S
H6969 C6945 0.949 . S
H6970 C6947 0.950 . S
H6971 C6949 0.950 . S
C6972 C6973 1.349 . S
C6972 C6974 1.327 . S
C6972 H6997 0.950 . S
C6973 C6972 1.349 . S
C6973 C6989 1.349 . S
C6974 C6972 1.327 . S
C6974 C6993 1.429 . S
C6974 H6998 0.950 . S
C6975 C6992 1.574 . S
C6975 C6994 1.368 . S
C6975 H6999 0.949 . S
H6976 C6980 0.949 . S
C6977 C6978 1.349 . S
C6977 C6979 1.327 . S
C6977 H7000 0.950 . S
C6978 C6977 1.349 . S
C6978 C6990 1.349 . S
C6979 C6977 1.327 . S
C6979 C6995 1.429 . S
C6979 H7001 0.950 . S
C6980 H6976 0.949 . S
C6980 C6988 1.574 . S
C6980 C6996 1.368 . S
H6981 C6989 0.950 . S
H6982 C6987 0.950 . S
H6983 C6988 0.949 . S
H6984 C6990 0.950 . S
H6985 C6991 0.950 . S
H6986 C6992 0.949 . S
C6987 H6982 0.950 . S
C6987 C6989 1.327 . S
C6987 C6993 1.429 . S
C6988 C6980 1.574 . S
C6988 H6983 0.949 . S
C6988 C6994 1.368 . S
C6989 C6973 1.349 . S
C6989 H6981 0.950 . S
C6989 C6987 1.327 . S
C6990 C6978 1.349 . S
C6990 H6984 0.950 . S
C6990 C6991 1.327 . S
C6991 H6985 0.950 . S
C6991 C6990 1.327 . S
C6991 C6995 1.429 . S
C6992 C6975 1.574 . S
C6992 H6986 0.949 . S
C6992 C6996 1.368 . S
C6993 C6974 1.429 . S
C6993 C6987 1.429 . S
C6993 C6994 1.523 . S
C6994 C6975 1.368 . S
C6994 C6988 1.368 . S
C6994 C6993 1.523 . S
C6995 C6979 1.429 . S
C6995 C6991 1.429 . S
C6995 C6996 1.523 . S
C6996 C6980 1.368 . S
C6996 C6992 1.368 . S
C6996 C6995 1.523 . S
H6997 C6972 0.950 . S
H6998 C6974 0.950 . S
H6999 C6975 0.949 . S
H7000 C6977 0.950 . S
H7001 C6979 0.950 . S
C7002 C7003 1.349 . S
C7002 C7004 1.327 . S
C7002 H7027 0.950 . S
C7003 C7002 1.349 . S
C7003 C7019 1.349 . S
C7004 C7002 1.327 . S
C7004 C7023 1.429 . S
C7004 H7028 0.950 . S
C7005 C7022 1.574 . S
C7005 C7024 1.368 . S
C7005 H7029 0.949 . S
H7006 C7010 0.949 . S
C7007 C7008 1.349 . S
C7007 C7009 1.327 . S
C7007 H7030 0.950 . S
C7008 C7007 1.349 . S
C7008 C7020 1.349 . S
C7009 C7007 1.327 . S
C7009 C7025 1.429 . S
C7009 H7031 0.950 . S
C7010 H7006 0.949 . S
C7010 C7018 1.574 . S
C7010 C7026 1.368 . S
H7011 C7019 0.950 . S
H7012 C7017 0.950 . S
H7013 C7018 0.949 . S
H7014 C7020 0.950 . S
H7015 C7021 0.950 . S
H7016 C7022 0.949 . S
C7017 H7012 0.950 . S
C7017 C7019 1.327 . S
C7017 C7023 1.429 . S
C7018 C7010 1.574 . S
C7018 H7013 0.949 . S
C7018 C7024 1.368 . S
C7019 C7003 1.349 . S
C7019 H7011 0.950 . S
C7019 C7017 1.327 . S
C7020 C7008 1.349 . S
C7020 H7014 0.950 . S
C7020 C7021 1.327 . S
C7021 H7015 0.950 . S
C7021 C7020 1.327 . S
C7021 C7025 1.429 . S
C7022 C7005 1.574 . S
C7022 H7016 0.949 . S
C7022 C7026 1.368 . S
C7023 C7004 1.429 . S
C7023 C7017 1.429 . S
C7023 C7024 1.523 . S
C7024 C7005 1.368 . S
C7024 C7018 1.368 . S
C7024 C7023 1.523 . S
C7025 C7009 1.429 . S
C7025 C7021 1.429 . S
C7025 C7026 1.523 . S
C7026 C7010 1.368 . S
C7026 C7022 1.368 . S
C7026 C7025 1.523 . S
H7027 C7002 0.950 . S
H7028 C7004 0.950 . S
H7029 C7005 0.949 . S
H7030 C7007 0.950 . S
H7031 C7009 0.950 . S
C7032 C7033 1.349 . S
C7032 C7034 1.327 . S
C7032 H7057 0.950 . S
C7033 C7032 1.349 . S
C7033 C7049 1.349 . S
C7034 C7032 1.327 . S
C7034 C7053 1.429 . S
C7034 H7058 0.950 . S
C7035 C7052 1.574 . S
C7035 C7054 1.368 . S
C7035 H7059 0.949 . S
H7036 C7040 0.949 . S
C7037 C7038 1.349 . S
C7037 C7039 1.327 . S
C7037 H7060 0.950 . S
C7038 C7037 1.349 . S
C7038 C7050 1.349 . S
C7039 C7037 1.327 . S
C7039 C7055 1.429 . S
C7039 H7061 0.950 . S
C7040 H7036 0.949 . S
C7040 C7048 1.574 . S
C7040 C7056 1.368 . S
H7041 C7049 0.950 . S
H7042 C7047 0.950 . S
H7043 C7048 0.949 . S
H7044 C7050 0.950 . S
H7045 C7051 0.950 . S
H7046 C7052 0.949 . S
C7047 H7042 0.950 . S
C7047 C7049 1.327 . S
C7047 C7053 1.429 . S
C7048 C7040 1.574 . S
C7048 H7043 0.949 . S
C7048 C7054 1.368 . S
C7049 C7033 1.349 . S
C7049 H7041 0.950 . S
C7049 C7047 1.327 . S
C7050 C7038 1.349 . S
C7050 H7044 0.950 . S
C7050 C7051 1.327 . S
C7051 H7045 0.950 . S
C7051 C7050 1.327 . S
C7051 C7055 1.429 . S
C7052 C7035 1.574 . S
C7052 H7046 0.949 . S
C7052 C7056 1.368 . S
C7053 C7034 1.429 . S
C7053 C7047 1.429 . S
C7053 C7054 1.523 . S
C7054 C7035 1.368 . S
C7054 C7048 1.368 . S
C7054 C7053 1.523 . S
C7055 C7039 1.429 . S
C7055 C7051 1.429 . S
C7055 C7056 1.523 . S
C7056 C7040 1.368 . S
C7056 C7052 1.368 . S
C7056 C7055 1.523 . S
H7057 C7032 0.950 . S
H7058 C7034 0.950 . S
H7059 C7035 0.949 . S
H7060 C7037 0.950 . S
H7061 C7039 0.950 . S
C7062 C7063 1.349 . S
C7062 C7064 1.327 . S
C7062 H7087 0.950 . S
C7063 C7062 1.349 . S
C7063 C7079 1.349 . S
C7064 C7062 1.327 . S
C7064 C7083 1.429 . S
C7064 H7088 0.950 . S
C7065 C7082 1.574 . S
C7065 C7084 1.368 . S
C7065 H7089 0.949 . S
H7066 C7070 0.949 . S
C7067 C7068 1.349 . S
C7067 C7069 1.327 . S
C7067 H7090 0.950 . S
C7068 C7067 1.349 . S
C7068 C7080 1.349 . S
C7069 C7067 1.327 . S
C7069 C7085 1.429 . S
C7069 H7091 0.950 . S
C7070 H7066 0.949 . S
C7070 C7078 1.574 . S
C7070 C7086 1.368 . S
H7071 C7079 0.950 . S
H7072 C7077 0.950 . S
H7073 C7078 0.949 . S
H7074 C7080 0.950 . S
H7075 C7081 0.950 . S
H7076 C7082 0.949 . S
C7077 H7072 0.950 . S
C7077 C7079 1.327 . S
C7077 C7083 1.429 . S
C7078 C7070 1.574 . S
C7078 H7073 0.949 . S
C7078 C7084 1.368 . S
C7079 C7063 1.349 . S
C7079 H7071 0.950 . S
C7079 C7077 1.327 . S
C7080 C7068 1.349 . S
C7080 H7074 0.950 . S
C7080 C7081 1.327 . S
C7081 H7075 0.950 . S
C7081 C7080 1.327 . S
C7081 C7085 1.429 . S
C7082 C7065 1.574 . S
C7082 H7076 0.949 . S
C7082 C7086 1.368 . S
C7083 C7064 1.429 . S
C7083 C7077 1.429 . S
C7083 C7084 1.523 . S
C7084 C7065 1.368 . S
C7084 C7078 1.368 . S
C7084 C7083 1.523 . S
C7085 C7069 1.429 . S
C7085 C7081 1.429 . S
C7085 C7086 1.523 . S
C7086 C7070 1.368 . S
C7086 C7082 1.368 . S
C7086 C7085 1.523 . S
H7087 C7062 0.950 . S
H7088 C7064 0.950 . S
H7089 C7065 0.949 . S
H7090 C7067 0.950 . S
H7091 C7069 0.950 . S
C7092 C7093 1.336 . S
C7092 C7094 1.348 . S
C7092 H7117 0.941 1_545 S
C7093 C7092 1.336 . S
C7093 C7109 1.349 . S
C7094 C7092 1.348 . S
C7094 C7113 1.429 . S
C7094 H7118 0.931 . S
C7095 C7112 1.574 . S
C7095 C7114 1.368 . S
C7095 H7119 0.949 . S
H7096 C7100 0.949 . S
C7097 C7098 1.349 . S
C7097 C7099 1.327 . S
C7097 H7120 0.950 . S
C7098 C7097 1.349 . S
C7098 C7110 1.349 . S
C7099 C7097 1.327 . S
C7099 C7115 1.429 . S
C7099 H7121 0.950 . S
C7100 H7096 0.949 . S
C7100 C7108 1.574 . S
C7100 C7116 1.368 . S
H7101 C7109 0.950 . S
H7102 C7107 0.950 . S
H7103 C7108 0.949 . S
H7104 C7110 0.950 . S
H7105 C7111 0.950 . S
H7106 C7112 0.949 . S
C7107 H7102 0.950 . S
C7107 C7109 1.327 . S
C7107 C7113 1.429 . S
C7108 C7100 1.574 . S
C7108 H7103 0.949 . S
C7108 C7114 1.368 . S
C7109 C7093 1.349 . S
C7109 H7101 0.950 . S
C7109 C7107 1.327 . S
C7110 C7098 1.349 . S
C7110 H7104 0.950 . S
C7110 C7111 1.327 . S
C7111 H7105 0.950 . S
C7111 C7110 1.327 . S
C7111 C7115 1.429 . S
C7112 C7095 1.574 . S
C7112 H7106 0.949 . S
C7112 C7116 1.368 . S
C7113 C7094 1.429 . S
C7113 C7107 1.429 . S
C7113 C7114 1.523 . S
C7114 C7095 1.368 . S
C7114 C7108 1.368 . S
C7114 C7113 1.523 . S
C7115 C7099 1.429 . S
C7115 C7111 1.429 . S
C7115 C7116 1.523 . S
C7116 C7100 1.368 . S
C7116 C7112 1.368 . S
C7116 C7115 1.523 . S
H7117 C7092 0.941 1_565 S
H7118 C7094 0.931 . S
H7119 C7095 0.949 . S
H7120 C7097 0.950 . S
H7121 C7099 0.950 . S
C7122 C7123 1.349 . S
C7122 C7124 1.327 . S
C7122 H7147 0.892 1_565 S
C7123 C7122 1.349 . S
C7123 C7139 1.349 . S
C7124 C7122 1.327 . S
C7124 C7143 1.429 . S
C7124 H7148 0.947 . S
C7125 C7142 1.574 . S
C7125 C7144 1.368 . S
C7125 H7149 0.949 . S
H7126 C7130 0.949 . S
C7127 C7128 1.349 . S
C7127 C7129 1.327 . S
C7127 H7150 0.950 . S
C7128 C7127 1.349 . S
C7128 C7140 1.349 . S
C7129 C7127 1.327 . S
C7129 C7145 1.429 . S
C7129 H7151 0.950 . S
C7130 H7126 0.949 . S
C7130 C7138 1.574 . S
C7130 C7146 1.368 . S
H7131 C7139 0.950 . S
H7132 C7137 0.950 . S
H7133 C7138 1.009 . S
H7134 C7140 0.950 . S
H7135 C7141 0.950 . S
H7136 C7142 0.949 . S
C7137 H7132 0.950 . S
C7137 C7139 1.327 . S
C7137 C7143 1.429 . S
C7138 C7130 1.574 . S
C7138 H7133 1.009 . S
C7138 C7144 1.368 . S
C7139 C7123 1.349 . S
C7139 H7131 0.950 . S
C7139 C7137 1.327 . S
C7140 C7128 1.349 . S
C7140 H7134 0.950 . S
C7140 C7141 1.327 . S
C7141 H7135 0.950 . S
C7141 C7140 1.327 . S
C7141 C7145 1.429 . S
C7142 C7125 1.574 . S
C7142 H7136 0.949 . S
C7142 C7146 1.368 . S
C7143 C7124 1.429 . S
C7143 C7137 1.429 . S
C7143 C7144 1.523 . S
C7144 C7125 1.368 . S
C7144 C7138 1.368 . S
C7144 C7143 1.523 . S
C7145 C7129 1.429 . S
C7145 C7141 1.429 . S
C7145 C7146 1.523 . S
C7146 C7130 1.368 . S
C7146 C7142 1.368 . S
C7146 C7145 1.523 . S
H7147 C7122 0.892 1_545 S
H7148 C7124 0.947 . S
H7149 C7125 0.949 . S
H7150 C7127 0.950 . S
H7151 C7129 0.950 . S
C2833 C1781 1.698 . S
C2838 C1922 1.743 . S
C2863 C981 1.502 . S
C2868 C1941 1.527 . S
C2898 C1960 1.428 . S
C2893 C1861 1.451 . S
C2923 C1061 1.784 . S
C2928 C1979 1.783 . S
C2953 C1901 1.859 . S
C2958 C1998 1.803 . S
C2983 C941 1.586 . S
C2988 C2017 1.596 . S
C3013 C1821 1.693 . S
C3018 C2036 1.648 . S
C3043 C1021 1.239 . S
C3048 C2055 1.205 . S
C3073 C661 1.492 . S
C3078 C2074 1.501 . S
C3103 C1621 1.097 . S
C3108 C2093 1.100 . S
C3133 C741 1.834 . S
C3138 C2112 1.866 . S
C3163 C1581 1.586 . S
C3168 C2131 1.565 . S
C3193 C901 1.558 . S
C3198 C2150 1.542 . S
C3228 C2169 1.942 . S
C3223 C1661 1.921 . S
C3258 C2188 1.782 . S
C3253 C821 1.836 . S
C3283 C1141 1.549 . S
C3288 C2207 1.603 . S
C3318 C2226 1.838 . S
C3313 C781 1.829 . S
C3348 C2245 1.529 . S
C3343 C1701 1.588 . S
C3373 C861 1.728 . S
C3378 C2264 1.808 . S
C3403 C1181 1.875 . S
C3408 C2283 1.910 . S
C3438 C2302 1.340 . S
C3433 C1101 1.355 . S
C3463 C1421 1.603 . S
C3468 C2321 1.547 . S
C3498 C2340 1.950 . S
C3493 C381 1.988 . S
C3528 C2359 1.676 . S
C3523 C1501 1.718 . S
C3558 C2378 1.515 . S
C3553 C461 1.495 . S
C3588 C2397 1.595 . S
C3583 C1541 1.587 . S
C3613 C341 1.401 . S
C3618 C2416 1.332 . S
C3648 C2435 1.796 . S
C3643 C1461 1.802 . S
C3673 C421 1.564 . S
C3678 C2454 1.523 . S
C3708 C2473 1.760 . S
C3703 C61 1.797 . S
C3738 C2492 1.650 . S
C3733 C1261 1.597 . S
C3763 C141 1.704 . S
C3768 C2511 1.660 . S
C3798 C2530 1.495 . S
C3793 C1221 1.503 . S
C3828 C2549 1.316 . S
C3823 C301 1.354 . S
C3853 C1301 1.693 . S
C3858 C2568 1.641 . S
C3888 C2587 1.241 . S
C3883 C221 1.250 . S
C3918 C2606 1.993 . S
C3913 C541 1.945 . S
C3943 C181 1.663 . S
C3948 C2625 1.616 . S
C3978 C2644 1.164 . S
C3973 C1341 1.179 . S
C4003 C261 1.940 . S
C4008 C2663 1.987 . S
C4038 C2682 1.603 . S
C4033 C581 1.662 . S
C4063 C501 1.742 . S
C4068 C2701 1.703 . S
C4093 C701 1.151 . S
C4098 C2720 1.149 . S
C4128 C2739 1.356 . S
C4123 C621 1.376 . S
C4153 C1741 1.559 . S
C4158 C2758 1.542 . S
C4183 C101 1.509 . S
C4188 C2777 1.557 . S
C4218 C2796 1.149 . S
C4213 C21 1.155 . S
C4248 C2815 1.260 . S
C4243 C1381 1.302 . S
C4273 C1335 1.867 . S
C4278 C1926 1.872 . S
C4303 C535 1.696 . S
C4308 C1950 1.724 . S
C4333 C1362 1.793 . S
C4338 C1964 1.748 . S
C4368 C1983 1.565 . S
C4363 C1295 1.555 . S
C4393 C575 1.651 . S
C4398 C2007 1.500 . S
C4423 C1215 1.846 . S
C4428 C2026 1.818 . S
C4458 C2040 1.973 . S
C4453 C495 1.962 . S
C4483 C1242 1.409 . S
C4488 C2064 1.375 . S
C4513 C1255 1.495 . S
C4518 C2078 1.443 . S
C4548 C2102 1.647 . S
C4543 C562 1.686 . S
C4573 C1202 2.136 . S
C4578 C2116 2.080 . S
C4608 C2140 1.637 . S
C4603 C482 1.707 . S
C4633 C522 1.469 1_455 S
C4638 C2159 1.397 . S
C4663 C1375 1.929 . S
C4668 C2173 1.937 . S
C4698 C2197 1.577 . S
C4693 C1282 1.625 . S
C4728 C2211 1.998 . S
C4723 C1322 2.019 . S
C4753 C455 1.803 . S
C4758 C2135 1.783 . S
C4783 C1415 1.451 . S
C4788 C2235 1.306 . S
C4813 C1455 1.520 . S
C4818 C2249 1.494 . S
C4848 C2273 1.935 . S
C4843 C1482 1.970 . S
C4878 C2154 1.576 . S
C4873 C442 1.535 . S
C4903 C362 1.798 . S
C4908 C2097 1.739 . S
C4933 C1495 1.951 . S
C4938 C2292 1.780 . S
C4968 C2311 1.602 . S
C4963 C1402 1.733 . S
C4998 C2325 1.652 . S
C4993 C1695 1.679 . S
C5023 C1135 1.916 . S
C5028 C2344 1.955 . S
C5058 C2368 1.500 . S
C5053 C1722 1.578 . S
C5088 C2382 1.878 . S
C5083 C1655 1.861 . S
C5113 C1175 1.714 . S
C5118 C2406 1.678 . S
C5143 C1562 1.987 . S
C5148 C2425 1.883 . S
C5173 C1095 1.408 . S
C5178 C2439 1.417 . S
C5208 C2458 1.744 . S
C5203 C1615 1.723 . S
C5238 C2477 1.974 . S
C5233 C1602 1.962 . S
C5263 C1162 1.443 . S
C5268 C2501 1.427 . S
C5298 C2515 2.097 . S
C5293 C1575 2.137 . S
C5323 C1082 1.422 . S
C5328 C2539 1.412 . S
C5358 C2558 1.638 . S
C5353 C1122 1.681 1_655 S
C5383 C1735 1.686 . S
C5388 C2572 1.656 . S
C5418 C2596 1.562 . S
C5413 C1642 1.573 . S
C5443 C1682 1.828 . S
C5448 C2615 1.721 . S
C5473 C1042 1.802 . S
C5478 C2534 1.834 . S
C5503 C1775 1.743 . S
C5508 C2634 1.701 . S
C5533 C1815 1.740 . S
C5538 C2648 1.699 . S
C5568 C2667 1.600 . S
C5563 C1842 1.615 . S
C5593 C1055 1.731 . S
C5598 C2553 1.725 . S
C5623 C975 1.974 . S
C5628 C2496 2.025 . S
C5658 C2691 2.035 . S
C5653 C1855 2.045 . S
C5683 C1762 1.770 . S
C5688 C2710 1.854 . S
C5718 C2021 1.735 . S
C5713 C215 1.742 . S
C5748 C2045 1.726 . S
C5743 C255 1.701 . S
C5778 C2059 1.592 . S
C5773 C282 1.656 . S
C5808 C2002 1.439 . S
C5803 C175 1.449 . S
C5838 C1988 1.580 . S
C5833 C135 1.737 . S
C5863 C15 1.818 . S
C5868 C1931 1.796 . S
C5893 C55 2.020 . S
C5898 C1945 2.033 . S
C5923 C82 1.522 . S
C5928 C1969 1.492 . S
C5953 C95 1.663 . S
C5958 C2306 1.619 . S
C5983 C122 1.669 . S
C5988 C2729 1.635 . S
C6013 C2 2.150 . S
C6018 C2287 2.100 . S
C6043 C42 1.627 . S
C6048 C2748 1.560 . S
C6073 C242 1.485 . S
C6078 C2767 1.415 . S
C6108 C2230 1.825 . S
C6103 C295 1.828 . S
C6133 C162 1.547 1_655 S
C6138 C2254 1.487 . S
C6163 C202 1.824 . S
C6168 C2268 1.813 . S
C6198 C2743 1.540 . S
C6193 C1535 1.578 . S
C6223 C335 1.519 . S
C6228 C2178 1.404 . S
C6253 C375 1.850 . S
C6258 C2192 1.873 . S
C6283 C402 1.863 . S
C6288 C2216 1.820 . S
C6318 C2762 1.590 . S
C6313 C1522 1.549 . S
C6348 C2724 1.551 . S
C6343 C1442 1.519 . S
C6378 C2121 1.643 . S
C6373 C415 1.819 . S
C6403 C322 1.853 . S
C6408 C2083 1.705 . S
C6433 C815 1.889 . S
C6438 C2420 1.831 . S
C6463 C855 1.748 . S
C6468 C2444 1.675 . S
C6493 C882 1.480 . S
C6498 C2463 1.409 . S
C6523 C775 1.801 . S
C6528 C2401 1.815 . S
C6558 C2387 1.645 . S
C6553 C735 1.675 . S
C6588 C2330 1.676 . S
C6583 C602 1.762 . S
C6618 C2349 1.329 . S
C6613 C655 1.384 . S
C6643 C695 1.711 . S
C6648 C2363 1.717 . S
C6678 C2705 1.764 . S
C6673 C682 1.765 . S
C6703 C722 1.347 . S
C6708 C2786 1.348 . S
C6733 C615 1.980 . S
C6738 C2686 1.925 . S
C6768 C2805 1.481 . S
C6763 C642 1.453 . S
C6793 C842 1.742 . S
C6798 C2824 1.704 . S
C6828 C2629 1.525 . S
C6823 C895 1.561 . S
C6853 C762 1.525 . S
C6858 C2653 1.519 . S
C6883 C802 1.868 . S
C6888 C2672 1.772 . S
C6913 C1895 1.672 . S
C6918 C2800 1.637 . S
C6948 C2577 1.592 . S
C6943 C935 1.650 . S
C6973 C962 1.674 . S
C6978 C2591 1.696 . S
C7003 C1002 1.761 . S
C7008 C2610 1.756 . S
C7033 C1882 1.722 . S
C7038 C2819 1.698 . S
C7063 C1802 1.873 . S
C7068 C2781 1.876 . S
C7098 C2520 2.172 . S
C7093 C1015 2.175 . S
C7128 C2482 1.745 . S
C7123 C922 1.677 . S
