# Generated by pormake.
# Topology zzz, (3,6)-cn, num edge types: 1
# Building blocks:
#     Node 0, Type 0, BuildingBlock: PAMTOO_clean_linker_0, # of connection points: 3
#     Node 1, Type 0, BuildingBlock: PAMTOO_clean_linker_0, # of connection points: 3
#     Node 2, Type 0, BuildingBlock: PAMTOO_clean_linker_0, # of connection points: 3
#     Node 3, Type 0, BuildingBlock: PAMTOO_clean_linker_0, # of connection points: 3
#     Node 4, Type 0, BuildingBlock: PAMTOO_clean_linker_0, # of connection points: 3
#     Node 5, Type 0, BuildingBlock: PAMTOO_clean_linker_0, # of connection points: 3
#     Node 6, Type 0, BuildingBlock: PAMTOO_clean_linker_0, # of connection points: 3
#     Node 7, Type 0, BuildingBlock: PAMTOO_clean_linker_0, # of connection points: 3
#     Node 8, Type 1, BuildingBlock: BETDAH_clean_sbu_0, # of connection points: 6
#     Node 9, Type 1, BuildingBlock: BETDAH_clean_sbu_0, # of connection points: 6
#     Node 10, Type 1, BuildingBlock: BETDAH_clean_sbu_0, # of connection points: 6
#     Node 11, Type 1, BuildingBlock: BETDAH_clean_sbu_0, # of connection points: 6
#     Edge 12, Type (0, 1), BuildingBlock: XIVTED_clean_linker_0, # of connection points: 2
#     Edge 13, Type (0, 1), BuildingBlock: XIVTED_clean_linker_0, # of connection points: 2
#     Edge 14, Type (0, 1), BuildingBlock: XIVTED_clean_linker_0, # of connection points: 2
#     Edge 15, Type (0, 1), BuildingBlock: XIVTED_clean_linker_0, # of connection points: 2
#     Edge 16, Type (0, 1), BuildingBlock: XIVTED_clean_linker_0, # of connection points: 2
#     Edge 17, Type (0, 1), BuildingBlock: XIVTED_clean_linker_0, # of connection points: 2
#     Edge 18, Type (0, 1), BuildingBlock: XIVTED_clean_linker_0, # of connection points: 2
#     Edge 19, Type (0, 1), BuildingBlock: XIVTED_clean_linker_0, # of connection points: 2
#     Edge 20, Type (0, 1), BuildingBlock: XIVTED_clean_linker_0, # of connection points: 2
#     Edge 21, Type (0, 1), BuildingBlock: XIVTED_clean_linker_0, # of connection points: 2
#     Edge 22, Type (0, 1), BuildingBlock: XIVTED_clean_linker_0, # of connection points: 2
#     Edge 23, Type (0, 1), BuildingBlock: XIVTED_clean_linker_0, # of connection points: 2
#     Edge 24, Type (0, 1), BuildingBlock: XIVTED_clean_linker_0, # of connection points: 2
#     Edge 25, Type (0, 1), BuildingBlock: XIVTED_clean_linker_0, # of connection points: 2
#     Edge 26, Type (0, 1), BuildingBlock: XIVTED_clean_linker_0, # of connection points: 2
#     Edge 27, Type (0, 1), BuildingBlock: XIVTED_clean_linker_0, # of connection points: 2
#     Edge 28, Type (0, 1), BuildingBlock: XIVTED_clean_linker_0, # of connection points: 2
#     Edge 29, Type (0, 1), BuildingBlock: XIVTED_clean_linker_0, # of connection points: 2
#     Edge 30, Type (0, 1), BuildingBlock: XIVTED_clean_linker_0, # of connection points: 2
#     Edge 31, Type (0, 1), BuildingBlock: XIVTED_clean_linker_0, # of connection points: 2
#     Edge 32, Type (0, 1), BuildingBlock: XIVTED_clean_linker_0, # of connection points: 2
#     Edge 33, Type (0, 1), BuildingBlock: XIVTED_clean_linker_0, # of connection points: 2
#     Edge 34, Type (0, 1), BuildingBlock: XIVTED_clean_linker_0, # of connection points: 2
#     Edge 35, Type (0, 1), BuildingBlock: XIVTED_clean_linker_0, # of connection points: 2
# Relax obj value: 0.271
# Max RMSD: 0.191
# Mean RMSD: 0.163
data_MOF--net-zzz--node1-BETDAH_clean_sbu_0--node2-PAMTOO_clean_linker_0--edge1-XIVTED_clean_linker_0
_symmetry_space_group_name_H-M    P1
_symmetry_Int_Tables_number       1
_symmetry_cell_setting            triclinic
loop_
_symmetry_equiv_pos_as_xyz
'x, y, z'
_cell_length_a     52.400635
_cell_length_b     52.367651
_cell_length_c     13.288156
_cell_angle_alpha  89.888281
_cell_angle_beta   89.709206
_cell_angle_gamma 89.833453
loop_
_atom_site_label
_atom_site_type_symbol
_atom_site_fract_x
_atom_site_fract_y
_atom_site_fract_z
_atom_type_partial_charge
H0 H 0.81082 0.46338 0.33883 0.0
H1 H 0.74131 0.47759 0.17689 0.0
H2 H 0.76651 0.53065 0.40216 0.0
H3 H 0.70259 0.53333 0.36321 0.0
C4 C 0.70632 0.51699 0.31204 0.0
O5 O 0.73027 0.52004 0.26887 0.0
H6 H 0.70568 0.49925 0.35851 0.0
C7 C 0.7935 0.47446 0.32823 0.0
C8 C 0.79052 0.49726 0.38193 0.0
C9 C 0.77617 0.46729 0.25321 0.0
C10 C 0.75462 0.48259 0.23578 0.0
C11 C 0.75066 0.50503 0.29108 0.0
C12 C 0.76892 0.51268 0.36298 0.0
H13 H 0.06281 0.80093 0.38852 0.0
H14 H 0.05562 0.73038 0.22586 0.0
H15 H 0.99492 0.75589 0.42125 0.0
H16 H 0.99749 0.69162 0.39189 0.0
C17 C 1.01347 0.69498 0.33831 0.0
O18 O 1.01062 0.7191 0.29611 0.0
H19 H 0.03156 0.69385 0.38186 0.0
C20 C 0.05255 0.78339 0.37353 0.0
C21 C 0.02821 0.78038 0.41548 0.0
C22 C 0.0626 0.76573 0.30438 0.0
C23 C 0.04841 0.74389 0.28084 0.0
C24 C 0.02436 0.73982 0.3248 0.0
C25 C 1.01399 0.75835 0.3911 0.0
H26 H 0.72418 0.05327 0.36266 0.0
H27 H 0.79326 0.04003 0.19441 0.0
H28 H 0.76597 0.98331 0.40347 0.0
H29 H 0.83045 0.97964 0.36123 0.0
C30 C 0.82695 0.99723 0.31655 0.0
O31 O 0.80294 0.99557 0.27345 0.0
H32 H 0.82779 1.01366 0.36963 0.0
C33 C 0.74107 0.04178 0.34808 0.0
C34 C 0.7431 0.01779 0.39401 0.0
C35 C 0.75879 0.04989 0.27527 0.0
C36 C 0.77977 0.03428 0.25221 0.0
C37 C 0.78292 1.01066 0.30041 0.0
C38 C 0.76425 1.0021 0.37003 0.0
H39 H 0.46972 0.72026 0.3959 0.0
H40 H 0.47918 0.78818 0.217 0.0
H41 H 0.54044 0.76139 0.40466 0.0
H42 H 0.54336 0.82458 0.35938 0.0
C43 C 0.52539 0.82185 0.31681 0.0
O44 O 0.5255 0.7975 0.27583 0.0
H45 H 0.50927 0.82404 0.37119 0.0
C46 C 0.48078 0.73698 0.37529 0.0
C47 C 0.50571 0.73903 0.41155 0.0
C48 C 0.47104 0.75427 0.30415 0.0
C49 C 0.48617 0.77496 0.2734 0.0
C50 C 0.51089 0.77803 0.31136 0.0
C51 C 0.52092 0.75974 0.37916 0.0
H52 H 0.22441 0.56237 0.121 0.0
H53 H 0.29257 0.55133 0.29507 0.0
H54 H 0.26708 0.49256 0.0935 0.0
H55 H 0.32896 0.52412 0.13263 0.0
C56 C 0.32717 0.50729 0.18368 0.0
O57 O 0.30282 0.5061 0.22473 0.0
H58 H 0.3305 0.48994 0.13747 0.0
C59 C 0.24137 0.55129 0.13816 0.0
C60 C 0.24397 0.52696 0.0957 0.0
C61 C 0.25847 0.56021 0.21109 0.0
C62 C 0.27947 0.54498 0.23747 0.0
C63 C 0.28307 0.52092 0.1934 0.0
C64 C 0.265 0.51165 0.12376 0.0
H65 H 0.06173 0.21828 0.16204 0.0
H66 H 0.05698 0.2972 0.24657 0.0
H67 H 1.01186 0.26894 1.00022 0.0
H68 H 0.99587 0.30422 0.21716 0.0
C69 C 1.00325 0.31916 0.16483 0.0
O70 O 0.02398 0.31014 0.10969 0.0
H71 H 0.98748 0.32345 0.1118 0.0
C72 C 0.05459 0.23743 0.1478 0.0
C73 C 0.03652 0.241 0.07191 0.0
C74 C 0.06182 0.2574 0.21167 0.0
C75 C 0.05171 0.28182 0.19658 0.0
C76 C 0.03385 0.28623 0.12029 0.0
C77 C 0.02616 0.26575 0.05742 0.0
H78 H 0.30776 0.06082 0.17294 0.0
H79 H 0.22966 0.05391 0.26865 0.0
H80 H 0.25833 1.00758 0.02505 0.0
H81 H 0.22658 0.99161 0.24467 0.0
C82 C 0.2104 0.99839 0.19738 0.0
O83 O 0.21755 0.01907 0.13828 0.0
H84 H 0.20555 0.98224 0.14695 0.0
C85 C 0.28881 0.053 0.162 0.0
C86 C 0.28552 0.03402 0.08929 0.0
C87 C 0.26896 0.06013 0.22759 0.0
C88 C 0.24492 0.04896 0.21691 0.0
C89 C 0.24087 0.03023 0.14363 0.0
C90 C 0.26122 0.02267 0.07938 0.0
H91 H 0.46539 0.30384 0.17009 0.0
H92 H 0.47133 0.22581 0.26861 0.0
H93 H 0.51944 0.25354 0.02841 0.0
H94 H 0.53323 0.22178 0.25146 0.0
C95 C 0.52733 0.20587 0.2011 0.0
O96 O 0.50695 0.21306 0.14102 0.0
H97 H 0.54401 0.20181 0.15167 0.0
C98 C 0.47311 0.28473 0.16042 0.0
C99 C 0.49255 0.28106 0.08947 0.0
C100 C 0.46549 0.26512 0.22615 0.0
C101 C 0.47666 0.24092 0.21692 0.0
C102 C 0.49588 0.23652 0.14526 0.0
C103 C 0.50398 0.25668 0.08138 0.0
Ho104 Ho 0.03137 1.00199 0.84317 0.0
Ho105 Ho 1.00499 0.01763 0.66145 0.0
C106 C 1.0122 0.95794 0.68317 0.0
C107 C 0.04884 0.9798 1.00211 0.0
C108 C 0.06341 0.95584 0.01492 0.0
C109 C 0.05342 0.93252 0.98158 0.0
C110 C 0.06785 0.91021 0.98783 0.0
C111 C 0.09266 0.91058 0.02778 0.0
C112 C 0.10267 0.93391 0.06164 0.0
C113 C 0.08817 0.95635 0.05508 0.0
C114 C 0.0635 1.01438 0.68876 0.0
C115 C 0.02218 0.06046 0.82218 0.0
C116 C 0.99623 0.04397 0.50321 0.0
C117 C 1.01022 0.06773 0.48016 0.0
C118 C 0.03711 0.06771 0.48139 0.0
C119 C 0.05061 0.09054 0.48665 0.0
C120 C 0.0376 0.11397 0.49048 0.0
C121 C 1.01078 0.11409 0.484 0.0
C122 C 0.99723 0.09117 0.47903 0.0
C123 C 0.97219 1.0043 0.81028 0.0
O124 O 0.0213 0.96349 0.77359 0.0
O125 O 1.00545 0.97621 0.61994 0.0
O126 O 0.06094 0.9981 0.95535 0.0
O127 O 0.02515 0.97766 0.9725 0.0
O128 O 0.06719 0.02051 0.78176 0.0
O129 O 0.04326 1.00158 0.68293 0.0
O130 O 0.0215 0.05443 0.72574 0.0
O131 O 0.0217 0.04204 0.88977 0.0
O132 O 0.98146 0.04522 0.58271 0.0
O133 O 1.00973 0.02293 0.50086 0.0
O134 O 0.96869 0.99955 0.71549 0.0
O135 O 0.99244 0.01716 0.82155 0.0
H136 H 0.03439 0.93141 0.95066 0.0
H137 H 0.05918 0.89251 0.96382 0.0
H138 H 0.12166 0.93482 0.09317 0.0
H139 H 0.09634 0.97415 0.08081 0.0
H140 H 0.04782 0.05003 0.48399 0.0
H141 H 0.07122 0.08974 0.49184 0.0
H142 H 1.00023 0.1319 0.4843 0.0
H143 H 0.97655 0.09173 0.47946 0.0
Ho144 Ho 0.52305 0.02628 0.84026 0.0
Ho145 Ho 0.50687 0.99963 0.66158 0.0
C146 C 0.56652 1.0061 0.67879 0.0
C147 C 0.54536 0.0446 0.9968 0.0
C148 C 0.5675 0.0615 1.00341 0.0
C149 C 0.57793 0.06756 0.09694 0.0
C150 C 0.60037 0.08184 0.10203 0.0
C151 C 0.61273 0.09019 0.01345 0.0
C152 C 0.60142 0.08506 0.92 0.0
C153 C 0.57898 0.07083 0.91506 0.0
C154 C 0.51021 0.05837 0.6867 0.0
C155 C 0.46478 0.0172 0.82499 0.0
C156 C 0.48005 0.99084 0.50545 0.0
C157 C 0.45669 1.00558 0.48291 0.0
C158 C 0.45755 0.03247 0.48191 0.0
C159 C 0.4352 0.04686 0.48857 0.0
C160 C 0.41143 0.03474 0.49602 0.0
C161 C 0.41043 1.00789 0.49145 0.0
C162 C 0.43287 0.99345 0.48509 0.0
C163 C 0.52023 0.96695 0.81083 0.0
O164 O 0.56127 1.01554 0.76913 0.0
O165 O 0.54809 0.99936 0.61706 0.0
O166 O 0.52511 0.05491 0.95671 0.0
O167 O 0.55016 0.0218 0.96126 0.0
O168 O 0.50445 0.06212 0.78011 0.0
O169 O 0.52298 0.03803 0.67968 0.0
O170 O 0.47048 0.01686 0.7281 0.0
O171 O 0.48347 1.01611 0.89074 0.0
O172 O 0.47855 0.97656 0.58608 0.0
O173 O 0.50146 1.00358 0.50089 0.0
O174 O 0.5247 0.96307 0.71585 0.0
O175 O 0.50766 0.98744 0.82199 0.0
H176 H 0.56922 0.06054 0.16572 0.0
H177 H 0.60877 0.08505 0.17519 0.0
H178 H 0.61036 0.09133 0.8506 0.0
H179 H 0.57098 0.06644 0.84208 0.0
H180 H 0.47556 0.04253 0.48183 0.0
H181 H 0.43667 0.06746 0.49205 0.0
H182 H 0.39232 0.99801 0.49447 0.0
H183 H 0.43167 0.97281 0.48725 0.0
Ho184 Ho 0.50024 0.51916 0.8568 0.0
Ho185 Ho 0.52577 0.50331 0.67264 0.0
C186 C 0.5198 0.56298 0.69498 0.0
C187 C 0.48338 0.54111 0.01768 0.0
C188 C 0.46866 0.56491 0.03171 0.0
C189 C 0.47744 0.58799 0.99059 0.0
C190 C 0.46267 0.61006 0.99739 0.0
C191 C 0.43875 0.6097 0.04582 0.0
C192 C 0.42997 0.58662 0.08769 0.0
C193 C 0.44479 0.56439 0.08034 0.0
C194 C 0.46746 0.50737 0.70571 0.0
C195 C 0.50826 0.46068 0.83379 0.0
C196 C 0.53346 0.47734 0.5125 0.0
C197 C 0.51837 0.45448 0.4879 0.0
C198 C 0.49163 0.45517 0.49879 0.0
C199 C 0.47751 0.43268 0.50184 0.0
C200 C 0.48978 0.40893 0.4938 0.0
C201 C 0.51638 0.40828 0.47746 0.0
C202 C 0.53055 0.43086 0.4749 0.0
C203 C 0.55925 0.51551 0.81972 0.0
O204 O 0.51068 0.55758 0.78598 0.0
O205 O 0.52617 0.54467 0.63156 0.0
O206 O 0.47119 0.52277 0.97232 0.0
O207 O 0.50691 0.54345 0.98532 0.0
O208 O 0.46403 0.50108 0.79889 0.0
O209 O 0.48781 0.51995 0.6978 0.0
O210 O 0.50838 0.46695 0.73751 0.0
O211 O 0.50969 0.4789 0.90169 0.0
O212 O 0.54792 0.47488 0.59185 0.0
O213 O 0.52097 0.499 0.51189 0.0
O214 O 0.56278 0.52028 0.72473 0.0
O215 O 0.53872 0.50316 0.83163 0.0
H216 H 0.49579 0.58907 0.95314 0.0
H217 H 0.47042 0.62763 0.96699 0.0
H218 H 0.4117 0.58576 0.12597 0.0
H219 H 0.43754 0.54675 0.11205 0.0
H220 H 0.48163 0.47302 0.51074 0.0
H221 H 0.45713 0.43392 0.515 0.0
H222 H 0.52634 0.39027 0.46841 0.0
H223 H 0.55113 0.42979 0.46777 0.0
Ho224 Ho 1.01233 0.49237 0.8125 0.0
Ho225 Ho 0.02343 0.52703 0.65534 0.0
C226 C 0.96583 0.51134 0.66805 0.0
C227 C 0.99259 0.46572 0.95709 0.0
C228 C 0.96983 0.44954 0.95946 0.0
C229 C 0.95942 0.44171 0.05152 0.0
C230 C 0.93593 0.42917 0.05418 0.0
C231 C 0.92247 0.42434 0.96461 0.0
C232 C 0.93382 0.43092 0.87207 0.0
C233 C 0.95729 0.44346 0.86956 0.0
C234 C 0.02642 0.46769 0.6403 0.0
C235 C 0.0696 0.50869 0.80328 0.0
C236 C 0.0431 0.55323 0.50904 0.0
C237 C 0.06748 0.56696 0.49837 0.0
C238 C 0.0904 0.55539 0.5283 0.0
C239 C 0.11321 0.56892 0.52454 0.0
C240 C 0.11375 0.59428 0.4898 0.0
C241 C 0.09084 0.60584 0.45863 0.0
C242 C 0.06784 0.5923 0.46356 0.0
C243 C 1.0088 0.55145 0.82706 0.0
O244 O 0.97241 0.50244 0.75744 0.0
O245 O 0.98352 0.51931 0.60483 0.0
O246 O 1.01118 0.45755 0.90003 0.0
O247 O 0.98814 0.49009 0.94472 0.0
O248 O 0.03464 0.46244 0.72941 0.0
O249 O 1.01138 0.4866 0.64563 0.0
O250 O 0.06328 0.51688 0.7124 0.0
O251 O 0.05165 0.50128 0.86637 0.0
O252 O 0.02724 0.56283 0.57469 0.0
O253 O 0.04438 0.52832 0.51473 0.0
O254 O 1.00056 0.55673 0.73789 0.0
O255 O 0.02414 0.53278 0.82188 0.0
H256 H 0.96889 0.44627 0.1215 0.0
H257 H 0.92761 0.42475 0.1269 0.0
H258 H 0.92409 0.4273 0.80183 0.0
H259 H 0.96519 0.44929 0.79761 0.0
H260 H 0.09076 0.53581 0.55435 0.0
H261 H 0.13061 0.55917 0.54616 0.0
H262 H 0.09073 0.62528 0.43063 0.0
H263 H 0.05032 0.60162 0.44043 0.0
H264 H 0.21031 0.02133 0.38382 0.0
H265 H 0.06182 0.99551 0.49608 0.0
H266 H 0.15912 0.98957 0.16484 0.0
H267 H 0.11153 0.03459 0.70189 0.0
H268 H 0.09659 0.99439 0.37163 0.0
H269 H 0.17405 0.02789 0.49855 0.0
C270 C 0.19136 1.01604 0.35948 0.0
C271 C 0.18776 1.0048 0.26482 0.0
C272 C 0.09988 1.00335 0.44376 0.0
C273 C 0.14605 1.01188 0.39644 0.0
C274 C 0.08001 1.00398 0.51489 0.0
C275 C 0.08379 1.01504 0.60985 0.0
C276 C 0.12386 1.0137 0.46776 0.0
C277 C 0.10777 0.02578 0.62986 0.0
C278 C 0.17065 0.01966 0.42515 0.0
C279 C 0.16277 0.99819 0.23732 0.0
N280 N 0.12687 0.02469 0.55993 0.0
N281 N 0.14295 1.0016 0.30299 0.0
H282 H 0.53806 0.15513 0.16267 0.0
H283 H 0.48801 0.10547 0.70143 0.0
H284 H 0.50258 0.20369 0.38438 0.0
H285 H 0.53054 0.0581 0.49496 0.0
H286 H 0.48927 0.14032 0.5786 0.0
H287 H 0.53158 0.11829 0.27466 0.0
C288 C 0.52865 0.15796 0.23456 0.0
C289 C 0.52102 0.18254 0.26462 0.0
C290 C 0.49825 0.1223 0.55969 0.0
C291 C 0.5135 0.14045 0.39352 0.0
C292 C 0.49751 0.10234 0.6299 0.0
C293 C 0.50936 0.07886 0.60889 0.0
C294 C 0.51092 0.11888 0.46715 0.0
C295 C 0.52126 0.07592 0.51458 0.0
C296 C 0.52502 0.13695 0.29864 0.0
C297 C 0.5088 0.1851 0.35836 0.0
N298 N 0.52184 0.0957 0.44751 0.0
N299 N 0.50557 0.16441 0.41953 0.0
H300 H 0.3714 0.53541 0.18454 0.0
H301 H 0.42203 0.48186 0.71471 0.0
H302 H 0.33007 0.48056 0.3637 0.0
H303 H 0.46653 0.53054 0.52005 0.0
H304 H 0.38781 0.48182 0.58958 0.0
H305 H 0.40574 0.53496 0.30892 0.0
C306 C 0.3694 0.52352 0.25088 0.0
C307 C 0.34749 0.50847 0.26485 0.0
C308 C 0.40505 0.49249 0.57397 0.0
C309 C 0.38711 0.50744 0.40731 0.0
C310 C 0.42461 0.49251 0.64547 0.0
C311 C 0.44714 0.50631 0.62806 0.0
C312 C 0.40789 0.50651 0.48424 0.0
C313 C 0.44947 0.51969 0.53675 0.0
C314 C 0.38911 0.52314 0.32167 0.0
C315 C 0.34631 0.49289 0.35096 0.0
N316 N 0.43009 0.51954 0.46863 0.0
N317 N 0.36574 0.49286 0.41896 0.0
H318 H 0.99222 0.36989 0.12331 0.0
H319 H 0.05229 0.42257 0.63765 0.0
H320 H 0.02854 0.32235 0.3457 0.0
H321 H 0.99974 0.46712 0.46024 0.0
H322 H 0.04889 0.38778 0.51668 0.0
H323 H 0.99955 0.40735 0.23096 0.0
C324 C 1.00208 0.36739 0.19412 0.0
C325 C 1.00991 0.3429 0.22525 0.0
C326 C 0.03817 0.40517 0.50354 0.0
C327 C 0.01842 0.38574 0.3489 0.0
C328 C 0.04017 0.42516 0.57262 0.0
C329 C 0.02616 0.44785 0.55973 0.0
C330 C 0.02213 0.40768 0.41971 0.0
C331 C 1.01086 0.44999 0.47341 0.0
C332 C 1.00614 0.38876 0.25573 0.0
C333 C 0.02248 0.34082 0.31796 0.0
N334 N 1.00918 0.43015 0.40692 0.0
N335 N 0.02629 0.36185 0.37624 0.0
H336 H 0.87076 0.02579 0.32507 0.0
H337 H 0.9268 0.97934 0.79195 0.0
H338 H 0.83176 0.97286 0.13191 0.0
H339 H 0.96975 0.02478 1.00127 0.0
H340 H 0.89139 0.97785 0.91262 0.0
H341 H 0.90633 0.02715 0.20473 0.0
C342 C 0.86953 1.01472 0.2565 0.0
C343 C 0.84792 0.99968 0.2375 0.0
C344 C 0.90855 0.9881 0.93253 0.0
C345 C 0.88897 1.00071 0.09969 0.0
C346 C 0.92883 0.98895 0.86358 0.0
C347 C 0.95131 1.00225 0.88632 0.0
C348 C 0.91056 1.00077 0.02528 0.0
C349 C 0.95281 1.01428 0.9805 0.0
C350 C 0.88994 1.01537 0.18807 0.0
C351 C 0.84774 0.98517 0.14864 0.0
N352 N 0.93271 1.01336 0.04618 0.0
N353 N 0.86784 0.98613 0.08305 0.0
H354 H 0.54845 0.82369 0.12822 0.0
H355 H 0.50117 0.96672 1.00409 0.0
H356 H 0.4999 0.86769 0.32528 0.0
H357 H 0.54258 0.91985 0.79229 0.0
H358 H 0.50205 0.93133 0.1254 0.0
H359 H 0.5477 0.85897 0.00609 0.0
C360 C 0.53733 0.84062 0.14513 0.0
C361 C 0.52366 0.84243 0.23609 0.0
C362 C 0.51099 0.92877 0.05246 0.0
C363 C 0.5233 0.88333 0.09779 0.0
C364 C 0.51056 0.94903 0.98327 0.0
C365 C 0.52177 0.94626 0.88769 0.0
C366 C 0.52282 0.90551 0.02636 0.0
C367 C 0.53365 0.92285 0.86497 0.0
C368 C 0.53701 0.86085 0.07565 0.0
C369 C 0.51025 0.86522 0.25526 0.0
N370 N 0.53385 0.90344 0.93352 0.0
N371 N 0.51038 0.88468 0.18698 0.0
H372 H 0.70316 0.54231 0.12805 0.0
H373 H 0.56021 0.49546 0.01114 0.0
H374 H 0.66086 0.49133 0.32106 0.0
H375 H 0.60608 0.53795 0.79935 0.0
H376 H 0.59601 0.49569 0.12953 0.0
H377 H 0.66731 0.54255 0.00977 0.0
C378 C 0.68648 0.53088 0.14488 0.0
C379 C 0.68533 0.51619 0.23339 0.0
C380 C 0.59826 0.50501 0.05723 0.0
C381 C 0.64378 0.51698 0.0996 0.0
C382 C 0.57776 0.50496 0.98975 0.0
C383 C 0.58015 0.51664 0.895 0.0
C384 C 0.62134 0.51696 0.03025 0.0
C385 C 0.60339 0.52864 0.87142 0.0
C386 C 0.66594 0.53112 0.07757 0.0
C387 C 0.66282 0.50244 0.25269 0.0
N388 N 0.62303 0.52848 0.93833 0.0
N389 N 0.64304 0.50314 0.18658 0.0
H390 H 0.98202 0.69011 0.17258 0.0
H391 H 0.03736 0.55301 1.00131 0.0
H392 H 0.04304 0.65142 0.32724 0.0
H393 H 0.97964 0.59459 0.83838 0.0
H394 H 0.03858 0.5877 0.12584 0.0
H395 H 0.9801 0.65464 0.0524 0.0
C396 C 0.99524 0.6743 0.18041 0.0
C397 C 1.01316 0.67411 0.25863 0.0
C398 C 0.02557 0.58918 0.06306 0.0
C399 C 1.01065 0.63291 0.12262 0.0
C400 C 0.02477 0.56929 0.99223 0.0
C401 C 1.0084 0.57087 0.90906 0.0
C402 C 1.00983 0.61083 0.05092 0.0
C403 C 0.99262 0.59253 0.90105 0.0
C404 C 0.99406 0.65395 0.11214 0.0
C405 C 0.0293 0.65267 0.26684 0.0
N406 N 0.99377 0.61158 0.97055 0.0
N407 N 0.02771 0.63304 0.19983 0.0
H408 H 0.10819 0.23391 0.23422 0.0
H409 H 0.02564 0.15611 0.60449 0.0
H410 H 0.04425 0.26341 0.40254 0.0
H411 H 0.08273 0.12697 0.39911 0.0
H412 H 0.04529 0.19831 0.59278 0.0
H413 H 0.11404 0.20089 0.36171 0.0
C414 C 0.09629 0.2343 0.30112 0.0
C415 C 0.07493 0.25045 0.30583 0.0
C416 C 0.05389 0.18252 0.55228 0.0
C417 C 0.08058 0.21222 0.44835 0.0
C418 C 0.04248 0.15851 0.55784 0.0
C419 C 0.05192 0.13825 0.49933 0.0
C420 C 0.07464 0.18633 0.48662 0.0
C421 C 0.07445 0.14213 0.44395 0.0
C422 C 0.09936 0.21521 0.37333 0.0
C423 C 0.0604 0.2506 0.39463 0.0
N424 N 0.08468 0.16584 0.43717 0.0
N425 N 0.06274 0.23094 0.46067 0.0
H426 H 0.29259 0.10656 0.24419 0.0
H427 H 0.36977 0.02498 0.61621 0.0
H428 H 0.26276 0.04439 0.42104 0.0
H429 H 0.39919 0.07977 0.40244 0.0
H430 H 0.32807 0.04589 0.60742 0.0
H431 H 0.32575 0.11297 0.36957 0.0
C432 C 0.29216 0.09519 0.3124 0.0
C433 C 0.27595 0.07401 0.31996 0.0
C434 C 0.34383 0.05373 0.56443 0.0
C435 C 0.31426 0.08036 0.46034 0.0
C436 C 0.36754 0.0416 0.56836 0.0
C437 C 0.38768 0.04999 0.50663 0.0
C438 C 0.34017 0.07412 0.49706 0.0
C439 C 0.38408 0.07228 0.44971 0.0
C440 C 0.31133 0.0986 0.38347 0.0
C441 C 0.27568 0.06029 0.41061 0.0
N442 N 0.36062 0.0832 0.44449 0.0
N443 N 0.29539 0.06291 0.47559 0.0
H444 H 0.47911 0.25755 0.42111 0.0
H445 H 0.44196 0.39869 0.42028 0.0
H446 H 0.41981 0.29084 0.23971 0.0
H447 H 0.50341 0.36452 0.5892 0.0
H448 H 0.4211 0.35724 0.41285 0.0
H449 H 0.47278 0.29108 0.54509 0.0
C450 C 0.46372 0.27111 0.40988 0.0
C451 C 0.45103 0.2725 0.31738 0.0
C452 C 0.43885 0.35889 0.4537 0.0
C453 C 0.44462 0.31145 0.45579 0.0
C454 C 0.45085 0.3826 0.45775 0.0
C455 C 0.47498 0.3849 0.50225 0.0
C456 C 0.45128 0.33725 0.49273 0.0
C457 C 0.48534 0.36341 0.55037 0.0
C458 C 0.46037 0.29058 0.48021 0.0
C459 C 0.43084 0.28997 0.30835 0.0
N460 N 0.47372 0.34039 0.54248 0.0
N461 N 0.42901 0.30961 0.37444 0.0
H462 H 0.24046 0.60678 0.14704 0.0
H463 H 0.15385 0.59556 0.62138 0.0
H464 H 0.25749 0.564 0.41602 0.0
H465 H 0.13074 0.62198 0.32798 0.0
H466 H 0.19831 0.60374 0.5757 0.0
H467 H 0.20943 0.63205 0.24231 0.0
C468 C 0.23848 0.60345 0.2272 0.0
C469 C 0.25062 0.58249 0.27273 0.0
C470 C 0.18345 0.60854 0.52246 0.0
C471 C 0.21503 0.61093 0.3813 0.0
C472 C 0.15809 0.60378 0.54832 0.0
C473 C 0.13873 0.60712 0.47678 0.0
C474 C 0.18944 0.61636 0.42403 0.0
C475 C 0.14513 0.61859 0.38465 0.0
C476 C 0.22068 0.61781 0.28147 0.0
C477 C 0.24798 0.57949 0.37716 0.0
N478 N 0.17005 0.62213 0.35978 0.0
N479 N 0.2298 0.59297 0.4274 0.0
H480 H 0.06796 0.76461 0.09985 0.0
H481 H 0.12117 0.89566 0.19045 0.0
H482 H 0.10806 0.78562 0.36953 0.0
H483 H 0.09582 0.86944 0.90011 0.0
H484 H 0.13171 0.85191 0.23572 0.0
H485 H 0.0931 0.79545 0.0055 0.0
C486 C 0.0829 0.77487 0.13857 0.0
C487 C 0.08508 0.77352 0.24358 0.0
C488 C 0.12451 0.85569 0.1609 0.0
C489 C 0.11303 0.80976 0.1371 0.0
C490 C 0.11855 0.88083 0.13481 0.0
C491 C 0.10649 0.88608 0.04303 0.0
C492 C 0.11771 0.8357 0.09582 0.0
C493 C 0.10394 0.86605 0.97371 0.0
C494 C 0.09715 0.79279 0.08467 0.0
C495 C 0.10506 0.78697 0.28913 0.0
N496 N 0.10871 0.84163 1.00263 0.0
N497 N 0.1176 0.80532 0.23644 0.0
H498 H 0.74497 0.09831 0.33229 0.0
H499 H 0.63197 0.12501 0.1477 0.0
H500 H 0.75525 0.05075 0.07115 0.0
H501 H 0.65354 0.0791 0.89177 0.0
H502 H 0.67668 0.13109 0.18632 0.0
H503 H 0.7152 0.12476 0.2387 0.0
C504 C 0.74156 0.09402 0.25377 0.0
C505 C 0.75166 0.07174 0.21056 0.0
C506 C 0.672 0.12011 0.12031 0.0
C507 C 0.71625 0.10077 0.10438 0.0
C508 C 0.64622 0.11664 0.09837 0.0
C509 C 0.63897 0.10065 0.01899 0.0
C510 C 0.69063 0.10702 0.0634 0.0
C511 C 0.65816 0.09115 0.95516 0.0
C512 C 0.72409 0.10887 0.20035 0.0
C513 C 0.74729 0.06739 0.10817 0.0
N514 N 0.68306 0.09391 0.98035 0.0
N515 N 0.72922 0.08123 0.05951 0.0
H516 H 0.42525 0.73714 0.37961 0.0
H517 H 0.43164 0.64884 0.9108 0.0
H518 H 0.46431 0.75324 0.1005 0.0
H519 H 0.41401 0.62638 0.21582 0.0
H520 H 0.42189 0.69311 0.9547 0.0
H521 H 0.39924 0.70551 0.29277 0.0
C522 C 0.42754 0.73488 0.29903 0.0
C523 C 0.44783 0.7468 0.24814 0.0
C524 C 0.41932 0.67836 0.01107 0.0
C525 C 0.41852 0.71061 0.14918 0.0
C526 C 0.42505 0.65311 0.98633 0.0
C527 C 0.42476 0.63409 0.06104 0.0
C528 C 0.41348 0.68457 0.11129 0.0
C529 C 0.41511 0.64049 0.15638 0.0
C530 C 0.41276 0.71674 0.24959 0.0
C531 C 0.44944 0.74384 0.14343 0.0
N532 N 0.41053 0.66534 0.17959 0.0
N533 N 0.4356 0.72533 0.09784 0.0
H534 H 0.77647 0.46926 0.04794 0.0
H535 H 0.90018 0.38873 0.08972 0.0
H536 H 0.79463 0.41941 0.29615 0.0
H537 H 0.88261 0.4421 0.85183 0.0
H538 H 0.85472 0.38607 0.13014 0.0
H539 H 0.8058 0.44517 0.94145 0.0
C540 C 0.78578 0.45254 0.07902 0.0
C541 C 0.78394 0.44692 0.18203 0.0
C542 C 0.86074 0.39779 0.06717 0.0
C543 C 0.8183 0.41995 0.06184 0.0
C544 C 0.88672 0.39941 0.04442 0.0
C545 C 0.89532 0.41636 0.9697 0.0
C546 C 0.84334 0.41354 0.01582 0.0
C547 C 0.87698 0.42907 0.91118 0.0
C548 C 0.80279 0.43891 0.01831 0.0
C549 C 0.79627 0.42489 0.21777 0.0
N550 N 0.85194 0.42791 0.9372 0.0
N551 N 0.81363 0.4127 0.15868 0.0
H552 H 0.04468 0.22604 0.87449 0.0
H553 H 1.01457 0.08003 0.01143 0.0
H554 H 1.0102 0.20146 0.15285 0.0
H555 H 0.03032 0.1037 0.70653 0.0
H556 H 1.0142 0.12477 0.06302 0.0
H557 H 0.03957 0.18238 0.80748 0.0
C558 C 0.03527 0.21171 0.92018 0.0
C559 C 0.02748 0.21754 0.0189 0.0
C560 C 0.01769 0.12028 0.98463 0.0
C561 C 0.02259 0.16729 0.94472 0.0
C562 C 0.01805 0.09461 0.95513 0.0
C563 C 0.02255 0.08789 0.85429 0.0
C564 C 0.02213 0.13972 0.91334 0.0
C565 C 0.02677 0.10788 0.78502 0.0
C566 C 0.03265 0.18669 0.8825 0.0
C567 C 0.01614 0.19793 0.07593 0.0
N568 N 0.02662 0.1328 0.8158 0.0
N569 N 1.01433 0.17381 0.03868 0.0
H570 H 0.29971 0.0408 0.89019 0.0
H571 H 0.44608 1.00979 0.01581 0.0
H572 H 0.32556 1.00868 0.17031 0.0
H573 H 0.4212 0.0258 0.71332 0.0
H574 H 0.40164 1.01006 0.07172 0.0
H575 H 0.34306 0.03499 0.81979 0.0
C576 C 0.31428 0.03178 0.93569 0.0
C577 C 0.30893 0.02485 0.03577 0.0
C578 C 0.40579 1.01346 0.99292 0.0
C579 C 0.35875 0.0191 0.95756 0.0
C580 C 0.43129 1.01345 0.96095 0.0
C581 C 0.43757 0.01785 0.85954 0.0
C582 C 0.38611 0.01816 0.92353 0.0
C583 C 0.41734 0.02231 0.79218 0.0
C584 C 0.3391 0.02875 0.89602 0.0
C585 C 0.32877 1.01397 0.09243 0.0
N586 N 0.3926 0.0225 0.82535 0.0
N587 N 0.35269 1.01169 0.0531 0.0
H588 H 0.52262 0.31822 0.16538 0.0
H589 H 0.49642 0.41857 0.71897 0.0
H590 H 0.48142 0.29791 0.89801 0.0
H591 H 0.51881 0.4399 0.01907 0.0
H592 H 0.49607 0.37356 0.77186 0.0
H593 H 0.52808 0.36157 0.09923 0.0
C594 C 0.51551 0.32269 0.09093 0.0
C595 C 0.50206 0.30426 0.03611 0.0
C596 C 0.50114 0.3881 0.82584 0.0
C597 C 0.50739 0.35432 0.96098 0.0
C598 C 0.5013 0.41385 0.79587 0.0
C599 C 0.50751 0.43322 0.86476 0.0
C600 C 0.50769 0.38149 0.92503 0.0
C601 C 0.51371 0.42578 0.96339 0.0
C602 C 0.51827 0.34757 0.05382 0.0
C603 C 0.49244 0.31136 0.94156 0.0
N604 N 0.51374 0.40062 0.99024 0.0
N605 N 0.49518 0.33583 0.90715 0.0
H606 H 0.21157 0.48704 0.13342 0.0
H607 H 0.11074 0.53272 0.71527 0.0
H608 H 0.22615 0.54733 0.92018 0.0
H609 H 0.09084 0.48443 0.96659 0.0
H610 H 0.15503 0.53306 0.77266 0.0
H611 H 0.16981 0.4799 0.05466 0.0
C612 C 0.20635 0.49815 0.06778 0.0
C613 C 0.22249 0.5176 0.03254 0.0
C614 C 0.14102 0.52224 0.81499 0.0
C615 C 0.17442 0.51009 0.94365 0.0
C616 C 0.11567 0.52197 0.7819 0.0
C617 C 0.09687 0.50854 0.83584 0.0
C618 C 0.14788 0.50881 0.90263 0.0
C619 C 0.10456 0.49519 0.92266 0.0
C620 C 0.18235 0.49436 0.02377 0.0
C621 C 0.21441 0.53195 0.94899 0.0
N622 N 0.12937 0.49568 0.95324 0.0
N623 N 0.19097 0.52804 0.90794 0.0
H624 H 0.0428 0.79623 0.60184 0.0
H625 H 0.98958 0.93798 0.51362 0.0
H626 H 0.99286 0.81598 0.35755 0.0
H627 H 0.0311 0.91514 0.77849 0.0
H628 H 0.98859 0.89326 0.4596 0.0
H629 H 0.03591 0.83871 0.67452 0.0
C630 C 0.02961 0.80923 0.56555 0.0
C631 C 0.0179 0.8023 0.4748 0.0
C632 C 0.99774 0.89799 0.52999 0.0
C633 C 1.01085 0.85167 0.55485 0.0
C634 C 0.99839 0.92361 0.56088 0.0
C635 C 1.01047 0.93057 0.65108 0.0
C636 C 1.00943 0.87898 0.58904 0.0
C637 C 0.02147 0.91088 0.7088 0.0
C638 C 0.02593 0.83365 0.60627 0.0
C639 C 1.00173 0.82029 0.42893 0.0
N640 N 0.02084 0.88617 0.6766 0.0
N641 N 0.99894 0.84419 0.46863 0.0
H642 H 0.72687 0.03732 0.57352 0.0
H643 H 0.58595 0.98199 0.51073 0.0
H644 H 0.70783 0.98096 0.3511 0.0
H645 H 0.60944 0.02554 0.76938 0.0
H646 H 0.63046 0.98043 0.4535 0.0
H647 H 0.68471 0.03163 0.65119 0.0
C648 C 0.71407 0.0231 0.54313 0.0
C649 C 0.72108 1.00921 0.45696 0.0
C650 C 0.62592 0.99015 0.5232 0.0
C651 C 0.67214 1.0034 0.54266 0.0
C652 C 0.60043 0.99115 0.55586 0.0
C653 C 0.59374 1.00398 0.64511 0.0
C654 C 0.64504 1.00232 0.57933 0.0
C655 C 0.61353 1.01539 0.70023 0.0
C656 C 0.68987 0.02005 0.58676 0.0
C657 C 0.70343 0.99162 0.41875 0.0
N658 N 0.63812 1.01446 0.66612 0.0
N659 N 0.6797 0.98947 0.46091 0.0
H660 H 0.48966 0.72398 0.59786 0.0
H661 H 0.544 0.58225 0.52687 0.0
H662 H 0.54169 0.70328 0.3598 0.0
H663 H 0.5003 0.60614 0.78613 0.0
H664 H 0.5455 0.6267 0.46955 0.0
H665 H 0.49628 0.682 0.67536 0.0
C666 C 0.50319 0.71086 0.56385 0.0
C667 C 0.51551 0.71733 0.47323 0.0
C668 C 0.53578 0.62228 0.5395 0.0
C669 C 0.52235 0.66858 0.55909 0.0
C670 C 0.53483 0.59681 0.57227 0.0
C671 C 0.52198 0.59023 0.66184 0.0
C672 C 0.5236 0.6415 0.59595 0.0
C673 C 0.51056 0.61013 0.71715 0.0
C674 C 0.50674 0.68674 0.60741 0.0
C675 C 0.53225 0.69929 0.43074 0.0
N676 N 0.51148 0.6347 0.68306 0.0
N677 N 0.53491 0.67566 0.47316 0.0
H678 H 0.82209 0.53839 0.35779 0.0
H679 H 0.92506 0.487 0.75755 0.0
H680 H 0.80944 0.47288 0.54769 0.0
H681 H 0.94393 0.53679 0.50921 0.0
H682 H 0.88044 0.48709 0.70261 0.0
H683 H 0.86407 0.54426 0.43628 0.0
C684 C 0.82777 0.52581 0.41853 0.0
C685 C 0.81212 0.50532 0.44717 0.0
C686 C 0.89432 0.49811 0.66047 0.0
C687 C 0.86041 0.51145 0.5356 0.0
C688 C 0.91984 0.49808 0.69185 0.0
C689 C 0.93843 0.51179 0.63765 0.0
C690 C 0.88712 0.51221 0.57493 0.0
C691 C 0.93039 0.52578 0.553 0.0
C692 C 0.8519 0.52891 0.46226 0.0
C693 C 0.8208 0.4891 0.52428 0.0
N694 N 0.90543 0.52564 0.52443 0.0
N695 N 0.84434 0.49241 0.56534 0.0
loop_
_geom_bond_atom_site_label_1
_geom_bond_atom_site_label_2
_geom_bond_distance
_geom_bond_site_symmetry_2
_ccdc_geom_bond_type
H0 C7 0.929 . S
H1 C10 0.930 . S
H2 C12 0.929 . S
H3 C4 0.969 . S
C4 H3 0.969 . S
C4 O5 1.550 . S
C4 H6 0.973 . S
O5 C4 1.550 . S
O5 C11 1.412 . S
H6 C4 0.973 . S
C7 H0 0.929 . S
C7 C8 1.400 . S
C7 C9 1.364 . S
C8 C7 1.400 . S
C8 C12 1.377 . S
C9 C7 1.364 . S
C9 C10 1.374 . S
C10 H1 0.930 . S
C10 C9 1.374 . S
C10 C11 1.383 . S
C11 O5 1.412 . S
C11 C10 1.383 . S
C11 C12 1.394 . S
C12 H2 0.929 . S
C12 C8 1.377 . S
C12 C11 1.394 . S
H13 C20 0.928 1_655 S
H14 C23 0.930 . S
H15 C25 0.928 1_655 S
H16 C17 0.969 . S
C17 H16 0.969 . S
C17 O18 1.550 1_455 S
C17 H19 0.973 1_455 S
O18 C17 1.550 1_655 S
O18 C24 1.405 1_655 S
H19 C17 0.973 1_655 S
C20 H13 0.928 1_455 S
C20 C21 1.400 . S
C20 C22 1.364 . S
C21 C20 1.400 . S
C21 C25 1.377 . S
C22 C20 1.364 . S
C22 C23 1.374 1_455 S
C23 H14 0.930 . S
C23 C22 1.374 1_655 S
C23 C24 1.382 1_655 S
C24 O18 1.405 1_455 S
C24 C23 1.382 1_455 S
C24 C25 1.394 . S
C25 H15 0.928 1_455 S
C25 C21 1.377 . S
C25 C24 1.394 . S
H26 C33 0.928 1_565 S
H27 C36 0.930 . S
H28 C38 0.928 1_565 S
H29 C30 0.969 . S
C30 H29 0.969 . S
C30 O31 1.550 1_545 S
C30 H32 0.973 1_545 S
O31 C30 1.550 1_565 S
O31 C37 1.405 1_565 S
H32 C30 0.973 1_565 S
C33 H26 0.928 1_545 S
C33 C34 1.399 . S
C33 C35 1.364 . S
C34 C33 1.399 . S
C34 C38 1.377 . S
C35 C33 1.364 . S
C35 C36 1.374 1_545 S
C36 H27 0.930 . S
C36 C35 1.374 1_565 S
C36 C37 1.382 1_565 S
C37 O31 1.405 1_545 S
C37 C36 1.382 1_545 S
C37 C38 1.394 . S
C38 H28 0.928 1_545 S
C38 C34 1.377 . S
C38 C37 1.394 . S
H39 C46 0.929 . S
H40 C49 0.930 . S
H41 C51 0.929 . S
H42 C43 0.969 . S
C43 H42 0.969 . S
C43 O44 1.550 . S
C43 H45 0.973 . S
O44 C43 1.550 . S
O44 C50 1.412 . S
H45 C43 0.973 . S
C46 H39 0.929 . S
C46 C47 1.400 . S
C46 C48 1.364 . S
C47 C46 1.400 . S
C47 C51 1.377 . S
C48 C46 1.364 . S
C48 C49 1.374 . S
C49 H40 0.930 . S
C49 C48 1.374 . S
C49 C50 1.383 . S
C50 O44 1.412 . S
C50 C49 1.383 . S
C50 C51 1.394 . S
C51 H41 0.929 . S
C51 C47 1.377 . S
C51 C50 1.394 . S
H52 C59 0.929 . S
H53 C62 0.930 . S
H54 C64 0.929 . S
H55 C56 0.969 . S
C56 H55 0.969 . S
C56 O57 1.550 . S
C56 H58 0.973 . S
O57 C56 1.550 . S
O57 C63 1.412 . S
H58 C56 0.973 . S
C59 H52 0.929 . S
C59 C60 1.400 1_554 S
C59 C61 1.364 . S
C60 C59 1.400 1_556 S
C60 C64 1.377 . S
C61 C59 1.364 . S
C61 C62 1.374 . S
C62 H53 0.930 . S
C62 C61 1.374 . S
C62 C63 1.383 . S
C63 O57 1.412 . S
C63 C62 1.383 . S
C63 C64 1.394 1_554 S
C64 H54 0.929 . S
C64 C60 1.377 . S
C64 C63 1.394 1_556 S
H65 C72 0.928 1_655 S
H66 C75 0.930 . S
H67 C77 0.928 1_655 S
H68 C69 0.969 . S
C69 H68 0.969 . S
C69 O70 1.550 1_455 S
C69 H71 0.973 1_455 S
O70 C69 1.550 1_655 S
O70 C76 1.402 1_655 S
H71 C69 0.973 1_655 S
C72 H65 0.928 1_455 S
C72 C73 1.400 1_554 S
C72 C74 1.364 . S
C73 C72 1.400 1_556 S
C73 C77 1.377 . S
C74 C72 1.364 . S
C74 C75 1.374 1_455 S
C75 H66 0.930 . S
C75 C74 1.374 1_655 S
C75 C76 1.382 1_655 S
C76 O70 1.402 1_455 S
C76 C75 1.382 1_455 S
C76 C77 1.394 1_554 S
C77 H67 0.928 1_455 S
C77 C73 1.377 . S
C77 C76 1.394 1_556 S
H78 C85 0.928 1_565 S
H79 C88 0.930 . S
H80 C90 0.928 1_565 S
H81 C82 0.969 . S
C82 H81 0.969 . S
C82 O83 1.550 1_545 S
C82 H84 0.973 1_545 S
O83 C82 1.550 1_565 S
O83 C89 1.402 1_565 S
H84 C82 0.973 1_565 S
C85 H78 0.928 1_545 S
C85 C86 1.400 1_554 S
C85 C87 1.364 . S
C86 C85 1.400 1_556 S
C86 C90 1.377 . S
C87 C85 1.364 . S
C87 C88 1.374 1_545 S
C88 H79 0.930 . S
C88 C87 1.374 1_565 S
C88 C89 1.382 1_565 S
C89 O83 1.402 1_545 S
C89 C88 1.382 1_545 S
C89 C90 1.394 1_554 S
C90 H80 0.928 1_545 S
C90 C86 1.377 . S
C90 C89 1.394 1_556 S
H91 C98 0.929 . S
H92 C101 0.930 . S
H93 C103 0.929 . S
H94 C95 0.969 . S
C95 H94 0.969 . S
C95 O96 1.550 . S
C95 H97 0.973 . S
O96 C95 1.550 . S
O96 C102 1.412 . S
H97 C95 0.973 . S
C98 H91 0.929 . S
C98 C99 1.400 1_554 S
C98 C100 1.364 . S
C99 C98 1.400 1_556 S
C99 C103 1.377 . S
C100 C98 1.364 . S
C100 C101 1.374 . S
C101 H92 0.930 . S
C101 C100 1.374 . S
C101 C102 1.383 . S
C102 O96 1.412 . S
C102 C101 1.383 . S
C102 C103 1.394 1_554 S
C103 H93 0.929 . S
C103 C99 1.377 . S
C103 C102 1.394 1_556 S
Ho104 C107 2.811 . S
Ho104 O124 2.322 . S
Ho104 O126 2.378 . S
Ho104 O127 2.532 . S
Ho104 O128 2.381 . S
Ho104 O129 2.669 1_565 S
Ho104 O131 2.346 1_565 S
Ho104 O135 2.305 1_455 S
Ho105 C116 2.811 . S
Ho105 O125 2.346 1_545 S
Ho105 O129 2.305 1_655 S
Ho105 O130 2.322 . S
Ho105 O132 2.378 . S
Ho105 O133 2.528 . S
Ho105 O134 2.381 . S
Ho105 O135 2.669 1_545 S
C106 O124 1.259 1_655 S
C106 O125 1.268 . S
C107 Ho104 2.811 . S
C107 C108 1.488 1_556 S
C107 O126 1.215 . S
C107 O127 1.309 . S
C108 C107 1.488 1_554 S
C108 C109 1.348 . S
C108 C113 1.413 . S
C109 C108 1.348 . S
C109 C110 1.442 . S
C109 H136 0.930 1_455 S
C110 C109 1.442 . S
C110 C111 1.381 . S
C110 H137 0.931 1_455 S
C111 C110 1.381 . S
C111 C112 1.321 . S
C112 C111 1.321 . S
C112 C113 1.403 . S
C112 H138 0.934 . S
C113 C108 1.413 . S
C113 C112 1.403 . S
C113 H139 0.930 1_554 S
C114 O128 1.298 . S
C114 O129 1.243 1_565 S
C115 O130 1.259 1_455 S
C115 O131 1.268 . S
C116 Ho105 2.811 . S
C116 C117 1.488 . S
C116 O132 1.215 . S
C116 O133 1.299 . S
C117 C116 1.488 . S
C117 C118 1.348 . S
C117 C122 1.413 . S
C118 C117 1.348 . S
C118 C119 1.442 . S
C118 H140 0.930 1_655 S
C119 C118 1.442 . S
C119 C120 1.381 . S
C119 H141 0.931 1_655 S
C120 C119 1.381 . S
C120 C121 1.321 . S
C121 C120 1.321 . S
C121 C122 1.403 . S
C121 H142 0.934 . S
C122 C117 1.413 . S
C122 C121 1.403 . S
C122 H143 0.930 . S
C123 O134 1.275 . S
C123 O135 1.256 1_545 S
O124 Ho104 2.322 . S
O124 C106 1.259 1_455 S
O125 Ho105 2.346 1_565 S
O125 C106 1.268 . S
O126 Ho104 2.378 . S
O126 C107 1.215 . S
O127 Ho104 2.532 . S
O127 C107 1.309 . S
O128 Ho104 2.381 . S
O128 C114 1.298 . S
O129 Ho104 2.669 1_545 S
O129 Ho105 2.305 1_455 S
O129 C114 1.243 1_545 S
O130 Ho105 2.322 . S
O130 C115 1.259 1_655 S
O131 Ho104 2.346 1_545 S
O131 C115 1.268 . S
O132 Ho105 2.378 . S
O132 C116 1.215 . S
O133 Ho105 2.528 . S
O133 C116 1.299 . S
O134 Ho105 2.381 . S
O134 C123 1.275 . S
O135 Ho104 2.305 1_655 S
O135 Ho105 2.669 1_565 S
O135 C123 1.256 1_565 S
H136 C109 0.930 1_655 S
H137 C110 0.931 1_655 S
H138 C112 0.934 . S
H139 C113 0.930 1_556 S
H140 C118 0.930 1_455 S
H141 C119 0.931 1_455 S
H142 C121 0.934 . S
H143 C122 0.930 . S
Ho144 C147 2.811 . S
Ho144 O164 2.322 . S
Ho144 O166 2.378 . S
Ho144 O167 2.530 . S
Ho144 O168 2.381 . S
Ho144 O169 2.669 . S
Ho144 O171 2.346 . S
Ho144 O175 2.305 1_545 S
Ho145 C156 2.811 . S
Ho145 O165 2.346 . S
Ho145 O169 2.305 1_565 S
Ho145 O170 2.322 . S
Ho145 O172 2.378 . S
Ho145 O173 2.526 . S
Ho145 O174 2.381 . S
Ho145 O175 2.669 . S
C146 O164 1.259 1_565 S
C146 O165 1.268 . S
C147 Ho144 2.811 . S
C147 C148 1.488 1_556 S
C147 O166 1.215 . S
C147 O167 1.304 . S
C148 C147 1.488 1_554 S
C148 C149 1.348 . S
C148 C153 1.413 . S
C149 C148 1.348 . S
C149 C150 1.442 . S
C149 H176 0.930 1_545 S
C150 C149 1.442 . S
C150 C151 1.381 . S
C150 H177 0.931 1_545 S
C151 C150 1.381 . S
C151 C152 1.321 . S
C152 C151 1.321 . S
C152 C153 1.403 . S
C152 H178 0.934 . S
C153 C148 1.413 . S
C153 C152 1.403 . S
C153 H179 0.930 1_554 S
C154 O168 1.275 . S
C154 O169 1.256 . S
C155 O170 1.259 1_545 S
C155 O171 1.268 . S
C156 Ho145 2.811 . S
C156 C157 1.488 . S
C156 O172 1.215 . S
C156 O173 1.294 . S
C157 C156 1.488 . S
C157 C158 1.348 . S
C157 C162 1.413 . S
C158 C157 1.348 . S
C158 C159 1.442 . S
C158 H180 0.930 1_565 S
C159 C158 1.442 . S
C159 C160 1.381 . S
C159 H181 0.931 1_565 S
C160 C159 1.381 . S
C160 C161 1.321 . S
C161 C160 1.321 . S
C161 C162 1.403 . S
C161 H182 0.934 . S
C162 C157 1.413 . S
C162 C161 1.403 . S
C162 H183 0.930 . S
C163 O174 1.275 . S
C163 O175 1.256 . S
O164 Ho144 2.322 . S
O164 C146 1.259 1_545 S
O165 Ho145 2.346 . S
O165 C146 1.268 . S
O166 Ho144 2.378 . S
O166 C147 1.215 . S
O167 Ho144 2.530 . S
O167 C147 1.304 . S
O168 Ho144 2.381 . S
O168 C154 1.275 . S
O169 Ho144 2.669 . S
O169 Ho145 2.305 1_545 S
O169 C154 1.256 . S
O170 Ho145 2.322 . S
O170 C155 1.259 1_565 S
O171 Ho144 2.346 . S
O171 C155 1.268 . S
O172 Ho145 2.378 . S
O172 C156 1.215 . S
O173 Ho145 2.526 . S
O173 C156 1.294 . S
O174 Ho145 2.381 . S
O174 C163 1.275 . S
O175 Ho144 2.305 1_565 S
O175 Ho145 2.669 . S
O175 C163 1.256 . S
H176 C149 0.930 1_565 S
H177 C150 0.931 1_565 S
H178 C152 0.934 . S
H179 C153 0.930 1_556 S
H180 C158 0.930 1_545 S
H181 C159 0.931 1_545 S
H182 C161 0.934 . S
H183 C162 0.930 . S
Ho184 C187 2.811 . S
Ho184 O204 2.322 . S
Ho184 O206 2.378 . S
Ho184 O207 2.524 . S
Ho184 O208 2.381 . S
Ho184 O209 2.669 . S
Ho184 O211 2.346 . S
Ho184 O215 2.305 . S
Ho185 C196 2.811 . S
Ho185 O205 2.346 . S
Ho185 O209 2.305 . S
Ho185 O210 2.322 . S
Ho185 O212 2.378 . S
Ho185 O213 2.524 . S
Ho185 O214 2.381 . S
Ho185 O215 2.669 . S
C186 O204 1.259 . S
C186 O205 1.268 . S
C187 Ho184 2.811 . S
C187 C188 1.488 1_556 S
C187 O206 1.215 . S
C187 O207 1.289 . S
C188 C187 1.488 1_554 S
C188 C189 1.348 . S
C188 C193 1.413 . S
C189 C188 1.348 . S
C189 C190 1.442 . S
C189 H216 0.930 . S
C190 C189 1.442 . S
C190 C191 1.381 . S
C190 H217 0.931 . S
C191 C190 1.381 . S
C191 C192 1.321 . S
C192 C191 1.321 . S
C192 C193 1.403 . S
C192 H218 0.934 . S
C193 C188 1.413 . S
C193 C192 1.403 . S
C193 H219 0.930 1_554 S
C194 O208 1.275 . S
C194 O209 1.256 . S
C195 O210 1.259 . S
C195 O211 1.268 . S
C196 Ho185 2.811 . S
C196 C197 1.488 . S
C196 O212 1.215 . S
C196 O213 1.289 . S
C197 C196 1.488 . S
C197 C198 1.348 . S
C197 C202 1.413 . S
C198 C197 1.348 . S
C198 C199 1.442 . S
C198 H220 0.930 . S
C199 C198 1.442 . S
C199 C200 1.381 . S
C199 H221 0.931 . S
C200 C199 1.381 . S
C200 C201 1.321 . S
C201 C200 1.321 . S
C201 C202 1.403 . S
C201 H222 0.934 . S
C202 C197 1.413 . S
C202 C201 1.403 . S
C202 H223 0.930 . S
C203 O214 1.275 . S
C203 O215 1.256 . S
O204 Ho184 2.322 . S
O204 C186 1.259 . S
O205 Ho185 2.346 . S
O205 C186 1.268 . S
O206 Ho184 2.378 . S
O206 C187 1.215 . S
O207 Ho184 2.524 . S
O207 C187 1.289 . S
O208 Ho184 2.381 . S
O208 C194 1.275 . S
O209 Ho184 2.669 . S
O209 Ho185 2.305 . S
O209 C194 1.256 . S
O210 Ho185 2.322 . S
O210 C195 1.259 . S
O211 Ho184 2.346 . S
O211 C195 1.268 . S
O212 Ho185 2.378 . S
O212 C196 1.215 . S
O213 Ho185 2.524 . S
O213 C196 1.289 . S
O214 Ho185 2.381 . S
O214 C203 1.275 . S
O215 Ho184 2.305 . S
O215 Ho185 2.669 . S
O215 C203 1.256 . S
H216 C189 0.930 . S
H217 C190 0.931 . S
H218 C192 0.934 . S
H219 C193 0.930 1_556 S
H220 C198 0.930 . S
H221 C199 0.931 . S
H222 C201 0.934 . S
H223 C202 0.930 . S
Ho224 C227 2.811 . S
Ho224 O244 2.322 . S
Ho224 O246 2.378 . S
Ho224 O247 2.524 . S
Ho224 O248 2.381 . S
Ho224 O249 2.669 1_655 S
Ho224 O251 2.346 1_655 S
Ho224 O255 2.305 . S
Ho225 C236 2.811 . S
Ho225 O245 2.346 1_455 S
Ho225 O249 2.305 . S
Ho225 O250 2.322 . S
Ho225 O252 2.378 . S
Ho225 O253 2.524 . S
Ho225 O254 2.381 . S
Ho225 O255 2.669 1_455 S
C226 O244 1.259 . S
C226 O245 1.268 . S
C227 Ho224 2.811 . S
C227 C228 1.488 1_556 S
C227 O246 1.215 . S
C227 O247 1.289 . S
C228 C227 1.488 1_554 S
C228 C229 1.348 . S
C228 C233 1.413 . S
C229 C228 1.348 . S
C229 C230 1.442 . S
C229 H256 0.930 . S
C230 C229 1.442 . S
C230 C231 1.381 . S
C230 H257 0.931 . S
C231 C230 1.381 . S
C231 C232 1.321 . S
C232 C231 1.321 . S
C232 C233 1.403 . S
C232 H258 0.934 . S
C233 C228 1.413 . S
C233 C232 1.403 . S
C233 H259 0.930 1_554 S
C234 O248 1.291 . S
C234 O249 1.247 1_655 S
C235 O250 1.259 . S
C235 O251 1.268 . S
C236 Ho225 2.811 . S
C236 C237 1.488 . S
C236 O252 1.215 . S
C236 O253 1.289 . S
C237 C236 1.488 . S
C237 C238 1.348 . S
C237 C242 1.413 . S
C238 C237 1.348 . S
C238 C239 1.442 . S
C238 H260 0.930 . S
C239 C238 1.442 . S
C239 C240 1.381 . S
C239 H261 0.931 . S
C240 C239 1.381 . S
C240 C241 1.321 . S
C241 C240 1.321 . S
C241 C242 1.403 . S
C241 H262 0.934 . S
C242 C237 1.413 . S
C242 C241 1.403 . S
C242 H263 0.930 . S
C243 O254 1.296 . S
C243 O255 1.244 1_455 S
O244 Ho224 2.322 . S
O244 C226 1.259 . S
O245 Ho225 2.346 1_655 S
O245 C226 1.268 . S
O246 Ho224 2.378 . S
O246 C227 1.215 . S
O247 Ho224 2.524 . S
O247 C227 1.289 . S
O248 Ho224 2.381 . S
O248 C234 1.291 . S
O249 Ho224 2.669 1_455 S
O249 Ho225 2.305 . S
O249 C234 1.247 1_455 S
O250 Ho225 2.322 . S
O250 C235 1.259 . S
O251 Ho224 2.346 1_455 S
O251 C235 1.268 . S
O252 Ho225 2.378 . S
O252 C236 1.215 . S
O253 Ho225 2.524 . S
O253 C236 1.289 . S
O254 Ho225 2.381 . S
O254 C243 1.296 . S
O255 Ho224 2.305 . S
O255 Ho225 2.669 1_655 S
O255 C243 1.244 1_655 S
H256 C229 0.930 . S
H257 C230 0.931 . S
H258 C232 0.934 . S
H259 C233 0.930 1_556 S
H260 C238 0.930 . S
H261 C239 0.931 . S
H262 C241 0.934 . S
H263 C242 0.930 . S
H264 C270 0.930 . S
H265 C274 0.930 . S
H266 C279 0.929 . S
H267 C277 0.929 . S
H268 C272 0.929 . S
H269 C278 0.929 . S
C270 H264 0.930 . S
C270 C271 1.400 . S
C270 C278 1.378 . S
C271 C270 1.400 . S
C271 C279 1.400 1_545 S
C272 H268 0.929 . S
C272 C274 1.378 . S
C272 C276 1.344 1_565 S
C273 C276 1.463 . S
C273 C278 1.350 . S
C273 N281 1.427 1_545 S
C274 H265 0.930 . S
C274 C272 1.378 . S
C274 C275 1.329 1_565 S
C275 C274 1.329 1_545 S
C275 C277 1.471 . S
C276 C272 1.344 1_545 S
C276 C273 1.463 . S
C276 N280 1.434 . S
C277 H267 0.929 . S
C277 C275 1.471 . S
C277 N280 1.384 . S
C278 H269 0.929 . S
C278 C270 1.378 . S
C278 C273 1.350 . S
C279 H266 0.929 . S
C279 C271 1.400 1_565 S
C279 N281 1.384 . S
N280 C276 1.434 . S
N280 C277 1.384 . S
N281 C273 1.427 1_565 S
N281 C279 1.384 . S
H282 C288 0.930 . S
H283 C292 0.930 . S
H284 C297 0.929 . S
H285 C295 0.929 . S
H286 C290 0.929 . S
H287 C296 0.929 . S
C288 H282 0.930 . S
C288 C289 1.367 . S
C288 C296 1.378 . S
C289 C288 1.367 . S
C289 C297 1.433 . S
C290 H286 0.929 . S
C290 C292 1.378 . S
C290 C294 1.350 . S
C291 C294 1.463 . S
C291 C296 1.350 . S
C291 N299 1.427 . S
C292 H283 0.930 . S
C292 C290 1.378 . S
C292 C293 1.367 . S
C293 C292 1.367 . S
C293 C295 1.433 . S
C294 C290 1.350 . S
C294 C291 1.463 . S
C294 N298 1.427 . S
C295 H285 0.929 . S
C295 C293 1.433 . S
C295 N298 1.384 . S
C296 H287 0.929 . S
C296 C288 1.378 . S
C296 C291 1.350 . S
C297 H284 0.929 . S
C297 C289 1.433 . S
C297 N299 1.384 . S
N298 C294 1.427 . S
N298 C295 1.384 . S
N299 C291 1.427 . S
N299 C297 1.384 . S
H300 C306 0.930 . S
H301 C310 0.930 . S
H302 C315 0.929 . S
H303 C313 0.929 . S
H304 C308 0.929 . S
H305 C314 0.929 . S
C306 H300 0.930 . S
C306 C307 1.367 . S
C306 C314 1.378 . S
C307 C306 1.367 . S
C307 C315 1.433 . S
C308 H304 0.929 . S
C308 C310 1.378 . S
C308 C312 1.350 . S
C309 C312 1.463 . S
C309 C314 1.350 . S
C309 N317 1.427 . S
C310 H301 0.930 . S
C310 C308 1.378 . S
C310 C311 1.367 . S
C311 C310 1.367 . S
C311 C313 1.433 . S
C312 C308 1.350 . S
C312 C309 1.463 . S
C312 N316 1.427 . S
C313 H303 0.929 . S
C313 C311 1.433 . S
C313 N316 1.384 . S
C314 H305 0.929 . S
C314 C306 1.378 . S
C314 C309 1.350 . S
C315 H302 0.929 . S
C315 C307 1.433 . S
C315 N317 1.384 . S
N316 C312 1.427 . S
N316 C313 1.384 . S
N317 C309 1.427 . S
N317 C315 1.384 . S
H318 C324 0.930 . S
H319 C328 0.930 . S
H320 C333 0.929 . S
H321 C331 0.929 . S
H322 C326 0.929 . S
H323 C332 0.929 . S
C324 H318 0.930 . S
C324 C325 1.364 . S
C324 C332 1.378 . S
C325 C324 1.364 . S
C325 C333 1.436 1_655 S
C326 H322 0.929 . S
C326 C328 1.378 . S
C326 C330 1.350 . S
C327 C330 1.463 . S
C327 C332 1.342 1_455 S
C327 N335 1.435 . S
C328 H319 0.930 . S
C328 C326 1.378 . S
C328 C329 1.367 . S
C329 C328 1.367 . S
C329 C331 1.433 1_455 S
C330 C326 1.350 . S
C330 C327 1.463 . S
C330 N334 1.427 1_455 S
C331 H321 0.929 . S
C331 C329 1.433 1_655 S
C331 N334 1.384 . S
C332 H323 0.929 . S
C332 C324 1.378 . S
C332 C327 1.342 1_655 S
C333 H320 0.929 . S
C333 C325 1.436 1_455 S
C333 N335 1.384 . S
N334 C330 1.427 1_655 S
N334 C331 1.384 . S
N335 C327 1.435 . S
N335 C333 1.384 . S
H336 C342 0.930 . S
H337 C346 0.930 . S
H338 C351 0.929 . S
H339 C349 0.929 . S
H340 C344 0.929 . S
H341 C350 0.929 . S
C342 H336 0.930 . S
C342 C343 1.381 . S
C342 C350 1.378 . S
C343 C342 1.381 . S
C343 C351 1.418 1_545 S
C344 H340 0.929 . S
C344 C346 1.378 1_554 S
C344 C348 1.350 . S
C345 C348 1.462 1_545 S
C345 C350 1.355 . S
C345 N353 1.422 1_545 S
C346 H337 0.930 . S
C346 C344 1.378 1_556 S
C346 C347 1.367 . S
C347 C346 1.367 . S
C347 C349 1.433 1_565 S
C348 C344 1.350 . S
C348 C345 1.462 1_565 S
C348 N352 1.427 1_565 S
C349 H339 0.929 . S
C349 C347 1.433 1_545 S
C349 N352 1.384 1_556 S
C350 H341 0.929 . S
C350 C342 1.378 . S
C350 C345 1.355 . S
C351 H338 0.929 . S
C351 C343 1.418 1_565 S
C351 N353 1.384 . S
N352 C348 1.427 1_545 S
N352 C349 1.384 1_554 S
N353 C345 1.422 1_565 S
N353 C351 1.384 . S
H354 C360 0.930 . S
H355 C364 0.930 . S
H356 C369 0.929 . S
H357 C367 0.929 . S
H358 C362 0.929 . S
H359 C368 0.929 . S
C360 H354 0.930 . S
C360 C361 1.367 . S
C360 C368 1.378 . S
C361 C360 1.367 . S
C361 C369 1.433 . S
C362 H358 0.929 . S
C362 C364 1.378 . S
C362 C366 1.350 . S
C363 C366 1.463 . S
C363 C368 1.350 . S
C363 N371 1.427 . S
C364 H355 0.930 . S
C364 C362 1.378 . S
C364 C365 1.367 1_554 S
C365 C364 1.367 1_556 S
C365 C367 1.433 . S
C366 C362 1.350 . S
C366 C363 1.463 . S
C366 N370 1.427 . S
C367 H357 0.929 . S
C367 C365 1.433 . S
C367 N370 1.384 1_556 S
C368 H359 0.929 . S
C368 C360 1.378 . S
C368 C363 1.350 . S
C369 H356 0.929 . S
C369 C361 1.433 . S
C369 N371 1.384 . S
N370 C366 1.427 . S
N370 C367 1.384 1_554 S
N371 C363 1.427 . S
N371 C369 1.384 . S
H372 C378 0.930 . S
H373 C382 0.930 . S
H374 C387 0.929 . S
H375 C385 0.929 . S
H376 C380 0.929 . S
H377 C386 0.929 . S
C378 H372 0.930 . S
C378 C379 1.367 . S
C378 C386 1.378 . S
C379 C378 1.367 . S
C379 C387 1.433 . S
C380 H376 0.929 . S
C380 C382 1.378 . S
C380 C384 1.350 . S
C381 C384 1.463 . S
C381 C386 1.350 . S
C381 N389 1.427 . S
C382 H373 0.930 . S
C382 C380 1.378 . S
C382 C383 1.367 1_554 S
C383 C382 1.367 1_556 S
C383 C385 1.433 . S
C384 C380 1.350 . S
C384 C381 1.463 . S
C384 N388 1.427 . S
C385 H375 0.929 . S
C385 C383 1.433 . S
C385 N388 1.384 1_556 S
C386 H377 0.929 . S
C386 C378 1.378 . S
C386 C381 1.350 . S
C387 H374 0.929 . S
C387 C379 1.433 . S
C387 N389 1.384 . S
N388 C384 1.427 . S
N388 C385 1.384 1_554 S
N389 C381 1.427 . S
N389 C387 1.384 . S
H390 C396 0.930 . S
H391 C400 0.930 . S
H392 C405 0.929 . S
H393 C403 0.929 . S
H394 C398 0.929 . S
H395 C404 0.929 . S
C396 H390 0.930 . S
C396 C397 1.401 . S
C396 C404 1.378 . S
C397 C396 1.401 . S
C397 C405 1.400 1_655 S
C398 H394 0.929 . S
C398 C400 1.378 1_554 S
C398 C402 1.336 1_455 S
C399 C402 1.463 . S
C399 C404 1.350 . S
C399 N407 1.427 1_655 S
C400 H391 0.930 . S
C400 C398 1.378 1_556 S
C400 C401 1.367 1_455 S
C401 C400 1.367 1_655 S
C401 C403 1.433 . S
C402 C398 1.336 1_655 S
C402 C399 1.463 . S
C402 N406 1.441 . S
C403 H393 0.929 . S
C403 C401 1.433 . S
C403 N406 1.384 1_556 S
C404 H395 0.929 . S
C404 C396 1.378 . S
C404 C399 1.350 . S
C405 H392 0.929 . S
C405 C397 1.400 1_455 S
C405 N407 1.384 . S
N406 C402 1.441 . S
N406 C403 1.384 1_554 S
N407 C399 1.427 1_455 S
N407 C405 1.384 . S
H408 C414 0.930 . S
H409 C418 0.930 . S
H410 C423 0.929 . S
H411 C421 0.929 . S
H412 C416 0.929 . S
H413 C422 0.929 . S
C414 H408 0.930 . S
C414 C415 1.367 . S
C414 C422 1.378 . S
C415 C414 1.367 . S
C415 C423 1.433 1_455 S
C416 H412 0.929 . S
C416 C418 1.378 . S
C416 C420 1.350 . S
C417 C420 1.463 . S
C417 C422 1.350 1_655 S
C417 N425 1.427 . S
C418 H409 0.930 . S
C418 C416 1.378 . S
C418 C419 1.367 . S
C419 C418 1.367 . S
C419 C421 1.433 . S
C420 C416 1.350 . S
C420 C417 1.463 . S
C420 N424 1.427 . S
C421 H411 0.929 . S
C421 C419 1.433 . S
C421 N424 1.384 . S
C422 H413 0.929 . S
C422 C414 1.378 . S
C422 C417 1.350 1_455 S
C423 H410 0.929 . S
C423 C415 1.433 1_655 S
C423 N425 1.384 . S
N424 C420 1.427 . S
N424 C421 1.384 . S
N425 C417 1.427 . S
N425 C423 1.384 . S
H426 C432 0.930 . S
H427 C436 0.930 . S
H428 C441 0.929 . S
H429 C439 0.929 . S
H430 C434 0.929 . S
H431 C440 0.929 . S
C432 H426 0.930 . S
C432 C433 1.367 . S
C432 C440 1.378 . S
C433 C432 1.367 . S
C433 C441 1.433 1_545 S
C434 H430 0.929 . S
C434 C436 1.378 . S
C434 C438 1.350 . S
C435 C438 1.463 . S
C435 C440 1.350 1_565 S
C435 N443 1.427 . S
C436 H427 0.930 . S
C436 C434 1.378 . S
C436 C437 1.367 . S
C437 C436 1.367 . S
C437 C439 1.433 . S
C438 C434 1.350 . S
C438 C435 1.463 . S
C438 N442 1.427 . S
C439 H429 0.929 . S
C439 C437 1.433 . S
C439 N442 1.384 . S
C440 H431 0.929 . S
C440 C432 1.378 . S
C440 C435 1.350 1_545 S
C441 H428 0.929 . S
C441 C433 1.433 1_565 S
C441 N443 1.384 . S
N442 C438 1.427 . S
N442 C439 1.384 . S
N443 C435 1.427 . S
N443 C441 1.384 . S
H444 C450 0.930 . S
H445 C454 0.930 . S
H446 C459 0.929 . S
H447 C457 0.929 . S
H448 C452 0.929 . S
H449 C458 0.929 . S
C450 H444 0.930 . S
C450 C451 1.367 . S
C450 C458 1.378 . S
C451 C450 1.367 . S
C451 C459 1.433 . S
C452 H448 0.929 . S
C452 C454 1.378 . S
C452 C456 1.350 . S
C453 C456 1.463 . S
C453 C458 1.350 . S
C453 N461 1.427 . S
C454 H445 0.930 . S
C454 C452 1.378 . S
C454 C455 1.367 . S
C455 C454 1.367 . S
C455 C457 1.433 . S
C456 C452 1.350 . S
C456 C453 1.463 . S
C456 N460 1.427 . S
C457 H447 0.929 . S
C457 C455 1.433 . S
C457 N460 1.384 . S
C458 H449 0.929 . S
C458 C450 1.378 . S
C458 C453 1.350 . S
C459 H446 0.929 . S
C459 C451 1.433 . S
C459 N461 1.384 . S
N460 C456 1.427 . S
N460 C457 1.384 . S
N461 C453 1.427 . S
N461 C459 1.384 . S
H462 C468 0.930 . S
H463 C472 0.930 . S
H464 C477 0.929 . S
H465 C475 0.929 . S
H466 C470 0.929 . S
H467 C476 0.929 . S
C468 H462 0.930 . S
C468 C469 1.367 . S
C468 C476 1.378 . S
C469 C468 1.367 . S
C469 C477 1.433 . S
C470 H466 0.929 . S
C470 C472 1.378 . S
C470 C474 1.350 . S
C471 C474 1.463 . S
C471 C476 1.350 . S
C471 N479 1.427 . S
C472 H463 0.930 . S
C472 C470 1.378 . S
C472 C473 1.367 . S
C473 C472 1.367 . S
C473 C475 1.433 . S
C474 C470 1.350 . S
C474 C471 1.463 . S
C474 N478 1.427 . S
C475 H465 0.929 . S
C475 C473 1.433 . S
C475 N478 1.384 . S
C476 H467 0.929 . S
C476 C468 1.378 . S
C476 C471 1.350 . S
C477 H464 0.929 . S
C477 C469 1.433 . S
C477 N479 1.384 . S
N478 C474 1.427 . S
N478 C475 1.384 . S
N479 C471 1.427 . S
N479 C477 1.384 . S
H480 C486 0.930 . S
H481 C490 0.930 . S
H482 C495 0.929 . S
H483 C493 0.929 . S
H484 C488 0.929 . S
H485 C494 0.929 . S
C486 H480 0.930 . S
C486 C487 1.367 . S
C486 C494 1.378 . S
C487 C486 1.367 . S
C487 C495 1.433 1_655 S
C488 H484 0.929 . S
C488 C490 1.378 . S
C488 C492 1.350 . S
C489 C492 1.463 . S
C489 C494 1.350 1_455 S
C489 N497 1.427 . S
C490 H481 0.930 . S
C490 C488 1.378 . S
C490 C491 1.367 . S
C491 C490 1.367 . S
C491 C493 1.433 . S
C492 C488 1.350 . S
C492 C489 1.463 . S
C492 N496 1.427 . S
C493 H483 0.929 . S
C493 C491 1.433 . S
C493 N496 1.384 . S
C494 H485 0.929 . S
C494 C486 1.378 . S
C494 C489 1.350 1_655 S
C495 H482 0.929 . S
C495 C487 1.433 1_455 S
C495 N497 1.384 . S
N496 C492 1.427 . S
N496 C493 1.384 . S
N497 C489 1.427 . S
N497 C495 1.384 . S
H498 C504 0.930 . S
H499 C508 0.930 . S
H500 C513 0.929 . S
H501 C511 0.929 . S
H502 C506 0.929 1_565 S
H503 C512 0.929 . S
C504 H498 0.930 . S
C504 C505 1.330 1_545 S
C504 C512 1.378 . S
C505 C504 1.330 1_565 S
C505 C513 1.458 . S
C506 H502 0.929 1_545 S
C506 C508 1.378 . S
C506 C510 1.350 . S
C507 C510 1.463 . S
C507 C512 1.350 . S
C507 N515 1.427 1_545 S
C508 H499 0.930 . S
C508 C506 1.378 . S
C508 C509 1.367 . S
C509 C508 1.367 . S
C509 C511 1.433 . S
C510 C506 1.350 . S
C510 C507 1.463 . S
C510 N514 1.427 . S
C511 H501 0.929 . S
C511 C509 1.433 . S
C511 N514 1.384 . S
C512 H503 0.929 . S
C512 C504 1.378 . S
C512 C507 1.350 . S
C513 H500 0.929 . S
C513 C505 1.458 . S
C513 N515 1.384 . S
N514 C510 1.427 . S
N514 C511 1.384 . S
N515 C507 1.427 1_565 S
N515 C513 1.384 . S
H516 C522 0.930 . S
H517 C526 0.927 1_556 S
H518 C531 0.929 . S
H519 C529 0.929 . S
H520 C524 0.929 . S
H521 C530 0.929 . S
C522 H516 0.930 . S
C522 C523 1.367 . S
C522 C530 1.378 . S
C523 C522 1.367 . S
C523 C531 1.433 . S
C524 H520 0.929 . S
C524 C526 1.378 . S
C524 C528 1.350 . S
C525 C528 1.463 . S
C525 C530 1.350 . S
C525 N533 1.427 . S
C526 H517 0.927 1_554 S
C526 C524 1.378 . S
C526 C527 1.367 . S
C527 C526 1.367 . S
C527 C529 1.433 . S
C528 C524 1.350 . S
C528 C525 1.463 . S
C528 N532 1.427 . S
C529 H519 0.929 . S
C529 C527 1.433 . S
C529 N532 1.384 . S
C530 H521 0.929 . S
C530 C522 1.378 . S
C530 C525 1.350 . S
C531 H518 0.929 . S
C531 C523 1.433 . S
C531 N533 1.384 . S
N532 C528 1.427 . S
N532 C529 1.384 . S
N533 C525 1.427 . S
N533 C531 1.384 . S
H534 C540 0.930 . S
H535 C544 0.930 . S
H536 C549 0.929 . S
H537 C547 0.929 . S
H538 C542 0.929 . S
H539 C548 0.929 . S
C540 H534 0.930 . S
C540 C541 1.367 . S
C540 C548 1.378 . S
C541 C540 1.367 . S
C541 C549 1.433 . S
C542 H538 0.929 . S
C542 C544 1.378 . S
C542 C546 1.350 . S
C543 C546 1.463 . S
C543 C548 1.350 . S
C543 N551 1.427 . S
C544 H535 0.930 . S
C544 C542 1.378 . S
C544 C545 1.367 . S
C545 C544 1.367 . S
C545 C547 1.433 . S
C546 C542 1.350 . S
C546 C543 1.463 . S
C546 N550 1.427 . S
C547 H537 0.929 . S
C547 C545 1.433 . S
C547 N550 1.384 . S
C548 H539 0.929 . S
C548 C540 1.378 . S
C548 C543 1.350 . S
C549 H536 0.929 . S
C549 C541 1.433 . S
C549 N551 1.384 . S
N550 C546 1.427 . S
N550 C547 1.384 . S
N551 C543 1.427 . S
N551 C549 1.384 . S
H552 C558 0.930 . S
H553 C562 0.930 . S
H554 C567 0.929 . S
H555 C565 0.929 . S
H556 C560 0.929 . S
H557 C566 0.929 . S
C558 H552 0.930 . S
C558 C559 1.367 . S
C558 C566 1.378 . S
C559 C558 1.367 . S
C559 C567 1.433 1_455 S
C560 H556 0.929 . S
C560 C562 1.378 . S
C560 C564 1.350 1_655 S
C561 C564 1.463 . S
C561 C566 1.350 . S
C561 N569 1.427 1_455 S
C562 H553 0.930 . S
C562 C560 1.378 . S
C562 C563 1.367 1_655 S
C563 C562 1.367 1_455 S
C563 C565 1.433 . S
C564 C560 1.350 1_455 S
C564 C561 1.463 . S
C564 N568 1.427 . S
C565 H555 0.929 . S
C565 C563 1.433 . S
C565 N568 1.384 . S
C566 H557 0.929 . S
C566 C558 1.378 . S
C566 C561 1.350 . S
C567 H554 0.929 . S
C567 C559 1.433 1_655 S
C567 N569 1.384 . S
N568 C564 1.427 . S
N568 C565 1.384 . S
N569 C561 1.427 1_655 S
N569 C567 1.384 . S
H570 C576 0.930 . S
H571 C580 0.930 . S
H572 C585 0.929 . S
H573 C583 0.929 . S
H574 C578 0.929 . S
H575 C584 0.929 . S
C576 H570 0.930 . S
C576 C577 1.367 . S
C576 C584 1.378 . S
C577 C576 1.367 . S
C577 C585 1.433 1_545 S
C578 H574 0.929 . S
C578 C580 1.378 . S
C578 C582 1.350 1_565 S
C579 C582 1.463 . S
C579 C584 1.350 . S
C579 N587 1.427 1_545 S
C580 H571 0.930 . S
C580 C578 1.378 . S
C580 C581 1.367 1_565 S
C581 C580 1.367 1_545 S
C581 C583 1.433 . S
C582 C578 1.350 1_545 S
C582 C579 1.463 . S
C582 N586 1.427 . S
C583 H573 0.929 . S
C583 C581 1.433 . S
C583 N586 1.384 . S
C584 H575 0.929 . S
C584 C576 1.378 . S
C584 C579 1.350 . S
C585 H572 0.929 . S
C585 C577 1.433 1_565 S
C585 N587 1.384 . S
N586 C582 1.427 . S
N586 C583 1.384 . S
N587 C579 1.427 1_565 S
N587 C585 1.384 . S
H588 C594 0.930 1_554 S
H589 C598 0.930 . S
H590 C603 0.929 . S
H591 C601 0.929 . S
H592 C596 0.929 . S
H593 C602 0.929 . S
C594 H588 0.930 1_556 S
C594 C595 1.367 . S
C594 C602 1.378 . S
C595 C594 1.367 . S
C595 C603 1.433 . S
C596 H592 0.929 . S
C596 C598 1.378 . S
C596 C600 1.350 . S
C597 C600 1.463 . S
C597 C602 1.350 . S
C597 N605 1.427 . S
C598 H589 0.930 . S
C598 C596 1.378 . S
C598 C599 1.367 . S
C599 C598 1.367 . S
C599 C601 1.433 . S
C600 C596 1.350 . S
C600 C597 1.463 . S
C600 N604 1.427 . S
C601 H591 0.929 . S
C601 C599 1.433 . S
C601 N604 1.384 . S
C602 H593 0.929 . S
C602 C594 1.378 . S
C602 C597 1.350 . S
C603 H590 0.929 . S
C603 C595 1.433 . S
C603 N605 1.384 . S
N604 C600 1.427 . S
N604 C601 1.384 . S
N605 C597 1.427 . S
N605 C603 1.384 . S
H606 C612 0.930 1_554 S
H607 C616 0.930 . S
H608 C621 0.929 . S
H609 C619 0.929 . S
H610 C614 0.929 . S
H611 C620 0.929 . S
C612 H606 0.930 1_556 S
C612 C613 1.367 . S
C612 C620 1.378 . S
C613 C612 1.367 . S
C613 C621 1.433 . S
C614 H610 0.929 . S
C614 C616 1.378 . S
C614 C618 1.350 . S
C615 C618 1.463 . S
C615 C620 1.350 . S
C615 N623 1.427 . S
C616 H607 0.930 . S
C616 C614 1.378 . S
C616 C617 1.367 . S
C617 C616 1.367 . S
C617 C619 1.433 . S
C618 C614 1.350 . S
C618 C615 1.463 . S
C618 N622 1.427 . S
C619 H609 0.929 . S
C619 C617 1.433 . S
C619 N622 1.384 . S
C620 H611 0.929 . S
C620 C612 1.378 . S
C620 C615 1.350 . S
C621 H608 0.929 . S
C621 C613 1.433 . S
C621 N623 1.384 . S
N622 C618 1.427 . S
N622 C619 1.384 . S
N623 C615 1.427 . S
N623 C621 1.384 . S
H624 C630 0.930 . S
H625 C634 0.930 . S
H626 C639 0.929 . S
H627 C637 0.929 . S
H628 C632 0.929 . S
H629 C638 0.929 . S
C630 H624 0.930 . S
C630 C631 1.367 1_455 S
C630 C638 1.378 . S
C631 C630 1.367 1_655 S
C631 C639 1.433 . S
C632 H628 0.929 . S
C632 C634 1.378 . S
C632 C636 1.350 . S
C633 C636 1.463 . S
C633 C638 1.350 1_655 S
C633 N641 1.427 . S
C634 H625 0.930 . S
C634 C632 1.378 . S
C634 C635 1.367 . S
C635 C634 1.367 . S
C635 C637 1.433 1_655 S
C636 C632 1.350 . S
C636 C633 1.463 . S
C636 N640 1.427 1_655 S
C637 H627 0.929 . S
C637 C635 1.433 1_455 S
C637 N640 1.384 . S
C638 H629 0.929 . S
C638 C630 1.378 . S
C638 C633 1.350 1_455 S
C639 H626 0.929 . S
C639 C631 1.433 . S
C639 N641 1.384 . S
N640 C636 1.427 1_455 S
N640 C637 1.384 . S
N641 C633 1.427 . S
N641 C639 1.384 . S
H642 C648 0.930 . S
H643 C652 0.930 . S
H644 C657 0.929 . S
H645 C655 0.929 . S
H646 C650 0.929 . S
H647 C656 0.929 . S
C648 H642 0.930 . S
C648 C649 1.367 1_545 S
C648 C656 1.378 . S
C649 C648 1.367 1_565 S
C649 C657 1.433 . S
C650 H646 0.929 . S
C650 C652 1.378 . S
C650 C654 1.350 . S
C651 C654 1.463 . S
C651 C656 1.350 1_565 S
C651 N659 1.427 . S
C652 H643 0.930 . S
C652 C650 1.378 . S
C652 C653 1.367 . S
C653 C652 1.367 . S
C653 C655 1.433 1_565 S
C654 C650 1.350 . S
C654 C651 1.463 . S
C654 N658 1.427 1_565 S
C655 H645 0.929 . S
C655 C653 1.433 1_545 S
C655 N658 1.384 . S
C656 H647 0.929 . S
C656 C648 1.378 . S
C656 C651 1.350 1_545 S
C657 H644 0.929 . S
C657 C649 1.433 . S
C657 N659 1.384 . S
N658 C654 1.427 1_545 S
N658 C655 1.384 . S
N659 C651 1.427 . S
N659 C657 1.384 . S
H660 C666 0.930 . S
H661 C670 0.930 . S
H662 C675 0.929 . S
H663 C673 0.929 . S
H664 C668 0.929 . S
H665 C674 0.929 . S
C666 H660 0.930 . S
C666 C667 1.367 . S
C666 C674 1.378 . S
C667 C666 1.367 . S
C667 C675 1.433 . S
C668 H664 0.929 . S
C668 C670 1.378 . S
C668 C672 1.350 . S
C669 C672 1.463 . S
C669 C674 1.350 . S
C669 N677 1.427 . S
C670 H661 0.930 . S
C670 C668 1.378 . S
C670 C671 1.367 . S
C671 C670 1.367 . S
C671 C673 1.433 . S
C672 C668 1.350 . S
C672 C669 1.463 . S
C672 N676 1.427 . S
C673 H663 0.929 . S
C673 C671 1.433 . S
C673 N676 1.384 . S
C674 H665 0.929 . S
C674 C666 1.378 . S
C674 C669 1.350 . S
C675 H662 0.929 . S
C675 C667 1.433 . S
C675 N677 1.384 . S
N676 C672 1.427 . S
N676 C673 1.384 . S
N677 C669 1.427 . S
N677 C675 1.384 . S
H678 C684 0.930 . S
H679 C688 0.930 . S
H680 C693 0.929 . S
H681 C691 0.929 . S
H682 C686 0.929 . S
H683 C692 0.929 . S
C684 H678 0.930 . S
C684 C685 1.367 . S
C684 C692 1.378 . S
C685 C684 1.367 . S
C685 C693 1.433 . S
C686 H682 0.929 . S
C686 C688 1.378 . S
C686 C690 1.350 . S
C687 C690 1.463 . S
C687 C692 1.350 . S
C687 N695 1.427 . S
C688 H679 0.930 . S
C688 C686 1.378 . S
C688 C689 1.367 . S
C689 C688 1.367 . S
C689 C691 1.433 . S
C690 C686 1.350 . S
C690 C687 1.463 . S
C690 N694 1.427 . S
C691 H681 0.929 . S
C691 C689 1.433 . S
C691 N694 1.384 . S
C692 H683 0.929 . S
C692 C684 1.378 . S
C692 C687 1.350 . S
C693 H680 0.929 . S
C693 C685 1.433 . S
C693 N695 1.384 . S
N694 C690 1.427 . S
N694 C691 1.384 . S
N695 C687 1.427 . S
N695 C693 1.384 . S
C271 C82 1.673 . S
C275 C114 1.945 1_545 S
C293 C154 1.960 . S
C289 C95 1.678 . S
C311 C194 1.963 . S
C307 C56 1.684 . S
C329 C234 1.954 1_455 S
C325 C69 1.688 1_655 S
C347 C123 1.956 1_565 S
C343 C30 1.678 . S
C361 C43 1.679 . S
C365 C163 1.959 . S
C379 C4 1.679 . S
C383 C203 1.959 . S
C397 C17 1.676 1_655 S
C401 C243 1.953 1_655 S
C419 C120 0.536 . S
C415 C74 0.531 . S
C437 C160 0.541 . S
C433 C87 0.540 . S
C455 C200 0.519 . S
C451 C100 0.546 . S
C469 C61 0.518 . S
C473 C240 0.502 . S
C487 C22 0.552 1_655 S
C491 C111 0.538 . S
C509 C151 0.512 . S
C505 C35 0.536 1_565 S
C527 C191 0.518 . S
C523 C48 0.520 . S
C541 C9 0.547 . S
C545 C231 0.545 . S
C559 C73 2.043 . S
C563 C115 2.265 . S
C577 C86 2.032 . S
C581 C155 2.259 . S
C599 C195 2.256 . S
C595 C99 2.009 . S
C617 C235 2.266 . S
C613 C60 2.015 . S
C631 C21 2.044 1_655 S
C635 C106 2.281 . S
C653 C146 2.264 . S
C649 C34 2.023 1_565 S
C671 C186 2.258 . S
C667 C47 2.027 . S
C685 C8 2.027 . S
C689 C226 2.269 . S
