# Generated by pormake.
# Topology pto, (3,4)-cn, num edge types: 1
# Building blocks:
#     Node 0, Type 0, BuildingBlock: KAKCAD_clean_linker_0, # of connection points: 3
#     Node 1, Type 0, BuildingBlock: KAKCAD_clean_linker_0, # of connection points: 3
#     Node 2, Type 0, BuildingBlock: KAKCAD_clean_linker_0, # of connection points: 3
#     Node 3, Type 0, BuildingBlock: KAKCAD_clean_linker_0, # of connection points: 3
#     Node 4, Type 0, BuildingBlock: KAKCAD_clean_linker_0, # of connection points: 3
#     Node 5, Type 0, BuildingBlock: KAKCAD_clean_linker_0, # of connection points: 3
#     Node 6, Type 0, BuildingBlock: KAKCAD_clean_linker_0, # of connection points: 3
#     Node 7, Type 0, BuildingBlock: KAKCAD_clean_linker_0, # of connection points: 3
#     Node 8, Type 1, BuildingBlock: NAWXER_clean_sbu_0, # of connection points: 4
#     Node 9, Type 1, BuildingBlock: NAWXER_clean_sbu_0, # of connection points: 4
#     Node 10, Type 1, BuildingBlock: NAWXER_clean_sbu_0, # of connection points: 4
#     Node 11, Type 1, BuildingBlock: NAWXER_clean_sbu_0, # of connection points: 4
#     Node 12, Type 1, BuildingBlock: NAWXER_clean_sbu_0, # of connection points: 4
#     Node 13, Type 1, BuildingBlock: NAWXER_clean_sbu_0, # of connection points: 4
#     Edge 14, Type (0, 1), BuildingBlock: ZUJKAS_clean_linker_0, # of connection points: 2
#     Edge 15, Type (0, 1), BuildingBlock: ZUJKAS_clean_linker_0, # of connection points: 2
#     Edge 16, Type (0, 1), BuildingBlock: ZUJKAS_clean_linker_0, # of connection points: 2
#     Edge 17, Type (0, 1), BuildingBlock: ZUJKAS_clean_linker_0, # of connection points: 2
#     Edge 18, Type (0, 1), BuildingBlock: ZUJKAS_clean_linker_0, # of connection points: 2
#     Edge 19, Type (0, 1), BuildingBlock: ZUJKAS_clean_linker_0, # of connection points: 2
#     Edge 20, Type (0, 1), BuildingBlock: ZUJKAS_clean_linker_0, # of connection points: 2
#     Edge 21, Type (0, 1), BuildingBlock: ZUJKAS_clean_linker_0, # of connection points: 2
#     Edge 22, Type (0, 1), BuildingBlock: ZUJKAS_clean_linker_0, # of connection points: 2
#     Edge 23, Type (0, 1), BuildingBlock: ZUJKAS_clean_linker_0, # of connection points: 2
#     Edge 24, Type (0, 1), BuildingBlock: ZUJKAS_clean_linker_0, # of connection points: 2
#     Edge 25, Type (0, 1), BuildingBlock: ZUJKAS_clean_linker_0, # of connection points: 2
#     Edge 26, Type (0, 1), BuildingBlock: ZUJKAS_clean_linker_0, # of connection points: 2
#     Edge 27, Type (0, 1), BuildingBlock: ZUJKAS_clean_linker_0, # of connection points: 2
#     Edge 28, Type (0, 1), BuildingBlock: ZUJKAS_clean_linker_0, # of connection points: 2
#     Edge 29, Type (0, 1), BuildingBlock: ZUJKAS_clean_linker_0, # of connection points: 2
#     Edge 30, Type (0, 1), BuildingBlock: ZUJKAS_clean_linker_0, # of connection points: 2
#     Edge 31, Type (0, 1), BuildingBlock: ZUJKAS_clean_linker_0, # of connection points: 2
#     Edge 32, Type (0, 1), BuildingBlock: ZUJKAS_clean_linker_0, # of connection points: 2
#     Edge 33, Type (0, 1), BuildingBlock: ZUJKAS_clean_linker_0, # of connection points: 2
#     Edge 34, Type (0, 1), BuildingBlock: ZUJKAS_clean_linker_0, # of connection points: 2
#     Edge 35, Type (0, 1), BuildingBlock: ZUJKAS_clean_linker_0, # of connection points: 2
#     Edge 36, Type (0, 1), BuildingBlock: ZUJKAS_clean_linker_0, # of connection points: 2
#     Edge 37, Type (0, 1), BuildingBlock: ZUJKAS_clean_linker_0, # of connection points: 2
# Relax obj value: 0.000
# Max RMSD: 0.004
# Mean RMSD: 0.002
data_MOF--net-pto--node1-NAWXER_clean_sbu_0--node2-KAKCAD_clean_linker_0--edge1-ZUJKAS_clean_linker_0
_symmetry_space_group_name_H-M    P1
_symmetry_Int_Tables_number       1
_symmetry_cell_setting            triclinic
loop_
_symmetry_equiv_pos_as_xyz
'x, y, z'
_cell_length_a     67.49493
_cell_length_b     63.34182
_cell_length_c     59.190691
_cell_angle_alpha  90.397466
_cell_angle_beta   90.564447
_cell_angle_gamma 90.302833
loop_
_atom_site_label
_atom_site_type_symbol
_atom_site_fract_x
_atom_site_fract_y
_atom_site_fract_z
_atom_type_partial_charge
C0 C 0.28021 0.21294 0.32727 0.0
C1 C 0.26386 0.20011 0.3326 0.0
C2 C 0.27831 0.22917 0.31155 0.0
C3 C 0.26 0.23307 0.30093 0.0
C4 C 0.24352 0.22067 0.30665 0.0
C5 C 0.24544 0.20431 0.32223 0.0
C6 C 0.25836 0.24938 0.28315 0.0
C7 C 0.27259 0.25037 0.2661 0.0
C8 C 0.27118 0.26534 0.24881 0.0
C9 C 0.2552 0.27948 0.24868 0.0
C10 C 0.24085 0.27892 0.26579 0.0
C11 C 0.24255 0.26369 0.28292 0.0
C12 C 0.22428 0.29437 0.26602 0.0
C13 C 0.22753 0.31556 0.26004 0.0
C14 C 0.20513 0.28815 0.27254 0.0
C15 C 0.1897 0.30278 0.27327 0.0
C16 C 0.193 0.32393 0.26732 0.0
C17 C 0.28643 0.26589 0.23092 0.0
C18 C 0.30658 0.26404 0.23669 0.0
C19 C 0.28099 0.26738 0.20801 0.0
C20 C 0.29541 0.26647 0.19119 0.0
C21 C 0.31554 0.26411 0.19697 0.0
C22 C 0.32096 0.26319 0.21993 0.0
C23 C 0.21206 0.33014 0.2606 0.0
H24 H 0.29451 0.21046 0.33524 0.0
H25 H 0.29121 0.23869 0.30768 0.0
H26 H 0.22929 0.22318 0.29852 0.0
H27 H 0.2326 0.19458 0.32566 0.0
H28 H 0.28456 0.23902 0.26594 0.0
H29 H 0.23186 0.26327 0.29645 0.0
H30 H 0.25401 0.29097 0.23526 0.0
H31 H 0.24213 0.32102 0.25532 0.0
H32 H 0.20199 0.2719 0.27688 0.0
H33 H 0.1751 0.29745 0.2782 0.0
H34 H 0.31126 0.26323 0.25422 0.0
H35 H 0.26555 0.26861 0.20305 0.0
H36 H 0.21511 0.3464 0.25619 0.0
H37 H 0.33636 0.26187 0.225 0.0
H38 H 0.29072 0.26705 0.17366 0.0
C39 C 0.31579 0.73633 0.81763 0.0
C40 C 0.32251 0.7157 0.82158 0.0
C41 C 0.29962 0.7399 0.80328 0.0
C42 C 0.28975 0.72291 0.7926 0.0
C43 C 0.29648 0.70228 0.79653 0.0
C44 C 0.31271 0.69872 0.81082 0.0
C45 C 0.27246 0.72671 0.77749 0.0
C46 C 0.27283 0.74326 0.76183 0.0
C47 C 0.25653 0.74702 0.74749 0.0
C48 C 0.23967 0.73396 0.74896 0.0
C49 C 0.23904 0.71733 0.76457 0.0
C50 C 0.25551 0.71386 0.77874 0.0
C51 C 0.22117 0.70365 0.76638 0.0
C52 C 0.20208 0.71242 0.7663 0.0
C53 C 0.22315 0.6817 0.76882 0.0
C54 C 0.20646 0.66883 0.77134 0.0
C55 C 0.18737 0.6776 0.77153 0.0
C56 C 0.25733 0.76449 0.7309 0.0
C57 C 0.26502 0.78435 0.73728 0.0
C58 C 0.25091 0.76133 0.70846 0.0
C59 C 0.2524 0.77759 0.69269 0.0
C60 C 0.26022 0.79741 0.69905 0.0
C61 C 0.26641 0.80063 0.72156 0.0
C62 C 0.18536 0.69954 0.76891 0.0
H63 H 0.32316 0.74978 0.82547 0.0
H64 H 0.29468 0.75596 0.80075 0.0
H65 H 0.2893 0.68888 0.78838 0.0
H66 H 0.31744 0.68263 0.81366 0.0
H67 H 0.28605 0.75292 0.76041 0.0
H68 H 0.25495 0.70143 0.79122 0.0
H69 H 0.22705 0.73676 0.73795 0.0
H70 H 0.20007 0.72929 0.76465 0.0
H71 H 0.23764 0.67443 0.76873 0.0
H72 H 0.20854 0.65202 0.77352 0.0
H73 H 0.26994 0.78733 0.75449 0.0
H74 H 0.24507 0.74616 0.70299 0.0
H75 H 0.17085 0.70675 0.76874 0.0
H76 H 0.27264 0.81565 0.72696 0.0
H77 H 0.24732 0.77469 0.67553 0.0
C78 C 0.70066 0.69635 0.2129 0.0
C79 C 0.694 0.71325 0.19957 0.0
C80 C 0.71546 0.6995 0.22933 0.0
C81 C 0.7238 0.71964 0.23286 0.0
C82 C 0.71742 0.73643 0.21928 0.0
C83 C 0.70276 0.73326 0.20279 0.0
C84 C 0.73877 0.72337 0.251 0.0
C85 C 0.75478 0.70956 0.25395 0.0
C86 C 0.76917 0.71335 0.27088 0.0
C87 C 0.7672 0.73109 0.28511 0.0
C88 C 0.75123 0.74504 0.28242 0.0
C89 C 0.73711 0.74102 0.26533 0.0
C90 C 0.74919 0.76385 0.29735 0.0
C91 C 0.75241 0.76233 0.32077 0.0
C92 C 0.74367 0.78343 0.28825 0.0
C93 C 0.74126 0.80104 0.30227 0.0
C94 C 0.7443 0.7995 0.32572 0.0
C95 C 0.78649 0.69908 0.27331 0.0
C96 C 0.78412 0.67707 0.27139 0.0
C97 C 0.8056 0.70739 0.27714 0.0
C98 C 0.82196 0.69403 0.27878 0.0
C99 C 0.81963 0.67204 0.27663 0.0
C100 C 0.80048 0.66371 0.27304 0.0
C101 C 0.74995 0.77995 0.33481 0.0
H102 H 0.69411 0.68078 0.21103 0.0
H103 H 0.71999 0.68631 0.23968 0.0
H104 H 0.72384 0.75204 0.22135 0.0
H105 H 0.69836 0.74653 0.19249 0.0
H106 H 0.75637 0.69623 0.24254 0.0
H107 H 0.72452 0.75143 0.26345 0.0
H108 H 0.77817 0.73414 0.29823 0.0
H109 H 0.75653 0.74743 0.32831 0.0
H110 H 0.74128 0.78517 0.27024 0.0
H111 H 0.73675 0.81582 0.29475 0.0
H112 H 0.76958 0.67014 0.26865 0.0
H113 H 0.80798 0.72428 0.27846 0.0
H114 H 0.75263 0.7783 0.35279 0.0
H115 H 0.79817 0.64686 0.27107 0.0
H116 H 0.83646 0.70096 0.28178 0.0
C117 C 0.76804 0.20963 0.70153 0.0
C118 C 0.74986 0.20627 0.69018 0.0
C119 C 0.76944 0.22395 0.71959 0.0
C120 C 0.75268 0.23514 0.72674 0.0
C121 C 0.73466 0.2322 0.71499 0.0
C122 C 0.73327 0.21794 0.69694 0.0
C123 C 0.75363 0.24904 0.74705 0.0
C124 C 0.7696 0.26301 0.75071 0.0
C125 C 0.77037 0.27612 0.77003 0.0
C126 C 0.75489 0.27498 0.78578 0.0
C127 C 0.73877 0.26119 0.78225 0.0
C128 C 0.73838 0.24821 0.76296 0.0
C129 C 0.72217 0.26025 0.79851 0.0
C130 C 0.72577 0.25998 0.82194 0.0
C131 C 0.7025 0.25908 0.79054 0.0
C132 C 0.68682 0.25726 0.80559 0.0
C133 C 0.69039 0.25659 0.829 0.0
C134 C 0.7871 0.29129 0.77353 0.0
C135 C 0.80659 0.28561 0.768 0.0
C136 C 0.78367 0.31168 0.78218 0.0
C137 C 0.7993 0.32603 0.78513 0.0
C138 C 0.81872 0.32042 0.77935 0.0
C139 C 0.8222 0.30003 0.77081 0.0
C140 C 0.71003 0.25816 0.83704 0.0
H141 H 0.78117 0.20109 0.69654 0.0
H142 H 0.78351 0.22581 0.72837 0.0
H143 H 0.72153 0.24078 0.7199 0.0
H144 H 0.71901 0.21563 0.68871 0.0
H145 H 0.78113 0.26408 0.73816 0.0
H146 H 0.7263 0.23705 0.76054 0.0
H147 H 0.75529 0.28493 0.80074 0.0
H148 H 0.74077 0.26065 0.82858 0.0
H149 H 0.69921 0.25967 0.77261 0.0
H150 H 0.67184 0.25656 0.79887 0.0
H151 H 0.80984 0.26994 0.76165 0.0
H152 H 0.76882 0.31675 0.78624 0.0
H153 H 0.71328 0.25753 0.85497 0.0
H154 H 0.83705 0.29515 0.76646 0.0
H155 H 0.79609 0.34173 0.79143 0.0
C156 C 0.77129 0.80207 0.68366 0.0
C157 C 0.77007 0.8231 0.69123 0.0
C158 C 0.76873 0.78537 0.69866 0.0
C159 C 0.76486 0.7893 0.7216 0.0
C160 C 0.76348 0.81032 0.72917 0.0
C161 C 0.76612 0.82704 0.71415 0.0
C162 C 0.76264 0.77147 0.73759 0.0
C163 C 0.77565 0.75429 0.73658 0.0
C164 C 0.77373 0.73716 0.75134 0.0
C165 C 0.75862 0.73748 0.76754 0.0
C166 C 0.74541 0.75458 0.76889 0.0
C167 C 0.74757 0.77149 0.75379 0.0
C168 C 0.7292 0.75471 0.78584 0.0
C169 C 0.71869 0.73609 0.79082 0.0
C170 C 0.72394 0.77353 0.79699 0.0
C171 C 0.70846 0.77377 0.81252 0.0
C172 C 0.69796 0.75517 0.81743 0.0
C173 C 0.78769 0.7191 0.74975 0.0
C174 C 0.79359 0.71144 0.72851 0.0
C175 C 0.79572 0.70985 0.76931 0.0
C176 C 0.80968 0.69367 0.76763 0.0
C177 C 0.81596 0.68645 0.74636 0.0
C178 C 0.80759 0.69537 0.72684 0.0
C179 C 0.70331 0.73632 0.80648 0.0
H180 H 0.77448 0.79848 0.66615 0.0
H181 H 0.76969 0.76935 0.69226 0.0
H182 H 0.76066 0.81385 0.74677 0.0
H183 H 0.76489 0.84307 0.72046 0.0
H184 H 0.78764 0.75451 0.72454 0.0
H185 H 0.73717 0.78445 0.75419 0.0
H186 H 0.75714 0.72437 0.77907 0.0
H187 H 0.72208 0.72139 0.7823 0.0
H188 H 0.73191 0.78809 0.79389 0.0
H189 H 0.70488 0.78849 0.82092 0.0
H190 H 0.7874 0.71791 0.71311 0.0
H191 H 0.79166 0.71552 0.78593 0.0
H192 H 0.69532 0.72178 0.80968 0.0
H193 H 0.81185 0.68988 0.71022 0.0
H194 H 0.816 0.68725 0.78299 0.0
C195 C 0.68843 0.27673 0.20677 0.0
C196 C 0.68941 0.28453 0.18463 0.0
C197 C 0.70576 0.273 0.21927 0.0
C198 C 0.72448 0.27688 0.20984 0.0
C199 C 0.7254 0.28445 0.18758 0.0
C200 C 0.70809 0.2883 0.17517 0.0
C201 C 0.74302 0.27324 0.22311 0.0
C202 C 0.74484 0.25569 0.23742 0.0
C203 C 0.7625 0.25207 0.24957 0.0
C204 C 0.77846 0.26619 0.24721 0.0
C205 C 0.77691 0.28392 0.23317 0.0
C206 C 0.75909 0.28734 0.22133 0.0
C207 C 0.79385 0.2989 0.23093 0.0
C208 C 0.80558 0.3045 0.24983 0.0
C209 C 0.79843 0.30773 0.20987 0.0
C210 C 0.81427 0.32188 0.20777 0.0
C211 C 0.826 0.32747 0.22667 0.0
C212 C 0.76436 0.23362 0.26484 0.0
C213 C 0.74899 0.22835 0.27967 0.0
C214 C 0.78175 0.2215 0.26516 0.0
C215 C 0.78384 0.20469 0.28016 0.0
C216 C 0.76861 0.1996 0.29526 0.0
C217 C 0.75111 0.21157 0.29473 0.0
C218 C 0.82148 0.31853 0.24771 0.0
H219 H 0.67423 0.27384 0.21459 0.0
H220 H 0.70448 0.26744 0.23645 0.0
H221 H 0.73954 0.2872 0.17958 0.0
H222 H 0.70936 0.29395 0.15801 0.0
H223 H 0.73271 0.2445 0.23868 0.0
H224 H 0.75757 0.30133 0.21103 0.0
H225 H 0.79214 0.26339 0.25643 0.0
H226 H 0.80236 0.29821 0.26637 0.0
H227 H 0.78988 0.30359 0.19489 0.0
H228 H 0.81715 0.32861 0.19136 0.0
H229 H 0.73551 0.23755 0.28003 0.0
H230 H 0.79373 0.22494 0.2537 0.0
H231 H 0.83034 0.32223 0.26258 0.0
H232 H 0.73918 0.2083 0.30632 0.0
H233 H 0.79736 0.19557 0.27979 0.0
C234 C 0.29653 0.29656 0.81479 0.0
C235 C 0.31599 0.29152 0.80853 0.0
C236 C 0.28071 0.29323 0.79975 0.0
C237 C 0.28394 0.28468 0.77812 0.0
C238 C 0.30339 0.27963 0.77184 0.0
C239 C 0.31925 0.28308 0.78685 0.0
C240 C 0.26703 0.28101 0.76224 0.0
C241 C 0.25211 0.29628 0.75988 0.0
C242 C 0.23588 0.29286 0.74523 0.0
C243 C 0.23459 0.2738 0.73304 0.0
C244 C 0.24931 0.25833 0.73515 0.0
C245 C 0.26558 0.26212 0.74964 0.0
C246 C 0.24743 0.23819 0.72227 0.0
C247 C 0.22919 0.22741 0.72122 0.0
C248 C 0.2636 0.22995 0.71041 0.0
C249 C 0.26143 0.21158 0.69733 0.0
C250 C 0.24307 0.20096 0.69595 0.0
C251 C 0.22012 0.30903 0.74272 0.0
C252 C 0.21265 0.31963 0.76172 0.0
C253 C 0.21208 0.31356 0.7213 0.0
C254 C 0.19667 0.32805 0.71898 0.0
C255 C 0.18894 0.33838 0.73802 0.0
C256 C 0.19723 0.33415 0.7594 0.0
C257 C 0.22705 0.209 0.70828 0.0
H258 H 0.29354 0.30325 0.83129 0.0
H259 H 0.26588 0.2971 0.80518 0.0
H260 H 0.30639 0.27318 0.75524 0.0
H261 H 0.33404 0.27885 0.78159 0.0
H262 H 0.25335 0.31108 0.7691 0.0
H263 H 0.27679 0.25007 0.75166 0.0
H264 H 0.22202 0.27093 0.72188 0.0
H265 H 0.21654 0.23319 0.73049 0.0
H266 H 0.27779 0.23803 0.71074 0.0
H267 H 0.27403 0.20601 0.68784 0.0
H268 H 0.21836 0.31631 0.77848 0.0
H269 H 0.21775 0.30594 0.70627 0.0
H270 H 0.21282 0.20102 0.70803 0.0
H271 H 0.19145 0.34163 0.77445 0.0
H272 H 0.19086 0.33123 0.70223 0.0
C273 C 0.24434 0.82523 0.28089 0.0
C274 C 0.23639 0.81988 0.30197 0.0
C275 C 0.24722 0.80975 0.2643 0.0
C276 C 0.24232 0.78852 0.26843 0.0
C277 C 0.23446 0.78319 0.28959 0.0
C278 C 0.23147 0.79868 0.30612 0.0
C279 C 0.24526 0.77202 0.25074 0.0
C280 C 0.26214 0.77234 0.23699 0.0
C281 C 0.26501 0.75675 0.22032 0.0
C282 C 0.25073 0.74068 0.21748 0.0
C283 C 0.2338 0.74006 0.23108 0.0
C284 C 0.23118 0.75581 0.24758 0.0
C285 C 0.21881 0.72296 0.22815 0.0
C286 C 0.21225 0.71671 0.20649 0.0
C287 C 0.21079 0.71291 0.24711 0.0
C288 C 0.19646 0.69706 0.24449 0.0
C289 C 0.18975 0.69094 0.22285 0.0
C290 C 0.28301 0.75715 0.20601 0.0
C291 C 0.28987 0.7762 0.19677 0.0
C292 C 0.29345 0.73848 0.20147 0.0
C293 C 0.31034 0.73884 0.18799 0.0
C294 C 0.31715 0.75786 0.17865 0.0
C295 C 0.30671 0.77654 0.18319 0.0
C296 C 0.19781 0.70093 0.20387 0.0
H297 H 0.24806 0.84147 0.27708 0.0
H298 H 0.25301 0.81449 0.24809 0.0
H299 H 0.23084 0.76695 0.29352 0.0
H300 H 0.22561 0.794 0.32231 0.0
H301 H 0.27337 0.78443 0.23966 0.0
H302 H 0.21785 0.75571 0.25765 0.0
H303 H 0.25282 0.72859 0.20469 0.0
H304 H 0.21804 0.72428 0.19157 0.0
H305 H 0.21567 0.71723 0.26401 0.0
H306 H 0.1904 0.68983 0.25946 0.0
H307 H 0.28206 0.79083 0.19982 0.0
H308 H 0.28867 0.72358 0.20851 0.0
H309 H 0.19305 0.69645 0.18697 0.0
H310 H 0.31166 0.79148 0.17642 0.0
H311 H 0.31793 0.72413 0.18463 0.0
C312 C 0.98566 0.47799 0.22712 0.0
C313 C 0.03647 0.53321 0.22684 0.0
O314 O 0.99128 0.48364 0.24704 0.0
Zn315 Zn 0.01204 0.5053 0.26244 0.0
O316 O 0.99361 0.48649 0.21003 0.0
Zn317 Zn 0.01122 0.50541 0.22656 0.0
O318 O 0.03219 0.48405 0.24133 0.0
O319 O 0.02993 0.48668 0.27838 0.0
O320 O 0.02804 0.52443 0.20991 0.0
O321 O 0.03177 0.52749 0.24685 0.0
O322 O 0.99477 0.52339 0.27968 0.0
O323 O 0.99075 0.52647 0.24281 0.0
C324 C 0.03786 0.47836 0.26111 0.0
C325 C 0.98591 0.53178 0.26297 0.0
C326 C 0.97335 0.47699 0.77998 0.0
C327 C 0.02339 0.53318 0.77956 0.0
O328 O 0.98145 0.48595 0.79703 0.0
Zn329 Zn 0.99824 0.50526 0.78045 0.0
O330 O 0.97806 0.48287 0.76004 0.0
Zn331 Zn 0.99718 0.50547 0.74445 0.0
O332 O 0.01475 0.48776 0.72711 0.0
O333 O 0.01866 0.48441 0.76397 0.0
O334 O 0.01752 0.52755 0.75973 0.0
O335 O 0.016 0.52428 0.79676 0.0
O336 O 0.97712 0.52653 0.7659 0.0
O337 O 0.97868 0.52363 0.7288 0.0
C338 C 0.02357 0.47927 0.74378 0.0
C339 C 0.97105 0.53204 0.74621 0.0
C340 C 0.26315 0.96825 0.54043 0.0
C341 C 0.26482 0.02585 0.48588 0.0
O342 O 0.24589 0.97485 0.53477 0.0
Zn343 Zn 0.23299 0.99784 0.51285 0.0
O344 O 0.27839 0.97663 0.53169 0.0
Zn345 Zn 0.26462 0.99691 0.51291 0.0
O346 O 0.25177 0.018 0.53722 0.0
O347 O 0.21921 0.01622 0.53366 0.0
O348 O 0.27963 0.0162 0.49425 0.0
O349 O 0.24724 0.02034 0.49149 0.0
O350 O 0.218 0.98056 0.49144 0.0
O351 O 0.25035 0.97724 0.48802 0.0
C352 C 0.23451 0.02402 0.54336 0.0
C353 C 0.23273 0.97236 0.48151 0.0
C354 C 0.5375 0.71222 0.03437 0.0
C355 C 0.48722 0.71179 0.97463 0.0
O356 O 0.52946 0.69631 0.02476 0.0
Zn357 Zn 0.51228 0.71173 0.00451 0.0
O358 O 0.53234 0.73086 0.02846 0.0
Zn359 Zn 0.5124 0.74521 0.00471 0.0
O360 O 0.49454 0.76072 0.02395 0.0
O361 O 0.49125 0.7262 0.02686 0.0
O362 O 0.49241 0.73052 0.9807 0.0
O363 O 0.49518 0.69599 0.98416 0.0
O364 O 0.53298 0.72622 0.98181 0.0
O365 O 0.5303 0.76075 0.98557 0.0
C366 C 0.48593 0.74488 0.03262 0.0
C367 C 0.53843 0.74491 0.97627 0.0
C368 C 0.775 0.98743 0.52612 0.0
C369 C 0.77412 0.03772 0.46368 0.0
O370 O 0.7575 0.9927 0.51978 0.0
Zn371 Zn 0.74358 0.01262 0.49527 0.0
O372 O 0.78992 0.9954 0.51629 0.0
Zn373 Zn 0.77521 0.01262 0.49497 0.0
O374 O 0.76212 0.03584 0.51654 0.0
O375 O 0.7296 0.0327 0.51405 0.0
O376 O 0.78926 0.0299 0.47338 0.0
O377 O 0.75677 0.03243 0.47029 0.0
O378 O 0.72873 0.99234 0.47715 0.0
O379 O 0.76112 0.9891 0.47399 0.0
C380 C 0.74481 0.04194 0.52237 0.0
C381 C 0.74354 0.98291 0.46872 0.0
C382 C 0.5226 0.29553 0.03437 0.0
C383 C 0.47311 0.2952 0.97328 0.0
O384 O 0.51683 0.27693 0.02857 0.0
Zn385 Zn 0.49692 0.26236 0.00456 0.0
O386 O 0.51536 0.31147 0.02434 0.0
Zn387 Zn 0.49785 0.296 0.00387 0.0
O388 O 0.47646 0.28257 0.02628 0.0
O389 O 0.47836 0.24786 0.02375 0.0
O390 O 0.48137 0.31121 0.9825 0.0
O391 O 0.47774 0.27665 0.98002 0.0
O392 O 0.51483 0.24603 0.98608 0.0
O393 O 0.51861 0.28044 0.98237 0.0
C394 C 0.47045 0.26422 0.03228 0.0
C395 C 0.52372 0.26158 0.97714 0.0
H396 H 0.18331 0.35358 0.23579 0.0
H397 H 0.15627 0.37924 0.2372 0.0
H398 H 0.1386 0.35507 0.30187 0.0
H399 H 0.16566 0.32938 0.30068 0.0
H400 H 0.11164 0.36619 0.24655 0.0
H401 H 0.14735 0.42352 0.30634 0.0
H402 H 0.1618 0.40657 0.28824 0.0
H403 H 0.14912 0.39563 0.31192 0.0
C404 C 0.17376 0.35383 0.25039 0.0
C405 C 0.17662 0.33948 0.26814 0.0
C406 C 0.1583 0.36841 0.25111 0.0
C407 C 0.14559 0.36905 0.26968 0.0
C408 C 0.14836 0.35482 0.28745 0.0
H409 H 0.05068 0.45851 0.2997 0.0
H410 H 0.07603 0.43103 0.30276 0.0
C411 C 0.16372 0.34011 0.28667 0.0
C412 C 0.12918 0.3844 0.27022 0.0
H413 H 0.11554 0.4319 0.29257 0.0
C414 C 0.11241 0.38053 0.25665 0.0
C415 C 0.13023 0.40291 0.28362 0.0
C416 C 0.14808 0.40761 0.29837 0.0
C417 C 0.09662 0.39486 0.25597 0.0
C418 C 0.09794 0.41382 0.26875 0.0
C419 C 0.11457 0.41742 0.28274 0.0
C420 C 0.08262 0.43048 0.26705 0.0
C421 C 0.0786 0.38941 0.24176 0.0
C422 C 0.0782 0.43956 0.24607 0.0
C423 C 0.0637 0.45509 0.24425 0.0
C424 C 0.05347 0.46214 0.26345 0.0
C425 C 0.05824 0.45339 0.28458 0.0
C426 C 0.07272 0.4377 0.28636 0.0
H427 H 0.07715 0.37208 0.23911 0.0
H428 H 0.06483 0.3953 0.24967 0.0
H429 H 0.08005 0.39681 0.22491 0.0
H430 H 0.08604 0.43469 0.23105 0.0
H431 H 0.06059 0.46164 0.22774 0.0
H432 H 0.17992 0.63895 0.75226 0.0
H433 H 0.15105 0.61612 0.7576 0.0
H434 H 0.12597 0.6621 0.80297 0.0
H435 H 0.15487 0.68505 0.79778 0.0
H436 H 0.1364 0.59861 0.79745 0.0
H437 H 0.08129 0.65147 0.75673 0.0
H438 H 0.10766 0.6552 0.75375 0.0
H439 H 0.09563 0.66317 0.77933 0.0
C440 C 0.16832 0.64417 0.76347 0.0
C441 C 0.16967 0.66386 0.77454 0.0
C442 C 0.15181 0.63113 0.76646 0.0
C443 C 0.13629 0.63751 0.7805 0.0
C444 C 0.13762 0.65705 0.79173 0.0
H445 H 0.04161 0.54807 0.81841 0.0
H446 H 0.0684 0.57438 0.82125 0.0
C447 C 0.15413 0.67015 0.78872 0.0
C448 C 0.11878 0.62356 0.78329 0.0
H449 H 0.06914 0.6198 0.7722 0.0
C450 C 0.12165 0.60326 0.7921 0.0
C451 C 0.09961 0.62967 0.77615 0.0
C452 C 0.09578 0.65099 0.76578 0.0
C453 C 0.10592 0.58875 0.79356 0.0
C454 C 0.08676 0.59484 0.78633 0.0
C455 C 0.08382 0.61527 0.77793 0.0
C456 C 0.07001 0.57962 0.78521 0.0
C457 C 0.11008 0.56675 0.80195 0.0
C458 C 0.06173 0.57428 0.76412 0.0
C459 C 0.04646 0.55943 0.76246 0.0
C460 C 0.03904 0.54959 0.78189 0.0
C461 C 0.04705 0.55528 0.80312 0.0
C462 C 0.06241 0.57022 0.80476 0.0
H463 H 0.12621 0.56342 0.80283 0.0
H464 H 0.10394 0.56497 0.81915 0.0
H465 H 0.10286 0.55477 0.79079 0.0
H466 H 0.06735 0.58136 0.74884 0.0
H467 H 0.04063 0.55552 0.74583 0.0
H468 H 0.85606 0.67824 0.25776 0.0
H469 H 0.88446 0.65444 0.25833 0.0
H470 H 0.8513 0.60996 0.29799 0.0
H471 H 0.82283 0.63375 0.2977 0.0
H472 H 0.90609 0.63728 0.29522 0.0
H473 H 0.86916 0.57519 0.24273 0.0
H474 H 0.85959 0.60165 0.24514 0.0
H475 H 0.85592 0.5831 0.26756 0.0
C476 C 0.85486 0.66351 0.26684 0.0
C477 C 0.83712 0.65786 0.2776 0.0
C478 C 0.87109 0.6499 0.26708 0.0
C479 C 0.86989 0.63034 0.27796 0.0
C480 C 0.8524 0.62482 0.28914 0.0
H481 H 0.9701 0.54559 0.30305 0.0
H482 H 0.94215 0.5697 0.30807 0.0
C483 C 0.83614 0.63842 0.28891 0.0
C484 C 0.88688 0.61562 0.27721 0.0
H485 H 0.90112 0.56753 0.25689 0.0
C486 C 0.90503 0.62199 0.28693 0.0
C487 C 0.88545 0.5958 0.26617 0.0
C488 C 0.86655 0.58852 0.25462 0.0
C489 C 0.92183 0.60903 0.28586 0.0
C490 C 0.92034 0.58912 0.27499 0.0
C491 C 0.90217 0.58275 0.26536 0.0
C492 C 0.93767 0.57507 0.27232 0.0
C493 C 0.94118 0.61698 0.29576 0.0
C494 C 0.94425 0.56994 0.25059 0.0
C495 C 0.9601 0.55616 0.24766 0.0
C496 C 0.96967 0.5471 0.26643 0.0
C497 C 0.96313 0.55237 0.28825 0.0
C498 C 0.94722 0.56621 0.29115 0.0
H499 H 0.94086 0.63424 0.2992 0.0
H500 H 0.94414 0.60881 0.31196 0.0
H501 H 0.95363 0.61354 0.28421 0.0
H502 H 0.93706 0.57658 0.23583 0.0
H503 H 0.9647 0.55247 0.23061 0.0
H504 H 0.82664 0.34724 0.81487 0.0
H505 H 0.85308 0.3739 0.81782 0.0
H506 H 0.87435 0.35537 0.75223 0.0
H507 H 0.84794 0.32883 0.74904 0.0
H508 H 0.8978 0.3668 0.81176 0.0
H509 H 0.8622 0.42153 0.7507 0.0
H510 H 0.8484 0.40164 0.76572 0.0
H511 H 0.86354 0.39423 0.74225 0.0
C512 C 0.83694 0.34888 0.80107 0.0
C513 C 0.83518 0.33598 0.78168 0.0
C514 C 0.85207 0.36401 0.80285 0.0
C515 C 0.86553 0.36663 0.78519 0.0
C516 C 0.86402 0.3536 0.76598 0.0
H517 H 0.9587 0.45068 0.7473 0.0
H518 H 0.93297 0.42384 0.7507 0.0
C519 C 0.84901 0.33838 0.76426 0.0
C520 C 0.88095 0.38329 0.78648 0.0
H521 H 0.89484 0.42986 0.76262 0.0
C522 C 0.89716 0.3807 0.80119 0.0
C523 C 0.87995 0.40133 0.77265 0.0
C524 C 0.86254 0.40506 0.75701 0.0
C525 C 0.91286 0.39539 0.80181 0.0
C526 C 0.91201 0.41333 0.78769 0.0
C527 C 0.8955 0.41609 0.7734 0.0
C528 C 0.92846 0.42893 0.78646 0.0
C529 C 0.93053 0.39115 0.81689 0.0
C530 C 0.93461 0.44071 0.8055 0.0
C531 C 0.94954 0.45606 0.80366 0.0
C532 C 0.95834 0.46006 0.78266 0.0
C533 C 0.9522 0.4481 0.76372 0.0
C534 C 0.93746 0.43272 0.76562 0.0
H535 H 0.93105 0.37441 0.82232 0.0
H536 H 0.94457 0.39504 0.80818 0.0
H537 H 0.9296 0.4012 0.83227 0.0
H538 H 0.9276 0.43837 0.82167 0.0
H539 H 0.95385 0.46511 0.81852 0.0
H540 H 0.29518 0.17287 0.33658 0.0
H541 H 0.29842 0.14281 0.36209 0.0
H542 H 0.24082 0.156 0.38941 0.0
H543 H 0.23763 0.1865 0.36456 0.0
H544 H 0.29277 0.14344 0.41418 0.0
H545 H 0.24132 0.09195 0.36429 0.0
H546 H 0.2543 0.11404 0.35203 0.0
H547 H 0.2333 0.11855 0.36974 0.0
C548 C 0.28331 0.16962 0.34826 0.0
C549 C 0.2661 0.18213 0.34846 0.0
C550 C 0.28517 0.15237 0.36271 0.0
C551 C 0.26981 0.14719 0.37744 0.0
C552 C 0.25275 0.1597 0.37795 0.0
H553 H 0.23636 0.05245 0.47047 0.0
H554 H 0.23984 0.08137 0.44399 0.0
C555 C 0.25092 0.17704 0.36364 0.0
C556 C 0.27136 0.12848 0.3921 0.0
H557 H 0.25153 0.07953 0.40012 0.0
C558 C 0.28394 0.12934 0.41108 0.0
C559 C 0.25983 0.11021 0.38784 0.0
C560 C 0.24649 0.10842 0.3673 0.0
C561 C 0.28463 0.11263 0.42657 0.0
C562 C 0.27272 0.09449 0.42259 0.0
C563 C 0.26064 0.09345 0.40315 0.0
C564 C 0.27129 0.07708 0.43913 0.0
C565 C 0.29738 0.11493 0.44753 0.0
C566 C 0.28787 0.06498 0.44524 0.0
C567 C 0.28597 0.04838 0.46063 0.0
C568 C 0.2674 0.04351 0.4699 0.0
C569 C 0.25088 0.05568 0.46362 0.0
C570 C 0.25283 0.07225 0.44845 0.0
H571 H 0.30217 0.13155 0.45045 0.0
H572 H 0.28934 0.10937 0.46266 0.0
H573 H 0.31086 0.10515 0.44563 0.0
H574 H 0.3022 0.06819 0.43791 0.0
H575 H 0.29893 0.03923 0.46503 0.0
H576 H 0.35354 0.68867 0.81525 0.0
H577 H 0.38207 0.68304 0.84037 0.0
H578 H 0.35909 0.72905 0.88718 0.0
H579 H 0.33034 0.7344 0.86248 0.0
H580 H 0.40998 0.71337 0.85452 0.0
H581 H 0.37148 0.67826 0.92762 0.0
H582 H 0.36017 0.67995 0.89991 0.0
H583 H 0.36073 0.70263 0.91836 0.0
C584 C 0.35442 0.69735 0.83105 0.0
C585 C 0.33967 0.71196 0.83691 0.0
C586 C 0.37076 0.69419 0.84532 0.0
C587 C 0.37253 0.7054 0.86577 0.0
C588 C 0.35782 0.71995 0.87167 0.0
H589 H 0.47028 0.74219 0.94858 0.0
H590 H 0.44356 0.73807 0.92087 0.0
C591 C 0.34153 0.72317 0.85741 0.0
C592 C 0.3902 0.70276 0.88047 0.0
H593 H 0.40445 0.69116 0.93444 0.0
C594 C 0.40883 0.70826 0.87191 0.0
C595 C 0.38869 0.69579 0.90304 0.0
C596 C 0.36922 0.68861 0.91275 0.0
C597 C 0.42587 0.70794 0.88567 0.0
C598 C 0.42414 0.7022 0.90862 0.0
C599 C 0.40569 0.69572 0.91688 0.0
C600 C 0.441 0.70423 0.92467 0.0
C601 C 0.44553 0.71401 0.87563 0.0
C602 C 0.44824 0.68657 0.93625 0.0
C603 C 0.46357 0.68886 0.95221 0.0
C604 C 0.4717 0.70891 0.95702 0.0
C605 C 0.4644 0.72651 0.94528 0.0
C606 C 0.4492 0.72419 0.92931 0.0
H607 H 0.44542 0.71199 0.85696 0.0
H608 H 0.44866 0.73088 0.87948 0.0
H609 H 0.45774 0.70443 0.88289 0.0
H610 H 0.44197 0.67105 0.93301 0.0
H611 H 0.4688 0.675 0.96103 0.0
H612 H 0.72632 0.80119 0.36699 0.0
H613 H 0.72218 0.83207 0.39157 0.0
H614 H 0.75203 0.87092 0.34283 0.0
H615 H 0.75627 0.84017 0.31822 0.0
H616 H 0.75104 0.85701 0.41074 0.0
H617 H 0.7024 0.90508 0.35577 0.0
H618 H 0.70661 0.87733 0.35071 0.0
H619 H 0.72452 0.89664 0.34185 0.0
C620 C 0.73203 0.81631 0.36152 0.0
C621 C 0.74158 0.81824 0.34061 0.0
C622 C 0.72954 0.83395 0.37552 0.0
C623 C 0.73646 0.85386 0.36884 0.0
C624 C 0.74608 0.85582 0.34805 0.0
H625 H 0.77243 0.96059 0.44761 0.0
H626 H 0.76875 0.92905 0.42418 0.0
C627 C 0.74854 0.83822 0.33402 0.0
C628 C 0.73468 0.87236 0.38416 0.0
H629 H 0.7183 0.92326 0.38675 0.0
C630 C 0.74368 0.87141 0.40559 0.0
C631 C 0.72481 0.89103 0.37757 0.0
C632 C 0.71386 0.89256 0.35531 0.0
C633 C 0.74383 0.88892 0.42022 0.0
C634 C 0.73502 0.90799 0.41307 0.0
C635 C 0.72524 0.90868 0.39207 0.0
C636 C 0.73683 0.92762 0.42668 0.0
C637 C 0.75358 0.88692 0.44316 0.0
C638 C 0.72 0.93771 0.43524 0.0
C639 C 0.72202 0.95593 0.44866 0.0
C640 C 0.74092 0.96437 0.45356 0.0
C641 C 0.75765 0.95447 0.44436 0.0
C642 C 0.75561 0.93635 0.43103 0.0
H643 H 0.75444 0.87017 0.44854 0.0
H644 H 0.76892 0.89324 0.44238 0.0
H645 H 0.74544 0.89604 0.45615 0.0
H646 H 0.70535 0.93128 0.43189 0.0
H647 H 0.70884 0.96321 0.45543 0.0
H648 H 0.65811 0.23055 0.82465 0.0
H649 H 0.62958 0.22809 0.84967 0.0
H650 H 0.65616 0.27455 0.89427 0.0
H651 H 0.68473 0.27725 0.86924 0.0
H652 H 0.63924 0.23887 0.91659 0.0
H653 H 0.58744 0.27496 0.85443 0.0
H654 H 0.60098 0.25252 0.84428 0.0
H655 H 0.61401 0.27644 0.85161 0.0
C656 C 0.65785 0.24034 0.83973 0.0
C657 C 0.6736 0.25427 0.84485 0.0
C658 C 0.64156 0.23886 0.85401 0.0
C659 C 0.64067 0.25135 0.87362 0.0
C660 C 0.65659 0.2648 0.87917 0.0
H661 H 0.54365 0.29175 0.95387 0.0
H662 H 0.57169 0.28717 0.92877 0.0
C663 C 0.67292 0.26628 0.8649 0.0
C664 C 0.62289 0.25083 0.88806 0.0
H665 H 0.57371 0.26309 0.88859 0.0
C666 C 0.62487 0.24405 0.91048 0.0
C667 C 0.60424 0.25777 0.88002 0.0
C668 C 0.60146 0.26601 0.85634 0.0
C669 C 0.60866 0.24416 0.92518 0.0
C670 C 0.59 0.25103 0.91711 0.0
C671 C 0.58801 0.25763 0.89463 0.0
C672 C 0.57275 0.25322 0.93217 0.0
C673 C 0.61173 0.23763 0.94943 0.0
C674 C 0.56387 0.23556 0.9422 0.0
C675 C 0.54772 0.2381 0.95665 0.0
C676 C 0.54023 0.25836 0.96122 0.0
C677 C 0.54904 0.27592 0.95081 0.0
C678 C 0.56508 0.27335 0.93641 0.0
H679 H 0.6277 0.23643 0.95397 0.0
H680 H 0.60464 0.24907 0.96108 0.0
H681 H 0.60473 0.22196 0.95205 0.0
H682 H 0.56942 0.21985 0.93885 0.0
H683 H 0.54124 0.22427 0.96436 0.0
H684 H 0.25127 0.83917 0.70472 0.0
H685 H 0.25411 0.86752 0.67705 0.0
H686 H 0.2763 0.82313 0.62798 0.0
H687 H 0.27342 0.79467 0.65555 0.0
H688 H 0.28673 0.88275 0.65416 0.0
H689 H 0.23019 0.85032 0.59437 0.0
H690 H 0.23322 0.84053 0.62273 0.0
H691 H 0.24999 0.8325 0.60093 0.0
C692 C 0.25685 0.83546 0.68808 0.0
C693 C 0.262 0.81465 0.68228 0.0
C694 C 0.25843 0.85166 0.67228 0.0
C695 C 0.26517 0.84738 0.65037 0.0
C696 C 0.27066 0.8267 0.64464 0.0
H697 H 0.2966 0.9466 0.55338 0.0
H698 H 0.29859 0.91697 0.5798 0.0
C699 C 0.26899 0.81046 0.66039 0.0
C700 C 0.2663 0.86461 0.63357 0.0
H701 H 0.24767 0.88071 0.58275 0.0
C702 C 0.27824 0.88231 0.6385 0.0
C703 C 0.25507 0.86405 0.61327 0.0
C704 C 0.24125 0.84594 0.60753 0.0
C705 C 0.27915 0.89955 0.62373 0.0
C706 C 0.26806 0.89889 0.60333 0.0
C707 C 0.25628 0.8811 0.59832 0.0
C708 C 0.26732 0.91701 0.58762 0.0
C709 C 0.29141 0.91861 0.63045 0.0
C710 C 0.24908 0.92663 0.58299 0.0
C711 C 0.24787 0.94333 0.56784 0.0
C712 C 0.2649 0.95084 0.55691 0.0
C713 C 0.28323 0.94127 0.56162 0.0
C714 C 0.28441 0.92441 0.57678 0.0
H715 H 0.29536 0.91856 0.64872 0.0
H716 H 0.30537 0.91862 0.6207 0.0
H717 H 0.28337 0.93343 0.62662 0.0
H718 H 0.23571 0.92118 0.59115 0.0
H719 H 0.23351 0.95032 0.56468 0.0
H720 H 0.66357 0.74019 0.18989 0.0
H721 H 0.63766 0.73604 0.16108 0.0
H722 H 0.6611 0.67528 0.14249 0.0
H723 H 0.68757 0.6795 0.17088 0.0
H724 H 0.64749 0.72523 0.11045 0.0
H725 H 0.59757 0.66962 0.15564 0.0
H726 H 0.61373 0.68771 0.17086 0.0
H727 H 0.624 0.66549 0.15632 0.0
C728 C 0.66338 0.726 0.17958 0.0
C729 C 0.67778 0.71025 0.18261 0.0
C730 C 0.64846 0.72361 0.16326 0.0
C731 C 0.64749 0.70534 0.14982 0.0
C732 C 0.66157 0.68941 0.1529 0.0
H733 H 0.55645 0.6758 0.04705 0.0
H734 H 0.58391 0.67247 0.07428 0.0
C735 C 0.67662 0.69183 0.16918 0.0
C736 C 0.63211 0.70353 0.13198 0.0
H737 H 0.5866 0.68213 0.12031 0.0
C738 C 0.63424 0.71568 0.11247 0.0
C739 C 0.61501 0.69089 0.13468 0.0
C740 C 0.61224 0.67765 0.15549 0.0
C741 C 0.61945 0.71588 0.09567 0.0
C742 C 0.60186 0.70404 0.09882 0.0
C743 C 0.60005 0.69128 0.11801 0.0
C744 C 0.58481 0.7057 0.08297 0.0
C745 C 0.62282 0.72881 0.07471 0.0
C746 C 0.5759 0.72535 0.07934 0.0
C747 C 0.56036 0.72732 0.06381 0.0
C748 C 0.55321 0.70961 0.05176 0.0
C749 C 0.56167 0.68976 0.05601 0.0
C750 C 0.57735 0.68782 0.07153 0.0
H751 H 0.63888 0.73131 0.07164 0.0
H752 H 0.61607 0.72111 0.05957 0.0
H753 H 0.61594 0.74455 0.07693 0.0
H754 H 0.58107 0.73925 0.08844 0.0
H755 H 0.55405 0.74281 0.06117 0.0
H756 H 0.72937 0.20927 0.65012 0.0
H757 H 0.72503 0.18201 0.62094 0.0
H758 H 0.76209 0.13987 0.65934 0.0
H759 H 0.766 0.16674 0.6889 0.0
H760 H 0.75336 0.16229 0.59501 0.0
H761 H 0.71275 0.10386 0.6465 0.0
H762 H 0.71604 0.13103 0.65523 0.0
H763 H 0.73572 0.11234 0.65923 0.0
C764 C 0.73644 0.19412 0.65246 0.0
C765 C 0.74796 0.19015 0.6719 0.0
C766 C 0.73401 0.17861 0.63573 0.0
C767 C 0.74293 0.1588 0.63818 0.0
C768 C 0.75473 0.1549 0.65734 0.0
H769 H 0.77469 0.06525 0.54134 0.0
H770 H 0.77219 0.09426 0.56833 0.0
C771 C 0.75718 0.17039 0.67407 0.0
C772 C 0.74047 0.1424 0.62037 0.0
H773 H 0.72576 0.09132 0.61143 0.0
C774 C 0.74714 0.14685 0.59853 0.0
C775 C 0.73203 0.12239 0.6249 0.0
C776 C 0.72353 0.11715 0.64768 0.0
C777 C 0.7464 0.13149 0.58134 0.0
C778 C 0.73904 0.11109 0.58624 0.0
C779 C 0.73156 0.10692 0.60779 0.0
C780 C 0.74018 0.09355 0.56964 0.0
C781 C 0.75364 0.13719 0.55812 0.0
C782 C 0.72299 0.08314 0.56182 0.0
C783 C 0.72434 0.06638 0.54635 0.0
C784 C 0.74295 0.05967 0.53865 0.0
C785 C 0.7601 0.07004 0.54678 0.0
C786 C 0.75872 0.08674 0.56214 0.0
H787 H 0.7532 0.15452 0.55536 0.0
H788 H 0.76923 0.13201 0.55635 0.0
H789 H 0.74461 0.12925 0.54474 0.0
H790 H 0.70854 0.08808 0.5676 0.0
H791 H 0.71087 0.05867 0.54049 0.0
H792 H 0.3474 0.23761 0.19611 0.0
H793 H 0.37346 0.23571 0.16779 0.0
H794 H 0.3444 0.28417 0.12912 0.0
H795 H 0.31836 0.28646 0.15756 0.0
H796 H 0.35807 0.2478 0.10333 0.0
H797 H 0.41612 0.28276 0.15972 0.0
H798 H 0.40275 0.26067 0.17104 0.0
H799 H 0.38999 0.28493 0.16553 0.0
C800 C 0.34662 0.24801 0.18169 0.0
C801 C 0.3309 0.26236 0.17923 0.0
C802 C 0.36148 0.24683 0.16549 0.0
C803 C 0.36095 0.25997 0.14655 0.0
C804 C 0.34505 0.27391 0.14367 0.0
H805 H 0.45274 0.29622 0.05535 0.0
H806 H 0.42605 0.29377 0.08267 0.0
C807 C 0.33017 0.27514 0.1599 0.0
C808 C 0.3772 0.25948 0.12997 0.0
H809 H 0.42639 0.2706 0.12392 0.0
C810 C 0.37303 0.25271 0.10779 0.0
C811 C 0.39662 0.26607 0.13588 0.0
C812 C 0.40171 0.27419 0.15927 0.0
C813 C 0.38788 0.25233 0.09132 0.0
C814 C 0.40734 0.25874 0.09731 0.0
C815 C 0.41147 0.26551 0.11948 0.0
C816 C 0.4234 0.25978 0.08052 0.0
C817 C 0.38256 0.2456 0.06752 0.0
C818 C 0.43086 0.2414 0.07039 0.0
C819 C 0.44624 0.24271 0.05473 0.0
C820 C 0.45435 0.26244 0.04898 0.0
C821 C 0.44683 0.28076 0.05931 0.0
C822 C 0.43158 0.27942 0.07496 0.0
H823 H 0.36627 0.24483 0.06472 0.0
H824 H 0.38907 0.25667 0.05511 0.0
H825 H 0.38875 0.22969 0.06418 0.0
H826 H 0.42491 0.22606 0.07473 0.0
H827 H 0.45172 0.22831 0.04712 0.0
H828 H 0.84765 0.68618 0.71799 0.0
H829 H 0.87367 0.65956 0.71511 0.0
H830 H 0.84608 0.62357 0.76788 0.0
H831 H 0.81978 0.64997 0.77064 0.0
H832 H 0.89975 0.64675 0.75056 0.0
H833 H 0.85484 0.57997 0.71612 0.0
H834 H 0.8466 0.60704 0.71507 0.0
H835 H 0.84493 0.59245 0.7409 0.0
C836 C 0.84696 0.67245 0.72877 0.0
C837 C 0.83159 0.67011 0.74447 0.0
C838 C 0.86189 0.65733 0.72718 0.0
C839 C 0.86165 0.63949 0.74107 0.0
C840 C 0.84636 0.63708 0.75676 0.0
H841 H 0.95444 0.55498 0.78017 0.0
H842 H 0.92837 0.58135 0.77729 0.0
C843 C 0.83146 0.65226 0.75846 0.0
C844 C 0.87786 0.62388 0.73979 0.0
H845 H 0.88762 0.57204 0.72844 0.0
C846 C 0.89714 0.63044 0.74559 0.0
C847 C 0.87441 0.6027 0.73303 0.0
C848 C 0.85412 0.59508 0.72572 0.0
C849 C 0.913 0.61621 0.74548 0.0
C850 C 0.90943 0.59485 0.73957 0.0
C851 C 0.89026 0.58841 0.73309 0.0
C852 C 0.92526 0.57882 0.74098 0.0
C853 C 0.93347 0.62411 0.75175 0.0
C854 C 0.93191 0.56838 0.72151 0.0
C855 C 0.9469 0.55323 0.72306 0.0
C856 C 0.95529 0.54814 0.74417 0.0
C857 C 0.94838 0.55853 0.76363 0.0
C858 C 0.93352 0.57369 0.76203 0.0
H859 H 0.93464 0.64156 0.75035 0.0
H860 H 0.93684 0.61978 0.7695 0.0
H861 H 0.94484 0.61677 0.7408 0.0
H862 H 0.9256 0.57208 0.70511 0.0
H863 H 0.95183 0.54546 0.70777 0.0
H864 H 0.85248 0.33083 0.19187 0.0
H865 H 0.88024 0.35567 0.18867 0.0
H866 H 0.86588 0.38267 0.25344 0.0
H867 H 0.8377 0.35849 0.25654 0.0
H868 H 0.87708 0.40582 0.19611 0.0
H869 H 0.9275 0.36086 0.25291 0.0
H870 H 0.90768 0.34828 0.23697 0.0
H871 H 0.90211 0.36393 0.26143 0.0
C872 C 0.85502 0.34223 0.20531 0.0
C873 C 0.84285 0.34258 0.22451 0.0
C874 C 0.87096 0.35631 0.20348 0.0
C875 C 0.87508 0.37084 0.22087 0.0
C876 C 0.86295 0.37141 0.23994 0.0
H877 H 0.96278 0.46133 0.26022 0.0
H878 H 0.93639 0.43516 0.25641 0.0
C879 C 0.84695 0.35746 0.24173 0.0
C880 C 0.89219 0.38538 0.21936 0.0
H881 H 0.93823 0.39467 0.24159 0.0
C882 C 0.89057 0.40337 0.20583 0.0
C883 C 0.90963 0.38202 0.23214 0.0
C884 C 0.91204 0.36269 0.24664 0.0
C885 C 0.90577 0.41862 0.20541 0.0
C886 C 0.92317 0.41543 0.2185 0.0
C887 C 0.92491 0.39708 0.23155 0.0
C888 C 0.93918 0.43153 0.2202 0.0
C889 C 0.90269 0.43839 0.19177 0.0
C890 C 0.94965 0.43815 0.20109 0.0
C891 C 0.96475 0.45334 0.20318 0.0
C892 C 0.96977 0.46192 0.22447 0.0
C893 C 0.95936 0.45504 0.24356 0.0
C894 C 0.94425 0.44004 0.24143 0.0
H895 H 0.88687 0.44063 0.18708 0.0
H896 H 0.90795 0.45255 0.20128 0.0
H897 H 0.9113 0.43724 0.17594 0.0
H898 H 0.94628 0.43146 0.18461 0.0
H899 H 0.97257 0.45821 0.18819 0.0
H900 H 0.15578 0.33357 0.71147 0.0
H901 H 0.12756 0.35747 0.70815 0.0
H902 H 0.15507 0.39994 0.75644 0.0
H903 H 0.18362 0.37643 0.7594 0.0
H904 H 0.1024 0.36986 0.74251 0.0
H905 H 0.13942 0.43928 0.70459 0.0
H906 H 0.15051 0.41339 0.70497 0.0
H907 H 0.15149 0.42995 0.72976 0.0
C908 C 0.156 0.34818 0.72109 0.0
C909 C 0.172 0.35314 0.73563 0.0
C910 C 0.13981 0.36175 0.71927 0.0
C911 C 0.13935 0.38061 0.7318 0.0
C912 C 0.15529 0.38565 0.74629 0.0
H913 H 0.04268 0.45624 0.77593 0.0
H914 H 0.06992 0.43161 0.77086 0.0
C915 C 0.17149 0.37208 0.74816 0.0
C916 C 0.12175 0.39446 0.73064 0.0
H917 H 0.10711 0.44493 0.71965 0.0
C918 C 0.10339 0.38622 0.7373 0.0
C919 C 0.12301 0.41571 0.72354 0.0
C920 C 0.14212 0.42509 0.71509 0.0
C921 C 0.0864 0.39888 0.73789 0.0
C922 C 0.0879 0.4204 0.7319 0.0
C923 C 0.10606 0.42845 0.72439 0.0
C924 C 0.07104 0.43505 0.73457 0.0
C925 C 0.06702 0.38916 0.74505 0.0
C926 C 0.06282 0.44543 0.71584 0.0
C927 C 0.04717 0.45961 0.71866 0.0
C928 C 0.03966 0.46379 0.74032 0.0
C929 C 0.04803 0.45337 0.759 0.0
C930 C 0.06356 0.43918 0.75614 0.0
H931 H 0.06707 0.37171 0.74299 0.0
H932 H 0.06455 0.39281 0.76317 0.0
H933 H 0.05443 0.39568 0.73515 0.0
H934 H 0.06851 0.44253 0.69905 0.0
H935 H 0.04112 0.46745 0.70395 0.0
H936 H 0.15739 0.69107 0.19454 0.0
H937 H 0.13103 0.66441 0.19148 0.0
H938 H 0.16031 0.62705 0.2423 0.0
H939 H 0.1869 0.6534 0.24518 0.0
H940 H 0.14593 0.60381 0.20298 0.0
H941 H 0.08891 0.65549 0.24168 0.0
H942 H 0.10215 0.66631 0.21818 0.0
H943 H 0.11512 0.66103 0.24413 0.0
C944 C 0.15833 0.67706 0.20488 0.0
C945 C 0.17417 0.6744 0.22021 0.0
C946 C 0.14319 0.66194 0.20323 0.0
C947 C 0.14364 0.64391 0.21685 0.0
C948 C 0.15967 0.64093 0.23172 0.0
H949 H 0.05509 0.55649 0.25971 0.0
H950 H 0.08074 0.58336 0.25521 0.0
C951 C 0.17476 0.65606 0.23346 0.0
C952 C 0.12721 0.62832 0.21607 0.0
H953 H 0.07858 0.62157 0.2298 0.0
C954 C 0.13115 0.60768 0.20867 0.0
C955 C 0.10803 0.63345 0.22371 0.0
C956 C 0.10321 0.65521 0.23255 0.0
C957 C 0.11641 0.59194 0.20888 0.0
C958 C 0.09724 0.59708 0.21655 0.0
C959 C 0.09327 0.61776 0.22375 0.0
C960 C 0.08149 0.58087 0.21877 0.0
C961 C 0.1216 0.56978 0.20163 0.0
C962 C 0.07325 0.5707 0.19971 0.0
C963 C 0.0585 0.55528 0.2022 0.0
C964 C 0.05176 0.5498 0.22382 0.0
C965 C 0.05995 0.56024 0.24282 0.0
C966 C 0.0746 0.57565 0.24029 0.0
H967 H 0.13785 0.56762 0.20001 0.0
H968 H 0.11587 0.55813 0.21391 0.0
H969 H 0.11457 0.56632 0.18498 0.0
H970 H 0.0782 0.57473 0.18292 0.0
H971 H 0.05246 0.54759 0.18723 0.0
H972 H 0.79128 0.85966 0.6979 0.0
H973 H 0.79576 0.88876 0.67136 0.0
H974 H 0.75983 0.85561 0.62185 0.0
H975 H 0.75529 0.8265 0.64823 0.0
H976 H 0.79439 0.87261 0.60395 0.0
H977 H 0.75362 0.93222 0.65456 0.0
H978 H 0.77373 0.91954 0.6691 0.0
H979 H 0.7524 0.90434 0.66044 0.0
C980 C 0.78419 0.85867 0.68143 0.0
C981 C 0.77286 0.84081 0.67521 0.0
C982 C 0.78679 0.87529 0.66628 0.0
C983 C 0.77795 0.87445 0.64473 0.0
C984 C 0.76681 0.85656 0.6384 0.0
H985 H 0.74569 0.9683 0.54982 0.0
H986 H 0.74886 0.94168 0.57903 0.0
C987 C 0.76427 0.83992 0.65347 0.0
C988 C 0.78009 0.8922 0.62871 0.0
H989 H 0.76796 0.94389 0.62069 0.0
C990 C 0.78875 0.88826 0.60764 0.0
C991 C 0.77259 0.91253 0.63355 0.0
C992 C 0.7624 0.91747 0.65554 0.0
C993 C 0.78977 0.90399 0.59108 0.0
C994 C 0.7822 0.9243 0.59589 0.0
C995 C 0.77392 0.92835 0.61714 0.0
C996 C 0.78088 0.94091 0.57842 0.0
C997 C 0.79816 0.89852 0.56825 0.0
C998 C 0.7979 0.94953 0.56848 0.0
C999 C 0.79615 0.96483 0.55158 0.0
C1000 C 0.77735 0.97179 0.54446 0.0
C1001 C 0.76042 0.96332 0.5548 0.0
C1002 C 0.76218 0.9481 0.57158 0.0
H1003 H 0.79984 0.88121 0.56588 0.0
H1004 H 0.78851 0.90464 0.5545 0.0
H1005 H 0.81298 0.90596 0.56661 0.0
H1006 H 0.8125 0.94444 0.57379 0.0
H1007 H 0.80947 0.9711 0.54402 0.0
H1008 H 0.681 0.31873 0.15831 0.0
H1009 H 0.65131 0.32474 0.13519 0.0
H1010 H 0.62699 0.2653 0.15717 0.0
H1011 H 0.6565 0.25934 0.18053 0.0
H1012 H 0.63744 0.30171 0.10018 0.0
H1013 H 0.58052 0.30384 0.16679 0.0
H1014 H 0.6067 0.30547 0.17314 0.0
H1015 H 0.59504 0.28024 0.16787 0.0
C1016 C 0.66927 0.30699 0.15828 0.0
C1017 C 0.67107 0.28858 0.17129 0.0
C1018 C 0.65229 0.31048 0.14513 0.0
C1019 C 0.63675 0.29566 0.14473 0.0
C1020 C 0.63851 0.27726 0.1577 0.0
H1021 H 0.53584 0.26548 0.06341 0.0
H1022 H 0.56303 0.26821 0.09075 0.0
C1023 C 0.65543 0.27383 0.17099 0.0
C1024 C 0.61926 0.29881 0.12971 0.0
H1025 H 0.56862 0.29884 0.12873 0.0
C1026 C 0.6224 0.30141 0.10647 0.0
C1027 C 0.59963 0.2985 0.13794 0.0
C1028 C 0.59525 0.29708 0.16283 0.0
C1029 C 0.60646 0.3028 0.09114 0.0
C1030 C 0.58688 0.30169 0.09929 0.0
C1031 C 0.58369 0.29966 0.12256 0.0
C1032 C 0.56959 0.30093 0.0837 0.0
C1033 C 0.61062 0.30455 0.06622 0.0
C1034 C 0.56402 0.31861 0.07099 0.0
C1035 C 0.54834 0.31716 0.05534 0.0
C1036 C 0.53811 0.29795 0.0521 0.0
C1037 C 0.54347 0.28048 0.06535 0.0
C1038 C 0.55898 0.282 0.08105 0.0
H1039 H 0.62657 0.30239 0.06241 0.0
H1040 H 0.60185 0.29261 0.05654 0.0
H1041 H 0.60609 0.32039 0.06023 0.0
H1042 H 0.57197 0.33342 0.07297 0.0
H1043 H 0.54458 0.33089 0.04541 0.0
H1044 H 0.21109 0.19011 0.66932 0.0
H1045 H 0.20679 0.15867 0.64561 0.0
H1046 H 0.26522 0.13766 0.66474 0.0
H1047 H 0.2693 0.16854 0.68934 0.0
H1048 H 0.22798 0.14632 0.60936 0.0
H1049 H 0.23264 0.08507 0.67549 0.0
H1050 H 0.22947 0.11269 0.68211 0.0
H1051 H 0.25366 0.10252 0.6758 0.0
C1052 C 0.2229 0.17861 0.66886 0.0
C1053 C 0.24049 0.18181 0.68143 0.0
C1054 C 0.22046 0.16072 0.65514 0.0
C1055 C 0.23553 0.14561 0.65369 0.0
C1056 C 0.2532 0.14884 0.66599 0.0
H1057 H 0.2638 0.03914 0.57111 0.0
H1058 H 0.26199 0.06816 0.59832 0.0
C1059 C 0.25562 0.16669 0.67982 0.0
C1060 C 0.2331 0.12695 0.63858 0.0
H1061 H 0.23555 0.07309 0.63723 0.0
C1062 C 0.22938 0.1303 0.6155 0.0
C1063 C 0.23485 0.10603 0.64663 0.0
C1064 C 0.23767 0.10131 0.6714 0.0
C1065 C 0.22812 0.11335 0.60012 0.0
C1066 C 0.23047 0.09252 0.60809 0.0
C1067 C 0.23376 0.08911 0.63121 0.0
C1068 C 0.23088 0.0742 0.59243 0.0
C1069 C 0.22501 0.11784 0.57534 0.0
C1070 C 0.21383 0.06771 0.58043 0.0
C1071 C 0.21477 0.05099 0.56486 0.0
C1072 C 0.23281 0.0406 0.56101 0.0
C1073 C 0.24969 0.04686 0.57354 0.0
C1074 C 0.2487 0.06342 0.58915 0.0
H1075 H 0.22652 0.13492 0.57151 0.0
H1076 H 0.23581 0.10891 0.56502 0.0
H1077 H 0.20991 0.11261 0.57015 0.0
H1078 H 0.19988 0.07573 0.58294 0.0
H1079 H 0.20151 0.04654 0.5555 0.0
H1080 H 0.32241 0.77919 0.13903 0.0
H1081 H 0.35154 0.77898 0.11468 0.0
H1082 H 0.38116 0.73679 0.16062 0.0
H1083 H 0.35226 0.73723 0.18532 0.0
H1084 H 0.405 0.77167 0.14513 0.0
H1085 H 0.36768 0.72763 0.07498 0.0
H1086 H 0.35508 0.75085 0.08476 0.0
H1087 H 0.35781 0.72865 0.10321 0.0
C1088 C 0.33519 0.77003 0.14407 0.0
C1089 C 0.33498 0.75814 0.16406 0.0
C1090 C 0.35175 0.76979 0.13004 0.0
C1091 C 0.36839 0.75768 0.13573 0.0
C1092 C 0.36841 0.74616 0.15589 0.0
H1093 H 0.46405 0.71408 0.05277 0.0
H1094 H 0.43607 0.71835 0.07816 0.0
C1095 C 0.35184 0.74631 0.16988 0.0
C1096 C 0.38571 0.75677 0.12056 0.0
H1097 H 0.40031 0.73963 0.06853 0.0
C1098 C 0.404 0.76473 0.12835 0.0
C1099 C 0.38436 0.74751 0.09878 0.0
C1100 C 0.36524 0.738 0.08991 0.0
C1101 C 0.42101 0.76374 0.11488 0.0
C1102 C 0.4196 0.75469 0.09301 0.0
C1103 C 0.4013 0.7467 0.08525 0.0
C1104 C 0.43708 0.75248 0.07821 0.0
C1105 C 0.44045 0.77188 0.12433 0.0
C1106 C 0.44694 0.77029 0.06977 0.0
C1107 C 0.463 0.76792 0.05518 0.0
C1108 C 0.46944 0.74768 0.04874 0.0
C1109 C 0.45955 0.72991 0.05738 0.0
C1110 C 0.44351 0.7323 0.07188 0.0
H1111 H 0.43991 0.77429 0.14292 0.0
H1112 H 0.45265 0.76077 0.12042 0.0
H1113 H 0.44401 0.78726 0.11643 0.0
H1114 H 0.44201 0.78602 0.07419 0.0
H1115 H 0.47022 0.78193 0.04877 0.0
H1116 H 0.80189 0.18903 0.31955 0.0
H1117 H 0.80587 0.16014 0.34639 0.0
H1118 H 0.74474 0.1422 0.33584 0.0
H1119 H 0.74083 0.17047 0.30832 0.0
H1120 H 0.78655 0.15343 0.38611 0.0
H1121 H 0.7728 0.08631 0.32749 0.0
H1122 H 0.77757 0.11276 0.31769 0.0
H1123 H 0.75321 0.10533 0.32699 0.0
C1124 C 0.78937 0.17872 0.32263 0.0
C1125 C 0.77106 0.18202 0.31163 0.0
C1126 C 0.79165 0.1623 0.33811 0.0
C1127 C 0.77571 0.14878 0.34284 0.0
C1128 C 0.75737 0.15214 0.33208 0.0
H1129 H 0.7447 0.05323 0.43683 0.0
H1130 H 0.7473 0.07973 0.40732 0.0
C1131 C 0.75509 0.16851 0.31657 0.0
C1132 C 0.778 0.13164 0.35964 0.0
H1133 H 0.77156 0.07862 0.36701 0.0
C1134 C 0.78354 0.13703 0.38189 0.0
C1135 C 0.77416 0.11023 0.35406 0.0
C1136 C 0.7693 0.10325 0.33021 0.0
C1137 C 0.7845 0.12171 0.39891 0.0
C1138 C 0.77998 0.10045 0.39346 0.0
C1139 C 0.77497 0.09496 0.37111 0.0
C1140 C 0.77897 0.08392 0.41101 0.0
C1141 C 0.78953 0.12846 0.42279 0.0
C1142 C 0.79603 0.07727 0.42267 0.0
C1143 C 0.79463 0.06198 0.4396 0.0
C1144 C 0.77612 0.05319 0.44514 0.0
C1145 C 0.75917 0.05972 0.43311 0.0
C1146 C 0.76061 0.07485 0.41618 0.0
H1147 H 0.78956 0.14591 0.42485 0.0
H1148 H 0.77879 0.12158 0.43482 0.0
H1149 H 0.80447 0.12256 0.42738 0.0
H1150 H 0.81038 0.08393 0.41871 0.0
H1151 H 0.80796 0.05727 0.44852 0.0
H1152 H 0.31723 0.28227 0.85358 0.0
H1153 H 0.34495 0.28706 0.88 0.0
H1154 H 0.38048 0.31286 0.82657 0.0
H1155 H 0.35278 0.30797 0.79995 0.0
H1156 H 0.40051 0.28373 0.85039 0.0
H1157 H 0.36616 0.34032 0.90964 0.0
H1158 H 0.35136 0.31696 0.90576 0.0
H1159 H 0.35552 0.33425 0.88224 0.0
C1160 C 0.33085 0.28925 0.84751 0.0
C1161 C 0.33277 0.29482 0.82468 0.0
C1162 C 0.34667 0.29205 0.86267 0.0
C1163 C 0.36468 0.30072 0.8554 0.0
C1164 C 0.36668 0.30626 0.8326 0.0
H1165 H 0.45965 0.33173 0.95351 0.0
H1166 H 0.43454 0.33487 0.92343 0.0
C1167 C 0.35088 0.30336 0.81739 0.0
C1168 C 0.38173 0.30289 0.87133 0.0
H1169 H 0.39522 0.32246 0.92321 0.0
C1170 C 0.39942 0.29242 0.86619 0.0
C1171 C 0.38048 0.31454 0.89177 0.0
C1172 C 0.36243 0.32734 0.89759 0.0
C1173 C 0.41554 0.29248 0.88135 0.0
C1174 C 0.41379 0.30293 0.90245 0.0
C1175 C 0.39647 0.31423 0.90716 0.0
C1176 C 0.42928 0.30124 0.92032 0.0
C1177 C 0.43428 0.28126 0.87465 0.0
C1178 C 0.43442 0.28136 0.92876 0.0
C1179 C 0.44871 0.27951 0.9458 0.0
C1180 C 0.45809 0.29755 0.95501 0.0
C1181 C 0.45277 0.31753 0.94673 0.0
C1182 C 0.43843 0.31935 0.92957 0.0
H1183 H 0.43561 0.28015 0.85599 0.0
H1184 H 0.44762 0.28943 0.8816 0.0
H1185 H 0.43395 0.26494 0.88136 0.0
H1186 H 0.4272 0.26721 0.92231 0.0
H1187 H 0.45228 0.26388 0.95186 0.0
H1188 H 0.20433 0.82508 0.32945 0.0
H1189 H 0.19969 0.852 0.35882 0.0
H1190 H 0.25717 0.87831 0.34411 0.0
H1191 H 0.26181 0.85163 0.31464 0.0
H1192 H 0.22113 0.85965 0.39694 0.0
H1193 H 0.22305 0.93041 0.34271 0.0
H1194 H 0.22041 0.90404 0.33126 0.0
H1195 H 0.24451 0.91422 0.33905 0.0
C1196 C 0.21597 0.83663 0.33248 0.0
C1197 C 0.2334 0.83631 0.31963 0.0
C1198 C 0.21326 0.85204 0.3492 0.0
C1199 C 0.2279 0.86744 0.35337 0.0
C1200 C 0.2454 0.86699 0.34075 0.0
H1201 H 0.26106 0.95758 0.45318 0.0
H1202 H 0.25718 0.93238 0.4221 0.0
C1203 C 0.24807 0.85169 0.32395 0.0
C1204 C 0.22533 0.88343 0.37156 0.0
H1205 H 0.22798 0.9364 0.38253 0.0
C1206 C 0.22229 0.87645 0.39375 0.0
C1207 C 0.22671 0.90536 0.36735 0.0
C1208 C 0.22864 0.91397 0.34376 0.0
C1209 C 0.22159 0.89077 0.41195 0.0
C1210 C 0.22391 0.91257 0.40781 0.0
C1211 C 0.22626 0.91963 0.3856 0.0
C1212 C 0.22567 0.9281 0.42651 0.0
C1213 C 0.21923 0.88252 0.43562 0.0
C1214 C 0.20913 0.93416 0.43915 0.0
C1215 C 0.21125 0.94873 0.45696 0.0
C1216 C 0.22998 0.95731 0.46243 0.0
C1217 C 0.24643 0.95122 0.44954 0.0
C1218 C 0.24426 0.93686 0.43172 0.0
H1219 H 0.21924 0.86499 0.43617 0.0
H1220 H 0.2314 0.88863 0.44666 0.0
H1221 H 0.20505 0.88825 0.44268 0.0
H1222 H 0.19463 0.92761 0.43524 0.0
H1223 H 0.1983 0.9531 0.46656 0.0
H1224 H 0.69028 0.72685 0.85097 0.0
H1225 H 0.66266 0.72709 0.87754 0.0
H1226 H 0.64074 0.7844 0.8477 0.0
H1227 H 0.66821 0.78419 0.82092 0.0
H1228 H 0.65183 0.76195 0.90903 0.0
H1229 H 0.59314 0.74076 0.84599 0.0
H1230 H 0.61908 0.73571 0.84116 0.0
H1231 H 0.60964 0.76203 0.83879 0.0
C1232 C 0.67951 0.73943 0.84997 0.0
C1233 C 0.68139 0.75546 0.83379 0.0
C1234 C 0.66383 0.73961 0.86523 0.0
C1235 C 0.64962 0.75568 0.86444 0.0
C1236 C 0.65149 0.77179 0.84845 0.0
H1237 H 0.55787 0.78143 0.96469 0.0
H1238 H 0.58479 0.7853 0.93742 0.0
C1239 C 0.66725 0.77171 0.83328 0.0
C1240 C 0.63284 0.75552 0.88036 0.0
H1241 H 0.58284 0.74755 0.88331 0.0
C1242 C 0.63672 0.75892 0.90344 0.0
C1243 C 0.61321 0.75141 0.87296 0.0
C1244 C 0.60839 0.74711 0.84841 0.0
C1245 C 0.62143 0.7583 0.91936 0.0
C1246 C 0.6018 0.75424 0.91194 0.0
C1247 C 0.59791 0.75084 0.88887 0.0
C1248 C 0.58526 0.75223 0.92807 0.0
C1249 C 0.62639 0.76146 0.94406 0.0
C1250 C 0.57647 0.73244 0.93152 0.0
C1251 C 0.5612 0.73016 0.94708 0.0
C1252 C 0.55427 0.74769 0.95936 0.0
C1253 C 0.56287 0.76762 0.95554 0.0
C1254 C 0.57829 0.76985 0.94005 0.0
H1255 H 0.64262 0.76124 0.94735 0.0
H1256 H 0.62056 0.77692 0.94979 0.0
H1257 H 0.61926 0.74899 0.95433 0.0
H1258 H 0.58162 0.71868 0.92238 0.0
H1259 H 0.55486 0.7146 0.94951 0.0
loop_
_geom_bond_atom_site_label_1
_geom_bond_atom_site_label_2
_geom_bond_distance
_geom_bond_site_symmetry_2
_ccdc_geom_bond_type
C0 C1 1.386 . S
C0 C2 1.397 . S
C0 H24 0.931 . S
C1 C0 1.386 . S
C1 C5 1.397 . S
C2 C0 1.397 . S
C2 C3 1.384 . S
C2 H25 0.930 . S
C3 C2 1.384 . S
C3 C4 1.377 . S
C3 C6 1.481 . S
C4 C3 1.377 . S
C4 C5 1.389 . S
C4 H26 0.929 . S
C5 C1 1.397 . S
C5 C4 1.389 . S
C5 H27 0.931 . S
C6 C3 1.481 . S
C6 C7 1.387 . S
C6 C11 1.390 . S
C7 C6 1.387 . S
C7 C8 1.401 . S
C7 H28 0.930 . S
C8 C7 1.401 . S
C8 C9 1.376 . S
C8 C17 1.511 . S
C9 C8 1.376 . S
C9 C10 1.392 . S
C9 H30 0.931 . S
C10 C9 1.392 . S
C10 C11 1.361 . S
C10 C12 1.500 . S
C11 C6 1.390 . S
C11 C10 1.361 . S
C11 H29 0.931 . S
C12 C10 1.500 . S
C12 C13 1.371 . S
C12 C14 1.365 . S
C13 C12 1.371 . S
C13 C23 1.386 . S
C13 H31 0.931 . S
C14 C12 1.365 . S
C14 C15 1.409 . S
C14 H32 0.929 . S
C15 C14 1.409 . S
C15 C16 1.380 . S
C15 H33 0.930 . S
C16 C15 1.380 . S
C16 C23 1.357 . S
C17 C8 1.511 . S
C17 C18 1.341 . S
C17 C19 1.371 . S
C18 C17 1.341 . S
C18 C22 1.394 . S
C18 H34 0.930 . S
C19 C17 1.371 . S
C19 C20 1.392 . S
C19 H35 0.931 . S
C20 C19 1.392 . S
C20 C21 1.331 . S
C20 H38 0.932 . S
C21 C20 1.331 . S
C21 C22 1.336 . S
C22 C18 1.394 . S
C22 C21 1.336 . S
C22 H37 0.929 . S
C23 C13 1.386 . S
C23 C16 1.357 . S
C23 H36 0.928 . S
H24 C0 0.931 . S
H25 C2 0.930 . S
H26 C4 0.929 . S
H27 C5 0.931 . S
H28 C7 0.930 . S
H29 C11 0.931 . S
H30 C9 0.931 . S
H31 C13 0.931 . S
H32 C14 0.929 . S
H33 C15 0.930 . S
H34 C18 0.930 . S
H35 C19 0.931 . S
H36 C23 0.928 . S
H37 C22 0.929 . S
H38 C20 0.932 . S
C39 C40 1.386 . S
C39 C41 1.397 . S
C39 H63 0.931 . S
C40 C39 1.386 . S
C40 C44 1.397 . S
C41 C39 1.397 . S
C41 C42 1.384 . S
C41 H64 0.930 . S
C42 C41 1.384 . S
C42 C43 1.377 . S
C42 C45 1.481 . S
C43 C42 1.377 . S
C43 C44 1.389 . S
C43 H65 0.929 . S
C44 C40 1.397 . S
C44 C43 1.389 . S
C44 H66 0.931 . S
C45 C42 1.481 . S
C45 C46 1.387 . S
C45 C50 1.390 . S
C46 C45 1.387 . S
C46 C47 1.401 . S
C46 H67 0.930 . S
C47 C46 1.401 . S
C47 C48 1.376 . S
C47 C56 1.511 . S
C48 C47 1.376 . S
C48 C49 1.392 . S
C48 H69 0.931 . S
C49 C48 1.392 . S
C49 C50 1.361 . S
C49 C51 1.500 . S
C50 C45 1.390 . S
C50 C49 1.361 . S
C50 H68 0.931 . S
C51 C49 1.500 . S
C51 C52 1.371 . S
C51 C53 1.365 . S
C52 C51 1.371 . S
C52 C62 1.386 . S
C52 H70 0.931 . S
C53 C51 1.365 . S
C53 C54 1.409 . S
C53 H71 0.929 . S
C54 C53 1.409 . S
C54 C55 1.380 . S
C54 H72 0.930 . S
C55 C54 1.380 . S
C55 C62 1.357 . S
C56 C47 1.511 . S
C56 C57 1.341 . S
C56 C58 1.371 . S
C57 C56 1.341 . S
C57 C61 1.394 . S
C57 H73 0.930 . S
C58 C56 1.371 . S
C58 C59 1.392 . S
C58 H74 0.931 . S
C59 C58 1.392 . S
C59 C60 1.331 . S
C59 H77 0.932 . S
C60 C59 1.331 . S
C60 C61 1.336 . S
C61 C57 1.394 . S
C61 C60 1.336 . S
C61 H76 0.929 . S
C62 C52 1.386 . S
C62 C55 1.357 . S
C62 H75 0.928 . S
H63 C39 0.931 . S
H64 C41 0.930 . S
H65 C43 0.929 . S
H66 C44 0.931 . S
H67 C46 0.930 . S
H68 C50 0.931 . S
H69 C48 0.931 . S
H70 C52 0.931 . S
H71 C53 0.929 . S
H72 C54 0.930 . S
H73 C57 0.930 . S
H74 C58 0.931 . S
H75 C62 0.928 . S
H76 C61 0.929 . S
H77 C59 0.932 . S
C78 C79 1.386 . S
C78 C80 1.397 . S
C78 H102 0.931 . S
C79 C78 1.386 . S
C79 C83 1.397 . S
C80 C78 1.397 . S
C80 C81 1.384 . S
C80 H103 0.930 . S
C81 C80 1.384 . S
C81 C82 1.377 . S
C81 C84 1.481 . S
C82 C81 1.377 . S
C82 C83 1.389 . S
C82 H104 0.929 . S
C83 C79 1.397 . S
C83 C82 1.389 . S
C83 H105 0.931 . S
C84 C81 1.481 . S
C84 C85 1.387 . S
C84 C89 1.390 . S
C85 C84 1.387 . S
C85 C86 1.401 . S
C85 H106 0.930 . S
C86 C85 1.401 . S
C86 C87 1.376 . S
C86 C95 1.511 . S
C87 C86 1.376 . S
C87 C88 1.392 . S
C87 H108 0.931 . S
C88 C87 1.392 . S
C88 C89 1.361 . S
C88 C90 1.500 . S
C89 C84 1.390 . S
C89 C88 1.361 . S
C89 H107 0.931 . S
C90 C88 1.500 . S
C90 C91 1.371 . S
C90 C92 1.365 . S
C91 C90 1.371 . S
C91 C101 1.386 . S
C91 H109 0.931 . S
C92 C90 1.365 . S
C92 C93 1.409 . S
C92 H110 0.929 . S
C93 C92 1.409 . S
C93 C94 1.380 . S
C93 H111 0.930 . S
C94 C93 1.380 . S
C94 C101 1.357 . S
C95 C86 1.511 . S
C95 C96 1.341 . S
C95 C97 1.371 . S
C96 C95 1.341 . S
C96 C100 1.394 . S
C96 H112 0.930 . S
C97 C95 1.371 . S
C97 C98 1.392 . S
C97 H113 0.931 . S
C98 C97 1.392 . S
C98 C99 1.331 . S
C98 H116 0.932 . S
C99 C98 1.331 . S
C99 C100 1.336 . S
C100 C96 1.394 . S
C100 C99 1.336 . S
C100 H115 0.929 . S
C101 C91 1.386 . S
C101 C94 1.357 . S
C101 H114 0.928 . S
H102 C78 0.931 . S
H103 C80 0.930 . S
H104 C82 0.929 . S
H105 C83 0.931 . S
H106 C85 0.930 . S
H107 C89 0.931 . S
H108 C87 0.931 . S
H109 C91 0.931 . S
H110 C92 0.929 . S
H111 C93 0.930 . S
H112 C96 0.930 . S
H113 C97 0.931 . S
H114 C101 0.928 . S
H115 C100 0.929 . S
H116 C98 0.932 . S
C117 C118 1.386 . S
C117 C119 1.397 . S
C117 H141 0.931 . S
C118 C117 1.386 . S
C118 C122 1.397 . S
C119 C117 1.397 . S
C119 C120 1.384 . S
C119 H142 0.930 . S
C120 C119 1.384 . S
C120 C121 1.377 . S
C120 C123 1.481 . S
C121 C120 1.377 . S
C121 C122 1.389 . S
C121 H143 0.929 . S
C122 C118 1.397 . S
C122 C121 1.389 . S
C122 H144 0.931 . S
C123 C120 1.481 . S
C123 C124 1.387 . S
C123 C128 1.390 . S
C124 C123 1.387 . S
C124 C125 1.401 . S
C124 H145 0.930 . S
C125 C124 1.401 . S
C125 C126 1.376 . S
C125 C134 1.511 . S
C126 C125 1.376 . S
C126 C127 1.392 . S
C126 H147 0.931 . S
C127 C126 1.392 . S
C127 C128 1.361 . S
C127 C129 1.500 . S
C128 C123 1.390 . S
C128 C127 1.361 . S
C128 H146 0.931 . S
C129 C127 1.500 . S
C129 C130 1.371 . S
C129 C131 1.365 . S
C130 C129 1.371 . S
C130 C140 1.386 . S
C130 H148 0.931 . S
C131 C129 1.365 . S
C131 C132 1.409 . S
C131 H149 0.929 . S
C132 C131 1.409 . S
C132 C133 1.380 . S
C132 H150 0.930 . S
C133 C132 1.380 . S
C133 C140 1.357 . S
C134 C125 1.511 . S
C134 C135 1.341 . S
C134 C136 1.371 . S
C135 C134 1.341 . S
C135 C139 1.394 . S
C135 H151 0.930 . S
C136 C134 1.371 . S
C136 C137 1.392 . S
C136 H152 0.931 . S
C137 C136 1.392 . S
C137 C138 1.331 . S
C137 H155 0.932 . S
C138 C137 1.331 . S
C138 C139 1.336 . S
C139 C135 1.394 . S
C139 C138 1.336 . S
C139 H154 0.929 . S
C140 C130 1.386 . S
C140 C133 1.357 . S
C140 H153 0.928 . S
H141 C117 0.931 . S
H142 C119 0.930 . S
H143 C121 0.929 . S
H144 C122 0.931 . S
H145 C124 0.930 . S
H146 C128 0.931 . S
H147 C126 0.931 . S
H148 C130 0.931 . S
H149 C131 0.929 . S
H150 C132 0.930 . S
H151 C135 0.930 . S
H152 C136 0.931 . S
H153 C140 0.928 . S
H154 C139 0.929 . S
H155 C137 0.932 . S
C156 C157 1.386 . S
C156 C158 1.397 . S
C156 H180 0.931 . S
C157 C156 1.386 . S
C157 C161 1.397 . S
C158 C156 1.397 . S
C158 C159 1.384 . S
C158 H181 0.930 . S
C159 C158 1.384 . S
C159 C160 1.377 . S
C159 C162 1.481 . S
C160 C159 1.377 . S
C160 C161 1.389 . S
C160 H182 0.929 . S
C161 C157 1.397 . S
C161 C160 1.389 . S
C161 H183 0.931 . S
C162 C159 1.481 . S
C162 C163 1.387 . S
C162 C167 1.390 . S
C163 C162 1.387 . S
C163 C164 1.401 . S
C163 H184 0.930 . S
C164 C163 1.401 . S
C164 C165 1.376 . S
C164 C173 1.511 . S
C165 C164 1.376 . S
C165 C166 1.392 . S
C165 H186 0.931 . S
C166 C165 1.392 . S
C166 C167 1.361 . S
C166 C168 1.500 . S
C167 C162 1.390 . S
C167 C166 1.361 . S
C167 H185 0.931 . S
C168 C166 1.500 . S
C168 C169 1.371 . S
C168 C170 1.365 . S
C169 C168 1.371 . S
C169 C179 1.386 . S
C169 H187 0.931 . S
C170 C168 1.365 . S
C170 C171 1.409 . S
C170 H188 0.929 . S
C171 C170 1.409 . S
C171 C172 1.380 . S
C171 H189 0.930 . S
C172 C171 1.380 . S
C172 C179 1.357 . S
C173 C164 1.511 . S
C173 C174 1.341 . S
C173 C175 1.371 . S
C174 C173 1.341 . S
C174 C178 1.394 . S
C174 H190 0.930 . S
C175 C173 1.371 . S
C175 C176 1.392 . S
C175 H191 0.931 . S
C176 C175 1.392 . S
C176 C177 1.331 . S
C176 H194 0.932 . S
C177 C176 1.331 . S
C177 C178 1.336 . S
C178 C174 1.394 . S
C178 C177 1.336 . S
C178 H193 0.929 . S
C179 C169 1.386 . S
C179 C172 1.357 . S
C179 H192 0.928 . S
H180 C156 0.931 . S
H181 C158 0.930 . S
H182 C160 0.929 . S
H183 C161 0.931 . S
H184 C163 0.930 . S
H185 C167 0.931 . S
H186 C165 0.931 . S
H187 C169 0.931 . S
H188 C170 0.929 . S
H189 C171 0.930 . S
H190 C174 0.930 . S
H191 C175 0.931 . S
H192 C179 0.928 . S
H193 C178 0.929 . S
H194 C176 0.932 . S
C195 C196 1.386 . S
C195 C197 1.397 . S
C195 H219 0.931 . S
C196 C195 1.386 . S
C196 C200 1.397 . S
C197 C195 1.397 . S
C197 C198 1.384 . S
C197 H220 0.930 . S
C198 C197 1.384 . S
C198 C199 1.377 . S
C198 C201 1.481 . S
C199 C198 1.377 . S
C199 C200 1.389 . S
C199 H221 0.929 . S
C200 C196 1.397 . S
C200 C199 1.389 . S
C200 H222 0.931 . S
C201 C198 1.481 . S
C201 C202 1.387 . S
C201 C206 1.390 . S
C202 C201 1.387 . S
C202 C203 1.401 . S
C202 H223 0.930 . S
C203 C202 1.401 . S
C203 C204 1.376 . S
C203 C212 1.511 . S
C204 C203 1.376 . S
C204 C205 1.392 . S
C204 H225 0.931 . S
C205 C204 1.392 . S
C205 C206 1.361 . S
C205 C207 1.500 . S
C206 C201 1.390 . S
C206 C205 1.361 . S
C206 H224 0.931 . S
C207 C205 1.500 . S
C207 C208 1.371 . S
C207 C209 1.365 . S
C208 C207 1.371 . S
C208 C218 1.386 . S
C208 H226 0.931 . S
C209 C207 1.365 . S
C209 C210 1.409 . S
C209 H227 0.929 . S
C210 C209 1.409 . S
C210 C211 1.380 . S
C210 H228 0.930 . S
C211 C210 1.380 . S
C211 C218 1.357 . S
C212 C203 1.511 . S
C212 C213 1.341 . S
C212 C214 1.371 . S
C213 C212 1.341 . S
C213 C217 1.394 . S
C213 H229 0.930 . S
C214 C212 1.371 . S
C214 C215 1.392 . S
C214 H230 0.931 . S
C215 C214 1.392 . S
C215 C216 1.331 . S
C215 H233 0.932 . S
C216 C215 1.331 . S
C216 C217 1.336 . S
C217 C213 1.394 . S
C217 C216 1.336 . S
C217 H232 0.929 . S
C218 C208 1.386 . S
C218 C211 1.357 . S
C218 H231 0.928 . S
H219 C195 0.931 . S
H220 C197 0.930 . S
H221 C199 0.929 . S
H222 C200 0.931 . S
H223 C202 0.930 . S
H224 C206 0.931 . S
H225 C204 0.931 . S
H226 C208 0.931 . S
H227 C209 0.929 . S
H228 C210 0.930 . S
H229 C213 0.930 . S
H230 C214 0.931 . S
H231 C218 0.928 . S
H232 C217 0.929 . S
H233 C215 0.932 . S
C234 C235 1.386 . S
C234 C236 1.397 . S
C234 H258 0.931 . S
C235 C234 1.386 . S
C235 C239 1.397 . S
C236 C234 1.397 . S
C236 C237 1.384 . S
C236 H259 0.930 . S
C237 C236 1.384 . S
C237 C238 1.377 . S
C237 C240 1.481 . S
C238 C237 1.377 . S
C238 C239 1.389 . S
C238 H260 0.929 . S
C239 C235 1.397 . S
C239 C238 1.389 . S
C239 H261 0.931 . S
C240 C237 1.481 . S
C240 C241 1.387 . S
C240 C245 1.390 . S
C241 C240 1.387 . S
C241 C242 1.401 . S
C241 H262 0.930 . S
C242 C241 1.401 . S
C242 C243 1.376 . S
C242 C251 1.511 . S
C243 C242 1.376 . S
C243 C244 1.392 . S
C243 H264 0.931 . S
C244 C243 1.392 . S
C244 C245 1.361 . S
C244 C246 1.500 . S
C245 C240 1.390 . S
C245 C244 1.361 . S
C245 H263 0.931 . S
C246 C244 1.500 . S
C246 C247 1.371 . S
C246 C248 1.365 . S
C247 C246 1.371 . S
C247 C257 1.386 . S
C247 H265 0.931 . S
C248 C246 1.365 . S
C248 C249 1.409 . S
C248 H266 0.929 . S
C249 C248 1.409 . S
C249 C250 1.380 . S
C249 H267 0.930 . S
C250 C249 1.380 . S
C250 C257 1.357 . S
C251 C242 1.511 . S
C251 C252 1.341 . S
C251 C253 1.371 . S
C252 C251 1.341 . S
C252 C256 1.394 . S
C252 H268 0.930 . S
C253 C251 1.371 . S
C253 C254 1.392 . S
C253 H269 0.931 . S
C254 C253 1.392 . S
C254 C255 1.331 . S
C254 H272 0.932 . S
C255 C254 1.331 . S
C255 C256 1.336 . S
C256 C252 1.394 . S
C256 C255 1.336 . S
C256 H271 0.929 . S
C257 C247 1.386 . S
C257 C250 1.357 . S
C257 H270 0.928 . S
H258 C234 0.931 . S
H259 C236 0.930 . S
H260 C238 0.929 . S
H261 C239 0.931 . S
H262 C241 0.930 . S
H263 C245 0.931 . S
H264 C243 0.931 . S
H265 C247 0.931 . S
H266 C248 0.929 . S
H267 C249 0.930 . S
H268 C252 0.930 . S
H269 C253 0.931 . S
H270 C257 0.928 . S
H271 C256 0.929 . S
H272 C254 0.932 . S
C273 C274 1.386 . S
C273 C275 1.397 . S
C273 H297 0.931 . S
C274 C273 1.386 . S
C274 C278 1.397 . S
C275 C273 1.397 . S
C275 C276 1.384 . S
C275 H298 0.930 . S
C276 C275 1.384 . S
C276 C277 1.377 . S
C276 C279 1.481 . S
C277 C276 1.377 . S
C277 C278 1.389 . S
C277 H299 0.929 . S
C278 C274 1.397 . S
C278 C277 1.389 . S
C278 H300 0.931 . S
C279 C276 1.481 . S
C279 C280 1.387 . S
C279 C284 1.390 . S
C280 C279 1.387 . S
C280 C281 1.401 . S
C280 H301 0.930 . S
C281 C280 1.401 . S
C281 C282 1.376 . S
C281 C290 1.511 . S
C282 C281 1.376 . S
C282 C283 1.392 . S
C282 H303 0.931 . S
C283 C282 1.392 . S
C283 C284 1.361 . S
C283 C285 1.500 . S
C284 C279 1.390 . S
C284 C283 1.361 . S
C284 H302 0.931 . S
C285 C283 1.500 . S
C285 C286 1.371 . S
C285 C287 1.365 . S
C286 C285 1.371 . S
C286 C296 1.386 . S
C286 H304 0.931 . S
C287 C285 1.365 . S
C287 C288 1.409 . S
C287 H305 0.929 . S
C288 C287 1.409 . S
C288 C289 1.380 . S
C288 H306 0.930 . S
C289 C288 1.380 . S
C289 C296 1.357 . S
C290 C281 1.511 . S
C290 C291 1.341 . S
C290 C292 1.371 . S
C291 C290 1.341 . S
C291 C295 1.394 . S
C291 H307 0.930 . S
C292 C290 1.371 . S
C292 C293 1.392 . S
C292 H308 0.931 . S
C293 C292 1.392 . S
C293 C294 1.331 . S
C293 H311 0.932 . S
C294 C293 1.331 . S
C294 C295 1.336 . S
C295 C291 1.394 . S
C295 C294 1.336 . S
C295 H310 0.929 . S
C296 C286 1.386 . S
C296 C289 1.357 . S
C296 H309 0.928 . S
H297 C273 0.931 . S
H298 C275 0.930 . S
H299 C277 0.929 . S
H300 C278 0.931 . S
H301 C280 0.930 . S
H302 C284 0.931 . S
H303 C282 0.931 . S
H304 C286 0.931 . S
H305 C287 0.929 . S
H306 C288 0.930 . S
H307 C291 0.930 . S
H308 C292 0.931 . S
H309 C296 0.928 . S
H310 C295 0.929 . S
H311 C293 0.932 . S
C312 O314 1.247 . S
C312 O316 1.258 . S
C313 O320 1.247 . S
C313 O321 1.258 . S
O314 C312 1.247 . S
O314 Zn315 2.028 1_655 S
Zn315 O314 2.028 1_455 S
Zn315 O319 2.035 . S
Zn315 O321 2.035 . S
Zn315 O322 2.028 1_455 S
O316 C312 1.258 . S
O316 Zn317 2.000 1_655 S
Zn317 O316 2.000 1_455 S
Zn317 O318 2.063 . S
Zn317 O320 2.063 . S
Zn317 O323 2.000 1_455 S
O318 Zn317 2.063 . S
O318 C324 1.247 . S
O319 Zn315 2.035 . S
O319 C324 1.258 . S
O320 C313 1.247 . S
O320 Zn317 2.063 . S
O321 C313 1.258 . S
O321 Zn315 2.035 . S
O322 Zn315 2.028 1_655 S
O322 C325 1.247 . S
O323 Zn317 2.000 1_655 S
O323 C325 1.258 . S
C324 O318 1.247 . S
C324 O319 1.258 . S
C325 O322 1.247 . S
C325 O323 1.258 . S
C326 O328 1.247 . S
C326 O330 1.258 . S
C327 O334 1.247 . S
C327 O335 1.258 . S
O328 C326 1.247 . S
O328 Zn329 2.028 1_655 S
Zn329 O328 2.028 1_455 S
Zn329 O333 2.035 . S
Zn329 O335 2.035 . S
Zn329 O336 2.028 1_455 S
O330 C326 1.258 . S
O330 Zn331 2.035 1_655 S
Zn331 O330 2.035 1_455 S
Zn331 O332 2.028 . S
Zn331 O334 2.028 . S
Zn331 O337 2.035 1_455 S
O332 Zn331 2.028 . S
O332 C338 1.247 . S
O333 Zn329 2.035 . S
O333 C338 1.258 . S
O334 C327 1.247 . S
O334 Zn331 2.028 . S
O335 C327 1.258 . S
O335 Zn329 2.035 . S
O336 Zn329 2.028 1_655 S
O336 C339 1.247 . S
O337 Zn331 2.035 1_655 S
O337 C339 1.258 . S
C338 O332 1.247 . S
C338 O333 1.258 . S
C339 O336 1.247 . S
C339 O337 1.258 . S
C340 O342 1.247 . S
C340 O344 1.258 . S
C341 O348 1.247 . S
C341 O349 1.258 . S
O342 C340 1.247 . S
O342 Zn343 2.028 1_565 S
Zn343 O342 2.028 1_545 S
Zn343 O347 2.035 . S
Zn343 O349 2.035 . S
Zn343 O350 2.028 1_545 S
O344 C340 1.258 . S
O344 Zn345 2.035 1_565 S
Zn345 O344 2.035 1_545 S
Zn345 O346 2.028 . S
Zn345 O348 2.028 . S
Zn345 O351 2.035 1_545 S
O346 Zn345 2.028 . S
O346 C352 1.247 . S
O347 Zn343 2.035 . S
O347 C352 1.258 . S
O348 C341 1.247 . S
O348 Zn345 2.028 . S
O349 C341 1.258 . S
O349 Zn343 2.035 . S
O350 Zn343 2.028 1_565 S
O350 C353 1.247 . S
O351 Zn345 2.035 1_565 S
O351 C353 1.258 . S
C352 O346 1.247 . S
C352 O347 1.258 . S
C353 O350 1.247 . S
C353 O351 1.258 . S
C354 O356 1.247 . S
C354 O358 1.258 . S
C355 O362 1.247 . S
C355 O363 1.258 . S
O356 C354 1.247 . S
O356 Zn357 2.045 . S
Zn357 O356 2.045 . S
Zn357 O361 2.052 . S
Zn357 O363 2.018 1_554 S
Zn357 O364 2.011 1_554 S
O358 C354 1.258 . S
O358 Zn359 2.035 . S
Zn359 O358 2.035 . S
Zn359 O360 2.028 . S
Zn359 O362 2.028 1_554 S
Zn359 O365 2.035 1_554 S
O360 Zn359 2.028 . S
O360 C366 1.247 . S
O361 Zn357 2.052 . S
O361 C366 1.258 . S
O362 C355 1.247 . S
O362 Zn359 2.028 1_556 S
O363 C355 1.258 . S
O363 Zn357 2.018 1_556 S
O364 Zn357 2.011 1_556 S
O364 C367 1.247 . S
O365 Zn359 2.035 1_556 S
O365 C367 1.258 . S
C366 O360 1.247 . S
C366 O361 1.258 . S
C367 O364 1.247 . S
C367 O365 1.258 . S
C368 O370 1.247 . S
C368 O372 1.258 . S
C369 O376 1.247 . S
C369 O377 1.258 . S
O370 C368 1.247 . S
O370 Zn371 2.026 . S
Zn371 O370 2.026 . S
Zn371 O375 2.037 1_565 S
Zn371 O377 2.037 1_565 S
Zn371 O378 2.026 . S
O372 C368 1.258 . S
O372 Zn373 2.017 1_565 S
Zn373 O372 2.017 1_545 S
Zn373 O374 2.046 . S
Zn373 O376 2.046 . S
Zn373 O379 2.017 1_545 S
O374 Zn373 2.046 . S
O374 C380 1.247 . S
O375 Zn371 2.037 1_545 S
O375 C380 1.258 . S
O376 C369 1.247 . S
O376 Zn373 2.046 . S
O377 C369 1.258 . S
O377 Zn371 2.037 1_545 S
O378 Zn371 2.026 . S
O378 C381 1.247 . S
O379 Zn373 2.017 1_565 S
O379 C381 1.258 . S
C380 O374 1.247 . S
C380 O375 1.258 . S
C381 O378 1.247 . S
C381 O379 1.258 . S
C382 O384 1.247 . S
C382 O386 1.258 . S
C383 O390 1.247 . S
C383 O391 1.258 . S
O384 C382 1.247 . S
O384 Zn385 2.028 . S
Zn385 O384 2.028 . S
Zn385 O389 2.035 . S
Zn385 O391 2.035 1_554 S
Zn385 O392 2.028 1_554 S
O386 C382 1.258 . S
O386 Zn387 2.035 . S
Zn387 O386 2.035 . S
Zn387 O388 2.028 . S
Zn387 O390 2.028 1_554 S
Zn387 O393 2.035 1_554 S
O388 Zn387 2.028 . S
O388 C394 1.247 . S
O389 Zn385 2.035 . S
O389 C394 1.258 . S
O390 C383 1.247 . S
O390 Zn387 2.028 1_556 S
O391 C383 1.258 . S
O391 Zn385 2.035 1_556 S
O392 Zn385 2.028 1_556 S
O392 C395 1.247 . S
O393 Zn387 2.035 1_556 S
O393 C395 1.258 . S
C394 O388 1.247 . S
C394 O389 1.258 . S
C395 O392 1.247 . S
C395 O393 1.258 . S
H396 C404 0.929 . S
H397 C406 0.930 . S
H398 C408 0.930 . S
H399 C411 0.929 . S
H400 C414 0.930 . S
H401 C416 0.960 . S
H402 C416 0.960 . S
H403 C416 0.960 . S
C404 H396 0.929 . S
C404 C405 1.377 . S
C404 C406 1.384 . S
C405 C404 1.377 . S
C405 C411 1.390 . S
C406 H397 0.930 . S
C406 C404 1.384 . S
C406 C407 1.372 . S
C407 C406 1.372 . S
C407 C408 1.400 . S
C407 C412 1.490 . S
C408 H398 0.930 . S
C408 C407 1.400 . S
C408 C411 1.386 . S
H409 C425 0.930 . S
H410 C426 0.931 . S
C411 H399 0.929 . S
C411 C405 1.390 . S
C411 C408 1.386 . S
C412 C407 1.490 . S
C412 C414 1.395 . S
C412 C415 1.403 . S
H413 C419 0.930 . S
C414 H400 0.930 . S
C414 C412 1.395 . S
C414 C417 1.403 . S
C415 C412 1.403 . S
C415 C416 1.524 . S
C415 C419 1.400 . S
C416 H401 0.960 . S
C416 H402 0.960 . S
C416 H403 0.960 . S
C416 C415 1.524 . S
C417 C414 1.403 . S
C417 C418 1.392 . S
C417 C421 1.495 . S
C418 C417 1.392 . S
C418 C419 1.385 . S
C418 C420 1.478 . S
C419 H413 0.930 . S
C419 C415 1.400 . S
C419 C418 1.385 . S
C420 C418 1.478 . S
C420 C422 1.381 . S
C420 C426 1.383 . S
C421 C417 1.495 . S
C421 H427 0.959 . S
C421 H428 0.961 . S
C421 H429 0.960 . S
C422 C420 1.381 . S
C422 C423 1.394 . S
C422 H430 0.930 . S
C423 C422 1.394 . S
C423 C424 1.383 . S
C423 H431 0.929 . S
C424 C423 1.383 . S
C424 C425 1.377 . S
C425 H409 0.930 . S
C425 C424 1.377 . S
C425 C426 1.379 . S
C426 H410 0.931 . S
C426 C420 1.383 . S
C426 C425 1.379 . S
H427 C421 0.959 . S
H428 C421 0.961 . S
H429 C421 0.960 . S
H430 C422 0.930 . S
H431 C423 0.929 . S
H432 C440 0.929 . S
H433 C442 0.930 . S
H434 C444 0.930 . S
H435 C447 0.929 . S
H436 C450 0.930 . S
H437 C452 0.960 . S
H438 C452 0.960 . S
H439 C452 0.960 . S
C440 H432 0.929 . S
C440 C441 1.377 . S
C440 C442 1.384 . S
C441 C440 1.377 . S
C441 C447 1.390 . S
C442 H433 0.930 . S
C442 C440 1.384 . S
C442 C443 1.372 . S
C443 C442 1.372 . S
C443 C444 1.400 . S
C443 C448 1.490 . S
C444 H434 0.930 . S
C444 C443 1.400 . S
C444 C447 1.386 . S
H445 C461 0.930 . S
H446 C462 0.931 . S
C447 H435 0.929 . S
C447 C441 1.390 . S
C447 C444 1.386 . S
C448 C443 1.490 . S
C448 C450 1.395 . S
C448 C451 1.403 . S
H449 C455 0.930 . S
C450 H436 0.930 . S
C450 C448 1.395 . S
C450 C453 1.403 . S
C451 C448 1.403 . S
C451 C452 1.524 . S
C451 C455 1.400 . S
C452 H437 0.960 . S
C452 H438 0.960 . S
C452 H439 0.960 . S
C452 C451 1.524 . S
C453 C450 1.403 . S
C453 C454 1.392 . S
C453 C457 1.495 . S
C454 C453 1.392 . S
C454 C455 1.385 . S
C454 C456 1.478 . S
C455 H449 0.930 . S
C455 C451 1.400 . S
C455 C454 1.385 . S
C456 C454 1.478 . S
C456 C458 1.381 . S
C456 C462 1.383 . S
C457 C453 1.495 . S
C457 H463 0.959 . S
C457 H464 0.961 . S
C457 H465 0.960 . S
C458 C456 1.381 . S
C458 C459 1.394 . S
C458 H466 0.930 . S
C459 C458 1.394 . S
C459 C460 1.383 . S
C459 H467 0.929 . S
C460 C459 1.383 . S
C460 C461 1.377 . S
C461 H445 0.930 . S
C461 C460 1.377 . S
C461 C462 1.379 . S
C462 H446 0.931 . S
C462 C456 1.383 . S
C462 C461 1.379 . S
H463 C457 0.959 . S
H464 C457 0.961 . S
H465 C457 0.960 . S
H466 C458 0.930 . S
H467 C459 0.929 . S
H468 C476 0.929 . S
H469 C478 0.930 . S
H470 C480 0.930 . S
H471 C483 0.929 . S
H472 C486 0.930 . S
H473 C488 0.960 . S
H474 C488 0.960 . S
H475 C488 0.960 . S
C476 H468 0.929 . S
C476 C477 1.377 . S
C476 C478 1.384 . S
C477 C476 1.377 . S
C477 C483 1.390 . S
C478 H469 0.930 . S
C478 C476 1.384 . S
C478 C479 1.372 . S
C479 C478 1.372 . S
C479 C480 1.400 . S
C479 C484 1.490 . S
C480 H470 0.930 . S
C480 C479 1.400 . S
C480 C483 1.386 . S
H481 C497 0.930 . S
H482 C498 0.931 . S
C483 H471 0.929 . S
C483 C477 1.390 . S
C483 C480 1.386 . S
C484 C479 1.490 . S
C484 C486 1.395 . S
C484 C487 1.403 . S
H485 C491 0.930 . S
C486 H472 0.930 . S
C486 C484 1.395 . S
C486 C489 1.403 . S
C487 C484 1.403 . S
C487 C488 1.524 . S
C487 C491 1.400 . S
C488 H473 0.960 . S
C488 H474 0.960 . S
C488 H475 0.960 . S
C488 C487 1.524 . S
C489 C486 1.403 . S
C489 C490 1.392 . S
C489 C493 1.495 . S
C490 C489 1.392 . S
C490 C491 1.385 . S
C490 C492 1.478 . S
C491 H485 0.930 . S
C491 C487 1.400 . S
C491 C490 1.385 . S
C492 C490 1.478 . S
C492 C494 1.381 . S
C492 C498 1.383 . S
C493 C489 1.495 . S
C493 H499 0.959 . S
C493 H500 0.961 . S
C493 H501 0.960 . S
C494 C492 1.381 . S
C494 C495 1.394 . S
C494 H502 0.930 . S
C495 C494 1.394 . S
C495 C496 1.383 . S
C495 H503 0.929 . S
C496 C495 1.383 . S
C496 C497 1.377 . S
C497 H481 0.930 . S
C497 C496 1.377 . S
C497 C498 1.379 . S
C498 H482 0.931 . S
C498 C492 1.383 . S
C498 C497 1.379 . S
H499 C493 0.959 . S
H500 C493 0.961 . S
H501 C493 0.960 . S
H502 C494 0.930 . S
H503 C495 0.929 . S
H504 C512 0.929 . S
H505 C514 0.930 . S
H506 C516 0.930 . S
H507 C519 0.929 . S
H508 C522 0.930 . S
H509 C524 0.960 . S
H510 C524 0.960 . S
H511 C524 0.960 . S
C512 H504 0.929 . S
C512 C513 1.377 . S
C512 C514 1.384 . S
C513 C512 1.377 . S
C513 C519 1.390 . S
C514 H505 0.930 . S
C514 C512 1.384 . S
C514 C515 1.372 . S
C515 C514 1.372 . S
C515 C516 1.400 . S
C515 C520 1.490 . S
C516 H506 0.930 . S
C516 C515 1.400 . S
C516 C519 1.386 . S
H517 C533 0.930 . S
H518 C534 0.931 . S
C519 H507 0.929 . S
C519 C513 1.390 . S
C519 C516 1.386 . S
C520 C515 1.490 . S
C520 C522 1.395 . S
C520 C523 1.403 . S
H521 C527 0.930 . S
C522 H508 0.930 . S
C522 C520 1.395 . S
C522 C525 1.403 . S
C523 C520 1.403 . S
C523 C524 1.524 . S
C523 C527 1.400 . S
C524 H509 0.960 . S
C524 H510 0.960 . S
C524 H511 0.960 . S
C524 C523 1.524 . S
C525 C522 1.403 . S
C525 C526 1.392 . S
C525 C529 1.495 . S
C526 C525 1.392 . S
C526 C527 1.385 . S
C526 C528 1.478 . S
C527 H521 0.930 . S
C527 C523 1.400 . S
C527 C526 1.385 . S
C528 C526 1.478 . S
C528 C530 1.381 . S
C528 C534 1.383 . S
C529 C525 1.495 . S
C529 H535 0.959 . S
C529 H536 0.961 . S
C529 H537 0.960 . S
C530 C528 1.381 . S
C530 C531 1.394 . S
C530 H538 0.930 . S
C531 C530 1.394 . S
C531 C532 1.383 . S
C531 H539 0.929 . S
C532 C531 1.383 . S
C532 C533 1.377 . S
C533 H517 0.930 . S
C533 C532 1.377 . S
C533 C534 1.379 . S
C534 H518 0.931 . S
C534 C528 1.383 . S
C534 C533 1.379 . S
H535 C529 0.959 . S
H536 C529 0.961 . S
H537 C529 0.960 . S
H538 C530 0.930 . S
H539 C531 0.929 . S
H540 C548 0.929 . S
H541 C550 0.930 . S
H542 C552 0.930 . S
H543 C555 0.929 . S
H544 C558 0.930 . S
H545 C560 0.960 . S
H546 C560 0.960 . S
H547 C560 0.960 . S
C548 H540 0.929 . S
C548 C549 1.377 . S
C548 C550 1.384 . S
C549 C548 1.377 . S
C549 C555 1.390 . S
C550 H541 0.930 . S
C550 C548 1.384 . S
C550 C551 1.372 . S
C551 C550 1.372 . S
C551 C552 1.400 . S
C551 C556 1.490 . S
C552 H542 0.930 . S
C552 C551 1.400 . S
C552 C555 1.386 . S
H553 C569 0.930 . S
H554 C570 0.931 . S
C555 H543 0.929 . S
C555 C549 1.390 . S
C555 C552 1.386 . S
C556 C551 1.490 . S
C556 C558 1.395 . S
C556 C559 1.403 . S
H557 C563 0.930 . S
C558 H544 0.930 . S
C558 C556 1.395 . S
C558 C561 1.403 . S
C559 C556 1.403 . S
C559 C560 1.524 . S
C559 C563 1.400 . S
C560 H545 0.960 . S
C560 H546 0.960 . S
C560 H547 0.960 . S
C560 C559 1.524 . S
C561 C558 1.403 . S
C561 C562 1.392 . S
C561 C565 1.495 . S
C562 C561 1.392 . S
C562 C563 1.385 . S
C562 C564 1.478 . S
C563 H557 0.930 . S
C563 C559 1.400 . S
C563 C562 1.385 . S
C564 C562 1.478 . S
C564 C566 1.381 . S
C564 C570 1.383 . S
C565 C561 1.495 . S
C565 H571 0.959 . S
C565 H572 0.961 . S
C565 H573 0.960 . S
C566 C564 1.381 . S
C566 C567 1.394 . S
C566 H574 0.930 . S
C567 C566 1.394 . S
C567 C568 1.383 . S
C567 H575 0.929 . S
C568 C567 1.383 . S
C568 C569 1.377 . S
C569 H553 0.930 . S
C569 C568 1.377 . S
C569 C570 1.379 . S
C570 H554 0.931 . S
C570 C564 1.383 . S
C570 C569 1.379 . S
H571 C565 0.959 . S
H572 C565 0.961 . S
H573 C565 0.960 . S
H574 C566 0.930 . S
H575 C567 0.929 . S
H576 C584 0.929 . S
H577 C586 0.930 . S
H578 C588 0.930 . S
H579 C591 0.929 . S
H580 C594 0.930 . S
H581 C596 0.960 . S
H582 C596 0.960 . S
H583 C596 0.960 . S
C584 H576 0.929 . S
C584 C585 1.377 . S
C584 C586 1.384 . S
C585 C584 1.377 . S
C585 C591 1.390 . S
C586 H577 0.930 . S
C586 C584 1.384 . S
C586 C587 1.372 . S
C587 C586 1.372 . S
C587 C588 1.400 . S
C587 C592 1.490 . S
C588 H578 0.930 . S
C588 C587 1.400 . S
C588 C591 1.386 . S
H589 C605 0.930 . S
H590 C606 0.931 . S
C591 H579 0.929 . S
C591 C585 1.390 . S
C591 C588 1.386 . S
C592 C587 1.490 . S
C592 C594 1.395 . S
C592 C595 1.403 . S
H593 C599 0.930 . S
C594 H580 0.930 . S
C594 C592 1.395 . S
C594 C597 1.403 . S
C595 C592 1.403 . S
C595 C596 1.524 . S
C595 C599 1.400 . S
C596 H581 0.960 . S
C596 H582 0.960 . S
C596 H583 0.960 . S
C596 C595 1.524 . S
C597 C594 1.403 . S
C597 C598 1.392 . S
C597 C601 1.495 . S
C598 C597 1.392 . S
C598 C599 1.385 . S
C598 C600 1.478 . S
C599 H593 0.930 . S
C599 C595 1.400 . S
C599 C598 1.385 . S
C600 C598 1.478 . S
C600 C602 1.381 . S
C600 C606 1.383 . S
C601 C597 1.495 . S
C601 H607 0.959 . S
C601 H608 0.961 . S
C601 H609 0.960 . S
C602 C600 1.381 . S
C602 C603 1.394 . S
C602 H610 0.930 . S
C603 C602 1.394 . S
C603 C604 1.383 . S
C603 H611 0.929 . S
C604 C603 1.383 . S
C604 C605 1.377 . S
C605 H589 0.930 . S
C605 C604 1.377 . S
C605 C606 1.379 . S
C606 H590 0.931 . S
C606 C600 1.383 . S
C606 C605 1.379 . S
H607 C601 0.959 . S
H608 C601 0.961 . S
H609 C601 0.960 . S
H610 C602 0.930 . S
H611 C603 0.929 . S
H612 C620 0.929 . S
H613 C622 0.930 . S
H614 C624 0.930 . S
H615 C627 0.929 . S
H616 C630 0.930 . S
H617 C632 0.960 . S
H618 C632 0.960 . S
H619 C632 0.960 . S
C620 H612 0.929 . S
C620 C621 1.377 . S
C620 C622 1.384 . S
C621 C620 1.377 . S
C621 C627 1.390 . S
C622 H613 0.930 . S
C622 C620 1.384 . S
C622 C623 1.372 . S
C623 C622 1.372 . S
C623 C624 1.400 . S
C623 C628 1.490 . S
C624 H614 0.930 . S
C624 C623 1.400 . S
C624 C627 1.386 . S
H625 C641 0.930 . S
H626 C642 0.931 . S
C627 H615 0.929 . S
C627 C621 1.390 . S
C627 C624 1.386 . S
C628 C623 1.490 . S
C628 C630 1.395 . S
C628 C631 1.403 . S
H629 C635 0.930 . S
C630 H616 0.930 . S
C630 C628 1.395 . S
C630 C633 1.403 . S
C631 C628 1.403 . S
C631 C632 1.524 . S
C631 C635 1.400 . S
C632 H617 0.960 . S
C632 H618 0.960 . S
C632 H619 0.960 . S
C632 C631 1.524 . S
C633 C630 1.403 . S
C633 C634 1.392 . S
C633 C637 1.495 . S
C634 C633 1.392 . S
C634 C635 1.385 . S
C634 C636 1.478 . S
C635 H629 0.930 . S
C635 C631 1.400 . S
C635 C634 1.385 . S
C636 C634 1.478 . S
C636 C638 1.381 . S
C636 C642 1.383 . S
C637 C633 1.495 . S
C637 H643 0.959 . S
C637 H644 0.961 . S
C637 H645 0.960 . S
C638 C636 1.381 . S
C638 C639 1.394 . S
C638 H646 0.930 . S
C639 C638 1.394 . S
C639 C640 1.383 . S
C639 H647 0.929 . S
C640 C639 1.383 . S
C640 C641 1.377 . S
C641 H625 0.930 . S
C641 C640 1.377 . S
C641 C642 1.379 . S
C642 H626 0.931 . S
C642 C636 1.383 . S
C642 C641 1.379 . S
H643 C637 0.959 . S
H644 C637 0.961 . S
H645 C637 0.960 . S
H646 C638 0.930 . S
H647 C639 0.929 . S
H648 C656 0.929 . S
H649 C658 0.930 . S
H650 C660 0.930 . S
H651 C663 0.929 . S
H652 C666 0.930 . S
H653 C668 0.960 . S
H654 C668 0.960 . S
H655 C668 0.960 . S
C656 H648 0.929 . S
C656 C657 1.377 . S
C656 C658 1.384 . S
C657 C656 1.377 . S
C657 C663 1.390 . S
C658 H649 0.930 . S
C658 C656 1.384 . S
C658 C659 1.372 . S
C659 C658 1.372 . S
C659 C660 1.400 . S
C659 C664 1.490 . S
C660 H650 0.930 . S
C660 C659 1.400 . S
C660 C663 1.386 . S
H661 C677 0.930 . S
H662 C678 0.931 . S
C663 H651 0.929 . S
C663 C657 1.390 . S
C663 C660 1.386 . S
C664 C659 1.490 . S
C664 C666 1.395 . S
C664 C667 1.403 . S
H665 C671 0.930 . S
C666 H652 0.930 . S
C666 C664 1.395 . S
C666 C669 1.403 . S
C667 C664 1.403 . S
C667 C668 1.524 . S
C667 C671 1.400 . S
C668 H653 0.960 . S
C668 H654 0.960 . S
C668 H655 0.960 . S
C668 C667 1.524 . S
C669 C666 1.403 . S
C669 C670 1.392 . S
C669 C673 1.495 . S
C670 C669 1.392 . S
C670 C671 1.385 . S
C670 C672 1.478 . S
C671 H665 0.930 . S
C671 C667 1.400 . S
C671 C670 1.385 . S
C672 C670 1.478 . S
C672 C674 1.381 . S
C672 C678 1.383 . S
C673 C669 1.495 . S
C673 H679 0.959 . S
C673 H680 0.961 . S
C673 H681 0.960 . S
C674 C672 1.381 . S
C674 C675 1.394 . S
C674 H682 0.930 . S
C675 C674 1.394 . S
C675 C676 1.383 . S
C675 H683 0.929 . S
C676 C675 1.383 . S
C676 C677 1.377 . S
C677 H661 0.930 . S
C677 C676 1.377 . S
C677 C678 1.379 . S
C678 H662 0.931 . S
C678 C672 1.383 . S
C678 C677 1.379 . S
H679 C673 0.959 . S
H680 C673 0.961 . S
H681 C673 0.960 . S
H682 C674 0.930 . S
H683 C675 0.929 . S
H684 C692 0.929 . S
H685 C694 0.930 . S
H686 C696 0.930 . S
H687 C699 0.929 . S
H688 C702 0.930 . S
H689 C704 0.960 . S
H690 C704 0.960 . S
H691 C704 0.960 . S
C692 H684 0.929 . S
C692 C693 1.377 . S
C692 C694 1.384 . S
C693 C692 1.377 . S
C693 C699 1.390 . S
C694 H685 0.930 . S
C694 C692 1.384 . S
C694 C695 1.372 . S
C695 C694 1.372 . S
C695 C696 1.400 . S
C695 C700 1.490 . S
C696 H686 0.930 . S
C696 C695 1.400 . S
C696 C699 1.386 . S
H697 C713 0.930 . S
H698 C714 0.931 . S
C699 H687 0.929 . S
C699 C693 1.390 . S
C699 C696 1.386 . S
C700 C695 1.490 . S
C700 C702 1.395 . S
C700 C703 1.403 . S
H701 C707 0.930 . S
C702 H688 0.930 . S
C702 C700 1.395 . S
C702 C705 1.403 . S
C703 C700 1.403 . S
C703 C704 1.524 . S
C703 C707 1.400 . S
C704 H689 0.960 . S
C704 H690 0.960 . S
C704 H691 0.960 . S
C704 C703 1.524 . S
C705 C702 1.403 . S
C705 C706 1.392 . S
C705 C709 1.495 . S
C706 C705 1.392 . S
C706 C707 1.385 . S
C706 C708 1.478 . S
C707 H701 0.930 . S
C707 C703 1.400 . S
C707 C706 1.385 . S
C708 C706 1.478 . S
C708 C710 1.381 . S
C708 C714 1.383 . S
C709 C705 1.495 . S
C709 H715 0.959 . S
C709 H716 0.961 . S
C709 H717 0.960 . S
C710 C708 1.381 . S
C710 C711 1.394 . S
C710 H718 0.930 . S
C711 C710 1.394 . S
C711 C712 1.383 . S
C711 H719 0.929 . S
C712 C711 1.383 . S
C712 C713 1.377 . S
C713 H697 0.930 . S
C713 C712 1.377 . S
C713 C714 1.379 . S
C714 H698 0.931 . S
C714 C708 1.383 . S
C714 C713 1.379 . S
H715 C709 0.959 . S
H716 C709 0.961 . S
H717 C709 0.960 . S
H718 C710 0.930 . S
H719 C711 0.929 . S
H720 C728 0.929 . S
H721 C730 0.930 . S
H722 C732 0.930 . S
H723 C735 0.929 . S
H724 C738 0.930 . S
H725 C740 0.960 . S
H726 C740 0.960 . S
H727 C740 0.960 . S
C728 H720 0.929 . S
C728 C729 1.377 . S
C728 C730 1.384 . S
C729 C728 1.377 . S
C729 C735 1.390 . S
C730 H721 0.930 . S
C730 C728 1.384 . S
C730 C731 1.372 . S
C731 C730 1.372 . S
C731 C732 1.400 . S
C731 C736 1.490 . S
C732 H722 0.930 . S
C732 C731 1.400 . S
C732 C735 1.386 . S
H733 C749 0.930 . S
H734 C750 0.931 . S
C735 H723 0.929 . S
C735 C729 1.390 . S
C735 C732 1.386 . S
C736 C731 1.490 . S
C736 C738 1.395 . S
C736 C739 1.403 . S
H737 C743 0.930 . S
C738 H724 0.930 . S
C738 C736 1.395 . S
C738 C741 1.403 . S
C739 C736 1.403 . S
C739 C740 1.524 . S
C739 C743 1.400 . S
C740 H725 0.960 . S
C740 H726 0.960 . S
C740 H727 0.960 . S
C740 C739 1.524 . S
C741 C738 1.403 . S
C741 C742 1.392 . S
C741 C745 1.495 . S
C742 C741 1.392 . S
C742 C743 1.385 . S
C742 C744 1.478 . S
C743 H737 0.930 . S
C743 C739 1.400 . S
C743 C742 1.385 . S
C744 C742 1.478 . S
C744 C746 1.381 . S
C744 C750 1.383 . S
C745 C741 1.495 . S
C745 H751 0.959 . S
C745 H752 0.961 . S
C745 H753 0.960 . S
C746 C744 1.381 . S
C746 C747 1.394 . S
C746 H754 0.930 . S
C747 C746 1.394 . S
C747 C748 1.383 . S
C747 H755 0.929 . S
C748 C747 1.383 . S
C748 C749 1.377 . S
C749 H733 0.930 . S
C749 C748 1.377 . S
C749 C750 1.379 . S
C750 H734 0.931 . S
C750 C744 1.383 . S
C750 C749 1.379 . S
H751 C745 0.959 . S
H752 C745 0.961 . S
H753 C745 0.960 . S
H754 C746 0.930 . S
H755 C747 0.929 . S
H756 C764 0.929 . S
H757 C766 0.930 . S
H758 C768 0.930 . S
H759 C771 0.929 . S
H760 C774 0.930 . S
H761 C776 0.960 . S
H762 C776 0.960 . S
H763 C776 0.960 . S
C764 H756 0.929 . S
C764 C765 1.377 . S
C764 C766 1.384 . S
C765 C764 1.377 . S
C765 C771 1.390 . S
C766 H757 0.930 . S
C766 C764 1.384 . S
C766 C767 1.372 . S
C767 C766 1.372 . S
C767 C768 1.400 . S
C767 C772 1.490 . S
C768 H758 0.930 . S
C768 C767 1.400 . S
C768 C771 1.386 . S
H769 C785 0.930 . S
H770 C786 0.931 . S
C771 H759 0.929 . S
C771 C765 1.390 . S
C771 C768 1.386 . S
C772 C767 1.490 . S
C772 C774 1.395 . S
C772 C775 1.403 . S
H773 C779 0.930 . S
C774 H760 0.930 . S
C774 C772 1.395 . S
C774 C777 1.403 . S
C775 C772 1.403 . S
C775 C776 1.524 . S
C775 C779 1.400 . S
C776 H761 0.960 . S
C776 H762 0.960 . S
C776 H763 0.960 . S
C776 C775 1.524 . S
C777 C774 1.403 . S
C777 C778 1.392 . S
C777 C781 1.495 . S
C778 C777 1.392 . S
C778 C779 1.385 . S
C778 C780 1.478 . S
C779 H773 0.930 . S
C779 C775 1.400 . S
C779 C778 1.385 . S
C780 C778 1.478 . S
C780 C782 1.381 . S
C780 C786 1.383 . S
C781 C777 1.495 . S
C781 H787 0.959 . S
C781 H788 0.961 . S
C781 H789 0.960 . S
C782 C780 1.381 . S
C782 C783 1.394 . S
C782 H790 0.930 . S
C783 C782 1.394 . S
C783 C784 1.383 . S
C783 H791 0.929 . S
C784 C783 1.383 . S
C784 C785 1.377 . S
C785 H769 0.930 . S
C785 C784 1.377 . S
C785 C786 1.379 . S
C786 H770 0.931 . S
C786 C780 1.383 . S
C786 C785 1.379 . S
H787 C781 0.959 . S
H788 C781 0.961 . S
H789 C781 0.960 . S
H790 C782 0.930 . S
H791 C783 0.929 . S
H792 C800 0.929 . S
H793 C802 0.930 . S
H794 C804 0.930 . S
H795 C807 0.929 . S
H796 C810 0.930 . S
H797 C812 0.960 . S
H798 C812 0.960 . S
H799 C812 0.960 . S
C800 H792 0.929 . S
C800 C801 1.377 . S
C800 C802 1.384 . S
C801 C800 1.377 . S
C801 C807 1.390 . S
C802 H793 0.930 . S
C802 C800 1.384 . S
C802 C803 1.372 . S
C803 C802 1.372 . S
C803 C804 1.400 . S
C803 C808 1.490 . S
C804 H794 0.930 . S
C804 C803 1.400 . S
C804 C807 1.386 . S
H805 C821 0.930 . S
H806 C822 0.931 . S
C807 H795 0.929 . S
C807 C801 1.390 . S
C807 C804 1.386 . S
C808 C803 1.490 . S
C808 C810 1.395 . S
C808 C811 1.403 . S
H809 C815 0.930 . S
C810 H796 0.930 . S
C810 C808 1.395 . S
C810 C813 1.403 . S
C811 C808 1.403 . S
C811 C812 1.524 . S
C811 C815 1.400 . S
C812 H797 0.960 . S
C812 H798 0.960 . S
C812 H799 0.960 . S
C812 C811 1.524 . S
C813 C810 1.403 . S
C813 C814 1.392 . S
C813 C817 1.495 . S
C814 C813 1.392 . S
C814 C815 1.385 . S
C814 C816 1.478 . S
C815 H809 0.930 . S
C815 C811 1.400 . S
C815 C814 1.385 . S
C816 C814 1.478 . S
C816 C818 1.381 . S
C816 C822 1.383 . S
C817 C813 1.495 . S
C817 H823 0.959 . S
C817 H824 0.961 . S
C817 H825 0.960 . S
C818 C816 1.381 . S
C818 C819 1.394 . S
C818 H826 0.930 . S
C819 C818 1.394 . S
C819 C820 1.383 . S
C819 H827 0.929 . S
C820 C819 1.383 . S
C820 C821 1.377 . S
C821 H805 0.930 . S
C821 C820 1.377 . S
C821 C822 1.379 . S
C822 H806 0.931 . S
C822 C816 1.383 . S
C822 C821 1.379 . S
H823 C817 0.959 . S
H824 C817 0.961 . S
H825 C817 0.960 . S
H826 C818 0.930 . S
H827 C819 0.929 . S
H828 C836 0.929 . S
H829 C838 0.930 . S
H830 C840 0.930 . S
H831 C843 0.929 . S
H832 C846 0.930 . S
H833 C848 0.960 . S
H834 C848 0.960 . S
H835 C848 0.960 . S
C836 H828 0.929 . S
C836 C837 1.377 . S
C836 C838 1.384 . S
C837 C836 1.377 . S
C837 C843 1.390 . S
C838 H829 0.930 . S
C838 C836 1.384 . S
C838 C839 1.372 . S
C839 C838 1.372 . S
C839 C840 1.400 . S
C839 C844 1.490 . S
C840 H830 0.930 . S
C840 C839 1.400 . S
C840 C843 1.386 . S
H841 C857 0.930 . S
H842 C858 0.931 . S
C843 H831 0.929 . S
C843 C837 1.390 . S
C843 C840 1.386 . S
C844 C839 1.490 . S
C844 C846 1.395 . S
C844 C847 1.403 . S
H845 C851 0.930 . S
C846 H832 0.930 . S
C846 C844 1.395 . S
C846 C849 1.403 . S
C847 C844 1.403 . S
C847 C848 1.524 . S
C847 C851 1.400 . S
C848 H833 0.960 . S
C848 H834 0.960 . S
C848 H835 0.960 . S
C848 C847 1.524 . S
C849 C846 1.403 . S
C849 C850 1.392 . S
C849 C853 1.495 . S
C850 C849 1.392 . S
C850 C851 1.385 . S
C850 C852 1.478 . S
C851 H845 0.930 . S
C851 C847 1.400 . S
C851 C850 1.385 . S
C852 C850 1.478 . S
C852 C854 1.381 . S
C852 C858 1.383 . S
C853 C849 1.495 . S
C853 H859 0.959 . S
C853 H860 0.961 . S
C853 H861 0.960 . S
C854 C852 1.381 . S
C854 C855 1.394 . S
C854 H862 0.930 . S
C855 C854 1.394 . S
C855 C856 1.383 . S
C855 H863 0.929 . S
C856 C855 1.383 . S
C856 C857 1.377 . S
C857 H841 0.930 . S
C857 C856 1.377 . S
C857 C858 1.379 . S
C858 H842 0.931 . S
C858 C852 1.383 . S
C858 C857 1.379 . S
H859 C853 0.959 . S
H860 C853 0.961 . S
H861 C853 0.960 . S
H862 C854 0.930 . S
H863 C855 0.929 . S
H864 C872 0.929 . S
H865 C874 0.930 . S
H866 C876 0.930 . S
H867 C879 0.929 . S
H868 C882 0.930 . S
H869 C884 0.960 . S
H870 C884 0.960 . S
H871 C884 0.960 . S
C872 H864 0.929 . S
C872 C873 1.377 . S
C872 C874 1.384 . S
C873 C872 1.377 . S
C873 C879 1.390 . S
C874 H865 0.930 . S
C874 C872 1.384 . S
C874 C875 1.372 . S
C875 C874 1.372 . S
C875 C876 1.400 . S
C875 C880 1.490 . S
C876 H866 0.930 . S
C876 C875 1.400 . S
C876 C879 1.386 . S
H877 C893 0.930 . S
H878 C894 0.931 . S
C879 H867 0.929 . S
C879 C873 1.390 . S
C879 C876 1.386 . S
C880 C875 1.490 . S
C880 C882 1.395 . S
C880 C883 1.403 . S
H881 C887 0.930 . S
C882 H868 0.930 . S
C882 C880 1.395 . S
C882 C885 1.403 . S
C883 C880 1.403 . S
C883 C884 1.524 . S
C883 C887 1.400 . S
C884 H869 0.960 . S
C884 H870 0.960 . S
C884 H871 0.960 . S
C884 C883 1.524 . S
C885 C882 1.403 . S
C885 C886 1.392 . S
C885 C889 1.495 . S
C886 C885 1.392 . S
C886 C887 1.385 . S
C886 C888 1.478 . S
C887 H881 0.930 . S
C887 C883 1.400 . S
C887 C886 1.385 . S
C888 C886 1.478 . S
C888 C890 1.381 . S
C888 C894 1.383 . S
C889 C885 1.495 . S
C889 H895 0.959 . S
C889 H896 0.961 . S
C889 H897 0.960 . S
C890 C888 1.381 . S
C890 C891 1.394 . S
C890 H898 0.930 . S
C891 C890 1.394 . S
C891 C892 1.383 . S
C891 H899 0.929 . S
C892 C891 1.383 . S
C892 C893 1.377 . S
C893 H877 0.930 . S
C893 C892 1.377 . S
C893 C894 1.379 . S
C894 H878 0.931 . S
C894 C888 1.383 . S
C894 C893 1.379 . S
H895 C889 0.959 . S
H896 C889 0.961 . S
H897 C889 0.960 . S
H898 C890 0.930 . S
H899 C891 0.929 . S
H900 C908 0.929 . S
H901 C910 0.930 . S
H902 C912 0.930 . S
H903 C915 0.929 . S
H904 C918 0.930 . S
H905 C920 0.960 . S
H906 C920 0.960 . S
H907 C920 0.960 . S
C908 H900 0.929 . S
C908 C909 1.377 . S
C908 C910 1.384 . S
C909 C908 1.377 . S
C909 C915 1.390 . S
C910 H901 0.930 . S
C910 C908 1.384 . S
C910 C911 1.372 . S
C911 C910 1.372 . S
C911 C912 1.400 . S
C911 C916 1.490 . S
C912 H902 0.930 . S
C912 C911 1.400 . S
C912 C915 1.386 . S
H913 C929 0.930 . S
H914 C930 0.931 . S
C915 H903 0.929 . S
C915 C909 1.390 . S
C915 C912 1.386 . S
C916 C911 1.490 . S
C916 C918 1.395 . S
C916 C919 1.403 . S
H917 C923 0.930 . S
C918 H904 0.930 . S
C918 C916 1.395 . S
C918 C921 1.403 . S
C919 C916 1.403 . S
C919 C920 1.524 . S
C919 C923 1.400 . S
C920 H905 0.960 . S
C920 H906 0.960 . S
C920 H907 0.960 . S
C920 C919 1.524 . S
C921 C918 1.403 . S
C921 C922 1.392 . S
C921 C925 1.495 . S
C922 C921 1.392 . S
C922 C923 1.385 . S
C922 C924 1.478 . S
C923 H917 0.930 . S
C923 C919 1.400 . S
C923 C922 1.385 . S
C924 C922 1.478 . S
C924 C926 1.381 . S
C924 C930 1.383 . S
C925 C921 1.495 . S
C925 H931 0.959 . S
C925 H932 0.961 . S
C925 H933 0.960 . S
C926 C924 1.381 . S
C926 C927 1.394 . S
C926 H934 0.930 . S
C927 C926 1.394 . S
C927 C928 1.383 . S
C927 H935 0.929 . S
C928 C927 1.383 . S
C928 C929 1.377 . S
C929 H913 0.930 . S
C929 C928 1.377 . S
C929 C930 1.379 . S
C930 H914 0.931 . S
C930 C924 1.383 . S
C930 C929 1.379 . S
H931 C925 0.959 . S
H932 C925 0.961 . S
H933 C925 0.960 . S
H934 C926 0.930 . S
H935 C927 0.929 . S
H936 C944 0.929 . S
H937 C946 0.930 . S
H938 C948 0.930 . S
H939 C951 0.929 . S
H940 C954 0.930 . S
H941 C956 0.960 . S
H942 C956 0.960 . S
H943 C956 0.960 . S
C944 H936 0.929 . S
C944 C945 1.377 . S
C944 C946 1.384 . S
C945 C944 1.377 . S
C945 C951 1.390 . S
C946 H937 0.930 . S
C946 C944 1.384 . S
C946 C947 1.372 . S
C947 C946 1.372 . S
C947 C948 1.400 . S
C947 C952 1.490 . S
C948 H938 0.930 . S
C948 C947 1.400 . S
C948 C951 1.386 . S
H949 C965 0.930 . S
H950 C966 0.931 . S
C951 H939 0.929 . S
C951 C945 1.390 . S
C951 C948 1.386 . S
C952 C947 1.490 . S
C952 C954 1.395 . S
C952 C955 1.403 . S
H953 C959 0.930 . S
C954 H940 0.930 . S
C954 C952 1.395 . S
C954 C957 1.403 . S
C955 C952 1.403 . S
C955 C956 1.524 . S
C955 C959 1.400 . S
C956 H941 0.960 . S
C956 H942 0.960 . S
C956 H943 0.960 . S
C956 C955 1.524 . S
C957 C954 1.403 . S
C957 C958 1.392 . S
C957 C961 1.495 . S
C958 C957 1.392 . S
C958 C959 1.385 . S
C958 C960 1.478 . S
C959 H953 0.930 . S
C959 C955 1.400 . S
C959 C958 1.385 . S
C960 C958 1.478 . S
C960 C962 1.381 . S
C960 C966 1.383 . S
C961 C957 1.495 . S
C961 H967 0.959 . S
C961 H968 0.961 . S
C961 H969 0.960 . S
C962 C960 1.381 . S
C962 C963 1.394 . S
C962 H970 0.930 . S
C963 C962 1.394 . S
C963 C964 1.383 . S
C963 H971 0.929 . S
C964 C963 1.383 . S
C964 C965 1.377 . S
C965 H949 0.930 . S
C965 C964 1.377 . S
C965 C966 1.379 . S
C966 H950 0.931 . S
C966 C960 1.383 . S
C966 C965 1.379 . S
H967 C961 0.959 . S
H968 C961 0.961 . S
H969 C961 0.960 . S
H970 C962 0.930 . S
H971 C963 0.929 . S
H972 C980 0.929 . S
H973 C982 0.930 . S
H974 C984 0.930 . S
H975 C987 0.929 . S
H976 C990 0.930 . S
H977 C992 0.960 . S
H978 C992 0.960 . S
H979 C992 0.960 . S
C980 H972 0.929 . S
C980 C981 1.377 . S
C980 C982 1.384 . S
C981 C980 1.377 . S
C981 C987 1.390 . S
C982 H973 0.930 . S
C982 C980 1.384 . S
C982 C983 1.372 . S
C983 C982 1.372 . S
C983 C984 1.400 . S
C983 C988 1.490 . S
C984 H974 0.930 . S
C984 C983 1.400 . S
C984 C987 1.386 . S
H985 C1001 0.930 . S
H986 C1002 0.931 . S
C987 H975 0.929 . S
C987 C981 1.390 . S
C987 C984 1.386 . S
C988 C983 1.490 . S
C988 C990 1.395 . S
C988 C991 1.403 . S
H989 C995 0.930 . S
C990 H976 0.930 . S
C990 C988 1.395 . S
C990 C993 1.403 . S
C991 C988 1.403 . S
C991 C992 1.524 . S
C991 C995 1.400 . S
C992 H977 0.960 . S
C992 H978 0.960 . S
C992 H979 0.960 . S
C992 C991 1.524 . S
C993 C990 1.403 . S
C993 C994 1.392 . S
C993 C997 1.495 . S
C994 C993 1.392 . S
C994 C995 1.385 . S
C994 C996 1.478 . S
C995 H989 0.930 . S
C995 C991 1.400 . S
C995 C994 1.385 . S
C996 C994 1.478 . S
C996 C998 1.381 . S
C996 C1002 1.383 . S
C997 C993 1.495 . S
C997 H1003 0.959 . S
C997 H1004 0.961 . S
C997 H1005 0.960 . S
C998 C996 1.381 . S
C998 C999 1.394 . S
C998 H1006 0.930 . S
C999 C998 1.394 . S
C999 C1000 1.383 . S
C999 H1007 0.929 . S
C1000 C999 1.383 . S
C1000 C1001 1.377 . S
C1001 H985 0.930 . S
C1001 C1000 1.377 . S
C1001 C1002 1.379 . S
C1002 H986 0.931 . S
C1002 C996 1.383 . S
C1002 C1001 1.379 . S
H1003 C997 0.959 . S
H1004 C997 0.961 . S
H1005 C997 0.960 . S
H1006 C998 0.930 . S
H1007 C999 0.929 . S
H1008 C1016 0.929 . S
H1009 C1018 0.930 . S
H1010 C1020 0.930 . S
H1011 C1023 0.929 . S
H1012 C1026 0.930 . S
H1013 C1028 0.960 . S
H1014 C1028 0.960 . S
H1015 C1028 0.960 . S
C1016 H1008 0.929 . S
C1016 C1017 1.377 . S
C1016 C1018 1.384 . S
C1017 C1016 1.377 . S
C1017 C1023 1.390 . S
C1018 H1009 0.930 . S
C1018 C1016 1.384 . S
C1018 C1019 1.372 . S
C1019 C1018 1.372 . S
C1019 C1020 1.400 . S
C1019 C1024 1.490 . S
C1020 H1010 0.930 . S
C1020 C1019 1.400 . S
C1020 C1023 1.386 . S
H1021 C1037 0.930 . S
H1022 C1038 0.931 . S
C1023 H1011 0.929 . S
C1023 C1017 1.390 . S
C1023 C1020 1.386 . S
C1024 C1019 1.490 . S
C1024 C1026 1.395 . S
C1024 C1027 1.403 . S
H1025 C1031 0.930 . S
C1026 H1012 0.930 . S
C1026 C1024 1.395 . S
C1026 C1029 1.403 . S
C1027 C1024 1.403 . S
C1027 C1028 1.524 . S
C1027 C1031 1.400 . S
C1028 H1013 0.960 . S
C1028 H1014 0.960 . S
C1028 H1015 0.960 . S
C1028 C1027 1.524 . S
C1029 C1026 1.403 . S
C1029 C1030 1.392 . S
C1029 C1033 1.495 . S
C1030 C1029 1.392 . S
C1030 C1031 1.385 . S
C1030 C1032 1.478 . S
C1031 H1025 0.930 . S
C1031 C1027 1.400 . S
C1031 C1030 1.385 . S
C1032 C1030 1.478 . S
C1032 C1034 1.381 . S
C1032 C1038 1.383 . S
C1033 C1029 1.495 . S
C1033 H1039 0.959 . S
C1033 H1040 0.961 . S
C1033 H1041 0.960 . S
C1034 C1032 1.381 . S
C1034 C1035 1.394 . S
C1034 H1042 0.930 . S
C1035 C1034 1.394 . S
C1035 C1036 1.383 . S
C1035 H1043 0.929 . S
C1036 C1035 1.383 . S
C1036 C1037 1.377 . S
C1037 H1021 0.930 . S
C1037 C1036 1.377 . S
C1037 C1038 1.379 . S
C1038 H1022 0.931 . S
C1038 C1032 1.383 . S
C1038 C1037 1.379 . S
H1039 C1033 0.959 . S
H1040 C1033 0.961 . S
H1041 C1033 0.960 . S
H1042 C1034 0.930 . S
H1043 C1035 0.929 . S
H1044 C1052 0.929 . S
H1045 C1054 0.930 . S
H1046 C1056 0.930 . S
H1047 C1059 0.929 . S
H1048 C1062 0.930 . S
H1049 C1064 0.960 . S
H1050 C1064 0.960 . S
H1051 C1064 0.960 . S
C1052 H1044 0.929 . S
C1052 C1053 1.377 . S
C1052 C1054 1.384 . S
C1053 C1052 1.377 . S
C1053 C1059 1.390 . S
C1054 H1045 0.930 . S
C1054 C1052 1.384 . S
C1054 C1055 1.372 . S
C1055 C1054 1.372 . S
C1055 C1056 1.400 . S
C1055 C1060 1.490 . S
C1056 H1046 0.930 . S
C1056 C1055 1.400 . S
C1056 C1059 1.386 . S
H1057 C1073 0.930 . S
H1058 C1074 0.931 . S
C1059 H1047 0.929 . S
C1059 C1053 1.390 . S
C1059 C1056 1.386 . S
C1060 C1055 1.490 . S
C1060 C1062 1.395 . S
C1060 C1063 1.403 . S
H1061 C1067 0.930 . S
C1062 H1048 0.930 . S
C1062 C1060 1.395 . S
C1062 C1065 1.403 . S
C1063 C1060 1.403 . S
C1063 C1064 1.524 . S
C1063 C1067 1.400 . S
C1064 H1049 0.960 . S
C1064 H1050 0.960 . S
C1064 H1051 0.960 . S
C1064 C1063 1.524 . S
C1065 C1062 1.403 . S
C1065 C1066 1.392 . S
C1065 C1069 1.495 . S
C1066 C1065 1.392 . S
C1066 C1067 1.385 . S
C1066 C1068 1.478 . S
C1067 H1061 0.930 . S
C1067 C1063 1.400 . S
C1067 C1066 1.385 . S
C1068 C1066 1.478 . S
C1068 C1070 1.381 . S
C1068 C1074 1.383 . S
C1069 C1065 1.495 . S
C1069 H1075 0.959 . S
C1069 H1076 0.961 . S
C1069 H1077 0.960 . S
C1070 C1068 1.381 . S
C1070 C1071 1.394 . S
C1070 H1078 0.930 . S
C1071 C1070 1.394 . S
C1071 C1072 1.383 . S
C1071 H1079 0.929 . S
C1072 C1071 1.383 . S
C1072 C1073 1.377 . S
C1073 H1057 0.930 . S
C1073 C1072 1.377 . S
C1073 C1074 1.379 . S
C1074 H1058 0.931 . S
C1074 C1068 1.383 . S
C1074 C1073 1.379 . S
H1075 C1069 0.959 . S
H1076 C1069 0.961 . S
H1077 C1069 0.960 . S
H1078 C1070 0.930 . S
H1079 C1071 0.929 . S
H1080 C1088 0.929 . S
H1081 C1090 0.930 . S
H1082 C1092 0.930 . S
H1083 C1095 0.929 . S
H1084 C1098 0.930 . S
H1085 C1100 0.960 . S
H1086 C1100 0.960 . S
H1087 C1100 0.960 . S
C1088 H1080 0.929 . S
C1088 C1089 1.377 . S
C1088 C1090 1.384 . S
C1089 C1088 1.377 . S
C1089 C1095 1.390 . S
C1090 H1081 0.930 . S
C1090 C1088 1.384 . S
C1090 C1091 1.372 . S
C1091 C1090 1.372 . S
C1091 C1092 1.400 . S
C1091 C1096 1.490 . S
C1092 H1082 0.930 . S
C1092 C1091 1.400 . S
C1092 C1095 1.386 . S
H1093 C1109 0.930 . S
H1094 C1110 0.931 . S
C1095 H1083 0.929 . S
C1095 C1089 1.390 . S
C1095 C1092 1.386 . S
C1096 C1091 1.490 . S
C1096 C1098 1.395 . S
C1096 C1099 1.403 . S
H1097 C1103 0.930 . S
C1098 H1084 0.930 . S
C1098 C1096 1.395 . S
C1098 C1101 1.403 . S
C1099 C1096 1.403 . S
C1099 C1100 1.524 . S
C1099 C1103 1.400 . S
C1100 H1085 0.960 . S
C1100 H1086 0.960 . S
C1100 H1087 0.960 . S
C1100 C1099 1.524 . S
C1101 C1098 1.403 . S
C1101 C1102 1.392 . S
C1101 C1105 1.495 . S
C1102 C1101 1.392 . S
C1102 C1103 1.385 . S
C1102 C1104 1.478 . S
C1103 H1097 0.930 . S
C1103 C1099 1.400 . S
C1103 C1102 1.385 . S
C1104 C1102 1.478 . S
C1104 C1106 1.381 . S
C1104 C1110 1.383 . S
C1105 C1101 1.495 . S
C1105 H1111 0.959 . S
C1105 H1112 0.961 . S
C1105 H1113 0.960 . S
C1106 C1104 1.381 . S
C1106 C1107 1.394 . S
C1106 H1114 0.930 . S
C1107 C1106 1.394 . S
C1107 C1108 1.383 . S
C1107 H1115 0.929 . S
C1108 C1107 1.383 . S
C1108 C1109 1.377 . S
C1109 H1093 0.930 . S
C1109 C1108 1.377 . S
C1109 C1110 1.379 . S
C1110 H1094 0.931 . S
C1110 C1104 1.383 . S
C1110 C1109 1.379 . S
H1111 C1105 0.959 . S
H1112 C1105 0.961 . S
H1113 C1105 0.960 . S
H1114 C1106 0.930 . S
H1115 C1107 0.929 . S
H1116 C1124 0.929 . S
H1117 C1126 0.930 . S
H1118 C1128 0.930 . S
H1119 C1131 0.929 . S
H1120 C1134 0.930 . S
H1121 C1136 0.960 . S
H1122 C1136 0.960 . S
H1123 C1136 0.960 . S
C1124 H1116 0.929 . S
C1124 C1125 1.377 . S
C1124 C1126 1.384 . S
C1125 C1124 1.377 . S
C1125 C1131 1.390 . S
C1126 H1117 0.930 . S
C1126 C1124 1.384 . S
C1126 C1127 1.372 . S
C1127 C1126 1.372 . S
C1127 C1128 1.400 . S
C1127 C1132 1.490 . S
C1128 H1118 0.930 . S
C1128 C1127 1.400 . S
C1128 C1131 1.386 . S
H1129 C1145 0.930 . S
H1130 C1146 0.931 . S
C1131 H1119 0.929 . S
C1131 C1125 1.390 . S
C1131 C1128 1.386 . S
C1132 C1127 1.490 . S
C1132 C1134 1.395 . S
C1132 C1135 1.403 . S
H1133 C1139 0.930 . S
C1134 H1120 0.930 . S
C1134 C1132 1.395 . S
C1134 C1137 1.403 . S
C1135 C1132 1.403 . S
C1135 C1136 1.524 . S
C1135 C1139 1.400 . S
C1136 H1121 0.960 . S
C1136 H1122 0.960 . S
C1136 H1123 0.960 . S
C1136 C1135 1.524 . S
C1137 C1134 1.403 . S
C1137 C1138 1.392 . S
C1137 C1141 1.495 . S
C1138 C1137 1.392 . S
C1138 C1139 1.385 . S
C1138 C1140 1.478 . S
C1139 H1133 0.930 . S
C1139 C1135 1.400 . S
C1139 C1138 1.385 . S
C1140 C1138 1.478 . S
C1140 C1142 1.381 . S
C1140 C1146 1.383 . S
C1141 C1137 1.495 . S
C1141 H1147 0.959 . S
C1141 H1148 0.961 . S
C1141 H1149 0.960 . S
C1142 C1140 1.381 . S
C1142 C1143 1.394 . S
C1142 H1150 0.930 . S
C1143 C1142 1.394 . S
C1143 C1144 1.383 . S
C1143 H1151 0.929 . S
C1144 C1143 1.383 . S
C1144 C1145 1.377 . S
C1145 H1129 0.930 . S
C1145 C1144 1.377 . S
C1145 C1146 1.379 . S
C1146 H1130 0.931 . S
C1146 C1140 1.383 . S
C1146 C1145 1.379 . S
H1147 C1141 0.959 . S
H1148 C1141 0.961 . S
H1149 C1141 0.960 . S
H1150 C1142 0.930 . S
H1151 C1143 0.929 . S
H1152 C1160 0.929 . S
H1153 C1162 0.930 . S
H1154 C1164 0.930 . S
H1155 C1167 0.929 . S
H1156 C1170 0.930 . S
H1157 C1172 0.960 . S
H1158 C1172 0.960 . S
H1159 C1172 0.960 . S
C1160 H1152 0.929 . S
C1160 C1161 1.377 . S
C1160 C1162 1.384 . S
C1161 C1160 1.377 . S
C1161 C1167 1.390 . S
C1162 H1153 0.930 . S
C1162 C1160 1.384 . S
C1162 C1163 1.372 . S
C1163 C1162 1.372 . S
C1163 C1164 1.400 . S
C1163 C1168 1.490 . S
C1164 H1154 0.930 . S
C1164 C1163 1.400 . S
C1164 C1167 1.386 . S
H1165 C1181 0.930 . S
H1166 C1182 0.931 . S
C1167 H1155 0.929 . S
C1167 C1161 1.390 . S
C1167 C1164 1.386 . S
C1168 C1163 1.490 . S
C1168 C1170 1.395 . S
C1168 C1171 1.403 . S
H1169 C1175 0.930 . S
C1170 H1156 0.930 . S
C1170 C1168 1.395 . S
C1170 C1173 1.403 . S
C1171 C1168 1.403 . S
C1171 C1172 1.524 . S
C1171 C1175 1.400 . S
C1172 H1157 0.960 . S
C1172 H1158 0.960 . S
C1172 H1159 0.960 . S
C1172 C1171 1.524 . S
C1173 C1170 1.403 . S
C1173 C1174 1.392 . S
C1173 C1177 1.495 . S
C1174 C1173 1.392 . S
C1174 C1175 1.385 . S
C1174 C1176 1.478 . S
C1175 H1169 0.930 . S
C1175 C1171 1.400 . S
C1175 C1174 1.385 . S
C1176 C1174 1.478 . S
C1176 C1178 1.381 . S
C1176 C1182 1.383 . S
C1177 C1173 1.495 . S
C1177 H1183 0.959 . S
C1177 H1184 0.961 . S
C1177 H1185 0.960 . S
C1178 C1176 1.381 . S
C1178 C1179 1.394 . S
C1178 H1186 0.930 . S
C1179 C1178 1.394 . S
C1179 C1180 1.383 . S
C1179 H1187 0.929 . S
C1180 C1179 1.383 . S
C1180 C1181 1.377 . S
C1181 H1165 0.930 . S
C1181 C1180 1.377 . S
C1181 C1182 1.379 . S
C1182 H1166 0.931 . S
C1182 C1176 1.383 . S
C1182 C1181 1.379 . S
H1183 C1177 0.959 . S
H1184 C1177 0.961 . S
H1185 C1177 0.960 . S
H1186 C1178 0.930 . S
H1187 C1179 0.929 . S
H1188 C1196 0.929 . S
H1189 C1198 0.930 . S
H1190 C1200 0.930 . S
H1191 C1203 0.929 . S
H1192 C1206 0.930 . S
H1193 C1208 0.960 . S
H1194 C1208 0.960 . S
H1195 C1208 0.960 . S
C1196 H1188 0.929 . S
C1196 C1197 1.377 . S
C1196 C1198 1.384 . S
C1197 C1196 1.377 . S
C1197 C1203 1.390 . S
C1198 H1189 0.930 . S
C1198 C1196 1.384 . S
C1198 C1199 1.372 . S
C1199 C1198 1.372 . S
C1199 C1200 1.400 . S
C1199 C1204 1.490 . S
C1200 H1190 0.930 . S
C1200 C1199 1.400 . S
C1200 C1203 1.386 . S
H1201 C1217 0.930 . S
H1202 C1218 0.931 . S
C1203 H1191 0.929 . S
C1203 C1197 1.390 . S
C1203 C1200 1.386 . S
C1204 C1199 1.490 . S
C1204 C1206 1.395 . S
C1204 C1207 1.403 . S
H1205 C1211 0.930 . S
C1206 H1192 0.930 . S
C1206 C1204 1.395 . S
C1206 C1209 1.403 . S
C1207 C1204 1.403 . S
C1207 C1208 1.524 . S
C1207 C1211 1.400 . S
C1208 H1193 0.960 . S
C1208 H1194 0.960 . S
C1208 H1195 0.960 . S
C1208 C1207 1.524 . S
C1209 C1206 1.403 . S
C1209 C1210 1.392 . S
C1209 C1213 1.495 . S
C1210 C1209 1.392 . S
C1210 C1211 1.385 . S
C1210 C1212 1.478 . S
C1211 H1205 0.930 . S
C1211 C1207 1.400 . S
C1211 C1210 1.385 . S
C1212 C1210 1.478 . S
C1212 C1214 1.381 . S
C1212 C1218 1.383 . S
C1213 C1209 1.495 . S
C1213 H1219 0.959 . S
C1213 H1220 0.961 . S
C1213 H1221 0.960 . S
C1214 C1212 1.381 . S
C1214 C1215 1.394 . S
C1214 H1222 0.930 . S
C1215 C1214 1.394 . S
C1215 C1216 1.383 . S
C1215 H1223 0.929 . S
C1216 C1215 1.383 . S
C1216 C1217 1.377 . S
C1217 H1201 0.930 . S
C1217 C1216 1.377 . S
C1217 C1218 1.379 . S
C1218 H1202 0.931 . S
C1218 C1212 1.383 . S
C1218 C1217 1.379 . S
H1219 C1213 0.959 . S
H1220 C1213 0.961 . S
H1221 C1213 0.960 . S
H1222 C1214 0.930 . S
H1223 C1215 0.929 . S
H1224 C1232 0.929 . S
H1225 C1234 0.930 . S
H1226 C1236 0.930 . S
H1227 C1239 0.929 . S
H1228 C1242 0.930 . S
H1229 C1244 0.960 . S
H1230 C1244 0.960 . S
H1231 C1244 0.960 . S
C1232 H1224 0.929 . S
C1232 C1233 1.377 . S
C1232 C1234 1.384 . S
C1233 C1232 1.377 . S
C1233 C1239 1.390 . S
C1234 H1225 0.930 . S
C1234 C1232 1.384 . S
C1234 C1235 1.372 . S
C1235 C1234 1.372 . S
C1235 C1236 1.400 . S
C1235 C1240 1.490 . S
C1236 H1226 0.930 . S
C1236 C1235 1.400 . S
C1236 C1239 1.386 . S
H1237 C1253 0.930 . S
H1238 C1254 0.931 . S
C1239 H1227 0.929 . S
C1239 C1233 1.390 . S
C1239 C1236 1.386 . S
C1240 C1235 1.490 . S
C1240 C1242 1.395 . S
C1240 C1243 1.403 . S
H1241 C1247 0.930 . S
C1242 H1228 0.930 . S
C1242 C1240 1.395 . S
C1242 C1245 1.403 . S
C1243 C1240 1.403 . S
C1243 C1244 1.524 . S
C1243 C1247 1.400 . S
C1244 H1229 0.960 . S
C1244 H1230 0.960 . S
C1244 H1231 0.960 . S
C1244 C1243 1.524 . S
C1245 C1242 1.403 . S
C1245 C1246 1.392 . S
C1245 C1249 1.495 . S
C1246 C1245 1.392 . S
C1246 C1247 1.385 . S
C1246 C1248 1.478 . S
C1247 H1241 0.930 . S
C1247 C1243 1.400 . S
C1247 C1246 1.385 . S
C1248 C1246 1.478 . S
C1248 C1250 1.381 . S
C1248 C1254 1.383 . S
C1249 C1245 1.495 . S
C1249 H1255 0.959 . S
C1249 H1256 0.961 . S
C1249 H1257 0.960 . S
C1250 C1248 1.381 . S
C1250 C1251 1.394 . S
C1250 H1258 0.930 . S
C1251 C1250 1.394 . S
C1251 C1252 1.383 . S
C1251 H1259 0.929 . S
C1252 C1251 1.383 . S
C1252 C1253 1.377 . S
C1253 H1237 0.930 . S
C1253 C1252 1.377 . S
C1253 C1254 1.379 . S
C1254 H1238 0.931 . S
C1254 C1248 1.383 . S
C1254 C1253 1.379 . S
H1255 C1249 0.959 . S
H1256 C1249 0.961 . S
H1257 C1249 0.960 . S
H1258 C1250 0.930 . S
H1259 C1251 0.929 . S
C424 C324 1.513 . S
C405 C16 1.519 . S
C460 C327 1.503 . S
C441 C55 1.503 . S
C496 C325 1.502 . S
C477 C99 1.512 . S
C532 C326 1.493 . S
C513 C138 1.499 . S
C568 C341 1.510 . S
C549 C1 1.512 . S
C604 C355 1.495 . S
C585 C40 1.506 . S
C621 C94 1.507 . S
C640 C381 1.507 . S
C676 C395 1.496 . S
C657 C133 1.505 . S
C712 C340 1.492 . S
C693 C60 1.499 . S
C729 C79 1.513 . S
C748 C354 1.504 . S
C784 C380 1.500 . S
C765 C118 1.500 . S
C820 C394 1.512 . S
C801 C21 1.514 . S
C837 C177 1.503 . S
C856 C339 1.498 . S
C892 C312 1.513 . S
C873 C211 1.512 . S
C909 C255 1.501 . S
C928 C338 1.494 . S
C945 C289 1.517 . S
C964 C313 1.514 . S
C1000 C368 1.500 . S
C981 C157 1.501 . S
C1036 C382 1.511 . S
C1017 C196 1.513 . S
C1072 C352 1.503 . S
C1053 C250 1.504 . S
C1089 C294 1.508 . S
C1108 C366 1.502 . S
C1144 C369 1.504 . S
C1125 C216 1.504 . S
C1180 C383 1.495 . S
C1161 C235 1.505 . S
C1216 C353 1.511 . S
C1197 C274 1.510 . S
C1233 C172 1.509 . S
C1252 C367 1.507 . S
