# Generated by pormake.
# Topology zzz, (3,6)-cn, num edge types: 1
# Building blocks:
#     Node 0, Type 0, BuildingBlock: BETDAH_clean_linker_0, # of connection points: 3
#     Node 1, Type 0, BuildingBlock: BETDAH_clean_linker_0, # of connection points: 3
#     Node 2, Type 0, BuildingBlock: BETDAH_clean_linker_0, # of connection points: 3
#     Node 3, Type 0, BuildingBlock: BETDAH_clean_linker_0, # of connection points: 3
#     Node 4, Type 0, BuildingBlock: BETDAH_clean_linker_0, # of connection points: 3
#     Node 5, Type 0, BuildingBlock: BETDAH_clean_linker_0, # of connection points: 3
#     Node 6, Type 0, BuildingBlock: BETDAH_clean_linker_0, # of connection points: 3
#     Node 7, Type 0, BuildingBlock: BETDAH_clean_linker_0, # of connection points: 3
#     Node 8, Type 1, BuildingBlock: CUWYAW_clean_sbu_0, # of connection points: 6
#     Node 9, Type 1, BuildingBlock: CUWYAW_clean_sbu_0, # of connection points: 6
#     Node 10, Type 1, BuildingBlock: CUWYAW_clean_sbu_0, # of connection points: 6
#     Node 11, Type 1, BuildingBlock: CUWYAW_clean_sbu_0, # of connection points: 6
#     Edge 12, Type (0, 1), BuildingBlock: ZUJKAS_clean_linker_0, # of connection points: 2
#     Edge 13, Type (0, 1), BuildingBlock: ZUJKAS_clean_linker_0, # of connection points: 2
#     Edge 14, Type (0, 1), BuildingBlock: ZUJKAS_clean_linker_0, # of connection points: 2
#     Edge 15, Type (0, 1), BuildingBlock: ZUJKAS_clean_linker_0, # of connection points: 2
#     Edge 16, Type (0, 1), BuildingBlock: ZUJKAS_clean_linker_0, # of connection points: 2
#     Edge 17, Type (0, 1), BuildingBlock: ZUJKAS_clean_linker_0, # of connection points: 2
#     Edge 18, Type (0, 1), BuildingBlock: ZUJKAS_clean_linker_0, # of connection points: 2
#     Edge 19, Type (0, 1), BuildingBlock: ZUJKAS_clean_linker_0, # of connection points: 2
#     Edge 20, Type (0, 1), BuildingBlock: ZUJKAS_clean_linker_0, # of connection points: 2
#     Edge 21, Type (0, 1), BuildingBlock: ZUJKAS_clean_linker_0, # of connection points: 2
#     Edge 22, Type (0, 1), BuildingBlock: ZUJKAS_clean_linker_0, # of connection points: 2
#     Edge 23, Type (0, 1), BuildingBlock: ZUJKAS_clean_linker_0, # of connection points: 2
#     Edge 24, Type (0, 1), BuildingBlock: ZUJKAS_clean_linker_0, # of connection points: 2
#     Edge 25, Type (0, 1), BuildingBlock: ZUJKAS_clean_linker_0, # of connection points: 2
#     Edge 26, Type (0, 1), BuildingBlock: ZUJKAS_clean_linker_0, # of connection points: 2
#     Edge 27, Type (0, 1), BuildingBlock: ZUJKAS_clean_linker_0, # of connection points: 2
#     Edge 28, Type (0, 1), BuildingBlock: ZUJKAS_clean_linker_0, # of connection points: 2
#     Edge 29, Type (0, 1), BuildingBlock: ZUJKAS_clean_linker_0, # of connection points: 2
#     Edge 30, Type (0, 1), BuildingBlock: ZUJKAS_clean_linker_0, # of connection points: 2
#     Edge 31, Type (0, 1), BuildingBlock: ZUJKAS_clean_linker_0, # of connection points: 2
#     Edge 32, Type (0, 1), BuildingBlock: ZUJKAS_clean_linker_0, # of connection points: 2
#     Edge 33, Type (0, 1), BuildingBlock: ZUJKAS_clean_linker_0, # of connection points: 2
#     Edge 34, Type (0, 1), BuildingBlock: ZUJKAS_clean_linker_0, # of connection points: 2
#     Edge 35, Type (0, 1), BuildingBlock: ZUJKAS_clean_linker_0, # of connection points: 2
# Relax obj value: 0.214
# Max RMSD: 0.148
# Mean RMSD: 0.134
data_MOF--net-zzz--node1-CUWYAW_clean_sbu_0--node2-BETDAH_clean_linker_0--edge1-ZUJKAS_clean_linker_0
_symmetry_space_group_name_H-M    P1
_symmetry_Int_Tables_number       1
_symmetry_cell_setting            triclinic
loop_
_symmetry_equiv_pos_as_xyz
'x, y, z'
_cell_length_a     67.459973
_cell_length_b     67.404651
_cell_length_c     18.236116
_cell_angle_alpha  90.092309
_cell_angle_beta   89.932648
_cell_angle_gamma 90.078361
loop_
_atom_site_label
_atom_site_type_symbol
_atom_site_fract_x
_atom_site_fract_y
_atom_site_fract_z
_atom_type_partial_charge
H0 H 0.7979 0.50091 0.24721 0.0
H1 H 0.73722 0.50891 0.18485 0.0
H2 H 0.75549 0.52044 0.408 0.0
C3 C 0.78283 0.50491 0.26191 0.0
C4 C 0.77856 0.51052 0.33414 0.0
C5 C 0.76801 0.50446 0.20819 0.0
C6 C 0.74851 0.50935 0.22692 0.0
C7 C 0.74381 0.51522 0.29906 0.0
C8 C 0.75899 0.51595 0.3524 0.0
N9 N 0.72407 0.52047 0.31924 0.0
C10 C 0.70801 0.5203 0.27092 0.0
H11 H 0.01655 0.80011 0.23774 0.0
H12 H 0.0165 0.73776 0.19262 0.0
H13 H 0.99578 0.75938 0.40241 0.0
C14 C 0.01324 0.7851 0.25543 0.0
C15 C 1.00553 0.78188 0.32581 0.0
C16 C 0.01721 0.76929 0.20777 0.0
C17 C 0.01344 0.74983 0.23023 0.0
C18 C 1.00547 0.7461 0.30033 0.0
C19 C 1.00187 0.76219 0.34843 0.0
N20 N 1.00067 0.72643 0.32303 0.0
C21 C 1.00128 0.71 0.27624 0.0
H22 H 0.72489 0.03106 0.25853 0.0
H23 H 0.78462 0.01945 0.18933 0.0
H24 H 0.76207 0.9936 0.38931 0.0
C25 C 0.7393 0.02448 0.2686 0.0
C26 C 0.74175 0.01263 0.33085 0.0
C27 C 0.7546 0.02699 0.21717 0.0
C28 C 0.77281 0.01752 0.22896 0.0
C29 C 0.77569 1.0055 0.29126 0.0
C30 C 0.76 1.00297 0.34169 0.0
N31 N 0.79404 0.99566 0.30399 0.0
C32 C 0.81029 0.99679 0.25668 0.0
H33 H 0.4875 0.72929 0.26161 0.0
H34 H 0.49296 0.79035 0.19827 0.0
H35 H 0.52771 0.7674 0.37788 0.0
C36 C 0.49389 0.74389 0.27025 0.0
C37 C 0.50814 0.74635 0.32523 0.0
C38 C 0.48821 0.75965 0.22474 0.0
C39 C 0.49714 0.77829 0.23415 0.0
C40 C 0.51139 0.78125 0.28966 0.0
C41 C 0.51661 0.76526 0.33572 0.0
N42 N 0.52098 0.79993 0.29941 0.0
C43 C 0.51865 0.81617 0.25272 0.0
H44 H 0.22809 0.49966 0.18481 0.0
H45 H 0.29019 0.5044 0.22971 0.0
H46 H 0.26955 0.50329 0.00575 0.0
C47 C 0.24323 0.50034 0.16487 0.0
C48 C 0.24676 0.50081 0.08901 0.0
C49 C 0.2588 0.50174 0.21554 0.0
C50 C 0.27829 0.50346 0.19013 0.0
C51 C 0.28237 0.50396 0.11444 0.0
C52 C 0.26649 0.50283 0.06406 0.0
N53 N 0.30222 0.50567 0.08805 0.0
C54 C 0.31881 0.50652 0.13388 0.0
H55 H 0.03383 0.23198 0.16147 0.0
H56 H 0.02889 0.29375 0.21536 0.0
H57 H 0.02095 0.27417 0.99189 0.0
C58 C 0.03185 0.24725 0.14439 0.0
C59 C 0.02804 0.2512 0.07031 0.0
C60 C 0.03193 0.26247 0.19709 0.0
C61 C 0.02856 0.28205 0.17474 0.0
C62 C 0.02458 0.28648 0.1008 0.0
C63 C 0.02416 0.27091 0.0488 0.0
N64 N 0.02069 0.30633 0.07791 0.0
C65 C 0.02024 0.32256 0.12576 0.0
H66 H 0.29092 0.99385 0.15085 0.0
H67 H 0.22986 1.00024 0.21301 0.0
H68 H 0.25359 0.03393 0.03158 0.0
C69 C 0.27642 1.0003 0.14159 0.0
C70 C 0.2742 0.01431 0.0857 0.0
C71 C 0.2605 0.99498 0.1871 0.0
C72 C 0.24204 1.00412 0.17702 0.0
C73 C 0.23938 0.01818 0.1207 0.0
C74 C 0.25549 0.02299 0.07445 0.0
N75 N 0.22089 0.02798 0.11041 0.0
C76 C 0.20477 0.02616 0.15804 0.0
H77 H 0.52616 0.29565 0.15897 0.0
H78 H 0.5153 0.23501 0.21558 0.0
H79 H 0.49735 0.25708 0.00383 0.0
C80 C 0.5209 0.28104 0.14334 0.0
C81 C 0.51207 0.27836 0.07439 0.0
C82 C 0.5222 0.26547 0.19404 0.0
C83 C 0.51439 0.24687 0.17586 0.0
C84 C 0.50549 0.24363 0.10708 0.0
C85 C 0.50424 0.2595 0.05673 0.0
N86 N 0.49771 0.22465 0.08759 0.0
C87 C 0.49845 0.20807 0.13348 0.0
C88 C 0.99008 0.04542 0.53004 0.0
Eu89 Eu 0.99791 0.02291 0.64055 0.0
C90 C 0.99584 0.0664 0.52229 0.0
C91 C 0.98118 0.08079 0.51111 0.0
C92 C 0.98556 0.10089 0.5207 0.0
C93 C 1.00471 0.10694 0.54162 0.0
C94 C 0.01961 0.09257 0.54926 0.0
C95 C 0.01521 0.0725 0.53997 0.0
C96 C 0.9725 1.01054 0.74582 0.0
C97 C 0.01375 0.05437 0.76914 0.0
C98 C 0.02013 0.98715 0.90687 0.0
Eu99 Eu 0.01727 1.00739 0.78742 0.0
C100 C 0.02498 0.96585 0.91374 0.0
C101 C 0.04276 0.95979 0.94671 0.0
C102 C 0.04871 0.9399 0.94324 0.0
C103 C 0.03698 0.92575 0.90649 0.0
C104 C 0.01897 0.93183 0.8752 0.0
C105 C 0.013 0.95154 0.8791 0.0
C106 C 0.04578 0.01209 0.68197 0.0
C107 C 1.00589 0.97644 0.65153 0.0
O108 O 1.00451 0.0324 0.52892 0.0
O109 O 0.97727 0.04208 0.58256 0.0
O110 O 0.96957 1.00775 0.67605 0.0
O111 O 0.98828 0.02029 0.75621 0.0
O112 O 1.00841 0.05085 0.70025 0.0
O113 O 0.01687 0.0399 0.81683 0.0
O114 O 1.00308 0.99115 0.87576 0.0
O115 O 0.03452 0.99864 0.88343 0.0
O116 O 0.04956 1.00641 0.74847 0.0
O117 O 0.02746 0.01519 0.67732 0.0
O118 O 1.00955 0.97942 0.72229 0.0
O119 O 1.00265 0.99124 0.60539 0.0
H120 H 0.96611 0.07642 0.49835 0.0
H121 H 0.97388 0.11168 0.51275 0.0
H122 H 0.03446 0.09674 0.56579 0.0
H123 H 0.02678 0.06174 0.55052 0.0
H124 H 0.0523 0.97053 0.97344 0.0
H125 H 0.06249 0.93565 0.96915 0.0
H126 H 1.00969 0.92147 0.84544 0.0
H127 H 0.99929 0.95561 0.85225 0.0
C128 C 0.47684 0.99539 0.503 0.0
Eu129 Eu 0.49726 1.00177 0.62044 0.0
C130 C 0.45652 0.98732 0.49659 0.0
C131 C 0.45315 0.96891 0.46259 0.0
C132 C 0.43427 0.96022 0.46434 0.0
C133 C 0.41854 0.96975 0.50076 0.0
C134 C 0.42188 0.98835 0.53322 0.0
C135 C 0.44059 0.99705 0.53096 0.0
C136 C 0.50228 0.9751 0.73284 0.0
C137 C 0.46808 0.01587 0.75715 0.0
C138 C 0.53613 0.02862 0.88704 0.0
Eu139 Eu 0.51567 0.02242 0.76985 0.0
C140 C 0.5554 0.03867 0.89045 0.0
C141 C 0.5631 0.04725 0.8263 0.0
C142 C 0.58253 0.05425 0.82431 0.0
C143 C 0.59461 0.05286 0.8866 0.0
C144 C 0.58659 0.04507 0.9519 0.0
C145 C 0.5671 0.0379 0.95367 0.0
C146 C 0.5113 0.0492 0.65743 0.0
C147 C 0.54487 1.00784 0.63433 0.0
O148 O 0.47834 0.01291 0.53384 0.0
O149 O 0.4904 0.98294 0.52611 0.0
O150 O 0.49615 0.97025 0.66782 0.0
O151 O 0.50537 0.99347 0.73223 0.0
O152 O 0.47013 1.01081 0.68697 0.0
O153 O 0.48335 0.01937 0.80142 0.0
O154 O 0.53654 0.01172 0.85124 0.0
O155 O 0.52108 0.03989 0.86843 0.0
O156 O 0.518 0.05378 0.72188 0.0
O157 O 0.50724 0.03098 0.65824 0.0
O158 O 0.54261 0.01279 0.70437 0.0
O159 O 0.52973 1.00448 0.58929 0.0
H160 H 0.4652 0.96106 0.43606 0.0
H161 H 0.43206 0.94592 0.43842 0.0
H162 H 0.40994 0.99631 0.55996 0.0
H163 H 0.44256 1.0113 0.55753 0.0
H164 H 0.55433 0.0478 0.77667 0.0
H165 H 0.58828 0.06025 0.77346 0.0
H166 H 0.59568 0.0436 1.0005 0.0
H167 H 0.56146 0.03112 0.00331 0.0
C168 C 0.5362 0.48522 0.53163 0.0
Eu169 Eu 0.52354 0.50619 0.64145 0.0
C170 C 0.53832 0.46356 0.52435 0.0
C171 C 0.55703 0.4554 0.50944 0.0
C172 C 0.56005 0.43494 0.5148 0.0
C173 C 0.5444 0.42233 0.53543 0.0
C174 C 0.52552 0.43047 0.54756 0.0
C175 C 0.5225 0.45087 0.54215 0.0
C176 C 0.54695 0.51827 0.75397 0.0
C177 C 0.50662 0.47447 0.76547 0.0
C178 C 0.49516 0.54104 0.90137 0.0
Eu179 Eu 0.50164 0.52161 0.7816 0.0
C180 C 0.48683 0.56119 0.91047 0.0
C181 C 0.4681 0.56393 0.94272 0.0
C182 C 0.45918 0.58269 0.94285 0.0
C183 C 0.46879 0.59895 0.91002 0.0
C184 C 0.48772 0.59626 0.87967 0.0
C185 C 0.49667 0.57767 0.88019 0.0
C186 C 0.47486 0.51769 0.6696 0.0
C187 C 0.51492 0.55246 0.64985 0.0
O188 O 0.51812 0.49225 0.53533 0.0
O189 O 0.54802 0.49334 0.57984 0.0
O190 O 0.55071 0.52187 0.68543 0.0
O191 O 0.53112 0.50834 0.75989 0.0
O192 O 0.51324 0.47774 0.69796 0.0
O193 O 0.50252 0.48912 0.81151 0.0
O194 O 0.51269 0.54007 0.87019 0.0
O195 O 0.48286 0.52746 0.87683 0.0
O196 O 0.47022 0.52335 0.73534 0.0
O197 O 0.49317 0.5142 0.66833 0.0
O198 O 0.51121 0.54961 0.72057 0.0
O199 O 0.51786 0.53747 0.60414 0.0
H200 H 0.56948 0.46493 0.4963 0.0
H201 H 0.57475 0.42906 0.50493 0.0
H202 H 0.51307 0.42105 0.56173 0.0
H203 H 0.50791 0.45672 0.55426 0.0
H204 H 0.46018 0.55148 0.96625 0.0
H205 H 0.44462 0.58441 0.96717 0.0
H206 H 0.49572 0.60862 0.85576 0.0
H207 H 0.51118 0.57621 0.85531 0.0
C208 C 0.04088 0.53759 0.53939 0.0
Eu209 Eu 0.01921 0.52554 0.64728 0.0
C210 C 0.06242 0.53468 0.53178 0.0
C211 C 0.07495 0.55123 0.52566 0.0
C212 C 0.09542 0.54914 0.53471 0.0
C213 C 0.10368 0.53045 0.54988 0.0
C214 C 0.09118 0.5138 0.55323 0.0
C215 C 0.07077 0.51589 0.54442 0.0
C216 C 1.00602 0.54815 0.76008 0.0
C217 C 0.05178 0.50913 0.76943 0.0
C218 C 0.98572 0.49522 0.90502 0.0
Eu219 Eu 1.00512 0.50241 0.78607 0.0
C220 C 0.96599 0.48615 0.91068 0.0
C221 C 0.95932 0.47338 0.8548 0.0
C222 C 0.93924 0.46862 0.8489 0.0
C223 C 0.9255 0.47675 0.89823 0.0
C224 C 0.93239 0.48856 0.95668 0.0
C225 C 0.9525 0.49326 0.96274 0.0
C226 C 1.0105 0.47613 0.67323 0.0
C227 C 0.97329 0.51485 0.65574 0.0
O228 O 0.02979 0.52163 0.53517 0.0
O229 O 0.03579 0.54919 0.5938 0.0
O230 O 1.00246 0.55197 0.69147 0.0
O231 O 0.01664 0.53277 0.76574 0.0
O232 O 0.04799 0.51589 0.70263 0.0
O233 O 0.03749 0.50415 0.81567 0.0
O234 O 0.98561 0.51262 0.87302 0.0
O235 O 1.00007 0.48367 0.88161 0.0
O236 O 1.00517 0.471 0.73883 0.0
O237 O 0.013 0.49463 0.67265 0.0
O238 O 0.97656 0.50983 0.725 0.0
O239 O 0.98785 0.51987 0.61069 0.0
H240 H 0.06882 0.56589 0.517 0.0
H241 H 0.10475 0.56217 0.53047 0.0
H242 H 0.09708 0.49924 0.56549 0.0
H243 H 0.06149 0.50289 0.55111 0.0
H244 H 0.96941 0.46807 0.81296 0.0
H245 H 0.93433 0.45961 0.80312 0.0
H246 H 0.92211 0.49477 0.99617 0.0
H247 H 0.95731 0.50335 0.00548 0.0
H248 H 0.17254 1.00264 0.14328 0.0
H249 H 0.14382 1.00074 0.22625 0.0
H250 H 0.17081 0.04452 0.36735 0.0
H251 H 0.19936 0.04655 0.28389 0.0
H252 H 0.14215 0.99017 0.37164 0.0
H253 H 0.11544 0.06731 0.33758 0.0
H254 H 0.13334 0.05618 0.27641 0.0
H255 H 0.14103 0.06584 0.36389 0.0
C256 C 0.17222 0.01187 0.19196 0.0
C257 C 0.18798 0.0248 0.20741 0.0
C258 C 0.15585 1.0108 0.23927 0.0
C259 C 0.15494 0.02274 0.3025 0.0
C260 C 0.17091 0.0355 0.31815 0.0
H261 H 0.08528 1.00579 0.69448 0.0
H262 H 0.11074 1.00825 0.59963 0.0
C263 C 0.18727 0.03656 0.27084 0.0
C264 C 0.13763 0.02137 0.35326 0.0
H265 H 0.10134 0.04883 0.4364 0.0
C266 C 0.13316 1.00298 0.38537 0.0
C267 C 0.12565 0.038 0.37048 0.0
C268 C 0.12895 0.05791 0.33478 0.0
C269 C 0.11751 1.00089 0.43583 0.0
C270 C 0.10614 0.01772 0.45569 0.0
C271 C 0.11016 0.03598 0.42179 0.0
C272 C 0.09049 0.01673 0.51335 0.0
C273 C 0.11324 0.98064 0.46724 0.0
C274 C 0.07062 0.02126 0.49721 0.0
C275 C 0.05596 0.01992 0.55178 0.0
C276 C 0.06095 0.01423 0.62349 0.0
C277 C 0.0809 1.01012 0.63966 0.0
C278 C 0.09549 1.0114 0.58534 0.0
H279 H 0.11925 0.96864 0.4318 0.0
H280 H 0.12037 0.97938 0.52184 0.0
H281 H 0.09706 0.97826 0.47424 0.0
H282 H 0.06641 0.02553 0.44215 0.0
H283 H 0.04077 0.02315 0.5377 0.0
H284 H 0.47349 0.17661 0.13641 0.0
H285 H 0.4746 0.14819 0.2211 0.0
H286 H 0.52652 0.17297 0.32439 0.0
H287 H 0.52551 0.20121 0.23966 0.0
H288 H 0.507 0.12024 0.24805 0.0
H289 H 0.48656 0.16377 0.49547 0.0
H290 H 0.48234 0.17272 0.40351 0.0
H291 H 0.50672 0.17384 0.44278 0.0
C292 C 0.48513 0.1759 0.17724 0.0
C293 C 0.49932 0.19109 0.18219 0.0
C294 C 0.48577 0.15969 0.22543 0.0
C295 C 0.50049 0.15856 0.27973 0.0
C296 C 0.51485 0.17366 0.28374 0.0
H297 H 0.53194 0.08321 0.64217 0.0
H298 H 0.52892 0.10847 0.54711 0.0
C299 C 0.51427 0.18977 0.23533 0.0
C300 C 0.50089 0.1417 0.33247 0.0
H301 H 0.49739 0.1308 0.51493 0.0
C302 C 0.50477 0.12247 0.30638 0.0
C303 C 0.49794 0.14464 0.40852 0.0
C304 C 0.49298 0.16481 0.43947 0.0
C305 C 0.5065 0.10624 0.35461 0.0
C306 C 0.50383 0.10923 0.43094 0.0
C307 C 0.49953 0.12844 0.4566 0.0
C308 C 0.50621 0.09297 0.48583 0.0
C309 C 0.51193 0.08621 0.3236 0.0
C310 C 0.49452 0.07566 0.48345 0.0
C311 C 0.49639 0.06102 0.53783 0.0
C312 C 0.50982 0.0635 0.59588 0.0
C313 C 0.52148 0.0808 0.59799 0.0
C314 C 0.51975 0.0953 0.54364 0.0
H315 H 0.51846 0.08744 0.26782 0.0
H316 H 0.52267 0.07846 0.35965 0.0
H317 H 0.49838 0.07693 0.31953 0.0
H318 H 0.48355 0.0737 0.44074 0.0
H319 H 0.4868 0.04824 0.53596 0.0
H320 H 0.32003 0.52267 0.26952 0.0
H321 H 0.34833 0.52324 0.35412 0.0
H322 H 0.38399 0.49258 0.1936 0.0
H323 H 0.3556 0.49198 0.10893 0.0
H324 H 0.36964 0.48969 0.40937 0.0
H325 H 0.41879 0.54073 0.25309 0.0
H326 H 0.39251 0.53886 0.2355 0.0
H327 H 0.40901 0.51989 0.20315 0.0
C328 C 0.33394 0.51611 0.25237 0.0
C329 C 0.33573 0.50729 0.18296 0.0
C330 C 0.35009 0.51644 0.30063 0.0
C331 C 0.36839 0.50815 0.28002 0.0
C332 C 0.37016 0.49936 0.21033 0.0
H333 H 0.48076 0.50344 0.52892 0.0
H334 H 0.45568 0.49965 0.43178 0.0
C335 C 0.35394 0.49894 0.16217 0.0
C336 C 0.38531 0.50818 0.33262 0.0
H337 H 0.43171 0.52716 0.36226 0.0
C338 C 0.38323 0.49785 0.39896 0.0
C339 C 0.40315 0.51863 0.31877 0.0
C340 C 0.40607 0.5303 0.24907 0.0
C341 C 0.39836 0.49779 0.45195 0.0
C342 C 0.41595 0.50882 0.43935 0.0
C343 C 0.41826 0.51874 0.37213 0.0
C344 C 0.43146 0.51118 0.49714 0.0
C345 C 0.39538 0.48574 0.52077 0.0
C346 C 0.42638 0.51929 0.56555 0.0
C347 C 0.44059 0.52132 0.62075 0.0
C348 C 0.46036 0.51555 0.60887 0.0
C349 C 0.46565 0.50789 0.53984 0.0
C350 C 0.45132 0.50576 0.48435 0.0
H351 H 0.38475 0.47338 0.51165 0.0
H352 H 0.40959 0.47946 0.54071 0.0
H353 H 0.38916 0.49542 0.56434 0.0
H354 H 0.41136 0.52413 0.57634 0.0
H355 H 0.43604 0.52749 0.673 0.0
H356 H 1.00991 0.32177 0.26898 0.0
H357 H 1.00965 0.34978 0.35533 0.0
H358 H 0.02943 0.38886 0.183 0.0
H359 H 0.02967 0.36079 0.09655 0.0
H360 H 0.04182 0.37463 0.39554 0.0
H361 H 0.98095 0.41812 0.26838 0.0
H362 H 0.98516 0.39229 0.2471 0.0
H363 H 1.00081 0.41107 0.20797 0.0
C364 C 0.01416 0.33636 0.24966 0.0
C365 C 0.0198 0.33921 0.17636 0.0
C366 C 0.01401 0.35235 0.29893 0.0
C367 C 0.01929 0.37152 0.27561 0.0
C368 C 0.02495 0.37432 0.20209 0.0
H369 H 0.02127 0.48359 0.52942 0.0
H370 H 0.02494 0.45915 0.42966 0.0
C371 C 0.02519 0.35829 0.15285 0.0
C372 C 0.01938 0.38834 0.32895 0.0
H373 H 0.99704 0.43255 0.37031 0.0
C374 C 0.03205 0.38731 0.38986 0.0
C375 C 1.0068 0.40502 0.32132 0.0
C376 C 0.99252 0.40674 0.25804 0.0
C377 C 0.03237 0.40234 0.44348 0.0
C378 C 0.01934 0.41872 0.43717 0.0
C379 C 1.00703 0.42003 0.37526 0.0
C380 C 0.01733 0.4338 0.49683 0.0
C381 C 0.04679 0.40055 0.50634 0.0
C382 C 0.01154 0.4278 0.56733 0.0
C383 C 1.00951 0.44165 0.62391 0.0
C384 C 0.01305 0.46194 0.61153 0.0
C385 C 0.01858 0.46808 0.54076 0.0
C386 C 0.02063 0.45412 0.48376 0.0
H387 H 0.05965 0.39108 0.49147 0.0
H388 H 0.05236 0.41533 0.52382 0.0
H389 H 0.03918 0.39354 0.55368 0.0
H390 H 1.00841 0.41233 0.57859 0.0
H391 H 1.00504 0.43642 0.67759 0.0
H392 H 0.81145 0.98491 0.11543 0.0
H393 H 0.83999 0.98642 0.03163 0.0
H394 H 0.87521 0.01315 0.20279 0.0
H395 H 0.84674 1.01129 0.28677 0.0
H396 H 0.86099 0.01879 0.98315 0.0
H397 H 0.91095 0.9682 0.13542 0.0
H398 H 0.8848 0.97006 0.15536 0.0
H399 H 0.90175 0.98853 0.18922 0.0
C400 C 0.82536 0.99098 0.13498 0.0
C401 C 0.82708 0.99785 0.20728 0.0
C402 C 0.84163 0.99187 0.08721 0.0
C403 C 0.8599 0.99958 0.11115 0.0
C404 C 0.86146 1.0067 0.18347 0.0
H405 H 0.97292 0.02199 0.89021 0.0
H406 H 0.94583 0.01912 0.97972 0.0
C407 C 0.84519 1.00577 0.23123 0.0
C408 C 0.87708 1.00068 0.05974 0.0
H409 H 0.92504 0.98556 0.03479 0.0
C410 C 0.87496 1.01144 0.99435 0.0
C411 C 0.89538 0.99116 0.07437 0.0
C412 C 0.89837 0.97868 0.14205 0.0
C413 C 0.89062 0.01316 0.94376 0.0
C414 C 0.90886 1.00356 0.95817 0.0
C415 C 0.91107 0.99291 0.02376 0.0
C416 C 0.9257 1.00429 0.9053 0.0
C417 C 0.8876 0.02557 0.87588 0.0
C418 C 0.92362 0.99641 0.83438 0.0
C419 C 0.93906 0.99798 0.78334 0.0
C420 C 0.95696 1.00738 0.80223 0.0
C421 C 0.9593 0.01466 0.87404 0.0
C422 C 0.94383 0.01306 0.92518 0.0
H423 H 0.87496 0.03599 0.88219 0.0
H424 H 0.90115 0.03425 0.86268 0.0
H425 H 0.88435 0.01566 0.82875 0.0
H426 H 0.90995 0.9892 0.81821 0.0
H427 H 0.93684 0.99211 0.72863 0.0
H428 H 0.50578 0.81715 0.11223 0.0
H429 H 0.50361 0.84637 0.03217 0.0
H430 H 0.52566 0.88327 0.20763 0.0
H431 H 0.52798 0.85399 0.28737 0.0
H432 H 0.48185 0.88113 0.05072 0.0
H433 H 0.5624 0.89805 0.03789 0.0
H434 H 0.55296 0.87469 0.07139 0.0
H435 H 0.55232 0.89635 0.12889 0.0
C436 C 0.51015 0.83152 0.13347 0.0
C437 C 0.51706 0.83343 0.20564 0.0
C438 C 0.50893 0.8482 0.08781 0.0
C439 C 0.51474 0.86703 0.11339 0.0
C440 C 0.52147 0.86889 0.18604 0.0
H441 H 0.51199 0.98221 0.87822 0.0
H442 H 0.51521 0.95732 0.97666 0.0
C443 C 0.52266 0.85221 0.23169 0.0
C444 C 0.51335 0.88469 0.06436 0.0
H445 H 0.54086 0.92069 0.97929 0.0
C446 C 0.49476 0.88979 0.03538 0.0
C447 C 0.53016 0.89613 0.04451 0.0
C448 C 0.55064 0.891 0.07168 0.0
C449 C 0.49257 0.90581 0.98675 0.0
C450 C 0.50943 0.91695 0.96557 0.0
C451 C 0.52794 0.91222 0.9959 0.0
C452 C 0.50829 0.93225 0.90688 0.0
C453 C 0.47219 0.91065 0.95787 0.0
C454 C 0.50375 0.9264 0.83506 0.0
C455 C 0.50215 0.94045 0.77922 0.0
C456 C 0.50509 0.96075 0.79357 0.0
C457 C 0.50991 0.96668 0.86534 0.0
C458 C 0.51164 0.95249 0.92156 0.0
H459 H 0.46033 0.90433 0.99315 0.0
H460 H 0.47005 0.92695 0.95395 0.0
H461 H 0.47054 0.90427 0.90208 0.0
H462 H 0.50136 0.91089 0.82215 0.0
H463 H 0.49843 0.93536 0.72456 0.0
H464 H 0.67432 0.54142 0.28689 0.0
H465 H 0.64543 0.54153 0.20488 0.0
H466 H 0.67491 0.49983 0.0621 0.0
H467 H 0.70355 0.4994 0.14502 0.0
H468 H 0.64203 0.55236 0.06281 0.0
H469 H 0.6218 0.47307 0.08996 0.0
H470 H 0.63931 0.48503 0.15039 0.0
H471 H 0.64699 0.47661 0.06108 0.0
C472 C 0.67451 0.53222 0.23811 0.0
C473 C 0.69103 0.52036 0.22212 0.0
C474 C 0.65804 0.5323 0.19126 0.0
C475 C 0.65778 0.52044 0.12773 0.0
C476 C 0.67449 0.50875 0.11151 0.0
H477 H 0.58383 0.53444 0.74284 0.0
H478 H 0.60973 0.53571 0.83626 0.0
C479 C 0.69093 0.50863 0.15854 0.0
C480 C 0.64028 0.52072 0.0776 0.0
H481 H 0.60608 0.49092 0.99331 0.0
C482 C 0.6341 0.53893 0.04802 0.0
C483 C 0.62964 0.50328 0.05905 0.0
C484 C 0.63462 0.48342 0.09233 0.0
C485 C 0.61802 0.5401 0.99907 0.0
C486 C 0.60801 0.52253 0.97775 0.0
C487 C 0.61382 0.5044 0.00892 0.0
C488 C 0.59182 0.52253 0.9219 0.0
C489 C 0.6118 0.56024 0.9714 0.0
C490 C 0.57311 0.51437 0.93807 0.0
C491 C 0.55827 0.51346 0.88427 0.0
C492 C 0.56189 0.5206 0.81308 0.0
C493 C 0.58052 0.52896 0.79728 0.0
C494 C 0.59534 0.5298 0.85089 0.0
H495 H 0.61647 0.57224 0.00951 0.0
H496 H 0.61898 0.56304 0.91763 0.0
H497 H 0.59548 0.56107 0.96402 0.0
H498 H 0.57004 0.50857 0.99227 0.0
H499 H 0.5441 0.50685 0.89801 0.0
H500 H 0.01737 0.67384 0.30044 0.0
H501 H 0.01792 0.64547 0.21534 0.0
H502 H 0.98594 0.68002 0.05558 0.0
H503 H 0.98571 0.70842 0.14023 0.0
H504 H 0.9871 0.62438 0.15188 0.0
H505 H 0.03275 0.6601 0.93629 0.0
H506 H 0.03029 0.67038 0.02726 0.0
H507 H 1.01108 0.67408 0.96036 0.0
C508 C 1.01055 0.67532 0.24695 0.0
C509 C 1.00158 0.69322 0.22636 0.0
C510 C 1.01082 0.65913 0.19847 0.0
C511 C 1.00224 0.66065 0.12845 0.0
C512 C 0.99305 0.67857 0.10851 0.0
H513 H 0.98707 0.58371 0.75101 0.0
H514 H 0.98552 0.61 0.84346 0.0
C515 C 0.9928 0.69474 0.15696 0.0
C516 C 1.00266 0.64346 0.07668 0.0
H517 H 0.0175 0.62946 0.90487 0.0
C518 C 0.99386 0.62544 0.09804 0.0
C519 C 0.0115 0.64479 0.00638 0.0
C520 C 0.02211 0.6633 0.98132 0.0
C521 C 0.99319 0.60897 0.05041 0.0
C522 C 1.00182 0.6104 0.97979 0.0
C523 C 1.01079 0.62835 0.95879 0.0
C524 C 1.00158 0.59363 0.92619 0.0
C525 C 0.98276 0.59035 0.07536 0.0
C526 C 1.01097 0.5755 0.94188 0.0
C527 C 0.01182 0.56036 0.88896 0.0
C528 C 1.00343 0.56313 0.81915 0.0
C529 C 0.99368 0.5811 0.80423 0.0
C530 C 0.99282 0.59618 0.85701 0.0
H531 H 0.97269 0.59326 0.12241 0.0
H532 H 0.97401 0.58369 0.03 0.0
H533 H 0.99396 0.57933 0.09314 0.0
H534 H 0.01815 0.57326 0.99427 0.0
H535 H 0.01954 0.54673 0.90197 0.0
H536 H 0.05703 0.23571 0.26024 0.0
H537 H 0.0528 0.22025 0.37972 0.0
H538 H 1.00738 0.26278 0.43448 0.0
H539 H 1.01064 0.27759 0.31276 0.0
H540 H 0.05087 0.22758 0.53009 0.0
H541 H 0.97577 0.21222 0.41339 0.0
H542 H 0.99475 0.22382 0.35881 0.0
H543 H 0.98263 0.23753 0.43065 0.0
C544 C 0.04636 0.242 0.2981 0.0
C545 C 0.03364 0.25734 0.27598 0.0
C546 C 0.04413 0.23332 0.36689 0.0
C547 C 0.02932 0.23998 0.41503 0.0
C548 C 0.01854 0.2571 0.39728 0.0
H549 H 0.98184 0.13421 0.61428 0.0
H550 H 0.98729 0.17008 0.62189 0.0
C551 C 0.02054 0.26563 0.32778 0.0
C552 C 0.02277 0.22642 0.47409 0.0
H553 H 0.98797 0.1904 0.49929 0.0
C554 C 0.03683 0.21982 0.52525 0.0
C555 C 1.00428 0.21649 0.46879 0.0
C556 C 0.98846 0.22274 0.41496 0.0
C557 C 0.03382 0.20222 0.56481 0.0
C558 C 0.01652 0.19094 0.55169 0.0
C559 C 1.00136 0.19897 0.50849 0.0
C560 C 0.01564 0.16936 0.5663 0.0
C561 C 0.04971 0.1952 0.61663 0.0
C562 C 0.02994 0.15701 0.53393 0.0
C563 C 0.02677 0.13662 0.52873 0.0
C564 C 1.00912 0.12818 0.55524 0.0
C565 C 0.99537 0.14038 0.59176 0.0
C566 C 0.9986 0.16081 0.59722 0.0
H567 H 0.05718 0.208 0.64335 0.0
H568 H 0.0435 0.18534 0.65964 0.0
H569 H 0.06113 0.18689 0.58537 0.0
H570 H 0.0429 0.16326 0.5075 0.0
H571 H 0.03758 0.12767 0.49986 0.0
H572 H 0.28029 0.95989 0.18231 0.0
H573 H 0.29679 0.94429 0.28477 0.0
H574 H 0.2652 0.98247 0.43506 0.0
H575 H 0.24961 0.99915 0.33112 0.0
H576 H 0.30124 0.98934 0.44827 0.0
H577 H 0.29756 0.90856 0.4527 0.0
H578 H 0.30185 0.91498 0.35898 0.0
H579 H 0.27927 0.92296 0.40384 0.0
C580 C 0.27636 0.96452 0.23736 0.0
C581 C 0.26421 0.98115 0.24869 0.0
C582 C 0.28556 0.9553 0.29646 0.0
C583 C 0.28241 0.96219 0.36829 0.0
C584 C 0.26799 0.97693 0.38022 0.0
H585 H 0.39302 0.96737 0.61714 0.0
H586 H 0.35742 0.96024 0.61195 0.0
C587 C 0.25902 0.98644 0.32073 0.0
C588 C 0.29782 0.95814 0.42456 0.0
H589 H 0.3323 0.92294 0.4665 0.0
C590 C 0.30752 0.97466 0.4551 0.0
C591 C 0.30608 0.93905 0.43471 0.0
C592 C 0.29541 0.92044 0.41128 0.0
C593 C 0.32644 0.97299 0.48583 0.0
C594 C 0.33582 0.95424 0.48665 0.0
C595 C 0.32521 0.93736 0.46444 0.0
C596 C 0.35751 0.95286 0.49652 0.0
C597 C 0.33708 0.99164 0.50987 0.0
C598 C 0.36944 0.94992 0.43434 0.0
C599 C 0.38972 0.95401 0.43702 0.0
C600 C 0.39832 0.96115 0.50197 0.0
C601 C 0.38666 0.96226 0.56595 0.0
C602 C 0.36638 0.95808 0.56327 0.0
H603 H 0.32819 1.00524 0.49994 0.0
H604 H 0.34033 0.99081 0.5694 0.0
H605 H 0.3514 0.99313 0.48027 0.0
H606 H 0.36281 0.94598 0.3822 0.0
H607 H 0.3983 0.95304 0.38692 0.0
H608 H 0.55633 0.28511 0.22604 0.0
H609 H 0.56492 0.30005 0.34276 0.0
H610 H 0.51612 0.26943 0.44634 0.0
H611 H 0.50687 0.25512 0.32777 0.0
H612 H 0.51113 0.30661 0.45847 0.0
H613 H 0.58801 0.29483 0.54015 0.0
H614 H 0.58856 0.29983 0.44392 0.0
H615 H 0.57567 0.27811 0.47737 0.0
C616 C 0.54779 0.28109 0.27414 0.0
C617 C 0.53064 0.26941 0.26759 0.0
C618 C 0.55294 0.28935 0.34149 0.0
C619 C 0.54123 0.28586 0.40393 0.0
C620 C 0.52542 0.27231 0.39906 0.0
H621 H 0.53091 0.39781 0.6441 0.0
H622 H 0.53159 0.36147 0.64494 0.0
C623 C 0.52014 0.26414 0.33126 0.0
C624 C 0.54237 0.3002 0.4656 0.0
H625 H 0.57644 0.33065 0.54576 0.0
C626 C 0.52528 0.31139 0.48048 0.0
C627 C 0.5607 0.30634 0.49565 0.0
C628 C 0.57917 0.29391 0.48888 0.0
C629 C 0.52655 0.33004 0.5141 0.0
C630 C 0.5454 0.33746 0.53421 0.0
C631 C 0.56206 0.32509 0.52882 0.0
C632 C 0.54849 0.35899 0.54453 0.0
C633 C 0.50803 0.34253 0.51985 0.0
C634 C 0.55847 0.36957 0.48944 0.0
C635 C 0.55796 0.39025 0.48842 0.0
C636 C 0.54745 0.40068 0.54256 0.0
C637 C 0.5387 0.39009 0.60071 0.0
C638 C 0.53924 0.36937 0.60173 0.0
H639 H 0.49485 0.33504 0.49594 0.0
H640 H 0.50483 0.34572 0.57837 0.0
H641 H 0.51019 0.35691 0.49124 0.0
H642 H 0.5656 0.36181 0.44452 0.0
H643 H 0.5648 0.39798 0.44291 0.0
H644 H 0.27259 0.52844 0.31642 0.0
H645 H 0.2586 0.53479 0.43825 0.0
H646 H 0.22005 0.48407 0.41269 0.0
H647 H 0.23432 0.47745 0.29282 0.0
H648 H 0.22182 0.54561 0.4417 0.0
H649 H 0.22668 0.48271 0.6294 0.0
H650 H 0.24398 0.4858 0.5544 0.0
H651 H 0.22081 0.47281 0.54097 0.0
C652 C 0.26175 0.51817 0.33843 0.0
C653 C 0.25423 0.50266 0.2949 0.0
C654 C 0.2538 0.52179 0.40807 0.0
C655 C 0.23834 0.50986 0.43515 0.0
C656 C 0.23227 0.49324 0.39428 0.0
H657 H 0.12751 0.50143 0.49541 0.0
H658 H 0.16342 0.49919 0.50343 0.0
C659 C 0.24018 0.48964 0.32498 0.0
C660 C 0.22511 0.51719 0.49422 0.0
H661 H 0.19252 0.49799 0.61808 0.0
C662 C 0.21593 0.53561 0.48286 0.0
C663 C 0.21765 0.50442 0.54913 0.0
C664 C 0.22803 0.48544 0.56953 0.0
C665 C 0.19763 0.54002 0.51536 0.0
C666 C 0.18858 0.52569 0.56112 0.0
C667 C 0.1993 0.50875 0.58162 0.0
C668 C 0.16683 0.52547 0.57069 0.0
C669 C 0.18702 0.55877 0.49295 0.0
C670 C 0.15677 0.54071 0.60761 0.0
C671 C 0.13612 0.54212 0.60254 0.0
C672 C 0.12531 0.52821 0.56101 0.0
C673 C 0.13539 0.51233 0.52799 0.0
C674 C 0.15592 0.51099 0.53282 0.0
H675 H 0.19588 0.56788 0.45414 0.0
H676 H 0.17266 0.55506 0.46655 0.0
H677 H 0.18388 0.56791 0.54222 0.0
H678 H 0.16491 0.55187 0.638 0.0
H679 H 0.12865 0.55424 0.63008 0.0
H680 H 0.05262 0.75747 0.14901 0.0
H681 H 0.06932 0.77287 0.04326 0.0
H682 H 0.01664 0.80719 0.9998 0.0
H683 H 1.00006 0.79166 0.10342 0.0
H684 H 0.03854 0.7984 0.87136 0.0
H685 H 0.08667 0.82918 0.09334 0.0
H686 H 0.0863 0.80296 0.07506 0.0
H687 H 0.06523 0.81461 0.11736 0.0
C688 C 0.04447 0.76772 0.11473 0.0
C689 C 0.02525 0.77372 0.13444 0.0
C690 C 0.05402 0.77657 0.05478 0.0
C691 C 0.04438 0.7915 0.01472 0.0
C692 C 0.02441 0.79572 0.02986 0.0
H693 H 0.0134 0.89298 0.91624 0.0
H694 H 0.02306 0.85844 0.91053 0.0
C695 C 0.01495 0.78695 0.08931 0.0
C696 C 0.05532 0.80576 0.96815 0.0
H697 H 0.07803 0.85023 0.99764 0.0
C698 C 0.04798 0.80938 0.8974 0.0
C699 C 0.06809 0.8199 1.00114 0.0
C700 C 0.07712 0.8166 0.07584 0.0
C701 C 0.05018 0.82808 0.8648 0.0
C702 C 0.05979 0.84333 0.90438 0.0
C703 C 0.07025 0.83858 0.96828 0.0
C704 C 0.05431 0.86436 0.89378 0.0
C705 C 0.04033 0.83198 0.79211 0.0
C706 C 0.06871 0.87931 0.88777 0.0
C707 C 0.06316 0.89932 0.89075 0.0
C708 C 0.04315 0.90464 0.90106 0.0
C709 C 0.02885 0.88953 0.90647 0.0
C710 C 0.03436 0.86969 0.90269 0.0
H711 H 0.0412 0.81866 0.7563 0.0
H712 H 0.0244 0.83527 0.80131 0.0
H713 H 0.04723 0.84477 0.76339 0.0
H714 H 0.08424 0.87549 0.8824 0.0
H715 H 0.07452 0.91059 0.88551 0.0
H716 H 0.73419 0.06167 0.20202 0.0
H717 H 0.71704 0.07231 0.09208 0.0
H718 H 0.74955 0.02931 0.96433 0.0
H719 H 0.76545 0.01723 0.07613 0.0
H720 H 0.71947 0.08466 0.9557 0.0
H721 H 0.69619 1.00502 0.95344 0.0
H722 H 0.71166 0.01476 0.02514 0.0
H723 H 0.72177 1.01019 0.93522 0.0
C724 C 0.73792 0.05463 0.15036 0.0
C725 C 0.75037 0.03794 0.14836 0.0
C726 C 0.72827 0.06092 0.08713 0.0
C727 C 0.73126 0.05093 0.02043 0.0
C728 C 0.74634 0.03661 0.0159 0.0
H729 H 0.62058 0.0421 0.77903 0.0
H730 H 0.65669 0.04543 0.78081 0.0
C731 C 0.75562 0.02989 0.07981 0.0
C732 C 0.71589 0.05292 0.96272 0.0
H733 H 0.67579 0.02762 0.8971 0.0
C734 C 0.71021 0.07211 0.94101 0.0
C735 C 0.7038 0.03651 0.94277 0.0
C736 C 0.70852 0.01547 0.96546 0.0
C737 C 0.6918 0.07551 0.90746 0.0
C738 C 0.67899 0.05932 0.89465 0.0
C739 C 0.68569 0.04 0.90765 0.0
C740 C 0.65748 0.06192 0.88261 0.0
C741 C 0.68567 0.09649 0.89039 0.0
C742 C 0.64596 0.07038 0.93869 0.0
C743 C 0.62537 0.06831 0.93831 0.0
C744 C 0.61597 0.0578 0.88167 0.0
C745 C 0.62742 0.05044 0.8231 0.0
C746 C 0.64804 0.05237 0.82385 0.0
H747 H 0.69879 0.10597 0.87887 0.0
H748 H 0.67548 0.09698 0.84264 0.0
H749 H 0.67786 0.10283 0.93861 0.0
H750 H 0.65297 0.07738 0.98549 0.0
H751 H 0.61687 0.07423 0.98377 0.0
H752 H 0.49218 0.77007 0.08035 0.0
H753 H 0.47629 0.75317 0.97729 0.0
H754 H 0.43863 0.72146 0.12894 0.0
H755 H 0.45341 0.73927 0.23041 0.0
H756 H 0.48461 0.71731 0.96915 0.0
H757 H 0.4038 0.71765 0.95916 0.0
H758 H 0.41725 0.73685 0.00732 0.0
H759 H 0.41003 0.71422 0.05349 0.0
C760 C 0.47971 0.76036 0.09112 0.0
C761 C 0.4744 0.7555 0.1634 0.0
C762 C 0.47065 0.75063 0.03213 0.0
C763 C 0.45639 0.73575 0.04486 0.0
C764 C 0.44931 0.73298 0.11663 0.0
H765 H 0.45094 0.61814 0.02413 0.0
H766 H 0.44293 0.65345 0.0311 0.0
C767 C 0.45806 0.74297 0.17519 0.0
C768 C 0.45321 0.71966 0.99015 0.0
H769 H 0.41954 0.6836 0.94713 0.0
C770 C 0.47023 0.71043 0.96157 0.0
C771 C 0.43451 0.71055 0.97932 0.0
C772 C 0.41541 0.72057 1.00097 0.0
C773 C 0.4694 0.69133 0.93152 0.0
C774 C 0.45101 0.68125 0.92926 0.0
C775 C 0.43367 0.69125 0.95017 0.0
C776 C 0.4504 0.65955 0.91789 0.0
C777 C 0.48855 0.68134 0.90931 0.0
C778 C 0.45629 0.65117 0.85096 0.0
C779 C 0.46105 0.63103 0.84706 0.0
C780 C 0.4598 0.61899 0.90992 0.0
C781 C 0.45203 0.62704 0.9749 0.0
C782 C 0.4474 0.6472 0.97885 0.0
H783 H 0.50177 0.69062 0.92135 0.0
H784 H 0.49019 0.66696 0.93834 0.0
H785 H 0.48833 0.67825 0.84954 0.0
H786 H 0.45851 0.66044 0.80319 0.0
H787 H 0.46665 0.62508 0.79586 0.0
H788 H 0.75386 0.47363 0.1255 0.0
H789 H 0.76918 0.46036 0.01299 0.0
H790 H 0.81013 0.50962 0.01126 0.0
H791 H 0.79484 0.52281 0.12213 0.0
H792 H 0.79926 0.49528 0.86673 0.0
H793 H 0.82348 0.43514 0.05694 0.0
H794 H 0.79754 0.43929 0.04015 0.0
H795 H 0.81147 0.45692 0.09319 0.0
C796 C 0.76568 0.48188 0.09925 0.0
C797 C 0.77348 0.49901 0.13251 0.0
C798 C 0.77443 0.4743 0.03534 0.0
C799 C 0.79097 0.48386 0.00454 0.0
C800 C 0.79736 0.50202 0.03399 0.0
H801 H 0.89738 0.50541 0.90282 0.0
H802 H 0.86168 0.50141 0.89462 0.0
C803 C 0.78874 0.50949 0.09757 0.0
C804 C 0.80433 0.4738 0.95203 0.0
H805 H 0.8454 0.44476 0.9651 0.0
C806 C 0.80895 0.48361 0.88633 0.0
C807 C 0.81671 0.45822 0.9765 0.0
C808 C 0.81217 0.44669 0.04546 0.0
C809 C 0.82712 0.48032 0.85089 0.0
C810 C 0.84098 0.46728 0.88315 0.0
C811 C 0.83492 0.4551 0.94132 0.0
C812 C 0.8626 0.46982 0.87196 0.0
C813 C 0.83199 0.49217 0.78315 0.0
C814 C 0.87516 0.45339 0.86283 0.0
C815 C 0.89573 0.45562 0.86919 0.0
C816 C 0.90396 0.47427 0.88581 0.0
C817 C 0.89142 0.49079 0.8915 0.0
C818 C 0.87099 0.48858 0.88501 0.0
H819 H 0.81869 0.49359 0.74768 0.0
H820 H 0.83652 0.50739 0.79941 0.0
H821 H 0.84416 0.48528 0.75091 0.0
H822 H 0.869 0.43873 0.8539 0.0
H823 H 0.90511 0.44266 0.86429 0.0
H824 H 0.99724 0.239 0.98277 0.0
H825 H 0.99426 0.20697 0.91831 0.0
H826 H 0.05419 0.19242 0.97931 0.0
H827 H 0.05713 0.22417 0.04413 0.0
H828 H 0.0404 0.18215 0.82199 0.0
H829 H 0.99341 0.154 0.05081 0.0
H830 H 0.98712 0.17757 0.01069 0.0
H831 H 1.00966 0.17511 0.06181 0.0
C832 C 1.00993 0.22919 0.98054 0.0
C833 C 0.02744 0.23412 0.01822 0.0
C834 C 1.00818 0.21084 0.94424 0.0
C835 C 0.02397 0.19723 0.94442 0.0
C836 C 0.04183 0.20266 0.97834 0.0
H837 H 0.02843 0.06901 0.89955 0.0
H838 H 0.03089 0.10379 0.93826 0.0
C839 C 0.0435 0.22083 0.01522 0.0
C840 C 0.02152 0.1767 0.91496 0.0
H841 H 1.00105 0.13161 0.9561 0.0
C842 C 0.03168 0.17112 0.85089 0.0
C843 C 1.01035 0.16225 0.95323 0.0
C844 C 0.99955 0.16735 0.02322 0.0
C845 C 0.03099 0.15146 0.82425 0.0
C846 C 0.0198 0.13697 0.86267 0.0
C847 C 1.00963 0.14264 0.92663 0.0
C848 C 0.01864 0.11581 0.83815 0.0
C849 C 0.04268 0.14628 0.75629 0.0
C850 C 1.01073 0.11086 0.76934 0.0
C851 C 1.00928 0.091 0.74712 0.0
C852 C 0.01568 0.0755 0.79315 0.0
C853 C 0.02344 0.08048 0.86241 0.0
C854 C 0.02485 0.1004 0.88466 0.0
H855 H 0.05456 0.15732 0.74533 0.0
H856 H 0.04953 0.13138 0.76113 0.0
H857 H 0.03257 0.14611 0.70835 0.0
H858 H 1.00534 0.12237 0.73318 0.0
H859 H 1.00278 0.0878 0.69419 0.0
H860 H 0.30836 0.02999 0.13804 0.0
H861 H 0.34017 0.03291 0.07456 0.0
H862 H 0.31284 0.0127 0.87415 0.0
H863 H 0.28074 1.01012 0.93782 0.0
H864 H 0.35947 1.00133 0.01557 0.0
H865 H 0.34731 0.05811 0.80015 0.0
H866 H 0.33067 0.05503 0.87694 0.0
H867 H 0.32955 0.03824 0.80039 0.0
C868 C 0.30903 0.02672 0.07989 0.0
C869 C 0.29208 0.01996 0.04267 0.0
C870 C 0.32724 0.02829 0.04372 0.0
C871 C 0.32899 0.0231 0.9694 0.0
C872 C 0.31186 0.01716 0.9311 0.0
H873 H 0.43295 1.00651 0.68923 0.0
H874 H 0.39942 1.00833 0.73942 0.0
C875 C 0.29351 0.0157 0.9674 0.0
C876 C 0.34907 0.02216 0.93493 0.0
H877 H 0.37769 0.04038 0.7953 0.0
C878 C 0.36345 1.00996 0.96758 0.0
C879 C 0.35427 0.03324 0.87186 0.0
C880 C 0.33972 0.04703 0.83549 0.0
C881 C 0.38276 1.00848 0.93908 0.0
C882 C 0.38809 0.01979 0.87674 0.0
C883 C 0.37366 0.03179 0.8433 0.0
C884 C 0.40856 0.0193 0.84566 0.0
C885 C 0.39719 0.99449 0.97527 0.0
C886 C 0.42495 0.02512 0.88815 0.0
C887 C 0.44423 0.02409 0.85957 0.0
C888 C 0.44757 0.01734 0.7875 0.0
C889 C 0.43105 0.01184 0.74474 0.0
C890 C 0.41179 0.01287 0.77339 0.0
H891 H 0.38945 0.98313 0.0089 0.0
H892 H 0.40652 0.98681 0.93387 0.0
H893 H 0.4071 1.00307 0.01212 0.0
H894 H 0.42283 0.0305 0.9436 0.0
H895 H 0.45649 0.02858 0.89409 0.0
H896 H 0.48029 0.29115 0.99177 0.0
H897 H 0.47743 0.32255 0.92414 0.0
H898 H 0.53784 0.33696 0.98017 0.0
H899 H 0.54105 0.30549 0.04415 0.0
H900 H 0.47986 0.35942 0.97822 0.0
H901 H 0.53877 0.35165 0.76923 0.0
H902 H 0.5293 0.33074 0.82007 0.0
H903 H 0.54783 0.34679 0.85952 0.0
C904 C 0.49313 0.30075 0.98766 0.0
C905 C 0.51088 0.29576 0.02364 0.0
C906 C 0.49143 0.3188 0.94956 0.0
C907 C 0.50749 0.33216 0.94605 0.0
C908 C 0.52536 0.32685 0.98014 0.0
H909 H 0.50571 0.4604 0.90677 0.0
H910 H 0.50456 0.42579 0.94714 0.0
C911 C 0.52709 0.30886 0.01763 0.0
C912 C 0.50532 0.35224 0.91198 0.0
H913 H 0.52785 0.38483 0.79466 0.0
C914 C 0.49022 0.36487 0.9374 0.0
C915 C 0.51863 0.35943 0.85796 0.0
C916 C 0.5344 0.34636 0.82453 0.0
C917 C 0.48856 0.38459 0.91264 0.0
C918 C 0.50264 0.39215 0.86208 0.0
C919 C 0.51722 0.37926 0.83433 0.0
C920 C 0.50268 0.41336 0.83776 0.0
C921 C 0.4716 0.39705 0.94064 0.0
C922 C 0.50244 0.4181 0.76275 0.0
C923 C 0.50341 0.4379 0.73955 0.0
C924 C 0.5046 0.45352 0.79069 0.0
C925 C 0.5046 0.44879 0.86582 0.0
C926 C 0.50383 0.42895 0.88903 0.0
H927 H 0.45896 0.38766 0.95877 0.0
H928 H 0.47666 0.40581 0.98867 0.0
H929 H 0.46623 0.40749 0.898 0.0
H930 H 0.50148 0.40644 0.72196 0.0
H931 H 0.50313 0.44097 0.68142 0.0
H932 H 0.23808 0.5245 0.96992 0.0
H933 H 0.20646 0.52604 0.90257 0.0
H934 H 0.18439 0.47659 0.02803 0.0
H935 H 0.21575 0.47486 0.09456 0.0
H936 H 0.18206 0.49474 0.82121 0.0
H937 H 0.14626 0.5248 0.07211 0.0
H938 H 0.17279 0.52515 0.05854 0.0
H939 H 0.16056 0.50262 0.08549 0.0
C940 C 0.22666 0.51366 0.98176 0.0
C941 C 0.22938 0.49971 0.03824 0.0
C942 C 0.20856 0.51461 0.94352 0.0
C943 C 0.19292 0.50164 0.96117 0.0
C944 C 0.19611 0.48694 0.01419 0.0
H945 H 0.06708 0.48861 0.88634 0.0
H946 H 0.10163 0.48692 0.92637 0.0
C947 C 0.21408 0.48598 0.05218 0.0
C948 C 0.17278 0.50411 0.92864 0.0
H949 H 0.12498 0.51524 0.97534 0.0
C950 C 0.16957 0.49937 0.85455 0.0
C951 C 0.15649 0.51018 0.97216 0.0
C952 C 0.15912 0.51615 0.05136 0.0
C953 C 0.15037 0.49978 0.8237 0.0
C954 C 0.13397 0.50548 0.86785 0.0
C955 C 0.13739 0.51069 0.94143 0.0
C956 C 0.11306 0.5058 0.8401 0.0
C957 C 0.14781 0.49337 0.74496 0.0
C958 C 0.10773 0.51705 0.7783 0.0
C959 C 0.08794 0.51787 0.75488 0.0
C960 C 0.07289 0.50772 0.79328 0.0
C961 C 0.07822 0.49661 0.85539 0.0
C962 C 0.09803 0.49563 0.87833 0.0
H963 H 0.16056 0.48437 0.72544 0.0
H964 H 0.13401 0.48459 0.73773 0.0
H965 H 0.14685 0.5067 0.70967 0.0
H966 H 0.11878 0.52559 0.74901 0.0
H967 H 0.08438 0.52689 0.70764 0.0
H968 H 0.01668 0.78832 0.46936 0.0
H969 H 0.01462 0.81968 0.53839 0.0
H970 H 0.9845 0.84689 0.35603 0.0
H971 H 0.98603 0.81572 0.28843 0.0
H972 H 0.0316 0.85483 0.5005 0.0
H973 H 0.95078 0.8662 0.52264 0.0
H974 H 0.96139 0.8426 0.49719 0.0
H975 H 0.95809 0.86177 0.42954 0.0
C976 C 1.00911 0.80084 0.44507 0.0
C977 C 1.00152 0.7995 0.37342 0.0
C978 C 1.00808 0.81882 0.48425 0.0
C979 C 0.99921 0.83571 0.45291 0.0
C980 C 0.99103 0.83409 0.3824 0.0
H981 H 0.99233 0.96269 0.51839 0.0
H982 H 0.99104 0.92826 0.47501 0.0
C983 C 0.99206 0.81624 0.34344 0.0
C984 C 0.99982 0.85546 0.49049 0.0
H985 H 0.97107 0.89535 0.53723 0.0
C986 C 0.01833 0.86355 0.50959 0.0
C987 C 0.98253 0.86697 0.50236 0.0
C988 C 0.96208 0.85885 0.48754 0.0
C989 C 0.02009 0.88303 0.53706 0.0
C990 C 1.00286 0.89476 0.54657 0.0
C991 C 0.98431 0.88649 0.52928 0.0
C992 C 1.00377 0.9157 0.57336 0.0
C993 C 0.04049 0.89116 0.55307 0.0
C994 C 0.01122 0.92018 0.64334 0.0
C995 C 0.012 0.93986 0.66818 0.0
C996 C 1.00523 0.95558 0.624 0.0
C997 C 0.99773 0.95104 0.55394 0.0
C998 C 0.99691 0.93132 0.52912 0.0
H999 H 0.05231 0.88219 0.52655 0.0
H1000 H 0.04186 0.90675 0.53407 0.0
H1001 H 0.04306 0.89092 0.61315 0.0
H1002 H 0.01632 0.90844 0.6791 0.0
H1003 H 0.01805 0.94275 0.72202 0.0
H1004 H 0.72058 0.04175 0.39759 0.0
H1005 H 0.68826 0.03877 0.45745 0.0
H1006 H 0.69067 0.97518 0.43234 0.0
H1007 H 0.72333 0.97816 0.37327 0.0
H1008 H 0.65561 0.02457 0.38988 0.0
H1009 H 0.67001 0.98062 0.64112 0.0
H1010 H 0.6896 0.99238 0.58945 0.0
H1011 H 0.67903 0.96938 0.5582 0.0
C1012 C 0.71446 0.02709 0.40675 0.0
C1013 C 0.72452 1.01018 0.38114 0.0
C1014 C 0.69593 0.0254 0.44058 0.0
C1015 C 0.68694 1.00676 0.44964 0.0
C1016 C 0.69738 0.98971 0.42724 0.0
H1017 H 0.55766 0.99487 0.49874 0.0
H1018 H 0.5918 0.99335 0.453 0.0
C1019 C 0.71607 0.9914 0.39363 0.0
C1020 C 0.66604 1.00556 0.47638 0.0
H1021 H 0.63627 0.98617 0.61035 0.0
C1022 C 0.6514 0.01616 0.43813 0.0
C1023 C 0.6605 0.99472 0.53963 0.0
C1024 C 0.67561 0.98376 0.585 0.0
C1025 C 0.63151 0.01631 0.4613 0.0
C1026 C 0.62587 1.00516 0.52369 0.0
C1027 C 0.6405 0.99455 0.56206 0.0
C1028 C 0.60508 1.00512 0.552 0.0
C1029 C 0.61686 0.02895 0.41992 0.0
C1030 C 0.60112 0.01165 0.62364 0.0
C1031 C 0.58166 0.01234 0.65019 0.0
C1032 C 0.56557 1.00649 0.60577 0.0
C1033 C 0.56959 0.99964 0.53433 0.0
C1034 C 0.58914 0.99885 0.50794 0.0
H1035 H 0.6244 0.04044 0.38625 0.0
H1036 H 0.60811 0.01939 0.38238 0.0
H1037 H 0.60643 0.03646 0.45804 0.0
H1038 H 0.6131 0.01655 0.65884 0.0
H1039 H 0.57927 0.0177 0.7055 0.0
H1040 H 0.52067 0.71084 0.27216 0.0
H1041 H 0.52451 0.67969 0.33888 0.0
H1042 H 0.51279 0.71011 0.54252 0.0
H1043 H 0.50859 0.74149 0.47518 0.0
H1044 H 0.54895 0.66693 0.45197 0.0
H1045 H 0.46985 0.667 0.53849 0.0
H1046 H 0.47934 0.68382 0.46999 0.0
H1047 H 0.48411 0.68833 0.56547 0.0
C1048 C 0.51917 0.71096 0.33133 0.0
C1049 C 0.51416 0.72859 0.36841 0.0
C1050 C 0.52138 0.69313 0.36944 0.0
C1051 C 0.51853 0.6924 0.4456 0.0
C1052 C 0.51466 0.7102 0.48355 0.0
H1053 H 0.50842 0.58708 0.72556 0.0
H1054 H 0.51042 0.62109 0.68025 0.0
C1055 C 0.5125 0.72817 0.44524 0.0
C1056 C 0.51877 0.67279 0.48359 0.0
H1057 H 0.4891 0.63958 0.57376 0.0
C1058 C 0.53589 0.661 0.47902 0.0
C1059 C 0.50173 0.66498 0.51881 0.0
C1060 C 0.48263 0.67656 0.52321 0.0
C1061 C 0.53643 0.64169 0.50825 0.0
C1062 C 0.51924 0.63368 0.54172 0.0
C1063 C 0.50226 0.64564 0.54791 0.0
C1064 C 0.51838 0.61284 0.56937 0.0
C1065 C 0.55552 0.63011 0.50352 0.0
C1066 C 0.52188 0.5967 0.52212 0.0
C1067 C 0.52079 0.57714 0.54801 0.0
C1068 C 0.51603 0.57322 0.62178 0.0
C1069 C 0.51228 0.58943 0.66867 0.0
C1070 C 0.51338 0.60896 0.64275 0.0
H1071 H 0.56853 0.64008 0.49704 0.0
H1072 H 0.55774 0.62083 0.55308 0.0
H1073 H 0.55497 0.62018 0.45496 0.0
H1074 H 0.52526 0.59922 0.46481 0.0
H1075 H 0.52363 0.56511 0.51005 0.0
H1076 H 0.80092 0.47914 0.3762 0.0
H1077 H 0.83219 0.47978 0.444 0.0
H1078 H 0.82596 0.54292 0.47553 0.0
H1079 H 0.79425 0.5421 0.40938 0.0
H1080 H 0.86439 0.49814 0.40002 0.0
H1081 H 0.8454 0.5271 0.6756 0.0
H1082 H 0.82689 0.51778 0.61294 0.0
H1083 H 0.83653 0.54252 0.60261 0.0
C1084 C 0.80593 0.49303 0.39973 0.0
C1085 C 0.79506 0.51053 0.38829 0.0
C1086 C 0.82389 0.49343 0.43808 0.0
C1087 C 0.83154 0.51137 0.46552 0.0
C1088 C 0.82027 0.52879 0.45662 0.0
H1089 H 0.95882 0.5301 0.52672 0.0
H1090 H 0.9246 0.52978 0.48267 0.0
C1091 C 0.80212 0.52834 0.41877 0.0
C1092 C 0.8521 0.51198 0.49639 0.0
H1093 H 0.87971 0.52653 0.64442 0.0
C1094 C 0.86767 0.50427 0.45369 0.0
C1095 C 0.85651 0.51972 0.56679 0.0
C1096 C 0.84044 0.52707 0.61753 0.0
C1097 C 0.88739 0.50427 0.47869 0.0
C1098 C 0.89196 0.51282 0.54769 0.0
C1099 C 0.87636 0.52025 0.59107 0.0
C1100 C 0.91276 0.51387 0.5761 0.0
C1101 C 0.90302 0.49458 0.4314 0.0
C1102 C 0.91756 0.50578 0.6448 0.0
C1103 C 0.93712 0.50624 0.67073 0.0
C1104 C 0.95243 0.51477 0.62851 0.0
C1105 C 0.94753 0.52317 0.56033 0.0
C1106 C 0.92792 0.52289 0.53482 0.0
H1107 H 0.89641 0.48357 0.39314 0.0
H1108 H 0.9105 0.5061 0.39787 0.0
H1109 H 0.91436 0.48697 0.46524 0.0
H1110 H 0.90621 0.49881 0.67808 0.0
H1111 H 0.94025 0.49967 0.7236 0.0
loop_
_geom_bond_atom_site_label_1
_geom_bond_atom_site_label_2
_geom_bond_distance
_geom_bond_site_symmetry_2
_ccdc_geom_bond_type
H0 C3 0.929 . S
H1 C6 0.929 . S
H2 C8 0.930 . S
C3 H0 0.929 . S
C3 C4 1.398 . S
C3 C5 1.396 . S
C4 C3 1.398 . S
C4 C8 1.407 . S
C5 C3 1.396 . S
C5 C6 1.394 . S
C6 H1 0.929 . S
C6 C5 1.394 . S
C6 C7 1.382 . S
C7 C6 1.382 . S
C7 C8 1.392 . S
C7 N9 1.420 . S
C8 H2 0.930 . S
C8 C4 1.407 . S
C8 C7 1.392 . S
N9 C7 1.420 . S
N9 C10 1.244 . S
C10 N9 1.244 . S
H11 C14 0.929 . S
H12 C17 0.929 . S
H13 C19 0.930 . S
C14 H11 0.929 . S
C14 C15 1.395 1_655 S
C14 C16 1.395 1_655 S
C15 C14 1.395 1_455 S
C15 C19 1.413 . S
C16 C14 1.395 1_455 S
C16 C17 1.396 . S
C17 H12 0.929 . S
C17 C16 1.396 . S
C17 C18 1.382 . S
C18 C17 1.382 . S
C18 C19 1.392 . S
C18 N20 1.420 . S
C19 H13 0.930 . S
C19 C15 1.413 . S
C19 C18 1.392 . S
N20 C18 1.420 . S
N20 C21 1.232 1_455 S
C21 N20 1.232 1_655 S
H22 C25 0.929 . S
H23 C28 0.929 . S
H24 C30 0.930 . S
C25 H22 0.929 . S
C25 C26 1.395 1_565 S
C25 C27 1.395 1_565 S
C26 C25 1.395 1_545 S
C26 C30 1.413 . S
C27 C25 1.395 1_545 S
C27 C28 1.396 . S
C28 H23 0.929 . S
C28 C27 1.396 . S
C28 C29 1.382 . S
C29 C28 1.382 . S
C29 C30 1.392 . S
C29 N31 1.420 . S
C30 H24 0.930 . S
C30 C26 1.413 . S
C30 C29 1.392 . S
N31 C29 1.420 . S
N31 C32 1.232 1_545 S
C32 N31 1.232 1_565 S
H33 C36 0.929 . S
H34 C39 0.929 . S
H35 C41 0.930 . S
C36 H33 0.929 . S
C36 C37 1.398 . S
C36 C38 1.396 . S
C37 C36 1.398 . S
C37 C41 1.407 . S
C38 C36 1.396 . S
C38 C39 1.394 . S
C39 H34 0.929 . S
C39 C38 1.394 . S
C39 C40 1.382 . S
C40 C39 1.382 . S
C40 C41 1.392 . S
C40 N42 1.420 . S
C41 H35 0.930 . S
C41 C37 1.407 . S
C41 C40 1.392 . S
N42 C40 1.420 . S
N42 C43 1.244 . S
C43 N42 1.244 . S
H44 C47 0.929 . S
H45 C50 0.929 . S
H46 C52 0.930 . S
C47 H44 0.929 . S
C47 C48 1.398 1_554 S
C47 C49 1.396 . S
C48 C47 1.398 1_556 S
C48 C52 1.407 . S
C49 C47 1.396 . S
C49 C50 1.394 . S
C50 H45 0.929 . S
C50 C49 1.394 . S
C50 C51 1.382 . S
C51 C50 1.382 . S
C51 C52 1.392 1_554 S
C51 N53 1.420 . S
C52 H46 0.930 . S
C52 C48 1.407 . S
C52 C51 1.392 1_556 S
N53 C51 1.420 . S
N53 C54 1.244 . S
C54 N53 1.244 . S
H55 C58 0.929 . S
H56 C61 0.929 . S
H57 C63 0.930 . S
C58 H55 0.929 . S
C58 C59 1.394 1_654 S
C58 C60 1.394 1_655 S
C59 C58 1.394 1_456 S
C59 C63 1.416 . S
C60 C58 1.394 1_455 S
C60 C61 1.398 . S
C61 H56 0.929 . S
C61 C60 1.398 . S
C61 C62 1.382 . S
C62 C61 1.382 . S
C62 C63 1.392 1_554 S
C62 N64 1.420 . S
C63 H57 0.930 . S
C63 C59 1.416 . S
C63 C62 1.392 1_556 S
N64 C62 1.420 . S
N64 C65 1.238 1_455 S
C65 N64 1.238 1_655 S
H66 C69 0.929 . S
H67 C72 0.929 . S
H68 C74 0.930 . S
C69 H66 0.929 . S
C69 C70 1.394 1_564 S
C69 C71 1.394 1_565 S
C70 C69 1.394 1_546 S
C70 C74 1.416 . S
C71 C69 1.394 1_545 S
C71 C72 1.398 . S
C72 H67 0.929 . S
C72 C71 1.398 . S
C72 C73 1.382 . S
C73 C72 1.382 . S
C73 C74 1.392 1_554 S
C73 N75 1.420 . S
C74 H68 0.930 . S
C74 C70 1.416 . S
C74 C73 1.392 1_556 S
N75 C73 1.420 . S
N75 C76 1.238 1_545 S
C76 N75 1.238 1_565 S
H77 C80 0.929 . S
H78 C83 0.929 . S
H79 C85 0.930 . S
C80 H77 0.929 . S
C80 C81 1.398 1_554 S
C80 C82 1.396 . S
C81 C80 1.398 1_556 S
C81 C85 1.407 . S
C82 C80 1.396 . S
C82 C83 1.394 . S
C83 H78 0.929 . S
C83 C82 1.394 . S
C83 C84 1.382 . S
C84 C83 1.382 . S
C84 C85 1.392 1_554 S
C84 N86 1.420 . S
C85 H79 0.930 . S
C85 C81 1.407 . S
C85 C84 1.392 1_556 S
N86 C84 1.420 . S
N86 C87 1.244 . S
C87 N86 1.244 . S
C88 Eu89 2.835 . S
C88 C90 1.500 . S
C88 O108 1.259 . S
C88 O109 1.260 . S
Eu89 C88 2.835 . S
Eu89 O108 2.473 . S
Eu89 O109 2.480 . S
Eu89 O110 2.430 . S
Eu89 O111 2.670 1_545 S
Eu89 O112 2.394 . S
Eu89 O117 2.355 1_655 S
Eu89 O119 2.374 1_545 S
C90 C88 1.500 . S
C90 C91 1.377 . S
C90 C95 1.421 . S
C91 C90 1.377 . S
C91 C92 1.395 . S
C91 H120 0.931 . S
C92 C91 1.395 . S
C92 C93 1.383 . S
C92 H121 0.931 . S
C93 C92 1.383 . S
C93 C94 1.394 . S
C94 C93 1.394 . S
C94 C95 1.382 . S
C94 H122 0.931 1_655 S
C95 C90 1.421 . S
C95 C94 1.382 . S
C95 H123 0.884 1_655 S
C96 O110 1.282 . S
C96 O111 1.254 1_545 S
C97 O112 1.251 1_455 S
C97 O113 1.251 . S
C98 Eu99 2.835 . S
C98 C100 1.500 . S
C98 O114 1.271 . S
C98 O115 1.260 . S
Eu99 C98 2.835 . S
Eu99 O111 2.355 1_455 S
Eu99 O113 2.374 1_565 S
Eu99 O114 2.479 . S
Eu99 O115 2.480 . S
Eu99 O116 2.430 . S
Eu99 O117 2.670 1_565 S
Eu99 O118 2.394 . S
C100 C98 1.500 . S
C100 C101 1.377 . S
C100 C105 1.377 . S
C101 C100 1.377 . S
C101 C102 1.395 . S
C101 H124 0.931 . S
C102 C101 1.395 . S
C102 C103 1.383 . S
C102 H125 0.931 . S
C103 C102 1.383 . S
C103 C104 1.394 . S
C104 C103 1.394 . S
C104 C105 1.378 . S
C104 H126 0.931 1_455 S
C105 C100 1.377 . S
C105 C104 1.378 . S
C105 H127 0.931 1_455 S
C106 O116 1.275 . S
C106 O117 1.259 1_565 S
C107 O118 1.251 1_655 S
C107 O119 1.251 . S
O108 C88 1.259 . S
O108 Eu89 2.473 . S
O109 C88 1.260 . S
O109 Eu89 2.480 . S
O110 Eu89 2.430 . S
O110 C96 1.282 . S
O111 Eu89 2.670 1_565 S
O111 C96 1.254 1_565 S
O111 Eu99 2.355 1_655 S
O112 Eu89 2.394 . S
O112 C97 1.251 1_655 S
O113 C97 1.251 . S
O113 Eu99 2.374 1_545 S
O114 C98 1.271 . S
O114 Eu99 2.479 . S
O115 C98 1.260 . S
O115 Eu99 2.480 . S
O116 Eu99 2.430 . S
O116 C106 1.275 . S
O117 Eu89 2.355 1_455 S
O117 Eu99 2.670 1_545 S
O117 C106 1.259 1_545 S
O118 Eu99 2.394 . S
O118 C107 1.251 1_455 S
O119 Eu89 2.374 1_565 S
O119 C107 1.251 . S
H120 C91 0.931 . S
H121 C92 0.931 . S
H122 C94 0.931 1_455 S
H123 C95 0.884 1_455 S
H124 C101 0.931 . S
H125 C102 0.931 . S
H126 C104 0.931 1_655 S
H127 C105 0.931 1_655 S
C128 Eu129 2.835 . S
C128 C130 1.500 . S
C128 O148 1.255 . S
C128 O149 1.260 . S
Eu129 C128 2.835 . S
Eu129 O148 2.472 . S
Eu129 O149 2.480 . S
Eu129 O150 2.430 . S
Eu129 O151 2.670 . S
Eu129 O152 2.394 . S
Eu129 O157 2.355 1_565 S
Eu129 O159 2.374 . S
C130 C128 1.500 . S
C130 C131 1.377 . S
C130 C135 1.414 . S
C131 C130 1.377 . S
C131 C132 1.395 . S
C131 H160 0.931 . S
C132 C131 1.395 . S
C132 C133 1.383 . S
C132 H161 0.931 . S
C133 C132 1.383 . S
C133 C134 1.394 . S
C134 C133 1.394 . S
C134 C135 1.381 . S
C134 H162 0.931 1_565 S
C135 C130 1.414 . S
C135 C134 1.381 . S
C135 H163 0.891 1_565 S
C136 O150 1.259 . S
C136 O151 1.270 . S
C137 O152 1.251 1_545 S
C137 O153 1.251 . S
C138 Eu139 2.835 . S
C138 C140 1.500 . S
C138 O154 1.268 . S
C138 O155 1.260 . S
Eu139 C138 2.835 . S
Eu139 O151 2.355 1_545 S
Eu139 O153 2.374 . S
Eu139 O154 2.477 . S
Eu139 O155 2.480 . S
Eu139 O156 2.430 . S
Eu139 O157 2.670 . S
Eu139 O158 2.394 . S
C140 C138 1.500 . S
C140 C141 1.377 . S
C140 C145 1.426 . S
C141 C140 1.377 . S
C141 C142 1.395 . S
C141 H164 0.931 . S
C142 C141 1.395 . S
C142 C143 1.383 . S
C142 H165 0.931 . S
C143 C142 1.383 . S
C143 C144 1.394 . S
C144 C143 1.394 . S
C144 C145 1.383 . S
C144 H166 0.931 1_545 S
C145 C140 1.426 . S
C145 C144 1.383 . S
C145 H167 0.879 1_545 S
C146 O156 1.259 . S
C146 O157 1.270 . S
C147 O158 1.251 1_565 S
C147 O159 1.251 . S
O148 C128 1.255 . S
O148 Eu129 2.472 . S
O149 C128 1.260 . S
O149 Eu129 2.480 . S
O150 Eu129 2.430 . S
O150 C136 1.259 . S
O151 Eu129 2.670 . S
O151 C136 1.270 . S
O151 Eu139 2.355 1_565 S
O152 Eu129 2.394 . S
O152 C137 1.251 1_565 S
O153 C137 1.251 . S
O153 Eu139 2.374 . S
O154 C138 1.268 . S
O154 Eu139 2.477 . S
O155 C138 1.260 . S
O155 Eu139 2.480 . S
O156 Eu139 2.430 . S
O156 C146 1.259 . S
O157 Eu129 2.355 1_545 S
O157 Eu139 2.670 . S
O157 C146 1.270 . S
O158 Eu139 2.394 . S
O158 C147 1.251 1_545 S
O159 Eu129 2.374 . S
O159 C147 1.251 . S
H160 C131 0.931 . S
H161 C132 0.931 . S
H162 C134 0.931 1_545 S
H163 C135 0.891 1_545 S
H164 C141 0.931 . S
H165 C142 0.931 . S
H166 C144 0.931 1_565 S
H167 C145 0.879 1_565 S
C168 Eu169 2.835 . S
C168 C170 1.500 . S
C168 O188 1.257 . S
C168 O189 1.260 . S
Eu169 C168 2.835 . S
Eu169 O188 2.473 . S
Eu169 O189 2.480 . S
Eu169 O190 2.430 . S
Eu169 O191 2.670 . S
Eu169 O192 2.394 . S
Eu169 O197 2.355 . S
Eu169 O199 2.374 . S
C170 C168 1.500 . S
C170 C171 1.377 . S
C170 C175 1.377 . S
C171 C170 1.377 . S
C171 C172 1.395 . S
C171 H200 0.931 . S
C172 C171 1.395 . S
C172 C173 1.383 . S
C172 H201 0.931 . S
C173 C172 1.383 . S
C173 C174 1.394 . S
C174 C173 1.394 . S
C174 C175 1.378 . S
C174 H202 0.931 . S
C175 C170 1.377 . S
C175 C174 1.378 . S
C175 H203 0.931 . S
C176 O190 1.259 . S
C176 O191 1.270 . S
C177 O192 1.251 . S
C177 O193 1.251 . S
C178 Eu179 2.835 . S
C178 C180 1.500 . S
C178 O194 1.257 . S
C178 O195 1.260 . S
Eu179 C178 2.835 . S
Eu179 O191 2.355 . S
Eu179 O193 2.374 . S
Eu179 O194 2.473 . S
Eu179 O195 2.480 . S
Eu179 O196 2.430 . S
Eu179 O197 2.670 . S
Eu179 O198 2.394 . S
C180 C178 1.500 . S
C180 C181 1.377 . S
C180 C185 1.377 . S
C181 C180 1.377 . S
C181 C182 1.395 . S
C181 H204 0.931 . S
C182 C181 1.395 . S
C182 C183 1.383 . S
C182 H205 0.931 . S
C183 C182 1.383 . S
C183 C184 1.394 . S
C184 C183 1.394 . S
C184 C185 1.378 . S
C184 H206 0.931 . S
C185 C180 1.377 . S
C185 C184 1.378 . S
C185 H207 0.931 . S
C186 O196 1.259 . S
C186 O197 1.270 . S
C187 O198 1.251 . S
C187 O199 1.251 . S
O188 C168 1.257 . S
O188 Eu169 2.473 . S
O189 C168 1.260 . S
O189 Eu169 2.480 . S
O190 Eu169 2.430 . S
O190 C176 1.259 . S
O191 Eu169 2.670 . S
O191 C176 1.270 . S
O191 Eu179 2.355 . S
O192 Eu169 2.394 . S
O192 C177 1.251 . S
O193 C177 1.251 . S
O193 Eu179 2.374 . S
O194 C178 1.257 . S
O194 Eu179 2.473 . S
O195 C178 1.260 . S
O195 Eu179 2.480 . S
O196 Eu179 2.430 . S
O196 C186 1.259 . S
O197 Eu169 2.355 . S
O197 Eu179 2.670 . S
O197 C186 1.270 . S
O198 Eu179 2.394 . S
O198 C187 1.251 . S
O199 Eu169 2.374 . S
O199 C187 1.251 . S
H200 C171 0.931 . S
H201 C172 0.931 . S
H202 C174 0.931 . S
H203 C175 0.931 . S
H204 C181 0.931 . S
H205 C182 0.931 . S
H206 C184 0.931 . S
H207 C185 0.931 . S
C208 Eu209 2.835 . S
C208 C210 1.500 . S
C208 O228 1.257 . S
C208 O229 1.260 . S
Eu209 C208 2.835 . S
Eu209 O228 2.473 . S
Eu209 O229 2.480 . S
Eu209 O230 2.430 . S
Eu209 O231 2.670 1_455 S
Eu209 O232 2.394 . S
Eu209 O237 2.355 . S
Eu209 O239 2.374 1_455 S
C210 C208 1.500 . S
C210 C211 1.377 . S
C210 C215 1.377 . S
C211 C210 1.377 . S
C211 C212 1.395 . S
C211 H240 0.931 . S
C212 C211 1.395 . S
C212 C213 1.383 . S
C212 H241 0.931 . S
C213 C212 1.383 . S
C213 C214 1.394 . S
C214 C213 1.394 . S
C214 C215 1.378 . S
C214 H242 0.931 . S
C215 C210 1.377 . S
C215 C214 1.378 . S
C215 H243 0.931 . S
C216 O230 1.277 . S
C216 O231 1.257 1_455 S
C217 O232 1.251 . S
C217 O233 1.251 . S
C218 Eu219 2.835 . S
C218 C220 1.500 . S
C218 O234 1.257 . S
C218 O235 1.260 . S
Eu219 C218 2.835 . S
Eu219 O231 2.355 . S
Eu219 O233 2.374 1_655 S
Eu219 O234 2.473 . S
Eu219 O235 2.480 . S
Eu219 O236 2.430 . S
Eu219 O237 2.670 1_655 S
Eu219 O238 2.394 . S
C220 C218 1.500 . S
C220 C221 1.377 . S
C220 C225 1.377 . S
C221 C220 1.377 . S
C221 C222 1.395 . S
C221 H244 0.931 . S
C222 C221 1.395 . S
C222 C223 1.383 . S
C222 H245 0.931 . S
C223 C222 1.383 . S
C223 C224 1.394 . S
C224 C223 1.394 . S
C224 C225 1.378 . S
C224 H246 0.931 . S
C225 C220 1.377 . S
C225 C224 1.378 . S
C225 H247 0.931 . S
C226 O236 1.270 . S
C226 O237 1.262 1_655 S
C227 O238 1.251 . S
C227 O239 1.251 . S
O228 C208 1.257 . S
O228 Eu209 2.473 . S
O229 C208 1.260 . S
O229 Eu209 2.480 . S
O230 Eu209 2.430 . S
O230 C216 1.277 . S
O231 Eu209 2.670 1_655 S
O231 C216 1.257 1_655 S
O231 Eu219 2.355 . S
O232 Eu209 2.394 . S
O232 C217 1.251 . S
O233 C217 1.251 . S
O233 Eu219 2.374 1_455 S
O234 C218 1.257 . S
O234 Eu219 2.473 . S
O235 C218 1.260 . S
O235 Eu219 2.480 . S
O236 Eu219 2.430 . S
O236 C226 1.270 . S
O237 Eu209 2.355 . S
O237 Eu219 2.670 1_455 S
O237 C226 1.262 1_455 S
O238 Eu219 2.394 . S
O238 C227 1.251 . S
O239 Eu209 2.374 1_655 S
O239 C227 1.251 . S
H240 C211 0.931 . S
H241 C212 0.931 . S
H242 C214 0.931 . S
H243 C215 0.931 . S
H244 C221 0.931 . S
H245 C222 0.931 . S
H246 C224 0.931 . S
H247 C225 0.931 . S
H248 C256 0.929 . S
H249 C258 0.930 . S
H250 C260 0.930 . S
H251 C263 0.929 . S
H252 C266 0.930 . S
H253 C268 0.960 . S
H254 C268 0.960 . S
H255 C268 0.960 . S
C256 H248 0.929 . S
C256 C257 1.380 1_565 S
C256 C258 1.384 . S
C257 C256 1.380 1_545 S
C257 C263 1.387 . S
C258 H249 0.930 . S
C258 C256 1.384 . S
C258 C259 1.404 . S
C259 C258 1.404 . S
C259 C260 1.367 1_565 S
C259 C264 1.491 . S
C260 H250 0.930 . S
C260 C259 1.367 1_545 S
C260 C263 1.386 . S
H261 C277 0.930 . S
H262 C278 0.931 . S
C263 H251 0.929 . S
C263 C257 1.387 . S
C263 C260 1.386 . S
C264 C259 1.491 . S
C264 C266 1.395 . S
C264 C267 1.403 1_565 S
H265 C271 0.930 . S
C266 H252 0.930 . S
C266 C264 1.395 . S
C266 C269 1.403 . S
C267 C264 1.403 1_545 S
C267 C268 1.524 . S
C267 C271 1.400 . S
C268 H253 0.960 . S
C268 H254 0.960 . S
C268 H255 0.960 . S
C268 C267 1.524 . S
C269 C266 1.403 . S
C269 C270 1.392 . S
C269 C273 1.495 . S
C270 C269 1.392 . S
C270 C271 1.385 1_565 S
C270 C272 1.478 . S
C271 H265 0.930 . S
C271 C267 1.400 . S
C271 C270 1.385 1_545 S
C272 C270 1.478 . S
C272 C274 1.381 . S
C272 C278 1.383 1_565 S
C273 C269 1.495 . S
C273 H279 0.959 . S
C273 H280 0.961 . S
C273 H281 0.960 . S
C274 C272 1.381 . S
C274 C275 1.394 . S
C274 H282 0.930 . S
C275 C274 1.394 . S
C275 C276 1.401 . S
C275 H283 0.929 . S
C276 C275 1.401 . S
C276 C277 1.361 1_565 S
C277 H261 0.930 . S
C277 C276 1.361 1_545 S
C277 C278 1.379 . S
C278 H262 0.931 . S
C278 C272 1.383 1_545 S
C278 C277 1.379 . S
H279 C273 0.959 . S
H280 C273 0.961 . S
H281 C273 0.960 . S
H282 C274 0.930 . S
H283 C275 0.929 . S
H284 C292 0.929 . S
H285 C294 0.930 . S
H286 C296 0.930 . S
H287 C299 0.929 . S
H288 C302 0.930 . S
H289 C304 0.960 . S
H290 C304 0.960 . S
H291 C304 0.960 . S
C292 H284 0.929 . S
C292 C293 1.377 . S
C292 C294 1.384 . S
C293 C292 1.377 . S
C293 C299 1.390 . S
C294 H285 0.930 . S
C294 C292 1.384 . S
C294 C295 1.372 . S
C295 C294 1.372 . S
C295 C296 1.400 . S
C295 C300 1.490 . S
C296 H286 0.930 . S
C296 C295 1.400 . S
C296 C299 1.386 . S
H297 C313 0.930 . S
H298 C314 0.931 . S
C299 H287 0.929 . S
C299 C293 1.390 . S
C299 C296 1.386 . S
C300 C295 1.490 . S
C300 C302 1.395 . S
C300 C303 1.403 . S
H301 C307 0.930 . S
C302 H288 0.930 . S
C302 C300 1.395 . S
C302 C305 1.403 . S
C303 C300 1.403 . S
C303 C304 1.524 . S
C303 C307 1.400 . S
C304 H289 0.960 . S
C304 H290 0.960 . S
C304 H291 0.960 . S
C304 C303 1.524 . S
C305 C302 1.403 . S
C305 C306 1.392 . S
C305 C309 1.495 . S
C306 C305 1.392 . S
C306 C307 1.385 . S
C306 C308 1.478 . S
C307 H301 0.930 . S
C307 C303 1.400 . S
C307 C306 1.385 . S
C308 C306 1.478 . S
C308 C310 1.381 . S
C308 C314 1.383 . S
C309 C305 1.495 . S
C309 H315 0.959 . S
C309 H316 0.961 . S
C309 H317 0.960 . S
C310 C308 1.381 . S
C310 C311 1.394 . S
C310 H318 0.930 . S
C311 C310 1.394 . S
C311 C312 1.383 . S
C311 H319 0.929 . S
C312 C311 1.383 . S
C312 C313 1.377 . S
C313 H297 0.930 . S
C313 C312 1.377 . S
C313 C314 1.379 . S
C314 H298 0.931 . S
C314 C308 1.383 . S
C314 C313 1.379 . S
H315 C309 0.959 . S
H316 C309 0.961 . S
H317 C309 0.960 . S
H318 C310 0.930 . S
H319 C311 0.929 . S
H320 C328 0.929 . S
H321 C330 0.930 . S
H322 C332 0.930 . S
H323 C335 0.929 . S
H324 C338 0.930 . S
H325 C340 0.960 . S
H326 C340 0.960 . S
H327 C340 0.960 . S
C328 H320 0.929 . S
C328 C329 1.377 . S
C328 C330 1.384 . S
C329 C328 1.377 . S
C329 C335 1.390 . S
C330 H321 0.930 . S
C330 C328 1.384 . S
C330 C331 1.372 . S
C331 C330 1.372 . S
C331 C332 1.400 . S
C331 C336 1.490 . S
C332 H322 0.930 . S
C332 C331 1.400 . S
C332 C335 1.386 . S
H333 C349 0.930 . S
H334 C350 0.931 . S
C335 H323 0.929 . S
C335 C329 1.390 . S
C335 C332 1.386 . S
C336 C331 1.490 . S
C336 C338 1.395 . S
C336 C339 1.403 . S
H337 C343 0.930 . S
C338 H324 0.930 . S
C338 C336 1.395 . S
C338 C341 1.403 . S
C339 C336 1.403 . S
C339 C340 1.524 . S
C339 C343 1.400 . S
C340 H325 0.960 . S
C340 H326 0.960 . S
C340 H327 0.960 . S
C340 C339 1.524 . S
C341 C338 1.403 . S
C341 C342 1.392 . S
C341 C345 1.495 . S
C342 C341 1.392 . S
C342 C343 1.385 . S
C342 C344 1.478 . S
C343 H337 0.930 . S
C343 C339 1.400 . S
C343 C342 1.385 . S
C344 C342 1.478 . S
C344 C346 1.381 . S
C344 C350 1.383 . S
C345 C341 1.495 . S
C345 H351 0.959 . S
C345 H352 0.961 . S
C345 H353 0.960 . S
C346 C344 1.381 . S
C346 C347 1.394 . S
C346 H354 0.930 . S
C347 C346 1.394 . S
C347 C348 1.383 . S
C347 H355 0.929 . S
C348 C347 1.383 . S
C348 C349 1.377 . S
C349 H333 0.930 . S
C349 C348 1.377 . S
C349 C350 1.379 . S
C350 H334 0.931 . S
C350 C344 1.383 . S
C350 C349 1.379 . S
H351 C345 0.959 . S
H352 C345 0.961 . S
H353 C345 0.960 . S
H354 C346 0.930 . S
H355 C347 0.929 . S
H356 C364 0.929 . S
H357 C366 0.930 . S
H358 C368 0.930 . S
H359 C371 0.929 . S
H360 C374 0.930 . S
H361 C376 0.960 . S
H362 C376 0.960 1_655 S
H363 C376 0.960 . S
C364 H356 0.929 . S
C364 C365 1.376 . S
C364 C366 1.384 . S
C365 C364 1.376 . S
C365 C371 1.391 1_655 S
C366 H357 0.930 . S
C366 C364 1.384 . S
C366 C367 1.412 . S
C367 C366 1.412 . S
C367 C368 1.360 1_655 S
C367 C372 1.490 . S
C368 H358 0.930 . S
C368 C367 1.360 1_455 S
C368 C371 1.386 . S
H369 C385 0.930 . S
H370 C386 0.931 . S
C371 H359 0.929 . S
C371 C365 1.391 1_455 S
C371 C368 1.386 . S
C372 C367 1.490 . S
C372 C374 1.411 . S
C372 C375 1.389 1_655 S
H373 C379 0.930 . S
C374 H360 0.930 . S
C374 C372 1.411 . S
C374 C377 1.403 . S
C375 C372 1.389 1_455 S
C375 C376 1.524 . S
C375 C379 1.400 . S
C376 H361 0.960 . S
C376 H362 0.960 1_455 S
C376 H363 0.960 . S
C376 C375 1.524 . S
C377 C374 1.403 . S
C377 C378 1.392 . S
C377 C381 1.495 . S
C378 C377 1.392 . S
C378 C379 1.385 1_655 S
C378 C380 1.479 . S
C379 H373 0.930 . S
C379 C375 1.400 . S
C379 C378 1.385 1_455 S
C380 C378 1.479 . S
C380 C382 1.414 . S
C380 C386 1.349 1_655 S
C381 C377 1.495 . S
C381 H387 0.959 . S
C381 H388 0.961 . S
C381 H389 0.960 . S
C382 C380 1.414 . S
C382 C383 1.394 . S
C382 H390 0.930 . S
C383 C382 1.394 . S
C383 C384 1.364 1_655 S
C383 H391 0.929 . S
C384 C383 1.364 1_455 S
C384 C385 1.396 . S
C385 H369 0.930 . S
C385 C384 1.396 . S
C385 C386 1.379 . S
C386 H370 0.931 . S
C386 C380 1.349 1_455 S
C386 C385 1.379 . S
H387 C381 0.959 . S
H388 C381 0.961 . S
H389 C381 0.960 . S
H390 C382 0.930 . S
H391 C383 0.929 . S
H392 C400 0.929 . S
H393 C402 0.930 . S
H394 C404 0.930 . S
H395 C407 0.929 . S
H396 C410 0.930 . S
H397 C412 0.960 . S
H398 C412 0.960 . S
H399 C412 0.960 . S
C400 H392 0.929 . S
C400 C401 1.383 . S
C400 C402 1.384 . S
C401 C400 1.383 . S
C401 C407 1.384 1_565 S
C402 H393 0.930 . S
C402 C400 1.384 . S
C402 C403 1.404 . S
C403 C402 1.404 . S
C403 C404 1.369 1_565 S
C403 C408 1.490 . S
C404 H394 0.930 . S
C404 C403 1.369 1_545 S
C404 C407 1.386 . S
H405 C421 0.930 . S
H406 C422 0.931 . S
C407 H395 0.929 . S
C407 C401 1.384 1_545 S
C407 C404 1.386 . S
C408 C403 1.490 . S
C408 C410 1.382 1_565 S
C408 C411 1.416 . S
H409 C415 0.930 . S
C410 H396 0.930 . S
C410 C408 1.382 1_545 S
C410 C413 1.403 1_554 S
C411 C408 1.416 . S
C411 C412 1.524 . S
C411 C415 1.400 . S
C412 H397 0.960 . S
C412 H398 0.960 . S
C412 H399 0.960 . S
C412 C411 1.524 . S
C413 C410 1.403 1_556 S
C413 C414 1.401 . S
C413 C417 1.495 . S
C414 C413 1.401 . S
C414 C415 1.376 1_546 S
C414 C416 1.479 . S
C415 H409 0.930 . S
C415 C411 1.400 . S
C415 C414 1.376 1_564 S
C416 C414 1.479 . S
C416 C418 1.381 1_545 S
C416 C422 1.383 . S
C417 C413 1.495 . S
C417 H423 0.959 . S
C417 H424 0.961 . S
C417 H425 0.960 . S
C418 C416 1.381 1_565 S
C418 C419 1.394 . S
C418 H426 0.930 . S
C419 C418 1.394 . S
C419 C420 1.378 1_565 S
C419 H427 0.929 . S
C420 C419 1.378 1_545 S
C420 C421 1.382 . S
C421 H405 0.930 . S
C421 C420 1.382 . S
C421 C422 1.379 . S
C422 H406 0.931 . S
C422 C416 1.383 . S
C422 C421 1.379 . S
H423 C417 0.959 . S
H424 C417 0.961 . S
H425 C417 0.960 . S
H426 C418 0.930 . S
H427 C419 0.929 . S
H428 C436 0.929 . S
H429 C438 0.930 . S
H430 C440 0.930 . S
H431 C443 0.929 . S
H432 C446 0.930 . S
H433 C448 0.960 1_556 S
H434 C448 0.960 . S
H435 C448 0.960 . S
C436 H428 0.929 . S
C436 C437 1.377 . S
C436 C438 1.384 . S
C437 C436 1.377 . S
C437 C443 1.390 . S
C438 H429 0.930 . S
C438 C436 1.384 . S
C438 C439 1.372 . S
C439 C438 1.372 . S
C439 C440 1.400 . S
C439 C444 1.490 . S
C440 H430 0.930 . S
C440 C439 1.400 . S
C440 C443 1.386 . S
H441 C457 0.930 . S
H442 C458 0.931 . S
C443 H431 0.929 . S
C443 C437 1.390 . S
C443 C440 1.386 . S
C444 C439 1.490 . S
C444 C446 1.395 . S
C444 C447 1.403 . S
H445 C451 0.930 . S
C446 H432 0.930 . S
C446 C444 1.395 . S
C446 C449 1.403 . S
C447 C444 1.403 . S
C447 C448 1.524 . S
C447 C451 1.400 1_554 S
C448 H433 0.960 1_554 S
C448 H434 0.960 . S
C448 H435 0.960 . S
C448 C447 1.524 . S
C449 C446 1.403 . S
C449 C450 1.392 1_554 S
C449 C453 1.495 . S
C450 C449 1.392 1_556 S
C450 C451 1.385 . S
C450 C452 1.478 . S
C451 H445 0.930 . S
C451 C447 1.400 1_556 S
C451 C450 1.385 . S
C452 C450 1.478 . S
C452 C454 1.381 . S
C452 C458 1.383 . S
C453 C449 1.495 . S
C453 H459 0.959 . S
C453 H460 0.961 . S
C453 H461 0.960 . S
C454 C452 1.381 . S
C454 C455 1.394 . S
C454 H462 0.930 . S
C455 C454 1.394 . S
C455 C456 1.383 . S
C455 H463 0.929 . S
C456 C455 1.383 . S
C456 C457 1.377 . S
C457 H441 0.930 . S
C457 C456 1.377 . S
C457 C458 1.379 . S
C458 H442 0.931 . S
C458 C452 1.383 . S
C458 C457 1.379 . S
H459 C453 0.959 . S
H460 C453 0.961 . S
H461 C453 0.960 . S
H462 C454 0.930 . S
H463 C455 0.929 . S
H464 C472 0.929 . S
H465 C474 0.930 . S
H466 C476 0.930 . S
H467 C479 0.929 . S
H468 C482 0.930 . S
H469 C484 0.960 . S
H470 C484 0.960 . S
H471 C484 0.960 . S
C472 H464 0.929 . S
C472 C473 1.377 . S
C472 C474 1.384 . S
C473 C472 1.377 . S
C473 C479 1.390 . S
C474 H465 0.930 . S
C474 C472 1.384 . S
C474 C475 1.372 . S
C475 C474 1.372 . S
C475 C476 1.400 . S
C475 C480 1.490 . S
C476 H466 0.930 . S
C476 C475 1.400 . S
C476 C479 1.386 . S
H477 C493 0.930 . S
H478 C494 0.931 . S
C479 H467 0.929 . S
C479 C473 1.390 . S
C479 C476 1.386 . S
C480 C475 1.490 . S
C480 C482 1.395 . S
C480 C483 1.403 . S
H481 C487 0.930 . S
C482 H468 0.930 . S
C482 C480 1.395 . S
C482 C485 1.403 1_554 S
C483 C480 1.403 . S
C483 C484 1.524 . S
C483 C487 1.400 . S
C484 H469 0.960 . S
C484 H470 0.960 . S
C484 H471 0.960 . S
C484 C483 1.524 . S
C485 C482 1.403 1_556 S
C485 C486 1.392 . S
C485 C489 1.495 . S
C486 C485 1.392 . S
C486 C487 1.385 1_556 S
C486 C488 1.478 . S
C487 H481 0.930 . S
C487 C483 1.400 . S
C487 C486 1.385 1_554 S
C488 C486 1.478 . S
C488 C490 1.381 . S
C488 C494 1.383 . S
C489 C485 1.495 . S
C489 H495 0.959 . S
C489 H496 0.961 . S
C489 H497 0.960 . S
C490 C488 1.381 . S
C490 C491 1.394 . S
C490 H498 0.930 . S
C491 C490 1.394 . S
C491 C492 1.383 . S
C491 H499 0.929 . S
C492 C491 1.383 . S
C492 C493 1.377 . S
C493 H477 0.930 . S
C493 C492 1.377 . S
C493 C494 1.379 . S
C494 H478 0.931 . S
C494 C488 1.383 . S
C494 C493 1.379 . S
H495 C489 0.959 . S
H496 C489 0.961 . S
H497 C489 0.960 . S
H498 C490 0.930 . S
H499 C491 0.929 . S
H500 C508 0.929 . S
H501 C510 0.930 . S
H502 C512 0.930 . S
H503 C515 0.929 . S
H504 C518 0.930 . S
H505 C520 0.959 . S
H506 C520 0.960 1_554 S
H507 C520 0.961 1_554 S
C508 H500 0.929 . S
C508 C509 1.375 . S
C508 C510 1.384 . S
C509 C508 1.375 . S
C509 C515 1.392 1_455 S
C510 H501 0.930 . S
C510 C508 1.384 . S
C510 C511 1.412 . S
C511 C510 1.412 . S
C511 C512 1.359 1_455 S
C511 C516 1.490 . S
C512 H502 0.930 . S
C512 C511 1.359 1_655 S
C512 C515 1.386 . S
H513 C529 0.930 . S
H514 C530 0.931 . S
C515 H503 0.929 . S
C515 C509 1.392 1_655 S
C515 C512 1.386 . S
C516 C511 1.490 . S
C516 C518 1.416 . S
C516 C519 1.385 1_455 S
H517 C523 0.930 . S
C518 H504 0.930 . S
C518 C516 1.416 . S
C518 C521 1.403 . S
C519 C516 1.385 1_655 S
C519 C520 1.524 1_554 S
C519 C523 1.400 1_554 S
C520 H505 0.959 . S
C520 H506 0.960 1_556 S
C520 H507 0.961 1_556 S
C520 C519 1.524 1_556 S
C521 C518 1.403 . S
C521 C522 1.392 . S
C521 C525 1.495 . S
C522 C521 1.392 . S
C522 C523 1.385 1_454 S
C522 C524 1.480 1_554 S
C523 H517 0.930 . S
C523 C519 1.400 1_556 S
C523 C522 1.385 1_656 S
C524 C522 1.480 1_556 S
C524 C526 1.430 . S
C524 C530 1.332 1_455 S
C525 C521 1.495 . S
C525 H531 0.959 . S
C525 H532 0.961 . S
C525 H533 0.960 . S
C526 C524 1.430 . S
C526 C527 1.394 . S
C526 H534 0.930 . S
C527 C526 1.394 . S
C527 C528 1.370 1_455 S
C527 H535 0.929 . S
C528 C527 1.370 1_655 S
C528 C529 1.389 . S
C529 H513 0.930 . S
C529 C528 1.389 . S
C529 C530 1.379 . S
C530 H514 0.931 . S
C530 C524 1.332 1_655 S
C530 C529 1.379 . S
H531 C525 0.959 . S
H532 C525 0.961 . S
H533 C525 0.960 . S
H534 C526 0.930 . S
H535 C527 0.929 . S
H536 C544 0.929 . S
H537 C546 0.930 . S
H538 C548 0.930 . S
H539 C551 0.929 . S
H540 C554 0.930 . S
H541 C556 0.960 . S
H542 C556 0.960 . S
H543 C556 0.960 . S
C544 H536 0.929 . S
C544 C545 1.396 . S
C544 C546 1.384 . S
C545 C544 1.396 . S
C545 C551 1.365 1_455 S
C546 H537 0.930 . S
C546 C544 1.384 . S
C546 C547 1.372 1_455 S
C547 C546 1.372 1_655 S
C547 C548 1.400 . S
C547 C552 1.490 . S
C548 H538 0.930 . S
C548 C547 1.400 . S
C548 C551 1.386 . S
H549 C565 0.930 . S
H550 C566 0.931 . S
C551 H539 0.929 . S
C551 C545 1.365 1_655 S
C551 C548 1.386 . S
C552 C547 1.490 . S
C552 C554 1.395 1_655 S
C552 C555 1.403 . S
H553 C559 0.930 . S
C554 H540 0.930 . S
C554 C552 1.395 1_455 S
C554 C557 1.403 . S
C555 C552 1.403 . S
C555 C556 1.524 . S
C555 C559 1.400 . S
C556 H541 0.960 . S
C556 H542 0.960 . S
C556 H543 0.960 . S
C556 C555 1.524 . S
C557 C554 1.403 . S
C557 C558 1.392 1_455 S
C557 C561 1.495 . S
C558 C557 1.392 1_655 S
C558 C559 1.385 . S
C558 C560 1.478 . S
C559 H553 0.930 . S
C559 C555 1.400 . S
C559 C558 1.385 . S
C560 C558 1.478 . S
C560 C562 1.381 . S
C560 C566 1.383 . S
C561 C557 1.495 . S
C561 H567 0.959 . S
C561 H568 0.961 . S
C561 H569 0.960 . S
C562 C560 1.381 . S
C562 C563 1.394 . S
C562 H570 0.930 . S
C563 C562 1.394 . S
C563 C564 1.383 . S
C563 H571 0.929 . S
C564 C563 1.383 . S
C564 C565 1.377 . S
C565 H549 0.930 . S
C565 C564 1.377 . S
C565 C566 1.379 . S
C566 H550 0.931 . S
C566 C560 1.383 . S
C566 C565 1.379 . S
H567 C561 0.959 . S
H568 C561 0.961 . S
H569 C561 0.960 . S
H570 C562 0.930 . S
H571 C563 0.929 . S
H572 C580 0.929 . S
H573 C582 0.930 . S
H574 C584 0.930 . S
H575 C587 0.929 . S
H576 C590 0.914 1_545 S
H577 C592 0.960 . S
H578 C592 0.960 . S
H579 C592 0.960 . S
C580 H572 0.929 . S
C580 C581 1.348 1_565 S
C580 C582 1.384 . S
C581 C580 1.348 1_545 S
C581 C587 1.413 . S
C582 H573 0.930 . S
C582 C580 1.384 . S
C582 C583 1.372 . S
C583 C582 1.372 . S
C583 C584 1.400 1_565 S
C583 C588 1.490 . S
C584 H574 0.930 . S
C584 C583 1.400 1_545 S
C584 C587 1.386 . S
H585 C601 0.921 1_545 S
H586 C602 0.931 1_545 S
C587 H575 0.929 . S
C587 C581 1.413 . S
C587 C584 1.386 . S
C588 C583 1.490 . S
C588 C590 1.395 . S
C588 C591 1.403 . S
H589 C595 0.930 . S
C590 H576 0.914 1_565 S
C590 C588 1.395 . S
C590 C593 1.403 . S
C591 C588 1.403 . S
C591 C592 1.524 . S
C591 C595 1.400 . S
C592 H577 0.960 . S
C592 H578 0.960 . S
C592 H579 0.960 . S
C592 C591 1.524 . S
C593 C590 1.403 . S
C593 C594 1.392 . S
C593 C597 1.497 . S
C594 C593 1.392 . S
C594 C595 1.385 . S
C594 C596 1.478 . S
C595 H589 0.930 . S
C595 C591 1.400 . S
C595 C594 1.385 . S
C596 C594 1.478 . S
C596 C598 1.381 . S
C596 C602 1.383 . S
C597 C593 1.497 . S
C597 H603 0.957 1_565 S
C597 H604 0.956 1_565 S
C597 H605 0.965 . S
C598 C596 1.381 . S
C598 C599 1.394 . S
C598 H606 0.930 . S
C599 C598 1.394 . S
C599 C600 1.383 . S
C599 H607 0.929 . S
C600 C599 1.383 . S
C600 C601 1.377 . S
C601 H585 0.921 1_565 S
C601 C600 1.377 . S
C601 C602 1.379 . S
C602 H586 0.931 1_565 S
C602 C596 1.383 . S
C602 C601 1.379 . S
H603 C597 0.957 1_545 S
H604 C597 0.956 1_545 S
H605 C597 0.965 . S
H606 C598 0.930 . S
H607 C599 0.929 . S
H608 C616 0.929 . S
H609 C618 0.930 . S
H610 C620 0.930 . S
H611 C623 0.929 . S
H612 C626 0.930 . S
H613 C628 0.960 . S
H614 C628 0.960 . S
H615 C628 0.960 . S
C616 H608 0.929 . S
C616 C617 1.377 . S
C616 C618 1.384 . S
C617 C616 1.377 . S
C617 C623 1.390 . S
C618 H609 0.930 . S
C618 C616 1.384 . S
C618 C619 1.372 . S
C619 C618 1.372 . S
C619 C620 1.400 . S
C619 C624 1.490 . S
C620 H610 0.930 . S
C620 C619 1.400 . S
C620 C623 1.386 . S
H621 C637 0.930 . S
H622 C638 0.931 . S
C623 H611 0.929 . S
C623 C617 1.390 . S
C623 C620 1.386 . S
C624 C619 1.490 . S
C624 C626 1.395 . S
C624 C627 1.403 . S
H625 C631 0.930 . S
C626 H612 0.930 . S
C626 C624 1.395 . S
C626 C629 1.403 . S
C627 C624 1.403 . S
C627 C628 1.524 . S
C627 C631 1.400 . S
C628 H613 0.960 . S
C628 H614 0.960 . S
C628 H615 0.960 . S
C628 C627 1.524 . S
C629 C626 1.403 . S
C629 C630 1.392 . S
C629 C633 1.495 . S
C630 C629 1.392 . S
C630 C631 1.385 . S
C630 C632 1.478 . S
C631 H625 0.930 . S
C631 C627 1.400 . S
C631 C630 1.385 . S
C632 C630 1.478 . S
C632 C634 1.381 . S
C632 C638 1.383 . S
C633 C629 1.495 . S
C633 H639 0.959 . S
C633 H640 0.961 . S
C633 H641 0.960 . S
C634 C632 1.381 . S
C634 C635 1.394 . S
C634 H642 0.930 . S
C635 C634 1.394 . S
C635 C636 1.383 . S
C635 H643 0.929 . S
C636 C635 1.383 . S
C636 C637 1.377 . S
C637 H621 0.930 . S
C637 C636 1.377 . S
C637 C638 1.379 . S
C638 H622 0.931 . S
C638 C632 1.383 . S
C638 C637 1.379 . S
H639 C633 0.959 . S
H640 C633 0.961 . S
H641 C633 0.960 . S
H642 C634 0.930 . S
H643 C635 0.929 . S
H644 C652 0.929 . S
H645 C654 0.930 . S
H646 C656 0.930 . S
H647 C659 0.929 . S
H648 C662 0.930 . S
H649 C664 0.960 . S
H650 C664 0.960 . S
H651 C664 0.960 . S
C652 H644 0.929 . S
C652 C653 1.377 . S
C652 C654 1.384 . S
C653 C652 1.377 . S
C653 C659 1.390 . S
C654 H645 0.930 . S
C654 C652 1.384 . S
C654 C655 1.372 . S
C655 C654 1.372 . S
C655 C656 1.400 . S
C655 C660 1.490 . S
C656 H646 0.930 . S
C656 C655 1.400 . S
C656 C659 1.386 . S
H657 C673 0.930 . S
H658 C674 0.931 . S
C659 H647 0.929 . S
C659 C653 1.390 . S
C659 C656 1.386 . S
C660 C655 1.490 . S
C660 C662 1.395 . S
C660 C663 1.403 . S
H661 C667 0.930 . S
C662 H648 0.930 . S
C662 C660 1.395 . S
C662 C665 1.403 . S
C663 C660 1.403 . S
C663 C664 1.524 . S
C663 C667 1.400 . S
C664 H649 0.960 . S
C664 H650 0.960 . S
C664 H651 0.960 . S
C664 C663 1.524 . S
C665 C662 1.403 . S
C665 C666 1.392 . S
C665 C669 1.495 . S
C666 C665 1.392 . S
C666 C667 1.385 . S
C666 C668 1.478 . S
C667 H661 0.930 . S
C667 C663 1.400 . S
C667 C666 1.385 . S
C668 C666 1.478 . S
C668 C670 1.381 . S
C668 C674 1.383 . S
C669 C665 1.495 . S
C669 H675 0.959 . S
C669 H676 0.961 . S
C669 H677 0.960 . S
C670 C668 1.381 . S
C670 C671 1.394 . S
C670 H678 0.930 . S
C671 C670 1.394 . S
C671 C672 1.383 . S
C671 H679 0.929 . S
C672 C671 1.383 . S
C672 C673 1.377 . S
C673 H657 0.930 . S
C673 C672 1.377 . S
C673 C674 1.379 . S
C674 H658 0.931 . S
C674 C668 1.383 . S
C674 C673 1.379 . S
H675 C669 0.959 . S
H676 C669 0.961 . S
H677 C669 0.960 . S
H678 C670 0.930 . S
H679 C671 0.929 . S
H680 C688 0.929 . S
H681 C690 0.930 . S
H682 C692 0.930 . S
H683 C695 0.929 . S
H684 C698 0.930 . S
H685 C700 0.960 . S
H686 C700 0.960 . S
H687 C700 0.960 . S
C688 H680 0.929 . S
C688 C689 1.339 1_455 S
C688 C690 1.384 . S
C689 C688 1.339 1_655 S
C689 C695 1.421 . S
C690 H681 0.930 . S
C690 C688 1.384 . S
C690 C691 1.372 . S
C691 C690 1.372 . S
C691 C692 1.400 1_455 S
C691 C696 1.490 . S
C692 H682 0.930 . S
C692 C691 1.400 1_655 S
C692 C695 1.386 . S
H693 C709 0.930 1_655 S
H694 C710 0.931 1_655 S
C695 H683 0.929 . S
C695 C689 1.421 . S
C695 C692 1.386 . S
C696 C691 1.490 . S
C696 C698 1.395 . S
C696 C699 1.403 . S
H697 C703 0.930 . S
C698 H684 0.930 . S
C698 C696 1.395 . S
C698 C701 1.403 . S
C699 C696 1.403 . S
C699 C700 1.524 . S
C699 C703 1.400 . S
C700 H685 0.960 . S
C700 H686 0.960 . S
C700 H687 0.960 . S
C700 C699 1.524 . S
C701 C698 1.403 . S
C701 C702 1.392 . S
C701 C705 1.495 1_554 S
C702 C701 1.392 . S
C702 C703 1.385 . S
C702 C704 1.478 . S
C703 H697 0.930 . S
C703 C699 1.400 . S
C703 C702 1.385 . S
C704 C702 1.478 . S
C704 C706 1.381 1_554 S
C704 C710 1.383 . S
C705 C701 1.495 1_556 S
C705 H711 0.959 . S
C705 H712 0.956 . S
C705 H713 0.960 . S
C706 C704 1.381 1_556 S
C706 C707 1.394 . S
C706 H714 0.930 . S
C707 C706 1.394 . S
C707 C708 1.383 . S
C707 H715 0.929 . S
C708 C707 1.383 . S
C708 C709 1.377 1_556 S
C709 H693 0.930 1_455 S
C709 C708 1.377 1_554 S
C709 C710 1.379 . S
C710 H694 0.931 1_455 S
C710 C704 1.383 . S
C710 C709 1.379 . S
H711 C705 0.959 . S
H712 C705 0.956 . S
H713 C705 0.960 . S
H714 C706 0.930 . S
H715 C707 0.929 . S
H716 C724 0.929 . S
H717 C726 0.930 . S
H718 C728 0.930 . S
H719 C731 0.929 . S
H720 C734 0.930 . S
H721 C736 0.960 . S
H722 C736 0.960 . S
H723 C736 0.960 . S
C724 H716 0.929 . S
C724 C725 1.336 1_545 S
C724 C726 1.384 . S
C725 C724 1.336 1_565 S
C725 C731 1.425 . S
C726 H717 0.930 . S
C726 C724 1.384 . S
C726 C727 1.372 . S
C727 C726 1.372 . S
C727 C728 1.400 1_545 S
C727 C732 1.490 . S
C728 H718 0.930 . S
C728 C727 1.400 1_565 S
C728 C731 1.386 . S
H729 C745 0.930 1_565 S
H730 C746 0.931 1_565 S
C731 H719 0.929 . S
C731 C725 1.425 . S
C731 C728 1.386 . S
C732 C727 1.490 . S
C732 C734 1.395 . S
C732 C735 1.403 1_545 S
H733 C739 0.930 1_565 S
C734 H720 0.930 . S
C734 C732 1.395 . S
C734 C737 1.403 . S
C735 C732 1.403 1_565 S
C735 C736 1.524 . S
C735 C739 1.400 1_565 S
C736 H721 0.960 . S
C736 H722 0.960 . S
C736 H723 0.960 . S
C736 C735 1.524 . S
C737 C734 1.403 . S
C737 C738 1.392 . S
C737 C741 1.495 . S
C738 C737 1.392 . S
C738 C739 1.385 . S
C738 C740 1.478 . S
C739 H733 0.930 1_545 S
C739 C735 1.400 1_545 S
C739 C738 1.385 . S
C740 C738 1.478 . S
C740 C742 1.381 . S
C740 C746 1.383 1_554 S
C741 C737 1.495 . S
C741 H747 0.959 . S
C741 H748 0.961 1_554 S
C741 H749 0.960 . S
C742 C740 1.381 . S
C742 C743 1.394 . S
C742 H750 0.930 . S
C743 C742 1.394 . S
C743 C744 1.383 1_554 S
C743 H751 0.929 . S
C744 C743 1.383 1_556 S
C744 C745 1.377 . S
C745 H729 0.930 1_545 S
C745 C744 1.377 . S
C745 C746 1.379 . S
C746 H730 0.931 1_545 S
C746 C740 1.383 1_556 S
C746 C745 1.379 . S
H747 C741 0.959 . S
H748 C741 0.961 1_556 S
H749 C741 0.960 . S
H750 C742 0.930 . S
H751 C743 0.929 . S
H752 C760 0.929 . S
H753 C762 0.930 . S
H754 C764 0.930 . S
H755 C767 0.929 . S
H756 C770 0.930 . S
H757 C772 0.960 . S
H758 C772 0.960 . S
H759 C772 0.960 . S
C760 H752 0.929 . S
C760 C761 1.377 . S
C760 C762 1.384 . S
C761 C760 1.377 . S
C761 C767 1.390 . S
C762 H753 0.930 . S
C762 C760 1.384 . S
C762 C763 1.372 . S
C763 C762 1.372 . S
C763 C764 1.400 . S
C763 C768 1.490 . S
C764 H754 0.930 . S
C764 C763 1.400 . S
C764 C767 1.386 . S
H765 C781 0.930 . S
H766 C782 0.931 . S
C767 H755 0.929 . S
C767 C761 1.390 . S
C767 C764 1.386 . S
C768 C763 1.490 . S
C768 C770 1.395 . S
C768 C771 1.403 . S
H769 C775 0.930 . S
C770 H756 0.930 . S
C770 C768 1.395 . S
C770 C773 1.403 . S
C771 C768 1.403 . S
C771 C772 1.524 . S
C771 C775 1.400 . S
C772 H757 0.960 . S
C772 H758 0.960 . S
C772 H759 0.960 . S
C772 C771 1.524 . S
C773 C770 1.403 . S
C773 C774 1.392 . S
C773 C777 1.495 . S
C774 C773 1.392 . S
C774 C775 1.385 . S
C774 C776 1.478 . S
C775 H769 0.930 . S
C775 C771 1.400 . S
C775 C774 1.385 . S
C776 C774 1.478 . S
C776 C778 1.381 . S
C776 C782 1.383 . S
C777 C773 1.495 . S
C777 H783 0.959 . S
C777 H784 0.961 . S
C777 H785 0.960 . S
C778 C776 1.381 . S
C778 C779 1.394 1_554 S
C778 H786 0.930 . S
C779 C778 1.394 1_556 S
C779 C780 1.383 . S
C779 H787 0.929 . S
C780 C779 1.383 . S
C780 C781 1.377 1_556 S
C781 H765 0.930 . S
C781 C780 1.377 1_554 S
C781 C782 1.379 . S
C782 H766 0.931 . S
C782 C776 1.383 . S
C782 C781 1.379 . S
H783 C777 0.959 . S
H784 C777 0.961 . S
H785 C777 0.960 . S
H786 C778 0.930 . S
H787 C779 0.929 . S
H788 C796 0.929 . S
H789 C798 0.930 . S
H790 C800 0.930 . S
H791 C803 0.929 . S
H792 C806 0.930 . S
H793 C808 0.960 . S
H794 C808 0.960 . S
H795 C808 0.960 . S
C796 H788 0.929 . S
C796 C797 1.377 . S
C796 C798 1.384 . S
C797 C796 1.377 . S
C797 C803 1.390 . S
C798 H789 0.930 . S
C798 C796 1.384 . S
C798 C799 1.372 . S
C799 C798 1.372 . S
C799 C800 1.400 . S
C799 C804 1.490 . S
C800 H790 0.930 . S
C800 C799 1.400 . S
C800 C803 1.386 . S
H801 C817 0.930 . S
H802 C818 0.931 . S
C803 H791 0.929 . S
C803 C797 1.390 . S
C803 C800 1.386 . S
C804 C799 1.490 . S
C804 C806 1.395 . S
C804 C807 1.403 . S
H805 C811 0.930 . S
C806 H792 0.930 . S
C806 C804 1.395 . S
C806 C809 1.403 . S
C807 C804 1.403 . S
C807 C808 1.524 . S
C807 C811 1.400 . S
C808 H793 0.960 . S
C808 H794 0.960 . S
C808 H795 0.960 . S
C808 C807 1.524 . S
C809 C806 1.403 . S
C809 C810 1.392 . S
C809 C813 1.495 1_554 S
C810 C809 1.392 . S
C810 C811 1.385 . S
C810 C812 1.478 . S
C811 H805 0.930 . S
C811 C807 1.400 . S
C811 C810 1.385 . S
C812 C810 1.478 . S
C812 C814 1.381 . S
C812 C818 1.383 . S
C813 C809 1.495 1_556 S
C813 H819 0.959 . S
C813 H820 0.961 . S
C813 H821 0.960 . S
C814 C812 1.381 . S
C814 C815 1.394 1_554 S
C814 H822 0.930 . S
C815 C814 1.394 1_556 S
C815 C816 1.383 . S
C815 H823 0.929 . S
C816 C815 1.383 . S
C816 C817 1.377 . S
C817 H801 0.930 . S
C817 C816 1.377 . S
C817 C818 1.379 1_556 S
C818 H802 0.931 . S
C818 C812 1.383 . S
C818 C817 1.379 1_554 S
H819 C813 0.959 . S
H820 C813 0.961 . S
H821 C813 0.960 . S
H822 C814 0.930 . S
H823 C815 0.929 . S
H824 C832 0.929 . S
H825 C834 0.930 . S
H826 C836 0.930 . S
H827 C839 0.929 . S
H828 C842 0.930 . S
H829 C844 0.960 . S
H830 C844 0.960 1_554 S
H831 C844 0.960 . S
C832 H824 0.929 . S
C832 C833 1.343 1_655 S
C832 C834 1.384 . S
C833 C832 1.343 1_455 S
C833 C839 1.426 . S
C834 H825 0.930 . S
C834 C832 1.384 . S
C834 C835 1.372 1_655 S
C835 C834 1.372 1_455 S
C835 C836 1.400 . S
C835 C840 1.490 . S
C836 H826 0.930 . S
C836 C835 1.400 . S
C836 C839 1.386 . S
H837 C853 0.930 . S
H838 C854 0.931 . S
C839 H827 0.929 . S
C839 C833 1.426 . S
C839 C836 1.386 . S
C840 C835 1.490 . S
C840 C842 1.395 1_455 S
C840 C843 1.403 . S
H841 C847 0.930 . S
C842 H828 0.930 . S
C842 C840 1.395 1_655 S
C842 C845 1.403 . S
C843 C840 1.403 . S
C843 C844 1.524 . S
C843 C847 1.400 . S
C844 H829 0.960 . S
C844 H830 0.960 1_556 S
C844 H831 0.960 . S
C844 C843 1.524 . S
C845 C842 1.403 . S
C845 C846 1.392 1_655 S
C845 C849 1.495 . S
C846 C845 1.392 1_455 S
C846 C847 1.385 . S
C846 C848 1.478 . S
C847 H841 0.930 . S
C847 C843 1.400 . S
C847 C846 1.385 . S
C848 C846 1.478 . S
C848 C850 1.381 1_455 S
C848 C854 1.383 . S
C849 C845 1.495 . S
C849 H855 0.959 . S
C849 H856 0.961 . S
C849 H857 0.960 . S
C850 C848 1.381 1_655 S
C850 C851 1.394 . S
C850 H858 0.930 . S
C851 C850 1.394 . S
C851 C852 1.383 1_655 S
C851 H859 0.929 . S
C852 C851 1.383 1_455 S
C852 C853 1.377 . S
C853 H837 0.930 . S
C853 C852 1.377 . S
C853 C854 1.379 . S
C854 H838 0.931 . S
C854 C848 1.383 . S
C854 C853 1.379 . S
H855 C849 0.959 . S
H856 C849 0.961 . S
H857 C849 0.960 . S
H858 C850 0.930 . S
H859 C851 0.929 . S
H860 C868 0.929 . S
H861 C870 0.930 . S
H862 C872 0.930 . S
H863 C875 0.929 . S
H864 C878 0.930 . S
H865 C880 0.960 . S
H866 C880 0.960 . S
H867 C880 0.960 . S
C868 H860 0.929 . S
C868 C869 1.430 . S
C868 C870 1.384 . S
C869 C868 1.430 . S
C869 C875 1.340 1_545 S
C870 H861 0.930 . S
C870 C868 1.384 . S
C870 C871 1.372 . S
C871 C870 1.372 . S
C871 C872 1.400 1_545 S
C871 C876 1.490 . S
C872 H862 0.930 . S
C872 C871 1.400 1_565 S
C872 C875 1.386 . S
H873 C889 0.930 . S
H874 C890 0.931 . S
C875 H863 0.929 . S
C875 C869 1.340 1_565 S
C875 C872 1.386 . S
C876 C871 1.490 . S
C876 C878 1.395 . S
C876 C879 1.403 1_545 S
H877 C883 0.930 . S
C878 H864 0.930 . S
C878 C876 1.395 . S
C878 C881 1.403 . S
C879 C876 1.403 1_565 S
C879 C880 1.524 . S
C879 C883 1.400 . S
C880 H865 0.960 . S
C880 H866 0.960 . S
C880 H867 0.960 . S
C880 C879 1.524 . S
C881 C878 1.403 . S
C881 C882 1.392 . S
C881 C885 1.495 . S
C882 C881 1.392 . S
C882 C883 1.385 1_545 S
C882 C884 1.478 . S
C883 H877 0.930 . S
C883 C879 1.400 . S
C883 C882 1.385 1_565 S
C884 C882 1.478 . S
C884 C886 1.381 . S
C884 C890 1.383 1_545 S
C885 C881 1.495 . S
C885 H891 0.959 . S
C885 H892 0.961 . S
C885 H893 0.960 . S
C886 C884 1.381 . S
C886 C887 1.394 . S
C886 H894 0.930 . S
C887 C886 1.394 . S
C887 C888 1.383 . S
C887 H895 0.929 . S
C888 C887 1.383 . S
C888 C889 1.377 1_545 S
C889 H873 0.930 . S
C889 C888 1.377 1_565 S
C889 C890 1.379 . S
C890 H874 0.931 . S
C890 C884 1.383 1_565 S
C890 C889 1.379 . S
H891 C885 0.959 . S
H892 C885 0.961 . S
H893 C885 0.960 . S
H894 C886 0.930 . S
H895 C887 0.929 . S
H896 C904 0.929 . S
H897 C906 0.930 . S
H898 C908 0.930 . S
H899 C911 0.929 1_554 S
H900 C914 0.930 . S
H901 C916 0.960 . S
H902 C916 0.960 . S
H903 C916 0.960 . S
C904 H896 0.929 . S
C904 C905 1.377 . S
C904 C906 1.384 . S
C905 C904 1.377 . S
C905 C911 1.390 . S
C906 H897 0.930 . S
C906 C904 1.384 . S
C906 C907 1.372 . S
C907 C906 1.372 . S
C907 C908 1.400 . S
C907 C912 1.490 . S
C908 H898 0.930 . S
C908 C907 1.400 . S
C908 C911 1.386 . S
H909 C925 0.930 . S
H910 C926 0.931 . S
C911 H899 0.929 1_556 S
C911 C905 1.390 . S
C911 C908 1.386 . S
C912 C907 1.490 . S
C912 C914 1.395 . S
C912 C915 1.403 . S
H913 C919 0.930 . S
C914 H900 0.930 . S
C914 C912 1.395 . S
C914 C917 1.403 . S
C915 C912 1.403 . S
C915 C916 1.524 . S
C915 C919 1.400 . S
C916 H901 0.960 . S
C916 H902 0.960 . S
C916 H903 0.960 . S
C916 C915 1.524 . S
C917 C914 1.403 . S
C917 C918 1.392 . S
C917 C921 1.495 . S
C918 C917 1.392 . S
C918 C919 1.385 . S
C918 C920 1.478 . S
C919 H913 0.930 . S
C919 C915 1.400 . S
C919 C918 1.385 . S
C920 C918 1.478 . S
C920 C922 1.381 . S
C920 C926 1.383 . S
C921 C917 1.495 . S
C921 H927 0.959 . S
C921 H928 0.961 . S
C921 H929 0.960 . S
C922 C920 1.381 . S
C922 C923 1.394 . S
C922 H930 0.930 . S
C923 C922 1.394 . S
C923 C924 1.383 . S
C923 H931 0.929 . S
C924 C923 1.383 . S
C924 C925 1.377 . S
C925 H909 0.930 . S
C925 C924 1.377 . S
C925 C926 1.379 . S
C926 H910 0.931 . S
C926 C920 1.383 . S
C926 C925 1.379 . S
H927 C921 0.959 . S
H928 C921 0.961 . S
H929 C921 0.960 . S
H930 C922 0.930 . S
H931 C923 0.929 . S
H932 C940 0.929 . S
H933 C942 0.930 . S
H934 C944 0.930 . S
H935 C947 0.929 . S
H936 C950 0.930 . S
H937 C952 0.960 1_554 S
H938 C952 0.960 1_554 S
H939 C952 0.960 . S
C940 H932 0.929 . S
C940 C941 1.377 . S
C940 C942 1.384 . S
C941 C940 1.377 . S
C941 C947 1.390 . S
C942 H933 0.930 . S
C942 C940 1.384 . S
C942 C943 1.372 . S
C943 C942 1.372 . S
C943 C944 1.400 . S
C943 C948 1.490 . S
C944 H934 0.930 . S
C944 C943 1.400 . S
C944 C947 1.386 . S
H945 C961 0.930 . S
H946 C962 0.931 . S
C947 H935 0.929 . S
C947 C941 1.390 . S
C947 C944 1.386 . S
C948 C943 1.490 . S
C948 C950 1.395 . S
C948 C951 1.403 . S
H949 C955 0.930 . S
C950 H936 0.930 . S
C950 C948 1.395 . S
C950 C953 1.403 . S
C951 C948 1.403 . S
C951 C952 1.524 . S
C951 C955 1.400 . S
C952 H937 0.960 1_556 S
C952 H938 0.960 1_556 S
C952 H939 0.960 . S
C952 C951 1.524 . S
C953 C950 1.403 . S
C953 C954 1.392 . S
C953 C957 1.495 . S
C954 C953 1.392 . S
C954 C955 1.385 . S
C954 C956 1.478 . S
C955 H949 0.930 . S
C955 C951 1.400 . S
C955 C954 1.385 . S
C956 C954 1.478 . S
C956 C958 1.381 . S
C956 C962 1.383 . S
C957 C953 1.495 . S
C957 H963 0.959 . S
C957 H964 0.961 . S
C957 H965 0.960 . S
C958 C956 1.381 . S
C958 C959 1.394 . S
C958 H966 0.930 . S
C959 C958 1.394 . S
C959 C960 1.383 . S
C959 H967 0.929 . S
C960 C959 1.383 . S
C960 C961 1.377 . S
C961 H945 0.930 . S
C961 C960 1.377 . S
C961 C962 1.379 . S
C962 H946 0.931 . S
C962 C956 1.383 . S
C962 C961 1.379 . S
H963 C957 0.959 . S
H964 C957 0.961 . S
H965 C957 0.960 . S
H966 C958 0.930 . S
H967 C959 0.929 . S
H968 C976 0.929 . S
H969 C978 0.930 . S
H970 C980 0.930 . S
H971 C983 0.929 . S
H972 C986 0.930 . S
H973 C988 0.960 . S
H974 C988 0.960 . S
H975 C988 0.960 . S
C976 H968 0.929 . S
C976 C977 1.352 1_455 S
C976 C978 1.384 . S
C977 C976 1.352 1_655 S
C977 C983 1.419 . S
C978 H969 0.930 . S
C978 C976 1.384 . S
C978 C979 1.372 1_455 S
C979 C978 1.372 1_655 S
C979 C980 1.400 . S
C979 C984 1.490 . S
C980 H970 0.930 . S
C980 C979 1.400 . S
C980 C983 1.386 . S
H981 C997 0.930 . S
H982 C998 0.931 . S
C983 H971 0.929 . S
C983 C977 1.419 . S
C983 C980 1.386 . S
C984 C979 1.490 . S
C984 C986 1.395 1_655 S
C984 C987 1.403 . S
H985 C991 0.930 . S
C986 H972 0.930 . S
C986 C984 1.395 1_455 S
C986 C989 1.403 . S
C987 C984 1.403 . S
C987 C988 1.524 . S
C987 C991 1.400 . S
C988 H973 0.960 . S
C988 H974 0.960 . S
C988 H975 0.960 . S
C988 C987 1.524 . S
C989 C986 1.403 . S
C989 C990 1.359 1_455 S
C989 C993 1.495 . S
C990 C989 1.359 1_655 S
C990 C991 1.419 . S
C990 C992 1.479 . S
C991 H985 0.930 . S
C991 C987 1.400 . S
C991 C990 1.419 . S
C992 C990 1.479 . S
C992 C994 1.381 1_655 S
C992 C998 1.383 . S
C993 C989 1.495 . S
C993 H999 0.959 . S
C993 H1000 0.961 . S
C993 H1001 0.960 . S
C994 C992 1.381 1_455 S
C994 C995 1.394 . S
C994 H1002 0.930 . S
C995 C994 1.394 . S
C995 C996 1.383 1_455 S
C995 H1003 0.929 . S
C996 C995 1.383 1_655 S
C996 C997 1.377 . S
C997 H981 0.930 . S
C997 C996 1.377 . S
C997 C998 1.379 . S
C998 H982 0.931 . S
C998 C992 1.383 . S
C998 C997 1.379 . S
H999 C993 0.959 . S
H1000 C993 0.961 . S
H1001 C993 0.960 . S
H1002 C994 0.930 . S
H1003 C995 0.929 . S
H1004 C1012 0.929 . S
H1005 C1014 0.930 . S
H1006 C1016 0.930 . S
H1007 C1019 0.929 . S
H1008 C1022 0.930 . S
H1009 C1024 0.960 . S
H1010 C1024 0.960 . S
H1011 C1024 0.960 . S
C1012 H1004 0.929 . S
C1012 C1013 1.355 1_545 S
C1012 C1014 1.384 . S
C1013 C1012 1.355 1_565 S
C1013 C1019 1.413 . S
C1014 H1005 0.930 . S
C1014 C1012 1.384 . S
C1014 C1015 1.372 1_545 S
C1015 C1014 1.372 1_565 S
C1015 C1016 1.400 . S
C1015 C1020 1.490 . S
C1016 H1006 0.930 . S
C1016 C1015 1.400 . S
C1016 C1019 1.386 . S
H1017 C1033 0.930 . S
H1018 C1034 0.931 . S
C1019 H1007 0.929 . S
C1019 C1013 1.413 . S
C1019 C1016 1.386 . S
C1020 C1015 1.490 . S
C1020 C1022 1.395 1_565 S
C1020 C1023 1.403 . S
H1021 C1027 0.930 . S
C1022 H1008 0.930 . S
C1022 C1020 1.395 1_545 S
C1022 C1025 1.403 . S
C1023 C1020 1.403 . S
C1023 C1024 1.524 . S
C1023 C1027 1.400 . S
C1024 H1009 0.960 . S
C1024 H1010 0.960 . S
C1024 H1011 0.960 . S
C1024 C1023 1.524 . S
C1025 C1022 1.403 . S
C1025 C1026 1.392 1_545 S
C1025 C1029 1.495 . S
C1026 C1025 1.392 1_565 S
C1026 C1027 1.385 . S
C1026 C1028 1.478 . S
C1027 H1021 0.930 . S
C1027 C1023 1.400 . S
C1027 C1026 1.385 . S
C1028 C1026 1.478 . S
C1028 C1030 1.381 1_565 S
C1028 C1034 1.383 . S
C1029 C1025 1.495 . S
C1029 H1035 0.959 . S
C1029 H1036 0.961 . S
C1029 H1037 0.960 . S
C1030 C1028 1.381 1_545 S
C1030 C1031 1.394 . S
C1030 H1038 0.930 . S
C1031 C1030 1.394 . S
C1031 C1032 1.383 1_545 S
C1031 H1039 0.929 . S
C1032 C1031 1.383 1_565 S
C1032 C1033 1.377 . S
C1033 H1017 0.930 . S
C1033 C1032 1.377 . S
C1033 C1034 1.379 . S
C1034 H1018 0.931 . S
C1034 C1028 1.383 . S
C1034 C1033 1.379 . S
H1035 C1029 0.959 . S
H1036 C1029 0.961 . S
H1037 C1029 0.960 . S
H1038 C1030 0.930 . S
H1039 C1031 0.929 . S
H1040 C1048 0.929 . S
H1041 C1050 0.930 . S
H1042 C1052 0.930 . S
H1043 C1055 0.929 . S
H1044 C1058 0.930 . S
H1045 C1060 0.960 . S
H1046 C1060 0.960 . S
H1047 C1060 0.960 . S
C1048 H1040 0.929 . S
C1048 C1049 1.377 . S
C1048 C1050 1.384 . S
C1049 C1048 1.377 . S
C1049 C1055 1.390 . S
C1050 H1041 0.930 . S
C1050 C1048 1.384 . S
C1050 C1051 1.372 . S
C1051 C1050 1.372 . S
C1051 C1052 1.400 . S
C1051 C1056 1.490 . S
C1052 H1042 0.930 . S
C1052 C1051 1.400 . S
C1052 C1055 1.386 . S
H1053 C1069 0.930 . S
H1054 C1070 0.931 . S
C1055 H1043 0.929 . S
C1055 C1049 1.390 . S
C1055 C1052 1.386 . S
C1056 C1051 1.490 . S
C1056 C1058 1.395 . S
C1056 C1059 1.403 . S
H1057 C1063 0.930 . S
C1058 H1044 0.930 . S
C1058 C1056 1.395 . S
C1058 C1061 1.403 . S
C1059 C1056 1.403 . S
C1059 C1060 1.524 . S
C1059 C1063 1.400 . S
C1060 H1045 0.960 . S
C1060 H1046 0.960 . S
C1060 H1047 0.960 . S
C1060 C1059 1.524 . S
C1061 C1058 1.403 . S
C1061 C1062 1.392 . S
C1061 C1065 1.495 . S
C1062 C1061 1.392 . S
C1062 C1063 1.385 . S
C1062 C1064 1.478 . S
C1063 H1057 0.930 . S
C1063 C1059 1.400 . S
C1063 C1062 1.385 . S
C1064 C1062 1.478 . S
C1064 C1066 1.381 . S
C1064 C1070 1.383 . S
C1065 C1061 1.495 . S
C1065 H1071 0.959 . S
C1065 H1072 0.961 . S
C1065 H1073 0.960 . S
C1066 C1064 1.381 . S
C1066 C1067 1.394 . S
C1066 H1074 0.930 . S
C1067 C1066 1.394 . S
C1067 C1068 1.383 . S
C1067 H1075 0.929 . S
C1068 C1067 1.383 . S
C1068 C1069 1.377 . S
C1069 H1053 0.930 . S
C1069 C1068 1.377 . S
C1069 C1070 1.379 . S
C1070 H1054 0.931 . S
C1070 C1064 1.383 . S
C1070 C1069 1.379 . S
H1071 C1065 0.959 . S
H1072 C1065 0.961 . S
H1073 C1065 0.960 . S
H1074 C1066 0.930 . S
H1075 C1067 0.929 . S
H1076 C1084 0.929 . S
H1077 C1086 0.930 . S
H1078 C1088 0.930 . S
H1079 C1091 0.929 . S
H1080 C1094 0.930 . S
H1081 C1096 0.960 . S
H1082 C1096 0.960 . S
H1083 C1096 0.960 . S
C1084 H1076 0.929 . S
C1084 C1085 1.377 . S
C1084 C1086 1.384 . S
C1085 C1084 1.377 . S
C1085 C1091 1.390 . S
C1086 H1077 0.930 . S
C1086 C1084 1.384 . S
C1086 C1087 1.372 . S
C1087 C1086 1.372 . S
C1087 C1088 1.400 . S
C1087 C1092 1.490 . S
C1088 H1078 0.930 . S
C1088 C1087 1.400 . S
C1088 C1091 1.386 . S
H1089 C1105 0.930 . S
H1090 C1106 0.931 . S
C1091 H1079 0.929 . S
C1091 C1085 1.390 . S
C1091 C1088 1.386 . S
C1092 C1087 1.490 . S
C1092 C1094 1.395 . S
C1092 C1095 1.403 . S
H1093 C1099 0.930 . S
C1094 H1080 0.930 . S
C1094 C1092 1.395 . S
C1094 C1097 1.403 . S
C1095 C1092 1.403 . S
C1095 C1096 1.524 . S
C1095 C1099 1.400 . S
C1096 H1081 0.960 . S
C1096 H1082 0.960 . S
C1096 H1083 0.960 . S
C1096 C1095 1.524 . S
C1097 C1094 1.403 . S
C1097 C1098 1.392 . S
C1097 C1101 1.495 . S
C1098 C1097 1.392 . S
C1098 C1099 1.385 . S
C1098 C1100 1.478 . S
C1099 H1093 0.930 . S
C1099 C1095 1.400 . S
C1099 C1098 1.385 . S
C1100 C1098 1.478 . S
C1100 C1102 1.381 . S
C1100 C1106 1.383 . S
C1101 C1097 1.495 . S
C1101 H1107 0.959 . S
C1101 H1108 0.961 . S
C1101 H1109 0.960 . S
C1102 C1100 1.381 . S
C1102 C1103 1.394 . S
C1102 H1110 0.930 . S
C1103 C1102 1.394 . S
C1103 C1104 1.383 . S
C1103 H1111 0.929 . S
C1104 C1103 1.383 . S
C1104 C1105 1.377 . S
C1105 H1089 0.930 . S
C1105 C1104 1.377 . S
C1105 C1106 1.379 . S
C1106 H1090 0.931 . S
C1106 C1100 1.383 . S
C1106 C1105 1.379 . S
H1107 C1101 0.959 . S
H1108 C1101 0.961 . S
H1109 C1101 0.960 . S
H1110 C1102 0.930 . S
H1111 C1103 0.929 . S
C257 C76 1.768 1_545 S
C276 C106 1.832 . S
C312 C146 1.854 . S
C293 C87 1.761 . S
C348 C186 1.844 . S
C329 C54 1.769 . S
C384 C226 1.837 1_455 S
C365 C65 1.767 . S
C420 C96 1.836 . S
C401 C32 1.768 . S
C437 C43 1.760 . S
C456 C136 1.856 . S
C473 C10 1.771 . S
C492 C176 1.845 . S
C509 C21 1.760 1_455 S
C528 C216 1.856 1_655 S
C564 C93 0.248 . S
C545 C60 0.349 . S
C600 C133 0.306 . S
C581 C71 0.368 . S
C636 C173 0.311 . S
C617 C82 0.372 . S
C653 C49 0.388 . S
C672 C213 0.365 . S
C689 C16 0.359 1_655 S
C708 C103 0.289 . S
C744 C143 0.346 . S
C725 C27 0.352 1_565 S
C780 C183 0.298 . S
C761 C38 0.400 . S
C797 C5 0.363 . S
C816 C223 0.323 . S
C833 C59 1.884 . S
C852 C97 2.053 . S
C869 C70 1.888 . S
C888 C137 2.064 . S
C924 C177 2.067 . S
C905 C81 1.884 . S
C960 C217 2.061 . S
C941 C48 1.876 . S
C977 C15 1.897 1_655 S
C996 C107 2.062 . S
C1032 C147 2.050 . S
C1013 C26 1.889 1_565 S
C1068 C187 2.066 . S
C1049 C37 1.874 . S
C1085 C4 1.893 . S
C1104 C227 2.062 . S
