# Generated by pormake.
# Topology zzz, (3,6)-cn, num edge types: 1
# Building blocks:
#     Node 0, Type 0, BuildingBlock: BETDAH_clean_linker_0, # of connection points: 3
#     Node 1, Type 0, BuildingBlock: BETDAH_clean_linker_0, # of connection points: 3
#     Node 2, Type 0, BuildingBlock: BETDAH_clean_linker_0, # of connection points: 3
#     Node 3, Type 0, BuildingBlock: BETDAH_clean_linker_0, # of connection points: 3
#     Node 4, Type 0, BuildingBlock: BETDAH_clean_linker_0, # of connection points: 3
#     Node 5, Type 0, BuildingBlock: BETDAH_clean_linker_0, # of connection points: 3
#     Node 6, Type 0, BuildingBlock: BETDAH_clean_linker_0, # of connection points: 3
#     Node 7, Type 0, BuildingBlock: BETDAH_clean_linker_0, # of connection points: 3
#     Node 8, Type 1, BuildingBlock: BETFEN_clean_sbu_0, # of connection points: 6
#     Node 9, Type 1, BuildingBlock: BETFEN_clean_sbu_0, # of connection points: 6
#     Node 10, Type 1, BuildingBlock: BETFEN_clean_sbu_0, # of connection points: 6
#     Node 11, Type 1, BuildingBlock: BETFEN_clean_sbu_0, # of connection points: 6
#     Edge 12, Type (0, 1), BuildingBlock: XUDNAN_clean_linker_2, # of connection points: 2
#     Edge 13, Type (0, 1), BuildingBlock: XUDNAN_clean_linker_2, # of connection points: 2
#     Edge 14, Type (0, 1), BuildingBlock: XUDNAN_clean_linker_2, # of connection points: 2
#     Edge 15, Type (0, 1), BuildingBlock: XUDNAN_clean_linker_2, # of connection points: 2
#     Edge 16, Type (0, 1), BuildingBlock: XUDNAN_clean_linker_2, # of connection points: 2
#     Edge 17, Type (0, 1), BuildingBlock: XUDNAN_clean_linker_2, # of connection points: 2
#     Edge 18, Type (0, 1), BuildingBlock: XUDNAN_clean_linker_2, # of connection points: 2
#     Edge 19, Type (0, 1), BuildingBlock: XUDNAN_clean_linker_2, # of connection points: 2
#     Edge 20, Type (0, 1), BuildingBlock: XUDNAN_clean_linker_2, # of connection points: 2
#     Edge 21, Type (0, 1), BuildingBlock: XUDNAN_clean_linker_2, # of connection points: 2
#     Edge 22, Type (0, 1), BuildingBlock: XUDNAN_clean_linker_2, # of connection points: 2
#     Edge 23, Type (0, 1), BuildingBlock: XUDNAN_clean_linker_2, # of connection points: 2
#     Edge 24, Type (0, 1), BuildingBlock: XUDNAN_clean_linker_2, # of connection points: 2
#     Edge 25, Type (0, 1), BuildingBlock: XUDNAN_clean_linker_2, # of connection points: 2
#     Edge 26, Type (0, 1), BuildingBlock: XUDNAN_clean_linker_2, # of connection points: 2
#     Edge 27, Type (0, 1), BuildingBlock: XUDNAN_clean_linker_2, # of connection points: 2
#     Edge 28, Type (0, 1), BuildingBlock: XUDNAN_clean_linker_2, # of connection points: 2
#     Edge 29, Type (0, 1), BuildingBlock: XUDNAN_clean_linker_2, # of connection points: 2
#     Edge 30, Type (0, 1), BuildingBlock: XUDNAN_clean_linker_2, # of connection points: 2
#     Edge 31, Type (0, 1), BuildingBlock: XUDNAN_clean_linker_2, # of connection points: 2
#     Edge 32, Type (0, 1), BuildingBlock: XUDNAN_clean_linker_2, # of connection points: 2
#     Edge 33, Type (0, 1), BuildingBlock: XUDNAN_clean_linker_2, # of connection points: 2
#     Edge 34, Type (0, 1), BuildingBlock: XUDNAN_clean_linker_2, # of connection points: 2
#     Edge 35, Type (0, 1), BuildingBlock: XUDNAN_clean_linker_2, # of connection points: 2
# Relax obj value: 0.280
# Max RMSD: 0.192
# Mean RMSD: 0.163
data_MOF--net-zzz--node1-BETFEN_clean_sbu_0--node2-BETDAH_clean_linker_0--edge1-XUDNAN_clean_linker_2
_symmetry_space_group_name_H-M    P1
_symmetry_Int_Tables_number       1
_symmetry_cell_setting            triclinic
loop_
_symmetry_equiv_pos_as_xyz
'x, y, z'
_cell_length_a     51.947641
_cell_length_b     52.041913
_cell_length_c     13.582483
_cell_angle_alpha  89.702831
_cell_angle_beta   90.012562
_cell_angle_gamma 89.852517
loop_
_atom_site_label
_atom_site_type_symbol
_atom_site_fract_x
_atom_site_fract_y
_atom_site_fract_z
_atom_type_partial_charge
H0 H 0.80656 0.51859 0.26541 0.0
H1 H 0.72568 0.52577 0.21747 0.0
H2 H 0.7558 0.52756 0.51404 0.0
C3 C 0.78749 0.52101 0.29647 0.0
C4 C 0.78443 0.52369 0.39849 0.0
C5 C 0.76649 0.52215 0.23199 0.0
C6 C 0.74161 0.52463 0.26875 0.0
C7 C 0.73749 0.52586 0.37102 0.0
C8 C 0.75899 0.52571 0.43562 0.0
N9 N 0.71206 0.52778 0.40999 0.0
C10 C 0.68972 0.52604 0.35268 0.0
H11 H 0.05163 0.81305 0.37556 0.0
H12 H 0.04873 0.73715 0.25246 0.0
H13 H 0.98976 0.76283 0.45343 0.0
C14 C 0.04311 0.79408 0.37305 0.0
C15 C 1.02035 0.78996 0.42551 0.0
C16 C 0.05367 0.77529 0.31079 0.0
C17 C 0.04096 0.75159 0.30138 0.0
C18 C 1.0179 0.74689 0.35325 0.0
C19 C 1.00769 0.76622 0.41485 0.0
N20 N 1.00411 0.72337 0.34337 0.0
C21 C 1.01066 0.7032 0.28038 0.0
H22 H 0.72606 0.05779 0.46374 0.0
H23 H 0.79744 0.04857 0.309 0.0
H24 H 0.77224 0.99051 0.51516 0.0
C25 C 0.7439 0.04726 0.4534 0.0
C26 C 0.74708 0.02344 0.50004 0.0
C27 C 0.76183 0.05636 0.38444 0.0
C28 C 0.78403 0.04185 0.36441 0.0
C29 C 0.78822 1.01829 0.41372 0.0
C30 C 0.76951 1.0091 0.48033 0.0
N31 N 0.81031 1.00277 0.39527 0.0
C32 C 0.83029 1.00897 0.33077 0.0
H33 H 0.52488 0.72142 0.32249 0.0
H34 H 0.52732 0.80256 0.28084 0.0
H35 H 0.518 0.77132 0.57391 0.0
C36 C 0.52478 0.74034 0.35545 0.0
C37 C 0.52213 0.74304 0.45768 0.0
C38 C 0.52704 0.76166 0.29293 0.0
C39 C 0.52551 0.78641 0.33073 0.0
C40 C 0.52163 0.79009 0.43224 0.0
C41 C 0.5203 0.76835 0.49559 0.0
N42 N 0.51902 0.81533 0.47189 0.0
C43 C 0.51845 0.83773 0.41434 0.0
H44 H 0.22335 0.55668 0.09441 0.0
H45 H 0.29999 0.5488 0.20885 0.0
H46 H 0.27696 0.50662 0.94985 0.0
C47 C 0.24253 0.54848 0.08902 0.0
C48 C 0.24764 0.5308 0.01452 0.0
C49 C 0.26133 0.5554 0.15793 0.0
C50 C 0.2857 0.54385 0.1541 0.0
C51 C 0.29162 0.52633 0.07845 0.0
C52 C 0.27259 0.52024 0.0076 0.0
N53 N 0.31637 0.51452 0.0723 0.0
C54 C 0.3337 0.51278 0.15088 0.0
H55 H 0.03849 0.22524 0.18324 0.0
H56 H 0.0419 0.30594 0.23211 0.0
H57 H 1.01905 0.2775 0.9471 0.0
C58 C 0.03676 0.24443 0.15274 0.0
C59 C 0.02919 0.24803 0.05454 0.0
C60 C 0.04211 0.26513 0.21492 0.0
C61 C 0.03802 0.29023 0.18248 0.0
C62 C 0.02895 0.29477 0.08622 0.0
C63 C 0.02513 0.27369 0.02197 0.0
N64 N 0.02359 0.32022 0.05234 0.0
C65 C 0.02432 0.34201 0.11224 0.0
H66 H 0.3092 0.99672 0.20509 0.0
H67 H 0.22979 1.0069 0.28235 0.0
H68 H 0.26161 0.04697 0.0309 0.0
C69 C 0.29065 1.00558 0.19032 0.0
C70 C 0.28828 0.02281 0.11159 0.0
C71 C 0.26968 0.99956 0.25104 0.0
C72 C 0.24578 1.01128 0.23402 0.0
C73 C 0.24268 0.02829 0.15362 0.0
C74 C 0.26395 0.03376 0.09218 0.0
N75 N 0.21857 0.04021 0.13268 0.0
C76 C 0.19693 0.03885 0.19335 0.0
H77 H 0.54979 0.30434 0.12231 0.0
H78 H 0.55024 0.22686 0.23442 0.0
H79 H 0.49288 0.25117 0.02304 0.0
C80 C 0.54248 0.28485 0.12086 0.0
C81 C 0.52092 0.27985 0.06278 0.0
C82 C 0.55333 0.26602 0.18287 0.0
C83 C 0.54221 0.24139 0.18593 0.0
C84 C 0.52048 0.23581 0.12737 0.0
C85 C 0.50986 0.25522 0.06659 0.0
N86 N 0.5085 0.21119 0.12885 0.0
C87 C 0.51513 0.19074 0.19102 0.0
Pr88 Pr 0.02437 1.01053 0.82481 0.0
Pr89 Pr 0.98785 0.02709 0.62983 0.0
C90 C 0.04161 0.98958 0.9923 0.0
C91 C 0.05513 0.96483 0.00626 0.0
C92 C 0.07859 0.96351 0.05745 0.0
C93 C 0.09228 0.94027 0.06321 0.0
C94 C 0.08271 0.918 0.01748 0.0
C95 C 0.05913 0.91954 0.96684 0.0
C96 C 0.04565 0.94261 0.96072 0.0
C97 C 0.05427 1.01796 0.65496 0.0
C98 C 0.99948 0.96492 0.67205 0.0
C99 C 0.97635 0.04555 0.45144 0.0
C100 C 0.98908 0.06726 0.40159 0.0
C101 C 0.97522 0.09 0.38432 0.0
C102 C 0.98818 0.11336 0.3744 0.0
C103 C 1.01521 0.11439 0.38344 0.0
C104 C 0.02894 0.09114 0.38749 0.0
C105 C 1.01604 0.06781 0.39569 0.0
C106 C 0.9583 1.02034 0.80141 0.0
C107 C 1.01202 0.07252 0.78005 0.0
O108 O 1.01742 0.98812 0.96482 0.0
O109 O 0.05456 1.00735 0.94492 0.0
O110 O 0.03022 1.02018 0.66362 0.0
O111 O 0.06406 1.01088 0.73871 0.0
O112 O 0.98817 0.98239 0.61518 0.0
O113 O 1.01342 0.97071 0.75112 0.0
O114 O 0.99019 0.0246 0.46376 0.0
O115 O 0.96344 0.05206 0.53046 0.0
O116 O 0.98228 1.01816 0.79112 0.0
O117 O 0.94801 0.02547 0.71602 0.0
O118 O 1.01835 0.05519 0.8485 0.0
O119 O 1.00407 0.06608 0.69059 0.0
H120 H 0.08645 0.98049 0.09202 0.0
H121 H 0.11032 0.93975 0.1031 0.0
H122 H 0.05061 0.90273 0.93358 0.0
H123 H 0.02776 0.94295 0.9198 0.0
H124 H 0.95437 0.09002 0.3871 0.0
H125 H 0.97685 0.13069 0.36532 0.0
H126 H 0.04963 0.09091 0.39225 0.0
H127 H 0.02731 0.05051 0.40663 0.0
Pr128 Pr 0.52668 0.03329 0.89479 0.0
Pr129 Pr 0.51031 0.99513 0.70813 0.0
C130 C 0.54511 0.05279 0.0626 0.0
C131 C 0.5672 0.06971 0.07911 0.0
C132 C 0.57427 0.07695 0.17442 0.0
C133 C 0.59727 0.09028 0.18987 0.0
C134 C 0.61354 0.09637 0.11009 0.0
C135 C 0.60555 0.09029 0.01419 0.0
C136 C 0.58257 0.07708 0.99887 0.0
C137 C 0.52489 0.06078 0.71537 0.0
C138 C 0.57229 1.00651 0.748 0.0
C139 C 0.48913 0.97628 0.54485 0.0
C140 C 0.46411 0.96338 0.53938 0.0
C141 C 0.45213 0.95559 0.62729 0.0
C142 C 0.42624 0.94862 0.62791 0.0
C143 C 0.41185 0.94936 0.54057 0.0
C144 C 0.42434 0.95563 0.45146 0.0
C145 C 0.45031 0.96272 0.451 0.0
C146 C 0.51164 0.96795 0.88901 0.0
C147 C 0.46454 0.02188 0.85014 0.0
O148 O 0.55109 0.0297 0.0315 0.0
O149 O 0.52569 0.06318 0.01501 0.0
O150 O 0.52073 0.03719 0.72933 0.0
O151 O 0.52992 0.0714 0.79945 0.0
O152 O 0.55471 0.99771 0.68607 0.0
O153 O 0.56659 1.01865 0.8312 0.0
O154 O 0.48755 1.00065 0.56806 0.0
O155 O 0.50715 0.96388 0.59354 0.0
O156 O 0.516 0.99143 0.87413 0.0
O157 O 0.50635 0.95729 0.80529 0.0
O158 O 0.48175 0.0291 0.91682 0.0
O159 O 0.47107 1.01151 0.76492 0.0
H160 H 0.56259 0.07139 0.23707 0.0
H161 H 0.60304 0.09439 0.26477 0.0
H162 H 0.61759 0.09483 0.95137 0.0
H163 H 0.57731 0.07166 0.92461 0.0
H164 H 0.46237 0.95636 0.69664 0.0
H165 H 0.41716 0.94383 0.69741 0.0
H166 H 0.41364 0.95679 0.38312 0.0
H167 H 0.45914 0.96906 0.38286 0.0
Pr168 Pr 0.49006 0.51628 0.85066 0.0
Pr169 Pr 0.52399 0.50417 0.68808 0.0
C170 C 0.47278 0.54096 0.00882 0.0
C171 C 0.4843 0.56556 0.03757 0.0
C172 C 0.4689 0.58629 0.06619 0.0
C173 C 0.47891 0.61126 0.0645 0.0
C174 C 0.50419 0.61598 0.03023 0.0
C175 C 0.51981 0.59477 0.00698 0.0
C176 C 0.51017 0.56994 0.01289 0.0
C177 C 0.46163 0.50305 0.68458 0.0
C178 C 0.51251 0.5644 0.71152 0.0
C179 C 0.54938 0.48235 0.53698 0.0
C180 C 0.56124 0.4568 0.52384 0.0
C181 C 0.58611 0.45447 0.48419 0.0
C182 C 0.59766 0.43023 0.47464 0.0
C183 C 0.58459 0.408 0.50579 0.0
C184 C 0.55973 0.41051 0.5455 0.0
C185 C 0.54825 0.43458 0.55498 0.0
C186 C 0.55096 0.51562 0.8613 0.0
C187 C 0.49921 0.45561 0.82718 0.0
O188 O 0.48803 0.52099 0.0163 0.0
O189 O 0.46053 0.54186 0.92475 0.0
O190 O 0.48131 0.51753 0.68194 0.0
O191 O 0.45621 0.49564 0.77371 0.0
O192 O 0.5178 0.54739 0.64296 0.0
O193 O 0.50615 0.55654 0.80038 0.0
O194 O 0.52424 0.48308 0.54292 0.0
O195 O 0.56059 0.49729 0.60073 0.0
O196 O 0.53146 0.50131 0.85538 0.0
O197 O 0.55714 0.52485 0.77563 0.0
O198 O 0.48918 0.47286 0.88623 0.0
O199 O 0.51217 0.46254 0.74738 0.0
H200 H 0.44885 0.58335 0.0851 0.0
H201 H 0.46647 0.62679 0.08757 0.0
H202 H 0.53912 0.5971 0.97874 0.0
H203 H 0.5225 0.5543 0.98954 0.0
H204 H 0.59659 0.4714 0.46099 0.0
H205 H 0.61676 0.42885 0.44308 0.0
H206 H 0.54874 0.39373 0.56656 0.0
H207 H 0.5291 0.43571 0.58617 0.0
Pr208 Pr 1.01377 0.50439 0.79512 0.0
Pr209 Pr 0.02257 0.54125 0.59451 0.0
C210 C 0.99529 0.49299 0.97226 0.0
C211 C 0.97082 0.50408 0.00503 0.0
C212 C 0.95274 0.48876 0.05371 0.0
C213 C 0.92669 0.4956 0.05175 0.0
C214 C 0.91833 0.51741 0.99818 0.0
C215 C 0.93692 0.53384 0.95735 0.0
C216 C 0.96289 0.5274 0.96192 0.0
C217 C 1.02021 0.4746 0.6245 0.0
C218 C 0.96336 0.52352 0.6509 0.0
C219 C 0.0401 0.56045 0.42489 0.0
C220 C 0.06253 0.57732 0.41495 0.0
C221 C 0.07234 0.58915 0.49978 0.0
C222 C 0.09707 0.59944 0.50004 0.0
C223 C 0.11243 0.59807 0.41541 0.0
C224 C 0.1018 0.58809 0.32811 0.0
C225 C 0.077 0.57763 0.32808 0.0
C226 C 1.01744 0.57087 0.76721 0.0
C227 C 0.07341 0.52148 0.7383 0.0
O228 O 1.01429 0.50927 0.96083 0.0
O229 O 0.99267 0.47736 0.89766 0.0
O230 O 1.0198 0.49874 0.63167 0.0
O231 O 1.01839 0.46454 0.71234 0.0
O232 O 0.9788 0.53085 0.57817 0.0
O233 O 0.97222 0.51647 0.73884 0.0
O234 O 0.04586 0.53718 0.45518 0.0
O235 O 1.02017 0.57037 0.47048 0.0
O236 O 1.01674 0.54682 0.75824 0.0
O237 O 1.02015 0.58099 0.68035 0.0
O238 O 0.05825 0.51031 0.80445 0.0
O239 O 0.06457 0.53265 0.65644 0.0
H240 H 0.95845 0.47063 0.08681 0.0
H241 H 0.91306 0.48306 0.08822 0.0
H242 H 0.93148 0.5507 0.91525 0.0
H243 H 0.97647 0.53946 0.9227 0.0
H244 H 0.06162 0.58877 0.5681 0.0
H245 H 0.10475 0.60705 0.56804 0.0
H246 H 0.11335 0.58647 0.26203 0.0
H247 H 0.06988 0.56828 0.26244 0.0
H248 H 0.17478 0.99966 0.29729 0.0
H249 H 0.167 0.0803 0.22207 0.0
H250 H 0.1273 0.08296 0.32266 0.0
H251 H 0.10586 0.98486 0.29606 0.0
H252 H 0.10797 0.96304 0.39925 0.0
H253 H 0.13516 0.96714 0.31834 0.0
H254 H 0.16393 0.97914 0.46709 0.0
H255 H 0.1369 0.97483 0.5484 0.0
H256 H 0.15408 1.00488 0.54719 0.0
H257 H 0.09038 0.07749 0.43967 0.0
H258 H 0.05741 0.06412 0.56203 0.0
H259 H 0.0891 0.98712 0.56289 0.0
C260 C 0.16455 1.01778 0.30196 0.0
C261 C 0.17373 0.03984 0.25242 0.0
C262 C 0.16011 0.06327 0.25987 0.0
C263 C 0.13756 0.06491 0.31652 0.0
C264 C 0.12888 0.04287 0.36487 0.0
C265 C 0.14192 1.01972 0.35821 0.0
C266 C 0.12881 0.99914 0.41981 0.0
C267 C 0.11886 0.97726 0.35445 0.0
C268 C 0.14701 0.9889 0.50041 0.0
C269 C 0.10669 1.01444 0.46344 0.0
C270 C 0.10697 0.03956 0.43006 0.0
C271 C 0.08925 0.05768 0.46365 0.0
C272 C 0.0706 0.04994 0.53265 0.0
C273 C 0.07015 0.02442 0.56841 0.0
C274 C 0.0885 1.00653 0.53368 0.0
H275 H 0.52147 0.18888 0.38946 0.0
H276 H 0.51674 0.14147 0.12918 0.0
H277 H 0.51948 0.10221 0.23331 0.0
H278 H 0.56667 0.14779 0.52555 0.0
H279 H 0.55151 0.15406 0.64237 0.0
H280 H 0.55052 0.17799 0.54614 0.0
H281 H 0.50073 0.17912 0.55771 0.0
H282 H 0.50156 0.15505 0.65331 0.0
H283 H 0.48283 0.14973 0.54362 0.0
H284 H 0.52027 0.06782 0.37029 0.0
H285 H 0.5212 0.04215 0.52529 0.0
H286 H 0.52595 0.11257 0.69324 0.0
C287 C 0.5214 0.1702 0.35466 0.0
C288 C 0.51908 0.16802 0.25169 0.0
C289 C 0.51871 0.14338 0.20821 0.0
C290 C 0.5202 0.12103 0.2668 0.0
C291 C 0.5221 0.1237 0.36877 0.0
C292 C 0.52293 0.14773 0.41212 0.0
C293 C 0.52451 0.14549 0.52315 0.0
C294 C 0.54981 0.15701 0.56154 0.0
C295 C 0.50101 0.15809 0.5723 0.0
C296 C 0.52413 0.11654 0.53586 0.0
C297 C 0.52271 0.10419 0.44627 0.0
C298 C 0.52151 0.07736 0.44073 0.0
C299 C 0.52192 0.06291 0.52897 0.0
C300 C 0.5236 0.07533 0.62117 0.0
C301 C 0.52473 0.10247 0.62388 0.0
H302 H 0.3777 0.53886 0.20202 0.0
H303 H 0.32848 0.47513 0.28407 0.0
H304 H 0.3575 0.46464 0.42301 0.0
H305 H 0.43882 0.50777 0.26316 0.0
H306 H 0.45336 0.53642 0.31198 0.0
H307 H 0.42921 0.5389 0.21714 0.0
H308 H 0.40204 0.56889 0.32767 0.0
H309 H 0.42618 0.56666 0.42258 0.0
H310 H 0.39325 0.55842 0.44984 0.0
H311 H 0.39063 0.46136 0.55343 0.0
H312 H 0.42542 0.46624 0.67469 0.0
H313 H 0.4547 0.53204 0.51261 0.0
C314 C 0.37317 0.52273 0.24957 0.0
C315 C 0.3509 0.50771 0.23304 0.0
C316 C 0.34544 0.48679 0.29608 0.0
C317 C 0.36185 0.48067 0.37481 0.0
C318 C 0.38373 0.49566 0.38941 0.0
C319 C 0.38948 0.51632 0.32906 0.0
C320 C 0.41402 0.52954 0.3635 0.0
C321 C 0.43509 0.52806 0.28422 0.0
C322 C 0.40853 0.55754 0.39264 0.0
C323 C 0.42095 0.51319 0.45308 0.0
C324 C 0.40317 0.4937 0.46573 0.0
C325 C 0.40471 0.47647 0.54416 0.0
C326 C 0.42458 0.47942 0.61276 0.0
C327 C 0.44284 0.49944 0.60324 0.0
C328 C 0.44122 0.51635 0.52121 0.0
H329 H 0.02414 0.34475 0.31236 0.0
H330 H 0.02484 0.39118 0.04687 0.0
H331 H 0.02476 0.4308 0.14798 0.0
H332 H 0.9821 0.38536 0.45234 0.0
H333 H 0.99874 0.38 0.56712 0.0
H334 H 0.9992 0.35564 0.47346 0.0
H335 H 0.04906 0.3557 0.47586 0.0
H336 H 0.04875 0.38008 0.5695 0.0
H337 H 0.06608 0.38544 0.45632 0.0
H338 H 0.02369 0.46557 0.28085 0.0
H339 H 1.02181 0.49195 0.4324 0.0
H340 H 0.02271 0.42246 0.60963 0.0
C341 C 0.02444 0.36328 0.27575 0.0
C342 C 0.02462 0.36508 0.17208 0.0
C343 C 0.02478 0.38955 0.12642 0.0
C344 C 0.02474 0.4121 0.18326 0.0
C345 C 0.02461 0.40979 0.28574 0.0
C346 C 0.02449 0.38595 0.33147 0.0
C347 C 0.02412 0.38864 0.44254 0.0
C348 C 0.99958 0.3767 0.48641 0.0
C349 C 0.04846 0.37676 0.48875 0.0
C350 C 0.02399 0.41765 0.45241 0.0
C351 C 0.02426 0.42959 0.36131 0.0
C352 C 0.02368 0.45636 0.35248 0.0
C353 C 0.02272 0.47124 0.43888 0.0
C354 C 0.02244 0.45932 0.53277 0.0
C355 C 0.02315 0.43218 0.53896 0.0
H356 H 0.83081 1.01252 0.1309 0.0
H357 H 0.87973 1.01283 0.38906 0.0
H358 H 0.91837 1.01574 0.28229 0.0
H359 H 0.87155 0.9737 0.98085 0.0
H360 H 0.86481 0.99098 0.86837 0.0
H361 H 0.84112 0.98995 0.96505 0.0
H362 H 0.83956 0.03971 0.96815 0.0
H363 H 0.86309 0.04087 0.87087 0.0
H364 H 0.86896 0.05749 0.98476 0.0
H365 H 0.95184 1.01719 0.14545 0.0
H366 H 0.97704 1.01895 0.99055 0.0
H367 H 0.90615 1.01762 0.82231 0.0
C368 C 0.84969 1.01351 0.16454 0.0
C369 C 0.8525 1.01266 0.26776 0.0
C370 C 0.87736 1.01368 0.30985 0.0
C371 C 0.89935 1.01524 0.24982 0.0
C372 C 0.89608 1.01576 0.14784 0.0
C373 C 0.87184 1.0151 0.10554 0.0
C374 C 0.87359 1.01564 0.99413 0.0
C375 C 0.86209 0.9911 0.94951 0.0
C376 C 0.86053 0.03987 0.95202 0.0
C377 C 0.90254 1.01654 0.98024 0.0
C378 C 0.91522 1.01655 0.06967 0.0
C379 C 0.94207 1.01715 0.07507 0.0
C380 C 0.95626 1.01795 0.98682 0.0
C381 C 0.9436 1.01813 0.89459 0.0
C382 C 0.91639 1.0174 0.89178 0.0
H383 H 0.50736 0.84084 0.21929 0.0
H384 H 0.5281 0.88661 0.47238 0.0
H385 H 0.52782 0.92594 0.36772 0.0
H386 H 0.54651 0.87436 0.04429 0.0
H387 H 0.52354 0.8715 0.9455 0.0
H388 H 0.52458 0.84758 0.04166 0.0
H389 H 0.47618 0.85526 0.07739 0.0
H390 H 0.47499 0.87923 0.98136 0.0
H391 H 0.465 0.88728 0.1045 0.0
H392 H 0.52595 0.96048 0.23026 0.0
H393 H 0.52279 0.98611 0.07561 0.0
H394 H 0.50401 0.91684 0.91538 0.0
C395 C 0.51189 0.85914 0.25256 0.0
C396 C 0.51787 0.86081 0.35357 0.0
C397 C 0.52351 0.88505 0.39484 0.0
C398 C 0.52339 0.90744 0.33593 0.0
C399 C 0.51763 0.90518 0.23585 0.0
C400 C 0.51198 0.88156 0.19476 0.0
C401 C 0.50682 0.88404 0.08541 0.0
C402 C 0.52654 0.86845 0.02573 0.0
C403 C 0.4791 0.87598 0.06076 0.0
C404 C 0.51058 0.91266 0.07084 0.0
C405 C 0.51671 0.92468 0.15819 0.0
C406 C 0.52116 0.95118 0.1616 0.0
C407 C 0.51938 0.96562 0.07353 0.0
C408 C 0.51328 0.9535 0.98346 0.0
C409 C 0.50875 0.92671 0.98298 0.0
H410 H 0.6811 0.54232 0.16399 0.0
H411 H 0.64551 0.50378 0.41232 0.0
H412 H 0.6054 0.49842 0.31548 0.0
H413 H 0.62361 0.57628 0.0792 0.0
H414 H 0.63116 0.57243 0.95061 0.0
H415 H 0.6567 0.57397 0.04018 0.0
H416 H 0.67447 0.53031 0.97913 0.0
H417 H 0.64902 0.52868 0.88933 0.0
H418 H 0.6535 0.50277 0.97629 0.0
H419 H 0.56964 0.49604 0.19012 0.0
H420 H 0.54093 0.49656 0.04492 0.0
H421 H 0.59942 0.53685 0.87699 0.0
C422 C 0.66477 0.53285 0.1978 0.0
C423 C 0.66622 0.52346 0.29548 0.0
C424 C 0.64464 0.51112 0.33758 0.0
C425 C 0.62183 0.508 0.28321 0.0
C426 C 0.62093 0.51737 0.18681 0.0
C427 C 0.64181 0.52958 0.14437 0.0
C428 C 0.63591 0.5374 0.03878 0.0
C429 C 0.63691 0.56677 0.02651 0.0
C430 C 0.65432 0.52398 0.96663 0.0
C431 C 0.60858 0.52747 0.02813 0.0
C432 C 0.60028 0.51607 0.11458 0.0
C433 C 0.57592 0.50501 0.12223 0.0
C434 C 0.55973 0.50539 0.0393 0.0
C435 C 0.56787 0.51674 0.94959 0.0
C436 C 0.59257 0.52813 0.94462 0.0
H437 H 1.00394 0.69982 0.08224 0.0
H438 H 0.02575 0.65591 0.34088 0.0
H439 H 0.02949 0.61657 0.23918 0.0
H440 H 0.96541 0.65132 0.96992 0.0
H441 H 0.97532 0.65887 0.84595 0.0
H442 H 0.97523 0.68353 0.93847 0.0
H443 H 0.02338 0.69284 0.90383 0.0
H444 H 0.02352 0.66838 0.81053 0.0
H445 H 0.04641 0.66692 0.91016 0.0
H446 H 0.02975 0.58158 0.10712 0.0
H447 H 0.02857 0.55497 0.95631 0.0
H448 H 1.00615 0.62176 0.78527 0.0
C449 C 1.00977 0.68194 0.11691 0.0
C450 C 1.01476 0.68077 0.21895 0.0
C451 C 1.02206 0.6571 0.26247 0.0
C452 C 0.02413 0.63469 0.20532 0.0
C453 C 1.01878 0.63631 0.10469 0.0
C454 C 1.01193 0.65941 0.0608 0.0
C455 C 1.00709 0.65603 0.95151 0.0
C456 C 0.9791 0.66284 0.92495 0.0
C457 C 0.02624 0.67198 0.89042 0.0
C458 C 1.01213 0.62746 0.94061 0.0
C459 C 1.01878 0.61634 0.0297 0.0
C460 C 0.02437 0.59012 0.03723 0.0
C461 C 0.02334 0.57501 0.9515 0.0
C462 C 1.01669 0.58607 0.85957 0.0
C463 C 1.01106 0.61266 0.85469 0.0
H464 H 1.01424 0.25921 0.37996 0.0
H465 H 0.09119 0.25402 0.26432 0.0
H466 H 0.09788 0.21345 0.35208 0.0
H467 H 0.03014 0.21116 0.62223 0.0
H468 H 0.99768 0.19954 0.60978 0.0
H469 H 1.0044 0.23333 0.5946 0.0
H470 H 0.98178 0.23174 0.42553 0.0
H471 H 0.97619 0.19806 0.43704 0.0
H472 H 0.99374 0.21016 0.33214 0.0
H473 H 0.08661 0.16862 0.35198 0.0
H474 H 0.06492 0.12747 0.329 0.0
H475 H 0.99637 0.15839 0.46864 0.0
C476 C 0.03325 0.25068 0.38231 0.0
C477 C 0.05187 0.25884 0.31376 0.0
C478 C 0.07665 0.24772 0.31624 0.0
C479 C 0.08045 0.22434 0.3651 0.0
C480 C 0.05969 0.21351 0.41538 0.0
C481 C 0.03706 0.22719 0.43147 0.0
C482 C 1.01604 0.20952 0.46985 0.0
C483 C 1.01184 0.21364 0.58069 0.0
C484 C 0.9905 0.21255 0.41251 0.0
C485 C 0.0285 0.18371 0.45164 0.0
C486 C 0.05392 0.18634 0.42346 0.0
C487 C 0.06735 0.16601 0.38058 0.0
C488 C 0.05468 0.14258 0.36704 0.0
C489 C 0.0288 0.13931 0.39756 0.0
C490 C 1.01602 0.16008 0.44329 0.0
H491 H 0.28828 0.95148 0.24264 0.0
H492 H 0.26466 1.01043 0.44603 0.0
H493 H 0.29225 0.99126 0.57437 0.0
H494 H 0.30948 0.89845 0.44062 0.0
H495 H 0.33658 0.89094 0.36294 0.0
H496 H 0.30602 0.89949 0.30861 0.0
H497 H 0.32871 0.93515 0.20781 0.0
H498 H 0.35894 0.92741 0.26302 0.0
H499 H 0.34652 0.95971 0.27162 0.0
H500 H 0.33256 0.97823 0.65167 0.0
H501 H 0.37923 0.97235 0.6708 0.0
H502 H 0.38058 0.92339 0.4141 0.0
C503 C 0.28765 0.95902 0.31676 0.0
C504 C 0.27448 0.98219 0.33531 0.0
C505 C 0.27433 0.99239 0.4313 0.0
C506 C 0.29015 0.98162 0.50443 0.0
C507 C 0.30582 0.96072 0.47993 0.0
C508 C 0.30424 0.94908 0.38847 0.0
C509 C 0.32733 0.93191 0.36958 0.0
C510 C 0.31937 0.90351 0.37056 0.0
C511 C 0.34117 0.93903 0.27246 0.0
C512 C 0.34358 0.93816 0.45855 0.0
C513 C 0.33034 0.95369 0.5239 0.0
C514 C 0.34275 0.96529 0.60314 0.0
C515 C 0.36937 0.96186 0.61342 0.0
C516 C 0.38342 0.9473 0.54384 0.0
C517 C 0.37013 0.93438 0.46854 0.0
H518 H 0.59395 0.29735 0.14438 0.0
H519 H 0.5574 0.25476 0.38006 0.0
H520 H 0.57828 0.28264 0.50141 0.0
H521 H 0.65114 0.32801 0.29517 0.0
H522 H 0.64558 0.35791 0.23094 0.0
H523 H 0.64121 0.32779 0.16801 0.0
H524 H 0.59491 0.34169 0.121 0.0
H525 H 0.5989 0.37137 0.18439 0.0
H526 H 0.57262 0.35041 0.21706 0.0
H527 H 0.58907 0.32187 0.59082 0.0
H528 H 0.58536 0.36755 0.63508 0.0
H529 H 0.60708 0.38947 0.33907 0.0
C530 C 0.59147 0.2932 0.22198 0.0
C531 C 0.57379 0.27419 0.25272 0.0
C532 C 0.571 0.26905 0.35442 0.0
C533 C 0.58278 0.28499 0.42411 0.0
C534 C 0.59707 0.30606 0.39087 0.0
C535 C 0.60163 0.31008 0.29146 0.0
C536 C 0.61041 0.3374 0.27132 0.0
C537 C 0.63878 0.33779 0.23952 0.0
C538 C 0.59316 0.35098 0.19411 0.0
C539 C 0.60723 0.34892 0.37269 0.0
C540 C 0.60121 0.33018 0.44174 0.0
C541 C 0.59422 0.33654 0.53768 0.0
C542 C 0.59178 0.36255 0.56191 0.0
C543 C 0.59532 0.3819 0.48966 0.0
C544 C 0.60463 0.37502 0.39588 0.0
H545 H 0.23882 0.60167 0.13546 0.0
H546 H 0.26421 0.54731 0.35646 0.0
H547 H 0.23402 0.56622 0.47567 0.0
H548 H 0.21144 0.65548 0.31476 0.0
H549 H 0.18468 0.65963 0.23163 0.0
H550 H 0.21632 0.65264 0.18387 0.0
H551 H 0.19749 0.61376 0.09042 0.0
H552 H 0.16622 0.62007 0.13913 0.0
H553 H 0.18087 0.589 0.1586 0.0
H554 H 0.19239 0.57786 0.54511 0.0
H555 H 0.14527 0.58048 0.55679 0.0
H556 H 0.14268 0.62446 0.28559 0.0
C557 C 0.23907 0.59505 0.21118 0.0
C558 C 0.25363 0.57317 0.2373 0.0
C559 C 0.25343 0.56433 0.33566 0.0
C560 C 0.23615 0.57496 0.40369 0.0
C561 C 0.21934 0.59433 0.37176 0.0
C562 C 0.22101 0.60467 0.27768 0.0
C563 C 0.19691 0.61968 0.25097 0.0
C564 C 0.20269 0.64858 0.24502 0.0
C565 C 0.18468 0.61 0.15428 0.0
C566 C 0.18027 0.61361 0.33927 0.0
C567 C 0.19399 0.60022 0.41057 0.0
C568 C 0.18174 0.58912 0.49161 0.0
C569 C 0.15488 0.59069 0.49763 0.0
C570 C 0.14046 0.60282 0.42202 0.0
C571 C 0.15343 0.6154 0.34464 0.0
H572 H 0.09528 0.80415 0.35971 0.0
H573 H 0.06005 0.76521 0.11382 0.0
H574 H 0.08274 0.79374 0.99931 0.0
H575 H 0.07416 0.8573 0.29554 0.0
H576 H 0.09991 0.87828 0.33295 0.0
H577 H 0.09641 0.84769 0.39096 0.0
H578 H 0.14314 0.83559 0.34358 0.0
H579 H 0.14691 0.86664 0.28567 0.0
H580 H 0.15337 0.83778 0.21702 0.0
H581 H 0.09366 0.83383 0.91713 0.0
H582 H 0.08728 0.87964 0.88038 0.0
H583 H 0.10613 0.89844 0.18204 0.0
C584 C 0.09346 0.80096 0.28133 0.0
C585 C 0.07548 0.78292 0.24582 0.0
C586 C 0.07374 0.77881 0.1433 0.0
C587 C 0.08659 0.79517 0.07739 0.0
C588 C 0.10071 0.81575 0.11514 0.0
C589 C 0.10437 0.81859 0.21565 0.0
C590 C 0.11235 0.84584 0.24067 0.0
C591 C 0.09462 0.85795 0.31939 0.0
C592 C 0.14063 0.84649 0.27364 0.0
C593 C 0.10918 0.85863 0.14104 0.0
C594 C 0.10452 0.84062 0.06846 0.0
C595 C 0.09771 0.84798 0.97312 0.0
C596 C 0.09374 0.8741 0.95323 0.0
C597 C 0.09546 0.89252 0.02933 0.0
C598 C 0.10495 0.88482 0.12232 0.0
H599 H 0.75181 0.05477 0.19073 0.0
H600 H 0.75043 0.10508 0.44232 0.0
H601 H 0.71704 0.13157 0.36288 0.0
H602 H 0.72691 0.10784 0.99613 0.0
H603 H 0.7081 0.08356 0.93596 0.0
H604 H 0.73944 0.07565 0.98503 0.0
H605 H 0.72006 0.03887 0.08774 0.0
H606 H 0.68874 0.04584 0.04056 0.0
H607 H 0.694 0.04555 0.17179 0.0
H608 H 0.67433 0.14032 0.29628 0.0
H609 H 0.62981 0.13355 0.23896 0.0
H610 H 0.65731 0.07788 0.02765 0.0
C611 C 0.74589 0.0726 0.22475 0.0
C612 C 0.75371 0.07815 0.3216 0.0
C613 C 0.74493 0.10089 0.36715 0.0
C614 C 0.72581 0.11596 0.32249 0.0
C615 C 0.71603 0.10823 0.23167 0.0
C616 C 0.72646 0.08755 0.1812 0.0
C617 C 0.70925 0.07975 0.09627 0.0
C618 C 0.72167 0.08713 0.99751 0.0
C619 C 0.70261 0.05083 0.09956 0.0
C620 C 0.68595 0.09644 0.11635 0.0
C621 C 0.69064 0.11362 0.19166 0.0
C622 C 0.67072 0.12775 0.23461 0.0
C623 C 0.64542 0.12361 0.20238 0.0
C624 C 0.6402 0.10536 0.1283 0.0
C625 C 0.66088 0.09256 0.08211 0.0
H626 H 0.49051 0.75539 0.15592 0.0
H627 H 0.5725 0.75353 0.20313 0.0
H628 H 0.57713 0.72044 0.0768 0.0
H629 H 0.478 0.70116 0.17101 0.0
H630 H 0.45542 0.69416 0.07393 0.0
H631 H 0.45894 0.72642 0.11524 0.0
H632 H 0.46988 0.74204 0.93993 0.0
H633 H 0.46567 0.7097 0.89553 0.0
H634 H 0.49522 0.72667 0.87125 0.0
H635 H 0.57043 0.67662 0.03466 0.0
H636 H 0.55471 0.63274 0.04015 0.0
H637 H 0.47664 0.66051 0.99408 0.0
C638 C 0.5095 0.74953 0.13206 0.0
C639 C 0.53112 0.7567 0.18784 0.0
C640 C 0.55584 0.74839 0.15951 0.0
C641 C 0.55854 0.72939 0.08805 0.0
C642 C 0.53634 0.71945 0.04473 0.0
C643 C 0.51226 0.7303 0.06089 0.0
C644 C 0.49109 0.71281 0.02339 0.0
C645 C 0.46968 0.70837 0.10062 0.0
C646 C 0.47981 0.72343 0.92676 0.0
C647 C 0.50653 0.68866 0.00435 0.0
C648 C 0.53266 0.6932 0.01267 0.0
C649 C 0.5502 0.67303 0.0218 0.0
C650 C 0.54092 0.64785 0.02519 0.0
C651 C 0.5142 0.64269 0.01734 0.0
C652 C 0.49711 0.66352 0.0019 0.0
H653 H 0.78112 0.48329 0.1155 0.0
H654 H 0.7675 0.56496 0.12011 0.0
H655 H 0.80164 0.57149 0.99821 0.0
H656 H 0.83669 0.4822 0.14796 0.0
H657 H 0.84951 0.4581 0.06647 0.0
H658 H 0.8164 0.45697 0.1006 0.0
H659 H 0.80225 0.45829 0.91905 0.0
H660 H 0.83559 0.45877 0.88172 0.0
H661 H 0.81376 0.48333 0.83845 0.0
H662 H 0.84691 0.57153 0.96317 0.0
H663 H 0.89324 0.56403 0.97861 0.0
H664 H 0.88 0.48174 0.9779 0.0
C665 C 0.78397 0.50211 0.08306 0.0
C666 C 0.77211 0.5236 0.12622 0.0
C667 C 0.77632 0.54829 0.08642 0.0
C668 C 0.79593 0.55213 0.01755 0.0
C669 C 0.81051 0.53095 0.98804 0.0
C670 C 0.80382 0.50605 0.01495 0.0
C671 C 0.82553 0.48739 0.99279 0.0
C672 C 0.83242 0.47024 0.08235 0.0
C673 C 0.81889 0.47098 0.9026 0.0
C674 C 0.84679 0.50615 0.9685 0.0
C675 C 0.83756 0.53105 0.96188 0.0
C676 C 0.85422 0.55204 0.96244 0.0
C677 C 0.88069 0.54756 0.97202 0.0
C678 C 0.89046 0.52221 0.98012 0.0
C679 C 0.87321 0.50137 0.97355 0.0
H680 H 0.05283 0.19994 0.06909 0.0
H681 H 0.99685 0.24203 0.89222 0.0
H682 H 0.98851 0.20255 0.79768 0.0
H683 H 0.07644 0.15633 0.88786 0.0
H684 H 0.0778 0.12942 0.97186 0.0
H685 H 0.08169 0.16163 0.0174 0.0
H686 H 0.04425 0.15451 0.14029 0.0
H687 H 0.04031 0.12225 0.09566 0.0
H688 H 1.01338 0.14415 0.09501 0.0
H689 H 0.98597 0.15757 0.72321 0.0
H690 H 0.98638 0.11133 0.68509 0.0
H691 H 0.03929 0.09759 0.92725 0.0
C692 C 0.0384 0.20121 0.01191 0.0
C693 C 0.02534 0.22469 0.99014 0.0
C694 C 1.00753 0.22482 0.91078 0.0
C695 C 1.00249 0.20229 0.85674 0.0
C696 C 1.01507 0.1795 0.8833 0.0
C697 C 0.03244 0.17881 0.95995 0.0
C698 C 0.04198 0.1516 0.97942 0.0
C699 C 0.07121 0.14964 0.96313 0.0
C700 C 0.03453 0.1426 0.08374 0.0
C701 C 0.02731 0.13691 0.90127 0.0
C702 C 1.01225 0.15345 0.84547 0.0
C703 C 0.99753 0.14452 0.76712 0.0
C704 C 0.99797 0.1181 0.74592 0.0
C705 C 1.01272 0.10058 0.80353 0.0
C706 C 0.0276 0.1103 0.88233 0.0
H707 H 0.33695 0.03361 0.17733 0.0
H708 H 0.2927 0.02336 0.9097 0.0
H709 H 0.33302 0.02493 0.81232 0.0
H710 H 0.38701 0.07619 0.0736 0.0
H711 H 0.41208 0.06149 0.14657 0.0
H712 H 0.37957 0.06269 0.19272 0.0
H713 H 0.3802 1.01328 0.21678 0.0
H714 H 0.41256 1.01185 0.16984 0.0
H715 H 0.3876 0.99293 0.11354 0.0
H716 H 0.37857 0.02242 0.74729 0.0
H717 H 0.42516 1.01914 0.7169 0.0
H718 H 0.44005 0.03109 0.02796 0.0
C719 C 0.33567 0.03219 0.09795 0.0
C720 C 0.3116 0.02841 0.05098 0.0
C721 C 0.3108 0.02663 0.94709 0.0
C722 C 0.33365 0.02732 0.89138 0.0
C723 C 0.35711 0.03007 0.94063 0.0
C724 C 0.35822 0.03282 0.04156 0.0
C725 C 0.38587 0.03407 0.07751 0.0
C726 C 0.39146 0.06017 0.12542 0.0
C727 C 0.3919 1.01171 0.14858 0.0
C728 C 0.40029 0.03118 0.98114 0.0
C729 C 0.38331 0.02891 0.90312 0.0
C730 C 0.39199 0.02462 0.80764 0.0
C731 C 0.4186 0.02269 0.7913 0.0
C732 C 0.43648 0.02511 0.86987 0.0
C733 C 0.42703 0.02958 0.966 0.0
H734 H 0.54512 0.31177 0.93225 0.0
H735 H 0.47169 0.29857 0.07446 0.0
H736 H 0.45644 0.34119 0.01617 0.0
H737 H 0.5518 0.375 0.9947 0.0
H738 H 0.56609 0.38567 0.88069 0.0
H739 H 0.56968 0.35278 0.91961 0.0
H740 H 0.55065 0.33772 0.75466 0.0
H741 H 0.54581 0.3705 0.71505 0.0
H742 H 0.5191 0.34861 0.71718 0.0
H743 H 0.45239 0.38817 0.96742 0.0
H744 H 0.45773 0.43348 0.91592 0.0
H745 H 0.53313 0.41556 0.79772 0.0
C746 C 0.52549 0.31749 0.94787 0.0
C747 C 0.50943 0.30174 0.00678 0.0
C748 C 0.48407 0.31006 0.02769 0.0
C749 C 0.47538 0.33436 0.99561 0.0
C750 C 0.49215 0.34991 0.94142 0.0
C751 C 0.51649 0.34154 0.91588 0.0
C752 C 0.53133 0.36239 0.86212 0.0
C753 C 0.55618 0.36936 0.91762 0.0
C754 C 0.53707 0.35426 0.75591 0.0
C755 C 0.51199 0.38424 0.86451 0.0
C756 C 0.48948 0.37665 0.91057 0.0
C757 C 0.46968 0.39409 0.92922 0.0
C758 C 0.47295 0.41984 0.90013 0.0
C759 C 0.4957 0.42798 0.85174 0.0
C760 C 0.5153 0.40979 0.8326 0.0
H761 H 0.20058 0.51268 0.06797 0.0
H762 H 0.24506 0.53536 0.81251 0.0
H763 H 0.20549 0.53344 0.70981 0.0
H764 H 0.15508 0.46928 0.9409 0.0
H765 H 0.12861 0.4793 0.01758 0.0
H766 H 0.16094 0.47938 0.06567 0.0
H767 H 0.15575 0.5274 0.11109 0.0
H768 H 0.12362 0.52765 0.0617 0.0
H769 H 0.14708 0.5503 0.01669 0.0
H770 H 0.15931 0.53427 0.64089 0.0
H771 H 0.11243 0.53383 0.60879 0.0
H772 H 0.09883 0.51012 0.91114 0.0
C773 C 0.20214 0.51643 0.98967 0.0
C774 C 0.22596 0.52385 0.94777 0.0
C775 C 0.22715 0.52913 0.84557 0.0
C776 C 0.2047 0.52832 0.78707 0.0
C777 C 0.18128 0.52195 0.83185 0.0
C778 C 0.18003 0.51568 0.93073 0.0
C779 C 0.15252 0.51092 0.96318 0.0
C780 C 0.14909 0.48306 0.99891 0.0
C781 C 0.14427 0.53022 0.04284 0.0
C782 C 0.13827 0.51571 0.86748 0.0
C783 C 0.1551 0.52215 0.79246 0.0
C784 C 0.14609 0.52881 0.69886 0.0
C785 C 0.11935 0.52859 0.68142 0.0
C786 C 0.10177 0.52163 0.75697 0.0
C787 C 0.1116 0.51512 0.85108 0.0
H788 H 0.0455 0.8217 0.55435 0.0
H789 H 0.97114 0.80927 0.4181 0.0
H790 H 0.95634 0.85152 0.47952 0.0
H791 H 1.02191 0.85821 0.7733 0.0
H792 H 0.04915 0.87955 0.77053 0.0
H793 H 0.05265 0.84686 0.72941 0.0
H794 H 0.07006 0.86316 0.56214 0.0
H795 H 0.06662 0.89588 0.60208 0.0
H796 H 0.05115 0.88549 0.49039 0.0
H797 H 0.95232 0.89799 0.53186 0.0
H798 H 0.95759 0.94294 0.58587 0.0
H799 H 0.03418 0.92498 0.69345 0.0
C800 C 0.0258 0.82751 0.54019 0.0
C801 C 1.00937 0.81201 0.48201 0.0
C802 C 0.98389 0.82049 0.46393 0.0
C803 C 0.97542 0.84461 0.49787 0.0
C804 C 0.99253 0.8599 0.55101 0.0
C805 C 1.01706 0.85144 0.57378 0.0
C806 C 0.03232 0.87219 0.62602 0.0
C807 C 0.03942 0.86367 0.73107 0.0
C808 C 0.05645 0.87961 0.56659 0.0
C809 C 1.0128 0.89393 0.62716 0.0
C810 C 0.98999 0.88645 0.5833 0.0
C811 C 0.96988 0.90383 0.5682 0.0
C812 C 0.97311 0.92938 0.59871 0.0
C813 C 0.99616 0.93744 0.64496 0.0
C814 C 1.01613 0.91929 0.66027 0.0
H815 H 0.71716 0.04772 0.63879 0.0
H816 H 0.72591 0.97558 0.48387 0.0
H817 H 0.68361 0.96146 0.54661 0.0
H818 H 0.67999 1.02091 0.85671 0.0
H819 H 0.66062 0.04966 0.86278 0.0
H820 H 0.69345 0.05135 0.82012 0.0
H821 H 0.67711 0.07369 0.6605 0.0
H822 H 0.64432 0.07095 0.70156 0.0
H823 H 0.65373 0.05753 0.58484 0.0
H824 H 0.63747 0.95865 0.59923 0.0
H825 H 0.59258 0.96522 0.6534 0.0
H826 H 0.61363 0.03849 0.78049 0.0
C827 C 0.71053 0.0286 0.62082 0.0
C828 C 0.725 1.01266 0.55693 0.0
C829 C 0.7155 0.98792 0.5341 0.0
C830 C 0.69136 0.97982 0.56886 0.0
C831 C 0.67707 0.9965 0.62777 0.0
C832 C 0.68653 1.02017 0.65547 0.0
C833 C 0.66657 0.03521 0.71336 0.0
C834 C 0.67568 0.03953 0.8196 0.0
C835 C 0.66005 0.06085 0.66195 0.0
C836 C 0.644 1.01679 0.71018 0.0
C837 C 0.65054 0.99453 0.66075 0.0
C838 C 0.63233 0.9757 0.64015 0.0
C839 C 0.60683 0.97968 0.67066 0.0
C840 C 0.5997 1.0022 0.72213 0.0
C841 C 0.61867 1.02082 0.74329 0.0
H842 H 0.54566 0.69573 0.42676 0.0
H843 H 0.49526 0.73515 0.63243 0.0
H844 H 0.48961 0.69438 0.724 0.0
H845 H 0.50685 0.63996 0.40904 0.0
H846 H 0.53367 0.61819 0.3962 0.0
H847 H 0.53653 0.65098 0.35474 0.0
H848 H 0.57665 0.65698 0.46536 0.0
H849 H 0.57399 0.62417 0.50704 0.0
H850 H 0.57451 0.64993 0.5952 0.0
H851 H 0.48768 0.64841 0.78842 0.0
H852 H 0.48851 0.60168 0.81786 0.0
H853 H 0.53661 0.5914 0.55981 0.0
C854 C 0.53318 0.69607 0.49048 0.0
C855 C 0.5207 0.71911 0.5209 0.0
C856 C 0.50536 0.7182 0.6073 0.0
C857 C 0.50186 0.69497 0.65963 0.0
C858 C 0.51363 0.67262 0.62467 0.0
C859 C 0.52893 0.67302 0.54177 0.0
C860 C 0.53806 0.64614 0.51518 0.0
C861 C 0.52818 0.63837 0.41274 0.0
C862 C 0.56755 0.6442 0.52108 0.0
C863 C 0.52536 0.63035 0.59583 0.0
C864 C 0.51167 0.64608 0.65903 0.0
C865 C 0.4984 0.63602 0.73945 0.0
C866 C 0.49907 0.60934 0.75563 0.0
C867 C 0.51269 0.59268 0.69138 0.0
C868 C 0.52596 0.60349 0.61014 0.0
H869 H 0.83174 0.54505 0.35398 0.0
H870 H 0.79172 0.5043 0.58785 0.0
H871 H 0.83252 0.50203 0.6823 0.0
H872 H 0.8877 0.50616 0.36078 0.0
H873 H 0.90936 0.53212 0.33182 0.0
H874 H 0.87658 0.53324 0.28907 0.0
H875 H 0.87014 0.57725 0.37387 0.0
H876 H 0.90295 0.57634 0.41673 0.0
H877 H 0.87699 0.58036 0.50339 0.0
H878 H 0.87913 0.50201 0.74662 0.0
H879 H 0.92607 0.50379 0.77361 0.0
H880 H 0.93561 0.54176 0.49068 0.0
C881 C 0.83131 0.53543 0.42479 0.0
C882 C 0.80819 0.52457 0.46233 0.0
C883 C 0.80886 0.51299 0.5571 0.0
C884 C 0.83207 0.51144 0.61112 0.0
C885 C 0.85459 0.52146 0.56956 0.0
C886 C 0.85428 0.53324 0.47834 0.0
C887 C 0.88115 0.5412 0.44663 0.0
C888 C 0.88916 0.52735 0.35147 0.0
C889 C 0.8829 0.57053 0.43448 0.0
C890 C 0.89686 0.53193 0.53402 0.0
C891 C 0.88119 0.52083 0.60474 0.0
C892 C 0.89146 0.51074 0.69166 0.0
C893 C 0.91827 0.5119 0.70636 0.0
C894 C 0.93482 0.52297 0.63448 0.0
C895 C 0.92371 0.53314 0.54728 0.0
loop_
_geom_bond_atom_site_label_1
_geom_bond_atom_site_label_2
_geom_bond_distance
_geom_bond_site_symmetry_2
_ccdc_geom_bond_type
H0 C3 0.929 . S
H1 C6 0.929 . S
H2 C8 0.930 . S
C3 H0 0.929 . S
C3 C4 1.398 . S
C3 C5 1.396 . S
C4 C3 1.398 . S
C4 C8 1.407 . S
C5 C3 1.396 . S
C5 C6 1.394 . S
C6 H1 0.929 . S
C6 C5 1.394 . S
C6 C7 1.382 . S
C7 C6 1.382 . S
C7 C8 1.392 . S
C7 N9 1.420 . S
C8 H2 0.930 . S
C8 C4 1.407 . S
C8 C7 1.392 . S
N9 C7 1.420 . S
N9 C10 1.244 . S
C10 N9 1.244 . S
H11 C14 0.929 . S
H12 C17 0.929 . S
H13 C19 0.930 . S
C14 H11 0.929 . S
C14 C15 1.395 1_655 S
C14 C16 1.395 1_655 S
C15 C14 1.395 1_455 S
C15 C19 1.413 . S
C16 C14 1.395 1_455 S
C16 C17 1.397 . S
C17 H12 0.929 . S
C17 C16 1.397 . S
C17 C18 1.382 . S
C18 C17 1.382 . S
C18 C19 1.392 . S
C18 N20 1.420 . S
C19 H13 0.930 . S
C19 C15 1.413 . S
C19 C18 1.392 . S
N20 C18 1.420 . S
N20 C21 1.232 1_455 S
C21 N20 1.232 1_655 S
H22 C25 0.929 . S
H23 C28 0.929 . S
H24 C30 0.930 . S
C25 H22 0.929 . S
C25 C26 1.395 1_565 S
C25 C27 1.395 1_565 S
C26 C25 1.395 1_545 S
C26 C30 1.413 . S
C27 C25 1.395 1_545 S
C27 C28 1.397 . S
C28 H23 0.929 . S
C28 C27 1.397 . S
C28 C29 1.382 . S
C29 C28 1.382 . S
C29 C30 1.392 . S
C29 N31 1.420 . S
C30 H24 0.930 . S
C30 C26 1.413 . S
C30 C29 1.392 . S
N31 C29 1.420 . S
N31 C32 1.232 1_545 S
C32 N31 1.232 1_565 S
H33 C36 0.929 . S
H34 C39 0.929 . S
H35 C41 0.930 . S
C36 H33 0.929 . S
C36 C37 1.398 . S
C36 C38 1.396 . S
C37 C36 1.398 . S
C37 C41 1.407 . S
C38 C36 1.396 . S
C38 C39 1.394 . S
C39 H34 0.929 . S
C39 C38 1.394 . S
C39 C40 1.382 . S
C40 C39 1.382 . S
C40 C41 1.392 . S
C40 N42 1.420 . S
C41 H35 0.930 . S
C41 C37 1.407 . S
C41 C40 1.392 . S
N42 C40 1.420 . S
N42 C43 1.244 . S
C43 N42 1.244 . S
H44 C47 0.929 . S
H45 C50 0.929 . S
H46 C52 0.930 . S
C47 H44 0.929 . S
C47 C48 1.398 1_554 S
C47 C49 1.396 . S
C48 C47 1.398 1_556 S
C48 C52 1.407 . S
C49 C47 1.396 . S
C49 C50 1.394 . S
C50 H45 0.929 . S
C50 C49 1.394 . S
C50 C51 1.382 . S
C51 C50 1.382 . S
C51 C52 1.392 1_554 S
C51 N53 1.420 . S
C52 H46 0.930 . S
C52 C48 1.407 . S
C52 C51 1.392 1_556 S
N53 C51 1.420 . S
N53 C54 1.244 . S
C54 N53 1.244 . S
H55 C58 0.929 . S
H56 C61 0.929 . S
H57 C63 0.930 . S
C58 H55 0.929 . S
C58 C59 1.395 1_654 S
C58 C60 1.394 1_655 S
C59 C58 1.395 1_456 S
C59 C63 1.416 . S
C60 C58 1.394 1_455 S
C60 C61 1.398 . S
C61 H56 0.929 . S
C61 C60 1.398 . S
C61 C62 1.382 . S
C62 C61 1.382 . S
C62 C63 1.392 1_554 S
C62 N64 1.420 . S
C63 H57 0.930 . S
C63 C59 1.416 . S
C63 C62 1.392 1_556 S
N64 C62 1.420 . S
N64 C65 1.236 1_455 S
C65 N64 1.236 1_655 S
H66 C69 0.929 . S
H67 C72 0.929 . S
H68 C74 0.930 . S
C69 H66 0.929 . S
C69 C70 1.395 1_564 S
C69 C71 1.394 1_565 S
C70 C69 1.395 1_546 S
C70 C74 1.416 . S
C71 C69 1.394 1_545 S
C71 C72 1.398 . S
C72 H67 0.929 . S
C72 C71 1.398 . S
C72 C73 1.382 . S
C73 C72 1.382 . S
C73 C74 1.392 1_554 S
C73 N75 1.420 . S
C74 H68 0.930 . S
C74 C70 1.416 . S
C74 C73 1.392 1_556 S
N75 C73 1.420 . S
N75 C76 1.237 1_545 S
C76 N75 1.237 1_565 S
H77 C80 0.929 . S
H78 C83 0.929 . S
H79 C85 0.930 . S
C80 H77 0.929 . S
C80 C81 1.398 1_554 S
C80 C82 1.396 . S
C81 C80 1.398 1_556 S
C81 C85 1.407 . S
C82 C80 1.396 . S
C82 C83 1.394 . S
C83 H78 0.929 . S
C83 C82 1.394 . S
C83 C84 1.382 . S
C84 C83 1.382 . S
C84 C85 1.392 1_554 S
C84 N86 1.420 . S
C85 H79 0.930 . S
C85 C81 1.407 . S
C85 C84 1.392 1_556 S
N86 C84 1.420 . S
N86 C87 1.244 . S
C87 N86 1.244 . S
Pr88 C90 2.880 . S
Pr88 O108 2.562 . S
Pr88 O109 2.490 . S
Pr88 O110 2.695 1_565 S
Pr88 O111 2.512 . S
Pr88 O113 2.437 . S
Pr88 O116 2.436 1_455 S
Pr88 O118 2.438 1_565 S
Pr89 C99 2.880 . S
Pr89 O110 2.436 1_655 S
Pr89 O112 2.438 1_545 S
Pr89 O114 2.562 . S
Pr89 O115 2.490 . S
Pr89 O116 2.695 1_545 S
Pr89 O117 2.512 . S
Pr89 O119 2.437 . S
C90 Pr88 2.880 . S
C90 C91 1.491 1_556 S
C90 O108 1.254 . S
C90 O109 1.225 . S
C91 C90 1.491 1_554 S
C91 C92 1.392 . S
C91 C96 1.356 . S
C92 C91 1.392 . S
C92 C93 1.368 . S
C92 H120 0.929 . S
C93 C92 1.368 . S
C93 C94 1.386 . S
C93 H121 0.929 . S
C94 C93 1.386 . S
C94 C95 1.373 . S
C95 C94 1.373 . S
C95 C96 1.409 . S
C95 H122 0.931 1_455 S
C96 C91 1.356 . S
C96 C95 1.409 . S
C96 H123 0.930 1_455 S
C97 O110 1.270 1_565 S
C97 O111 1.248 . S
C98 O112 1.267 . S
C98 O113 1.278 1_655 S
C99 Pr89 2.880 . S
C99 C100 1.491 . S
C99 O114 1.254 . S
C99 O115 1.225 . S
C100 C99 1.491 . S
C100 C101 1.392 . S
C100 C105 1.356 . S
C101 C100 1.392 . S
C101 C102 1.368 . S
C101 H124 0.929 . S
C102 C101 1.368 . S
C102 C103 1.386 . S
C102 H125 0.929 . S
C103 C102 1.386 . S
C103 C104 1.373 . S
C104 C103 1.373 . S
C104 C105 1.409 . S
C104 H126 0.931 1_655 S
C105 C100 1.356 . S
C105 C104 1.409 . S
C105 H127 0.930 1_655 S
C106 O116 1.270 1_545 S
C106 O117 1.248 . S
C107 O118 1.267 . S
C107 O119 1.278 1_455 S
O108 Pr88 2.562 . S
O108 C90 1.254 . S
O109 Pr88 2.490 . S
O109 C90 1.225 . S
O110 Pr88 2.695 1_545 S
O110 Pr89 2.436 1_455 S
O110 C97 1.270 1_545 S
O111 Pr88 2.512 . S
O111 C97 1.248 . S
O112 Pr89 2.438 1_565 S
O112 C98 1.267 . S
O113 Pr88 2.437 . S
O113 C98 1.278 1_455 S
O114 Pr89 2.562 . S
O114 C99 1.254 . S
O115 Pr89 2.490 . S
O115 C99 1.225 . S
O116 Pr88 2.436 1_655 S
O116 Pr89 2.695 1_565 S
O116 C106 1.270 1_565 S
O117 Pr89 2.512 . S
O117 C106 1.248 . S
O118 Pr88 2.438 1_545 S
O118 C107 1.267 . S
O119 Pr89 2.437 . S
O119 C107 1.278 1_655 S
H120 C92 0.929 . S
H121 C93 0.929 . S
H122 C95 0.931 1_655 S
H123 C96 0.930 1_655 S
H124 C101 0.929 . S
H125 C102 0.929 . S
H126 C104 0.931 1_455 S
H127 C105 0.930 1_455 S
Pr128 C130 2.880 . S
Pr128 O148 2.562 . S
Pr128 O149 2.490 . S
Pr128 O150 2.695 . S
Pr128 O151 2.512 . S
Pr128 O153 2.437 . S
Pr128 O156 2.436 1_545 S
Pr128 O158 2.438 . S
Pr129 C139 2.880 . S
Pr129 O150 2.436 1_565 S
Pr129 O152 2.438 . S
Pr129 O154 2.562 . S
Pr129 O155 2.490 . S
Pr129 O156 2.695 . S
Pr129 O157 2.512 . S
Pr129 O159 2.437 . S
C130 Pr128 2.880 . S
C130 C131 1.491 1_556 S
C130 O148 1.254 . S
C130 O149 1.225 . S
C131 C130 1.491 1_554 S
C131 C132 1.392 . S
C131 C136 1.356 . S
C132 C131 1.392 . S
C132 C133 1.368 . S
C132 H160 0.929 . S
C133 C132 1.368 . S
C133 C134 1.386 . S
C133 H161 0.929 . S
C134 C133 1.386 . S
C134 C135 1.373 . S
C135 C134 1.373 . S
C135 C136 1.409 . S
C135 H162 0.931 1_545 S
C136 C131 1.356 . S
C136 C135 1.409 . S
C136 H163 0.930 1_545 S
C137 O150 1.270 . S
C137 O151 1.248 . S
C138 O152 1.267 . S
C138 O153 1.278 1_565 S
C139 Pr129 2.880 . S
C139 C140 1.491 . S
C139 O154 1.254 . S
C139 O155 1.225 . S
C140 C139 1.491 . S
C140 C141 1.392 . S
C140 C145 1.356 . S
C141 C140 1.392 . S
C141 C142 1.368 . S
C141 H164 0.929 . S
C142 C141 1.368 . S
C142 C143 1.386 . S
C142 H165 0.929 . S
C143 C142 1.386 . S
C143 C144 1.373 . S
C144 C143 1.373 . S
C144 C145 1.409 . S
C144 H166 0.931 1_565 S
C145 C140 1.356 . S
C145 C144 1.409 . S
C145 H167 0.930 1_565 S
C146 O156 1.270 . S
C146 O157 1.248 . S
C147 O158 1.267 . S
C147 O159 1.278 1_545 S
O148 Pr128 2.562 . S
O148 C130 1.254 . S
O149 Pr128 2.490 . S
O149 C130 1.225 . S
O150 Pr128 2.695 . S
O150 Pr129 2.436 1_545 S
O150 C137 1.270 . S
O151 Pr128 2.512 . S
O151 C137 1.248 . S
O152 Pr129 2.438 . S
O152 C138 1.267 . S
O153 Pr128 2.437 . S
O153 C138 1.278 1_545 S
O154 Pr129 2.562 . S
O154 C139 1.254 . S
O155 Pr129 2.490 . S
O155 C139 1.225 . S
O156 Pr128 2.436 1_565 S
O156 Pr129 2.695 . S
O156 C146 1.270 . S
O157 Pr129 2.512 . S
O157 C146 1.248 . S
O158 Pr128 2.438 . S
O158 C147 1.267 . S
O159 Pr129 2.437 . S
O159 C147 1.278 1_565 S
H160 C132 0.929 . S
H161 C133 0.929 . S
H162 C135 0.931 1_565 S
H163 C136 0.930 1_565 S
H164 C141 0.929 . S
H165 C142 0.929 . S
H166 C144 0.931 1_545 S
H167 C145 0.930 1_545 S
Pr168 C170 2.880 . S
Pr168 O188 2.562 . S
Pr168 O189 2.490 . S
Pr168 O190 2.695 . S
Pr168 O191 2.512 . S
Pr168 O193 2.437 . S
Pr168 O196 2.436 . S
Pr168 O198 2.438 . S
Pr169 C179 2.880 . S
Pr169 O190 2.436 . S
Pr169 O192 2.438 . S
Pr169 O194 2.562 . S
Pr169 O195 2.490 . S
Pr169 O196 2.695 . S
Pr169 O197 2.512 . S
Pr169 O199 2.437 . S
C170 Pr168 2.880 . S
C170 C171 1.491 1_556 S
C170 O188 1.254 . S
C170 O189 1.225 . S
C171 C170 1.491 1_554 S
C171 C172 1.392 . S
C171 C176 1.356 . S
C172 C171 1.392 . S
C172 C173 1.368 . S
C172 H200 0.929 . S
C173 C172 1.368 . S
C173 C174 1.386 . S
C173 H201 0.929 . S
C174 C173 1.386 . S
C174 C175 1.373 . S
C175 C174 1.373 . S
C175 C176 1.409 . S
C175 H202 0.931 . S
C176 C171 1.356 . S
C176 C175 1.409 . S
C176 H203 0.930 . S
C177 O190 1.270 . S
C177 O191 1.248 . S
C178 O192 1.267 . S
C178 O193 1.278 . S
C179 Pr169 2.880 . S
C179 C180 1.491 . S
C179 O194 1.254 . S
C179 O195 1.225 . S
C180 C179 1.491 . S
C180 C181 1.392 . S
C180 C185 1.356 . S
C181 C180 1.392 . S
C181 C182 1.368 . S
C181 H204 0.929 . S
C182 C181 1.368 . S
C182 C183 1.386 . S
C182 H205 0.929 . S
C183 C182 1.386 . S
C183 C184 1.373 . S
C184 C183 1.373 . S
C184 C185 1.409 . S
C184 H206 0.931 . S
C185 C180 1.356 . S
C185 C184 1.409 . S
C185 H207 0.930 . S
C186 O196 1.270 . S
C186 O197 1.248 . S
C187 O198 1.267 . S
C187 O199 1.278 . S
O188 Pr168 2.562 . S
O188 C170 1.254 . S
O189 Pr168 2.490 . S
O189 C170 1.225 . S
O190 Pr168 2.695 . S
O190 Pr169 2.436 . S
O190 C177 1.270 . S
O191 Pr168 2.512 . S
O191 C177 1.248 . S
O192 Pr169 2.438 . S
O192 C178 1.267 . S
O193 Pr168 2.437 . S
O193 C178 1.278 . S
O194 Pr169 2.562 . S
O194 C179 1.254 . S
O195 Pr169 2.490 . S
O195 C179 1.225 . S
O196 Pr168 2.436 . S
O196 Pr169 2.695 . S
O196 C186 1.270 . S
O197 Pr169 2.512 . S
O197 C186 1.248 . S
O198 Pr168 2.438 . S
O198 C187 1.267 . S
O199 Pr169 2.437 . S
O199 C187 1.278 . S
H200 C172 0.929 . S
H201 C173 0.929 . S
H202 C175 0.931 . S
H203 C176 0.930 . S
H204 C181 0.929 . S
H205 C182 0.929 . S
H206 C184 0.931 . S
H207 C185 0.930 . S
Pr208 C210 2.880 . S
Pr208 O228 2.562 . S
Pr208 O229 2.490 . S
Pr208 O230 2.695 1_655 S
Pr208 O231 2.512 . S
Pr208 O233 2.437 . S
Pr208 O236 2.436 . S
Pr208 O238 2.438 1_655 S
Pr209 C219 2.880 . S
Pr209 O230 2.436 . S
Pr209 O232 2.438 1_455 S
Pr209 O234 2.562 . S
Pr209 O235 2.490 . S
Pr209 O236 2.695 1_455 S
Pr209 O237 2.512 . S
Pr209 O239 2.437 . S
C210 Pr208 2.880 . S
C210 C211 1.491 1_556 S
C210 O228 1.254 . S
C210 O229 1.225 . S
C211 C210 1.491 1_554 S
C211 C212 1.392 . S
C211 C216 1.356 . S
C212 C211 1.392 . S
C212 C213 1.368 . S
C212 H240 0.929 . S
C213 C212 1.368 . S
C213 C214 1.386 . S
C213 H241 0.929 . S
C214 C213 1.386 . S
C214 C215 1.373 . S
C215 C214 1.373 . S
C215 C216 1.409 . S
C215 H242 0.931 . S
C216 C211 1.356 . S
C216 C215 1.409 . S
C216 H243 0.930 . S
C217 O230 1.259 1_655 S
C217 O231 1.267 . S
C218 O232 1.267 . S
C218 O233 1.278 . S
C219 Pr209 2.880 . S
C219 C220 1.491 . S
C219 O234 1.254 . S
C219 O235 1.225 . S
C220 C219 1.491 . S
C220 C221 1.392 . S
C220 C225 1.356 . S
C221 C220 1.392 . S
C221 C222 1.368 . S
C221 H244 0.929 . S
C222 C221 1.368 . S
C222 C223 1.386 . S
C222 H245 0.929 . S
C223 C222 1.386 . S
C223 C224 1.373 . S
C224 C223 1.373 . S
C224 C225 1.409 . S
C224 H246 0.931 . S
C225 C220 1.356 . S
C225 C224 1.409 . S
C225 H247 0.930 . S
C226 O236 1.270 1_455 S
C226 O237 1.248 . S
C227 O238 1.267 . S
C227 O239 1.278 . S
O228 Pr208 2.562 . S
O228 C210 1.254 . S
O229 Pr208 2.490 . S
O229 C210 1.225 . S
O230 Pr208 2.695 1_455 S
O230 Pr209 2.436 . S
O230 C217 1.259 1_455 S
O231 Pr208 2.512 . S
O231 C217 1.267 . S
O232 Pr209 2.438 1_655 S
O232 C218 1.267 . S
O233 Pr208 2.437 . S
O233 C218 1.278 . S
O234 Pr209 2.562 . S
O234 C219 1.254 . S
O235 Pr209 2.490 . S
O235 C219 1.225 . S
O236 Pr208 2.436 . S
O236 Pr209 2.695 1_655 S
O236 C226 1.270 1_655 S
O237 Pr209 2.512 . S
O237 C226 1.248 . S
O238 Pr208 2.438 1_455 S
O238 C227 1.267 . S
O239 Pr209 2.437 . S
O239 C227 1.278 . S
H240 C212 0.929 . S
H241 C213 0.929 . S
H242 C215 0.931 . S
H243 C216 0.930 . S
H244 C221 0.929 . S
H245 C222 0.929 . S
H246 C224 0.931 . S
H247 C225 0.930 . S
H248 C260 0.930 . S
H249 C262 0.930 . S
H250 C263 0.930 . S
H251 C267 0.959 . S
H252 C267 0.959 . S
H253 C267 0.961 . S
H254 C268 0.960 . S
H255 C268 0.961 . S
H256 C268 0.959 . S
H257 C271 0.929 . S
H258 C272 0.931 . S
H259 C274 0.930 . S
C260 H248 0.930 . S
C260 C261 1.399 1_565 S
C260 C265 1.399 . S
C261 C260 1.399 1_545 S
C261 C262 1.376 . S
C262 H249 0.930 . S
C262 C261 1.376 . S
C262 C263 1.388 . S
C263 H250 0.930 . S
C263 C262 1.388 . S
C263 C264 1.390 . S
C264 C263 1.390 . S
C264 C265 1.394 1_545 S
C264 C270 1.465 . S
C265 C260 1.399 . S
C265 C264 1.394 1_565 S
C265 C266 1.516 . S
C266 C265 1.516 . S
C266 C267 1.502 . S
C266 C268 1.561 . S
C266 C269 1.526 . S
C267 H251 0.959 . S
C267 H252 0.959 . S
C267 H253 0.961 . S
C267 C266 1.502 . S
C268 H254 0.960 . S
C268 H255 0.961 . S
C268 H256 0.959 . S
C268 C266 1.561 . S
C269 C266 1.526 . S
C269 C270 1.396 1_565 S
C269 C274 1.390 . S
C270 C264 1.465 . S
C270 C269 1.396 1_545 S
C270 C271 1.399 . S
C271 H257 0.929 . S
C271 C270 1.399 . S
C271 C272 1.385 . S
C272 H258 0.931 . S
C272 C271 1.385 . S
C272 C273 1.389 . S
C273 C272 1.389 . S
C273 C274 1.387 1_545 S
C274 H259 0.930 . S
C274 C269 1.390 . S
C274 C273 1.387 1_565 S
H275 C287 0.930 . S
H276 C289 0.930 . S
H277 C290 0.930 . S
H278 C294 0.959 . S
H279 C294 0.959 . S
H280 C294 0.961 . S
H281 C295 0.960 . S
H282 C295 0.961 . S
H283 C295 0.959 . S
H284 C298 0.929 . S
H285 C299 0.931 . S
H286 C301 0.930 . S
C287 H275 0.930 . S
C287 C288 1.399 . S
C287 C292 1.399 . S
C288 C287 1.399 . S
C288 C289 1.376 . S
C289 H276 0.930 . S
C289 C288 1.376 . S
C289 C290 1.388 . S
C290 H277 0.930 . S
C290 C289 1.388 . S
C290 C291 1.390 . S
C291 C290 1.390 . S
C291 C292 1.394 . S
C291 C297 1.465 . S
C292 C287 1.399 . S
C292 C291 1.394 . S
C292 C293 1.516 . S
C293 C292 1.516 . S
C293 C294 1.502 . S
C293 C295 1.561 . S
C293 C296 1.526 . S
C294 H278 0.959 . S
C294 H279 0.959 . S
C294 H280 0.961 . S
C294 C293 1.502 . S
C295 H281 0.960 . S
C295 H282 0.961 . S
C295 H283 0.959 . S
C295 C293 1.561 . S
C296 C293 1.526 . S
C296 C297 1.396 . S
C296 C301 1.390 . S
C297 C291 1.465 . S
C297 C296 1.396 . S
C297 C298 1.399 . S
C298 H284 0.929 . S
C298 C297 1.399 . S
C298 C299 1.385 . S
C299 H285 0.931 . S
C299 C298 1.385 . S
C299 C300 1.389 . S
C300 C299 1.389 . S
C300 C301 1.387 . S
C301 H286 0.930 . S
C301 C296 1.390 . S
C301 C300 1.387 . S
H302 C314 0.930 . S
H303 C316 0.930 . S
H304 C317 0.930 . S
H305 C321 0.959 . S
H306 C321 0.959 . S
H307 C321 0.961 . S
H308 C322 0.960 . S
H309 C322 0.961 . S
H310 C322 0.959 . S
H311 C325 0.929 . S
H312 C326 0.931 . S
H313 C328 0.930 . S
C314 H302 0.930 . S
C314 C315 1.399 . S
C314 C319 1.399 . S
C315 C314 1.399 . S
C315 C316 1.376 . S
C316 H303 0.930 . S
C316 C315 1.376 . S
C316 C317 1.388 . S
C317 H304 0.930 . S
C317 C316 1.388 . S
C317 C318 1.390 . S
C318 C317 1.390 . S
C318 C319 1.394 . S
C318 C324 1.465 . S
C319 C314 1.399 . S
C319 C318 1.394 . S
C319 C320 1.516 . S
C320 C319 1.516 . S
C320 C321 1.502 . S
C320 C322 1.561 . S
C320 C323 1.526 . S
C321 H305 0.959 . S
C321 H306 0.959 . S
C321 H307 0.961 . S
C321 C320 1.502 . S
C322 H308 0.960 . S
C322 H309 0.961 . S
C322 H310 0.959 . S
C322 C320 1.561 . S
C323 C320 1.526 . S
C323 C324 1.396 . S
C323 C328 1.390 . S
C324 C318 1.465 . S
C324 C323 1.396 . S
C324 C325 1.399 . S
C325 H311 0.929 . S
C325 C324 1.399 . S
C325 C326 1.385 . S
C326 H312 0.931 . S
C326 C325 1.385 . S
C326 C327 1.389 . S
C327 C326 1.389 . S
C327 C328 1.387 . S
C328 H313 0.930 . S
C328 C323 1.390 . S
C328 C327 1.387 . S
H329 C341 0.930 . S
H330 C343 0.930 . S
H331 C344 0.930 . S
H332 C348 0.959 . S
H333 C348 0.959 . S
H334 C348 0.961 . S
H335 C349 0.960 . S
H336 C349 0.961 . S
H337 C349 0.959 . S
H338 C352 0.929 . S
H339 C353 0.931 . S
H340 C355 0.930 . S
C341 H329 0.930 . S
C341 C342 1.399 1_655 S
C341 C346 1.405 . S
C342 C341 1.399 1_455 S
C342 C343 1.376 . S
C343 H330 0.930 . S
C343 C342 1.376 . S
C343 C344 1.388 . S
C344 H331 0.930 . S
C344 C343 1.388 . S
C344 C345 1.390 . S
C345 C344 1.390 . S
C345 C346 1.380 1_455 S
C345 C351 1.465 . S
C346 C341 1.405 . S
C346 C345 1.380 1_655 S
C346 C347 1.523 . S
C347 C346 1.523 . S
C347 C348 1.502 . S
C347 C349 1.561 1_655 S
C347 C350 1.529 . S
C348 H332 0.959 . S
C348 H333 0.959 . S
C348 H334 0.961 . S
C348 C347 1.502 . S
C349 H335 0.960 . S
C349 H336 0.961 . S
C349 H337 0.959 . S
C349 C347 1.561 1_455 S
C350 C347 1.529 . S
C350 C351 1.390 1_655 S
C350 C355 1.392 . S
C351 C345 1.465 . S
C351 C350 1.390 1_455 S
C351 C352 1.399 . S
C352 H338 0.929 . S
C352 C351 1.399 . S
C352 C353 1.385 . S
C353 H339 0.931 . S
C353 C352 1.385 . S
C353 C354 1.389 . S
C354 C353 1.389 . S
C354 C355 1.387 1_455 S
C355 H340 0.930 . S
C355 C350 1.392 . S
C355 C354 1.387 1_655 S
H356 C368 0.930 . S
H357 C370 0.930 . S
H358 C371 0.930 . S
H359 C375 0.959 . S
H360 C375 0.959 . S
H361 C375 0.961 . S
H362 C376 0.960 . S
H363 C376 0.961 . S
H364 C376 0.959 . S
H365 C379 0.929 . S
H366 C380 0.931 . S
H367 C382 0.930 . S
C368 H356 0.930 . S
C368 C369 1.381 1_565 S
C368 C373 1.399 . S
C369 C368 1.381 1_545 S
C369 C370 1.398 . S
C370 H357 0.930 . S
C370 C369 1.398 . S
C370 C371 1.388 . S
C371 H358 0.930 . S
C371 C370 1.388 . S
C371 C372 1.390 . S
C372 C371 1.390 . S
C372 C373 1.394 1_545 S
C372 C378 1.465 . S
C373 C368 1.399 . S
C373 C372 1.394 1_565 S
C373 C374 1.516 . S
C374 C373 1.516 . S
C374 C375 1.502 . S
C374 C376 1.561 . S
C374 C377 1.526 . S
C375 H359 0.959 . S
C375 H360 0.959 . S
C375 H361 0.961 . S
C375 C374 1.502 . S
C376 H362 0.960 . S
C376 H363 0.961 . S
C376 H364 0.959 . S
C376 C374 1.561 . S
C377 C374 1.526 . S
C377 C378 1.396 1_565 S
C377 C382 1.390 . S
C378 C372 1.465 . S
C378 C377 1.396 1_545 S
C378 C379 1.399 1_554 S
C379 H365 0.929 . S
C379 C378 1.399 1_556 S
C379 C380 1.385 . S
C380 H366 0.931 . S
C380 C379 1.385 . S
C380 C381 1.409 . S
C381 C380 1.409 . S
C381 C382 1.370 1_546 S
C382 H367 0.930 . S
C382 C377 1.390 . S
C382 C381 1.370 1_564 S
H383 C395 0.930 . S
H384 C397 0.930 . S
H385 C398 0.930 . S
H386 C402 0.959 1_556 S
H387 C402 0.959 1_556 S
H388 C402 0.961 . S
H389 C403 0.960 . S
H390 C403 0.961 . S
H391 C403 0.959 . S
H392 C406 0.929 . S
H393 C407 0.933 . S
H394 C409 0.930 . S
C395 H383 0.930 . S
C395 C396 1.399 . S
C395 C400 1.399 . S
C396 C395 1.399 . S
C396 C397 1.376 . S
C397 H384 0.930 . S
C397 C396 1.376 . S
C397 C398 1.388 . S
C398 H385 0.930 . S
C398 C397 1.388 . S
C398 C399 1.390 . S
C399 C398 1.390 . S
C399 C400 1.394 . S
C399 C405 1.465 . S
C400 C395 1.399 . S
C400 C399 1.394 . S
C400 C401 1.516 . S
C401 C400 1.516 . S
C401 C402 1.502 . S
C401 C403 1.561 . S
C401 C404 1.526 . S
C402 H386 0.959 1_554 S
C402 H387 0.959 1_554 S
C402 H388 0.961 . S
C402 C401 1.502 . S
C403 H389 0.960 . S
C403 H390 0.961 . S
C403 H391 0.959 . S
C403 C401 1.561 . S
C404 C401 1.526 . S
C404 C405 1.396 . S
C404 C409 1.390 1_554 S
C405 C399 1.465 . S
C405 C404 1.396 . S
C405 C406 1.399 . S
C406 H392 0.929 . S
C406 C405 1.399 . S
C406 C407 1.378 1_554 S
C407 H393 0.933 . S
C407 C406 1.378 1_556 S
C407 C408 1.395 . S
C408 C407 1.395 . S
C408 C409 1.387 . S
C409 H394 0.930 . S
C409 C404 1.390 1_556 S
C409 C408 1.387 . S
H410 C422 0.930 . S
H411 C424 0.930 . S
H412 C425 0.930 . S
H413 C429 0.959 . S
H414 C429 0.959 . S
H415 C429 0.961 . S
H416 C430 0.960 . S
H417 C430 0.961 . S
H418 C430 0.959 . S
H419 C433 0.929 . S
H420 C434 0.931 . S
H421 C436 0.930 . S
C422 H410 0.930 . S
C422 C423 1.399 . S
C422 C427 1.399 . S
C423 C422 1.399 . S
C423 C424 1.376 . S
C424 H411 0.930 . S
C424 C423 1.376 . S
C424 C425 1.388 . S
C425 H412 0.930 . S
C425 C424 1.388 . S
C425 C426 1.390 . S
C426 C425 1.390 . S
C426 C427 1.394 . S
C426 C432 1.465 . S
C427 C422 1.399 . S
C427 C426 1.394 . S
C427 C428 1.516 . S
C428 C427 1.516 . S
C428 C429 1.502 . S
C428 C430 1.561 . S
C428 C431 1.526 . S
C429 H413 0.959 . S
C429 H414 0.959 . S
C429 H415 0.961 . S
C429 C428 1.502 . S
C430 H416 0.960 . S
C430 H417 0.961 . S
C430 H418 0.959 . S
C430 C428 1.561 . S
C431 C428 1.526 . S
C431 C432 1.396 . S
C431 C436 1.390 1_554 S
C432 C426 1.465 . S
C432 C431 1.396 . S
C432 C433 1.399 . S
C433 H419 0.929 . S
C433 C432 1.399 . S
C433 C434 1.385 1_554 S
C434 H420 0.931 . S
C434 C433 1.385 1_556 S
C434 C435 1.389 . S
C435 C434 1.389 . S
C435 C436 1.387 . S
C436 H421 0.930 . S
C436 C431 1.390 1_556 S
C436 C435 1.387 . S
H437 C449 0.930 . S
H438 C451 0.930 . S
H439 C452 0.930 . S
H440 C456 0.959 . S
H441 C456 0.959 1_556 S
H442 C456 0.961 . S
H443 C457 0.960 1_554 S
H444 C457 0.961 . S
H445 C457 0.959 1_554 S
H446 C460 0.929 . S
H447 C461 0.931 . S
H448 C463 0.930 . S
C449 H437 0.930 . S
C449 C450 1.399 1_655 S
C449 C454 1.399 . S
C450 C449 1.399 1_455 S
C450 C451 1.376 . S
C451 H438 0.930 . S
C451 C450 1.376 . S
C451 C452 1.388 . S
C452 H439 0.930 . S
C452 C451 1.388 . S
C452 C453 1.390 . S
C453 C452 1.390 . S
C453 C454 1.394 1_455 S
C453 C459 1.465 . S
C454 C449 1.399 . S
C454 C453 1.394 1_655 S
C454 C455 1.516 . S
C455 C454 1.516 . S
C455 C456 1.502 . S
C455 C457 1.561 1_654 S
C455 C458 1.526 . S
C456 H440 0.959 . S
C456 H441 0.959 1_554 S
C456 H442 0.961 . S
C456 C455 1.502 . S
C457 H443 0.960 1_556 S
C457 H444 0.961 . S
C457 H445 0.959 1_556 S
C457 C455 1.561 1_456 S
C458 C455 1.526 . S
C458 C459 1.396 1_655 S
C458 C463 1.390 1_554 S
C459 C453 1.465 . S
C459 C458 1.396 1_455 S
C459 C460 1.399 . S
C460 H446 0.929 . S
C460 C459 1.399 . S
C460 C461 1.385 . S
C461 H447 0.931 . S
C461 C460 1.385 . S
C461 C462 1.384 1_454 S
C462 C461 1.384 1_656 S
C462 C463 1.390 . S
C463 H448 0.930 . S
C463 C458 1.390 1_556 S
C463 C462 1.390 . S
H464 C476 0.930 . S
H465 C478 0.930 1_455 S
H466 C479 0.930 . S
H467 C483 0.959 1_455 S
H468 C483 0.959 . S
H469 C483 0.961 . S
H470 C484 0.960 . S
H471 C484 0.961 . S
H472 C484 0.959 . S
H473 C487 0.929 . S
H474 C488 0.931 . S
H475 C490 0.930 . S
C476 H464 0.930 . S
C476 C477 1.390 1_655 S
C476 C481 1.399 . S
C477 C476 1.390 1_455 S
C477 C478 1.373 1_455 S
C478 H465 0.930 1_655 S
C478 C477 1.373 1_655 S
C478 C479 1.388 . S
C479 H466 0.930 . S
C479 C478 1.388 . S
C479 C480 1.390 . S
C480 C479 1.390 . S
C480 C481 1.394 . S
C480 C486 1.465 . S
C481 C476 1.399 . S
C481 C480 1.394 . S
C481 C482 1.516 . S
C482 C481 1.516 . S
C482 C483 1.502 . S
C482 C484 1.561 . S
C482 C485 1.526 . S
C483 H467 0.959 1_655 S
C483 H468 0.959 . S
C483 H469 0.961 . S
C483 C482 1.502 . S
C484 H470 0.960 . S
C484 H471 0.961 . S
C484 H472 0.959 . S
C484 C482 1.561 . S
C485 C482 1.526 . S
C485 C486 1.396 . S
C485 C490 1.390 . S
C486 C480 1.465 . S
C486 C485 1.396 . S
C486 C487 1.399 . S
C487 H473 0.929 . S
C487 C486 1.399 . S
C487 C488 1.385 . S
C488 H474 0.931 . S
C488 C487 1.385 . S
C488 C489 1.389 . S
C489 C488 1.389 . S
C489 C490 1.387 . S
C490 H475 0.930 . S
C490 C485 1.390 . S
C490 C489 1.387 . S
H491 C503 0.930 . S
H492 C505 0.930 . S
H493 C506 0.930 . S
H494 C510 0.959 . S
H495 C510 0.959 . S
H496 C510 0.961 . S
H497 C511 0.960 . S
H498 C511 0.961 . S
H499 C511 0.959 . S
H500 C514 0.929 . S
H501 C515 0.929 . S
H502 C517 0.930 . S
C503 H491 0.930 . S
C503 C504 1.399 1_565 S
C503 C508 1.399 . S
C504 C503 1.399 1_545 S
C504 C505 1.376 . S
C505 H492 0.930 . S
C505 C504 1.376 . S
C505 C506 1.388 . S
C506 H493 0.930 . S
C506 C505 1.388 . S
C506 C507 1.390 1_545 S
C507 C506 1.390 1_565 S
C507 C508 1.394 . S
C507 C513 1.465 . S
C508 C503 1.399 . S
C508 C507 1.394 . S
C508 C509 1.516 . S
C509 C508 1.516 . S
C509 C510 1.502 . S
C509 C511 1.561 . S
C509 C512 1.526 . S
C510 H494 0.959 . S
C510 H495 0.959 . S
C510 H496 0.961 . S
C510 C509 1.502 . S
C511 H497 0.960 . S
C511 H498 0.961 . S
C511 H499 0.959 . S
C511 C509 1.561 . S
C512 C509 1.526 . S
C512 C513 1.396 . S
C512 C517 1.390 . S
C513 C507 1.465 . S
C513 C512 1.396 . S
C513 C514 1.399 1_565 S
C514 H500 0.929 . S
C514 C513 1.399 1_545 S
C514 C515 1.385 1_545 S
C515 H501 0.929 . S
C515 C514 1.385 1_565 S
C515 C516 1.389 . S
C516 C515 1.389 . S
C516 C517 1.387 . S
C517 H502 0.930 . S
C517 C512 1.390 . S
C517 C516 1.387 . S
H518 C530 0.930 . S
H519 C532 0.930 . S
H520 C533 0.930 . S
H521 C537 0.959 . S
H522 C537 0.959 . S
H523 C537 0.961 . S
H524 C538 0.960 . S
H525 C538 0.961 . S
H526 C538 0.959 . S
H527 C541 0.929 . S
H528 C542 0.931 . S
H529 C544 0.930 . S
C530 H518 0.930 . S
C530 C531 1.399 . S
C530 C535 1.399 . S
C531 C530 1.399 . S
C531 C532 1.376 . S
C532 H519 0.930 . S
C532 C531 1.376 . S
C532 C533 1.388 . S
C533 H520 0.930 . S
C533 C532 1.388 . S
C533 C534 1.390 . S
C534 C533 1.390 . S
C534 C535 1.394 . S
C534 C540 1.465 . S
C535 C530 1.399 . S
C535 C534 1.394 . S
C535 C536 1.516 . S
C536 C535 1.516 . S
C536 C537 1.502 . S
C536 C538 1.561 . S
C536 C539 1.526 . S
C537 H521 0.959 . S
C537 H522 0.959 . S
C537 H523 0.961 . S
C537 C536 1.502 . S
C538 H524 0.960 . S
C538 H525 0.961 . S
C538 H526 0.959 . S
C538 C536 1.561 . S
C539 C536 1.526 . S
C539 C540 1.396 . S
C539 C544 1.390 . S
C540 C534 1.465 . S
C540 C539 1.396 . S
C540 C541 1.399 . S
C541 H527 0.929 . S
C541 C540 1.399 . S
C541 C542 1.385 . S
C542 H528 0.931 . S
C542 C541 1.385 . S
C542 C543 1.389 . S
C543 C542 1.389 . S
C543 C544 1.387 . S
C544 H529 0.930 . S
C544 C539 1.390 . S
C544 C543 1.387 . S
H545 C557 0.930 . S
H546 C559 0.930 . S
H547 C560 0.930 . S
H548 C564 0.959 . S
H549 C564 0.959 . S
H550 C564 0.961 . S
H551 C565 0.960 . S
H552 C565 0.961 . S
H553 C565 0.959 . S
H554 C568 0.929 . S
H555 C569 0.931 . S
H556 C571 0.930 . S
C557 H545 0.930 . S
C557 C558 1.399 . S
C557 C562 1.399 . S
C558 C557 1.399 . S
C558 C559 1.376 . S
C559 H546 0.930 . S
C559 C558 1.376 . S
C559 C560 1.388 . S
C560 H547 0.930 . S
C560 C559 1.388 . S
C560 C561 1.390 . S
C561 C560 1.390 . S
C561 C562 1.394 . S
C561 C567 1.465 . S
C562 C557 1.399 . S
C562 C561 1.394 . S
C562 C563 1.516 . S
C563 C562 1.516 . S
C563 C564 1.502 . S
C563 C565 1.561 . S
C563 C566 1.526 . S
C564 H548 0.959 . S
C564 H549 0.959 . S
C564 H550 0.961 . S
C564 C563 1.502 . S
C565 H551 0.960 . S
C565 H552 0.961 . S
C565 H553 0.959 . S
C565 C563 1.561 . S
C566 C563 1.526 . S
C566 C567 1.396 . S
C566 C571 1.390 . S
C567 C561 1.465 . S
C567 C566 1.396 . S
C567 C568 1.399 . S
C568 H554 0.929 . S
C568 C567 1.399 . S
C568 C569 1.385 . S
C569 H555 0.931 . S
C569 C568 1.385 . S
C569 C570 1.389 . S
C570 C569 1.389 . S
C570 C571 1.387 . S
C571 H556 0.930 . S
C571 C566 1.390 . S
C571 C570 1.387 . S
H572 C584 0.938 . S
H573 C586 0.930 . S
H574 C587 0.930 . S
H575 C591 0.959 . S
H576 C591 0.959 . S
H577 C591 0.961 . S
H578 C592 0.960 . S
H579 C592 0.961 . S
H580 C592 0.959 . S
H581 C595 0.929 . S
H582 C596 0.931 1_556 S
H583 C598 0.930 . S
C584 H572 0.938 . S
C584 C585 1.399 . S
C584 C589 1.391 1_655 S
C585 C584 1.399 . S
C585 C586 1.376 1_655 S
C586 H573 0.930 . S
C586 C585 1.376 1_455 S
C586 C587 1.388 . S
C587 H574 0.930 . S
C587 C586 1.388 . S
C587 C588 1.390 . S
C588 C587 1.390 . S
C588 C589 1.394 . S
C588 C594 1.465 . S
C589 C584 1.391 1_455 S
C589 C588 1.394 . S
C589 C590 1.516 . S
C590 C589 1.516 . S
C590 C591 1.502 1_455 S
C590 C592 1.561 . S
C590 C593 1.526 . S
C591 H575 0.959 . S
C591 H576 0.959 . S
C591 H577 0.961 . S
C591 C590 1.502 1_655 S
C592 H578 0.960 . S
C592 H579 0.961 . S
C592 H580 0.959 . S
C592 C590 1.561 . S
C593 C590 1.526 . S
C593 C594 1.396 . S
C593 C598 1.390 . S
C594 C588 1.465 . S
C594 C593 1.396 . S
C594 C595 1.399 . S
C595 H581 0.929 . S
C595 C594 1.399 . S
C595 C596 1.385 . S
C596 H582 0.931 1_554 S
C596 C595 1.385 . S
C596 C597 1.389 . S
C597 C596 1.389 . S
C597 C598 1.387 . S
C598 H583 0.930 . S
C598 C593 1.390 . S
C598 C597 1.387 . S
H599 C611 0.930 . S
H600 C613 0.930 . S
H601 C614 0.930 . S
H602 C618 0.959 . S
H603 C618 0.959 . S
H604 C618 0.961 . S
H605 C619 0.960 . S
H606 C619 0.961 . S
H607 C619 0.959 1_545 S
H608 C622 0.929 . S
H609 C623 0.931 . S
H610 C625 0.930 . S
C611 H599 0.930 . S
C611 C612 1.399 1_565 S
C611 C616 1.399 1_565 S
C612 C611 1.399 1_545 S
C612 C613 1.376 . S
C613 H600 0.930 . S
C613 C612 1.376 . S
C613 C614 1.388 . S
C614 H601 0.930 . S
C614 C613 1.388 . S
C614 C615 1.390 . S
C615 C614 1.390 . S
C615 C616 1.394 . S
C615 C621 1.465 . S
C616 C611 1.399 1_545 S
C616 C615 1.394 . S
C616 C617 1.516 1_545 S
C617 C616 1.516 1_565 S
C617 C618 1.502 . S
C617 C619 1.561 . S
C617 C620 1.526 1_565 S
C618 H602 0.959 . S
C618 H603 0.959 . S
C618 H604 0.961 . S
C618 C617 1.502 . S
C619 H605 0.960 . S
C619 H606 0.961 . S
C619 H607 0.959 1_565 S
C619 C617 1.561 . S
C620 C617 1.526 1_545 S
C620 C621 1.396 . S
C620 C625 1.390 . S
C621 C615 1.465 . S
C621 C620 1.396 . S
C621 C622 1.399 . S
C622 H608 0.929 . S
C622 C621 1.399 . S
C622 C623 1.385 . S
C623 H609 0.931 . S
C623 C622 1.385 . S
C623 C624 1.389 . S
C624 C623 1.389 . S
C624 C625 1.387 . S
C625 H610 0.930 . S
C625 C620 1.390 . S
C625 C624 1.387 . S
H626 C638 0.930 . S
H627 C640 0.930 . S
H628 C641 0.930 . S
H629 C645 0.959 . S
H630 C645 0.959 . S
H631 C645 0.961 . S
H632 C646 0.960 . S
H633 C646 0.961 1_556 S
H634 C646 0.959 . S
H635 C649 0.929 . S
H636 C650 0.931 . S
H637 C652 0.930 . S
C638 H626 0.930 . S
C638 C639 1.399 . S
C638 C643 1.399 . S
C639 C638 1.399 . S
C639 C640 1.376 . S
C640 H627 0.930 . S
C640 C639 1.376 . S
C640 C641 1.388 . S
C641 H628 0.930 . S
C641 C640 1.388 . S
C641 C642 1.390 . S
C642 C641 1.390 . S
C642 C643 1.394 . S
C642 C648 1.465 . S
C643 C638 1.399 . S
C643 C642 1.394 . S
C643 C644 1.516 . S
C644 C643 1.516 . S
C644 C645 1.502 . S
C644 C646 1.561 . S
C644 C647 1.526 . S
C645 H629 0.959 . S
C645 H630 0.959 . S
C645 H631 0.961 . S
C645 C644 1.502 . S
C646 H632 0.960 . S
C646 H633 0.961 1_554 S
C646 H634 0.959 . S
C646 C644 1.561 . S
C647 C644 1.526 . S
C647 C648 1.396 . S
C647 C652 1.390 . S
C648 C642 1.465 . S
C648 C647 1.396 . S
C648 C649 1.399 . S
C649 H635 0.929 . S
C649 C648 1.399 . S
C649 C650 1.385 . S
C650 H636 0.931 . S
C650 C649 1.385 . S
C650 C651 1.389 . S
C651 C650 1.389 . S
C651 C652 1.387 . S
C652 H637 0.930 . S
C652 C647 1.390 . S
C652 C651 1.387 . S
H653 C665 0.930 . S
H654 C667 0.930 . S
H655 C668 0.930 . S
H656 C672 0.959 . S
H657 C672 0.959 . S
H658 C672 0.961 . S
H659 C673 0.960 . S
H660 C673 0.961 . S
H661 C673 0.959 . S
H662 C676 0.929 . S
H663 C677 0.931 . S
H664 C679 0.930 . S
C665 H653 0.930 . S
C665 C666 1.399 . S
C665 C670 1.399 . S
C666 C665 1.399 . S
C666 C667 1.376 . S
C667 H654 0.930 . S
C667 C666 1.376 . S
C667 C668 1.388 . S
C668 H655 0.930 . S
C668 C667 1.388 . S
C668 C669 1.390 . S
C669 C668 1.390 . S
C669 C670 1.394 . S
C669 C675 1.465 . S
C670 C665 1.399 . S
C670 C669 1.394 . S
C670 C671 1.516 . S
C671 C670 1.516 . S
C671 C672 1.502 . S
C671 C673 1.561 . S
C671 C674 1.526 . S
C672 H656 0.959 . S
C672 H657 0.959 . S
C672 H658 0.961 . S
C672 C671 1.502 . S
C673 H659 0.960 . S
C673 H660 0.961 . S
C673 H661 0.959 . S
C673 C671 1.561 . S
C674 C671 1.526 . S
C674 C675 1.396 . S
C674 C679 1.390 . S
C675 C669 1.465 . S
C675 C674 1.396 . S
C675 C676 1.399 . S
C676 H662 0.929 . S
C676 C675 1.399 . S
C676 C677 1.385 . S
C677 H663 0.931 . S
C677 C676 1.385 . S
C677 C678 1.389 . S
C678 C677 1.389 . S
C678 C679 1.387 . S
C679 H664 0.930 . S
C679 C674 1.390 . S
C679 C678 1.387 . S
H680 C692 0.930 . S
H681 C694 0.930 . S
H682 C695 0.930 . S
H683 C699 0.959 . S
H684 C699 0.959 1_554 S
H685 C699 0.961 1_554 S
H686 C700 0.960 . S
H687 C700 0.961 . S
H688 C700 0.959 1_655 S
H689 C703 0.929 . S
H690 C704 0.931 . S
H691 C706 0.930 . S
C692 H680 0.930 . S
C692 C693 1.396 1_455 S
C692 C697 1.399 . S
C693 C692 1.396 1_655 S
C693 C694 1.380 . S
C694 H681 0.930 . S
C694 C693 1.380 . S
C694 C695 1.388 . S
C695 H682 0.930 . S
C695 C694 1.388 . S
C695 C696 1.390 . S
C696 C695 1.390 . S
C696 C697 1.394 1_655 S
C696 C702 1.465 . S
C697 C692 1.399 . S
C697 C696 1.394 1_455 S
C697 C698 1.516 . S
C698 C697 1.516 . S
C698 C699 1.502 . S
C698 C700 1.561 1_556 S
C698 C701 1.526 . S
C699 H683 0.959 . S
C699 H684 0.959 1_556 S
C699 H685 0.961 1_556 S
C699 C698 1.502 . S
C700 H686 0.960 . S
C700 H687 0.961 . S
C700 H688 0.959 1_455 S
C700 C698 1.561 1_554 S
C701 C698 1.526 . S
C701 C702 1.396 1_455 S
C701 C706 1.390 . S
C702 C696 1.465 . S
C702 C701 1.396 1_655 S
C702 C703 1.399 . S
C703 H689 0.929 . S
C703 C702 1.399 . S
C703 C704 1.385 . S
C704 H690 0.931 . S
C704 C703 1.385 . S
C704 C705 1.389 1_655 S
C705 C704 1.389 1_455 S
C705 C706 1.387 . S
C706 H691 0.930 . S
C706 C701 1.390 . S
C706 C705 1.387 . S
H707 C719 0.930 . S
H708 C721 0.930 . S
H709 C722 0.930 . S
H710 C726 0.959 . S
H711 C726 0.959 . S
H712 C726 0.961 . S
H713 C727 0.960 . S
H714 C727 0.961 . S
H715 C727 0.959 . S
H716 C730 0.929 . S
H717 C731 0.931 . S
H718 C733 0.930 . S
C719 H707 0.930 . S
C719 C720 1.379 1_545 S
C719 C724 1.399 . S
C720 C719 1.379 1_565 S
C720 C721 1.400 . S
C721 H708 0.930 . S
C721 C720 1.400 . S
C721 C722 1.388 . S
C722 H709 0.930 . S
C722 C721 1.388 . S
C722 C723 1.390 . S
C723 C722 1.390 . S
C723 C724 1.394 1_565 S
C723 C729 1.465 . S
C724 C719 1.399 . S
C724 C723 1.394 1_545 S
C724 C725 1.516 . S
C725 C724 1.516 . S
C725 C726 1.502 . S
C725 C727 1.561 1_556 S
C725 C728 1.526 . S
C726 H710 0.959 . S
C726 H711 0.959 . S
C726 H712 0.961 . S
C726 C725 1.502 . S
C727 H713 0.960 . S
C727 H714 0.961 . S
C727 H715 0.959 . S
C727 C725 1.561 1_554 S
C728 C725 1.526 . S
C728 C729 1.396 1_545 S
C728 C733 1.390 . S
C729 C723 1.465 . S
C729 C728 1.396 1_565 S
C729 C730 1.399 . S
C730 H716 0.929 . S
C730 C729 1.399 . S
C730 C731 1.385 . S
C731 H717 0.931 . S
C731 C730 1.385 . S
C731 C732 1.389 1_565 S
C732 C731 1.389 1_545 S
C732 C733 1.387 . S
C733 H718 0.930 . S
C733 C728 1.390 . S
C733 C732 1.387 . S
H734 C746 0.930 . S
H735 C748 0.930 1_554 S
H736 C749 0.930 1_554 S
H737 C753 0.959 . S
H738 C753 0.959 . S
H739 C753 0.961 . S
H740 C754 0.960 . S
H741 C754 0.961 . S
H742 C754 0.959 . S
H743 C757 0.929 1_554 S
H744 C758 0.931 . S
H745 C760 0.930 . S
C746 H734 0.930 . S
C746 C747 1.399 . S
C746 C751 1.399 . S
C747 C746 1.399 . S
C747 C748 1.376 . S
C748 H735 0.930 1_556 S
C748 C747 1.376 . S
C748 C749 1.388 . S
C749 H736 0.930 1_556 S
C749 C748 1.388 . S
C749 C750 1.390 . S
C750 C749 1.390 . S
C750 C751 1.394 . S
C750 C756 1.465 . S
C751 C746 1.399 . S
C751 C750 1.394 . S
C751 C752 1.516 . S
C752 C751 1.516 . S
C752 C753 1.502 . S
C752 C754 1.561 . S
C752 C755 1.526 . S
C753 H737 0.959 . S
C753 H738 0.959 . S
C753 H739 0.961 . S
C753 C752 1.502 . S
C754 H740 0.960 . S
C754 H741 0.961 . S
C754 H742 0.959 . S
C754 C752 1.561 . S
C755 C752 1.526 . S
C755 C756 1.396 . S
C755 C760 1.390 . S
C756 C750 1.465 . S
C756 C755 1.396 . S
C756 C757 1.399 . S
C757 H743 0.929 1_556 S
C757 C756 1.399 . S
C757 C758 1.385 . S
C758 H744 0.931 . S
C758 C757 1.385 . S
C758 C759 1.389 . S
C759 C758 1.389 . S
C759 C760 1.387 . S
C760 H745 0.930 . S
C760 C755 1.390 . S
C760 C759 1.387 . S
H761 C773 0.930 . S
H762 C775 0.930 . S
H763 C776 0.930 . S
H764 C780 0.959 . S
H765 C780 0.959 . S
H766 C780 0.961 . S
H767 C781 0.960 . S
H768 C781 0.961 . S
H769 C781 0.959 . S
H770 C784 0.929 . S
H771 C785 0.931 . S
H772 C787 0.930 . S
C773 H761 0.930 . S
C773 C774 1.399 . S
C773 C778 1.399 . S
C774 C773 1.399 . S
C774 C775 1.376 . S
C775 H762 0.930 . S
C775 C774 1.376 . S
C775 C776 1.388 . S
C776 H763 0.930 . S
C776 C775 1.388 . S
C776 C777 1.390 . S
C777 C776 1.390 . S
C777 C778 1.394 . S
C777 C783 1.465 . S
C778 C773 1.399 . S
C778 C777 1.394 . S
C778 C779 1.516 . S
C779 C778 1.516 . S
C779 C780 1.502 . S
C779 C781 1.561 1_556 S
C779 C782 1.526 . S
C780 H764 0.959 . S
C780 H765 0.959 . S
C780 H766 0.961 . S
C780 C779 1.502 . S
C781 H767 0.960 . S
C781 H768 0.961 . S
C781 H769 0.959 . S
C781 C779 1.561 1_554 S
C782 C779 1.526 . S
C782 C783 1.396 . S
C782 C787 1.390 . S
C783 C777 1.465 . S
C783 C782 1.396 . S
C783 C784 1.399 . S
C784 H770 0.929 . S
C784 C783 1.399 . S
C784 C785 1.385 . S
C785 H771 0.931 . S
C785 C784 1.385 . S
C785 C786 1.389 . S
C786 C785 1.389 . S
C786 C787 1.387 . S
C787 H772 0.930 . S
C787 C782 1.390 . S
C787 C786 1.387 . S
H788 C800 0.929 1_455 S
H789 C802 0.930 . S
H790 C803 0.930 . S
H791 C807 0.959 . S
H792 C807 0.959 . S
H793 C807 0.961 . S
H794 C808 0.960 . S
H795 C808 0.961 . S
H796 C808 0.959 . S
H797 C811 0.929 . S
H798 C812 0.931 . S
H799 C814 0.930 . S
C800 H788 0.929 1_655 S
C800 C801 1.400 . S
C800 C805 1.400 . S
C801 C800 1.400 . S
C801 C802 1.376 . S
C802 H789 0.930 . S
C802 C801 1.376 . S
C802 C803 1.388 . S
C803 H790 0.930 . S
C803 C802 1.388 . S
C803 C804 1.390 . S
C804 C803 1.390 . S
C804 C805 1.394 . S
C804 C810 1.465 . S
C805 C800 1.400 . S
C805 C804 1.394 . S
C805 C806 1.516 . S
C806 C805 1.516 . S
C806 C807 1.502 1_655 S
C806 C808 1.561 . S
C806 C809 1.526 . S
C807 H791 0.959 . S
C807 H792 0.959 . S
C807 H793 0.961 . S
C807 C806 1.502 1_455 S
C808 H794 0.960 . S
C808 H795 0.961 . S
C808 H796 0.959 . S
C808 C806 1.561 . S
C809 C806 1.526 . S
C809 C810 1.396 . S
C809 C814 1.390 . S
C810 C804 1.465 . S
C810 C809 1.396 . S
C810 C811 1.399 . S
C811 H797 0.929 . S
C811 C810 1.399 . S
C811 C812 1.385 . S
C812 H798 0.931 . S
C812 C811 1.385 . S
C812 C813 1.389 . S
C813 C812 1.389 . S
C813 C814 1.387 . S
C814 H799 0.930 . S
C814 C809 1.390 . S
C814 C813 1.387 . S
H815 C827 0.930 . S
H816 C829 0.930 . S
H817 C830 0.930 . S
H818 C834 0.959 . S
H819 C834 0.959 . S
H820 C834 0.961 . S
H821 C835 0.960 . S
H822 C835 0.961 . S
H823 C835 0.959 . S
H824 C838 0.929 . S
H825 C839 0.931 . S
H826 C841 0.930 1_545 S
C827 H815 0.930 . S
C827 C828 1.399 1_545 S
C827 C832 1.404 . S
C828 C827 1.399 1_565 S
C828 C829 1.376 . S
C829 H816 0.930 . S
C829 C828 1.376 . S
C829 C830 1.388 . S
C830 H817 0.930 . S
C830 C829 1.388 . S
C830 C831 1.390 . S
C831 C830 1.390 . S
C831 C832 1.381 1_565 S
C831 C837 1.465 . S
C832 C827 1.404 . S
C832 C831 1.381 1_545 S
C832 C833 1.525 . S
C833 C832 1.525 . S
C833 C834 1.502 1_545 S
C833 C835 1.561 . S
C833 C836 1.526 1_545 S
C834 H818 0.959 . S
C834 H819 0.959 . S
C834 H820 0.961 . S
C834 C833 1.502 1_565 S
C835 H821 0.960 . S
C835 H822 0.961 . S
C835 H823 0.959 . S
C835 C833 1.561 . S
C836 C833 1.526 1_565 S
C836 C837 1.396 . S
C836 C841 1.390 . S
C837 C831 1.465 . S
C837 C836 1.396 . S
C837 C838 1.399 . S
C838 H824 0.929 . S
C838 C837 1.399 . S
C838 C839 1.385 . S
C839 H825 0.931 . S
C839 C838 1.385 . S
C839 C840 1.389 . S
C840 C839 1.389 . S
C840 C841 1.387 . S
C841 H826 0.930 1_565 S
C841 C836 1.390 . S
C841 C840 1.387 . S
H842 C854 0.930 . S
H843 C856 0.930 . S
H844 C857 0.930 . S
H845 C861 0.959 . S
H846 C861 0.959 . S
H847 C861 0.961 . S
H848 C862 0.960 . S
H849 C862 0.961 . S
H850 C862 0.959 . S
H851 C865 0.929 . S
H852 C866 0.931 . S
H853 C868 0.930 . S
C854 H842 0.930 . S
C854 C855 1.399 . S
C854 C859 1.399 . S
C855 C854 1.399 . S
C855 C856 1.376 . S
C856 H843 0.930 . S
C856 C855 1.376 . S
C856 C857 1.388 . S
C857 H844 0.930 . S
C857 C856 1.388 . S
C857 C858 1.390 . S
C858 C857 1.390 . S
C858 C859 1.394 . S
C858 C864 1.465 . S
C859 C854 1.399 . S
C859 C858 1.394 . S
C859 C860 1.516 . S
C860 C859 1.516 . S
C860 C861 1.502 . S
C860 C862 1.561 . S
C860 C863 1.526 . S
C861 H845 0.959 . S
C861 H846 0.959 . S
C861 H847 0.961 . S
C861 C860 1.502 . S
C862 H848 0.960 . S
C862 H849 0.961 . S
C862 H850 0.959 . S
C862 C860 1.561 . S
C863 C860 1.526 . S
C863 C864 1.396 . S
C863 C868 1.390 . S
C864 C858 1.465 . S
C864 C863 1.396 . S
C864 C865 1.399 . S
C865 H851 0.929 . S
C865 C864 1.399 . S
C865 C866 1.385 . S
C866 H852 0.931 . S
C866 C865 1.385 . S
C866 C867 1.389 . S
C867 C866 1.389 . S
C867 C868 1.387 . S
C868 H853 0.930 . S
C868 C863 1.390 . S
C868 C867 1.387 . S
H869 C881 0.930 . S
H870 C883 0.930 . S
H871 C884 0.930 . S
H872 C888 0.959 . S
H873 C888 0.959 . S
H874 C888 0.961 . S
H875 C889 0.960 . S
H876 C889 0.961 . S
H877 C889 0.959 . S
H878 C892 0.929 . S
H879 C893 0.931 . S
H880 C895 0.930 . S
C881 H869 0.930 . S
C881 C882 1.399 . S
C881 C886 1.399 . S
C882 C881 1.399 . S
C882 C883 1.376 . S
C883 H870 0.930 . S
C883 C882 1.376 . S
C883 C884 1.388 . S
C884 H871 0.930 . S
C884 C883 1.388 . S
C884 C885 1.390 . S
C885 C884 1.390 . S
C885 C886 1.394 . S
C885 C891 1.465 . S
C886 C881 1.399 . S
C886 C885 1.394 . S
C886 C887 1.516 . S
C887 C886 1.516 . S
C887 C888 1.502 . S
C887 C889 1.561 . S
C887 C890 1.526 . S
C888 H872 0.959 . S
C888 H873 0.959 . S
C888 H874 0.961 . S
C888 C887 1.502 . S
C889 H875 0.960 . S
C889 H876 0.961 . S
C889 H877 0.959 . S
C889 C887 1.561 . S
C890 C887 1.526 . S
C890 C891 1.396 . S
C890 C895 1.390 . S
C891 C885 1.465 . S
C891 C890 1.396 . S
C891 C892 1.399 . S
C892 H878 0.929 . S
C892 C891 1.399 . S
C892 C893 1.385 . S
C893 H879 0.931 . S
C893 C892 1.385 . S
C893 C894 1.389 . S
C894 C893 1.389 . S
C894 C895 1.387 . S
C895 H880 0.930 . S
C895 C890 1.390 . S
C895 C894 1.387 . S
C261 C76 1.786 1_545 S
C273 C97 1.951 1_545 S
C300 C137 1.943 . S
C288 C87 1.813 . S
C327 C177 1.957 . S
C315 C54 1.788 . S
C354 C217 1.960 1_455 S
C342 C65 1.852 1_455 S
C381 C106 1.937 . S
C369 C32 1.777 1_545 S
C396 C43 1.856 . S
C408 C146 1.971 . S
C423 C10 1.803 . S
C435 C186 1.948 . S
C450 C21 1.853 1_455 S
C462 C226 1.954 1_655 S
C489 C103 0.533 . S
C477 C60 0.412 . S
C516 C143 0.424 . S
C504 C71 0.567 . S
C543 C183 0.436 . S
C531 C82 0.530 . S
C558 C49 0.613 . S
C570 C223 0.447 . S
C585 C16 0.563 1_655 S
C597 C94 0.552 . S
C624 C134 0.604 . S
C612 C27 0.486 . S
C651 C174 0.491 . S
C639 C38 0.527 . S
C666 C5 0.565 . S
C678 C214 0.453 . S
C693 C59 2.061 1_655 S
C705 C107 2.263 . S
C720 C70 2.010 1_565 S
C732 C147 2.238 . S
C759 C187 2.249 . S
C747 C81 1.954 . S
C786 C227 2.253 . S
C774 C48 2.033 . S
C801 C15 2.072 1_655 S
C813 C98 2.293 . S
C840 C138 2.260 . S
C828 C26 1.965 1_565 S
C867 C178 2.255 . S
C855 C37 2.039 . S
C882 C4 2.071 . S
C894 C218 2.262 . S
