# Generated by pormake.
# Topology eea, (3,6)-cn, num edge types: 1
# Building blocks:
#     Node 0, Type 0, BuildingBlock: ESEHIV_clean_linker_0, # of connection points: 3
#     Node 1, Type 0, BuildingBlock: ESEHIV_clean_linker_0, # of connection points: 3
#     Node 2, Type 0, BuildingBlock: ESEHIV_clean_linker_0, # of connection points: 3
#     Node 3, Type 0, BuildingBlock: ESEHIV_clean_linker_0, # of connection points: 3
#     Node 4, Type 0, BuildingBlock: ESEHIV_clean_linker_0, # of connection points: 3
#     Node 5, Type 0, BuildingBlock: ESEHIV_clean_linker_0, # of connection points: 3
#     Node 6, Type 0, BuildingBlock: ESEHIV_clean_linker_0, # of connection points: 3
#     Node 7, Type 0, BuildingBlock: ESEHIV_clean_linker_0, # of connection points: 3
#     Node 8, Type 0, BuildingBlock: ESEHIV_clean_linker_0, # of connection points: 3
#     Node 9, Type 0, BuildingBlock: ESEHIV_clean_linker_0, # of connection points: 3
#     Node 10, Type 0, BuildingBlock: ESEHIV_clean_linker_0, # of connection points: 3
#     Node 11, Type 0, BuildingBlock: ESEHIV_clean_linker_0, # of connection points: 3
#     Node 12, Type 0, BuildingBlock: ESEHIV_clean_linker_0, # of connection points: 3
#     Node 13, Type 0, BuildingBlock: ESEHIV_clean_linker_0, # of connection points: 3
#     Node 14, Type 0, BuildingBlock: ESEHIV_clean_linker_0, # of connection points: 3
#     Node 15, Type 0, BuildingBlock: ESEHIV_clean_linker_0, # of connection points: 3
#     Node 16, Type 0, BuildingBlock: ESEHIV_clean_linker_0, # of connection points: 3
#     Node 17, Type 0, BuildingBlock: ESEHIV_clean_linker_0, # of connection points: 3
#     Node 18, Type 1, BuildingBlock: KUMBUR_clean_sbu_0, # of connection points: 6
#     Node 19, Type 1, BuildingBlock: KUMBUR_clean_sbu_0, # of connection points: 6
#     Node 20, Type 1, BuildingBlock: KUMBUR_clean_sbu_0, # of connection points: 6
#     Node 21, Type 1, BuildingBlock: KUMBUR_clean_sbu_0, # of connection points: 6
#     Node 22, Type 1, BuildingBlock: KUMBUR_clean_sbu_0, # of connection points: 6
#     Node 23, Type 1, BuildingBlock: KUMBUR_clean_sbu_0, # of connection points: 6
#     Node 24, Type 1, BuildingBlock: KUMBUR_clean_sbu_0, # of connection points: 6
#     Node 25, Type 1, BuildingBlock: KUMBUR_clean_sbu_0, # of connection points: 6
#     Node 26, Type 1, BuildingBlock: KUMBUR_clean_sbu_0, # of connection points: 6
#     Edge 27, Type (0, 1), BuildingBlock: MIFKUJ_clean_linker_0, # of connection points: 2
#     Edge 28, Type (0, 1), BuildingBlock: MIFKUJ_clean_linker_0, # of connection points: 2
#     Edge 29, Type (0, 1), BuildingBlock: MIFKUJ_clean_linker_0, # of connection points: 2
#     Edge 30, Type (0, 1), BuildingBlock: MIFKUJ_clean_linker_0, # of connection points: 2
#     Edge 31, Type (0, 1), BuildingBlock: MIFKUJ_clean_linker_0, # of connection points: 2
#     Edge 32, Type (0, 1), BuildingBlock: MIFKUJ_clean_linker_0, # of connection points: 2
#     Edge 33, Type (0, 1), BuildingBlock: MIFKUJ_clean_linker_0, # of connection points: 2
#     Edge 34, Type (0, 1), BuildingBlock: MIFKUJ_clean_linker_0, # of connection points: 2
#     Edge 35, Type (0, 1), BuildingBlock: MIFKUJ_clean_linker_0, # of connection points: 2
#     Edge 36, Type (0, 1), BuildingBlock: MIFKUJ_clean_linker_0, # of connection points: 2
#     Edge 37, Type (0, 1), BuildingBlock: MIFKUJ_clean_linker_0, # of connection points: 2
#     Edge 38, Type (0, 1), BuildingBlock: MIFKUJ_clean_linker_0, # of connection points: 2
#     Edge 39, Type (0, 1), BuildingBlock: MIFKUJ_clean_linker_0, # of connection points: 2
#     Edge 40, Type (0, 1), BuildingBlock: MIFKUJ_clean_linker_0, # of connection points: 2
#     Edge 41, Type (0, 1), BuildingBlock: MIFKUJ_clean_linker_0, # of connection points: 2
#     Edge 42, Type (0, 1), BuildingBlock: MIFKUJ_clean_linker_0, # of connection points: 2
#     Edge 43, Type (0, 1), BuildingBlock: MIFKUJ_clean_linker_0, # of connection points: 2
#     Edge 44, Type (0, 1), BuildingBlock: MIFKUJ_clean_linker_0, # of connection points: 2
#     Edge 45, Type (0, 1), BuildingBlock: MIFKUJ_clean_linker_0, # of connection points: 2
#     Edge 46, Type (0, 1), BuildingBlock: MIFKUJ_clean_linker_0, # of connection points: 2
#     Edge 47, Type (0, 1), BuildingBlock: MIFKUJ_clean_linker_0, # of connection points: 2
#     Edge 48, Type (0, 1), BuildingBlock: MIFKUJ_clean_linker_0, # of connection points: 2
#     Edge 49, Type (0, 1), BuildingBlock: MIFKUJ_clean_linker_0, # of connection points: 2
#     Edge 50, Type (0, 1), BuildingBlock: MIFKUJ_clean_linker_0, # of connection points: 2
#     Edge 51, Type (0, 1), BuildingBlock: MIFKUJ_clean_linker_0, # of connection points: 2
#     Edge 52, Type (0, 1), BuildingBlock: MIFKUJ_clean_linker_0, # of connection points: 2
#     Edge 53, Type (0, 1), BuildingBlock: MIFKUJ_clean_linker_0, # of connection points: 2
#     Edge 54, Type (0, 1), BuildingBlock: MIFKUJ_clean_linker_0, # of connection points: 2
#     Edge 55, Type (0, 1), BuildingBlock: MIFKUJ_clean_linker_0, # of connection points: 2
#     Edge 56, Type (0, 1), BuildingBlock: MIFKUJ_clean_linker_0, # of connection points: 2
#     Edge 57, Type (0, 1), BuildingBlock: MIFKUJ_clean_linker_0, # of connection points: 2
#     Edge 58, Type (0, 1), BuildingBlock: MIFKUJ_clean_linker_0, # of connection points: 2
#     Edge 59, Type (0, 1), BuildingBlock: MIFKUJ_clean_linker_0, # of connection points: 2
#     Edge 60, Type (0, 1), BuildingBlock: MIFKUJ_clean_linker_0, # of connection points: 2
#     Edge 61, Type (0, 1), BuildingBlock: MIFKUJ_clean_linker_0, # of connection points: 2
#     Edge 62, Type (0, 1), BuildingBlock: MIFKUJ_clean_linker_0, # of connection points: 2
#     Edge 63, Type (0, 1), BuildingBlock: MIFKUJ_clean_linker_0, # of connection points: 2
#     Edge 64, Type (0, 1), BuildingBlock: MIFKUJ_clean_linker_0, # of connection points: 2
#     Edge 65, Type (0, 1), BuildingBlock: MIFKUJ_clean_linker_0, # of connection points: 2
#     Edge 66, Type (0, 1), BuildingBlock: MIFKUJ_clean_linker_0, # of connection points: 2
#     Edge 67, Type (0, 1), BuildingBlock: MIFKUJ_clean_linker_0, # of connection points: 2
#     Edge 68, Type (0, 1), BuildingBlock: MIFKUJ_clean_linker_0, # of connection points: 2
#     Edge 69, Type (0, 1), BuildingBlock: MIFKUJ_clean_linker_0, # of connection points: 2
#     Edge 70, Type (0, 1), BuildingBlock: MIFKUJ_clean_linker_0, # of connection points: 2
#     Edge 71, Type (0, 1), BuildingBlock: MIFKUJ_clean_linker_0, # of connection points: 2
#     Edge 72, Type (0, 1), BuildingBlock: MIFKUJ_clean_linker_0, # of connection points: 2
#     Edge 73, Type (0, 1), BuildingBlock: MIFKUJ_clean_linker_0, # of connection points: 2
#     Edge 74, Type (0, 1), BuildingBlock: MIFKUJ_clean_linker_0, # of connection points: 2
#     Edge 75, Type (0, 1), BuildingBlock: MIFKUJ_clean_linker_0, # of connection points: 2
#     Edge 76, Type (0, 1), BuildingBlock: MIFKUJ_clean_linker_0, # of connection points: 2
#     Edge 77, Type (0, 1), BuildingBlock: MIFKUJ_clean_linker_0, # of connection points: 2
#     Edge 78, Type (0, 1), BuildingBlock: MIFKUJ_clean_linker_0, # of connection points: 2
#     Edge 79, Type (0, 1), BuildingBlock: MIFKUJ_clean_linker_0, # of connection points: 2
#     Edge 80, Type (0, 1), BuildingBlock: MIFKUJ_clean_linker_0, # of connection points: 2
# Relax obj value: 0.009
# Max RMSD: 0.095
# Mean RMSD: 0.062
data_MOF--net-eea--node1-KUMBUR_clean_sbu_0--node2-ESEHIV_clean_linker_0--edge1-MIFKUJ_clean_linker_0
_symmetry_space_group_name_H-M    P1
_symmetry_Int_Tables_number       1
_symmetry_cell_setting            triclinic
loop_
_symmetry_equiv_pos_as_xyz
'x, y, z'
_cell_length_a     63.284142
_cell_length_b     64.543259
_cell_length_c     89.686366
_cell_angle_alpha  90.192061
_cell_angle_beta   90.203419
_cell_angle_gamma 119.98444
loop_
_atom_site_label
_atom_site_type_symbol
_atom_site_fract_x
_atom_site_fract_y
_atom_site_fract_z
_atom_type_partial_charge
H0 H 0.23952 0.15036 0.44132 0.0
H1 H 0.23346 0.081 0.4424 0.0
H2 H 0.20354 0.10027 0.40547 0.0
C3 C 0.23299 0.13283 0.43639 0.0
C4 C 0.221 0.1274 0.42249 0.0
C5 C 0.23733 0.11611 0.44376 0.0
C6 C 0.22992 0.09388 0.4369 0.0
C7 C 0.21815 0.08821 0.42294 0.0
C8 C 0.21345 0.10494 0.41596 0.0
H9 H 0.85857 0.09103 0.44008 0.0
H10 H 0.92604 0.15812 0.43954 0.0
H11 H 0.90351 0.11219 0.40092 0.0
C12 C 0.87476 0.10399 0.43423 0.0
C13 C 0.87885 0.099 0.4196 0.0
C14 C 0.89159 0.12526 0.44154 0.0
C15 C 0.91309 0.14149 0.43411 0.0
C16 C 0.91747 0.1369 0.41944 0.0
C17 C 0.90024 0.11568 0.41226 0.0
H18 H 0.85777 0.77527 0.44165 0.0
H19 H 0.92447 0.77313 0.4411 0.0
H20 H 0.90444 0.80109 0.4034 0.0
C21 C 0.87451 0.77921 0.43607 0.0
C22 C 0.87887 0.7885 0.42152 0.0
C23 C 0.89103 0.77395 0.4433 0.0
C24 C 0.9121 0.77776 0.43566 0.0
C25 C 0.91721 0.7874 0.42113 0.0
C26 C 0.90049 0.79292 0.41431 0.0
H27 H 0.08492 0.22953 0.574 0.0
H28 H 0.15011 0.22438 0.57279 0.0
H29 H 0.10522 0.20247 0.61196 0.0
C30 C 0.09727 0.22473 0.57929 0.0
C31 C 0.09237 0.21541 0.59387 0.0
C32 C 0.11809 0.22809 0.57155 0.0
C33 C 0.13404 0.22185 0.57862 0.0
C34 C 0.12964 0.21265 0.5932 0.0
C35 C 0.10872 0.20947 0.60071 0.0
H36 H 0.77951 0.92173 0.56788 0.0
H37 H 0.77778 0.85439 0.56904 0.0
H38 H 0.80305 0.90106 0.60737 0.0
C39 C 0.78282 0.90902 0.57382 0.0
C40 C 0.79201 0.9141 0.58848 0.0
C41 C 0.77745 0.88745 0.56684 0.0
C42 C 0.78166 0.87093 0.57452 0.0
C43 C 0.79138 0.87593 0.58906 0.0
C44 C 0.79645 0.89753 0.59596 0.0
H45 H 0.07894 0.84136 0.57189 0.0
H46 H 0.14426 0.91001 0.56998 0.0
H47 H 0.09682 0.89219 0.60772 0.0
C48 C 0.0907 0.85886 0.57674 0.0
C49 C 0.08524 0.86456 0.59088 0.0
C50 C 0.11189 0.87523 0.56907 0.0
C51 C 0.12775 0.89749 0.57574 0.0
C52 C 0.12268 0.90367 0.58978 0.0
C53 C 0.10122 0.88721 0.59713 0.0
H54 H 0.89812 0.48187 0.78049 0.0
H55 H 0.90266 0.41757 0.77923 0.0
H56 H 0.87047 0.43473 0.74246 0.0
C57 C 0.89438 0.46545 0.7749 0.0
C58 C 0.88327 0.45999 0.76074 0.0
C59 C 0.90181 0.45042 0.78152 0.0
C60 C 0.89744 0.42949 0.77402 0.0
C61 C 0.88594 0.42357 0.76 0.0
C62 C 0.87899 0.43897 0.7534 0.0
H63 H 0.5264 0.41788 0.77598 0.0
H64 H 0.58989 0.48761 0.77266 0.0
H65 H 0.56858 0.43812 0.73573 0.0
C66 C 0.54182 0.43095 0.76961 0.0
C67 C 0.54535 0.42544 0.75499 0.0
C68 C 0.55788 0.45328 0.77606 0.0
C69 C 0.57774 0.47027 0.76772 0.0
C70 C 0.582 0.46499 0.75316 0.0
C71 C 0.56563 0.44245 0.74692 0.0
H72 H 0.52472 0.10968 0.77395 0.0
H73 H 0.59473 0.11375 0.77429 0.0
H74 H 0.56958 0.13249 0.7347 0.0
C75 C 0.54148 0.11374 0.76832 0.0
C76 C 0.54501 0.12166 0.75344 0.0
C77 C 0.55924 0.11073 0.77596 0.0
C78 C 0.58093 0.11601 0.76853 0.0
C79 C 0.58483 0.12389 0.75365 0.0
C80 C 0.56676 0.12664 0.7462 0.0
H81 H 0.74787 0.55583 0.90594 0.0
H82 H 0.81626 0.55657 0.90594 0.0
H83 H 0.77072 0.5329 0.94477 0.0
C84 C 0.76095 0.55222 0.91144 0.0
C85 C 0.75638 0.54331 0.92614 0.0
C86 C 0.78276 0.55755 0.90409 0.0
C87 C 0.79983 0.55335 0.91163 0.0
C88 C 0.79581 0.54458 0.92631 0.0
C89 C 0.77398 0.53958 0.93345 0.0
H90 H 0.43604 0.25358 0.9014 0.0
H91 H 0.4347 0.18626 0.90084 0.0
H92 H 0.46268 0.23244 0.93919 0.0
C93 C 0.43986 0.24079 0.90679 0.0
C94 C 0.44984 0.24555 0.92126 0.0
C95 C 0.43449 0.21955 0.89926 0.0
C96 C 0.43933 0.20297 0.90638 0.0
C97 C 0.44914 0.20736 0.92088 0.0
C98 C 0.45449 0.22874 0.92817 0.0
H99 H 0.74235 0.18418 0.90368 0.0
H100 H 0.81073 0.25043 0.90233 0.0
H101 H 0.76881 0.22888 0.94275 0.0
C102 C 0.75613 0.20042 0.9091 0.0
C103 C 0.7531 0.20474 0.92409 0.0
C104 C 0.77702 0.21672 0.90116 0.0
C105 C 0.79463 0.23777 0.90836 0.0
C106 C 0.79183 0.24247 0.92334 0.0
C107 C 0.77104 0.22571 0.93113 0.0
H108 H 0.5607 0.81642 0.11069 0.0
H109 H 0.56064 0.74996 0.11292 0.0
H110 H 0.53846 0.7697 0.07248 0.0
C111 C 0.55756 0.8 0.10538 0.0
C112 C 0.54878 0.7949 0.09065 0.0
C113 C 0.56212 0.78403 0.11342 0.0
C114 C 0.55719 0.76236 0.10672 0.0
C115 C 0.5484 0.75687 0.09197 0.0
C116 C 0.54431 0.77331 0.08403 0.0
H117 H 0.19475 0.75537 0.10732 0.0
H118 H 0.2579 0.82583 0.10577 0.0
H119 H 0.23935 0.77771 0.06824 0.0
C120 C 0.21056 0.76894 0.10146 0.0
C121 C 0.2151 0.76427 0.08689 0.0
C122 C 0.22598 0.79108 0.10842 0.0
C123 C 0.24643 0.80852 0.10061 0.0
C124 C 0.2515 0.80409 0.086 0.0
C125 C 0.23562 0.78178 0.07932 0.0
H126 H 0.19186 0.44535 0.10782 0.0
H127 H 0.26058 0.44681 0.10905 0.0
H128 H 0.23952 0.47103 0.07 0.0
C129 C 0.2087 0.44901 0.10247 0.0
C130 C 0.21356 0.45855 0.08798 0.0
C131 C 0.22551 0.44475 0.11025 0.0
C132 C 0.24758 0.45019 0.10323 0.0
C133 C 0.25299 0.45982 0.08873 0.0
C134 C 0.23588 0.46414 0.08127 0.0
H135 H 0.41589 0.89212 0.24064 0.0
H136 H 0.48121 0.88741 0.23857 0.0
H137 H 0.4371 0.86503 0.27816 0.0
C138 C 0.42854 0.88762 0.24586 0.0
C139 C 0.42379 0.87788 0.26031 0.0
C140 C 0.44909 0.8909 0.23787 0.0
C141 C 0.46527 0.88473 0.24464 0.0
C142 C 0.46127 0.87548 0.25922 0.0
C143 C 0.44023 0.87181 0.26687 0.0
H144 H 0.10012 0.58126 0.235 0.0
H145 H 0.09694 0.51303 0.2348 0.0
H146 H 0.12634 0.55973 0.2728 0.0
C147 C 0.10315 0.56806 0.24052 0.0
C148 C 0.11374 0.57303 0.25482 0.0
C149 C 0.09692 0.54645 0.23317 0.0
C150 C 0.10198 0.52995 0.24019 0.0
C151 C 0.11262 0.53471 0.25445 0.0
C152 C 0.11833 0.55618 0.26172 0.0
H153 H 0.41256 0.51153 0.23905 0.0
H154 H 0.47981 0.57862 0.23851 0.0
H155 H 0.43367 0.55857 0.27714 0.0
C156 C 0.42535 0.52818 0.24451 0.0
C157 C 0.42064 0.53296 0.25908 0.0
C158 C 0.44663 0.54463 0.23701 0.0
C159 C 0.46325 0.56609 0.24421 0.0
C160 C 0.45876 0.57147 0.25867 0.0
C161 C 0.43732 0.55475 0.26598 0.0
Tb162 Tb 0.4958 0.99164 0.99005 0.0
C163 C 0.54432 0.07613 0.03431 0.0
C164 C 0.58674 0.08679 0.03492 0.0
C165 C 0.57545 0.1168 0.04064 0.0
C166 C 0.56194 0.06986 0.03239 0.0
C167 C 0.55074 0.09956 0.0387 0.0
C168 C 0.59342 0.11037 0.03883 0.0
C169 C 0.50782 0.08632 0.04074 0.0
N170 N 0.52067 0.05868 0.03296 0.0
C171 C 0.5024 0.06323 0.03666 0.0
C172 C 0.5321 0.10465 0.04161 0.0
Tb173 Tb 0.51336 0.02135 0.02618 0.0
N174 N 0.55458 0.04668 0.02922 0.0
C175 C 0.57119 0.03899 0.02929 0.0
C176 C 0.60391 0.07925 0.03411 0.0
C177 C 0.59604 0.05515 0.03152 0.0
H178 H 0.48356 0.04922 0.03614 0.0
H179 H 0.60909 0.04897 0.03122 0.0
H180 H 0.61238 0.12363 0.04081 0.0
H181 H 0.49325 0.08992 0.04331 0.0
H182 H 0.5656 0.02047 0.02735 0.0
H183 H 0.40018 0.96405 0.98477 0.0
H184 H 0.62315 0.0917 0.03594 0.0
H185 H 0.52577 0.96336 0.98133 0.0
H186 H 0.44374 0.99273 0.98843 0.0
H187 H 0.51599 0.92223 0.97511 0.0
H188 H 0.5808 0.13493 0.04396 0.0
H189 H 0.38618 0.92115 0.9805 0.0
H190 H 0.39677 0.88874 0.97714 0.0
H191 H 0.53626 0.12245 0.04497 0.0
H192 H 0.42834 0.87729 0.97456 0.0
N193 N 0.4547 0.96646 0.9868 0.0
C194 C 0.43808 0.97413 0.98666 0.0
C195 C 0.40538 0.93369 0.98228 0.0
C196 C 0.42253 0.92609 0.98177 0.0
C197 C 0.41323 0.95787 0.9846 0.0
C198 C 0.44735 0.94317 0.98395 0.0
H199 H 0.47294 0.88974 0.97361 0.0
N200 N 0.48863 0.95418 0.9838 0.0
C201 C 0.50145 0.92606 0.9772 0.0
C202 C 0.46497 0.93676 0.98244 0.0
C203 C 0.50692 0.94937 0.98069 0.0
C204 C 0.47713 0.90775 0.97641 0.0
C205 C 0.4585 0.91306 0.97879 0.0
O206 O 0.51569 0.99895 0.97007 0.0
O207 O 0.52342 0.02005 1.00345 0.0
O208 O 0.5116 0.0467 0.01082 0.0
O209 O 0.48663 0.02027 0.99208 0.0
O210 O 0.53505 0.00412 0.98888 0.0
O211 O 0.48458 0.00385 0.97155 0.0
O212 O 0.49303 0.01277 0.04605 0.0
O213 O 0.48545 0.99295 0.01276 0.0
O214 O 0.49679 0.96641 0.00572 0.0
O215 O 0.52328 0.99323 0.0236 0.0
O216 O 0.47441 0.00966 0.02733 0.0
O217 O 0.52474 0.00897 0.04455 0.0
C218 C 0.54256 0.0212 0.99849 0.0
C219 C 0.49357 0.99426 0.94782 0.0
C220 C 0.49617 0.99879 0.92066 0.0
C221 C 0.5029 0.00884 0.9351 0.0
C222 C 0.47969 0.97411 0.91919 0.0
C223 C 0.47707 0.96976 0.946 0.0
C224 C 0.47016 0.95979 0.93177 0.0
C225 C 0.49749 0.04146 0.99884 0.0
C226 C 0.50143 0.00466 0.96287 0.0
C227 C 0.43374 0.89567 0.97725 0.0
C228 C 0.41577 0.90218 0.97871 0.0
C229 C 0.46663 0.99254 0.01775 0.0
C230 C 0.51486 0.01732 0.0684 0.0
C231 C 0.50744 0.00204 0.08088 0.0
C232 C 0.5143 0.01152 0.09549 0.0
C233 C 0.52842 0.03654 0.09726 0.0
C234 C 0.52916 0.04208 0.07057 0.0
C235 C 0.53581 0.05159 0.08491 0.0
C236 C 0.51183 0.97175 0.01721 0.0
C237 C 0.5075 0.00733 0.0532 0.0
H238 H 0.5157 0.0278 0.93643 0.0
H239 H 0.47398 0.96592 0.90826 0.0
H240 H 0.46956 0.95832 0.95556 0.0
H241 H 0.45741 0.94084 0.93049 0.0
H242 H 0.49663 0.98287 0.07918 0.0
H243 H 0.53357 0.0446 0.10825 0.0
H244 H 0.53512 0.05409 0.06121 0.0
H245 H 0.5467 0.07077 0.08647 0.0
Tb246 Tb 0.02448 0.50628 0.99027 0.0
C247 C 0.92921 0.47198 0.02469 0.0
C248 C 0.91769 0.50173 0.01946 0.0
C249 C 0.88637 0.46069 0.02443 0.0
C250 C 0.93569 0.49511 0.02114 0.0
C251 C 0.90453 0.45454 0.02672 0.0
C252 C 0.89294 0.48426 0.02078 0.0
C253 C 0.91784 0.42694 0.03419 0.0
N254 N 0.94731 0.46686 0.0268 0.0
C255 C 0.94206 0.44491 0.03206 0.0
C256 C 0.89895 0.43168 0.03133 0.0
Tb257 Tb 0.98636 0.49707 0.02247 0.0
N258 N 0.95978 0.51137 0.02002 0.0
C259 C 0.96715 0.5351 0.01832 0.0
C260 C 0.92514 0.52576 0.01686 0.0
C261 C 0.95 0.54256 0.0165 0.0
H262 H 0.9565 0.441 0.0342 0.0
H263 H 0.95599 0.56128 0.01476 0.0
H264 H 0.87882 0.48892 0.01934 0.0
H265 H 0.91375 0.40944 0.03801 0.0
H266 H 0.98625 0.54838 0.01791 0.0
H267 H 0.05714 0.44365 0.99642 0.0
H268 H 0.9119 0.53158 0.01544 0.0
H269 H 0.05315 0.56317 0.97966 0.0
H270 H 0.02605 0.45567 0.99408 0.0
H271 H 0.09549 0.59546 0.97586 0.0
H272 H 0.86727 0.4475 0.02577 0.0
H273 H 0.10097 0.4741 0.99542 0.0
H274 H 0.13323 0.51715 0.99171 0.0
H275 H 0.88021 0.41775 0.03301 0.0
H276 H 0.1437 0.55853 0.98607 0.0
N277 N 0.05183 0.49287 0.99207 0.0
C278 C 0.04504 0.46925 0.99352 0.0
C279 C 0.08737 0.47953 0.99433 0.0
C280 C 0.09421 0.5035 0.99203 0.0
C281 C 0.06266 0.46229 0.99487 0.0
C282 C 0.07576 0.50959 0.9908 0.0
H283 H 0.12968 0.58779 0.97976 0.0
N284 N 0.06315 0.53742 0.98606 0.0
C285 C 0.09185 0.57791 0.97925 0.0
C286 C 0.08165 0.53272 0.98767 0.0
C287 C 0.06784 0.55949 0.98137 0.0
C288 C 0.11111 0.57353 0.98151 0.0
C289 C 0.10614 0.55064 0.98563 0.0
O290 O 0.0193 0.51504 0.96856 0.0
O291 O 0.99233 0.5052 0.99913 0.0
O292 O 0.9648 0.46825 0.00669 0.0
O293 O 0.99592 0.46823 0.99277 0.0
O294 O 0.01148 0.53092 0.98391 0.0
O295 O 0.01828 0.48171 0.97299 0.0
O296 O 0.99026 0.48789 0.04436 0.0
O297 O 0.01807 0.49757 0.01348 0.0
O298 O 0.04636 0.53433 0.00644 0.0
O299 O 0.0153 0.53497 0.02008 0.0
O300 O 0.99933 0.47244 0.02909 0.0
O301 O 0.99372 0.5222 0.03954 0.0
C302 C 0.99208 0.52175 0.99187 0.0
C303 C 0.03055 0.4985 0.949 0.0
C304 C 0.02977 0.49762 0.92178 0.0
C305 C 0.01761 0.49308 0.93552 0.0
C306 C 0.05525 0.50714 0.92186 0.0
C307 C 0.05584 0.50783 0.94889 0.0
C308 C 0.06809 0.51201 0.93535 0.0
C309 C 0.97278 0.45808 0.9971 0.0
C310 C 0.01718 0.49554 0.96285 0.0
C311 C 0.12473 0.54497 0.98742 0.0
C312 C 0.11877 0.52141 0.99064 0.0
C313 C 0.01835 0.4811 0.02081 0.0
C314 C 0.97927 0.50574 0.06334 0.0
C315 C 0.99042 0.50836 0.07727 0.0
C316 C 0.97755 0.50594 0.09049 0.0
C317 C 0.95323 0.50094 0.08952 0.0
C318 C 0.95506 0.5008 0.06255 0.0
C319 C 0.94213 0.49842 0.07561 0.0
C320 C 0.03841 0.54462 0.0159 0.0
C321 C 0.99328 0.50786 0.04989 0.0
H322 H 0.99798 0.48541 0.93583 0.0
H323 H 0.06537 0.51129 0.91155 0.0
H324 H 0.06609 0.5121 0.9592 0.0
H325 H 0.08767 0.51941 0.93528 0.0
H326 H 0.00928 0.51254 0.07775 0.0
H327 H 0.9427 0.49868 0.09949 0.0
H328 H 0.94619 0.4988 0.0519 0.0
H329 H 0.92341 0.49452 0.07497 0.0
Tb330 Tb 0.51319 0.49644 0.0231 0.0
C331 C 0.46861 0.54022 0.98168 0.0
C332 C 0.42533 0.51191 0.98063 0.0
C333 C 0.44018 0.55402 0.97586 0.0
C334 C 0.4495 0.51714 0.98317 0.0
C335 C 0.46425 0.55894 0.97791 0.0
C336 C 0.42078 0.5305 0.97705 0.0
C337 C 0.50784 0.58535 0.97668 0.0
N338 N 0.49162 0.544 0.983 0.0
C339 C 0.51123 0.56608 0.98007 0.0
C340 C 0.48425 0.58182 0.97568 0.0
Tb341 Tb 0.49523 0.51117 0.98821 0.0
N342 N 0.45475 0.49958 0.98607 0.0
C343 C 0.43654 0.47617 0.98619 0.0
C344 C 0.40662 0.48804 0.98114 0.0
C345 C 0.41224 0.47011 0.98397 0.0
H346 H 0.52956 0.56903 0.9807 0.0
H347 H 0.39791 0.45156 0.98421 0.0
H348 H 0.40245 0.52683 0.97473 0.0
H349 H 0.52343 0.60288 0.9747 0.0
H350 H 0.44054 0.462 0.98809 0.0
H351 H 0.61097 0.55676 0.02313 0.0
H352 H 0.3879 0.48319 0.97893 0.0
H353 H 0.48173 0.44109 0.0357 0.0
H354 H 0.56797 0.54626 0.02316 0.0
H355 H 0.48892 0.40772 0.04139 0.0
H356 H 0.43641 0.56812 0.97287 0.0
H357 H 0.62196 0.52503 0.02456 0.0
H358 H 0.60822 0.48138 0.02798 0.0
H359 H 0.48166 0.5967 0.97282 0.0
H360 H 0.5748 0.44052 0.03305 0.0
N361 N 0.55412 0.50859 0.02412 0.0
C362 C 0.57222 0.53207 0.02386 0.0
C363 C 0.60293 0.52024 0.02457 0.0
C364 C 0.58443 0.49641 0.02595 0.0
C365 C 0.59679 0.53819 0.02382 0.0
C366 C 0.55997 0.4912 0.02581 0.0
H367 H 0.53019 0.41294 0.03847 0.0
N368 N 0.51843 0.46484 0.02926 0.0
C369 C 0.50383 0.42466 0.03767 0.0
C370 C 0.54137 0.4684 0.02851 0.0
C371 C 0.49984 0.44365 0.03446 0.0
C372 C 0.52712 0.42764 0.03595 0.0
C373 C 0.54639 0.4499 0.03162 0.0
O374 O 0.49411 0.48686 0.04343 0.0
O375 O 0.48574 0.50034 0.01104 0.0
O376 O 0.49896 0.53776 1.00454 0.0
O377 O 0.52596 0.53508 0.021 0.0
O378 O 0.4737 0.47248 0.0253 0.0
O379 O 0.52838 0.51949 0.0416 0.0
O380 O 0.51429 0.52239 0.96794 0.0
O381 O 0.52221 0.5064 1.00008 0.0
O382 O 0.50573 0.46703 0.00788 0.0
O383 O 0.48276 0.47263 0.98939 0.0
O384 O 0.53476 0.53473 0.98614 0.0
O385 O 0.48053 0.4889 0.96934 0.0
C386 C 0.46648 0.48324 0.01636 0.0
C387 C 0.51827 0.5008 0.06514 0.0
C388 C 0.51625 0.50157 0.09239 0.0
C389 C 0.50976 0.50621 0.07823 0.0
C390 C 0.53123 0.49119 0.09312 0.0
C391 C 0.53343 0.49082 0.0662 0.0
C392 C 0.53978 0.48597 0.08012 0.0
C393 C 0.51507 0.54646 0.01555 0.0
C394 C 0.51092 0.50543 0.05051 0.0
C395 C 0.57055 0.45455 0.03091 0.0
C396 C 0.58957 0.47781 0.02803 0.0
C397 C 0.54156 0.52326 0.99473 0.0
C398 C 0.49066 0.50823 0.94594 0.0
C399 C 0.49848 0.50186 0.93295 0.0
C400 C 0.49205 0.50629 0.91873 0.0
C401 C 0.47769 0.5173 0.91779 0.0
C402 C 0.47621 0.51897 0.94469 0.0
C403 C 0.46981 0.5235 0.93069 0.0
C404 C 0.49124 0.45985 0.99599 0.0
C405 C 0.49796 0.50371 0.96063 0.0
H406 H 0.49837 0.5143 0.07735 0.0
H407 H 0.53618 0.48686 0.10375 0.0
H408 H 0.54034 0.48675 0.05629 0.0
H409 H 0.55133 0.47806 0.08085 0.0
H410 H 0.50928 0.49315 0.93395 0.0
H411 H 0.47275 0.52137 0.90707 0.0
H412 H 0.46989 0.52388 0.95448 0.0
H413 H 0.45877 0.53194 0.92982 0.0
Tb414 Tb 0.15978 0.32105 0.32321 0.0
C415 C 0.2155 0.40674 0.36528 0.0
C416 C 0.25719 0.41523 0.36374 0.0
C417 C 0.24881 0.44747 0.36875 0.0
C418 C 0.2319 0.39898 0.36297 0.0
C419 C 0.22366 0.43095 0.36857 0.0
C420 C 0.26557 0.43962 0.3663 0.0
C421 C 0.18164 0.42019 0.3725 0.0
N422 N 0.19142 0.39019 0.36508 0.0
C423 C 0.17449 0.39635 0.36925 0.0
C424 C 0.20632 0.43764 0.37197 0.0
Tb425 Tb 0.18135 0.3518 0.35899 0.0
N426 N 0.223 0.37528 0.36064 0.0
C427 C 0.2386 0.36637 0.36011 0.0
C428 C 0.27324 0.40637 0.36228 0.0
C429 C 0.26387 0.38178 0.36069 0.0
H430 H 0.15537 0.383 0.36963 0.0
H431 H 0.2761 0.37466 0.35985 0.0
H432 H 0.28494 0.45244 0.36679 0.0
H433 H 0.16812 0.42509 0.37542 0.0
H434 H 0.23179 0.34747 0.35879 0.0
H435 H 0.06468 0.29722 0.32351 0.0
H436 H 0.29281 0.41825 0.36274 0.0
H437 H 0.18549 0.29124 0.30981 0.0
H438 H 0.10891 0.32471 0.32414 0.0
H439 H 0.17301 0.24974 0.3026 0.0
H440 H 0.25549 0.46622 0.3711 0.0
H441 H 0.04826 0.25372 0.32032 0.0
H442 H 0.05644 0.21995 0.31529 0.0
H443 H 0.21183 0.45607 0.37456 0.0
H444 H 0.08608 0.20693 0.30945 0.0
N445 N 0.11804 0.29717 0.32185 0.0
C446 C 0.10228 0.30586 0.32269 0.0
C447 C 0.06781 0.26574 0.32062 0.0
C448 C 0.08399 0.25715 0.31865 0.0
C449 C 0.07702 0.29028 0.32237 0.0
C450 C 0.10926 0.27358 0.31922 0.0
H451 H 0.12966 0.21806 0.30433 0.0
N452 N 0.14967 0.28313 0.31588 0.0
C453 C 0.15951 0.2541 0.30648 0.0
C454 C 0.12573 0.26626 0.31609 0.0
C455 C 0.16651 0.27763 0.31055 0.0
C456 C 0.13505 0.23625 0.30752 0.0
C457 C 0.11771 0.24231 0.31211 0.0
O458 O 0.17813 0.3286 0.30261 0.0
O459 O 0.18923 0.34894 0.33596 0.0
O460 O 0.17964 0.37711 0.34373 0.0
O461 O 0.15207 0.35052 0.32604 0.0
O462 O 0.19824 0.33143 0.32069 0.0
O463 O 0.14786 0.33438 0.30566 0.0
O464 O 0.16239 0.34529 0.37929 0.0
O465 O 0.15214 0.32342 0.34636 0.0
O466 O 0.1632 0.2958 0.33785 0.0
O467 O 0.18842 0.3218 0.35676 0.0
O468 O 0.14276 0.34114 0.36129 0.0
O469 O 0.19348 0.34044 0.37746 0.0
C470 C 0.20724 0.34864 0.33025 0.0
C471 C 0.15466 0.32534 0.28125 0.0
C472 C 0.15399 0.3315 0.25431 0.0
C473 C 0.16245 0.34063 0.26879 0.0
C474 C 0.13752 0.30682 0.25261 0.0
C475 C 0.13811 0.30092 0.27921 0.0
C476 C 0.12962 0.29175 0.26497 0.0
C477 C 0.16458 0.37198 0.33229 0.0
C478 C 0.16383 0.33508 0.29628 0.0
C479 C 0.09264 0.2255 0.31229 0.0
C480 C 0.07578 0.23291 0.31561 0.0
C481 C 0.13401 0.32353 0.35201 0.0
C482 C 0.18523 0.35051 0.40127 0.0
C483 C 0.17709 0.33595 0.41406 0.0
C484 C 0.18501 0.34597 0.42843 0.0
C485 C 0.20097 0.37082 0.42971 0.0
C486 C 0.20126 0.37513 0.4029 0.0
C487 C 0.209 0.3852 0.41705 0.0
C488 C 0.17728 0.3007 0.34987 0.0
C489 C 0.17692 0.3398 0.38634 0.0
H490 H 0.17476 0.35961 0.27042 0.0
H491 H 0.13096 0.29902 0.24167 0.0
H492 H 0.13175 0.28894 0.28861 0.0
H493 H 0.11695 0.27283 0.26348 0.0
H494 H 0.16498 0.31685 0.41279 0.0
H495 H 0.2071 0.37923 0.44054 0.0
H496 H 0.2078 0.38658 0.39327 0.0
H497 H 0.22128 0.40427 0.41821 0.0
Tb498 Tb 0.68909 0.84138 0.32259 0.0
C499 C 0.59673 0.7986 0.36025 0.0
C500 C 0.58292 0.82705 0.35698 0.0
C501 C 0.55342 0.7852 0.36135 0.0
C502 C 0.60184 0.82155 0.35753 0.0
C503 C 0.57256 0.78021 0.36269 0.0
C504 C 0.55859 0.80861 0.35845 0.0
C505 C 0.58846 0.75439 0.36936 0.0
N506 N 0.61579 0.79474 0.36164 0.0
C507 C 0.61213 0.7733 0.36686 0.0
C508 C 0.56853 0.75771 0.36699 0.0
Tb509 Tb 0.65383 0.82618 0.35644 0.0
N510 N 0.62559 0.83875 0.35638 0.0
C511 C 0.63174 0.86232 0.35601 0.0
C512 C 0.58909 0.85098 0.3555 0.0
C513 C 0.61364 0.86873 0.3553 0.0
H514 H 0.62741 0.77049 0.36859 0.0
H515 H 0.61867 0.88737 0.35453 0.0
H516 H 0.54375 0.81241 0.35788 0.0
H517 H 0.58562 0.73724 0.37306 0.0
H518 H 0.65056 0.87634 0.35571 0.0
H519 H 0.72653 0.78251 0.31945 0.0
H520 H 0.57512 0.85599 0.35496 0.0
H521 H 0.7137 0.8997 0.31614 0.0
H522 H 0.69428 0.79263 0.32314 0.0
H523 H 0.75399 0.93353 0.30995 0.0
H524 H 0.53467 0.7713 0.36303 0.0
H525 H 0.76862 0.81431 0.31393 0.0
H526 H 0.79748 0.85762 0.3082 0.0
H527 H 0.55024 0.74308 0.36898 0.0
H528 H 0.80551 0.89891 0.30671 0.0
N529 N 0.71812 0.83022 0.32103 0.0
C530 C 0.71267 0.80688 0.32121 0.0
C531 C 0.75468 0.81901 0.316 0.0
C532 C 0.75998 0.84277 0.31521 0.0
C533 C 0.73092 0.80099 0.31904 0.0
C534 C 0.74114 0.84788 0.318 0.0
H535 H 0.78948 0.92752 0.30754 0.0
N536 N 0.72616 0.87458 0.31798 0.0
C537 C 0.75187 0.91605 0.31185 0.0
C538 C 0.74534 0.87091 0.31648 0.0
C539 C 0.72897 0.89672 0.31533 0.0
C540 C 0.77185 0.91259 0.31052 0.0
C541 C 0.76863 0.8897 0.31253 0.0
O542 O 0.68176 0.85267 0.30225 0.0
O543 O 0.6565 0.83642 0.33342 0.0
O544 O 0.63241 0.79689 0.3408 0.0
O545 O 0.66216 0.8027 0.32313 0.0
O546 O 0.67402 0.86519 0.31991 0.0
O547 O 0.68257 0.81967 0.30365 0.0
O548 O 0.66094 0.81598 0.37728 0.0
O549 O 0.68563 0.82988 0.34532 0.0
O550 O 0.71184 0.86739 0.33947 0.0
O551 O 0.68114 0.86484 0.35489 0.0
O552 O 0.66887 0.80226 0.35969 0.0
O553 O 0.66168 0.84948 0.37469 0.0
C554 C 0.65488 0.8535 0.32789 0.0
C555 C 0.69224 0.83967 0.28048 0.0
C556 C 0.68932 0.84172 0.25348 0.0
C557 C 0.67836 0.83648 0.2676 0.0
C558 C 0.71456 0.85044 0.25247 0.0
C559 C 0.71732 0.84814 0.27929 0.0
C560 C 0.72842 0.85357 0.26532 0.0
C561 C 0.64024 0.78981 0.32922 0.0
C562 C 0.67999 0.83441 0.29495 0.0
C563 C 0.78758 0.88482 0.31 0.0
C564 C 0.78312 0.86133 0.31106 0.0
C565 C 0.68724 0.81283 0.35091 0.0
C566 C 0.6507 0.83107 0.39823 0.0
C567 C 0.66432 0.83699 0.41148 0.0
C568 C 0.65282 0.83313 0.42542 0.0
C569 C 0.62733 0.8233 0.42581 0.0
C570 C 0.62537 0.82146 0.39882 0.0
C571 C 0.61377 0.81759 0.41258 0.0
C572 C 0.70403 0.87614 0.35009 0.0
C573 C 0.66342 0.83496 0.38398 0.0
H574 H 0.65899 0.83009 0.26861 0.0
H575 H 0.7235 0.85438 0.24173 0.0
H576 H 0.72828 0.85052 0.28905 0.0
H577 H 0.7478 0.8601 0.26444 0.0
H578 H 0.68396 0.84486 0.41088 0.0
H579 H 0.61781 0.81974 0.43632 0.0
H580 H 0.61461 0.81696 0.38871 0.0
H581 H 0.59419 0.81003 0.41299 0.0
Tb582 Tb 0.18088 0.82486 0.35683 0.0
C583 C 0.12809 0.86324 0.31797 0.0
C584 C 0.08566 0.83323 0.32059 0.0
C585 C 0.09694 0.87468 0.31635 0.0
C586 C 0.11055 0.83992 0.32045 0.0
C587 C 0.12157 0.88087 0.31545 0.0
C588 C 0.07898 0.85085 0.31893 0.0
C589 C 0.16378 0.90854 0.3098 0.0
N590 N 0.15155 0.86832 0.3171 0.0
C591 C 0.16926 0.89035 0.31237 0.0
C592 C 0.1399 0.90391 0.31162 0.0
Tb593 Tb 0.15929 0.83801 0.32253 0.0
N594 N 0.11787 0.82356 0.32195 0.0
C595 C 0.10086 0.79972 0.3224 0.0
C596 C 0.06828 0.809 0.32201 0.0
C597 C 0.07592 0.79214 0.32267 0.0
H598 H 0.18782 0.89419 0.31106 0.0
H599 H 0.06262 0.77329 0.32346 0.0
H600 H 0.05998 0.84614 0.3192 0.0
H601 H 0.17801 0.92614 0.30648 0.0
H602 H 0.10627 0.78635 0.32304 0.0
H603 H 0.27741 0.8896 0.35799 0.0
H604 H 0.04896 0.80309 0.32223 0.0
H605 H 0.15104 0.76696 0.36489 0.0
H606 H 0.23368 0.87647 0.3573 0.0
H607 H 0.16069 0.73481 0.36881 0.0
H608 H 0.09154 0.888 0.31464 0.0
H609 H 0.29099 0.85976 0.35952 0.0
H610 H 0.27984 0.81661 0.36197 0.0
H611 H 0.13569 0.91801 0.30962 0.0
H612 H 0.24803 0.77439 0.36489 0.0
N613 N 0.22214 0.83927 0.35808 0.0
C614 C 0.23913 0.86313 0.35805 0.0
C615 C 0.27167 0.85383 0.35925 0.0
C616 C 0.25422 0.82953 0.3601 0.0
C617 C 0.26407 0.87072 0.35842 0.0
C618 C 0.22933 0.82281 0.35961 0.0
H619 H 0.20347 0.74367 0.36758 0.0
N620 N 0.18799 0.79388 0.36124 0.0
C621 C 0.17519 0.75282 0.36659 0.0
C622 C 0.21159 0.79922 0.36124 0.0
C623 C 0.1698 0.77115 0.36444 0.0
C624 C 0.19936 0.7579 0.36589 0.0
C625 C 0.21798 0.78143 0.36341 0.0
O626 O 0.16295 0.81234 0.37734 0.0
O627 O 0.15195 0.82729 0.34559 0.0
O628 O 0.1651 0.86624 0.33832 0.0
O629 O 0.1907 0.86274 0.35592 0.0
O630 O 0.14194 0.79923 0.35955 0.0
O631 O 0.19471 0.84739 0.37562 0.0
O632 O 0.17724 0.84898 0.30188 0.0
O633 O 0.18838 0.83638 0.33402 0.0
O634 O 0.17774 0.79895 0.34008 0.0
O635 O 0.14889 0.79996 0.32438 0.0
O636 O 0.1983 0.86365 0.31952 0.0
O637 O 0.14508 0.81452 0.30416 0.0
C638 C 0.13354 0.80966 0.35124 0.0
C639 C 0.18699 0.82832 0.39903 0.0
C640 C 0.18638 0.83041 0.42627 0.0
C641 C 0.17839 0.83346 0.41218 0.0
C642 C 0.20303 0.82197 0.42691 0.0
C643 C 0.20362 0.82005 0.39995 0.0
C644 C 0.21155 0.81687 0.41384 0.0
C645 C 0.18019 0.87415 0.34993 0.0
C646 C 0.17831 0.83169 0.38451 0.0
C647 C 0.24271 0.78781 0.36337 0.0
C648 C 0.26081 0.81184 0.3617 0.0
C649 C 0.20681 0.85394 0.32836 0.0
C650 C 0.15258 0.83272 0.28049 0.0
C651 C 0.16151 0.8282 0.26724 0.0
C652 C 0.15316 0.83109 0.25321 0.0
C653 C 0.13595 0.83885 0.25275 0.0
C654 C 0.13533 0.84026 0.27971 0.0
C655 C 0.12714 0.84336 0.26589 0.0
C656 C 0.16131 0.78975 0.32926 0.0
C657 C 0.16146 0.82954 0.29501 0.0
H658 H 0.16574 0.84014 0.41139 0.0
H659 H 0.20927 0.81902 0.43753 0.0
H660 H 0.21046 0.81606 0.38998 0.0
H661 H 0.22433 0.81037 0.4145 0.0
H662 H 0.17464 0.82211 0.26789 0.0
H663 H 0.12946 0.84172 0.24219 0.0
H664 H 0.1282 0.84373 0.28975 0.0
H665 H 0.11392 0.84932 0.26537 0.0
Tb666 Tb 0.8241 0.64999 0.65633 0.0
C667 C 0.87787 0.73703 0.69824 0.0
C668 C 0.92023 0.74755 0.69739 0.0
C669 C 0.90964 0.77827 0.70241 0.0
C670 C 0.89523 0.73047 0.69605 0.0
C671 C 0.88477 0.76092 0.70169 0.0
C672 C 0.92737 0.77158 0.70029 0.0
C673 C 0.84209 0.74824 0.70464 0.0
N674 N 0.85413 0.71964 0.69767 0.0
C675 C 0.83622 0.72476 0.70133 0.0
C676 C 0.86647 0.76647 0.70468 0.0
Tb677 Tb 0.84616 0.68183 0.69158 0.0
N678 N 0.88753 0.70708 0.69336 0.0
C679 C 0.90407 0.69933 0.69276 0.0
C680 C 0.93722 0.73982 0.69622 0.0
C681 C 0.92908 0.71556 0.694 0.0
H682 H 0.8173 0.71088 0.70127 0.0
H683 H 0.94201 0.70928 0.69332 0.0
H684 H 0.9465 0.78501 0.70123 0.0
H685 H 0.82781 0.75226 0.70718 0.0
H686 H 0.89824 0.6807 0.69106 0.0
H687 H 0.72816 0.62279 0.6549 0.0
H688 H 0.95656 0.75234 0.69739 0.0
H689 H 0.85281 0.62051 0.64725 0.0
H690 H 0.77203 0.65139 0.65677 0.0
H691 H 0.84206 0.57902 0.6415 0.0
H692 H 0.91535 0.79677 0.70494 0.0
H693 H 0.71348 0.57974 0.651 0.0
H694 H 0.72347 0.54703 0.64674 0.0
H695 H 0.87099 0.78462 0.70734 0.0
H696 H 0.75448 0.53507 0.64316 0.0
N697 N 0.78268 0.62499 0.65424 0.0
C698 C 0.76617 0.63277 0.65498 0.0
C699 C 0.73289 0.59227 0.65177 0.0
C700 C 0.74985 0.58453 0.65034 0.0
C701 C 0.74111 0.61655 0.65395 0.0
C702 C 0.77489 0.60158 0.65153 0.0
H703 H 0.79879 0.54692 0.64107 0.0
N704 N 0.81599 0.61207 0.65045 0.0
C705 C 0.82783 0.58321 0.64384 0.0
C706 C 0.79218 0.59484 0.64963 0.0
C707 C 0.83384 0.60675 0.64707 0.0
C708 C 0.8034 0.56513 0.64363 0.0
C709 C 0.78517 0.57088 0.64634 0.0
O710 O 0.84305 0.65757 0.636 0.0
O711 O 0.85362 0.67914 0.66844 0.0
O712 O 0.84348 0.7062 0.67589 0.0
O713 O 0.81475 0.67849 0.65923 0.0
O714 O 0.86276 0.6612 0.65358 0.0
O715 O 0.81107 0.66089 0.63798 0.0
O716 O 0.82861 0.67555 0.71238 0.0
O717 O 0.81662 0.65308 0.67937 0.0
O718 O 0.82612 0.62545 0.67231 0.0
O719 O 0.85547 0.65341 0.68854 0.0
O720 O 0.80741 0.67009 0.6948 0.0
O721 O 0.8587 0.6694 0.70929 0.0
C722 C 0.87171 0.67903 0.66268 0.0
C723 C 0.82018 0.65182 0.61402 0.0
C724 C 0.82097 0.6566 0.5868 0.0
C725 C 0.82727 0.66663 0.60132 0.0
C726 C 0.8076 0.63146 0.5854 0.0
C727 C 0.80655 0.62695 0.61221 0.0
C728 C 0.80034 0.61688 0.59798 0.0
C729 C 0.82711 0.70032 0.66509 0.0
C730 C 0.82798 0.66242 0.62905 0.0
C731 C 0.76027 0.55362 0.64556 0.0
C732 C 0.74262 0.56044 0.64758 0.0
C733 C 0.79848 0.65271 0.68539 0.0
C734 C 0.85268 0.67972 0.73359 0.0
C735 C 0.8439 0.66535 0.74642 0.0
C736 C 0.85322 0.67497 0.76071 0.0
C737 C 0.87112 0.69935 0.76183 0.0
C738 C 0.87062 0.70383 0.73508 0.0
C739 C 0.87971 0.71357 0.74913 0.0
C740 C 0.84229 0.63129 0.68326 0.0
C741 C 0.84307 0.6693 0.71875 0.0
H742 H 0.83755 0.68587 0.60281 0.0
H743 H 0.803 0.62288 0.57456 0.0
H744 H 0.80095 0.6153 0.62176 0.0
H745 H 0.79007 0.59762 0.59668 0.0
H746 H 0.83011 0.64668 0.7452 0.0
H747 H 0.87835 0.70761 0.77258 0.0
H748 H 0.87759 0.71513 0.7254 0.0
H749 H 0.89347 0.73227 0.75019 0.0
Tb750 Tb 0.35647 0.17163 0.65388 0.0
C751 C 0.2621 0.13316 0.68986 0.0
C752 C 0.25014 0.16284 0.6858 0.0
C753 C 0.21915 0.12142 0.69003 0.0
C754 C 0.26831 0.15634 0.68688 0.0
C755 C 0.23753 0.11548 0.69195 0.0
C756 C 0.22545 0.1451 0.68692 0.0
C757 C 0.2515 0.08838 0.69933 0.0
N758 N 0.28046 0.12837 0.69176 0.0
C759 C 0.2756 0.10662 0.69713 0.0
C760 C 0.23233 0.09269 0.69647 0.0
Tb761 Tb 0.31933 0.1587 0.68695 0.0
N762 N 0.29235 0.17282 0.68602 0.0
C763 C 0.2995 0.19663 0.68545 0.0
C764 C 0.25738 0.18701 0.68414 0.0
C765 C 0.28219 0.20402 0.68427 0.0
H766 H 0.29025 0.103 0.69925 0.0
H767 H 0.28803 0.22284 0.68335 0.0
H768 H 0.21119 0.14966 0.68591 0.0
H769 H 0.24773 0.07099 0.70318 0.0
H770 H 0.31854 0.21011 0.68538 0.0
H771 H 0.3861 0.10638 0.65293 0.0
H772 H 0.24402 0.19277 0.68319 0.0
H773 H 0.38621 0.22974 0.6466 0.0
H774 H 0.35622 0.1199 0.65436 0.0
H775 H 0.42886 0.26175 0.64307 0.0
H776 H 0.20011 0.10806 0.69141 0.0
H777 H 0.43017 0.13595 0.65087 0.0
H778 H 0.46334 0.17893 0.64933 0.0
H779 H 0.2137 0.07859 0.69826 0.0
H780 H 0.47504 0.22133 0.64685 0.0
N781 N 0.38284 0.15702 0.65359 0.0
C782 C 0.3753 0.13313 0.6536 0.0
C783 C 0.41708 0.14203 0.65178 0.0
C784 C 0.42468 0.16641 0.6514 0.0
C785 C 0.39226 0.12532 0.65283 0.0
C786 C 0.40686 0.17337 0.65216 0.0
H787 H 0.46227 0.25239 0.64436 0.0
N788 N 0.3954 0.20262 0.65042 0.0
C789 C 0.42477 0.24363 0.64524 0.0
C790 C 0.41341 0.19706 0.6506 0.0
C791 C 0.40062 0.22543 0.64721 0.0
C792 C 0.44359 0.23829 0.64602 0.0
C793 C 0.43799 0.21469 0.64846 0.0
O794 O 0.35349 0.18476 0.63301 0.0
O795 O 0.32425 0.16891 0.66384 0.0
O796 O 0.29751 0.12975 0.67121 0.0
O797 O 0.32739 0.13367 0.65418 0.0
O798 O 0.34337 0.1969 0.64994 0.0
O799 O 0.34849 0.14926 0.63514 0.0
O800 O 0.32438 0.14848 0.70834 0.0
O801 O 0.35084 0.1602 0.67671 0.0
O802 O 0.3787 0.19744 0.67105 0.0
O803 O 0.34771 0.19686 0.68519 0.0
O804 O 0.33223 0.13336 0.69136 0.0
O805 O 0.32858 0.18325 0.70462 0.0
C806 C 0.32388 0.1863 0.65777 0.0
C807 C 0.36293 0.16878 0.61212 0.0
C808 C 0.36267 0.1679 0.58493 0.0
C809 C 0.35058 0.16524 0.59852 0.0
C810 C 0.38745 0.17438 0.58517 0.0
C811 C 0.38762 0.17522 0.61216 0.0
C812 C 0.39982 0.17807 0.59872 0.0
C813 C 0.30513 0.12185 0.65994 0.0
C814 C 0.34948 0.1654 0.62602 0.0
C815 C 0.45601 0.20805 0.64839 0.0
C816 C 0.44935 0.18391 0.6498 0.0
C817 C 0.35103 0.14276 0.68288 0.0
C818 C 0.31567 0.16655 0.7284 0.0
C819 C 0.32893 0.1733 0.74182 0.0
C820 C 0.31719 0.17145 0.75546 0.0
C821 C 0.29189 0.16286 0.75537 0.0
C822 C 0.29053 0.15815 0.72853 0.0
C823 C 0.27873 0.15633 0.74198 0.0
C824 C 0.37092 0.20699 0.68116 0.0
C825 C 0.32852 0.16847 0.71446 0.0
H826 H 0.33138 0.15992 0.59855 0.0
H827 H 0.3973 0.17676 0.57488 0.0
H828 H 0.39741 0.17794 0.62251 0.0
H829 H 0.41889 0.18307 0.59881 0.0
H830 H 0.34846 0.18019 0.74157 0.0
H831 H 0.28218 0.16083 0.76567 0.0
H832 H 0.28007 0.15301 0.71829 0.0
H833 H 0.25928 0.14972 0.74205 0.0
Tb834 Tb 0.84731 0.16319 0.68943 0.0
C835 C 0.79977 0.20513 0.64916 0.0
C836 C 0.75688 0.17548 0.64804 0.0
C837 C 0.76988 0.21739 0.64408 0.0
C838 C 0.78141 0.18167 0.65029 0.0
C839 C 0.7943 0.22331 0.64594 0.0
C840 C 0.75118 0.1935 0.64513 0.0
C841 C 0.83758 0.25134 0.64511 0.0
N842 N 0.82314 0.20989 0.65033 0.0
C843 C 0.84207 0.23258 0.64793 0.0
C844 C 0.81358 0.24672 0.64419 0.0
Tb845 Tb 0.82871 0.17795 0.65477 0.0
N846 N 0.78781 0.16473 0.65244 0.0
C847 C 0.77046 0.14103 0.65171 0.0
C848 C 0.73894 0.15129 0.64811 0.0
C849 C 0.74582 0.13399 0.64975 0.0
H850 H 0.86071 0.2364 0.64853 0.0
H851 H 0.73216 0.11519 0.64948 0.0
H852 H 0.73244 0.18911 0.6434 0.0
H853 H 0.85264 0.26932 0.64353 0.0
H854 H 0.77536 0.12735 0.65287 0.0
H855 H 0.94419 0.22461 0.69417 0.0
H856 H 0.71987 0.14579 0.64646 0.0
H857 H 0.81446 0.10503 0.69674 0.0
H858 H 0.90122 0.21325 0.69109 0.0
H859 H 0.82178 0.07163 0.70157 0.0
H860 H 0.76527 0.23109 0.64159 0.0
H861 H 0.95569 0.19338 0.69729 0.0
H862 H 0.9425 0.14976 0.69953 0.0
H863 H 0.81015 0.26122 0.64178 0.0
H864 H 0.90911 0.108 0.70144 0.0
N865 N 0.88802 0.17574 0.69204 0.0
C866 C 0.90575 0.19932 0.69238 0.0
C867 C 0.93671 0.18826 0.69578 0.0
C868 C 0.91846 0.1642 0.69598 0.0
C869 C 0.93029 0.20591 0.6941 0.0
C870 C 0.89399 0.15851 0.69422 0.0
H871 H 0.86395 0.07865 0.70232 0.0
N872 N 0.85215 0.13095 0.69447 0.0
C873 C 0.83704 0.08941 0.69978 0.0
C874 C 0.87537 0.13523 0.69544 0.0
C875 C 0.83298 0.10848 0.6971 0.0
C876 C 0.86086 0.09345 0.70019 0.0
C877 C 0.88043 0.11666 0.69825 0.0
O878 O 0.82796 0.15163 0.70956 0.0
O879 O 0.81941 0.16589 0.6773 0.0
O880 O 0.83053 0.20299 0.67183 0.0
O881 O 0.85899 0.20161 0.68771 0.0
O882 O 0.80782 0.13819 0.6913 0.0
O883 O 0.86056 0.18606 0.70813 0.0
O884 O 0.84715 0.19068 0.63443 0.0
O885 O 0.85683 0.17523 0.66678 0.0
O886 O 0.84487 0.13749 0.67276 0.0
O887 O 0.81778 0.13962 0.65598 0.0
O888 O 0.86803 0.20314 0.65269 0.0
O889 O 0.8158 0.15532 0.63596 0.0
C890 C 0.80019 0.14851 0.68232 0.0
C891 C 0.85095 0.16711 0.7316 0.0
C892 C 0.84765 0.16766 0.75872 0.0
C893 C 0.84148 0.17203 0.74443 0.0
C894 C 0.86366 0.15855 0.75995 0.0
C895 C 0.86696 0.15815 0.73308 0.0
C896 C 0.8733 0.15394 0.7472 0.0
C897 C 0.84698 0.21215 0.68267 0.0
C898 C 0.84339 0.17084 0.71681 0.0
C899 C 0.9048 0.12201 0.69938 0.0
C900 C 0.9238 0.14577 0.69829 0.0
C901 C 0.87577 0.19281 0.66157 0.0
C902 C 0.82328 0.17466 0.61267 0.0
C903 C 0.83143 0.16921 0.59945 0.0
C904 C 0.82325 0.17232 0.58543 0.0
C905 C 0.80691 0.18113 0.58492 0.0
C906 C 0.8069 0.18326 0.61185 0.0
C907 C 0.79881 0.18651 0.59804 0.0
C908 C 0.82922 0.12876 0.66149 0.0
C909 C 0.8321 0.1713 0.62716 0.0
H910 H 0.82892 0.17877 0.74327 0.0
H911 H 0.86894 0.15524 0.77079 0.0
H912 H 0.87448 0.15433 0.72336 0.0
H913 H 0.88567 0.14701 0.74828 0.0
H914 H 0.84386 0.16228 0.60012 0.0
H915 H 0.8006 0.18417 0.57436 0.0
H916 H 0.80039 0.1875 0.62183 0.0
H917 H 0.78626 0.19329 0.59751 0.0
H918 H 0.25518 0.81352 0.0559 0.0
H919 H 0.29071 0.84227 0.04204 0.0
H920 H 0.33178 0.86752 0.08308 0.0
H921 H 0.29692 0.83734 0.09692 0.0
H922 H 0.31448 0.88672 0.04052 0.0
H923 H 0.39199 0.89099 0.07779 0.0
H924 H 0.39952 0.86447 0.09395 0.0
H925 H 0.3451 0.80305 0.06999 0.0
H926 H 0.33748 0.82921 0.05356 0.0
H927 H 0.42545 0.99177 0.02604 0.0
H928 H 0.38784 0.95787 0.03501 0.0
H929 H 0.41526 0.9105 0.02387 0.0
H930 H 0.45381 0.94486 0.01618 0.0
H931 H 0.39739 0.89888 0.04897 0.0
H932 H 0.36268 0.91022 1.00454 0.0
H933 H 0.35348 0.93213 0.98542 0.0
H934 H 0.32069 0.95487 0.01869 0.0
H935 H 0.3296 0.93306 0.03795 0.0
C936 C 0.27188 0.82475 0.06202 0.0
C937 C 0.27306 0.82269 0.0776 0.0
C938 C 0.2922 0.84151 0.05404 0.0
C939 C 0.31422 0.85696 0.06141 0.0
C940 C 0.31528 0.85548 0.07701 0.0
C941 C 0.29509 0.83839 0.08498 0.0
C942 C 0.3358 0.87484 0.05276 0.0
C943 C 0.33258 0.88926 0.04235 0.0
C944 C 0.35945 0.87795 0.05477 0.0
C945 C 0.364 0.86206 0.06455 0.0
C946 C 0.38169 0.87183 0.07594 0.0
C947 C 0.38597 0.85686 0.08515 0.0
C948 C 0.37274 0.83208 0.08303 0.0
C949 C 0.35527 0.82223 0.07166 0.0
C950 C 0.35094 0.83712 0.0624 0.0
C951 C 0.42324 0.97404 0.02523 0.0
C952 C 0.44245 0.97099 0.02007 0.0
C953 C 0.40156 0.95454 0.03025 0.0
C954 C 0.39824 0.93131 0.02993 0.0
C955 C 0.41716 0.92813 0.02425 0.0
C956 C 0.43917 0.9478 0.0196 0.0
C957 C 0.37612 0.91093 0.03679 0.0
C958 C 0.37925 0.89615 0.04698 0.0
C959 C 0.35224 0.90689 0.03418 0.0
C960 C 0.34703 0.92021 0.02268 0.0
C961 C 0.35368 0.92006 0.00776 0.0
C962 C 0.34846 0.9324 0.99691 0.0
C963 C 0.33666 0.945 1.00086 0.0
C964 C 0.32988 0.94515 0.01565 0.0
C965 C 0.33492 0.93273 0.02652 0.0
H966 H 0.33269 0.95457 0.99244 0.0
H967 H 0.37607 0.82053 0.09018 0.0
H968 H 0.16453 0.42732 0.08562 0.0
H969 H 0.13365 0.43305 0.0728 0.0
H970 H 0.18917 0.50343 0.0592 0.0
H971 H 0.22031 0.49775 0.07204 0.0
H972 H 0.14582 0.5015 0.0708 0.0
H973 H 0.16826 0.46139 0.03415 0.0
H974 H 0.17583 0.4297 0.02485 0.0
H975 H 0.10146 0.37675 0.03376 0.0
H976 H 0.09353 0.4081 0.04332 0.0
H977 H 0.06639 0.51724 0.02229 0.0
H978 H 0.10134 0.51472 0.03151 0.0
H979 H 0.0542 0.43969 0.04061 0.0
H980 H 0.01933 0.44204 0.03068 0.0
H981 H 0.09577 0.44622 0.03007 0.0
H982 H 0.07283 0.48335 0.06806 0.0
H983 H 0.06256 0.51338 0.07707 0.0
H984 H 0.13506 0.56959 0.06727 0.0
H985 H 0.14562 0.53997 0.05773 0.0
C986 C 0.1702 0.44407 0.07994 0.0
C987 C 0.19492 0.46208 0.07987 0.0
C988 C 0.15252 0.44728 0.07256 0.0
C989 C 0.15905 0.46865 0.06498 0.0
C990 C 0.18368 0.4868 0.06497 0.0
C991 C 0.20147 0.48346 0.07222 0.0
C992 C 0.14008 0.47174 0.05698 0.0
C993 C 0.13515 0.48967 0.06174 0.0
C994 C 0.12567 0.45595 0.04539 0.0
C995 C 0.13036 0.43708 0.03957 0.0
C996 C 0.15357 0.44297 0.03424 0.0
C997 C 0.15792 0.42507 0.0289 0.0
C998 C 0.13915 0.40122 0.02875 0.0
C999 C 0.11598 0.39523 0.0339 0.0
C1000 C 0.11154 0.41306 0.03926 0.0
C1001 C 0.06352 0.50011 0.02592 0.0
C1002 C 0.04016 0.4797 0.0254 0.0
C1003 C 0.08353 0.49872 0.03139 0.0
C1004 C 0.08049 0.47705 0.03695 0.0
C1005 C 0.05715 0.45661 0.03634 0.0
C1006 C 0.0372 0.45797 0.03072 0.0
C1007 C 0.10128 0.47579 0.04398 0.0
C1008 C 0.10654 0.45818 0.03907 0.0
C1009 C 0.11569 0.49162 0.05559 0.0
C1010 C 0.10992 0.50945 0.06202 0.0
C1011 C 0.08657 0.50214 0.06775 0.0
C1012 C 0.08067 0.51908 0.07288 0.0
C1013 C 0.09807 0.54339 0.07253 0.0
C1014 C 0.12154 0.55078 0.0673 0.0
C1015 C 0.12751 0.53391 0.06204 0.0
H1016 H 0.0934 0.55651 0.07636 0.0
H1017 H 0.14256 0.38739 0.02461 0.0
H1018 H 0.57659 0.73573 0.09424 0.0
H1019 H 0.57069 0.69969 0.08162 0.0
H1020 H 0.50626 0.69198 0.05979 0.0
H1021 H 0.51125 0.72731 0.07304 0.0
H1022 H 0.49864 0.64971 0.06822 0.0
H1023 H 0.56168 0.71607 0.04173 0.0
H1024 H 0.60054 0.75383 0.03871 0.0
H1025 H 0.63988 0.72039 0.05532 0.0
H1026 H 0.6012 0.6825 0.05864 0.0
H1027 H 0.49119 0.57131 0.01081 0.0
H1028 H 0.49782 0.60751 0.02355 0.0
H1029 H 0.55654 0.60923 0.04912 0.0
H1030 H 0.55034 0.57312 0.03624 0.0
H1031 H 0.56699 0.65416 0.0387 0.0
H1032 H 0.5025 0.58711 0.06464 0.0
H1033 H 0.46337 0.54914 0.06546 0.0
H1034 H 0.4262 0.58425 0.04804 0.0
H1035 H 0.46521 0.62238 0.04689 0.0
C1036 C 0.5609 0.72616 0.08698 0.0
C1037 C 0.54443 0.7345 0.08463 0.0
C1038 C 0.55772 0.7057 0.07961 0.0
C1039 C 0.53828 0.69338 0.06955 0.0
C1040 C 0.52147 0.70129 0.06744 0.0
C1041 C 0.5245 0.72163 0.07491 0.0
C1042 C 0.53572 0.67249 0.06102 0.0
C1043 C 0.5135 0.65079 0.06164 0.0
C1044 C 0.55521 0.67376 0.05258 0.0
C1045 C 0.57852 0.69652 0.05057 0.0
C1046 C 0.5786 0.71682 0.04485 0.0
C1047 C 0.6006 0.73824 0.04307 0.0
C1048 C 0.62266 0.73953 0.04686 0.0
C1049 C 0.62277 0.71938 0.05241 0.0
C1050 C 0.60082 0.69792 0.05423 0.0
C1051 C 0.50577 0.57952 0.01898 0.0
C1052 C 0.52023 0.56929 0.02252 0.0
C1053 C 0.50941 0.60014 0.02631 0.0
C1054 C 0.52746 0.61082 0.03738 0.0
C1055 C 0.54248 0.60117 0.04061 0.0
C1056 C 0.53884 0.5805 0.03329 0.0
C1057 C 0.53004 0.63156 0.04596 0.0
C1058 C 0.55221 0.65317 0.04534 0.0
C1059 C 0.51045 0.63026 0.05427 0.0
C1060 C 0.48682 0.60758 0.05558 0.0
C1061 C 0.486 0.58673 0.06094 0.0
C1062 C 0.46384 0.56516 0.06146 0.0
C1063 C 0.44231 0.56426 0.05677 0.0
C1064 C 0.44289 0.58497 0.05165 0.0
C1065 C 0.46502 0.60657 0.05109 0.0
H1066 H 0.42519 0.54753 0.05712 0.0
H1067 H 0.63968 0.75613 0.04547 0.0
H1068 H 0.84161 0.26342 0.92147 0.0
H1069 H 0.87255 0.29995 0.93382 0.0
H1070 H 0.81604 0.30814 0.95498 0.0
H1071 H 0.78494 0.27201 0.94226 0.0
H1072 H 0.85166 0.35042 0.94472 0.0
H1073 H 0.84739 0.28647 0.97419 0.0
H1074 H 0.84811 0.24918 0.97875 0.0
H1075 H 0.92147 0.28183 0.96239 0.0
H1076 H 0.92106 0.31924 0.95753 0.0
H1077 H 0.92312 0.43462 0.9999 0.0
H1078 H 0.89322 0.39764 0.98771 0.0
H1079 H 0.95112 0.39217 0.96623 0.0
H1080 H 0.98138 0.42899 0.97874 0.0
H1081 H 0.91541 0.34885 0.97631 0.0
H1082 H 0.91986 0.41332 0.94736 0.0
H1083 H 0.91951 0.45106 0.94401 0.0
H1084 H 0.8459 0.41768 0.95999 0.0
H1085 H 0.84593 0.37982 0.96366 0.0
C1086 C 0.83573 0.27311 0.92863 0.0
C1087 C 0.81075 0.26473 0.93089 0.0
C1088 C 0.85347 0.29389 0.93579 0.0
C1089 C 0.84665 0.30667 0.94547 0.0
C1090 C 0.82175 0.29855 0.9476 0.0
C1091 C 0.80399 0.27777 0.94043 0.0
C1092 C 0.86548 0.32839 0.95346 0.0
C1093 C 0.86542 0.35 0.95176 0.0
C1094 C 0.88378 0.32802 0.96241 0.0
C1095 C 0.8841 0.30557 0.96535 0.0
C1096 C 0.8636 0.28564 0.97145 0.0
C1097 C 0.86397 0.26449 0.97411 0.0
C1098 C 0.8848 0.26311 0.97082 0.0
C1099 C 0.90534 0.28291 0.96491 0.0
C1100 C 0.90505 0.30409 0.96221 0.0
C1101 C 0.92963 0.42543 0.99279 0.0
C1102 C 0.95474 0.43482 0.99036 0.0
C1103 C 0.91243 0.40435 0.98571 0.0
C1104 C 0.91991 0.39231 0.97588 0.0
C1105 C 0.94495 0.40121 0.97374 0.0
C1106 C 0.96222 0.42231 0.98087 0.0
C1107 C 0.90153 0.37079 0.96759 0.0
C1108 C 0.90169 0.34926 0.96922 0.0
C1109 C 0.88333 0.37124 0.95859 0.0
C1110 C 0.88296 0.39376 0.95589 0.0
C1111 C 0.90362 0.41404 0.95021 0.0
C1112 C 0.90349 0.43547 0.94826 0.0
C1113 C 0.88271 0.43678 0.95182 0.0
C1114 C 0.86198 0.41664 0.95725 0.0
C1115 C 0.86204 0.39518 0.95925 0.0
H1116 H 0.88265 0.45339 0.95034 0.0
H1117 H 0.88505 0.24673 0.97289 0.0
H1118 H 0.75144 0.55547 0.95476 0.0
H1119 H 0.71421 0.54821 0.9674 0.0
H1120 H 0.67207 0.51241 0.92807 0.0
H1121 H 0.70944 0.52026 0.91526 0.0
H1122 H 0.65596 0.53849 0.93784 0.0
H1123 H 0.67208 0.48207 0.96146 0.0
H1124 H 0.69604 0.46731 0.97481 0.0
H1125 H 0.70469 0.51279 0.01213 0.0
H1126 H 0.68107 0.52809 0.99892 0.0
H1127 H 0.54825 0.48408 0.99277 0.0
H1128 H 0.58413 0.48353 0.9828 0.0
H1129 H 0.62067 0.56002 0.97723 0.0
H1130 H 0.58515 0.56066 0.98731 0.0
H1131 H 0.63572 0.50728 0.98945 0.0
H1132 H 0.64274 0.57113 0.94166 0.0
H1133 H 0.61505 0.58103 0.92798 0.0
H1134 H 0.55455 0.51137 0.93748 0.0
H1135 H 0.58192 0.50081 0.95072 0.0
C1136 C 0.73422 0.54585 0.94884 0.0
C1137 C 0.73348 0.53839 0.93399 0.0
C1138 C 0.71283 0.54161 0.95612 0.0
C1139 C 0.69003 0.52936 0.94885 0.0
C1140 C 0.6893 0.52189 0.934 0.0
C1141 C 0.71073 0.52641 0.92665 0.0
C1142 C 0.66715 0.52517 0.95651 0.0
C1143 C 0.65165 0.53159 0.9491 0.0
C1144 C 0.66083 0.51558 0.97112 0.0
C1145 C 0.67499 0.50639 0.97913 0.0
C1146 C 0.67924 0.48906 0.97247 0.0
C1147 C 0.69274 0.48057 0.98002 0.0
C1148 C 0.70194 0.48915 0.99429 0.0
C1149 C 0.69759 0.50618 1.00107 0.0
C1150 C 0.68412 0.51475 0.99356 0.0
C1151 C 0.5642 0.50082 0.98982 0.0
C1152 C 0.56402 0.52249 0.991 0.0
C1153 C 0.58469 0.50048 0.98409 0.0
C1154 C 0.60507 0.52172 0.97915 0.0
C1155 C 0.60516 0.5434 0.98088 0.0
C1156 C 0.58485 0.54375 0.98665 0.0
C1157 C 0.62534 0.52135 0.9709 0.0
C1158 C 0.6402 0.51408 0.97817 0.0
C1159 C 0.63071 0.52943 0.956 0.0
C1160 C 0.61437 0.5353 0.94734 0.0
C1161 C 0.62357 0.55786 0.94069 0.0
C1162 C 0.60791 0.56358 0.93299 0.0
C1163 C 0.58303 0.54686 0.93186 0.0
C1164 C 0.57379 0.52432 0.93832 0.0
C1165 C 0.58938 0.51845 0.94591 0.0
H1166 H 0.57092 0.55137 0.92598 0.0
H1167 H 0.71239 0.48256 1.00012 0.0
H1168 H 0.43721 0.19144 0.94942 0.0
H1169 H 0.44606 0.16356 0.96263 0.0
H1170 H 0.47995 0.15532 0.92312 0.0
H1171 H 0.47085 0.18306 0.90977 0.0
H1172 H 0.45233 0.11312 0.9363 0.0
H1173 H 0.51424 0.19149 0.95215 0.0
H1174 H 0.52996 0.23212 0.9624 0.0
H1175 H 0.49239 0.20262 1.00348 0.0
H1176 H 0.47614 0.16179 0.9934 0.0
H1177 H 0.50981 0.05677 0.97068 0.0
H1178 H 0.50365 0.08653 0.95763 0.0
H1179 H 0.4722 0.09757 0.99742 0.0
H1180 H 0.47957 0.06854 0.01069 0.0
H1181 H 0.49893 0.13854 0.9839 0.0
H1182 H 0.4368 0.05984 0.96777 0.0
H1183 H 0.42277 0.01937 0.95771 0.0
H1184 H 0.46149 0.04958 0.91705 0.0
H1185 H 0.4761 0.09025 0.92697 0.0
C1186 C 0.44662 0.18373 0.94356 0.0
C1187 C 0.45357 0.18959 0.92861 0.0
C1188 C 0.45167 0.16782 0.95112 0.0
C1189 C 0.46407 0.1577 0.94394 0.0
C1190 C 0.47043 0.16299 0.92888 0.0
C1191 C 0.46521 0.1788 0.92127 0.0
C1192 C 0.47064 0.14183 0.95222 0.0
C1193 C 0.46277 0.11877 0.94661 0.0
C1194 C 0.48386 0.14905 0.96583 0.0
C1195 C 0.4938 0.17359 0.97197 0.0
C1196 C 0.50919 0.19367 0.96333 0.0
C1197 C 0.51822 0.21673 0.96912 0.0
C1198 C 0.51213 0.21995 0.98356 0.0
C1199 C 0.49706 0.2001 0.99228 0.0
C1200 C 0.48796 0.17699 0.98654 0.0
C1201 C 0.50183 0.0658 0.97664 0.0
C1202 C 0.49511 0.06051 0.99162 0.0
C1203 C 0.49818 0.08266 0.96918 0.0
C1204 C 0.48685 0.09383 0.97642 0.0
C1205 C 0.48087 0.08909 0.99159 0.0
C1206 C 0.4851 0.07259 0.99918 0.0
C1207 C 0.48053 0.10979 0.96802 0.0
C1208 C 0.48844 0.13286 0.97361 0.0
C1209 C 0.46733 0.10257 0.95438 0.0
C1210 C 0.45767 0.0781 0.94816 0.0
C1211 C 0.44235 0.05785 0.9567 0.0
C1212 C 0.43433 0.03488 0.95103 0.0
C1213 C 0.44129 0.03191 0.93677 0.0
C1214 C 0.45615 0.05191 0.92811 0.0
C1215 C 0.46429 0.07493 0.93374 0.0
H1216 H 0.43513 0.01412 0.93242 0.0
H1217 H 0.51913 0.23782 0.98802 0.0
H1218 H 0.75235 0.18321 0.95033 0.0
H1219 H 0.7165 0.15362 0.96415 0.0
H1220 H 0.66922 0.15746 0.93091 0.0
H1221 H 0.70507 0.18659 0.91682 0.0
H1222 H 0.65873 0.16091 0.96407 0.0
H1223 H 0.6715 0.11277 0.92762 0.0
H1224 H 0.69641 0.09899 0.91444 0.0
H1225 H 0.71173 0.0759 0.95589 0.0
H1226 H 0.68722 0.08991 0.96935 0.0
H1227 H 0.54614 0.0618 0.98719 0.0
H1228 H 0.58161 0.09461 0.9756 0.0
H1229 H 0.62579 0.06489 0.99079 0.0
H1230 H 0.58918 0.03019 1.00035 0.0
H1231 H 0.63872 0.07629 0.96613 0.0
H1232 H 0.63099 0.12798 1.00357 0.0
H1233 H 0.61062 0.14601 0.01763 0.0
H1234 H 0.58766 0.1631 0.97672 0.0
H1235 H 0.60887 0.14627 0.96238 0.0
C1236 C 0.73429 0.17774 0.94601 0.0
C1237 C 0.73141 0.1871 0.93252 0.0
C1238 C 0.71388 0.16087 0.95388 0.0
C1239 C 0.69026 0.15343 0.94855 0.0
C1240 C 0.68732 0.16305 0.93521 0.0
C1241 C 0.70774 0.17954 0.92716 0.0
C1242 C 0.66868 0.13522 0.95679 0.0
C1243 C 0.65415 0.14233 0.96452 0.0
C1244 C 0.66316 0.1112 0.9576 0.0
C1245 C 0.67777 0.10265 0.9495 0.0
C1246 C 0.68039 0.10498 0.93394 0.0
C1247 C 0.69439 0.09708 0.92641 0.0
C1248 C 0.70571 0.08664 0.93432 0.0
C1249 C 0.70299 0.08402 0.94978 0.0
C1250 C 0.68904 0.09193 0.95736 0.0
C1251 C 0.56357 0.06267 0.98841 0.0
C1252 C 0.56507 0.04383 0.99511 0.0
C1253 C 0.58412 0.08171 0.98186 0.0
C1254 C 0.60702 0.08301 0.98249 0.0
C1255 C 0.60857 0.06459 0.98994 0.0
C1256 C 0.58771 0.04487 0.99567 0.0
C1257 C 0.62861 0.10182 0.97413 0.0
C1258 C 0.64321 0.09485 0.96612 0.0
C1259 C 0.63446 0.12612 0.97333 0.0
C1260 C 0.62125 0.13565 0.98194 0.0
C1261 C 0.62147 0.13547 0.99759 0.0
C1262 C 0.60983 0.1455 0.00561 0.0
C1263 C 0.5975 0.15527 0.9981 0.0
C1264 C 0.59712 0.15542 0.98253 0.0
C1265 C 0.60915 0.14588 0.97445 0.0
H1266 H 0.58841 0.1629 1.00435 0.0
H1267 H 0.71653 0.08052 0.92848 0.0
H1268 H 0.78918 0.50702 0.94405 0.0
H1269 H 0.82054 0.50085 0.95593 0.0
H1270 H 0.87655 0.56794 0.93816 0.0
H1271 H 0.84541 0.57412 0.92625 0.0
H1272 H 0.88886 0.53519 0.93399 0.0
H1273 H 0.85882 0.55986 0.97563 0.0
H1274 H 0.82789 0.55797 0.99307 0.0
H1275 H 0.81101 0.48756 0.00651 0.0
H1276 H 0.8416 0.48888 0.98897 0.0
H1277 H 0.99054 0.55951 0.98021 0.0
H1278 H 0.95546 0.56054 0.96933 0.0
H1279 H 0.90907 0.48605 0.97992 0.0
H1280 H 0.94428 0.4847 0.99022 0.0
H1281 H 0.89015 0.51869 0.98786 0.0
H1282 H 0.92159 0.49499 0.94704 0.0
H1283 H 0.95208 0.49666 0.92937 0.0
H1284 H 0.9666 0.56571 0.91449 0.0
H1285 H 0.9364 0.5646 0.93228 0.0
C1286 C 0.80817 0.52058 0.94281 0.0
C1287 C 0.81471 0.54103 0.93412 0.0
C1288 C 0.82612 0.51703 0.94962 0.0
C1289 C 0.85104 0.53398 0.94805 0.0
C1290 C 0.85754 0.55449 0.9395 0.0
C1291 C 0.83966 0.55799 0.93265 0.0
C1292 C 0.87048 0.53029 0.95496 0.0
C1293 C 0.88924 0.53188 0.94581 0.0
C1294 C 0.87071 0.52518 0.97032 0.0
C1295 C 0.85227 0.52434 0.98083 0.0
C1296 C 0.84834 0.54387 0.98219 0.0
C1297 C 0.8309 0.54293 0.99212 0.0
C1298 C 0.81742 0.52262 1.00085 0.0
C1299 C 0.82141 0.50325 0.9997 0.0
C1300 C 0.8388 0.50409 0.98977 0.0
C1301 C 0.97282 0.5434 0.98031 0.0
C1302 C 0.97009 0.52223 0.9865 0.0
C1303 C 0.95282 0.54399 0.97407 0.0
C1304 C 0.92962 0.5234 0.97387 0.0
C1305 C 0.92675 0.5022 0.98007 0.0
C1306 C 0.94689 0.50151 0.98608 0.0
C1307 C 0.90861 0.52413 0.96692 0.0
C1308 C 0.88963 0.52194 0.97604 0.0
C1309 C 0.90818 0.52877 0.95155 0.0
C1310 C 0.92689 0.52982 0.94114 0.0
C1311 C 0.9315 0.51068 0.94016 0.0
C1312 C 0.9487 0.51149 0.93007 0.0
C1313 C 0.96134 0.53132 0.92083 0.0
C1314 C 0.95683 0.55038 0.92168 0.0
C1315 C 0.93966 0.54966 0.93176 0.0
H1316 H 0.97456 0.53191 0.91297 0.0
H1317 H 0.80394 0.52193 0.00853 0.0
H1318 H 0.44208 0.25062 0.95072 0.0
H1319 H 0.44994 0.28697 0.96383 0.0
H1320 H 0.47584 0.327 0.92305 0.0
H1321 H 0.46922 0.2909 0.90999 0.0
H1322 H 0.50406 0.3524 0.94564 0.0
H1323 H 0.41811 0.30842 0.9361 0.0
H1324 H 0.37655 0.27345 0.93622 0.0
H1325 H 0.3777 0.27266 0.98408 0.0
H1326 H 0.41944 0.30744 0.98424 0.0
H1327 H 0.48972 0.45089 0.96639 0.0
H1328 H 0.48253 0.4139 0.95424 0.0
H1329 H 0.47264 0.38053 0.99721 0.0
H1330 H 0.47974 0.41754 0.00939 0.0
H1331 H 0.43669 0.35211 0.97402 0.0
H1332 H 0.52347 0.39779 0.9828 0.0
H1333 H 0.56325 0.43502 0.98177 0.0
H1334 H 0.55895 0.43421 0.93396 0.0
H1335 H 0.51889 0.39715 0.93472 0.0
C1336 C 0.4498 0.26721 0.94457 0.0
C1337 C 0.45493 0.2678 0.92927 0.0
C1338 C 0.45404 0.28794 0.95205 0.0
C1339 C 0.46311 0.30964 0.94437 0.0
C1340 C 0.46872 0.31043 0.92919 0.0
C1341 C 0.46467 0.28972 0.9217 0.0
C1342 C 0.46634 0.33138 0.95214 0.0
C1343 C 0.48925 0.35236 0.95171 0.0
C1344 C 0.4471 0.33131 0.96023 0.0
C1345 C 0.422 0.31038 0.96018 0.0
C1346 C 0.40958 0.30067 0.94665 0.0
C1347 C 0.38598 0.2809 0.94666 0.0
C1348 C 0.37452 0.27079 0.96014 0.0
C1349 C 0.38662 0.28048 0.97364 0.0
C1350 C 0.41024 0.30023 0.97369 0.0
C1351 C 0.48576 0.43559 0.97323 0.0
C1352 C 0.48552 0.43708 0.98885 0.0
C1353 C 0.48179 0.41456 0.96629 0.0
C1354 C 0.47726 0.39465 0.97487 0.0
C1355 C 0.47623 0.39582 0.99044 0.0
C1356 C 0.48055 0.41699 0.99739 0.0
C1357 C 0.47429 0.37285 0.96752 0.0
C1358 C 0.45146 0.35197 0.96801 0.0
C1359 C 0.49348 0.37311 0.95936 0.0
C1360 C 0.51807 0.39478 0.95882 0.0
C1361 C 0.53095 0.4056 0.97206 0.0
C1362 C 0.55355 0.42668 0.97153 0.0
C1363 C 0.5636 0.43702 0.95781 0.0
C1364 C 0.55113 0.42619 0.94458 0.0
C1365 C 0.52848 0.40513 0.94506 0.0
H1366 H 0.58106 0.4534 0.95742 0.0
H1367 H 0.35624 0.2555 0.96013 0.0
H1368 H 0.19361 0.75816 0.05962 0.0
H1369 H 0.16408 0.72048 0.04748 0.0
H1370 H 0.16857 0.68103 0.08488 0.0
H1371 H 0.19782 0.71877 0.09722 0.0
H1372 H 0.17111 0.66323 0.05441 0.0
H1373 H 0.12245 0.68554 0.08462 0.0
H1374 H 0.10894 0.71319 0.09358 0.0
H1375 H 0.08696 0.71886 0.04913 0.0
H1376 H 0.10072 0.69152 0.03987 0.0
H1377 H 0.06823 0.54972 0.03892 0.0
H1378 H 0.0989 0.58702 0.05084 0.0
H1379 H 0.08022 0.62725 0.02044 0.0
H1380 H 0.04897 0.58968 0.00883 0.0
H1381 H 0.08576 0.64519 0.04721 0.0
H1382 H 0.13218 0.62246 0.01656 0.0
H1383 H 0.14615 0.59574 0.00658 0.0
H1384 H 0.17368 0.59233 0.04973 0.0
H1385 H 0.15946 0.61866 0.0601 0.0
C1386 C 0.18841 0.74143 0.0652 0.0
C1387 C 0.19795 0.74134 0.07936 0.0
C1388 C 0.17154 0.71996 0.05828 0.0
C1389 C 0.16416 0.69801 0.06529 0.0
C1390 C 0.17408 0.69781 0.07928 0.0
C1391 C 0.19064 0.71932 0.08634 0.0
C1392 C 0.14548 0.67535 0.05821 0.0
C1393 C 0.15235 0.65906 0.05299 0.0
C1394 C 0.12125 0.67036 0.05597 0.0
C1395 C 0.11287 0.68671 0.06153 0.0
C1396 C 0.11496 0.69287 0.07673 0.0
C1397 C 0.10721 0.70844 0.08187 0.0
C1398 C 0.09716 0.71783 0.07192 0.0
C1399 C 0.09478 0.7116 0.05682 0.0
C1400 C 0.10254 0.69606 0.05162 0.0
C1401 C 0.07078 0.56659 0.03483 0.0
C1402 C 0.0565 0.56709 0.023 0.0
C1403 C 0.08834 0.58788 0.04157 0.0
C1404 C 0.0922 0.61005 0.0364 0.0
C1405 C 0.07764 0.61042 0.02462 0.0
C1406 C 0.05987 0.58905 0.01798 0.0
C1407 C 0.11123 0.6328 0.04338 0.0
C1408 C 0.10447 0.64921 0.04858 0.0
C1409 C 0.13566 0.63801 0.04539 0.0
C1410 C 0.14449 0.62236 0.03916 0.0
C1411 C 0.14101 0.61585 0.02397 0.0
C1412 C 0.14895 0.60075 0.01824 0.0
C1413 C 0.16063 0.59221 0.02753 0.0
C1414 C 0.16455 0.5989 0.04256 0.0
C1415 C 0.15655 0.61391 0.04837 0.0
H1416 H 0.16672 0.5805 0.02307 0.0
H1417 H 0.09116 0.72988 0.07592 0.0
H1418 H 0.27468 0.43207 0.08853 0.0
H1419 H 0.31195 0.43963 0.07585 0.0
H1420 H 0.32137 0.50637 0.05926 0.0
H1421 H 0.28388 0.49872 0.07181 0.0
H1422 H 0.32954 0.48527 0.03782 0.0
H1423 H 0.35839 0.50265 0.08768 0.0
H1424 H 0.36028 0.49699 0.11472 0.0
H1425 H 0.36888 0.43607 0.10645 0.0
H1426 H 0.36658 0.44107 0.07934 0.0
H1427 H 0.45728 0.52111 0.01732 0.0
H1428 H 0.42116 0.52039 0.02788 0.0
H1429 H 0.3879 0.44442 0.03473 0.0
H1430 H 0.42366 0.44498 0.024 0.0
H1431 H 0.39474 0.47516 0.06141 0.0
H1432 H 0.34131 0.45313 0.01221 0.0
H1433 H 0.33563 0.46152 0.98609 0.0
H1434 H 0.37755 0.53701 0.99498 0.0
H1435 H 0.38333 0.52894 0.02114 0.0
C1436 C 0.28483 0.44853 0.08235 0.0
C1437 C 0.27621 0.4648 0.08125 0.0
C1438 C 0.30627 0.45288 0.0751 0.0
C1439 C 0.31988 0.47378 0.0667 0.0
C1440 C 0.31133 0.4901 0.06564 0.0
C1441 C 0.28979 0.48567 0.0728 0.0
C1442 C 0.34222 0.47798 0.05841 0.0
C1443 C 0.34392 0.48341 0.04314 0.0
C1444 C 0.36119 0.47552 0.06514 0.0
C1445 C 0.36205 0.47209 0.08146 0.0
C1446 C 0.3604 0.48787 0.09162 0.0
C1447 C 0.3616 0.48481 0.10696 0.0
C1448 C 0.36464 0.46615 0.1123 0.0
C1449 C 0.36648 0.45049 0.1023 0.0
C1450 C 0.36523 0.45343 0.08694 0.0
C1451 C 0.44195 0.50413 0.02055 0.0
C1452 C 0.44328 0.48301 0.01964 0.0
C1453 C 0.42128 0.50375 0.02666 0.0
C1454 C 0.40172 0.48231 0.03209 0.0
C1455 C 0.40267 0.46115 0.03058 0.0
C1456 C 0.42312 0.46149 0.02441 0.0
C1457 C 0.38165 0.48208 0.04093 0.0
C1458 C 0.38038 0.47726 0.05627 0.0
C1459 C 0.36336 0.4856 0.03443 0.0
C1460 C 0.36308 0.49046 0.01844 0.0
C1461 C 0.34964 0.47148 0.00847 0.0
C1462 C 0.34617 0.47617 0.99374 0.0
C1463 C 0.35613 0.49979 0.9889 0.0
C1464 C 0.36982 0.51874 0.99874 0.0
C1465 C 0.37328 0.51413 0.01349 0.0
H1466 H 0.35338 0.50339 0.97749 0.0
H1467 H 0.36562 0.46386 0.12418 0.0
H1468 H 0.51126 0.78577 0.07142 0.0
H1469 H 0.50467 0.81484 0.05774 0.0
H1470 H 0.57033 0.87251 0.07715 0.0
H1471 H 0.57745 0.84366 0.09053 0.0
H1472 H 0.5307 0.8795 0.07919 0.0
H1473 H 0.57083 0.85754 0.04207 0.0
H1474 H 0.57652 0.8295 0.02616 0.0
H1475 H 0.5065 0.80545 0.00578 0.0
H1476 H 0.50023 0.83312 0.02174 0.0
H1477 H 0.54778 0.97729 0.03648 0.0
H1478 H 0.55327 0.94605 0.04783 0.0
H1479 H 0.49044 0.89222 0.02376 0.0
H1480 H 0.48506 0.92349 0.01208 0.0
H1481 H 0.52623 0.8816 0.024 0.0
H1482 H 0.48655 0.9046 0.06046 0.0
H1483 H 0.48076 0.9325 0.07647 0.0
H1484 H 0.54917 0.95407 0.09835 0.0
H1485 H 0.5556 0.92661 0.08231 0.0
C1486 C 0.52448 0.80462 0.07262 0.0
C1487 C 0.54483 0.81239 0.08212 0.0
C1488 C 0.52063 0.82119 0.06484 0.0
C1489 C 0.53705 0.84578 0.06644 0.0
C1490 C 0.55739 0.85359 0.07585 0.0
C1491 C 0.56134 0.83707 0.08355 0.0
C1492 C 0.53283 0.86351 0.05856 0.0
C1493 C 0.52998 0.88016 0.06712 0.0
C1494 C 0.5312 0.86382 0.04284 0.0
C1495 C 0.53494 0.8472 0.03322 0.0
C1496 C 0.55655 0.84611 0.0343 0.0
C1497 C 0.5599 0.83032 0.02525 0.0
C1498 C 0.54185 0.81565 0.01499 0.0
C1499 C 0.52044 0.81679 0.01374 0.0
C1500 C 0.51699 0.83254 0.02278 0.0
C1501 C 0.53516 0.95883 0.03353 0.0
C1502 C 0.51591 0.95287 0.02343 0.0
C1503 C 0.53828 0.94098 0.04008 0.0
C1504 C 0.52198 0.91679 0.03687 0.0
C1505 C 0.50316 0.91078 0.02644 0.0
C1506 C 0.50013 0.92868 0.01978 0.0
C1507 C 0.5244 0.89785 0.04463 0.0
C1508 C 0.52682 0.8809 0.03607 0.0
C1509 C 0.52554 0.89719 0.06038 0.0
C1510 C 0.52164 0.91366 0.07009 0.0
C1511 C 0.50045 0.91542 0.0686 0.0
C1512 C 0.49704 0.93114 0.07769 0.0
C1513 C 0.51461 0.94505 0.08839 0.0
C1514 C 0.5356 0.94328 0.09004 0.0
C1515 C 0.53912 0.92763 0.08096 0.0
H1516 H 0.51195 0.95716 0.09544 0.0
H1517 H 0.54448 0.80344 0.00799 0.0
H1518 H 0.92079 0.1553 0.39161 0.0
H1519 H 0.95754 0.18489 0.37874 0.0
H1520 H 1.00149 0.18722 0.41633 0.0
H1521 H 0.96459 0.1583 0.42944 0.0
H1522 H 0.01745 0.22962 0.40791 0.0
H1523 H 0.99829 0.15796 0.3819 0.0
H1524 H 0.97295 0.12056 0.36787 0.0
H1525 H 0.96384 0.16019 0.33253 0.0
H1526 H 0.98884 0.19782 0.34645 0.0
H1527 H 0.12242 0.27634 0.35193 0.0
H1528 H 0.08496 0.24218 0.36128 0.0
H1529 H 0.0553 0.28837 0.36991 0.0
H1530 H 0.09263 0.32253 0.36035 0.0
H1531 H 0.03478 0.21983 0.35522 0.0
H1532 H 0.03262 0.27621 0.40534 0.0
H1533 H 0.06181 0.31138 0.42012 0.0
H1534 H 0.11945 0.29743 0.40889 0.0
H1535 H 0.09057 0.26195 0.39436 0.0
C1536 C 0.93834 0.16205 0.39707 0.0
C1537 C 0.93986 0.15448 0.4115 0.0
C1538 C 0.95937 0.17889 0.38968 0.0
C1539 C 0.98247 0.1881 0.39642 0.0
C1540 C 0.98396 0.18046 0.41086 0.0
C1541 C 0.96288 0.16393 0.41835 0.0
C1542 C 0.00494 0.20628 0.38867 0.0
C1543 C 0.02113 0.22735 0.3964 0.0
C1544 C 0.01029 0.20328 0.37372 0.0
C1545 C 0.99525 0.18069 0.3653 0.0
C1546 C 0.99073 0.15869 0.37119 0.0
C1547 C 0.97645 0.13744 0.36325 0.0
C1548 C 0.96674 0.13799 0.34934 0.0
C1549 C 0.97134 0.15979 0.34332 0.0
C1550 C 0.98559 0.18109 0.35123 0.0
C1551 C 0.10765 0.27909 0.35538 0.0
C1552 C 0.1103 0.30205 0.35524 0.0
C1553 C 0.08626 0.25954 0.36076 0.0
C1554 C 0.06745 0.26279 0.36642 0.0
C1555 C 0.06967 0.28551 0.36569 0.0
C1556 C 0.09095 0.30498 0.36023 0.0
C1557 C 0.04658 0.24312 0.37438 0.0
C1558 C 0.03087 0.2219 0.36672 0.0
C1559 C 0.04209 0.24555 0.38955 0.0
C1560 C 0.05945 0.26657 0.39862 0.0
C1561 C 0.05149 0.28058 0.4061 0.0
C1562 C 0.068 0.30057 0.41445 0.0
C1563 C 0.0925 0.30668 0.41542 0.0
C1564 C 0.10051 0.29274 0.40812 0.0
C1565 C 0.08408 0.27269 0.39982 0.0
H1566 H 0.10526 0.32219 0.42186 0.0
H1567 H 0.95569 0.12153 0.3432 0.0
H1568 H 0.85063 0.80606 0.43328 0.0
H1569 H 0.81961 0.81171 0.42057 0.0
H1570 H 0.83461 0.78712 0.37935 0.0
H1571 H 0.86519 0.78086 0.39199 0.0
H1572 H 0.83106 0.82713 0.37528 0.0
H1573 H 0.78463 0.75072 0.39968 0.0
H1574 H 0.77136 0.72399 0.42145 0.0
H1575 H 0.74419 0.76606 0.44216 0.0
H1576 H 0.75762 0.79325 0.42058 0.0
H1577 H 0.69156 0.77378 0.35515 0.0
H1578 H 0.7265 0.77191 0.36523 0.0
H1579 H 0.7684 0.84904 0.36627 0.0
H1580 H 0.73382 0.85079 0.35551 0.0
H1581 H 0.74463 0.78454 0.39119 0.0
H1582 H 0.81741 0.86942 0.37026 0.0
H1583 H 0.83759 0.89566 0.34874 0.0
H1584 H 0.81533 0.83396 0.32075 0.0
H1585 H 0.79415 0.80746 0.34199 0.0
C1586 C 0.84722 0.80163 0.42154 0.0
C1587 C 0.86052 0.79293 0.41371 0.0
C1588 C 0.82949 0.80496 0.41427 0.0
C1589 C 0.82461 0.79969 0.399 0.0
C1590 C 0.83808 0.7914 0.39112 0.0
C1591 C 0.85571 0.78795 0.39837 0.0
C1592 C 0.80546 0.8027 0.39118 0.0
C1593 C 0.81214 0.8178 0.37878 0.0
C1594 C 0.78077 0.7907 0.39572 0.0
C1595 C 0.77235 0.77415 0.40858 0.0
C1596 C 0.77597 0.75436 0.40892 0.0
C1597 C 0.7684 0.73911 0.42122 0.0
C1598 C 0.757 0.74336 0.43321 0.0
C1599 C 0.75306 0.76281 0.43288 0.0
C1600 C 0.76063 0.77814 0.42062 0.0
C1601 C 0.70853 0.79031 0.35709 0.0
C1602 C 0.71002 0.81239 0.35428 0.0
C1603 C 0.72851 0.78928 0.36295 0.0
C1604 C 0.75042 0.81031 0.36651 0.0
C1605 C 0.75218 0.83247 0.36327 0.0
C1606 C 0.73224 0.83349 0.35712 0.0
C1607 C 0.77007 0.8087 0.37496 0.0
C1608 C 0.76352 0.79394 0.38764 0.0
C1609 C 0.79491 0.82102 0.37071 0.0
C1610 C 0.80382 0.83658 0.35755 0.0
C1611 C 0.81633 0.86154 0.3594 0.0
C1612 C 0.82798 0.87643 0.34728 0.0
C1613 C 0.82775 0.86649 0.33339 0.0
C1614 C 0.81538 0.84164 0.3315 0.0
C1615 C 0.80324 0.82668 0.34351 0.0
H1616 H 0.83714 0.87804 0.32408 0.0
H1617 H 0.75119 0.73156 0.44273 0.0
H1618 H 0.1989 0.0437 0.4355 0.0
H1619 H 0.1905 0.0064 0.42324 0.0
H1620 H 0.21313 0.04298 0.38116 0.0
H1621 H 0.22223 0.08047 0.39334 0.0
H1622 H 0.17025 0.99747 0.37918 0.0
H1623 H 0.25214 0.03414 0.3996 0.0
H1624 H 0.28285 0.05182 0.41973 0.0
H1625 H 0.24548 0.98643 0.44444 0.0
H1626 H 0.21433 0.96848 0.42454 0.0
H1627 H 0.19116 0.91675 0.33737 0.0
H1628 H 0.19609 0.95246 0.35013 0.0
H1629 H 0.18313 0.91631 0.39238 0.0
H1630 H 0.17858 0.88075 0.37959 0.0
H1631 H 0.21928 0.96064 0.39495 0.0
H1632 H 0.1392 0.92238 0.37439 0.0
H1633 H 0.10838 0.90339 0.35446 0.0
H1634 H 0.14049 0.96977 0.33063 0.0
H1635 H 0.17175 0.98906 0.35035 0.0
C1636 C 0.20219 0.04385 0.42365 0.0
C1637 C 0.21141 0.06513 0.41543 0.0
C1638 C 0.19721 0.02249 0.41666 0.0
C1639 C 0.20132 0.02202 0.40133 0.0
C1640 C 0.20972 0.04299 0.39299 0.0
C1641 C 0.21485 0.06438 0.39998 0.0
C1642 C 0.19818 1.00001 0.39412 0.0
C1643 C 0.18108 0.98948 0.38251 0.0
C1644 C 0.21193 0.98936 0.39876 0.0
C1645 C 0.23077 1.00006 0.41066 0.0
C1646 C 0.25037 0.0236 0.40938 0.0
C1647 C 0.26787 0.03366 0.42074 0.0
C1648 C 0.26608 0.02028 0.43337 0.0
C1649 C 0.24682 0.99679 0.43466 0.0
C1650 C 0.22924 0.98666 0.42334 0.0
C1651 C 0.18915 0.91642 0.34932 0.0
C1652 C 0.18423 0.89604 0.35749 0.0
C1653 C 0.19206 0.93681 0.35663 0.0
C1654 C 0.18958 0.9369 0.37219 0.0
C1655 C 0.18512 0.91664 0.38038 0.0
C1656 C 0.18256 0.89638 0.37308 0.0
C1657 C 0.19141 0.95806 0.37992 0.0
C1658 C 0.20829 0.96846 0.39164 0.0
C1659 C 0.17723 0.9684 0.37548 0.0
C1660 C 0.15789 0.95714 0.36385 0.0
C1661 C 0.13969 0.93292 0.36491 0.0
C1662 C 0.12217 0.92209 0.35363 0.0
C1663 C 0.12249 0.93537 0.34128 0.0
C1664 C 0.14027 0.95951 0.34022 0.0
C1665 C 0.15788 0.97042 0.35146 0.0
H1666 H 0.10895 0.92695 0.33254 0.0
H1667 H 0.27965 0.0281 0.44215 0.0
H1668 H 0.48569 0.61599 0.24619 0.0
H1669 H 0.5166 0.65286 0.25821 0.0
H1670 H 0.50293 0.61622 0.30021 0.0
H1671 H 0.47264 0.57895 0.28822 0.0
H1672 H 0.50653 0.66243 0.30189 0.0
H1673 H 0.55062 0.6252 0.28227 0.0
H1674 H 0.56284 0.60681 0.26244 0.0
H1675 H 0.59192 0.67143 0.23693 0.0
H1676 H 0.57954 0.69009 0.25653 0.0
H1677 H 0.60908 0.74738 0.3425 0.0
H1678 H 0.57847 0.71041 0.33046 0.0
H1679 H 0.60209 0.74348 0.28737 0.0
H1680 H 0.63303 0.78043 0.2995 0.0
H1681 H 0.59283 0.69924 0.28588 0.0
H1682 H 0.55042 0.73746 0.3047 0.0
H1683 H 0.53829 0.75701 0.32381 0.0
H1684 H 0.50532 0.6925 0.34954 0.0
H1685 H 0.5177 0.67269 0.33074 0.0
C1686 C 0.48936 0.61562 0.25795 0.0
C1687 C 0.4767 0.59432 0.26617 0.0
C1688 C 0.50694 0.6368 0.26482 0.0
C1689 C 0.51213 0.63722 0.28008 0.0
C1690 C 0.49911 0.61627 0.28843 0.0
C1691 C 0.48171 0.59499 0.28154 0.0
C1692 C 0.53167 0.65937 0.2872 0.0
C1693 C 0.52545 0.67036 0.29854 0.0
C1694 C 0.55622 0.67004 0.2825 0.0
C1695 C 0.56394 0.65895 0.2708 0.0
C1696 C 0.55946 0.63542 0.27238 0.0
C1697 C 0.56644 0.62496 0.26119 0.0
C1698 C 0.57809 0.63792 0.24842 0.0
C1699 C 0.58286 0.6614 0.24683 0.0
C1700 C 0.57589 0.67194 0.25797 0.0
C1701 C 0.60758 0.74682 0.33051 0.0
C1702 C 0.62307 0.76687 0.32197 0.0
C1703 C 0.59014 0.72565 0.3236 0.0
C1704 C 0.58755 0.72428 0.308 0.0
C1705 C 0.60364 0.74409 0.29942 0.0
C1706 C 0.62131 0.76518 0.30635 0.0
C1707 C 0.5678 0.70237 0.30068 0.0
C1708 C 0.57393 0.69141 0.28926 0.0
C1709 C 0.54311 0.69193 0.30517 0.0
C1710 C 0.53514 0.70362 0.31635 0.0
C1711 C 0.54069 0.72747 0.31447 0.0
C1712 C 0.53378 0.7386 0.32525 0.0
C1713 C 0.52102 0.72599 0.33787 0.0
C1714 C 0.51518 0.70223 0.33975 0.0
C1715 C 0.52214 0.69103 0.32903 0.0
H1716 H 0.51561 0.73459 0.34618 0.0
H1717 H 0.58347 0.62979 0.23977 0.0
H1718 H 0.40665 0.90918 0.26316 0.0
H1719 H 0.37058 0.90345 0.27669 0.0
H1720 H 0.35497 0.83301 0.28978 0.0
H1721 H 0.39112 0.83865 0.27625 0.0
H1722 H 0.31336 0.83442 0.2793 0.0
H1723 H 0.37839 0.87564 0.31481 0.0
H1724 H 0.41854 0.90775 0.32355 0.0
H1725 H 0.39659 0.95987 0.31558 0.0
H1726 H 0.3564 0.92809 0.30657 0.0
H1727 H 0.2182 0.8178 0.32748 0.0
H1728 H 0.2561 0.82062 0.31895 0.0
H1729 H 0.28591 0.89601 0.31082 0.0
H1730 H 0.24854 0.89345 0.32039 0.0
H1731 H 0.32085 0.88978 0.32017 0.0
H1732 H 0.25837 0.85093 0.28246 0.0
H1733 H 0.21776 0.82002 0.27344 0.0
H1734 H 0.2345 0.76513 0.2846 0.0
H1735 H 0.27515 0.79574 0.29381 0.0
C1736 C 0.39549 0.89242 0.26886 0.0
C1737 C 0.40181 0.87438 0.26862 0.0
C1738 C 0.37493 0.88922 0.27667 0.0
C1739 C 0.36008 0.86784 0.28434 0.0
C1740 C 0.36614 0.84966 0.28397 0.0
C1741 C 0.3869 0.85297 0.27631 0.0
C1742 C 0.33832 0.8646 0.29274 0.0
C1743 C 0.31502 0.8463 0.28839 0.0
C1744 C 0.34036 0.88037 0.3044 0.0
C1745 C 0.36446 0.8995 0.30989 0.0
C1746 C 0.38219 0.89397 0.31481 0.0
C1747 C 0.40494 0.91211 0.31983 0.0
C1748 C 0.41013 0.93585 0.32009 0.0
C1749 C 0.39255 0.94148 0.31536 0.0
C1750 C 0.36977 0.92341 0.31031 0.0
C1751 C 0.23306 0.8351 0.32437 0.0
C1752 C 0.23052 0.85552 0.32495 0.0
C1753 C 0.25469 0.83666 0.31921 0.0
C1754 C 0.27386 0.85845 0.31389 0.0
C1755 C 0.27152 0.87896 0.31483 0.0
C1756 C 0.2501 0.87748 0.32027 0.0
C1757 C 0.29577 0.85981 0.30661 0.0
C1758 C 0.31913 0.87778 0.31115 0.0
C1759 C 0.29376 0.84395 0.29497 0.0
C1760 C 0.26971 0.82559 0.28892 0.0
C1761 C 0.25337 0.83226 0.28299 0.0
C1762 C 0.23034 0.8148 0.27786 0.0
C1763 C 0.22353 0.79062 0.27848 0.0
C1764 C 0.2398 0.78387 0.28414 0.0
C1765 C 0.26285 0.80126 0.28929 0.0
H1766 H 0.20566 0.77712 0.27456 0.0
H1767 H 0.42776 0.94987 0.32398 0.0
H1768 H 0.09964 0.51683 0.28246 0.0
H1769 H 0.10975 0.48952 0.29529 0.0
H1770 H 0.14769 0.48641 0.25619 0.0
H1771 H 0.13687 0.51319 0.24315 0.0
H1772 H 0.12345 0.44379 0.26803 0.0
H1773 H 0.17855 0.52212 0.28674 0.0
H1774 H 0.19062 0.56158 0.29777 0.0
H1775 H 0.15049 0.52772 0.33742 0.0
H1776 H 0.13787 0.48803 0.32654 0.0
H1777 H 0.18253 0.39104 0.30557 0.0
H1778 H 0.17669 0.42084 0.29219 0.0
H1779 H 0.13563 0.4249 0.32935 0.0
H1780 H 0.14258 0.39585 0.343 0.0
H1781 H 0.16357 0.46787 0.31771 0.0
H1782 H 0.10786 0.38873 0.2976 0.0
H1783 H 0.09921 0.35021 0.28651 0.0
H1784 H 0.14412 0.38697 0.24895 0.0
H1785 H 0.15329 0.42576 0.25992 0.0
C1786 C 0.11009 0.51025 0.27662 0.0
C1787 C 0.11769 0.51723 0.26189 0.0
C1788 C 0.11592 0.49472 0.28395 0.0
C1789 C 0.12995 0.48633 0.27682 0.0
C1790 C 0.13694 0.49273 0.26193 0.0
C1791 C 0.13078 0.50801 0.25451 0.0
C1792 C 0.13768 0.47127 0.28501 0.0
C1793 C 0.13249 0.4492 0.27881 0.0
C1794 C 0.14935 0.47823 0.29912 0.0
C1795 C 0.15709 0.50209 0.30577 0.0
C1796 C 0.17216 0.52309 0.29778 0.0
C1797 C 0.17912 0.54549 0.30401 0.0
C1798 C 0.17128 0.54715 0.31828 0.0
C1799 C 0.15652 0.52641 0.32636 0.0
C1800 C 0.14948 0.50395 0.32017 0.0
C1801 C 0.17257 0.39864 0.31089 0.0
C1802 C 0.16286 0.39135 0.32517 0.0
C1803 C 0.16911 0.41548 0.30324 0.0
C1804 C 0.15518 0.42461 0.30961 0.0
C1805 C 0.14631 0.41797 0.3242 0.0
C1806 C 0.15023 0.40145 0.33198 0.0
C1807 C 0.14897 0.44029 0.30086 0.0
C1808 C 0.15452 0.4625 0.30694 0.0
C1809 C 0.13789 0.43356 0.28657 0.0
C1810 C 0.13135 0.41016 0.27962 0.0
C1811 C 0.11588 0.3886 0.28697 0.0
C1812 C 0.11091 0.36673 0.28072 0.0
C1813 C 0.12111 0.36615 0.26704 0.0
C1814 C 0.13621 0.38745 0.25954 0.0
C1815 C 0.14126 0.40938 0.26576 0.0
H1816 H 0.11729 0.34921 0.26224 0.0
H1817 H 0.17668 0.56452 0.32308 0.0
H1818 H 0.38925 0.54051 0.27623 0.0
H1819 H 0.35388 0.51091 0.2902 0.0
H1820 H 0.36715 0.45517 0.27456 0.0
H1821 H 0.40242 0.48464 0.26053 0.0
H1822 H 0.32022 0.44086 0.27264 0.0
H1823 H 0.38219 0.47876 0.3105 0.0
H1824 H 0.41358 0.51269 0.32515 0.0
H1825 H 0.3599 0.53024 0.3399 0.0
H1826 H 0.32825 0.49661 0.32515 0.0
H1827 H 0.24806 0.34852 0.32205 0.0
H1828 H 0.28554 0.38197 0.31206 0.0
H1829 H 0.25797 0.42977 0.32099 0.0
H1830 H 0.22015 0.39626 0.33048 0.0
H1831 H 0.31116 0.44913 0.32696 0.0
H1832 H 0.24946 0.41154 0.28928 0.0
H1833 H 0.21773 0.37723 0.2752 0.0
H1834 H 0.27096 0.35936 0.26004 0.0
H1835 H 0.303 0.39328 0.27444 0.0
C1836 C 0.3847 0.52196 0.27584 0.0
C1837 C 0.39869 0.51495 0.26727 0.0
C1838 C 0.36449 0.50505 0.28385 0.0
C1839 C 0.35799 0.48081 0.28361 0.0
C1840 C 0.37176 0.47375 0.27493 0.0
C1841 C 0.39188 0.49061 0.26686 0.0
C1842 C 0.33666 0.46267 0.2922 0.0
C1843 C 0.31848 0.44259 0.28455 0.0
C1844 C 0.33392 0.46515 0.30769 0.0
C1845 C 0.35291 0.48533 0.31659 0.0
C1846 C 0.37712 0.48998 0.31677 0.0
C1847 C 0.39495 0.50913 0.32511 0.0
C1848 C 0.38875 0.52365 0.33342 0.0
C1849 C 0.36469 0.519 0.33344 0.0
C1850 C 0.34679 0.49989 0.3251 0.0
C1851 C 0.25025 0.36628 0.3222 0.0
C1852 C 0.23132 0.36982 0.32727 0.0
C1853 C 0.27163 0.38533 0.3165 0.0
C1854 C 0.27446 0.40829 0.31576 0.0
C1855 C 0.25619 0.41221 0.32158 0.0
C1856 C 0.2346 0.39303 0.32708 0.0
C1857 C 0.29517 0.42738 0.30739 0.0
C1858 C 0.31307 0.44755 0.31505 0.0
C1859 C 0.2977 0.42506 0.29191 0.0
C1860 C 0.27858 0.40478 0.2831 0.0
C1861 C 0.25437 0.40014 0.28309 0.0
C1862 C 0.23632 0.38077 0.27503 0.0
C1863 C 0.24228 0.36607 0.26674 0.0
C1864 C 0.26635 0.37074 0.2665 0.0
C1865 C 0.28447 0.39002 0.27462 0.0
H1866 H 0.22826 0.3511 0.26047 0.0
H1867 H 0.40258 0.53847 0.33987 0.0
H1868 H 0.45277 0.83712 0.27674 0.0
H1869 H 0.48284 0.82947 0.289 0.0
H1870 H 0.54107 0.89485 0.27077 0.0
H1871 H 0.51118 0.90251 0.25847 0.0
H1872 H 0.55269 0.86116 0.26853 0.0
H1873 H 0.52181 0.88971 0.30775 0.0
H1874 H 0.49031 0.88992 0.32375 0.0
H1875 H 0.46955 0.81939 0.33917 0.0
H1876 H 0.50071 0.81863 0.32308 0.0
H1877 H 0.65018 0.8907 0.31876 0.0
H1878 H 0.61424 0.88989 0.30787 0.0
H1879 H 0.57204 0.81384 0.31509 0.0
H1880 H 0.60833 0.81441 0.32553 0.0
H1881 H 0.5502 0.84797 0.32316 0.0
H1882 H 0.58071 0.81946 0.28289 0.0
H1883 H 0.61441 0.82124 0.26813 0.0
H1884 H 0.63777 0.89394 0.25631 0.0
H1885 H 0.60406 0.89249 0.27093 0.0
C1886 C 0.47198 0.84993 0.2754 0.0
C1887 C 0.47949 0.87045 0.26659 0.0
C1888 C 0.48919 0.84553 0.28242 0.0
C1889 C 0.51434 0.86168 0.28097 0.0
C1890 C 0.52184 0.88202 0.27205 0.0
C1891 C 0.50468 0.88636 0.26498 0.0
C1892 C 0.53291 0.85769 0.28881 0.0
C1893 C 0.55204 0.85834 0.28048 0.0
C1894 C 0.53211 0.85356 0.3044 0.0
C1895 C 0.51337 0.85399 0.31407 0.0
C1896 C 0.51038 0.87416 0.31445 0.0
C1897 C 0.49261 0.8744 0.32356 0.0
C1898 C 0.47788 0.85465 0.33243 0.0
C1899 C 0.48093 0.83465 0.33226 0.0
C1900 C 0.49865 0.83431 0.32315 0.0
C1901 C 0.63316 0.87385 0.3182 0.0
C1902 C 0.63197 0.85272 0.32326 0.0
C1903 C 0.61267 0.87341 0.312 0.0
C1904 C 0.5905 0.85184 0.31072 0.0
C1905 C 0.58896 0.83071 0.31609 0.0
C1906 C 0.60966 0.83108 0.32212 0.0
C1907 C 0.56965 0.85154 0.30286 0.0
C1908 C 0.55035 0.8503 0.31118 0.0
C1909 C 0.57027 0.8552 0.2873 0.0
C1910 C 0.58997 0.8559 0.27804 0.0
C1911 C 0.59307 0.83583 0.27715 0.0
C1912 C 0.61216 0.83677 0.26881 0.0
C1913 C 0.62832 0.85774 0.26136 0.0
C1914 C 0.62529 0.87774 0.26213 0.0
C1915 C 0.6061 0.87682 0.27036 0.0
H1916 H 0.64309 0.85845 0.25491 0.0
H1917 H 0.46414 0.85487 0.33948 0.0
H1918 H 0.08629 0.59488 0.25613 0.0
H1919 H 0.09631 0.63231 0.26875 0.0
H1920 H 0.1645 0.63969 0.28393 0.0
H1921 H 0.15474 0.60233 0.27118 0.0
H1922 H 0.14109 0.64909 0.30612 0.0
H1923 H 0.16425 0.67319 0.25561 0.0
H1924 H 0.15877 0.67176 0.22832 0.0
H1925 H 0.09998 0.68632 0.2334 0.0
H1926 H 0.10486 0.68748 0.26075 0.0
H1927 H 0.1902 0.76948 0.33057 0.0
H1928 H 0.18389 0.73336 0.31781 0.0
H1929 H 0.11655 0.72331 0.29893 0.0
H1930 H 0.12307 0.75981 0.31132 0.0
H1931 H 0.14211 0.71604 0.27845 0.0
H1932 H 0.11762 0.68985 0.32905 0.0
H1933 H 0.12383 0.69233 0.3563 0.0
H1934 H 0.18562 0.68242 0.35099 0.0
H1935 H 0.17992 0.68012 0.32367 0.0
C1936 C 0.10355 0.60459 0.26202 0.0
C1937 C 0.11979 0.5957 0.26258 0.0
C1938 C 0.10921 0.62593 0.26926 0.0
C1939 C 0.13126 0.63889 0.27714 0.0
C1940 C 0.14738 0.62994 0.27791 0.0
C1941 C 0.14174 0.60857 0.27065 0.0
C1942 C 0.13739 0.66174 0.2846 0.0
C1943 C 0.14165 0.66387 0.30004 0.0
C1944 C 0.13774 0.68084 0.27669 0.0
C1945 C 0.13478 0.6802 0.26024 0.0
C1946 C 0.15002 0.67589 0.25092 0.0
C1947 C 0.14704 0.67516 0.23544 0.0
C1948 C 0.129 0.67889 0.22913 0.0
C1949 C 0.11393 0.68341 0.2383 0.0
C1950 C 0.11681 0.68412 0.25379 0.0
C1951 C 0.17394 0.7595 0.3238 0.0
C1952 C 0.15701 0.76739 0.32205 0.0
C1953 C 0.17037 0.73883 0.31651 0.0
C1954 C 0.14958 0.72545 0.30758 0.0
C1955 C 0.13271 0.73336 0.30578 0.0
C1956 C 0.13641 0.75417 0.31292 0.0
C1957 C 0.14538 0.70326 0.30001 0.0
C1958 C 0.14157 0.70128 0.28452 0.0
C1959 C 0.14542 0.6843 0.30788 0.0
C1960 C 0.14845 0.68499 0.32432 0.0
C1961 C 0.13257 0.68827 0.33369 0.0
C1962 C 0.13599 0.68963 0.34915 0.0
C1963 C 0.15513 0.68758 0.35537 0.0
C1964 C 0.17081 0.68402 0.34615 0.0
C1965 C 0.16746 0.68264 0.33068 0.0
H1966 H 0.15781 0.68873 0.36733 0.0
H1967 H 0.12673 0.67833 0.21715 0.0
H1968 H 0.82898 0.07741 0.42005 0.0
H1969 H 0.79929 0.03969 0.40828 0.0
H1970 H 0.85787 0.03167 0.39017 0.0
H1971 H 0.88773 0.06932 0.40204 0.0
H1972 H 0.82288 0.02155 0.36952 0.0
H1973 H 0.82559 0.99914 0.42028 0.0
H1974 H 0.82307 0.00086 0.44765 0.0
H1975 H 0.74906 0.98586 0.44394 0.0
H1976 H 0.7512 0.98424 0.41654 0.0
H1977 H 0.75368 0.90006 0.34766 0.0
H1978 H 0.78292 0.93797 0.35927 0.0
H1979 H 0.72388 0.94311 0.37943 0.0
H1980 H 0.69445 0.90474 0.36816 0.0
H1981 H 0.75894 0.95492 0.399 0.0
H1982 H 0.75594 0.97772 0.34847 0.0
H1983 H 0.75769 0.97501 0.32111 0.0
H1984 H 0.83139 0.98898 0.32433 0.0
H1985 H 0.83003 0.99163 0.35174 0.0
C1986 C 0.83557 0.06753 0.41368 0.0
C1987 C 0.86077 0.07635 0.41207 0.0
C1988 C 0.81856 0.04597 0.40693 0.0
C1989 C 0.82634 0.03268 0.39849 0.0
C1990 C 0.85144 0.04161 0.39664 0.0
C1991 C 0.86849 0.06319 0.40339 0.0
C1992 C 0.80829 0.00958 0.39148 0.0
C1993 C 0.80908 0.00687 0.37599 0.0
C1994 C 0.78988 0.99063 0.39986 0.0
C1995 C 0.78865 0.99182 0.41634 0.0
C1996 C 0.80885 0.99641 0.42529 0.0
C1997 C 0.80746 0.99729 0.44082 0.0
C1998 C 0.78592 0.99348 0.44753 0.0
C1999 C 0.76572 0.98877 0.43873 0.0
C2000 C 0.76701 0.98785 0.42321 0.0
C2001 C 0.74685 0.90929 0.35449 0.0
C2002 C 0.72168 0.89943 0.3569 0.0
C2003 C 0.76363 0.93105 0.36109 0.0
C2004 C 0.75562 0.94365 0.37004 0.0
C2005 C 0.7305 0.93376 0.37254 0.0
C2006 C 0.71369 0.91185 0.36606 0.0
C2007 C 0.77348 0.96689 0.37702 0.0
C2008 C 0.77267 0.96963 0.39251 0.0
C2009 C 0.7918 0.9859 0.36864 0.0
C2010 C 0.79282 0.98471 0.35215 0.0
C2011 C 0.77249 0.98013 0.34334 0.0
C2012 C 0.77343 0.97865 0.32783 0.0
C2013 C 0.79463 0.98179 0.32099 0.0
C2014 C 0.81499 0.98655 0.32965 0.0
C2015 C 0.81416 0.98811 0.34517 0.0
H2016 H 0.79529 0.98054 0.30898 0.0
H2017 H 0.78486 0.99413 0.45955 0.0
H2018 H 0.92328 0.78402 0.39087 0.0
H2019 H 0.95968 0.79085 0.37772 0.0
H2020 H 0.99848 0.80476 0.41952 0.0
H2021 H 0.96279 0.80019 0.43269 0.0
H2022 H 0.0287 0.833 0.40074 0.0
H2023 H 0.97275 0.74876 0.39922 0.0
H2024 H 0.9338 0.71174 0.39423 0.0
H2025 H 0.9398 0.72865 0.34762 0.0
H2026 H 0.97866 0.76594 0.35236 0.0
H2027 H 0.09276 0.77111 0.36112 0.0
H2028 H 0.05645 0.76935 0.37164 0.0
H2029 H 0.085 0.84385 0.36098 0.0
H2030 H 0.12245 0.84607 0.3518 0.0
H2031 H 0.02102 0.77253 0.36358 0.0
H2032 H 0.0631 0.86992 0.38467 0.0
H2033 H 0.10323 0.90362 0.39209 0.0
H2034 H 0.12724 0.85447 0.40451 0.0
H2035 H 0.08699 0.82044 0.39755 0.0
C2036 C 0.93961 0.78903 0.39734 0.0
C2037 C 0.93972 0.79142 0.41299 0.0
C2038 C 0.96046 0.79255 0.38975 0.0
C2039 C 0.9819 0.79782 0.39756 0.0
C2040 C 0.98225 0.80059 0.41314 0.0
C2041 C 0.96155 0.79757 0.42073 0.0
C2042 C 0.00373 0.8 0.38957 0.0
C2043 C 0.02696 0.81973 0.39262 0.0
C2044 C 1.00182 0.78265 0.37907 0.0
C2045 C 0.97847 0.76026 0.37617 0.0
C2046 C 0.96567 0.74466 0.38792 0.0
C2047 C 0.94363 0.72363 0.38514 0.0
C2048 C 0.93429 0.71789 0.37063 0.0
C2049 C 0.94703 0.73315 0.35886 0.0
C2050 C 0.96907 0.75422 0.36158 0.0
C2051 C 0.09122 0.78709 0.36097 0.0
C2052 C 0.11032 0.80861 0.35539 0.0
C2053 C 0.07034 0.78607 0.36693 0.0
C2054 C 0.06784 0.80652 0.36738 0.0
C2055 C 0.08653 0.82788 0.36119 0.0
C2056 C 0.10783 0.82906 0.35563 0.0
C2057 C 0.04609 0.80534 0.37486 0.0
C2058 C 0.0228 0.78585 0.37166 0.0
C2059 C 0.04813 0.8224 0.38567 0.0
C2060 C 0.07211 0.84266 0.39041 0.0
C2061 C 0.07688 0.8663 0.38908 0.0
C2062 C 0.09965 0.88546 0.3932 0.0
C2063 C 0.11784 0.8812 0.39867 0.0
C2064 C 0.11317 0.85775 0.40021 0.0
C2065 C 0.09036 0.83852 0.39622 0.0
H2066 H 0.13551 0.89608 0.40175 0.0
H2067 H 0.91722 0.70159 0.36849 0.0
H2068 H 0.20802 0.15843 0.4348 0.0
H2069 H 0.20033 0.18725 0.42192 0.0
H2070 H 0.21452 0.16449 0.37968 0.0
H2071 H 0.22388 0.13679 0.39254 0.0
H2072 H 0.23443 0.21057 0.37978 0.0
H2073 H 0.15505 0.14614 0.39212 0.0
H2074 H 0.12301 0.11679 0.40859 0.0
H2075 H 0.1259 0.17383 0.43491 0.0
H2076 H 0.15811 0.20358 0.41867 0.0
H2077 H 0.17996 0.26416 0.33595 0.0
H2078 H 0.18604 0.23331 0.34773 0.0
H2079 H 0.18702 0.26312 0.39101 0.0
H2080 H 0.18096 0.29386 0.37931 0.0
H2081 H 0.15822 0.21243 0.38942 0.0
H2082 H 0.23858 0.27657 0.37681 0.0
H2083 H 0.26975 0.30527 0.35965 0.0
H2084 H 0.26372 0.24721 0.33292 0.0
H2085 H 0.23219 0.21815 0.3498 0.0
C2086 C 0.20986 0.15977 0.42279 0.0
C2087 C 0.21642 0.14513 0.41472 0.0
C2088 C 0.20511 0.17604 0.41541 0.0
C2089 C 0.20633 0.17769 0.39979 0.0
C2090 C 0.21327 0.16342 0.39173 0.0
C2091 C 0.21835 0.14738 0.3991 0.0
C2092 C 0.20052 0.1944 0.39186 0.0
C2093 C 0.21758 0.21068 0.38173 0.0
C2094 C 0.17869 0.19485 0.39454 0.0
C2095 C 0.15914 0.17707 0.40425 0.0
C2096 C 0.14894 0.15243 0.40147 0.0
C2097 C 0.13072 0.13573 0.41075 0.0
C2098 C 0.12245 0.14346 0.4228 0.0
C2099 C 0.13232 0.1679 0.42556 0.0
C2100 C 0.15053 0.18469 0.41631 0.0
C2101 C 0.18121 0.26396 0.34794 0.0
C2102 C 0.18015 0.28149 0.35668 0.0
C2103 C 0.18481 0.24643 0.35466 0.0
C2104 C 0.18709 0.24608 0.37022 0.0
C2105 C 0.18533 0.26315 0.37898 0.0
C2106 C 0.18208 0.28081 0.37226 0.0
C2107 C 0.19211 0.22842 0.37743 0.0
C2108 C 0.17494 0.21208 0.38743 0.0
C2109 C 0.2137 0.22776 0.37454 0.0
C2110 C 0.23283 0.2452 0.36447 0.0
C2111 C 0.24375 0.26992 0.3672 0.0
C2112 C 0.2615 0.28626 0.35754 0.0
C2113 C 0.26866 0.27807 0.34518 0.0
C2114 C 0.25813 0.25353 0.34248 0.0
C2115 C 0.24032 0.23712 0.3521 0.0
H2116 H 0.28242 0.29075 0.33771 0.0
H2117 H 0.10836 0.1305 0.42998 0.0
H2118 H 0.6282 0.49602 0.76355 0.0
H2119 H 0.66305 0.526 0.74963 0.0
H2120 H 0.62036 0.50364 0.70907 0.0
H2121 H 0.58489 0.47465 0.72309 0.0
H2122 H 0.68944 0.52357 0.72865 0.0
H2123 H 0.64026 0.55016 0.685 0.0
H2124 H 0.60236 0.55193 0.68229 0.0
H2125 H 0.60003 0.56007 0.72969 0.0
H2126 H 0.63805 0.55865 0.73266 0.0
H2127 H 0.78421 0.60477 0.68236 0.0
H2128 H 0.74545 0.57057 0.68955 0.0
H2129 H 0.72126 0.61859 0.70526 0.0
H2130 H 0.75874 0.65254 0.6961 0.0
H2131 H 0.6844 0.58314 0.69633 0.0
H2132 H 0.75114 0.58946 0.72802 0.0
H2133 H 0.78949 0.58906 0.73256 0.0
H2134 H 0.75806 0.51904 0.71287 0.0
H2135 H 0.71968 0.51911 0.70811 0.0
C2136 C 0.62601 0.49771 0.75172 0.0
C2137 C 0.60353 0.48295 0.74452 0.0
C2138 C 0.64612 0.51471 0.74371 0.0
C2139 C 0.64438 0.51734 0.72829 0.0
C2140 C 0.62214 0.50231 0.72099 0.0
C2141 C 0.6019 0.48547 0.72903 0.0
C2142 C 0.66588 0.53585 0.71997 0.0
C2143 C 0.68834 0.53664 0.7216 0.0
C2144 C 0.66456 0.5529 0.71071 0.0
C2145 C 0.64183 0.55401 0.70905 0.0
C2146 C 0.63168 0.55239 0.69483 0.0
C2147 C 0.61018 0.55332 0.69326 0.0
C2148 C 0.59875 0.55602 0.70582 0.0
C2149 C 0.60885 0.55788 0.71998 0.0
C2150 C 0.63035 0.55699 0.72162 0.0
C2151 C 0.77027 0.608 0.68672 0.0
C2152 C 0.77434 0.63139 0.68823 0.0
C2153 C 0.7482 0.58836 0.69124 0.0
C2154 C 0.73046 0.59179 0.69846 0.0
C2155 C 0.73444 0.6152 0.69974 0.0
C2156 C 0.75599 0.63469 0.69457 0.0
C2157 C 0.70834 0.57148 0.70538 0.0
C2158 C 0.68562 0.57014 0.70337 0.0
C2159 C 0.70956 0.55428 0.71463 0.0
C2160 C 0.73264 0.55436 0.71762 0.0
C2161 C 0.75247 0.57403 0.72463 0.0
C2162 C 0.77419 0.57385 0.72724 0.0
C2163 C 0.77614 0.55401 0.723 0.0
C2164 C 0.75647 0.53436 0.71615 0.0
C2165 C 0.73475 0.53445 0.71351 0.0
H2166 H 0.79284 0.55375 0.72501 0.0
H2167 H 0.5821 0.55671 0.70457 0.0
H2168 H 0.55068 0.15869 0.73569 0.0
H2169 H 0.51891 0.16284 0.72259 0.0
H2170 H 0.46405 0.09486 0.73996 0.0
H2171 H 0.4957 0.09054 0.75298 0.0
H2172 H 0.45781 0.09883 0.71009 0.0
H2173 H 0.47069 0.14581 0.75434 0.0
H2174 H 0.4944 0.17753 0.77282 0.0
H2175 H 0.51597 0.2308 0.73874 0.0
H2176 H 0.49266 0.19935 0.72 0.0
H2177 H 0.35091 0.1031 0.69235 0.0
H2178 H 0.3846 0.09972 0.70285 0.0
H2179 H 0.43406 0.17404 0.69295 0.0
H2180 H 0.39982 0.17787 0.68374 0.0
H2181 H 0.44453 0.16745 0.71841 0.0
H2182 H 0.43681 0.12127 0.6738 0.0
H2183 H 0.41532 0.08995 0.65456 0.0
H2184 H 0.38574 0.03635 0.6886 0.0
H2185 H 0.40728 0.06735 0.70793 0.0
C2186 C 0.53186 0.14459 0.73668 0.0
C2187 C 0.52575 0.12431 0.74543 0.0
C2188 C 0.51369 0.14707 0.72927 0.0
C2189 C 0.48902 0.12925 0.73037 0.0
C2190 C 0.48292 0.10889 0.73897 0.0
C2191 C 0.50103 0.10651 0.74649 0.0
C2192 C 0.46958 0.13154 0.72234 0.0
C2193 C 0.45475 0.11374 0.71202 0.0
C2194 C 0.46594 0.15128 0.72451 0.0
C2195 C 0.48016 0.17019 0.73573 0.0
C2196 C 0.4807 0.16426 0.75075 0.0
C2197 C 0.49402 0.1822 0.76128 0.0
C2198 C 0.50675 0.20616 0.75695 0.0
C2199 C 0.50614 0.21223 0.74208 0.0
C2200 C 0.49287 0.19436 0.7315 0.0
C2201 C 0.36908 0.11862 0.69217 0.0
C2202 C 0.37272 0.14057 0.68676 0.0
C2203 C 0.3885 0.11662 0.69805 0.0
C2204 C 0.41232 0.13643 0.69843 0.0
C2205 C 0.41604 0.15834 0.69276 0.0
C2206 C 0.39643 0.16048 0.68723 0.0
C2207 C 0.43273 0.13481 0.70592 0.0
C2208 C 0.44769 0.15267 0.71628 0.0
C2209 C 0.43667 0.11522 0.7037 0.0
C2210 C 0.42326 0.09662 0.69223 0.0
C2211 C 0.42545 0.10282 0.67711 0.0
C2212 C 0.4134 0.08514 0.66622 0.0
C2213 C 0.39898 0.06122 0.67037 0.0
C2214 C 0.39681 0.0549 0.6854 0.0
C2215 C 0.40903 0.07249 0.69632 0.0
H2216 H 0.38961 0.04757 0.66192 0.0
H2217 H 0.51702 0.22003 0.76512 0.0
H2218 H 0.91771 0.40692 0.7566 0.0
H2219 H 0.91066 0.37068 0.74349 0.0
H2220 H 0.83746 0.35423 0.73249 0.0
H2221 H 0.84431 0.39038 0.74576 0.0
H2222 H 0.84042 0.31439 0.74263 0.0
H2223 H 0.87928 0.37787 0.7067 0.0
H2224 H 0.91143 0.41711 0.69771 0.0
H2225 H 0.96495 0.39542 0.70356 0.0
H2226 H 0.93315 0.35615 0.7128 0.0
H2227 H 0.81643 0.2305 0.68373 0.0
H2228 H 0.82309 0.26648 0.69707 0.0
H2229 H 0.89447 0.28055 0.71084 0.0
H2230 H 0.88775 0.24431 0.69785 0.0
H2231 H 0.89234 0.3213 0.69943 0.0
H2232 H 0.85489 0.25801 0.73432 0.0
H2233 H 0.82386 0.21834 0.7433 0.0
H2234 H 0.76941 0.23934 0.74107 0.0
H2235 H 0.79988 0.27884 0.73136 0.0
C2236 C 0.90005 0.39547 0.75149 0.0
C2237 C 0.88157 0.40149 0.75216 0.0
C2238 C 0.8961 0.37487 0.74395 0.0
C2239 C 0.8736 0.3599 0.73695 0.0
C2240 C 0.85495 0.3656 0.73782 0.0
C2241 C 0.85895 0.38631 0.74528 0.0
C2242 C 0.86978 0.33859 0.72844 0.0
C2243 C 0.85149 0.31587 0.73305 0.0
C2244 C 0.88476 0.3406 0.71622 0.0
C2245 C 0.90387 0.36416 0.71058 0.0
C2246 C 0.89793 0.38154 0.70619 0.0
C2247 C 0.91609 0.40377 0.70102 0.0
C2248 C 0.94022 0.40878 0.7001 0.0
C2249 C 0.94625 0.39153 0.7043 0.0
C2250 C 0.92816 0.36927 0.70949 0.0
C2251 C 0.83361 0.24136 0.68952 0.0
C2252 C 0.85157 0.23461 0.68982 0.0
C2253 C 0.83734 0.26182 0.69715 0.0
C2254 C 0.85922 0.27601 0.70496 0.0
C2255 C 0.87747 0.26975 0.70487 0.0
C2256 C 0.87357 0.24904 0.6975 0.0
C2257 C 0.86287 0.29715 0.71353 0.0
C2258 C 0.88117 0.31981 0.70896 0.0
C2259 C 0.84806 0.29502 0.72587 0.0
C2260 C 0.82963 0.2713 0.7318 0.0
C2261 C 0.83621 0.25407 0.73546 0.0
C2262 C 0.81872 0.23159 0.74068 0.0
C2263 C 0.79462 0.22622 0.74257 0.0
C2264 C 0.78803 0.24343 0.73941 0.0
C2265 C 0.8054 0.26585 0.73399 0.0
H2266 H 0.78109 0.20875 0.74653 0.0
H2267 H 0.95425 0.42601 0.6961 0.0
H2268 H 0.14927 0.94771 0.57655 0.0
H2269 H 0.17989 0.98523 0.58814 0.0
H2270 H 0.16609 0.95041 0.63081 0.0
H2271 H 0.13599 0.91263 0.61929 0.0
H2272 H 0.16994 0.9959 0.63211 0.0
H2273 H 0.21434 0.95908 0.61209 0.0
H2274 H 0.22636 0.94083 0.59208 0.0
H2275 H 0.2542 0.00522 0.56647 0.0
H2276 H 0.2421 0.02381 0.58628 0.0
H2277 H 0.27269 0.07969 0.67301 0.0
H2278 H 0.24155 0.04324 0.66073 0.0
H2279 H 0.26626 0.07678 0.61784 0.0
H2280 H 0.29783 0.1131 0.63021 0.0
H2281 H 0.25609 0.03277 0.61582 0.0
H2282 H 0.21425 0.07101 0.63535 0.0
H2283 H 0.2022 0.09032 0.65467 0.0
H2284 H 0.16866 0.02525 0.67986 0.0
H2285 H 0.18096 0.00568 0.66084 0.0
C2286 C 0.15282 0.94793 0.58839 0.0
C2287 C 0.1402 0.92701 0.59694 0.0
C2288 C 0.17024 0.96946 0.595 0.0
C2289 C 0.17538 0.97056 0.61032 0.0
C2290 C 0.16234 0.94996 0.61898 0.0
C2291 C 0.14505 0.92838 0.61237 0.0
C2292 C 0.19493 0.99296 0.61723 0.0
C2293 C 0.18883 0.00387 0.62868 0.0
C2294 C 0.21943 0.00371 0.61242 0.0
C2295 C 0.22709 0.99274 0.6006 0.0
C2296 C 0.22289 0.9693 0.60215 0.0
C2297 C 0.22974 0.95891 0.59085 0.0
C2298 C 0.24099 0.97185 0.578 0.0
C2299 C 0.24548 0.99524 0.57644 0.0
C2300 C 0.23865 0.00572 0.5877 0.0
C2301 C 0.2713 0.07933 0.66101 0.0
C2302 C 0.28733 0.0993 0.65259 0.0
C2303 C 0.25355 0.05847 0.65396 0.0
C2304 C 0.25112 0.05739 0.63834 0.0
C2305 C 0.26766 0.07716 0.62989 0.0
C2306 C 0.28568 0.09789 0.63696 0.0
C2307 C 0.23122 0.03575 0.63085 0.0
C2308 C 0.23722 0.02496 0.61926 0.0
C2309 C 0.20655 0.02534 0.63538 0.0
C2310 C 0.19867 0.03691 0.6467 0.0
C2311 C 0.20441 0.06084 0.64505 0.0
C2312 C 0.19755 0.07184 0.65595 0.0
C2313 C 0.18465 0.059 0.66847 0.0
C2314 C 0.17863 0.03516 0.67014 0.0
C2315 C 0.18554 0.0241 0.6593 0.0
H2316 H 0.17928 0.06751 0.67687 0.0
H2317 H 0.24626 0.96377 0.56925 0.0
H2318 H 0.0598 0.17693 0.61041 0.0
H2319 H 0.02386 0.17195 0.62382 0.0
H2320 H 0.03918 0.24166 0.60921 0.0
H2321 H 0.0752 0.2468 0.59588 0.0
H2322 H 0.02822 0.23463 0.63917 0.0
H2323 H 0.99417 0.19234 0.59303 0.0
H2324 H 0.98619 0.16231 0.57347 0.0
H2325 H 0.95226 0.10605 0.60564 0.0
H2326 H 0.96035 0.13579 0.62544 0.0
H2327 H 0.91757 0.23235 0.65397 0.0
H2328 H 0.95512 0.23519 0.64484 0.0
H2329 H 0.926 0.16001 0.65344 0.0
H2330 H 0.88765 0.15689 0.66156 0.0
H2331 H 0.94481 0.16808 0.62799 0.0
H2332 H 0.97994 0.20888 0.67429 0.0
H2333 H 0.98974 0.23818 0.69471 0.0
H2334 H 0.02198 0.29575 0.66333 0.0
H2335 H 0.01264 0.26681 0.6428 0.0
C2336 C 0.05557 0.19124 0.6101 0.0
C2337 C 0.07038 0.21225 0.60202 0.0
C2338 C 0.03491 0.1883 0.61769 0.0
C2339 C 0.02865 0.20635 0.61746 0.0
C2340 C 0.04356 0.22744 0.60954 0.0
C2341 C 0.06407 0.23029 0.60183 0.0
C2342 C 0.00675 0.20345 0.62556 0.0
C2343 C 0.00994 0.2202 0.63663 0.0
C2344 C 0.98295 0.1842 0.62263 0.0
C2345 C 0.97813 0.16631 0.61075 0.0
C2346 C 0.98522 0.17358 0.59596 0.0
C2347 C 0.98063 0.15661 0.58482 0.0
C2348 C 0.96879 0.13229 0.58832 0.0
C2349 C 0.96147 0.12489 0.60295 0.0
C2350 C 0.96604 0.1418 0.61413 0.0
C2351 C 0.91936 0.21651 0.6542 0.0
C2352 C 0.89976 0.19452 0.65883 0.0
C2353 C 0.94103 0.21818 0.64908 0.0
C2354 C 0.94391 0.19794 0.64866 0.0
C2355 C 0.92449 0.176 0.65368 0.0
C2356 C 0.90258 0.17425 0.65855 0.0
C2357 C 0.96613 0.19934 0.64169 0.0
C2358 C 0.96306 0.18237 0.63073 0.0
C2359 C 0.99011 0.21825 0.64483 0.0
C2360 C 0.99531 0.23569 0.65704 0.0
C2361 C 0.98891 0.22778 0.67178 0.0
C2362 C 0.99448 0.24432 0.68336 0.0
C2363 C 0.00628 0.26878 0.6803 0.0
C2364 C 0.01276 0.27679 0.66568 0.0
C2365 C 0.00745 0.26034 0.65408 0.0
H2366 H 0.01051 0.28154 0.68928 0.0
H2367 H 0.96524 0.11918 0.57968 0.0
H2368 H 0.76159 0.82742 0.59047 0.0
H2369 H 0.76856 0.79871 0.60423 0.0
H2370 H 0.83781 0.85607 0.61996 0.0
H2371 H 0.8312 0.88488 0.60594 0.0
H2372 H 0.84068 0.81668 0.61093 0.0
H2373 H 0.7902 0.83342 0.64273 0.0
H2374 H 0.75463 0.8376 0.6491 0.0
H2375 H 0.7066 0.76329 0.63902 0.0
H2376 H 0.74188 0.75875 0.63238 0.0
H2377 H 0.85591 0.74882 0.66809 0.0
H2378 H 0.85005 0.77971 0.65624 0.0
H2379 H 0.78286 0.72521 0.63633 0.0
H2380 H 0.78858 0.69422 0.64801 0.0
H2381 H 0.78011 0.7645 0.6485 0.0
H2382 H 0.82943 0.74793 0.6155 0.0
H2383 H 0.86435 0.74242 0.6097 0.0
H2384 H 0.91401 0.81546 0.62194 0.0
H2385 H 0.87929 0.82129 0.6281 0.0
C2386 C 0.77842 0.8339 0.59673 0.0
C2387 C 0.79581 0.85842 0.59717 0.0
C2388 C 0.7823 0.8175 0.60467 0.0
C2389 C 0.80359 0.82531 0.61324 0.0
C2390 C 0.82123 0.8497 0.61346 0.0
C2391 C 0.81733 0.86613 0.60555 0.0
C2392 C 0.8072 0.80801 0.62215 0.0
C2393 C 0.82765 0.80554 0.61931 0.0
C2394 C 0.78993 0.79316 0.63288 0.0
C2395 C 0.76868 0.79581 0.63693 0.0
C2396 C 0.77204 0.81802 0.64176 0.0
C2397 C 0.75194 0.82044 0.64544 0.0
C2398 C 0.72837 0.80074 0.64443 0.0
C2399 C 0.72487 0.77855 0.63978 0.0
C2400 C 0.74492 0.77603 0.63607 0.0
C2401 C 0.83974 0.7434 0.66133 0.0
C2402 C 0.82275 0.71906 0.65893 0.0
C2403 C 0.83648 0.76107 0.65454 0.0
C2404 C 0.8161 0.75467 0.64536 0.0
C2405 C 0.79868 0.73046 0.64339 0.0
C2406 C 0.80206 0.71279 0.65002 0.0
C2407 C 0.81346 0.77315 0.63722 0.0
C2408 C 0.79321 0.77579 0.6402 0.0
C2409 C 0.83083 0.78808 0.62659 0.0
C2410 C 0.85177 0.78496 0.62243 0.0
C2411 C 0.84779 0.76278 0.61705 0.0
C2412 C 0.86753 0.7596 0.6137 0.0
C2413 C 0.89136 0.77854 0.61553 0.0
C2414 C 0.89551 0.80078 0.62059 0.0
C2415 C 0.8758 0.80404 0.62401 0.0
H2416 H 0.90658 0.77595 0.61303 0.0
H2417 H 0.71282 0.80265 0.64728 0.0
H2418 H 0.03965 0.83162 0.58003 0.0
H2419 H 0.00456 0.80198 0.59405 0.0
H2420 H 0.04548 0.82835 0.63506 0.0
H2421 H 0.08108 0.85675 0.62109 0.0
H2422 H 0.02258 0.78332 0.63623 0.0
H2423 H 0.99746 0.84025 0.62416 0.0
H2424 H 0.98867 0.86586 0.60793 0.0
H2425 H 0.93644 0.80403 0.58329 0.0
H2426 H 0.94518 0.77812 0.59925 0.0
H2427 H 0.8853 0.72691 0.66384 0.0
H2428 H 0.92333 0.76061 0.65487 0.0
H2429 H 0.94883 0.71205 0.64281 0.0
H2430 H 0.91173 0.67878 0.65288 0.0
H2431 H 0.93931 0.77088 0.62898 0.0
H2432 H 0.00603 0.73567 0.63838 0.0
H2433 H 0.01615 0.71423 0.65729 0.0
H2434 H 0.98807 0.73997 0.69174 0.0
H2435 H 0.97754 0.76138 0.67296 0.0
C2436 C 0.04132 0.83099 0.59202 0.0
C2437 C 0.06333 0.84679 0.59937 0.0
C2438 C 0.02103 0.81422 0.60007 0.0
C2439 C 0.0221 0.8131 0.6157 0.0
C2440 C 0.04404 0.82884 0.62304 0.0
C2441 C 0.06439 0.84534 0.615 0.0
C2442 C 1.00077 0.79505 0.6244 0.0
C2443 C 0.00439 0.78071 0.63467 0.0
C2444 C 0.97701 0.79172 0.62263 0.0
C2445 C 0.97206 0.80729 0.61284 0.0
C2446 C 0.98424 0.83216 0.61521 0.0
C2447 C 0.97925 0.84672 0.60607 0.0
C2448 C 0.96203 0.83659 0.59457 0.0
C2449 C 0.9498 0.81187 0.59218 0.0
C2450 C 0.95476 0.79724 0.60127 0.0
C2451 C 0.89943 0.72357 0.65989 0.0
C2452 C 0.89577 0.70024 0.65947 0.0
C2453 C 0.92112 0.74286 0.65453 0.0
C2454 C 0.93935 0.73914 0.64827 0.0
C2455 C 0.93566 0.71578 0.64799 0.0
C2456 C 0.91427 0.69665 0.65365 0.0
C2457 C 0.9611 0.75913 0.64086 0.0
C2458 C 0.95752 0.77366 0.6307 0.0
C2459 C 0.98506 0.76311 0.64303 0.0
C2460 C 0.99076 0.74986 0.65429 0.0
C2461 C 1.00194 0.73667 0.64999 0.0
C2462 C 0.00768 0.72449 0.66067 0.0
C2463 C 1.00257 0.72561 0.6757 0.0
C2464 C 0.99173 0.73892 0.68008 0.0
C2465 C 0.98575 0.75096 0.66942 0.0
H2466 H 0.00712 0.71625 0.68396 0.0
H2467 H 0.95815 0.84788 0.58754 0.0
H2468 H 0.1512 0.18853 0.58147 0.0
H2469 H 0.18131 0.18052 0.5932 0.0
H2470 H 0.17875 0.21639 0.63326 0.0
H2471 H 0.14823 0.22398 0.62165 0.0
H2472 H 0.22499 0.20774 0.60194 0.0
H2473 H 0.19373 0.19508 0.66394 0.0
H2474 H 0.15558 0.17909 0.67826 0.0
H2475 H 0.11512 0.13484 0.64101 0.0
H2476 H 0.15305 0.15027 0.62655 0.0
H2477 H 0.32143 0.22507 0.6491 0.0
H2478 H 0.28619 0.2265 0.63897 0.0
H2479 H 0.24138 0.1503 0.6449 0.0
H2480 H 0.27675 0.14879 0.65486 0.0
H2481 H 0.21699 0.17452 0.65277 0.0
H2482 H 0.2611 0.16943 0.61164 0.0
H2483 H 0.29743 0.18007 0.5964 0.0
H2484 H 0.30799 0.25048 0.58976 0.0
H2485 H 0.27191 0.24037 0.60518 0.0
C2486 C 0.15699 0.19464 0.5928 0.0
C2487 C 0.14725 0.20687 0.60061 0.0
C2488 C 0.17424 0.19004 0.59952 0.0
C2489 C 0.1823 0.19763 0.61422 0.0
C2490 C 0.17255 0.20983 0.62205 0.0
C2491 C 0.15509 0.21422 0.61538 0.0
C2492 C 0.20156 0.19359 0.62107 0.0
C2493 C 0.22311 0.20045 0.61305 0.0
C2494 C 0.19914 0.18356 0.63546 0.0
C2495 C 0.17623 0.17407 0.6441 0.0
C2496 C 0.17671 0.18189 0.65882 0.0
C2497 C 0.15511 0.17292 0.66696 0.0
C2498 C 0.13293 0.15603 0.66053 0.0
C2499 C 0.1323 0.148 0.64596 0.0
C2500 C 0.15384 0.15688 0.63778 0.0
C2501 C 0.30399 0.20868 0.64838 0.0
C2502 C 0.30174 0.18692 0.65304 0.0
C2503 C 0.28388 0.20949 0.64257 0.0
C2504 C 0.26114 0.1885 0.64111 0.0
C2505 C 0.2587 0.16675 0.646 0.0
C2506 C 0.27891 0.16591 0.65173 0.0
C2507 C 0.24038 0.18927 0.63375 0.0
C2508 C 0.21868 0.1818 0.64166 0.0
C2509 C 0.24231 0.19806 0.61909 0.0
C2510 C 0.26391 0.2042 0.60968 0.0
C2511 C 0.27127 0.18724 0.60703 0.0
C2512 C 0.29181 0.19316 0.59834 0.0
C2513 C 0.30504 0.21595 0.59213 0.0
C2514 C 0.29773 0.23284 0.59458 0.0
C2515 C 0.27722 0.22702 0.60329 0.0
H2516 H 0.32092 0.2205 0.5854 0.0
H2517 H 0.11623 0.14913 0.66685 0.0
H2518 H 0.76271 0.93402 0.58804 0.0
H2519 H 0.76945 0.97046 0.60062 0.0
H2520 H 0.83704 0.98061 0.61907 0.0
H2521 H 0.83054 0.9442 0.60639 0.0
H2522 H 0.81001 0.98775 0.63989 0.0
H2523 H 0.8378 0.01398 0.5901 0.0
H2524 H 0.83478 0.01309 0.56266 0.0
H2525 H 0.77353 0.02437 0.56525 0.0
H2526 H 0.77596 0.02499 0.59273 0.0
H2527 H 0.85674 0.10725 0.66439 0.0
H2528 H 0.85046 0.07081 0.65219 0.0
H2529 H 0.78549 0.06249 0.63073 0.0
H2530 H 0.79208 0.09945 0.64257 0.0
H2531 H 0.81163 0.05437 0.61148 0.0
H2532 H 0.78322 0.02748 0.66123 0.0
H2533 H 0.78664 0.02921 0.68867 0.0
H2534 H 0.84898 0.01964 0.6862 0.0
H2535 H 0.84605 0.01805 0.65873 0.0
C2536 C 0.77917 0.94415 0.59463 0.0
C2537 C 0.7962 0.93631 0.59612 0.0
C2538 C 0.78294 0.96492 0.60185 0.0
C2539 C 0.80387 0.97837 0.61065 0.0
C2540 C 0.82076 0.97047 0.61233 0.0
C2541 C 0.817 0.94966 0.60511 0.0
C2542 C 0.80805 0.00066 0.6181 0.0
C2543 C 0.81067 0.00245 0.63367 0.0
C2544 C 0.80838 0.0196 0.61001 0.0
C2545 C 0.80692 0.0193 0.59348 0.0
C2546 C 0.82356 0.01608 0.58482 0.0
C2547 C 0.82198 0.01565 0.56926 0.0
C2548 C 0.80394 0.01861 0.56222 0.0
C2549 C 0.78747 0.02205 0.57072 0.0
C2550 C 0.78896 0.02246 0.58629 0.0
C2551 C 0.84098 0.09759 0.65717 0.0
C2552 C 0.8248 0.10616 0.65453 0.0
C2553 C 0.83739 0.07669 0.65022 0.0
C2554 C 0.81728 0.06368 0.64071 0.0
C2555 C 0.80111 0.07222 0.63804 0.0
C2556 C 0.80486 0.09331 0.64485 0.0
C2557 C 0.81341 0.04144 0.6333 0.0
C2558 C 0.81089 0.03965 0.61772 0.0
C2559 C 0.81311 0.02249 0.6414 0.0
C2560 C 0.81451 0.0228 0.65793 0.0
C2561 C 0.7977 0.02581 0.66654 0.0
C2562 C 0.79954 0.02675 0.68209 0.0
C2563 C 0.81804 0.02457 0.68917 0.0
C2564 C 0.83466 0.02132 0.6807 0.0
C2565 C 0.83288 0.02034 0.66514 0.0
H2566 H 0.81949 0.02541 0.70121 0.0
H2567 H 0.80275 0.01828 0.55017 0.0
H2568 H 0.55486 0.39552 0.73815 0.0
H2569 H 0.5254 0.35779 0.72618 0.0
H2570 H 0.46617 0.36479 0.74424 0.0
H2571 H 0.49551 0.40249 0.75624 0.0
H2572 H 0.4565 0.31928 0.74631 0.0
H2573 H 0.48362 0.37911 0.70818 0.0
H2574 H 0.51392 0.41204 0.69272 0.0
H2575 H 0.53972 0.36632 0.67594 0.0
H2576 H 0.5098 0.3332 0.69148 0.0
H2577 H 0.36197 0.23635 0.69887 0.0
H2578 H 0.39179 0.27299 0.7116 0.0
H2579 H 0.45036 0.26532 0.69308 0.0
H2580 H 0.4207 0.22889 0.68011 0.0
H2581 H 0.46048 0.31066 0.69154 0.0
H2582 H 0.43228 0.25035 0.72983 0.0
H2583 H 0.40002 0.21724 0.74429 0.0
H2584 H 0.37475 0.26386 0.76013 0.0
H2585 H 0.40672 0.29721 0.74567 0.0
C2586 C 0.53556 0.38907 0.73952 0.0
C2587 C 0.52754 0.40209 0.74808 0.0
C2588 C 0.51874 0.36747 0.73271 0.0
C2589 C 0.49355 0.35857 0.73417 0.0
C2590 C 0.48549 0.37125 0.74298 0.0
C2591 C 0.5023 0.3928 0.74984 0.0
C2592 C 0.4756 0.33645 0.72615 0.0
C2593 C 0.45725 0.31749 0.73433 0.0
C2594 C 0.47673 0.33392 0.71053 0.0
C2595 C 0.49464 0.35376 0.70111 0.0
C2596 C 0.49588 0.37613 0.70128 0.0
C2597 C 0.51297 0.39482 0.69249 0.0
C2598 C 0.52878 0.39129 0.68338 0.0
C2599 C 0.52749 0.36904 0.68302 0.0
C2600 C 0.51046 0.3503 0.69181 0.0
C2601 C 0.38119 0.24246 0.69747 0.0
C2602 C 0.38893 0.22966 0.68846 0.0
C2603 C 0.39822 0.26337 0.70482 0.0
C2604 C 0.42332 0.27171 0.7035 0.0
C2605 C 0.4311 0.25921 0.6943 0.0
C2606 C 0.41409 0.23838 0.68687 0.0
C2607 C 0.44147 0.29348 0.71169 0.0
C2608 C 0.45984 0.3124 0.70355 0.0
C2609 C 0.44028 0.29597 0.72732 0.0
C2610 C 0.42178 0.27623 0.73657 0.0
C2611 C 0.4198 0.25353 0.73637 0.0
C2612 C 0.40154 0.2347 0.74453 0.0
C2613 C 0.38524 0.23841 0.75302 0.0
C2614 C 0.38731 0.261 0.75348 0.0
C2615 C 0.40555 0.27988 0.74535 0.0
H2616 H 0.37117 0.22387 0.75936 0.0
H2617 H 0.54199 0.40578 0.67658 0.0
H2618 H 0.58875 0.10625 0.72669 0.0
H2619 H 0.62605 0.11283 0.71418 0.0
H2620 H 0.6695 0.15909 0.7502 0.0
H2621 H 0.63217 0.15212 0.76293 0.0
H2622 H 0.68614 0.17667 0.71915 0.0
H2623 H 0.66437 0.10945 0.75135 0.0
H2624 H 0.63631 0.06972 0.76177 0.0
H2625 H 0.62618 0.03802 0.71826 0.0
H2626 H 0.65389 0.07767 0.70754 0.0
H2627 H 0.7985 0.18468 0.69692 0.0
H2628 H 0.76335 0.18303 0.70902 0.0
H2629 H 0.71686 0.11326 0.68939 0.0
H2630 H 0.75283 0.11368 0.67933 0.0
H2631 H 0.70178 0.10909 0.71365 0.0
H2632 H 0.7205 0.17649 0.68044 0.0
H2633 H 0.74557 0.21677 0.66974 0.0
H2634 H 0.76029 0.24803 0.71343 0.0
H2635 H 0.73484 0.20808 0.72447 0.0
C2636 C 0.60627 0.11793 0.73189 0.0
C2637 C 0.60754 0.12865 0.7458 0.0
C2638 C 0.62754 0.12164 0.72476 0.0
C2639 C 0.65056 0.13646 0.73125 0.0
C2640 C 0.65194 0.14763 0.74497 0.0
C2641 C 0.63063 0.14355 0.75226 0.0
C2642 C 0.67307 0.13964 0.7239 0.0
C2643 C 0.68974 0.16198 0.71795 0.0
C2644 C 0.67755 0.12042 0.72219 0.0
C2645 C 0.66099 0.09656 0.72862 0.0
C2646 C 0.65597 0.09405 0.74398 0.0
C2647 C 0.64017 0.07153 0.74995 0.0
C2648 C 0.62942 0.05136 0.74067 0.0
C2649 C 0.63449 0.05366 0.72542 0.0
C2650 C 0.65026 0.07615 0.7194 0.0
C2651 C 0.78064 0.16931 0.69487 0.0
C2652 C 0.77824 0.14972 0.68659 0.0
C2653 C 0.76031 0.16838 0.70175 0.0
C2654 C 0.73679 0.14829 0.69992 0.0
C2655 C 0.73451 0.12906 0.69117 0.0
C2656 C 0.75505 0.12942 0.68511 0.0
C2657 C 0.71492 0.14612 0.70802 0.0
C2658 C 0.69832 0.1239 0.71441 0.0
C2659 C 0.71036 0.16545 0.70992 0.0
C2660 C 0.72603 0.1893 0.70328 0.0
C2661 C 0.72925 0.19193 0.68777 0.0
C2662 C 0.74354 0.21467 0.68165 0.0
C2663 C 0.7549 0.23483 0.69089 0.0
C2664 C 0.7517 0.23236 0.7063 0.0
C2665 C 0.73723 0.20972 0.7125 0.0
H2666 H 0.76599 0.25238 0.68609 0.0
H2667 H 0.61719 0.03395 0.74531 0.0
H2668 H 0.85781 0.48026 0.77221 0.0
H2669 H 0.847 0.50739 0.75961 0.0
H2670 H 0.88489 0.50523 0.72022 0.0
H2671 H 0.89492 0.47756 0.73259 0.0
H2672 H 0.87163 0.54988 0.74939 0.0
H2673 H 0.85993 0.51141 0.6891 0.0
H2674 H 0.84591 0.47241 0.67678 0.0
H2675 H 0.80257 0.43626 0.715 0.0
H2676 H 0.81604 0.47503 0.72745 0.0
H2677 H 0.88166 0.63646 0.6988 0.0
H2678 H 0.88531 0.60599 0.71263 0.0
H2679 H 0.81227 0.55315 0.69905 0.0
H2680 H 0.80908 0.58345 0.68452 0.0
H2681 H 0.83703 0.53334 0.69816 0.0
H2682 H 0.82778 0.57816 0.73812 0.0
H2683 H 0.83578 0.61366 0.75281 0.0
H2684 H 0.91077 0.63249 0.7581 0.0
H2685 H 0.903 0.59678 0.74356 0.0
C2686 C 0.86373 0.48558 0.76085 0.0
C2687 C 0.87696 0.47666 0.7533 0.0
C2688 C 0.85758 0.50106 0.75366 0.0
C2689 C 0.86475 0.50806 0.73886 0.0
C2690 C 0.87852 0.49959 0.73148 0.0
C2691 C 0.88433 0.48385 0.73856 0.0
C2692 C 0.85832 0.52456 0.73118 0.0
C2693 C 0.86393 0.54619 0.73822 0.0
C2694 C 0.84765 0.51955 0.71676 0.0
C2695 C 0.83918 0.49614 0.70926 0.0
C2696 C 0.84732 0.49515 0.69484 0.0
C2697 C 0.83948 0.47307 0.68784 0.0
C2698 C 0.82342 0.45187 0.69512 0.0
C2699 C 0.81508 0.45269 0.70939 0.0
C2700 C 0.82283 0.47471 0.71643 0.0
C2701 C 0.86641 0.61832 0.69871 0.0
C2702 C 0.84505 0.61237 0.69063 0.0
C2703 C 0.86838 0.60094 0.70681 0.0
C2704 C 0.84876 0.57735 0.70738 0.0
C2705 C 0.8276 0.57125 0.69897 0.0
C2706 C 0.82581 0.58856 0.6906 0.0
C2707 C 0.8508 0.55894 0.71623 0.0
C2708 C 0.84444 0.53695 0.7094 0.0
C2709 C 0.85993 0.56324 0.73106 0.0
C2710 C 0.86483 0.58496 0.73958 0.0
C2711 C 0.84599 0.58999 0.74227 0.0
C2712 C 0.85048 0.61013 0.75061 0.0
C2713 C 0.87384 0.62549 0.75626 0.0
C2714 C 0.89269 0.62061 0.75368 0.0
C2715 C 0.88822 0.60036 0.74545 0.0
H2716 H 0.87733 0.64111 0.76269 0.0
H2717 H 0.8174 0.4348 0.68969 0.0
H2718 H 0.4607 0.87408 0.21295 0.0
H2719 H 0.46958 0.8913 0.18792 0.0
H2720 H 0.45802 0.94834 0.20317 0.0
H2721 H 0.44823 0.9306 0.22805 0.0
H2722 H 0.44004 0.9367 0.17692 0.0
H2723 H 0.51698 0.95441 0.19821 0.0
H2724 H 0.54648 0.94525 0.21021 0.0
H2725 H 0.54136 0.90119 0.17282 0.0
H2726 H 0.51157 0.90984 0.16069 0.0
H2727 H 0.54148 0.01683 0.12055 0.0
H2728 H 0.5286 0.99402 0.14354 0.0
H2729 H 0.45817 0.94657 0.12391 0.0
H2730 H 0.47052 0.97035 0.10105 0.0
H2731 H 0.51622 0.95201 0.15188 0.0
H2732 H 0.4144 0.92498 0.15067 0.0
H2733 H 0.38783 0.93933 0.14035 0.0
H2734 H 0.44811 0.01137 0.14044 0.0
H2735 H 0.47494 0.99748 0.15092 0.0
C2736 C 0.46005 0.89029 0.21094 0.0
C2737 C 0.4539 0.90106 0.22251 0.0
C2738 C 0.46521 0.9002 0.19662 0.0
C2739 C 0.46496 0.92146 0.1936 0.0
C2740 C 0.45836 0.93196 0.20511 0.0
C2741 C 0.45279 0.92182 0.21937 0.0
C2742 C 0.47199 0.93304 0.17859 0.0
C2743 C 0.45667 0.93995 0.17145 0.0
C2744 C 0.49386 0.93769 0.1714 0.0
C2745 C 0.51186 0.93257 0.17862 0.0
C2746 C 0.52203 0.94264 0.1926 0.0
C2747 C 0.53881 0.93756 0.19941 0.0
C2748 C 0.54573 0.9226 0.1923 0.0
C2749 C 0.53594 0.91275 0.17833 0.0
C2750 C 0.51912 0.91774 0.17148 0.0
C2751 C 0.52312 0.00172 0.12112 0.0
C2752 C 0.50691 0.99582 0.10896 0.0
C2753 C 0.51585 0.98845 0.13428 0.0
C2754 C 0.49222 0.96872 0.13568 0.0
C2755 C 0.47632 0.96202 0.12331 0.0
C2756 C 0.48351 0.97551 0.11015 0.0
C2757 C 0.48434 0.95579 0.15024 0.0
C2758 C 0.49947 0.94857 0.15728 0.0
C2759 C 0.46272 0.95156 0.15756 0.0
C2760 C 0.4467 0.96014 0.15141 0.0
C2761 C 0.42194 0.94389 0.14852 0.0
C2762 C 0.40685 0.95194 0.14264 0.0
C2763 C 0.41629 0.97623 0.13969 0.0
C2764 C 0.44083 0.99254 0.14267 0.0
C2765 C 0.456 0.98459 0.14857 0.0
H2766 H 0.40458 0.98243 0.13513 0.0
H2767 H 0.55873 0.91868 0.19759 0.0
H2768 H 0.06157 0.556 0.22363 0.0
H2769 H 0.04175 0.54758 0.19928 0.0
H2770 H 0.08346 0.51494 0.18496 0.0
H2771 H 0.10442 0.52451 0.20911 0.0
H2772 H 0.08223 0.54228 0.16371 0.0
H2773 H 0.02251 0.48093 0.19443 0.0
H2774 H 0.99596 0.46393 0.21633 0.0
H2775 H 0.95949 0.503 0.20558 0.0
H2776 H 0.98605 0.52052 0.18372 0.0
H2777 H 0.0082 0.48951 0.09892 0.0
H2778 H 0.02887 0.49518 0.12291 0.0
H2779 H 0.99461 0.53402 0.13943 0.0
H2780 H 0.97416 0.52877 0.11539 0.0
H2781 H 0.99203 0.50098 0.15932 0.0
H2782 H 0.05379 0.5634 0.12894 0.0
H2783 H 0.08143 0.58059 0.1075 0.0
H2784 H 0.11405 0.53776 0.11763 0.0
H2785 H 0.0864 0.5201 0.13903 0.0
C2786 C 0.06679 0.54729 0.21527 0.0
C2787 C 0.08464 0.54096 0.21834 0.0
C2788 C 0.05517 0.54218 0.20139 0.0
C2789 C 0.0608 0.53025 0.19037 0.0
C2790 C 0.07872 0.52403 0.19334 0.0
C2791 C 0.09052 0.52932 0.20719 0.0
C2792 C 0.04827 0.52472 0.17566 0.0
C2793 C 0.0625 0.53286 0.16273 0.0
C2794 C 0.02252 0.51278 0.1744 0.0
C2795 C 0.00642 0.50219 0.1875 0.0
C2796 C 0.00894 0.48603 0.19679 0.0
C2797 C 0.99388 0.47628 0.20919 0.0
C2798 C 0.97609 0.48242 0.21236 0.0
C2799 C 0.97329 0.49828 0.20312 0.0
C2800 C 0.98833 0.5081 0.19071 0.0
C2801 C 0.00524 0.49947 0.1076 0.0
C2802 C 0.98959 0.50878 0.10521 0.0
C2803 C 0.01703 0.50264 0.12131 0.0
C2804 C 0.01344 0.51521 0.13289 0.0
C2805 C 0.99759 0.52423 0.13063 0.0
C2806 C 0.98583 0.52112 0.11691 0.0
C2807 C 0.02601 0.51881 0.14743 0.0
C2808 C 0.01176 0.51023 0.16032 0.0
C2809 C 0.05172 0.53015 0.14863 0.0
C2810 C 0.06788 0.54028 0.13551 0.0
C2811 C 0.06667 0.55745 0.1265 0.0
C2812 C 0.08239 0.56733 0.11438 0.0
C2813 C 0.09951 0.5603 0.11124 0.0
C2814 C 0.10081 0.54322 0.12011 0.0
C2815 C 0.08513 0.53328 0.13223 0.0
H2816 H 0.11189 0.5682 0.10198 0.0
H2817 H 0.96444 0.47485 0.22197 0.0
H2818 H 0.48924 0.54933 0.22651 0.0
H2819 H 0.49841 0.54252 0.20114 0.0
H2820 H 0.42502 0.52175 0.18738 0.0
H2821 H 0.41561 0.52809 0.21293 0.0
H2822 H 0.43836 0.49328 0.17469 0.0
H2823 H 0.47401 0.57777 0.17916 0.0
H2824 H 0.49891 0.61756 0.19073 0.0
H2825 H 0.56323 0.61179 0.18578 0.0
H2826 H 0.53867 0.57179 0.17438 0.0
H2827 H 0.47135 0.49706 0.09808 0.0
H2828 H 0.45724 0.50575 0.12139 0.0
H2829 H 0.52701 0.52713 0.14186 0.0
H2830 H 0.54164 0.51974 0.11848 0.0
H2831 H 0.51213 0.5569 0.14979 0.0
H2832 H 0.47436 0.47014 0.1473 0.0
H2833 H 0.44867 0.43066 0.13549 0.0
H2834 H 0.38723 0.44182 0.13603 0.0
H2835 H 0.41265 0.48151 0.14768 0.0
C2836 C 0.47508 0.54337 0.21807 0.0
C2837 C 0.45177 0.53946 0.22169 0.0
C2838 C 0.48034 0.53953 0.20355 0.0
C2839 C 0.46258 0.53211 0.19222 0.0
C2840 C 0.43907 0.52757 0.19589 0.0
C2841 C 0.43371 0.53118 0.21049 0.0
C2842 C 0.46872 0.52923 0.17659 0.0
C2843 C 0.45427 0.50735 0.16916 0.0
C2844 C 0.48954 0.5475 0.16933 0.0
C2845 C 0.50445 0.5717 0.17601 0.0
C2846 C 0.49345 0.58493 0.18062 0.0
C2847 C 0.5075 0.60752 0.18714 0.0
C2848 C 0.53263 0.61718 0.18902 0.0
C2849 C 0.54376 0.60428 0.18433 0.0
C2850 C 0.52979 0.58166 0.17782 0.0
C2851 C 0.48383 0.50394 0.10747 0.0
C2852 C 0.50761 0.50747 0.10639 0.0
C2853 C 0.47562 0.50864 0.12087 0.0
C2854 C 0.4909 0.51671 0.13351 0.0
C2855 C 0.51479 0.52079 0.13233 0.0
C2856 C 0.52306 0.51629 0.11895 0.0
C2857 C 0.4822 0.52072 0.14808 0.0
C2858 C 0.49612 0.5429 0.15529 0.0
C2859 C 0.46079 0.50281 0.15505 0.0
C2860 C 0.44545 0.47885 0.14824 0.0
C2861 C 0.4554 0.46421 0.14483 0.0
C2862 C 0.44089 0.44181 0.13817 0.0
C2863 C 0.41635 0.43377 0.13497 0.0
C2864 C 0.40625 0.44809 0.13848 0.0
C2865 C 0.42069 0.47053 0.14513 0.0
H2866 H 0.40515 0.41643 0.1298 0.0
H2867 H 0.54347 0.63467 0.19408 0.0
H2868 H 0.9433 0.44988 0.78884 0.0
H2869 H 0.96376 0.45846 0.81307 0.0
H2870 H 0.90985 0.47347 0.83142 0.0
H2871 H 0.88951 0.46529 0.80701 0.0
H2872 H 0.95394 0.50496 0.84159 0.0
H2873 H 0.90736 0.41991 0.83793 0.0
H2874 H 0.89237 0.38029 0.8263 0.0
H2875 H 0.96505 0.39107 0.82662 0.0
H2876 H 0.98054 0.43094 0.83806 0.0
H2877 H 0.98991 0.50262 0.9161 0.0
H2878 H 0.96631 0.49367 0.89318 0.0
H2879 H 0.01555 0.47514 0.87164 0.0
H2880 H 0.03799 0.48193 0.895 0.0
H2881 H 0.971 0.44455 0.86391 0.0
H2882 H 0.01721 0.5316 0.86666 0.0
H2883 H 0.0304 0.57005 0.87952 0.0
H2884 H 0.95596 0.5539 0.88219 0.0
H2885 H 0.94232 0.51528 0.86943 0.0
C2886 C 0.93578 0.45495 0.79805 0.0
C2887 C 0.91467 0.45667 0.79611 0.0
C2888 C 0.94747 0.45983 0.81189 0.0
C2889 C 0.93806 0.46613 0.82415 0.0
C2890 C 0.91737 0.46854 0.82214 0.0
C2891 C 0.90578 0.46388 0.80821 0.0
C2892 C 0.94974 0.46988 0.83905 0.0
C2893 C 0.95741 0.49163 0.84655 0.0
C2894 C 0.95442 0.45257 0.84551 0.0
C2895 C 0.94514 0.4285 0.83874 0.0
C2896 C 0.92017 0.41391 0.83543 0.0
C2897 C 0.91158 0.39139 0.82888 0.0
C2898 C 0.92775 0.38319 0.82569 0.0
C2899 C 0.95255 0.39746 0.82909 0.0
C2900 C 0.96124 0.42001 0.83561 0.0
C2901 C 0.99552 0.4962 0.90661 0.0
C2902 C 0.0159 0.49294 0.90751 0.0
C2903 C 0.9822 0.49149 0.89338 0.0
C2904 C 0.98942 0.48422 0.88055 0.0
C2905 C 0.0097 0.48089 0.88137 0.0
C2906 C 0.02273 0.48509 0.89472 0.0
C2907 C 0.97579 0.47987 0.86628 0.0
C2908 C 0.9676 0.45791 0.85893 0.0
C2909 C 0.97045 0.4969 0.86005 0.0
C2910 C 0.97875 0.52053 0.86716 0.0
C2911 C 0.00367 0.53627 0.86999 0.0
C2912 C 0.01122 0.55808 0.87727 0.0
C2913 C 0.99402 0.5644 0.88168 0.0
C2914 C 0.96925 0.549 0.87874 0.0
C2915 C 0.96161 0.52718 0.87146 0.0
H2916 H 0.99989 0.58124 0.88737 0.0
H2917 H 0.92107 0.36575 0.82062 0.0
H2918 H 0.55708 0.49296 0.786 0.0
H2919 H 0.54839 0.50111 0.81123 0.0
H2920 H 0.5411 0.43436 0.82622 0.0
H2921 H 0.54901 0.42586 0.80089 0.0
H2922 H 0.50654 0.43823 0.8375 0.0
H2923 H 0.59214 0.49069 0.83506 0.0
H2924 H 0.63112 0.52201 0.8247 0.0
H2925 H 0.60688 0.57318 0.82848 0.0
H2926 H 0.5676 0.54208 0.83868 0.0
H2927 H 0.53666 0.51053 0.91299 0.0
H2928 H 0.55001 0.49987 0.89011 0.0
H2929 H 0.47981 0.47752 0.86993 0.0
H2930 H 0.466 0.487 0.89296 0.0
H2931 H 0.55645 0.51636 0.86305 0.0
H2932 H 0.46431 0.43265 0.84568 0.0
H2933 H 0.42857 0.39928 0.85774 0.0
H2934 H 0.47184 0.4069 0.89656 0.0
H2935 H 0.5079 0.44008 0.88467 0.0
C2936 C 0.55383 0.48015 0.79473 0.0
C2937 C 0.55372 0.45879 0.7915 0.0
C2938 C 0.54894 0.48484 0.80917 0.0
C2939 C 0.54438 0.46851 0.82075 0.0
C2940 C 0.5445 0.44724 0.81752 0.0
C2941 C 0.54903 0.44239 0.80305 0.0
C2942 C 0.5386 0.47316 0.83607 0.0
C2943 C 0.51753 0.45531 0.84307 0.0
C2944 C 0.55322 0.49519 0.84362 0.0
C2945 C 0.57684 0.51399 0.83752 0.0
C2946 C 0.59505 0.50858 0.83358 0.0
C2947 C 0.61721 0.5263 0.82775 0.0
C2948 C 0.62145 0.54956 0.8259 0.0
C2949 C 0.60356 0.55515 0.82991 0.0
C2950 C 0.58135 0.53749 0.83573 0.0
C2951 C 0.52392 0.50294 0.90379 0.0
C2952 C 0.50022 0.49955 0.90488 0.0
C2953 C 0.53167 0.49708 0.89064 0.0
C2954 C 0.51586 0.48766 0.87831 0.0
C2955 C 0.49224 0.48439 0.87935 0.0
C2956 C 0.48446 0.4901 0.8925 0.0
C2957 C 0.52409 0.48166 0.86423 0.0
C2958 C 0.54558 0.49925 0.85748 0.0
C2959 C 0.51032 0.45911 0.85713 0.0
C2960 C 0.48875 0.43901 0.86432 0.0
C2961 C 0.46622 0.42714 0.85676 0.0
C2962 C 0.4459 0.40827 0.86358 0.0
C2963 C 0.44792 0.40102 0.87792 0.0
C2964 C 0.47028 0.41259 0.88547 0.0
C2965 C 0.49065 0.43145 0.87871 0.0
H2966 H 0.43216 0.38642 0.88318 0.0
H2967 H 0.63862 0.56326 0.82139 0.0
H2968 H 0.541 0.12411 0.79953 0.0
H2969 H 0.53216 0.10747 0.82477 0.0
H2970 H 0.55825 0.05944 0.81284 0.0
H2971 H 0.56699 0.07588 0.78759 0.0
H2972 H 0.51382 0.03651 0.82717 0.0
H2973 H 0.59234 0.10702 0.83466 0.0
H2974 H 0.62211 0.1502 0.83365 0.0
H2975 H 0.57612 0.16492 0.86156 0.0
H2976 H 0.54589 0.12182 0.86256 0.0
H2977 H 0.51672 0.9896 0.89678 0.0
H2978 H 0.52931 0.01107 0.87318 0.0
H2979 H 0.5101 0.06235 0.88967 0.0
H2980 H 0.49814 0.04114 0.91361 0.0
H2981 H 0.54987 0.08462 0.87316 0.0
H2982 H 0.47153 0.01545 0.86609 0.0
H2983 H 0.44048 0.97265 0.86709 0.0
H2984 H 0.48383 0.95582 0.83818 0.0
H2985 H 0.51533 0.99852 0.83717 0.0
C2986 C 0.54487 0.11001 0.80229 0.0
C2987 C 0.55474 0.10135 0.79153 0.0
C2988 C 0.53995 0.10062 0.81675 0.0
C2989 C 0.54466 0.08227 0.82076 0.0
C2990 C 0.55452 0.07362 0.81005 0.0
C2991 C 0.55966 0.08315 0.79564 0.0
C2992 C 0.53863 0.07154 0.83595 0.0
C2993 C 0.52196 0.04698 0.83721 0.0
C2994 C 0.54855 0.08532 0.84912 0.0
C2995 C 0.56673 0.11122 0.84856 0.0
C2996 C 0.58847 0.11948 0.84047 0.0
C2997 C 0.60545 0.14394 0.83992 0.0
C2998 C 0.60098 0.1603 0.8475 0.0
C2999 C 0.57954 0.15223 0.85567 0.0
C3000 C 0.56249 0.12779 0.85625 0.0
C3001 C 0.51534 0.00556 0.89542 0.0
C3002 C 0.50617 0.01353 0.90698 0.0
C3003 C 0.52245 0.01779 0.88188 0.0
C3004 C 0.52007 0.03802 0.87942 0.0
C3005 C 0.51197 0.0467 0.89121 0.0
C3006 C 0.50515 0.0346 0.90489 0.0
C3007 C 0.52529 0.04946 0.86438 0.0
C3008 C 0.5417 0.07413 0.86314 0.0
C3009 C 0.51488 0.03585 0.85119 0.0
C3010 C 0.49589 0.01017 0.85166 0.0
C3011 C 0.47452 0.00261 0.86002 0.0
C3012 C 0.45683 0.97837 0.86058 0.0
C3013 C 0.46021 0.96152 0.85273 0.0
C3014 C 0.48125 0.96889 0.84427 0.0
C3015 C 0.49902 0.99311 0.84369 0.0
H3016 H 0.44649 0.94276 0.85318 0.0
H3017 H 0.61414 0.17923 0.84706 0.0
H3018 H 0.16234 0.26159 0.56028 0.0
H3019 H 0.17143 0.27902 0.53539 0.0
H3020 H 0.09547 0.2366 0.52318 0.0
H3021 H 0.0863 0.21851 0.54804 0.0
H3022 H 0.12482 0.23767 0.50052 0.0
H3023 H 0.11933 0.29503 0.53158 0.0
H3024 H 0.12818 0.32137 0.55347 0.0
H3025 H 0.20399 0.3601 0.54176 0.0
H3026 H 0.19566 0.33375 0.5199 0.0
H3027 H 0.13908 0.30915 0.43538 0.0
H3028 H 0.12573 0.28687 0.45882 0.0
H3029 H 0.19925 0.32669 0.47601 0.0
H3030 H 0.21265 0.34882 0.4527 0.0
H3031 H 0.16785 0.32602 0.49589 0.0
H3032 H 0.17316 0.26734 0.46513 0.0
H3033 H 0.16374 0.24136 0.44297 0.0
H3034 H 0.08757 0.20551 0.4538 0.0
H3035 H 0.0965 0.23147 0.47594 0.0
C3036 C 0.14756 0.25572 0.55228 0.0
C3037 C 0.12355 0.23862 0.55624 0.0
C3038 C 0.15276 0.26588 0.53805 0.0
C3039 C 0.13411 0.25936 0.5274 0.0
C3040 C 0.11018 0.24199 0.53119 0.0
C3041 C 0.10493 0.23183 0.54547 0.0
C3042 C 0.13968 0.27111 0.51248 0.0
C3043 C 0.13392 0.25698 0.4995 0.0
C3044 C 0.15181 0.29633 0.51107 0.0
C3045 C 0.15689 0.31227 0.52418 0.0
C3046 C 0.13792 0.30904 0.53374 0.0
C3047 C 0.14284 0.324 0.54613 0.0
C3048 C 0.16664 0.34236 0.54903 0.0
C3049 C 0.18557 0.34585 0.53951 0.0
C3050 C 0.18075 0.33092 0.52711 0.0
C3051 C 0.15246 0.31288 0.44406 0.0
C3052 C 0.17693 0.33092 0.44216 0.0
C3053 C 0.1448 0.30015 0.45749 0.0
C3054 C 0.16147 0.30505 0.46925 0.0
C3055 C 0.18597 0.32267 0.4672 0.0
C3056 C 0.1936 0.33537 0.45384 0.0
C3057 C 0.15349 0.29265 0.48392 0.0
C3058 C 0.15871 0.3067 0.49688 0.0
C3059 C 0.14082 0.2674 0.48526 0.0
C3060 C 0.13547 0.25153 0.4721 0.0
C3061 C 0.15438 0.25402 0.46273 0.0
C3062 C 0.14914 0.23928 0.45019 0.0
C3063 C 0.12506 0.22187 0.44695 0.0
C3064 C 0.1062 0.21904 0.45631 0.0
C3065 C 0.11135 0.23374 0.46886 0.0
H3066 H 0.12102 0.21056 0.43719 0.0
H3067 H 0.17041 0.35393 0.55863 0.0
H3068 H 0.73599 0.84775 0.5575 0.0
H3069 H 0.71751 0.83946 0.53262 0.0
H3070 H 0.7772 0.90631 0.51692 0.0
H3071 H 0.79505 0.91507 0.54203 0.0
H3072 H 0.73848 0.90205 0.50607 0.0
H3073 H 0.77064 0.84963 0.50802 0.0
H3074 H 0.7784 0.81857 0.51817 0.0
H3075 H 0.70184 0.76724 0.51581 0.0
H3076 H 0.69358 0.79808 0.50583 0.0
H3077 H 0.692 0.82732 0.43167 0.0
H3078 H 0.71658 0.83847 0.45443 0.0
H3079 H 0.67049 0.86266 0.47407 0.0
H3080 H 0.64668 0.85285 0.45104 0.0
H3081 H 0.70715 0.82318 0.48125 0.0
H3082 H 0.70158 0.90768 0.49807 0.0
H3083 H 0.70008 0.94112 0.48587 0.0
H3084 H 0.73452 0.93253 0.44704 0.0
H3085 H 0.73643 0.89918 0.45905 0.0
C3086 C 0.74519 0.86055 0.54868 0.0
C3087 C 0.76694 0.88199 0.55161 0.0
C3088 C 0.73471 0.85578 0.53445 0.0
C3089 C 0.74613 0.87206 0.52277 0.0
C3090 C 0.76799 0.89345 0.52571 0.0
C3091 C 0.77822 0.89844 0.54002 0.0
C3092 C 0.73488 0.8671 0.50763 0.0
C3093 C 0.73172 0.88482 0.50064 0.0
C3094 C 0.72662 0.84487 0.50028 0.0
C3095 C 0.73148 0.82624 0.50629 0.0
C3096 C 0.75544 0.83177 0.50977 0.0
C3097 C 0.75993 0.81419 0.51547 0.0
C3098 C 0.74062 0.79096 0.51766 0.0
C3099 C 0.71678 0.78525 0.51412 0.0
C3100 C 0.71218 0.80276 0.50842 0.0
C3101 C 0.68731 0.83539 0.44073 0.0
C3102 C 0.66742 0.83933 0.43945 0.0
C3103 C 0.70127 0.84154 0.45381 0.0
C3104 C 0.69561 0.85167 0.46592 0.0
C3105 C 0.67553 0.85528 0.46478 0.0
C3106 C 0.6617 0.84934 0.45166 0.0
C3107 C 0.7103 0.85794 0.47988 0.0
C3108 C 0.71406 0.84045 0.48666 0.0
C3109 C 0.72 0.88071 0.48673 0.0
C3110 C 0.71892 0.90077 0.47942 0.0
C3111 C 0.70889 0.91296 0.48694 0.0
C3112 C 0.70795 0.93189 0.48006 0.0
C3113 C 0.71712 0.93888 0.46567 0.0
C3114 C 0.72732 0.92701 0.45815 0.0
C3115 C 0.72828 0.90806 0.46498 0.0
H3116 H 0.71633 0.95352 0.46036 0.0
H3117 H 0.74414 0.77737 0.52207 0.0
H3118 H 0.15615 0.88307 0.55918 0.0
H3119 H 0.16654 0.87549 0.53435 0.0
H3120 H 0.09162 0.84598 0.52033 0.0
H3121 H 0.08106 0.85356 0.54527 0.0
H3122 H 0.11044 0.81946 0.50983 0.0
H3123 H 0.13453 0.90237 0.51025 0.0
H3124 H 0.15504 0.94367 0.52004 0.0
H3125 H 0.22464 0.94782 0.51592 0.0
H3126 H 0.20451 0.9064 0.50629 0.0
H3127 H 0.13994 0.8209 0.43285 0.0
H3128 H 0.12538 0.82885 0.45625 0.0
H3129 H 0.19784 0.85973 0.47495 0.0
H3130 H 0.21267 0.85258 0.45149 0.0
H3131 H 0.17759 0.88614 0.48212 0.0
H3132 H 0.15296 0.80228 0.48321 0.0
H3133 H 0.13228 0.76083 0.47365 0.0
H3134 H 0.06337 0.75867 0.47485 0.0
H3135 H 0.08371 0.80025 0.48424 0.0
C3136 C 0.14188 0.87508 0.55081 0.0
C3137 C 0.11781 0.86918 0.55418 0.0
C3138 C 0.14785 0.87073 0.5366 0.0
C3139 C 0.12997 0.86058 0.52535 0.0
C3140 C 0.10576 0.85394 0.5288 0.0
C3141 C 0.09973 0.85822 0.54306 0.0
C3142 C 0.13673 0.85713 0.51002 0.0
C3143 C 0.12484 0.83412 0.50367 0.0
C3144 C 0.15577 0.87618 0.50203 0.0
C3145 C 0.16798 0.9012 0.50766 0.0
C3146 C 0.1542 0.91203 0.51152 0.0
C3147 C 0.16576 0.93547 0.51703 0.0
C3148 C 0.19112 0.94834 0.51863 0.0
C3149 C 0.20499 0.93782 0.51468 0.0
C3150 C 0.19351 0.91437 0.50918 0.0
C3151 C 0.15285 0.82964 0.44187 0.0
C3152 C 0.17747 0.83592 0.4403 0.0
C3153 C 0.14444 0.83398 0.45531 0.0
C3154 C 0.16043 0.84459 0.46746 0.0
C3155 C 0.18511 0.85142 0.46577 0.0
C3156 C 0.19352 0.8471 0.45238 0.0
C3157 C 0.15158 0.84839 0.48203 0.0
C3158 C 0.16306 0.87151 0.48823 0.0
C3159 C 0.13214 0.82946 0.48985 0.0
C3160 C 0.11989 0.80445 0.48427 0.0
C3161 C 0.13342 0.79303 0.48133 0.0
C3162 C 0.12176 0.7695 0.47596 0.0
C3163 C 0.09654 0.75715 0.4736 0.0
C3164 C 0.08291 0.76828 0.47665 0.0
C3165 C 0.0945 0.79181 0.48201 0.0
H3166 H 0.08754 0.73894 0.46945 0.0
H3167 H 0.20004 0.96648 0.52291 0.0
H3168 H 0.60008 0.82689 0.12253 0.0
H3169 H 0.61953 0.83751 0.14709 0.0
H3170 H 0.56919 0.76664 0.16295 0.0
H3171 H 0.54927 0.75597 0.13837 0.0
H3172 H 0.57721 0.8031 0.18342 0.0
H3173 H 0.62402 0.77861 0.15355 0.0
H3174 H 0.64726 0.77906 0.13143 0.0
H3175 H 0.69901 0.85327 0.13921 0.0
H3176 H 0.67586 0.85336 0.16126 0.0
H3177 H 0.64464 0.80323 0.24704 0.0
H3178 H 0.62099 0.79519 0.22405 0.0
H3179 H 0.67631 0.86261 0.20616 0.0
H3180 H 0.70017 0.87069 0.22915 0.0
H3181 H 0.66505 0.82802 0.18677 0.0
H3182 H 0.61798 0.85423 0.21508 0.0
H3183 H 0.59439 0.85556 0.23653 0.0
H3184 H 0.54466 0.78015 0.23206 0.0
H3185 H 0.56757 0.77849 0.21029 0.0
C3186 C 0.59292 0.81366 0.1313 0.0
C3187 C 0.57317 0.79058 0.12853 0.0
C3188 C 0.60415 0.8197 0.14528 0.0
C3189 C 0.59591 0.80278 0.15676 0.0
C3190 C 0.57581 0.77992 0.1542 0.0
C3191 C 0.5646 0.7738 0.14015 0.0
C3192 C 0.60894 0.80879 0.17126 0.0
C3193 C 0.59633 0.80828 0.18421 0.0
C3194 C 0.63403 0.81609 0.17219 0.0
C3195 C 0.64806 0.81604 0.15897 0.0
C3196 C 0.64024 0.79507 0.15048 0.0
C3197 C 0.65342 0.79522 0.13796 0.0
C3198 C 0.67456 0.8162 0.13389 0.0
C3199 C 0.68261 0.83705 0.14236 0.0
C3200 C 0.66948 0.837 0.15487 0.0
C3201 C 0.65158 0.81653 0.2383 0.0
C3202 C 0.67433 0.83754 0.23986 0.0
C3203 C 0.638 0.81194 0.22518 0.0
C3204 C 0.64676 0.82839 0.21342 0.0
C3205 C 0.66922 0.84964 0.21508 0.0
C3206 C 0.68288 0.85418 0.22818 0.0
C3207 C 0.63343 0.82259 0.199 0.0
C3208 C 0.64595 0.82299 0.18603 0.0
C3209 C 0.60835 0.81537 0.19806 0.0
C3210 C 0.59459 0.8162 0.21116 0.0
C3211 C 0.60207 0.83792 0.21872 0.0
C3212 C 0.58879 0.83875 0.2309 0.0
C3213 C 0.56822 0.81792 0.23577 0.0
C3214 C 0.56066 0.79626 0.22832 0.0
C3215 C 0.57366 0.79539 0.21598 0.0
H3216 H 0.55808 0.8186 0.24528 0.0
H3217 H 0.68474 0.81627 0.1242 0.0
H3218 H 0.25739 0.81293 0.132 0.0
H3219 H 0.24745 0.82069 0.15707 0.0
H3220 H 0.17163 0.78815 0.1444 0.0
H3221 H 0.18147 0.7808 0.11932 0.0
H3222 H 0.18644 0.82943 0.15946 0.0
H3223 H 0.19235 0.75833 0.16576 0.0
H3224 H 0.21261 0.73419 0.16447 0.0
H3225 H 0.26974 0.78421 0.1934 0.0
H3226 H 0.24997 0.80883 0.1947 0.0
H3227 H 0.12675 0.80852 0.22815 0.0
H3228 H 0.14167 0.8029 0.20431 0.0
H3229 H 0.21484 0.83634 0.22215 0.0
H3230 H 0.2 0.84218 0.24615 0.0
H3231 H 0.20485 0.79754 0.20491 0.0
H3232 H 0.19828 0.86766 0.19969 0.0
H3233 H 0.17829 0.89202 0.20113 0.0
H3234 H 0.12323 0.84469 0.17014 0.0
H3235 H 0.14269 0.81982 0.16867 0.0
C3236 C 0.23863 0.80758 0.13454 0.0
C3237 C 0.22021 0.79612 0.12367 0.0
C3238 C 0.23294 0.81184 0.14891 0.0
C3239 C 0.20873 0.80479 0.15269 0.0
C3240 C 0.19041 0.79369 0.14178 0.0
C3241 C 0.19605 0.78933 0.12747 0.0
C3242 C 0.20233 0.80908 0.16793 0.0
C3243 C 0.19026 0.82224 0.16938 0.0
C3244 C 0.20796 0.80036 0.18095 0.0
C3245 C 0.21983 0.78556 0.18019 0.0
C3246 C 0.20934 0.76429 0.17174 0.0
C3247 C 0.22071 0.7505 0.17103 0.0
C3248 C 0.24248 0.7577 0.17881 0.0
C3249 C 0.2529 0.77867 0.18736 0.0
C3250 C 0.24161 0.79255 0.1881 0.0
C3251 C 0.14605 0.81482 0.22702 0.0
C3252 C 0.16221 0.82614 0.23904 0.0
C3253 C 0.15456 0.81153 0.21336 0.0
C3254 C 0.17947 0.8196 0.21131 0.0
C3255 C 0.19556 0.83006 0.22344 0.0
C3256 C 0.18703 0.83334 0.23716 0.0
C3257 C 0.18856 0.81751 0.19639 0.0
C3258 C 0.20118 0.80485 0.195 0.0
C3259 C 0.18354 0.82678 0.1834 0.0
C3260 C 0.17184 0.84176 0.18417 0.0
C3261 C 0.18181 0.86234 0.19326 0.0
C3262 C 0.17059 0.87626 0.19407 0.0
C3263 C 0.14947 0.86988 0.18576 0.0
C3264 C 0.13957 0.8496 0.17658 0.0
C3265 C 0.15071 0.8356 0.17575 0.0
H3266 H 0.14081 0.88068 0.1864 0.0
H3267 H 0.25125 0.74699 0.17825 0.0
H3268 H 0.18161 0.40954 0.12103 0.0
H3269 H 0.17179 0.39398 0.14636 0.0
H3270 H 0.24649 0.44064 0.15983 0.0
H3271 H 0.25646 0.45661 0.13448 0.0
H3272 H 0.22886 0.39613 0.17136 0.0
H3273 H 0.20279 0.45391 0.16932 0.0
H3274 H 0.1812 0.47361 0.15899 0.0
H3275 H 0.11258 0.4089 0.16437 0.0
H3276 H 0.13379 0.38868 0.17453 0.0
H3277 H 0.2001 0.36863 0.24809 0.0
H3278 H 0.21429 0.39165 0.22503 0.0
H3279 H 0.14143 0.35237 0.20676 0.0
H3280 H 0.12697 0.33017 0.22998 0.0
H3281 H 0.16126 0.39704 0.19865 0.0
H3282 H 0.18758 0.3384 0.19857 0.0
H3283 H 0.20898 0.31847 0.20888 0.0
H3284 H 0.27697 0.38475 0.20751 0.0
H3285 H 0.25591 0.40514 0.19734 0.0
C3286 C 0.19596 0.41672 0.12938 0.0
C3287 C 0.21982 0.43456 0.12566 0.0
C3288 C 0.1903 0.40773 0.1439 0.0
C3289 C 0.20829 0.41636 0.15512 0.0
C3290 C 0.23226 0.43371 0.1514 0.0
C3291 C 0.23795 0.44277 0.13685 0.0
C3292 C 0.20194 0.40721 0.1707 0.0
C3293 C 0.21435 0.39669 0.17742 0.0
C3294 C 0.18276 0.40758 0.17859 0.0
C3295 C 0.16991 0.41972 0.17257 0.0
C3296 C 0.18311 0.44382 0.1682 0.0
C3297 C 0.17094 0.45509 0.16239 0.0
C3298 C 0.14554 0.4425 0.16099 0.0
C3299 C 0.13225 0.41862 0.16544 0.0
C3300 C 0.14434 0.40725 0.17124 0.0
C3301 C 0.187 0.36519 0.23928 0.0
C3302 C 0.16243 0.34723 0.24087 0.0
C3303 C 0.19521 0.3782 0.226 0.0
C3304 C 0.17908 0.37342 0.21394 0.0
C3305 C 0.15435 0.35631 0.21579 0.0
C3306 C 0.14613 0.34343 0.22906 0.0
C3307 C 0.18785 0.38552 0.19922 0.0
C3308 C 0.17591 0.39663 0.19265 0.0
C3309 C 0.20741 0.38564 0.19146 0.0
C3310 C 0.22014 0.37333 0.19734 0.0
C3311 C 0.20707 0.34874 0.20054 0.0
C3312 C 0.21914 0.33736 0.20635 0.0
C3313 C 0.24431 0.35035 0.20889 0.0
C3314 C 0.25748 0.37472 0.20556 0.0
C3315 C 0.24549 0.38619 0.19976 0.0
H3316 H 0.25361 0.34151 0.2134 0.0
H3317 H 0.13614 0.45126 0.15649 0.0
H3318 H 0.82683 0.5921 0.89309 0.0
H3319 H 0.83627 0.60909 0.86818 0.0
H3320 H 0.76081 0.56529 0.85525 0.0
H3321 H 0.75133 0.54722 0.88012 0.0
H3322 H 0.79006 0.56704 0.83286 0.0
H3323 H 0.78505 0.62508 0.86363 0.0
H3324 H 0.79398 0.65159 0.88546 0.0
H3325 H 0.86998 0.68931 0.87414 0.0
H3326 H 0.86156 0.66281 0.85236 0.0
H3327 H 0.80651 0.63956 0.76778 0.0
H3328 H 0.79243 0.61741 0.79121 0.0
H3329 H 0.86606 0.65451 0.80835 0.0
H3330 H 0.8803 0.6763 0.78501 0.0
H3331 H 0.83433 0.65542 0.82819 0.0
H3332 H 0.83934 0.59642 0.7978 0.0
H3333 H 0.83013 0.57097 0.77542 0.0
H3334 H 0.75369 0.53595 0.78546 0.0
H3335 H 0.76243 0.5614 0.80784 0.0
C3336 C 0.8122 0.58573 0.88495 0.0
C3337 C 0.78826 0.56815 0.88874 0.0
C3338 C 0.81762 0.59572 0.87068 0.0
C3339 C 0.79923 0.5888 0.8598 0.0
C3340 C 0.77534 0.57105 0.86343 0.0
C3341 C 0.7699 0.5609 0.87773 0.0
C3342 C 0.80508 0.60051 0.84483 0.0
C3343 C 0.79941 0.58635 0.83184 0.0
C3344 C 0.81757 0.62576 0.84338 0.0
C3345 C 0.82269 0.64183 0.85643 0.0
C3346 C 0.80369 0.63892 0.86585 0.0
C3347 C 0.80866 0.65396 0.87821 0.0
C3348 C 0.83254 0.67209 0.8812 0.0
C3349 C 0.85149 0.67525 0.87182 0.0
C3350 C 0.84663 0.66024 0.85946 0.0
C3351 C 0.81978 0.64276 0.77644 0.0
C3352 C 0.84454 0.66002 0.7745 0.0
C3353 C 0.81167 0.63011 0.78987 0.0
C3354 C 0.82816 0.63434 0.80162 0.0
C3355 C 0.85292 0.65109 0.79956 0.0
C3356 C 0.86102 0.66365 0.78617 0.0
C3357 C 0.81974 0.62201 0.81628 0.0
C3358 C 0.82489 0.63609 0.82921 0.0
C3359 C 0.80675 0.59677 0.81762 0.0
C3360 C 0.80152 0.58096 0.80442 0.0
C3361 C 0.82055 0.58337 0.7952 0.0
C3362 C 0.81542 0.56895 0.78251 0.0
C3363 C 0.79133 0.55193 0.77898 0.0
C3364 C 0.77234 0.54918 0.78819 0.0
C3365 C 0.77737 0.56357 0.8009 0.0
H3366 H 0.78739 0.54083 0.76913 0.0
H3367 H 0.83635 0.68371 0.89077 0.0
H3368 H 0.39792 0.22692 0.88927 0.0
H3369 H 0.37971 0.21913 0.8644 0.0
H3370 H 0.42658 0.19215 0.85026 0.0
H3371 H 0.44554 0.2007 0.87507 0.0
H3372 H 0.42422 0.22095 0.82939 0.0
H3373 H 0.36716 0.15392 0.85777 0.0
H3374 H 0.34008 0.13295 0.87889 0.0
H3375 H 0.29737 0.16608 0.869 0.0
H3376 H 0.32442 0.18754 0.84795 0.0
H3377 H 0.35416 0.16325 0.76371 0.0
H3378 H 0.37616 0.17304 0.78746 0.0
H3379 H 0.33377 0.20399 0.8034 0.0
H3380 H 0.31203 0.19478 0.77955 0.0
H3381 H 0.33443 0.17186 0.82304 0.0
H3382 H 0.3951 0.2426 0.79678 0.0
H3383 H 0.42328 0.26442 0.77622 0.0
H3384 H 0.45784 0.22213 0.78157 0.0
H3385 H 0.43035 0.20059 0.80249 0.0
C3386 C 0.40455 0.21956 0.88085 0.0
C3387 C 0.42322 0.21446 0.88415 0.0
C3388 C 0.39394 0.21488 0.86667 0.0
C3389 C 0.40158 0.20479 0.85552 0.0
C3390 C 0.42035 0.19987 0.85872 0.0
C3391 C 0.43102 0.20457 0.87292 0.0
C3392 C 0.38993 0.19951 0.84055 0.0
C3393 C 0.40462 0.20991 0.82799 0.0
C3394 C 0.36432 0.18542 0.83871 0.0
C3395 C 0.34797 0.17251 0.85136 0.0
C3396 C 0.35212 0.15689 0.86017 0.0
C3397 C 0.33675 0.14488 0.87212 0.0
C3398 C 0.31705 0.14822 0.87531 0.0
C3399 C 0.31265 0.16353 0.86653 0.0
C3400 C 0.32798 0.17561 0.85458 0.0
C3401 C 0.34978 0.17251 0.77215 0.0
C3402 C 0.3312 0.1781 0.76972 0.0
C3403 C 0.36239 0.17809 0.78573 0.0
C3404 C 0.35667 0.18934 0.79716 0.0
C3405 C 0.33841 0.19524 0.79472 0.0
C3406 C 0.32588 0.1898 0.78112 0.0
C3407 C 0.36868 0.19362 0.81197 0.0
C3408 C 0.35403 0.18288 0.82447 0.0
C3409 C 0.39429 0.20725 0.81374 0.0
C3410 C 0.41058 0.21988 0.80108 0.0
C3411 C 0.40865 0.23791 0.79352 0.0
C3412 C 0.42455 0.25028 0.78185 0.0
C3413 C 0.44215 0.24449 0.77748 0.0
C3414 C 0.44414 0.22655 0.78493 0.0
C3415 C 0.42855 0.21438 0.79677 0.0
H3416 H 0.4543 0.25398 0.76837 0.0
H3417 H 0.30517 0.1389 0.88456 0.0
H3418 H 0.7694 0.17412 0.88976 0.0
H3419 H 0.77875 0.16602 0.86472 0.0
H3420 H 0.80379 0.23916 0.85234 0.0
H3421 H 0.79396 0.24727 0.87732 0.0
H3422 H 0.77695 0.20725 0.82975 0.0
H3423 H 0.8445 0.22332 0.86177 0.0
H3424 H 0.86428 0.21816 0.88407 0.0
H3425 H 0.83771 0.14472 0.87209 0.0
H3426 H 0.81746 0.14935 0.84982 0.0
H3427 H 0.84464 0.20752 0.76565 0.0
H3428 H 0.83023 0.21606 0.78893 0.0
H3429 H 0.81269 0.14669 0.80571 0.0
H3430 H 0.82762 0.13841 0.78265 0.0
H3431 H 0.83606 0.17826 0.82602 0.0
H3432 H 0.7681 0.16173 0.79402 0.0
H3433 H 0.74741 0.16645 0.77202 0.0
H3434 H 0.77417 0.24002 0.7837 0.0
H3435 H 0.79523 0.23582 0.8057 0.0
C3436 C 0.7765 0.18839 0.88165 0.0
C3437 C 0.78105 0.21139 0.88558 0.0
C3438 C 0.78201 0.18378 0.86736 0.0
C3439 C 0.79226 0.20206 0.8567 0.0
C3440 C 0.79598 0.2248 0.8604 0.0
C3441 C 0.79054 0.22946 0.87471 0.0
C3442 C 0.80012 0.19769 0.84198 0.0
C3443 C 0.79007 0.20116 0.82889 0.0
C3444 C 0.81697 0.1894 0.84087 0.0
C3445 C 0.82927 0.18662 0.8542 0.0
C3446 C 0.84272 0.20602 0.86395 0.0
C3447 C 0.85404 0.2032 0.87658 0.0
C3448 C 0.8522 0.18111 0.87951 0.0
C3449 C 0.83909 0.16181 0.86981 0.0
C3450 C 0.82771 0.16453 0.85718 0.0
C3451 C 0.83743 0.19401 0.77425 0.0
C3452 C 0.83737 0.17234 0.77236 0.0
C3453 C 0.82912 0.19887 0.78755 0.0
C3454 C 0.82016 0.18196 0.79911 0.0
C3455 C 0.81961 0.1601 0.79704 0.0
C3456 C 0.82817 0.15538 0.78386 0.0
C3457 C 0.81255 0.18734 0.81366 0.0
C3458 C 0.82283 0.18423 0.82679 0.0
C3459 C 0.79587 0.19588 0.81475 0.0
C3460 C 0.78339 0.1985 0.80145 0.0
C3461 C 0.76972 0.17896 0.79184 0.0
C3462 C 0.75788 0.18153 0.77939 0.0
C3463 C 0.75943 0.2035 0.77649 0.0
C3464 C 0.77293 0.22299 0.78599 0.0
C3465 C 0.78479 0.22052 0.79846 0.0
H3466 H 0.75018 0.20543 0.76687 0.0
H3467 H 0.86098 0.17897 0.88929 0.0
H3468 H 0.23097 0.13978 0.46721 0.0
H3469 H 0.25139 0.14922 0.49152 0.0
H3470 H 0.29162 0.11453 0.47835 0.0
H3471 H 0.27184 0.10557 0.45387 0.0
H3472 H 0.27104 0.10116 0.50664 0.0
H3473 H 0.31946 0.17351 0.47864 0.0
H3474 H 0.32604 0.20785 0.4633 0.0
H3475 H 0.29749 0.23219 0.49832 0.0
H3476 H 0.29042 0.19778 0.51379 0.0
H3477 H 0.36435 0.14275 0.56088 0.0
H3478 H 0.34159 0.13443 0.53745 0.0
H3479 H 0.30751 0.17385 0.55324 0.0
H3480 H 0.33066 0.18269 0.57662 0.0
H3481 H 0.32259 0.18479 0.52445 0.0
H3482 H 0.27554 0.11458 0.55298 0.0
H3483 H 0.2678 0.08033 0.56878 0.0
H3484 H 0.2916 0.0517 0.53357 0.0
H3485 H 0.29984 0.08599 0.51761 0.0
C3486 C 0.24438 0.13441 0.4694 0.0
C3487 C 0.24976 0.12192 0.45856 0.0
C3488 C 0.25594 0.13972 0.48333 0.0
C3489 C 0.27306 0.13264 0.4867 0.0
C3490 C 0.27836 0.12004 0.47598 0.0
C3491 C 0.26695 0.11486 0.46202 0.0
C3492 C 0.28552 0.13835 0.50139 0.0
C3493 C 0.28254 0.11943 0.51048 0.0
C3494 C 0.29983 0.16219 0.50657 0.0
C3495 C 0.30417 0.18293 0.4973 0.0
C3496 C 0.31439 0.18607 0.48302 0.0
C3497 C 0.31825 0.20557 0.47431 0.0
C3498 C 0.31212 0.22216 0.47981 0.0
C3499 C 0.30219 0.21931 0.49406 0.0
C3500 C 0.29827 0.19982 0.5028 0.0
C3501 C 0.35219 0.14985 0.5593 0.0
C3502 C 0.34926 0.16334 0.57059 0.0
C3503 C 0.33904 0.14489 0.54598 0.0
C3504 C 0.32265 0.15328 0.54369 0.0
C3505 C 0.31998 0.16712 0.55482 0.0
C3506 C 0.33308 0.17201 0.56819 0.0
C3507 C 0.30843 0.1476 0.52962 0.0
C3508 C 0.31101 0.1665 0.52066 0.0
C3509 C 0.29354 0.12373 0.52462 0.0
C3510 C 0.28854 0.103 0.53415 0.0
C3511 C 0.27932 0.10109 0.54864 0.0
C3512 C 0.27481 0.08165 0.55762 0.0
C3513 C 0.27928 0.0639 0.5522 0.0
C3514 C 0.28819 0.0655 0.53776 0.0
C3515 C 0.29276 0.08492 0.52874 0.0
H3516 H 0.27582 0.0489 0.55918 0.0
H3517 H 0.31513 0.23724 0.47306 0.0
H3518 H 0.9229 0.1443 0.46548 0.0
H3519 H 0.91364 0.15304 0.49046 0.0
H3520 H 0.83894 0.12679 0.47704 0.0
H3521 H 0.84818 0.11864 0.45204 0.0
H3522 H 0.85652 0.16802 0.49212 0.0
H3523 H 0.85509 0.09329 0.49864 0.0
H3524 H 0.87178 0.06602 0.49765 0.0
H3525 H 0.93022 0.1126 0.52707 0.0
H3526 H 0.91405 0.14033 0.52807 0.0
H3527 H 0.79622 0.15022 0.56047 0.0
H3528 H 0.81039 0.14319 0.53674 0.0
H3529 H 0.88333 0.1738 0.55463 0.0
H3530 H 0.86934 0.18124 0.57845 0.0
H3531 H 0.87009 0.133 0.53782 0.0
H3532 H 0.87025 0.20673 0.53224 0.0
H3533 H 0.8531 0.23359 0.53346 0.0
H3534 H 0.79692 0.18876 0.50225 0.0
H3535 H 0.81353 0.16142 0.50102 0.0
C3536 C 0.90455 0.14054 0.46783 0.0
C3537 C 0.88625 0.13065 0.45678 0.0
C3538 C 0.89923 0.14535 0.48215 0.0
C3539 C 0.87552 0.14034 0.48568 0.0
C3540 C 0.85734 0.13073 0.47461 0.0
C3541 C 0.86261 0.12589 0.46034 0.0
C3542 C 0.86953 0.14534 0.50081 0.0
C3543 C 0.85927 0.16016 0.50208 0.0
C3544 C 0.87376 0.13565 0.51389 0.0
C3545 C 0.88352 0.11902 0.51328 0.0
C3546 C 0.87163 0.09783 0.50479 0.0
C3547 C 0.88097 0.08226 0.50425 0.0
C3548 C 0.90209 0.08761 0.51225 0.0
C3549 C 0.91389 0.1085 0.52085 0.0
C3550 C 0.90464 0.12414 0.52141 0.0
C3551 C 0.81532 0.15561 0.55937 0.0
C3552 C 0.83169 0.16658 0.57133 0.0
C3553 C 0.82338 0.15149 0.5458 0.0
C3554 C 0.848 0.1583 0.54383 0.0
C3555 C 0.86426 0.16846 0.55589 0.0
C3556 C 0.85621 0.17263 0.56951 0.0
C3557 C 0.85669 0.15531 0.52904 0.0
C3558 C 0.8675 0.14097 0.52785 0.0
C3559 C 0.85298 0.16542 0.516 0.0
C3560 C 0.84303 0.18191 0.51664 0.0
C3561 C 0.85413 0.2025 0.52572 0.0
C3562 C 0.84452 0.21783 0.52641 0.0
C3563 C 0.8239 0.21286 0.51797 0.0
C3564 C 0.81288 0.19258 0.5088 0.0
C3565 C 0.8224 0.17717 0.50809 0.0
H3566 H 0.81648 0.22475 0.51851 0.0
H3567 H 0.90929 0.07553 0.51183 0.0
H3568 H 0.89503 0.73646 0.45453 0.0
H3569 H 0.88449 0.71922 0.47954 0.0
H3570 H 0.86536 0.77228 0.4922 0.0
H3571 H 0.87544 0.78925 0.46716 0.0
H3572 H 0.89996 0.73355 0.50672 0.0
H3573 H 0.81882 0.74937 0.51677 0.0
H3574 H 0.78802 0.75355 0.50218 0.0
H3575 H 0.79341 0.71159 0.46672 0.0
H3576 H 0.82395 0.70688 0.48118 0.0
H3577 H 0.86314 0.69989 0.58181 0.0
H3578 H 0.87587 0.72293 0.55875 0.0
H3579 H 0.80938 0.67022 0.53718 0.0
H3580 H 0.79568 0.64829 0.56038 0.0
H3581 H 0.81842 0.71 0.52732 0.0
H3582 H 0.86855 0.67364 0.53354 0.0
H3583 H 0.89771 0.66517 0.54667 0.0
H3584 H 0.951 0.74005 0.54706 0.0
H3585 H 0.92205 0.74898 0.53406 0.0
C3586 C 0.88876 0.74457 0.46268 0.0
C3587 C 0.88589 0.76412 0.45877 0.0
C3588 C 0.88272 0.73469 0.477 0.0
C3589 C 0.87373 0.74415 0.48779 0.0
C3590 C 0.87169 0.76423 0.48405 0.0
C3591 C 0.87748 0.77395 0.4697 0.0
C3592 C 0.86594 0.73267 0.50276 0.0
C3593 C 0.88214 0.72846 0.51122 0.0
C3594 C 0.84258 0.72568 0.50868 0.0
C3595 C 0.82387 0.72802 0.5 0.0
C3596 C 0.81335 0.74096 0.50589 0.0
C3597 C 0.79595 0.74343 0.49764 0.0
C3598 C 0.78883 0.73292 0.48351 0.0
C3599 C 0.799 0.7198 0.47764 0.0
C3600 C 0.81637 0.71724 0.48585 0.0
C3601 C 0.85096 0.69339 0.57227 0.0
C3602 C 0.82847 0.67184 0.57305 0.0
C3603 C 0.85848 0.70647 0.55895 0.0
C3604 C 0.84395 0.69811 0.54597 0.0
C3605 C 0.82114 0.67711 0.5469 0.0
C3606 C 0.81345 0.66431 0.56023 0.0
C3607 C 0.85239 0.7107 0.53131 0.0
C3608 C 0.83632 0.71521 0.52289 0.0
C3609 C 0.8756 0.71734 0.52526 0.0
C3610 C 0.89307 0.71198 0.53297 0.0
C3611 C 0.88644 0.6883 0.5365 0.0
C3612 C 0.90293 0.68342 0.54391 0.0
C3613 C 0.92617 0.70207 0.54773 0.0
C3614 C 0.93299 0.72563 0.54411 0.0
C3615 C 0.91656 0.73061 0.53671 0.0
H3616 H 0.9389 0.69826 0.55348 0.0
H3617 H 0.7754 0.73489 0.47713 0.0
loop_
_geom_bond_atom_site_label_1
_geom_bond_atom_site_label_2
_geom_bond_distance
_geom_bond_site_symmetry_2
_ccdc_geom_bond_type
H0 C3 0.931 . S
H1 C6 0.928 . S
H2 C8 0.930 . S
C3 H0 0.931 . S
C3 C4 1.413 . S
C3 C5 1.360 . S
C4 C3 1.413 . S
C4 C8 1.429 . S
C5 C3 1.360 . S
C5 C6 1.372 . S
C6 H1 0.928 . S
C6 C5 1.372 . S
C6 C7 1.404 . S
C7 C6 1.404 . S
C7 C8 1.391 . S
C8 H2 0.930 . S
C8 C4 1.429 . S
C8 C7 1.391 . S
H9 C12 0.931 . S
H10 C15 0.928 . S
H11 C17 0.930 . S
C12 H9 0.931 . S
C12 C13 1.413 . S
C12 C14 1.360 . S
C13 C12 1.413 . S
C13 C17 1.429 . S
C14 C12 1.360 . S
C14 C15 1.372 . S
C15 H10 0.928 . S
C15 C14 1.372 . S
C15 C16 1.404 . S
C16 C15 1.404 . S
C16 C17 1.391 . S
C17 H11 0.930 . S
C17 C13 1.429 . S
C17 C16 1.391 . S
H18 C21 0.931 . S
H19 C24 0.928 . S
H20 C26 0.930 . S
C21 H18 0.931 . S
C21 C22 1.413 . S
C21 C23 1.360 . S
C22 C21 1.413 . S
C22 C26 1.429 . S
C23 C21 1.360 . S
C23 C24 1.372 . S
C24 H19 0.928 . S
C24 C23 1.372 . S
C24 C25 1.404 . S
C25 C24 1.404 . S
C25 C26 1.391 . S
C26 H20 0.930 . S
C26 C22 1.429 . S
C26 C25 1.391 . S
H27 C30 0.931 . S
H28 C33 0.928 . S
H29 C35 0.930 . S
C30 H27 0.931 . S
C30 C31 1.413 . S
C30 C32 1.360 . S
C31 C30 1.413 . S
C31 C35 1.429 . S
C32 C30 1.360 . S
C32 C33 1.372 . S
C33 H28 0.928 . S
C33 C32 1.372 . S
C33 C34 1.404 . S
C34 C33 1.404 . S
C34 C35 1.391 . S
C35 H29 0.930 . S
C35 C31 1.429 . S
C35 C34 1.391 . S
H36 C39 0.931 . S
H37 C42 0.928 . S
H38 C44 0.930 . S
C39 H36 0.931 . S
C39 C40 1.413 . S
C39 C41 1.360 . S
C40 C39 1.413 . S
C40 C44 1.429 . S
C41 C39 1.360 . S
C41 C42 1.372 . S
C42 H37 0.928 . S
C42 C41 1.372 . S
C42 C43 1.404 . S
C43 C42 1.404 . S
C43 C44 1.391 . S
C44 H38 0.930 . S
C44 C40 1.429 . S
C44 C43 1.391 . S
H45 C48 0.931 . S
H46 C51 0.928 . S
H47 C53 0.930 . S
C48 H45 0.931 . S
C48 C49 1.413 . S
C48 C50 1.360 . S
C49 C48 1.413 . S
C49 C53 1.429 . S
C50 C48 1.360 . S
C50 C51 1.372 . S
C51 H46 0.928 . S
C51 C50 1.372 . S
C51 C52 1.404 . S
C52 C51 1.404 . S
C52 C53 1.391 . S
C53 H47 0.930 . S
C53 C49 1.429 . S
C53 C52 1.391 . S
H54 C57 0.931 . S
H55 C60 0.928 . S
H56 C62 0.930 . S
C57 H54 0.931 . S
C57 C58 1.413 . S
C57 C59 1.360 . S
C58 C57 1.413 . S
C58 C62 1.429 . S
C59 C57 1.360 . S
C59 C60 1.372 . S
C60 H55 0.928 . S
C60 C59 1.372 . S
C60 C61 1.404 . S
C61 C60 1.404 . S
C61 C62 1.391 . S
C62 H56 0.930 . S
C62 C58 1.429 . S
C62 C61 1.391 . S
H63 C66 0.931 . S
H64 C69 0.928 . S
H65 C71 0.930 . S
C66 H63 0.931 . S
C66 C67 1.413 . S
C66 C68 1.360 . S
C67 C66 1.413 . S
C67 C71 1.429 . S
C68 C66 1.360 . S
C68 C69 1.372 . S
C69 H64 0.928 . S
C69 C68 1.372 . S
C69 C70 1.404 . S
C70 C69 1.404 . S
C70 C71 1.391 . S
C71 H65 0.930 . S
C71 C67 1.429 . S
C71 C70 1.391 . S
H72 C75 0.931 . S
H73 C78 0.928 . S
H74 C80 0.930 . S
C75 H72 0.931 . S
C75 C76 1.413 . S
C75 C77 1.360 . S
C76 C75 1.413 . S
C76 C80 1.429 . S
C77 C75 1.360 . S
C77 C78 1.372 . S
C78 H73 0.928 . S
C78 C77 1.372 . S
C78 C79 1.404 . S
C79 C78 1.404 . S
C79 C80 1.391 . S
C80 H74 0.930 . S
C80 C76 1.429 . S
C80 C79 1.391 . S
H81 C84 0.931 . S
H82 C87 0.928 . S
H83 C89 0.930 . S
C84 H81 0.931 . S
C84 C85 1.413 . S
C84 C86 1.360 . S
C85 C84 1.413 . S
C85 C89 1.429 . S
C86 C84 1.360 . S
C86 C87 1.372 . S
C87 H82 0.928 . S
C87 C86 1.372 . S
C87 C88 1.404 . S
C88 C87 1.404 . S
C88 C89 1.391 . S
C89 H83 0.930 . S
C89 C85 1.429 . S
C89 C88 1.391 . S
H90 C93 0.931 . S
H91 C96 0.928 . S
H92 C98 0.930 . S
C93 H90 0.931 . S
C93 C94 1.413 . S
C93 C95 1.360 . S
C94 C93 1.413 . S
C94 C98 1.429 . S
C95 C93 1.360 . S
C95 C96 1.372 . S
C96 H91 0.928 . S
C96 C95 1.372 . S
C96 C97 1.404 . S
C97 C96 1.404 . S
C97 C98 1.391 . S
C98 H92 0.930 . S
C98 C94 1.429 . S
C98 C97 1.391 . S
H99 C102 0.931 . S
H100 C105 0.928 . S
H101 C107 0.930 . S
C102 H99 0.931 . S
C102 C103 1.413 . S
C102 C104 1.360 . S
C103 C102 1.413 . S
C103 C107 1.429 . S
C104 C102 1.360 . S
C104 C105 1.372 . S
C105 H100 0.928 . S
C105 C104 1.372 . S
C105 C106 1.404 . S
C106 C105 1.404 . S
C106 C107 1.391 . S
C107 H101 0.930 . S
C107 C103 1.429 . S
C107 C106 1.391 . S
H108 C111 0.931 . S
H109 C114 0.928 . S
H110 C116 0.930 . S
C111 H108 0.931 . S
C111 C112 1.413 . S
C111 C113 1.360 . S
C112 C111 1.413 . S
C112 C116 1.429 . S
C113 C111 1.360 . S
C113 C114 1.372 . S
C114 H109 0.928 . S
C114 C113 1.372 . S
C114 C115 1.404 . S
C115 C114 1.404 . S
C115 C116 1.391 . S
C116 H110 0.930 . S
C116 C112 1.429 . S
C116 C115 1.391 . S
H117 C120 0.931 . S
H118 C123 0.928 . S
H119 C125 0.930 . S
C120 H117 0.931 . S
C120 C121 1.413 . S
C120 C122 1.360 . S
C121 C120 1.413 . S
C121 C125 1.429 . S
C122 C120 1.360 . S
C122 C123 1.372 . S
C123 H118 0.928 . S
C123 C122 1.372 . S
C123 C124 1.404 . S
C124 C123 1.404 . S
C124 C125 1.391 . S
C125 H119 0.930 . S
C125 C121 1.429 . S
C125 C124 1.391 . S
H126 C129 0.931 . S
H127 C132 0.928 . S
H128 C134 0.930 . S
C129 H126 0.931 . S
C129 C130 1.413 . S
C129 C131 1.360 . S
C130 C129 1.413 . S
C130 C134 1.429 . S
C131 C129 1.360 . S
C131 C132 1.372 . S
C132 H127 0.928 . S
C132 C131 1.372 . S
C132 C133 1.404 . S
C133 C132 1.404 . S
C133 C134 1.391 . S
C134 H128 0.930 . S
C134 C130 1.429 . S
C134 C133 1.391 . S
H135 C138 0.931 . S
H136 C141 0.928 . S
H137 C143 0.930 . S
C138 H135 0.931 . S
C138 C139 1.413 . S
C138 C140 1.360 . S
C139 C138 1.413 . S
C139 C143 1.429 . S
C140 C138 1.360 . S
C140 C141 1.372 . S
C141 H136 0.928 . S
C141 C140 1.372 . S
C141 C142 1.404 . S
C142 C141 1.404 . S
C142 C143 1.391 . S
C143 H137 0.930 . S
C143 C139 1.429 . S
C143 C142 1.391 . S
H144 C147 0.931 . S
H145 C150 0.928 . S
H146 C152 0.930 . S
C147 H144 0.931 . S
C147 C148 1.413 . S
C147 C149 1.360 . S
C148 C147 1.413 . S
C148 C152 1.429 . S
C149 C147 1.360 . S
C149 C150 1.372 . S
C150 H145 0.928 . S
C150 C149 1.372 . S
C150 C151 1.404 . S
C151 C150 1.404 . S
C151 C152 1.391 . S
C152 H146 0.930 . S
C152 C148 1.429 . S
C152 C151 1.391 . S
H153 C156 0.931 . S
H154 C159 0.928 . S
H155 C161 0.930 . S
C156 H153 0.931 . S
C156 C157 1.413 . S
C156 C158 1.360 . S
C157 C156 1.413 . S
C157 C161 1.429 . S
C158 C156 1.360 . S
C158 C159 1.372 . S
C159 H154 0.928 . S
C159 C158 1.372 . S
C159 C160 1.404 . S
C160 C159 1.404 . S
C160 C161 1.391 . S
C161 H155 0.930 . S
C161 C157 1.429 . S
C161 C160 1.391 . S
Tb162 N193 2.660 . S
Tb162 N200 2.600 . S
Tb162 O206 2.546 . S
Tb162 O207 2.610 1_565 S
Tb162 O209 2.320 1_565 S
Tb162 O210 2.552 1_565 S
Tb162 O211 2.413 . S
Tb162 O213 2.362 1_556 S
Tb162 O214 2.421 . S
Tb162 C226 2.833 . S
C163 C166 1.432 . S
C163 C167 1.414 . S
C163 N170 1.359 . S
C164 C166 1.417 . S
C164 C168 1.432 . S
C164 C176 1.410 . S
C165 C167 1.444 . S
C165 C168 1.317 . S
C165 H188 0.929 . S
C166 C163 1.432 . S
C166 C164 1.417 . S
C166 N174 1.360 . S
C167 C163 1.414 . S
C167 C165 1.444 . S
C167 C172 1.385 . S
C168 C164 1.432 . S
C168 C165 1.317 . S
C168 H180 0.930 . S
C169 C171 1.392 . S
C169 C172 1.370 . S
C169 H181 0.931 . S
N170 C163 1.359 . S
N170 C171 1.327 . S
N170 Tb173 2.600 . S
C171 C169 1.392 . S
C171 N170 1.327 . S
C171 H178 0.930 . S
C172 C167 1.385 . S
C172 C169 1.370 . S
C172 H191 0.930 . S
Tb173 N170 2.600 . S
Tb173 N174 2.660 . S
Tb173 O207 2.362 1_554 S
Tb173 O208 2.421 . S
Tb173 O212 2.546 . S
Tb173 O213 2.610 1_545 S
Tb173 O215 2.320 1_545 S
Tb173 O216 2.552 1_545 S
Tb173 O217 2.413 . S
Tb173 C237 2.833 . S
N174 C166 1.360 . S
N174 Tb173 2.660 . S
N174 C175 1.305 . S
C175 N174 1.305 . S
C175 C177 1.407 . S
C175 H182 0.930 . S
C176 C164 1.410 . S
C176 C177 1.345 . S
C176 H184 0.930 . S
C177 C175 1.407 . S
C177 C176 1.345 . S
C177 H179 0.930 . S
H178 C171 0.930 . S
H179 C177 0.930 . S
H180 C168 0.930 . S
H181 C169 0.931 . S
H182 C175 0.930 . S
H183 C197 0.930 . S
H184 C176 0.930 . S
H185 C203 0.930 . S
H186 C194 0.930 . S
H187 C201 0.931 . S
H188 C165 0.929 . S
H189 C195 0.930 . S
H190 C228 0.930 . S
H191 C172 0.930 . S
H192 C227 0.929 . S
N193 Tb162 2.660 . S
N193 C194 1.305 . S
N193 C198 1.360 . S
C194 H186 0.930 . S
C194 N193 1.305 . S
C194 C197 1.407 . S
C195 H189 0.930 . S
C195 C196 1.410 . S
C195 C197 1.345 . S
C196 C195 1.410 . S
C196 C198 1.417 . S
C196 C228 1.432 . S
C197 H183 0.930 . S
C197 C194 1.407 . S
C197 C195 1.345 . S
C198 N193 1.360 . S
C198 C196 1.417 . S
C198 C202 1.432 . S
H199 C204 0.930 . S
N200 Tb162 2.600 . S
N200 C202 1.359 . S
N200 C203 1.327 . S
C201 H187 0.931 . S
C201 C203 1.392 . S
C201 C204 1.370 . S
C202 C198 1.432 . S
C202 N200 1.359 . S
C202 C205 1.414 . S
C203 H185 0.930 . S
C203 N200 1.327 . S
C203 C201 1.392 . S
C204 H199 0.930 . S
C204 C201 1.370 . S
C204 C205 1.385 . S
C205 C202 1.414 . S
C205 C204 1.385 . S
C205 C227 1.444 . S
O206 Tb162 2.546 . S
O206 C226 1.251 . S
O207 Tb162 2.610 1_545 S
O207 Tb173 2.362 1_556 S
O207 C218 1.283 . S
O208 Tb173 2.421 . S
O208 C225 1.262 1_554 S
O209 Tb162 2.320 1_545 S
O209 C225 1.260 . S
O210 Tb162 2.552 1_545 S
O210 C218 1.243 . S
O211 Tb162 2.413 . S
O211 C226 1.256 . S
O212 Tb173 2.546 . S
O212 C237 1.251 . S
O213 Tb162 2.362 1_554 S
O213 Tb173 2.610 1_565 S
O213 C229 1.283 . S
O214 Tb162 2.421 . S
O214 C236 1.262 1_556 S
O215 Tb173 2.320 1_565 S
O215 C236 1.260 . S
O216 Tb173 2.552 1_565 S
O216 C229 1.243 . S
O217 Tb173 2.413 . S
O217 C237 1.256 . S
C218 O207 1.283 . S
C218 O210 1.243 . S
C219 C221 1.382 1_565 S
C219 C223 1.393 . S
C219 C226 1.500 . S
C220 C221 1.400 . S
C220 C222 1.384 1_545 S
C221 C219 1.382 1_545 S
C221 C220 1.400 . S
C221 H238 0.930 . S
C222 C220 1.384 1_565 S
C222 C224 1.392 . S
C222 H239 0.931 . S
C223 C219 1.393 . S
C223 C224 1.401 . S
C223 H240 0.930 . S
C224 C222 1.392 . S
C224 C223 1.401 . S
C224 H241 0.930 . S
C225 O208 1.262 1_556 S
C225 O209 1.260 . S
C226 Tb162 2.833 . S
C226 O206 1.251 . S
C226 O211 1.256 . S
C226 C219 1.500 . S
C227 H192 0.929 . S
C227 C205 1.444 . S
C227 C228 1.317 . S
C228 H190 0.930 . S
C228 C196 1.432 . S
C228 C227 1.317 . S
C229 O213 1.283 . S
C229 O216 1.243 . S
C230 C231 1.382 1_545 S
C230 C234 1.393 . S
C230 C237 1.500 . S
C231 C230 1.382 1_565 S
C231 C232 1.400 . S
C231 H242 0.930 . S
C232 C231 1.400 . S
C232 C233 1.384 1_565 S
C233 C232 1.384 1_545 S
C233 C235 1.392 . S
C233 H243 0.931 . S
C234 C230 1.393 . S
C234 C235 1.401 . S
C234 H244 0.930 . S
C235 C233 1.392 . S
C235 C234 1.401 . S
C235 H245 0.930 . S
C236 O214 1.262 1_554 S
C236 O215 1.260 . S
C237 Tb173 2.833 . S
C237 O212 1.251 . S
C237 O217 1.256 . S
C237 C230 1.500 . S
H238 C221 0.930 . S
H239 C222 0.931 . S
H240 C223 0.930 . S
H241 C224 0.930 . S
H242 C231 0.930 . S
H243 C233 0.931 . S
H244 C234 0.930 . S
H245 C235 0.930 . S
Tb246 N277 2.660 . S
Tb246 N284 2.600 . S
Tb246 O290 2.546 . S
Tb246 O291 2.610 1_455 S
Tb246 O293 2.320 1_455 S
Tb246 O294 2.552 1_455 S
Tb246 O295 2.413 . S
Tb246 O297 2.362 1_556 S
Tb246 O298 2.421 . S
Tb246 C310 2.833 . S
C247 C250 1.432 . S
C247 C251 1.414 . S
C247 N254 1.359 . S
C248 C250 1.417 . S
C248 C252 1.432 . S
C248 C260 1.410 . S
C249 C251 1.444 . S
C249 C252 1.317 . S
C249 H272 0.929 . S
C250 C247 1.432 . S
C250 C248 1.417 . S
C250 N258 1.360 . S
C251 C247 1.414 . S
C251 C249 1.444 . S
C251 C256 1.385 . S
C252 C248 1.432 . S
C252 C249 1.317 . S
C252 H264 0.930 . S
C253 C255 1.392 . S
C253 C256 1.370 . S
C253 H265 0.931 . S
N254 C247 1.359 . S
N254 C255 1.327 . S
N254 Tb257 2.600 . S
C255 C253 1.392 . S
C255 N254 1.327 . S
C255 H262 0.930 . S
C256 C251 1.385 . S
C256 C253 1.370 . S
C256 H275 0.930 . S
Tb257 N254 2.600 . S
Tb257 N258 2.660 . S
Tb257 O291 2.362 1_554 S
Tb257 O292 2.421 . S
Tb257 O296 2.546 . S
Tb257 O297 2.610 1_655 S
Tb257 O299 2.320 1_655 S
Tb257 O300 2.552 1_655 S
Tb257 O301 2.413 . S
Tb257 C321 2.833 . S
N258 C250 1.360 . S
N258 Tb257 2.660 . S
N258 C259 1.305 . S
C259 N258 1.305 . S
C259 C261 1.407 . S
C259 H266 0.930 . S
C260 C248 1.410 . S
C260 C261 1.345 . S
C260 H268 0.930 . S
C261 C259 1.407 . S
C261 C260 1.345 . S
C261 H263 0.930 . S
H262 C255 0.930 . S
H263 C261 0.930 . S
H264 C252 0.930 . S
H265 C253 0.931 . S
H266 C259 0.930 . S
H267 C281 0.930 . S
H268 C260 0.930 . S
H269 C287 0.930 . S
H270 C278 0.930 . S
H271 C285 0.931 . S
H272 C249 0.929 . S
H273 C279 0.930 . S
H274 C312 0.930 . S
H275 C256 0.930 . S
H276 C311 0.929 . S
N277 Tb246 2.660 . S
N277 C278 1.305 . S
N277 C282 1.360 . S
C278 H270 0.930 . S
C278 N277 1.305 . S
C278 C281 1.407 . S
C279 H273 0.930 . S
C279 C280 1.410 . S
C279 C281 1.345 . S
C280 C279 1.410 . S
C280 C282 1.417 . S
C280 C312 1.432 . S
C281 H267 0.930 . S
C281 C278 1.407 . S
C281 C279 1.345 . S
C282 N277 1.360 . S
C282 C280 1.417 . S
C282 C286 1.432 . S
H283 C288 0.930 . S
N284 Tb246 2.600 . S
N284 C286 1.359 . S
N284 C287 1.327 . S
C285 H271 0.931 . S
C285 C287 1.392 . S
C285 C288 1.370 . S
C286 C282 1.432 . S
C286 N284 1.359 . S
C286 C289 1.414 . S
C287 H269 0.930 . S
C287 N284 1.327 . S
C287 C285 1.392 . S
C288 H283 0.930 . S
C288 C285 1.370 . S
C288 C289 1.385 . S
C289 C286 1.414 . S
C289 C288 1.385 . S
C289 C311 1.444 . S
O290 Tb246 2.546 . S
O290 C310 1.251 . S
O291 Tb246 2.610 1_655 S
O291 Tb257 2.362 1_556 S
O291 C302 1.283 . S
O292 Tb257 2.421 . S
O292 C309 1.262 1_554 S
O293 Tb246 2.320 1_655 S
O293 C309 1.260 . S
O294 Tb246 2.552 1_655 S
O294 C302 1.243 . S
O295 Tb246 2.413 . S
O295 C310 1.256 . S
O296 Tb257 2.546 . S
O296 C321 1.251 . S
O297 Tb246 2.362 1_554 S
O297 Tb257 2.610 1_455 S
O297 C313 1.283 . S
O298 Tb246 2.421 . S
O298 C320 1.262 1_556 S
O299 Tb257 2.320 1_455 S
O299 C320 1.260 . S
O300 Tb257 2.552 1_455 S
O300 C313 1.243 . S
O301 Tb257 2.413 . S
O301 C321 1.256 . S
C302 O291 1.283 . S
C302 O294 1.243 . S
C303 C305 1.382 1_455 S
C303 C307 1.393 . S
C303 C310 1.500 . S
C304 C305 1.400 . S
C304 C306 1.384 1_655 S
C305 C303 1.382 1_655 S
C305 C304 1.400 . S
C305 H322 0.930 . S
C306 C304 1.384 1_455 S
C306 C308 1.392 . S
C306 H323 0.931 . S
C307 C303 1.393 . S
C307 C308 1.401 . S
C307 H324 0.930 . S
C308 C306 1.392 . S
C308 C307 1.401 . S
C308 H325 0.930 . S
C309 O292 1.262 1_556 S
C309 O293 1.260 . S
C310 Tb246 2.833 . S
C310 O290 1.251 . S
C310 O295 1.256 . S
C310 C303 1.500 . S
C311 H276 0.929 . S
C311 C289 1.444 . S
C311 C312 1.317 . S
C312 H274 0.930 . S
C312 C280 1.432 . S
C312 C311 1.317 . S
C313 O297 1.283 . S
C313 O300 1.243 . S
C314 C315 1.382 1_655 S
C314 C318 1.393 . S
C314 C321 1.500 . S
C315 C314 1.382 1_455 S
C315 C316 1.400 . S
C315 H326 0.930 . S
C316 C315 1.400 . S
C316 C317 1.384 1_455 S
C317 C316 1.384 1_655 S
C317 C319 1.392 . S
C317 H327 0.931 . S
C318 C314 1.393 . S
C318 C319 1.401 . S
C318 H328 0.930 . S
C319 C317 1.392 . S
C319 C318 1.401 . S
C319 H329 0.930 . S
C320 O298 1.262 1_554 S
C320 O299 1.260 . S
C321 Tb257 2.833 . S
C321 O296 1.251 . S
C321 O301 1.256 . S
C321 C314 1.500 . S
H322 C305 0.930 . S
H323 C306 0.931 . S
H324 C307 0.930 . S
H325 C308 0.930 . S
H326 C315 0.930 . S
H327 C317 0.931 . S
H328 C318 0.930 . S
H329 C319 0.930 . S
Tb330 N361 2.660 . S
Tb330 N368 2.600 . S
Tb330 O374 2.546 . S
Tb330 O375 2.610 . S
Tb330 O377 2.320 . S
Tb330 O378 2.552 . S
Tb330 O379 2.413 . S
Tb330 O381 2.362 1_554 S
Tb330 O382 2.421 . S
Tb330 C394 2.833 . S
C331 C334 1.432 . S
C331 C335 1.414 . S
C331 N338 1.359 . S
C332 C334 1.417 . S
C332 C336 1.432 . S
C332 C344 1.410 . S
C333 C335 1.444 . S
C333 C336 1.317 . S
C333 H356 0.929 . S
C334 C331 1.432 . S
C334 C332 1.417 . S
C334 N342 1.360 . S
C335 C331 1.414 . S
C335 C333 1.444 . S
C335 C340 1.385 . S
C336 C332 1.432 . S
C336 C333 1.317 . S
C336 H348 0.930 . S
C337 C339 1.392 . S
C337 C340 1.370 . S
C337 H349 0.931 . S
N338 C331 1.359 . S
N338 C339 1.327 . S
N338 Tb341 2.600 . S
C339 C337 1.392 . S
C339 N338 1.327 . S
C339 H346 0.930 . S
C340 C335 1.385 . S
C340 C337 1.370 . S
C340 H359 0.930 . S
Tb341 N338 2.600 . S
Tb341 N342 2.660 . S
Tb341 O375 2.362 1_556 S
Tb341 O376 2.421 . S
Tb341 O380 2.546 . S
Tb341 O381 2.610 . S
Tb341 O383 2.320 . S
Tb341 O384 2.552 . S
Tb341 O385 2.413 . S
Tb341 C405 2.833 . S
N342 C334 1.360 . S
N342 Tb341 2.660 . S
N342 C343 1.305 . S
C343 N342 1.305 . S
C343 C345 1.407 . S
C343 H350 0.930 . S
C344 C332 1.410 . S
C344 C345 1.345 . S
C344 H352 0.930 . S
C345 C343 1.407 . S
C345 C344 1.345 . S
C345 H347 0.930 . S
H346 C339 0.930 . S
H347 C345 0.930 . S
H348 C336 0.930 . S
H349 C337 0.931 . S
H350 C343 0.930 . S
H351 C365 0.930 . S
H352 C344 0.930 . S
H353 C371 0.930 . S
H354 C362 0.930 . S
H355 C369 0.931 . S
H356 C333 0.929 . S
H357 C363 0.930 . S
H358 C396 0.930 . S
H359 C340 0.930 . S
H360 C395 0.929 . S
N361 Tb330 2.660 . S
N361 C362 1.305 . S
N361 C366 1.360 . S
C362 H354 0.930 . S
C362 N361 1.305 . S
C362 C365 1.407 . S
C363 H357 0.930 . S
C363 C364 1.410 . S
C363 C365 1.345 . S
C364 C363 1.410 . S
C364 C366 1.417 . S
C364 C396 1.432 . S
C365 H351 0.930 . S
C365 C362 1.407 . S
C365 C363 1.345 . S
C366 N361 1.360 . S
C366 C364 1.417 . S
C366 C370 1.432 . S
H367 C372 0.930 . S
N368 Tb330 2.600 . S
N368 C370 1.359 . S
N368 C371 1.327 . S
C369 H355 0.931 . S
C369 C371 1.392 . S
C369 C372 1.370 . S
C370 C366 1.432 . S
C370 N368 1.359 . S
C370 C373 1.414 . S
C371 H353 0.930 . S
C371 N368 1.327 . S
C371 C369 1.392 . S
C372 H367 0.930 . S
C372 C369 1.370 . S
C372 C373 1.385 . S
C373 C370 1.414 . S
C373 C372 1.385 . S
C373 C395 1.444 . S
O374 Tb330 2.546 . S
O374 C394 1.251 . S
O375 Tb330 2.610 . S
O375 Tb341 2.362 1_554 S
O375 C386 1.283 . S
O376 Tb341 2.421 . S
O376 C393 1.262 1_556 S
O377 Tb330 2.320 . S
O377 C393 1.260 . S
O378 Tb330 2.552 . S
O378 C386 1.243 . S
O379 Tb330 2.413 . S
O379 C394 1.256 . S
O380 Tb341 2.546 . S
O380 C405 1.251 . S
O381 Tb330 2.362 1_556 S
O381 Tb341 2.610 . S
O381 C397 1.283 . S
O382 Tb330 2.421 . S
O382 C404 1.262 1_554 S
O383 Tb341 2.320 . S
O383 C404 1.260 . S
O384 Tb341 2.552 . S
O384 C397 1.243 . S
O385 Tb341 2.413 . S
O385 C405 1.256 . S
C386 O375 1.283 . S
C386 O378 1.243 . S
C387 C389 1.382 . S
C387 C391 1.393 . S
C387 C394 1.500 . S
C388 C389 1.400 . S
C388 C390 1.384 . S
C389 C387 1.382 . S
C389 C388 1.400 . S
C389 H406 0.930 . S
C390 C388 1.384 . S
C390 C392 1.392 . S
C390 H407 0.931 . S
C391 C387 1.393 . S
C391 C392 1.401 . S
C391 H408 0.930 . S
C392 C390 1.392 . S
C392 C391 1.401 . S
C392 H409 0.930 . S
C393 O376 1.262 1_554 S
C393 O377 1.260 . S
C394 Tb330 2.833 . S
C394 O374 1.251 . S
C394 O379 1.256 . S
C394 C387 1.500 . S
C395 H360 0.929 . S
C395 C373 1.444 . S
C395 C396 1.317 . S
C396 H358 0.930 . S
C396 C364 1.432 . S
C396 C395 1.317 . S
C397 O381 1.283 . S
C397 O384 1.243 . S
C398 C399 1.382 . S
C398 C402 1.393 . S
C398 C405 1.500 . S
C399 C398 1.382 . S
C399 C400 1.400 . S
C399 H410 0.930 . S
C400 C399 1.400 . S
C400 C401 1.384 . S
C401 C400 1.384 . S
C401 C403 1.392 . S
C401 H411 0.931 . S
C402 C398 1.393 . S
C402 C403 1.401 . S
C402 H412 0.930 . S
C403 C401 1.392 . S
C403 C402 1.401 . S
C403 H413 0.930 . S
C404 O382 1.262 1_556 S
C404 O383 1.260 . S
C405 Tb341 2.833 . S
C405 O380 1.251 . S
C405 O385 1.256 . S
C405 C398 1.500 . S
H406 C389 0.930 . S
H407 C390 0.931 . S
H408 C391 0.930 . S
H409 C392 0.930 . S
H410 C399 0.930 . S
H411 C401 0.931 . S
H412 C402 0.930 . S
H413 C403 0.930 . S
Tb414 N445 2.660 . S
Tb414 N452 2.600 . S
Tb414 O458 2.546 . S
Tb414 O459 2.610 . S
Tb414 O461 2.320 . S
Tb414 O462 2.552 . S
Tb414 O463 2.413 . S
Tb414 O465 2.362 . S
Tb414 O466 2.421 . S
Tb414 C478 2.833 . S
C415 C418 1.432 . S
C415 C419 1.414 . S
C415 N422 1.359 . S
C416 C418 1.417 . S
C416 C420 1.432 . S
C416 C428 1.410 . S
C417 C419 1.444 . S
C417 C420 1.317 . S
C417 H440 0.929 . S
C418 C415 1.432 . S
C418 C416 1.417 . S
C418 N426 1.360 . S
C419 C415 1.414 . S
C419 C417 1.444 . S
C419 C424 1.385 . S
C420 C416 1.432 . S
C420 C417 1.317 . S
C420 H432 0.930 . S
C421 C423 1.392 . S
C421 C424 1.370 . S
C421 H433 0.931 . S
N422 C415 1.359 . S
N422 C423 1.327 . S
N422 Tb425 2.600 . S
C423 C421 1.392 . S
C423 N422 1.327 . S
C423 H430 0.930 . S
C424 C419 1.385 . S
C424 C421 1.370 . S
C424 H443 0.930 . S
Tb425 N422 2.600 . S
Tb425 N426 2.660 . S
Tb425 O459 2.362 . S
Tb425 O460 2.421 . S
Tb425 O464 2.546 . S
Tb425 O465 2.610 . S
Tb425 O467 2.320 . S
Tb425 O468 2.552 . S
Tb425 O469 2.413 . S
Tb425 C489 2.833 . S
N426 C418 1.360 . S
N426 Tb425 2.660 . S
N426 C427 1.305 . S
C427 N426 1.305 . S
C427 C429 1.407 . S
C427 H434 0.930 . S
C428 C416 1.410 . S
C428 C429 1.345 . S
C428 H436 0.930 . S
C429 C427 1.407 . S
C429 C428 1.345 . S
C429 H431 0.930 . S
H430 C423 0.930 . S
H431 C429 0.930 . S
H432 C420 0.930 . S
H433 C421 0.931 . S
H434 C427 0.930 . S
H435 C449 0.930 . S
H436 C428 0.930 . S
H437 C455 0.930 . S
H438 C446 0.930 . S
H439 C453 0.931 . S
H440 C417 0.929 . S
H441 C447 0.930 . S
H442 C480 0.930 . S
H443 C424 0.930 . S
H444 C479 0.929 . S
N445 Tb414 2.660 . S
N445 C446 1.305 . S
N445 C450 1.360 . S
C446 H438 0.930 . S
C446 N445 1.305 . S
C446 C449 1.407 . S
C447 H441 0.930 . S
C447 C448 1.410 . S
C447 C449 1.345 . S
C448 C447 1.410 . S
C448 C450 1.417 . S
C448 C480 1.432 . S
C449 H435 0.930 . S
C449 C446 1.407 . S
C449 C447 1.345 . S
C450 N445 1.360 . S
C450 C448 1.417 . S
C450 C454 1.432 . S
H451 C456 0.930 . S
N452 Tb414 2.600 . S
N452 C454 1.359 . S
N452 C455 1.327 . S
C453 H439 0.931 . S
C453 C455 1.392 . S
C453 C456 1.370 . S
C454 C450 1.432 . S
C454 N452 1.359 . S
C454 C457 1.414 . S
C455 H437 0.930 . S
C455 N452 1.327 . S
C455 C453 1.392 . S
C456 H451 0.930 . S
C456 C453 1.370 . S
C456 C457 1.385 . S
C457 C454 1.414 . S
C457 C456 1.385 . S
C457 C479 1.444 . S
O458 Tb414 2.546 . S
O458 C478 1.251 . S
O459 Tb414 2.610 . S
O459 Tb425 2.362 . S
O459 C470 1.283 . S
O460 Tb425 2.421 . S
O460 C477 1.262 . S
O461 Tb414 2.320 . S
O461 C477 1.260 . S
O462 Tb414 2.552 . S
O462 C470 1.243 . S
O463 Tb414 2.413 . S
O463 C478 1.256 . S
O464 Tb425 2.546 . S
O464 C489 1.251 . S
O465 Tb414 2.362 . S
O465 Tb425 2.610 . S
O465 C481 1.283 . S
O466 Tb414 2.421 . S
O466 C488 1.262 . S
O467 Tb425 2.320 . S
O467 C488 1.260 . S
O468 Tb425 2.552 . S
O468 C481 1.243 . S
O469 Tb425 2.413 . S
O469 C489 1.256 . S
C470 O459 1.283 . S
C470 O462 1.243 . S
C471 C473 1.382 . S
C471 C475 1.393 . S
C471 C478 1.500 . S
C472 C473 1.400 . S
C472 C474 1.384 . S
C473 C471 1.382 . S
C473 C472 1.400 . S
C473 H490 0.930 . S
C474 C472 1.384 . S
C474 C476 1.392 . S
C474 H491 0.931 . S
C475 C471 1.393 . S
C475 C476 1.401 . S
C475 H492 0.930 . S
C476 C474 1.392 . S
C476 C475 1.401 . S
C476 H493 0.930 . S
C477 O460 1.262 . S
C477 O461 1.260 . S
C478 Tb414 2.833 . S
C478 O458 1.251 . S
C478 O463 1.256 . S
C478 C471 1.500 . S
C479 H444 0.929 . S
C479 C457 1.444 . S
C479 C480 1.317 . S
C480 H442 0.930 . S
C480 C448 1.432 . S
C480 C479 1.317 . S
C481 O465 1.283 . S
C481 O468 1.243 . S
C482 C483 1.382 . S
C482 C486 1.393 . S
C482 C489 1.500 . S
C483 C482 1.382 . S
C483 C484 1.400 . S
C483 H494 0.930 . S
C484 C483 1.400 . S
C484 C485 1.384 . S
C485 C484 1.384 . S
C485 C487 1.392 . S
C485 H495 0.931 . S
C486 C482 1.393 . S
C486 C487 1.401 . S
C486 H496 0.930 . S
C487 C485 1.392 . S
C487 C486 1.401 . S
C487 H497 0.930 . S
C488 O466 1.262 . S
C488 O467 1.260 . S
C489 Tb425 2.833 . S
C489 O464 1.251 . S
C489 O469 1.256 . S
C489 C482 1.500 . S
H490 C473 0.930 . S
H491 C474 0.931 . S
H492 C475 0.930 . S
H493 C476 0.930 . S
H494 C483 0.930 . S
H495 C485 0.931 . S
H496 C486 0.930 . S
H497 C487 0.930 . S
Tb498 N529 2.660 . S
Tb498 N536 2.600 . S
Tb498 O542 2.546 . S
Tb498 O543 2.610 . S
Tb498 O545 2.320 . S
Tb498 O546 2.552 . S
Tb498 O547 2.413 . S
Tb498 O549 2.362 . S
Tb498 O550 2.421 . S
Tb498 C562 2.833 . S
C499 C502 1.432 . S
C499 C503 1.414 . S
C499 N506 1.359 . S
C500 C502 1.417 . S
C500 C504 1.432 . S
C500 C512 1.410 . S
C501 C503 1.444 . S
C501 C504 1.317 . S
C501 H524 0.929 . S
C502 C499 1.432 . S
C502 C500 1.417 . S
C502 N510 1.360 . S
C503 C499 1.414 . S
C503 C501 1.444 . S
C503 C508 1.385 . S
C504 C500 1.432 . S
C504 C501 1.317 . S
C504 H516 0.930 . S
C505 C507 1.392 . S
C505 C508 1.370 . S
C505 H517 0.931 . S
N506 C499 1.359 . S
N506 C507 1.327 . S
N506 Tb509 2.600 . S
C507 C505 1.392 . S
C507 N506 1.327 . S
C507 H514 0.930 . S
C508 C503 1.385 . S
C508 C505 1.370 . S
C508 H527 0.930 . S
Tb509 N506 2.600 . S
Tb509 N510 2.660 . S
Tb509 O543 2.362 . S
Tb509 O544 2.421 . S
Tb509 O548 2.546 . S
Tb509 O549 2.610 . S
Tb509 O551 2.320 . S
Tb509 O552 2.552 . S
Tb509 O553 2.413 . S
Tb509 C573 2.833 . S
N510 C502 1.360 . S
N510 Tb509 2.660 . S
N510 C511 1.305 . S
C511 N510 1.305 . S
C511 C513 1.407 . S
C511 H518 0.930 . S
C512 C500 1.410 . S
C512 C513 1.345 . S
C512 H520 0.930 . S
C513 C511 1.407 . S
C513 C512 1.345 . S
C513 H515 0.930 . S
H514 C507 0.930 . S
H515 C513 0.930 . S
H516 C504 0.930 . S
H517 C505 0.931 . S
H518 C511 0.930 . S
H519 C533 0.930 . S
H520 C512 0.930 . S
H521 C539 0.930 . S
H522 C530 0.930 . S
H523 C537 0.931 . S
H524 C501 0.929 . S
H525 C531 0.930 . S
H526 C564 0.930 . S
H527 C508 0.930 . S
H528 C563 0.929 . S
N529 Tb498 2.660 . S
N529 C530 1.305 . S
N529 C534 1.360 . S
C530 H522 0.930 . S
C530 N529 1.305 . S
C530 C533 1.407 . S
C531 H525 0.930 . S
C531 C532 1.410 . S
C531 C533 1.345 . S
C532 C531 1.410 . S
C532 C534 1.417 . S
C532 C564 1.432 . S
C533 H519 0.930 . S
C533 C530 1.407 . S
C533 C531 1.345 . S
C534 N529 1.360 . S
C534 C532 1.417 . S
C534 C538 1.432 . S
H535 C540 0.930 . S
N536 Tb498 2.600 . S
N536 C538 1.359 . S
N536 C539 1.327 . S
C537 H523 0.931 . S
C537 C539 1.392 . S
C537 C540 1.370 . S
C538 C534 1.432 . S
C538 N536 1.359 . S
C538 C541 1.414 . S
C539 H521 0.930 . S
C539 N536 1.327 . S
C539 C537 1.392 . S
C540 H535 0.930 . S
C540 C537 1.370 . S
C540 C541 1.385 . S
C541 C538 1.414 . S
C541 C540 1.385 . S
C541 C563 1.444 . S
O542 Tb498 2.546 . S
O542 C562 1.251 . S
O543 Tb498 2.610 . S
O543 Tb509 2.362 . S
O543 C554 1.283 . S
O544 Tb509 2.421 . S
O544 C561 1.262 . S
O545 Tb498 2.320 . S
O545 C561 1.260 . S
O546 Tb498 2.552 . S
O546 C554 1.243 . S
O547 Tb498 2.413 . S
O547 C562 1.256 . S
O548 Tb509 2.546 . S
O548 C573 1.251 . S
O549 Tb498 2.362 . S
O549 Tb509 2.610 . S
O549 C565 1.283 . S
O550 Tb498 2.421 . S
O550 C572 1.262 . S
O551 Tb509 2.320 . S
O551 C572 1.260 . S
O552 Tb509 2.552 . S
O552 C565 1.243 . S
O553 Tb509 2.413 . S
O553 C573 1.256 . S
C554 O543 1.283 . S
C554 O546 1.243 . S
C555 C557 1.382 . S
C555 C559 1.393 . S
C555 C562 1.500 . S
C556 C557 1.400 . S
C556 C558 1.384 . S
C557 C555 1.382 . S
C557 C556 1.400 . S
C557 H574 0.930 . S
C558 C556 1.384 . S
C558 C560 1.392 . S
C558 H575 0.931 . S
C559 C555 1.393 . S
C559 C560 1.401 . S
C559 H576 0.930 . S
C560 C558 1.392 . S
C560 C559 1.401 . S
C560 H577 0.930 . S
C561 O544 1.262 . S
C561 O545 1.260 . S
C562 Tb498 2.833 . S
C562 O542 1.251 . S
C562 O547 1.256 . S
C562 C555 1.500 . S
C563 H528 0.929 . S
C563 C541 1.444 . S
C563 C564 1.317 . S
C564 H526 0.930 . S
C564 C532 1.432 . S
C564 C563 1.317 . S
C565 O549 1.283 . S
C565 O552 1.243 . S
C566 C567 1.382 . S
C566 C570 1.393 . S
C566 C573 1.500 . S
C567 C566 1.382 . S
C567 C568 1.400 . S
C567 H578 0.930 . S
C568 C567 1.400 . S
C568 C569 1.384 . S
C569 C568 1.384 . S
C569 C571 1.392 . S
C569 H579 0.931 . S
C570 C566 1.393 . S
C570 C571 1.401 . S
C570 H580 0.930 . S
C571 C569 1.392 . S
C571 C570 1.401 . S
C571 H581 0.930 . S
C572 O550 1.262 . S
C572 O551 1.260 . S
C573 Tb509 2.833 . S
C573 O548 1.251 . S
C573 O553 1.256 . S
C573 C566 1.500 . S
H574 C557 0.930 . S
H575 C558 0.931 . S
H576 C559 0.930 . S
H577 C560 0.930 . S
H578 C567 0.930 . S
H579 C569 0.931 . S
H580 C570 0.930 . S
H581 C571 0.930 . S
Tb582 N613 2.660 . S
Tb582 N620 2.600 . S
Tb582 O626 2.546 . S
Tb582 O627 2.610 . S
Tb582 O629 2.320 . S
Tb582 O630 2.552 . S
Tb582 O631 2.413 . S
Tb582 O633 2.362 . S
Tb582 O634 2.421 . S
Tb582 C646 2.833 . S
C583 C586 1.432 . S
C583 C587 1.414 . S
C583 N590 1.359 . S
C584 C586 1.417 . S
C584 C588 1.432 . S
C584 C596 1.410 . S
C585 C587 1.444 . S
C585 C588 1.317 . S
C585 H608 0.929 . S
C586 C583 1.432 . S
C586 C584 1.417 . S
C586 N594 1.360 . S
C587 C583 1.414 . S
C587 C585 1.444 . S
C587 C592 1.385 . S
C588 C584 1.432 . S
C588 C585 1.317 . S
C588 H600 0.930 . S
C589 C591 1.392 . S
C589 C592 1.370 . S
C589 H601 0.931 . S
N590 C583 1.359 . S
N590 C591 1.327 . S
N590 Tb593 2.600 . S
C591 C589 1.392 . S
C591 N590 1.327 . S
C591 H598 0.930 . S
C592 C587 1.385 . S
C592 C589 1.370 . S
C592 H611 0.930 . S
Tb593 N590 2.600 . S
Tb593 N594 2.660 . S
Tb593 O627 2.362 . S
Tb593 O628 2.421 . S
Tb593 O632 2.546 . S
Tb593 O633 2.610 . S
Tb593 O635 2.320 . S
Tb593 O636 2.552 . S
Tb593 O637 2.413 . S
Tb593 C657 2.833 . S
N594 C586 1.360 . S
N594 Tb593 2.660 . S
N594 C595 1.305 . S
C595 N594 1.305 . S
C595 C597 1.407 . S
C595 H602 0.930 . S
C596 C584 1.410 . S
C596 C597 1.345 . S
C596 H604 0.930 . S
C597 C595 1.407 . S
C597 C596 1.345 . S
C597 H599 0.930 . S
H598 C591 0.930 . S
H599 C597 0.930 . S
H600 C588 0.930 . S
H601 C589 0.931 . S
H602 C595 0.930 . S
H603 C617 0.930 . S
H604 C596 0.930 . S
H605 C623 0.930 . S
H606 C614 0.930 . S
H607 C621 0.931 . S
H608 C585 0.929 . S
H609 C615 0.930 . S
H610 C648 0.930 . S
H611 C592 0.930 . S
H612 C647 0.929 . S
N613 Tb582 2.660 . S
N613 C614 1.305 . S
N613 C618 1.360 . S
C614 H606 0.930 . S
C614 N613 1.305 . S
C614 C617 1.407 . S
C615 H609 0.930 . S
C615 C616 1.410 . S
C615 C617 1.345 . S
C616 C615 1.410 . S
C616 C618 1.417 . S
C616 C648 1.432 . S
C617 H603 0.930 . S
C617 C614 1.407 . S
C617 C615 1.345 . S
C618 N613 1.360 . S
C618 C616 1.417 . S
C618 C622 1.432 . S
H619 C624 0.930 . S
N620 Tb582 2.600 . S
N620 C622 1.359 . S
N620 C623 1.327 . S
C621 H607 0.931 . S
C621 C623 1.392 . S
C621 C624 1.370 . S
C622 C618 1.432 . S
C622 N620 1.359 . S
C622 C625 1.414 . S
C623 H605 0.930 . S
C623 N620 1.327 . S
C623 C621 1.392 . S
C624 H619 0.930 . S
C624 C621 1.370 . S
C624 C625 1.385 . S
C625 C622 1.414 . S
C625 C624 1.385 . S
C625 C647 1.444 . S
O626 Tb582 2.546 . S
O626 C646 1.251 . S
O627 Tb582 2.610 . S
O627 Tb593 2.362 . S
O627 C638 1.283 . S
O628 Tb593 2.421 . S
O628 C645 1.262 . S
O629 Tb582 2.320 . S
O629 C645 1.260 . S
O630 Tb582 2.552 . S
O630 C638 1.243 . S
O631 Tb582 2.413 . S
O631 C646 1.256 . S
O632 Tb593 2.546 . S
O632 C657 1.251 . S
O633 Tb582 2.362 . S
O633 Tb593 2.610 . S
O633 C649 1.283 . S
O634 Tb582 2.421 . S
O634 C656 1.262 . S
O635 Tb593 2.320 . S
O635 C656 1.260 . S
O636 Tb593 2.552 . S
O636 C649 1.243 . S
O637 Tb593 2.413 . S
O637 C657 1.256 . S
C638 O627 1.283 . S
C638 O630 1.243 . S
C639 C641 1.382 . S
C639 C643 1.393 . S
C639 C646 1.500 . S
C640 C641 1.400 . S
C640 C642 1.384 . S
C641 C639 1.382 . S
C641 C640 1.400 . S
C641 H658 0.930 . S
C642 C640 1.384 . S
C642 C644 1.392 . S
C642 H659 0.931 . S
C643 C639 1.393 . S
C643 C644 1.401 . S
C643 H660 0.930 . S
C644 C642 1.392 . S
C644 C643 1.401 . S
C644 H661 0.930 . S
C645 O628 1.262 . S
C645 O629 1.260 . S
C646 Tb582 2.833 . S
C646 O626 1.251 . S
C646 O631 1.256 . S
C646 C639 1.500 . S
C647 H612 0.929 . S
C647 C625 1.444 . S
C647 C648 1.317 . S
C648 H610 0.930 . S
C648 C616 1.432 . S
C648 C647 1.317 . S
C649 O633 1.283 . S
C649 O636 1.243 . S
C650 C651 1.382 . S
C650 C654 1.393 . S
C650 C657 1.500 . S
C651 C650 1.382 . S
C651 C652 1.400 . S
C651 H662 0.930 . S
C652 C651 1.400 . S
C652 C653 1.384 . S
C653 C652 1.384 . S
C653 C655 1.392 . S
C653 H663 0.931 . S
C654 C650 1.393 . S
C654 C655 1.401 . S
C654 H664 0.930 . S
C655 C653 1.392 . S
C655 C654 1.401 . S
C655 H665 0.930 . S
C656 O634 1.262 . S
C656 O635 1.260 . S
C657 Tb593 2.833 . S
C657 O632 1.251 . S
C657 O637 1.256 . S
C657 C650 1.500 . S
H658 C641 0.930 . S
H659 C642 0.931 . S
H660 C643 0.930 . S
H661 C644 0.930 . S
H662 C651 0.930 . S
H663 C653 0.931 . S
H664 C654 0.930 . S
H665 C655 0.930 . S
Tb666 N697 2.660 . S
Tb666 N704 2.600 . S
Tb666 O710 2.546 . S
Tb666 O711 2.610 . S
Tb666 O713 2.320 . S
Tb666 O714 2.552 . S
Tb666 O715 2.413 . S
Tb666 O717 2.362 . S
Tb666 O718 2.421 . S
Tb666 C730 2.833 . S
C667 C670 1.432 . S
C667 C671 1.414 . S
C667 N674 1.359 . S
C668 C670 1.417 . S
C668 C672 1.432 . S
C668 C680 1.410 . S
C669 C671 1.444 . S
C669 C672 1.317 . S
C669 H692 0.929 . S
C670 C667 1.432 . S
C670 C668 1.417 . S
C670 N678 1.360 . S
C671 C667 1.414 . S
C671 C669 1.444 . S
C671 C676 1.385 . S
C672 C668 1.432 . S
C672 C669 1.317 . S
C672 H684 0.930 . S
C673 C675 1.392 . S
C673 C676 1.370 . S
C673 H685 0.931 . S
N674 C667 1.359 . S
N674 C675 1.327 . S
N674 Tb677 2.600 . S
C675 C673 1.392 . S
C675 N674 1.327 . S
C675 H682 0.930 . S
C676 C671 1.385 . S
C676 C673 1.370 . S
C676 H695 0.930 . S
Tb677 N674 2.600 . S
Tb677 N678 2.660 . S
Tb677 O711 2.362 . S
Tb677 O712 2.421 . S
Tb677 O716 2.546 . S
Tb677 O717 2.610 . S
Tb677 O719 2.320 . S
Tb677 O720 2.552 . S
Tb677 O721 2.413 . S
Tb677 C741 2.833 . S
N678 C670 1.360 . S
N678 Tb677 2.660 . S
N678 C679 1.305 . S
C679 N678 1.305 . S
C679 C681 1.407 . S
C679 H686 0.930 . S
C680 C668 1.410 . S
C680 C681 1.345 . S
C680 H688 0.930 . S
C681 C679 1.407 . S
C681 C680 1.345 . S
C681 H683 0.930 . S
H682 C675 0.930 . S
H683 C681 0.930 . S
H684 C672 0.930 . S
H685 C673 0.931 . S
H686 C679 0.930 . S
H687 C701 0.930 . S
H688 C680 0.930 . S
H689 C707 0.930 . S
H690 C698 0.930 . S
H691 C705 0.931 . S
H692 C669 0.929 . S
H693 C699 0.930 . S
H694 C732 0.930 . S
H695 C676 0.930 . S
H696 C731 0.929 . S
N697 Tb666 2.660 . S
N697 C698 1.305 . S
N697 C702 1.360 . S
C698 H690 0.930 . S
C698 N697 1.305 . S
C698 C701 1.407 . S
C699 H693 0.930 . S
C699 C700 1.410 . S
C699 C701 1.345 . S
C700 C699 1.410 . S
C700 C702 1.417 . S
C700 C732 1.432 . S
C701 H687 0.930 . S
C701 C698 1.407 . S
C701 C699 1.345 . S
C702 N697 1.360 . S
C702 C700 1.417 . S
C702 C706 1.432 . S
H703 C708 0.930 . S
N704 Tb666 2.600 . S
N704 C706 1.359 . S
N704 C707 1.327 . S
C705 H691 0.931 . S
C705 C707 1.392 . S
C705 C708 1.370 . S
C706 C702 1.432 . S
C706 N704 1.359 . S
C706 C709 1.414 . S
C707 H689 0.930 . S
C707 N704 1.327 . S
C707 C705 1.392 . S
C708 H703 0.930 . S
C708 C705 1.370 . S
C708 C709 1.385 . S
C709 C706 1.414 . S
C709 C708 1.385 . S
C709 C731 1.444 . S
O710 Tb666 2.546 . S
O710 C730 1.251 . S
O711 Tb666 2.610 . S
O711 Tb677 2.362 . S
O711 C722 1.283 . S
O712 Tb677 2.421 . S
O712 C729 1.262 . S
O713 Tb666 2.320 . S
O713 C729 1.260 . S
O714 Tb666 2.552 . S
O714 C722 1.243 . S
O715 Tb666 2.413 . S
O715 C730 1.256 . S
O716 Tb677 2.546 . S
O716 C741 1.251 . S
O717 Tb666 2.362 . S
O717 Tb677 2.610 . S
O717 C733 1.283 . S
O718 Tb666 2.421 . S
O718 C740 1.262 . S
O719 Tb677 2.320 . S
O719 C740 1.260 . S
O720 Tb677 2.552 . S
O720 C733 1.243 . S
O721 Tb677 2.413 . S
O721 C741 1.256 . S
C722 O711 1.283 . S
C722 O714 1.243 . S
C723 C725 1.382 . S
C723 C727 1.393 . S
C723 C730 1.500 . S
C724 C725 1.400 . S
C724 C726 1.384 . S
C725 C723 1.382 . S
C725 C724 1.400 . S
C725 H742 0.930 . S
C726 C724 1.384 . S
C726 C728 1.392 . S
C726 H743 0.931 . S
C727 C723 1.393 . S
C727 C728 1.401 . S
C727 H744 0.930 . S
C728 C726 1.392 . S
C728 C727 1.401 . S
C728 H745 0.930 . S
C729 O712 1.262 . S
C729 O713 1.260 . S
C730 Tb666 2.833 . S
C730 O710 1.251 . S
C730 O715 1.256 . S
C730 C723 1.500 . S
C731 H696 0.929 . S
C731 C709 1.444 . S
C731 C732 1.317 . S
C732 H694 0.930 . S
C732 C700 1.432 . S
C732 C731 1.317 . S
C733 O717 1.283 . S
C733 O720 1.243 . S
C734 C735 1.382 . S
C734 C738 1.393 . S
C734 C741 1.500 . S
C735 C734 1.382 . S
C735 C736 1.400 . S
C735 H746 0.930 . S
C736 C735 1.400 . S
C736 C737 1.384 . S
C737 C736 1.384 . S
C737 C739 1.392 . S
C737 H747 0.931 . S
C738 C734 1.393 . S
C738 C739 1.401 . S
C738 H748 0.930 . S
C739 C737 1.392 . S
C739 C738 1.401 . S
C739 H749 0.930 . S
C740 O718 1.262 . S
C740 O719 1.260 . S
C741 Tb677 2.833 . S
C741 O716 1.251 . S
C741 O721 1.256 . S
C741 C734 1.500 . S
H742 C725 0.930 . S
H743 C726 0.931 . S
H744 C727 0.930 . S
H745 C728 0.930 . S
H746 C735 0.930 . S
H747 C737 0.931 . S
H748 C738 0.930 . S
H749 C739 0.930 . S
Tb750 N781 2.660 . S
Tb750 N788 2.600 . S
Tb750 O794 2.546 . S
Tb750 O795 2.610 . S
Tb750 O797 2.320 . S
Tb750 O798 2.552 . S
Tb750 O799 2.413 . S
Tb750 O801 2.362 . S
Tb750 O802 2.421 . S
Tb750 C814 2.833 . S
C751 C754 1.432 . S
C751 C755 1.414 . S
C751 N758 1.359 . S
C752 C754 1.417 . S
C752 C756 1.432 . S
C752 C764 1.410 . S
C753 C755 1.444 . S
C753 C756 1.317 . S
C753 H776 0.929 . S
C754 C751 1.432 . S
C754 C752 1.417 . S
C754 N762 1.360 . S
C755 C751 1.414 . S
C755 C753 1.444 . S
C755 C760 1.385 . S
C756 C752 1.432 . S
C756 C753 1.317 . S
C756 H768 0.930 . S
C757 C759 1.392 . S
C757 C760 1.370 . S
C757 H769 0.931 . S
N758 C751 1.359 . S
N758 C759 1.327 . S
N758 Tb761 2.600 . S
C759 C757 1.392 . S
C759 N758 1.327 . S
C759 H766 0.930 . S
C760 C755 1.385 . S
C760 C757 1.370 . S
C760 H779 0.930 . S
Tb761 N758 2.600 . S
Tb761 N762 2.660 . S
Tb761 O795 2.362 . S
Tb761 O796 2.421 . S
Tb761 O800 2.546 . S
Tb761 O801 2.610 . S
Tb761 O803 2.320 . S
Tb761 O804 2.552 . S
Tb761 O805 2.413 . S
Tb761 C825 2.833 . S
N762 C754 1.360 . S
N762 Tb761 2.660 . S
N762 C763 1.305 . S
C763 N762 1.305 . S
C763 C765 1.407 . S
C763 H770 0.930 . S
C764 C752 1.410 . S
C764 C765 1.345 . S
C764 H772 0.930 . S
C765 C763 1.407 . S
C765 C764 1.345 . S
C765 H767 0.930 . S
H766 C759 0.930 . S
H767 C765 0.930 . S
H768 C756 0.930 . S
H769 C757 0.931 . S
H770 C763 0.930 . S
H771 C785 0.930 . S
H772 C764 0.930 . S
H773 C791 0.930 . S
H774 C782 0.930 . S
H775 C789 0.931 . S
H776 C753 0.929 . S
H777 C783 0.930 . S
H778 C816 0.930 . S
H779 C760 0.930 . S
H780 C815 0.929 . S
N781 Tb750 2.660 . S
N781 C782 1.305 . S
N781 C786 1.360 . S
C782 H774 0.930 . S
C782 N781 1.305 . S
C782 C785 1.407 . S
C783 H777 0.930 . S
C783 C784 1.410 . S
C783 C785 1.345 . S
C784 C783 1.410 . S
C784 C786 1.417 . S
C784 C816 1.432 . S
C785 H771 0.930 . S
C785 C782 1.407 . S
C785 C783 1.345 . S
C786 N781 1.360 . S
C786 C784 1.417 . S
C786 C790 1.432 . S
H787 C792 0.930 . S
N788 Tb750 2.600 . S
N788 C790 1.359 . S
N788 C791 1.327 . S
C789 H775 0.931 . S
C789 C791 1.392 . S
C789 C792 1.370 . S
C790 C786 1.432 . S
C790 N788 1.359 . S
C790 C793 1.414 . S
C791 H773 0.930 . S
C791 N788 1.327 . S
C791 C789 1.392 . S
C792 H787 0.930 . S
C792 C789 1.370 . S
C792 C793 1.385 . S
C793 C790 1.414 . S
C793 C792 1.385 . S
C793 C815 1.444 . S
O794 Tb750 2.546 . S
O794 C814 1.251 . S
O795 Tb750 2.610 . S
O795 Tb761 2.362 . S
O795 C806 1.283 . S
O796 Tb761 2.421 . S
O796 C813 1.262 . S
O797 Tb750 2.320 . S
O797 C813 1.260 . S
O798 Tb750 2.552 . S
O798 C806 1.243 . S
O799 Tb750 2.413 . S
O799 C814 1.256 . S
O800 Tb761 2.546 . S
O800 C825 1.251 . S
O801 Tb750 2.362 . S
O801 Tb761 2.610 . S
O801 C817 1.283 . S
O802 Tb750 2.421 . S
O802 C824 1.262 . S
O803 Tb761 2.320 . S
O803 C824 1.260 . S
O804 Tb761 2.552 . S
O804 C817 1.243 . S
O805 Tb761 2.413 . S
O805 C825 1.256 . S
C806 O795 1.283 . S
C806 O798 1.243 . S
C807 C809 1.382 . S
C807 C811 1.393 . S
C807 C814 1.500 . S
C808 C809 1.400 . S
C808 C810 1.384 . S
C809 C807 1.382 . S
C809 C808 1.400 . S
C809 H826 0.930 . S
C810 C808 1.384 . S
C810 C812 1.392 . S
C810 H827 0.931 . S
C811 C807 1.393 . S
C811 C812 1.401 . S
C811 H828 0.930 . S
C812 C810 1.392 . S
C812 C811 1.401 . S
C812 H829 0.930 . S
C813 O796 1.262 . S
C813 O797 1.260 . S
C814 Tb750 2.833 . S
C814 O794 1.251 . S
C814 O799 1.256 . S
C814 C807 1.500 . S
C815 H780 0.929 . S
C815 C793 1.444 . S
C815 C816 1.317 . S
C816 H778 0.930 . S
C816 C784 1.432 . S
C816 C815 1.317 . S
C817 O801 1.283 . S
C817 O804 1.243 . S
C818 C819 1.382 . S
C818 C822 1.393 . S
C818 C825 1.500 . S
C819 C818 1.382 . S
C819 C820 1.400 . S
C819 H830 0.930 . S
C820 C819 1.400 . S
C820 C821 1.384 . S
C821 C820 1.384 . S
C821 C823 1.392 . S
C821 H831 0.931 . S
C822 C818 1.393 . S
C822 C823 1.401 . S
C822 H832 0.930 . S
C823 C821 1.392 . S
C823 C822 1.401 . S
C823 H833 0.930 . S
C824 O802 1.262 . S
C824 O803 1.260 . S
C825 Tb761 2.833 . S
C825 O800 1.251 . S
C825 O805 1.256 . S
C825 C818 1.500 . S
H826 C809 0.930 . S
H827 C810 0.931 . S
H828 C811 0.930 . S
H829 C812 0.930 . S
H830 C819 0.930 . S
H831 C821 0.931 . S
H832 C822 0.930 . S
H833 C823 0.930 . S
Tb834 N865 2.660 . S
Tb834 N872 2.600 . S
Tb834 O878 2.546 . S
Tb834 O879 2.610 . S
Tb834 O881 2.320 . S
Tb834 O882 2.552 . S
Tb834 O883 2.413 . S
Tb834 O885 2.362 . S
Tb834 O886 2.421 . S
Tb834 C898 2.833 . S
C835 C838 1.432 . S
C835 C839 1.414 . S
C835 N842 1.359 . S
C836 C838 1.417 . S
C836 C840 1.432 . S
C836 C848 1.410 . S
C837 C839 1.444 . S
C837 C840 1.317 . S
C837 H860 0.929 . S
C838 C835 1.432 . S
C838 C836 1.417 . S
C838 N846 1.360 . S
C839 C835 1.414 . S
C839 C837 1.444 . S
C839 C844 1.385 . S
C840 C836 1.432 . S
C840 C837 1.317 . S
C840 H852 0.930 . S
C841 C843 1.392 . S
C841 C844 1.370 . S
C841 H853 0.931 . S
N842 C835 1.359 . S
N842 C843 1.327 . S
N842 Tb845 2.600 . S
C843 C841 1.392 . S
C843 N842 1.327 . S
C843 H850 0.930 . S
C844 C839 1.385 . S
C844 C841 1.370 . S
C844 H863 0.930 . S
Tb845 N842 2.600 . S
Tb845 N846 2.660 . S
Tb845 O879 2.362 . S
Tb845 O880 2.421 . S
Tb845 O884 2.546 . S
Tb845 O885 2.610 . S
Tb845 O887 2.320 . S
Tb845 O888 2.552 . S
Tb845 O889 2.413 . S
Tb845 C909 2.833 . S
N846 C838 1.360 . S
N846 Tb845 2.660 . S
N846 C847 1.305 . S
C847 N846 1.305 . S
C847 C849 1.407 . S
C847 H854 0.930 . S
C848 C836 1.410 . S
C848 C849 1.345 . S
C848 H856 0.930 . S
C849 C847 1.407 . S
C849 C848 1.345 . S
C849 H851 0.930 . S
H850 C843 0.930 . S
H851 C849 0.930 . S
H852 C840 0.930 . S
H853 C841 0.931 . S
H854 C847 0.930 . S
H855 C869 0.930 . S
H856 C848 0.930 . S
H857 C875 0.930 . S
H858 C866 0.930 . S
H859 C873 0.931 . S
H860 C837 0.929 . S
H861 C867 0.930 . S
H862 C900 0.930 . S
H863 C844 0.930 . S
H864 C899 0.929 . S
N865 Tb834 2.660 . S
N865 C866 1.305 . S
N865 C870 1.360 . S
C866 H858 0.930 . S
C866 N865 1.305 . S
C866 C869 1.407 . S
C867 H861 0.930 . S
C867 C868 1.410 . S
C867 C869 1.345 . S
C868 C867 1.410 . S
C868 C870 1.417 . S
C868 C900 1.432 . S
C869 H855 0.930 . S
C869 C866 1.407 . S
C869 C867 1.345 . S
C870 N865 1.360 . S
C870 C868 1.417 . S
C870 C874 1.432 . S
H871 C876 0.930 . S
N872 Tb834 2.600 . S
N872 C874 1.359 . S
N872 C875 1.327 . S
C873 H859 0.931 . S
C873 C875 1.392 . S
C873 C876 1.370 . S
C874 C870 1.432 . S
C874 N872 1.359 . S
C874 C877 1.414 . S
C875 H857 0.930 . S
C875 N872 1.327 . S
C875 C873 1.392 . S
C876 H871 0.930 . S
C876 C873 1.370 . S
C876 C877 1.385 . S
C877 C874 1.414 . S
C877 C876 1.385 . S
C877 C899 1.444 . S
O878 Tb834 2.546 . S
O878 C898 1.251 . S
O879 Tb834 2.610 . S
O879 Tb845 2.362 . S
O879 C890 1.283 . S
O880 Tb845 2.421 . S
O880 C897 1.262 . S
O881 Tb834 2.320 . S
O881 C897 1.260 . S
O882 Tb834 2.552 . S
O882 C890 1.243 . S
O883 Tb834 2.413 . S
O883 C898 1.256 . S
O884 Tb845 2.546 . S
O884 C909 1.251 . S
O885 Tb834 2.362 . S
O885 Tb845 2.610 . S
O885 C901 1.283 . S
O886 Tb834 2.421 . S
O886 C908 1.262 . S
O887 Tb845 2.320 . S
O887 C908 1.260 . S
O888 Tb845 2.552 . S
O888 C901 1.243 . S
O889 Tb845 2.413 . S
O889 C909 1.256 . S
C890 O879 1.283 . S
C890 O882 1.243 . S
C891 C893 1.382 . S
C891 C895 1.393 . S
C891 C898 1.500 . S
C892 C893 1.400 . S
C892 C894 1.384 . S
C893 C891 1.382 . S
C893 C892 1.400 . S
C893 H910 0.930 . S
C894 C892 1.384 . S
C894 C896 1.392 . S
C894 H911 0.931 . S
C895 C891 1.393 . S
C895 C896 1.401 . S
C895 H912 0.930 . S
C896 C894 1.392 . S
C896 C895 1.401 . S
C896 H913 0.930 . S
C897 O880 1.262 . S
C897 O881 1.260 . S
C898 Tb834 2.833 . S
C898 O878 1.251 . S
C898 O883 1.256 . S
C898 C891 1.500 . S
C899 H864 0.929 . S
C899 C877 1.444 . S
C899 C900 1.317 . S
C900 H862 0.930 . S
C900 C868 1.432 . S
C900 C899 1.317 . S
C901 O885 1.283 . S
C901 O888 1.243 . S
C902 C903 1.382 . S
C902 C906 1.393 . S
C902 C909 1.500 . S
C903 C902 1.382 . S
C903 C904 1.400 . S
C903 H914 0.930 . S
C904 C903 1.400 . S
C904 C905 1.384 . S
C905 C904 1.384 . S
C905 C907 1.392 . S
C905 H915 0.931 . S
C906 C902 1.393 . S
C906 C907 1.401 . S
C906 H916 0.930 . S
C907 C905 1.392 . S
C907 C906 1.401 . S
C907 H917 0.930 . S
C908 O886 1.262 . S
C908 O887 1.260 . S
C909 Tb845 2.833 . S
C909 O884 1.251 . S
C909 O889 1.256 . S
C909 C902 1.500 . S
H910 C893 0.930 . S
H911 C894 0.931 . S
H912 C895 0.930 . S
H913 C896 0.930 . S
H914 C903 0.930 . S
H915 C905 0.931 . S
H916 C906 0.930 . S
H917 C907 0.930 . S
H918 C936 0.951 . S
H919 C938 0.951 . S
H920 C940 0.950 . S
H921 C941 0.950 . S
H922 C943 0.950 . S
H923 C946 0.950 . S
H924 C947 0.950 . S
H925 C949 0.950 . S
H926 C950 0.950 . S
H927 C951 0.951 . S
H928 C953 0.951 . S
H929 C955 0.950 . S
H930 C956 0.926 1_556 S
H931 C958 0.950 . S
H932 C961 0.950 . S
H933 C962 0.950 . S
H934 C964 0.950 . S
H935 C965 0.950 . S
C936 H918 0.951 . S
C936 C937 1.366 . S
C936 C938 1.388 . S
C937 C936 1.366 . S
C937 C941 1.385 . S
C938 H919 0.951 . S
C938 C936 1.388 . S
C938 C939 1.366 . S
C939 C938 1.366 . S
C939 C940 1.414 . S
C939 C942 1.499 . S
C940 H920 0.950 . S
C940 C939 1.414 . S
C940 C941 1.374 . S
C941 H921 0.950 . S
C941 C937 1.385 . S
C941 C940 1.374 . S
C942 C939 1.499 . S
C942 C943 1.373 . S
C942 C944 1.389 . S
C943 H922 0.950 . S
C943 C942 1.373 . S
C943 C959 1.377 . S
C944 C942 1.389 . S
C944 C945 1.524 . S
C944 C958 1.377 . S
C945 C944 1.524 . S
C945 C946 1.397 . S
C945 C950 1.363 . S
C946 H923 0.950 . S
C946 C945 1.397 . S
C946 C947 1.334 . S
C947 H924 0.950 . S
C947 C946 1.334 . S
C947 C948 1.287 . S
C948 C947 1.287 . S
C948 C949 1.524 . S
C948 H967 0.913 . S
C949 H925 0.950 . S
C949 C948 1.524 . S
C949 C950 1.415 . S
C950 H926 0.950 . S
C950 C945 1.363 . S
C950 C949 1.415 . S
C951 H927 0.951 . S
C951 C952 1.366 . S
C951 C953 1.388 . S
C952 C951 1.366 . S
C952 C956 1.385 . S
C953 H928 0.951 . S
C953 C951 1.388 . S
C953 C954 1.366 . S
C954 C953 1.366 . S
C954 C955 1.414 . S
C954 C957 1.499 . S
C955 H929 0.950 . S
C955 C954 1.414 . S
C955 C956 1.374 . S
C956 H930 0.926 1_554 S
C956 C952 1.385 . S
C956 C955 1.374 . S
C957 C954 1.499 . S
C957 C958 1.373 . S
C957 C959 1.389 . S
C958 H931 0.950 . S
C958 C944 1.377 . S
C958 C957 1.373 . S
C959 C943 1.377 . S
C959 C957 1.389 . S
C959 C960 1.524 . S
C960 C959 1.524 . S
C960 C961 1.397 . S
C960 C965 1.363 . S
C961 H932 0.950 . S
C961 C960 1.397 . S
C961 C962 1.334 . S
C962 H933 0.950 . S
C962 C961 1.334 . S
C962 C963 1.287 . S
C963 C962 1.287 . S
C963 C964 1.524 . S
C963 H966 0.999 . S
C964 H934 0.950 . S
C964 C963 1.524 . S
C964 C965 1.415 . S
C965 H935 0.950 . S
C965 C960 1.363 . S
C965 C964 1.415 . S
H966 C963 0.999 . S
H967 C948 0.913 . S
H968 C986 0.951 . S
H969 C988 0.951 . S
H970 C990 0.950 . S
H971 C991 0.950 . S
H972 C993 0.950 . S
H973 C996 0.950 . S
H974 C997 0.950 . S
H975 C999 0.950 . S
H976 C1000 0.950 . S
H977 C1001 0.951 . S
H978 C1003 0.951 . S
H979 C1005 0.950 . S
H980 C1006 0.950 . S
H981 C1008 0.950 . S
H982 C1011 0.950 . S
H983 C1012 0.950 . S
H984 C1014 0.950 . S
H985 C1015 0.950 . S
C986 H968 0.951 . S
C986 C987 1.366 . S
C986 C988 1.388 . S
C987 C986 1.366 . S
C987 C991 1.385 . S
C988 H969 0.951 . S
C988 C986 1.388 . S
C988 C989 1.366 . S
C989 C988 1.366 . S
C989 C990 1.414 . S
C989 C992 1.499 . S
C990 H970 0.950 . S
C990 C989 1.414 . S
C990 C991 1.374 . S
C991 H971 0.950 . S
C991 C987 1.385 . S
C991 C990 1.374 . S
C992 C989 1.499 . S
C992 C993 1.373 . S
C992 C994 1.389 . S
C993 H972 0.950 . S
C993 C992 1.373 . S
C993 C1009 1.377 . S
C994 C992 1.389 . S
C994 C995 1.524 . S
C994 C1008 1.377 . S
C995 C994 1.524 . S
C995 C996 1.397 . S
C995 C1000 1.363 . S
C996 H973 0.950 . S
C996 C995 1.397 . S
C996 C997 1.334 . S
C997 H974 0.950 . S
C997 C996 1.334 . S
C997 C998 1.287 . S
C998 C997 1.287 . S
C998 C999 1.524 . S
C998 H1017 0.913 . S
C999 H975 0.950 . S
C999 C998 1.524 . S
C999 C1000 1.415 . S
C1000 H976 0.950 . S
C1000 C995 1.363 . S
C1000 C999 1.415 . S
C1001 H977 0.951 . S
C1001 C1002 1.366 . S
C1001 C1003 1.388 . S
C1002 C1001 1.366 . S
C1002 C1006 1.385 . S
C1003 H978 0.951 . S
C1003 C1001 1.388 . S
C1003 C1004 1.366 . S
C1004 C1003 1.366 . S
C1004 C1005 1.414 . S
C1004 C1007 1.499 . S
C1005 H979 0.950 . S
C1005 C1004 1.414 . S
C1005 C1006 1.374 . S
C1006 H980 0.950 . S
C1006 C1002 1.385 . S
C1006 C1005 1.374 . S
C1007 C1004 1.499 . S
C1007 C1008 1.373 . S
C1007 C1009 1.389 . S
C1008 H981 0.950 . S
C1008 C994 1.377 . S
C1008 C1007 1.373 . S
C1009 C993 1.377 . S
C1009 C1007 1.389 . S
C1009 C1010 1.524 . S
C1010 C1009 1.524 . S
C1010 C1011 1.397 . S
C1010 C1015 1.363 . S
C1011 H982 0.950 . S
C1011 C1010 1.397 . S
C1011 C1012 1.334 . S
C1012 H983 0.950 . S
C1012 C1011 1.334 . S
C1012 C1013 1.287 . S
C1013 C1012 1.287 . S
C1013 C1014 1.524 . S
C1013 H1016 0.999 . S
C1014 H984 0.950 . S
C1014 C1013 1.524 . S
C1014 C1015 1.415 . S
C1015 H985 0.950 . S
C1015 C1010 1.363 . S
C1015 C1014 1.415 . S
H1016 C1013 0.999 . S
H1017 C998 0.913 . S
H1018 C1036 0.951 . S
H1019 C1038 0.951 . S
H1020 C1040 0.950 . S
H1021 C1041 0.950 . S
H1022 C1043 0.950 . S
H1023 C1046 0.950 . S
H1024 C1047 0.950 . S
H1025 C1049 0.950 . S
H1026 C1050 0.950 . S
H1027 C1051 0.951 . S
H1028 C1053 0.951 . S
H1029 C1055 0.950 . S
H1030 C1056 0.950 . S
H1031 C1058 0.950 . S
H1032 C1061 0.950 . S
H1033 C1062 0.950 . S
H1034 C1064 0.950 . S
H1035 C1065 0.950 . S
C1036 H1018 0.951 . S
C1036 C1037 1.366 . S
C1036 C1038 1.388 . S
C1037 C1036 1.366 . S
C1037 C1041 1.385 . S
C1038 H1019 0.951 . S
C1038 C1036 1.388 . S
C1038 C1039 1.366 . S
C1039 C1038 1.366 . S
C1039 C1040 1.414 . S
C1039 C1042 1.499 . S
C1040 H1020 0.950 . S
C1040 C1039 1.414 . S
C1040 C1041 1.374 . S
C1041 H1021 0.950 . S
C1041 C1037 1.385 . S
C1041 C1040 1.374 . S
C1042 C1039 1.499 . S
C1042 C1043 1.373 . S
C1042 C1044 1.389 . S
C1043 H1022 0.950 . S
C1043 C1042 1.373 . S
C1043 C1059 1.377 . S
C1044 C1042 1.389 . S
C1044 C1045 1.524 . S
C1044 C1058 1.377 . S
C1045 C1044 1.524 . S
C1045 C1046 1.397 . S
C1045 C1050 1.363 . S
C1046 H1023 0.950 . S
C1046 C1045 1.397 . S
C1046 C1047 1.334 . S
C1047 H1024 0.950 . S
C1047 C1046 1.334 . S
C1047 C1048 1.287 . S
C1048 C1047 1.287 . S
C1048 C1049 1.524 . S
C1048 H1067 0.913 . S
C1049 H1025 0.950 . S
C1049 C1048 1.524 . S
C1049 C1050 1.415 . S
C1050 H1026 0.950 . S
C1050 C1045 1.363 . S
C1050 C1049 1.415 . S
C1051 H1027 0.951 . S
C1051 C1052 1.366 . S
C1051 C1053 1.388 . S
C1052 C1051 1.366 . S
C1052 C1056 1.385 . S
C1053 H1028 0.951 . S
C1053 C1051 1.388 . S
C1053 C1054 1.366 . S
C1054 C1053 1.366 . S
C1054 C1055 1.414 . S
C1054 C1057 1.499 . S
C1055 H1029 0.950 . S
C1055 C1054 1.414 . S
C1055 C1056 1.374 . S
C1056 H1030 0.950 . S
C1056 C1052 1.385 . S
C1056 C1055 1.374 . S
C1057 C1054 1.499 . S
C1057 C1058 1.373 . S
C1057 C1059 1.389 . S
C1058 H1031 0.950 . S
C1058 C1044 1.377 . S
C1058 C1057 1.373 . S
C1059 C1043 1.377 . S
C1059 C1057 1.389 . S
C1059 C1060 1.524 . S
C1060 C1059 1.524 . S
C1060 C1061 1.397 . S
C1060 C1065 1.363 . S
C1061 H1032 0.950 . S
C1061 C1060 1.397 . S
C1061 C1062 1.334 . S
C1062 H1033 0.950 . S
C1062 C1061 1.334 . S
C1062 C1063 1.287 . S
C1063 C1062 1.287 . S
C1063 C1064 1.524 . S
C1063 H1066 0.999 . S
C1064 H1034 0.950 . S
C1064 C1063 1.524 . S
C1064 C1065 1.415 . S
C1065 H1035 0.950 . S
C1065 C1060 1.363 . S
C1065 C1064 1.415 . S
H1066 C1063 0.999 . S
H1067 C1048 0.913 . S
H1068 C1086 0.951 . S
H1069 C1088 0.951 . S
H1070 C1090 0.950 . S
H1071 C1091 0.950 . S
H1072 C1093 0.950 . S
H1073 C1096 0.950 . S
H1074 C1097 0.950 . S
H1075 C1099 0.950 . S
H1076 C1100 0.950 . S
H1077 C1101 0.951 . S
H1078 C1103 0.951 . S
H1079 C1105 0.950 . S
H1080 C1106 0.950 . S
H1081 C1108 0.950 . S
H1082 C1111 0.950 . S
H1083 C1112 0.950 . S
H1084 C1114 0.950 . S
H1085 C1115 0.950 . S
C1086 H1068 0.951 . S
C1086 C1087 1.366 . S
C1086 C1088 1.388 . S
C1087 C1086 1.366 . S
C1087 C1091 1.385 . S
C1088 H1069 0.951 . S
C1088 C1086 1.388 . S
C1088 C1089 1.366 . S
C1089 C1088 1.366 . S
C1089 C1090 1.414 . S
C1089 C1092 1.499 . S
C1090 H1070 0.950 . S
C1090 C1089 1.414 . S
C1090 C1091 1.374 . S
C1091 H1071 0.950 . S
C1091 C1087 1.385 . S
C1091 C1090 1.374 . S
C1092 C1089 1.499 . S
C1092 C1093 1.373 . S
C1092 C1094 1.389 . S
C1093 H1072 0.950 . S
C1093 C1092 1.373 . S
C1093 C1109 1.377 . S
C1094 C1092 1.389 . S
C1094 C1095 1.524 . S
C1094 C1108 1.377 . S
C1095 C1094 1.524 . S
C1095 C1096 1.397 . S
C1095 C1100 1.363 . S
C1096 H1073 0.950 . S
C1096 C1095 1.397 . S
C1096 C1097 1.334 . S
C1097 H1074 0.950 . S
C1097 C1096 1.334 . S
C1097 C1098 1.287 . S
C1098 C1097 1.287 . S
C1098 C1099 1.524 . S
C1098 H1117 0.954 . S
C1099 H1075 0.950 . S
C1099 C1098 1.524 . S
C1099 C1100 1.415 . S
C1100 H1076 0.950 . S
C1100 C1095 1.363 . S
C1100 C1099 1.415 . S
C1101 H1077 0.951 . S
C1101 C1102 1.366 . S
C1101 C1103 1.388 . S
C1102 C1101 1.366 . S
C1102 C1106 1.385 . S
C1103 H1078 0.951 . S
C1103 C1101 1.388 . S
C1103 C1104 1.366 . S
C1104 C1103 1.366 . S
C1104 C1105 1.414 . S
C1104 C1107 1.499 . S
C1105 H1079 0.950 . S
C1105 C1104 1.414 . S
C1105 C1106 1.374 . S
C1106 H1080 0.950 . S
C1106 C1102 1.385 . S
C1106 C1105 1.374 . S
C1107 C1104 1.499 . S
C1107 C1108 1.373 . S
C1107 C1109 1.389 . S
C1108 H1081 0.950 . S
C1108 C1094 1.377 . S
C1108 C1107 1.373 . S
C1109 C1093 1.377 . S
C1109 C1107 1.389 . S
C1109 C1110 1.524 . S
C1110 C1109 1.524 . S
C1110 C1111 1.397 . S
C1110 C1115 1.363 . S
C1111 H1082 0.950 . S
C1111 C1110 1.397 . S
C1111 C1112 1.334 . S
C1112 H1083 0.950 . S
C1112 C1111 1.334 . S
C1112 C1113 1.287 . S
C1113 C1112 1.287 . S
C1113 C1114 1.524 . S
C1113 H1116 0.999 . S
C1114 H1084 0.950 . S
C1114 C1113 1.524 . S
C1114 C1115 1.415 . S
C1115 H1085 0.950 . S
C1115 C1110 1.363 . S
C1115 C1114 1.415 . S
H1116 C1113 0.999 . S
H1117 C1098 0.954 . S
H1118 C1136 0.951 . S
H1119 C1138 0.951 . S
H1120 C1140 0.950 . S
H1121 C1141 0.950 . S
H1122 C1143 0.950 . S
H1123 C1146 0.950 . S
H1124 C1147 0.950 . S
H1125 C1149 0.950 1_554 S
H1126 C1150 0.950 . S
H1127 C1151 0.951 . S
H1128 C1153 0.951 . S
H1129 C1155 0.950 . S
H1130 C1156 0.950 1_554 S
H1131 C1158 0.950 . S
H1132 C1161 0.950 . S
H1133 C1162 0.950 . S
H1134 C1164 0.950 . S
H1135 C1165 0.950 . S
C1136 H1118 0.951 . S
C1136 C1137 1.366 . S
C1136 C1138 1.388 . S
C1137 C1136 1.366 . S
C1137 C1141 1.385 . S
C1138 H1119 0.951 . S
C1138 C1136 1.388 . S
C1138 C1139 1.366 . S
C1139 C1138 1.366 . S
C1139 C1140 1.414 . S
C1139 C1142 1.499 . S
C1140 H1120 0.950 . S
C1140 C1139 1.414 . S
C1140 C1141 1.374 . S
C1141 H1121 0.950 . S
C1141 C1137 1.385 . S
C1141 C1140 1.374 . S
C1142 C1139 1.499 . S
C1142 C1143 1.373 . S
C1142 C1144 1.389 . S
C1143 H1122 0.950 . S
C1143 C1142 1.373 . S
C1143 C1159 1.377 . S
C1144 C1142 1.389 . S
C1144 C1145 1.524 . S
C1144 C1158 1.377 . S
C1145 C1144 1.524 . S
C1145 C1146 1.397 . S
C1145 C1150 1.363 . S
C1146 H1123 0.950 . S
C1146 C1145 1.397 . S
C1146 C1147 1.334 . S
C1147 H1124 0.950 . S
C1147 C1146 1.334 . S
C1147 C1148 1.287 . S
C1148 C1147 1.287 . S
C1148 C1149 1.524 . S
C1148 H1167 0.913 . S
C1149 H1125 0.950 1_556 S
C1149 C1148 1.524 . S
C1149 C1150 1.415 . S
C1150 H1126 0.950 . S
C1150 C1145 1.363 . S
C1150 C1149 1.415 . S
C1151 H1127 0.951 . S
C1151 C1152 1.366 . S
C1151 C1153 1.388 . S
C1152 C1151 1.366 . S
C1152 C1156 1.385 . S
C1153 H1128 0.951 . S
C1153 C1151 1.388 . S
C1153 C1154 1.366 . S
C1154 C1153 1.366 . S
C1154 C1155 1.414 . S
C1154 C1157 1.499 . S
C1155 H1129 0.950 . S
C1155 C1154 1.414 . S
C1155 C1156 1.374 . S
C1156 H1130 0.950 1_556 S
C1156 C1152 1.385 . S
C1156 C1155 1.374 . S
C1157 C1154 1.499 . S
C1157 C1158 1.373 . S
C1157 C1159 1.389 . S
C1158 H1131 0.950 . S
C1158 C1144 1.377 . S
C1158 C1157 1.373 . S
C1159 C1143 1.377 . S
C1159 C1157 1.389 . S
C1159 C1160 1.524 . S
C1160 C1159 1.524 . S
C1160 C1161 1.397 . S
C1160 C1165 1.363 . S
C1161 H1132 0.950 . S
C1161 C1160 1.397 . S
C1161 C1162 1.334 . S
C1162 H1133 0.950 . S
C1162 C1161 1.334 . S
C1162 C1163 1.287 . S
C1163 C1162 1.287 . S
C1163 C1164 1.524 . S
C1163 H1166 0.999 . S
C1164 H1134 0.950 . S
C1164 C1163 1.524 . S
C1164 C1165 1.415 . S
C1165 H1135 0.950 . S
C1165 C1160 1.363 . S
C1165 C1164 1.415 . S
H1166 C1163 0.999 . S
H1167 C1148 0.913 . S
H1168 C1186 0.951 . S
H1169 C1188 0.951 . S
H1170 C1190 0.950 . S
H1171 C1191 0.950 . S
H1172 C1193 0.950 . S
H1173 C1196 0.950 . S
H1174 C1197 0.950 . S
H1175 C1199 0.950 . S
H1176 C1200 0.950 . S
H1177 C1201 0.951 . S
H1178 C1203 0.951 . S
H1179 C1205 0.950 . S
H1180 C1206 0.950 . S
H1181 C1208 0.950 . S
H1182 C1211 0.950 . S
H1183 C1212 0.950 . S
H1184 C1214 0.950 . S
H1185 C1215 0.950 . S
C1186 H1168 0.951 . S
C1186 C1187 1.366 . S
C1186 C1188 1.388 . S
C1187 C1186 1.366 . S
C1187 C1191 1.385 . S
C1188 H1169 0.951 . S
C1188 C1186 1.388 . S
C1188 C1189 1.366 . S
C1189 C1188 1.366 . S
C1189 C1190 1.414 . S
C1189 C1192 1.499 . S
C1190 H1170 0.950 . S
C1190 C1189 1.414 . S
C1190 C1191 1.374 . S
C1191 H1171 0.950 . S
C1191 C1187 1.385 . S
C1191 C1190 1.374 . S
C1192 C1189 1.499 . S
C1192 C1193 1.373 . S
C1192 C1194 1.389 . S
C1193 H1172 0.950 . S
C1193 C1192 1.373 . S
C1193 C1209 1.377 . S
C1194 C1192 1.389 . S
C1194 C1195 1.524 . S
C1194 C1208 1.377 . S
C1195 C1194 1.524 . S
C1195 C1196 1.397 . S
C1195 C1200 1.363 . S
C1196 H1173 0.950 . S
C1196 C1195 1.397 . S
C1196 C1197 1.334 . S
C1197 H1174 0.950 . S
C1197 C1196 1.334 . S
C1197 C1198 1.287 1_556 S
C1198 C1197 1.287 1_554 S
C1198 C1199 1.524 . S
C1198 H1217 0.913 . S
C1199 H1175 0.950 . S
C1199 C1198 1.524 . S
C1199 C1200 1.415 1_554 S
C1200 H1176 0.950 . S
C1200 C1195 1.363 . S
C1200 C1199 1.415 1_556 S
C1201 H1177 0.951 . S
C1201 C1202 1.366 . S
C1201 C1203 1.388 . S
C1202 C1201 1.366 . S
C1202 C1206 1.385 . S
C1203 H1178 0.951 . S
C1203 C1201 1.388 . S
C1203 C1204 1.366 . S
C1204 C1203 1.366 . S
C1204 C1205 1.414 . S
C1204 C1207 1.499 . S
C1205 H1179 0.950 . S
C1205 C1204 1.414 . S
C1205 C1206 1.374 . S
C1206 H1180 0.950 . S
C1206 C1202 1.385 . S
C1206 C1205 1.374 . S
C1207 C1204 1.499 . S
C1207 C1208 1.373 . S
C1207 C1209 1.389 . S
C1208 H1181 0.950 . S
C1208 C1194 1.377 . S
C1208 C1207 1.373 . S
C1209 C1193 1.377 . S
C1209 C1207 1.389 . S
C1209 C1210 1.524 . S
C1210 C1209 1.524 . S
C1210 C1211 1.397 . S
C1210 C1215 1.363 . S
C1211 H1182 0.950 . S
C1211 C1210 1.397 . S
C1211 C1212 1.334 . S
C1212 H1183 0.950 . S
C1212 C1211 1.334 . S
C1212 C1213 1.287 . S
C1213 C1212 1.287 . S
C1213 C1214 1.524 . S
C1213 H1216 0.999 . S
C1214 H1184 0.950 . S
C1214 C1213 1.524 . S
C1214 C1215 1.415 . S
C1215 H1185 0.950 . S
C1215 C1210 1.363 . S
C1215 C1214 1.415 . S
H1216 C1213 0.999 . S
H1217 C1198 0.913 . S
H1218 C1236 0.951 . S
H1219 C1238 0.951 . S
H1220 C1240 0.950 . S
H1221 C1241 0.950 . S
H1222 C1243 0.950 . S
H1223 C1246 0.950 . S
H1224 C1247 0.950 . S
H1225 C1249 0.950 . S
H1226 C1250 0.950 . S
H1227 C1251 0.951 . S
H1228 C1253 0.951 . S
H1229 C1255 0.950 . S
H1230 C1256 0.950 . S
H1231 C1258 0.950 . S
H1232 C1261 0.950 . S
H1233 C1262 0.950 1_554 S
H1234 C1264 0.950 . S
H1235 C1265 0.950 . S
C1236 H1218 0.951 . S
C1236 C1237 1.366 . S
C1236 C1238 1.388 . S
C1237 C1236 1.366 . S
C1237 C1241 1.385 . S
C1238 H1219 0.951 . S
C1238 C1236 1.388 . S
C1238 C1239 1.366 . S
C1239 C1238 1.366 . S
C1239 C1240 1.414 . S
C1239 C1242 1.499 . S
C1240 H1220 0.950 . S
C1240 C1239 1.414 . S
C1240 C1241 1.374 . S
C1241 H1221 0.950 . S
C1241 C1237 1.385 . S
C1241 C1240 1.374 . S
C1242 C1239 1.499 . S
C1242 C1243 1.373 . S
C1242 C1244 1.389 . S
C1243 H1222 0.950 . S
C1243 C1242 1.373 . S
C1243 C1259 1.377 . S
C1244 C1242 1.389 . S
C1244 C1245 1.524 . S
C1244 C1258 1.377 . S
C1245 C1244 1.524 . S
C1245 C1246 1.397 . S
C1245 C1250 1.363 . S
C1246 H1223 0.950 . S
C1246 C1245 1.397 . S
C1246 C1247 1.334 . S
C1247 H1224 0.950 . S
C1247 C1246 1.334 . S
C1247 C1248 1.287 . S
C1248 C1247 1.287 . S
C1248 C1249 1.524 . S
C1248 H1267 0.913 . S
C1249 H1225 0.950 . S
C1249 C1248 1.524 . S
C1249 C1250 1.415 . S
C1250 H1226 0.950 . S
C1250 C1245 1.363 . S
C1250 C1249 1.415 . S
C1251 H1227 0.951 . S
C1251 C1252 1.366 . S
C1251 C1253 1.388 . S
C1252 C1251 1.366 . S
C1252 C1256 1.385 . S
C1253 H1228 0.951 . S
C1253 C1251 1.388 . S
C1253 C1254 1.366 . S
C1254 C1253 1.366 . S
C1254 C1255 1.414 . S
C1254 C1257 1.499 . S
C1255 H1229 0.950 . S
C1255 C1254 1.414 . S
C1255 C1256 1.374 . S
C1256 H1230 0.950 . S
C1256 C1252 1.385 . S
C1256 C1255 1.374 . S
C1257 C1254 1.499 . S
C1257 C1258 1.373 . S
C1257 C1259 1.389 . S
C1258 H1231 0.950 . S
C1258 C1244 1.377 . S
C1258 C1257 1.373 . S
C1259 C1243 1.377 . S
C1259 C1257 1.389 . S
C1259 C1260 1.524 . S
C1260 C1259 1.524 . S
C1260 C1261 1.397 . S
C1260 C1265 1.363 . S
C1261 H1232 0.950 . S
C1261 C1260 1.397 . S
C1261 C1262 1.334 . S
C1262 H1233 0.950 1_556 S
C1262 C1261 1.334 . S
C1262 C1263 1.287 . S
C1263 C1262 1.287 . S
C1263 C1264 1.524 . S
C1263 H1266 0.999 . S
C1264 H1234 0.950 . S
C1264 C1263 1.524 . S
C1264 C1265 1.415 . S
C1265 H1235 0.950 . S
C1265 C1260 1.363 . S
C1265 C1264 1.415 . S
H1266 C1263 0.999 . S
H1267 C1248 0.913 . S
H1268 C1286 0.951 . S
H1269 C1288 0.951 . S
H1270 C1290 0.950 . S
H1271 C1291 0.950 . S
H1272 C1293 0.950 . S
H1273 C1296 0.950 . S
H1274 C1297 0.950 . S
H1275 C1299 0.950 . S
H1276 C1300 0.950 . S
H1277 C1301 0.951 . S
H1278 C1303 0.951 . S
H1279 C1305 0.950 . S
H1280 C1306 0.950 . S
H1281 C1308 0.950 . S
H1282 C1311 0.950 . S
H1283 C1312 0.950 . S
H1284 C1314 0.950 . S
H1285 C1315 0.950 . S
C1286 H1268 0.951 . S
C1286 C1287 1.366 . S
C1286 C1288 1.388 . S
C1287 C1286 1.366 . S
C1287 C1291 1.385 . S
C1288 H1269 0.951 . S
C1288 C1286 1.388 . S
C1288 C1289 1.366 . S
C1289 C1288 1.366 . S
C1289 C1290 1.414 . S
C1289 C1292 1.499 . S
C1290 H1270 0.950 . S
C1290 C1289 1.414 . S
C1290 C1291 1.374 . S
C1291 H1271 0.950 . S
C1291 C1287 1.385 . S
C1291 C1290 1.374 . S
C1292 C1289 1.499 . S
C1292 C1293 1.373 . S
C1292 C1294 1.389 . S
C1293 H1272 0.950 . S
C1293 C1292 1.373 . S
C1293 C1309 1.377 . S
C1294 C1292 1.389 . S
C1294 C1295 1.524 . S
C1294 C1308 1.377 . S
C1295 C1294 1.524 . S
C1295 C1296 1.397 . S
C1295 C1300 1.363 . S
C1296 H1273 0.950 . S
C1296 C1295 1.397 . S
C1296 C1297 1.334 . S
C1297 H1274 0.950 . S
C1297 C1296 1.334 . S
C1297 C1298 1.287 . S
C1298 C1297 1.287 . S
C1298 C1299 1.524 . S
C1298 H1317 0.913 . S
C1299 H1275 0.950 . S
C1299 C1298 1.524 . S
C1299 C1300 1.415 . S
C1300 H1276 0.950 . S
C1300 C1295 1.363 . S
C1300 C1299 1.415 . S
C1301 H1277 0.951 . S
C1301 C1302 1.366 . S
C1301 C1303 1.388 . S
C1302 C1301 1.366 . S
C1302 C1306 1.385 . S
C1303 H1278 0.951 . S
C1303 C1301 1.388 . S
C1303 C1304 1.366 . S
C1304 C1303 1.366 . S
C1304 C1305 1.414 . S
C1304 C1307 1.499 . S
C1305 H1279 0.950 . S
C1305 C1304 1.414 . S
C1305 C1306 1.374 . S
C1306 H1280 0.950 . S
C1306 C1302 1.385 . S
C1306 C1305 1.374 . S
C1307 C1304 1.499 . S
C1307 C1308 1.373 . S
C1307 C1309 1.389 . S
C1308 H1281 0.950 . S
C1308 C1294 1.377 . S
C1308 C1307 1.373 . S
C1309 C1293 1.377 . S
C1309 C1307 1.389 . S
C1309 C1310 1.524 . S
C1310 C1309 1.524 . S
C1310 C1311 1.397 . S
C1310 C1315 1.363 . S
C1311 H1282 0.950 . S
C1311 C1310 1.397 . S
C1311 C1312 1.334 . S
C1312 H1283 0.950 . S
C1312 C1311 1.334 . S
C1312 C1313 1.287 . S
C1313 C1312 1.287 . S
C1313 C1314 1.524 . S
C1313 H1316 0.999 . S
C1314 H1284 0.950 . S
C1314 C1313 1.524 . S
C1314 C1315 1.415 . S
C1315 H1285 0.950 . S
C1315 C1310 1.363 . S
C1315 C1314 1.415 . S
H1316 C1313 0.999 . S
H1317 C1298 0.913 . S
H1318 C1336 0.951 . S
H1319 C1338 0.951 . S
H1320 C1340 0.950 . S
H1321 C1341 0.950 . S
H1322 C1343 0.950 . S
H1323 C1346 0.950 . S
H1324 C1347 0.950 . S
H1325 C1349 0.950 . S
H1326 C1350 0.950 . S
H1327 C1351 0.951 . S
H1328 C1353 0.951 . S
H1329 C1355 0.950 . S
H1330 C1356 0.950 . S
H1331 C1358 0.950 . S
H1332 C1361 0.950 . S
H1333 C1362 0.950 1_554 S
H1334 C1364 0.950 . S
H1335 C1365 0.950 . S
C1336 H1318 0.951 . S
C1336 C1337 1.366 . S
C1336 C1338 1.388 . S
C1337 C1336 1.366 . S
C1337 C1341 1.385 . S
C1338 H1319 0.951 . S
C1338 C1336 1.388 . S
C1338 C1339 1.366 . S
C1339 C1338 1.366 . S
C1339 C1340 1.414 . S
C1339 C1342 1.499 . S
C1340 H1320 0.950 . S
C1340 C1339 1.414 . S
C1340 C1341 1.374 . S
C1341 H1321 0.950 . S
C1341 C1337 1.385 . S
C1341 C1340 1.374 . S
C1342 C1339 1.499 . S
C1342 C1343 1.373 . S
C1342 C1344 1.389 . S
C1343 H1322 0.950 . S
C1343 C1342 1.373 . S
C1343 C1359 1.377 . S
C1344 C1342 1.389 . S
C1344 C1345 1.524 . S
C1344 C1358 1.377 . S
C1345 C1344 1.524 . S
C1345 C1346 1.397 . S
C1345 C1350 1.363 . S
C1346 H1323 0.950 . S
C1346 C1345 1.397 . S
C1346 C1347 1.334 . S
C1347 H1324 0.950 . S
C1347 C1346 1.334 . S
C1347 C1348 1.287 . S
C1348 C1347 1.287 . S
C1348 C1349 1.524 . S
C1348 H1367 0.913 . S
C1349 H1325 0.950 . S
C1349 C1348 1.524 . S
C1349 C1350 1.415 . S
C1350 H1326 0.950 . S
C1350 C1345 1.363 . S
C1350 C1349 1.415 . S
C1351 H1327 0.951 . S
C1351 C1352 1.366 . S
C1351 C1353 1.388 . S
C1352 C1351 1.366 . S
C1352 C1356 1.385 . S
C1353 H1328 0.951 . S
C1353 C1351 1.388 . S
C1353 C1354 1.366 . S
C1354 C1353 1.366 . S
C1354 C1355 1.414 . S
C1354 C1357 1.499 . S
C1355 H1329 0.950 . S
C1355 C1354 1.414 . S
C1355 C1356 1.374 . S
C1356 H1330 0.950 . S
C1356 C1352 1.385 . S
C1356 C1355 1.374 . S
C1357 C1354 1.499 . S
C1357 C1358 1.373 . S
C1357 C1359 1.389 . S
C1358 H1331 0.950 . S
C1358 C1344 1.377 . S
C1358 C1357 1.373 . S
C1359 C1343 1.377 . S
C1359 C1357 1.389 . S
C1359 C1360 1.524 . S
C1360 C1359 1.524 . S
C1360 C1361 1.397 . S
C1360 C1365 1.363 . S
C1361 H1332 0.950 . S
C1361 C1360 1.397 . S
C1361 C1362 1.334 . S
C1362 H1333 0.950 1_556 S
C1362 C1361 1.334 . S
C1362 C1363 1.287 . S
C1363 C1362 1.287 . S
C1363 C1364 1.524 . S
C1363 H1366 0.999 . S
C1364 H1334 0.950 . S
C1364 C1363 1.524 . S
C1364 C1365 1.415 . S
C1365 H1335 0.950 . S
C1365 C1360 1.363 . S
C1365 C1364 1.415 . S
H1366 C1363 0.999 . S
H1367 C1348 0.913 . S
H1368 C1386 0.951 . S
H1369 C1388 0.951 . S
H1370 C1390 0.950 . S
H1371 C1391 0.950 . S
H1372 C1393 0.950 . S
H1373 C1396 0.950 . S
H1374 C1397 0.950 . S
H1375 C1399 0.950 . S
H1376 C1400 0.950 . S
H1377 C1401 0.951 . S
H1378 C1403 0.951 . S
H1379 C1405 0.950 . S
H1380 C1406 0.950 . S
H1381 C1408 0.950 . S
H1382 C1411 0.950 . S
H1383 C1412 0.950 . S
H1384 C1414 0.950 . S
H1385 C1415 0.950 . S
C1386 H1368 0.951 . S
C1386 C1387 1.366 . S
C1386 C1388 1.388 . S
C1387 C1386 1.366 . S
C1387 C1391 1.385 . S
C1388 H1369 0.951 . S
C1388 C1386 1.388 . S
C1388 C1389 1.366 . S
C1389 C1388 1.366 . S
C1389 C1390 1.414 . S
C1389 C1392 1.499 . S
C1390 H1370 0.950 . S
C1390 C1389 1.414 . S
C1390 C1391 1.374 . S
C1391 H1371 0.950 . S
C1391 C1387 1.385 . S
C1391 C1390 1.374 . S
C1392 C1389 1.499 . S
C1392 C1393 1.373 . S
C1392 C1394 1.389 . S
C1393 H1372 0.950 . S
C1393 C1392 1.373 . S
C1393 C1409 1.377 . S
C1394 C1392 1.389 . S
C1394 C1395 1.524 . S
C1394 C1408 1.377 . S
C1395 C1394 1.524 . S
C1395 C1396 1.397 . S
C1395 C1400 1.363 . S
C1396 H1373 0.950 . S
C1396 C1395 1.397 . S
C1396 C1397 1.334 . S
C1397 H1374 0.950 . S
C1397 C1396 1.334 . S
C1397 C1398 1.287 . S
C1398 C1397 1.287 . S
C1398 C1399 1.524 . S
C1398 H1417 0.913 . S
C1399 H1375 0.950 . S
C1399 C1398 1.524 . S
C1399 C1400 1.415 . S
C1400 H1376 0.950 . S
C1400 C1395 1.363 . S
C1400 C1399 1.415 . S
C1401 H1377 0.951 . S
C1401 C1402 1.366 . S
C1401 C1403 1.388 . S
C1402 C1401 1.366 . S
C1402 C1406 1.385 . S
C1403 H1378 0.951 . S
C1403 C1401 1.388 . S
C1403 C1404 1.366 . S
C1404 C1403 1.366 . S
C1404 C1405 1.414 . S
C1404 C1407 1.499 . S
C1405 H1379 0.950 . S
C1405 C1404 1.414 . S
C1405 C1406 1.374 . S
C1406 H1380 0.950 . S
C1406 C1402 1.385 . S
C1406 C1405 1.374 . S
C1407 C1404 1.499 . S
C1407 C1408 1.373 . S
C1407 C1409 1.389 . S
C1408 H1381 0.950 . S
C1408 C1394 1.377 . S
C1408 C1407 1.373 . S
C1409 C1393 1.377 . S
C1409 C1407 1.389 . S
C1409 C1410 1.524 . S
C1410 C1409 1.524 . S
C1410 C1411 1.397 . S
C1410 C1415 1.363 . S
C1411 H1382 0.950 . S
C1411 C1410 1.397 . S
C1411 C1412 1.334 . S
C1412 H1383 0.950 . S
C1412 C1411 1.334 . S
C1412 C1413 1.287 . S
C1413 C1412 1.287 . S
C1413 C1414 1.524 . S
C1413 H1416 0.999 . S
C1414 H1384 0.950 . S
C1414 C1413 1.524 . S
C1414 C1415 1.415 . S
C1415 H1385 0.950 . S
C1415 C1410 1.363 . S
C1415 C1414 1.415 . S
H1416 C1413 0.999 . S
H1417 C1398 0.913 . S
H1418 C1436 0.951 . S
H1419 C1438 0.951 . S
H1420 C1440 0.950 . S
H1421 C1441 0.950 . S
H1422 C1443 0.950 . S
H1423 C1446 0.950 . S
H1424 C1447 0.950 . S
H1425 C1449 0.950 . S
H1426 C1450 0.950 . S
H1427 C1451 0.951 . S
H1428 C1453 0.951 . S
H1429 C1455 0.950 . S
H1430 C1456 0.950 . S
H1431 C1458 0.950 . S
H1432 C1461 0.950 . S
H1433 C1462 0.950 . S
H1434 C1464 0.950 . S
H1435 C1465 0.950 . S
C1436 H1418 0.951 . S
C1436 C1437 1.366 . S
C1436 C1438 1.388 . S
C1437 C1436 1.366 . S
C1437 C1441 1.385 . S
C1438 H1419 0.951 . S
C1438 C1436 1.388 . S
C1438 C1439 1.366 . S
C1439 C1438 1.366 . S
C1439 C1440 1.414 . S
C1439 C1442 1.499 . S
C1440 H1420 0.950 . S
C1440 C1439 1.414 . S
C1440 C1441 1.374 . S
C1441 H1421 0.950 . S
C1441 C1437 1.385 . S
C1441 C1440 1.374 . S
C1442 C1439 1.499 . S
C1442 C1443 1.373 . S
C1442 C1444 1.389 . S
C1443 H1422 0.950 . S
C1443 C1442 1.373 . S
C1443 C1459 1.377 . S
C1444 C1442 1.389 . S
C1444 C1445 1.524 . S
C1444 C1458 1.377 . S
C1445 C1444 1.524 . S
C1445 C1446 1.397 . S
C1445 C1450 1.363 . S
C1446 H1423 0.950 . S
C1446 C1445 1.397 . S
C1446 C1447 1.334 . S
C1447 H1424 0.950 . S
C1447 C1446 1.334 . S
C1447 C1448 1.287 . S
C1448 C1447 1.287 . S
C1448 C1449 1.524 . S
C1448 H1467 0.913 . S
C1449 H1425 0.950 . S
C1449 C1448 1.524 . S
C1449 C1450 1.415 . S
C1450 H1426 0.950 . S
C1450 C1445 1.363 . S
C1450 C1449 1.415 . S
C1451 H1427 0.951 . S
C1451 C1452 1.366 . S
C1451 C1453 1.388 . S
C1452 C1451 1.366 . S
C1452 C1456 1.385 . S
C1453 H1428 0.951 . S
C1453 C1451 1.388 . S
C1453 C1454 1.366 . S
C1454 C1453 1.366 . S
C1454 C1455 1.414 . S
C1454 C1457 1.499 . S
C1455 H1429 0.950 . S
C1455 C1454 1.414 . S
C1455 C1456 1.374 . S
C1456 H1430 0.950 . S
C1456 C1452 1.385 . S
C1456 C1455 1.374 . S
C1457 C1454 1.499 . S
C1457 C1458 1.373 . S
C1457 C1459 1.389 . S
C1458 H1431 0.950 . S
C1458 C1444 1.377 . S
C1458 C1457 1.373 . S
C1459 C1443 1.377 . S
C1459 C1457 1.389 . S
C1459 C1460 1.524 . S
C1460 C1459 1.524 . S
C1460 C1461 1.397 . S
C1460 C1465 1.363 . S
C1461 H1432 0.950 . S
C1461 C1460 1.397 . S
C1461 C1462 1.334 1_554 S
C1462 H1433 0.950 . S
C1462 C1461 1.334 1_556 S
C1462 C1463 1.287 . S
C1463 C1462 1.287 . S
C1463 C1464 1.524 . S
C1463 H1466 0.999 . S
C1464 H1434 0.950 . S
C1464 C1463 1.524 . S
C1464 C1465 1.415 1_556 S
C1465 H1435 0.950 . S
C1465 C1460 1.363 . S
C1465 C1464 1.415 1_554 S
H1466 C1463 0.999 . S
H1467 C1448 0.913 . S
H1468 C1486 0.951 . S
H1469 C1488 0.951 . S
H1470 C1490 0.950 . S
H1471 C1491 0.950 . S
H1472 C1493 0.950 . S
H1473 C1496 0.950 . S
H1474 C1497 0.950 . S
H1475 C1499 0.950 1_556 S
H1476 C1500 0.950 . S
H1477 C1501 0.951 . S
H1478 C1503 0.951 . S
H1479 C1505 0.950 . S
H1480 C1506 0.893 1_556 S
H1481 C1508 0.950 . S
H1482 C1511 0.950 . S
H1483 C1512 0.950 . S
H1484 C1514 0.950 . S
H1485 C1515 0.950 . S
C1486 H1468 0.951 . S
C1486 C1487 1.366 . S
C1486 C1488 1.388 . S
C1487 C1486 1.366 . S
C1487 C1491 1.385 . S
C1488 H1469 0.951 . S
C1488 C1486 1.388 . S
C1488 C1489 1.366 . S
C1489 C1488 1.366 . S
C1489 C1490 1.414 . S
C1489 C1492 1.499 . S
C1490 H1470 0.950 . S
C1490 C1489 1.414 . S
C1490 C1491 1.374 . S
C1491 H1471 0.950 . S
C1491 C1487 1.385 . S
C1491 C1490 1.374 . S
C1492 C1489 1.499 . S
C1492 C1493 1.373 . S
C1492 C1494 1.389 . S
C1493 H1472 0.950 . S
C1493 C1492 1.373 . S
C1493 C1509 1.377 . S
C1494 C1492 1.389 . S
C1494 C1495 1.524 . S
C1494 C1508 1.377 . S
C1495 C1494 1.524 . S
C1495 C1496 1.397 . S
C1495 C1500 1.363 . S
C1496 H1473 0.950 . S
C1496 C1495 1.397 . S
C1496 C1497 1.334 . S
C1497 H1474 0.950 . S
C1497 C1496 1.334 . S
C1497 C1498 1.287 . S
C1498 C1497 1.287 . S
C1498 C1499 1.524 . S
C1498 H1517 0.913 . S
C1499 H1475 0.950 1_554 S
C1499 C1498 1.524 . S
C1499 C1500 1.415 . S
C1500 H1476 0.950 . S
C1500 C1495 1.363 . S
C1500 C1499 1.415 . S
C1501 H1477 0.951 . S
C1501 C1502 1.366 . S
C1501 C1503 1.388 . S
C1502 C1501 1.366 . S
C1502 C1506 1.385 . S
C1503 H1478 0.951 . S
C1503 C1501 1.388 . S
C1503 C1504 1.366 . S
C1504 C1503 1.366 . S
C1504 C1505 1.414 . S
C1504 C1507 1.499 . S
C1505 H1479 0.950 . S
C1505 C1504 1.414 . S
C1505 C1506 1.374 . S
C1506 H1480 0.893 1_554 S
C1506 C1502 1.385 . S
C1506 C1505 1.374 . S
C1507 C1504 1.499 . S
C1507 C1508 1.373 . S
C1507 C1509 1.389 . S
C1508 H1481 0.950 . S
C1508 C1494 1.377 . S
C1508 C1507 1.373 . S
C1509 C1493 1.377 . S
C1509 C1507 1.389 . S
C1509 C1510 1.524 . S
C1510 C1509 1.524 . S
C1510 C1511 1.397 . S
C1510 C1515 1.363 . S
C1511 H1482 0.950 . S
C1511 C1510 1.397 . S
C1511 C1512 1.334 . S
C1512 H1483 0.950 . S
C1512 C1511 1.334 . S
C1512 C1513 1.287 . S
C1513 C1512 1.287 . S
C1513 C1514 1.524 . S
C1513 H1516 0.999 . S
C1514 H1484 0.950 . S
C1514 C1513 1.524 . S
C1514 C1515 1.415 . S
C1515 H1485 0.950 . S
C1515 C1510 1.363 . S
C1515 C1514 1.415 . S
H1516 C1513 0.999 . S
H1517 C1498 0.913 . S
H1518 C1536 0.951 . S
H1519 C1538 0.951 . S
H1520 C1540 0.950 . S
H1521 C1541 0.950 . S
H1522 C1543 0.950 . S
H1523 C1546 0.950 . S
H1524 C1547 0.950 . S
H1525 C1549 0.950 . S
H1526 C1550 0.950 . S
H1527 C1551 0.951 . S
H1528 C1553 0.951 . S
H1529 C1555 0.950 . S
H1530 C1556 0.950 . S
H1531 C1558 0.950 . S
H1532 C1561 0.950 . S
H1533 C1562 0.950 . S
H1534 C1564 0.950 . S
H1535 C1565 0.950 . S
C1536 H1518 0.951 . S
C1536 C1537 1.366 . S
C1536 C1538 1.388 . S
C1537 C1536 1.366 . S
C1537 C1541 1.385 . S
C1538 H1519 0.951 . S
C1538 C1536 1.388 . S
C1538 C1539 1.366 . S
C1539 C1538 1.366 . S
C1539 C1540 1.414 . S
C1539 C1542 1.499 . S
C1540 H1520 0.950 . S
C1540 C1539 1.414 . S
C1540 C1541 1.374 . S
C1541 H1521 0.950 . S
C1541 C1537 1.385 . S
C1541 C1540 1.374 . S
C1542 C1539 1.499 . S
C1542 C1543 1.373 1_655 S
C1542 C1544 1.389 . S
C1543 H1522 0.950 . S
C1543 C1542 1.373 1_455 S
C1543 C1559 1.377 . S
C1544 C1542 1.389 . S
C1544 C1545 1.524 . S
C1544 C1558 1.377 1_655 S
C1545 C1544 1.524 . S
C1545 C1546 1.397 . S
C1545 C1550 1.363 . S
C1546 H1523 0.950 . S
C1546 C1545 1.397 . S
C1546 C1547 1.334 . S
C1547 H1524 0.950 . S
C1547 C1546 1.334 . S
C1547 C1548 1.287 . S
C1548 C1547 1.287 . S
C1548 C1549 1.524 . S
C1548 H1567 0.913 . S
C1549 H1525 0.950 . S
C1549 C1548 1.524 . S
C1549 C1550 1.415 . S
C1550 H1526 0.950 . S
C1550 C1545 1.363 . S
C1550 C1549 1.415 . S
C1551 H1527 0.951 . S
C1551 C1552 1.366 . S
C1551 C1553 1.388 . S
C1552 C1551 1.366 . S
C1552 C1556 1.385 . S
C1553 H1528 0.951 . S
C1553 C1551 1.388 . S
C1553 C1554 1.366 . S
C1554 C1553 1.366 . S
C1554 C1555 1.414 . S
C1554 C1557 1.499 . S
C1555 H1529 0.950 . S
C1555 C1554 1.414 . S
C1555 C1556 1.374 . S
C1556 H1530 0.950 . S
C1556 C1552 1.385 . S
C1556 C1555 1.374 . S
C1557 C1554 1.499 . S
C1557 C1558 1.373 . S
C1557 C1559 1.389 . S
C1558 H1531 0.950 . S
C1558 C1544 1.377 1_455 S
C1558 C1557 1.373 . S
C1559 C1543 1.377 . S
C1559 C1557 1.389 . S
C1559 C1560 1.524 . S
C1560 C1559 1.524 . S
C1560 C1561 1.397 . S
C1560 C1565 1.363 . S
C1561 H1532 0.950 . S
C1561 C1560 1.397 . S
C1561 C1562 1.334 . S
C1562 H1533 0.950 . S
C1562 C1561 1.334 . S
C1562 C1563 1.287 . S
C1563 C1562 1.287 . S
C1563 C1564 1.524 . S
C1563 H1566 0.999 . S
C1564 H1534 0.950 . S
C1564 C1563 1.524 . S
C1564 C1565 1.415 . S
C1565 H1535 0.950 . S
C1565 C1560 1.363 . S
C1565 C1564 1.415 . S
H1566 C1563 0.999 . S
H1567 C1548 0.913 . S
H1568 C1586 0.951 . S
H1569 C1588 0.951 . S
H1570 C1590 0.950 . S
H1571 C1591 0.950 . S
H1572 C1593 0.950 . S
H1573 C1596 0.950 . S
H1574 C1597 0.950 . S
H1575 C1599 0.950 . S
H1576 C1600 0.950 . S
H1577 C1601 0.951 . S
H1578 C1603 0.951 . S
H1579 C1605 0.950 . S
H1580 C1606 0.950 . S
H1581 C1608 0.950 . S
H1582 C1611 0.950 . S
H1583 C1612 0.950 . S
H1584 C1614 0.950 . S
H1585 C1615 0.950 . S
C1586 H1568 0.951 . S
C1586 C1587 1.366 . S
C1586 C1588 1.388 . S
C1587 C1586 1.366 . S
C1587 C1591 1.385 . S
C1588 H1569 0.951 . S
C1588 C1586 1.388 . S
C1588 C1589 1.366 . S
C1589 C1588 1.366 . S
C1589 C1590 1.414 . S
C1589 C1592 1.499 . S
C1590 H1570 0.950 . S
C1590 C1589 1.414 . S
C1590 C1591 1.374 . S
C1591 H1571 0.950 . S
C1591 C1587 1.385 . S
C1591 C1590 1.374 . S
C1592 C1589 1.499 . S
C1592 C1593 1.373 . S
C1592 C1594 1.389 . S
C1593 H1572 0.950 . S
C1593 C1592 1.373 . S
C1593 C1609 1.377 . S
C1594 C1592 1.389 . S
C1594 C1595 1.524 . S
C1594 C1608 1.377 . S
C1595 C1594 1.524 . S
C1595 C1596 1.397 . S
C1595 C1600 1.363 . S
C1596 H1573 0.950 . S
C1596 C1595 1.397 . S
C1596 C1597 1.334 . S
C1597 H1574 0.950 . S
C1597 C1596 1.334 . S
C1597 C1598 1.287 . S
C1598 C1597 1.287 . S
C1598 C1599 1.524 . S
C1598 H1617 0.913 . S
C1599 H1575 0.950 . S
C1599 C1598 1.524 . S
C1599 C1600 1.415 . S
C1600 H1576 0.950 . S
C1600 C1595 1.363 . S
C1600 C1599 1.415 . S
C1601 H1577 0.951 . S
C1601 C1602 1.366 . S
C1601 C1603 1.388 . S
C1602 C1601 1.366 . S
C1602 C1606 1.385 . S
C1603 H1578 0.951 . S
C1603 C1601 1.388 . S
C1603 C1604 1.366 . S
C1604 C1603 1.366 . S
C1604 C1605 1.414 . S
C1604 C1607 1.499 . S
C1605 H1579 0.950 . S
C1605 C1604 1.414 . S
C1605 C1606 1.374 . S
C1606 H1580 0.950 . S
C1606 C1602 1.385 . S
C1606 C1605 1.374 . S
C1607 C1604 1.499 . S
C1607 C1608 1.373 . S
C1607 C1609 1.389 . S
C1608 H1581 0.950 . S
C1608 C1594 1.377 . S
C1608 C1607 1.373 . S
C1609 C1593 1.377 . S
C1609 C1607 1.389 . S
C1609 C1610 1.524 . S
C1610 C1609 1.524 . S
C1610 C1611 1.397 . S
C1610 C1615 1.363 . S
C1611 H1582 0.950 . S
C1611 C1610 1.397 . S
C1611 C1612 1.334 . S
C1612 H1583 0.950 . S
C1612 C1611 1.334 . S
C1612 C1613 1.287 . S
C1613 C1612 1.287 . S
C1613 C1614 1.524 . S
C1613 H1616 0.999 . S
C1614 H1584 0.950 . S
C1614 C1613 1.524 . S
C1614 C1615 1.415 . S
C1615 H1585 0.950 . S
C1615 C1610 1.363 . S
C1615 C1614 1.415 . S
H1616 C1613 0.999 . S
H1617 C1598 0.913 . S
H1618 C1636 0.951 . S
H1619 C1638 0.951 . S
H1620 C1640 0.950 . S
H1621 C1641 0.950 . S
H1622 C1643 0.950 . S
H1623 C1646 0.950 . S
H1624 C1647 0.950 . S
H1625 C1649 0.950 . S
H1626 C1650 0.950 . S
H1627 C1651 0.951 . S
H1628 C1653 0.951 . S
H1629 C1655 0.950 . S
H1630 C1656 0.950 . S
H1631 C1658 0.950 . S
H1632 C1661 0.950 . S
H1633 C1662 0.950 . S
H1634 C1664 0.950 1_545 S
H1635 C1665 0.957 . S
C1636 H1618 0.951 . S
C1636 C1637 1.366 . S
C1636 C1638 1.388 . S
C1637 C1636 1.366 . S
C1637 C1641 1.385 . S
C1638 H1619 0.951 . S
C1638 C1636 1.388 . S
C1638 C1639 1.366 . S
C1639 C1638 1.366 . S
C1639 C1640 1.414 . S
C1639 C1642 1.499 . S
C1640 H1620 0.950 . S
C1640 C1639 1.414 . S
C1640 C1641 1.374 . S
C1641 H1621 0.950 . S
C1641 C1637 1.385 . S
C1641 C1640 1.374 . S
C1642 C1639 1.499 . S
C1642 C1643 1.373 . S
C1642 C1644 1.389 1_545 S
C1643 H1622 0.950 . S
C1643 C1642 1.373 . S
C1643 C1659 1.377 1_545 S
C1644 C1642 1.389 1_565 S
C1644 C1645 1.524 . S
C1644 C1658 1.377 . S
C1645 C1644 1.524 . S
C1645 C1646 1.397 1_565 S
C1645 C1650 1.363 . S
C1646 H1623 0.950 . S
C1646 C1645 1.397 1_545 S
C1646 C1647 1.334 . S
C1647 H1624 0.950 . S
C1647 C1646 1.334 . S
C1647 C1648 1.287 . S
C1648 C1647 1.287 . S
C1648 C1649 1.524 1_545 S
C1648 H1667 0.913 . S
C1649 H1625 0.950 . S
C1649 C1648 1.524 1_565 S
C1649 C1650 1.415 . S
C1650 H1626 0.950 . S
C1650 C1645 1.363 . S
C1650 C1649 1.415 . S
C1651 H1627 0.951 . S
C1651 C1652 1.366 . S
C1651 C1653 1.388 . S
C1652 C1651 1.366 . S
C1652 C1656 1.385 . S
C1653 H1628 0.951 . S
C1653 C1651 1.388 . S
C1653 C1654 1.366 . S
C1654 C1653 1.366 . S
C1654 C1655 1.414 . S
C1654 C1657 1.499 . S
C1655 H1629 0.950 . S
C1655 C1654 1.414 . S
C1655 C1656 1.374 . S
C1656 H1630 0.950 . S
C1656 C1652 1.385 . S
C1656 C1655 1.374 . S
C1657 C1654 1.499 . S
C1657 C1658 1.373 . S
C1657 C1659 1.389 . S
C1658 H1631 0.950 . S
C1658 C1644 1.377 . S
C1658 C1657 1.373 . S
C1659 C1643 1.377 1_565 S
C1659 C1657 1.389 . S
C1659 C1660 1.524 . S
C1660 C1659 1.524 . S
C1660 C1661 1.397 . S
C1660 C1665 1.355 1_565 S
C1661 H1632 0.950 . S
C1661 C1660 1.397 . S
C1661 C1662 1.334 . S
C1662 H1633 0.950 . S
C1662 C1661 1.334 . S
C1662 C1663 1.287 . S
C1663 C1662 1.287 . S
C1663 C1664 1.524 . S
C1663 H1666 0.999 . S
C1664 H1634 0.950 1_565 S
C1664 C1663 1.524 . S
C1664 C1665 1.417 1_565 S
C1665 H1635 0.957 . S
C1665 C1660 1.355 1_545 S
C1665 C1664 1.417 1_545 S
H1666 C1663 0.999 . S
H1667 C1648 0.913 . S
H1668 C1686 0.951 . S
H1669 C1688 0.951 . S
H1670 C1690 0.950 . S
H1671 C1691 0.950 . S
H1672 C1693 0.950 . S
H1673 C1696 0.950 . S
H1674 C1697 0.950 . S
H1675 C1699 0.950 . S
H1676 C1700 0.950 . S
H1677 C1701 0.951 . S
H1678 C1703 0.951 . S
H1679 C1705 0.950 . S
H1680 C1706 0.950 . S
H1681 C1708 0.950 . S
H1682 C1711 0.950 . S
H1683 C1712 0.950 . S
H1684 C1714 0.950 . S
H1685 C1715 0.950 . S
C1686 H1668 0.951 . S
C1686 C1687 1.366 . S
C1686 C1688 1.388 . S
C1687 C1686 1.366 . S
C1687 C1691 1.385 . S
C1688 H1669 0.951 . S
C1688 C1686 1.388 . S
C1688 C1689 1.366 . S
C1689 C1688 1.366 . S
C1689 C1690 1.414 . S
C1689 C1692 1.499 . S
C1690 H1670 0.950 . S
C1690 C1689 1.414 . S
C1690 C1691 1.374 . S
C1691 H1671 0.950 . S
C1691 C1687 1.385 . S
C1691 C1690 1.374 . S
C1692 C1689 1.499 . S
C1692 C1693 1.373 . S
C1692 C1694 1.389 . S
C1693 H1672 0.950 . S
C1693 C1692 1.373 . S
C1693 C1709 1.377 . S
C1694 C1692 1.389 . S
C1694 C1695 1.524 . S
C1694 C1708 1.377 . S
C1695 C1694 1.524 . S
C1695 C1696 1.397 . S
C1695 C1700 1.363 . S
C1696 H1673 0.950 . S
C1696 C1695 1.397 . S
C1696 C1697 1.334 . S
C1697 H1674 0.950 . S
C1697 C1696 1.334 . S
C1697 C1698 1.287 . S
C1698 C1697 1.287 . S
C1698 C1699 1.524 . S
C1698 H1717 0.913 . S
C1699 H1675 0.950 . S
C1699 C1698 1.524 . S
C1699 C1700 1.415 . S
C1700 H1676 0.950 . S
C1700 C1695 1.363 . S
C1700 C1699 1.415 . S
C1701 H1677 0.951 . S
C1701 C1702 1.366 . S
C1701 C1703 1.388 . S
C1702 C1701 1.366 . S
C1702 C1706 1.385 . S
C1703 H1678 0.951 . S
C1703 C1701 1.388 . S
C1703 C1704 1.366 . S
C1704 C1703 1.366 . S
C1704 C1705 1.414 . S
C1704 C1707 1.499 . S
C1705 H1679 0.950 . S
C1705 C1704 1.414 . S
C1705 C1706 1.374 . S
C1706 H1680 0.950 . S
C1706 C1702 1.385 . S
C1706 C1705 1.374 . S
C1707 C1704 1.499 . S
C1707 C1708 1.373 . S
C1707 C1709 1.389 . S
C1708 H1681 0.950 . S
C1708 C1694 1.377 . S
C1708 C1707 1.373 . S
C1709 C1693 1.377 . S
C1709 C1707 1.389 . S
C1709 C1710 1.524 . S
C1710 C1709 1.524 . S
C1710 C1711 1.397 . S
C1710 C1715 1.363 . S
C1711 H1682 0.950 . S
C1711 C1710 1.397 . S
C1711 C1712 1.334 . S
C1712 H1683 0.950 . S
C1712 C1711 1.334 . S
C1712 C1713 1.287 . S
C1713 C1712 1.287 . S
C1713 C1714 1.524 . S
C1713 H1716 0.999 . S
C1714 H1684 0.950 . S
C1714 C1713 1.524 . S
C1714 C1715 1.415 . S
C1715 H1685 0.950 . S
C1715 C1710 1.363 . S
C1715 C1714 1.415 . S
H1716 C1713 0.999 . S
H1717 C1698 0.913 . S
H1718 C1736 0.951 . S
H1719 C1738 0.951 . S
H1720 C1740 0.950 . S
H1721 C1741 0.950 . S
H1722 C1743 0.950 . S
H1723 C1746 0.950 . S
H1724 C1747 0.950 . S
H1725 C1749 0.950 . S
H1726 C1750 0.950 . S
H1727 C1751 0.951 . S
H1728 C1753 0.951 . S
H1729 C1755 0.950 . S
H1730 C1756 0.950 . S
H1731 C1758 0.950 . S
H1732 C1761 0.950 . S
H1733 C1762 0.950 . S
H1734 C1764 0.950 . S
H1735 C1765 0.950 . S
C1736 H1718 0.951 . S
C1736 C1737 1.366 . S
C1736 C1738 1.388 . S
C1737 C1736 1.366 . S
C1737 C1741 1.385 . S
C1738 H1719 0.951 . S
C1738 C1736 1.388 . S
C1738 C1739 1.366 . S
C1739 C1738 1.366 . S
C1739 C1740 1.414 . S
C1739 C1742 1.499 . S
C1740 H1720 0.950 . S
C1740 C1739 1.414 . S
C1740 C1741 1.374 . S
C1741 H1721 0.950 . S
C1741 C1737 1.385 . S
C1741 C1740 1.374 . S
C1742 C1739 1.499 . S
C1742 C1743 1.373 . S
C1742 C1744 1.389 . S
C1743 H1722 0.950 . S
C1743 C1742 1.373 . S
C1743 C1759 1.377 . S
C1744 C1742 1.389 . S
C1744 C1745 1.524 . S
C1744 C1758 1.377 . S
C1745 C1744 1.524 . S
C1745 C1746 1.397 . S
C1745 C1750 1.363 . S
C1746 H1723 0.950 . S
C1746 C1745 1.397 . S
C1746 C1747 1.334 . S
C1747 H1724 0.950 . S
C1747 C1746 1.334 . S
C1747 C1748 1.287 . S
C1748 C1747 1.287 . S
C1748 C1749 1.524 . S
C1748 H1767 0.913 . S
C1749 H1725 0.950 . S
C1749 C1748 1.524 . S
C1749 C1750 1.415 . S
C1750 H1726 0.950 . S
C1750 C1745 1.363 . S
C1750 C1749 1.415 . S
C1751 H1727 0.951 . S
C1751 C1752 1.366 . S
C1751 C1753 1.388 . S
C1752 C1751 1.366 . S
C1752 C1756 1.385 . S
C1753 H1728 0.951 . S
C1753 C1751 1.388 . S
C1753 C1754 1.366 . S
C1754 C1753 1.366 . S
C1754 C1755 1.414 . S
C1754 C1757 1.499 . S
C1755 H1729 0.950 . S
C1755 C1754 1.414 . S
C1755 C1756 1.374 . S
C1756 H1730 0.950 . S
C1756 C1752 1.385 . S
C1756 C1755 1.374 . S
C1757 C1754 1.499 . S
C1757 C1758 1.373 . S
C1757 C1759 1.389 . S
C1758 H1731 0.950 . S
C1758 C1744 1.377 . S
C1758 C1757 1.373 . S
C1759 C1743 1.377 . S
C1759 C1757 1.389 . S
C1759 C1760 1.524 . S
C1760 C1759 1.524 . S
C1760 C1761 1.397 . S
C1760 C1765 1.363 . S
C1761 H1732 0.950 . S
C1761 C1760 1.397 . S
C1761 C1762 1.334 . S
C1762 H1733 0.950 . S
C1762 C1761 1.334 . S
C1762 C1763 1.287 . S
C1763 C1762 1.287 . S
C1763 C1764 1.524 . S
C1763 H1766 0.999 . S
C1764 H1734 0.950 . S
C1764 C1763 1.524 . S
C1764 C1765 1.415 . S
C1765 H1735 0.950 . S
C1765 C1760 1.363 . S
C1765 C1764 1.415 . S
H1766 C1763 0.999 . S
H1767 C1748 0.913 . S
H1768 C1786 0.951 . S
H1769 C1788 0.951 . S
H1770 C1790 0.950 . S
H1771 C1791 0.950 . S
H1772 C1793 0.950 . S
H1773 C1796 0.950 . S
H1774 C1797 0.950 . S
H1775 C1799 0.950 . S
H1776 C1800 0.950 . S
H1777 C1801 0.951 . S
H1778 C1803 0.951 . S
H1779 C1805 0.950 . S
H1780 C1806 0.950 . S
H1781 C1808 0.950 . S
H1782 C1811 0.950 . S
H1783 C1812 0.950 . S
H1784 C1814 0.950 . S
H1785 C1815 0.950 . S
C1786 H1768 0.951 . S
C1786 C1787 1.366 . S
C1786 C1788 1.388 . S
C1787 C1786 1.366 . S
C1787 C1791 1.385 . S
C1788 H1769 0.951 . S
C1788 C1786 1.388 . S
C1788 C1789 1.366 . S
C1789 C1788 1.366 . S
C1789 C1790 1.414 . S
C1789 C1792 1.499 . S
C1790 H1770 0.950 . S
C1790 C1789 1.414 . S
C1790 C1791 1.374 . S
C1791 H1771 0.950 . S
C1791 C1787 1.385 . S
C1791 C1790 1.374 . S
C1792 C1789 1.499 . S
C1792 C1793 1.373 . S
C1792 C1794 1.389 . S
C1793 H1772 0.950 . S
C1793 C1792 1.373 . S
C1793 C1809 1.377 . S
C1794 C1792 1.389 . S
C1794 C1795 1.524 . S
C1794 C1808 1.377 . S
C1795 C1794 1.524 . S
C1795 C1796 1.397 . S
C1795 C1800 1.363 . S
C1796 H1773 0.950 . S
C1796 C1795 1.397 . S
C1796 C1797 1.334 . S
C1797 H1774 0.950 . S
C1797 C1796 1.334 . S
C1797 C1798 1.287 . S
C1798 C1797 1.287 . S
C1798 C1799 1.524 . S
C1798 H1817 0.913 . S
C1799 H1775 0.950 . S
C1799 C1798 1.524 . S
C1799 C1800 1.415 . S
C1800 H1776 0.950 . S
C1800 C1795 1.363 . S
C1800 C1799 1.415 . S
C1801 H1777 0.951 . S
C1801 C1802 1.366 . S
C1801 C1803 1.388 . S
C1802 C1801 1.366 . S
C1802 C1806 1.385 . S
C1803 H1778 0.951 . S
C1803 C1801 1.388 . S
C1803 C1804 1.366 . S
C1804 C1803 1.366 . S
C1804 C1805 1.414 . S
C1804 C1807 1.499 . S
C1805 H1779 0.950 . S
C1805 C1804 1.414 . S
C1805 C1806 1.374 . S
C1806 H1780 0.950 . S
C1806 C1802 1.385 . S
C1806 C1805 1.374 . S
C1807 C1804 1.499 . S
C1807 C1808 1.373 . S
C1807 C1809 1.389 . S
C1808 H1781 0.950 . S
C1808 C1794 1.377 . S
C1808 C1807 1.373 . S
C1809 C1793 1.377 . S
C1809 C1807 1.389 . S
C1809 C1810 1.524 . S
C1810 C1809 1.524 . S
C1810 C1811 1.397 . S
C1810 C1815 1.363 . S
C1811 H1782 0.950 . S
C1811 C1810 1.397 . S
C1811 C1812 1.334 . S
C1812 H1783 0.950 . S
C1812 C1811 1.334 . S
C1812 C1813 1.287 . S
C1813 C1812 1.287 . S
C1813 C1814 1.524 . S
C1813 H1816 0.999 . S
C1814 H1784 0.950 . S
C1814 C1813 1.524 . S
C1814 C1815 1.415 . S
C1815 H1785 0.950 . S
C1815 C1810 1.363 . S
C1815 C1814 1.415 . S
H1816 C1813 0.999 . S
H1817 C1798 0.913 . S
H1818 C1836 0.951 . S
H1819 C1838 0.951 . S
H1820 C1840 0.950 . S
H1821 C1841 0.950 . S
H1822 C1843 0.950 . S
H1823 C1846 0.950 . S
H1824 C1847 0.950 . S
H1825 C1849 0.950 . S
H1826 C1850 0.950 . S
H1827 C1851 0.951 . S
H1828 C1853 0.951 . S
H1829 C1855 0.950 . S
H1830 C1856 0.950 . S
H1831 C1858 0.950 . S
H1832 C1861 0.950 . S
H1833 C1862 0.950 . S
H1834 C1864 0.950 . S
H1835 C1865 0.950 . S
C1836 H1818 0.951 . S
C1836 C1837 1.366 . S
C1836 C1838 1.388 . S
C1837 C1836 1.366 . S
C1837 C1841 1.385 . S
C1838 H1819 0.951 . S
C1838 C1836 1.388 . S
C1838 C1839 1.366 . S
C1839 C1838 1.366 . S
C1839 C1840 1.414 . S
C1839 C1842 1.499 . S
C1840 H1820 0.950 . S
C1840 C1839 1.414 . S
C1840 C1841 1.374 . S
C1841 H1821 0.950 . S
C1841 C1837 1.385 . S
C1841 C1840 1.374 . S
C1842 C1839 1.499 . S
C1842 C1843 1.373 . S
C1842 C1844 1.389 . S
C1843 H1822 0.950 . S
C1843 C1842 1.373 . S
C1843 C1859 1.377 . S
C1844 C1842 1.389 . S
C1844 C1845 1.524 . S
C1844 C1858 1.377 . S
C1845 C1844 1.524 . S
C1845 C1846 1.397 . S
C1845 C1850 1.363 . S
C1846 H1823 0.950 . S
C1846 C1845 1.397 . S
C1846 C1847 1.334 . S
C1847 H1824 0.950 . S
C1847 C1846 1.334 . S
C1847 C1848 1.287 . S
C1848 C1847 1.287 . S
C1848 C1849 1.524 . S
C1848 H1867 0.913 . S
C1849 H1825 0.950 . S
C1849 C1848 1.524 . S
C1849 C1850 1.415 . S
C1850 H1826 0.950 . S
C1850 C1845 1.363 . S
C1850 C1849 1.415 . S
C1851 H1827 0.951 . S
C1851 C1852 1.366 . S
C1851 C1853 1.388 . S
C1852 C1851 1.366 . S
C1852 C1856 1.385 . S
C1853 H1828 0.951 . S
C1853 C1851 1.388 . S
C1853 C1854 1.366 . S
C1854 C1853 1.366 . S
C1854 C1855 1.414 . S
C1854 C1857 1.499 . S
C1855 H1829 0.950 . S
C1855 C1854 1.414 . S
C1855 C1856 1.374 . S
C1856 H1830 0.950 . S
C1856 C1852 1.385 . S
C1856 C1855 1.374 . S
C1857 C1854 1.499 . S
C1857 C1858 1.373 . S
C1857 C1859 1.389 . S
C1858 H1831 0.950 . S
C1858 C1844 1.377 . S
C1858 C1857 1.373 . S
C1859 C1843 1.377 . S
C1859 C1857 1.389 . S
C1859 C1860 1.524 . S
C1860 C1859 1.524 . S
C1860 C1861 1.397 . S
C1860 C1865 1.363 . S
C1861 H1832 0.950 . S
C1861 C1860 1.397 . S
C1861 C1862 1.334 . S
C1862 H1833 0.950 . S
C1862 C1861 1.334 . S
C1862 C1863 1.287 . S
C1863 C1862 1.287 . S
C1863 C1864 1.524 . S
C1863 H1866 0.999 . S
C1864 H1834 0.950 . S
C1864 C1863 1.524 . S
C1864 C1865 1.415 . S
C1865 H1835 0.950 . S
C1865 C1860 1.363 . S
C1865 C1864 1.415 . S
H1866 C1863 0.999 . S
H1867 C1848 0.913 . S
H1868 C1886 0.951 . S
H1869 C1888 0.951 . S
H1870 C1890 0.950 . S
H1871 C1891 0.950 . S
H1872 C1893 0.950 . S
H1873 C1896 0.950 . S
H1874 C1897 0.950 . S
H1875 C1899 0.950 . S
H1876 C1900 0.950 . S
H1877 C1901 0.951 . S
H1878 C1903 0.951 . S
H1879 C1905 0.950 . S
H1880 C1906 0.950 . S
H1881 C1908 0.950 . S
H1882 C1911 0.950 . S
H1883 C1912 0.950 . S
H1884 C1914 0.950 . S
H1885 C1915 0.950 . S
C1886 H1868 0.951 . S
C1886 C1887 1.366 . S
C1886 C1888 1.388 . S
C1887 C1886 1.366 . S
C1887 C1891 1.385 . S
C1888 H1869 0.951 . S
C1888 C1886 1.388 . S
C1888 C1889 1.366 . S
C1889 C1888 1.366 . S
C1889 C1890 1.414 . S
C1889 C1892 1.499 . S
C1890 H1870 0.950 . S
C1890 C1889 1.414 . S
C1890 C1891 1.374 . S
C1891 H1871 0.950 . S
C1891 C1887 1.385 . S
C1891 C1890 1.374 . S
C1892 C1889 1.499 . S
C1892 C1893 1.373 . S
C1892 C1894 1.389 . S
C1893 H1872 0.950 . S
C1893 C1892 1.373 . S
C1893 C1909 1.377 . S
C1894 C1892 1.389 . S
C1894 C1895 1.524 . S
C1894 C1908 1.377 . S
C1895 C1894 1.524 . S
C1895 C1896 1.397 . S
C1895 C1900 1.363 . S
C1896 H1873 0.950 . S
C1896 C1895 1.397 . S
C1896 C1897 1.334 . S
C1897 H1874 0.950 . S
C1897 C1896 1.334 . S
C1897 C1898 1.287 . S
C1898 C1897 1.287 . S
C1898 C1899 1.524 . S
C1898 H1917 0.913 . S
C1899 H1875 0.950 . S
C1899 C1898 1.524 . S
C1899 C1900 1.415 . S
C1900 H1876 0.950 . S
C1900 C1895 1.363 . S
C1900 C1899 1.415 . S
C1901 H1877 0.951 . S
C1901 C1902 1.366 . S
C1901 C1903 1.388 . S
C1902 C1901 1.366 . S
C1902 C1906 1.385 . S
C1903 H1878 0.951 . S
C1903 C1901 1.388 . S
C1903 C1904 1.366 . S
C1904 C1903 1.366 . S
C1904 C1905 1.414 . S
C1904 C1907 1.499 . S
C1905 H1879 0.950 . S
C1905 C1904 1.414 . S
C1905 C1906 1.374 . S
C1906 H1880 0.950 . S
C1906 C1902 1.385 . S
C1906 C1905 1.374 . S
C1907 C1904 1.499 . S
C1907 C1908 1.373 . S
C1907 C1909 1.389 . S
C1908 H1881 0.950 . S
C1908 C1894 1.377 . S
C1908 C1907 1.373 . S
C1909 C1893 1.377 . S
C1909 C1907 1.389 . S
C1909 C1910 1.524 . S
C1910 C1909 1.524 . S
C1910 C1911 1.397 . S
C1910 C1915 1.363 . S
C1911 H1882 0.950 . S
C1911 C1910 1.397 . S
C1911 C1912 1.334 . S
C1912 H1883 0.950 . S
C1912 C1911 1.334 . S
C1912 C1913 1.287 . S
C1913 C1912 1.287 . S
C1913 C1914 1.524 . S
C1913 H1916 0.999 . S
C1914 H1884 0.950 . S
C1914 C1913 1.524 . S
C1914 C1915 1.415 . S
C1915 H1885 0.950 . S
C1915 C1910 1.363 . S
C1915 C1914 1.415 . S
H1916 C1913 0.999 . S
H1917 C1898 0.913 . S
H1918 C1936 0.951 . S
H1919 C1938 0.951 . S
H1920 C1940 0.950 . S
H1921 C1941 0.950 . S
H1922 C1943 0.950 . S
H1923 C1946 0.950 . S
H1924 C1947 0.950 . S
H1925 C1949 0.950 . S
H1926 C1950 0.950 . S
H1927 C1951 0.951 . S
H1928 C1953 0.951 . S
H1929 C1955 0.950 . S
H1930 C1956 0.950 . S
H1931 C1958 0.950 . S
H1932 C1961 0.950 . S
H1933 C1962 0.950 . S
H1934 C1964 0.950 . S
H1935 C1965 0.950 . S
C1936 H1918 0.951 . S
C1936 C1937 1.366 . S
C1936 C1938 1.388 . S
C1937 C1936 1.366 . S
C1937 C1941 1.385 . S
C1938 H1919 0.951 . S
C1938 C1936 1.388 . S
C1938 C1939 1.366 . S
C1939 C1938 1.366 . S
C1939 C1940 1.414 . S
C1939 C1942 1.499 . S
C1940 H1920 0.950 . S
C1940 C1939 1.414 . S
C1940 C1941 1.374 . S
C1941 H1921 0.950 . S
C1941 C1937 1.385 . S
C1941 C1940 1.374 . S
C1942 C1939 1.499 . S
C1942 C1943 1.373 . S
C1942 C1944 1.389 . S
C1943 H1922 0.950 . S
C1943 C1942 1.373 . S
C1943 C1959 1.377 . S
C1944 C1942 1.389 . S
C1944 C1945 1.524 . S
C1944 C1958 1.377 . S
C1945 C1944 1.524 . S
C1945 C1946 1.397 . S
C1945 C1950 1.363 . S
C1946 H1923 0.950 . S
C1946 C1945 1.397 . S
C1946 C1947 1.334 . S
C1947 H1924 0.950 . S
C1947 C1946 1.334 . S
C1947 C1948 1.287 . S
C1948 C1947 1.287 . S
C1948 C1949 1.524 . S
C1948 H1967 0.913 . S
C1949 H1925 0.950 . S
C1949 C1948 1.524 . S
C1949 C1950 1.415 . S
C1950 H1926 0.950 . S
C1950 C1945 1.363 . S
C1950 C1949 1.415 . S
C1951 H1927 0.951 . S
C1951 C1952 1.366 . S
C1951 C1953 1.388 . S
C1952 C1951 1.366 . S
C1952 C1956 1.385 . S
C1953 H1928 0.951 . S
C1953 C1951 1.388 . S
C1953 C1954 1.366 . S
C1954 C1953 1.366 . S
C1954 C1955 1.414 . S
C1954 C1957 1.499 . S
C1955 H1929 0.950 . S
C1955 C1954 1.414 . S
C1955 C1956 1.374 . S
C1956 H1930 0.950 . S
C1956 C1952 1.385 . S
C1956 C1955 1.374 . S
C1957 C1954 1.499 . S
C1957 C1958 1.373 . S
C1957 C1959 1.389 . S
C1958 H1931 0.950 . S
C1958 C1944 1.377 . S
C1958 C1957 1.373 . S
C1959 C1943 1.377 . S
C1959 C1957 1.389 . S
C1959 C1960 1.524 . S
C1960 C1959 1.524 . S
C1960 C1961 1.397 . S
C1960 C1965 1.363 . S
C1961 H1932 0.950 . S
C1961 C1960 1.397 . S
C1961 C1962 1.334 . S
C1962 H1933 0.950 . S
C1962 C1961 1.334 . S
C1962 C1963 1.287 . S
C1963 C1962 1.287 . S
C1963 C1964 1.524 . S
C1963 H1966 0.999 . S
C1964 H1934 0.950 . S
C1964 C1963 1.524 . S
C1964 C1965 1.415 . S
C1965 H1935 0.950 . S
C1965 C1960 1.363 . S
C1965 C1964 1.415 . S
H1966 C1963 0.999 . S
H1967 C1948 0.913 . S
H1968 C1986 0.951 . S
H1969 C1988 0.951 . S
H1970 C1990 0.950 . S
H1971 C1991 0.950 . S
H1972 C1993 0.950 . S
H1973 C1996 0.946 . S
H1974 C1997 0.950 . S
H1975 C1999 0.950 . S
H1976 C2000 0.950 . S
H1977 C2001 0.951 . S
H1978 C2003 0.951 . S
H1979 C2005 0.950 . S
H1980 C2006 0.950 . S
H1981 C2008 0.950 . S
H1982 C2011 0.950 . S
H1983 C2012 0.950 . S
H1984 C2014 0.950 . S
H1985 C2015 0.950 . S
C1986 H1968 0.951 . S
C1986 C1987 1.366 . S
C1986 C1988 1.388 . S
C1987 C1986 1.366 . S
C1987 C1991 1.385 . S
C1988 H1969 0.951 . S
C1988 C1986 1.388 . S
C1988 C1989 1.366 . S
C1989 C1988 1.366 . S
C1989 C1990 1.414 . S
C1989 C1992 1.499 . S
C1990 H1970 0.950 . S
C1990 C1989 1.414 . S
C1990 C1991 1.374 . S
C1991 H1971 0.950 . S
C1991 C1987 1.385 . S
C1991 C1990 1.374 . S
C1992 C1989 1.499 . S
C1992 C1993 1.373 . S
C1992 C1994 1.389 1_545 S
C1993 H1972 0.950 . S
C1993 C1992 1.373 . S
C1993 C2009 1.377 1_545 S
C1994 C1992 1.389 1_565 S
C1994 C1995 1.524 . S
C1994 C2008 1.377 . S
C1995 C1994 1.524 . S
C1995 C1996 1.400 1_565 S
C1995 C2000 1.363 . S
C1996 H1973 0.946 . S
C1996 C1995 1.400 1_545 S
C1996 C1997 1.335 . S
C1997 H1974 0.950 . S
C1997 C1996 1.335 . S
C1997 C1998 1.287 1_545 S
C1998 C1997 1.287 1_565 S
C1998 C1999 1.524 . S
C1998 H2017 0.913 . S
C1999 H1975 0.950 . S
C1999 C1998 1.524 . S
C1999 C2000 1.415 . S
C2000 H1976 0.950 . S
C2000 C1995 1.363 . S
C2000 C1999 1.415 . S
C2001 H1977 0.951 . S
C2001 C2002 1.366 . S
C2001 C2003 1.388 . S
C2002 C2001 1.366 . S
C2002 C2006 1.385 . S
C2003 H1978 0.951 . S
C2003 C2001 1.388 . S
C2003 C2004 1.366 . S
C2004 C2003 1.366 . S
C2004 C2005 1.414 . S
C2004 C2007 1.499 . S
C2005 H1979 0.950 . S
C2005 C2004 1.414 . S
C2005 C2006 1.374 . S
C2006 H1980 0.950 . S
C2006 C2002 1.385 . S
C2006 C2005 1.374 . S
C2007 C2004 1.499 . S
C2007 C2008 1.373 . S
C2007 C2009 1.389 . S
C2008 H1981 0.950 . S
C2008 C1994 1.377 . S
C2008 C2007 1.373 . S
C2009 C1993 1.377 1_565 S
C2009 C2007 1.389 . S
C2009 C2010 1.524 . S
C2010 C2009 1.524 . S
C2010 C2011 1.397 . S
C2010 C2015 1.363 . S
C2011 H1982 0.950 . S
C2011 C2010 1.397 . S
C2011 C2012 1.334 . S
C2012 H1983 0.950 . S
C2012 C2011 1.334 . S
C2012 C2013 1.287 . S
C2013 C2012 1.287 . S
C2013 C2014 1.524 . S
C2013 H2016 0.999 . S
C2014 H1984 0.950 . S
C2014 C2013 1.524 . S
C2014 C2015 1.415 . S
C2015 H1985 0.950 . S
C2015 C2010 1.363 . S
C2015 C2014 1.415 . S
H2016 C2013 0.999 . S
H2017 C1998 0.913 . S
H2018 C2036 0.951 . S
H2019 C2038 0.951 . S
H2020 C2040 0.950 . S
H2021 C2041 0.950 . S
H2022 C2043 0.950 . S
H2023 C2046 0.950 . S
H2024 C2047 0.950 . S
H2025 C2049 0.950 . S
H2026 C2050 0.950 . S
H2027 C2051 0.951 . S
H2028 C2053 0.951 . S
H2029 C2055 0.950 . S
H2030 C2056 0.950 . S
H2031 C2058 0.950 . S
H2032 C2061 0.950 . S
H2033 C2062 0.950 . S
H2034 C2064 0.950 . S
H2035 C2065 0.950 . S
C2036 H2018 0.951 . S
C2036 C2037 1.366 . S
C2036 C2038 1.388 . S
C2037 C2036 1.366 . S
C2037 C2041 1.385 . S
C2038 H2019 0.951 . S
C2038 C2036 1.388 . S
C2038 C2039 1.366 . S
C2039 C2038 1.366 . S
C2039 C2040 1.414 . S
C2039 C2042 1.499 . S
C2040 H2020 0.950 . S
C2040 C2039 1.414 . S
C2040 C2041 1.374 . S
C2041 H2021 0.950 . S
C2041 C2037 1.385 . S
C2041 C2040 1.374 . S
C2042 C2039 1.499 . S
C2042 C2043 1.373 1_655 S
C2042 C2044 1.389 . S
C2043 H2022 0.950 . S
C2043 C2042 1.373 1_455 S
C2043 C2059 1.377 . S
C2044 C2042 1.389 . S
C2044 C2045 1.524 . S
C2044 C2058 1.377 1_655 S
C2045 C2044 1.524 . S
C2045 C2046 1.397 . S
C2045 C2050 1.363 . S
C2046 H2023 0.950 . S
C2046 C2045 1.397 . S
C2046 C2047 1.334 . S
C2047 H2024 0.950 . S
C2047 C2046 1.334 . S
C2047 C2048 1.287 . S
C2048 C2047 1.287 . S
C2048 C2049 1.524 . S
C2048 H2067 0.913 . S
C2049 H2025 0.950 . S
C2049 C2048 1.524 . S
C2049 C2050 1.415 . S
C2050 H2026 0.950 . S
C2050 C2045 1.363 . S
C2050 C2049 1.415 . S
C2051 H2027 0.951 . S
C2051 C2052 1.366 . S
C2051 C2053 1.388 . S
C2052 C2051 1.366 . S
C2052 C2056 1.385 . S
C2053 H2028 0.951 . S
C2053 C2051 1.388 . S
C2053 C2054 1.366 . S
C2054 C2053 1.366 . S
C2054 C2055 1.414 . S
C2054 C2057 1.499 . S
C2055 H2029 0.950 . S
C2055 C2054 1.414 . S
C2055 C2056 1.374 . S
C2056 H2030 0.950 . S
C2056 C2052 1.385 . S
C2056 C2055 1.374 . S
C2057 C2054 1.499 . S
C2057 C2058 1.373 . S
C2057 C2059 1.389 . S
C2058 H2031 0.950 . S
C2058 C2044 1.377 1_455 S
C2058 C2057 1.373 . S
C2059 C2043 1.377 . S
C2059 C2057 1.389 . S
C2059 C2060 1.524 . S
C2060 C2059 1.524 . S
C2060 C2061 1.397 . S
C2060 C2065 1.363 . S
C2061 H2032 0.950 . S
C2061 C2060 1.397 . S
C2061 C2062 1.334 . S
C2062 H2033 0.950 . S
C2062 C2061 1.334 . S
C2062 C2063 1.287 . S
C2063 C2062 1.287 . S
C2063 C2064 1.524 . S
C2063 H2066 0.999 . S
C2064 H2034 0.950 . S
C2064 C2063 1.524 . S
C2064 C2065 1.415 . S
C2065 H2035 0.950 . S
C2065 C2060 1.363 . S
C2065 C2064 1.415 . S
H2066 C2063 0.999 . S
H2067 C2048 0.913 . S
H2068 C2086 0.951 . S
H2069 C2088 0.951 . S
H2070 C2090 0.950 . S
H2071 C2091 0.950 . S
H2072 C2093 0.950 . S
H2073 C2096 0.950 . S
H2074 C2097 0.950 . S
H2075 C2099 0.950 . S
H2076 C2100 0.950 . S
H2077 C2101 0.951 . S
H2078 C2103 0.951 . S
H2079 C2105 0.950 . S
H2080 C2106 0.950 . S
H2081 C2108 0.950 . S
H2082 C2111 0.950 . S
H2083 C2112 0.950 . S
H2084 C2114 0.950 . S
H2085 C2115 0.950 . S
C2086 H2068 0.951 . S
C2086 C2087 1.366 . S
C2086 C2088 1.388 . S
C2087 C2086 1.366 . S
C2087 C2091 1.385 . S
C2088 H2069 0.951 . S
C2088 C2086 1.388 . S
C2088 C2089 1.366 . S
C2089 C2088 1.366 . S
C2089 C2090 1.414 . S
C2089 C2092 1.499 . S
C2090 H2070 0.950 . S
C2090 C2089 1.414 . S
C2090 C2091 1.374 . S
C2091 H2071 0.950 . S
C2091 C2087 1.385 . S
C2091 C2090 1.374 . S
C2092 C2089 1.499 . S
C2092 C2093 1.373 . S
C2092 C2094 1.389 . S
C2093 H2072 0.950 . S
C2093 C2092 1.373 . S
C2093 C2109 1.377 . S
C2094 C2092 1.389 . S
C2094 C2095 1.524 . S
C2094 C2108 1.377 . S
C2095 C2094 1.524 . S
C2095 C2096 1.397 . S
C2095 C2100 1.363 . S
C2096 H2073 0.950 . S
C2096 C2095 1.397 . S
C2096 C2097 1.334 . S
C2097 H2074 0.950 . S
C2097 C2096 1.334 . S
C2097 C2098 1.287 . S
C2098 C2097 1.287 . S
C2098 C2099 1.524 . S
C2098 H2117 0.913 . S
C2099 H2075 0.950 . S
C2099 C2098 1.524 . S
C2099 C2100 1.415 . S
C2100 H2076 0.950 . S
C2100 C2095 1.363 . S
C2100 C2099 1.415 . S
C2101 H2077 0.951 . S
C2101 C2102 1.366 . S
C2101 C2103 1.388 . S
C2102 C2101 1.366 . S
C2102 C2106 1.385 . S
C2103 H2078 0.951 . S
C2103 C2101 1.388 . S
C2103 C2104 1.366 . S
C2104 C2103 1.366 . S
C2104 C2105 1.414 . S
C2104 C2107 1.499 . S
C2105 H2079 0.950 . S
C2105 C2104 1.414 . S
C2105 C2106 1.374 . S
C2106 H2080 0.950 . S
C2106 C2102 1.385 . S
C2106 C2105 1.374 . S
C2107 C2104 1.499 . S
C2107 C2108 1.373 . S
C2107 C2109 1.389 . S
C2108 H2081 0.950 . S
C2108 C2094 1.377 . S
C2108 C2107 1.373 . S
C2109 C2093 1.377 . S
C2109 C2107 1.389 . S
C2109 C2110 1.524 . S
C2110 C2109 1.524 . S
C2110 C2111 1.397 . S
C2110 C2115 1.363 . S
C2111 H2082 0.950 . S
C2111 C2110 1.397 . S
C2111 C2112 1.334 . S
C2112 H2083 0.950 . S
C2112 C2111 1.334 . S
C2112 C2113 1.287 . S
C2113 C2112 1.287 . S
C2113 C2114 1.524 . S
C2113 H2116 0.999 . S
C2114 H2084 0.950 . S
C2114 C2113 1.524 . S
C2114 C2115 1.415 . S
C2115 H2085 0.950 . S
C2115 C2110 1.363 . S
C2115 C2114 1.415 . S
H2116 C2113 0.999 . S
H2117 C2098 0.913 . S
H2118 C2136 0.951 . S
H2119 C2138 0.951 . S
H2120 C2140 0.950 . S
H2121 C2141 0.950 . S
H2122 C2143 0.950 . S
H2123 C2146 0.950 . S
H2124 C2147 0.950 . S
H2125 C2149 0.950 . S
H2126 C2150 0.950 . S
H2127 C2151 0.951 . S
H2128 C2153 0.951 . S
H2129 C2155 0.950 . S
H2130 C2156 0.950 . S
H2131 C2158 0.950 . S
H2132 C2161 0.950 . S
H2133 C2162 0.950 . S
H2134 C2164 0.950 . S
H2135 C2165 0.950 . S
C2136 H2118 0.951 . S
C2136 C2137 1.366 . S
C2136 C2138 1.388 . S
C2137 C2136 1.366 . S
C2137 C2141 1.385 . S
C2138 H2119 0.951 . S
C2138 C2136 1.388 . S
C2138 C2139 1.366 . S
C2139 C2138 1.366 . S
C2139 C2140 1.414 . S
C2139 C2142 1.499 . S
C2140 H2120 0.950 . S
C2140 C2139 1.414 . S
C2140 C2141 1.374 . S
C2141 H2121 0.950 . S
C2141 C2137 1.385 . S
C2141 C2140 1.374 . S
C2142 C2139 1.499 . S
C2142 C2143 1.373 . S
C2142 C2144 1.389 . S
C2143 H2122 0.950 . S
C2143 C2142 1.373 . S
C2143 C2159 1.377 . S
C2144 C2142 1.389 . S
C2144 C2145 1.524 . S
C2144 C2158 1.377 . S
C2145 C2144 1.524 . S
C2145 C2146 1.397 . S
C2145 C2150 1.363 . S
C2146 H2123 0.950 . S
C2146 C2145 1.397 . S
C2146 C2147 1.334 . S
C2147 H2124 0.950 . S
C2147 C2146 1.334 . S
C2147 C2148 1.287 . S
C2148 C2147 1.287 . S
C2148 C2149 1.524 . S
C2148 H2167 0.913 . S
C2149 H2125 0.950 . S
C2149 C2148 1.524 . S
C2149 C2150 1.415 . S
C2150 H2126 0.950 . S
C2150 C2145 1.363 . S
C2150 C2149 1.415 . S
C2151 H2127 0.951 . S
C2151 C2152 1.366 . S
C2151 C2153 1.388 . S
C2152 C2151 1.366 . S
C2152 C2156 1.385 . S
C2153 H2128 0.951 . S
C2153 C2151 1.388 . S
C2153 C2154 1.366 . S
C2154 C2153 1.366 . S
C2154 C2155 1.414 . S
C2154 C2157 1.499 . S
C2155 H2129 0.950 . S
C2155 C2154 1.414 . S
C2155 C2156 1.374 . S
C2156 H2130 0.950 . S
C2156 C2152 1.385 . S
C2156 C2155 1.374 . S
C2157 C2154 1.499 . S
C2157 C2158 1.373 . S
C2157 C2159 1.389 . S
C2158 H2131 0.950 . S
C2158 C2144 1.377 . S
C2158 C2157 1.373 . S
C2159 C2143 1.377 . S
C2159 C2157 1.389 . S
C2159 C2160 1.524 . S
C2160 C2159 1.524 . S
C2160 C2161 1.397 . S
C2160 C2165 1.363 . S
C2161 H2132 0.950 . S
C2161 C2160 1.397 . S
C2161 C2162 1.334 . S
C2162 H2133 0.950 . S
C2162 C2161 1.334 . S
C2162 C2163 1.287 . S
C2163 C2162 1.287 . S
C2163 C2164 1.524 . S
C2163 H2166 0.999 . S
C2164 H2134 0.950 . S
C2164 C2163 1.524 . S
C2164 C2165 1.415 . S
C2165 H2135 0.950 . S
C2165 C2160 1.363 . S
C2165 C2164 1.415 . S
H2166 C2163 0.999 . S
H2167 C2148 0.913 . S
H2168 C2186 0.951 . S
H2169 C2188 0.951 . S
H2170 C2190 0.950 . S
H2171 C2191 0.950 . S
H2172 C2193 0.950 . S
H2173 C2196 0.950 . S
H2174 C2197 0.950 . S
H2175 C2199 0.950 . S
H2176 C2200 0.950 . S
H2177 C2201 0.951 . S
H2178 C2203 0.951 . S
H2179 C2205 0.950 . S
H2180 C2206 0.950 . S
H2181 C2208 0.950 . S
H2182 C2211 0.950 . S
H2183 C2212 0.950 . S
H2184 C2214 0.950 . S
H2185 C2215 0.950 . S
C2186 H2168 0.951 . S
C2186 C2187 1.366 . S
C2186 C2188 1.388 . S
C2187 C2186 1.366 . S
C2187 C2191 1.385 . S
C2188 H2169 0.951 . S
C2188 C2186 1.388 . S
C2188 C2189 1.366 . S
C2189 C2188 1.366 . S
C2189 C2190 1.414 . S
C2189 C2192 1.499 . S
C2190 H2170 0.950 . S
C2190 C2189 1.414 . S
C2190 C2191 1.374 . S
C2191 H2171 0.950 . S
C2191 C2187 1.385 . S
C2191 C2190 1.374 . S
C2192 C2189 1.499 . S
C2192 C2193 1.373 . S
C2192 C2194 1.389 . S
C2193 H2172 0.950 . S
C2193 C2192 1.373 . S
C2193 C2209 1.377 . S
C2194 C2192 1.389 . S
C2194 C2195 1.524 . S
C2194 C2208 1.377 . S
C2195 C2194 1.524 . S
C2195 C2196 1.397 . S
C2195 C2200 1.363 . S
C2196 H2173 0.950 . S
C2196 C2195 1.397 . S
C2196 C2197 1.334 . S
C2197 H2174 0.950 . S
C2197 C2196 1.334 . S
C2197 C2198 1.287 . S
C2198 C2197 1.287 . S
C2198 C2199 1.524 . S
C2198 H2217 0.913 . S
C2199 H2175 0.950 . S
C2199 C2198 1.524 . S
C2199 C2200 1.415 . S
C2200 H2176 0.950 . S
C2200 C2195 1.363 . S
C2200 C2199 1.415 . S
C2201 H2177 0.951 . S
C2201 C2202 1.366 . S
C2201 C2203 1.388 . S
C2202 C2201 1.366 . S
C2202 C2206 1.385 . S
C2203 H2178 0.951 . S
C2203 C2201 1.388 . S
C2203 C2204 1.366 . S
C2204 C2203 1.366 . S
C2204 C2205 1.414 . S
C2204 C2207 1.499 . S
C2205 H2179 0.950 . S
C2205 C2204 1.414 . S
C2205 C2206 1.374 . S
C2206 H2180 0.950 . S
C2206 C2202 1.385 . S
C2206 C2205 1.374 . S
C2207 C2204 1.499 . S
C2207 C2208 1.373 . S
C2207 C2209 1.389 . S
C2208 H2181 0.950 . S
C2208 C2194 1.377 . S
C2208 C2207 1.373 . S
C2209 C2193 1.377 . S
C2209 C2207 1.389 . S
C2209 C2210 1.524 . S
C2210 C2209 1.524 . S
C2210 C2211 1.397 . S
C2210 C2215 1.363 . S
C2211 H2182 0.950 . S
C2211 C2210 1.397 . S
C2211 C2212 1.334 . S
C2212 H2183 0.950 . S
C2212 C2211 1.334 . S
C2212 C2213 1.287 . S
C2213 C2212 1.287 . S
C2213 C2214 1.524 . S
C2213 H2216 0.999 . S
C2214 H2184 0.950 . S
C2214 C2213 1.524 . S
C2214 C2215 1.415 . S
C2215 H2185 0.950 . S
C2215 C2210 1.363 . S
C2215 C2214 1.415 . S
H2216 C2213 0.999 . S
H2217 C2198 0.913 . S
H2218 C2236 0.951 . S
H2219 C2238 0.951 . S
H2220 C2240 0.950 . S
H2221 C2241 0.950 . S
H2222 C2243 0.950 . S
H2223 C2246 0.950 . S
H2224 C2247 0.950 . S
H2225 C2249 0.950 . S
H2226 C2250 0.950 . S
H2227 C2251 0.951 . S
H2228 C2253 0.951 . S
H2229 C2255 0.950 . S
H2230 C2256 0.950 . S
H2231 C2258 0.950 . S
H2232 C2261 0.950 . S
H2233 C2262 0.950 . S
H2234 C2264 0.950 . S
H2235 C2265 0.950 . S
C2236 H2218 0.951 . S
C2236 C2237 1.366 . S
C2236 C2238 1.388 . S
C2237 C2236 1.366 . S
C2237 C2241 1.385 . S
C2238 H2219 0.951 . S
C2238 C2236 1.388 . S
C2238 C2239 1.366 . S
C2239 C2238 1.366 . S
C2239 C2240 1.414 . S
C2239 C2242 1.499 . S
C2240 H2220 0.950 . S
C2240 C2239 1.414 . S
C2240 C2241 1.374 . S
C2241 H2221 0.950 . S
C2241 C2237 1.385 . S
C2241 C2240 1.374 . S
C2242 C2239 1.499 . S
C2242 C2243 1.373 . S
C2242 C2244 1.389 . S
C2243 H2222 0.950 . S
C2243 C2242 1.373 . S
C2243 C2259 1.377 . S
C2244 C2242 1.389 . S
C2244 C2245 1.524 . S
C2244 C2258 1.377 . S
C2245 C2244 1.524 . S
C2245 C2246 1.397 . S
C2245 C2250 1.363 . S
C2246 H2223 0.950 . S
C2246 C2245 1.397 . S
C2246 C2247 1.334 . S
C2247 H2224 0.950 . S
C2247 C2246 1.334 . S
C2247 C2248 1.287 . S
C2248 C2247 1.287 . S
C2248 C2249 1.524 . S
C2248 H2267 0.913 . S
C2249 H2225 0.950 . S
C2249 C2248 1.524 . S
C2249 C2250 1.415 . S
C2250 H2226 0.950 . S
C2250 C2245 1.363 . S
C2250 C2249 1.415 . S
C2251 H2227 0.951 . S
C2251 C2252 1.366 . S
C2251 C2253 1.388 . S
C2252 C2251 1.366 . S
C2252 C2256 1.385 . S
C2253 H2228 0.951 . S
C2253 C2251 1.388 . S
C2253 C2254 1.366 . S
C2254 C2253 1.366 . S
C2254 C2255 1.414 . S
C2254 C2257 1.499 . S
C2255 H2229 0.950 . S
C2255 C2254 1.414 . S
C2255 C2256 1.374 . S
C2256 H2230 0.950 . S
C2256 C2252 1.385 . S
C2256 C2255 1.374 . S
C2257 C2254 1.499 . S
C2257 C2258 1.373 . S
C2257 C2259 1.389 . S
C2258 H2231 0.950 . S
C2258 C2244 1.377 . S
C2258 C2257 1.373 . S
C2259 C2243 1.377 . S
C2259 C2257 1.389 . S
C2259 C2260 1.524 . S
C2260 C2259 1.524 . S
C2260 C2261 1.397 . S
C2260 C2265 1.363 . S
C2261 H2232 0.950 . S
C2261 C2260 1.397 . S
C2261 C2262 1.334 . S
C2262 H2233 0.950 . S
C2262 C2261 1.334 . S
C2262 C2263 1.287 . S
C2263 C2262 1.287 . S
C2263 C2264 1.524 . S
C2263 H2266 0.999 . S
C2264 H2234 0.950 . S
C2264 C2263 1.524 . S
C2264 C2265 1.415 . S
C2265 H2235 0.950 . S
C2265 C2260 1.363 . S
C2265 C2264 1.415 . S
H2266 C2263 0.999 . S
H2267 C2248 0.913 . S
H2268 C2286 0.951 . S
H2269 C2288 0.951 . S
H2270 C2290 0.950 . S
H2271 C2291 0.950 . S
H2272 C2293 0.950 . S
H2273 C2296 0.950 . S
H2274 C2297 0.950 . S
H2275 C2299 0.950 . S
H2276 C2300 0.950 . S
H2277 C2301 0.951 . S
H2278 C2303 0.951 . S
H2279 C2305 0.950 . S
H2280 C2306 0.950 . S
H2281 C2308 0.950 . S
H2282 C2311 0.950 . S
H2283 C2312 0.950 . S
H2284 C2314 0.950 1_565 S
H2285 C2315 0.950 1_565 S
C2286 H2268 0.951 . S
C2286 C2287 1.366 . S
C2286 C2288 1.388 . S
C2287 C2286 1.366 . S
C2287 C2291 1.385 . S
C2288 H2269 0.951 . S
C2288 C2286 1.388 . S
C2288 C2289 1.366 . S
C2289 C2288 1.366 . S
C2289 C2290 1.414 . S
C2289 C2292 1.499 . S
C2290 H2270 0.950 . S
C2290 C2289 1.414 . S
C2290 C2291 1.374 . S
C2291 H2271 0.950 . S
C2291 C2287 1.385 . S
C2291 C2290 1.374 . S
C2292 C2289 1.499 . S
C2292 C2293 1.373 . S
C2292 C2294 1.389 1_565 S
C2293 H2272 0.950 . S
C2293 C2292 1.373 . S
C2293 C2309 1.377 1_565 S
C2294 C2292 1.389 1_545 S
C2294 C2295 1.524 . S
C2294 C2308 1.377 . S
C2295 C2294 1.524 . S
C2295 C2296 1.397 1_545 S
C2295 C2300 1.363 . S
C2296 H2273 0.950 . S
C2296 C2295 1.397 1_565 S
C2296 C2297 1.334 . S
C2297 H2274 0.950 . S
C2297 C2296 1.334 . S
C2297 C2298 1.287 1_565 S
C2298 C2297 1.287 1_545 S
C2298 C2299 1.524 . S
C2298 H2317 0.913 1_545 S
C2299 H2275 0.950 . S
C2299 C2298 1.524 . S
C2299 C2300 1.415 . S
C2300 H2276 0.950 . S
C2300 C2295 1.363 . S
C2300 C2299 1.415 . S
C2301 H2277 0.951 . S
C2301 C2302 1.366 . S
C2301 C2303 1.388 . S
C2302 C2301 1.366 . S
C2302 C2306 1.385 . S
C2303 H2278 0.951 . S
C2303 C2301 1.388 . S
C2303 C2304 1.366 . S
C2304 C2303 1.366 . S
C2304 C2305 1.414 . S
C2304 C2307 1.499 . S
C2305 H2279 0.950 . S
C2305 C2304 1.414 . S
C2305 C2306 1.374 . S
C2306 H2280 0.950 . S
C2306 C2302 1.385 . S
C2306 C2305 1.374 . S
C2307 C2304 1.499 . S
C2307 C2308 1.373 . S
C2307 C2309 1.389 . S
C2308 H2281 0.950 . S
C2308 C2294 1.377 . S
C2308 C2307 1.373 . S
C2309 C2293 1.377 1_545 S
C2309 C2307 1.389 . S
C2309 C2310 1.524 . S
C2310 C2309 1.524 . S
C2310 C2311 1.397 . S
C2310 C2315 1.363 . S
C2311 H2282 0.950 . S
C2311 C2310 1.397 . S
C2311 C2312 1.334 . S
C2312 H2283 0.950 . S
C2312 C2311 1.334 . S
C2312 C2313 1.287 . S
C2313 C2312 1.287 . S
C2313 C2314 1.524 . S
C2313 H2316 0.999 . S
C2314 H2284 0.950 1_545 S
C2314 C2313 1.524 . S
C2314 C2315 1.415 . S
C2315 H2285 0.950 1_545 S
C2315 C2310 1.363 . S
C2315 C2314 1.415 . S
H2316 C2313 0.999 . S
H2317 C2298 0.913 1_565 S
H2318 C2336 0.951 . S
H2319 C2338 0.951 . S
H2320 C2340 0.950 . S
H2321 C2341 0.950 . S
H2322 C2343 0.950 1_455 S
H2323 C2346 0.950 . S
H2324 C2347 0.949 1_455 S
H2325 C2349 0.950 . S
H2326 C2350 0.950 . S
H2327 C2351 0.951 . S
H2328 C2353 0.951 . S
H2329 C2355 0.950 . S
H2330 C2356 0.950 . S
H2331 C2358 0.950 . S
H2332 C2361 0.950 . S
H2333 C2362 0.950 . S
H2334 C2364 0.950 . S
H2335 C2365 0.950 . S
C2336 H2318 0.951 . S
C2336 C2337 1.366 . S
C2336 C2338 1.388 . S
C2337 C2336 1.366 . S
C2337 C2341 1.385 . S
C2338 H2319 0.951 . S
C2338 C2336 1.388 . S
C2338 C2339 1.366 . S
C2339 C2338 1.366 . S
C2339 C2340 1.414 . S
C2339 C2342 1.499 . S
C2340 H2320 0.950 . S
C2340 C2339 1.414 . S
C2340 C2341 1.374 . S
C2341 H2321 0.950 . S
C2341 C2337 1.385 . S
C2341 C2340 1.374 . S
C2342 C2339 1.499 . S
C2342 C2343 1.373 1_455 S
C2342 C2344 1.389 1_455 S
C2343 H2322 0.950 1_655 S
C2343 C2342 1.373 1_655 S
C2343 C2359 1.377 . S
C2344 C2342 1.389 1_655 S
C2344 C2345 1.524 . S
C2344 C2358 1.377 . S
C2345 C2344 1.524 . S
C2345 C2346 1.397 . S
C2345 C2350 1.363 . S
C2346 H2323 0.950 . S
C2346 C2345 1.397 . S
C2346 C2347 1.334 . S
C2347 H2324 0.949 1_655 S
C2347 C2346 1.334 . S
C2347 C2348 1.287 . S
C2348 C2347 1.287 . S
C2348 C2349 1.524 . S
C2348 H2367 0.913 . S
C2349 H2325 0.950 . S
C2349 C2348 1.524 . S
C2349 C2350 1.415 . S
C2350 H2326 0.950 . S
C2350 C2345 1.363 . S
C2350 C2349 1.415 . S
C2351 H2327 0.951 . S
C2351 C2352 1.366 . S
C2351 C2353 1.388 . S
C2352 C2351 1.366 . S
C2352 C2356 1.385 . S
C2353 H2328 0.951 . S
C2353 C2351 1.388 . S
C2353 C2354 1.366 . S
C2354 C2353 1.366 . S
C2354 C2355 1.414 . S
C2354 C2357 1.499 . S
C2355 H2329 0.950 . S
C2355 C2354 1.414 . S
C2355 C2356 1.374 . S
C2356 H2330 0.950 . S
C2356 C2352 1.385 . S
C2356 C2355 1.374 . S
C2357 C2354 1.499 . S
C2357 C2358 1.373 . S
C2357 C2359 1.389 . S
C2358 H2331 0.950 . S
C2358 C2344 1.377 . S
C2358 C2357 1.373 . S
C2359 C2343 1.377 . S
C2359 C2357 1.389 . S
C2359 C2360 1.524 . S
C2360 C2359 1.524 . S
C2360 C2361 1.397 . S
C2360 C2365 1.363 . S
C2361 H2332 0.950 . S
C2361 C2360 1.397 . S
C2361 C2362 1.334 . S
C2362 H2333 0.950 . S
C2362 C2361 1.334 . S
C2362 C2363 1.287 . S
C2363 C2362 1.287 . S
C2363 C2364 1.524 . S
C2363 H2366 0.999 . S
C2364 H2334 0.950 . S
C2364 C2363 1.524 . S
C2364 C2365 1.415 . S
C2365 H2335 0.950 . S
C2365 C2360 1.363 . S
C2365 C2364 1.415 . S
H2366 C2363 0.999 . S
H2367 C2348 0.913 . S
H2368 C2386 0.951 . S
H2369 C2388 0.951 . S
H2370 C2390 0.950 . S
H2371 C2391 0.950 . S
H2372 C2393 0.950 . S
H2373 C2396 0.950 . S
H2374 C2397 0.950 . S
H2375 C2399 0.950 . S
H2376 C2400 0.950 . S
H2377 C2401 0.951 . S
H2378 C2403 0.951 . S
H2379 C2405 0.950 . S
H2380 C2406 0.950 . S
H2381 C2408 0.950 . S
H2382 C2411 0.950 . S
H2383 C2412 0.950 . S
H2384 C2414 0.950 . S
H2385 C2415 0.950 . S
C2386 H2368 0.951 . S
C2386 C2387 1.366 . S
C2386 C2388 1.388 . S
C2387 C2386 1.366 . S
C2387 C2391 1.385 . S
C2388 H2369 0.951 . S
C2388 C2386 1.388 . S
C2388 C2389 1.366 . S
C2389 C2388 1.366 . S
C2389 C2390 1.414 . S
C2389 C2392 1.499 . S
C2390 H2370 0.950 . S
C2390 C2389 1.414 . S
C2390 C2391 1.374 . S
C2391 H2371 0.950 . S
C2391 C2387 1.385 . S
C2391 C2390 1.374 . S
C2392 C2389 1.499 . S
C2392 C2393 1.373 . S
C2392 C2394 1.389 . S
C2393 H2372 0.950 . S
C2393 C2392 1.373 . S
C2393 C2409 1.377 . S
C2394 C2392 1.389 . S
C2394 C2395 1.524 . S
C2394 C2408 1.377 . S
C2395 C2394 1.524 . S
C2395 C2396 1.397 . S
C2395 C2400 1.363 . S
C2396 H2373 0.950 . S
C2396 C2395 1.397 . S
C2396 C2397 1.334 . S
C2397 H2374 0.950 . S
C2397 C2396 1.334 . S
C2397 C2398 1.287 . S
C2398 C2397 1.287 . S
C2398 C2399 1.524 . S
C2398 H2417 0.913 . S
C2399 H2375 0.950 . S
C2399 C2398 1.524 . S
C2399 C2400 1.415 . S
C2400 H2376 0.950 . S
C2400 C2395 1.363 . S
C2400 C2399 1.415 . S
C2401 H2377 0.951 . S
C2401 C2402 1.366 . S
C2401 C2403 1.388 . S
C2402 C2401 1.366 . S
C2402 C2406 1.385 . S
C2403 H2378 0.951 . S
C2403 C2401 1.388 . S
C2403 C2404 1.366 . S
C2404 C2403 1.366 . S
C2404 C2405 1.414 . S
C2404 C2407 1.499 . S
C2405 H2379 0.950 . S
C2405 C2404 1.414 . S
C2405 C2406 1.374 . S
C2406 H2380 0.950 . S
C2406 C2402 1.385 . S
C2406 C2405 1.374 . S
C2407 C2404 1.499 . S
C2407 C2408 1.373 . S
C2407 C2409 1.389 . S
C2408 H2381 0.950 . S
C2408 C2394 1.377 . S
C2408 C2407 1.373 . S
C2409 C2393 1.377 . S
C2409 C2407 1.389 . S
C2409 C2410 1.524 . S
C2410 C2409 1.524 . S
C2410 C2411 1.397 . S
C2410 C2415 1.363 . S
C2411 H2382 0.950 . S
C2411 C2410 1.397 . S
C2411 C2412 1.334 . S
C2412 H2383 0.950 . S
C2412 C2411 1.334 . S
C2412 C2413 1.287 . S
C2413 C2412 1.287 . S
C2413 C2414 1.524 . S
C2413 H2416 0.999 . S
C2414 H2384 0.950 . S
C2414 C2413 1.524 . S
C2414 C2415 1.415 . S
C2415 H2385 0.950 . S
C2415 C2410 1.363 . S
C2415 C2414 1.415 . S
H2416 C2413 0.999 . S
H2417 C2398 0.913 . S
H2418 C2436 0.951 . S
H2419 C2438 0.951 . S
H2420 C2440 0.950 . S
H2421 C2441 0.950 . S
H2422 C2443 0.950 . S
H2423 C2446 0.950 1_455 S
H2424 C2447 0.950 1_455 S
H2425 C2449 0.950 . S
H2426 C2450 0.950 . S
H2427 C2451 0.951 . S
H2428 C2453 0.951 . S
H2429 C2455 0.950 . S
H2430 C2456 0.950 . S
H2431 C2458 0.950 . S
H2432 C2461 0.950 . S
H2433 C2462 0.950 . S
H2434 C2464 0.950 . S
H2435 C2465 0.950 . S
C2436 H2418 0.951 . S
C2436 C2437 1.366 . S
C2436 C2438 1.388 . S
C2437 C2436 1.366 . S
C2437 C2441 1.385 . S
C2438 H2419 0.951 . S
C2438 C2436 1.388 . S
C2438 C2439 1.366 . S
C2439 C2438 1.366 . S
C2439 C2440 1.414 . S
C2439 C2442 1.499 . S
C2440 H2420 0.950 . S
C2440 C2439 1.414 . S
C2440 C2441 1.374 . S
C2441 H2421 0.950 . S
C2441 C2437 1.385 . S
C2441 C2440 1.374 . S
C2442 C2439 1.499 . S
C2442 C2443 1.373 . S
C2442 C2444 1.389 1_455 S
C2443 H2422 0.950 . S
C2443 C2442 1.373 . S
C2443 C2459 1.377 1_455 S
C2444 C2442 1.389 1_655 S
C2444 C2445 1.524 . S
C2444 C2458 1.377 . S
C2445 C2444 1.524 . S
C2445 C2446 1.397 . S
C2445 C2450 1.363 . S
C2446 H2423 0.950 1_655 S
C2446 C2445 1.397 . S
C2446 C2447 1.334 . S
C2447 H2424 0.950 1_655 S
C2447 C2446 1.334 . S
C2447 C2448 1.287 . S
C2448 C2447 1.287 . S
C2448 C2449 1.524 . S
C2448 H2467 0.913 . S
C2449 H2425 0.950 . S
C2449 C2448 1.524 . S
C2449 C2450 1.415 . S
C2450 H2426 0.950 . S
C2450 C2445 1.363 . S
C2450 C2449 1.415 . S
C2451 H2427 0.951 . S
C2451 C2452 1.366 . S
C2451 C2453 1.388 . S
C2452 C2451 1.366 . S
C2452 C2456 1.385 . S
C2453 H2428 0.951 . S
C2453 C2451 1.388 . S
C2453 C2454 1.366 . S
C2454 C2453 1.366 . S
C2454 C2455 1.414 . S
C2454 C2457 1.499 . S
C2455 H2429 0.950 . S
C2455 C2454 1.414 . S
C2455 C2456 1.374 . S
C2456 H2430 0.950 . S
C2456 C2452 1.385 . S
C2456 C2455 1.374 . S
C2457 C2454 1.499 . S
C2457 C2458 1.373 . S
C2457 C2459 1.389 . S
C2458 H2431 0.950 . S
C2458 C2444 1.377 . S
C2458 C2457 1.373 . S
C2459 C2443 1.377 1_655 S
C2459 C2457 1.389 . S
C2459 C2460 1.524 . S
C2460 C2459 1.524 . S
C2460 C2461 1.397 . S
C2460 C2465 1.363 1_655 S
C2461 H2432 0.950 . S
C2461 C2460 1.397 . S
C2461 C2462 1.334 . S
C2462 H2433 0.950 . S
C2462 C2461 1.334 . S
C2462 C2463 1.287 . S
C2463 C2462 1.287 . S
C2463 C2464 1.524 1_655 S
C2463 H2466 0.999 . S
C2464 H2434 0.950 . S
C2464 C2463 1.524 1_455 S
C2464 C2465 1.415 . S
C2465 H2435 0.950 . S
C2465 C2460 1.363 1_455 S
C2465 C2464 1.415 . S
H2466 C2463 0.999 . S
H2467 C2448 0.913 . S
H2468 C2486 0.951 . S
H2469 C2488 0.951 . S
H2470 C2490 0.950 . S
H2471 C2491 0.950 . S
H2472 C2493 0.950 . S
H2473 C2496 0.950 . S
H2474 C2497 0.950 . S
H2475 C2499 0.950 . S
H2476 C2500 0.950 . S
H2477 C2501 0.951 . S
H2478 C2503 0.951 . S
H2479 C2505 0.950 . S
H2480 C2506 0.950 . S
H2481 C2508 0.950 . S
H2482 C2511 0.950 . S
H2483 C2512 0.950 . S
H2484 C2514 0.950 . S
H2485 C2515 0.950 . S
C2486 H2468 0.951 . S
C2486 C2487 1.366 . S
C2486 C2488 1.388 . S
C2487 C2486 1.366 . S
C2487 C2491 1.385 . S
C2488 H2469 0.951 . S
C2488 C2486 1.388 . S
C2488 C2489 1.366 . S
C2489 C2488 1.366 . S
C2489 C2490 1.414 . S
C2489 C2492 1.499 . S
C2490 H2470 0.950 . S
C2490 C2489 1.414 . S
C2490 C2491 1.374 . S
C2491 H2471 0.950 . S
C2491 C2487 1.385 . S
C2491 C2490 1.374 . S
C2492 C2489 1.499 . S
C2492 C2493 1.373 . S
C2492 C2494 1.389 . S
C2493 H2472 0.950 . S
C2493 C2492 1.373 . S
C2493 C2509 1.377 . S
C2494 C2492 1.389 . S
C2494 C2495 1.524 . S
C2494 C2508 1.377 . S
C2495 C2494 1.524 . S
C2495 C2496 1.397 . S
C2495 C2500 1.363 . S
C2496 H2473 0.950 . S
C2496 C2495 1.397 . S
C2496 C2497 1.334 . S
C2497 H2474 0.950 . S
C2497 C2496 1.334 . S
C2497 C2498 1.287 . S
C2498 C2497 1.287 . S
C2498 C2499 1.524 . S
C2498 H2517 0.913 . S
C2499 H2475 0.950 . S
C2499 C2498 1.524 . S
C2499 C2500 1.415 . S
C2500 H2476 0.950 . S
C2500 C2495 1.363 . S
C2500 C2499 1.415 . S
C2501 H2477 0.951 . S
C2501 C2502 1.366 . S
C2501 C2503 1.388 . S
C2502 C2501 1.366 . S
C2502 C2506 1.385 . S
C2503 H2478 0.951 . S
C2503 C2501 1.388 . S
C2503 C2504 1.366 . S
C2504 C2503 1.366 . S
C2504 C2505 1.414 . S
C2504 C2507 1.499 . S
C2505 H2479 0.950 . S
C2505 C2504 1.414 . S
C2505 C2506 1.374 . S
C2506 H2480 0.950 . S
C2506 C2502 1.385 . S
C2506 C2505 1.374 . S
C2507 C2504 1.499 . S
C2507 C2508 1.373 . S
C2507 C2509 1.389 . S
C2508 H2481 0.950 . S
C2508 C2494 1.377 . S
C2508 C2507 1.373 . S
C2509 C2493 1.377 . S
C2509 C2507 1.389 . S
C2509 C2510 1.524 . S
C2510 C2509 1.524 . S
C2510 C2511 1.397 . S
C2510 C2515 1.363 . S
C2511 H2482 0.950 . S
C2511 C2510 1.397 . S
C2511 C2512 1.334 . S
C2512 H2483 0.950 . S
C2512 C2511 1.334 . S
C2512 C2513 1.287 . S
C2513 C2512 1.287 . S
C2513 C2514 1.524 . S
C2513 H2516 0.999 . S
C2514 H2484 0.950 . S
C2514 C2513 1.524 . S
C2514 C2515 1.415 . S
C2515 H2485 0.950 . S
C2515 C2510 1.363 . S
C2515 C2514 1.415 . S
H2516 C2513 0.999 . S
H2517 C2498 0.913 . S
H2518 C2536 0.951 . S
H2519 C2538 0.951 . S
H2520 C2540 0.950 . S
H2521 C2541 0.950 . S
H2522 C2543 0.950 . S
H2523 C2546 0.950 . S
H2524 C2547 0.950 . S
H2525 C2549 0.950 . S
H2526 C2550 0.950 . S
H2527 C2551 0.951 . S
H2528 C2553 0.951 . S
H2529 C2555 0.950 . S
H2530 C2556 0.950 . S
H2531 C2558 0.950 . S
H2532 C2561 0.950 . S
H2533 C2562 0.950 . S
H2534 C2564 0.950 . S
H2535 C2565 0.950 . S
C2536 H2518 0.951 . S
C2536 C2537 1.366 . S
C2536 C2538 1.388 . S
C2537 C2536 1.366 . S
C2537 C2541 1.385 . S
C2538 H2519 0.951 . S
C2538 C2536 1.388 . S
C2538 C2539 1.366 . S
C2539 C2538 1.366 . S
C2539 C2540 1.414 . S
C2539 C2542 1.499 . S
C2540 H2520 0.950 . S
C2540 C2539 1.414 . S
C2540 C2541 1.374 . S
C2541 H2521 0.950 . S
C2541 C2537 1.385 . S
C2541 C2540 1.374 . S
C2542 C2539 1.499 . S
C2542 C2543 1.373 . S
C2542 C2544 1.389 1_565 S
C2543 H2522 0.950 . S
C2543 C2542 1.373 . S
C2543 C2559 1.377 1_565 S
C2544 C2542 1.389 1_545 S
C2544 C2545 1.524 1_545 S
C2544 C2558 1.377 . S
C2545 C2544 1.524 1_565 S
C2545 C2546 1.397 . S
C2545 C2550 1.363 . S
C2546 H2523 0.950 . S
C2546 C2545 1.397 . S
C2546 C2547 1.334 . S
C2547 H2524 0.950 . S
C2547 C2546 1.334 . S
C2547 C2548 1.287 . S
C2548 C2547 1.287 . S
C2548 C2549 1.524 . S
C2548 H2567 0.913 . S
C2549 H2525 0.950 . S
C2549 C2548 1.524 . S
C2549 C2550 1.415 . S
C2550 H2526 0.950 . S
C2550 C2545 1.363 . S
C2550 C2549 1.415 . S
C2551 H2527 0.951 . S
C2551 C2552 1.366 . S
C2551 C2553 1.388 . S
C2552 C2551 1.366 . S
C2552 C2556 1.385 . S
C2553 H2528 0.951 . S
C2553 C2551 1.388 . S
C2553 C2554 1.366 . S
C2554 C2553 1.366 . S
C2554 C2555 1.414 . S
C2554 C2557 1.499 . S
C2555 H2529 0.950 . S
C2555 C2554 1.414 . S
C2555 C2556 1.374 . S
C2556 H2530 0.950 . S
C2556 C2552 1.385 . S
C2556 C2555 1.374 . S
C2557 C2554 1.499 . S
C2557 C2558 1.373 . S
C2557 C2559 1.389 . S
C2558 H2531 0.950 . S
C2558 C2544 1.377 . S
C2558 C2557 1.373 . S
C2559 C2543 1.377 1_545 S
C2559 C2557 1.389 . S
C2559 C2560 1.524 . S
C2560 C2559 1.524 . S
C2560 C2561 1.397 . S
C2560 C2565 1.363 . S
C2561 H2532 0.950 . S
C2561 C2560 1.397 . S
C2561 C2562 1.334 . S
C2562 H2533 0.950 . S
C2562 C2561 1.334 . S
C2562 C2563 1.287 . S
C2563 C2562 1.287 . S
C2563 C2564 1.524 . S
C2563 H2566 0.999 . S
C2564 H2534 0.950 . S
C2564 C2563 1.524 . S
C2564 C2565 1.415 . S
C2565 H2535 0.950 . S
C2565 C2560 1.363 . S
C2565 C2564 1.415 . S
H2566 C2563 0.999 . S
H2567 C2548 0.913 . S
H2568 C2586 0.951 . S
H2569 C2588 0.951 . S
H2570 C2590 0.950 . S
H2571 C2591 0.950 . S
H2572 C2593 0.950 . S
H2573 C2596 0.950 . S
H2574 C2597 0.950 . S
H2575 C2599 0.950 . S
H2576 C2600 0.950 . S
H2577 C2601 0.951 . S
H2578 C2603 0.951 . S
H2579 C2605 0.950 . S
H2580 C2606 0.950 . S
H2581 C2608 0.950 . S
H2582 C2611 0.950 . S
H2583 C2612 0.950 . S
H2584 C2614 0.950 . S
H2585 C2615 0.950 . S
C2586 H2568 0.951 . S
C2586 C2587 1.366 . S
C2586 C2588 1.388 . S
C2587 C2586 1.366 . S
C2587 C2591 1.385 . S
C2588 H2569 0.951 . S
C2588 C2586 1.388 . S
C2588 C2589 1.366 . S
C2589 C2588 1.366 . S
C2589 C2590 1.414 . S
C2589 C2592 1.499 . S
C2590 H2570 0.950 . S
C2590 C2589 1.414 . S
C2590 C2591 1.374 . S
C2591 H2571 0.950 . S
C2591 C2587 1.385 . S
C2591 C2590 1.374 . S
C2592 C2589 1.499 . S
C2592 C2593 1.373 . S
C2592 C2594 1.389 . S
C2593 H2572 0.950 . S
C2593 C2592 1.373 . S
C2593 C2609 1.377 . S
C2594 C2592 1.389 . S
C2594 C2595 1.524 . S
C2594 C2608 1.377 . S
C2595 C2594 1.524 . S
C2595 C2596 1.397 . S
C2595 C2600 1.363 . S
C2596 H2573 0.950 . S
C2596 C2595 1.397 . S
C2596 C2597 1.334 . S
C2597 H2574 0.950 . S
C2597 C2596 1.334 . S
C2597 C2598 1.287 . S
C2598 C2597 1.287 . S
C2598 C2599 1.524 . S
C2598 H2617 0.913 . S
C2599 H2575 0.950 . S
C2599 C2598 1.524 . S
C2599 C2600 1.415 . S
C2600 H2576 0.950 . S
C2600 C2595 1.363 . S
C2600 C2599 1.415 . S
C2601 H2577 0.951 . S
C2601 C2602 1.366 . S
C2601 C2603 1.388 . S
C2602 C2601 1.366 . S
C2602 C2606 1.385 . S
C2603 H2578 0.951 . S
C2603 C2601 1.388 . S
C2603 C2604 1.366 . S
C2604 C2603 1.366 . S
C2604 C2605 1.414 . S
C2604 C2607 1.499 . S
C2605 H2579 0.950 . S
C2605 C2604 1.414 . S
C2605 C2606 1.374 . S
C2606 H2580 0.950 . S
C2606 C2602 1.385 . S
C2606 C2605 1.374 . S
C2607 C2604 1.499 . S
C2607 C2608 1.373 . S
C2607 C2609 1.389 . S
C2608 H2581 0.950 . S
C2608 C2594 1.377 . S
C2608 C2607 1.373 . S
C2609 C2593 1.377 . S
C2609 C2607 1.389 . S
C2609 C2610 1.524 . S
C2610 C2609 1.524 . S
C2610 C2611 1.397 . S
C2610 C2615 1.363 . S
C2611 H2582 0.950 . S
C2611 C2610 1.397 . S
C2611 C2612 1.334 . S
C2612 H2583 0.950 . S
C2612 C2611 1.334 . S
C2612 C2613 1.287 . S
C2613 C2612 1.287 . S
C2613 C2614 1.524 . S
C2613 H2616 0.999 . S
C2614 H2584 0.950 . S
C2614 C2613 1.524 . S
C2614 C2615 1.415 . S
C2615 H2585 0.950 . S
C2615 C2610 1.363 . S
C2615 C2614 1.415 . S
H2616 C2613 0.999 . S
H2617 C2598 0.913 . S
H2618 C2636 0.951 . S
H2619 C2638 0.951 . S
H2620 C2640 0.950 . S
H2621 C2641 0.950 . S
H2622 C2643 0.950 . S
H2623 C2646 0.950 . S
H2624 C2647 0.950 . S
H2625 C2649 0.950 . S
H2626 C2650 0.950 . S
H2627 C2651 0.951 . S
H2628 C2653 0.951 . S
H2629 C2655 0.950 . S
H2630 C2656 0.950 . S
H2631 C2658 0.950 . S
H2632 C2661 0.950 . S
H2633 C2662 0.950 . S
H2634 C2664 0.950 . S
H2635 C2665 0.950 . S
C2636 H2618 0.951 . S
C2636 C2637 1.366 . S
C2636 C2638 1.388 . S
C2637 C2636 1.366 . S
C2637 C2641 1.385 . S
C2638 H2619 0.951 . S
C2638 C2636 1.388 . S
C2638 C2639 1.366 . S
C2639 C2638 1.366 . S
C2639 C2640 1.414 . S
C2639 C2642 1.499 . S
C2640 H2620 0.950 . S
C2640 C2639 1.414 . S
C2640 C2641 1.374 . S
C2641 H2621 0.950 . S
C2641 C2637 1.385 . S
C2641 C2640 1.374 . S
C2642 C2639 1.499 . S
C2642 C2643 1.373 . S
C2642 C2644 1.389 . S
C2643 H2622 0.950 . S
C2643 C2642 1.373 . S
C2643 C2659 1.377 . S
C2644 C2642 1.389 . S
C2644 C2645 1.524 . S
C2644 C2658 1.377 . S
C2645 C2644 1.524 . S
C2645 C2646 1.397 . S
C2645 C2650 1.363 . S
C2646 H2623 0.950 . S
C2646 C2645 1.397 . S
C2646 C2647 1.334 . S
C2647 H2624 0.950 . S
C2647 C2646 1.334 . S
C2647 C2648 1.287 . S
C2648 C2647 1.287 . S
C2648 C2649 1.524 . S
C2648 H2667 0.913 . S
C2649 H2625 0.950 . S
C2649 C2648 1.524 . S
C2649 C2650 1.415 . S
C2650 H2626 0.950 . S
C2650 C2645 1.363 . S
C2650 C2649 1.415 . S
C2651 H2627 0.951 . S
C2651 C2652 1.366 . S
C2651 C2653 1.388 . S
C2652 C2651 1.366 . S
C2652 C2656 1.385 . S
C2653 H2628 0.951 . S
C2653 C2651 1.388 . S
C2653 C2654 1.366 . S
C2654 C2653 1.366 . S
C2654 C2655 1.414 . S
C2654 C2657 1.499 . S
C2655 H2629 0.950 . S
C2655 C2654 1.414 . S
C2655 C2656 1.374 . S
C2656 H2630 0.950 . S
C2656 C2652 1.385 . S
C2656 C2655 1.374 . S
C2657 C2654 1.499 . S
C2657 C2658 1.373 . S
C2657 C2659 1.389 . S
C2658 H2631 0.950 . S
C2658 C2644 1.377 . S
C2658 C2657 1.373 . S
C2659 C2643 1.377 . S
C2659 C2657 1.389 . S
C2659 C2660 1.524 . S
C2660 C2659 1.524 . S
C2660 C2661 1.397 . S
C2660 C2665 1.363 . S
C2661 H2632 0.950 . S
C2661 C2660 1.397 . S
C2661 C2662 1.334 . S
C2662 H2633 0.950 . S
C2662 C2661 1.334 . S
C2662 C2663 1.287 . S
C2663 C2662 1.287 . S
C2663 C2664 1.524 . S
C2663 H2666 0.999 . S
C2664 H2634 0.950 . S
C2664 C2663 1.524 . S
C2664 C2665 1.415 . S
C2665 H2635 0.950 . S
C2665 C2660 1.363 . S
C2665 C2664 1.415 . S
H2666 C2663 0.999 . S
H2667 C2648 0.913 . S
H2668 C2686 0.951 . S
H2669 C2688 0.951 . S
H2670 C2690 0.950 . S
H2671 C2691 0.950 . S
H2672 C2693 0.950 . S
H2673 C2696 0.950 . S
H2674 C2697 0.950 . S
H2675 C2699 0.950 . S
H2676 C2700 0.950 . S
H2677 C2701 0.951 . S
H2678 C2703 0.951 . S
H2679 C2705 0.950 . S
H2680 C2706 0.950 . S
H2681 C2708 0.950 . S
H2682 C2711 0.950 . S
H2683 C2712 0.950 . S
H2684 C2714 0.950 . S
H2685 C2715 0.950 . S
C2686 H2668 0.951 . S
C2686 C2687 1.366 . S
C2686 C2688 1.388 . S
C2687 C2686 1.366 . S
C2687 C2691 1.385 . S
C2688 H2669 0.951 . S
C2688 C2686 1.388 . S
C2688 C2689 1.366 . S
C2689 C2688 1.366 . S
C2689 C2690 1.414 . S
C2689 C2692 1.499 . S
C2690 H2670 0.950 . S
C2690 C2689 1.414 . S
C2690 C2691 1.374 . S
C2691 H2671 0.950 . S
C2691 C2687 1.385 . S
C2691 C2690 1.374 . S
C2692 C2689 1.499 . S
C2692 C2693 1.373 . S
C2692 C2694 1.389 . S
C2693 H2672 0.950 . S
C2693 C2692 1.373 . S
C2693 C2709 1.377 . S
C2694 C2692 1.389 . S
C2694 C2695 1.524 . S
C2694 C2708 1.377 . S
C2695 C2694 1.524 . S
C2695 C2696 1.397 . S
C2695 C2700 1.363 . S
C2696 H2673 0.950 . S
C2696 C2695 1.397 . S
C2696 C2697 1.334 . S
C2697 H2674 0.950 . S
C2697 C2696 1.334 . S
C2697 C2698 1.287 . S
C2698 C2697 1.287 . S
C2698 C2699 1.524 . S
C2698 H2717 0.913 . S
C2699 H2675 0.950 . S
C2699 C2698 1.524 . S
C2699 C2700 1.415 . S
C2700 H2676 0.950 . S
C2700 C2695 1.363 . S
C2700 C2699 1.415 . S
C2701 H2677 0.951 . S
C2701 C2702 1.366 . S
C2701 C2703 1.388 . S
C2702 C2701 1.366 . S
C2702 C2706 1.385 . S
C2703 H2678 0.951 . S
C2703 C2701 1.388 . S
C2703 C2704 1.366 . S
C2704 C2703 1.366 . S
C2704 C2705 1.414 . S
C2704 C2707 1.499 . S
C2705 H2679 0.950 . S
C2705 C2704 1.414 . S
C2705 C2706 1.374 . S
C2706 H2680 0.950 . S
C2706 C2702 1.385 . S
C2706 C2705 1.374 . S
C2707 C2704 1.499 . S
C2707 C2708 1.373 . S
C2707 C2709 1.389 . S
C2708 H2681 0.950 . S
C2708 C2694 1.377 . S
C2708 C2707 1.373 . S
C2709 C2693 1.377 . S
C2709 C2707 1.389 . S
C2709 C2710 1.524 . S
C2710 C2709 1.524 . S
C2710 C2711 1.397 . S
C2710 C2715 1.363 . S
C2711 H2682 0.950 . S
C2711 C2710 1.397 . S
C2711 C2712 1.334 . S
C2712 H2683 0.950 . S
C2712 C2711 1.334 . S
C2712 C2713 1.287 . S
C2713 C2712 1.287 . S
C2713 C2714 1.524 . S
C2713 H2716 0.999 . S
C2714 H2684 0.950 . S
C2714 C2713 1.524 . S
C2714 C2715 1.415 . S
C2715 H2685 0.950 . S
C2715 C2710 1.363 . S
C2715 C2714 1.415 . S
H2716 C2713 0.999 . S
H2717 C2698 0.913 . S
H2718 C2736 0.951 . S
H2719 C2738 0.951 . S
H2720 C2740 0.950 . S
H2721 C2741 0.950 . S
H2722 C2743 0.950 . S
H2723 C2746 0.950 . S
H2724 C2747 0.950 . S
H2725 C2749 0.950 . S
H2726 C2750 0.950 . S
H2727 C2751 0.951 1_545 S
H2728 C2753 0.951 . S
H2729 C2755 0.950 . S
H2730 C2756 0.950 . S
H2731 C2758 0.950 . S
H2732 C2761 0.950 . S
H2733 C2762 0.950 . S
H2734 C2764 0.950 . S
H2735 C2765 0.950 . S
C2736 H2718 0.951 . S
C2736 C2737 1.366 . S
C2736 C2738 1.388 . S
C2737 C2736 1.366 . S
C2737 C2741 1.385 . S
C2738 H2719 0.951 . S
C2738 C2736 1.388 . S
C2738 C2739 1.366 . S
C2739 C2738 1.366 . S
C2739 C2740 1.414 . S
C2739 C2742 1.499 . S
C2740 H2720 0.950 . S
C2740 C2739 1.414 . S
C2740 C2741 1.374 . S
C2741 H2721 0.950 . S
C2741 C2737 1.385 . S
C2741 C2740 1.374 . S
C2742 C2739 1.499 . S
C2742 C2743 1.373 . S
C2742 C2744 1.389 . S
C2743 H2722 0.950 . S
C2743 C2742 1.373 . S
C2743 C2759 1.377 . S
C2744 C2742 1.389 . S
C2744 C2745 1.524 . S
C2744 C2758 1.377 . S
C2745 C2744 1.524 . S
C2745 C2746 1.397 . S
C2745 C2750 1.363 . S
C2746 H2723 0.950 . S
C2746 C2745 1.397 . S
C2746 C2747 1.334 . S
C2747 H2724 0.950 . S
C2747 C2746 1.334 . S
C2747 C2748 1.287 . S
C2748 C2747 1.287 . S
C2748 C2749 1.524 . S
C2748 H2767 0.913 . S
C2749 H2725 0.950 . S
C2749 C2748 1.524 . S
C2749 C2750 1.415 . S
C2750 H2726 0.950 . S
C2750 C2745 1.363 . S
C2750 C2749 1.415 . S
C2751 H2727 0.951 1_565 S
C2751 C2752 1.366 . S
C2751 C2753 1.388 . S
C2752 C2751 1.366 . S
C2752 C2756 1.385 . S
C2753 H2728 0.951 . S
C2753 C2751 1.388 . S
C2753 C2754 1.366 . S
C2754 C2753 1.366 . S
C2754 C2755 1.414 . S
C2754 C2757 1.499 . S
C2755 H2729 0.950 . S
C2755 C2754 1.414 . S
C2755 C2756 1.374 . S
C2756 H2730 0.950 . S
C2756 C2752 1.385 . S
C2756 C2755 1.374 . S
C2757 C2754 1.499 . S
C2757 C2758 1.373 . S
C2757 C2759 1.389 . S
C2758 H2731 0.950 . S
C2758 C2744 1.377 . S
C2758 C2757 1.373 . S
C2759 C2743 1.377 . S
C2759 C2757 1.389 . S
C2759 C2760 1.524 . S
C2760 C2759 1.524 . S
C2760 C2761 1.397 . S
C2760 C2765 1.363 . S
C2761 H2732 0.950 . S
C2761 C2760 1.397 . S
C2761 C2762 1.334 . S
C2762 H2733 0.950 . S
C2762 C2761 1.334 . S
C2762 C2763 1.287 . S
C2763 C2762 1.287 . S
C2763 C2764 1.524 1_565 S
C2763 H2766 0.999 1_565 S
C2764 H2734 0.950 . S
C2764 C2763 1.524 1_545 S
C2764 C2765 1.415 1_545 S
C2765 H2735 0.950 . S
C2765 C2760 1.363 . S
C2765 C2764 1.415 1_565 S
H2766 C2763 0.999 1_545 S
H2767 C2748 0.913 . S
H2768 C2786 0.951 . S
H2769 C2788 0.951 . S
H2770 C2790 0.950 . S
H2771 C2791 0.950 . S
H2772 C2793 0.950 . S
H2773 C2796 0.950 . S
H2774 C2797 0.950 . S
H2775 C2799 0.950 . S
H2776 C2800 0.953 1_455 S
H2777 C2801 0.951 . S
H2778 C2803 0.951 . S
H2779 C2805 0.950 . S
H2780 C2806 0.950 . S
H2781 C2808 0.950 . S
H2782 C2811 0.950 . S
H2783 C2812 0.950 . S
H2784 C2814 0.950 . S
H2785 C2815 0.950 . S
C2786 H2768 0.951 . S
C2786 C2787 1.366 . S
C2786 C2788 1.388 . S
C2787 C2786 1.366 . S
C2787 C2791 1.385 . S
C2788 H2769 0.951 . S
C2788 C2786 1.388 . S
C2788 C2789 1.366 . S
C2789 C2788 1.366 . S
C2789 C2790 1.414 . S
C2789 C2792 1.499 . S
C2790 H2770 0.950 . S
C2790 C2789 1.414 . S
C2790 C2791 1.374 . S
C2791 H2771 0.950 . S
C2791 C2787 1.385 . S
C2791 C2790 1.374 . S
C2792 C2789 1.499 . S
C2792 C2793 1.373 . S
C2792 C2794 1.389 . S
C2793 H2772 0.950 . S
C2793 C2792 1.373 . S
C2793 C2809 1.377 . S
C2794 C2792 1.389 . S
C2794 C2795 1.524 . S
C2794 C2808 1.377 . S
C2795 C2794 1.524 . S
C2795 C2796 1.397 . S
C2795 C2800 1.363 1_455 S
C2796 H2773 0.950 . S
C2796 C2795 1.397 . S
C2796 C2797 1.334 1_455 S
C2797 H2774 0.950 . S
C2797 C2796 1.334 1_655 S
C2797 C2798 1.287 . S
C2798 C2797 1.287 . S
C2798 C2799 1.524 . S
C2798 H2817 0.913 . S
C2799 H2775 0.950 . S
C2799 C2798 1.524 . S
C2799 C2800 1.415 . S
C2800 H2776 0.953 1_655 S
C2800 C2795 1.363 1_655 S
C2800 C2799 1.415 . S
C2801 H2777 0.951 . S
C2801 C2802 1.366 . S
C2801 C2803 1.388 . S
C2802 C2801 1.366 . S
C2802 C2806 1.385 . S
C2803 H2778 0.951 . S
C2803 C2801 1.388 . S
C2803 C2804 1.366 . S
C2804 C2803 1.366 . S
C2804 C2805 1.414 . S
C2804 C2807 1.499 . S
C2805 H2779 0.950 . S
C2805 C2804 1.414 . S
C2805 C2806 1.374 . S
C2806 H2780 0.950 . S
C2806 C2802 1.385 . S
C2806 C2805 1.374 . S
C2807 C2804 1.499 . S
C2807 C2808 1.373 . S
C2807 C2809 1.389 . S
C2808 H2781 0.950 . S
C2808 C2794 1.377 . S
C2808 C2807 1.373 . S
C2809 C2793 1.377 . S
C2809 C2807 1.389 . S
C2809 C2810 1.524 . S
C2810 C2809 1.524 . S
C2810 C2811 1.397 . S
C2810 C2815 1.363 . S
C2811 H2782 0.950 . S
C2811 C2810 1.397 . S
C2811 C2812 1.334 . S
C2812 H2783 0.950 . S
C2812 C2811 1.334 . S
C2812 C2813 1.287 . S
C2813 C2812 1.287 . S
C2813 C2814 1.524 . S
C2813 H2816 0.999 . S
C2814 H2784 0.950 . S
C2814 C2813 1.524 . S
C2814 C2815 1.415 . S
C2815 H2785 0.950 . S
C2815 C2810 1.363 . S
C2815 C2814 1.415 . S
H2816 C2813 0.999 . S
H2817 C2798 0.913 . S
H2818 C2836 0.951 . S
H2819 C2838 0.951 . S
H2820 C2840 0.950 . S
H2821 C2841 0.950 . S
H2822 C2843 0.950 . S
H2823 C2846 0.950 . S
H2824 C2847 0.950 . S
H2825 C2849 0.950 . S
H2826 C2850 0.950 . S
H2827 C2851 0.951 . S
H2828 C2853 0.951 . S
H2829 C2855 0.950 . S
H2830 C2856 0.950 . S
H2831 C2858 0.950 . S
H2832 C2861 0.950 . S
H2833 C2862 0.950 . S
H2834 C2864 0.950 . S
H2835 C2865 0.950 . S
C2836 H2818 0.951 . S
C2836 C2837 1.366 . S
C2836 C2838 1.388 . S
C2837 C2836 1.366 . S
C2837 C2841 1.385 . S
C2838 H2819 0.951 . S
C2838 C2836 1.388 . S
C2838 C2839 1.366 . S
C2839 C2838 1.366 . S
C2839 C2840 1.414 . S
C2839 C2842 1.499 . S
C2840 H2820 0.950 . S
C2840 C2839 1.414 . S
C2840 C2841 1.374 . S
C2841 H2821 0.950 . S
C2841 C2837 1.385 . S
C2841 C2840 1.374 . S
C2842 C2839 1.499 . S
C2842 C2843 1.373 . S
C2842 C2844 1.389 . S
C2843 H2822 0.950 . S
C2843 C2842 1.373 . S
C2843 C2859 1.377 . S
C2844 C2842 1.389 . S
C2844 C2845 1.524 . S
C2844 C2858 1.377 . S
C2845 C2844 1.524 . S
C2845 C2846 1.397 . S
C2845 C2850 1.363 . S
C2846 H2823 0.950 . S
C2846 C2845 1.397 . S
C2846 C2847 1.334 . S
C2847 H2824 0.950 . S
C2847 C2846 1.334 . S
C2847 C2848 1.287 . S
C2848 C2847 1.287 . S
C2848 C2849 1.524 . S
C2848 H2867 0.913 . S
C2849 H2825 0.950 . S
C2849 C2848 1.524 . S
C2849 C2850 1.415 . S
C2850 H2826 0.950 . S
C2850 C2845 1.363 . S
C2850 C2849 1.415 . S
C2851 H2827 0.951 . S
C2851 C2852 1.366 . S
C2851 C2853 1.388 . S
C2852 C2851 1.366 . S
C2852 C2856 1.385 . S
C2853 H2828 0.951 . S
C2853 C2851 1.388 . S
C2853 C2854 1.366 . S
C2854 C2853 1.366 . S
C2854 C2855 1.414 . S
C2854 C2857 1.499 . S
C2855 H2829 0.950 . S
C2855 C2854 1.414 . S
C2855 C2856 1.374 . S
C2856 H2830 0.950 . S
C2856 C2852 1.385 . S
C2856 C2855 1.374 . S
C2857 C2854 1.499 . S
C2857 C2858 1.373 . S
C2857 C2859 1.389 . S
C2858 H2831 0.950 . S
C2858 C2844 1.377 . S
C2858 C2857 1.373 . S
C2859 C2843 1.377 . S
C2859 C2857 1.389 . S
C2859 C2860 1.524 . S
C2860 C2859 1.524 . S
C2860 C2861 1.397 . S
C2860 C2865 1.363 . S
C2861 H2832 0.950 . S
C2861 C2860 1.397 . S
C2861 C2862 1.334 . S
C2862 H2833 0.950 . S
C2862 C2861 1.334 . S
C2862 C2863 1.287 . S
C2863 C2862 1.287 . S
C2863 C2864 1.524 . S
C2863 H2866 0.999 . S
C2864 H2834 0.950 . S
C2864 C2863 1.524 . S
C2864 C2865 1.415 . S
C2865 H2835 0.950 . S
C2865 C2860 1.363 . S
C2865 C2864 1.415 . S
H2866 C2863 0.999 . S
H2867 C2848 0.913 . S
H2868 C2886 0.951 . S
H2869 C2888 0.951 . S
H2870 C2890 0.950 . S
H2871 C2891 0.950 . S
H2872 C2893 0.950 . S
H2873 C2896 0.950 . S
H2874 C2897 0.950 . S
H2875 C2899 0.950 1_455 S
H2876 C2900 0.950 1_455 S
H2877 C2901 0.951 . S
H2878 C2903 0.951 . S
H2879 C2905 0.950 1_455 S
H2880 C2906 0.950 1_455 S
H2881 C2908 0.950 . S
H2882 C2911 0.950 . S
H2883 C2912 0.950 . S
H2884 C2914 0.950 . S
H2885 C2915 0.950 . S
C2886 H2868 0.951 . S
C2886 C2887 1.366 . S
C2886 C2888 1.388 . S
C2887 C2886 1.366 . S
C2887 C2891 1.385 . S
C2888 H2869 0.951 . S
C2888 C2886 1.388 . S
C2888 C2889 1.366 . S
C2889 C2888 1.366 . S
C2889 C2890 1.414 . S
C2889 C2892 1.499 . S
C2890 H2870 0.950 . S
C2890 C2889 1.414 . S
C2890 C2891 1.374 . S
C2891 H2871 0.950 . S
C2891 C2887 1.385 . S
C2891 C2890 1.374 . S
C2892 C2889 1.499 . S
C2892 C2893 1.373 . S
C2892 C2894 1.389 . S
C2893 H2872 0.950 . S
C2893 C2892 1.373 . S
C2893 C2909 1.377 . S
C2894 C2892 1.389 . S
C2894 C2895 1.524 . S
C2894 C2908 1.377 . S
C2895 C2894 1.524 . S
C2895 C2896 1.397 . S
C2895 C2900 1.363 . S
C2896 H2873 0.950 . S
C2896 C2895 1.397 . S
C2896 C2897 1.334 . S
C2897 H2874 0.950 . S
C2897 C2896 1.334 . S
C2897 C2898 1.287 . S
C2898 C2897 1.287 . S
C2898 C2899 1.524 . S
C2898 H2917 0.913 . S
C2899 H2875 0.950 1_655 S
C2899 C2898 1.524 . S
C2899 C2900 1.415 . S
C2900 H2876 0.950 1_655 S
C2900 C2895 1.363 . S
C2900 C2899 1.415 . S
C2901 H2877 0.951 . S
C2901 C2902 1.366 . S
C2901 C2903 1.388 . S
C2902 C2901 1.366 . S
C2902 C2906 1.385 . S
C2903 H2878 0.951 . S
C2903 C2901 1.388 . S
C2903 C2904 1.366 . S
C2904 C2903 1.366 . S
C2904 C2905 1.414 . S
C2904 C2907 1.499 . S
C2905 H2879 0.950 1_655 S
C2905 C2904 1.414 . S
C2905 C2906 1.374 . S
C2906 H2880 0.950 1_655 S
C2906 C2902 1.385 . S
C2906 C2905 1.374 . S
C2907 C2904 1.499 . S
C2907 C2908 1.373 . S
C2907 C2909 1.389 . S
C2908 H2881 0.950 . S
C2908 C2894 1.377 . S
C2908 C2907 1.373 . S
C2909 C2893 1.377 . S
C2909 C2907 1.389 . S
C2909 C2910 1.524 . S
C2910 C2909 1.524 . S
C2910 C2911 1.397 . S
C2910 C2915 1.363 . S
C2911 H2882 0.950 . S
C2911 C2910 1.397 . S
C2911 C2912 1.334 . S
C2912 H2883 0.950 . S
C2912 C2911 1.334 . S
C2912 C2913 1.287 . S
C2913 C2912 1.287 . S
C2913 C2914 1.524 . S
C2913 H2916 0.999 . S
C2914 H2884 0.950 . S
C2914 C2913 1.524 . S
C2914 C2915 1.415 . S
C2915 H2885 0.950 . S
C2915 C2910 1.363 . S
C2915 C2914 1.415 . S
H2916 C2913 0.999 . S
H2917 C2898 0.913 . S
H2918 C2936 0.951 . S
H2919 C2938 0.951 . S
H2920 C2940 0.950 . S
H2921 C2941 0.950 . S
H2922 C2943 0.950 . S
H2923 C2946 0.950 . S
H2924 C2947 0.950 . S
H2925 C2949 0.950 . S
H2926 C2950 0.950 . S
H2927 C2951 0.951 . S
H2928 C2953 0.951 . S
H2929 C2955 0.950 . S
H2930 C2956 0.950 . S
H2931 C2958 0.950 . S
H2932 C2961 0.950 . S
H2933 C2962 0.950 . S
H2934 C2964 0.950 . S
H2935 C2965 0.950 . S
C2936 H2918 0.951 . S
C2936 C2937 1.366 . S
C2936 C2938 1.388 . S
C2937 C2936 1.366 . S
C2937 C2941 1.385 . S
C2938 H2919 0.951 . S
C2938 C2936 1.388 . S
C2938 C2939 1.366 . S
C2939 C2938 1.366 . S
C2939 C2940 1.414 . S
C2939 C2942 1.499 . S
C2940 H2920 0.950 . S
C2940 C2939 1.414 . S
C2940 C2941 1.374 . S
C2941 H2921 0.950 . S
C2941 C2937 1.385 . S
C2941 C2940 1.374 . S
C2942 C2939 1.499 . S
C2942 C2943 1.373 . S
C2942 C2944 1.389 . S
C2943 H2922 0.950 . S
C2943 C2942 1.373 . S
C2943 C2959 1.377 . S
C2944 C2942 1.389 . S
C2944 C2945 1.524 . S
C2944 C2958 1.377 . S
C2945 C2944 1.524 . S
C2945 C2946 1.397 . S
C2945 C2950 1.363 . S
C2946 H2923 0.950 . S
C2946 C2945 1.397 . S
C2946 C2947 1.334 . S
C2947 H2924 0.950 . S
C2947 C2946 1.334 . S
C2947 C2948 1.287 . S
C2948 C2947 1.287 . S
C2948 C2949 1.524 . S
C2948 H2967 0.913 . S
C2949 H2925 0.950 . S
C2949 C2948 1.524 . S
C2949 C2950 1.415 . S
C2950 H2926 0.950 . S
C2950 C2945 1.363 . S
C2950 C2949 1.415 . S
C2951 H2927 0.951 . S
C2951 C2952 1.366 . S
C2951 C2953 1.388 . S
C2952 C2951 1.366 . S
C2952 C2956 1.385 . S
C2953 H2928 0.951 . S
C2953 C2951 1.388 . S
C2953 C2954 1.366 . S
C2954 C2953 1.366 . S
C2954 C2955 1.414 . S
C2954 C2957 1.499 . S
C2955 H2929 0.950 . S
C2955 C2954 1.414 . S
C2955 C2956 1.374 . S
C2956 H2930 0.950 . S
C2956 C2952 1.385 . S
C2956 C2955 1.374 . S
C2957 C2954 1.499 . S
C2957 C2958 1.373 . S
C2957 C2959 1.389 . S
C2958 H2931 0.950 . S
C2958 C2944 1.377 . S
C2958 C2957 1.373 . S
C2959 C2943 1.377 . S
C2959 C2957 1.389 . S
C2959 C2960 1.524 . S
C2960 C2959 1.524 . S
C2960 C2961 1.397 . S
C2960 C2965 1.363 . S
C2961 H2932 0.950 . S
C2961 C2960 1.397 . S
C2961 C2962 1.334 . S
C2962 H2933 0.950 . S
C2962 C2961 1.334 . S
C2962 C2963 1.287 . S
C2963 C2962 1.287 . S
C2963 C2964 1.524 . S
C2963 H2966 0.999 . S
C2964 H2934 0.950 . S
C2964 C2963 1.524 . S
C2964 C2965 1.415 . S
C2965 H2935 0.950 . S
C2965 C2960 1.363 . S
C2965 C2964 1.415 . S
H2966 C2963 0.999 . S
H2967 C2948 0.913 . S
H2968 C2986 0.951 . S
H2969 C2988 0.951 . S
H2970 C2990 0.950 . S
H2971 C2991 0.950 . S
H2972 C2993 0.950 . S
H2973 C2996 0.950 . S
H2974 C2997 0.950 . S
H2975 C2999 0.950 . S
H2976 C3000 0.950 . S
H2977 C3001 0.951 . S
H2978 C3003 0.951 . S
H2979 C3005 0.950 . S
H2980 C3006 0.950 . S
H2981 C3008 0.950 . S
H2982 C3011 0.984 . S
H2983 C3012 0.950 . S
H2984 C3014 0.950 . S
H2985 C3015 0.950 . S
C2986 H2968 0.951 . S
C2986 C2987 1.366 . S
C2986 C2988 1.388 . S
C2987 C2986 1.366 . S
C2987 C2991 1.385 . S
C2988 H2969 0.951 . S
C2988 C2986 1.388 . S
C2988 C2989 1.366 . S
C2989 C2988 1.366 . S
C2989 C2990 1.414 . S
C2989 C2992 1.499 . S
C2990 H2970 0.950 . S
C2990 C2989 1.414 . S
C2990 C2991 1.374 . S
C2991 H2971 0.950 . S
C2991 C2987 1.385 . S
C2991 C2990 1.374 . S
C2992 C2989 1.499 . S
C2992 C2993 1.373 . S
C2992 C2994 1.389 . S
C2993 H2972 0.950 . S
C2993 C2992 1.373 . S
C2993 C3009 1.377 . S
C2994 C2992 1.389 . S
C2994 C2995 1.524 . S
C2994 C3008 1.377 . S
C2995 C2994 1.524 . S
C2995 C2996 1.397 . S
C2995 C3000 1.363 . S
C2996 H2973 0.950 . S
C2996 C2995 1.397 . S
C2996 C2997 1.334 . S
C2997 H2974 0.950 . S
C2997 C2996 1.334 . S
C2997 C2998 1.287 . S
C2998 C2997 1.287 . S
C2998 C2999 1.524 . S
C2998 H3017 0.913 . S
C2999 H2975 0.950 . S
C2999 C2998 1.524 . S
C2999 C3000 1.415 . S
C3000 H2976 0.950 . S
C3000 C2995 1.363 . S
C3000 C2999 1.415 . S
C3001 H2977 0.951 . S
C3001 C3002 1.366 . S
C3001 C3003 1.388 . S
C3002 C3001 1.366 . S
C3002 C3006 1.385 . S
C3003 H2978 0.951 . S
C3003 C3001 1.388 . S
C3003 C3004 1.366 . S
C3004 C3003 1.366 . S
C3004 C3005 1.414 . S
C3004 C3007 1.499 . S
C3005 H2979 0.950 . S
C3005 C3004 1.414 . S
C3005 C3006 1.374 . S
C3006 H2980 0.950 . S
C3006 C3002 1.385 . S
C3006 C3005 1.374 . S
C3007 C3004 1.499 . S
C3007 C3008 1.373 . S
C3007 C3009 1.389 . S
C3008 H2981 0.950 . S
C3008 C2994 1.377 . S
C3008 C3007 1.373 . S
C3009 C2993 1.377 . S
C3009 C3007 1.389 . S
C3009 C3010 1.524 . S
C3010 C3009 1.524 . S
C3010 C3011 1.391 . S
C3010 C3015 1.363 1_545 S
C3011 H2982 0.984 . S
C3011 C3010 1.391 . S
C3011 C3012 1.307 1_545 S
C3012 H2983 0.950 . S
C3012 C3011 1.307 1_565 S
C3012 C3013 1.287 . S
C3013 C3012 1.287 . S
C3013 C3014 1.524 . S
C3013 H3016 0.999 . S
C3014 H2984 0.950 . S
C3014 C3013 1.524 . S
C3014 C3015 1.415 . S
C3015 H2985 0.950 . S
C3015 C3010 1.363 1_565 S
C3015 C3014 1.415 . S
H3016 C3013 0.999 . S
H3017 C2998 0.913 . S
H3018 C3036 0.951 . S
H3019 C3038 0.951 . S
H3020 C3040 0.950 . S
H3021 C3041 0.950 . S
H3022 C3043 0.950 . S
H3023 C3046 0.950 . S
H3024 C3047 0.950 . S
H3025 C3049 0.950 . S
H3026 C3050 0.950 . S
H3027 C3051 0.951 . S
H3028 C3053 0.951 . S
H3029 C3055 0.950 . S
H3030 C3056 0.950 . S
H3031 C3058 0.950 . S
H3032 C3061 0.950 . S
H3033 C3062 0.950 . S
H3034 C3064 0.950 . S
H3035 C3065 0.950 . S
C3036 H3018 0.951 . S
C3036 C3037 1.366 . S
C3036 C3038 1.388 . S
C3037 C3036 1.366 . S
C3037 C3041 1.385 . S
C3038 H3019 0.951 . S
C3038 C3036 1.388 . S
C3038 C3039 1.366 . S
C3039 C3038 1.366 . S
C3039 C3040 1.414 . S
C3039 C3042 1.499 . S
C3040 H3020 0.950 . S
C3040 C3039 1.414 . S
C3040 C3041 1.374 . S
C3041 H3021 0.950 . S
C3041 C3037 1.385 . S
C3041 C3040 1.374 . S
C3042 C3039 1.499 . S
C3042 C3043 1.373 . S
C3042 C3044 1.389 . S
C3043 H3022 0.950 . S
C3043 C3042 1.373 . S
C3043 C3059 1.377 . S
C3044 C3042 1.389 . S
C3044 C3045 1.524 . S
C3044 C3058 1.377 . S
C3045 C3044 1.524 . S
C3045 C3046 1.397 . S
C3045 C3050 1.363 . S
C3046 H3023 0.950 . S
C3046 C3045 1.397 . S
C3046 C3047 1.334 . S
C3047 H3024 0.950 . S
C3047 C3046 1.334 . S
C3047 C3048 1.287 . S
C3048 C3047 1.287 . S
C3048 C3049 1.524 . S
C3048 H3067 0.913 . S
C3049 H3025 0.950 . S
C3049 C3048 1.524 . S
C3049 C3050 1.415 . S
C3050 H3026 0.950 . S
C3050 C3045 1.363 . S
C3050 C3049 1.415 . S
C3051 H3027 0.951 . S
C3051 C3052 1.366 . S
C3051 C3053 1.388 . S
C3052 C3051 1.366 . S
C3052 C3056 1.385 . S
C3053 H3028 0.951 . S
C3053 C3051 1.388 . S
C3053 C3054 1.366 . S
C3054 C3053 1.366 . S
C3054 C3055 1.414 . S
C3054 C3057 1.499 . S
C3055 H3029 0.950 . S
C3055 C3054 1.414 . S
C3055 C3056 1.374 . S
C3056 H3030 0.950 . S
C3056 C3052 1.385 . S
C3056 C3055 1.374 . S
C3057 C3054 1.499 . S
C3057 C3058 1.373 . S
C3057 C3059 1.389 . S
C3058 H3031 0.950 . S
C3058 C3044 1.377 . S
C3058 C3057 1.373 . S
C3059 C3043 1.377 . S
C3059 C3057 1.389 . S
C3059 C3060 1.524 . S
C3060 C3059 1.524 . S
C3060 C3061 1.397 . S
C3060 C3065 1.363 . S
C3061 H3032 0.950 . S
C3061 C3060 1.397 . S
C3061 C3062 1.334 . S
C3062 H3033 0.950 . S
C3062 C3061 1.334 . S
C3062 C3063 1.287 . S
C3063 C3062 1.287 . S
C3063 C3064 1.524 . S
C3063 H3066 0.999 . S
C3064 H3034 0.950 . S
C3064 C3063 1.524 . S
C3064 C3065 1.415 . S
C3065 H3035 0.950 . S
C3065 C3060 1.363 . S
C3065 C3064 1.415 . S
H3066 C3063 0.999 . S
H3067 C3048 0.913 . S
H3068 C3086 0.951 . S
H3069 C3088 0.951 . S
H3070 C3090 0.950 . S
H3071 C3091 0.950 . S
H3072 C3093 0.950 . S
H3073 C3096 0.950 . S
H3074 C3097 0.950 . S
H3075 C3099 0.950 . S
H3076 C3100 0.950 . S
H3077 C3101 0.951 . S
H3078 C3103 0.951 . S
H3079 C3105 0.950 . S
H3080 C3106 0.950 . S
H3081 C3108 0.950 . S
H3082 C3111 0.950 . S
H3083 C3112 0.950 . S
H3084 C3114 0.950 . S
H3085 C3115 0.950 . S
C3086 H3068 0.951 . S
C3086 C3087 1.366 . S
C3086 C3088 1.388 . S
C3087 C3086 1.366 . S
C3087 C3091 1.385 . S
C3088 H3069 0.951 . S
C3088 C3086 1.388 . S
C3088 C3089 1.366 . S
C3089 C3088 1.366 . S
C3089 C3090 1.414 . S
C3089 C3092 1.499 . S
C3090 H3070 0.950 . S
C3090 C3089 1.414 . S
C3090 C3091 1.374 . S
C3091 H3071 0.950 . S
C3091 C3087 1.385 . S
C3091 C3090 1.374 . S
C3092 C3089 1.499 . S
C3092 C3093 1.373 . S
C3092 C3094 1.389 . S
C3093 H3072 0.950 . S
C3093 C3092 1.373 . S
C3093 C3109 1.377 . S
C3094 C3092 1.389 . S
C3094 C3095 1.524 . S
C3094 C3108 1.377 . S
C3095 C3094 1.524 . S
C3095 C3096 1.397 . S
C3095 C3100 1.363 . S
C3096 H3073 0.950 . S
C3096 C3095 1.397 . S
C3096 C3097 1.334 . S
C3097 H3074 0.950 . S
C3097 C3096 1.334 . S
C3097 C3098 1.287 . S
C3098 C3097 1.287 . S
C3098 C3099 1.524 . S
C3098 H3117 0.913 . S
C3099 H3075 0.950 . S
C3099 C3098 1.524 . S
C3099 C3100 1.415 . S
C3100 H3076 0.950 . S
C3100 C3095 1.363 . S
C3100 C3099 1.415 . S
C3101 H3077 0.951 . S
C3101 C3102 1.366 . S
C3101 C3103 1.388 . S
C3102 C3101 1.366 . S
C3102 C3106 1.385 . S
C3103 H3078 0.951 . S
C3103 C3101 1.388 . S
C3103 C3104 1.366 . S
C3104 C3103 1.366 . S
C3104 C3105 1.414 . S
C3104 C3107 1.499 . S
C3105 H3079 0.950 . S
C3105 C3104 1.414 . S
C3105 C3106 1.374 . S
C3106 H3080 0.950 . S
C3106 C3102 1.385 . S
C3106 C3105 1.374 . S
C3107 C3104 1.499 . S
C3107 C3108 1.373 . S
C3107 C3109 1.389 . S
C3108 H3081 0.950 . S
C3108 C3094 1.377 . S
C3108 C3107 1.373 . S
C3109 C3093 1.377 . S
C3109 C3107 1.389 . S
C3109 C3110 1.524 . S
C3110 C3109 1.524 . S
C3110 C3111 1.397 . S
C3110 C3115 1.363 . S
C3111 H3082 0.950 . S
C3111 C3110 1.397 . S
C3111 C3112 1.334 . S
C3112 H3083 0.950 . S
C3112 C3111 1.334 . S
C3112 C3113 1.287 . S
C3113 C3112 1.287 . S
C3113 C3114 1.524 . S
C3113 H3116 0.999 . S
C3114 H3084 0.950 . S
C3114 C3113 1.524 . S
C3114 C3115 1.415 . S
C3115 H3085 0.950 . S
C3115 C3110 1.363 . S
C3115 C3114 1.415 . S
H3116 C3113 0.999 . S
H3117 C3098 0.913 . S
H3118 C3136 0.951 . S
H3119 C3138 0.951 . S
H3120 C3140 0.950 . S
H3121 C3141 0.950 . S
H3122 C3143 0.950 . S
H3123 C3146 0.950 . S
H3124 C3147 0.950 . S
H3125 C3149 0.950 . S
H3126 C3150 0.950 . S
H3127 C3151 0.951 . S
H3128 C3153 0.951 . S
H3129 C3155 0.950 . S
H3130 C3156 0.950 . S
H3131 C3158 0.950 . S
H3132 C3161 0.950 . S
H3133 C3162 0.950 . S
H3134 C3164 0.950 . S
H3135 C3165 0.950 . S
C3136 H3118 0.951 . S
C3136 C3137 1.366 . S
C3136 C3138 1.388 . S
C3137 C3136 1.366 . S
C3137 C3141 1.385 . S
C3138 H3119 0.951 . S
C3138 C3136 1.388 . S
C3138 C3139 1.366 . S
C3139 C3138 1.366 . S
C3139 C3140 1.414 . S
C3139 C3142 1.499 . S
C3140 H3120 0.950 . S
C3140 C3139 1.414 . S
C3140 C3141 1.374 . S
C3141 H3121 0.950 . S
C3141 C3137 1.385 . S
C3141 C3140 1.374 . S
C3142 C3139 1.499 . S
C3142 C3143 1.373 . S
C3142 C3144 1.389 . S
C3143 H3122 0.950 . S
C3143 C3142 1.373 . S
C3143 C3159 1.377 . S
C3144 C3142 1.389 . S
C3144 C3145 1.524 . S
C3144 C3158 1.377 . S
C3145 C3144 1.524 . S
C3145 C3146 1.397 . S
C3145 C3150 1.363 . S
C3146 H3123 0.950 . S
C3146 C3145 1.397 . S
C3146 C3147 1.334 . S
C3147 H3124 0.950 . S
C3147 C3146 1.334 . S
C3147 C3148 1.287 . S
C3148 C3147 1.287 . S
C3148 C3149 1.524 . S
C3148 H3167 0.913 . S
C3149 H3125 0.950 . S
C3149 C3148 1.524 . S
C3149 C3150 1.415 . S
C3150 H3126 0.950 . S
C3150 C3145 1.363 . S
C3150 C3149 1.415 . S
C3151 H3127 0.951 . S
C3151 C3152 1.366 . S
C3151 C3153 1.388 . S
C3152 C3151 1.366 . S
C3152 C3156 1.385 . S
C3153 H3128 0.951 . S
C3153 C3151 1.388 . S
C3153 C3154 1.366 . S
C3154 C3153 1.366 . S
C3154 C3155 1.414 . S
C3154 C3157 1.499 . S
C3155 H3129 0.950 . S
C3155 C3154 1.414 . S
C3155 C3156 1.374 . S
C3156 H3130 0.950 . S
C3156 C3152 1.385 . S
C3156 C3155 1.374 . S
C3157 C3154 1.499 . S
C3157 C3158 1.373 . S
C3157 C3159 1.389 . S
C3158 H3131 0.950 . S
C3158 C3144 1.377 . S
C3158 C3157 1.373 . S
C3159 C3143 1.377 . S
C3159 C3157 1.389 . S
C3159 C3160 1.524 . S
C3160 C3159 1.524 . S
C3160 C3161 1.397 . S
C3160 C3165 1.363 . S
C3161 H3132 0.950 . S
C3161 C3160 1.397 . S
C3161 C3162 1.334 . S
C3162 H3133 0.950 . S
C3162 C3161 1.334 . S
C3162 C3163 1.287 . S
C3163 C3162 1.287 . S
C3163 C3164 1.524 . S
C3163 H3166 0.999 . S
C3164 H3134 0.950 . S
C3164 C3163 1.524 . S
C3164 C3165 1.415 . S
C3165 H3135 0.950 . S
C3165 C3160 1.363 . S
C3165 C3164 1.415 . S
H3166 C3163 0.999 . S
H3167 C3148 0.913 . S
H3168 C3186 0.951 . S
H3169 C3188 0.951 . S
H3170 C3190 0.950 . S
H3171 C3191 0.950 . S
H3172 C3193 0.950 . S
H3173 C3196 0.950 . S
H3174 C3197 0.950 . S
H3175 C3199 0.950 . S
H3176 C3200 0.950 . S
H3177 C3201 0.951 . S
H3178 C3203 0.951 . S
H3179 C3205 0.950 . S
H3180 C3206 0.950 . S
H3181 C3208 0.950 . S
H3182 C3211 0.950 . S
H3183 C3212 0.950 . S
H3184 C3214 0.950 . S
H3185 C3215 0.950 . S
C3186 H3168 0.951 . S
C3186 C3187 1.366 . S
C3186 C3188 1.388 . S
C3187 C3186 1.366 . S
C3187 C3191 1.385 . S
C3188 H3169 0.951 . S
C3188 C3186 1.388 . S
C3188 C3189 1.366 . S
C3189 C3188 1.366 . S
C3189 C3190 1.414 . S
C3189 C3192 1.499 . S
C3190 H3170 0.950 . S
C3190 C3189 1.414 . S
C3190 C3191 1.374 . S
C3191 H3171 0.950 . S
C3191 C3187 1.385 . S
C3191 C3190 1.374 . S
C3192 C3189 1.499 . S
C3192 C3193 1.373 . S
C3192 C3194 1.389 . S
C3193 H3172 0.950 . S
C3193 C3192 1.373 . S
C3193 C3209 1.377 . S
C3194 C3192 1.389 . S
C3194 C3195 1.524 . S
C3194 C3208 1.377 . S
C3195 C3194 1.524 . S
C3195 C3196 1.397 . S
C3195 C3200 1.363 . S
C3196 H3173 0.950 . S
C3196 C3195 1.397 . S
C3196 C3197 1.334 . S
C3197 H3174 0.950 . S
C3197 C3196 1.334 . S
C3197 C3198 1.287 . S
C3198 C3197 1.287 . S
C3198 C3199 1.524 . S
C3198 H3217 0.913 . S
C3199 H3175 0.950 . S
C3199 C3198 1.524 . S
C3199 C3200 1.415 . S
C3200 H3176 0.950 . S
C3200 C3195 1.363 . S
C3200 C3199 1.415 . S
C3201 H3177 0.951 . S
C3201 C3202 1.366 . S
C3201 C3203 1.388 . S
C3202 C3201 1.366 . S
C3202 C3206 1.385 . S
C3203 H3178 0.951 . S
C3203 C3201 1.388 . S
C3203 C3204 1.366 . S
C3204 C3203 1.366 . S
C3204 C3205 1.414 . S
C3204 C3207 1.499 . S
C3205 H3179 0.950 . S
C3205 C3204 1.414 . S
C3205 C3206 1.374 . S
C3206 H3180 0.950 . S
C3206 C3202 1.385 . S
C3206 C3205 1.374 . S
C3207 C3204 1.499 . S
C3207 C3208 1.373 . S
C3207 C3209 1.389 . S
C3208 H3181 0.950 . S
C3208 C3194 1.377 . S
C3208 C3207 1.373 . S
C3209 C3193 1.377 . S
C3209 C3207 1.389 . S
C3209 C3210 1.524 . S
C3210 C3209 1.524 . S
C3210 C3211 1.397 . S
C3210 C3215 1.363 . S
C3211 H3182 0.950 . S
C3211 C3210 1.397 . S
C3211 C3212 1.334 . S
C3212 H3183 0.950 . S
C3212 C3211 1.334 . S
C3212 C3213 1.287 . S
C3213 C3212 1.287 . S
C3213 C3214 1.524 . S
C3213 H3216 0.999 . S
C3214 H3184 0.950 . S
C3214 C3213 1.524 . S
C3214 C3215 1.415 . S
C3215 H3185 0.950 . S
C3215 C3210 1.363 . S
C3215 C3214 1.415 . S
H3216 C3213 0.999 . S
H3217 C3198 0.913 . S
H3218 C3236 0.951 . S
H3219 C3238 0.951 . S
H3220 C3240 0.950 . S
H3221 C3241 0.950 . S
H3222 C3243 0.950 . S
H3223 C3246 0.950 . S
H3224 C3247 0.950 . S
H3225 C3249 0.950 . S
H3226 C3250 0.950 . S
H3227 C3251 0.951 . S
H3228 C3253 0.951 . S
H3229 C3255 0.950 . S
H3230 C3256 0.950 . S
H3231 C3258 0.950 . S
H3232 C3261 0.950 . S
H3233 C3262 0.950 . S
H3234 C3264 0.950 . S
H3235 C3265 0.950 . S
C3236 H3218 0.951 . S
C3236 C3237 1.366 . S
C3236 C3238 1.388 . S
C3237 C3236 1.366 . S
C3237 C3241 1.385 . S
C3238 H3219 0.951 . S
C3238 C3236 1.388 . S
C3238 C3239 1.366 . S
C3239 C3238 1.366 . S
C3239 C3240 1.414 . S
C3239 C3242 1.499 . S
C3240 H3220 0.950 . S
C3240 C3239 1.414 . S
C3240 C3241 1.374 . S
C3241 H3221 0.950 . S
C3241 C3237 1.385 . S
C3241 C3240 1.374 . S
C3242 C3239 1.499 . S
C3242 C3243 1.373 . S
C3242 C3244 1.389 . S
C3243 H3222 0.950 . S
C3243 C3242 1.373 . S
C3243 C3259 1.377 . S
C3244 C3242 1.389 . S
C3244 C3245 1.524 . S
C3244 C3258 1.377 . S
C3245 C3244 1.524 . S
C3245 C3246 1.397 . S
C3245 C3250 1.363 . S
C3246 H3223 0.950 . S
C3246 C3245 1.397 . S
C3246 C3247 1.334 . S
C3247 H3224 0.950 . S
C3247 C3246 1.334 . S
C3247 C3248 1.287 . S
C3248 C3247 1.287 . S
C3248 C3249 1.524 . S
C3248 H3267 0.913 . S
C3249 H3225 0.950 . S
C3249 C3248 1.524 . S
C3249 C3250 1.415 . S
C3250 H3226 0.950 . S
C3250 C3245 1.363 . S
C3250 C3249 1.415 . S
C3251 H3227 0.951 . S
C3251 C3252 1.366 . S
C3251 C3253 1.388 . S
C3252 C3251 1.366 . S
C3252 C3256 1.385 . S
C3253 H3228 0.951 . S
C3253 C3251 1.388 . S
C3253 C3254 1.366 . S
C3254 C3253 1.366 . S
C3254 C3255 1.414 . S
C3254 C3257 1.499 . S
C3255 H3229 0.950 . S
C3255 C3254 1.414 . S
C3255 C3256 1.374 . S
C3256 H3230 0.950 . S
C3256 C3252 1.385 . S
C3256 C3255 1.374 . S
C3257 C3254 1.499 . S
C3257 C3258 1.373 . S
C3257 C3259 1.389 . S
C3258 H3231 0.950 . S
C3258 C3244 1.377 . S
C3258 C3257 1.373 . S
C3259 C3243 1.377 . S
C3259 C3257 1.389 . S
C3259 C3260 1.524 . S
C3260 C3259 1.524 . S
C3260 C3261 1.397 . S
C3260 C3265 1.363 . S
C3261 H3232 0.950 . S
C3261 C3260 1.397 . S
C3261 C3262 1.334 . S
C3262 H3233 0.950 . S
C3262 C3261 1.334 . S
C3262 C3263 1.287 . S
C3263 C3262 1.287 . S
C3263 C3264 1.524 . S
C3263 H3266 0.999 . S
C3264 H3234 0.950 . S
C3264 C3263 1.524 . S
C3264 C3265 1.415 . S
C3265 H3235 0.950 . S
C3265 C3260 1.363 . S
C3265 C3264 1.415 . S
H3266 C3263 0.999 . S
H3267 C3248 0.913 . S
H3268 C3286 0.951 . S
H3269 C3288 0.951 . S
H3270 C3290 0.950 . S
H3271 C3291 0.950 . S
H3272 C3293 0.950 . S
H3273 C3296 0.950 . S
H3274 C3297 0.950 . S
H3275 C3299 0.950 . S
H3276 C3300 0.950 . S
H3277 C3301 0.951 . S
H3278 C3303 0.951 . S
H3279 C3305 0.950 . S
H3280 C3306 0.950 . S
H3281 C3308 0.950 . S
H3282 C3311 0.950 . S
H3283 C3312 0.950 . S
H3284 C3314 0.950 . S
H3285 C3315 0.950 . S
C3286 H3268 0.951 . S
C3286 C3287 1.366 . S
C3286 C3288 1.388 . S
C3287 C3286 1.366 . S
C3287 C3291 1.385 . S
C3288 H3269 0.951 . S
C3288 C3286 1.388 . S
C3288 C3289 1.366 . S
C3289 C3288 1.366 . S
C3289 C3290 1.414 . S
C3289 C3292 1.499 . S
C3290 H3270 0.950 . S
C3290 C3289 1.414 . S
C3290 C3291 1.374 . S
C3291 H3271 0.950 . S
C3291 C3287 1.385 . S
C3291 C3290 1.374 . S
C3292 C3289 1.499 . S
C3292 C3293 1.373 . S
C3292 C3294 1.389 . S
C3293 H3272 0.950 . S
C3293 C3292 1.373 . S
C3293 C3309 1.377 . S
C3294 C3292 1.389 . S
C3294 C3295 1.524 . S
C3294 C3308 1.377 . S
C3295 C3294 1.524 . S
C3295 C3296 1.397 . S
C3295 C3300 1.363 . S
C3296 H3273 0.950 . S
C3296 C3295 1.397 . S
C3296 C3297 1.334 . S
C3297 H3274 0.950 . S
C3297 C3296 1.334 . S
C3297 C3298 1.287 . S
C3298 C3297 1.287 . S
C3298 C3299 1.524 . S
C3298 H3317 0.913 . S
C3299 H3275 0.950 . S
C3299 C3298 1.524 . S
C3299 C3300 1.415 . S
C3300 H3276 0.950 . S
C3300 C3295 1.363 . S
C3300 C3299 1.415 . S
C3301 H3277 0.951 . S
C3301 C3302 1.366 . S
C3301 C3303 1.388 . S
C3302 C3301 1.366 . S
C3302 C3306 1.385 . S
C3303 H3278 0.951 . S
C3303 C3301 1.388 . S
C3303 C3304 1.366 . S
C3304 C3303 1.366 . S
C3304 C3305 1.414 . S
C3304 C3307 1.499 . S
C3305 H3279 0.950 . S
C3305 C3304 1.414 . S
C3305 C3306 1.374 . S
C3306 H3280 0.950 . S
C3306 C3302 1.385 . S
C3306 C3305 1.374 . S
C3307 C3304 1.499 . S
C3307 C3308 1.373 . S
C3307 C3309 1.389 . S
C3308 H3281 0.950 . S
C3308 C3294 1.377 . S
C3308 C3307 1.373 . S
C3309 C3293 1.377 . S
C3309 C3307 1.389 . S
C3309 C3310 1.524 . S
C3310 C3309 1.524 . S
C3310 C3311 1.397 . S
C3310 C3315 1.363 . S
C3311 H3282 0.950 . S
C3311 C3310 1.397 . S
C3311 C3312 1.334 . S
C3312 H3283 0.950 . S
C3312 C3311 1.334 . S
C3312 C3313 1.287 . S
C3313 C3312 1.287 . S
C3313 C3314 1.524 . S
C3313 H3316 0.999 . S
C3314 H3284 0.950 . S
C3314 C3313 1.524 . S
C3314 C3315 1.415 . S
C3315 H3285 0.950 . S
C3315 C3310 1.363 . S
C3315 C3314 1.415 . S
H3316 C3313 0.999 . S
H3317 C3298 0.913 . S
H3318 C3336 0.951 . S
H3319 C3338 0.951 . S
H3320 C3340 0.950 . S
H3321 C3341 0.950 . S
H3322 C3343 0.950 . S
H3323 C3346 0.950 . S
H3324 C3347 0.950 . S
H3325 C3349 0.950 . S
H3326 C3350 0.950 . S
H3327 C3351 0.951 . S
H3328 C3353 0.951 . S
H3329 C3355 0.950 . S
H3330 C3356 0.950 . S
H3331 C3358 0.950 . S
H3332 C3361 0.950 . S
H3333 C3362 0.950 . S
H3334 C3364 0.950 . S
H3335 C3365 0.950 . S
C3336 H3318 0.951 . S
C3336 C3337 1.366 . S
C3336 C3338 1.388 . S
C3337 C3336 1.366 . S
C3337 C3341 1.385 . S
C3338 H3319 0.951 . S
C3338 C3336 1.388 . S
C3338 C3339 1.366 . S
C3339 C3338 1.366 . S
C3339 C3340 1.414 . S
C3339 C3342 1.499 . S
C3340 H3320 0.950 . S
C3340 C3339 1.414 . S
C3340 C3341 1.374 . S
C3341 H3321 0.950 . S
C3341 C3337 1.385 . S
C3341 C3340 1.374 . S
C3342 C3339 1.499 . S
C3342 C3343 1.373 . S
C3342 C3344 1.389 . S
C3343 H3322 0.950 . S
C3343 C3342 1.373 . S
C3343 C3359 1.377 . S
C3344 C3342 1.389 . S
C3344 C3345 1.524 . S
C3344 C3358 1.377 . S
C3345 C3344 1.524 . S
C3345 C3346 1.397 . S
C3345 C3350 1.363 . S
C3346 H3323 0.950 . S
C3346 C3345 1.397 . S
C3346 C3347 1.334 . S
C3347 H3324 0.950 . S
C3347 C3346 1.334 . S
C3347 C3348 1.287 . S
C3348 C3347 1.287 . S
C3348 C3349 1.524 . S
C3348 H3367 0.913 . S
C3349 H3325 0.950 . S
C3349 C3348 1.524 . S
C3349 C3350 1.415 . S
C3350 H3326 0.950 . S
C3350 C3345 1.363 . S
C3350 C3349 1.415 . S
C3351 H3327 0.951 . S
C3351 C3352 1.366 . S
C3351 C3353 1.388 . S
C3352 C3351 1.366 . S
C3352 C3356 1.385 . S
C3353 H3328 0.951 . S
C3353 C3351 1.388 . S
C3353 C3354 1.366 . S
C3354 C3353 1.366 . S
C3354 C3355 1.414 . S
C3354 C3357 1.499 . S
C3355 H3329 0.950 . S
C3355 C3354 1.414 . S
C3355 C3356 1.374 . S
C3356 H3330 0.950 . S
C3356 C3352 1.385 . S
C3356 C3355 1.374 . S
C3357 C3354 1.499 . S
C3357 C3358 1.373 . S
C3357 C3359 1.389 . S
C3358 H3331 0.950 . S
C3358 C3344 1.377 . S
C3358 C3357 1.373 . S
C3359 C3343 1.377 . S
C3359 C3357 1.389 . S
C3359 C3360 1.524 . S
C3360 C3359 1.524 . S
C3360 C3361 1.397 . S
C3360 C3365 1.363 . S
C3361 H3332 0.950 . S
C3361 C3360 1.397 . S
C3361 C3362 1.334 . S
C3362 H3333 0.950 . S
C3362 C3361 1.334 . S
C3362 C3363 1.287 . S
C3363 C3362 1.287 . S
C3363 C3364 1.524 . S
C3363 H3366 0.999 . S
C3364 H3334 0.950 . S
C3364 C3363 1.524 . S
C3364 C3365 1.415 . S
C3365 H3335 0.950 . S
C3365 C3360 1.363 . S
C3365 C3364 1.415 . S
H3366 C3363 0.999 . S
H3367 C3348 0.913 . S
H3368 C3386 0.951 . S
H3369 C3388 0.951 . S
H3370 C3390 0.950 . S
H3371 C3391 0.950 . S
H3372 C3393 0.950 . S
H3373 C3396 0.950 . S
H3374 C3397 0.950 . S
H3375 C3399 0.950 . S
H3376 C3400 0.950 . S
H3377 C3401 0.951 . S
H3378 C3403 0.951 . S
H3379 C3405 0.950 . S
H3380 C3406 0.950 . S
H3381 C3408 0.950 . S
H3382 C3411 0.950 . S
H3383 C3412 0.950 . S
H3384 C3414 0.950 . S
H3385 C3415 0.950 . S
C3386 H3368 0.951 . S
C3386 C3387 1.366 . S
C3386 C3388 1.388 . S
C3387 C3386 1.366 . S
C3387 C3391 1.385 . S
C3388 H3369 0.951 . S
C3388 C3386 1.388 . S
C3388 C3389 1.366 . S
C3389 C3388 1.366 . S
C3389 C3390 1.414 . S
C3389 C3392 1.499 . S
C3390 H3370 0.950 . S
C3390 C3389 1.414 . S
C3390 C3391 1.374 . S
C3391 H3371 0.950 . S
C3391 C3387 1.385 . S
C3391 C3390 1.374 . S
C3392 C3389 1.499 . S
C3392 C3393 1.373 . S
C3392 C3394 1.389 . S
C3393 H3372 0.950 . S
C3393 C3392 1.373 . S
C3393 C3409 1.377 . S
C3394 C3392 1.389 . S
C3394 C3395 1.524 . S
C3394 C3408 1.377 . S
C3395 C3394 1.524 . S
C3395 C3396 1.397 . S
C3395 C3400 1.363 . S
C3396 H3373 0.950 . S
C3396 C3395 1.397 . S
C3396 C3397 1.334 . S
C3397 H3374 0.950 . S
C3397 C3396 1.334 . S
C3397 C3398 1.287 . S
C3398 C3397 1.287 . S
C3398 C3399 1.524 . S
C3398 H3417 0.913 . S
C3399 H3375 0.950 . S
C3399 C3398 1.524 . S
C3399 C3400 1.415 . S
C3400 H3376 0.950 . S
C3400 C3395 1.363 . S
C3400 C3399 1.415 . S
C3401 H3377 0.951 . S
C3401 C3402 1.366 . S
C3401 C3403 1.388 . S
C3402 C3401 1.366 . S
C3402 C3406 1.385 . S
C3403 H3378 0.951 . S
C3403 C3401 1.388 . S
C3403 C3404 1.366 . S
C3404 C3403 1.366 . S
C3404 C3405 1.414 . S
C3404 C3407 1.499 . S
C3405 H3379 0.950 . S
C3405 C3404 1.414 . S
C3405 C3406 1.374 . S
C3406 H3380 0.950 . S
C3406 C3402 1.385 . S
C3406 C3405 1.374 . S
C3407 C3404 1.499 . S
C3407 C3408 1.373 . S
C3407 C3409 1.389 . S
C3408 H3381 0.950 . S
C3408 C3394 1.377 . S
C3408 C3407 1.373 . S
C3409 C3393 1.377 . S
C3409 C3407 1.389 . S
C3409 C3410 1.524 . S
C3410 C3409 1.524 . S
C3410 C3411 1.397 . S
C3410 C3415 1.363 . S
C3411 H3382 0.950 . S
C3411 C3410 1.397 . S
C3411 C3412 1.334 . S
C3412 H3383 0.950 . S
C3412 C3411 1.334 . S
C3412 C3413 1.287 . S
C3413 C3412 1.287 . S
C3413 C3414 1.524 . S
C3413 H3416 0.999 . S
C3414 H3384 0.950 . S
C3414 C3413 1.524 . S
C3414 C3415 1.415 . S
C3415 H3385 0.950 . S
C3415 C3410 1.363 . S
C3415 C3414 1.415 . S
H3416 C3413 0.999 . S
H3417 C3398 0.913 . S
H3418 C3436 0.951 . S
H3419 C3438 0.951 . S
H3420 C3440 0.950 . S
H3421 C3441 0.950 . S
H3422 C3443 0.950 . S
H3423 C3446 0.950 . S
H3424 C3447 0.950 . S
H3425 C3449 0.950 . S
H3426 C3450 0.950 . S
H3427 C3451 0.951 . S
H3428 C3453 0.951 . S
H3429 C3455 0.950 . S
H3430 C3456 0.950 . S
H3431 C3458 0.950 . S
H3432 C3461 0.950 . S
H3433 C3462 0.950 . S
H3434 C3464 0.950 . S
H3435 C3465 0.950 . S
C3436 H3418 0.951 . S
C3436 C3437 1.366 . S
C3436 C3438 1.388 . S
C3437 C3436 1.366 . S
C3437 C3441 1.385 . S
C3438 H3419 0.951 . S
C3438 C3436 1.388 . S
C3438 C3439 1.366 . S
C3439 C3438 1.366 . S
C3439 C3440 1.414 . S
C3439 C3442 1.499 . S
C3440 H3420 0.950 . S
C3440 C3439 1.414 . S
C3440 C3441 1.374 . S
C3441 H3421 0.950 . S
C3441 C3437 1.385 . S
C3441 C3440 1.374 . S
C3442 C3439 1.499 . S
C3442 C3443 1.373 . S
C3442 C3444 1.389 . S
C3443 H3422 0.950 . S
C3443 C3442 1.373 . S
C3443 C3459 1.377 . S
C3444 C3442 1.389 . S
C3444 C3445 1.524 . S
C3444 C3458 1.377 . S
C3445 C3444 1.524 . S
C3445 C3446 1.397 . S
C3445 C3450 1.363 . S
C3446 H3423 0.950 . S
C3446 C3445 1.397 . S
C3446 C3447 1.334 . S
C3447 H3424 0.950 . S
C3447 C3446 1.334 . S
C3447 C3448 1.287 . S
C3448 C3447 1.287 . S
C3448 C3449 1.524 . S
C3448 H3467 0.913 . S
C3449 H3425 0.950 . S
C3449 C3448 1.524 . S
C3449 C3450 1.415 . S
C3450 H3426 0.950 . S
C3450 C3445 1.363 . S
C3450 C3449 1.415 . S
C3451 H3427 0.951 . S
C3451 C3452 1.366 . S
C3451 C3453 1.388 . S
C3452 C3451 1.366 . S
C3452 C3456 1.385 . S
C3453 H3428 0.951 . S
C3453 C3451 1.388 . S
C3453 C3454 1.366 . S
C3454 C3453 1.366 . S
C3454 C3455 1.414 . S
C3454 C3457 1.499 . S
C3455 H3429 0.950 . S
C3455 C3454 1.414 . S
C3455 C3456 1.374 . S
C3456 H3430 0.950 . S
C3456 C3452 1.385 . S
C3456 C3455 1.374 . S
C3457 C3454 1.499 . S
C3457 C3458 1.373 . S
C3457 C3459 1.389 . S
C3458 H3431 0.950 . S
C3458 C3444 1.377 . S
C3458 C3457 1.373 . S
C3459 C3443 1.377 . S
C3459 C3457 1.389 . S
C3459 C3460 1.524 . S
C3460 C3459 1.524 . S
C3460 C3461 1.397 . S
C3460 C3465 1.363 . S
C3461 H3432 0.950 . S
C3461 C3460 1.397 . S
C3461 C3462 1.334 . S
C3462 H3433 0.950 . S
C3462 C3461 1.334 . S
C3462 C3463 1.287 . S
C3463 C3462 1.287 . S
C3463 C3464 1.524 . S
C3463 H3466 0.999 . S
C3464 H3434 0.950 . S
C3464 C3463 1.524 . S
C3464 C3465 1.415 . S
C3465 H3435 0.950 . S
C3465 C3460 1.363 . S
C3465 C3464 1.415 . S
H3466 C3463 0.999 . S
H3467 C3448 0.913 . S
H3468 C3486 0.951 . S
H3469 C3488 0.951 . S
H3470 C3490 0.950 . S
H3471 C3491 0.950 . S
H3472 C3493 0.950 . S
H3473 C3496 0.950 . S
H3474 C3497 0.950 . S
H3475 C3499 0.950 . S
H3476 C3500 0.950 . S
H3477 C3501 0.951 . S
H3478 C3503 0.951 . S
H3479 C3505 0.950 . S
H3480 C3506 0.950 . S
H3481 C3508 0.950 . S
H3482 C3511 0.950 . S
H3483 C3512 0.950 . S
H3484 C3514 0.950 . S
H3485 C3515 0.950 . S
C3486 H3468 0.951 . S
C3486 C3487 1.366 . S
C3486 C3488 1.388 . S
C3487 C3486 1.366 . S
C3487 C3491 1.385 . S
C3488 H3469 0.951 . S
C3488 C3486 1.388 . S
C3488 C3489 1.366 . S
C3489 C3488 1.366 . S
C3489 C3490 1.414 . S
C3489 C3492 1.499 . S
C3490 H3470 0.950 . S
C3490 C3489 1.414 . S
C3490 C3491 1.374 . S
C3491 H3471 0.950 . S
C3491 C3487 1.385 . S
C3491 C3490 1.374 . S
C3492 C3489 1.499 . S
C3492 C3493 1.373 . S
C3492 C3494 1.389 . S
C3493 H3472 0.950 . S
C3493 C3492 1.373 . S
C3493 C3509 1.377 . S
C3494 C3492 1.389 . S
C3494 C3495 1.524 . S
C3494 C3508 1.377 . S
C3495 C3494 1.524 . S
C3495 C3496 1.397 . S
C3495 C3500 1.363 . S
C3496 H3473 0.950 . S
C3496 C3495 1.397 . S
C3496 C3497 1.334 . S
C3497 H3474 0.950 . S
C3497 C3496 1.334 . S
C3497 C3498 1.287 . S
C3498 C3497 1.287 . S
C3498 C3499 1.524 . S
C3498 H3517 0.913 . S
C3499 H3475 0.950 . S
C3499 C3498 1.524 . S
C3499 C3500 1.415 . S
C3500 H3476 0.950 . S
C3500 C3495 1.363 . S
C3500 C3499 1.415 . S
C3501 H3477 0.951 . S
C3501 C3502 1.366 . S
C3501 C3503 1.388 . S
C3502 C3501 1.366 . S
C3502 C3506 1.385 . S
C3503 H3478 0.951 . S
C3503 C3501 1.388 . S
C3503 C3504 1.366 . S
C3504 C3503 1.366 . S
C3504 C3505 1.414 . S
C3504 C3507 1.499 . S
C3505 H3479 0.950 . S
C3505 C3504 1.414 . S
C3505 C3506 1.374 . S
C3506 H3480 0.950 . S
C3506 C3502 1.385 . S
C3506 C3505 1.374 . S
C3507 C3504 1.499 . S
C3507 C3508 1.373 . S
C3507 C3509 1.389 . S
C3508 H3481 0.950 . S
C3508 C3494 1.377 . S
C3508 C3507 1.373 . S
C3509 C3493 1.377 . S
C3509 C3507 1.389 . S
C3509 C3510 1.524 . S
C3510 C3509 1.524 . S
C3510 C3511 1.397 . S
C3510 C3515 1.363 . S
C3511 H3482 0.950 . S
C3511 C3510 1.397 . S
C3511 C3512 1.334 . S
C3512 H3483 0.950 . S
C3512 C3511 1.334 . S
C3512 C3513 1.287 . S
C3513 C3512 1.287 . S
C3513 C3514 1.524 . S
C3513 H3516 0.999 . S
C3514 H3484 0.950 . S
C3514 C3513 1.524 . S
C3514 C3515 1.415 . S
C3515 H3485 0.950 . S
C3515 C3510 1.363 . S
C3515 C3514 1.415 . S
H3516 C3513 0.999 . S
H3517 C3498 0.913 . S
H3518 C3536 0.951 . S
H3519 C3538 0.951 . S
H3520 C3540 0.950 . S
H3521 C3541 0.950 . S
H3522 C3543 0.950 . S
H3523 C3546 0.950 . S
H3524 C3547 0.950 . S
H3525 C3549 0.950 . S
H3526 C3550 0.950 . S
H3527 C3551 0.951 . S
H3528 C3553 0.951 . S
H3529 C3555 0.950 . S
H3530 C3556 0.950 . S
H3531 C3558 0.950 . S
H3532 C3561 0.950 . S
H3533 C3562 0.950 . S
H3534 C3564 0.950 . S
H3535 C3565 0.950 . S
C3536 H3518 0.951 . S
C3536 C3537 1.366 . S
C3536 C3538 1.388 . S
C3537 C3536 1.366 . S
C3537 C3541 1.385 . S
C3538 H3519 0.951 . S
C3538 C3536 1.388 . S
C3538 C3539 1.366 . S
C3539 C3538 1.366 . S
C3539 C3540 1.414 . S
C3539 C3542 1.499 . S
C3540 H3520 0.950 . S
C3540 C3539 1.414 . S
C3540 C3541 1.374 . S
C3541 H3521 0.950 . S
C3541 C3537 1.385 . S
C3541 C3540 1.374 . S
C3542 C3539 1.499 . S
C3542 C3543 1.373 . S
C3542 C3544 1.389 . S
C3543 H3522 0.950 . S
C3543 C3542 1.373 . S
C3543 C3559 1.377 . S
C3544 C3542 1.389 . S
C3544 C3545 1.524 . S
C3544 C3558 1.377 . S
C3545 C3544 1.524 . S
C3545 C3546 1.397 . S
C3545 C3550 1.363 . S
C3546 H3523 0.950 . S
C3546 C3545 1.397 . S
C3546 C3547 1.334 . S
C3547 H3524 0.950 . S
C3547 C3546 1.334 . S
C3547 C3548 1.287 . S
C3548 C3547 1.287 . S
C3548 C3549 1.524 . S
C3548 H3567 0.913 . S
C3549 H3525 0.950 . S
C3549 C3548 1.524 . S
C3549 C3550 1.415 . S
C3550 H3526 0.950 . S
C3550 C3545 1.363 . S
C3550 C3549 1.415 . S
C3551 H3527 0.951 . S
C3551 C3552 1.366 . S
C3551 C3553 1.388 . S
C3552 C3551 1.366 . S
C3552 C3556 1.385 . S
C3553 H3528 0.951 . S
C3553 C3551 1.388 . S
C3553 C3554 1.366 . S
C3554 C3553 1.366 . S
C3554 C3555 1.414 . S
C3554 C3557 1.499 . S
C3555 H3529 0.950 . S
C3555 C3554 1.414 . S
C3555 C3556 1.374 . S
C3556 H3530 0.950 . S
C3556 C3552 1.385 . S
C3556 C3555 1.374 . S
C3557 C3554 1.499 . S
C3557 C3558 1.373 . S
C3557 C3559 1.389 . S
C3558 H3531 0.950 . S
C3558 C3544 1.377 . S
C3558 C3557 1.373 . S
C3559 C3543 1.377 . S
C3559 C3557 1.389 . S
C3559 C3560 1.524 . S
C3560 C3559 1.524 . S
C3560 C3561 1.397 . S
C3560 C3565 1.363 . S
C3561 H3532 0.950 . S
C3561 C3560 1.397 . S
C3561 C3562 1.334 . S
C3562 H3533 0.950 . S
C3562 C3561 1.334 . S
C3562 C3563 1.287 . S
C3563 C3562 1.287 . S
C3563 C3564 1.524 . S
C3563 H3566 0.999 . S
C3564 H3534 0.950 . S
C3564 C3563 1.524 . S
C3564 C3565 1.415 . S
C3565 H3535 0.950 . S
C3565 C3560 1.363 . S
C3565 C3564 1.415 . S
H3566 C3563 0.999 . S
H3567 C3548 0.913 . S
H3568 C3586 0.951 . S
H3569 C3588 0.951 . S
H3570 C3590 0.950 . S
H3571 C3591 0.950 . S
H3572 C3593 0.950 . S
H3573 C3596 0.950 . S
H3574 C3597 0.950 . S
H3575 C3599 0.950 . S
H3576 C3600 0.950 . S
H3577 C3601 0.951 . S
H3578 C3603 0.951 . S
H3579 C3605 0.950 . S
H3580 C3606 0.950 . S
H3581 C3608 0.950 . S
H3582 C3611 0.950 . S
H3583 C3612 0.950 . S
H3584 C3614 0.950 . S
H3585 C3615 0.950 . S
C3586 H3568 0.951 . S
C3586 C3587 1.366 . S
C3586 C3588 1.388 . S
C3587 C3586 1.366 . S
C3587 C3591 1.385 . S
C3588 H3569 0.951 . S
C3588 C3586 1.388 . S
C3588 C3589 1.366 . S
C3589 C3588 1.366 . S
C3589 C3590 1.414 . S
C3589 C3592 1.499 . S
C3590 H3570 0.950 . S
C3590 C3589 1.414 . S
C3590 C3591 1.374 . S
C3591 H3571 0.950 . S
C3591 C3587 1.385 . S
C3591 C3590 1.374 . S
C3592 C3589 1.499 . S
C3592 C3593 1.373 . S
C3592 C3594 1.389 . S
C3593 H3572 0.950 . S
C3593 C3592 1.373 . S
C3593 C3609 1.377 . S
C3594 C3592 1.389 . S
C3594 C3595 1.524 . S
C3594 C3608 1.377 . S
C3595 C3594 1.524 . S
C3595 C3596 1.397 . S
C3595 C3600 1.363 . S
C3596 H3573 0.950 . S
C3596 C3595 1.397 . S
C3596 C3597 1.334 . S
C3597 H3574 0.950 . S
C3597 C3596 1.334 . S
C3597 C3598 1.287 . S
C3598 C3597 1.287 . S
C3598 C3599 1.524 . S
C3598 H3617 0.913 . S
C3599 H3575 0.950 . S
C3599 C3598 1.524 . S
C3599 C3600 1.415 . S
C3600 H3576 0.950 . S
C3600 C3595 1.363 . S
C3600 C3599 1.415 . S
C3601 H3577 0.951 . S
C3601 C3602 1.366 . S
C3601 C3603 1.388 . S
C3602 C3601 1.366 . S
C3602 C3606 1.385 . S
C3603 H3578 0.951 . S
C3603 C3601 1.388 . S
C3603 C3604 1.366 . S
C3604 C3603 1.366 . S
C3604 C3605 1.414 . S
C3604 C3607 1.499 . S
C3605 H3579 0.950 . S
C3605 C3604 1.414 . S
C3605 C3606 1.374 . S
C3606 H3580 0.950 . S
C3606 C3602 1.385 . S
C3606 C3605 1.374 . S
C3607 C3604 1.499 . S
C3607 C3608 1.373 . S
C3607 C3609 1.389 . S
C3608 H3581 0.950 . S
C3608 C3594 1.377 . S
C3608 C3607 1.373 . S
C3609 C3593 1.377 . S
C3609 C3607 1.389 . S
C3609 C3610 1.524 . S
C3610 C3609 1.524 . S
C3610 C3611 1.397 . S
C3610 C3615 1.363 . S
C3611 H3582 0.950 . S
C3611 C3610 1.397 . S
C3611 C3612 1.334 . S
C3612 H3583 0.950 . S
C3612 C3611 1.334 . S
C3612 C3613 1.287 . S
C3613 C3612 1.287 . S
C3613 C3614 1.524 . S
C3613 H3616 0.999 . S
C3614 H3584 0.950 . S
C3614 C3613 1.524 . S
C3614 C3615 1.415 . S
C3615 H3585 0.950 . S
C3615 C3610 1.363 . S
C3615 C3614 1.415 . S
H3616 C3613 0.999 . S
H3617 C3598 0.913 . S
C937 C124 1.407 . S
C952 C229 1.330 . S
C987 C130 1.467 . S
C1002 C313 1.393 . S
C1037 C115 1.442 . S
C1052 C393 1.407 . S
C1087 C106 1.411 . S
C1102 C309 1.378 . S
C1152 C397 1.329 . S
C1137 C85 1.404 . S
C1187 C97 1.365 . S
C1202 C225 1.333 . S
C1252 C218 1.355 . S
C1237 C103 1.435 . S
C1302 C302 1.366 . S
C1287 C88 1.438 . S
C1337 C94 1.441 . S
C1352 C404 1.407 . S
C1387 C121 1.409 . S
C1402 C320 1.377 . S
C1437 C133 1.375 . S
C1452 C386 1.300 . S
C1502 C236 1.360 . S
C1487 C112 1.393 . S
C1552 C481 1.330 . S
C1537 C16 1.406 . S
C1587 C22 1.467 . S
C1602 C565 1.393 . S
C1637 C7 1.442 . S
C1652 C645 1.408 . S
C1687 C160 1.411 . S
C1702 C561 1.378 . S
C1737 C139 1.404 . S
C1752 C649 1.329 . S
C1787 C151 1.365 . S
C1802 C477 1.333 . S
C1837 C157 1.435 . S
C1852 C470 1.357 . S
C1887 C142 1.438 . S
C1902 C554 1.366 . S
C1952 C656 1.407 . S
C1937 C148 1.440 . S
C1987 C13 1.409 . S
C2002 C572 1.378 . S
C2052 C638 1.301 . S
C2037 C25 1.375 . S
C2087 C4 1.393 . S
C2102 C488 1.360 . S
C2152 C733 1.329 . S
C2137 C70 1.406 . S
C2187 C76 1.467 . S
C2202 C817 1.394 . S
C2252 C897 1.407 . S
C2237 C61 1.442 . S
C2302 C813 1.378 . S
C2287 C52 1.411 . S
C2352 C901 1.329 . S
C2337 C31 1.404 . S
C2387 C43 1.365 . S
C2402 C729 1.332 . S
C2437 C49 1.435 . S
C2452 C722 1.356 . S
C2487 C34 1.438 . S
C2502 C806 1.366 . S
C2552 C908 1.407 . S
C2537 C40 1.441 . S
C2587 C67 1.409 . S
C2602 C824 1.377 . S
C2637 C79 1.375 . S
C2652 C890 1.300 . S
C2687 C58 1.393 . S
C2702 C740 1.360 . S
C2737 C140 1.450 . S
C2752 C232 1.330 . S
C2802 C316 1.353 . S
C2787 C149 1.494 . S
C2837 C158 1.487 . S
C2852 C388 1.354 . S
C2887 C59 1.517 . S
C2902 C304 1.375 . S
C2937 C68 1.465 . S
C2952 C400 1.333 . S
C3002 C220 1.331 . S
C2987 C77 1.450 . S
C3037 C32 1.450 . S
C3052 C484 1.329 . S
C3087 C41 1.494 . S
C3102 C568 1.354 . S
C3137 C50 1.487 . S
C3152 C640 1.355 . S
C3187 C113 1.517 . S
C3202 C556 1.374 . S
C3252 C652 1.334 . S
C3237 C122 1.464 . S
C3287 C131 1.450 . S
C3302 C472 1.331 . S
C3337 C86 1.450 . S
C3352 C736 1.329 . S
C3387 C95 1.494 . S
C3402 C820 1.353 . S
C3452 C892 1.353 . S
C3437 C104 1.487 . S
C3487 C5 1.517 . S
C3502 C808 1.374 . S
C3537 C14 1.465 . S
C3552 C904 1.334 . S
C3587 C23 1.450 . S
C3602 C724 1.330 . S
