# Generated by pormake.
# Topology zzz, (3,6)-cn, num edge types: 1
# Building blocks:
#     Node 0, Type 0, BuildingBlock: VETTIZ_charged_linker_0, # of connection points: 3
#     Node 1, Type 0, BuildingBlock: VETTIZ_charged_linker_0, # of connection points: 3
#     Node 2, Type 0, BuildingBlock: VETTIZ_charged_linker_0, # of connection points: 3
#     Node 3, Type 0, BuildingBlock: VETTIZ_charged_linker_0, # of connection points: 3
#     Node 4, Type 0, BuildingBlock: VETTIZ_charged_linker_0, # of connection points: 3
#     Node 5, Type 0, BuildingBlock: VETTIZ_charged_linker_0, # of connection points: 3
#     Node 6, Type 0, BuildingBlock: VETTIZ_charged_linker_0, # of connection points: 3
#     Node 7, Type 0, BuildingBlock: VETTIZ_charged_linker_0, # of connection points: 3
#     Node 8, Type 1, BuildingBlock: GEDQOX_clean_sbu_0, # of connection points: 6
#     Node 9, Type 1, BuildingBlock: GEDQOX_clean_sbu_0, # of connection points: 6
#     Node 10, Type 1, BuildingBlock: GEDQOX_clean_sbu_0, # of connection points: 6
#     Node 11, Type 1, BuildingBlock: GEDQOX_clean_sbu_0, # of connection points: 6
#     Edge 12, Type (0, 1), BuildingBlock: KIFKEQ_clean_linker_1, # of connection points: 2
#     Edge 13, Type (0, 1), BuildingBlock: KIFKEQ_clean_linker_1, # of connection points: 2
#     Edge 14, Type (0, 1), BuildingBlock: KIFKEQ_clean_linker_1, # of connection points: 2
#     Edge 15, Type (0, 1), BuildingBlock: KIFKEQ_clean_linker_1, # of connection points: 2
#     Edge 16, Type (0, 1), BuildingBlock: KIFKEQ_clean_linker_1, # of connection points: 2
#     Edge 17, Type (0, 1), BuildingBlock: KIFKEQ_clean_linker_1, # of connection points: 2
#     Edge 18, Type (0, 1), BuildingBlock: KIFKEQ_clean_linker_1, # of connection points: 2
#     Edge 19, Type (0, 1), BuildingBlock: KIFKEQ_clean_linker_1, # of connection points: 2
#     Edge 20, Type (0, 1), BuildingBlock: KIFKEQ_clean_linker_1, # of connection points: 2
#     Edge 21, Type (0, 1), BuildingBlock: KIFKEQ_clean_linker_1, # of connection points: 2
#     Edge 22, Type (0, 1), BuildingBlock: KIFKEQ_clean_linker_1, # of connection points: 2
#     Edge 23, Type (0, 1), BuildingBlock: KIFKEQ_clean_linker_1, # of connection points: 2
#     Edge 24, Type (0, 1), BuildingBlock: KIFKEQ_clean_linker_1, # of connection points: 2
#     Edge 25, Type (0, 1), BuildingBlock: KIFKEQ_clean_linker_1, # of connection points: 2
#     Edge 26, Type (0, 1), BuildingBlock: KIFKEQ_clean_linker_1, # of connection points: 2
#     Edge 27, Type (0, 1), BuildingBlock: KIFKEQ_clean_linker_1, # of connection points: 2
#     Edge 28, Type (0, 1), BuildingBlock: KIFKEQ_clean_linker_1, # of connection points: 2
#     Edge 29, Type (0, 1), BuildingBlock: KIFKEQ_clean_linker_1, # of connection points: 2
#     Edge 30, Type (0, 1), BuildingBlock: KIFKEQ_clean_linker_1, # of connection points: 2
#     Edge 31, Type (0, 1), BuildingBlock: KIFKEQ_clean_linker_1, # of connection points: 2
#     Edge 32, Type (0, 1), BuildingBlock: KIFKEQ_clean_linker_1, # of connection points: 2
#     Edge 33, Type (0, 1), BuildingBlock: KIFKEQ_clean_linker_1, # of connection points: 2
#     Edge 34, Type (0, 1), BuildingBlock: KIFKEQ_clean_linker_1, # of connection points: 2
#     Edge 35, Type (0, 1), BuildingBlock: KIFKEQ_clean_linker_1, # of connection points: 2
# Relax obj value: 0.313
# Max RMSD: 0.266
# Mean RMSD: 0.201
data_MOF--net-zzz--node1-GEDQOX_clean_sbu_0--node2-VETTIZ_charged_linker_0--edge1-KIFKEQ_clean_linker_1
_symmetry_space_group_name_H-M    P1
_symmetry_Int_Tables_number       1
_symmetry_cell_setting            triclinic
loop_
_symmetry_equiv_pos_as_xyz
'x, y, z'
_cell_length_a     62.972296
_cell_length_b     58.752093
_cell_length_c     22.22327
_cell_angle_alpha  81.984161
_cell_angle_beta   90.704521
_cell_angle_gamma 101.88043
loop_
_atom_site_label
_atom_site_type_symbol
_atom_site_fract_x
_atom_site_fract_y
_atom_site_fract_z
_atom_type_partial_charge
C0 C 0.78652 0.48487 0.33108 0.0
C1 C 0.80395 0.47649 0.36012 0.0
C2 C 0.81294 0.45984 0.33489 0.0
C3 C 0.78927 0.46235 0.24887 0.0
C4 C 0.77914 0.47713 0.27601 0.0
C5 C 0.76031 0.48328 0.23922 0.0
H6 H 0.69987 0.4732 0.98575 0.0
C7 C 0.77944 0.45956 0.18916 0.0
C8 C 0.76203 0.47117 0.18369 0.0
H9 H 0.68821 0.50574 0.14212 0.0
H10 H 0.72103 0.4971 0.18731 0.0
H11 H 0.74861 0.49825 0.97307 0.0
H12 H 0.71861 0.42851 0.05415 0.0
H13 H 0.74031 0.42758 0.005 0.0
H14 H 0.7179 0.43987 0.97488 0.0
H15 H 0.74338 0.47439 0.92924 0.0
H16 H 0.76845 0.48137 0.96954 0.0
C17 C 0.76439 0.5103 0.22243 0.0
C18 C 0.73911 0.47244 0.27655 0.0
C19 C 0.82054 0.42942 0.03401 0.0
C20 C 0.81883 0.43039 0.97073 0.0
C21 C 0.79994 0.43574 0.94253 0.0
C22 C 0.78351 0.44123 0.97671 0.0
C23 C 0.7863 0.44194 0.03938 0.0
C24 C 0.80444 0.4357 0.06708 0.0
C25 C 0.80594 0.43961 0.1325 0.0
C26 C 0.78606 0.44997 0.13907 0.0
C27 C 0.77446 0.45103 0.08475 0.0
C28 C 0.82737 0.45748 0.13989 0.0
C29 C 0.80412 0.41545 0.1727 0.0
C30 C 0.70439 0.47868 0.02946 0.0
C31 C 0.69091 0.48968 0.06079 0.0
C32 C 0.69772 0.49653 0.11761 0.0
C33 C 0.71689 0.4916 0.14386 0.0
C34 C 0.72971 0.47994 0.1129 0.0
C35 C 0.72367 0.47412 0.0561 0.0
C36 C 0.74007 0.46302 0.02855 0.0
C37 C 0.75587 0.46135 0.08043 0.0
C38 C 0.74978 0.47146 0.12953 0.0
C39 C 0.75066 0.47994 0.972 0.0
C40 C 0.7287 0.43843 0.01451 0.0
H41 H 0.81357 0.44051 0.26173 0.0
H42 H 0.77906 0.4973 0.35044 0.0
H43 H 0.74092 0.4567 0.3088 0.0
H44 H 0.72537 0.46595 0.24773 0.0
H45 H 0.73448 0.48524 0.30365 0.0
H46 H 0.78154 0.51742 0.20726 0.0
H47 H 0.76129 0.51878 0.26218 0.0
H48 H 0.75438 0.51598 0.18441 0.0
H49 H 0.83508 0.42587 0.0567 0.0
H50 H 0.79829 0.43656 0.89373 0.0
H51 H 0.76966 0.44557 0.95278 0.0
H52 H 0.82974 0.47218 0.10157 0.0
H53 H 0.84158 0.44898 0.14027 0.0
H54 H 0.82779 0.46586 0.18129 0.0
H55 H 0.79571 0.40077 0.14885 0.0
H56 H 0.79421 0.414 0.21445 0.0
H57 H 0.82038 0.412 0.18553 0.0
H58 H 0.82632 0.45314 0.35675 0.0
C59 C 0.80566 0.45269 0.27954 0.0
C60 C 0.92358 0.77652 0.05734 0.0
C61 C 0.91914 0.79745 0.07373 0.0
C62 C 0.91198 0.79723 0.1338 0.0
C63 C 0.92268 0.76026 0.16341 0.0
C64 C 0.92562 0.75817 0.1033 0.0
C65 C 0.93424 0.73649 0.0968 0.0
H66 H 0.99703 0.66125 0.2102 0.0
C67 C 0.9336 0.74358 0.2009 0.0
C68 C 0.94002 0.72912 0.16271 0.0
H69 H 0.95883 0.66073 0.04704 0.0
H70 H 0.94258 0.69139 0.07551 0.0
H71 H 0.00847 0.72029 0.20032 0.0
H72 H 0.95781 0.66992 0.30644 0.0
H73 H 0.97422 0.68959 0.35063 0.0
H74 H 0.9861 0.66924 0.31598 0.0
H75 H 0.01482 0.70057 0.26409 0.0
H76 H 0.00644 0.72737 0.27414 0.0
C77 C 0.95454 0.74339 0.0543 0.0
C78 C 0.91562 0.71823 0.07355 0.0
C79 C 0.96099 0.76828 0.40059 0.0
C80 C 0.97931 0.76567 0.43471 0.0
C81 C 0.99133 0.74914 0.42129 0.0
C82 C 0.98508 0.73564 0.3735 0.0
C83 C 0.96731 0.73964 0.33714 0.0
C84 C 0.95588 0.75604 0.3511 0.0
C85 C 0.94 0.76147 0.3035 0.0
C86 C 0.94305 0.74505 0.25888 0.0
C87 C 0.95875 0.73179 0.27885 0.0
C88 C 0.94685 0.788 0.27644 0.0
C89 C 0.91697 0.75448 0.33271 0.0
C90 C 0.98518 0.66788 0.18079 0.0
C91 C 0.97945 0.65886 0.12564 0.0
C92 C 0.96385 0.66772 0.08879 0.0
C93 C 0.95441 0.6855 0.10518 0.0
C94 C 0.96098 0.69516 0.15814 0.0
C95 C 0.97566 0.68614 0.19619 0.0
C96 C 0.97982 0.69891 0.25147 0.0
C97 C 0.96394 0.71555 0.24177 0.0
C98 C 0.95382 0.71375 0.18537 0.0
C99 C 0.00367 0.71244 0.24794 0.0
C100 C 0.97428 0.681 0.30954 0.0
H101 H 0.90845 0.77934 0.22392 0.0
H102 H 0.92759 0.77548 0.01073 0.0
H103 H 0.89995 0.72424 0.0699 0.0
H104 H 0.91231 0.7014 0.10491 0.0
H105 H 0.91942 0.7146 0.02757 0.0
H106 H 0.96637 0.75824 0.06947 0.0
H107 H 0.95004 0.74884 0.0068 0.0
H108 H 0.96312 0.72888 0.05326 0.0
H109 H 0.95191 0.7814 0.40867 0.0
H110 H 0.00568 0.74699 0.44697 0.0
H111 H 0.99466 0.72322 0.36529 0.0
H112 H 0.95151 0.79043 0.22765 0.0
H113 H 0.96141 0.79744 0.29813 0.0
H114 H 0.93386 0.79775 0.28243 0.0
H115 H 0.91501 0.73758 0.36379 0.0
H116 H 0.90411 0.75156 0.29864 0.0
H117 H 0.9139 0.76808 0.35965 0.0
H118 H 0.90756 0.81251 0.14819 0.0
C119 C 0.91325 0.77835 0.17848 0.0
C120 C 0.82014 0.02121 0.05026 0.0
C121 C 0.8278 0.02923 0.98981 0.0
C122 C 0.81435 0.03974 0.94832 0.0
C123 C 0.78763 0.03688 0.02754 0.0
C124 C 0.79993 0.02524 0.06814 0.0
C125 C 0.78883 0.01832 0.13013 0.0
H126 H 0.70661 0.03048 0.31423 0.0
C127 C 0.76865 0.04044 0.06028 0.0
C128 C 0.76921 0.0299 0.121 0.0
H129 H 0.75141 0.98432 0.35797 0.0
H130 H 0.76947 0.99817 0.2589 0.0
H131 H 0.74045 0.07546 0.24002 0.0
H132 H 0.6952 0.0151 0.19694 0.0
H133 H 0.69437 0.03652 0.13452 0.0
H134 H 0.68668 0.04144 0.20878 0.0
H135 H 0.71154 0.07248 0.24359 0.0
H136 H 0.72696 0.08509 0.17465 0.0
C137 C 0.80425 0.02866 0.17848 0.0
C138 C 0.78199 0.99124 0.14166 0.0
C139 C 0.71337 0.08106 0.94588 0.0
C140 C 0.69406 0.08664 0.96503 0.0
C141 C 0.69018 0.08581 0.0277 0.0
C142 C 0.70415 0.07738 0.07058 0.0
C143 C 0.72211 0.0695 0.05074 0.0
C144 C 0.7271 0.0725 0.98949 0.0
C145 C 0.74719 0.06363 0.97729 0.0
C146 C 0.75237 0.05323 0.04104 0.0
C147 C 0.73744 0.05646 0.08343 0.0
C148 C 0.765 0.08503 0.9509 0.0
C149 C 0.74111 0.04441 0.93514 0.0
C150 C 0.72064 0.02371 0.30324 0.0
C151 C 0.72788 0.00671 0.34419 0.0
C152 C 0.74564 0.9976 0.32708 0.0
C153 C 0.75596 0.00553 0.26958 0.0
C154 C 0.74799 0.02219 0.22838 0.0
C155 C 0.7305 0.03078 0.24597 0.0
C156 C 0.72225 0.04617 0.19568 0.0
C157 C 0.73761 0.04565 0.14445 0.0
C158 C 0.75308 0.03201 0.16344 0.0
C159 C 0.72524 0.07112 0.21419 0.0
C160 C 0.69839 0.03447 0.18322 0.0
H161 H 0.7854 0.05215 0.93292 0.0
H162 H 0.82988 0.01272 0.0831 0.0
H163 H 0.77626 0.98415 0.09909 0.0
H164 H 0.76824 0.98501 0.17414 0.0
H165 H 0.79583 0.9832 0.1584 0.0
H166 H 0.81076 0.0477 0.16401 0.0
H167 H 0.8182 0.01972 0.18519 0.0
H168 H 0.79604 0.02708 0.22288 0.0
H169 H 0.71698 0.08193 0.89799 0.0
H170 H 0.67544 0.08991 0.04389 0.0
H171 H 0.69969 0.07608 0.11753 0.0
H172 H 0.76188 0.10178 0.96328 0.0
H173 H 0.76585 0.08694 0.90051 0.0
H174 H 0.78124 0.08398 0.9693 0.0
H175 H 0.72495 0.03307 0.94836 0.0
H176 H 0.75244 0.03226 0.93798 0.0
H177 H 0.74028 0.05236 0.88702 0.0
H178 H 0.81929 0.04523 0.90112 0.0
C179 C 0.79453 0.04372 0.96684 0.0
C180 C 0.56193 0.72514 0.46817 0.0
C181 C 0.57205 0.70639 0.49175 0.0
C182 C 0.59086 0.70371 0.4622 0.0
C183 C 0.58768 0.7354 0.38339 0.0
C184 C 0.5705 0.73992 0.41436 0.0
C185 C 0.56357 0.76188 0.38303 0.0
H186 H 0.5779 0.84826 0.13526 0.0
C187 C 0.59193 0.75195 0.32695 0.0
C188 C 0.57866 0.76849 0.32687 0.0
H189 H 0.53322 0.84146 0.28535 0.0
H190 H 0.54562 0.80656 0.33321 0.0
H191 H 0.61967 0.83345 0.20854 0.0
H192 H 0.56519 0.80151 0.11357 0.0
H193 H 0.58164 0.78073 0.11569 0.0
H194 H 0.59116 0.81016 0.07681 0.0
H195 H 0.61524 0.83814 0.12812 0.0
H196 H 0.62861 0.81521 0.16162 0.0
C197 C 0.56806 0.78072 0.42607 0.0
C198 C 0.53952 0.75532 0.36569 0.0
C199 C 0.62372 0.72565 0.14863 0.0
C200 C 0.62432 0.73462 0.08639 0.0
C201 C 0.62454 0.75871 0.0697 0.0
C202 C 0.62075 0.77252 0.11342 0.0
C203 C 0.61624 0.76197 0.1739 0.0
C204 C 0.61926 0.73943 0.1915 0.0
C205 C 0.61391 0.73109 0.25778 0.0
C206 C 0.6043 0.75125 0.27457 0.0
C207 C 0.60563 0.76909 0.22513 0.0
C208 C 0.63538 0.72904 0.29127 0.0
C209 C 0.59692 0.70763 0.26364 0.0
C210 C 0.57116 0.83969 0.17927 0.0
C211 C 0.55503 0.84796 0.20727 0.0
C212 C 0.5459 0.83555 0.26318 0.0
C213 C 0.55316 0.81539 0.29091 0.0
C214 C 0.56938 0.80733 0.26176 0.0
C215 C 0.57778 0.81946 0.20639 0.0
C216 C 0.59291 0.80749 0.17741 0.0
C217 C 0.5937 0.78702 0.22632 0.0
C218 C 0.57994 0.78673 0.27621 0.0
C219 C 0.61533 0.82443 0.16792 0.0
C220 C 0.58239 0.79961 0.1178 0.0
H221 H 0.61311 0.71533 0.38865 0.0
H222 H 0.5479 0.72819 0.49102 0.0
H223 H 0.53659 0.73931 0.34279 0.0
H224 H 0.53446 0.76923 0.33365 0.0
H225 H 0.52881 0.75166 0.40675 0.0
H226 H 0.58446 0.78168 0.44598 0.0
H227 H 0.55595 0.77648 0.46406 0.0
H228 H 0.56789 0.79849 0.40257 0.0
H229 H 0.62401 0.70738 0.16328 0.0
H230 H 0.62581 0.76636 0.02229 0.0
H231 H 0.62006 0.79044 0.09782 0.0
H232 H 0.64992 0.73497 0.26075 0.0
H233 H 0.63541 0.71058 0.31084 0.0
H234 H 0.63823 0.74018 0.32826 0.0
H235 H 0.58296 0.70944 0.23351 0.0
H236 H 0.59026 0.7017 0.31003 0.0
H237 H 0.60416 0.69323 0.2509 0.0
H238 H 0.59914 0.68972 0.47923 0.0
C239 C 0.59883 0.71827 0.40899 0.0
C240 C 0.32502 0.52548 0.57499 0.0
C241 C 0.33626 0.53305 0.6263 0.0
C242 C 0.32707 0.54702 0.66122 0.0
C243 C 0.29616 0.54535 0.59492 0.0
C244 C 0.30519 0.53201 0.5599 0.0
C245 C 0.29138 0.52603 0.50614 0.0
H246 H 0.19714 0.52917 0.35746 0.0
C247 C 0.27579 0.5496 0.56654 0.0
C248 C 0.27309 0.5388 0.51355 0.0
H249 H 0.24648 0.49202 0.31767 0.0
H250 H 0.26949 0.50939 0.3952 0.0
H251 H 0.2003 0.51867 0.50557 0.0
H252 H 0.22629 0.57642 0.36848 0.0
H253 H 0.22592 0.58913 0.4355 0.0
H254 H 0.20073 0.57473 0.4051 0.0
H255 H 0.18474 0.53534 0.45524 0.0
H256 H 0.19453 0.54496 0.52482 0.0
C257 C 0.28329 0.49904 0.51407 0.0
C258 C 0.30487 0.53628 0.44725 0.0
C259 C 0.22254 0.58346 0.67965 0.0
C260 C 0.20251 0.58932 0.66247 0.0
C261 C 0.1968 0.59092 0.60078 0.0
C262 C 0.20954 0.58424 0.5581 0.0
C263 C 0.22803 0.57563 0.57739 0.0
C264 C 0.23528 0.5771 0.63585 0.0
C265 C 0.25692 0.56998 0.64493 0.0
C266 C 0.2599 0.56145 0.58442 0.0
C267 C 0.24248 0.56413 0.54615 0.0
C268 C 0.25478 0.54984 0.69878 0.0
C269 C 0.27433 0.59208 0.65398 0.0
C270 C 0.21292 0.52479 0.36558 0.0
C271 C 0.2199 0.50892 0.33275 0.0
C272 C 0.24075 0.50409 0.34305 0.0
C273 C 0.25393 0.51404 0.3883 0.0
C274 C 0.2461 0.52891 0.42334 0.0
C275 C 0.22608 0.53443 0.41047 0.0
C276 C 0.21994 0.55016 0.45196 0.0
C277 C 0.23939 0.55286 0.4933 0.0
C278 C 0.25462 0.54025 0.47683 0.0
C279 C 0.19876 0.53677 0.48632 0.0
C280 C 0.21797 0.57381 0.41357 0.0
H281 H 0.30101 0.56368 0.67434 0.0
H282 H 0.33138 0.51459 0.54725 0.0
H283 H 0.31496 0.55388 0.45152 0.0
H284 H 0.29468 0.53911 0.40726 0.0
H285 H 0.31596 0.52473 0.43759 0.0
H286 H 0.2792 0.49197 0.56257 0.0
H287 H 0.29596 0.49026 0.49924 0.0
H288 H 0.26825 0.49349 0.48938 0.0
H289 H 0.22757 0.58277 0.72653 0.0
H290 H 0.18156 0.59555 0.5863 0.0
H291 H 0.20385 0.58471 0.51244 0.0
H292 H 0.24025 0.5359 0.69342 0.0
H293 H 0.253 0.55643 0.74255 0.0
H294 H 0.26884 0.54125 0.70229 0.0
H295 H 0.26856 0.60864 0.63944 0.0
H296 H 0.28916 0.59365 0.62601 0.0
H297 H 0.27891 0.59199 0.70244 0.0
H298 H 0.33546 0.55363 0.70006 0.0
C299 C 0.30715 0.55314 0.64588 0.0
C300 C 0.10235 0.23569 0.61828 0.0
C301 C 0.1074 0.21477 0.60348 0.0
C302 C 0.11764 0.2155 0.5468 0.0
C303 C 0.10919 0.25331 0.51394 0.0
C304 C 0.10333 0.25487 0.57238 0.0
C305 C 0.09566 0.27732 0.57583 0.0
H306 H 0.03865 0.35426 0.46056 0.0
C307 C 0.101 0.2711 0.4725 0.0
C308 C 0.095 0.28672 0.50793 0.0
H309 H 0.08945 0.36591 0.59278 0.0
H310 H 0.1038 0.33353 0.56321 0.0
H311 H 0.07448 0.34371 0.35754 0.0
H312 H 0.02844 0.29267 0.47776 0.0
H313 H 0.02696 0.2873 0.4012 0.0
H314 H 0.01937 0.31327 0.42071 0.0
H315 H 0.04581 0.34309 0.35347 0.0
H316 H 0.05742 0.32237 0.31952 0.0
C317 C 0.11238 0.29292 0.61204 0.0
C318 C 0.07287 0.27195 0.60598 0.0
C319 C 0.07156 0.24222 0.27845 0.0
C320 C 0.05319 0.24456 0.24411 0.0
C321 C 0.04127 0.26133 0.25652 0.0
C322 C 0.04778 0.27549 0.30283 0.0
C323 C 0.06586 0.27212 0.33852 0.0
C324 C 0.07701 0.25525 0.32637 0.0
C325 C 0.09331 0.25065 0.37361 0.0
C326 C 0.09113 0.26851 0.41521 0.0
C327 C 0.07528 0.28151 0.39417 0.0
C328 C 0.11603 0.25637 0.34284 0.0
C329 C 0.08639 0.22464 0.40466 0.0
C330 C 0.05211 0.34903 0.48565 0.0
C331 C 0.06223 0.36193 0.53138 0.0
C332 C 0.08077 0.35569 0.55981 0.0
C333 C 0.08848 0.33642 0.54561 0.0
C334 C 0.07702 0.32259 0.50507 0.0
C335 C 0.06035 0.32968 0.47186 0.0
C336 C 0.05459 0.3153 0.41975 0.0
C337 C 0.071 0.29913 0.42803 0.0
C338 C 0.08259 0.30275 0.48123 0.0
C339 C 0.05816 0.33194 0.35904 0.0
C340 C 0.03103 0.30139 0.42991 0.0
H341 H 0.12635 0.2349 0.45913 0.0
H342 H 0.09598 0.23634 0.66286 0.0
H343 H 0.06121 0.25972 0.58136 0.0
H344 H 0.06661 0.28828 0.60582 0.0
H345 H 0.0733 0.26388 0.65413 0.0
H346 H 0.11916 0.28217 0.64972 0.0
H347 H 0.1048 0.30501 0.63456 0.0
H348 H 0.12616 0.3031 0.58235 0.0
H349 H 0.08059 0.22892 0.27152 0.0
H350 H 0.02685 0.26328 0.23092 0.0
H351 H 0.03818 0.28796 0.31048 0.0
H352 H 0.11832 0.27306 0.31082 0.0
H353 H 0.11819 0.24217 0.31674 0.0
H354 H 0.12922 0.25893 0.37608 0.0
H355 H 0.07936 0.22347 0.45084 0.0
H356 H 0.10007 0.21533 0.40713 0.0
H357 H 0.07363 0.21382 0.37975 0.0
H358 H 0.12265 0.20025 0.53415 0.0
C359 C 0.11907 0.23512 0.50238 0.0
C360 C 0.28474 1.0018 0.34565 0.0
C361 C 0.303 0.99641 0.31889 0.0
C362 C 0.31374 0.97994 0.35104 0.0
C363 C 0.28948 0.97546 0.43715 0.0
C364 C 0.27807 0.99079 0.40501 0.0
C365 C 0.2587 0.99324 0.44163 0.0
H366 H 0.20461 0.96791 0.7158 0.0
C367 C 0.27973 0.9681 0.49848 0.0
C368 C 0.26148 0.97817 0.50196 0.0
H369 H 0.18432 1.00449 0.54958 0.0
H370 H 0.21694 1.00079 0.49797 0.0
H371 H 0.21807 0.92708 0.65484 0.0
H372 H 0.25412 0.99214 0.70397 0.0
H373 H 0.27119 0.97195 0.71806 0.0
H374 H 0.24572 0.96662 0.75932 0.0
H375 H 0.22292 0.93213 0.73213 0.0
H376 H 0.242 0.92133 0.6897 0.0
C377 C 0.23785 0.98288 0.40906 0.0
C378 C 0.26081 0.01935 0.44902 0.0
C379 C 0.32105 0.92479 0.6565 0.0
C380 C 0.31916 0.91979 0.72005 0.0
C381 C 0.30032 0.92279 0.74895 0.0
C382 C 0.28423 0.93193 0.71519 0.0
C383 C 0.28718 0.93846 0.65197 0.0
C384 C 0.30517 0.93439 0.62371 0.0
C385 C 0.30671 0.94403 0.5574 0.0
C386 C 0.28681 0.95493 0.55044 0.0
C387 C 0.27537 0.95151 0.60566 0.0
C388 C 0.30484 0.92309 0.52074 0.0
C389 C 0.32815 0.9628 0.5464 0.0
C390 C 0.20688 0.97489 0.66806 0.0
C391 C 0.19154 0.98621 0.63687 0.0
C392 C 0.19581 0.99572 0.57509 0.0
C393 C 0.21464 0.99331 0.5449 0.0
C394 C 0.22935 0.98114 0.57656 0.0
C395 C 0.22525 0.97227 0.63724 0.0
C396 C 0.2421 0.95942 0.66425 0.0
C397 C 0.25666 0.96116 0.60946 0.0
C398 C 0.24948 0.97425 0.55799 0.0
C399 C 0.23083 0.93365 0.68694 0.0
C400 C 0.25389 0.973 0.71433 0.0
H401 H 0.31631 0.95737 0.43172 0.0
H402 H 0.27602 0.01417 0.32117 0.0
H403 H 0.27742 0.02676 0.46389 0.0
H404 H 0.2495 0.02197 0.48368 0.0
H405 H 0.25784 0.02982 0.40529 0.0
H406 H 0.23979 0.96698 0.38951 0.0
H407 H 0.23403 0.99583 0.37125 0.0
H408 H 0.22366 0.97693 0.44013 0.0
H409 H 0.33558 0.92328 0.63306 0.0
H410 H 0.29853 0.91906 0.79797 0.0
H411 H 0.27056 0.93443 0.73996 0.0
H412 H 0.2951 0.90665 0.54604 0.0
H413 H 0.32107 0.91964 0.51112 0.0
H414 H 0.29618 0.92574 0.4775 0.0
H415 H 0.33206 0.97227 0.58645 0.0
H416 H 0.32738 0.97683 0.50842 0.0
H417 H 0.34206 0.9546 0.53827 0.0
H418 H 0.32771 0.97554 0.33097 0.0
C419 C 0.30709 0.96944 0.40966 0.0
C420 C 0.45915 0.28558 0.18131 0.0
C421 C 0.45 0.30542 0.16129 0.0
C422 C 0.43243 0.30919 0.19459 0.0
C423 C 0.43575 0.27681 0.27091 0.0
C424 C 0.45119 0.27099 0.2359 0.0
C425 C 0.45633 0.24753 0.26308 0.0
H426 H 0.44328 0.16151 0.51094 0.0
C427 C 0.43151 0.25993 0.32632 0.0
C428 C 0.44245 0.24165 0.32165 0.0
H429 H 0.47968 0.1621 0.34706 0.0
H430 H 0.4695 0.19884 0.30388 0.0
H431 H 0.45763 0.20397 0.53587 0.0
H432 H 0.40123 0.1777 0.4457 0.0
H433 H 0.39432 0.19746 0.49133 0.0
H434 H 0.4068 0.17384 0.52555 0.0
H435 H 0.43237 0.20228 0.57221 0.0
H436 H 0.44663 0.22934 0.52881 0.0
C437 C 0.48079 0.25113 0.2763 0.0
C438 C 0.44881 0.22967 0.21851 0.0
C439 C 0.41612 0.28917 0.51979 0.0
C440 C 0.41537 0.27807 0.58035 0.0
C441 C 0.40973 0.25339 0.59199 0.0
C442 C 0.40824 0.24004 0.54411 0.0
C443 C 0.41313 0.25155 0.48473 0.0
C444 C 0.41504 0.27553 0.47245 0.0
C445 C 0.41847 0.28433 0.40554 0.0
C446 C 0.42184 0.26197 0.38202 0.0
C447 C 0.41948 0.24323 0.42943 0.0
C448 C 0.43894 0.30425 0.39567 0.0
C449 C 0.39767 0.29253 0.38125 0.0
C450 C 0.44867 0.16893 0.46495 0.0
C451 C 0.46191 0.15836 0.43225 0.0
C452 C 0.46934 0.16969 0.37356 0.0
C453 C 0.46332 0.19095 0.34838 0.0
C454 C 0.44986 0.20107 0.38232 0.0
C455 C 0.44295 0.18986 0.43972 0.0
C456 C 0.42969 0.2029 0.472 0.0
C457 C 0.42892 0.22366 0.4239 0.0
C458 C 0.44078 0.22284 0.37099 0.0
C459 C 0.44202 0.21001 0.53012 0.0
C460 C 0.40679 0.18719 0.48487 0.0
H461 H 0.41104 0.29742 0.2708 0.0
H462 H 0.47189 0.28151 0.155 0.0
H463 H 0.43237 0.23099 0.20136 0.0
H464 H 0.44746 0.21135 0.24004 0.0
H465 H 0.46011 0.23305 0.17875 0.0
H466 H 0.48582 0.26601 0.30281 0.0
H467 H 0.49049 0.25519 0.23329 0.0
H468 H 0.4851 0.23556 0.30333 0.0
H469 H 0.41981 0.30813 0.50965 0.0
H470 H 0.40826 0.24446 0.63828 0.0
H471 H 0.40466 0.22132 0.5553 0.0
H472 H 0.45332 0.29818 0.41647 0.0
H473 H 0.4367 0.31981 0.41609 0.0
H474 H 0.44267 0.3104 0.34695 0.0
H475 H 0.387 0.29492 0.41842 0.0
H476 H 0.38773 0.27957 0.35483 0.0
H477 H 0.40159 0.30992 0.35245 0.0
H478 H 0.42459 0.32372 0.17948 0.0
C479 C 0.42504 0.29468 0.24849 0.0
Nd480 Nd 0.00793 0.998 0.77586 0.0
Nd481 Nd 0.01688 0.01357 0.89378 0.0
C482 C 0.99826 0.98366 0.66914 0.0
C483 C 0.99618 0.96031 0.64832 0.0
C484 C 0.98231 0.94017 0.67856 0.0
C485 C 0.98169 0.91802 0.66099 0.0
C486 C 0.99508 0.9154 0.61321 0.0
C487 C 0.00887 0.93559 0.58291 0.0
C488 C 0.00934 0.95776 0.60012 0.0
C489 C 0.0465 0.98832 0.82255 0.0
C490 C 0.994 0.95898 0.89003 0.0
C491 C 0.027 0.02744 1.00106 0.0
C492 C 0.02873 0.05067 0.02146 0.0
C493 C 0.02481 0.0698 0.98064 0.0
C494 C 0.02569 0.09169 0.9998 0.0
C495 C 0.0305 0.095 0.06043 0.0
C496 C 0.03449 0.07573 0.10119 0.0
C497 C 0.03361 0.05379 0.08186 0.0
C498 C 0.97836 0.02326 0.84704 0.0
C499 C 0.03022 0.05275 0.77913 0.0
O500 O 0.98356 0.9861 0.7075 0.0
O501 O 0.01781 0.99373 0.68307 0.0
O502 O 0.03123 0.97321 0.80204 0.0
O503 O 0.04016 0.00729 0.8238 0.0
O504 O 0.98907 0.96588 0.83394 0.0
O505 O 0.0073 0.97323 0.9214 0.0
O506 O 0.04153 0.02595 0.96106 0.0
O507 O 0.00749 0.01714 0.98745 0.0
O508 O 0.9935 0.03827 0.8683 0.0
O509 O 0.98465 1.00425 0.8459 0.0
O510 O 0.03514 0.04607 0.83541 0.0
O511 O 0.01724 0.03827 0.74769 0.0
H512 H 0.97217 0.9414 0.71648 0.0
H513 H 0.97105 0.90285 0.68575 0.0
H514 H 0.01921 0.93427 0.54551 0.0
H515 H 0.02026 0.97293 0.57624 0.0
H516 H 0.02083 0.06773 0.93394 0.0
H517 H 0.02223 0.10591 0.96722 0.0
H518 H 0.03854 0.07763 0.14796 0.0
H519 H 0.03666 0.03927 0.11414 0.0
Nd520 Nd 0.52103 0.98867 0.77949 0.0
Nd521 Nd 0.49755 0.01628 0.85152 0.0
C522 C 0.54132 0.96023 0.73045 0.0
C523 C 0.56227 0.96199 0.69805 0.0
C524 C 0.58168 0.96177 0.73007 0.0
C525 C 0.60133 0.96359 0.69903 0.0
C526 C 0.60211 0.9656 0.63519 0.0
C527 C 0.58263 0.9655 0.60335 0.0
C528 C 0.56299 0.96364 0.63437 0.0
C529 C 0.50966 0.02723 0.71202 0.0
C530 C 0.54965 0.03523 0.82159 0.0
C531 C 0.47735 0.04517 0.89885 0.0
C532 C 0.45654 0.04266 0.93151 0.0
C533 C 0.45409 0.05879 0.9705 0.0
C534 C 0.43473 0.05597 0.00377 0.0
C535 C 0.41741 0.03692 0.99871 0.0
C536 C 0.41988 0.02099 0.95869 0.0
C537 C 0.43926 0.02378 0.92568 0.0
C538 C 0.5084 0.9776 0.91985 0.0
C539 C 0.46912 0.96917 0.81222 0.0
O540 O 0.54207 0.96242 0.78832 0.0
O541 O 0.5269 0.97065 0.70168 0.0
O542 O 0.52806 0.0211 0.70608 0.0
O543 O 0.4977 0.01293 0.75162 0.0
O544 O 0.55031 0.0147 0.80534 0.0
O545 O 0.53128 0.04086 0.83596 0.0
O546 O 0.47617 0.04216 0.84154 0.0
O547 O 0.4919 0.0351 0.92797 0.0
O548 O 0.4905 0.98466 0.92662 0.0
O549 O 0.52053 0.99153 0.87974 0.0
O550 O 0.46836 0.98971 0.82816 0.0
O551 O 0.48743 0.96377 0.79636 0.0
H552 H 0.58175 0.96023 0.7792 0.0
H553 H 0.61591 0.96324 0.72521 0.0
H554 H 0.58257 0.96733 0.55419 0.0
H555 H 0.54834 0.96367 0.6083 0.0
H556 H 0.46728 0.07339 0.97592 0.0
H557 H 0.4336 0.06839 0.03471 0.0
H558 H 0.40685 0.0063 0.95287 0.0
H559 H 0.44081 0.01105 0.89597 0.0
Nd560 Nd 0.50155 0.51289 0.87085 0.0
Nd561 Nd 0.52563 0.49711 0.7786 0.0
C562 C 0.48217 0.53708 0.93518 0.0
C563 C 0.49322 0.55884 0.95832 0.0
C564 C 0.49139 0.58087 0.92725 0.0
C565 C 0.50645 0.60113 0.93654 0.0
C566 C 0.52364 0.59972 0.97704 0.0
C567 C 0.52433 0.57795 0.01161 0.0
C568 C 0.50924 0.55782 0.00273 0.0
C569 C 0.54269 0.50815 0.90556 0.0
C570 C 0.52857 0.55207 0.76196 0.0
C571 C 0.54839 0.47358 0.72119 0.0
C572 C 0.54448 0.44799 0.72082 0.0
C573 C 0.54061 0.43261 0.77584 0.0
C574 C 0.52983 0.40934 0.77617 0.0
C575 C 0.52325 0.401 0.72144 0.0
C576 C 0.52935 0.41557 0.66612 0.0
C577 C 0.53983 0.43898 0.66583 0.0
C578 C 0.48475 0.50246 0.74345 0.0
C579 C 0.49642 0.45807 0.88405 0.0
O580 O 0.48059 0.5387 0.87604 0.0
O581 O 0.48816 0.51777 0.95883 0.0
O582 O 0.52577 0.50152 0.94087 0.0
O583 O 0.5379 0.51756 0.85421 0.0
O584 O 0.51164 0.54623 0.79961 0.0
O585 O 0.53982 0.53629 0.75222 0.0
O586 O 0.55438 0.48107 0.77278 0.0
O587 O 0.53338 0.48369 0.69487 0.0
O588 O 0.50176 0.50914 0.70808 0.0
O589 O 0.48935 0.49278 0.79481 0.0
O590 O 0.51429 0.46378 0.84985 0.0
O591 O 0.48504 0.4741 0.89034 0.0
H592 H 0.47919 0.58223 0.89286 0.0
H593 H 0.50507 0.61773 0.91034 0.0
H594 H 0.53735 0.57606 0.04298 0.0
H595 H 0.51121 0.54121 0.02768 0.0
H596 H 0.54438 0.43897 0.81892 0.0
H597 H 0.52552 0.39825 0.81923 0.0
H598 H 0.52438 0.40946 0.6233 0.0
H599 H 0.54264 0.4505 0.6229 0.0
Nd600 Nd 0.00646 0.52489 0.78386 0.0
Nd601 Nd 0.02336 0.48754 0.88009 0.0
C602 C 0.9824 0.55241 0.72591 0.0
C603 C 0.96227 0.54717 0.69123 0.0
C604 C 0.94435 0.55663 0.70381 0.0
C605 C 0.9245 0.54987 0.67546 0.0
C606 C 0.92225 0.53351 0.63397 0.0
C607 C 0.94044 0.52456 0.62049 0.0
C608 C 0.96015 0.53116 0.64908 0.0
C609 C 0.02306 0.49142 0.73561 0.0
C610 C 0.97215 0.47647 0.84681 0.0
C611 C 0.0455 0.45612 0.927 0.0
C612 C 0.06458 0.45886 0.96609 0.0
C613 C 0.0751 0.44021 0.98359 0.0
C614 C 0.0932 0.44327 0.02132 0.0
C615 C 0.10085 0.46499 0.04218 0.0
C616 C 0.09043 0.4837 0.02333 0.0
C617 C 0.07251 0.48067 0.98563 0.0
C618 C 0.01552 0.5242 0.9372 0.0
C619 C 0.05605 0.53739 0.82327 0.0
O620 O 0.98046 0.54525 0.78442 0.0
O621 O 1.00003 0.54851 0.70208 0.0
O622 O 0.02522 0.51308 0.70998 0.0
O623 O 0.01149 0.48784 0.78346 0.0
O624 O 0.97566 0.49657 0.8096 0.0
O625 O 0.98774 0.46854 0.87836 0.0
O626 O 0.04892 0.46733 0.87153 0.0
O627 O 0.02748 0.45868 0.95186 0.0
O628 O 0.02201 0.50611 0.96579 0.0
O629 O 0.01322 0.52156 0.8822 0.0
O630 O 0.0539 0.51485 0.84488 0.0
O631 O 0.0394 0.54678 0.80413 0.0
H632 H 0.94556 0.5688 0.73671 0.0
H633 H 0.91079 0.55697 0.68731 0.0
H634 H 0.93948 0.51232 0.58785 0.0
H635 H 0.97361 0.52337 0.63886 0.0
H636 H 0.06925 0.42331 0.96852 0.0
H637 H 0.10087 0.42853 0.03535 0.0
H638 H 0.09615 0.50074 0.03781 0.0
H639 H 0.06475 0.49537 0.97189 0.0
H640 H 0.16864 0.02194 0.62572 0.0
H641 H 0.16757 0.95227 0.72045 0.0
H642 H 0.13487 0.02257 0.6779 0.0
H643 H 0.13494 0.95356 0.77512 0.0
H644 H 0.06246 0.95076 0.79993 0.0
H645 H 0.09786 0.9509 0.75786 0.0
H646 H 0.11816 0.02474 0.77318 0.0
H647 H 0.08215 0.02468 0.81357 0.0
C648 C 0.16131 0.00681 0.65774 0.0
C649 C 0.17099 0.98709 0.66873 0.0
C650 C 0.1421 0.00731 0.68847 0.0
C651 C 0.13208 0.98812 0.73104 0.0
C652 C 0.14192 0.96857 0.74228 0.0
C653 C 0.16093 0.96798 0.71133 0.0
C654 C 0.07459 0.96694 0.79541 0.0
C655 C 0.06944 0.98771 0.80991 0.0
C656 C 0.095 0.96704 0.7713 0.0
C657 C 0.11096 0.98789 0.76145 0.0
C658 C 0.10617 0.00845 0.77899 0.0
C659 C 0.08563 0.00836 0.80299 0.0
H660 H 0.43677 0.12174 0.50592 0.0
H661 H 0.50123 0.14449 0.42691 0.0
H662 H 0.44825 0.09062 0.57164 0.0
H663 H 0.51235 0.11132 0.48823 0.0
H664 H 0.53424 0.06767 0.6542 0.0
H665 H 0.52268 0.09757 0.58167 0.0
H666 H 0.45717 0.05588 0.59399 0.0
H667 H 0.46868 0.02737 0.67065 0.0
C668 C 0.45343 0.11989 0.50182 0.0
C669 C 0.46821 0.13624 0.46209 0.0
C670 C 0.46001 0.10153 0.53919 0.0
C671 C 0.48148 0.0982 0.53679 0.0
C672 C 0.49587 0.11352 0.49349 0.0
C673 C 0.48938 0.13239 0.45705 0.0
C674 C 0.51732 0.06516 0.64161 0.0
C675 C 0.5023 0.04539 0.66854 0.0
C676 C 0.51066 0.08217 0.59916 0.0
C677 C 0.48883 0.07954 0.58092 0.0
C678 C 0.47396 0.05926 0.60739 0.0
C679 C 0.48054 0.04268 0.65135 0.0
H680 H 0.36904 0.52907 0.55026 0.0
H681 H 0.35202 0.5229 0.74055 0.0
H682 H 0.40405 0.51978 0.57784 0.0
H683 H 0.38762 0.51547 0.76797 0.0
H684 H 0.4464 0.48264 0.80319 0.0
H685 H 0.41016 0.48821 0.77374 0.0
H686 H 0.43774 0.53633 0.6156 0.0
H687 H 0.47371 0.52974 0.64381 0.0
C688 C 0.37268 0.52568 0.59801 0.0
C689 C 0.3576 0.52685 0.64307 0.0
C690 C 0.39298 0.52071 0.61388 0.0
C691 C 0.39887 0.51702 0.67523 0.0
C692 C 0.38368 0.51792 0.72027 0.0
C693 C 0.3633 0.5226 0.70443 0.0
C694 C 0.44462 0.49428 0.76198 0.0
C695 C 0.4628 0.50569 0.72563 0.0
C696 C 0.42387 0.49764 0.74523 0.0
C697 C 0.42089 0.51277 0.69219 0.0
C698 C 0.43924 0.52419 0.65604 0.0
C699 C 0.45992 0.52056 0.67238 0.0
H700 H 0.08563 0.40612 0.53454 0.0
H701 H 0.02171 0.36321 0.57281 0.0
H702 H 0.07548 0.43731 0.58234 0.0
H703 H 0.01127 0.3947 0.62048 0.0
H704 H 0.01252 0.44365 0.76998 0.0
H705 H 0.0203 0.41296 0.71446 0.0
H706 H 0.05282 0.46626 0.57302 0.0
H707 H 0.04528 0.49673 0.62868 0.0
C708 C 0.06922 0.40359 0.55216 0.0
C709 C 0.05445 0.38225 0.54982 0.0
C710 C 0.06337 0.42148 0.57955 0.0
C711 C 0.04259 0.41851 0.6058 0.0
C712 C 0.0275 0.39747 0.60145 0.0
C713 C 0.03334 0.37957 0.57341 0.0
C714 C 0.02138 0.44875 0.72712 0.0
C715 C 0.02835 0.47261 0.70384 0.0
C716 C 0.02566 0.43117 0.69497 0.0
C717 C 0.03713 0.43708 0.63903 0.0
C718 C 0.04412 0.46101 0.61611 0.0
C719 C 0.03977 0.47851 0.64802 0.0
H720 H 0.85594 0.06261 0.91605 0.0
H721 H 0.84995 0.99303 0.01624 0.0
H722 H 0.8906 0.06025 0.87461 0.0
H723 H 0.88573 0.9912 0.97716 0.0
H724 H 0.96262 0.06105 0.86822 0.0
H725 H 0.92656 0.06173 0.90396 0.0
H726 H 0.90564 0.98815 0.88648 0.0
H727 H 0.94233 0.98735 0.85252 0.0
C728 C 0.86203 0.04673 0.92937 0.0
C729 C 0.84992 0.02787 0.96902 0.0
C730 C 0.88215 0.0455 0.90606 0.0
C731 C 0.89112 0.02555 0.9224 0.0
C732 C 0.87922 0.00673 0.96283 0.0
C733 C 0.85884 0.0079 0.98599 0.0
C734 C 0.95026 0.04508 0.87107 0.0
C735 C 0.95536 0.02417 0.85745 0.0
C736 C 0.92949 0.04545 0.89156 0.0
C737 C 0.91306 0.02496 0.89847 0.0
C738 C 0.91794 1.00417 0.88269 0.0
C739 C 0.93887 1.00378 0.86233 0.0
H740 H 0.5134 0.85197 0.17844 0.0
H741 H 0.57969 0.89037 0.16071 0.0
H742 H 0.50201 0.88326 0.10936 0.0
H743 H 0.56842 0.92202 0.09338 0.0
H744 H 0.54619 0.96106 0.91971 0.0
H745 H 0.55688 0.93044 0.99275 0.0
H746 H 0.49667 0.92211 0.09272 0.0
H747 H 0.48577 0.95189 0.01849 0.0
C748 C 0.52543 0.86743 0.16108 0.0
C749 C 0.54741 0.86871 0.17499 0.0
C750 C 0.51896 0.88539 0.12123 0.0
C751 C 0.53431 0.90518 0.09475 0.0
C752 C 0.55617 0.90687 0.1113 0.0
C753 C 0.56262 0.88885 0.15057 0.0
C754 C 0.53525 0.95257 0.95717 0.0
C755 C 0.51515 0.9589 0.96325 0.0
C756 C 0.54142 0.93513 0.99951 0.0
C757 C 0.52771 0.92373 0.04925 0.0
C758 C 0.50758 0.93014 0.05487 0.0
C759 C 0.50137 0.94739 0.01237 0.0
H760 H 0.67984 0.50004 0.94085 0.0
H761 H 0.65318 0.48737 0.12374 0.0
H762 H 0.64434 0.50373 0.90096 0.0
H763 H 0.61848 0.49315 0.08436 0.0
H764 H 0.55295 0.47901 1.00141 0.0
H765 H 0.58874 0.4743 0.03562 0.0
H766 H 0.61798 0.52718 0.88826 0.0
H767 H 0.58177 0.53078 0.85215 0.0
C768 C 0.66651 0.49813 0.97268 0.0
C769 C 0.66954 0.49331 0.03572 0.0
C770 C 0.64616 0.50062 0.94974 0.0
C771 C 0.62836 0.49862 0.98924 0.0
C772 C 0.63157 0.49432 0.05222 0.0
C773 C 0.65174 0.49146 0.07504 0.0
C774 C 0.56705 0.48958 0.97627 0.0
C775 C 0.56465 0.50539 0.92451 0.0
C776 C 0.58764 0.48704 0.99614 0.0
C777 C 0.60643 0.50063 0.96547 0.0
C778 C 0.60396 0.51625 0.91286 0.0
C779 C 0.58324 0.51846 0.8923 0.0
H780 H 1.00038 0.66119 0.01832 0.0
H781 H 0.97951 0.61448 0.18361 0.0
H782 H 0.01058 0.62918 0.97419 0.0
H783 H 0.98901 0.58196 0.13899 0.0
H784 H 0.02218 0.5313 0.05488 0.0
H785 H 0.01624 0.5643 0.10333 0.0
H786 H 0.99338 0.59525 0.93326 0.0
H787 H 1.00015 0.56256 0.88462 0.0
C788 C 0.99825 0.64404 0.04548 0.0
C789 C 0.9892 0.64031 0.10443 0.0
C790 C 0.00382 0.62557 0.01992 0.0
C791 C 1.00027 0.60274 0.05233 0.0
C792 C 0.99214 0.59928 0.11258 0.0
C793 C 0.98673 0.6179 0.13841 0.0
C794 C 0.01591 0.5452 0.02786 0.0
C795 C 0.01157 0.54431 0.96593 0.0
C796 C 0.01239 0.5641 0.05577 0.0
C797 C 0.00433 0.58261 0.02251 0.0
C798 C 0.99996 0.58161 0.96035 0.0
C799 C 0.00363 0.56275 0.93239 0.0
H800 H 0.12382 0.17412 0.61967 0.0
H801 H 0.06916 0.2025 0.66854 0.0
H802 H 0.1041 0.1347 0.65998 0.0
H803 H 0.05042 0.16347 0.71157 0.0
H804 H 0.03719 0.09094 0.83692 0.0
H805 H 0.0571 0.13042 0.79909 0.0
H806 H 0.06603 0.10859 0.62517 0.0
H807 H 0.04558 0.06883 0.66296 0.0
C808 C 0.10783 0.17214 0.63955 0.0
C809 C 0.09814 0.19169 0.64017 0.0
C810 C 0.09657 0.14955 0.6625 0.0
C811 C 0.07568 0.14617 0.68785 0.0
C812 C 0.06653 0.1657 0.6921 0.0
C813 C 0.07752 0.18816 0.66813 0.0
C814 C 0.04317 0.09463 0.79036 0.0
C815 C 0.03983 0.07696 0.75263 0.0
C816 C 0.05458 0.11717 0.76889 0.0
C817 C 0.06324 0.12235 0.70963 0.0
C818 C 0.05965 0.10482 0.67134 0.0
C819 C 0.04778 0.08228 0.69255 0.0
H820 H 0.33617 0.94216 0.81367 0.0
H821 H 0.34661 0.89038 0.70346 0.0
H822 H 0.37295 0.94618 0.84898 0.0
H823 H 0.38366 0.89371 0.74061 0.0
H824 H 0.45257 0.94356 0.72305 0.0
H825 H 0.41499 0.923 0.71602 0.0
H826 H 0.40228 0.93485 0.8989 0.0
H827 H 0.43944 0.95678 0.90348 0.0
C828 C 0.34605 0.93078 0.79921 0.0
C829 C 0.33861 0.91619 0.75523 0.0
C830 C 0.3673 0.93306 0.81952 0.0
C831 C 0.38158 0.92059 0.79681 0.0
C832 C 0.37333 0.90406 0.7578 0.0
C833 C 0.35207 0.90198 0.73692 0.0
C834 C 0.44179 0.94118 0.76206 0.0
C835 C 0.44858 0.95198 0.81328 0.0
C836 C 0.42025 0.92928 0.7584 0.0
C837 C 0.40535 0.92764 0.80651 0.0
C838 C 0.41304 0.93638 0.86025 0.0
C839 C 0.43434 0.94879 0.86314 0.0
H840 H 0.40954 0.32084 0.60578 0.0
H841 H 0.44583 0.26659 0.65934 0.0
H842 H 0.43517 0.34782 0.65991 0.0
H843 H 0.47129 0.29352 0.7128 0.0
H844 H 0.5259 0.36436 0.66102 0.0
H845 H 0.49671 0.33085 0.64821 0.0
H846 H 0.45492 0.35506 0.76667 0.0
H847 H 0.48433 0.38833 0.78067 0.0
C848 C 0.42246 0.31444 0.631 0.0
C849 C 0.42576 0.2917 0.62794 0.0
C850 C 0.43707 0.32982 0.66204 0.0
C851 C 0.45527 0.3227 0.6897 0.0
C852 C 0.4574 0.29935 0.69154 0.0
C853 C 0.44267 0.28391 0.66133 0.0
C854 C 0.51068 0.3621 0.68555 0.0
C855 C 0.5073 0.37875 0.72186 0.0
C856 C 0.49404 0.34296 0.67851 0.0
C857 C 0.47366 0.34047 0.70665 0.0
C858 C 0.47054 0.35663 0.74482 0.0
C859 C 0.48735 0.37551 0.75295 0.0
H860 H 0.18891 0.55567 0.75762 0.0
H861 H 0.17729 0.62187 0.66816 0.0
H862 H 0.15435 0.54822 0.81056 0.0
H863 H 0.1429 0.61522 0.72397 0.0
H864 H 0.07159 0.57355 0.73418 0.0
H865 H 0.10939 0.59171 0.71124 0.0
H866 H 0.12826 0.5528 0.87616 0.0
H867 H 0.09044 0.53349 0.89632 0.0
C868 C 0.17938 0.5692 0.75163 0.0
C869 C 0.18564 0.58921 0.70834 0.0
C870 C 0.15941 0.56496 0.78211 0.0
C871 C 0.14537 0.58085 0.77072 0.0
C872 C 0.15288 0.60219 0.73248 0.0
C873 C 0.17271 0.6062 0.70105 0.0
C874 C 0.08382 0.56926 0.76602 0.0
C875 C 0.0782 0.55184 0.81633 0.0
C876 C 0.10559 0.57982 0.75321 0.0
C877 C 0.12216 0.57352 0.79126 0.0
C878 C 0.11614 0.5576 0.84469 0.0
C879 C 0.09444 0.54662 0.85656 0.0
H880 H 0.90246 0.8379 0.06434 0.0
H881 H 0.95411 0.80952 0.99542 0.0
H882 H 0.92111 0.87735 0.02058 0.0
H883 H 0.97166 0.84852 0.94943 0.0
H884 H 0.98394 0.92143 0.83011 0.0
H885 H 0.96365 0.88221 0.8685 0.0
H886 H 0.96016 0.90285 0.0465 0.0
H887 H 0.98088 0.9424 0.00802 0.0
C888 C 0.9175 0.83987 0.0392 0.0
C889 C 0.92677 0.82032 0.03426 0.0
C890 C 0.92814 0.86248 0.01431 0.0
C891 C 0.94794 0.86586 0.9827 0.0
C892 C 0.9564 0.84631 0.97374 0.0
C893 C 0.94605 0.82384 0.99953 0.0
C894 C 0.97901 0.91756 0.87762 0.0
C895 C 0.98399 0.93484 0.91633 0.0
C896 C 0.96738 0.89516 0.8994 0.0
C897 C 0.96018 0.88971 0.96009 0.0
C898 C 0.96535 0.90685 0.99923 0.0
C899 C 0.9774 0.92926 0.97759 0.0
H900 H 0.68098 0.05974 0.87646 0.0
H901 H 0.66603 0.11717 0.95838 0.0
H902 H 0.64648 0.05479 0.82673 0.0
H903 H 0.6312 0.11263 0.90683 0.0
H904 H 0.584 0.0437 0.74393 0.0
H905 H 0.62058 0.06529 0.75942 0.0
H906 H 0.5987 0.08421 0.92594 0.0
H907 H 0.56187 0.06387 0.90771 0.0
C908 C 0.67071 0.07205 0.88171 0.0
C909 C 0.67615 0.08866 0.92201 0.0
C910 C 0.65075 0.06922 0.85299 0.0
C911 C 0.63576 0.08307 0.86339 0.0
C912 C 0.64211 0.10127 0.89897 0.0
C913 C 0.6621 0.10398 0.92823 0.0
C914 C 0.587 0.05305 0.78293 0.0
C915 C 0.57035 0.05187 0.82528 0.0
C916 C 0.60795 0.06533 0.79203 0.0
C917 C 0.61281 0.076 0.84479 0.0
C918 C 0.59565 0.07636 0.88457 0.0
C919 C 0.57453 0.06457 0.87451 0.0
H920 H 0.59644 0.73714 0.9918 0.0
H921 H 0.63817 0.69337 0.08129 0.0
H922 H 0.57559 0.70364 0.95015 0.0
H923 H 0.61655 0.65954 0.04094 0.0
H924 H 0.54593 0.61222 0.078 0.0
H925 H 0.57654 0.64456 0.08357 0.0
H926 H 0.57241 0.66716 0.89131 0.0
H927 H 0.54225 0.63392 0.8846 0.0
C928 C 0.60192 0.7207 1.00029 0.0
C929 C 0.6186 0.7178 0.04169 0.0
C930 C 0.58978 0.70141 0.97655 0.0
C931 C 0.59409 0.67896 0.994 0.0
C932 C 0.61267 0.67667 0.02798 0.0
C933 C 0.62502 0.69604 0.05103 0.0
C934 C 0.55174 0.62371 0.03652 0.0
C935 C 0.54156 0.62035 0.98085 0.0
C936 C 0.56937 0.64219 0.03972 0.0
C937 C 0.57707 0.65803 0.9876 0.0
C938 C 0.56686 0.65501 0.93197 0.0
C939 C 0.5494 0.63619 0.92848 0.0
H940 H 0.83697 0.4622 0.87551 0.0
H941 H 0.84538 0.39856 0.98717 0.0
H942 H 0.87369 0.4683 0.83596 0.0
H943 H 0.88214 0.40405 0.94581 0.0
H944 H 0.93977 0.47685 0.76458 0.0
H945 H 0.9014 0.45944 0.78098 0.0
H946 H 0.91498 0.42943 0.96282 0.0
H947 H 0.95348 0.44587 0.94489 0.0
C948 C 0.8464 0.44894 0.8896 0.0
C949 C 0.83839 0.43001 0.93474 0.0
C950 C 0.86757 0.45243 0.86693 0.0
C951 C 0.88117 0.43688 0.88838 0.0
C952 C 0.87238 0.41673 0.92943 0.0
C953 C 0.85125 0.41342 0.95269 0.0
C954 C 0.93457 0.46613 0.80764 0.0
C955 C 0.94957 0.46295 0.85381 0.0
C956 C 0.91253 0.45623 0.8172 0.0
C957 C 0.90489 0.44332 0.87363 0.0
C958 C 0.92016 0.43901 0.91848 0.0
C959 C 0.94229 0.44857 0.90845 0.0
H960 H 0.01398 0.21417 0.24236 0.0
H961 H 0.07667 0.23473 0.15265 0.0
H962 H 0.00602 0.17899 0.19157 0.0
H963 H 0.06909 0.19958 0.10295 0.0
H964 H 0.04675 0.13891 0.99819 0.0
H965 H 0.04866 0.177 0.03191 0.0
H966 H 0.01888 0.14246 0.20365 0.0
H967 H 0.01615 0.1044 0.16898 0.0
C968 C 0.02574 0.21157 0.21021 0.0
C969 C 0.0459 0.22726 0.20126 0.0
C970 C 0.02137 0.1912 0.18188 0.0
C971 C 0.03703 0.18616 0.14374 0.0
C972 C 0.05655 0.20282 0.13155 0.0
C973 C 0.06092 0.22304 0.16001 0.0
C974 C 0.04028 0.1394 0.04281 0.0
C975 C 0.03137 0.11843 0.08086 0.0
C976 C 0.04155 0.16131 0.06239 0.0
C977 C 0.03395 0.16294 0.12063 0.0
C978 C 0.02466 0.142 0.15823 0.0
C979 C 0.0234 0.12008 0.13867 0.0
H980 H 0.29886 0.97798 0.21322 0.0
H981 H 0.32964 0.03917 0.29197 0.0
H982 H 0.32382 0.99005 0.12588 0.0
H983 H 0.35509 0.05113 0.20559 0.0
H984 H 0.39574 0.06992 0.0305 0.0
H985 H 0.36393 0.06339 0.09758 0.0
H986 H 0.36177 0.98873 0.12056 0.0
H987 H 0.39343 0.99519 0.05444 0.0
C988 C 0.31042 0.99456 0.21042 0.0
C989 C 0.31216 0.00785 0.25868 0.0
C990 C 0.32498 1.00129 0.161 0.0
C991 C 0.3418 0.02131 0.15922 0.0
C992 C 0.34231 0.03569 0.20515 0.0
C993 C 0.32764 0.02897 0.25451 0.0
C994 C 0.38847 0.0521 0.04988 0.0
C995 C 0.39724 0.03309 0.03685 0.0
C996 C 0.37017 0.04837 0.0882 0.0
C997 C 0.36011 0.02552 0.11423 0.0
C998 C 0.36869 0.00653 0.10028 0.0
C999 C 0.38696 0.01025 0.06226 0.0
H1000 H 0.42709 0.32174 0.0657 0.0
H1001 H 0.4917 0.32986 0.13756 0.0
H1002 H 0.43862 0.35703 0.99238 0.0
H1003 H 0.50333 0.36552 0.06464 0.0
H1004 H 0.52041 0.4238 0.90341 0.0
H1005 H 0.51006 0.38446 0.96025 0.0
H1006 H 0.4474 0.39841 1.00035 0.0
H1007 H 0.45756 0.43745 0.94178 0.0
C1008 C 0.44392 0.33085 0.06492 0.0
C1009 C 0.45847 0.32305 0.10761 0.0
C1010 C 0.45048 0.35125 0.02331 0.0
C1011 C 0.4718 0.36452 0.02327 0.0
C1012 C 0.48679 0.35578 0.06311 0.0
C1013 C 0.48019 0.33525 0.10479 0.0
C1014 C 0.50427 0.41833 0.92326 0.0
C1015 C 0.48976 0.43378 0.91724 0.0
C1016 C 0.49842 0.39581 0.9566 0.0
C1017 C 0.47785 0.38808 0.98495 0.0
C1018 C 0.46326 0.4035 0.9784 0.0
C1019 C 0.46914 0.42603 0.94514 0.0
H1020 H 0.17944 0.48381 0.36025 0.0
H1021 H 0.22559 0.50706 0.2113 0.0
H1022 H 0.15137 0.46965 0.29017 0.0
H1023 H 0.19721 0.49313 0.14019 0.0
H1024 H 0.14013 0.45171 0.03705 0.0
H1025 H 0.17035 0.45844 0.10781 0.0
H1026 H 0.13262 0.49254 0.21412 0.0
H1027 H 0.10263 0.48551 0.14475 0.0
C1028 C 0.1836 0.48556 0.31241 0.0
C1029 C 0.20454 0.49677 0.2909 0.0
C1030 C 0.16753 0.47756 0.27227 0.0
C1031 C 0.17197 0.4807 0.20954 0.0
C1032 C 0.19333 0.49045 0.18833 0.0
C1033 C 0.20955 0.49842 0.22885 0.0
C1034 C 0.13832 0.46042 0.07596 0.0
C1035 C 0.11906 0.46816 0.08531 0.0
C1036 C 0.15563 0.46442 0.1161 0.0
C1037 C 0.15382 0.47588 0.1667 0.0
C1038 C 0.13445 0.48334 0.17611 0.0
C1039 C 0.11732 0.47954 0.13599 0.0
H1040 H 0.95902 0.77015 0.53851 0.0
H1041 H 0.01481 0.80128 0.42299 0.0
H1042 H 0.96468 0.80491 0.59013 0.0
H1043 H 0.02008 0.83663 0.47217 0.0
H1044 H 0.02949 0.89627 0.58587 0.0
H1045 H 0.02857 0.85787 0.55451 0.0
H1046 H 0.95847 0.84295 0.56615 0.0
H1047 H 0.95956 0.88094 0.59904 0.0
C1048 C 0.97293 0.7842 0.52557 0.0
C1049 C 0.98668 0.78288 0.47745 0.0
C1050 C 0.97596 0.80438 0.55424 0.0
C1051 C 0.99256 0.82401 0.53464 0.0
C1052 C 0.0072 0.82196 0.48912 0.0
C1053 C 0.00431 0.8016 0.46101 0.0
C1054 C 0.01389 0.88474 0.58173 0.0
C1055 C 0.99459 0.89174 0.59495 0.0
C1056 C 0.01334 0.86266 0.56367 0.0
C1057 C 0.99345 0.84702 0.55779 0.0
C1058 C 0.97418 0.85408 0.57144 0.0
C1059 C 0.97475 0.87603 0.59003 0.0
H1060 H 0.71753 0.03218 0.42836 0.0
H1061 H 0.70861 0.96128 0.38723 0.0
H1062 H 0.68916 0.01964 0.5064 0.0
H1063 H 0.68032 0.94839 0.46668 0.0
H1064 H 0.60992 0.94641 0.53375 0.0
H1065 H 0.64339 0.95384 0.47392 0.0
H1066 H 0.67588 0.99763 0.60213 0.0
H1067 H 0.64213 0.99107 0.66048 0.0
C1068 C 0.70994 0.01371 0.43757 0.0
C1069 C 0.71525 0.99771 0.40171 0.0
C1070 C 0.69366 0.00647 0.48243 0.0
C1071 C 0.68218 0.98301 0.49254 0.0
C1072 C 0.68857 0.96666 0.45948 0.0
C1073 C 0.705 0.97394 0.4146 0.0
C1074 C 0.62418 0.95767 0.54921 0.0
C1075 C 0.62315 0.96835 0.6017 0.0
C1076 C 0.64352 0.96164 0.51532 0.0
C1077 C 0.66243 0.9764 0.53296 0.0
C1078 C 0.66162 0.98637 0.58672 0.0
C1079 C 0.64226 0.98242 0.62058 0.0
H1080 H 0.59412 0.69079 0.59004 0.0
H1081 H 0.53044 0.68069 0.51158 0.0
H1082 H 0.58292 0.65468 0.6607 0.0
H1083 H 0.51905 0.64447 0.58326 0.0
H1084 H 0.50441 0.58629 0.75219 0.0
H1085 H 0.51336 0.62587 0.69501 0.0
H1086 H 0.5747 0.6127 0.64004 0.0
H1087 H 0.56574 0.57314 0.69654 0.0
C1088 C 0.57753 0.68112 0.58889 0.0
C1089 C 0.56324 0.6885 0.54471 0.0
C1090 C 0.57117 0.66032 0.62911 0.0
C1091 C 0.55025 0.64641 0.62677 0.0
C1092 C 0.53531 0.65477 0.58615 0.0
C1093 C 0.54177 0.67561 0.54537 0.0
C1094 C 0.51986 0.59185 0.7281 0.0
C1095 C 0.53436 0.57645 0.72896 0.0
C1096 C 0.52492 0.61452 0.69514 0.0
C1097 C 0.54477 0.62251 0.66313 0.0
C1098 C 0.55938 0.60722 0.66478 0.0
C1099 C 0.55419 0.58446 0.69692 0.0
H1100 H 0.80974 0.453 0.47158 0.0
H1101 H 0.82284 0.5219 0.36622 0.0
H1102 H 0.83439 0.46756 0.54971 0.0
H1103 H 0.84846 0.53636 0.44213 0.0
H1104 H 0.89198 0.55947 0.59212 0.0
H1105 H 0.85855 0.54644 0.53877 0.0
H1106 H 0.87206 0.47662 0.55425 0.0
H1107 H 0.90437 0.48919 0.61092 0.0
C1108 C 0.81761 0.47141 0.46596 0.0
C1109 C 0.8145 0.48636 0.41314 0.0
C1110 C 0.83195 0.47973 0.51021 0.0
C1111 C 0.8439 0.50304 0.50174 0.0
C1112 C 0.8395 0.51838 0.45071 0.0
C1113 C 0.82482 0.51013 0.40703 0.0
C1114 C 0.88752 0.54121 0.58529 0.0
C1115 C 0.90107 0.52547 0.60506 0.0
C1116 C 0.86845 0.53379 0.55408 0.0
C1117 C 0.86255 0.51048 0.54163 0.0
C1118 C 0.87576 0.49461 0.5635 0.0
C1119 C 0.89462 0.50196 0.59512 0.0
loop_
_geom_bond_atom_site_label_1
_geom_bond_atom_site_label_2
_geom_bond_distance
_geom_bond_site_symmetry_2
_ccdc_geom_bond_type
C0 C1 1.391 . S
C0 C4 1.391 . S
C0 H42 0.948 . S
C1 C0 1.391 . S
C1 C2 1.391 . S
C2 C1 1.391 . S
C2 H58 0.947 . S
C2 C59 1.392 . S
C3 C4 1.391 . S
C3 C7 1.397 . S
C3 C59 1.419 . S
C4 C0 1.391 . S
C4 C3 1.391 . S
C4 C5 1.399 . S
C5 C4 1.399 . S
C5 C8 1.396 . S
C5 C17 1.453 . S
C5 C18 1.684 . S
H6 C30 0.948 . S
C7 C3 1.397 . S
C7 C8 1.394 . S
C7 C26 1.723 . S
C8 C5 1.396 . S
C8 C7 1.394 . S
C8 C38 1.723 . S
H9 C32 0.947 . S
H10 C33 0.948 . S
H11 C39 0.982 . S
H12 C40 0.979 . S
H13 C40 0.980 . S
H14 C40 0.983 . S
H15 C39 0.979 . S
H16 C39 0.977 . S
C17 C5 1.453 . S
C17 H46 0.982 . S
C17 H47 0.979 . S
C17 H48 0.977 . S
C18 C5 1.684 . S
C18 H43 0.979 . S
C18 H44 0.980 . S
C18 H45 0.983 . S
C19 C20 1.391 . S
C19 C24 1.391 . S
C19 H49 0.948 . S
C20 C19 1.391 . S
C20 C21 1.391 . S
C21 C20 1.391 . S
C21 C22 1.392 . S
C21 H50 0.947 . S
C22 C21 1.392 . S
C22 C23 1.419 . S
C22 H51 0.948 . S
C23 C22 1.419 . S
C23 C24 1.391 . S
C23 C27 1.397 1_556 S
C24 C19 1.391 . S
C24 C23 1.391 . S
C24 C25 1.399 1_556 S
C25 C24 1.399 1_554 S
C25 C26 1.396 . S
C25 C28 1.453 . S
C25 C29 1.684 . S
C26 C7 1.723 . S
C26 C25 1.396 . S
C26 C27 1.394 . S
C27 C23 1.397 1_554 S
C27 C26 1.394 . S
C27 C37 1.723 . S
C28 C25 1.453 . S
C28 H52 0.982 . S
C28 H53 0.979 . S
C28 H54 0.977 . S
C29 C25 1.684 . S
C29 H55 0.979 . S
C29 H56 0.980 . S
C29 H57 0.983 . S
C30 H6 0.948 . S
C30 C31 1.391 1_556 S
C30 C35 1.391 . S
C31 C30 1.391 1_554 S
C31 C32 1.391 . S
C32 H9 0.947 . S
C32 C31 1.391 . S
C32 C33 1.392 . S
C33 H10 0.948 . S
C33 C32 1.392 . S
C33 C34 1.419 . S
C34 C33 1.419 . S
C34 C35 1.391 1_554 S
C34 C38 1.397 . S
C35 C30 1.391 . S
C35 C34 1.391 1_556 S
C35 C36 1.399 . S
C36 C35 1.399 . S
C36 C37 1.396 1_556 S
C36 C39 1.453 . S
C36 C40 1.684 . S
C37 C27 1.723 . S
C37 C36 1.396 1_554 S
C37 C38 1.394 . S
C38 C8 1.723 . S
C38 C34 1.397 . S
C38 C37 1.394 . S
C39 H11 0.982 . S
C39 H15 0.979 . S
C39 H16 0.977 . S
C39 C36 1.453 . S
C40 H12 0.979 . S
C40 H13 0.980 . S
C40 H14 0.983 . S
C40 C36 1.684 . S
H41 C59 0.948 . S
H42 C0 0.948 . S
H43 C18 0.979 . S
H44 C18 0.980 . S
H45 C18 0.983 . S
H46 C17 0.982 . S
H47 C17 0.979 . S
H48 C17 0.977 . S
H49 C19 0.948 . S
H50 C21 0.947 . S
H51 C22 0.948 . S
H52 C28 0.982 . S
H53 C28 0.979 . S
H54 C28 0.977 . S
H55 C29 0.979 . S
H56 C29 0.980 . S
H57 C29 0.983 . S
H58 C2 0.947 . S
C59 C2 1.392 . S
C59 C3 1.419 . S
C59 H41 0.948 . S
C60 C61 1.391 . S
C60 C64 1.391 . S
C60 H102 0.948 . S
C61 C60 1.391 . S
C61 C62 1.391 . S
C62 C61 1.391 . S
C62 H118 0.947 . S
C62 C119 1.392 . S
C63 C64 1.391 . S
C63 C67 1.397 1_556 S
C63 C119 1.419 . S
C64 C60 1.391 . S
C64 C63 1.391 . S
C64 C65 1.399 . S
C65 C64 1.399 . S
C65 C68 1.405 . S
C65 C77 1.453 . S
C65 C78 1.684 . S
H66 C90 0.948 . S
C67 C63 1.397 1_554 S
C67 C68 1.389 1_554 S
C67 C86 1.723 . S
C68 C65 1.405 . S
C68 C67 1.389 1_556 S
C68 C98 1.718 1_556 S
H69 C92 0.947 . S
H70 C93 0.948 . S
H71 C99 0.982 . S
H72 C100 0.979 . S
H73 C100 0.980 . S
H74 C100 0.983 . S
H75 C99 0.979 . S
H76 C99 0.977 . S
C77 C65 1.453 . S
C77 H106 0.982 . S
C77 H107 0.979 . S
C77 H108 0.977 . S
C78 C65 1.684 . S
C78 H103 0.979 . S
C78 H104 0.980 . S
C78 H105 0.983 . S
C79 C80 1.391 . S
C79 C84 1.391 . S
C79 H109 0.948 . S
C80 C79 1.391 . S
C80 C81 1.391 . S
C81 C80 1.391 . S
C81 C82 1.392 . S
C81 H110 0.947 . S
C82 C81 1.392 . S
C82 C83 1.419 . S
C82 H111 0.948 . S
C83 C82 1.419 . S
C83 C84 1.391 . S
C83 C87 1.397 . S
C84 C79 1.391 . S
C84 C83 1.391 . S
C84 C85 1.399 . S
C85 C84 1.399 . S
C85 C86 1.396 . S
C85 C88 1.453 . S
C85 C89 1.684 . S
C86 C67 1.723 . S
C86 C85 1.396 . S
C86 C87 1.394 . S
C87 C83 1.397 . S
C87 C86 1.394 . S
C87 C97 1.723 . S
C88 C85 1.453 . S
C88 H112 0.982 . S
C88 H113 0.979 . S
C88 H114 0.977 . S
C89 C85 1.684 . S
C89 H115 0.979 . S
C89 H116 0.980 . S
C89 H117 0.983 . S
C90 H66 0.948 . S
C90 C91 1.391 . S
C90 C95 1.391 . S
C91 C90 1.391 . S
C91 C92 1.391 1_554 S
C92 H69 0.947 . S
C92 C91 1.391 1_556 S
C92 C93 1.392 . S
C93 H70 0.948 . S
C93 C92 1.392 . S
C93 C94 1.419 1_556 S
C94 C93 1.419 1_554 S
C94 C95 1.391 . S
C94 C98 1.397 . S
C95 C90 1.391 . S
C95 C94 1.391 . S
C95 C96 1.399 . S
C96 C95 1.399 . S
C96 C97 1.396 . S
C96 C99 1.453 . S
C96 C100 1.684 . S
C97 C87 1.723 . S
C97 C96 1.396 . S
C97 C98 1.394 . S
C98 C68 1.718 1_554 S
C98 C94 1.397 . S
C98 C97 1.394 . S
C99 H71 0.982 . S
C99 H75 0.979 . S
C99 H76 0.977 . S
C99 C96 1.453 . S
C100 H72 0.979 . S
C100 H73 0.980 . S
C100 H74 0.983 . S
C100 C96 1.684 . S
H101 C119 0.948 1_554 S
H102 C60 0.948 . S
H103 C78 0.979 . S
H104 C78 0.980 . S
H105 C78 0.983 . S
H106 C77 0.982 . S
H107 C77 0.979 . S
H108 C77 0.977 . S
H109 C79 0.948 . S
H110 C81 0.947 . S
H111 C82 0.948 . S
H112 C88 0.982 . S
H113 C88 0.979 . S
H114 C88 0.977 . S
H115 C89 0.979 . S
H116 C89 0.980 . S
H117 C89 0.983 . S
H118 C62 0.947 . S
C119 C62 1.392 . S
C119 C63 1.419 . S
C119 H101 0.948 1_556 S
C120 C121 1.391 . S
C120 C124 1.391 1_556 S
C120 H162 0.948 1_556 S
C121 C120 1.391 . S
C121 C122 1.391 . S
C122 C121 1.391 . S
C122 H178 0.947 . S
C122 C179 1.392 . S
C123 C124 1.391 1_556 S
C123 C127 1.398 1_565 S
C123 C179 1.419 . S
C124 C120 1.391 1_554 S
C124 C123 1.391 1_554 S
C124 C125 1.399 . S
C125 C124 1.399 . S
C125 C128 1.396 1_565 S
C125 C137 1.453 1_565 S
C125 C138 1.684 . S
H126 C150 0.948 . S
C127 C123 1.398 1_545 S
C127 C128 1.394 1_556 S
C127 C146 1.722 . S
C128 C125 1.396 1_545 S
C128 C127 1.394 1_554 S
C128 C158 1.724 . S
H129 C152 0.947 . S
H130 C153 0.948 . S
H131 C159 0.982 . S
H132 C160 0.979 . S
H133 C160 0.980 . S
H134 C160 0.983 . S
H135 C159 0.979 . S
H136 C159 0.977 . S
C137 C125 1.453 1_545 S
C137 H166 0.982 . S
C137 H167 0.979 . S
C137 H168 0.977 . S
C138 C125 1.684 . S
C138 H163 0.979 . S
C138 H164 0.980 . S
C138 H165 0.983 . S
C139 C140 1.391 . S
C139 C144 1.391 . S
C139 H169 0.948 . S
C140 C139 1.391 . S
C140 C141 1.391 . S
C141 C140 1.391 . S
C141 C142 1.392 . S
C141 H170 0.947 . S
C142 C141 1.392 . S
C142 C143 1.419 . S
C142 H171 0.948 . S
C143 C142 1.419 . S
C143 C144 1.391 . S
C143 C147 1.397 1_565 S
C144 C139 1.391 . S
C144 C143 1.391 . S
C144 C145 1.399 . S
C145 C144 1.399 . S
C145 C146 1.396 1_565 S
C145 C148 1.453 1_565 S
C145 C149 1.684 . S
C146 C127 1.722 . S
C146 C145 1.396 1_545 S
C146 C147 1.395 . S
C147 C143 1.397 1_545 S
C147 C146 1.395 . S
C147 C157 1.722 1_556 S
C148 C145 1.453 1_545 S
C148 H172 0.982 . S
C148 H173 0.979 . S
C148 H174 0.977 . S
C149 C145 1.684 . S
C149 H175 0.979 . S
C149 H176 0.980 . S
C149 H177 0.983 . S
C150 H126 0.948 . S
C150 C151 1.391 . S
C150 C155 1.391 . S
C151 C150 1.391 . S
C151 C152 1.391 . S
C152 H129 0.947 . S
C152 C151 1.391 . S
C152 C153 1.392 . S
C153 H130 0.948 . S
C153 C152 1.392 . S
C153 C154 1.419 . S
C154 C153 1.419 . S
C154 C155 1.391 . S
C154 C158 1.396 1_565 S
C155 C150 1.391 . S
C155 C154 1.391 . S
C155 C156 1.399 . S
C156 C155 1.399 . S
C156 C157 1.396 1_565 S
C156 C159 1.453 1_565 S
C156 C160 1.684 . S
C157 C147 1.722 1_554 S
C157 C156 1.396 1_545 S
C157 C158 1.394 . S
C158 C128 1.724 . S
C158 C154 1.396 1_545 S
C158 C157 1.394 . S
C159 H131 0.982 . S
C159 H135 0.979 . S
C159 H136 0.977 . S
C159 C156 1.453 1_545 S
C160 H132 0.979 . S
C160 H133 0.980 . S
C160 H134 0.983 . S
C160 C156 1.684 . S
H161 C179 0.948 . S
H162 C120 0.948 1_554 S
H163 C138 0.979 . S
H164 C138 0.980 . S
H165 C138 0.983 . S
H166 C137 0.982 . S
H167 C137 0.979 . S
H168 C137 0.977 . S
H169 C139 0.948 . S
H170 C141 0.947 . S
H171 C142 0.948 . S
H172 C148 0.982 . S
H173 C148 0.979 . S
H174 C148 0.977 . S
H175 C149 0.979 . S
H176 C149 0.980 . S
H177 C149 0.983 . S
H178 C122 0.947 . S
C179 C122 1.392 . S
C179 C123 1.419 . S
C179 H161 0.948 . S
C180 C181 1.391 . S
C180 C184 1.391 . S
C180 H222 0.948 . S
C181 C180 1.391 . S
C181 C182 1.391 . S
C182 C181 1.391 . S
C182 H238 0.947 . S
C182 C239 1.392 . S
C183 C184 1.391 . S
C183 C187 1.397 . S
C183 C239 1.419 . S
C184 C180 1.391 . S
C184 C183 1.391 . S
C184 C185 1.399 . S
C185 C184 1.399 . S
C185 C188 1.396 . S
C185 C197 1.453 . S
C185 C198 1.684 . S
H186 C210 0.948 . S
C187 C183 1.397 . S
C187 C188 1.394 . S
C187 C206 1.723 . S
C188 C185 1.396 . S
C188 C187 1.394 . S
C188 C218 1.723 . S
H189 C212 0.947 . S
H190 C213 0.948 . S
H191 C219 0.982 . S
H192 C220 0.979 . S
H193 C220 0.980 . S
H194 C220 0.983 . S
H195 C219 0.979 . S
H196 C219 0.977 . S
C197 C185 1.453 . S
C197 H226 0.982 . S
C197 H227 0.979 . S
C197 H228 0.977 . S
C198 C185 1.684 . S
C198 H223 0.979 . S
C198 H224 0.980 . S
C198 H225 0.983 . S
C199 C200 1.391 . S
C199 C204 1.391 . S
C199 H229 0.948 . S
C200 C199 1.391 . S
C200 C201 1.391 . S
C201 C200 1.391 . S
C201 C202 1.392 . S
C201 H230 0.947 . S
C202 C201 1.392 . S
C202 C203 1.419 . S
C202 H231 0.948 . S
C203 C202 1.419 . S
C203 C204 1.391 . S
C203 C207 1.397 . S
C204 C199 1.391 . S
C204 C203 1.391 . S
C204 C205 1.399 . S
C205 C204 1.399 . S
C205 C206 1.396 . S
C205 C208 1.453 . S
C205 C209 1.684 . S
C206 C187 1.723 . S
C206 C205 1.396 . S
C206 C207 1.394 . S
C207 C203 1.397 . S
C207 C206 1.394 . S
C207 C217 1.723 . S
C208 C205 1.453 . S
C208 H232 0.982 . S
C208 H233 0.979 . S
C208 H234 0.977 . S
C209 C205 1.684 . S
C209 H235 0.979 . S
C209 H236 0.980 . S
C209 H237 0.983 . S
C210 H186 0.948 . S
C210 C211 1.391 . S
C210 C215 1.391 . S
C211 C210 1.391 . S
C211 C212 1.391 . S
C212 H189 0.947 . S
C212 C211 1.391 . S
C212 C213 1.392 . S
C213 H190 0.948 . S
C213 C212 1.392 . S
C213 C214 1.419 . S
C214 C213 1.419 . S
C214 C215 1.391 . S
C214 C218 1.397 . S
C215 C210 1.391 . S
C215 C214 1.391 . S
C215 C216 1.399 . S
C216 C215 1.399 . S
C216 C217 1.396 . S
C216 C219 1.453 . S
C216 C220 1.684 . S
C217 C207 1.723 . S
C217 C216 1.396 . S
C217 C218 1.394 . S
C218 C188 1.723 . S
C218 C214 1.397 . S
C218 C217 1.394 . S
C219 H191 0.982 . S
C219 H195 0.979 . S
C219 H196 0.977 . S
C219 C216 1.453 . S
C220 H192 0.979 . S
C220 H193 0.980 . S
C220 H194 0.983 . S
C220 C216 1.684 . S
H221 C239 0.948 . S
H222 C180 0.948 . S
H223 C198 0.979 . S
H224 C198 0.980 . S
H225 C198 0.983 . S
H226 C197 0.982 . S
H227 C197 0.979 . S
H228 C197 0.977 . S
H229 C199 0.948 . S
H230 C201 0.947 . S
H231 C202 0.948 . S
H232 C208 0.982 . S
H233 C208 0.979 . S
H234 C208 0.977 . S
H235 C209 0.979 . S
H236 C209 0.980 . S
H237 C209 0.983 . S
H238 C182 0.947 . S
C239 C182 1.392 . S
C239 C183 1.419 . S
C239 H221 0.948 . S
C240 C241 1.391 . S
C240 C244 1.391 . S
C240 H282 0.948 . S
C241 C240 1.391 . S
C241 C242 1.391 . S
C242 C241 1.391 . S
C242 H298 0.947 . S
C242 C299 1.392 . S
C243 C244 1.391 . S
C243 C247 1.397 . S
C243 C299 1.419 . S
C244 C240 1.391 . S
C244 C243 1.391 . S
C244 C245 1.399 . S
C245 C244 1.399 . S
C245 C248 1.396 . S
C245 C257 1.453 . S
C245 C258 1.684 . S
H246 C270 0.948 . S
C247 C243 1.397 . S
C247 C248 1.394 . S
C247 C266 1.723 . S
C248 C245 1.396 . S
C248 C247 1.394 . S
C248 C278 1.723 . S
H249 C272 0.947 . S
H250 C273 0.948 . S
H251 C279 0.982 . S
H252 C280 0.979 . S
H253 C280 0.980 . S
H254 C280 0.983 . S
H255 C279 0.979 . S
H256 C279 0.977 . S
C257 C245 1.453 . S
C257 H286 0.982 . S
C257 H287 0.979 . S
C257 H288 0.977 . S
C258 C245 1.684 . S
C258 H283 0.979 . S
C258 H284 0.980 . S
C258 H285 0.983 . S
C259 C260 1.391 . S
C259 C264 1.391 . S
C259 H289 0.948 . S
C260 C259 1.391 . S
C260 C261 1.391 . S
C261 C260 1.391 . S
C261 C262 1.392 . S
C261 H290 0.947 . S
C262 C261 1.392 . S
C262 C263 1.419 . S
C262 H291 0.948 . S
C263 C262 1.419 . S
C263 C264 1.391 . S
C263 C267 1.397 . S
C264 C259 1.391 . S
C264 C263 1.391 . S
C264 C265 1.399 . S
C265 C264 1.399 . S
C265 C266 1.396 . S
C265 C268 1.453 . S
C265 C269 1.684 . S
C266 C247 1.723 . S
C266 C265 1.396 . S
C266 C267 1.394 . S
C267 C263 1.397 . S
C267 C266 1.394 . S
C267 C277 1.723 . S
C268 C265 1.453 . S
C268 H292 0.982 . S
C268 H293 0.979 . S
C268 H294 0.977 . S
C269 C265 1.684 . S
C269 H295 0.979 . S
C269 H296 0.980 . S
C269 H297 0.983 . S
C270 H246 0.948 . S
C270 C271 1.391 . S
C270 C275 1.391 . S
C271 C270 1.391 . S
C271 C272 1.391 . S
C272 H249 0.947 . S
C272 C271 1.391 . S
C272 C273 1.392 . S
C273 H250 0.948 . S
C273 C272 1.392 . S
C273 C274 1.419 . S
C274 C273 1.419 . S
C274 C275 1.391 . S
C274 C278 1.397 . S
C275 C270 1.391 . S
C275 C274 1.391 . S
C275 C276 1.399 . S
C276 C275 1.399 . S
C276 C277 1.396 . S
C276 C279 1.453 . S
C276 C280 1.684 . S
C277 C267 1.723 . S
C277 C276 1.396 . S
C277 C278 1.394 . S
C278 C248 1.723 . S
C278 C274 1.397 . S
C278 C277 1.394 . S
C279 H251 0.982 . S
C279 H255 0.979 . S
C279 H256 0.977 . S
C279 C276 1.453 . S
C280 H252 0.979 . S
C280 H253 0.980 . S
C280 H254 0.983 . S
C280 C276 1.684 . S
H281 C299 0.948 . S
H282 C240 0.948 . S
H283 C258 0.979 . S
H284 C258 0.980 . S
H285 C258 0.983 . S
H286 C257 0.982 . S
H287 C257 0.979 . S
H288 C257 0.977 . S
H289 C259 0.948 . S
H290 C261 0.947 . S
H291 C262 0.948 . S
H292 C268 0.982 . S
H293 C268 0.979 . S
H294 C268 0.977 . S
H295 C269 0.979 . S
H296 C269 0.980 . S
H297 C269 0.983 . S
H298 C242 0.947 . S
C299 C242 1.392 . S
C299 C243 1.419 . S
C299 H281 0.948 . S
C300 C301 1.391 . S
C300 C304 1.391 . S
C300 H342 0.948 . S
C301 C300 1.391 . S
C301 C302 1.391 . S
C302 C301 1.391 . S
C302 H358 0.947 . S
C302 C359 1.392 . S
C303 C304 1.391 . S
C303 C307 1.397 . S
C303 C359 1.419 . S
C304 C300 1.391 . S
C304 C303 1.391 . S
C304 C305 1.399 . S
C305 C304 1.399 . S
C305 C308 1.396 . S
C305 C317 1.453 . S
C305 C318 1.684 . S
H306 C330 0.948 . S
C307 C303 1.397 . S
C307 C308 1.394 . S
C307 C326 1.723 . S
C308 C305 1.396 . S
C308 C307 1.394 . S
C308 C338 1.723 . S
H309 C332 0.947 . S
H310 C333 0.948 . S
H311 C339 0.982 . S
H312 C340 0.979 . S
H313 C340 0.980 . S
H314 C340 0.983 . S
H315 C339 0.979 . S
H316 C339 0.977 . S
C317 C305 1.453 . S
C317 H346 0.982 . S
C317 H347 0.979 . S
C317 H348 0.977 . S
C318 C305 1.684 . S
C318 H343 0.979 . S
C318 H344 0.980 . S
C318 H345 0.983 . S
C319 C320 1.391 . S
C319 C324 1.391 . S
C319 H349 0.948 . S
C320 C319 1.391 . S
C320 C321 1.391 . S
C321 C320 1.391 . S
C321 C322 1.392 . S
C321 H350 0.947 . S
C322 C321 1.392 . S
C322 C323 1.419 . S
C322 H351 0.948 . S
C323 C322 1.419 . S
C323 C324 1.391 . S
C323 C327 1.397 . S
C324 C319 1.391 . S
C324 C323 1.391 . S
C324 C325 1.399 . S
C325 C324 1.399 . S
C325 C326 1.396 . S
C325 C328 1.453 . S
C325 C329 1.684 . S
C326 C307 1.723 . S
C326 C325 1.396 . S
C326 C327 1.394 . S
C327 C323 1.397 . S
C327 C326 1.394 . S
C327 C337 1.723 . S
C328 C325 1.453 . S
C328 H352 0.982 . S
C328 H353 0.979 . S
C328 H354 0.977 . S
C329 C325 1.684 . S
C329 H355 0.979 . S
C329 H356 0.980 . S
C329 H357 0.983 . S
C330 H306 0.948 . S
C330 C331 1.391 . S
C330 C335 1.391 . S
C331 C330 1.391 . S
C331 C332 1.391 . S
C332 H309 0.947 . S
C332 C331 1.391 . S
C332 C333 1.392 . S
C333 H310 0.948 . S
C333 C332 1.392 . S
C333 C334 1.419 . S
C334 C333 1.419 . S
C334 C335 1.391 . S
C334 C338 1.397 . S
C335 C330 1.391 . S
C335 C334 1.391 . S
C335 C336 1.399 . S
C336 C335 1.399 . S
C336 C337 1.396 . S
C336 C339 1.453 . S
C336 C340 1.684 . S
C337 C327 1.723 . S
C337 C336 1.396 . S
C337 C338 1.394 . S
C338 C308 1.723 . S
C338 C334 1.397 . S
C338 C337 1.394 . S
C339 H311 0.982 . S
C339 H315 0.979 . S
C339 H316 0.977 . S
C339 C336 1.453 . S
C340 H312 0.979 . S
C340 H313 0.980 . S
C340 H314 0.983 . S
C340 C336 1.684 . S
H341 C359 0.948 . S
H342 C300 0.948 . S
H343 C318 0.979 . S
H344 C318 0.980 . S
H345 C318 0.983 . S
H346 C317 0.982 . S
H347 C317 0.979 . S
H348 C317 0.977 . S
H349 C319 0.948 . S
H350 C321 0.947 . S
H351 C322 0.948 . S
H352 C328 0.982 . S
H353 C328 0.979 . S
H354 C328 0.977 . S
H355 C329 0.979 . S
H356 C329 0.980 . S
H357 C329 0.983 . S
H358 C302 0.947 . S
C359 C302 1.392 . S
C359 C303 1.419 . S
C359 H341 0.948 . S
C360 C361 1.391 . S
C360 C364 1.391 . S
C360 H402 0.948 . S
C361 C360 1.391 . S
C361 C362 1.391 . S
C362 C361 1.391 . S
C362 H418 0.947 . S
C362 C419 1.392 . S
C363 C364 1.391 . S
C363 C367 1.396 1_545 S
C363 C419 1.419 . S
C364 C360 1.391 . S
C364 C363 1.391 . S
C364 C365 1.399 . S
C365 C364 1.399 . S
C365 C368 1.396 1_545 S
C365 C377 1.453 1_545 S
C365 C378 1.684 . S
H366 C390 0.948 . S
C367 C363 1.396 1_565 S
C367 C368 1.395 . S
C367 C386 1.723 . S
C368 C365 1.396 1_565 S
C368 C367 1.395 . S
C368 C398 1.722 . S
H369 C392 0.947 . S
H370 C393 0.948 . S
H371 C399 0.982 . S
H372 C400 0.979 . S
H373 C400 0.980 . S
H374 C400 0.983 . S
H375 C399 0.979 . S
H376 C399 0.977 . S
C377 C365 1.453 1_565 S
C377 H406 0.982 . S
C377 H407 0.979 . S
C377 H408 0.977 . S
C378 C365 1.684 . S
C378 H403 0.979 . S
C378 H404 0.980 . S
C378 H405 0.983 . S
C379 C380 1.391 . S
C379 C384 1.391 . S
C379 H409 0.948 . S
C380 C379 1.391 . S
C380 C381 1.391 . S
C381 C380 1.391 . S
C381 C382 1.392 . S
C381 H410 0.947 . S
C382 C381 1.392 . S
C382 C383 1.419 . S
C382 H411 0.948 . S
C383 C382 1.419 . S
C383 C384 1.391 . S
C383 C387 1.397 1_545 S
C384 C379 1.391 . S
C384 C383 1.391 . S
C384 C385 1.399 . S
C385 C384 1.399 . S
C385 C386 1.396 1_545 S
C385 C388 1.453 1_545 S
C385 C389 1.684 . S
C386 C367 1.723 . S
C386 C385 1.396 1_565 S
C386 C387 1.393 . S
C387 C383 1.397 1_565 S
C387 C386 1.393 . S
C387 C397 1.723 . S
C388 C385 1.453 1_565 S
C388 H412 0.982 . S
C388 H413 0.979 . S
C388 H414 0.977 . S
C389 C385 1.684 . S
C389 H415 0.979 . S
C389 H416 0.980 . S
C389 H417 0.983 . S
C390 H366 0.948 . S
C390 C391 1.391 . S
C390 C395 1.391 . S
C391 C390 1.391 . S
C391 C392 1.391 . S
C392 H369 0.947 . S
C392 C391 1.391 . S
C392 C393 1.392 . S
C393 H370 0.948 . S
C393 C392 1.392 . S
C393 C394 1.419 . S
C394 C393 1.419 . S
C394 C395 1.391 . S
C394 C398 1.398 1_545 S
C395 C390 1.391 . S
C395 C394 1.391 . S
C395 C396 1.399 . S
C396 C395 1.399 . S
C396 C397 1.396 1_545 S
C396 C399 1.453 1_545 S
C396 C400 1.684 . S
C397 C387 1.723 . S
C397 C396 1.396 1_565 S
C397 C398 1.394 . S
C398 C368 1.722 . S
C398 C394 1.398 1_565 S
C398 C397 1.394 . S
C399 H371 0.982 . S
C399 H375 0.979 . S
C399 H376 0.977 . S
C399 C396 1.453 1_565 S
C400 H372 0.979 . S
C400 H373 0.980 . S
C400 H374 0.983 . S
C400 C396 1.684 . S
H401 C419 0.948 . S
H402 C360 0.948 . S
H403 C378 0.979 . S
H404 C378 0.980 . S
H405 C378 0.983 . S
H406 C377 0.982 . S
H407 C377 0.979 . S
H408 C377 0.977 . S
H409 C379 0.948 . S
H410 C381 0.947 . S
H411 C382 0.948 . S
H412 C388 0.982 . S
H413 C388 0.979 . S
H414 C388 0.977 . S
H415 C389 0.979 . S
H416 C389 0.980 . S
H417 C389 0.983 . S
H418 C362 0.947 . S
C419 C362 1.392 . S
C419 C363 1.419 . S
C419 H401 0.948 . S
C420 C421 1.391 . S
C420 C424 1.391 . S
C420 H462 0.948 . S
C421 C420 1.391 . S
C421 C422 1.391 . S
C422 C421 1.391 . S
C422 H478 0.947 . S
C422 C479 1.392 . S
C423 C424 1.391 . S
C423 C427 1.397 . S
C423 C479 1.419 . S
C424 C420 1.391 . S
C424 C423 1.391 . S
C424 C425 1.399 . S
C425 C424 1.399 . S
C425 C428 1.396 . S
C425 C437 1.453 . S
C425 C438 1.684 . S
H426 C450 0.948 . S
C427 C423 1.397 . S
C427 C428 1.394 . S
C427 C446 1.723 . S
C428 C425 1.396 . S
C428 C427 1.394 . S
C428 C458 1.723 . S
H429 C452 0.947 . S
H430 C453 0.948 . S
H431 C459 0.982 . S
H432 C460 0.979 . S
H433 C460 0.980 . S
H434 C460 0.983 . S
H435 C459 0.979 . S
H436 C459 0.977 . S
C437 C425 1.453 . S
C437 H466 0.982 . S
C437 H467 0.979 . S
C437 H468 0.977 . S
C438 C425 1.684 . S
C438 H463 0.979 . S
C438 H464 0.980 . S
C438 H465 0.983 . S
C439 C440 1.391 . S
C439 C444 1.391 . S
C439 H469 0.948 . S
C440 C439 1.391 . S
C440 C441 1.391 . S
C441 C440 1.391 . S
C441 C442 1.392 . S
C441 H470 0.947 . S
C442 C441 1.392 . S
C442 C443 1.419 . S
C442 H471 0.948 . S
C443 C442 1.419 . S
C443 C444 1.391 . S
C443 C447 1.397 . S
C444 C439 1.391 . S
C444 C443 1.391 . S
C444 C445 1.399 . S
C445 C444 1.399 . S
C445 C446 1.396 . S
C445 C448 1.453 . S
C445 C449 1.684 . S
C446 C427 1.723 . S
C446 C445 1.396 . S
C446 C447 1.394 . S
C447 C443 1.397 . S
C447 C446 1.394 . S
C447 C457 1.723 . S
C448 C445 1.453 . S
C448 H472 0.982 . S
C448 H473 0.979 . S
C448 H474 0.977 . S
C449 C445 1.684 . S
C449 H475 0.979 . S
C449 H476 0.980 . S
C449 H477 0.983 . S
C450 H426 0.948 . S
C450 C451 1.391 . S
C450 C455 1.391 . S
C451 C450 1.391 . S
C451 C452 1.391 . S
C452 H429 0.947 . S
C452 C451 1.391 . S
C452 C453 1.392 . S
C453 H430 0.948 . S
C453 C452 1.392 . S
C453 C454 1.419 . S
C454 C453 1.419 . S
C454 C455 1.391 . S
C454 C458 1.397 . S
C455 C450 1.391 . S
C455 C454 1.391 . S
C455 C456 1.399 . S
C456 C455 1.399 . S
C456 C457 1.396 . S
C456 C459 1.453 . S
C456 C460 1.684 . S
C457 C447 1.723 . S
C457 C456 1.396 . S
C457 C458 1.394 . S
C458 C428 1.723 . S
C458 C454 1.397 . S
C458 C457 1.394 . S
C459 H431 0.982 . S
C459 H435 0.979 . S
C459 H436 0.977 . S
C459 C456 1.453 . S
C460 H432 0.979 . S
C460 H433 0.980 . S
C460 H434 0.983 . S
C460 C456 1.684 . S
H461 C479 0.948 . S
H462 C420 0.948 . S
H463 C438 0.979 . S
H464 C438 0.980 . S
H465 C438 0.983 . S
H466 C437 0.982 . S
H467 C437 0.979 . S
H468 C437 0.977 . S
H469 C439 0.948 . S
H470 C441 0.947 . S
H471 C442 0.948 . S
H472 C448 0.982 . S
H473 C448 0.979 . S
H474 C448 0.977 . S
H475 C449 0.979 . S
H476 C449 0.980 . S
H477 C449 0.983 . S
H478 C422 0.947 . S
C479 C422 1.392 . S
C479 C423 1.419 . S
C479 H461 0.948 . S
Nd480 C482 2.836 1_455 S
Nd480 O500 2.500 1_455 S
Nd480 O501 2.492 . S
Nd480 O502 2.487 . S
Nd480 O503 2.682 1_565 S
Nd480 O504 2.410 . S
Nd480 O509 2.430 1_455 S
Nd480 O511 2.424 1_565 S
Nd481 C491 2.836 . S
Nd481 O503 2.414 . S
Nd481 O505 2.424 1_545 S
Nd481 O506 2.500 . S
Nd481 O507 2.492 . S
Nd481 O508 2.487 1_455 S
Nd481 O509 2.678 1_445 S
Nd481 O510 2.410 . S
C482 Nd480 2.836 1_655 S
C482 C483 1.498 . S
C482 O500 1.258 . S
C482 O501 1.239 1_655 S
C483 C482 1.498 . S
C483 C484 1.366 . S
C483 C488 1.407 . S
C484 C483 1.366 . S
C484 C485 1.392 . S
C484 H512 0.930 . S
C485 C484 1.392 . S
C485 C486 1.398 . S
C485 H513 0.929 . S
C486 C485 1.398 . S
C486 C487 1.352 . S
C487 C486 1.352 . S
C487 C488 1.384 . S
C487 H514 0.930 . S
C488 C483 1.407 . S
C488 C487 1.384 . S
C488 H515 0.929 1_655 S
C489 O502 1.241 . S
C489 O503 1.273 1_565 S
C490 O504 1.251 1_655 S
C490 O505 1.268 1_655 S
C491 Nd481 2.836 . S
C491 C492 1.498 1_556 S
C491 O506 1.258 . S
C491 O507 1.239 . S
C492 C491 1.498 1_554 S
C492 C493 1.366 1_554 S
C492 C497 1.407 . S
C493 C492 1.366 1_556 S
C493 C494 1.392 1_556 S
C493 H516 0.930 . S
C494 C493 1.392 1_554 S
C494 C495 1.398 . S
C494 H517 0.929 . S
C495 C494 1.398 . S
C495 C496 1.352 . S
C496 C495 1.352 . S
C496 C497 1.384 . S
C496 H518 0.930 . S
C497 C492 1.407 . S
C497 C496 1.384 . S
C497 H519 0.929 . S
C498 O508 1.241 . S
C498 O509 1.250 1_545 S
C499 O510 1.251 . S
C499 O511 1.268 . S
O500 Nd480 2.500 1_655 S
O500 C482 1.258 . S
O501 Nd480 2.492 . S
O501 C482 1.239 1_455 S
O502 Nd480 2.487 . S
O502 C489 1.241 . S
O503 Nd480 2.682 1_545 S
O503 Nd481 2.414 . S
O503 C489 1.273 1_545 S
O504 Nd480 2.410 . S
O504 C490 1.251 1_455 S
O505 Nd481 2.424 1_565 S
O505 C490 1.268 1_455 S
O506 Nd481 2.500 . S
O506 C491 1.258 . S
O507 Nd481 2.492 . S
O507 C491 1.239 . S
O508 Nd481 2.487 1_655 S
O508 C498 1.241 . S
O509 Nd480 2.430 1_655 S
O509 Nd481 2.678 1_665 S
O509 C498 1.250 1_565 S
O510 Nd481 2.410 . S
O510 C499 1.251 . S
O511 Nd480 2.424 1_545 S
O511 C499 1.268 . S
H512 C484 0.930 . S
H513 C485 0.929 . S
H514 C487 0.930 . S
H515 C488 0.929 1_455 S
H516 C493 0.930 . S
H517 C494 0.929 . S
H518 C496 0.930 . S
H519 C497 0.929 . S
Nd520 C522 2.836 . S
Nd520 O540 2.500 . S
Nd520 O541 2.492 . S
Nd520 O542 2.487 1_565 S
Nd520 O543 2.682 1_565 S
Nd520 O544 2.410 1_565 S
Nd520 O549 2.414 . S
Nd520 O551 2.424 . S
Nd521 C531 2.836 . S
Nd521 O543 2.414 . S
Nd521 O545 2.424 . S
Nd521 O546 2.500 . S
Nd521 O547 2.492 . S
Nd521 O548 2.487 1_545 S
Nd521 O549 2.682 1_545 S
Nd521 O550 2.410 1_545 S
C522 Nd520 2.836 . S
C522 C523 1.498 . S
C522 O540 1.258 . S
C522 O541 1.239 . S
C523 C522 1.498 . S
C523 C524 1.366 . S
C523 C528 1.407 . S
C524 C523 1.366 . S
C524 C525 1.392 . S
C524 H552 0.930 . S
C525 C524 1.392 . S
C525 C526 1.398 . S
C525 H553 0.929 . S
C526 C525 1.398 . S
C526 C527 1.352 . S
C527 C526 1.352 . S
C527 C528 1.384 . S
C527 H554 0.930 . S
C528 C523 1.407 . S
C528 C527 1.384 . S
C528 H555 0.929 1_565 S
C529 O542 1.241 . S
C529 O543 1.273 . S
C530 O544 1.251 . S
C530 O545 1.268 . S
C531 Nd521 2.836 . S
C531 C532 1.498 1_556 S
C531 O546 1.258 . S
C531 O547 1.239 . S
C532 C531 1.498 1_554 S
C532 C533 1.366 1_554 S
C532 C537 1.407 . S
C533 C532 1.366 1_556 S
C533 C534 1.392 1_556 S
C533 H556 0.930 . S
C534 C533 1.392 1_554 S
C534 C535 1.398 . S
C534 H557 0.929 . S
C535 C534 1.398 . S
C535 C536 1.352 . S
C536 C535 1.352 . S
C536 C537 1.384 . S
C536 H558 0.930 . S
C537 C532 1.407 . S
C537 C536 1.384 . S
C537 H559 0.929 1_545 S
C538 O548 1.241 . S
C538 O549 1.273 . S
C539 O550 1.251 . S
C539 O551 1.268 . S
O540 Nd520 2.500 . S
O540 C522 1.258 . S
O541 Nd520 2.492 . S
O541 C522 1.239 . S
O542 Nd520 2.487 1_545 S
O542 C529 1.241 . S
O543 Nd520 2.682 1_545 S
O543 Nd521 2.414 . S
O543 C529 1.273 . S
O544 Nd520 2.410 1_545 S
O544 C530 1.251 . S
O545 Nd521 2.424 . S
O545 C530 1.268 . S
O546 Nd521 2.500 . S
O546 C531 1.258 . S
O547 Nd521 2.492 . S
O547 C531 1.239 . S
O548 Nd521 2.487 1_565 S
O548 C538 1.241 . S
O549 Nd520 2.414 . S
O549 Nd521 2.682 1_565 S
O549 C538 1.273 . S
O550 Nd521 2.410 1_565 S
O550 C539 1.251 . S
O551 Nd520 2.424 . S
O551 C539 1.268 . S
H552 C524 0.930 . S
H553 C525 0.929 . S
H554 C527 0.930 . S
H555 C528 0.929 1_545 S
H556 C533 0.930 . S
H557 C534 0.929 . S
H558 C536 0.930 . S
H559 C537 0.929 1_565 S
Nd560 C562 2.836 . S
Nd560 O580 2.500 . S
Nd560 O581 2.492 . S
Nd560 O582 2.487 . S
Nd560 O583 2.682 . S
Nd560 O584 2.410 . S
Nd560 O589 2.414 . S
Nd560 O591 2.424 . S
Nd561 C571 2.836 . S
Nd561 O583 2.414 . S
Nd561 O585 2.424 . S
Nd561 O586 2.500 . S
Nd561 O587 2.492 . S
Nd561 O588 2.487 . S
Nd561 O589 2.682 . S
Nd561 O590 2.410 . S
C562 Nd560 2.836 . S
C562 C563 1.498 . S
C562 O580 1.258 . S
C562 O581 1.239 . S
C563 C562 1.498 . S
C563 C564 1.366 . S
C563 C568 1.407 . S
C564 C563 1.366 . S
C564 C565 1.392 . S
C564 H592 0.930 . S
C565 C564 1.392 . S
C565 C566 1.398 . S
C565 H593 0.929 . S
C566 C565 1.398 . S
C566 C567 1.352 1_556 S
C567 C566 1.352 1_554 S
C567 C568 1.384 1_554 S
C567 H594 0.930 . S
C568 C563 1.407 . S
C568 C567 1.384 1_556 S
C568 H595 0.929 1_556 S
C569 O582 1.241 . S
C569 O583 1.273 . S
C570 O584 1.251 . S
C570 O585 1.268 . S
C571 Nd561 2.836 . S
C571 C572 1.498 . S
C571 O586 1.258 . S
C571 O587 1.239 . S
C572 C571 1.498 . S
C572 C573 1.366 . S
C572 C577 1.407 . S
C573 C572 1.366 . S
C573 C574 1.392 . S
C573 H596 0.930 . S
C574 C573 1.392 . S
C574 C575 1.398 . S
C574 H597 0.929 . S
C575 C574 1.398 . S
C575 C576 1.352 . S
C576 C575 1.352 . S
C576 C577 1.384 . S
C576 H598 0.930 . S
C577 C572 1.407 . S
C577 C576 1.384 . S
C577 H599 0.929 . S
C578 O588 1.241 . S
C578 O589 1.273 . S
C579 O590 1.251 . S
C579 O591 1.268 . S
O580 Nd560 2.500 . S
O580 C562 1.258 . S
O581 Nd560 2.492 . S
O581 C562 1.239 . S
O582 Nd560 2.487 . S
O582 C569 1.241 . S
O583 Nd560 2.682 . S
O583 Nd561 2.414 . S
O583 C569 1.273 . S
O584 Nd560 2.410 . S
O584 C570 1.251 . S
O585 Nd561 2.424 . S
O585 C570 1.268 . S
O586 Nd561 2.500 . S
O586 C571 1.258 . S
O587 Nd561 2.492 . S
O587 C571 1.239 . S
O588 Nd561 2.487 . S
O588 C578 1.241 . S
O589 Nd560 2.414 . S
O589 Nd561 2.682 . S
O589 C578 1.273 . S
O590 Nd561 2.410 . S
O590 C579 1.251 . S
O591 Nd560 2.424 . S
O591 C579 1.268 . S
H592 C564 0.930 . S
H593 C565 0.929 . S
H594 C567 0.930 . S
H595 C568 0.929 1_554 S
H596 C573 0.930 . S
H597 C574 0.929 . S
H598 C576 0.930 . S
H599 C577 0.929 . S
Nd600 C602 2.836 1_455 S
Nd600 O620 2.500 1_455 S
Nd600 O621 2.492 1_455 S
Nd600 O622 2.487 . S
Nd600 O623 2.682 . S
Nd600 O624 2.410 1_455 S
Nd600 O629 2.415 1_455 S
Nd600 O631 2.424 . S
Nd601 C611 2.836 . S
Nd601 O623 2.414 . S
Nd601 O625 2.424 1_455 S
Nd601 O626 2.500 . S
Nd601 O627 2.492 . S
Nd601 O628 2.487 . S
Nd601 O629 2.684 1_455 S
Nd601 O630 2.410 . S
C602 Nd600 2.836 1_655 S
C602 C603 1.498 . S
C602 O620 1.258 . S
C602 O621 1.239 . S
C603 C602 1.498 . S
C603 C604 1.366 . S
C603 C608 1.407 . S
C604 C603 1.366 . S
C604 C605 1.392 . S
C604 H632 0.930 . S
C605 C604 1.392 . S
C605 C606 1.398 . S
C605 H633 0.929 . S
C606 C605 1.398 . S
C606 C607 1.352 . S
C607 C606 1.352 . S
C607 C608 1.384 . S
C607 H634 0.930 . S
C608 C603 1.407 . S
C608 C607 1.384 . S
C608 H635 0.929 . S
C609 O622 1.241 . S
C609 O623 1.273 . S
C610 O624 1.251 . S
C610 O625 1.268 . S
C611 Nd601 2.836 . S
C611 C612 1.498 1_556 S
C611 O626 1.258 . S
C611 O627 1.239 . S
C612 C611 1.498 1_554 S
C612 C613 1.366 . S
C612 C617 1.407 . S
C613 C612 1.366 . S
C613 C614 1.392 . S
C613 H636 0.930 1_554 S
C614 C613 1.392 . S
C614 C615 1.398 . S
C614 H637 0.929 . S
C615 C614 1.398 . S
C615 C616 1.352 . S
C616 C615 1.352 . S
C616 C617 1.384 . S
C616 H638 0.930 . S
C617 C612 1.407 . S
C617 C616 1.384 . S
C617 H639 0.929 . S
C618 O628 1.241 1_655 S
C618 O629 1.272 . S
C619 O630 1.251 . S
C619 O631 1.268 . S
O620 Nd600 2.500 1_655 S
O620 C602 1.258 . S
O621 Nd600 2.492 1_655 S
O621 C602 1.239 . S
O622 Nd600 2.487 . S
O622 C609 1.241 . S
O623 Nd600 2.682 . S
O623 Nd601 2.414 . S
O623 C609 1.273 . S
O624 Nd600 2.410 1_655 S
O624 C610 1.251 . S
O625 Nd601 2.424 1_655 S
O625 C610 1.268 . S
O626 Nd601 2.500 . S
O626 C611 1.258 . S
O627 Nd601 2.492 . S
O627 C611 1.239 . S
O628 Nd601 2.487 . S
O628 C618 1.241 1_455 S
O629 Nd600 2.415 1_655 S
O629 Nd601 2.684 1_655 S
O629 C618 1.272 . S
O630 Nd601 2.410 . S
O630 C619 1.251 . S
O631 Nd600 2.424 . S
O631 C619 1.268 . S
H632 C604 0.930 . S
H633 C605 0.929 . S
H634 C607 0.930 . S
H635 C608 0.929 . S
H636 C613 0.930 1_556 S
H637 C614 0.929 . S
H638 C616 0.930 . S
H639 C617 0.929 . S
H640 C648 0.950 . S
H641 C653 0.962 . S
H642 C650 0.950 . S
H643 C652 0.950 . S
H644 C654 0.950 . S
H645 C656 0.950 . S
H646 C658 0.950 . S
H647 C659 0.950 . S
C648 H640 0.950 . S
C648 C649 1.397 . S
C648 C650 1.391 . S
C649 C648 1.397 . S
C649 C653 1.394 1_545 S
C650 H642 0.950 . S
C650 C648 1.391 . S
C650 C651 1.400 1_545 S
C651 C650 1.400 1_565 S
C651 C652 1.410 . S
C651 C657 1.482 . S
C652 H643 0.950 . S
C652 C651 1.410 . S
C652 C653 1.381 . S
C653 H641 0.962 . S
C653 C649 1.394 1_565 S
C653 C652 1.381 . S
C654 H644 0.950 . S
C654 C655 1.386 . S
C654 C656 1.391 . S
C655 C654 1.386 . S
C655 C659 1.393 . S
C656 H645 0.950 . S
C656 C654 1.391 . S
C656 C657 1.400 . S
C657 C651 1.482 . S
C657 C656 1.400 . S
C657 C658 1.398 . S
C658 H646 0.950 . S
C658 C657 1.398 . S
C658 C659 1.391 . S
C659 H647 0.950 . S
C659 C655 1.393 . S
C659 C658 1.391 . S
H660 C668 0.950 . S
H661 C673 0.950 . S
H662 C670 0.950 . S
H663 C672 0.950 . S
H664 C674 0.950 . S
H665 C676 0.950 . S
H666 C678 0.950 . S
H667 C679 0.950 . S
C668 H660 0.950 . S
C668 C669 1.386 . S
C668 C670 1.391 . S
C669 C668 1.386 . S
C669 C673 1.393 . S
C670 H662 0.950 . S
C670 C668 1.391 . S
C670 C671 1.400 . S
C671 C670 1.400 . S
C671 C672 1.398 . S
C671 C677 1.491 . S
C672 H663 0.950 . S
C672 C671 1.398 . S
C672 C673 1.391 . S
C673 H661 0.950 . S
C673 C669 1.393 . S
C673 C672 1.391 . S
C674 H664 0.950 . S
C674 C675 1.386 . S
C674 C676 1.391 . S
C675 C674 1.386 . S
C675 C679 1.393 . S
C676 H665 0.950 . S
C676 C674 1.391 . S
C676 C677 1.400 . S
C677 C671 1.491 . S
C677 C676 1.400 . S
C677 C678 1.398 . S
C678 H666 0.950 . S
C678 C677 1.398 . S
C678 C679 1.391 . S
C679 H667 0.950 . S
C679 C675 1.393 . S
C679 C678 1.391 . S
H680 C688 0.950 . S
H681 C693 0.950 . S
H682 C690 0.950 . S
H683 C692 0.950 . S
H684 C694 0.950 . S
H685 C696 0.950 . S
H686 C698 0.950 . S
H687 C699 0.950 . S
C688 H680 0.950 . S
C688 C689 1.386 . S
C688 C690 1.391 . S
C689 C688 1.386 . S
C689 C693 1.393 . S
C690 H682 0.950 . S
C690 C688 1.391 . S
C690 C691 1.400 . S
C691 C690 1.400 . S
C691 C692 1.398 . S
C691 C697 1.491 . S
C692 H683 0.950 . S
C692 C691 1.398 . S
C692 C693 1.391 . S
C693 H681 0.950 . S
C693 C689 1.393 . S
C693 C692 1.391 . S
C694 H684 0.950 . S
C694 C695 1.386 . S
C694 C696 1.391 . S
C695 C694 1.386 . S
C695 C699 1.393 . S
C696 H685 0.950 . S
C696 C694 1.391 . S
C696 C697 1.400 . S
C697 C691 1.491 . S
C697 C696 1.400 . S
C697 C698 1.398 . S
C698 H686 0.950 . S
C698 C697 1.398 . S
C698 C699 1.391 . S
C699 H687 0.950 . S
C699 C695 1.393 . S
C699 C698 1.391 . S
H700 C708 0.950 . S
H701 C713 0.950 . S
H702 C710 0.950 . S
H703 C712 0.950 . S
H704 C714 0.950 . S
H705 C716 0.950 . S
H706 C718 0.950 . S
H707 C719 0.950 . S
C708 H700 0.950 . S
C708 C709 1.386 . S
C708 C710 1.391 . S
C709 C708 1.386 . S
C709 C713 1.393 . S
C710 H702 0.950 . S
C710 C708 1.391 . S
C710 C711 1.400 . S
C711 C710 1.400 . S
C711 C712 1.398 . S
C711 C717 1.491 . S
C712 H703 0.950 . S
C712 C711 1.398 . S
C712 C713 1.391 . S
C713 H701 0.950 . S
C713 C709 1.393 . S
C713 C712 1.391 . S
C714 H704 0.950 . S
C714 C715 1.386 . S
C714 C716 1.391 . S
C715 C714 1.386 . S
C715 C719 1.393 . S
C716 H705 0.950 . S
C716 C714 1.391 . S
C716 C717 1.400 . S
C717 C711 1.491 . S
C717 C716 1.400 . S
C717 C718 1.398 . S
C718 H706 0.950 . S
C718 C717 1.398 . S
C718 C719 1.391 . S
C719 H707 0.950 . S
C719 C715 1.393 . S
C719 C718 1.391 . S
H720 C728 0.950 . S
H721 C733 0.950 1_554 S
H722 C730 0.950 . S
H723 C732 0.950 . S
H724 C734 0.950 . S
H725 C736 0.950 . S
H726 C738 0.950 1_565 S
H727 C739 0.950 . S
C728 H720 0.950 . S
C728 C729 1.397 . S
C728 C730 1.381 . S
C729 C728 1.397 . S
C729 C733 1.393 . S
C730 H722 0.950 . S
C730 C728 1.381 . S
C730 C731 1.400 . S
C731 C730 1.400 . S
C731 C732 1.398 . S
C731 C737 1.491 . S
C732 H723 0.950 . S
C732 C731 1.398 . S
C732 C733 1.391 . S
C733 H721 0.950 1_556 S
C733 C729 1.393 . S
C733 C732 1.391 . S
C734 H724 0.950 . S
C734 C735 1.386 . S
C734 C736 1.391 . S
C735 C734 1.386 . S
C735 C739 1.393 . S
C736 H725 0.950 . S
C736 C734 1.391 . S
C736 C737 1.400 . S
C737 C731 1.491 . S
C737 C736 1.400 . S
C737 C738 1.411 . S
C738 H726 0.950 1_545 S
C738 C737 1.411 . S
C738 C739 1.381 . S
C739 H727 0.950 . S
C739 C735 1.393 . S
C739 C738 1.381 . S
H740 C748 0.950 . S
H741 C753 0.950 . S
H742 C750 0.950 . S
H743 C752 0.950 . S
H744 C754 0.950 . S
H745 C756 0.950 1_556 S
H746 C758 0.950 . S
H747 C759 0.950 . S
C748 H740 0.950 . S
C748 C749 1.386 . S
C748 C750 1.391 . S
C749 C748 1.386 . S
C749 C753 1.393 . S
C750 H742 0.950 . S
C750 C748 1.391 . S
C750 C751 1.400 . S
C751 C750 1.400 . S
C751 C752 1.398 . S
C751 C757 1.491 . S
C752 H743 0.950 . S
C752 C751 1.398 . S
C752 C753 1.391 . S
C753 H741 0.950 . S
C753 C749 1.393 . S
C753 C752 1.391 . S
C754 H744 0.950 . S
C754 C755 1.386 . S
C754 C756 1.391 1_556 S
C755 C754 1.386 . S
C755 C759 1.393 1_556 S
C756 H745 0.950 1_554 S
C756 C754 1.391 1_554 S
C756 C757 1.400 . S
C757 C751 1.491 . S
C757 C756 1.400 . S
C757 C758 1.398 . S
C758 H746 0.950 . S
C758 C757 1.398 . S
C758 C759 1.391 . S
C759 H747 0.950 . S
C759 C755 1.393 1_554 S
C759 C758 1.391 . S
H760 C768 0.950 . S
H761 C773 0.950 1_554 S
H762 C770 0.950 . S
H763 C772 0.950 . S
H764 C774 0.950 . S
H765 C776 0.950 . S
H766 C778 0.950 . S
H767 C779 0.950 . S
C768 H760 0.950 . S
C768 C769 1.386 . S
C768 C770 1.391 . S
C769 C768 1.386 . S
C769 C773 1.393 . S
C770 H762 0.950 . S
C770 C768 1.391 . S
C770 C771 1.400 . S
C771 C770 1.400 . S
C771 C772 1.398 . S
C771 C777 1.491 . S
C772 H763 0.950 . S
C772 C771 1.398 . S
C772 C773 1.391 . S
C773 H761 0.950 1_556 S
C773 C769 1.393 . S
C773 C772 1.391 . S
C774 H764 0.950 . S
C774 C775 1.386 . S
C774 C776 1.391 . S
C775 C774 1.386 . S
C775 C779 1.393 . S
C776 H765 0.950 . S
C776 C774 1.391 . S
C776 C777 1.400 . S
C777 C771 1.491 . S
C777 C776 1.400 . S
C777 C778 1.398 . S
C778 H766 0.950 . S
C778 C777 1.398 . S
C778 C779 1.391 . S
C779 H767 0.950 . S
C779 C775 1.393 . S
C779 C778 1.391 . S
H780 C788 0.950 . S
H781 C793 0.950 . S
H782 C790 0.950 . S
H783 C792 0.950 . S
H784 C794 0.950 . S
H785 C796 0.950 . S
H786 C798 0.950 . S
H787 C799 0.950 1_455 S
C788 H780 0.950 . S
C788 C789 1.386 1_554 S
C788 C790 1.391 1_554 S
C789 C788 1.386 1_556 S
C789 C793 1.393 . S
C790 H782 0.950 . S
C790 C788 1.391 1_556 S
C790 C791 1.400 . S
C791 C790 1.400 . S
C791 C792 1.398 . S
C791 C797 1.491 . S
C792 H783 0.950 . S
C792 C791 1.398 . S
C792 C793 1.391 . S
C793 H781 0.950 . S
C793 C789 1.393 . S
C793 C792 1.391 . S
C794 H784 0.950 . S
C794 C795 1.386 . S
C794 C796 1.391 . S
C795 C794 1.386 . S
C795 C799 1.393 . S
C796 H785 0.950 . S
C796 C794 1.391 . S
C796 C797 1.400 . S
C797 C791 1.491 . S
C797 C796 1.400 . S
C797 C798 1.398 . S
C798 H786 0.950 . S
C798 C797 1.398 . S
C798 C799 1.391 . S
C799 H787 0.950 1_655 S
C799 C795 1.393 . S
C799 C798 1.391 . S
H800 C808 0.950 . S
H801 C813 0.950 . S
H802 C810 0.950 . S
H803 C812 0.950 . S
H804 C814 0.950 . S
H805 C816 0.950 . S
H806 C818 0.950 . S
H807 C819 0.950 . S
C808 H800 0.950 . S
C808 C809 1.386 . S
C808 C810 1.391 . S
C809 C808 1.386 . S
C809 C813 1.393 . S
C810 H802 0.950 . S
C810 C808 1.391 . S
C810 C811 1.400 . S
C811 C810 1.400 . S
C811 C812 1.398 . S
C811 C817 1.491 . S
C812 H803 0.950 . S
C812 C811 1.398 . S
C812 C813 1.391 . S
C813 H801 0.950 . S
C813 C809 1.393 . S
C813 C812 1.391 . S
C814 H804 0.950 . S
C814 C815 1.386 . S
C814 C816 1.391 . S
C815 C814 1.386 . S
C815 C819 1.393 . S
C816 H805 0.950 . S
C816 C814 1.391 . S
C816 C817 1.400 . S
C817 C811 1.491 . S
C817 C816 1.400 . S
C817 C818 1.398 . S
C818 H806 0.950 . S
C818 C817 1.398 . S
C818 C819 1.391 . S
C819 H807 0.950 . S
C819 C815 1.393 . S
C819 C818 1.391 . S
H820 C828 0.950 . S
H821 C833 0.950 . S
H822 C830 0.950 . S
H823 C832 0.950 . S
H824 C834 0.950 . S
H825 C836 0.950 . S
H826 C838 0.981 . S
H827 C839 0.950 1_545 S
C828 H820 0.950 . S
C828 C829 1.386 1_545 S
C828 C830 1.391 . S
C829 C828 1.386 1_565 S
C829 C833 1.393 . S
C830 H822 0.950 . S
C830 C828 1.391 . S
C830 C831 1.400 1_545 S
C831 C830 1.400 1_565 S
C831 C832 1.398 . S
C831 C837 1.491 . S
C832 H823 0.950 . S
C832 C831 1.398 . S
C832 C833 1.391 . S
C833 H821 0.950 . S
C833 C829 1.393 . S
C833 C832 1.391 . S
C834 H824 0.950 . S
C834 C835 1.386 . S
C834 C836 1.391 . S
C835 C834 1.386 . S
C835 C839 1.393 . S
C836 H825 0.950 . S
C836 C834 1.391 . S
C836 C837 1.400 . S
C837 C831 1.491 . S
C837 C836 1.400 . S
C837 C838 1.384 1_565 S
C838 H826 0.981 . S
C838 C837 1.384 1_545 S
C838 C839 1.377 1_545 S
C839 H827 0.950 1_565 S
C839 C835 1.393 . S
C839 C838 1.377 1_565 S
H840 C848 0.950 . S
H841 C853 0.950 . S
H842 C850 0.950 . S
H843 C852 0.950 . S
H844 C854 0.950 . S
H845 C856 0.950 . S
H846 C858 0.950 . S
H847 C859 0.950 . S
C848 H840 0.950 . S
C848 C849 1.386 . S
C848 C850 1.391 . S
C849 C848 1.386 . S
C849 C853 1.393 . S
C850 H842 0.950 . S
C850 C848 1.391 . S
C850 C851 1.400 . S
C851 C850 1.400 . S
C851 C852 1.398 . S
C851 C857 1.491 . S
C852 H843 0.950 . S
C852 C851 1.398 . S
C852 C853 1.391 . S
C853 H841 0.950 . S
C853 C849 1.393 . S
C853 C852 1.391 . S
C854 H844 0.950 . S
C854 C855 1.386 . S
C854 C856 1.391 . S
C855 C854 1.386 . S
C855 C859 1.393 . S
C856 H845 0.950 . S
C856 C854 1.391 . S
C856 C857 1.400 . S
C857 C851 1.491 . S
C857 C856 1.400 . S
C857 C858 1.398 . S
C858 H846 0.950 . S
C858 C857 1.398 . S
C858 C859 1.391 . S
C859 H847 0.950 . S
C859 C855 1.393 . S
C859 C858 1.391 . S
H860 C868 0.950 . S
H861 C873 0.950 . S
H862 C870 0.950 . S
H863 C872 0.950 . S
H864 C874 0.950 . S
H865 C876 0.950 . S
H866 C878 0.950 . S
H867 C879 0.950 . S
C868 H860 0.950 . S
C868 C869 1.386 . S
C868 C870 1.391 . S
C869 C868 1.386 . S
C869 C873 1.393 . S
C870 H862 0.950 . S
C870 C868 1.391 . S
C870 C871 1.400 . S
C871 C870 1.400 . S
C871 C872 1.398 . S
C871 C877 1.491 . S
C872 H863 0.950 . S
C872 C871 1.398 . S
C872 C873 1.391 . S
C873 H861 0.950 . S
C873 C869 1.393 . S
C873 C872 1.391 . S
C874 H864 0.950 . S
C874 C875 1.386 . S
C874 C876 1.391 . S
C875 C874 1.386 . S
C875 C879 1.393 . S
C876 H865 0.950 . S
C876 C874 1.391 . S
C876 C877 1.400 . S
C877 C871 1.491 . S
C877 C876 1.400 . S
C877 C878 1.398 . S
C878 H866 0.950 . S
C878 C877 1.398 . S
C878 C879 1.391 . S
C879 H867 0.950 . S
C879 C875 1.393 . S
C879 C878 1.391 . S
H880 C888 0.950 . S
H881 C893 0.950 . S
H882 C890 0.950 . S
H883 C892 0.950 . S
H884 C894 0.950 . S
H885 C896 0.950 . S
H886 C898 0.950 . S
H887 C899 0.950 . S
C888 H880 0.950 . S
C888 C889 1.386 . S
C888 C890 1.391 . S
C889 C888 1.386 . S
C889 C893 1.393 . S
C890 H882 0.950 . S
C890 C888 1.391 . S
C890 C891 1.400 . S
C891 C890 1.400 . S
C891 C892 1.398 . S
C891 C897 1.491 . S
C892 H883 0.950 . S
C892 C891 1.398 . S
C892 C893 1.391 . S
C893 H881 0.950 . S
C893 C889 1.393 . S
C893 C892 1.391 . S
C894 H884 0.950 . S
C894 C895 1.386 . S
C894 C896 1.391 . S
C895 C894 1.386 . S
C895 C899 1.393 . S
C896 H885 0.950 . S
C896 C894 1.391 . S
C896 C897 1.400 . S
C897 C891 1.491 . S
C897 C896 1.400 . S
C897 C898 1.398 . S
C898 H886 0.950 . S
C898 C897 1.398 . S
C898 C899 1.391 . S
C899 H887 0.950 . S
C899 C895 1.393 . S
C899 C898 1.391 . S
H900 C908 0.950 . S
H901 C913 0.950 . S
H902 C910 0.950 . S
H903 C912 0.950 . S
H904 C914 0.950 . S
H905 C916 0.950 . S
H906 C918 0.950 . S
H907 C919 0.950 1_565 S
C908 H900 0.950 . S
C908 C909 1.386 1_565 S
C908 C910 1.391 . S
C909 C908 1.386 1_545 S
C909 C913 1.393 . S
C910 H902 0.950 . S
C910 C908 1.391 . S
C910 C911 1.400 1_565 S
C911 C910 1.400 1_545 S
C911 C912 1.398 . S
C911 C917 1.491 . S
C912 H903 0.950 . S
C912 C911 1.398 . S
C912 C913 1.391 . S
C913 H901 0.950 . S
C913 C909 1.393 . S
C913 C912 1.391 . S
C914 H904 0.950 . S
C914 C915 1.386 . S
C914 C916 1.391 . S
C915 C914 1.386 . S
C915 C919 1.393 . S
C916 H905 0.950 . S
C916 C914 1.391 . S
C916 C917 1.400 . S
C917 C911 1.491 . S
C917 C916 1.400 . S
C917 C918 1.398 1_545 S
C918 H906 0.950 . S
C918 C917 1.398 1_565 S
C918 C919 1.391 1_565 S
C919 H907 0.950 1_545 S
C919 C915 1.393 . S
C919 C918 1.391 1_545 S
H920 C928 0.950 . S
H921 C933 0.950 . S
H922 C930 0.950 . S
H923 C932 0.950 . S
H924 C934 0.950 . S
H925 C936 0.950 . S
H926 C938 0.950 1_556 S
H927 C939 0.950 . S
C928 H920 0.950 . S
C928 C929 1.386 . S
C928 C930 1.391 . S
C929 C928 1.386 . S
C929 C933 1.393 . S
C930 H922 0.950 . S
C930 C928 1.391 . S
C930 C931 1.400 . S
C931 C930 1.400 . S
C931 C932 1.398 . S
C931 C937 1.491 . S
C932 H923 0.950 . S
C932 C931 1.398 . S
C932 C933 1.391 . S
C933 H921 0.950 . S
C933 C929 1.393 . S
C933 C932 1.391 . S
C934 H924 0.950 . S
C934 C935 1.386 . S
C934 C936 1.391 . S
C935 C934 1.386 . S
C935 C939 1.393 1_554 S
C936 H925 0.950 . S
C936 C934 1.391 . S
C936 C937 1.400 . S
C937 C931 1.491 . S
C937 C936 1.400 . S
C937 C938 1.398 . S
C938 H926 0.950 1_554 S
C938 C937 1.398 . S
C938 C939 1.391 1_554 S
C939 H927 0.950 . S
C939 C935 1.393 1_556 S
C939 C938 1.391 1_556 S
H940 C948 0.950 . S
H941 C953 0.950 . S
H942 C950 0.950 . S
H943 C952 0.950 . S
H944 C954 0.950 . S
H945 C956 0.950 . S
H946 C958 0.950 . S
H947 C959 0.950 . S
C948 H940 0.950 . S
C948 C949 1.386 . S
C948 C950 1.391 . S
C949 C948 1.386 . S
C949 C953 1.393 . S
C950 H942 0.950 . S
C950 C948 1.391 . S
C950 C951 1.400 . S
C951 C950 1.400 . S
C951 C952 1.398 . S
C951 C957 1.491 . S
C952 H943 0.950 . S
C952 C951 1.398 . S
C952 C953 1.391 . S
C953 H941 0.950 . S
C953 C949 1.393 . S
C953 C952 1.391 . S
C954 H944 0.950 . S
C954 C955 1.386 . S
C954 C956 1.391 . S
C955 C954 1.386 . S
C955 C959 1.393 . S
C956 H945 0.950 . S
C956 C954 1.391 . S
C956 C957 1.400 . S
C957 C951 1.491 . S
C957 C956 1.400 . S
C957 C958 1.398 . S
C958 H946 0.950 . S
C958 C957 1.398 . S
C958 C959 1.391 . S
C959 H947 0.950 . S
C959 C955 1.393 . S
C959 C958 1.391 . S
H960 C968 0.950 . S
H961 C973 0.950 . S
H962 C970 0.950 . S
H963 C972 0.950 . S
H964 C974 0.950 . S
H965 C976 0.950 . S
H966 C978 0.950 . S
H967 C979 0.950 . S
C968 H960 0.950 . S
C968 C969 1.386 . S
C968 C970 1.391 . S
C969 C968 1.386 . S
C969 C973 1.393 . S
C970 H962 0.950 . S
C970 C968 1.391 . S
C970 C971 1.400 . S
C971 C970 1.400 . S
C971 C972 1.398 . S
C971 C977 1.491 . S
C972 H963 0.950 . S
C972 C971 1.398 . S
C972 C973 1.391 . S
C973 H961 0.950 . S
C973 C969 1.393 . S
C973 C972 1.391 . S
C974 H964 0.950 . S
C974 C975 1.386 . S
C974 C976 1.391 . S
C975 C974 1.386 . S
C975 C979 1.393 . S
C976 H965 0.950 . S
C976 C974 1.391 . S
C976 C977 1.400 . S
C977 C971 1.491 . S
C977 C976 1.400 . S
C977 C978 1.398 . S
C978 H966 0.950 . S
C978 C977 1.398 . S
C978 C979 1.391 . S
C979 H967 0.950 . S
C979 C975 1.393 . S
C979 C978 1.391 . S
H980 C988 0.948 1_565 S
H981 C993 0.950 . S
H982 C990 0.950 . S
H983 C992 0.950 . S
H984 C994 0.950 . S
H985 C996 0.950 . S
H986 C998 0.950 . S
H987 C999 0.950 . S
C988 H980 0.948 1_545 S
C988 C989 1.388 . S
C988 C990 1.391 . S
C989 C988 1.388 . S
C989 C993 1.393 . S
C990 H982 0.950 . S
C990 C988 1.391 . S
C990 C991 1.400 . S
C991 C990 1.400 . S
C991 C992 1.398 . S
C991 C997 1.491 . S
C992 H983 0.950 . S
C992 C991 1.398 . S
C992 C993 1.391 . S
C993 H981 0.950 . S
C993 C989 1.393 . S
C993 C992 1.391 . S
C994 H984 0.950 . S
C994 C995 1.386 . S
C994 C996 1.391 . S
C995 C994 1.386 . S
C995 C999 1.393 . S
C996 H985 0.950 . S
C996 C994 1.391 . S
C996 C997 1.400 . S
C997 C991 1.491 . S
C997 C996 1.400 . S
C997 C998 1.398 . S
C998 H986 0.950 . S
C998 C997 1.398 . S
C998 C999 1.391 . S
C999 H987 0.950 . S
C999 C995 1.393 . S
C999 C998 1.391 . S
H1000 C1008 0.950 . S
H1001 C1013 0.950 . S
H1002 C1010 0.950 . S
H1003 C1012 0.950 . S
H1004 C1014 0.950 . S
H1005 C1016 0.950 . S
H1006 C1018 0.950 . S
H1007 C1019 0.950 . S
C1008 H1000 0.950 . S
C1008 C1009 1.386 . S
C1008 C1010 1.391 . S
C1009 C1008 1.386 . S
C1009 C1013 1.393 1_554 S
C1010 H1002 0.950 . S
C1010 C1008 1.391 . S
C1010 C1011 1.400 1_554 S
C1011 C1010 1.400 1_556 S
C1011 C1012 1.398 . S
C1011 C1017 1.491 . S
C1012 H1003 0.950 . S
C1012 C1011 1.398 . S
C1012 C1013 1.391 . S
C1013 H1001 0.950 . S
C1013 C1009 1.393 1_556 S
C1013 C1012 1.391 . S
C1014 H1004 0.950 . S
C1014 C1015 1.386 . S
C1014 C1016 1.391 . S
C1015 C1014 1.386 . S
C1015 C1019 1.393 . S
C1016 H1005 0.950 . S
C1016 C1014 1.391 . S
C1016 C1017 1.400 . S
C1017 C1011 1.491 . S
C1017 C1016 1.400 . S
C1017 C1018 1.398 . S
C1018 H1006 0.950 . S
C1018 C1017 1.398 . S
C1018 C1019 1.391 . S
C1019 H1007 0.950 . S
C1019 C1015 1.393 . S
C1019 C1018 1.391 . S
H1020 C1028 0.950 . S
H1021 C1033 0.950 . S
H1022 C1030 0.950 . S
H1023 C1032 0.950 . S
H1024 C1034 0.950 . S
H1025 C1036 0.950 . S
H1026 C1038 0.950 . S
H1027 C1039 0.950 . S
C1028 H1020 0.950 . S
C1028 C1029 1.386 . S
C1028 C1030 1.391 . S
C1029 C1028 1.386 . S
C1029 C1033 1.393 . S
C1030 H1022 0.950 . S
C1030 C1028 1.391 . S
C1030 C1031 1.400 . S
C1031 C1030 1.400 . S
C1031 C1032 1.398 . S
C1031 C1037 1.491 . S
C1032 H1023 0.950 . S
C1032 C1031 1.398 . S
C1032 C1033 1.391 . S
C1033 H1021 0.950 . S
C1033 C1029 1.393 . S
C1033 C1032 1.391 . S
C1034 H1024 0.950 . S
C1034 C1035 1.386 . S
C1034 C1036 1.391 . S
C1035 C1034 1.386 . S
C1035 C1039 1.393 . S
C1036 H1025 0.950 . S
C1036 C1034 1.391 . S
C1036 C1037 1.400 . S
C1037 C1031 1.491 . S
C1037 C1036 1.400 . S
C1037 C1038 1.398 . S
C1038 H1026 0.950 . S
C1038 C1037 1.398 . S
C1038 C1039 1.391 . S
C1039 H1027 0.950 . S
C1039 C1035 1.393 . S
C1039 C1038 1.391 . S
H1040 C1048 0.950 . S
H1041 C1053 0.950 . S
H1042 C1050 0.950 . S
H1043 C1052 0.950 . S
H1044 C1054 0.950 . S
H1045 C1056 0.950 . S
H1046 C1058 0.950 . S
H1047 C1059 0.950 . S
C1048 H1040 0.950 . S
C1048 C1049 1.386 . S
C1048 C1050 1.391 . S
C1049 C1048 1.386 . S
C1049 C1053 1.393 . S
C1050 H1042 0.950 . S
C1050 C1048 1.391 . S
C1050 C1051 1.400 . S
C1051 C1050 1.400 . S
C1051 C1052 1.398 . S
C1051 C1057 1.491 . S
C1052 H1043 0.950 . S
C1052 C1051 1.398 . S
C1052 C1053 1.391 . S
C1053 H1041 0.950 . S
C1053 C1049 1.393 . S
C1053 C1052 1.391 . S
C1054 H1044 0.950 . S
C1054 C1055 1.386 . S
C1054 C1056 1.391 . S
C1055 C1054 1.386 . S
C1055 C1059 1.393 . S
C1056 H1045 0.950 . S
C1056 C1054 1.391 . S
C1056 C1057 1.400 . S
C1057 C1051 1.491 . S
C1057 C1056 1.400 . S
C1057 C1058 1.398 . S
C1058 H1046 0.950 . S
C1058 C1057 1.398 . S
C1058 C1059 1.391 . S
C1059 H1047 0.950 . S
C1059 C1055 1.393 . S
C1059 C1058 1.391 . S
H1060 C1068 0.950 . S
H1061 C1073 0.950 . S
H1062 C1070 0.950 . S
H1063 C1072 0.950 . S
H1064 C1074 0.950 . S
H1065 C1076 0.950 . S
H1066 C1078 0.950 1_545 S
H1067 C1079 0.950 . S
C1068 H1060 0.950 . S
C1068 C1069 1.386 1_545 S
C1068 C1070 1.391 . S
C1069 C1068 1.386 1_565 S
C1069 C1073 1.393 . S
C1070 H1062 0.950 . S
C1070 C1068 1.391 . S
C1070 C1071 1.400 1_545 S
C1071 C1070 1.400 1_565 S
C1071 C1072 1.398 . S
C1071 C1077 1.491 . S
C1072 H1063 0.950 . S
C1072 C1071 1.398 . S
C1072 C1073 1.391 . S
C1073 H1061 0.950 . S
C1073 C1069 1.393 . S
C1073 C1072 1.391 . S
C1074 H1064 0.950 . S
C1074 C1075 1.386 . S
C1074 C1076 1.391 . S
C1075 C1074 1.386 . S
C1075 C1079 1.393 . S
C1076 H1065 0.950 . S
C1076 C1074 1.391 . S
C1076 C1077 1.400 . S
C1077 C1071 1.491 . S
C1077 C1076 1.400 . S
C1077 C1078 1.398 . S
C1078 H1066 0.950 1_565 S
C1078 C1077 1.398 . S
C1078 C1079 1.391 . S
C1079 H1067 0.950 . S
C1079 C1075 1.393 . S
C1079 C1078 1.391 . S
H1080 C1088 0.950 . S
H1081 C1093 0.950 . S
H1082 C1090 0.950 . S
H1083 C1092 0.950 . S
H1084 C1094 0.950 . S
H1085 C1096 0.950 . S
H1086 C1098 0.950 . S
H1087 C1099 0.950 . S
C1088 H1080 0.950 . S
C1088 C1089 1.386 . S
C1088 C1090 1.391 . S
C1089 C1088 1.386 . S
C1089 C1093 1.393 . S
C1090 H1082 0.950 . S
C1090 C1088 1.391 . S
C1090 C1091 1.400 . S
C1091 C1090 1.400 . S
C1091 C1092 1.398 . S
C1091 C1097 1.491 . S
C1092 H1083 0.950 . S
C1092 C1091 1.398 . S
C1092 C1093 1.391 . S
C1093 H1081 0.950 . S
C1093 C1089 1.393 . S
C1093 C1092 1.391 . S
C1094 H1084 0.950 . S
C1094 C1095 1.386 . S
C1094 C1096 1.391 . S
C1095 C1094 1.386 . S
C1095 C1099 1.393 . S
C1096 H1085 0.950 . S
C1096 C1094 1.391 . S
C1096 C1097 1.400 . S
C1097 C1091 1.491 . S
C1097 C1096 1.400 . S
C1097 C1098 1.398 . S
C1098 H1086 0.950 . S
C1098 C1097 1.398 . S
C1098 C1099 1.391 . S
C1099 H1087 0.950 . S
C1099 C1095 1.393 . S
C1099 C1098 1.391 . S
H1100 C1108 0.950 . S
H1101 C1113 0.950 . S
H1102 C1110 0.950 . S
H1103 C1112 0.950 . S
H1104 C1114 0.950 . S
H1105 C1116 0.950 . S
H1106 C1118 0.950 . S
H1107 C1119 0.950 . S
C1108 H1100 0.950 . S
C1108 C1109 1.386 . S
C1108 C1110 1.391 . S
C1109 C1108 1.386 . S
C1109 C1113 1.393 . S
C1110 H1102 0.950 . S
C1110 C1108 1.391 . S
C1110 C1111 1.400 . S
C1111 C1110 1.400 . S
C1111 C1112 1.398 . S
C1111 C1117 1.491 . S
C1112 H1103 0.950 . S
C1112 C1111 1.398 . S
C1112 C1113 1.391 . S
C1113 H1101 0.950 . S
C1113 C1109 1.393 . S
C1113 C1112 1.391 . S
C1114 H1104 0.950 . S
C1114 C1115 1.386 . S
C1114 C1116 1.391 . S
C1115 C1114 1.386 . S
C1115 C1119 1.393 . S
C1116 H1105 0.950 . S
C1116 C1114 1.391 . S
C1116 C1117 1.400 . S
C1117 C1111 1.491 . S
C1117 C1116 1.400 . S
C1117 C1118 1.398 . S
C1118 H1106 0.950 . S
C1118 C1117 1.398 . S
C1118 C1119 1.391 . S
C1119 H1107 0.950 . S
C1119 C1115 1.393 . S
C1119 C1118 1.391 . S
C649 C391 0.904 . S
C655 C489 0.903 . S
C675 C529 1.958 . S
C669 C451 2.118 . S
C695 C578 1.671 . S
C689 C241 1.682 . S
C715 C609 2.191 . S
C709 C331 2.063 . S
C735 C498 0.903 . S
C729 C121 0.922 1_545 S
C749 C211 2.035 . S
C755 C538 1.964 . S
C769 C31 1.714 1_556 S
C775 C569 1.673 . S
C789 C91 2.191 1_556 S
C795 C618 2.191 . S
C815 C499 1.464 . S
C809 C301 1.100 . S
C835 C539 0.900 . S
C829 C380 0.896 1_565 S
C855 C575 0.596 . S
C849 C440 0.594 . S
C869 C260 1.303 . S
C875 C619 1.546 . S
C889 C61 1.197 . S
C895 C490 1.467 . S
C915 C530 0.892 . S
C909 C140 0.800 1_545 S
C935 C566 0.632 1_554 S
C929 C200 0.686 . S
C949 C20 1.475 . S
C955 C610 1.542 . S
C969 C320 2.122 . S
C975 C495 2.211 . S
C989 C361 1.609 . S
C995 C535 1.745 . S
C1015 C579 2.923 . S
C1009 C421 2.469 . S
C1035 C615 1.819 . S
C1029 C271 1.815 . S
C1049 C80 2.186 . S
C1055 C486 2.217 . S
C1075 C526 1.746 . S
C1069 C151 1.733 . S
C1095 C570 2.928 . S
C1089 C181 2.402 . S
C1109 C1 1.669 . S
C1115 C606 1.813 . S
