# Generated by pormake.
# Topology zzz, (3,6)-cn, num edge types: 1
# Building blocks:
#     Node 0, Type 0, BuildingBlock: PAMTOO_clean_linker_0, # of connection points: 3
#     Node 1, Type 0, BuildingBlock: PAMTOO_clean_linker_0, # of connection points: 3
#     Node 2, Type 0, BuildingBlock: PAMTOO_clean_linker_0, # of connection points: 3
#     Node 3, Type 0, BuildingBlock: PAMTOO_clean_linker_0, # of connection points: 3
#     Node 4, Type 0, BuildingBlock: PAMTOO_clean_linker_0, # of connection points: 3
#     Node 5, Type 0, BuildingBlock: PAMTOO_clean_linker_0, # of connection points: 3
#     Node 6, Type 0, BuildingBlock: PAMTOO_clean_linker_0, # of connection points: 3
#     Node 7, Type 0, BuildingBlock: PAMTOO_clean_linker_0, # of connection points: 3
#     Node 8, Type 1, BuildingBlock: PAMTOO_clean_sbu_0, # of connection points: 6
#     Node 9, Type 1, BuildingBlock: PAMTOO_clean_sbu_0, # of connection points: 6
#     Node 10, Type 1, BuildingBlock: PAMTOO_clean_sbu_0, # of connection points: 6
#     Node 11, Type 1, BuildingBlock: PAMTOO_clean_sbu_0, # of connection points: 6
#     Edge 12, Type (0, 1), BuildingBlock: TEMPAE_clean_linker_10, # of connection points: 2
#     Edge 13, Type (0, 1), BuildingBlock: TEMPAE_clean_linker_10, # of connection points: 2
#     Edge 14, Type (0, 1), BuildingBlock: TEMPAE_clean_linker_10, # of connection points: 2
#     Edge 15, Type (0, 1), BuildingBlock: TEMPAE_clean_linker_10, # of connection points: 2
#     Edge 16, Type (0, 1), BuildingBlock: TEMPAE_clean_linker_10, # of connection points: 2
#     Edge 17, Type (0, 1), BuildingBlock: TEMPAE_clean_linker_10, # of connection points: 2
#     Edge 18, Type (0, 1), BuildingBlock: TEMPAE_clean_linker_10, # of connection points: 2
#     Edge 19, Type (0, 1), BuildingBlock: TEMPAE_clean_linker_10, # of connection points: 2
#     Edge 20, Type (0, 1), BuildingBlock: TEMPAE_clean_linker_10, # of connection points: 2
#     Edge 21, Type (0, 1), BuildingBlock: TEMPAE_clean_linker_10, # of connection points: 2
#     Edge 22, Type (0, 1), BuildingBlock: TEMPAE_clean_linker_10, # of connection points: 2
#     Edge 23, Type (0, 1), BuildingBlock: TEMPAE_clean_linker_10, # of connection points: 2
#     Edge 24, Type (0, 1), BuildingBlock: TEMPAE_clean_linker_10, # of connection points: 2
#     Edge 25, Type (0, 1), BuildingBlock: TEMPAE_clean_linker_10, # of connection points: 2
#     Edge 26, Type (0, 1), BuildingBlock: TEMPAE_clean_linker_10, # of connection points: 2
#     Edge 27, Type (0, 1), BuildingBlock: TEMPAE_clean_linker_10, # of connection points: 2
#     Edge 28, Type (0, 1), BuildingBlock: TEMPAE_clean_linker_10, # of connection points: 2
#     Edge 29, Type (0, 1), BuildingBlock: TEMPAE_clean_linker_10, # of connection points: 2
#     Edge 30, Type (0, 1), BuildingBlock: TEMPAE_clean_linker_10, # of connection points: 2
#     Edge 31, Type (0, 1), BuildingBlock: TEMPAE_clean_linker_10, # of connection points: 2
#     Edge 32, Type (0, 1), BuildingBlock: TEMPAE_clean_linker_10, # of connection points: 2
#     Edge 33, Type (0, 1), BuildingBlock: TEMPAE_clean_linker_10, # of connection points: 2
#     Edge 34, Type (0, 1), BuildingBlock: TEMPAE_clean_linker_10, # of connection points: 2
#     Edge 35, Type (0, 1), BuildingBlock: TEMPAE_clean_linker_10, # of connection points: 2
# Relax obj value: 0.215
# Max RMSD: 0.237
# Mean RMSD: 0.124
data_MOF--net-zzz--node1-PAMTOO_clean_sbu_0--node2-PAMTOO_clean_linker_0--edge1-TEMPAE_clean_linker_10
_symmetry_space_group_name_H-M    P1
_symmetry_Int_Tables_number       1
_symmetry_cell_setting            triclinic
loop_
_symmetry_equiv_pos_as_xyz
'x, y, z'
_cell_length_a     57.374516
_cell_length_b     49.725466
_cell_length_c     15.806705
_cell_angle_alpha  91.923687
_cell_angle_beta   80.008174
_cell_angle_gamma 85.788392
loop_
_atom_site_label
_atom_site_type_symbol
_atom_site_fract_x
_atom_site_fract_y
_atom_site_fract_z
_atom_type_partial_charge
H0 H 0.86243 0.46329 0.42426 0.0
H1 H 0.79944 0.48475 0.32077 0.0
H2 H 0.81095 0.5253 0.55277 0.0
H3 H 0.75028 0.52521 0.52799 0.0
C4 C 0.75931 0.51133 0.47376 0.0
O5 O 0.78128 0.52038 0.4424 0.0
H6 H 0.76125 0.491 0.50062 0.0
C7 C 0.84574 0.47542 0.42814 0.0
C8 C 0.83904 0.49527 0.49489 0.0
C9 C 0.83209 0.47191 0.36356 0.0
C10 C 0.8101 0.48679 0.37055 0.0
C11 C 0.80211 0.50537 0.43998 0.0
C12 C 0.81663 0.50982 0.50205 0.0
H13 H 0.98041 0.79271 0.44438 0.0
H14 H 0.98662 0.71068 0.34421 0.0
H15 H 1.01452 0.73045 0.57274 0.0
H16 H 0.04058 0.67168 0.4654 0.0
C17 C 0.02958 0.67921 0.41847 0.0
O18 O 1.00811 0.69078 0.46357 0.0
H19 H 0.03984 0.69444 0.38114 0.0
C20 C 0.98521 0.77145 0.45075 0.0
C21 C 0.9969 0.76394 0.51795 0.0
C22 C 0.98195 0.7526 0.38674 0.0
C23 C 0.98914 0.72537 0.39323 0.0
C24 C 1.00076 0.71722 0.46027 0.0
C25 C 1.00502 0.73662 0.52219 0.0
H26 H 0.71306 0.04426 0.31251 0.0
H27 H 0.78409 0.03534 0.16889 0.0
H28 H 0.76278 0.98179 0.3723 0.0
H29 H 0.8221 0.99114 0.3356 0.0
C30 C 0.8186 1.00377 0.28178 0.0
O31 O 0.79884 0.99513 0.25214 0.0
H32 H 0.815 0.02493 0.30908 0.0
C33 C 0.73094 0.0345 0.30291 0.0
C34 C 0.73543 0.0121 0.35066 0.0
C35 C 0.74813 0.0429 0.23717 0.0
C36 C 0.77094 0.0296 0.22162 0.0
C37 C 0.77671 0.00825 0.27205 0.0
C38 C 0.75881 0.99926 0.33669 0.0
H39 H 0.5021 0.688 0.29337 0.0
H40 H 0.50896 0.75717 0.13743 0.0
H41 H 0.53739 0.75543 0.37241 0.0
H42 H 0.52381 0.81545 0.33107 0.0
C43 C 0.51755 0.80851 0.27197 0.0
O44 O 0.53073 0.78473 0.23967 0.0
H45 H 0.49843 0.80486 0.29022 0.0
C46 C 0.5074 0.70835 0.28392 0.0
C47 C 0.51971 0.72019 0.34258 0.0
C48 C 0.50363 0.72133 0.2096 0.0
C49 C 0.51143 0.74716 0.19544 0.0
C50 C 0.52301 0.75988 0.25517 0.0
C51 C 0.52761 0.74612 0.32809 0.0
H52 H 0.19876 0.54342 0.16145 0.0
H53 H 0.27085 0.54022 0.20587 0.0
H54 H 0.25415 0.49761 0.98599 0.0
H55 H 0.30729 0.47117 0.05822 0.0
C56 C 0.29679 0.48455 0.11108 0.0
O57 O 0.28789 0.5074 0.07577 0.0
H58 H 0.28207 0.47281 0.14224 0.0
C59 C 0.21745 0.53722 0.141 0.0
C60 C 0.22438 0.52109 0.06492 0.0
C61 C 0.23389 0.54476 0.19218 0.0
C62 C 0.2577 0.53475 0.16819 0.0
C63 C 0.26485 0.51725 0.09562 0.0
C64 C 0.24829 0.51054 0.04339 0.0
H65 H 0.98331 0.22371 0.16844 0.0
H66 H 0.99101 0.30266 0.27379 0.0
H67 H 0.04467 0.26526 0.07099 0.0
H68 H 0.06627 0.3086 0.19028 0.0
C69 C 0.04828 0.30978 0.23061 0.0
O70 O 0.0317 0.30861 0.17665 0.0
H71 H 0.04801 0.29205 0.27206 0.0
C72 C 0.99284 0.24176 0.16755 0.0
C73 C 1.01467 0.24183 0.11172 0.0
C74 C 0.98433 0.26318 0.22772 0.0
C75 C 0.9972 0.28607 0.22737 0.0
C76 C 1.01882 0.28701 0.17081 0.0
C77 C 0.02756 0.2649 0.1124 0.0
H78 H 0.33497 0.96058 0.24958 0.0
H79 H 0.2646 0.97257 0.39671 0.0
H80 H 0.28575 0.02291 0.18434 0.0
H81 H 0.23445 0.98143 0.24507 0.0
C82 C 0.23012 1.00215 0.27549 0.0
O83 O 0.24965 0.01095 0.30657 0.0
H84 H 0.22619 0.01553 0.22404 0.0
C85 C 0.31736 0.97104 0.2592 0.0
C86 C 0.31309 0.99299 0.209 0.0
C87 C 0.30033 0.96392 0.32749 0.0
C88 C 0.27763 0.97743 0.3423 0.0
C89 C 0.27183 0.99786 0.2886 0.0
C90 C 0.28973 0.00598 0.2222 0.0
H91 H 0.53679 0.34086 0.31761 0.0
H92 H 0.54016 0.26624 0.44608 0.0
H93 H 0.51535 0.26893 0.20368 0.0
H94 H 0.49078 0.22769 0.32452 0.0
C95 C 0.50339 0.228 0.37056 0.0
O96 O 0.52428 0.23753 0.32926 0.0
H97 H 0.4951 0.24174 0.42651 0.0
C98 C 0.53432 0.31941 0.31914 0.0
C99 C 0.52547 0.30681 0.25234 0.0
C100 C 0.53972 0.305 0.3886 0.0
C101 C 0.53625 0.27744 0.3919 0.0
C102 C 0.52747 0.26428 0.32528 0.0
C103 C 0.52219 0.27899 0.25495 0.0
Dy104 Dy 1.01069 0.01306 0.70216 0.0
Dy105 Dy 0.03622 0.99462 0.85909 0.0
C106 C 0.06847 0.0062 0.676 0.0
O107 O 1.01998 0.96881 0.67213 0.0
O108 O 0.02157 0.95767 0.81013 0.0
O109 O 1.00934 0.02352 0.57122 0.0
O110 O 0.97723 0.02631 0.66653 0.0
O111 O 0.99801 0.00738 0.91583 0.0
O112 O 0.9827 0.99583 0.79829 0.0
O113 O 0.04401 0.03783 0.84719 0.0
O114 O 1.01183 0.05032 0.78591 0.0
O115 O 0.03877 0.99729 0.99402 0.0
O116 O 0.06078 0.96695 0.9084 0.0
C117 C 0.02047 0.95057 0.73022 0.0
O118 O 0.04947 0.01763 0.65081 0.0
O119 O 0.06686 0.99391 0.74904 0.0
C120 C 0.98088 0.06018 0.56812 0.0
C121 C 0.96779 0.11396 0.53651 0.0
C122 C 0.98982 0.10702 0.56053 0.0
C123 C 0.99625 0.08038 0.5769 0.0
C124 C 0.95869 0.06711 0.54558 0.0
C125 C 0.95213 0.0939 0.53008 0.0
C126 C 0.987 0.0324 0.58986 0.0
C127 C 0.97975 1.00114 0.88145 0.0
C128 C 0.02903 0.05663 0.82635 0.0
C129 C 0.04056 0.95243 0.03637 0.0
C130 C 0.02095 0.90455 0.09203 0.0
C131 C 1.00675 0.92532 0.0638 0.0
C132 C 1.01646 0.94902 0.03621 0.0
C133 C 0.05461 0.93217 0.06757 0.0
C134 C 0.04483 0.9084 0.09577 0.0
C135 C 0.05154 0.97422 0.98782 0.0
H136 H 1.00212 0.12224 0.56609 0.0
H137 H 1.0132 0.07557 0.59651 0.0
H138 H 0.94645 0.05182 0.54017 0.0
H139 H 0.93515 0.09884 0.51085 0.0
H140 H 0.98823 0.92303 0.06141 0.0
H141 H 1.00534 0.96414 0.01078 0.0
H142 H 0.07335 0.93417 0.06621 0.0
H143 H 0.05618 0.89257 0.11691 0.0
Dy144 Dy 0.51735 0.98792 0.69002 0.0
Dy145 Dy 0.52781 0.02835 0.84301 0.0
C146 C 0.51547 0.05151 0.67388 0.0
O147 O 0.55711 0.98268 0.67937 0.0
O148 O 0.56173 0.02314 0.74524 0.0
O149 O 0.50348 0.98385 0.57254 0.0
O150 O 0.51946 0.94867 0.62438 0.0
O151 O 0.53719 0.98624 0.88146 0.0
O152 O 0.51286 0.96403 0.80793 0.0
O153 O 0.48897 0.0233 0.8852 0.0
O154 O 0.48076 1.00012 0.76596 0.0
O155 O 0.53072 0.03867 0.97447 0.0
O156 O 0.53936 0.06713 0.87525 0.0
C157 C 0.57066 1.00173 0.69577 0.0
O158 O 0.52479 0.02838 0.63578 0.0
O159 O 0.50873 0.05311 0.75742 0.0
C160 C 0.48635 0.94328 0.55703 0.0
C161 C 0.4429 0.92539 0.52789 0.0
C162 C 0.44554 0.9342 0.61091 0.0
C163 C 0.46712 0.94314 0.62531 0.0
C164 C 0.48432 0.93272 0.47565 0.0
C165 C 0.46278 0.92374 0.46119 0.0
C166 C 0.50719 0.95761 0.5675 0.0
C167 C 0.52555 0.96499 0.86932 0.0
C168 C 0.47394 0.01238 0.84262 0.0
C169 C 0.56324 0.06478 0.98069 0.0
C170 C 0.60854 0.07246 0.01813 0.0
C171 C 0.60221 0.0464 0.99988 0.0
C172 C 0.57982 0.0426 0.9808 0.0
C173 C 0.56946 0.09084 0.99891 0.0
C174 C 0.59202 0.09469 0.01725 0.0
C175 C 0.54034 0.06111 0.95416 0.0
H176 H 0.43051 0.93595 0.66333 0.0
H177 H 0.46839 0.95135 0.68857 0.0
H178 H 0.499 0.9327 0.42227 0.0
H179 H 0.46131 0.91677 0.3968 0.0
H180 H 0.61475 0.02896 0.99908 0.0
H181 H 0.57559 0.02236 0.96497 0.0
H182 H 0.55698 0.10822 0.99782 0.0
H183 H 0.59647 0.11495 0.03151 0.0
Dy184 Dy 0.55178 0.51947 0.83777 0.0
Dy185 Dy 0.50357 0.50646 0.74688 0.0
C186 C 0.52158 0.46892 0.8974 0.0
O187 O 0.5607 0.48046 0.76048 0.0
O188 O 0.53677 0.48935 0.66214 0.0
O189 O 0.58981 0.52363 0.82274 0.0
O190 O 0.56653 0.53446 0.94475 0.0
O191 O 0.51622 0.5418 0.67535 0.0
O192 O 0.54761 0.55186 0.74289 0.0
O193 O 0.49389 0.54498 0.82688 0.0
O194 O 0.51937 0.53849 0.92254 0.0
O195 O 0.46537 0.50659 0.75225 0.0
O196 O 0.48983 0.48603 0.64589 0.0
C197 C 0.55326 0.47405 0.68916 0.0
O198 O 0.5397 0.48305 0.90498 0.0
O199 O 0.50636 0.47519 0.84586 0.0
C200 C 0.60746 0.52359 0.95042 0.0
C201 C 0.64274 0.51495 0.05479 0.0
C202 C 0.62067 0.50375 0.07489 0.0
C203 C 0.60321 0.50806 0.02341 0.0
C204 C 0.62972 0.5339 0.92848 0.0
C205 C 0.64714 0.52965 0.97982 0.0
C206 C 0.58832 0.53231 0.90267 0.0
C207 C 0.53328 0.55705 0.68727 0.0
C208 C 0.50157 0.5521 0.89729 0.0
C209 C 0.45111 0.50026 0.61844 0.0
C210 C 0.41747 0.5046 0.50584 0.0
C211 C 0.4418 0.49858 0.47336 0.0
C212 C 0.45839 0.49641 0.52881 0.0
C213 C 0.42692 0.50728 0.65071 0.0
C214 C 0.41033 0.50956 0.59515 0.0
C215 C 0.46768 0.49307 0.67857 0.0
H216 H 0.61672 0.49195 0.1312 0.0
H217 H 0.58617 0.49989 0.04209 0.0
H218 H 0.63335 0.54622 0.87318 0.0
H219 H 0.66371 0.5389 0.96253 0.0
H220 H 0.44801 0.495 0.40491 0.0
H221 H 0.4768 0.49075 0.50141 0.0
H222 H 0.42064 0.50993 0.71939 0.0
H223 H 0.39174 0.51399 0.62264 0.0
Dy224 Dy 0.03233 0.52302 0.75841 0.0
Dy225 Dy 1.01995 0.474 0.88459 0.0
C226 C 0.03298 0.46339 0.68087 0.0
O227 O 0.99247 0.52472 0.78558 0.0
O228 O 0.98893 0.48049 0.81685 0.0
O229 O 0.04984 0.53868 0.64054 0.0
O230 O 0.02902 0.56591 0.73996 0.0
O231 O 1.01002 0.51211 0.9685 0.0
O232 O 0.03627 0.53775 0.88959 0.0
O233 O 0.05581 0.48436 0.90616 0.0
O234 O 0.06752 0.50285 0.77634 0.0
O235 O 0.99892 0.4578 0.99475 0.0
O236 O 0.02674 0.43226 0.91387 0.0
C237 C 0.9799 0.50358 0.79377 0.0
O238 O 0.0263 0.48874 0.67083 0.0
O239 O 0.03723 0.45556 0.75559 0.0
C240 C 0.06626 0.57824 0.67369 0.0
C241 C 0.11294 0.59319 0.65507 0.0
C242 C 0.09804 0.60246 0.59846 0.0
C243 C 0.0748 0.5948 0.6073 0.0
C244 C 0.08026 0.57161 0.73584 0.0
C245 C 0.10353 0.57891 0.72633 0.0
C246 C 0.04512 0.56367 0.67029 0.0
C247 C 0.02246 0.53332 0.96188 0.0
C248 C 0.07254 0.49292 0.84791 0.0
C249 C 0.99077 0.41356 0.96664 0.0
C250 C 0.94809 0.38898 0.96693 0.0
C251 C 0.9592 0.38877 0.04002 0.0
C252 C 0.98029 0.40104 0.03981 0.0
C253 C 0.98141 0.41115 0.89055 0.0
C254 C 0.96033 0.39869 0.89044 0.0
C255 C 1.00819 0.4332 0.97484 0.0
H256 H 0.10518 0.61301 0.54203 0.0
H257 H 0.06428 0.59992 0.55859 0.0
H258 H 0.07396 0.55872 0.7874 0.0
H259 H 0.11486 0.57112 0.76959 0.0
H260 H 0.95048 0.38179 0.10066 0.0
H261 H 0.98726 0.40279 0.09908 0.0
H262 H 0.98935 0.42071 0.83314 0.0
H263 H 0.95265 0.39875 0.83252 0.0
C264 C 0.1937 0.98062 0.35082 0.0
C265 C 0.20781 1.00267 0.34498 0.0
C266 C 0.17148 0.98166 0.40621 0.0
C267 C 0.16277 0.00541 0.45768 0.0
C268 C 0.1771 0.02764 0.4531 0.0
C269 C 0.19927 0.02608 0.39656 0.0
C270 C 0.15703 0.95745 0.40805 0.0
C271 C 0.16879 0.05331 0.50677 0.0
C272 C 0.09523 0.01627 0.53676 0.0
C273 C 0.09261 0.00702 0.62075 0.0
C274 C 0.11783 0.01622 0.48377 0.0
C275 C 0.13861 0.00692 0.51507 0.0
C276 C 0.1361 0.99804 0.60029 0.0
C277 C 0.11331 0.99808 0.65156 0.0
C278 C 0.11942 0.02571 0.39342 0.0
C279 C 0.15756 0.98814 0.63721 0.0
H280 H 0.19983 0.9626 0.31025 0.0
H281 H 0.20975 0.04341 0.39137 0.0
H282 H 0.15281 0.95058 0.47463 0.0
H283 H 0.1399 0.96308 0.38714 0.0
H284 H 0.1664 0.9403 0.36567 0.0
H285 H 0.18235 0.06831 0.49916 0.0
H286 H 0.15233 0.06252 0.4881 0.0
H287 H 0.16442 0.04879 0.57572 0.0
H288 H 0.07954 0.02322 0.51168 0.0
H289 H 0.11176 0.99099 0.71623 0.0
H290 H 0.12712 0.00893 0.34654 0.0
H291 H 0.13143 0.04225 0.38346 0.0
H292 H 0.10181 0.03302 0.37914 0.0
H293 H 0.16656 0.96991 0.59956 0.0
H294 H 0.15286 0.98305 0.70565 0.0
H295 H 0.17052 1.00376 0.63235 0.0
C296 C 0.49086 0.18101 0.40012 0.0
C297 C 0.50757 0.20006 0.40389 0.0
C298 C 0.49266 0.15613 0.4394 0.0
C299 C 0.5116 0.15005 0.4843 0.0
C300 C 0.52876 0.16905 0.48719 0.0
C301 C 0.52641 0.19391 0.44779 0.0
C302 C 0.47382 0.13671 0.43527 0.0
C303 C 0.54926 0.16345 0.53405 0.0
C304 C 0.50208 0.10041 0.66399 0.0
C305 C 0.51399 0.07638 0.62404 0.0
C306 C 0.50117 0.12438 0.6193 0.0
C307 C 0.5126 0.12457 0.53233 0.0
C308 C 0.52463 0.10039 0.49146 0.0
C309 C 0.5251 0.0766 0.53758 0.0
C310 C 0.48794 0.14954 0.6654 0.0
C311 C 0.53717 0.09969 0.39911 0.0
H312 H 0.47597 0.18587 0.36799 0.0
H313 H 0.53907 0.20878 0.45271 0.0
H314 H 0.48213 0.11657 0.40964 0.0
H315 H 0.46396 0.13411 0.50098 0.0
H316 H 0.46092 0.14378 0.39428 0.0
H317 H 0.56199 0.17934 0.52528 0.0
H318 H 0.54246 0.16223 0.60381 0.0
H319 H 0.55892 0.14369 0.51101 0.0
H320 H 0.4934 0.10056 0.73064 0.0
H321 H 0.53448 0.05825 0.50608 0.0
H322 H 0.47364 0.15693 0.63083 0.0
H323 H 0.50017 0.1658 0.6659 0.0
H324 H 0.47987 0.14605 0.73286 0.0
H325 H 0.52431 0.10556 0.35675 0.0
H326 H 0.54591 0.07941 0.37671 0.0
H327 H 0.55081 0.11455 0.39167 0.0
C328 C 0.31002 0.48051 0.25534 0.0
C329 C 0.31285 0.4916 0.17407 0.0
C330 C 0.32634 0.48425 0.31087 0.0
C331 C 0.34608 0.49946 0.28469 0.0
C332 C 0.34865 0.51134 0.2036 0.0
C333 C 0.33212 0.50712 0.14911 0.0
C334 C 0.3229 0.47109 0.39637 0.0
C335 C 0.36929 0.52783 0.17323 0.0
C336 C 0.38008 0.52352 0.45727 0.0
C337 C 0.39952 0.50408 0.44745 0.0
C338 C 0.36276 0.52255 0.40412 0.0
C339 C 0.36473 0.5015 0.3399 0.0
C340 C 0.38436 0.4819 0.3295 0.0
C341 C 0.40147 0.48347 0.38302 0.0
C342 C 0.34226 0.54398 0.41702 0.0
C343 C 0.38711 0.45893 0.26267 0.0
H344 H 0.2953 0.46827 0.27468 0.0
H345 H 0.33452 0.51545 0.08597 0.0
H346 H 0.33783 0.45568 0.39756 0.0
H347 H 0.323 0.48629 0.44925 0.0
H348 H 0.306 0.46116 0.40928 0.0
H349 H 0.3678 0.5374 0.11168 0.0
H350 H 0.37046 0.54386 0.22252 0.0
H351 H 0.38612 0.51472 0.16397 0.0
H352 H 0.37848 0.53965 0.50628 0.0
H353 H 0.41615 0.46807 0.3757 0.0
H354 H 0.32528 0.53454 0.4349 0.0
H355 H 0.34154 0.55418 0.35605 0.0
H356 H 0.34361 0.55944 0.46794 0.0
H357 H 0.37165 0.44657 0.27565 0.0
H358 H 0.40357 0.4456 0.26164 0.0
H359 H 0.38745 0.46697 0.19788 0.0
C360 C 0.02516 0.33795 0.3586 0.0
C361 C 0.04388 0.33535 0.28814 0.0
C362 C 0.02226 0.36027 0.41775 0.0
C363 C 0.03875 0.38032 0.40724 0.0
C364 C 0.05728 0.37818 0.33463 0.0
C365 C 0.05951 0.35586 0.27573 0.0
C366 C 1.00204 0.36185 0.49334 0.0
C367 C 0.07543 0.39884 0.32123 0.0
C368 C 0.02406 0.44762 0.53738 0.0
C369 C 0.03527 0.44288 0.60832 0.0
C370 C 0.02499 0.42753 0.47142 0.0
C371 C 0.03775 0.40222 0.47565 0.0
C372 C 0.04948 0.39759 0.54631 0.0
C373 C 0.04793 0.41781 0.61184 0.0
C374 C 1.01192 0.43318 0.39809 0.0
C375 C 0.06358 0.37112 0.5531 0.0
H376 H 1.01323 0.32202 0.36913 0.0
H377 H 0.07404 0.35394 0.22145 0.0
H378 H 1.00918 0.35904 0.5536 0.0
H379 H 0.99217 0.38206 0.49919 0.0
H380 H 0.98943 0.34624 0.48768 0.0
H381 H 0.0878 0.39529 0.25885 0.0
H382 H 0.06648 0.41946 0.3236 0.0
H383 H 0.08595 0.39817 0.37387 0.0
H384 H 1.01404 0.46681 0.53441 0.0
H385 H 0.05673 0.41393 0.6661 0.0
H386 H 0.9983 0.41851 0.39655 0.0
H387 H 0.0244 0.43052 0.3359 0.0
H388 H 1.00302 0.45393 0.40353 0.0
H389 H 0.05174 0.35439 0.55692 0.0
H390 H 0.07237 0.37103 0.61044 0.0
H391 H 0.07739 0.36692 0.49474 0.0
C392 C 0.85536 0.97773 0.19376 0.0
C393 C 0.84072 1.00188 0.21137 0.0
C394 C 0.87743 0.97661 0.13706 0.0
C395 C 0.88523 1.00021 0.09638 0.0
C396 C 0.87 0.02437 0.11133 0.0
C397 C 0.848 0.02487 0.16806 0.0
C398 C 0.89275 0.95031 0.12281 0.0
C399 C 0.87732 0.05002 0.06959 0.0
C400 C 0.95221 0.00598 0.02586 0.0
C401 C 0.95564 1.00037 0.93657 0.0
C402 C 0.92957 0.00586 0.07818 0.0
C403 C 0.90959 0.99992 0.04106 0.0
C404 C 0.91298 0.99401 0.95108 0.0
C405 C 0.93581 0.99433 0.90022 0.0
C406 C 0.92702 0.01229 0.17348 0.0
C407 C 0.8924 0.98746 0.90827 0.0
H408 H 0.84986 0.95986 0.22667 0.0
H409 H 0.83679 0.04359 0.18092 0.0
H410 H 0.89788 0.94499 0.05299 0.0
H411 H 0.90937 0.95251 0.1484 0.0
H412 H 0.88365 0.93342 0.15468 0.0
H413 H 0.86308 0.06675 0.08403 0.0
H414 H 0.89335 0.05644 0.09257 0.0
H415 H 0.88206 0.04646 0.99882 0.0
H416 H 0.96726 0.01063 0.05518 0.0
H417 H 0.93807 0.98992 0.83155 0.0
H418 H 0.91967 0.99524 0.21 0.0
H419 H 0.91432 0.03029 0.19229 0.0
H420 H 0.9442 0.01629 0.19285 0.0
H421 H 0.88398 0.96985 0.93791 0.0
H422 H 0.89791 0.98287 0.83807 0.0
H423 H 0.87868 1.00474 0.91825 0.0
C424 C 0.50268 0.85292 0.22045 0.0
C425 C 0.51987 0.8309 0.20836 0.0
C426 C 0.50442 0.87479 0.16609 0.0
C427 C 0.52398 0.87492 0.09771 0.0
C428 C 0.54167 0.85296 0.08592 0.0
C429 C 0.53953 0.83136 0.14175 0.0
C430 C 0.48526 0.8978 0.18199 0.0
C431 C 0.56281 0.85224 0.01403 0.0
C432 C 0.51505 0.9183 0.90935 0.0
C433 C 0.52618 0.94166 0.92642 0.0
C434 C 0.51462 0.89638 0.96351 0.0
C435 C 0.52548 0.89766 0.03731 0.0
C436 C 0.53699 0.92102 0.05454 0.0
C437 C 0.53726 0.94267 0.99893 0.0
C438 C 0.50216 0.87195 0.94234 0.0
C439 C 0.54871 0.92333 0.13261 0.0
H440 H 0.48778 0.85302 0.27309 0.0
H441 H 0.55325 0.81483 0.13304 0.0
H442 H 0.49311 0.91691 0.19512 0.0
H443 H 0.47709 0.90045 0.12382 0.0
H444 H 0.47105 0.8945 0.23713 0.0
H445 H 0.57517 0.83395 0.01393 0.0
H446 H 0.55674 0.8527 0.95114 0.0
H447 H 0.5727 0.87037 0.01988 0.0
H448 H 0.50647 0.91711 0.85358 0.0
H449 H 0.54587 0.96055 0.01304 0.0
H450 H 0.48704 0.86931 0.99476 0.0
H451 H 0.5145 0.85349 0.93754 0.0
H452 H 0.49531 0.87364 0.881 0.0
H453 H 0.53523 0.9227 0.19187 0.0
H454 H 0.55769 0.94231 0.13539 0.0
H455 H 0.562 0.90596 0.13257 0.0
C456 C 0.73629 0.53512 0.37113 0.0
C457 C 0.74404 0.51093 0.4044 0.0
C458 C 0.72066 0.53535 0.31146 0.0
C459 C 0.71245 0.5108 0.28452 0.0
C460 C 0.72071 0.48624 0.31649 0.0
C461 C 0.73643 0.4866 0.37573 0.0
C462 C 0.71254 0.56197 0.27861 0.0
C463 C 0.71247 0.45962 0.28978 0.0
C464 C 0.65337 0.51471 0.20329 0.0
C465 C 0.66066 0.51254 0.11356 0.0
C466 C 0.66998 0.51389 0.25934 0.0
C467 C 0.69462 0.51093 0.22535 0.0
C468 C 0.70213 0.50842 0.13497 0.0
C469 C 0.68513 0.5092 0.08038 0.0
C470 C 0.66112 0.51661 0.35516 0.0
C471 C 0.72818 0.50519 0.09584 0.0
H472 H 0.74215 0.55393 0.39317 0.0
H473 H 0.74241 0.46784 0.4011 0.0
H474 H 0.71624 0.56114 0.20727 0.0
H475 H 0.69307 0.566 0.29911 0.0
H476 H 0.72139 0.5791 0.30256 0.0
H477 H 0.72127 0.44222 0.31755 0.0
H478 H 0.69299 0.45964 0.31093 0.0
H479 H 0.7161 0.45671 0.21869 0.0
H480 H 0.63461 0.51774 0.22999 0.0
H481 H 0.69105 0.50712 0.01139 0.0
H482 H 0.66757 0.53494 0.38238 0.0
H483 H 0.66829 0.49903 0.3868 0.0
H484 H 0.64143 0.51801 0.37156 0.0
H485 H 0.73708 0.5229 0.11509 0.0
H486 H 0.73116 0.50316 0.02449 0.0
H487 H 0.73684 0.48709 0.12034 0.0
C488 C 0.02909 0.62935 0.37896 0.0
C489 C 0.02577 0.65635 0.35757 0.0
C490 C 0.02737 0.60798 0.32007 0.0
C491 C 0.02166 0.61372 0.23842 0.0
C492 C 1.01734 0.64099 0.2181 0.0
C493 C 1.01971 0.66192 0.27742 0.0
C494 C 0.03259 0.5793 0.34398 0.0
C495 C 1.01089 0.64814 0.13254 0.0
C496 C 0.04281 0.56512 0.04433 0.0
C497 C 0.02228 0.55215 0.03707 0.0
C498 C 0.04303 0.58435 0.11127 0.0
C499 C 0.022 0.59148 0.17166 0.0
C500 C 1.00126 0.57814 0.16551 0.0
C501 C 1.00174 0.55835 0.0989 0.0
C502 C 0.06574 0.5974 0.1163 0.0
C503 C 0.97836 0.58547 0.22741 0.0
H504 H 0.03375 0.62495 0.44092 0.0
H505 H 1.01743 0.68272 0.26017 0.0
H506 H 1.01769 0.56703 0.33582 0.0
H507 H 0.04864 0.57006 0.30032 0.0
H508 H 0.03563 0.57814 0.41134 0.0
H509 H 1.00583 0.67006 0.12994 0.0
H510 H 0.02622 0.64241 0.08033 0.0
H511 H 0.99591 0.63669 0.11947 0.0
H512 H 0.05884 0.56019 0.99727 0.0
H513 H 0.9858 0.5485 0.09328 0.0
H514 H 0.07016 0.59575 0.18164 0.0
H515 H 0.06337 0.6192 0.10441 0.0
H516 H 0.08099 0.5881 0.06867 0.0
H517 H 0.98122 0.58359 0.29465 0.0
H518 H 0.96408 0.57256 0.21632 0.0
H519 H 0.97226 0.60686 0.22048 0.0
C520 C 0.97085 0.26029 0.38483 0.0
C521 C 0.96561 0.25799 0.30152 0.0
C522 C 0.96228 0.24214 0.44665 0.0
C523 C 0.94887 0.22129 0.42277 0.0
C524 C 0.93891 0.22343 0.34726 0.0
C525 C 0.94719 0.24226 0.28745 0.0
C526 C 0.97138 0.24202 0.53051 0.0
C527 C 0.92317 0.2027 0.32208 0.0
C528 C 0.97839 0.1521 0.44551 0.0
C529 C 0.96238 0.14157 0.51023 0.0
C530 C 0.97399 0.17793 0.41708 0.0
C531 C 0.95312 0.19402 0.4556 0.0
C532 C 0.93695 0.18362 0.52231 0.0
C533 C 0.9416 0.1572 0.54794 0.0
C534 C 0.99164 0.18763 0.34434 0.0
C535 C 0.91464 0.19988 0.56614 0.0
H536 H 0.98437 0.27318 0.39793 0.0
H537 H 0.94215 0.24149 0.22442 0.0
H538 H 0.95821 0.23442 0.58234 0.0
H539 H 0.98795 0.22848 0.52283 0.0
H540 H 0.97551 0.26257 0.55004 0.0
H541 H 0.91313 0.21011 0.27224 0.0
H542 H 0.93431 0.18411 0.29556 0.0
H543 H 0.91044 0.19727 0.37884 0.0
H544 H 0.99427 0.13976 0.41577 0.0
H545 H 0.9292 0.14892 0.59819 0.0
H546 H 0.99889 0.20634 0.36501 0.0
H547 H 0.98268 0.19224 0.28916 0.0
H548 H 1.0068 0.17243 0.3218 0.0
H549 H 0.91623 0.22194 0.56312 0.0
H550 H 0.91008 0.19479 0.63464 0.0
H551 H 0.89967 0.19475 0.53425 0.0
C552 C 0.3202 0.92105 0.36489 0.0
C553 C 0.30893 0.94664 0.3916 0.0
C554 C 0.33872 0.91022 0.40408 0.0
C555 C 0.3463 0.92578 0.46929 0.0
C556 C 0.33224 0.94931 0.5058 0.0
C557 C 0.31346 0.95939 0.46667 0.0
C558 C 0.35238 0.88419 0.36698 0.0
C559 C 0.33929 0.96618 0.57692 0.0
C560 C 0.40217 0.90838 0.56285 0.0
C561 C 0.41887 0.92203 0.5083 0.0
C562 C 0.37861 0.90804 0.5489 0.0
C563 C 0.37156 0.92235 0.48034 0.0
C564 C 0.38863 0.93543 0.42364 0.0
C565 C 0.41201 0.93494 0.4381 0.0
C566 C 0.36128 0.89322 0.60956 0.0
C567 C 0.38203 0.95109 0.34961 0.0
H568 H 0.31654 0.9111 0.30707 0.0
H569 H 0.30468 0.97917 0.48742 0.0
H570 H 0.36797 0.8888 0.31915 0.0
H571 H 0.35899 0.87259 0.41798 0.0
H572 H 0.34125 0.87144 0.33399 0.0
H573 H 0.32456 0.98095 0.60785 0.0
H574 H 0.34484 0.95322 0.62674 0.0
H575 H 0.35463 0.97751 0.54987 0.0
H576 H 0.40743 0.89826 0.61707 0.0
H577 H 0.42471 0.9459 0.39658 0.0
H578 H 0.37054 0.87621 0.63756 0.0
H579 H 0.34739 0.88524 0.57708 0.0
H580 H 0.3524 0.9073 0.66336 0.0
H581 H 0.37423 0.93781 0.30608 0.0
H582 H 0.39756 0.95971 0.31113 0.0
H583 H 0.36848 0.96787 0.37443 0.0
C584 C 0.57078 0.32862 0.4449 0.0
C585 C 0.54774 0.32017 0.45832 0.0
C586 C 0.5764 0.35066 0.49321 0.0
C587 C 0.55834 0.36478 0.55448 0.0
C588 C 0.53576 0.35443 0.57437 0.0
C589 C 0.53073 0.33214 0.52578 0.0
C590 C 0.60088 0.36054 0.47208 0.0
C591 C 0.51604 0.36873 0.63975 0.0
C592 C 0.56746 0.42543 0.69468 0.0
C593 C 0.55964 0.44676 0.6478 0.0
C594 C 0.56835 0.39849 0.6635 0.0
C595 C 0.56124 0.39289 0.58379 0.0
C596 C 0.55485 0.41447 0.53381 0.0
C597 C 0.55418 0.44111 0.56642 0.0
C598 C 0.57541 0.37612 0.71849 0.0
C599 C 0.54723 0.40945 0.44813 0.0
H600 H 0.58382 0.31943 0.39193 0.0
H601 H 0.51283 0.32572 0.53505 0.0
H602 H 0.60035 0.37802 0.43041 0.0
H603 H 0.60703 0.36742 0.53139 0.0
H604 H 0.61399 0.34459 0.43746 0.0
H605 H 0.50087 0.35609 0.65662 0.0
H606 H 0.5226 0.37438 0.69937 0.0
H607 H 0.50947 0.38763 0.6131 0.0
H608 H 0.5715 0.4296 0.7581 0.0
H609 H 0.54822 0.4575 0.52977 0.0
H610 H 0.58649 0.35954 0.67857 0.0
H611 H 0.55922 0.36756 0.75223 0.0
H612 H 0.58532 0.38357 0.76785 0.0
H613 H 0.56103 0.3963 0.40476 0.0
H614 H 0.54389 0.42846 0.4156 0.0
H615 H 0.5307 0.3988 0.45769 0.0
C616 C 0.23484 0.55735 0.34783 0.0
C617 C 0.22537 0.56176 0.27273 0.0
C618 C 0.22302 0.5687 0.42781 0.0
C619 C 0.20059 0.58321 0.43308 0.0
C620 C 0.19257 0.59041 0.35633 0.0
C621 C 0.20565 0.5805 0.27713 0.0
C622 C 0.23391 0.56332 0.50644 0.0
C623 C 0.169 0.60631 0.35724 0.0
C624 C 0.14902 0.5649 0.59394 0.0
C625 C 0.13871 0.59055 0.62385 0.0
C626 C 0.17078 0.56179 0.53782 0.0
C627 C 0.18302 0.58497 0.51448 0.0
C628 C 0.17436 0.61038 0.55598 0.0
C629 C 0.15174 0.6131 0.60807 0.0
C630 C 0.17913 0.53406 0.4967 0.0
C631 C 0.18793 0.63514 0.54142 0.0
H632 H 0.25058 0.54374 0.34576 0.0
H633 H 0.19923 0.58574 0.21876 0.0
H634 H 0.22426 0.57496 0.5648 0.0
H635 H 0.23439 0.54144 0.51839 0.0
H636 H 0.25262 0.56866 0.49458 0.0
H637 H 0.16433 0.60752 0.29206 0.0
H638 H 0.15449 0.59704 0.39928 0.0
H639 H 0.16974 0.62718 0.38286 0.0
H640 H 0.13883 0.54751 0.60712 0.0
H641 H 0.14386 0.63291 0.63286 0.0
H642 H 0.19616 0.52705 0.51575 0.0
H643 H 0.1821 0.53468 0.42552 0.0
H644 H 0.16623 0.51885 0.51634 0.0
H645 H 0.20619 0.6305 0.50474 0.0
H646 H 0.18908 0.64501 0.60447 0.0
H647 H 0.17812 0.64999 0.50691 0.0
C648 C 0.99401 0.75932 0.23208 0.0
C649 C 0.97635 0.76312 0.30569 0.0
C650 C 0.99707 0.77963 0.1727 0.0
C651 C 0.98206 0.80379 0.1884 0.0
C652 C 0.96117 0.80474 0.2512 0.0
C653 C 0.95848 0.78414 0.30957 0.0
C654 C 1.01875 0.77722 0.10287 0.0
C655 C 0.94392 0.82951 0.26643 0.0
C656 C 1.01501 0.86685 0.19115 0.0
C657 C 1.01094 0.87871 0.11565 0.0
C658 C 1.00563 0.84249 0.21495 0.0
C659 C 0.99188 0.82956 0.16147 0.0
C660 C 0.98766 0.84148 0.085 0.0
C661 C 0.99727 0.86599 0.06299 0.0
C662 C 1.01024 0.83085 0.29828 0.0
C663 C 0.97352 0.82835 0.02527 0.0
H664 H 1.00757 0.74269 0.22769 0.0
H665 H 0.94439 0.78661 0.36535 0.0
H666 H 1.01487 0.78685 0.04401 0.0
H667 H 0.03311 0.78775 0.12538 0.0
H668 H 0.02531 0.75578 0.0865 0.0
H669 H 0.92633 0.82478 0.30184 0.0
H670 H 0.95099 0.84489 0.30552 0.0
H671 H 0.94158 0.83842 0.20474 0.0
H672 H 0.02526 0.87689 0.23243 0.0
H673 H 0.9943 0.87506 0.00398 0.0
H674 H 1.01841 0.80984 0.28655 0.0
H675 H 0.99321 0.83033 0.34358 0.0
H676 H 0.0222 0.84282 0.32988 0.0
H677 H 0.95921 0.81709 0.06071 0.0
H678 H 0.98558 0.81382 0.98006 0.0
H679 H 0.9655 0.8435 0.98645 0.0
C680 C 0.72548 0.08493 0.20782 0.0
C681 C 0.73977 0.06147 0.1757 0.0
C682 C 0.70697 0.09452 0.16666 0.0
C683 C 0.70305 0.08029 0.09208 0.0
C684 C 0.7205 0.06027 0.0505 0.0
C685 C 0.73882 0.05101 0.09314 0.0
C686 C 0.68939 0.11678 0.21107 0.0
C687 C 0.71756 0.0454 0.96874 0.0
C688 C 0.64061 0.05973 0.09992 0.0
C689 C 0.63227 0.07605 0.03946 0.0
C690 C 0.66342 0.06147 0.11841 0.0
C691 C 0.67844 0.07994 0.07471 0.0
C692 C 0.66998 0.09688 0.01451 0.0
C693 C 0.64682 0.0949 0.99814 0.0
C694 C 0.67145 0.04323 0.18432 0.0
C695 C 0.68524 0.11705 0.96757 0.0
H696 H 0.72656 0.09334 0.2711 0.0
H697 H 0.7501 0.0331 0.06752 0.0
H698 H 0.68225 0.12948 0.16362 0.0
H699 H 0.67426 0.10773 0.25047 0.0
H700 H 0.69756 0.1298 0.25438 0.0
H701 H 0.73473 0.0354 0.93459 0.0
H702 H 0.70502 0.0296 0.98481 0.0
H703 H 0.71012 0.05927 0.92488 0.0
H704 H 0.62919 0.04549 0.13288 0.0
H705 H 0.64031 0.10757 0.95139 0.0
H706 H 0.67628 0.05551 0.23759 0.0
H707 H 0.68745 0.03011 0.15455 0.0
H708 H 0.65751 0.03011 0.21216 0.0
H709 H 0.68558 0.13484 0.01145 0.0
H710 H 0.67826 0.12414 0.91018 0.0
H711 H 0.70382 0.10839 0.94697 0.0
C712 C 0.51045 0.69713 0.0668 0.0
C713 C 0.4948 0.70547 0.1428 0.0
C714 C 0.50635 0.67458 0.01725 0.0
C715 C 0.48599 0.66042 0.04433 0.0
C716 C 0.46858 0.67115 0.11421 0.0
C717 C 0.47336 0.69338 0.16363 0.0
C718 C 0.52522 0.66403 0.94234 0.0
C719 C 0.44611 0.65744 0.14237 0.0
C720 C 0.48082 0.59851 0.90258 0.0
C721 C 0.49277 0.57836 0.94287 0.0
C722 C 0.47711 0.62523 0.93719 0.0
C723 C 0.48583 0.63189 0.0131 0.0
C724 C 0.49648 0.61123 0.05684 0.0
C725 C 0.49964 0.58475 0.02153 0.0
C726 C 0.46521 0.64642 0.88933 0.0
C727 C 0.50602 0.61732 0.13823 0.0
H728 H 0.52707 0.70644 0.05102 0.0
H729 H 0.46122 0.69998 0.22236 0.0
H730 H 0.53496 0.64563 0.96072 0.0
H731 H 0.5171 0.6583 0.88629 0.0
H732 H 0.53823 0.67912 0.9225 0.0
H733 H 0.43234 0.67121 0.18393 0.0
H734 H 0.43885 0.65018 0.08583 0.0
H735 H 0.45008 0.63965 0.17949 0.0
H736 H 0.4755 0.59381 0.84156 0.0
H737 H 0.50867 0.56928 0.05357 0.0
H738 H 0.47895 0.65593 0.84449 0.0
H739 H 0.45494 0.66251 0.93385 0.0
H740 H 0.45311 0.63737 0.85057 0.0
H741 H 0.52035 0.63123 0.12478 0.0
H742 H 0.5133 0.59883 0.16528 0.0
H743 H 0.4918 0.62753 0.18788 0.0
C744 C 0.82888 0.4377 0.24477 0.0
C745 C 0.84242 0.45486 0.28512 0.0
C746 C 0.83944 0.421 0.17239 0.0
C747 C 0.86414 0.42116 0.14144 0.0
C748 C 0.87763 0.43909 0.18099 0.0
C749 C 0.86649 0.45595 0.25073 0.0
C750 C 0.82407 0.403 0.13142 0.0
C751 C 0.90406 0.44033 0.15122 0.0
C752 C 0.91138 0.37013 0.04403 0.0
C753 C 0.92205 0.386 0.97861 0.0
C754 C 0.88886 0.37849 0.09143 0.0
C755 C 0.87688 0.40251 0.07007 0.0
C756 C 0.88458 0.41343 0.98957 0.0
C757 C 0.90745 0.40532 0.9448 0.0
C758 C 0.88019 0.36478 0.17323 0.0
C759 C 0.87091 0.43727 0.95974 0.0
H760 H 0.81017 0.43692 0.27052 0.0
H761 H 0.87686 0.46999 0.27918 0.0
H762 H 0.83196 0.39657 0.06401 0.0
H763 H 0.82154 0.38472 0.16929 0.0
H764 H 0.80622 0.41344 0.1325 0.0
H765 H 0.91193 0.45437 0.19249 0.0
H766 H 0.91343 0.42005 0.15178 0.0
H767 H 0.90758 0.44723 0.08456 0.0
H768 H 0.92192 0.3538 0.06665 0.0
H769 H 0.9148 0.41704 0.89149 0.0
H770 H 0.86062 0.36419 0.18367 0.0
H771 H 0.88476 0.37638 0.22852 0.0
H772 H 0.88852 0.34385 0.17205 0.0
H773 H 0.85152 0.43652 0.98165 0.0
H774 H 0.8747 0.43796 0.88852 0.0
H775 H 0.87636 0.4562 0.98706 0.0
C776 C 0.03002 0.21508 0.9713 0.0
C777 C 0.02413 0.2162 0.06129 0.0
C778 C 0.03404 0.18998 0.92416 0.0
C779 C 0.03164 0.16558 0.9681 0.0
C780 C 0.02708 0.16677 0.05913 0.0
C781 C 0.02383 0.19192 0.10419 0.0
C782 C 0.03971 0.18963 0.82733 0.0
C783 C 0.02402 0.14154 0.10928 0.0
C784 C 1.01011 0.10349 0.86669 0.0
C785 C 0.03042 0.08529 0.85454 0.0
C786 C 1.01052 0.12999 0.90043 0.0
C787 C 0.03193 0.13891 0.92045 0.0
C788 C 0.05282 0.12108 0.90371 0.0
C789 C 0.05174 0.0944 0.87229 0.0
C790 C 0.98767 0.14797 0.91887 0.0
C791 C 0.07618 0.12991 0.92145 0.0
H792 H 0.03032 0.23373 0.93769 0.0
H793 H 1.01977 0.19269 0.17377 0.0
H794 H 0.05433 0.17401 0.8023 0.0
H795 H 0.02391 0.18444 0.80042 0.0
H796 H 0.04486 0.20952 0.80373 0.0
H797 H 0.02159 0.14582 0.17981 0.0
H798 H 1.00825 0.13182 0.09488 0.0
H799 H 0.03964 0.12679 0.0899 0.0
H800 H 0.99355 0.09668 0.85325 0.0
H801 H 0.06761 0.08061 0.86201 0.0
H802 H 0.99012 0.16749 0.88793 0.0
H803 H 0.98261 0.15246 0.98921 0.0
H804 H 0.97281 0.13856 0.89578 0.0
H805 H 0.07945 0.14994 0.8949 0.0
H806 H 0.09133 0.11524 0.89351 0.0
H807 H 0.07561 0.13201 0.99188 0.0
C808 C 0.33419 0.00806 0.06398 0.0
C809 C 0.33428 1.00257 0.15054 0.0
C810 C 0.35555 0.01243 0.00736 0.0
C811 C 0.37762 0.01069 0.03727 0.0
C812 C 0.37749 0.00646 0.12548 0.0
C813 C 0.35599 1.00307 0.18064 0.0
C814 C 0.35455 0.01812 0.91493 0.0
C815 C 0.40028 1.00386 0.16127 0.0
C816 C 0.43652 0.98909 0.88655 0.0
C817 C 0.44845 0.01277 0.88466 0.0
C818 C 0.41327 0.98831 0.93361 0.0
C819 C 0.40107 0.01208 0.97721 0.0
C820 C 0.41261 0.03644 0.97095 0.0
C821 C 0.43627 0.03634 0.92678 0.0
C822 C 0.40229 0.96163 0.94042 0.0
C823 C 0.40018 0.06254 0.013 0.0
H824 H 0.31767 0.0079 0.03967 0.0
H825 H 0.35635 0.99962 0.24778 0.0
H826 H 0.36547 0.03502 0.89395 0.0
H827 H 0.362 1.00008 0.87314 0.0
H828 H 0.33608 0.02324 0.90491 0.0
H829 H 0.39702 1.00299 0.23243 0.0
H830 H 0.41099 0.98514 0.13336 0.0
H831 H 0.41109 0.02104 0.14345 0.0
H832 H 0.44585 0.97075 0.85467 0.0
H833 H 0.44528 0.05479 0.92503 0.0
H834 H 0.38467 0.96342 0.92052 0.0
H835 H 0.39948 0.9558 0.00841 0.0
H836 H 0.41359 0.94522 0.90021 0.0
H837 H 0.38194 0.06535 0.99839 0.0
H838 H 0.40994 0.08028 0.99146 0.0
H839 H 0.39855 0.0619 0.08384 0.0
C840 C 0.5007 0.34399 0.20197 0.0
C841 C 0.51962 0.324 0.18273 0.0
C842 C 0.49882 0.36593 0.14902 0.0
C843 C 0.51644 0.3681 0.07527 0.0
C844 C 0.53464 0.3469 0.05224 0.0
C845 C 0.53606 0.32512 0.10651 0.0
C846 C 0.47904 0.38786 0.17605 0.0
C847 C 0.55371 0.34826 0.97403 0.0
C848 C 0.50646 0.42283 0.91782 0.0
C849 C 0.51925 0.44357 0.94495 0.0
C850 C 0.50555 0.39806 0.95871 0.0
C851 C 0.51748 0.39396 0.02914 0.0
C852 C 0.53024 0.41492 0.05716 0.0
C853 C 0.53107 0.4393 0.01457 0.0
C854 C 0.49202 0.3762 0.92601 0.0
C855 C 0.54312 0.41157 0.13226 0.0
H856 H 0.48825 0.3434 0.26181 0.0
H857 H 0.55099 0.31001 0.09257 0.0
H858 H 0.48645 0.4061 0.19968 0.0
H859 H 0.47062 0.39363 0.12051 0.0
H860 H 0.46516 0.38158 0.22805 0.0
H861 H 0.56451 0.3287 0.9581 0.0
H862 H 0.54579 0.35414 0.91748 0.0
H863 H 0.56571 0.36393 0.98613 0.0
H864 H 0.49757 0.42569 0.86324 0.0
H865 H 0.54104 0.4551 0.03604 0.0
H866 H 0.47792 0.3706 0.97827 0.0
H867 H 0.50414 0.35782 0.90582 0.0
H868 H 0.48371 0.3825 0.87059 0.0
H869 H 0.53038 0.40751 0.19083 0.0
H870 H 0.55229 0.42971 0.14596 0.0
H871 H 0.55648 0.39396 0.11902 0.0
C872 C 0.18898 0.53671 1.00051 0.0
C873 C 0.20596 0.51576 0.011 0.0
C874 C 0.16894 0.53176 0.96425 0.0
C875 C 0.16586 0.50523 0.9353 0.0
C876 C 0.18385 0.48434 0.93925 0.0
C877 C 0.20362 0.48979 0.97754 0.0
C878 C 0.15036 0.55474 0.96158 0.0
C879 C 0.18167 0.45598 0.90631 0.0
C880 C 0.10141 0.48901 0.95025 0.0
C881 C 0.0971 0.49359 0.86694 0.0
C882 C 0.12384 0.49194 0.97224 0.0
C883 C 0.14279 0.49919 0.90918 0.0
C884 C 0.13884 0.50284 0.82398 0.0
C885 C 0.11601 0.50033 0.80419 0.0
C886 C 0.12694 0.48848 0.06433 0.0
C887 C 0.1584 0.51035 0.75412 0.0
H888 H 0.19091 0.55703 0.02396 0.0
H889 H 0.21661 0.47347 0.98482 0.0
H890 H 0.14669 0.55652 0.89531 0.0
H891 H 0.13348 0.55061 0.00337 0.0
H892 H 0.15583 0.57439 0.98354 0.0
H893 H 0.19831 0.44284 0.90408 0.0
H894 H 0.16708 0.44699 0.94873 0.0
H895 H 0.17712 0.45622 0.84087 0.0
H896 H 0.08698 0.484 0.99958 0.0
H897 H 0.11296 0.50401 0.73964 0.0
H898 H 0.13118 0.5079 0.09241 0.0
H899 H 0.14202 0.47343 0.06698 0.0
H900 H 0.11077 0.48184 0.10495 0.0
H901 H 0.16007 0.5324 0.75949 0.0
H902 H 0.15458 0.50541 0.68909 0.0
H903 H 0.17574 0.49987 0.76022 0.0
C904 C 0.02534 0.79343 0.57162 0.0
C905 C 1.00206 0.78607 0.57607 0.0
C906 C 0.02982 0.81892 0.60454 0.0
C907 C 1.01055 0.83745 0.64253 0.0
C908 C 0.98715 0.82921 0.65274 0.0
C909 C 0.98321 0.80372 0.61922 0.0
C910 C 0.05507 0.82666 0.59358 0.0
C911 C 0.96608 0.84805 0.69359 0.0
C912 C 1.01969 0.90176 0.76828 0.0
C913 C 1.01875 0.92148 0.70687 0.0
C914 C 1.01775 0.8743 0.74788 0.0
C915 C 1.01448 0.8662 0.66422 0.0
C916 C 1.01383 0.88593 0.60165 0.0
C917 C 1.01603 0.91322 0.62359 0.0
C918 C 1.01862 0.85413 0.81678 0.0
C919 C 1.01046 0.87825 0.51153 0.0
H920 H 0.03992 0.7801 0.53692 0.0
H921 H 0.96516 0.79821 0.62178 0.0
H922 H 0.05778 0.84215 0.54466 0.0
H923 H 0.05866 0.83566 0.65474 0.0
H924 H 0.06814 0.80908 0.57259 0.0
H925 H 0.94929 0.83785 0.70335 0.0
H926 H 0.96888 0.85642 0.75665 0.0
H927 H 0.96409 0.86529 0.65193 0.0
H928 H 0.02183 0.90775 0.8329 0.0
H929 H 1.01534 0.92813 0.57546 0.0
H930 H 0.0262 0.86237 0.87137 0.0
H931 H 0.02932 0.83526 0.79048 0.0
H932 H 1.00035 0.84878 0.8419 0.0
H933 H 0.02463 0.86272 0.48167 0.0
H934 H 1.01082 0.89581 0.46978 0.0
H935 H 0.99323 0.86929 0.51364 0.0
C936 C 0.71208 1.00118 0.49604 0.0
C937 C 0.71422 1.00182 0.40632 0.0
C938 C 0.68983 0.99815 0.54892 0.0
C939 C 0.66911 0.99622 0.51153 0.0
C940 C 0.67161 0.99529 0.42067 0.0
C941 C 0.69398 0.99778 0.36976 0.0
C942 C 0.6883 0.99834 0.64511 0.0
C943 C 0.65034 0.99376 0.37673 0.0
C944 C 0.60921 0.97499 0.62889 0.0
C945 C 0.59633 0.99999 0.65355 0.0
C946 C 0.63322 0.97338 0.58699 0.0
C947 C 0.64459 0.99734 0.56616 0.0
C948 C 0.63165 0.02261 0.59148 0.0
C949 C 0.60797 0.0236 0.63581 0.0
C950 C 0.64631 0.946 0.56355 0.0
C951 C 0.64252 0.04874 0.56884 0.0
H952 H 0.72744 1.00452 0.52518 0.0
H953 H 0.69538 0.99828 0.30051 0.0
H954 H 0.67937 0.01783 0.67437 0.0
H955 H 0.67751 0.98206 0.67266 0.0
H956 H 0.70613 0.99572 0.66354 0.0
H957 H 0.6556 0.98929 0.30638 0.0
H958 H 0.63891 0.97805 0.4042 0.0
H959 H 0.63949 0.01339 0.38712 0.0
H960 H 0.60055 0.95659 0.64279 0.0
H961 H 0.59824 0.04305 0.65393 0.0
H962 H 0.66367 0.94506 0.58569 0.0
H963 H 0.65001 0.94254 0.49263 0.0
H964 H 0.63601 0.92943 0.59204 0.0
H965 H 0.65925 0.04971 0.59456 0.0
H966 H 0.6304 0.06673 0.59448 0.0
H967 H 0.64707 0.04967 0.49788 0.0
C968 C 0.54767 0.68838 0.40211 0.0
C969 C 0.52564 0.70343 0.41308 0.0
C970 C 0.55126 0.66619 0.45281 0.0
C971 C 0.53238 0.65894 0.51621 0.0
C972 C 0.51069 0.67543 0.53176 0.0
C973 C 0.5075 0.69727 0.47935 0.0
C974 C 0.57462 0.64922 0.43364 0.0
C975 C 0.49019 0.66882 0.59939 0.0
C976 C 0.52688 0.58464 0.56206 0.0
C977 C 0.53511 0.5825 0.6403 0.0
C978 C 0.52653 0.60917 0.52029 0.0
C979 C 0.53417 0.63246 0.55829 0.0
C980 C 0.54272 0.63038 0.63695 0.0
C981 C 0.54328 0.60541 0.6766 0.0
C982 C 0.51753 0.61026 0.43604 0.0
C983 C 0.55054 0.65474 0.68073 0.0
H984 H 0.5615 0.69272 0.34952 0.0
H985 H 0.49031 0.70855 0.48672 0.0
H986 H 0.58119 0.64465 0.49399 0.0
H987 H 0.57206 0.62968 0.40186 0.0
H988 H 0.58842 0.65932 0.39068 0.0
H989 H 0.47594 0.68558 0.61197 0.0
H990 H 0.4825 0.65052 0.57767 0.0
H991 H 0.49633 0.66434 0.66059 0.0
H992 H 0.52054 0.56708 0.53353 0.0
H993 H 0.54929 0.60409 0.73779 0.0
H994 H 0.531 0.61814 0.38594 0.0
H995 H 0.50128 0.6243 0.44351 0.0
H996 H 0.51327 0.59015 0.41302 0.0
H997 H 0.55827 0.64945 0.73834 0.0
H998 H 0.53509 0.6697 0.70105 0.0
H999 H 0.56386 0.66465 0.63538 0.0
C1000 C 0.85114 0.50445 0.63999 0.0
C1001 C 0.85694 0.50157 0.54997 0.0
C1002 C 0.86901 0.50698 0.69062 0.0
C1003 C 0.89321 0.50637 0.65028 0.0
C1004 C 0.89891 0.5046 0.55939 0.0
C1005 C 0.88079 0.50263 0.51081 0.0
C1006 C 0.86209 0.50943 0.78723 0.0
C1007 C 0.92434 0.50371 0.51301 0.0
C1008 C 0.94463 0.52958 0.75082 0.0
C1009 C 0.95593 0.5049 0.76848 0.0
C1010 C 0.92319 0.53058 0.71839 0.0
C1011 C 0.91296 0.5063 0.70145 0.0
C1012 C 0.92369 0.48146 0.72307 0.0
C1013 C 0.94487 0.48109 0.75678 0.0
C1014 C 0.91209 0.55757 0.69855 0.0
C1015 C 0.91367 0.45501 0.70557 0.0
H1016 H 0.83281 0.50375 0.67091 0.0
H1017 H 0.88545 0.50116 0.44124 0.0
H1018 H 0.86802 0.49049 0.81517 0.0
H1019 H 0.87098 0.52603 0.81387 0.0
H1020 H 0.84258 0.51325 0.8082 0.0
H1021 H 0.92577 0.50248 0.44196 0.0
H1022 H 0.9327 0.52195 0.53122 0.0
H1023 H 0.9347 0.48591 0.5322 0.0
H1024 H 0.9528 0.54815 0.7605 0.0
H1025 H 0.95329 0.46188 0.77043 0.0
H1026 H 0.89266 0.55915 0.72256 0.0
H1027 H 0.91481 0.55955 0.6279 0.0
H1028 H 0.91992 0.57465 0.72749 0.0
H1029 H 0.89442 0.45603 0.73227 0.0
H1030 H 0.9227 0.43779 0.73338 0.0
H1031 H 0.91573 0.45096 0.63506 0.0
loop_
_geom_bond_atom_site_label_1
_geom_bond_atom_site_label_2
_geom_bond_distance
_geom_bond_site_symmetry_2
_ccdc_geom_bond_type
H0 C7 0.929 . S
H1 C10 0.930 . S
H2 C12 0.929 . S
H3 C4 0.969 . S
C4 H3 0.969 . S
C4 O5 1.550 . S
C4 H6 0.973 . S
O5 C4 1.550 . S
O5 C11 1.412 . S
H6 C4 0.973 . S
C7 H0 0.929 . S
C7 C8 1.400 . S
C7 C9 1.364 . S
C8 C7 1.400 . S
C8 C12 1.377 . S
C9 C7 1.364 . S
C9 C10 1.374 . S
C10 H1 0.930 . S
C10 C9 1.374 . S
C10 C11 1.383 . S
C11 O5 1.412 . S
C11 C10 1.383 . S
C11 C12 1.394 . S
C12 H2 0.929 . S
C12 C8 1.377 . S
C12 C11 1.394 . S
H13 C20 0.929 . S
H14 C23 0.930 . S
H15 C25 0.929 . S
H16 C17 0.969 1_455 S
C17 H16 0.969 1_655 S
C17 O18 1.550 . S
C17 H19 0.973 . S
O18 C17 1.550 . S
O18 C24 1.412 . S
H19 C17 0.973 . S
C20 H13 0.929 . S
C20 C21 1.400 . S
C20 C22 1.364 . S
C21 C20 1.400 . S
C21 C25 1.377 . S
C22 C20 1.364 . S
C22 C23 1.374 . S
C23 H14 0.930 . S
C23 C22 1.374 . S
C23 C24 1.383 . S
C24 O18 1.412 . S
C24 C23 1.383 . S
C24 C25 1.394 . S
C25 H15 0.929 . S
C25 C21 1.377 . S
C25 C24 1.394 . S
H26 C33 0.928 1_565 S
H27 C36 0.930 . S
H28 C38 0.929 1_565 S
H29 C30 0.969 . S
C30 H29 0.969 . S
C30 O31 1.550 1_545 S
C30 H32 0.973 1_545 S
O31 C30 1.550 1_565 S
O31 C37 1.407 1_565 S
H32 C30 0.973 1_565 S
C33 H26 0.928 1_545 S
C33 C34 1.399 . S
C33 C35 1.364 . S
C34 C33 1.399 . S
C34 C38 1.378 . S
C35 C33 1.364 . S
C35 C36 1.375 1_545 S
C36 H27 0.930 . S
C36 C35 1.375 1_565 S
C36 C37 1.382 1_565 S
C37 O31 1.407 1_545 S
C37 C36 1.382 1_545 S
C37 C38 1.392 . S
C38 H28 0.929 1_545 S
C38 C34 1.378 . S
C38 C37 1.392 . S
H39 C46 0.929 . S
H40 C49 0.930 . S
H41 C51 0.929 . S
H42 C43 0.969 . S
C43 H42 0.969 . S
C43 O44 1.550 . S
C43 H45 0.973 . S
O44 C43 1.550 . S
O44 C50 1.412 . S
H45 C43 0.973 . S
C46 H39 0.929 . S
C46 C47 1.400 . S
C46 C48 1.364 . S
C47 C46 1.400 . S
C47 C51 1.377 . S
C48 C46 1.364 . S
C48 C49 1.374 . S
C49 H40 0.930 . S
C49 C48 1.374 . S
C49 C50 1.383 . S
C50 O44 1.412 . S
C50 C49 1.383 . S
C50 C51 1.394 . S
C51 H41 0.929 . S
C51 C47 1.377 . S
C51 C50 1.394 . S
H52 C59 0.929 . S
H53 C62 0.930 . S
H54 C64 0.929 . S
H55 C56 0.969 . S
C56 H55 0.969 . S
C56 O57 1.550 1_554 S
C56 H58 0.973 . S
O57 C56 1.550 1_556 S
O57 C63 1.412 . S
H58 C56 0.973 . S
C59 H52 0.929 . S
C59 C60 1.400 . S
C59 C61 1.364 1_556 S
C60 C59 1.400 . S
C60 C64 1.377 . S
C61 C59 1.364 1_554 S
C61 C62 1.374 . S
C62 H53 0.930 . S
C62 C61 1.374 . S
C62 C63 1.383 1_554 S
C63 O57 1.412 . S
C63 C62 1.383 1_556 S
C63 C64 1.394 . S
C64 H54 0.929 . S
C64 C60 1.377 . S
C64 C63 1.394 . S
H65 C72 0.929 . S
H66 C75 0.930 . S
H67 C77 0.929 1_556 S
H68 C69 0.969 . S
C69 H68 0.969 . S
C69 O70 1.550 . S
C69 H71 0.973 . S
O70 C69 1.550 . S
O70 C76 1.412 . S
H71 C69 0.973 . S
C72 H65 0.929 . S
C72 C73 1.400 . S
C72 C74 1.364 . S
C73 C72 1.400 . S
C73 C77 1.377 . S
C74 C72 1.364 . S
C74 C75 1.374 . S
C75 H66 0.930 . S
C75 C74 1.374 . S
C75 C76 1.383 . S
C76 O70 1.412 . S
C76 C75 1.383 . S
C76 C77 1.394 . S
C77 H67 0.929 1_554 S
C77 C73 1.377 . S
C77 C76 1.394 . S
H78 C85 0.929 1_565 S
H79 C88 0.927 . S
H80 C90 0.928 1_565 S
H81 C82 0.969 . S
C82 H81 0.969 . S
C82 O83 1.550 1_545 S
C82 H84 0.973 1_545 S
O83 C82 1.550 1_565 S
O83 C89 1.399 1_565 S
H84 C82 0.973 1_565 S
C85 H78 0.929 1_545 S
C85 C86 1.400 . S
C85 C87 1.364 . S
C86 C85 1.400 . S
C86 C90 1.376 . S
C87 C85 1.364 . S
C87 C88 1.374 1_545 S
C88 H79 0.927 . S
C88 C87 1.374 1_565 S
C88 C89 1.382 1_565 S
C89 O83 1.399 1_545 S
C89 C88 1.382 1_545 S
C89 C90 1.396 . S
C90 H80 0.928 1_545 S
C90 C86 1.376 . S
C90 C89 1.396 . S
H91 C98 0.929 . S
H92 C101 0.930 . S
H93 C103 0.929 . S
H94 C95 0.969 . S
C95 H94 0.969 . S
C95 O96 1.550 . S
C95 H97 0.973 . S
O96 C95 1.550 . S
O96 C102 1.412 . S
H97 C95 0.973 . S
C98 H91 0.929 . S
C98 C99 1.400 . S
C98 C100 1.364 . S
C99 C98 1.400 . S
C99 C103 1.377 . S
C100 C98 1.364 . S
C100 C101 1.374 . S
C101 H92 0.930 . S
C101 C100 1.374 . S
C101 C102 1.383 . S
C102 O96 1.412 . S
C102 C101 1.383 . S
C102 C103 1.394 . S
C103 H93 0.929 . S
C103 C99 1.377 . S
C103 C102 1.394 . S
Dy104 O107 2.307 1_545 S
Dy104 O109 2.395 1_655 S
Dy104 O110 2.379 . S
Dy104 O112 2.339 . S
Dy104 O114 2.298 . S
Dy104 O118 2.275 1_655 S
Dy104 C126 2.738 . S
Dy105 O108 2.298 . S
Dy105 O111 2.275 1_455 S
Dy105 O113 2.307 1_565 S
Dy105 O115 2.395 1_455 S
Dy105 O116 2.379 . S
Dy105 O119 2.339 . S
Dy105 C135 2.738 . S
C106 O118 1.254 1_565 S
C106 O119 1.257 . S
O107 Dy104 2.307 1_565 S
O107 C117 1.266 . S
O108 Dy105 2.298 . S
O108 C117 1.236 1_455 S
O109 Dy104 2.395 1_455 S
O109 C126 1.255 1_455 S
O110 Dy104 2.379 . S
O110 C126 1.249 . S
O111 Dy105 2.275 1_655 S
O111 C127 1.254 1_565 S
O112 Dy104 2.339 . S
O112 C127 1.257 . S
O113 Dy105 2.307 1_545 S
O113 C128 1.266 . S
O114 Dy104 2.298 . S
O114 C128 1.236 1_655 S
O115 Dy105 2.395 1_655 S
O115 C135 1.255 1_655 S
O116 Dy105 2.379 . S
O116 C135 1.249 . S
C117 O107 1.266 . S
C117 O108 1.236 1_655 S
O118 Dy104 2.275 1_455 S
O118 C106 1.254 1_545 S
O119 Dy105 2.339 . S
O119 C106 1.257 . S
C120 C123 1.344 1_655 S
C120 C124 1.328 . S
C120 C126 1.516 . S
C121 C122 1.304 1_655 S
C121 C125 1.323 . S
C122 C121 1.304 1_455 S
C122 C123 1.371 . S
C122 H136 0.930 . S
C123 C120 1.344 1_455 S
C123 C122 1.371 . S
C123 H137 0.931 . S
C124 C120 1.328 . S
C124 C125 1.433 . S
C124 H138 0.931 . S
C125 C121 1.323 . S
C125 C124 1.433 . S
C125 H139 0.933 . S
C126 Dy104 2.738 . S
C126 O109 1.255 1_655 S
C126 O110 1.249 . S
C126 C120 1.516 . S
C127 O111 1.254 1_545 S
C127 O112 1.257 . S
C128 O113 1.266 . S
C128 O114 1.236 1_455 S
C129 C132 1.344 1_455 S
C129 C133 1.328 . S
C129 C135 1.516 1_554 S
C130 C131 1.304 1_455 S
C130 C134 1.323 . S
C131 C130 1.304 1_655 S
C131 C132 1.371 . S
C131 H140 0.930 . S
C132 C129 1.344 1_655 S
C132 C131 1.371 . S
C132 H141 0.931 . S
C133 C129 1.328 . S
C133 C134 1.433 . S
C133 H142 0.931 . S
C134 C130 1.323 . S
C134 C133 1.433 . S
C134 H143 0.933 . S
C135 Dy105 2.738 . S
C135 O115 1.255 1_455 S
C135 O116 1.249 . S
C135 C129 1.516 1_556 S
H136 C122 0.930 . S
H137 C123 0.931 . S
H138 C124 0.931 . S
H139 C125 0.933 . S
H140 C131 0.930 . S
H141 C132 0.931 . S
H142 C133 0.931 . S
H143 C134 0.933 . S
Dy144 O147 2.307 . S
Dy144 O149 2.395 1_565 S
Dy144 O150 2.379 . S
Dy144 O152 2.339 . S
Dy144 O154 2.298 . S
Dy144 O158 2.275 1_565 S
Dy144 C166 2.738 . S
Dy145 O148 2.298 . S
Dy145 O151 2.275 1_545 S
Dy145 O153 2.307 . S
Dy145 O155 2.395 1_545 S
Dy145 O156 2.379 . S
Dy145 O159 2.339 . S
Dy145 C175 2.738 . S
C146 O158 1.254 . S
C146 O159 1.257 . S
O147 Dy144 2.307 . S
O147 C157 1.266 . S
O148 Dy145 2.298 . S
O148 C157 1.236 1_545 S
O149 Dy144 2.395 1_545 S
O149 C166 1.255 1_545 S
O150 Dy144 2.379 . S
O150 C166 1.249 . S
O151 Dy145 2.275 1_565 S
O151 C167 1.254 . S
O152 Dy144 2.339 . S
O152 C167 1.257 . S
O153 Dy145 2.307 . S
O153 C168 1.266 . S
O154 Dy144 2.298 . S
O154 C168 1.236 1_565 S
O155 Dy145 2.395 1_565 S
O155 C175 1.255 1_565 S
O156 Dy145 2.379 . S
O156 C175 1.249 . S
C157 O147 1.266 . S
C157 O148 1.236 1_565 S
O158 Dy144 2.275 1_545 S
O158 C146 1.254 . S
O159 Dy145 2.339 . S
O159 C146 1.257 . S
C160 C163 1.344 1_565 S
C160 C164 1.328 . S
C160 C166 1.516 . S
C161 C162 1.304 1_565 S
C161 C165 1.323 . S
C162 C161 1.304 1_545 S
C162 C163 1.371 . S
C162 H176 0.930 . S
C163 C160 1.344 1_545 S
C163 C162 1.371 . S
C163 H177 0.931 . S
C164 C160 1.328 . S
C164 C165 1.433 . S
C164 H178 0.931 . S
C165 C161 1.323 . S
C165 C164 1.433 . S
C165 H179 0.933 . S
C166 Dy144 2.738 . S
C166 O149 1.255 1_565 S
C166 O150 1.249 . S
C166 C160 1.516 . S
C167 O151 1.254 . S
C167 O152 1.257 . S
C168 O153 1.266 . S
C168 O154 1.236 1_545 S
C169 C172 1.344 1_546 S
C169 C173 1.328 1_556 S
C169 C175 1.516 . S
C170 C171 1.304 1_545 S
C170 C174 1.323 . S
C171 C170 1.304 1_565 S
C171 C172 1.371 . S
C171 H180 0.930 . S
C172 C169 1.344 1_564 S
C172 C171 1.371 . S
C172 H181 0.931 1_554 S
C173 C169 1.328 1_554 S
C173 C174 1.433 . S
C173 H182 0.931 . S
C174 C170 1.323 . S
C174 C173 1.433 . S
C174 H183 0.933 . S
C175 Dy145 2.738 . S
C175 O155 1.255 1_545 S
C175 O156 1.249 . S
C175 C169 1.516 . S
H176 C162 0.930 . S
H177 C163 0.931 . S
H178 C164 0.931 . S
H179 C165 0.933 . S
H180 C171 0.930 . S
H181 C172 0.931 1_556 S
H182 C173 0.931 . S
H183 C174 0.933 . S
Dy184 O187 2.307 . S
Dy184 O189 2.395 . S
Dy184 O190 2.379 . S
Dy184 O192 2.339 . S
Dy184 O194 2.298 . S
Dy184 O198 2.275 . S
Dy184 C206 2.738 . S
Dy185 O188 2.298 . S
Dy185 O191 2.275 . S
Dy185 O193 2.307 . S
Dy185 O195 2.395 . S
Dy185 O196 2.379 . S
Dy185 O199 2.339 . S
Dy185 C215 2.738 . S
C186 O198 1.254 . S
C186 O199 1.257 . S
O187 Dy184 2.307 . S
O187 C197 1.266 . S
O188 Dy185 2.298 . S
O188 C197 1.236 . S
O189 Dy184 2.395 . S
O189 C206 1.255 . S
O190 Dy184 2.379 . S
O190 C206 1.249 . S
O191 Dy185 2.275 . S
O191 C207 1.254 . S
O192 Dy184 2.339 . S
O192 C207 1.257 . S
O193 Dy185 2.307 . S
O193 C208 1.266 . S
O194 Dy184 2.298 . S
O194 C208 1.236 . S
O195 Dy185 2.395 . S
O195 C215 1.255 . S
O196 Dy185 2.379 . S
O196 C215 1.249 . S
C197 O187 1.266 . S
C197 O188 1.236 . S
O198 Dy184 2.275 . S
O198 C186 1.254 . S
O199 Dy185 2.339 . S
O199 C186 1.257 . S
C200 C203 1.344 1_556 S
C200 C204 1.328 . S
C200 C206 1.516 . S
C201 C202 1.304 . S
C201 C205 1.323 1_554 S
C202 C201 1.304 . S
C202 C203 1.371 . S
C202 H216 0.930 . S
C203 C200 1.344 1_554 S
C203 C202 1.371 . S
C203 H217 0.931 . S
C204 C200 1.328 . S
C204 C205 1.433 . S
C204 H218 0.931 . S
C205 C201 1.323 1_556 S
C205 C204 1.433 . S
C205 H219 0.933 . S
C206 Dy184 2.738 . S
C206 O189 1.255 . S
C206 O190 1.249 . S
C206 C200 1.516 . S
C207 O191 1.254 . S
C207 O192 1.257 . S
C208 O193 1.266 . S
C208 O194 1.236 . S
C209 C212 1.344 . S
C209 C213 1.328 . S
C209 C215 1.516 . S
C210 C211 1.304 . S
C210 C214 1.323 . S
C211 C210 1.304 . S
C211 C212 1.371 . S
C211 H220 0.930 . S
C212 C209 1.344 . S
C212 C211 1.371 . S
C212 H221 0.931 . S
C213 C209 1.328 . S
C213 C214 1.433 . S
C213 H222 0.931 . S
C214 C210 1.323 . S
C214 C213 1.433 . S
C214 H223 0.933 . S
C215 Dy185 2.738 . S
C215 O195 1.255 . S
C215 O196 1.249 . S
C215 C209 1.516 . S
H216 C202 0.930 . S
H217 C203 0.931 . S
H218 C204 0.931 . S
H219 C205 0.933 . S
H220 C211 0.930 . S
H221 C212 0.931 . S
H222 C213 0.931 . S
H223 C214 0.933 . S
Dy224 O227 2.307 1_455 S
Dy224 O229 2.395 . S
Dy224 O230 2.379 . S
Dy224 O232 2.339 . S
Dy224 O234 2.298 . S
Dy224 O238 2.275 . S
Dy224 C246 2.738 . S
Dy225 O228 2.298 . S
Dy225 O231 2.275 . S
Dy225 O233 2.307 1_655 S
Dy225 O235 2.395 . S
Dy225 O236 2.379 . S
Dy225 O239 2.339 . S
Dy225 C255 2.738 . S
C226 O238 1.253 . S
C226 O239 1.258 1_455 S
O227 Dy224 2.307 1_655 S
O227 C237 1.266 . S
O228 Dy225 2.298 . S
O228 C237 1.236 . S
O229 Dy224 2.395 . S
O229 C246 1.255 . S
O230 Dy224 2.379 . S
O230 C246 1.249 . S
O231 Dy225 2.275 . S
O231 C247 1.254 1_655 S
O232 Dy224 2.339 . S
O232 C247 1.257 . S
O233 Dy225 2.307 1_455 S
O233 C248 1.266 . S
O234 Dy224 2.298 . S
O234 C248 1.236 . S
O235 Dy225 2.395 . S
O235 C255 1.255 . S
O236 Dy225 2.379 . S
O236 C255 1.249 . S
C237 O227 1.266 . S
C237 O228 1.236 . S
O238 Dy224 2.275 . S
O238 C226 1.253 . S
O239 Dy225 2.339 . S
O239 C226 1.258 1_655 S
C240 C243 1.344 . S
C240 C244 1.328 . S
C240 C246 1.516 . S
C241 C242 1.304 . S
C241 C245 1.323 . S
C242 C241 1.304 . S
C242 C243 1.371 . S
C242 H256 0.930 . S
C243 C240 1.344 . S
C243 C242 1.371 . S
C243 H257 0.931 . S
C244 C240 1.328 . S
C244 C245 1.433 . S
C244 H258 0.931 . S
C245 C241 1.323 . S
C245 C244 1.433 . S
C245 H259 0.933 . S
C246 Dy224 2.738 . S
C246 O229 1.255 . S
C246 O230 1.249 . S
C246 C240 1.516 . S
C247 O231 1.254 1_455 S
C247 O232 1.257 . S
C248 O233 1.266 . S
C248 O234 1.236 . S
C249 C252 1.344 . S
C249 C253 1.328 . S
C249 C255 1.516 1_554 S
C250 C251 1.304 . S
C250 C254 1.323 . S
C251 C250 1.304 . S
C251 C252 1.371 . S
C251 H260 0.930 . S
C252 C249 1.344 . S
C252 C251 1.371 . S
C252 H261 0.931 . S
C253 C249 1.328 . S
C253 C254 1.433 . S
C253 H262 0.931 . S
C254 C250 1.323 . S
C254 C253 1.433 . S
C254 H263 0.933 . S
C255 Dy225 2.738 . S
C255 O235 1.255 . S
C255 O236 1.249 . S
C255 C249 1.516 1_556 S
H256 C242 0.930 . S
H257 C243 0.931 . S
H258 C244 0.931 . S
H259 C245 0.933 . S
H260 C251 0.930 . S
H261 C252 0.931 . S
H262 C253 0.931 . S
H263 C254 0.933 . S
C264 C265 1.391 . S
C264 C266 1.394 . S
C264 H280 0.931 . S
C265 C264 1.391 . S
C265 C269 1.376 1_565 S
C266 C264 1.394 . S
C266 C267 1.369 . S
C266 C270 1.531 . S
C267 C266 1.369 . S
C267 C268 1.410 1_565 S
C267 C275 1.503 . S
C268 C267 1.410 1_545 S
C268 C269 1.392 . S
C268 C271 1.511 . S
C269 C265 1.376 1_545 S
C269 C268 1.392 . S
C269 H281 0.929 . S
C270 C266 1.531 . S
C270 H282 0.960 . S
C270 H283 0.962 . S
C270 H284 0.960 . S
C271 C268 1.511 . S
C271 H285 0.961 . S
C271 H286 0.961 . S
C271 H287 0.961 . S
C272 C273 1.379 . S
C272 C274 1.363 . S
C272 H288 0.931 . S
C273 C272 1.379 . S
C273 C277 1.399 1_545 S
C274 C272 1.363 . S
C274 C275 1.370 1_545 S
C274 C278 1.524 . S
C275 C267 1.503 . S
C275 C274 1.370 1_565 S
C275 C276 1.403 . S
C276 C275 1.403 . S
C276 C277 1.404 . S
C276 C279 1.539 . S
C277 C273 1.399 1_565 S
C277 C276 1.404 . S
C277 H289 0.930 . S
C278 C274 1.524 . S
C278 H290 0.956 . S
C278 H291 0.961 . S
C278 H292 0.961 . S
C279 C276 1.539 . S
C279 H293 0.958 . S
C279 H294 0.961 . S
C279 H295 0.960 . S
H280 C264 0.931 . S
H281 C269 0.929 . S
H282 C270 0.960 . S
H283 C270 0.962 . S
H284 C270 0.960 . S
H285 C271 0.961 . S
H286 C271 0.961 . S
H287 C271 0.961 . S
H288 C272 0.931 . S
H289 C277 0.930 . S
H290 C278 0.956 . S
H291 C278 0.961 . S
H292 C278 0.961 . S
H293 C279 0.958 . S
H294 C279 0.961 . S
H295 C279 0.960 . S
C296 C297 1.391 . S
C296 C298 1.394 . S
C296 H312 0.931 . S
C297 C296 1.391 . S
C297 C301 1.376 . S
C298 C296 1.394 . S
C298 C299 1.369 . S
C298 C302 1.531 . S
C299 C298 1.369 . S
C299 C300 1.410 . S
C299 C307 1.503 . S
C300 C299 1.410 . S
C300 C301 1.392 . S
C300 C303 1.511 . S
C301 C297 1.376 . S
C301 C300 1.392 . S
C301 H313 0.929 . S
C302 C298 1.531 . S
C302 H314 0.960 . S
C302 H315 0.962 . S
C302 H316 0.960 . S
C303 C300 1.511 . S
C303 H317 0.961 . S
C303 H318 0.961 . S
C303 H319 0.961 . S
C304 C305 1.370 . S
C304 C306 1.363 . S
C304 H320 0.931 . S
C305 C304 1.370 . S
C305 C309 1.408 . S
C306 C304 1.363 . S
C306 C307 1.370 . S
C306 C310 1.524 . S
C307 C299 1.503 . S
C307 C306 1.370 . S
C307 C308 1.403 . S
C308 C307 1.403 . S
C308 C309 1.404 . S
C308 C311 1.539 . S
C309 C305 1.408 . S
C309 C308 1.404 . S
C309 H321 0.930 . S
C310 C306 1.524 . S
C310 H322 0.956 . S
C310 H323 0.961 . S
C310 H324 0.961 . S
C311 C308 1.539 . S
C311 H325 0.958 . S
C311 H326 0.961 . S
C311 H327 0.960 . S
H312 C296 0.931 . S
H313 C301 0.929 . S
H314 C302 0.960 . S
H315 C302 0.962 . S
H316 C302 0.960 . S
H317 C303 0.961 . S
H318 C303 0.961 . S
H319 C303 0.961 . S
H320 C304 0.931 . S
H321 C309 0.930 . S
H322 C310 0.956 . S
H323 C310 0.961 . S
H324 C310 0.961 . S
H325 C311 0.958 . S
H326 C311 0.961 . S
H327 C311 0.960 . S
C328 C329 1.391 . S
C328 C330 1.394 . S
C328 H344 0.931 . S
C329 C328 1.391 . S
C329 C333 1.376 . S
C330 C328 1.394 . S
C330 C331 1.369 . S
C330 C334 1.531 . S
C331 C330 1.369 . S
C331 C332 1.410 . S
C331 C339 1.503 . S
C332 C331 1.410 . S
C332 C333 1.392 . S
C332 C335 1.511 . S
C333 C329 1.376 . S
C333 C332 1.392 . S
C333 H345 0.929 . S
C334 C330 1.531 . S
C334 H346 0.960 . S
C334 H347 0.962 . S
C334 H348 0.960 . S
C335 C332 1.511 . S
C335 H349 0.961 . S
C335 H350 0.961 . S
C335 H351 0.961 . S
C336 C337 1.370 . S
C336 C338 1.363 . S
C336 H352 0.931 . S
C337 C336 1.370 . S
C337 C341 1.408 . S
C338 C336 1.363 . S
C338 C339 1.370 . S
C338 C342 1.524 . S
C339 C331 1.503 . S
C339 C338 1.370 . S
C339 C340 1.403 . S
C340 C339 1.403 . S
C340 C341 1.404 . S
C340 C343 1.539 . S
C341 C337 1.408 . S
C341 C340 1.404 . S
C341 H353 0.930 . S
C342 C338 1.524 . S
C342 H354 0.956 . S
C342 H355 0.961 . S
C342 H356 0.961 . S
C343 C340 1.539 . S
C343 H357 0.958 . S
C343 H358 0.961 . S
C343 H359 0.960 . S
H344 C328 0.931 . S
H345 C333 0.929 . S
H346 C334 0.960 . S
H347 C334 0.962 . S
H348 C334 0.960 . S
H349 C335 0.961 . S
H350 C335 0.961 . S
H351 C335 0.961 . S
H352 C336 0.931 . S
H353 C341 0.930 . S
H354 C342 0.956 . S
H355 C342 0.961 . S
H356 C342 0.961 . S
H357 C343 0.958 . S
H358 C343 0.961 . S
H359 C343 0.960 . S
C360 C361 1.391 1_655 S
C360 C362 1.394 . S
C360 H376 0.931 . S
C361 C360 1.391 1_455 S
C361 C365 1.376 . S
C362 C360 1.394 . S
C362 C363 1.369 1_655 S
C362 C366 1.531 . S
C363 C362 1.369 1_455 S
C363 C364 1.410 . S
C363 C371 1.503 . S
C364 C363 1.410 . S
C364 C365 1.392 . S
C364 C367 1.511 . S
C365 C361 1.376 . S
C365 C364 1.392 . S
C365 H377 0.929 . S
C366 C362 1.531 . S
C366 H378 0.960 . S
C366 H379 0.962 . S
C366 H380 0.960 . S
C367 C364 1.511 . S
C367 H381 0.961 . S
C367 H382 0.961 . S
C367 H383 0.961 . S
C368 C369 1.370 . S
C368 C370 1.363 . S
C368 H384 0.931 . S
C369 C368 1.370 . S
C369 C373 1.408 . S
C370 C368 1.363 . S
C370 C371 1.370 . S
C370 C374 1.524 . S
C371 C363 1.503 . S
C371 C370 1.370 . S
C371 C372 1.403 . S
C372 C371 1.403 . S
C372 C373 1.404 . S
C372 C375 1.539 . S
C373 C369 1.408 . S
C373 C372 1.404 . S
C373 H385 0.930 . S
C374 C370 1.524 . S
C374 H386 0.956 1_455 S
C374 H387 0.961 . S
C374 H388 0.961 . S
C375 C372 1.539 . S
C375 H389 0.958 1_455 S
C375 H390 0.961 . S
C375 H391 0.960 . S
H376 C360 0.931 . S
H377 C365 0.929 . S
H378 C366 0.960 . S
H379 C366 0.962 . S
H380 C366 0.960 . S
H381 C367 0.961 . S
H382 C367 0.961 . S
H383 C367 0.961 . S
H384 C368 0.931 . S
H385 C373 0.930 . S
H386 C374 0.956 1_655 S
H387 C374 0.961 . S
H388 C374 0.961 . S
H389 C375 0.958 1_655 S
H390 C375 0.961 . S
H391 C375 0.960 . S
C392 C393 1.391 1_565 S
C392 C394 1.390 1_565 S
C392 H408 0.931 . S
C393 C392 1.391 1_545 S
C393 C397 1.376 . S
C394 C392 1.390 1_545 S
C394 C395 1.375 . S
C394 C398 1.529 1_544 S
C395 C394 1.375 . S
C395 C396 1.410 . S
C395 C403 1.503 . S
C396 C395 1.410 . S
C396 C397 1.392 . S
C396 C399 1.511 . S
C397 C393 1.376 . S
C397 C396 1.392 . S
C397 H409 0.929 . S
C398 C394 1.529 1_566 S
C398 H410 0.960 1_565 S
C398 H411 0.962 . S
C398 H412 0.960 1_565 S
C399 C396 1.511 . S
C399 H413 0.961 . S
C399 H414 0.961 . S
C399 H415 0.961 . S
C400 C401 1.367 1_565 S
C400 C402 1.363 1_556 S
C400 H416 0.931 . S
C401 C400 1.367 1_545 S
C401 C405 1.412 . S
C402 C400 1.363 1_554 S
C402 C403 1.370 1_565 S
C402 C406 1.524 . S
C403 C395 1.503 . S
C403 C402 1.370 1_545 S
C403 C404 1.403 . S
C404 C403 1.403 . S
C404 C405 1.404 1_554 S
C404 C407 1.539 . S
C405 C401 1.412 . S
C405 C404 1.404 1_556 S
C405 H417 0.930 . S
C406 C402 1.524 . S
C406 H418 0.956 . S
C406 H419 0.961 . S
C406 H420 0.961 . S
C407 C404 1.539 . S
C407 H421 0.958 1_554 S
C407 H422 0.961 . S
C407 H423 0.960 . S
H408 C392 0.931 . S
H409 C397 0.929 . S
H410 C398 0.960 1_545 S
H411 C398 0.962 . S
H412 C398 0.960 1_545 S
H413 C399 0.961 . S
H414 C399 0.961 . S
H415 C399 0.961 . S
H416 C400 0.931 . S
H417 C405 0.930 . S
H418 C406 0.956 . S
H419 C406 0.961 . S
H420 C406 0.961 . S
H421 C407 0.958 1_556 S
H422 C407 0.961 . S
H423 C407 0.960 . S
C424 C425 1.391 . S
C424 C426 1.394 . S
C424 H440 0.931 . S
C425 C424 1.391 . S
C425 C429 1.376 . S
C426 C424 1.394 . S
C426 C427 1.369 . S
C426 C430 1.531 . S
C427 C426 1.369 . S
C427 C428 1.410 . S
C427 C435 1.503 1_554 S
C428 C427 1.410 . S
C428 C429 1.392 . S
C428 C431 1.511 1_554 S
C429 C425 1.376 . S
C429 C428 1.392 . S
C429 H441 0.929 . S
C430 C426 1.531 . S
C430 H442 0.960 . S
C430 H443 0.962 . S
C430 H444 0.960 . S
C431 C428 1.511 1_556 S
C431 H445 0.961 . S
C431 H446 0.961 . S
C431 H447 0.961 1_556 S
C432 C433 1.370 . S
C432 C434 1.363 . S
C432 H448 0.931 . S
C433 C432 1.370 . S
C433 C437 1.408 . S
C434 C432 1.363 . S
C434 C435 1.370 . S
C434 C438 1.524 . S
C435 C427 1.503 1_556 S
C435 C434 1.370 . S
C435 C436 1.403 1_556 S
C436 C435 1.403 1_554 S
C436 C437 1.404 1_554 S
C436 C439 1.539 . S
C437 C433 1.408 . S
C437 C436 1.404 1_556 S
C437 H449 0.930 . S
C438 C434 1.524 . S
C438 H450 0.956 . S
C438 H451 0.961 . S
C438 H452 0.961 . S
C439 C436 1.539 . S
C439 H453 0.958 . S
C439 H454 0.961 . S
C439 H455 0.960 . S
H440 C424 0.931 . S
H441 C429 0.929 . S
H442 C430 0.960 . S
H443 C430 0.962 . S
H444 C430 0.960 . S
H445 C431 0.961 . S
H446 C431 0.961 . S
H447 C431 0.961 1_554 S
H448 C432 0.931 . S
H449 C437 0.930 . S
H450 C438 0.956 . S
H451 C438 0.961 . S
H452 C438 0.961 . S
H453 C439 0.958 . S
H454 C439 0.961 . S
H455 C439 0.960 . S
C456 C457 1.391 . S
C456 C458 1.394 . S
C456 H472 0.931 . S
C457 C456 1.391 . S
C457 C461 1.376 . S
C458 C456 1.394 . S
C458 C459 1.369 . S
C458 C462 1.531 . S
C459 C458 1.369 . S
C459 C460 1.410 . S
C459 C467 1.503 . S
C460 C459 1.410 . S
C460 C461 1.392 . S
C460 C463 1.511 . S
C461 C457 1.376 . S
C461 C460 1.392 . S
C461 H473 0.929 . S
C462 C458 1.531 . S
C462 H474 0.960 . S
C462 H475 0.962 . S
C462 H476 0.960 . S
C463 C460 1.511 . S
C463 H477 0.961 . S
C463 H478 0.961 . S
C463 H479 0.961 . S
C464 C465 1.370 . S
C464 C466 1.363 . S
C464 H480 0.931 . S
C465 C464 1.370 . S
C465 C469 1.408 . S
C466 C464 1.363 . S
C466 C467 1.370 . S
C466 C470 1.524 . S
C467 C459 1.503 . S
C467 C466 1.370 . S
C467 C468 1.403 . S
C468 C467 1.403 . S
C468 C469 1.404 . S
C468 C471 1.539 . S
C469 C465 1.408 . S
C469 C468 1.404 . S
C469 H481 0.930 . S
C470 C466 1.524 . S
C470 H482 0.956 . S
C470 H483 0.961 . S
C470 H484 0.961 . S
C471 C468 1.539 . S
C471 H485 0.958 . S
C471 H486 0.961 . S
C471 H487 0.960 . S
H472 C456 0.931 . S
H473 C461 0.929 . S
H474 C462 0.960 . S
H475 C462 0.962 . S
H476 C462 0.960 . S
H477 C463 0.961 . S
H478 C463 0.961 . S
H479 C463 0.961 . S
H480 C464 0.931 . S
H481 C469 0.930 . S
H482 C470 0.956 . S
H483 C470 0.961 . S
H484 C470 0.961 . S
H485 C471 0.958 . S
H486 C471 0.961 . S
H487 C471 0.960 . S
C488 C489 1.391 . S
C488 C490 1.394 . S
C488 H504 0.928 1_655 S
C489 C488 1.391 . S
C489 C493 1.376 . S
C490 C488 1.394 . S
C490 C491 1.369 . S
C490 C494 1.531 1_655 S
C491 C490 1.369 . S
C491 C492 1.410 . S
C491 C499 1.503 . S
C492 C491 1.410 . S
C492 C493 1.392 . S
C492 C495 1.511 . S
C493 C489 1.376 . S
C493 C492 1.392 . S
C493 H505 0.929 . S
C494 C490 1.531 1_455 S
C494 H506 0.960 1_455 S
C494 H507 0.962 . S
C494 H508 0.960 1_455 S
C495 C492 1.511 . S
C495 H509 0.961 . S
C495 H510 0.961 . S
C495 H511 0.961 . S
C496 C497 1.370 1_455 S
C496 C498 1.363 1_556 S
C496 H512 0.931 . S
C497 C496 1.370 1_655 S
C497 C501 1.408 1_556 S
C498 C496 1.363 1_554 S
C498 C499 1.370 1_455 S
C498 C502 1.524 . S
C499 C491 1.503 . S
C499 C498 1.370 1_655 S
C499 C500 1.403 . S
C500 C499 1.403 . S
C500 C501 1.404 . S
C500 C503 1.539 . S
C501 C497 1.408 1_554 S
C501 C500 1.404 . S
C501 H513 0.930 1_554 S
C502 C498 1.524 . S
C502 H514 0.956 . S
C502 H515 0.961 . S
C502 H516 0.961 . S
C503 C500 1.539 . S
C503 H517 0.958 . S
C503 H518 0.961 . S
C503 H519 0.960 . S
H504 C488 0.928 1_455 S
H505 C493 0.929 . S
H506 C494 0.960 1_655 S
H507 C494 0.962 . S
H508 C494 0.960 1_655 S
H509 C495 0.961 . S
H510 C495 0.961 . S
H511 C495 0.961 . S
H512 C496 0.931 . S
H513 C501 0.930 1_556 S
H514 C502 0.956 . S
H515 C502 0.961 . S
H516 C502 0.961 . S
H517 C503 0.958 . S
H518 C503 0.961 . S
H519 C503 0.960 . S
C520 C521 1.391 . S
C520 C522 1.394 . S
C520 H536 0.931 . S
C521 C520 1.391 . S
C521 C525 1.376 1_455 S
C522 C520 1.394 . S
C522 C523 1.369 1_455 S
C522 C526 1.531 . S
C523 C522 1.369 1_655 S
C523 C524 1.410 . S
C523 C531 1.503 . S
C524 C523 1.410 . S
C524 C525 1.392 . S
C524 C527 1.511 . S
C525 C521 1.376 1_655 S
C525 C524 1.392 . S
C525 H537 0.929 . S
C526 C522 1.531 . S
C526 H538 0.960 . S
C526 H539 0.962 . S
C526 H540 0.960 . S
C527 C524 1.511 . S
C527 H541 0.961 . S
C527 H542 0.961 . S
C527 H543 0.961 . S
C528 C529 1.370 . S
C528 C530 1.363 1_655 S
C528 H544 0.931 1_655 S
C529 C528 1.370 . S
C529 C533 1.408 . S
C530 C528 1.363 1_455 S
C530 C531 1.370 1_455 S
C530 C534 1.524 . S
C531 C523 1.503 . S
C531 C530 1.370 1_655 S
C531 C532 1.403 . S
C532 C531 1.403 . S
C532 C533 1.404 . S
C532 C535 1.539 . S
C533 C529 1.408 . S
C533 C532 1.404 . S
C533 H545 0.930 . S
C534 C530 1.524 . S
C534 H546 0.956 . S
C534 H547 0.961 . S
C534 H548 0.961 . S
C535 C532 1.539 . S
C535 H549 0.958 . S
C535 H550 0.961 . S
C535 H551 0.960 . S
H536 C520 0.931 . S
H537 C525 0.929 . S
H538 C526 0.960 . S
H539 C526 0.962 . S
H540 C526 0.960 . S
H541 C527 0.961 . S
H542 C527 0.961 . S
H543 C527 0.961 . S
H544 C528 0.931 1_455 S
H545 C533 0.930 . S
H546 C534 0.956 . S
H547 C534 0.961 . S
H548 C534 0.961 . S
H549 C535 0.958 . S
H550 C535 0.961 . S
H551 C535 0.960 . S
C552 C553 1.391 . S
C552 C554 1.394 . S
C552 H568 0.931 . S
C553 C552 1.391 . S
C553 C557 1.376 1_565 S
C554 C552 1.394 . S
C554 C555 1.369 . S
C554 C558 1.531 . S
C555 C554 1.369 . S
C555 C556 1.410 . S
C555 C563 1.503 . S
C556 C555 1.410 . S
C556 C557 1.392 1_565 S
C556 C559 1.511 . S
C557 C553 1.376 1_545 S
C557 C556 1.392 1_545 S
C557 H569 0.929 . S
C558 C554 1.531 . S
C558 H570 0.960 . S
C558 H571 0.962 . S
C558 H572 0.960 . S
C559 C556 1.511 . S
C559 H573 0.961 1_565 S
C559 H574 0.961 1_565 S
C559 H575 0.961 . S
C560 C561 1.370 . S
C560 C562 1.363 1_565 S
C560 H576 0.931 1_565 S
C561 C560 1.370 . S
C561 C565 1.408 . S
C562 C560 1.363 1_545 S
C562 C563 1.370 1_545 S
C562 C566 1.524 . S
C563 C555 1.503 . S
C563 C562 1.370 1_565 S
C563 C564 1.403 . S
C564 C563 1.403 . S
C564 C565 1.404 . S
C564 C567 1.539 . S
C565 C561 1.408 . S
C565 C564 1.404 . S
C565 H577 0.930 . S
C566 C562 1.524 . S
C566 H578 0.956 . S
C566 H579 0.961 . S
C566 H580 0.961 . S
C567 C564 1.539 . S
C567 H581 0.958 . S
C567 H582 0.961 . S
C567 H583 0.960 . S
H568 C552 0.931 . S
H569 C557 0.929 . S
H570 C558 0.960 . S
H571 C558 0.962 . S
H572 C558 0.960 . S
H573 C559 0.961 1_545 S
H574 C559 0.961 1_545 S
H575 C559 0.961 . S
H576 C560 0.931 1_545 S
H577 C565 0.930 . S
H578 C566 0.956 . S
H579 C566 0.961 . S
H580 C566 0.961 . S
H581 C567 0.958 . S
H582 C567 0.961 . S
H583 C567 0.960 . S
C584 C585 1.391 . S
C584 C586 1.394 . S
C584 H600 0.931 . S
C585 C584 1.391 . S
C585 C589 1.376 . S
C586 C584 1.394 . S
C586 C587 1.369 . S
C586 C590 1.531 . S
C587 C586 1.369 . S
C587 C588 1.410 . S
C587 C595 1.503 . S
C588 C587 1.410 . S
C588 C589 1.392 . S
C588 C591 1.511 . S
C589 C585 1.376 . S
C589 C588 1.392 . S
C589 H601 0.929 . S
C590 C586 1.531 . S
C590 H602 0.960 . S
C590 H603 0.962 . S
C590 H604 0.960 . S
C591 C588 1.511 . S
C591 H605 0.961 . S
C591 H606 0.961 . S
C591 H607 0.961 . S
C592 C593 1.370 . S
C592 C594 1.363 . S
C592 H608 0.931 . S
C593 C592 1.370 . S
C593 C597 1.408 . S
C594 C592 1.363 . S
C594 C595 1.370 . S
C594 C598 1.524 . S
C595 C587 1.503 . S
C595 C594 1.370 . S
C595 C596 1.403 . S
C596 C595 1.403 . S
C596 C597 1.404 . S
C596 C599 1.539 . S
C597 C593 1.408 . S
C597 C596 1.404 . S
C597 H609 0.930 . S
C598 C594 1.524 . S
C598 H610 0.956 . S
C598 H611 0.961 . S
C598 H612 0.961 . S
C599 C596 1.539 . S
C599 H613 0.958 . S
C599 H614 0.961 . S
C599 H615 0.960 . S
H600 C584 0.931 . S
H601 C589 0.929 . S
H602 C590 0.960 . S
H603 C590 0.962 . S
H604 C590 0.960 . S
H605 C591 0.961 . S
H606 C591 0.961 . S
H607 C591 0.961 . S
H608 C592 0.931 . S
H609 C597 0.930 . S
H610 C598 0.956 . S
H611 C598 0.961 . S
H612 C598 0.961 . S
H613 C599 0.958 . S
H614 C599 0.961 . S
H615 C599 0.960 . S
C616 C617 1.391 . S
C616 C618 1.394 . S
C616 H632 0.931 . S
C617 C616 1.391 . S
C617 C621 1.376 . S
C618 C616 1.394 . S
C618 C619 1.369 . S
C618 C622 1.531 . S
C619 C618 1.369 . S
C619 C620 1.410 . S
C619 C627 1.503 . S
C620 C619 1.410 . S
C620 C621 1.392 . S
C620 C623 1.511 . S
C621 C617 1.376 . S
C621 C620 1.392 . S
C621 H633 0.929 . S
C622 C618 1.531 . S
C622 H634 0.960 . S
C622 H635 0.962 . S
C622 H636 0.960 . S
C623 C620 1.511 . S
C623 H637 0.961 . S
C623 H638 0.961 . S
C623 H639 0.961 . S
C624 C625 1.370 . S
C624 C626 1.363 . S
C624 H640 0.931 . S
C625 C624 1.370 . S
C625 C629 1.408 . S
C626 C624 1.363 . S
C626 C627 1.370 . S
C626 C630 1.524 . S
C627 C619 1.503 . S
C627 C626 1.370 . S
C627 C628 1.403 . S
C628 C627 1.403 . S
C628 C629 1.404 . S
C628 C631 1.539 . S
C629 C625 1.408 . S
C629 C628 1.404 . S
C629 H641 0.930 . S
C630 C626 1.524 . S
C630 H642 0.956 . S
C630 H643 0.961 . S
C630 H644 0.961 . S
C631 C628 1.539 . S
C631 H645 0.958 . S
C631 H646 0.961 . S
C631 H647 0.960 . S
H632 C616 0.931 . S
H633 C621 0.929 . S
H634 C622 0.960 . S
H635 C622 0.962 . S
H636 C622 0.960 . S
H637 C623 0.961 . S
H638 C623 0.961 . S
H639 C623 0.961 . S
H640 C624 0.931 . S
H641 C629 0.930 . S
H642 C630 0.956 . S
H643 C630 0.961 . S
H644 C630 0.961 . S
H645 C631 0.958 . S
H646 C631 0.961 . S
H647 C631 0.960 . S
C648 C649 1.391 1_455 S
C648 C650 1.394 . S
C648 H664 0.931 . S
C649 C648 1.391 1_655 S
C649 C653 1.376 . S
C650 C648 1.394 . S
C650 C651 1.343 1_455 S
C650 C654 1.531 . S
C651 C650 1.343 1_655 S
C651 C652 1.445 . S
C651 C659 1.493 1_655 S
C652 C651 1.445 . S
C652 C653 1.392 . S
C652 C655 1.511 . S
C653 C649 1.376 . S
C653 C652 1.392 . S
C653 H665 0.929 . S
C654 C650 1.531 . S
C654 H666 0.960 . S
C654 H667 0.962 . S
C654 H668 0.960 . S
C655 C652 1.511 . S
C655 H669 0.961 . S
C655 H670 0.961 . S
C655 H671 0.961 . S
C656 C657 1.370 . S
C656 C658 1.363 . S
C656 H672 0.931 . S
C657 C656 1.370 . S
C657 C661 1.408 . S
C658 C656 1.363 . S
C658 C659 1.370 . S
C658 C662 1.524 . S
C659 C651 1.493 1_455 S
C659 C658 1.370 . S
C659 C660 1.403 1_455 S
C660 C659 1.403 1_655 S
C660 C661 1.404 1_655 S
C660 C663 1.539 . S
C661 C657 1.408 . S
C661 C660 1.404 1_455 S
C661 H673 0.930 1_455 S
C662 C658 1.524 . S
C662 H674 0.956 . S
C662 H675 0.961 . S
C662 H676 0.961 . S
C663 C660 1.539 . S
C663 H677 0.958 . S
C663 H678 0.961 . S
C663 H679 0.960 . S
H664 C648 0.931 . S
H665 C653 0.929 . S
H666 C654 0.960 . S
H667 C654 0.962 . S
H668 C654 0.960 . S
H669 C655 0.961 . S
H670 C655 0.961 . S
H671 C655 0.961 . S
H672 C656 0.931 . S
H673 C661 0.930 1_655 S
H674 C662 0.956 . S
H675 C662 0.961 . S
H676 C662 0.961 . S
H677 C663 0.958 . S
H678 C663 0.961 . S
H679 C663 0.960 . S
C680 C681 1.391 . S
C680 C682 1.394 . S
C680 H696 0.931 . S
C681 C680 1.391 . S
C681 C685 1.376 1_545 S
C682 C680 1.394 . S
C682 C683 1.369 . S
C682 C686 1.531 . S
C683 C682 1.369 . S
C683 C684 1.410 1_545 S
C683 C691 1.503 . S
C684 C683 1.410 1_565 S
C684 C685 1.392 . S
C684 C687 1.511 . S
C685 C681 1.376 1_565 S
C685 C684 1.392 . S
C685 H697 0.929 . S
C686 C682 1.531 . S
C686 H698 0.960 . S
C686 H699 0.962 . S
C686 H700 0.960 . S
C687 C684 1.511 . S
C687 H701 0.961 . S
C687 H702 0.961 . S
C687 H703 0.961 . S
C688 C689 1.370 . S
C688 C690 1.363 . S
C688 H704 0.931 . S
C689 C688 1.370 . S
C689 C693 1.408 . S
C690 C688 1.363 . S
C690 C691 1.370 . S
C690 C694 1.524 1_545 S
C691 C683 1.503 . S
C691 C690 1.370 . S
C691 C692 1.403 . S
C692 C691 1.403 . S
C692 C693 1.404 . S
C692 C695 1.539 . S
C693 C689 1.408 . S
C693 C692 1.404 . S
C693 H705 0.930 1_554 S
C694 C690 1.524 1_565 S
C694 H706 0.956 1_565 S
C694 H707 0.961 . S
C694 H708 0.961 . S
C695 C692 1.539 . S
C695 H709 0.958 . S
C695 H710 0.961 1_554 S
C695 H711 0.960 . S
H696 C680 0.931 . S
H697 C685 0.929 . S
H698 C686 0.960 . S
H699 C686 0.962 . S
H700 C686 0.960 . S
H701 C687 0.961 . S
H702 C687 0.961 . S
H703 C687 0.961 . S
H704 C688 0.931 . S
H705 C693 0.930 1_556 S
H706 C694 0.956 1_545 S
H707 C694 0.961 . S
H708 C694 0.961 . S
H709 C695 0.958 . S
H710 C695 0.961 1_556 S
H711 C695 0.960 . S
C712 C713 1.391 . S
C712 C714 1.394 . S
C712 H728 0.931 . S
C713 C712 1.391 . S
C713 C717 1.376 . S
C714 C712 1.394 . S
C714 C715 1.369 . S
C714 C718 1.531 1_554 S
C715 C714 1.369 . S
C715 C716 1.410 . S
C715 C723 1.503 . S
C716 C715 1.410 . S
C716 C717 1.392 . S
C716 C719 1.511 . S
C717 C713 1.376 . S
C717 C716 1.392 . S
C717 H729 0.929 . S
C718 C714 1.531 1_556 S
C718 H730 0.960 . S
C718 H731 0.962 . S
C718 H732 0.960 . S
C719 C716 1.511 . S
C719 H733 0.961 . S
C719 H734 0.961 . S
C719 H735 0.961 . S
C720 C721 1.370 . S
C720 C722 1.363 . S
C720 H736 0.931 . S
C721 C720 1.370 . S
C721 C725 1.408 1_556 S
C722 C720 1.363 . S
C722 C723 1.370 1_556 S
C722 C726 1.524 . S
C723 C715 1.503 . S
C723 C722 1.370 1_554 S
C723 C724 1.403 . S
C724 C723 1.403 . S
C724 C725 1.404 . S
C724 C727 1.539 . S
C725 C721 1.408 1_554 S
C725 C724 1.404 . S
C725 H737 0.930 . S
C726 C722 1.524 . S
C726 H738 0.956 . S
C726 H739 0.961 . S
C726 H740 0.961 . S
C727 C724 1.539 . S
C727 H741 0.958 . S
C727 H742 0.961 . S
C727 H743 0.960 . S
H728 C712 0.931 . S
H729 C717 0.929 . S
H730 C718 0.960 . S
H731 C718 0.962 . S
H732 C718 0.960 . S
H733 C719 0.961 . S
H734 C719 0.961 . S
H735 C719 0.961 . S
H736 C720 0.931 . S
H737 C725 0.930 . S
H738 C726 0.956 . S
H739 C726 0.961 . S
H740 C726 0.961 . S
H741 C727 0.958 . S
H742 C727 0.961 . S
H743 C727 0.960 . S
C744 C745 1.391 . S
C744 C746 1.394 . S
C744 H760 0.931 . S
C745 C744 1.391 . S
C745 C749 1.376 . S
C746 C744 1.394 . S
C746 C747 1.369 . S
C746 C750 1.531 . S
C747 C746 1.369 . S
C747 C748 1.410 . S
C747 C755 1.503 . S
C748 C747 1.410 . S
C748 C749 1.392 . S
C748 C751 1.511 . S
C749 C745 1.376 . S
C749 C748 1.392 . S
C749 H761 0.929 . S
C750 C746 1.531 . S
C750 H762 0.960 . S
C750 H763 0.962 . S
C750 H764 0.960 . S
C751 C748 1.511 . S
C751 H765 0.961 . S
C751 H766 0.961 . S
C751 H767 0.961 . S
C752 C753 1.370 . S
C752 C754 1.363 . S
C752 H768 0.931 . S
C753 C752 1.370 . S
C753 C757 1.408 . S
C754 C752 1.363 . S
C754 C755 1.370 . S
C754 C758 1.524 . S
C755 C747 1.503 . S
C755 C754 1.370 . S
C755 C756 1.403 . S
C756 C755 1.403 . S
C756 C757 1.404 . S
C756 C759 1.539 . S
C757 C753 1.408 . S
C757 C756 1.404 . S
C757 H769 0.930 . S
C758 C754 1.524 . S
C758 H770 0.956 . S
C758 H771 0.961 . S
C758 H772 0.961 . S
C759 C756 1.539 . S
C759 H773 0.958 . S
C759 H774 0.961 . S
C759 H775 0.960 . S
H760 C744 0.931 . S
H761 C749 0.929 . S
H762 C750 0.960 . S
H763 C750 0.962 . S
H764 C750 0.960 . S
H765 C751 0.961 . S
H766 C751 0.961 . S
H767 C751 0.961 . S
H768 C752 0.931 . S
H769 C757 0.930 . S
H770 C758 0.956 . S
H771 C758 0.961 . S
H772 C758 0.961 . S
H773 C759 0.958 . S
H774 C759 0.961 . S
H775 C759 0.960 . S
C776 C777 1.391 . S
C776 C778 1.394 . S
C776 H792 0.931 . S
C777 C776 1.391 . S
C777 C781 1.376 1_556 S
C778 C776 1.394 . S
C778 C779 1.369 . S
C778 C782 1.531 . S
C779 C778 1.369 . S
C779 C780 1.410 1_556 S
C779 C787 1.503 . S
C780 C779 1.410 1_554 S
C780 C781 1.392 . S
C780 C783 1.511 . S
C781 C777 1.376 1_554 S
C781 C780 1.392 . S
C781 H793 0.929 . S
C782 C778 1.531 . S
C782 H794 0.960 . S
C782 H795 0.962 1_455 S
C782 H796 0.960 . S
C783 C780 1.511 . S
C783 H797 0.961 . S
C783 H798 0.961 . S
C783 H799 0.961 . S
C784 C785 1.370 1_655 S
C784 C786 1.363 . S
C784 H800 0.931 . S
C785 C784 1.370 1_455 S
C785 C789 1.408 . S
C786 C784 1.363 . S
C786 C787 1.370 1_655 S
C786 C790 1.524 . S
C787 C779 1.503 . S
C787 C786 1.370 1_455 S
C787 C788 1.403 . S
C788 C787 1.403 . S
C788 C789 1.404 . S
C788 C791 1.539 . S
C789 C785 1.408 . S
C789 C788 1.404 . S
C789 H801 0.930 . S
C790 C786 1.524 . S
C790 H802 0.956 . S
C790 H803 0.961 1_556 S
C790 H804 0.961 1_556 S
C791 C788 1.539 . S
C791 H805 0.958 . S
C791 H806 0.961 . S
C791 H807 0.960 . S
H792 C776 0.931 . S
H793 C781 0.929 . S
H794 C782 0.960 . S
H795 C782 0.962 1_655 S
H796 C782 0.960 . S
H797 C783 0.961 . S
H798 C783 0.961 . S
H799 C783 0.961 . S
H800 C784 0.931 . S
H801 C789 0.930 . S
H802 C790 0.956 . S
H803 C790 0.961 1_554 S
H804 C790 0.961 1_554 S
H805 C791 0.958 . S
H806 C791 0.961 . S
H807 C791 0.960 . S
C808 C809 1.391 1_556 S
C808 C810 1.394 . S
C808 H824 0.931 . S
C809 C808 1.391 1_554 S
C809 C813 1.376 1_545 S
C810 C808 1.394 . S
C810 C811 1.369 1_556 S
C810 C814 1.531 . S
C811 C810 1.369 1_554 S
C811 C812 1.406 1_545 S
C811 C819 1.503 1_554 S
C812 C811 1.406 1_565 S
C812 C813 1.394 . S
C812 C815 1.513 . S
C813 C809 1.376 1_565 S
C813 C812 1.394 . S
C813 H825 0.929 . S
C814 C810 1.531 . S
C814 H826 0.960 . S
C814 H827 0.962 . S
C814 H828 0.960 . S
C815 C812 1.513 . S
C815 H829 0.961 . S
C815 H830 0.961 . S
C815 H831 0.961 1_565 S
C816 C817 1.370 1_565 S
C816 C818 1.363 . S
C816 H832 0.931 . S
C817 C816 1.370 1_545 S
C817 C821 1.408 . S
C818 C816 1.363 . S
C818 C819 1.370 1_565 S
C818 C822 1.524 . S
C819 C811 1.503 1_556 S
C819 C818 1.370 1_545 S
C819 C820 1.403 . S
C820 C819 1.403 . S
C820 C821 1.404 . S
C820 C823 1.539 1_556 S
C821 C817 1.408 . S
C821 C820 1.404 . S
C821 H833 0.930 . S
C822 C818 1.524 . S
C822 H834 0.956 . S
C822 H835 0.961 . S
C822 H836 0.961 . S
C823 C820 1.539 1_554 S
C823 H837 0.958 . S
C823 H838 0.961 . S
C823 H839 0.960 . S
H824 C808 0.931 . S
H825 C813 0.929 . S
H826 C814 0.960 . S
H827 C814 0.962 . S
H828 C814 0.960 . S
H829 C815 0.961 . S
H830 C815 0.961 . S
H831 C815 0.961 1_545 S
H832 C816 0.931 . S
H833 C821 0.930 . S
H834 C822 0.956 . S
H835 C822 0.961 . S
H836 C822 0.961 . S
H837 C823 0.958 . S
H838 C823 0.961 . S
H839 C823 0.960 . S
C840 C841 1.391 . S
C840 C842 1.394 . S
C840 H856 0.931 . S
C841 C840 1.391 . S
C841 C845 1.376 . S
C842 C840 1.394 . S
C842 C843 1.369 . S
C842 C846 1.531 . S
C843 C842 1.369 . S
C843 C844 1.410 . S
C843 C851 1.503 . S
C844 C843 1.410 . S
C844 C845 1.392 . S
C844 C847 1.511 . S
C845 C841 1.376 . S
C845 C844 1.392 . S
C845 H857 0.929 . S
C846 C842 1.531 . S
C846 H858 0.960 . S
C846 H859 0.962 . S
C846 H860 0.960 . S
C847 C844 1.511 . S
C847 H861 0.961 . S
C847 H862 0.967 . S
C847 H863 0.961 . S
C848 C849 1.370 . S
C848 C850 1.363 1_556 S
C848 H864 0.931 . S
C849 C848 1.370 . S
C849 C853 1.408 1_556 S
C850 C848 1.363 1_554 S
C850 C851 1.370 . S
C850 C854 1.524 . S
C851 C843 1.503 . S
C851 C850 1.370 . S
C851 C852 1.403 . S
C852 C851 1.403 . S
C852 C853 1.404 . S
C852 C855 1.539 . S
C853 C849 1.408 1_554 S
C853 C852 1.404 . S
C853 H865 0.930 . S
C854 C850 1.524 . S
C854 H866 0.956 . S
C854 H867 0.961 . S
C854 H868 0.961 1_554 S
C855 C852 1.539 . S
C855 H869 0.958 . S
C855 H870 0.961 . S
C855 H871 0.960 . S
H856 C840 0.931 . S
H857 C845 0.929 . S
H858 C846 0.960 . S
H859 C846 0.962 . S
H860 C846 0.960 . S
H861 C847 0.961 . S
H862 C847 0.967 . S
H863 C847 0.961 . S
H864 C848 0.931 . S
H865 C853 0.930 . S
H866 C854 0.956 . S
H867 C854 0.961 . S
H868 C854 0.961 1_556 S
H869 C855 0.958 . S
H870 C855 0.961 . S
H871 C855 0.960 . S
C872 C873 1.391 . S
C872 C874 1.394 . S
C872 H888 0.931 . S
C873 C872 1.391 . S
C873 C877 1.376 . S
C874 C872 1.394 . S
C874 C875 1.369 . S
C874 C878 1.531 . S
C875 C874 1.369 . S
C875 C876 1.410 . S
C875 C883 1.503 . S
C876 C875 1.410 . S
C876 C877 1.392 . S
C876 C879 1.511 . S
C877 C873 1.376 . S
C877 C876 1.392 . S
C877 H889 0.929 . S
C878 C874 1.531 . S
C878 H890 0.960 . S
C878 H891 0.962 . S
C878 H892 0.960 . S
C879 C876 1.511 . S
C879 H893 0.961 . S
C879 H894 0.961 . S
C879 H895 0.961 . S
C880 C881 1.370 . S
C880 C882 1.363 . S
C880 H896 0.931 . S
C881 C880 1.370 . S
C881 C885 1.408 . S
C882 C880 1.363 . S
C882 C883 1.370 . S
C882 C886 1.524 . S
C883 C875 1.503 . S
C883 C882 1.370 . S
C883 C884 1.403 . S
C884 C883 1.403 . S
C884 C885 1.404 . S
C884 C887 1.539 . S
C885 C881 1.408 . S
C885 C884 1.404 . S
C885 H897 0.930 . S
C886 C882 1.524 . S
C886 H898 0.956 . S
C886 H899 0.961 . S
C886 H900 0.961 1_556 S
C887 C884 1.539 . S
C887 H901 0.958 . S
C887 H902 0.961 . S
C887 H903 0.960 . S
H888 C872 0.931 . S
H889 C877 0.929 . S
H890 C878 0.960 . S
H891 C878 0.962 . S
H892 C878 0.960 . S
H893 C879 0.961 . S
H894 C879 0.961 . S
H895 C879 0.961 . S
H896 C880 0.931 . S
H897 C885 0.930 . S
H898 C886 0.956 . S
H899 C886 0.961 . S
H900 C886 0.961 1_554 S
H901 C887 0.958 . S
H902 C887 0.961 . S
H903 C887 0.960 . S
C904 C905 1.391 1_455 S
C904 C906 1.394 . S
C904 H920 0.931 . S
C905 C904 1.391 1_655 S
C905 C909 1.376 . S
C906 C904 1.394 . S
C906 C907 1.369 1_455 S
C906 C910 1.531 . S
C907 C906 1.369 1_655 S
C907 C908 1.410 . S
C907 C915 1.503 . S
C908 C907 1.410 . S
C908 C909 1.392 . S
C908 C911 1.511 . S
C909 C905 1.376 . S
C909 C908 1.392 . S
C909 H921 0.929 . S
C910 C906 1.531 . S
C910 H922 0.960 . S
C910 H923 0.962 . S
C910 H924 0.960 . S
C911 C908 1.511 . S
C911 H925 0.961 . S
C911 H926 0.961 . S
C911 H927 0.961 . S
C912 C913 1.370 . S
C912 C914 1.363 . S
C912 H928 0.931 . S
C913 C912 1.370 . S
C913 C917 1.408 1_655 S
C914 C912 1.363 . S
C914 C915 1.370 . S
C914 C918 1.524 . S
C915 C907 1.503 . S
C915 C914 1.370 . S
C915 C916 1.403 1_655 S
C916 C915 1.403 1_455 S
C916 C917 1.404 . S
C916 C919 1.539 . S
C917 C913 1.408 1_455 S
C917 C916 1.404 . S
C917 H929 0.930 . S
C918 C914 1.524 . S
C918 H930 0.956 . S
C918 H931 0.961 . S
C918 H932 0.961 . S
C919 C916 1.539 . S
C919 H933 0.958 . S
C919 H934 0.961 . S
C919 H935 0.960 . S
H920 C904 0.931 . S
H921 C909 0.929 . S
H922 C910 0.960 . S
H923 C910 0.962 . S
H924 C910 0.960 . S
H925 C911 0.961 . S
H926 C911 0.961 . S
H927 C911 0.961 . S
H928 C912 0.931 . S
H929 C917 0.930 . S
H930 C918 0.956 . S
H931 C918 0.961 . S
H932 C918 0.961 . S
H933 C919 0.958 . S
H934 C919 0.961 . S
H935 C919 0.960 . S
C936 C937 1.391 . S
C936 C938 1.394 . S
C936 H952 0.931 . S
C937 C936 1.391 . S
C937 C941 1.376 1_545 S
C938 C936 1.394 . S
C938 C939 1.369 . S
C938 C942 1.531 . S
C939 C938 1.369 . S
C939 C940 1.410 1_545 S
C939 C947 1.503 1_545 S
C940 C939 1.410 1_565 S
C940 C941 1.392 . S
C940 C943 1.511 . S
C941 C937 1.376 1_565 S
C941 C940 1.392 . S
C941 H953 0.929 . S
C942 C938 1.531 . S
C942 H954 0.960 . S
C942 H955 0.962 . S
C942 H956 0.960 . S
C943 C940 1.511 . S
C943 H957 0.961 . S
C943 H958 0.961 . S
C943 H959 0.961 1_565 S
C944 C945 1.370 . S
C944 C946 1.363 . S
C944 H960 0.931 . S
C945 C944 1.370 . S
C945 C949 1.408 1_565 S
C946 C944 1.363 . S
C946 C947 1.370 . S
C946 C950 1.524 . S
C947 C939 1.503 1_565 S
C947 C946 1.370 . S
C947 C948 1.403 1_565 S
C948 C947 1.403 1_545 S
C948 C949 1.404 . S
C948 C951 1.539 . S
C949 C945 1.408 1_545 S
C949 C948 1.404 . S
C949 H961 0.930 . S
C950 C946 1.524 . S
C950 H962 0.956 . S
C950 H963 0.961 . S
C950 H964 0.961 . S
C951 C948 1.539 . S
C951 H965 0.958 . S
C951 H966 0.961 . S
C951 H967 0.960 . S
H952 C936 0.931 . S
H953 C941 0.929 . S
H954 C942 0.960 . S
H955 C942 0.962 . S
H956 C942 0.960 . S
H957 C943 0.961 . S
H958 C943 0.961 . S
H959 C943 0.961 1_545 S
H960 C944 0.931 . S
H961 C949 0.930 . S
H962 C950 0.956 . S
H963 C950 0.961 . S
H964 C950 0.961 . S
H965 C951 0.958 . S
H966 C951 0.961 . S
H967 C951 0.960 . S
C968 C969 1.391 . S
C968 C970 1.394 . S
C968 H984 0.931 . S
C969 C968 1.391 . S
C969 C973 1.376 . S
C970 C968 1.394 . S
C970 C971 1.369 . S
C970 C974 1.531 . S
C971 C970 1.369 . S
C971 C972 1.410 . S
C971 C979 1.503 . S
C972 C971 1.410 . S
C972 C973 1.392 . S
C972 C975 1.511 . S
C973 C969 1.376 . S
C973 C972 1.392 . S
C973 H985 0.929 . S
C974 C970 1.531 . S
C974 H986 0.960 . S
C974 H987 0.962 . S
C974 H988 0.960 . S
C975 C972 1.511 . S
C975 H989 0.961 . S
C975 H990 0.961 . S
C975 H991 0.961 . S
C976 C977 1.370 . S
C976 C978 1.363 . S
C976 H992 0.931 . S
C977 C976 1.370 . S
C977 C981 1.408 . S
C978 C976 1.363 . S
C978 C979 1.370 . S
C978 C982 1.524 . S
C979 C971 1.503 . S
C979 C978 1.370 . S
C979 C980 1.403 . S
C980 C979 1.403 . S
C980 C981 1.404 . S
C980 C983 1.539 . S
C981 C977 1.408 . S
C981 C980 1.404 . S
C981 H993 0.930 . S
C982 C978 1.524 . S
C982 H994 0.956 . S
C982 H995 0.961 . S
C982 H996 0.961 . S
C983 C980 1.539 . S
C983 H997 0.958 . S
C983 H998 0.961 . S
C983 H999 0.960 . S
H984 C968 0.931 . S
H985 C973 0.929 . S
H986 C974 0.960 . S
H987 C974 0.962 . S
H988 C974 0.960 . S
H989 C975 0.961 . S
H990 C975 0.961 . S
H991 C975 0.961 . S
H992 C976 0.931 . S
H993 C981 0.930 . S
H994 C982 0.956 . S
H995 C982 0.961 . S
H996 C982 0.961 . S
H997 C983 0.958 . S
H998 C983 0.961 . S
H999 C983 0.960 . S
C1000 C1001 1.391 . S
C1000 C1002 1.394 . S
C1000 H1016 0.931 . S
C1001 C1000 1.391 . S
C1001 C1005 1.376 . S
C1002 C1000 1.394 . S
C1002 C1003 1.369 . S
C1002 C1006 1.531 . S
C1003 C1002 1.369 . S
C1003 C1004 1.410 . S
C1003 C1011 1.503 . S
C1004 C1003 1.410 . S
C1004 C1005 1.392 . S
C1004 C1007 1.511 . S
C1005 C1001 1.376 . S
C1005 C1004 1.392 . S
C1005 H1017 0.929 . S
C1006 C1002 1.531 . S
C1006 H1018 0.960 . S
C1006 H1019 0.962 . S
C1006 H1020 0.960 . S
C1007 C1004 1.511 . S
C1007 H1021 0.961 . S
C1007 H1022 0.961 . S
C1007 H1023 0.961 . S
C1008 C1009 1.370 . S
C1008 C1010 1.363 . S
C1008 H1024 0.931 . S
C1009 C1008 1.370 . S
C1009 C1013 1.408 . S
C1010 C1008 1.363 . S
C1010 C1011 1.370 . S
C1010 C1014 1.524 . S
C1011 C1003 1.503 . S
C1011 C1010 1.370 . S
C1011 C1012 1.403 . S
C1012 C1011 1.403 . S
C1012 C1013 1.404 . S
C1012 C1015 1.539 . S
C1013 C1009 1.408 . S
C1013 C1012 1.404 . S
C1013 H1025 0.930 . S
C1014 C1010 1.524 . S
C1014 H1026 0.956 . S
C1014 H1027 0.961 . S
C1014 H1028 0.961 . S
C1015 C1012 1.539 . S
C1015 H1029 0.958 . S
C1015 H1030 0.961 . S
C1015 H1031 0.960 . S
H1016 C1000 0.931 . S
H1017 C1005 0.929 . S
H1018 C1006 0.960 . S
H1019 C1006 0.962 . S
H1020 C1006 0.960 . S
H1021 C1007 0.961 . S
H1022 C1007 0.961 . S
H1023 C1007 0.961 . S
H1024 C1008 0.931 . S
H1025 C1013 0.930 . S
H1026 C1014 0.956 . S
H1027 C1014 0.961 . S
H1028 C1014 0.961 . S
H1029 C1015 0.958 . S
H1030 C1015 0.961 . S
H1031 C1015 0.960 . S
C265 C82 1.836 1_565 S
C273 C106 2.029 1_545 S
C305 C146 2.045 . S
C297 C95 1.959 . S
C337 C210 1.878 . S
C329 C56 1.661 . S
C369 C226 1.640 . S
C361 C69 1.278 . S
C401 C127 2.031 . S
C393 C30 1.830 . S
C425 C43 1.919 . S
C433 C167 2.052 . S
C457 C4 1.545 . S
C465 C201 1.898 . S
C489 C17 1.367 . S
C497 C247 1.639 1_655 S
C529 C121 0.461 . S
C521 C74 0.466 . S
C561 C161 0.750 . S
C553 C87 0.695 1_565 S
C593 C197 0.743 . S
C585 C100 0.667 . S
C617 C61 0.515 . S
C625 C241 0.653 . S
C649 C22 0.519 . S
C657 C130 0.414 . S
C689 C170 0.726 . S
C681 C35 0.773 . S
C721 C208 0.746 . S
C713 C48 0.672 . S
C745 C9 0.632 . S
C753 C250 0.605 . S
C777 C73 1.822 1_556 S
C785 C128 2.016 . S
C809 C86 1.853 . S
C817 C168 2.034 . S
C849 C186 1.630 . S
C841 C99 1.576 . S
C881 C248 2.411 . S
C873 C60 2.199 . S
C905 C21 1.789 . S
C913 C117 2.016 . S
C945 C157 2.024 . S
C937 C34 1.854 . S
C977 C207 1.620 . S
C969 C47 1.614 . S
C1001 C8 2.134 . S
C1009 C237 2.407 . S
