# Generated by pormake.
# Topology tsx, (6,3)-cn, num edge types: 1
# Building blocks:
#     Node 0, Type 0, BuildingBlock: VOLQOD_clean_sbu_1, # of connection points: 6
#     Node 1, Type 0, BuildingBlock: VOLQOD_clean_sbu_1, # of connection points: 6
#     Node 2, Type 1, BuildingBlock: CUQRIR_clean_linker_1, # of connection points: 3
#     Node 3, Type 1, BuildingBlock: CUQRIR_clean_linker_1, # of connection points: 3
#     Node 4, Type 1, BuildingBlock: CUQRIR_clean_linker_1, # of connection points: 3
#     Node 5, Type 1, BuildingBlock: CUQRIR_clean_linker_1, # of connection points: 3
#     Edge 6, Type (0, 1), BuildingBlock: UVAHIK_clean_linker_0, # of connection points: 2
#     Edge 7, Type (0, 1), BuildingBlock: UVAHIK_clean_linker_0, # of connection points: 2
#     Edge 8, Type (0, 1), BuildingBlock: UVAHIK_clean_linker_0, # of connection points: 2
#     Edge 9, Type (0, 1), BuildingBlock: UVAHIK_clean_linker_0, # of connection points: 2
#     Edge 10, Type (0, 1), BuildingBlock: UVAHIK_clean_linker_0, # of connection points: 2
#     Edge 11, Type (0, 1), BuildingBlock: UVAHIK_clean_linker_0, # of connection points: 2
#     Edge 12, Type (0, 1), BuildingBlock: UVAHIK_clean_linker_0, # of connection points: 2
#     Edge 13, Type (0, 1), BuildingBlock: UVAHIK_clean_linker_0, # of connection points: 2
#     Edge 14, Type (0, 1), BuildingBlock: UVAHIK_clean_linker_0, # of connection points: 2
#     Edge 15, Type (0, 1), BuildingBlock: UVAHIK_clean_linker_0, # of connection points: 2
#     Edge 16, Type (0, 1), BuildingBlock: UVAHIK_clean_linker_0, # of connection points: 2
#     Edge 17, Type (0, 1), BuildingBlock: UVAHIK_clean_linker_0, # of connection points: 2
# Relax obj value: 0.076
# Max RMSD: 0.144
# Mean RMSD: 0.125
data_MOF--net-tsx--node1-VOLQOD_clean_sbu_1--node2-CUQRIR_clean_linker_1--edge1-UVAHIK_clean_linker_0
_symmetry_space_group_name_H-M    P1
_symmetry_Int_Tables_number       1
_symmetry_cell_setting            triclinic
loop_
_symmetry_equiv_pos_as_xyz
'x, y, z'
_cell_length_a     25.491628
_cell_length_b     26.285555
_cell_length_c     46.228539
_cell_angle_alpha  79.78212
_cell_angle_beta   89.774788
_cell_angle_gamma 90.0903
loop_
_atom_site_label
_atom_site_type_symbol
_atom_site_fract_x
_atom_site_fract_y
_atom_site_fract_z
_atom_type_partial_charge
O0 O 0.08653 0.00629 0.08002 0.0
Zn1 Zn 0.10313 0.00818 0.03692 0.0
O2 O 0.03836 0.01231 0.01376 0.0
Zn3 Zn 0.03107 0.95075 0.99574 0.0
Zn4 Zn 0.97802 0.01711 0.03921 0.0
Zn5 Zn 0.04025 0.07374 0.98304 0.0
O6 O 0.03079 0.96919 0.95129 0.0
O7 O 0.04252 0.05429 0.94295 0.0
O8 O 0.14475 0.9438 0.03349 0.0
O9 O 0.0919 0.90354 0.00676 0.0
O10 O 0.96611 0.90952 0.01009 0.0
O11 O 0.93146 0.95518 0.04139 0.0
O12 O 0.93288 0.07854 0.02382 0.0
O13 O 0.14854 0.07115 0.02354 0.0
O14 O 0.97559 0.11714 0.98402 0.0
O15 O 0.103 0.11804 0.98749 0.0
C16 C 0.04433 0.01253 0.09386 0.0
C17 C 0.03704 0.01186 0.93359 0.0
C18 C 0.93085 0.91606 0.02868 0.0
C19 C 0.13402 0.90528 0.02123 0.0
C20 C 0.93648 0.11437 1.00143 0.0
C21 C 0.143 0.11178 0.00415 0.0
O22 O 0.00049 0.0192 0.08062 0.0
O23 O 0.58183 0.48835 0.58315 0.0
Zn24 Zn 0.60163 0.49109 0.54044 0.0
O25 O 0.53936 0.5001 0.51522 0.0
Zn26 Zn 0.5301 0.44013 0.49607 0.0
Zn27 Zn 0.4778 0.50792 0.53924 0.0
Zn28 Zn 0.54699 0.56173 0.48495 0.0
O29 O 0.53041 0.46015 0.45169 0.0
O30 O 0.54936 0.54391 0.44443 0.0
O31 O 0.64049 0.42504 0.53697 0.0
O32 O 0.58949 0.39096 0.50653 0.0
O33 O 0.46375 0.40082 0.50977 0.0
O34 O 0.42886 0.44815 0.54016 0.0
O35 O 0.43678 0.57174 0.52282 0.0
O36 O 0.65047 0.55216 0.52952 0.0
O37 O 0.48524 0.60918 0.48499 0.0
O38 O 0.61209 0.60123 0.49139 0.0
C39 C 0.53942 0.49783 0.59587 0.0
C40 C 0.54032 0.50261 0.43447 0.0
C41 C 0.42776 0.40884 0.52761 0.0
C42 C 0.63009 0.3891 0.52261 0.0
C43 C 0.44444 0.60808 0.50104 0.0
C44 C 0.6494 0.59285 0.50986 0.0
O45 O 0.49723 0.50847 0.58139 0.0
C46 C 0.00292 0.98213 0.45161 0.0
N47 N 0.0254 0.96648 0.42809 0.0
N48 N 0.96989 0.02202 0.44276 0.0
C49 C 0.01707 0.96188 0.48309 0.0
C50 C 0.97333 0.03035 0.41306 0.0
N51 N 0.00746 -0.00314 0.40412 0.0
C52 C 0.94098 0.06917 0.39286 0.0
H53 H 0.00672 0.98974 0.49754 0.0
H54 H 0.05965 0.95335 0.48509 0.0
H55 H -0.00465 0.92538 0.49063 0.0
H56 H 0.96348 0.10577 0.38723 0.0
H57 H 0.90372 0.07737 0.40363 0.0
H58 H 0.93199 0.05501 0.37219 0.0
C59 C 0.98228 0.03651 0.57721 0.0
N60 N 0.00401 0.053 0.60051 0.0
N61 N 0.94464 0.00081 0.58613 0.0
C62 C -0.00042 0.0536 0.5459 0.0
C63 C 0.94475 -0.00428 0.61581 0.0
N64 N 0.98101 0.02743 0.62457 0.0
C65 C 0.91281 0.95646 0.63623 0.0
H66 H 0.96823 0.04696 0.5305 0.0
H67 H 0.0347 0.03111 0.54166 0.0
H68 H 0.01046 0.09517 0.54192 0.0
H69 H 0.93145 0.91796 0.63773 0.0
H70 H 0.87256 0.95382 0.62766 0.0
H71 H 0.91031 0.96629 0.65855 0.0
C72 C 0.48123 0.47622 0.95252 0.0
N73 N 0.50369 0.45846 0.92965 0.0
N74 N 0.44951 0.51666 0.94266 0.0
C75 C 0.49256 0.4561 0.98442 0.0
C76 C 0.45381 0.52342 0.91307 0.0
N77 N 0.48719 0.4883 0.90511 0.0
C78 C 0.42592 0.56482 0.89213 0.0
H79 H 0.47223 0.41852 0.99122 0.0
H80 H 0.47866 0.48295 0.99873 0.0
H81 H 0.53528 0.44949 0.9877 0.0
H82 H 0.45147 0.59953 0.88739 0.0
H83 H 0.38876 0.57601 0.90185 0.0
H84 H 0.41736 0.55163 0.87113 0.0
C85 C 0.49373 0.53522 0.07641 0.0
N86 N 0.51471 0.55087 0.1002 0.0
N87 N 0.45777 0.49759 0.08473 0.0
C88 C 0.51244 0.55263 0.04538 0.0
C89 C 0.45796 0.49059 0.11444 0.0
N90 N 0.49272 0.52291 0.12391 0.0
C91 C 0.42415 0.452 0.13408 0.0
H92 H 0.48019 0.5506 0.0297 0.0
H93 H 0.54427 0.52655 0.04061 0.0
H94 H 0.52801 0.59269 0.04222 0.0
H95 H 0.44565 0.4149 0.13957 0.0
H96 H 0.38725 0.44481 0.12277 0.0
H97 H 0.41471 0.46579 0.15483 0.0
C98 C 0.17158 0.20312 0.9856 0.0
C99 C 0.18221 0.15394 1.00212 0.0
C100 C 0.20609 0.24433 0.98608 0.0
C101 C 0.34049 0.27817 0.0059 0.0
H102 H 0.27424 0.39846 0.02796 0.0
C103 C 0.44712 0.41256 0.07075 0.0
C104 C 0.4336 0.4649 0.06684 0.0
C105 C 0.42091 0.37935 0.05529 0.0
C106 C 0.29352 0.36587 0.0211 0.0
H107 H 0.23886 0.10895 0.03083 0.0
H108 H 0.29903 0.18084 0.03158 0.0
H109 H 0.22017 0.33045 0.01407 0.0
H110 H 0.38407 0.52471 0.04327 0.0
H111 H 0.33777 0.46659 0.01578 0.0
H112 H 0.41387 0.31308 0.01355 0.0
C113 C 0.26403 0.18746 0.01823 0.0
C114 C 0.26244 0.32677 0.0132 0.0
C115 C 0.22933 0.14635 0.01799 0.0
C116 C 0.39479 0.48426 0.04648 0.0
C117 C 0.36838 0.45101 0.03094 0.0
C118 C 0.37163 0.3175 0.01354 0.0
C119 C 0.2522 0.23711 1.00281 0.0
C120 C 0.28554 0.28179 0.00645 0.0
C121 C 0.38053 0.39793 0.03558 0.0
C122 C 0.34842 0.36096 0.02225 0.0
H123 H 0.13574 0.21032 0.97305 0.0
H124 H 0.1962 0.28212 0.97382 0.0
H125 H 0.35933 0.24426 1.00032 0.0
H126 H 0.4772 0.39727 0.08636 0.0
H127 H 0.43081 0.33868 0.05981 0.0
C128 C 0.22402 0.86701 0.03065 0.0
C129 C 0.17113 0.86161 0.0232 0.0
C130 C 0.25946 0.82658 0.02997 0.0
C131 C 0.26775 0.6865 0.02783 0.0
H132 H 0.39056 0.72439 0.979 0.0
C133 C 0.36933 0.54606 0.96399 0.0
C134 C 0.42354 0.54995 0.95947 0.0
C135 C 0.34343 0.58093 0.97858 0.0
C136 C 0.35717 0.71302 0.99326 0.0
H137 H 0.11342 0.80871 0.01074 0.0
H138 H 0.17492 0.73863 0.00965 0.0
H139 H 0.33635 0.79176 0.99357 0.0
H140 H 0.49402 0.59129 0.9668 0.0
H141 H 0.44911 0.65249 0.99278 0.0
H142 H 0.28774 0.60775 0.02683 0.0
C143 C 0.18914 0.77389 0.01602 0.0
C144 C 0.3261 0.75172 1.0016 0.0
C145 C 0.15399 0.81431 0.01636 0.0
C146 C 0.452 0.58817 0.97019 0.0
C147 C 0.42625 0.62309 0.98484 0.0
C148 C 0.29898 0.64777 0.01962 0.0
C149 C 0.2424 0.77985 0.02229 0.0
C150 C 0.28015 0.73889 0.01816 0.0
C151 C 0.37151 0.62035 0.98883 0.0
C152 C 0.34308 0.66066 1.00143 0.0
H153 H 0.23836 0.90297 0.03606 0.0
H154 H 0.30031 0.83209 0.035 0.0
H155 H 0.23294 0.67551 0.04099 0.0
H156 H 0.34709 0.51669 0.95563 0.0
H157 H 0.30118 0.57816 0.98084 0.0
C158 C 0.84319 0.88935 0.05068 0.0
C159 C 0.88909 0.87689 0.03655 0.0
C160 C 0.80455 0.85206 0.05936 0.0
C161 C 0.75823 0.72351 0.04725 0.0
H162 H 0.6807 0.72625 0.11936 0.0
C163 C 0.60942 0.56488 0.09409 0.0
C164 C 0.55979 0.58358 0.09991 0.0
C165 C 0.65227 0.59849 0.08912 0.0
C166 C 0.70206 0.72514 0.09918 0.0
H167 H 0.93054 0.81546 0.02049 0.0
H168 H 0.86379 0.74983 0.0364 0.0
H169 H 0.75081 0.78891 0.10465 0.0
H170 H 0.51507 0.65094 0.10526 0.0
H171 H 0.59048 0.71009 0.0975 0.0
H172 H 0.7097 0.65917 0.04213 0.0
C173 C 0.85698 0.78878 0.04017 0.0
C174 C 0.74199 0.76119 0.0906 0.0
C175 C 0.89538 0.82635 0.03111 0.0
C176 C 0.55355 0.63586 0.10159 0.0
C177 C 0.5965 0.66947 0.09701 0.0
C178 C 0.71878 0.68707 0.05605 0.0
C179 C 0.81114 0.80111 0.05452 0.0
C180 C 0.77018 0.76126 0.06432 0.0
C181 C 0.646 0.65127 0.09008 0.0
C182 C 0.68999 0.68788 0.08193 0.0
H183 H 0.83696 0.9281 0.05497 0.0
H184 H 0.7693 0.86339 0.06969 0.0
H185 H 0.7784 0.72282 0.02667 0.0
H186 H 0.61437 0.52462 0.09234 0.0
H187 H 0.69006 0.58348 0.08395 0.0
C188 C 0.89832 0.19532 0.97231 0.0
C189 C 0.89272 0.15135 0.99437 0.0
C190 C 0.85582 0.22827 0.96429 0.0
C191 C 0.72411 0.26222 0.98972 0.0
H192 H 0.70481 0.32143 0.90743 0.0
C193 C 0.53612 0.37083 0.9485 0.0
C194 C 0.54423 0.42008 0.93166 0.0
C195 C 0.5777 0.33606 0.95417 0.0
C196 C 0.70989 0.30526 0.93048 0.0
H197 H 0.8381 0.10768 0.0254 0.0
H198 H 0.76389 0.16428 0.01099 0.0
H199 H 0.78005 0.26558 0.92222 0.0
H200 H 0.6008 0.47123 0.90644 0.0
H201 H 0.67371 0.4099 0.91571 0.0
H202 H 0.6535 0.30136 0.99785 0.0
C203 C 0.80133 0.17409 1.00029 0.0
C204 C 0.75311 0.27353 0.93902 0.0
C205 C 0.84392 0.14147 0.0085 0.0
C206 C 0.59374 0.43313 0.91919 0.0
C207 C 0.6353 0.39817 0.92459 0.0
C208 C 0.68069 0.29343 0.98114 0.0
C209 C 0.80662 0.21774 0.97795 0.0
C210 C 0.76083 0.25171 0.96878 0.0
C211 C 0.62796 0.34984 0.94279 0.0
C212 C 0.67319 0.31532 0.95146 0.0
H213 H 0.93547 0.20418 0.96109 0.0
H214 H 0.86162 0.26205 0.94741 0.0
H215 H 0.72926 0.24696 0.01287 0.0
H216 H 0.49791 0.35993 0.95792 0.0
H217 H 0.57081 0.29873 0.96789 0.0
C218 C 0.72468 0.6306 0.53362 0.0
C219 C 0.69001 0.63318 0.50986 0.0
C220 C 0.75872 0.67158 0.53539 0.0
C221 C 0.77043 0.81191 0.50945 0.0
H222 H 0.90472 0.7913 0.54873 0.0
C223 C 0.95049 0.93323 0.55579 0.0
C224 C 0.91997 0.96694 0.56912 0.0
C225 C 0.92651 0.8959 0.54223 0.0
C226 C 0.86779 0.79803 0.53721 0.0
H227 H 0.66621 0.67959 0.46839 0.0
H228 H 0.72648 0.75058 0.47119 0.0
H229 H 0.8584 0.71763 0.53592 0.0
H230 H 0.84128 0.99082 0.57753 0.0
H231 H 0.79872 0.92499 0.55435 0.0
H232 H 0.78004 0.89242 0.51058 0.0
C233 C 0.72638 0.71742 0.48884 0.0
C234 C 0.84084 0.75556 0.53024 0.0
C235 C 0.69203 0.67657 0.48717 0.0
C236 C 0.86524 0.96464 0.56753 0.0
C237 C 0.84113 0.92734 0.55399 0.0
C238 C 0.79759 0.85447 0.51621 0.0
C239 C 0.75927 0.71596 0.51331 0.0
C240 C 0.79117 0.76176 0.51703 0.0
C241 C 0.87151 0.8917 0.54176 0.0
C242 C 0.84593 0.84786 0.5309 0.0
H243 H 0.72411 0.59784 0.55151 0.0
H244 H 0.78294 0.66932 0.55477 0.0
H245 H 0.73211 0.81818 0.49944 0.0
H246 H 0.99288 0.93463 0.55687 0.0
H247 H 0.95107 0.86954 0.53273 0.0
C248 C 0.65641 0.30746 0.506 0.0
C249 C 0.66581 0.34433 0.52399 0.0
C250 C 0.69046 0.26606 0.50612 0.0
C251 C 0.82714 0.22772 0.52208 0.0
H252 H 0.77511 0.09874 0.50337 0.0
C253 C 0.90408 0.02818 0.4812 0.0
C254 C 0.94118 0.05184 0.46064 0.0
C255 C 0.87383 0.05812 0.49712 0.0
C256 C 0.79062 0.13391 0.50922 0.0
H257 H 0.71784 0.36562 0.55693 0.0
H258 H 0.77731 0.29253 0.5574 0.0
H259 H 0.71386 0.16039 0.51776 0.0
H260 H 0.97789 0.12397 0.44128 0.0
H261 H 0.92469 0.17669 0.46833 0.0
H262 H 0.90398 0.20104 0.5137 0.0
C263 C 0.74376 0.29626 0.54288 0.0
C264 C 0.7553 0.1697 0.51706 0.0
C265 C 0.70965 0.33808 0.54266 0.0
C266 C 0.94906 0.1053 0.45692 0.0
C267 C 0.91903 0.13521 0.47276 0.0
C268 C 0.86257 0.19161 0.5146 0.0
C269 C 0.73476 0.25999 0.5244 0.0
C270 C 0.77289 0.21804 0.52223 0.0
C271 C 0.88047 0.11217 0.49278 0.0
C272 C 0.84451 0.14531 0.50674 0.0
H273 H 0.62317 0.31099 0.49125 0.0
H274 H 0.68281 0.23974 0.49106 0.0
H275 H 0.8422 0.26442 0.526 0.0
H276 H 0.89781 0.9868 0.4844 0.0
H277 H 0.84488 0.03904 0.51252 0.0
C278 C 0.33952 0.38425 0.54946 0.0
C279 C 0.38476 0.37092 0.53504 0.0
C280 C 0.30001 0.34788 0.55805 0.0
C281 C 0.24915 0.2217 0.54515 0.0
H282 H 0.17643 0.2229 0.61893 0.0
C283 C 0.09845 0.06534 0.59203 0.0
C284 C 0.05005 0.08456 0.5996 0.0
C285 C 0.14193 0.09804 0.58673 0.0
C286 C 0.19638 0.22226 0.59826 0.0
H287 H 0.4239 0.30897 0.5182 0.0
H288 H 0.35545 0.24501 0.53382 0.0
H289 H 0.24743 0.28435 0.6038 0.0
H290 H 0.00824 0.1519 0.60782 0.0
H291 H 0.0848 0.20944 0.59938 0.0
H292 H 0.19825 0.15919 0.53987 0.0
C293 C 0.34999 0.28392 0.53797 0.0
C294 C 0.23683 0.25758 0.58947 0.0
C295 C 0.38933 0.32054 0.52907 0.0
C296 C 0.04579 0.13636 0.60276 0.0
C297 C 0.08938 0.16906 0.59778 0.0
C298 C 0.20909 0.18604 0.55411 0.0
C299 C 0.30499 0.29707 0.55275 0.0
C300 C 0.26334 0.25813 0.56264 0.0
C301 C 0.13756 0.15043 0.58908 0.0
C302 C 0.18203 0.1863 0.58061 0.0
H303 H 0.33458 0.42289 0.55417 0.0
H304 H 0.2654 0.35976 0.56875 0.0
H305 H 0.26807 0.22148 0.52417 0.0
H306 H 0.10191 0.02542 0.58927 0.0
H307 H 0.17869 0.08265 0.58026 0.0
C308 C 0.35294 0.64043 0.50539 0.0
C309 C 0.40333 0.64764 0.49284 0.0
C310 C 0.31272 0.67523 0.49575 0.0
C311 C 0.28608 0.80777 0.45936 0.0
H312 H 0.1511 0.75198 0.44211 0.0
C313 C 0.11484 0.94187 0.41583 0.0
C314 C 0.06598 0.92835 0.42899 0.0
C315 C 0.15634 0.90668 0.41988 0.0
C316 C 0.18839 0.76821 0.44705 0.0
H317 H 0.45136 0.69803 0.46096 0.0
H318 H 0.38107 0.75923 0.44447 0.0
H319 H 0.22354 0.6934 0.45819 0.0
H320 H 0.02075 0.86745 0.45529 0.0
H321 H 0.09333 0.80619 0.46326 0.0
H322 H 0.25076 0.88245 0.44917 0.0
C323 C 0.37283 0.72643 0.46165 0.0
C324 C 0.22984 0.73464 0.45623 0.0
C325 C 0.41297 0.69131 0.47107 0.0
C326 C 0.05842 0.87855 0.44519 0.0
C327 C 0.09987 0.84348 0.44945 0.0
C328 C 0.24448 0.84136 0.45044 0.0
C329 C 0.32214 0.71825 0.47359 0.0
C330 C 0.2789 0.75407 0.46278 0.0
C331 C 0.14967 0.85746 0.43733 0.0
C332 C 0.19495 0.82196 0.44447 0.0
H333 H 0.34411 0.60719 0.52217 0.0
H334 H 0.27414 0.66844 0.50561 0.0
H335 H 0.32343 0.82373 0.46446 0.0
H336 H 0.12139 0.98032 0.4034 0.0
H337 H 0.1939 0.91841 0.40982 0.0
C338 C 0.09298 0.00148 0.14183 0.0
C339 C 0.04566 0.01013 0.12617 0.0
C340 C 0.0935 -0.0028 0.17244 0.0
C341 C 0.0066 0.9681 0.23751 0.0
H342 H 0.11444 0.03578 0.27599 0.0
C343 C 0.03893 0.03759 0.35504 0.0
C344 C 0.02097 0.99363 0.37425 0.0
C345 C 0.04769 0.03592 0.32538 0.0
C346 C 0.08403 0.01668 0.26556 0.0
H347 H 0.9619 0.02188 0.13054 0.0
H348 H 0.96301 0.01492 0.18367 0.0
H349 H 0.1171 0.04152 0.22269 0.0
H350 H 1e-05 0.91304 0.37829 0.0
H351 H 0.0159 0.90949 0.3263 0.0
H352 H 0.97256 0.9446 0.28015 0.0
C353 C -0.00041 0.01063 0.17236 0.0
C354 C 0.08583 0.01958 0.23506 0.0
C355 C -0.00094 0.01501 0.14182 0.0
C356 C 0.01384 0.94732 0.3637 0.0
C357 C 0.02252 0.94554 0.334 0.0
C358 C 0.00487 0.9651 0.26797 0.0
C359 C 0.04671 0.0013 0.18807 0.0
C360 C 0.0467 -0.00408 0.22064 0.0
C361 C 0.03869 0.99011 0.31439 0.0
C362 C 0.04318 0.98989 0.28233 0.0
H363 H 0.1296 -0.00256 0.1305 0.0
H364 H 0.1304 0.98968 0.18393 0.0
H365 H 0.97626 0.94881 0.22713 0.0
H366 H 0.04519 0.0735 0.36294 0.0
H367 H 0.05969 0.07104 0.31089 0.0
C368 C 0.04249 0.96655 0.89019 0.0
C369 C 0.03747 0.01256 0.90147 0.0
C370 C 0.0426 0.96755 0.85983 0.0
C371 C 0.05759 0.05698 0.78792 0.0
H372 H 0.98479 0.94776 0.75789 0.0
C373 C 0.99078 0.07133 0.66706 0.0
C374 C -0.00222 0.02739 0.65422 0.0
C375 C 0.00217 0.06958 0.69679 0.0
C376 C 0.00583 0.97821 0.76597 0.0
H377 H 0.02833 0.09572 0.88964 0.0
H378 H 0.02684 0.0973 0.83696 0.0
H379 H 0.99106 0.94416 0.81075 0.0
H380 H 0.02355 0.94792 0.66148 0.0
H381 H 0.04292 0.94426 0.71375 0.0
H382 H 0.07054 0.0918 0.74287 0.0
C383 C 0.03216 0.0605 0.85142 0.0
C384 C 0.00959 0.97611 0.7963 0.0
C385 C 0.03263 0.05956 0.88171 0.0
C386 C 0.01773 0.98208 0.67119 0.0
C387 C 0.02858 0.98004 0.70096 0.0
C388 C 0.05328 0.05934 0.75756 0.0
C389 C 0.03712 0.01454 0.84003 0.0
C390 C 0.03522 0.01565 0.8077 0.0
C391 C 0.02016 0.02356 0.71417 0.0
C392 C 0.02713 0.0201 0.7463 0.0
H393 H 0.04672 0.92973 0.90479 0.0
H394 H 0.04735 0.93146 0.8519 0.0
H395 H 0.07852 0.08762 0.79584 0.0
H396 H 0.9745 0.10625 0.65439 0.0
H397 H 0.99479 0.10353 0.70647 0.0
C398 C 0.49153 0.50257 0.64284 0.0
C399 C 0.53862 0.49503 0.62824 0.0
C400 C 0.4902 0.4984 0.67339 0.0
C401 C 0.57381 0.50372 0.7377 0.0
H402 H 0.45489 0.4359 0.78099 0.0
C403 C 0.4932 0.43756 0.86522 0.0
C404 C 0.50211 0.48375 0.87562 0.0
C405 C 0.50289 0.43482 0.83572 0.0
C406 C 0.48872 0.45439 0.76931 0.0
H407 H 0.62145 0.4776 0.63447 0.0
H408 H 0.61899 0.47024 0.68784 0.0
H409 H 0.46094 0.43905 0.72808 0.0
H410 H 0.53084 0.56214 0.86435 0.0
H411 H 0.54731 0.55797 0.81268 0.0
H412 H 0.60156 0.51902 0.779 0.0
C413 C 0.58317 0.47969 0.67556 0.0
C414 C 0.49184 0.45679 0.73891 0.0
C415 C 0.58449 0.48372 0.64496 0.0
C416 C 0.5231 0.5264 0.85654 0.0
C417 C 0.53295 0.52373 0.82711 0.0
C418 C 0.57061 0.50145 0.76812 0.0
C419 C 0.53592 0.48668 0.69014 0.0
C420 C 0.53409 0.48201 0.72268 0.0
C421 C 0.52202 0.47821 0.81618 0.0
C422 C 0.52773 0.47723 0.78425 0.0
H423 H 0.45544 0.51147 0.63072 0.0
H424 H 0.45334 0.50487 0.68388 0.0
H425 H 0.60673 0.52368 0.72584 0.0
H426 H 0.47714 0.40426 0.87974 0.0
H427 H 0.49476 0.39897 0.8281 0.0
C428 C 0.53862 0.55211 0.38289 0.0
C429 C 0.54062 0.50442 0.40223 0.0
C430 C 0.5378 0.55406 0.35248 0.0
C431 C 0.51002 0.47263 0.29628 0.0
H432 H 0.57792 0.58534 0.24385 0.0
C433 C 0.52483 0.47698 0.17158 0.0
C434 C 0.50771 0.52285 0.15389 0.0
C435 C 0.53364 0.47503 0.20155 0.0
C436 C 0.55865 0.55377 0.25826 0.0
H437 H 0.5445 0.42136 0.40473 0.0
H438 H 0.54471 0.42474 0.35172 0.0
H439 H 0.58452 0.58035 0.29696 0.0
H440 H 0.48747 0.60281 0.15317 0.0
H441 H 0.50441 0.60016 0.20562 0.0
H442 H 0.48486 0.44579 0.25748 0.0
C443 C 0.54232 0.4607 0.36 0.0
C444 C 0.56217 0.55096 0.2887 0.0
C445 C 0.5425 0.45873 0.39044 0.0
C446 C 0.50163 0.56739 0.16634 0.0
C447 C 0.51103 0.56569 0.1963 0.0
C448 C 0.50708 0.47513 0.26589 0.0
C449 C 0.5396 0.5084 0.34059 0.0
C450 C 0.53756 0.51053 0.30815 0.0
C451 C 0.52605 0.51916 0.21432 0.0
C452 C 0.53108 0.51587 0.24657 0.0
H453 H 0.53677 0.58808 0.39122 0.0
H454 H 0.5347 0.59146 0.33836 0.0
H455 H 0.48964 0.44153 0.31043 0.0
H456 H 0.53022 0.44237 0.16224 0.0
H457 H 0.54584 0.43884 0.21483 0.0
loop_
_geom_bond_atom_site_label_1
_geom_bond_atom_site_label_2
_geom_bond_distance
_geom_bond_site_symmetry_2
_ccdc_geom_bond_type
O0 Zn1 1.953 . S
O0 C16 1.225 . S
Zn1 O0 1.953 . S
Zn1 O2 1.949 1_565 S
Zn1 O8 1.919 . S
Zn1 O13 1.924 1_565 S
O2 Zn1 1.949 1_545 S
O2 Zn3 1.923 1_544 S
O2 Zn4 1.950 1_455 S
O2 Zn5 1.945 1_554 S
Zn3 O2 1.923 1_566 S
Zn3 O6 1.933 . S
Zn3 O9 1.941 . S
Zn3 O10 1.965 1_456 S
Zn4 O2 1.950 1_655 S
Zn4 O11 1.938 1_545 S
Zn4 O12 1.906 . S
Zn4 O22 1.953 . S
Zn5 O2 1.945 1_556 S
Zn5 O7 1.932 . S
Zn5 O14 1.977 1_455 S
Zn5 O15 1.910 . S
O6 Zn3 1.933 . S
O6 C17 1.226 1_565 S
O7 Zn5 1.932 . S
O7 C17 1.307 . S
O8 Zn1 1.919 . S
O8 C19 1.253 . S
O9 Zn3 1.941 . S
O9 C19 1.283 1_556 S
O10 Zn3 1.965 1_654 S
O10 C18 1.303 . S
O11 Zn4 1.938 1_565 S
O11 C18 1.247 . S
O12 Zn4 1.906 . S
O12 C20 1.304 1_554 S
O13 Zn1 1.924 1_545 S
O13 C21 1.311 . S
O14 Zn5 1.977 1_655 S
O14 C20 1.272 . S
O15 Zn5 1.910 . S
O15 C21 1.231 1_556 S
C16 O0 1.225 . S
C16 O22 1.298 1_465 S
C17 O6 1.226 1_545 S
C17 O7 1.307 . S
C18 O10 1.303 . S
C18 O11 1.247 . S
C19 O8 1.253 . S
C19 O9 1.283 1_554 S
C20 O12 1.304 1_556 S
C20 O14 1.272 . S
C21 O13 1.311 . S
C21 O15 1.231 1_554 S
O22 Zn4 1.953 . S
O22 C16 1.298 1_645 S
O23 Zn24 1.953 . S
O23 C39 1.225 . S
Zn24 O23 1.953 . S
Zn24 O25 1.949 . S
Zn24 O31 1.919 . S
Zn24 O36 1.924 . S
O25 Zn24 1.949 . S
O25 Zn26 1.923 . S
O25 Zn27 1.950 . S
O25 Zn28 1.945 . S
Zn26 O25 1.923 . S
Zn26 O29 1.933 . S
Zn26 O32 1.941 . S
Zn26 O33 1.965 . S
Zn27 O25 1.950 . S
Zn27 O34 1.938 . S
Zn27 O35 1.906 . S
Zn27 O45 1.953 . S
Zn28 O25 1.945 . S
Zn28 O30 1.932 . S
Zn28 O37 1.977 . S
Zn28 O38 1.910 . S
O29 Zn26 1.933 . S
O29 C40 1.226 . S
O30 Zn28 1.932 . S
O30 C40 1.307 . S
O31 Zn24 1.919 . S
O31 C42 1.253 . S
O32 Zn26 1.941 . S
O32 C42 1.283 . S
O33 Zn26 1.965 . S
O33 C41 1.303 . S
O34 Zn27 1.938 . S
O34 C41 1.247 . S
O35 Zn27 1.906 . S
O35 C43 1.304 . S
O36 Zn24 1.924 . S
O36 C44 1.311 . S
O37 Zn28 1.977 . S
O37 C43 1.272 . S
O38 Zn28 1.910 . S
O38 C44 1.231 . S
C39 O23 1.225 . S
C39 O45 1.298 . S
C40 O29 1.226 . S
C40 O30 1.307 . S
C41 O33 1.303 . S
C41 O34 1.247 . S
C42 O31 1.253 . S
C42 O32 1.283 . S
C43 O35 1.304 . S
C43 O37 1.272 . S
C44 O36 1.311 . S
C44 O38 1.231 . S
O45 Zn27 1.953 . S
O45 C39 1.298 . S
C46 N47 1.317 1_545 S
C46 N48 1.348 1_455 S
C46 C49 1.485 1_545 S
N47 C46 1.317 1_565 S
N47 N51 1.370 1_565 S
N48 C46 1.348 1_655 S
N48 C50 1.346 . S
C49 C46 1.485 1_565 S
C49 H53 0.961 1_455 S
C49 H54 0.961 1_565 S
C49 H55 0.960 . S
C50 N48 1.346 . S
C50 N51 1.307 1_655 S
C50 C52 1.486 . S
N51 N47 1.370 1_545 S
N51 C50 1.307 1_455 S
C52 C50 1.486 . S
C52 H56 0.960 . S
C52 H57 0.960 . S
C52 H58 0.959 . S
H53 C49 0.961 1_655 S
H54 C49 0.961 1_545 S
H55 C49 0.960 . S
H56 C52 0.960 . S
H57 C52 0.960 . S
H58 C52 0.959 . S
C59 N60 1.317 . S
C59 N61 1.348 1_445 S
C59 C62 1.485 . S
N60 C59 1.317 . S
N60 N64 1.370 . S
N61 C59 1.348 1_665 S
N61 C63 1.346 . S
C62 C59 1.485 . S
C62 H66 0.960 . S
C62 H67 0.961 1_545 S
C62 H68 0.960 . S
C63 N61 1.346 . S
C63 N64 1.307 1_665 S
C63 C65 1.486 . S
N64 N60 1.370 . S
N64 C63 1.307 1_445 S
C65 C63 1.486 . S
C65 H69 0.960 . S
C65 H70 0.960 . S
C65 H71 0.959 . S
H66 C62 0.960 . S
H67 C62 0.961 1_565 S
H68 C62 0.960 . S
H69 C65 0.960 . S
H70 C65 0.960 . S
H71 C65 0.959 . S
C72 N73 1.317 . S
C72 N74 1.348 . S
C72 C75 1.485 . S
N73 C72 1.317 . S
N73 N77 1.370 . S
N74 C72 1.348 . S
N74 C76 1.346 . S
C75 C72 1.485 . S
C75 H79 0.960 . S
C75 H80 0.961 . S
C75 H81 0.960 . S
C76 N74 1.346 . S
C76 N77 1.307 . S
C76 C78 1.486 . S
N77 N73 1.370 . S
N77 C76 1.307 . S
C78 C76 1.486 . S
C78 H82 0.960 . S
C78 H83 0.960 . S
C78 H84 0.959 . S
H79 C75 0.960 . S
H80 C75 0.961 . S
H81 C75 0.960 . S
H82 C78 0.960 . S
H83 C78 0.960 . S
H84 C78 0.959 . S
C85 N86 1.317 . S
C85 N87 1.348 . S
C85 C88 1.485 . S
N86 C85 1.317 . S
N86 N90 1.370 . S
N87 C85 1.348 . S
N87 C89 1.346 . S
C88 C85 1.485 . S
C88 H92 0.960 . S
C88 H93 0.961 . S
C88 H94 0.960 . S
C89 N87 1.346 . S
C89 N90 1.307 . S
C89 C91 1.486 . S
N90 N86 1.370 . S
N90 C89 1.307 . S
C91 C89 1.486 . S
C91 H95 0.960 . S
C91 H96 0.960 . S
C91 H97 0.959 . S
H92 C88 0.960 . S
H93 C88 0.961 . S
H94 C88 0.960 . S
H95 C91 0.960 . S
H96 C91 0.960 . S
H97 C91 0.959 . S
C98 C99 1.349 . S
C98 C100 1.327 . S
C98 H123 0.950 . S
C99 C98 1.349 . S
C99 C115 1.349 . S
C100 C98 1.327 . S
C100 C119 1.429 . S
C100 H124 0.950 . S
C101 C118 1.574 . S
C101 C120 1.368 . S
C101 H125 0.949 . S
H102 C106 0.949 . S
C103 C104 1.349 . S
C103 C105 1.327 . S
C103 H126 0.950 . S
C104 C103 1.349 . S
C104 C116 1.349 . S
C105 C103 1.327 . S
C105 C121 1.429 . S
C105 H127 0.950 . S
C106 H102 0.949 . S
C106 C114 1.574 . S
C106 C122 1.368 . S
H107 C115 0.950 . S
H108 C113 0.950 . S
H109 C114 0.949 . S
H110 C116 0.950 . S
H111 C117 0.950 . S
H112 C118 0.949 . S
C113 H108 0.950 . S
C113 C115 1.327 . S
C113 C119 1.429 . S
C114 C106 1.574 . S
C114 H109 0.949 . S
C114 C120 1.368 . S
C115 C99 1.349 . S
C115 H107 0.950 . S
C115 C113 1.327 . S
C116 C104 1.349 . S
C116 H110 0.950 . S
C116 C117 1.327 . S
C117 H111 0.950 . S
C117 C116 1.327 . S
C117 C121 1.429 . S
C118 C101 1.574 . S
C118 H112 0.949 . S
C118 C122 1.368 . S
C119 C100 1.429 . S
C119 C113 1.429 . S
C119 C120 1.523 . S
C120 C101 1.368 . S
C120 C114 1.368 . S
C120 C119 1.523 . S
C121 C105 1.429 . S
C121 C117 1.429 . S
C121 C122 1.523 . S
C122 C106 1.368 . S
C122 C118 1.368 . S
C122 C121 1.523 . S
H123 C98 0.950 . S
H124 C100 0.950 . S
H125 C101 0.949 . S
H126 C103 0.950 . S
H127 C105 0.950 . S
C128 C129 1.349 . S
C128 C130 1.327 . S
C128 H153 0.950 . S
C129 C128 1.349 . S
C129 C145 1.349 1_556 S
C130 C128 1.327 . S
C130 C149 1.429 . S
C130 H154 0.950 . S
C131 C148 1.574 . S
C131 C150 1.368 . S
C131 H155 0.949 . S
H132 C136 0.949 . S
C133 C134 1.349 . S
C133 C135 1.327 . S
C133 H156 0.950 . S
C134 C133 1.349 . S
C134 C146 1.349 . S
C135 C133 1.327 . S
C135 C151 1.429 . S
C135 H157 0.950 . S
C136 H132 0.949 . S
C136 C144 1.574 . S
C136 C152 1.368 . S
H137 C145 0.950 . S
H138 C143 0.950 . S
H139 C144 0.949 . S
H140 C146 0.950 . S
H141 C147 0.950 . S
H142 C148 0.949 . S
C143 H138 0.950 . S
C143 C145 1.327 . S
C143 C149 1.429 1_554 S
C144 C136 1.574 . S
C144 H139 0.949 . S
C144 C150 1.368 . S
C145 C129 1.349 1_554 S
C145 H137 0.950 . S
C145 C143 1.327 . S
C146 C134 1.349 . S
C146 H140 0.950 . S
C146 C147 1.327 . S
C147 H141 0.950 . S
C147 C146 1.327 . S
C147 C151 1.429 . S
C148 C131 1.574 . S
C148 H142 0.949 . S
C148 C152 1.368 . S
C149 C130 1.429 . S
C149 C143 1.429 1_556 S
C149 C150 1.523 . S
C150 C131 1.368 . S
C150 C144 1.368 . S
C150 C149 1.523 . S
C151 C135 1.429 . S
C151 C147 1.429 . S
C151 C152 1.523 . S
C152 C136 1.368 . S
C152 C148 1.368 . S
C152 C151 1.523 . S
H153 C128 0.950 . S
H154 C130 0.950 . S
H155 C131 0.949 . S
H156 C133 0.950 . S
H157 C135 0.950 . S
C158 C159 1.349 . S
C158 C160 1.327 . S
C158 H183 0.950 . S
C159 C158 1.349 . S
C159 C175 1.349 . S
C160 C158 1.327 . S
C160 C179 1.429 . S
C160 H184 0.950 . S
C161 C178 1.574 . S
C161 C180 1.368 . S
C161 H185 0.949 . S
H162 C166 0.949 . S
C163 C164 1.349 . S
C163 C165 1.327 . S
C163 H186 0.950 . S
C164 C163 1.349 . S
C164 C176 1.349 . S
C165 C163 1.327 . S
C165 C181 1.429 . S
C165 H187 0.950 . S
C166 H162 0.949 . S
C166 C174 1.574 . S
C166 C182 1.368 . S
H167 C175 0.950 . S
H168 C173 0.950 . S
H169 C174 0.949 . S
H170 C176 0.950 . S
H171 C177 0.950 . S
H172 C178 0.949 . S
C173 H168 0.950 . S
C173 C175 1.327 . S
C173 C179 1.429 . S
C174 C166 1.574 . S
C174 H169 0.949 . S
C174 C180 1.368 . S
C175 C159 1.349 . S
C175 H167 0.950 . S
C175 C173 1.327 . S
C176 C164 1.349 . S
C176 H170 0.950 . S
C176 C177 1.327 . S
C177 H171 0.950 . S
C177 C176 1.327 . S
C177 C181 1.429 . S
C178 C161 1.574 . S
C178 H172 0.949 . S
C178 C182 1.368 . S
C179 C160 1.429 . S
C179 C173 1.429 . S
C179 C180 1.523 . S
C180 C161 1.368 . S
C180 C174 1.368 . S
C180 C179 1.523 . S
C181 C165 1.429 . S
C181 C177 1.429 . S
C181 C182 1.523 . S
C182 C166 1.368 . S
C182 C178 1.368 . S
C182 C181 1.523 . S
H183 C158 0.950 . S
H184 C160 0.950 . S
H185 C161 0.949 . S
H186 C163 0.950 . S
H187 C165 0.950 . S
C188 C189 1.349 . S
C188 C190 1.327 . S
C188 H213 0.950 . S
C189 C188 1.349 . S
C189 C205 1.349 1_556 S
C190 C188 1.327 . S
C190 C209 1.429 . S
C190 H214 0.950 . S
C191 C208 1.574 . S
C191 C210 1.368 . S
C191 H215 0.949 1_556 S
H192 C196 0.949 . S
C193 C194 1.349 . S
C193 C195 1.327 . S
C193 H216 0.950 . S
C194 C193 1.349 . S
C194 C206 1.349 . S
C195 C193 1.327 . S
C195 C211 1.429 . S
C195 H217 0.950 . S
C196 H192 0.949 . S
C196 C204 1.574 . S
C196 C212 1.368 . S
H197 C205 0.950 . S
H198 C203 0.978 . S
H199 C204 0.949 . S
H200 C206 0.950 . S
H201 C207 0.950 . S
H202 C208 0.949 . S
C203 H198 0.978 . S
C203 C205 1.331 . S
C203 C209 1.398 1_554 S
C204 C196 1.574 . S
C204 H199 0.949 . S
C204 C210 1.368 . S
C205 C189 1.349 1_554 S
C205 H197 0.950 . S
C205 C203 1.331 . S
C206 C194 1.349 . S
C206 H200 0.950 . S
C206 C207 1.327 . S
C207 H201 0.950 . S
C207 C206 1.327 . S
C207 C211 1.429 . S
C208 C191 1.574 . S
C208 H202 0.949 . S
C208 C212 1.368 . S
C209 C190 1.429 . S
C209 C203 1.398 1_556 S
C209 C210 1.523 . S
C210 C191 1.368 . S
C210 C204 1.368 . S
C210 C209 1.523 . S
C211 C195 1.429 . S
C211 C207 1.429 . S
C211 C212 1.523 . S
C212 C196 1.368 . S
C212 C208 1.368 . S
C212 C211 1.523 . S
H213 C188 0.950 . S
H214 C190 0.950 . S
H215 C191 0.949 1_554 S
H216 C193 0.950 . S
H217 C195 0.950 . S
C218 C219 1.349 . S
C218 C220 1.327 . S
C218 H243 0.950 . S
C219 C218 1.349 . S
C219 C235 1.349 . S
C220 C218 1.327 . S
C220 C239 1.429 . S
C220 H244 0.950 . S
C221 C238 1.574 . S
C221 C240 1.368 . S
C221 H245 0.949 . S
H222 C226 0.949 . S
C223 C224 1.349 . S
C223 C225 1.327 . S
C223 H246 0.950 . S
C224 C223 1.349 . S
C224 C236 1.349 . S
C225 C223 1.327 . S
C225 C241 1.429 . S
C225 H247 0.950 . S
C226 H222 0.949 . S
C226 C234 1.574 . S
C226 C242 1.368 . S
H227 C235 0.950 . S
H228 C233 0.950 . S
H229 C234 0.949 . S
H230 C236 0.950 . S
H231 C237 0.950 . S
H232 C238 0.949 . S
C233 H228 0.950 . S
C233 C235 1.327 . S
C233 C239 1.429 . S
C234 C226 1.574 . S
C234 H229 0.949 . S
C234 C240 1.368 . S
C235 C219 1.349 . S
C235 H227 0.950 . S
C235 C233 1.327 . S
C236 C224 1.349 . S
C236 H230 0.950 . S
C236 C237 1.327 . S
C237 H231 0.950 . S
C237 C236 1.327 . S
C237 C241 1.429 . S
C238 C221 1.574 . S
C238 H232 0.949 . S
C238 C242 1.368 . S
C239 C220 1.429 . S
C239 C233 1.429 . S
C239 C240 1.523 . S
C240 C221 1.368 . S
C240 C234 1.368 . S
C240 C239 1.523 . S
C241 C225 1.429 . S
C241 C237 1.429 . S
C241 C242 1.523 . S
C242 C226 1.368 . S
C242 C238 1.368 . S
C242 C241 1.523 . S
H243 C218 0.950 . S
H244 C220 0.950 . S
H245 C221 0.949 . S
H246 C223 0.950 . S
H247 C225 0.950 . S
C248 C249 1.349 . S
C248 C250 1.327 . S
C248 H273 0.950 . S
C249 C248 1.349 . S
C249 C265 1.349 . S
C250 C248 1.327 . S
C250 C269 1.429 . S
C250 H274 0.950 . S
C251 C268 1.574 . S
C251 C270 1.368 . S
C251 H275 0.949 . S
H252 C256 0.949 . S
C253 C254 1.349 . S
C253 C255 1.327 . S
C253 H276 0.950 . S
C254 C253 1.349 . S
C254 C266 1.349 . S
C255 C253 1.327 . S
C255 C271 1.429 . S
C255 H277 0.950 . S
C256 H252 0.949 . S
C256 C264 1.574 . S
C256 C272 1.368 . S
H257 C265 0.950 . S
H258 C263 0.950 . S
H259 C264 0.949 . S
H260 C266 0.950 . S
H261 C267 0.950 . S
H262 C268 0.949 . S
C263 H258 0.950 . S
C263 C265 1.327 . S
C263 C269 1.429 . S
C264 C256 1.574 . S
C264 H259 0.949 . S
C264 C270 1.368 . S
C265 C249 1.349 . S
C265 H257 0.950 . S
C265 C263 1.327 . S
C266 C254 1.349 . S
C266 H260 0.950 . S
C266 C267 1.327 . S
C267 H261 0.950 . S
C267 C266 1.327 . S
C267 C271 1.429 . S
C268 C251 1.574 . S
C268 H262 0.949 . S
C268 C272 1.368 . S
C269 C250 1.429 . S
C269 C263 1.429 . S
C269 C270 1.523 . S
C270 C251 1.368 . S
C270 C264 1.368 . S
C270 C269 1.523 . S
C271 C255 1.429 . S
C271 C267 1.429 . S
C271 C272 1.523 . S
C272 C256 1.368 . S
C272 C268 1.368 . S
C272 C271 1.523 . S
H273 C248 0.950 . S
H274 C250 0.950 . S
H275 C251 0.949 . S
H276 C253 0.950 . S
H277 C255 0.950 . S
C278 C279 1.349 . S
C278 C280 1.327 . S
C278 H303 0.950 . S
C279 C278 1.349 . S
C279 C295 1.349 . S
C280 C278 1.327 . S
C280 C299 1.429 . S
C280 H304 0.950 . S
C281 C298 1.574 . S
C281 C300 1.368 . S
C281 H305 0.949 . S
H282 C286 0.949 . S
C283 C284 1.349 . S
C283 C285 1.327 . S
C283 H306 0.950 . S
C284 C283 1.349 . S
C284 C296 1.349 . S
C285 C283 1.327 . S
C285 C301 1.429 . S
C285 H307 0.950 . S
C286 H282 0.949 . S
C286 C294 1.574 . S
C286 C302 1.368 . S
H287 C295 0.950 . S
H288 C293 0.950 . S
H289 C294 0.949 . S
H290 C296 0.950 . S
H291 C297 0.950 . S
H292 C298 0.949 . S
C293 H288 0.950 . S
C293 C295 1.327 . S
C293 C299 1.429 . S
C294 C286 1.574 . S
C294 H289 0.949 . S
C294 C300 1.368 . S
C295 C279 1.349 . S
C295 H287 0.950 . S
C295 C293 1.327 . S
C296 C284 1.349 . S
C296 H290 0.950 . S
C296 C297 1.327 . S
C297 H291 0.950 . S
C297 C296 1.327 . S
C297 C301 1.429 . S
C298 C281 1.574 . S
C298 H292 0.949 . S
C298 C302 1.368 . S
C299 C280 1.429 . S
C299 C293 1.429 . S
C299 C300 1.523 . S
C300 C281 1.368 . S
C300 C294 1.368 . S
C300 C299 1.523 . S
C301 C285 1.429 . S
C301 C297 1.429 . S
C301 C302 1.523 . S
C302 C286 1.368 . S
C302 C298 1.368 . S
C302 C301 1.523 . S
H303 C278 0.950 . S
H304 C280 0.950 . S
H305 C281 0.949 . S
H306 C283 0.950 . S
H307 C285 0.950 . S
C308 C309 1.349 . S
C308 C310 1.327 . S
C308 H333 0.950 . S
C309 C308 1.349 . S
C309 C325 1.349 . S
C310 C308 1.327 . S
C310 C329 1.429 . S
C310 H334 0.950 . S
C311 C328 1.574 . S
C311 C330 1.368 . S
C311 H335 0.949 . S
H312 C316 0.949 . S
C313 C314 1.349 . S
C313 C315 1.327 . S
C313 H336 0.950 . S
C314 C313 1.349 . S
C314 C326 1.349 . S
C315 C313 1.327 . S
C315 C331 1.429 . S
C315 H337 0.950 . S
C316 H312 0.949 . S
C316 C324 1.574 . S
C316 C332 1.368 . S
H317 C325 0.950 . S
H318 C323 0.950 . S
H319 C324 0.949 . S
H320 C326 0.950 . S
H321 C327 0.950 . S
H322 C328 0.949 . S
C323 H318 0.950 . S
C323 C325 1.327 . S
C323 C329 1.429 . S
C324 C316 1.574 . S
C324 H319 0.949 . S
C324 C330 1.368 . S
C325 C309 1.349 . S
C325 H317 0.950 . S
C325 C323 1.327 . S
C326 C314 1.349 . S
C326 H320 0.950 . S
C326 C327 1.327 . S
C327 H321 0.950 . S
C327 C326 1.327 . S
C327 C331 1.429 . S
C328 C311 1.574 . S
C328 H322 0.949 . S
C328 C332 1.368 . S
C329 C310 1.429 . S
C329 C323 1.429 . S
C329 C330 1.523 . S
C330 C311 1.368 . S
C330 C324 1.368 . S
C330 C329 1.523 . S
C331 C315 1.429 . S
C331 C327 1.429 . S
C331 C332 1.523 . S
C332 C316 1.368 . S
C332 C328 1.368 . S
C332 C331 1.523 . S
H333 C308 0.950 . S
H334 C310 0.950 . S
H335 C311 0.949 . S
H336 C313 0.950 . S
H337 C315 0.950 . S
C338 C339 1.349 . S
C338 C340 1.327 . S
C338 H363 0.950 . S
C339 C338 1.349 . S
C339 C355 1.349 1_565 S
C340 C338 1.327 . S
C340 C359 1.429 . S
C340 H364 0.950 . S
C341 C358 1.574 . S
C341 C360 1.368 1_545 S
C341 H365 0.949 1_455 S
H342 C346 0.949 . S
C343 C344 1.348 1_645 S
C343 C345 1.327 1_655 S
C343 H366 0.951 . S
C344 C343 1.348 1_465 S
C344 C356 1.349 . S
C345 C343 1.327 1_455 S
C345 C361 1.429 1_545 S
C345 H367 0.950 1_455 S
C346 H342 0.949 . S
C346 C354 1.574 . S
C346 C362 1.368 . S
H347 C355 0.950 . S
H348 C353 0.951 . S
H349 C354 0.949 . S
H350 C356 0.950 . S
H351 C357 0.950 . S
H352 C358 0.949 1_655 S
C353 H348 0.951 . S
C353 C355 1.327 . S
C353 C359 1.429 1_545 S
C354 C346 1.574 . S
C354 H349 0.949 . S
C354 C360 1.368 . S
C355 C339 1.349 1_545 S
C355 H347 0.950 . S
C355 C353 1.327 . S
C356 C344 1.349 . S
C356 H350 0.950 . S
C356 C357 1.327 . S
C357 H351 0.950 . S
C357 C356 1.327 . S
C357 C361 1.429 . S
C358 C341 1.574 . S
C358 H352 0.949 1_455 S
C358 C362 1.368 1_545 S
C359 C340 1.429 . S
C359 C353 1.429 1_565 S
C359 C360 1.523 . S
C360 C341 1.368 1_565 S
C360 C354 1.368 . S
C360 C359 1.523 . S
C361 C345 1.429 1_565 S
C361 C357 1.429 . S
C361 C362 1.523 . S
C362 C346 1.368 . S
C362 C358 1.368 1_565 S
C362 C361 1.523 . S
H363 C338 0.950 . S
H364 C340 0.950 . S
H365 C341 0.949 1_655 S
H366 C343 0.951 . S
H367 C345 0.950 1_655 S
C368 C369 1.349 1_565 S
C368 C370 1.327 . S
C368 H393 0.950 1_455 S
C369 C368 1.349 1_545 S
C369 C385 1.349 . S
C370 C368 1.327 . S
C370 C389 1.429 1_565 S
C370 H394 0.950 1_455 S
C371 C388 1.574 . S
C371 C390 1.368 . S
C371 H395 0.949 . S
H372 C376 0.949 1_655 S
C373 C374 1.349 . S
C373 C375 1.327 . S
C373 H396 0.950 . S
C374 C373 1.349 . S
C374 C386 1.349 1_545 S
C375 C373 1.327 . S
C375 C391 1.429 . S
C375 H397 0.950 . S
C376 H372 0.949 1_455 S
C376 C384 1.574 . S
C376 C392 1.368 1_565 S
H377 C385 0.950 . S
H378 C383 0.950 . S
H379 C384 0.949 1_655 S
H380 C386 0.950 1_655 S
H381 C387 0.950 1_655 S
H382 C388 0.949 . S
C383 H378 0.950 . S
C383 C385 1.327 . S
C383 C389 1.429 . S
C384 C376 1.574 . S
C384 H379 0.949 1_455 S
C384 C390 1.368 1_565 S
C385 C369 1.349 . S
C385 H377 0.950 . S
C385 C383 1.327 . S
C386 C374 1.349 1_565 S
C386 H380 0.950 1_455 S
C386 C387 1.327 . S
C387 H381 0.950 1_455 S
C387 C386 1.327 . S
C387 C391 1.429 1_565 S
C388 C371 1.574 . S
C388 H382 0.949 . S
C388 C392 1.368 . S
C389 C370 1.429 1_545 S
C389 C383 1.429 . S
C389 C390 1.523 . S
C390 C371 1.368 . S
C390 C384 1.368 1_545 S
C390 C389 1.523 . S
C391 C375 1.429 . S
C391 C387 1.429 1_545 S
C391 C392 1.523 . S
C392 C376 1.368 1_545 S
C392 C388 1.368 . S
C392 C391 1.523 . S
H393 C368 0.950 1_655 S
H394 C370 0.950 1_655 S
H395 C371 0.949 . S
H396 C373 0.950 . S
H397 C375 0.950 . S
C398 C399 1.349 . S
C398 C400 1.327 . S
C398 H423 0.950 . S
C399 C398 1.349 . S
C399 C415 1.349 . S
C400 C398 1.327 . S
C400 C419 1.429 . S
C400 H424 0.950 . S
C401 C418 1.574 . S
C401 C420 1.368 . S
C401 H425 0.949 . S
H402 C406 0.949 . S
C403 C404 1.349 . S
C403 C405 1.327 . S
C403 H426 0.950 . S
C404 C403 1.349 . S
C404 C416 1.349 . S
C405 C403 1.327 . S
C405 C421 1.429 . S
C405 H427 0.950 . S
C406 H402 0.949 . S
C406 C414 1.574 . S
C406 C422 1.368 . S
H407 C415 0.950 . S
H408 C413 0.950 . S
H409 C414 0.949 . S
H410 C416 0.950 . S
H411 C417 0.950 . S
H412 C418 0.949 . S
C413 H408 0.950 . S
C413 C415 1.327 . S
C413 C419 1.429 . S
C414 C406 1.574 . S
C414 H409 0.949 . S
C414 C420 1.368 . S
C415 C399 1.349 . S
C415 H407 0.950 . S
C415 C413 1.327 . S
C416 C404 1.349 . S
C416 H410 0.950 . S
C416 C417 1.327 . S
C417 H411 0.950 . S
C417 C416 1.327 . S
C417 C421 1.429 . S
C418 C401 1.574 . S
C418 H412 0.949 . S
C418 C422 1.368 . S
C419 C400 1.429 . S
C419 C413 1.429 . S
C419 C420 1.523 . S
C420 C401 1.368 . S
C420 C414 1.368 . S
C420 C419 1.523 . S
C421 C405 1.429 . S
C421 C417 1.429 . S
C421 C422 1.523 . S
C422 C406 1.368 . S
C422 C418 1.368 . S
C422 C421 1.523 . S
H423 C398 0.950 . S
H424 C400 0.950 . S
H425 C401 0.949 . S
H426 C403 0.950 . S
H427 C405 0.950 . S
C428 C429 1.349 . S
C428 C430 1.327 . S
C428 H453 0.950 . S
C429 C428 1.349 . S
C429 C445 1.349 . S
C430 C428 1.327 . S
C430 C449 1.429 . S
C430 H454 0.950 . S
C431 C448 1.574 . S
C431 C450 1.368 . S
C431 H455 0.949 . S
H432 C436 0.949 . S
C433 C434 1.349 . S
C433 C435 1.327 . S
C433 H456 0.950 . S
C434 C433 1.349 . S
C434 C446 1.349 . S
C435 C433 1.327 . S
C435 C451 1.429 . S
C435 H457 0.950 . S
C436 H432 0.949 . S
C436 C444 1.574 . S
C436 C452 1.368 . S
H437 C445 0.950 . S
H438 C443 0.950 . S
H439 C444 0.949 . S
H440 C446 0.950 . S
H441 C447 0.950 . S
H442 C448 0.949 . S
C443 H438 0.950 . S
C443 C445 1.327 . S
C443 C449 1.429 . S
C444 C436 1.574 . S
C444 H439 0.949 . S
C444 C450 1.368 . S
C445 C429 1.349 . S
C445 H437 0.950 . S
C445 C443 1.327 . S
C446 C434 1.349 . S
C446 H440 0.950 . S
C446 C447 1.327 . S
C447 H441 0.950 . S
C447 C446 1.327 . S
C447 C451 1.429 . S
C448 C431 1.574 . S
C448 H442 0.949 . S
C448 C452 1.368 . S
C449 C430 1.429 . S
C449 C443 1.429 . S
C449 C450 1.523 . S
C450 C431 1.368 . S
C450 C444 1.368 . S
C450 C449 1.523 . S
C451 C435 1.429 . S
C451 C447 1.429 . S
C451 C452 1.523 . S
C452 C436 1.368 . S
C452 C448 1.368 . S
C452 C451 1.523 . S
H453 C428 0.950 . S
H454 C430 0.950 . S
H455 C431 0.949 . S
H456 C433 0.950 . S
H457 C435 0.950 . S
C104 N87 1.356 . S
C99 C21 1.360 . S
C129 C19 1.354 1_556 S
C134 N74 1.357 . S
C159 C18 1.482 . S
C164 N86 1.508 . S
C189 C20 1.515 . S
C194 N73 1.521 . S
C219 C44 1.360 . S
C224 N61 1.356 . S
C249 C42 1.354 . S
C254 N48 1.357 . S
C284 N60 1.508 . S
C279 C41 1.482 . S
C314 N47 1.521 . S
C309 C43 1.515 . S
C339 C16 1.531 . S
C344 N51 1.513 1_565 S
C369 C17 1.493 . S
C374 N64 1.478 . S
C404 N77 1.513 . S
C399 C39 1.531 . S
C429 C40 1.493 . S
C434 N90 1.478 . S
