# Generated by pormake.
# Topology eea, (3,6)-cn, num edge types: 1
# Building blocks:
#     Node 0, Type 0, BuildingBlock: KAKCAD_clean_linker_0, # of connection points: 3
#     Node 1, Type 0, BuildingBlock: KAKCAD_clean_linker_0, # of connection points: 3
#     Node 2, Type 0, BuildingBlock: KAKCAD_clean_linker_0, # of connection points: 3
#     Node 3, Type 0, BuildingBlock: KAKCAD_clean_linker_0, # of connection points: 3
#     Node 4, Type 0, BuildingBlock: KAKCAD_clean_linker_0, # of connection points: 3
#     Node 5, Type 0, BuildingBlock: KAKCAD_clean_linker_0, # of connection points: 3
#     Node 6, Type 0, BuildingBlock: KAKCAD_clean_linker_0, # of connection points: 3
#     Node 7, Type 0, BuildingBlock: KAKCAD_clean_linker_0, # of connection points: 3
#     Node 8, Type 0, BuildingBlock: KAKCAD_clean_linker_0, # of connection points: 3
#     Node 9, Type 0, BuildingBlock: KAKCAD_clean_linker_0, # of connection points: 3
#     Node 10, Type 0, BuildingBlock: KAKCAD_clean_linker_0, # of connection points: 3
#     Node 11, Type 0, BuildingBlock: KAKCAD_clean_linker_0, # of connection points: 3
#     Node 12, Type 0, BuildingBlock: KAKCAD_clean_linker_0, # of connection points: 3
#     Node 13, Type 0, BuildingBlock: KAKCAD_clean_linker_0, # of connection points: 3
#     Node 14, Type 0, BuildingBlock: KAKCAD_clean_linker_0, # of connection points: 3
#     Node 15, Type 0, BuildingBlock: KAKCAD_clean_linker_0, # of connection points: 3
#     Node 16, Type 0, BuildingBlock: KAKCAD_clean_linker_0, # of connection points: 3
#     Node 17, Type 0, BuildingBlock: KAKCAD_clean_linker_0, # of connection points: 3
#     Node 18, Type 1, BuildingBlock: HISSIN_clean_sbu_0, # of connection points: 6
#     Node 19, Type 1, BuildingBlock: HISSIN_clean_sbu_0, # of connection points: 6
#     Node 20, Type 1, BuildingBlock: HISSIN_clean_sbu_0, # of connection points: 6
#     Node 21, Type 1, BuildingBlock: HISSIN_clean_sbu_0, # of connection points: 6
#     Node 22, Type 1, BuildingBlock: HISSIN_clean_sbu_0, # of connection points: 6
#     Node 23, Type 1, BuildingBlock: HISSIN_clean_sbu_0, # of connection points: 6
#     Node 24, Type 1, BuildingBlock: HISSIN_clean_sbu_0, # of connection points: 6
#     Node 25, Type 1, BuildingBlock: HISSIN_clean_sbu_0, # of connection points: 6
#     Node 26, Type 1, BuildingBlock: HISSIN_clean_sbu_0, # of connection points: 6
#     Edge 27, Type (0, 1), BuildingBlock: ZUJKAS_clean_linker_0, # of connection points: 2
#     Edge 28, Type (0, 1), BuildingBlock: ZUJKAS_clean_linker_0, # of connection points: 2
#     Edge 29, Type (0, 1), BuildingBlock: ZUJKAS_clean_linker_0, # of connection points: 2
#     Edge 30, Type (0, 1), BuildingBlock: ZUJKAS_clean_linker_0, # of connection points: 2
#     Edge 31, Type (0, 1), BuildingBlock: ZUJKAS_clean_linker_0, # of connection points: 2
#     Edge 32, Type (0, 1), BuildingBlock: ZUJKAS_clean_linker_0, # of connection points: 2
#     Edge 33, Type (0, 1), BuildingBlock: ZUJKAS_clean_linker_0, # of connection points: 2
#     Edge 34, Type (0, 1), BuildingBlock: ZUJKAS_clean_linker_0, # of connection points: 2
#     Edge 35, Type (0, 1), BuildingBlock: ZUJKAS_clean_linker_0, # of connection points: 2
#     Edge 36, Type (0, 1), BuildingBlock: ZUJKAS_clean_linker_0, # of connection points: 2
#     Edge 37, Type (0, 1), BuildingBlock: ZUJKAS_clean_linker_0, # of connection points: 2
#     Edge 38, Type (0, 1), BuildingBlock: ZUJKAS_clean_linker_0, # of connection points: 2
#     Edge 39, Type (0, 1), BuildingBlock: ZUJKAS_clean_linker_0, # of connection points: 2
#     Edge 40, Type (0, 1), BuildingBlock: ZUJKAS_clean_linker_0, # of connection points: 2
#     Edge 41, Type (0, 1), BuildingBlock: ZUJKAS_clean_linker_0, # of connection points: 2
#     Edge 42, Type (0, 1), BuildingBlock: ZUJKAS_clean_linker_0, # of connection points: 2
#     Edge 43, Type (0, 1), BuildingBlock: ZUJKAS_clean_linker_0, # of connection points: 2
#     Edge 44, Type (0, 1), BuildingBlock: ZUJKAS_clean_linker_0, # of connection points: 2
#     Edge 45, Type (0, 1), BuildingBlock: ZUJKAS_clean_linker_0, # of connection points: 2
#     Edge 46, Type (0, 1), BuildingBlock: ZUJKAS_clean_linker_0, # of connection points: 2
#     Edge 47, Type (0, 1), BuildingBlock: ZUJKAS_clean_linker_0, # of connection points: 2
#     Edge 48, Type (0, 1), BuildingBlock: ZUJKAS_clean_linker_0, # of connection points: 2
#     Edge 49, Type (0, 1), BuildingBlock: ZUJKAS_clean_linker_0, # of connection points: 2
#     Edge 50, Type (0, 1), BuildingBlock: ZUJKAS_clean_linker_0, # of connection points: 2
#     Edge 51, Type (0, 1), BuildingBlock: ZUJKAS_clean_linker_0, # of connection points: 2
#     Edge 52, Type (0, 1), BuildingBlock: ZUJKAS_clean_linker_0, # of connection points: 2
#     Edge 53, Type (0, 1), BuildingBlock: ZUJKAS_clean_linker_0, # of connection points: 2
#     Edge 54, Type (0, 1), BuildingBlock: ZUJKAS_clean_linker_0, # of connection points: 2
#     Edge 55, Type (0, 1), BuildingBlock: ZUJKAS_clean_linker_0, # of connection points: 2
#     Edge 56, Type (0, 1), BuildingBlock: ZUJKAS_clean_linker_0, # of connection points: 2
#     Edge 57, Type (0, 1), BuildingBlock: ZUJKAS_clean_linker_0, # of connection points: 2
#     Edge 58, Type (0, 1), BuildingBlock: ZUJKAS_clean_linker_0, # of connection points: 2
#     Edge 59, Type (0, 1), BuildingBlock: ZUJKAS_clean_linker_0, # of connection points: 2
#     Edge 60, Type (0, 1), BuildingBlock: ZUJKAS_clean_linker_0, # of connection points: 2
#     Edge 61, Type (0, 1), BuildingBlock: ZUJKAS_clean_linker_0, # of connection points: 2
#     Edge 62, Type (0, 1), BuildingBlock: ZUJKAS_clean_linker_0, # of connection points: 2
#     Edge 63, Type (0, 1), BuildingBlock: ZUJKAS_clean_linker_0, # of connection points: 2
#     Edge 64, Type (0, 1), BuildingBlock: ZUJKAS_clean_linker_0, # of connection points: 2
#     Edge 65, Type (0, 1), BuildingBlock: ZUJKAS_clean_linker_0, # of connection points: 2
#     Edge 66, Type (0, 1), BuildingBlock: ZUJKAS_clean_linker_0, # of connection points: 2
#     Edge 67, Type (0, 1), BuildingBlock: ZUJKAS_clean_linker_0, # of connection points: 2
#     Edge 68, Type (0, 1), BuildingBlock: ZUJKAS_clean_linker_0, # of connection points: 2
#     Edge 69, Type (0, 1), BuildingBlock: ZUJKAS_clean_linker_0, # of connection points: 2
#     Edge 70, Type (0, 1), BuildingBlock: ZUJKAS_clean_linker_0, # of connection points: 2
#     Edge 71, Type (0, 1), BuildingBlock: ZUJKAS_clean_linker_0, # of connection points: 2
#     Edge 72, Type (0, 1), BuildingBlock: ZUJKAS_clean_linker_0, # of connection points: 2
#     Edge 73, Type (0, 1), BuildingBlock: ZUJKAS_clean_linker_0, # of connection points: 2
#     Edge 74, Type (0, 1), BuildingBlock: ZUJKAS_clean_linker_0, # of connection points: 2
#     Edge 75, Type (0, 1), BuildingBlock: ZUJKAS_clean_linker_0, # of connection points: 2
#     Edge 76, Type (0, 1), BuildingBlock: ZUJKAS_clean_linker_0, # of connection points: 2
#     Edge 77, Type (0, 1), BuildingBlock: ZUJKAS_clean_linker_0, # of connection points: 2
#     Edge 78, Type (0, 1), BuildingBlock: ZUJKAS_clean_linker_0, # of connection points: 2
#     Edge 79, Type (0, 1), BuildingBlock: ZUJKAS_clean_linker_0, # of connection points: 2
#     Edge 80, Type (0, 1), BuildingBlock: ZUJKAS_clean_linker_0, # of connection points: 2
# Relax obj value: 0.034
# Max RMSD: 0.135
# Mean RMSD: 0.066
data_MOF--net-eea--node1-HISSIN_clean_sbu_0--node2-KAKCAD_clean_linker_0--edge1-ZUJKAS_clean_linker_0
_symmetry_space_group_name_H-M    P1
_symmetry_Int_Tables_number       1
_symmetry_cell_setting            triclinic
loop_
_symmetry_equiv_pos_as_xyz
'x, y, z'
_cell_length_a     78.257778
_cell_length_b     78.382388
_cell_length_c     108.86267
_cell_angle_alpha  93.636873
_cell_angle_beta   93.440681
_cell_angle_gamma 119.83934
loop_
_atom_site_label
_atom_site_type_symbol
_atom_site_fract_x
_atom_site_fract_y
_atom_site_fract_z
_atom_type_partial_charge
C0 C 0.30614 0.17716 0.46337 0.0
C1 C 0.31843 0.17022 0.46804 0.0
C2 C 0.30104 0.17531 0.45064 0.0
C3 C 0.3082 0.16657 0.44227 0.0
C4 C 0.32099 0.1602 0.44692 0.0
C5 C 0.32602 0.16196 0.45965 0.0
C6 C 0.30138 0.16307 0.42884 0.0
C7 C 0.29874 0.17714 0.42291 0.0
C8 C 0.29063 0.17311 0.41048 0.0
C9 C 0.28558 0.15494 0.4039 0.0
C10 C 0.28827 0.14079 0.40964 0.0
C11 C 0.29622 0.14499 0.42208 0.0
C12 C 0.2816 0.12109 0.40291 0.0
C13 C 0.26312 0.11077 0.39573 0.0
C14 C 0.29327 0.11215 0.404 0.0
C15 C 0.28645 0.09313 0.39821 0.0
C16 C 0.26779 0.08265 0.39125 0.0
C17 C 0.28607 0.18718 0.4046 0.0
C18 C 0.27763 0.19661 0.41121 0.0
C19 C 0.28889 0.19029 0.39212 0.0
C20 C 0.28272 0.20196 0.38627 0.0
C21 C 0.27371 0.21086 0.3928 0.0
C22 C 0.27157 0.20836 0.40538 0.0
C23 C 0.25629 0.09175 0.38998 0.0
H24 H 0.30029 0.18388 0.46955 0.0
H25 H 0.29099 0.18019 0.4474 0.0
H26 H 0.32695 0.15361 0.44072 0.0
H27 H 0.33539 0.15632 0.46293 0.0
H28 H 0.30292 0.19122 0.428 0.0
H29 H 0.29745 0.13373 0.42669 0.0
H30 H 0.27903 0.15155 0.39438 0.0
H31 H 0.25369 0.11718 0.39483 0.0
H32 H 0.30763 0.11981 0.4094 0.0
H33 H 0.29558 0.08645 0.39945 0.0
H34 H 0.27496 0.19429 0.42078 0.0
H35 H 0.29565 0.1835 0.38682 0.0
H36 H 0.24193 0.08412 0.38457 0.0
H37 H 0.26445 0.21482 0.41061 0.0
H38 H 0.28481 0.20387 0.3766 0.0
C39 C 0.88464 0.17972 0.46791 0.0
C40 C 0.87968 0.16643 0.47697 0.0
C41 C 0.88711 0.17429 0.45592 0.0
C42 C 0.88451 0.15542 0.45276 0.0
C43 C 0.88013 0.1424 0.4619 0.0
C44 C 0.87784 0.14786 0.47386 0.0
C45 C 0.8856 0.14888 0.43989 0.0
C46 C 0.90156 0.16082 0.43333 0.0
C47 C 0.90295 0.154 0.42137 0.0
C48 C 0.88788 0.13531 0.4159 0.0
C49 C 0.87176 0.1233 0.4223 0.0
C50 C 0.87076 0.13022 0.43428 0.0
C51 C 0.85627 0.10331 0.4166 0.0
C52 C 0.84881 0.10021 0.40409 0.0
C53 C 0.84909 0.08709 0.4236 0.0
C54 C 0.83491 0.06817 0.41819 0.0
C55 C 0.82756 0.06503 0.40566 0.0
C56 C 0.92044 0.16593 0.41469 0.0
C57 C 0.92823 0.18638 0.41451 0.0
C58 C 0.92939 0.15678 0.40835 0.0
C59 C 0.94559 0.16775 0.40185 0.0
C60 C 0.95327 0.18816 0.40153 0.0
C61 C 0.94446 0.19738 0.40798 0.0
C62 C 0.83459 0.08128 0.39868 0.0
H63 H 0.88604 0.19408 0.46996 0.0
H64 H 0.89041 0.18458 0.44903 0.0
H65 H 0.87842 0.1279 0.45977 0.0
H66 H 0.87457 0.13745 0.48067 0.0
H67 H 0.91329 0.17503 0.43774 0.0
H68 H 0.85823 0.12114 0.43923 0.0
H69 H 0.88885 0.12997 0.40669 0.0
H70 H 0.85391 0.11244 0.39848 0.0
H71 H 0.85469 0.08895 0.43323 0.0
H72 H 0.82964 0.056 0.42385 0.0
H73 H 0.92154 0.19381 0.41922 0.0
H74 H 0.924 0.14112 0.40852 0.0
H75 H 0.82936 0.07932 0.38897 0.0
H76 H 0.94991 0.21304 0.40782 0.0
H77 H 0.95228 0.16025 0.39722 0.0
C78 C 0.89483 0.74151 0.47466 0.0
C79 C 0.87556 0.72747 0.477 0.0
C80 C 0.89833 0.74928 0.46326 0.0
C81 C 0.88266 0.74316 0.45387 0.0
C82 C 0.86345 0.72888 0.45614 0.0
C83 C 0.85994 0.72118 0.46756 0.0
C84 C 0.88623 0.75197 0.44189 0.0
C85 C 0.90335 0.7561 0.43617 0.0
C86 C 0.90695 0.76475 0.42497 0.0
C87 C 0.89309 0.7692 0.41948 0.0
C88 C 0.87583 0.76503 0.42498 0.0
C89 C 0.87257 0.75648 0.43619 0.0
C90 C 0.8612 0.76963 0.41903 0.0
C91 C 0.8675 0.7877 0.41407 0.0
C92 C 0.8408 0.75591 0.41823 0.0
C93 C 0.82702 0.76012 0.41253 0.0
C94 C 0.8333 0.7782 0.40755 0.0
C95 C 0.92517 0.76924 0.41899 0.0
C96 C 0.94356 0.77702 0.42613 0.0
C97 C 0.92439 0.76612 0.40604 0.0
C98 C 0.94158 0.77097 0.40038 0.0
C99 C 0.95997 0.77896 0.40752 0.0
C100 C 0.96074 0.78178 0.42047 0.0
C101 C 0.85373 0.79195 0.40842 0.0
H102 H 0.90726 0.74652 0.48165 0.0
H103 H 0.91328 0.76039 0.46189 0.0
H104 H 0.85107 0.7236 0.44908 0.0
H105 H 0.84487 0.71056 0.46904 0.0
H106 H 0.9137 0.75218 0.4403 0.0
H107 H 0.85958 0.75385 0.44065 0.0
H108 H 0.89573 0.77594 0.41089 0.0
H109 H 0.8831 0.7987 0.41471 0.0
H110 H 0.83549 0.74174 0.42181 0.0
H111 H 0.81145 0.74904 0.41185 0.0
H112 H 0.94477 0.77987 0.43611 0.0
H113 H 0.91044 0.75979 0.40026 0.0
H114 H 0.85909 0.80616 0.40489 0.0
H115 H 0.97472 0.78812 0.42622 0.0
H116 H 0.94043 0.7683 0.3904 0.0
C117 C 0.12707 0.25071 0.52842 0.0
C118 C 0.12469 0.26688 0.52601 0.0
C119 C 0.12357 0.24319 0.53988 0.0
C120 C 0.11744 0.25153 0.54921 0.0
C121 C 0.11468 0.26744 0.54677 0.0
C122 C 0.11833 0.27507 0.53532 0.0
C123 C 0.11434 0.24384 0.56151 0.0
C124 C 0.12823 0.2398 0.56739 0.0
C125 C 0.1255 0.23233 0.57895 0.0
C126 C 0.10853 0.22882 0.58461 0.0
C127 C 0.09436 0.23263 0.57886 0.0
C128 C 0.0975 0.24032 0.56735 0.0
C129 C 0.07614 0.22816 0.58482 0.0
C130 C 0.06601 0.2107 0.59054 0.0
C131 C 0.0688 0.24129 0.58492 0.0
C132 C 0.05185 0.23714 0.59071 0.0
C133 C 0.0418 0.21972 0.5965 0.0
C134 C 0.14029 0.22807 0.58506 0.0
C135 C 0.14856 0.21875 0.57816 0.0
C136 C 0.14619 0.23322 0.59784 0.0
C137 C 0.16003 0.22912 0.60358 0.0
C138 C 0.16825 0.21973 0.59669 0.0
C139 C 0.16235 0.2146 0.58391 0.0
C140 C 0.04908 0.20654 0.59631 0.0
H141 H 0.1315 0.24371 0.52141 0.0
H142 H 0.12551 0.23071 0.54141 0.0
H143 H 0.11015 0.27429 0.55382 0.0
H144 H 0.11658 0.28768 0.53387 0.0
H145 H 0.14146 0.2429 0.56306 0.0
H146 H 0.08651 0.24296 0.56272 0.0
H147 H 0.10629 0.22297 0.5935 0.0
H148 H 0.0711 0.20012 0.5905 0.0
H149 H 0.07632 0.25493 0.58067 0.0
H150 H 0.04653 0.24752 0.59057 0.0
H151 H 0.14419 0.21442 0.56833 0.0
H152 H 0.14025 0.24059 0.6034 0.0
H153 H 0.04186 0.19309 0.60079 0.0
H154 H 0.16854 0.20754 0.5783 0.0
H155 H 0.1641 0.2331 0.61346 0.0
C156 C 0.67451 0.8174 0.54554 0.0
C157 C 0.6824 0.83296 0.53801 0.0
C158 C 0.68034 0.82096 0.55828 0.0
C159 C 0.6941 0.84016 0.56374 0.0
C160 C 0.70193 0.85569 0.55621 0.0
C161 C 0.69618 0.85213 0.54351 0.0
C162 C 0.70088 0.84411 0.57716 0.0
C163 C 0.7064 0.83181 0.58294 0.0
C164 C 0.71484 0.83672 0.59531 0.0
C165 C 0.71746 0.85396 0.60195 0.0
C166 C 0.71182 0.86633 0.59636 0.0
C167 C 0.70328 0.8611 0.58401 0.0
C168 C 0.71611 0.88536 0.60313 0.0
C169 C 0.7142 0.88685 0.61587 0.0
C170 C 0.72305 0.90247 0.59695 0.0
C171 C 0.72817 0.92062 0.60336 0.0
C172 C 0.72668 0.92217 0.61612 0.0
C173 C 0.72214 0.82457 0.60106 0.0
C174 C 0.71058 0.80383 0.59968 0.0
C175 C 0.74095 0.83372 0.6078 0.0
C176 C 0.74808 0.82238 0.61306 0.0
C177 C 0.73653 0.80162 0.61173 0.0
C178 C 0.71768 0.79247 0.60499 0.0
C179 C 0.71954 0.9051 0.62231 0.0
H180 H 0.6637 0.8025 0.54161 0.0
H181 H 0.67399 0.80873 0.56388 0.0
H182 H 0.71288 0.87058 0.56009 0.0
H183 H 0.7029 0.86439 0.53796 0.0
H184 H 0.70513 0.81899 0.57762 0.0
H185 H 0.69864 0.87038 0.57963 0.0
H186 H 0.72439 0.85799 0.6114 0.0
H187 H 0.70864 0.87393 0.62088 0.0
H188 H 0.72514 0.90201 0.58722 0.0
H189 H 0.73394 0.93361 0.59839 0.0
H190 H 0.69596 0.79641 0.5946 0.0
H191 H 0.75036 0.84966 0.60882 0.0
H192 H 0.71811 0.90588 0.63214 0.0
H193 H 0.70831 0.77652 0.60392 0.0
H194 H 0.76282 0.82991 0.61796 0.0
C195 C 0.10739 0.82583 0.53471 0.0
C196 C 0.12641 0.83061 0.53177 0.0
C197 C 0.10447 0.83066 0.5467 0.0
C198 C 0.12051 0.84031 0.55601 0.0
C199 C 0.1394 0.84447 0.55313 0.0
C200 C 0.14232 0.83973 0.54115 0.0
C201 C 0.11784 0.84677 0.56854 0.0
C202 C 0.10104 0.83464 0.57444 0.0
C203 C 0.09863 0.84089 0.58628 0.0
C204 C 0.11314 0.85948 0.59218 0.0
C205 C 0.12985 0.87192 0.58637 0.0
C206 C 0.13208 0.86541 0.57457 0.0
C207 C 0.14471 0.89193 0.59243 0.0
C208 C 0.1386 0.90396 0.5986 0.0
C209 C 0.16508 0.89931 0.5919 0.0
C210 C 0.179 0.91835 0.59731 0.0
C211 C 0.17287 0.93046 0.60337 0.0
C212 C 0.08077 0.82831 0.59244 0.0
C213 C 0.06178 0.81973 0.58601 0.0
C214 C 0.08258 0.82555 0.60498 0.0
C215 C 0.06574 0.81475 0.61102 0.0
C216 C 0.04667 0.8066 0.60471 0.0
C217 C 0.04491 0.80906 0.59208 0.0
C218 C 0.15251 0.92298 0.60401 0.0
H219 H 0.09487 0.81894 0.52764 0.0
H220 H 0.08977 0.82742 0.54857 0.0
H221 H 0.152 0.8515 0.56013 0.0
H222 H 0.15708 0.84327 0.53922 0.0
H223 H 0.09003 0.82017 0.56995 0.0
H224 H 0.14464 0.8752 0.56988 0.0
H225 H 0.11129 0.86437 0.60129 0.0
H226 H 0.12301 0.89882 0.59907 0.0
H227 H 0.17029 0.89035 0.58732 0.0
H228 H 0.19456 0.92371 0.59655 0.0
H229 H 0.05996 0.82181 0.57638 0.0
H230 H 0.09705 0.83178 0.61011 0.0
H231 H 0.14729 0.93182 0.60874 0.0
H232 H 0.03049 0.80323 0.58696 0.0
H233 H 0.06769 0.81279 0.62066 0.0
C234 C 0.97058 0.50397 0.79591 0.0
C235 C 0.98343 0.4978 0.80076 0.0
C236 C 0.96522 0.50147 0.78318 0.0
C237 C 0.97269 0.49286 0.77496 0.0
C238 C 0.98604 0.48727 0.77977 0.0
C239 C 0.99132 0.48967 0.79252 0.0
C240 C 0.96567 0.48875 0.76152 0.0
C241 C 0.96219 0.50216 0.75542 0.0
C242 C 0.95356 0.49745 0.74308 0.0
C243 C 0.94921 0.47936 0.73669 0.0
C244 C 0.95287 0.46587 0.74256 0.0
C245 C 0.96106 0.47069 0.75498 0.0
C246 C 0.94699 0.44622 0.73598 0.0
C247 C 0.92902 0.43557 0.72828 0.0
C248 C 0.95897 0.43768 0.73766 0.0
C249 C 0.95293 0.41879 0.73196 0.0
C250 C 0.93488 0.40811 0.72438 0.0
C251 C 0.94761 0.5106 0.73718 0.0
C252 C 0.93955 0.52013 0.7441 0.0
C253 C 0.94875 0.51278 0.72448 0.0
C254 C 0.94133 0.52358 0.71876 0.0
C255 C 0.93277 0.53263 0.72563 0.0
C256 C 0.93237 0.53111 0.73843 0.0
C257 C 0.92309 0.41677 0.7225 0.0
H258 H 0.96447 0.51058 0.80197 0.0
H259 H 0.95473 0.50575 0.77983 0.0
H260 H 0.99225 0.4808 0.77368 0.0
H261 H 0.00114 0.48461 0.79593 0.0
H262 H 0.96603 0.51626 0.76035 0.0
H263 H 0.96292 0.45991 0.75975 0.0
H264 H 0.94242 0.4755 0.72721 0.0
H265 H 0.91923 0.44149 0.72697 0.0
H266 H 0.97302 0.4456 0.74339 0.0
H267 H 0.96241 0.41254 0.73346 0.0
H268 H 0.93818 0.51862 0.75387 0.0
H269 H 0.95514 0.50592 0.71889 0.0
H270 H 0.90895 0.40875 0.71686 0.0
H271 H 0.92629 0.53822 0.74408 0.0
H272 H 0.9418 0.52433 0.70888 0.0
C273 C 0.55192 0.5153 0.80129 0.0
C274 C 0.54676 0.50198 0.81034 0.0
C275 C 0.55444 0.50985 0.78933 0.0
C276 C 0.55173 0.49094 0.78616 0.0
C277 C 0.54713 0.47786 0.79529 0.0
C278 C 0.54475 0.48333 0.80723 0.0
C279 C 0.55295 0.48445 0.7733 0.0
C280 C 0.56879 0.49662 0.76672 0.0
C281 C 0.57019 0.49004 0.75468 0.0
C282 C 0.55521 0.47134 0.74916 0.0
C283 C 0.53928 0.45906 0.75561 0.0
C284 C 0.53828 0.46573 0.76766 0.0
C285 C 0.52398 0.43903 0.74989 0.0
C286 C 0.51576 0.43608 0.73757 0.0
C287 C 0.51769 0.42265 0.75669 0.0
C288 C 0.50362 0.4037 0.75126 0.0
C289 C 0.4954 0.40069 0.73892 0.0
C290 C 0.58764 0.50223 0.74803 0.0
C291 C 0.59554 0.52276 0.74821 0.0
C292 C 0.59658 0.4933 0.74145 0.0
C293 C 0.61297 0.50457 0.73516 0.0
C294 C 0.62089 0.52509 0.73532 0.0
C295 C 0.61197 0.53407 0.74189 0.0
C296 C 0.50158 0.41713 0.73216 0.0
H297 H 0.55343 0.52972 0.80333 0.0
H298 H 0.5579 0.52019 0.78245 0.0
H299 H 0.54532 0.46332 0.79317 0.0
H300 H 0.54129 0.47288 0.81403 0.0
H301 H 0.58043 0.51084 0.77116 0.0
H302 H 0.52586 0.45641 0.77261 0.0
H303 H 0.5561 0.46616 0.73988 0.0
H304 H 0.52015 0.44847 0.73216 0.0
H305 H 0.52398 0.42443 0.76614 0.0
H306 H 0.49949 0.39136 0.75668 0.0
H307 H 0.58892 0.53006 0.75313 0.0
H308 H 0.59104 0.47756 0.74126 0.0
H309 H 0.49533 0.41541 0.72271 0.0
H310 H 0.61783 0.54988 0.74229 0.0
H311 H 0.61933 0.49715 0.73008 0.0
C312 C 0.55895 0.07356 0.80837 0.0
C313 C 0.53942 0.05976 0.81036 0.0
C314 C 0.56312 0.08153 0.79704 0.0
C315 C 0.54787 0.0758 0.78742 0.0
C316 C 0.52843 0.06157 0.78933 0.0
C317 C 0.52425 0.05372 0.80066 0.0
C318 C 0.55202 0.08514 0.77562 0.0
C319 C 0.56936 0.08943 0.77009 0.0
C320 C 0.57344 0.09863 0.75908 0.0
C321 C 0.55997 0.10366 0.75368 0.0
C322 C 0.54249 0.09922 0.75896 0.0
C323 C 0.53865 0.09001 0.7699 0.0
C324 C 0.52812 0.10406 0.75298 0.0
C325 C 0.53446 0.12307 0.74946 0.0
C326 C 0.50794 0.08961 0.75073 0.0
C327 C 0.49439 0.09403 0.74495 0.0
C328 C 0.50069 0.11308 0.74149 0.0
C329 C 0.5916 0.10282 0.75309 0.0
C330 C 0.60983 0.10964 0.76023 0.0
C331 C 0.59087 0.10022 0.74013 0.0
C332 C 0.60792 0.10459 0.73444 0.0
C333 C 0.62618 0.11153 0.74155 0.0
C334 C 0.62689 0.11391 0.75453 0.0
C335 C 0.52084 0.12759 0.74386 0.0
H336 H 0.57094 0.07865 0.8157 0.0
H337 H 0.57822 0.09262 0.79596 0.0
H338 H 0.51637 0.05648 0.78205 0.0
H339 H 0.50911 0.04284 0.80183 0.0
H340 H 0.57942 0.08514 0.7742 0.0
H341 H 0.52541 0.08714 0.77413 0.0
H342 H 0.56298 0.11095 0.74529 0.0
H343 H 0.54992 0.13449 0.75115 0.0
H344 H 0.5027 0.07481 0.7533 0.0
H345 H 0.47892 0.08261 0.7433 0.0
H346 H 0.611 0.11198 0.77022 0.0
H347 H 0.57705 0.09471 0.73432 0.0
H348 H 0.5261 0.14235 0.74122 0.0
H349 H 0.64062 0.11898 0.76032 0.0
H350 H 0.60679 0.10278 0.72442 0.0
C351 C 0.79314 0.58255 0.86119 0.0
C352 C 0.7912 0.59892 0.85864 0.0
C353 C 0.78933 0.57516 0.87267 0.0
C354 C 0.78333 0.58383 0.88188 0.0
C355 C 0.78094 0.5999 0.87928 0.0
C356 C 0.7849 0.60741 0.8678 0.0
C357 C 0.7801 0.5764 0.89425 0.0
C358 C 0.79379 0.57221 0.90024 0.0
C359 C 0.79102 0.56516 0.91191 0.0
C360 C 0.77422 0.56213 0.91757 0.0
C361 C 0.76018 0.56598 0.91168 0.0
C362 C 0.76336 0.57333 0.90006 0.0
C363 C 0.742 0.56182 0.91758 0.0
C364 C 0.73172 0.54448 0.92339 0.0
C365 C 0.73482 0.57508 0.91751 0.0
C366 C 0.71785 0.57115 0.92321 0.0
C367 C 0.70762 0.55382 0.92906 0.0
C368 C 0.80562 0.56081 0.91815 0.0
C369 C 0.81299 0.55033 0.91152 0.0
C370 C 0.81225 0.56703 0.93078 0.0
C371 C 0.82598 0.56292 0.93664 0.0
C372 C 0.83332 0.55235 0.93003 0.0
C373 C 0.82662 0.54609 0.9174 0.0
C374 C 0.71477 0.54054 0.92906 0.0
H375 H 0.79752 0.57534 0.85428 0.0
H376 H 0.79098 0.56255 0.87433 0.0
H377 H 0.77651 0.607 0.88623 0.0
H378 H 0.78347 0.62016 0.86624 0.0
H379 H 0.80692 0.5749 0.89592 0.0
H380 H 0.75249 0.57605 0.89534 0.0
H381 H 0.77199 0.55661 0.92656 0.0
H382 H 0.73669 0.53382 0.92349 0.0
H383 H 0.74247 0.58863 0.91318 0.0
H384 H 0.71264 0.58161 0.92294 0.0
H385 H 0.80796 0.5451 0.90182 0.0
H386 H 0.80702 0.57536 0.93609 0.0
H387 H 0.7074 0.52716 0.9336 0.0
H388 H 0.83165 0.53761 0.91206 0.0
H389 H 0.83104 0.56828 0.94632 0.0
C390 C 0.34447 0.15123 0.8789 0.0
C391 C 0.35425 0.166 0.87104 0.0
C392 C 0.34999 0.15512 0.89169 0.0
C393 C 0.36532 0.17387 0.89684 0.0
C394 C 0.37524 0.18851 0.88896 0.0
C395 C 0.36981 0.18461 0.87623 0.0
C396 C 0.37123 0.17834 0.91037 0.0
C397 C 0.37438 0.16526 0.9171 0.0
C398 C 0.38188 0.17045 0.92966 0.0
C399 C 0.38569 0.18866 0.93555 0.0
C400 C 0.38258 0.20186 0.92896 0.0
C401 C 0.37514 0.19648 0.91642 0.0
C402 C 0.38867 0.22189 0.9349 0.0
C403 C 0.38473 0.22466 0.94707 0.0
C404 C 0.39936 0.23854 0.92856 0.0
C405 C 0.40629 0.25754 0.93434 0.0
C406 C 0.40271 0.26036 0.94658 0.0
C407 C 0.38737 0.1577 0.93638 0.0
C408 C 0.37483 0.13707 0.93524 0.0
C409 C 0.40564 0.16618 0.94373 0.0
C410 C 0.41131 0.15432 0.94975 0.0
C411 C 0.39885 0.13368 0.94859 0.0
C412 C 0.3805 0.12517 0.94131 0.0
C413 C 0.39164 0.24372 0.95285 0.0
H414 H 0.33232 0.13679 0.87521 0.0
H415 H 0.34206 0.1436 0.89756 0.0
H416 H 0.38741 0.20296 0.89264 0.0
H417 H 0.378 0.19617 0.87043 0.0
H418 H 0.37209 0.15158 0.91237 0.0
H419 H 0.37258 0.20655 0.91129 0.0
H420 H 0.39177 0.19287 0.94518 0.0
H421 H 0.37641 0.2121 0.95214 0.0
H422 H 0.40285 0.23692 0.91923 0.0
H423 H 0.41454 0.27006 0.92921 0.0
H424 H 0.36061 0.13015 0.9297 0.0
H425 H 0.41582 0.18199 0.94458 0.0
H426 H 0.38874 0.24545 0.96231 0.0
H427 H 0.37048 0.10932 0.94033 0.0
H428 H 0.42573 0.16133 0.95505 0.0
C429 C 0.77776 0.15979 0.86883 0.0
C430 C 0.79677 0.16394 0.86626 0.0
C431 C 0.77415 0.16319 0.88092 0.0
C432 C 0.78949 0.17082 0.89066 0.0
C433 C 0.80826 0.17418 0.88815 0.0
C434 C 0.81186 0.17077 0.8761 0.0
C435 C 0.78637 0.17651 0.90324 0.0
C436 C 0.76907 0.16426 0.90865 0.0
C437 C 0.76609 0.17004 0.92046 0.0
C438 C 0.78051 0.18836 0.92676 0.0
C439 C 0.79777 0.20083 0.92143 0.0
C440 C 0.80061 0.19474 0.90971 0.0
C441 C 0.81252 0.22056 0.92783 0.0
C442 C 0.80634 0.23304 0.93326 0.0
C443 C 0.8329 0.22733 0.92816 0.0
C444 C 0.84681 0.2463 0.93364 0.0
C445 C 0.84066 0.25897 0.93887 0.0
C446 C 0.74781 0.15721 0.92619 0.0
C447 C 0.72915 0.14829 0.91926 0.0
C448 C 0.74886 0.15436 0.93877 0.0
C449 C 0.73162 0.14313 0.94436 0.0
C450 C 0.71293 0.13456 0.93751 0.0
C451 C 0.71188 0.13714 0.92488 0.0
C452 C 0.82025 0.25205 0.93869 0.0
H453 H 0.76586 0.15465 0.86143 0.0
H454 H 0.75957 0.16062 0.88255 0.0
H455 H 0.82028 0.17971 0.89551 0.0
H456 H 0.82655 0.17371 0.87447 0.0
H457 H 0.75811 0.15008 0.90378 0.0
H458 H 0.81365 0.20458 0.90541 0.0
H459 H 0.7782 0.19305 0.93578 0.0
H460 H 0.79074 0.22833 0.93299 0.0
H461 H 0.83808 0.21792 0.92418 0.0
H462 H 0.8624 0.25102 0.93381 0.0
H463 H 0.72787 0.15034 0.90957 0.0
H464 H 0.76305 0.16088 0.94431 0.0
H465 H 0.81499 0.26151 0.94246 0.0
H466 H 0.6977 0.13054 0.91933 0.0
H467 H 0.73292 0.14154 0.95413 0.0
C468 C 0.63788 0.83731 0.12969 0.0
C469 C 0.65034 0.83048 0.1342 0.0
C470 C 0.63265 0.8356 0.117 0.0
C471 C 0.63986 0.82712 0.10849 0.0
C472 C 0.65278 0.82079 0.11298 0.0
C473 C 0.65794 0.82241 0.12569 0.0
C474 C 0.63308 0.82396 0.09506 0.0
C475 C 0.63033 0.83816 0.08939 0.0
C476 C 0.62222 0.83448 0.07698 0.0
C477 C 0.6173 0.81654 0.07016 0.0
C478 C 0.62011 0.80225 0.07563 0.0
C479 C 0.62805 0.80611 0.08807 0.0
C480 C 0.61355 0.78276 0.06863 0.0
C481 C 0.59514 0.77261 0.06138 0.0
C482 C 0.62529 0.77386 0.06949 0.0
C483 C 0.61862 0.75508 0.06337 0.0
C484 C 0.60004 0.74477 0.05631 0.0
C485 C 0.61752 0.84867 0.0714 0.0
C486 C 0.609 0.85778 0.07825 0.0
C487 C 0.62034 0.85228 0.05898 0.0
C488 C 0.61417 0.86418 0.05344 0.0
C489 C 0.60515 0.87281 0.06021 0.0
C490 C 0.60294 0.86975 0.07273 0.0
C491 C 0.58846 0.75382 0.05529 0.0
H492 H 0.63201 0.84387 0.13599 0.0
H493 H 0.62249 0.84043 0.11389 0.0
H494 H 0.65877 0.81438 0.10666 0.0
H495 H 0.66745 0.81686 0.12884 0.0
H496 H 0.63443 0.85209 0.09466 0.0
H497 H 0.62936 0.79474 0.09247 0.0
H498 H 0.61077 0.81342 0.06064 0.0
H499 H 0.58564 0.77896 0.06064 0.0
H500 H 0.63961 0.7814 0.07494 0.0
H501 H 0.62781 0.74842 0.06441 0.0
H502 H 0.60631 0.85507 0.08777 0.0
H503 H 0.62714 0.84573 0.0535 0.0
H504 H 0.57416 0.74634 0.04982 0.0
H505 H 0.59579 0.87599 0.07814 0.0
H506 H 0.61631 0.86651 0.04382 0.0
C507 C 0.22034 0.84491 0.13445 0.0
C508 C 0.21612 0.8319 0.14362 0.0
C509 C 0.2223 0.83928 0.12239 0.0
C510 C 0.21976 0.82043 0.11926 0.0
C511 C 0.21591 0.80761 0.12848 0.0
C512 C 0.21418 0.8133 0.14053 0.0
C513 C 0.22031 0.81368 0.10634 0.0
C514 C 0.23598 0.82545 0.09953 0.0
C515 C 0.23687 0.81843 0.0875 0.0
C516 C 0.22158 0.79971 0.08223 0.0
C517 C 0.20575 0.78788 0.08888 0.0
C518 C 0.20525 0.79501 0.10092 0.0
C519 C 0.19006 0.76784 0.08341 0.0
C520 C 0.18212 0.76451 0.07099 0.0
C521 C 0.1831 0.75181 0.09056 0.0
C522 C 0.16864 0.73286 0.08539 0.0
C523 C 0.1608 0.72948 0.07295 0.0
C524 C 0.25408 0.83017 0.08057 0.0
C525 C 0.26199 0.85064 0.08038 0.0
C526 C 0.26273 0.82086 0.07407 0.0
C527 C 0.2788 0.83169 0.06744 0.0
C528 C 0.28664 0.85213 0.06715 0.0
C529 C 0.27809 0.8615 0.07372 0.0
C530 C 0.16764 0.74553 0.06581 0.0
H531 H 0.22203 0.85939 0.1366 0.0
H532 H 0.22522 0.84941 0.11543 0.0
H533 H 0.21407 0.79306 0.12634 0.0
H534 H 0.21073 0.80288 0.14736 0.0
H535 H 0.24788 0.83967 0.1038 0.0
H536 H 0.19295 0.78608 0.10608 0.0
H537 H 0.22217 0.79421 0.07297 0.0
H538 H 0.18706 0.77659 0.06527 0.0
H539 H 0.18905 0.75384 0.10013 0.0
H540 H 0.16353 0.72085 0.09118 0.0
H541 H 0.25553 0.85819 0.08522 0.0
H542 H 0.25724 0.80518 0.07424 0.0
H543 H 0.16203 0.74338 0.05616 0.0
H544 H 0.28365 0.87719 0.07358 0.0
H545 H 0.28529 0.82408 0.06271 0.0
C546 C 0.22614 0.40865 0.14133 0.0
C547 C 0.20677 0.39466 0.14355 0.0
C548 C 0.22994 0.41623 0.12988 0.0
C549 C 0.21447 0.40998 0.12034 0.0
C550 C 0.19519 0.39567 0.12247 0.0
C551 C 0.19139 0.38816 0.13392 0.0
C552 C 0.21826 0.41877 0.10835 0.0
C553 C 0.23547 0.42291 0.10274 0.0
C554 C 0.23921 0.43155 0.09153 0.0
C555 C 0.22541 0.43601 0.08595 0.0
C556 C 0.20806 0.43181 0.09134 0.0
C557 C 0.20466 0.42328 0.10254 0.0
C558 C 0.19343 0.43629 0.08527 0.0
C559 C 0.1997 0.45436 0.08031 0.0
C560 C 0.17305 0.42247 0.08437 0.0
C561 C 0.15925 0.42659 0.07863 0.0
C562 C 0.16548 0.44469 0.07369 0.0
C563 C 0.25746 0.43594 0.0856 0.0
C564 C 0.27576 0.44346 0.0928 0.0
C565 C 0.25679 0.43295 0.07266 0.0
C566 C 0.27398 0.43763 0.06705 0.0
C567 C 0.29232 0.4453 0.07423 0.0
C568 C 0.29296 0.44804 0.08719 0.0
C569 C 0.18589 0.45853 0.07461 0.0
H570 H 0.23841 0.4138 0.14846 0.0
H571 H 0.24494 0.42733 0.12861 0.0
H572 H 0.18296 0.39029 0.11528 0.0
H573 H 0.17626 0.37757 0.1353 0.0
H574 H 0.24574 0.41897 0.10696 0.0
H575 H 0.19161 0.42064 0.10692 0.0
H576 H 0.22815 0.44276 0.07736 0.0
H577 H 0.21528 0.46542 0.08101 0.0
H578 H 0.16778 0.4083 0.08795 0.0
H579 H 0.1437 0.41544 0.0779 0.0
H580 H 0.27689 0.44613 0.10278 0.0
H581 H 0.24293 0.42691 0.06683 0.0
H582 H 0.19121 0.47274 0.0711 0.0
H583 H 0.30674 0.45366 0.09303 0.0
H584 H 0.27291 0.43552 0.05705 0.0
C585 C 0.45951 0.91606 0.1948 0.0
C586 C 0.4574 0.93239 0.19245 0.0
C587 C 0.45602 0.90855 0.20627 0.0
C588 C 0.45018 0.91708 0.21566 0.0
C589 C 0.44764 0.93313 0.21326 0.0
C590 C 0.45128 0.94075 0.2018 0.0
C591 C 0.4472 0.90944 0.22798 0.0
C592 C 0.46102 0.90519 0.23372 0.0
C593 C 0.45839 0.89774 0.24529 0.0
C594 C 0.44161 0.89445 0.25108 0.0
C595 C 0.42753 0.8985 0.24548 0.0
C596 C 0.43055 0.90619 0.23397 0.0
C597 C 0.40954 0.89432 0.25162 0.0
C598 C 0.39926 0.87683 0.25729 0.0
C599 C 0.40263 0.90781 0.252 0.0
C600 C 0.38598 0.90399 0.25805 0.0
C601 C 0.37584 0.88658 0.26384 0.0
C602 C 0.47313 0.89329 0.25127 0.0
C603 C 0.48115 0.88381 0.24428 0.0
C604 C 0.47923 0.89842 0.26403 0.0
C605 C 0.49301 0.89415 0.26966 0.0
C606 C 0.50098 0.88461 0.26267 0.0
C607 C 0.49489 0.8795 0.24991 0.0
C608 C 0.38264 0.873 0.26331 0.0
H609 H 0.46375 0.90892 0.18775 0.0
H610 H 0.45777 0.89595 0.20776 0.0
H611 H 0.44332 0.94012 0.22036 0.0
H612 H 0.44972 0.95348 0.20039 0.0
H613 H 0.47411 0.90812 0.22929 0.0
H614 H 0.41962 0.90903 0.22946 0.0
H615 H 0.43943 0.88859 0.25997 0.0
H616 H 0.40396 0.86595 0.25696 0.0
H617 H 0.41033 0.92151 0.24784 0.0
H618 H 0.3813 0.91487 0.2584 0.0
H619 H 0.47663 0.8795 0.23445 0.0
H620 H 0.47348 0.90591 0.26967 0.0
H621 H 0.37496 0.85926 0.26744 0.0
H622 H 0.50089 0.87233 0.24423 0.0
H623 H 0.49723 0.89812 0.27953 0.0
C624 C 0.0151 0.48915 0.21253 0.0
C625 C 0.02417 0.50364 0.2044 0.0
C626 C 0.02083 0.49374 0.22527 0.0
C627 C 0.03555 0.51297 0.23013 0.0
C628 C 0.0445 0.52745 0.22199 0.0
C629 C 0.03892 0.52282 0.20927 0.0
C630 C 0.04194 0.51797 0.2436 0.0
C631 C 0.04634 0.50566 0.25029 0.0
C632 C 0.05405 0.51122 0.2628 0.0
C633 C 0.05693 0.52908 0.26866 0.0
C634 C 0.05242 0.54148 0.26214 0.0
C635 C 0.04481 0.53572 0.24962 0.0
C636 C 0.05677 0.56095 0.26821 0.0
C637 C 0.05329 0.56303 0.2806 0.0
C638 C 0.06526 0.57781 0.26179 0.0
C639 C 0.07044 0.59635 0.26765 0.0
C640 C 0.06738 0.59848 0.28011 0.0
C641 C 0.06028 0.49902 0.26954 0.0
C642 C 0.04823 0.47834 0.26853 0.0
C643 C 0.07865 0.50804 0.27682 0.0
C644 C 0.08491 0.49664 0.28288 0.0
C645 C 0.07293 0.47593 0.28184 0.0
C646 C 0.05446 0.46691 0.27464 0.0
C647 C 0.0586 0.58161 0.28649 0.0
H648 H 0.00376 0.47421 0.20901 0.0
H649 H 0.01365 0.48232 0.23135 0.0
H650 H 0.05605 0.54233 0.22546 0.0
H651 H 0.04602 0.53434 0.20325 0.0
H652 H 0.04473 0.49225 0.24559 0.0
H653 H 0.04111 0.54508 0.24452 0.0
H654 H 0.06316 0.53354 0.27826 0.0
H655 H 0.04651 0.55029 0.28575 0.0
H656 H 0.06849 0.57683 0.25232 0.0
H657 H 0.07747 0.60912 0.26255 0.0
H658 H 0.03392 0.47101 0.26307 0.0
H659 H 0.08843 0.52393 0.2776 0.0
H660 H 0.05587 0.5828 0.29606 0.0
H661 H 0.04476 0.45102 0.27378 0.0
H662 H 0.09938 0.50404 0.28814 0.0
C663 C 0.44424 0.49426 0.20197 0.0
C664 C 0.46322 0.49817 0.19949 0.0
C665 C 0.44056 0.49778 0.21402 0.0
C666 C 0.4558 0.50531 0.22381 0.0
C667 C 0.47453 0.50845 0.22141 0.0
C668 C 0.47819 0.5049 0.20939 0.0
C669 C 0.45264 0.51119 0.23633 0.0
C670 C 0.43533 0.49902 0.24177 0.0
C671 C 0.43223 0.50503 0.25348 0.0
C672 C 0.44659 0.52352 0.25965 0.0
C673 C 0.46392 0.53583 0.25432 0.0
C674 C 0.46684 0.52951 0.24271 0.0
C675 C 0.47873 0.5556 0.26066 0.0
C676 C 0.47265 0.56825 0.26596 0.0
C677 C 0.49908 0.56218 0.26112 0.0
C678 C 0.51307 0.58113 0.26661 0.0
C679 C 0.50702 0.59396 0.27171 0.0
C680 C 0.41393 0.49226 0.25927 0.0
C681 C 0.39535 0.48224 0.25219 0.0
C682 C 0.41486 0.49051 0.27204 0.0
C683 C 0.3976 0.47944 0.27765 0.0
C684 C 0.37899 0.46978 0.27062 0.0
C685 C 0.37807 0.47109 0.2578 0.0
C686 C 0.48663 0.58724 0.2714 0.0
H687 H 0.43242 0.48923 0.19453 0.0
H688 H 0.42602 0.49538 0.21557 0.0
H689 H 0.48647 0.51392 0.22881 0.0
H690 H 0.49285 0.50764 0.20784 0.0
H691 H 0.42447 0.48474 0.23697 0.0
H692 H 0.47992 0.53924 0.23839 0.0
H693 H 0.44423 0.52845 0.26858 0.0
H694 H 0.45707 0.56368 0.2656 0.0
H695 H 0.50419 0.55264 0.25725 0.0
H696 H 0.52863 0.58569 0.26689 0.0
H697 H 0.3941 0.48346 0.24236 0.0
H698 H 0.42896 0.49772 0.27772 0.0
H699 H 0.48145 0.59682 0.27507 0.0
H700 H 0.36394 0.46398 0.25216 0.0
H701 H 0.39883 0.47841 0.2875 0.0
Eu702 Eu 0.49074 0.98512 0.98789 0.0
Eu703 Eu 0.50528 0.01085 0.01568 0.0
C704 C 0.48385 0.02187 0.99434 0.0
C705 C 0.48451 0.97374 0.95296 0.0
C706 C 0.48681 0.9922 0.95076 0.0
C707 C 0.49037 0.96888 0.93169 0.0
C708 C 0.4908 0.99892 0.93909 0.0
C709 C 0.48623 0.96211 0.94334 0.0
C710 C 0.49281 0.98741 0.92945 0.0
C711 C 0.48172 0.9671 0.96541 0.0
O712 O 0.47267 0.98921 0.01502 0.0
O713 O 0.46884 0.96498 1.00023 0.0
C714 C 0.46264 0.97097 0.00963 0.0
O715 O 0.51139 0.97731 0.99812 0.0
O716 O 0.50047 0.02654 0.03119 0.0
O717 O 0.52656 0.02355 0.03217 0.0
O718 O 0.50498 0.98241 0.01777 0.0
C719 C 0.51172 0.9745 0.00986 0.0
O720 O 0.51626 0.01503 0.98554 0.0
O721 O 0.53222 0.02274 0.00513 0.0
O722 O 0.49819 0.02906 0.00346 0.0
O723 O 0.49794 0.97179 0.97231 0.0
O724 O 0.46934 0.96987 0.97156 0.0
O725 O 0.47647 0.00392 0.98874 0.0
C726 C 0.51144 0.02165 0.05058 0.0
C727 C 0.50753 0.00259 0.05266 0.0
C728 C 0.50633 0.02722 0.07193 0.0
C729 C 0.50323 0.99597 0.06433 0.0
C730 C 0.51078 0.03389 0.06027 0.0
C731 C 0.50256 0.00819 0.07409 0.0
C732 C 0.51558 0.02859 0.03825 0.0
C733 C 0.53242 0.02487 0.99325 0.0
H734 H 0.48583 0.00155 0.95813 0.0
H735 H 0.49163 0.95959 0.92443 0.0
H736 H 0.49283 0.01335 0.9377 0.0
H737 H 0.48466 0.9479 0.94489 0.0
H738 H 0.50768 0.99277 0.04526 0.0
H739 H 0.50606 0.03703 0.07928 0.0
H740 H 0.50012 0.98115 0.06565 0.0
H741 H 0.51365 0.04859 0.05882 0.0
Eu742 Eu 0.01079 0.50326 0.99096 0.0
Eu743 Eu 0.9843 0.49088 0.01479 0.0
C744 C 0.97322 0.45962 0.99111 0.0
C745 C 0.02779 0.51 0.95852 0.0
C746 C 0.00927 0.49531 0.95268 0.0
C747 C 0.03904 0.51956 0.93848 0.0
C748 C 0.00565 0.49278 0.93977 0.0
C749 C 0.04265 0.52202 0.95137 0.0
C750 C 0.02047 0.50497 0.93252 0.0
C751 C 0.03155 0.51355 0.97204 0.0
O752 O 0.00595 0.48 0.01741 0.0
O753 O 0.03022 0.50134 0.00625 0.0
C754 C 0.02426 0.48863 0.01452 0.0
O755 O 0.01917 0.5314 0.00287 0.0
O756 O 0.96661 0.4688 0.02688 0.0
O757 O 0.97072 0.49831 0.02952 0.0
O758 O 0.01236 0.51922 0.02161 0.0
C759 C 0.02149 0.53405 0.01501 0.0
O760 O 0.98165 0.50035 0.98419 0.0
O761 O 0.97291 0.5065 0.00298 0.0
O762 O 0.96626 0.46684 0.99934 0.0
O763 O 0.02468 0.52393 0.97735 0.0
O764 O 0.02846 0.49842 0.97791 0.0
O765 O 0.99137 0.47004 0.98811 0.0
C766 C 0.96839 0.48181 0.04728 0.0
C767 C 0.98687 0.49594 0.05348 0.0
C768 C 0.95793 0.46795 0.0666 0.0
C769 C 0.99079 0.49619 0.06621 0.0
C770 C 0.95399 0.4678 0.0539 0.0
C771 C 0.97636 0.48219 0.07293 0.0
C772 C 0.96403 0.48125 0.03391 0.0
C773 C 0.97113 0.50545 0.99083 0.0
H774 H 0.99759 0.48595 0.9581 0.0
H775 H 0.05067 0.52941 0.93322 0.0
H776 H 0.99126 0.48127 0.93547 0.0
H777 H 0.05697 0.53354 0.95577 0.0
H778 H 0.99824 0.50681 0.0485 0.0
H779 H 0.94661 0.45675 0.07143 0.0
H780 H 0.00504 0.50751 0.07079 0.0
H781 H 0.93971 0.45668 0.04922 0.0
Eu782 Eu 0.51208 0.49921 0.01613 0.0
Eu783 Eu 0.49194 0.50449 0.99017 0.0
C784 C 0.51855 0.54089 0.01041 0.0
C785 C 0.52204 0.49531 0.04997 0.0
C786 C 0.50888 0.5017 0.05315 0.0
C787 C 0.52535 0.48865 0.07117 0.0
C788 C 0.50393 0.50153 0.06529 0.0
C789 C 0.53031 0.48886 0.05903 0.0
C790 C 0.51202 0.49488 0.07442 0.0
C791 C 0.52639 0.49442 0.0371 0.0
O792 O 0.51821 0.50215 0.98502 0.0
O793 O 0.53688 0.51188 0.0039 0.0
C794 C 0.53522 0.5088 0.99176 0.0
O795 O 0.50238 0.47219 0.00275 0.0
O796 O 0.48532 0.52228 0.97818 0.0
O797 O 0.47596 0.4919 0.97186 0.0
O798 O 0.47578 0.47232 0.99324 0.0
C799 C 0.48494 0.46281 0.99631 0.0
O800 O 0.48063 0.48986 0.01948 0.0
O801 O 0.47186 0.50412 0.0043 0.0
O802 O 0.51604 0.53465 0.99862 0.0
O803 O 0.51225 0.47992 0.02964 0.0
O804 O 0.53432 0.51111 0.03219 0.0
O805 O 0.51304 0.52834 0.01876 0.0
C806 C 0.48637 0.51443 0.95706 0.0
C807 C 0.50569 0.51842 0.95567 0.0
C808 C 0.48201 0.51837 0.93536 0.0
C809 C 0.51298 0.52196 0.94414 0.0
C810 C 0.47467 0.51468 0.9469 0.0
C811 C 0.50112 0.52168 0.93381 0.0
C812 C 0.47797 0.50857 0.96881 0.0
C813 C 0.46872 0.4955 0.01458 0.0
H814 H 0.50221 0.50655 0.04621 0.0
H815 H 0.53201 0.48366 0.07802 0.0
H816 H 0.49344 0.50618 0.06744 0.0
H817 H 0.54045 0.48382 0.0567 0.0
H818 H 0.51494 0.51834 0.96345 0.0
H819 H 0.47246 0.51788 0.92756 0.0
H820 H 0.52783 0.52468 0.94327 0.0
H821 H 0.45969 0.51152 0.94781 0.0
Eu822 Eu 0.15627 0.32108 0.32133 0.0
Eu823 Eu 0.17184 0.34627 0.34923 0.0
C824 C 0.15077 0.35853 0.32843 0.0
C825 C 0.14918 0.31009 0.28637 0.0
C826 C 0.15488 0.32977 0.28473 0.0
C827 C 0.15161 0.30399 0.26457 0.0
C828 C 0.15893 0.33652 0.27308 0.0
C829 C 0.14749 0.29724 0.27623 0.0
C830 C 0.15752 0.32376 0.26286 0.0
C831 C 0.14627 0.30325 0.29875 0.0
O832 O 0.1391 0.32527 0.34876 0.0
O833 O 0.13451 0.301 0.33376 0.0
C834 C 0.12868 0.3071 0.34332 0.0
O835 O 0.17684 0.31268 0.33103 0.0
O836 O 0.16784 0.36206 0.36507 0.0
O837 O 0.19343 0.35823 0.36558 0.0
O838 O 0.17088 0.31741 0.35084 0.0
C839 C 0.1773 0.30952 0.34269 0.0
O840 O 0.1822 0.35075 0.31896 0.0
O841 O 0.19849 0.35778 0.33841 0.0
O842 O 0.16529 0.36526 0.3374 0.0
O843 O 0.16238 0.30721 0.3055 0.0
O844 O 0.13448 0.30672 0.30508 0.0
O845 O 0.14277 0.34055 0.32274 0.0
C846 C 0.17873 0.35629 0.38418 0.0
C847 C 0.17483 0.33716 0.38606 0.0
C848 C 0.17344 0.3613 0.40557 0.0
C849 C 0.17044 0.33023 0.39764 0.0
C850 C 0.17799 0.36828 0.394 0.0
C851 C 0.16964 0.3422 0.40752 0.0
C852 C 0.18286 0.36352 0.37191 0.0
C853 C 0.19851 0.3602 0.32657 0.0
H854 H 0.15641 0.33996 0.2925 0.0
H855 H 0.15066 0.29382 0.25699 0.0
H856 H 0.16318 0.35174 0.27208 0.0
H857 H 0.14334 0.28207 0.27737 0.0
H858 H 0.17504 0.32752 0.37856 0.0
H859 H 0.17308 0.37092 0.41302 0.0
H860 H 0.16732 0.31536 0.3988 0.0
H861 H 0.18084 0.38303 0.3927 0.0
Eu862 Eu 0.67969 0.83724 0.3241 0.0
Eu863 Eu 0.65323 0.82573 0.3479 0.0
C864 C 0.64192 0.79385 0.32453 0.0
C865 C 0.69645 0.84265 0.29164 0.0
C866 C 0.67789 0.82772 0.286 0.0
C867 C 0.70734 0.85138 0.27142 0.0
C868 C 0.67406 0.82466 0.2731 0.0
C869 C 0.71115 0.85437 0.28431 0.0
C870 C 0.6887 0.83657 0.26566 0.0
C871 C 0.70038 0.84679 0.30514 0.0
O872 O 0.67475 0.81474 0.35088 0.0
O873 O 0.69907 0.83561 0.33956 0.0
C874 C 0.69305 0.82314 0.34798 0.0
O875 O 0.68819 0.86573 0.33566 0.0
O876 O 0.63536 0.80401 0.36013 0.0
O877 O 0.63968 0.83363 0.36243 0.0
O878 O 0.68133 0.85415 0.35455 0.0
C879 C 0.69046 0.86875 0.34779 0.0
O880 O 0.65055 0.83419 0.31715 0.0
O881 O 0.64212 0.84127 0.33581 0.0
O882 O 0.63507 0.80138 0.33263 0.0
O883 O 0.69352 0.85736 0.31021 0.0
O884 O 0.69739 0.83196 0.3113 0.0
O885 O 0.6601 0.80403 0.32154 0.0
C886 C 0.63713 0.81749 0.38039 0.0
C887 C 0.65536 0.83211 0.38666 0.0
C888 C 0.62683 0.80351 0.3997 0.0
C889 C 0.6592 0.83254 0.39941 0.0
C890 C 0.62294 0.80319 0.38697 0.0
C891 C 0.64498 0.81823 0.40606 0.0
C892 C 0.63287 0.81669 0.36698 0.0
C893 C 0.64018 0.8397 0.32364 0.0
H894 H 0.66634 0.81859 0.29157 0.0
H895 H 0.71883 0.86102 0.266 0.0
H896 H 0.65964 0.81299 0.26895 0.0
H897 H 0.7255 0.86607 0.28855 0.0
H898 H 0.66662 0.84315 0.38171 0.0
H899 H 0.61555 0.7924 0.40461 0.0
H900 H 0.6734 0.8439 0.40405 0.0
H901 H 0.60883 0.79176 0.38226 0.0
Eu902 Eu 0.18023 0.83714 0.35021 0.0
Eu903 Eu 0.16112 0.84329 0.32418 0.0
C904 C 0.18728 0.87908 0.34452 0.0
C905 C 0.1853 0.82695 0.38339 0.0
C906 C 0.16685 0.82503 0.38519 0.0
C907 C 0.18904 0.82105 0.40474 0.0
C908 C 0.1597 0.82152 0.39677 0.0
C909 C 0.19624 0.8247 0.39317 0.0
C910 C 0.17083 0.81975 0.40672 0.0
C911 C 0.19366 0.8325 0.37159 0.0
O912 O 0.19286 0.85297 0.32142 0.0
O913 O 0.2005 0.83745 0.33624 0.0
C914 C 0.20431 0.84672 0.32622 0.0
O915 O 0.15628 0.8072 0.3413 0.0
O916 O 0.16207 0.86292 0.31057 0.0
O917 O 0.13904 0.83203 0.30809 0.0
O918 O 0.16027 0.81424 0.32133 0.0
C919 C 0.15427 0.80136 0.32947 0.0
O920 O 0.15372 0.83924 0.35512 0.0
O921 O 0.13579 0.83008 0.336 0.0
O922 O 0.17008 0.86984 0.3378 0.0
O923 O 0.18585 0.81875 0.36224 0.0
O924 O 0.19633 0.8494 0.36853 0.0
O925 O 0.19637 0.86953 0.34763 0.0
C926 C 0.1521 0.84739 0.29023 0.0
C927 C 0.15937 0.83505 0.28627 0.0
C928 C 0.15552 0.85946 0.27001 0.0
C929 C 0.16461 0.83486 0.27423 0.0
C930 C 0.15015 0.85952 0.28203 0.0
C931 C 0.16291 0.84719 0.26598 0.0
C932 C 0.14773 0.84863 0.30309 0.0
C933 C 0.13694 0.83272 0.34814 0.0
H934 H 0.15817 0.82665 0.37772 0.0
H935 H 0.19802 0.81992 0.41225 0.0
H936 H 0.14552 0.82036 0.39796 0.0
H937 H 0.21055 0.82622 0.39193 0.0
H938 H 0.16117 0.82569 0.29251 0.0
H939 H 0.15431 0.86937 0.26399 0.0
H940 H 0.16997 0.82502 0.2714 0.0
H941 H 0.1448 0.86932 0.28499 0.0
Eu942 Eu 0.82556 0.65298 0.6548 0.0
Eu943 Eu 0.83976 0.67858 0.68257 0.0
C944 C 0.82024 0.69008 0.66038 0.0
C945 C 0.81997 0.64256 0.61991 0.0
C946 C 0.82673 0.66246 0.61827 0.0
C947 C 0.82287 0.63623 0.59821 0.0
C948 C 0.83141 0.66918 0.60667 0.0
C949 C 0.81809 0.62951 0.60982 0.0
C950 C 0.8296 0.65617 0.59648 0.0
C951 C 0.81535 0.6355 0.63215 0.0
O952 O 0.81387 0.6489 0.68484 0.0
O953 O 0.79833 0.64122 0.66513 0.0
C954 C 0.79786 0.63907 0.67701 0.0
O955 O 0.83182 0.63418 0.66697 0.0
O956 O 0.83237 0.69166 0.69817 0.0
O957 O 0.86133 0.69438 0.69875 0.0
O958 O 0.85283 0.65869 0.68231 0.0
C959 C 0.84545 0.64086 0.67649 0.0
O960 O 0.85854 0.67348 0.65603 0.0
O961 O 0.86219 0.69821 0.6703 0.0
O962 O 0.81981 0.68694 0.67207 0.0
O963 O 0.83014 0.63705 0.63931 0.0
O964 O 0.80463 0.641 0.63813 0.0
O965 O 0.82702 0.68197 0.65266 0.0
C966 C 0.84641 0.69019 0.71743 0.0
C967 C 0.84364 0.6715 0.71943 0.0
C968 C 0.84183 0.69535 0.73894 0.0
C969 C 0.84001 0.66479 0.73112 0.0
C970 C 0.84558 0.7021 0.72726 0.0
C971 C 0.83889 0.67657 0.74099 0.0
C972 C 0.84881 0.6968 0.70498 0.0
C973 C 0.86878 0.69175 0.66136 0.0
H974 H 0.82837 0.6728 0.62597 0.0
H975 H 0.82158 0.62586 0.59065 0.0
H976 H 0.83627 0.68454 0.60567 0.0
H977 H 0.81307 0.61414 0.61095 0.0
H978 H 0.84393 0.66196 0.71189 0.0
H979 H 0.84124 0.70484 0.74638 0.0
H980 H 0.83756 0.65016 0.73236 0.0
H981 H 0.84754 0.71651 0.72586 0.0
Eu982 Eu 0.34712 0.17225 0.6578 0.0
Eu983 Eu 0.32071 0.16083 0.68169 0.0
C984 C 0.30912 0.12912 0.65814 0.0
C985 C 0.36338 0.1779 0.6252 0.0
C986 C 0.3446 0.16347 0.61956 0.0
C987 C 0.37422 0.18686 0.60501 0.0
C988 C 0.34063 0.16078 0.60667 0.0
C989 C 0.37818 0.18948 0.61787 0.0
C990 C 0.35536 0.17256 0.59925 0.0
C991 C 0.3675 0.18171 0.6387 0.0
O992 O 0.34236 0.15005 0.68486 0.0
O993 O 0.36641 0.16991 0.67296 0.0
C994 C 0.36044 0.15788 0.68161 0.0
O995 O 0.35668 0.20079 0.66964 0.0
O996 O 0.30239 0.13883 0.69361 0.0
O997 O 0.30743 0.16868 0.69643 0.0
O998 O 0.34884 0.18914 0.68847 0.0
C999 C 0.35859 0.20368 0.68178 0.0
O1000 O 0.31813 0.16978 0.65109 0.0
O1001 O 0.31002 0.17696 0.66983 0.0
O1002 O 0.3024 0.13681 0.66624 0.0
O1003 O 0.3611 0.19252 0.64401 0.0
O1004 O 0.3642 0.16662 0.64467 0.0
O1005 O 0.32739 0.13908 0.65528 0.0
C1006 C 0.30465 0.15184 0.71406 0.0
C1007 C 0.32367 0.16481 0.72005 0.0
C1008 C 0.29391 0.13847 0.73346 0.0
C1009 C 0.32774 0.16474 0.73271 0.0
C1010 C 0.28982 0.13865 0.72082 0.0
C1011 C 0.31289 0.15155 0.73954 0.0
C1012 C 0.30025 0.15151 0.70072 0.0
C1013 C 0.308 0.17549 0.65768 0.0
H1014 H 0.33298 0.15446 0.62513 0.0
H1015 H 0.3858 0.1964 0.5996 0.0
H1016 H 0.32603 0.1495 0.60253 0.0
H1017 H 0.3927 0.2008 0.62212 0.0
H1018 H 0.33539 0.17494 0.71493 0.0
H1019 H 0.28215 0.12827 0.73852 0.0
H1020 H 0.34256 0.17481 0.73712 0.0
H1021 H 0.27508 0.12848 0.7163 0.0
Eu1022 Eu 0.84498 0.16216 0.68298 0.0
Eu1023 Eu 0.82514 0.16816 0.65711 0.0
C1024 C 0.85101 0.20398 0.67794 0.0
C1025 C 0.85489 0.158 0.71671 0.0
C1026 C 0.8414 0.16402 0.71978 0.0
C1027 C 0.85893 0.15239 0.73807 0.0
C1028 C 0.83667 0.16421 0.73195 0.0
C1029 C 0.86366 0.15224 0.7259 0.0
C1030 C 0.84532 0.15831 0.74122 0.0
C1031 C 0.85917 0.15696 0.70384 0.0
O1032 O 0.85153 0.16606 0.65193 0.0
O1033 O 0.86992 0.17538 0.67088 0.0
C1034 C 0.86847 0.17264 0.65874 0.0
O1035 O 0.83511 0.13524 0.66951 0.0
O1036 O 0.819 0.18645 0.64529 0.0
O1037 O 0.80909 0.15602 0.63877 0.0
O1038 O 0.80887 0.13581 0.65975 0.0
C1039 C 0.81775 0.12609 0.66298 0.0
O1040 O 0.81352 0.15286 0.68632 0.0
O1041 O 0.80472 0.16716 0.67116 0.0
O1042 O 0.84863 0.19827 0.66607 0.0
O1043 O 0.84486 0.14262 0.69638 0.0
O1044 O 0.86735 0.17366 0.69894 0.0
O1045 O 0.84572 0.1911 0.68608 0.0
C1046 C 0.81979 0.17877 0.6241 0.0
C1047 C 0.83887 0.18218 0.62255 0.0
C1048 C 0.81549 0.18333 0.60253 0.0
C1049 C 0.84605 0.1857 0.61099 0.0
C1050 C 0.80826 0.17966 0.61409 0.0
C1051 C 0.83431 0.18599 0.6008 0.0
C1052 C 0.81142 0.17286 0.63586 0.0
C1053 C 0.80155 0.15844 0.6814 0.0
H1054 H 0.83437 0.16836 0.71275 0.0
H1055 H 0.866 0.14799 0.74503 0.0
H1056 H 0.82596 0.16859 0.73403 0.0
H1057 H 0.87407 0.14751 0.72364 0.0
H1058 H 0.848 0.18162 0.63022 0.0
H1059 H 0.80605 0.1833 0.59482 0.0
H1060 H 0.86069 0.18791 0.60998 0.0
H1061 H 0.79347 0.17698 0.61513 0.0
H1062 H 0.31894 0.88882 0.07415 0.0
H1063 H 0.34776 0.90713 0.06289 0.0
H1064 H 0.32265 0.85937 0.03338 0.0
H1065 H 0.29345 0.84125 0.04436 0.0
H1066 H 0.37397 0.89489 0.05589 0.0
H1067 H 0.33794 0.9079 0.01481 0.0
H1068 H 0.32603 0.90029 0.02875 0.0
H1069 H 0.32695 0.88254 0.01794 0.0
C1070 C 0.31936 0.88236 0.06516 0.0
C1071 C 0.30386 0.86359 0.06014 0.0
C1072 C 0.33591 0.89278 0.05878 0.0
C1073 C 0.33723 0.88469 0.04725 0.0
C1074 C 0.32177 0.86602 0.04217 0.0
H1075 H 0.43464 0.93309 0.99992 0.0
H1076 H 0.40397 0.91042 0.00856 0.0
C1077 C 0.30521 0.85559 0.04853 0.0
C1078 C 0.35521 0.89551 0.04082 0.0
H1079 H 0.37188 0.91792 0.0147 0.0
C1080 C 0.3735 0.89989 0.04687 0.0
C1081 C 0.35452 0.90186 0.02901 0.0
C1082 C 0.33535 0.89808 0.02226 0.0
C1083 C 0.39117 0.91067 0.0415 0.0
C1084 C 0.39054 0.91743 0.02984 0.0
C1085 C 0.37224 0.91262 0.02362 0.0
C1086 C 0.4089 0.93088 0.02449 0.0
C1087 C 0.41042 0.91484 0.04836 0.0
C1088 C 0.42156 0.94988 0.03052 0.0
C1089 C 0.43893 0.96281 0.02563 0.0
C1090 C 0.44401 0.95702 0.01457 0.0
C1091 C 0.4312 0.93797 0.00848 0.0
C1092 C 0.41368 0.92503 0.01337 0.0
H1093 H 0.40794 0.90441 0.05541 0.0
H1094 H 0.42039 0.91387 0.04187 0.0
H1095 H 0.41804 0.93006 0.05321 0.0
H1096 H 0.41797 0.95476 0.03901 0.0
H1097 H 0.4484 0.97734 0.0306 0.0
H1098 H 0.12917 0.43594 0.08075 0.0
H1099 H 0.1048 0.44265 0.07049 0.0
H1100 H 0.14437 0.47095 0.04299 0.0
H1101 H 0.16846 0.46354 0.05285 0.0
H1102 H 0.10799 0.4781 0.06626 0.0
H1103 H 0.09342 0.43238 0.02168 0.0
H1104 H 0.10651 0.43046 0.03526 0.0
H1105 H 0.11914 0.45022 0.0258 0.0
C1106 C 0.13259 0.44331 0.0724 0.0
C1107 C 0.15076 0.44907 0.06758 0.0
C1108 C 0.11869 0.44727 0.06661 0.0
C1109 C 0.12262 0.457 0.05586 0.0
C1110 C 0.14084 0.46304 0.05112 0.0
H1111 H 0.06215 0.50047 0.00938 0.0
H1112 H 0.08576 0.49283 0.01972 0.0
C1113 C 0.15472 0.45902 0.05688 0.0
C1114 C 0.10786 0.46126 0.04979 0.0
H1115 H 0.08019 0.45393 0.02241 0.0
C1116 C 0.10181 0.47271 0.0567 0.0
C1117 C 0.09979 0.45419 0.03731 0.0
C1118 C 0.10488 0.44097 0.0296 0.0
C1119 C 0.08824 0.47762 0.05139 0.0
C1120 C 0.08037 0.47074 0.03888 0.0
C1121 C 0.08633 0.45924 0.03199 0.0
C1122 C 0.066 0.47541 0.03275 0.0
C1123 C 0.08273 0.49049 0.05909 0.0
C1124 C 0.047 0.46797 0.03659 0.0
C1125 C 0.03342 0.47224 0.03068 0.0
C1126 C 0.03861 0.48405 0.02081 0.0
C1127 C 0.05766 0.49141 0.01697 0.0
C1128 C 0.07118 0.48704 0.02285 0.0
H1129 H 0.09317 0.49799 0.06761 0.0
H1130 H 0.08247 0.5019 0.05367 0.0
H1131 H 0.06768 0.48118 0.06192 0.0
H1132 H 0.04263 0.45872 0.04411 0.0
H1133 H 0.01887 0.46631 0.03387 0.0
H1134 H 0.62024 0.7304 0.04363 0.0
H1135 H 0.60766 0.69648 0.03428 0.0
H1136 H 0.55032 0.67925 0.0464 0.0
H1137 H 0.56275 0.71301 0.05575 0.0
H1138 H 0.59229 0.66228 0.04571 0.0
H1139 H 0.53649 0.65794 0.0099 0.0
H1140 H 0.55566 0.68109 0.01806 0.0
H1141 H 0.53363 0.6656 0.02516 0.0
C1142 C 0.60495 0.71937 0.04429 0.0
C1143 C 0.59244 0.7244 0.05035 0.0
C1144 C 0.59777 0.70005 0.0389 0.0
C1145 C 0.57797 0.68546 0.03946 0.0
C1146 C 0.5655 0.69041 0.04557 0.0
H1147 H 0.5245 0.55891 0.03386 0.0
H1148 H 0.53997 0.59429 0.04036 0.0
C1149 C 0.57264 0.7097 0.05092 0.0
C1150 C 0.57051 0.66483 0.03415 0.0
H1151 H 0.53388 0.62722 0.01423 0.0
C1152 C 0.57964 0.65465 0.03874 0.0
C1153 C 0.55419 0.65501 0.02493 0.0
C1154 C 0.54454 0.66552 0.01913 0.0
C1155 C 0.57244 0.63469 0.03466 0.0
C1156 C 0.55544 0.62458 0.02594 0.0
C1157 C 0.54676 0.63495 0.02103 0.0
C1158 C 0.54621 0.60316 0.02197 0.0
C1159 C 0.58313 0.62464 0.03969 0.0
C1160 C 0.54409 0.59639 0.00942 0.0
C1161 C 0.53507 0.57614 0.00565 0.0
C1162 C 0.52795 0.56231 0.01437 0.0
C1163 C 0.52994 0.56916 0.02692 0.0
C1164 C 0.5389 0.58939 0.03067 0.0
H1165 H 0.59872 0.63553 0.04329 0.0
H1166 H 0.57554 0.61642 0.04745 0.0
H1167 H 0.5831 0.61394 0.03247 0.0
H1168 H 0.54951 0.60678 0.00256 0.0
H1169 H 0.53375 0.57137 0.99591 0.0
H1170 H 0.8395 0.27946 0.95985 0.0
H1171 H 0.86312 0.3137 0.96806 0.0
H1172 H 0.89927 0.31885 0.93856 0.0
H1173 H 0.87533 0.28494 0.92998 0.0
H1174 H 0.90277 0.33118 0.97627 0.0
H1175 H 0.89186 0.36636 0.93613 0.0
H1176 H 0.87524 0.34079 0.93818 0.0
H1177 H 0.89857 0.34802 0.93223 0.0
C1178 C 0.85235 0.28794 0.95502 0.0
C1179 C 0.85543 0.27948 0.9442 0.0
C1180 C 0.8659 0.30746 0.95977 0.0
C1181 C 0.88276 0.31891 0.9538 0.0
C1182 C 0.88615 0.3104 0.94317 0.0
H1183 H 0.98031 0.44042 0.97187 0.0
H1184 H 0.95903 0.40608 0.9627 0.0
C1185 C 0.87257 0.29091 0.93838 0.0
C1186 C 0.89688 0.33969 0.9588 0.0
H1187 H 0.91751 0.38742 0.95186 0.0
C1188 C 0.90598 0.34348 0.97094 0.0
C1189 C 0.90105 0.3557 0.9518 0.0
C1190 C 0.89105 0.3526 0.93891 0.0
C1191 C 0.91919 0.36286 0.97628 0.0
C1192 C 0.92323 0.37883 0.96932 0.0
C1193 C 0.91438 0.37508 0.95712 0.0
C1194 C 0.936 0.3996 0.97473 0.0
C1195 C 0.92882 0.36614 0.9893 0.0
C1196 C 0.92988 0.40731 0.98437 0.0
C1197 C 0.94189 0.42687 0.98958 0.0
C1198 C 0.96029 0.4391 0.98525 0.0
C1199 C 0.96627 0.43137 0.97546 0.0
C1200 C 0.95415 0.41179 0.9702 0.0
H1201 H 0.92778 0.3524 0.99231 0.0
H1202 H 0.94467 0.37786 0.99008 0.0
H1203 H 0.92126 0.37104 0.99574 0.0
H1204 H 0.91577 0.39818 0.98785 0.0
H1205 H 0.93679 0.43232 0.99708 0.0
H1206 H 0.67323 0.51832 0.92856 0.0
H1207 H 0.64408 0.51113 0.93917 0.0
H1208 H 0.672 0.57235 0.9541 0.0
H1209 H 0.70132 0.57967 0.94357 0.0
H1210 H 0.6418 0.51613 0.96444 0.0
H1211 H 0.6177 0.5608 0.93873 0.0
H1212 H 0.63549 0.55453 0.93339 0.0
H1213 H 0.64299 0.57427 0.94554 0.0
C1214 C 0.67322 0.53026 0.93413 0.0
C1215 C 0.68962 0.54959 0.9352 0.0
C1216 C 0.65651 0.52613 0.94015 0.0
C1217 C 0.65577 0.54124 0.94731 0.0
C1218 C 0.67209 0.56054 0.94841 0.0
H1219 H 0.57351 0.5245 0.00219 0.0
H1220 H 0.60283 0.53234 0.99159 0.0
C1221 C 0.68883 0.5647 0.94238 0.0
C1222 C 0.63812 0.5366 0.95387 0.0
H1223 H 0.60088 0.54706 0.95613 0.0
C1224 C 0.63283 0.52287 0.96262 0.0
C1225 C 0.62633 0.54525 0.95138 0.0
C1226 C 0.63076 0.5594 0.94167 0.0
C1227 C 0.61616 0.51768 0.96904 0.0
C1228 C 0.60465 0.5267 0.96677 0.0
C1229 C 0.60983 0.54029 0.95793 0.0
C1230 C 0.5869 0.52192 0.97326 0.0
C1231 C 0.61078 0.50228 0.97799 0.0
C1232 C 0.56826 0.51383 0.96646 0.0
C1233 C 0.55148 0.50941 0.97248 0.0
C1234 C 0.55301 0.51311 0.98544 0.0
C1235 C 0.57174 0.52132 0.99222 0.0
C1236 C 0.58853 0.52574 0.98618 0.0
H1237 H 0.61795 0.49328 0.97634 0.0
H1238 H 0.61586 0.50976 0.98758 0.0
H1239 H 0.5945 0.49221 0.9773 0.0
H1240 H 0.56668 0.51082 0.95648 0.0
H1241 H 0.53732 0.50313 0.96694 0.0
H1242 H 0.39453 0.09843 0.93902 0.0
H1243 H 0.40772 0.07922 0.94834 0.0
H1244 H 0.43189 0.12161 0.98083 0.0
H1245 H 0.41842 0.14076 0.97171 0.0
H1246 H 0.45933 0.11275 0.96968 0.0
H1247 H 0.39005 0.04506 0.97774 0.0
H1248 H 0.39042 0.05259 0.96246 0.0
H1249 H 0.39103 0.06816 0.97552 0.0
C1250 C 0.40225 0.10345 0.94827 0.0
C1251 C 0.40545 0.12115 0.95462 0.0
C1252 C 0.40981 0.09247 0.95356 0.0
C1253 C 0.42062 0.09895 0.9653 0.0
C1254 C 0.42355 0.11639 0.97176 0.0
H1255 H 0.48997 0.05687 0.00588 0.0
H1256 H 0.47489 0.0762 0.99946 0.0
C1257 C 0.41594 0.12734 0.96651 0.0
C1258 C 0.42996 0.0882 0.97046 0.0
H1259 H 0.41971 0.04363 0.97975 0.0
C1260 C 0.45072 0.09769 0.972 0.0
C1261 C 0.41862 0.06859 0.97342 0.0
C1262 C 0.39629 0.058 0.97231 0.0
C1263 C 0.46048 0.08783 0.97606 0.0
C1264 C 0.44913 0.0681 0.97889 0.0
C1265 C 0.42836 0.05875 0.97755 0.0
C1266 C 0.45845 0.05662 0.98284 0.0
C1267 C 0.4828 0.09836 0.97684 0.0
C1268 C 0.4539 0.03903 0.97576 0.0
C1269 C 0.4623 0.02787 0.97945 0.0
C1270 C 0.47545 0.03409 0.99033 0.0
C1271 C 0.48004 0.05176 0.9974 0.0
C1272 C 0.4715 0.06287 0.99373 0.0
H1273 H 0.48887 0.11135 0.97145 0.0
H1274 H 0.48903 0.10373 0.98665 0.0
H1275 H 0.48793 0.08822 0.97338 0.0
H1276 H 0.44384 0.03395 0.96733 0.0
H1277 H 0.45848 0.01437 0.97377 0.0
H1278 H 0.67906 0.13662 0.93485 0.0
H1279 H 0.64909 0.11867 0.94522 0.0
H1280 H 0.6755 0.08971 0.96453 0.0
H1281 H 0.70541 0.10732 0.95401 0.0
H1282 H 0.63604 0.06408 0.95348 0.0
H1283 H 0.64342 0.12904 0.98214 0.0
H1284 H 0.64498 0.13172 0.96591 0.0
H1285 H 0.66378 0.1296 0.97483 0.0
C1286 C 0.67844 0.12632 0.94123 0.0
C1287 C 0.69461 0.12341 0.94363 0.0
C1288 C 0.6614 0.11626 0.94725 0.0
C1289 C 0.66024 0.10313 0.95577 0.0
C1290 C 0.67621 0.09994 0.95806 0.0
H1291 H 0.56941 0.04749 0.00595 0.0
H1292 H 0.60087 0.06676 0.99722 0.0
C1293 C 0.69329 0.11006 0.95208 0.0
C1294 C 0.64214 0.09232 0.96206 0.0
H1295 H 0.61288 0.09881 0.98166 0.0
C1296 C 0.63102 0.07164 0.95969 0.0
C1297 C 0.63579 0.10224 0.97027 0.0
C1298 C 0.64768 0.12436 0.97356 0.0
C1299 C 0.61337 0.06064 0.96505 0.0
C1300 C 0.60663 0.07063 0.9729 0.0
C1301 C 0.61803 0.09125 0.97555 0.0
C1302 C 0.58759 0.05986 0.97825 0.0
C1303 C 0.6021 0.0384 0.96234 0.0
C1304 C 0.56975 0.05005 0.97048 0.0
C1305 C 0.5518 0.03911 0.97541 0.0
C1306 C 0.55135 0.03779 0.98823 0.0
C1307 C 0.56924 0.04815 0.99604 0.0
C1308 C 0.58721 0.05916 0.99108 0.0
H1309 H 0.61152 0.03277 0.95866 0.0
H1310 H 0.59621 0.03125 0.97079 0.0
H1311 H 0.58937 0.03391 0.95528 0.0
H1312 H 0.56974 0.05071 0.96057 0.0
H1313 H 0.53833 0.03141 0.96911 0.0
H1314 H 0.83427 0.54176 0.95351 0.0
H1315 H 0.8583 0.53465 0.9638 0.0
H1316 H 0.88854 0.54436 0.93088 0.0
H1317 H 0.86522 0.55248 0.92073 0.0
H1318 H 0.86645 0.50561 0.95771 0.0
H1319 H 0.93399 0.57872 0.957 0.0
H1320 H 0.90938 0.57481 0.95355 0.0
H1321 H 0.92087 0.56783 0.94195 0.0
C1322 C 0.84623 0.54274 0.94852 0.0
C1323 C 0.84785 0.54784 0.9363 0.0
C1324 C 0.85987 0.53851 0.95439 0.0
C1325 C 0.87542 0.53928 0.94819 0.0
C1326 C 0.87694 0.5441 0.93595 0.0
H1327 H 0.96665 0.50977 0.96627 0.0
H1328 H 0.94316 0.51763 0.95591 0.0
C1329 C 0.86339 0.54846 0.93009 0.0
C1330 C 0.88967 0.53448 0.95442 0.0
H1331 H 0.93892 0.55262 0.96289 0.0
C1332 C 0.88228 0.51593 0.9589 0.0
C1333 C 0.91034 0.54798 0.95598 0.0
C1334 C 0.91913 0.56852 0.95198 0.0
C1335 C 0.89501 0.51042 0.96474 0.0
C1336 C 0.91564 0.52383 0.96618 0.0
C1337 C 0.92307 0.54235 0.9617 0.0
C1338 C 0.92974 0.51899 0.97247 0.0
C1339 C 0.88638 0.49017 0.96916 0.0
C1340 C 0.93006 0.51735 0.98522 0.0
C1341 C 0.94351 0.51297 0.99119 0.0
C1342 C 0.95687 0.5101 0.9845 0.0
C1343 C 0.95652 0.5118 0.9717 0.0
C1344 C 0.94314 0.51633 0.96576 0.0
H1345 H 0.87073 0.48023 0.96524 0.0
H1346 H 0.89521 0.48318 0.96663 0.0
H1347 H 0.88687 0.49163 0.9794 0.0
H1348 H 0.91996 0.51958 0.99057 0.0
H1349 H 0.94337 0.51178 0.00105 0.0
H1350 H 0.43973 0.29197 0.946 0.0
H1351 H 0.45306 0.32577 0.9556 0.0
H1352 H 0.39785 0.30854 0.97089 0.0
H1353 H 0.38433 0.2746 0.96125 0.0
H1354 H 0.4379 0.35055 0.95122 0.0
H1355 H 0.43971 0.33808 0.00086 0.0
H1356 H 0.43713 0.32011 0.98856 0.0
H1357 H 0.41621 0.3226 0.99184 0.0
C1358 C 0.4304 0.29537 0.95138 0.0
C1359 C 0.41094 0.28066 0.95283 0.0
C1360 C 0.43807 0.31465 0.95691 0.0
C1361 C 0.42651 0.31958 0.96404 0.0
C1362 C 0.40714 0.30493 0.96561 0.0
H1363 H 0.44927 0.43895 0.9826 0.0
H1364 H 0.43459 0.40397 0.97514 0.0
C1365 C 0.39944 0.28558 0.96009 0.0
C1366 C 0.43451 0.34031 0.9693 0.0
H1367 H 0.44721 0.3702 0.99644 0.0
C1368 C 0.43995 0.35486 0.96111 0.0
C1369 C 0.43731 0.34585 0.9822 0.0
C1370 C 0.43246 0.3309 0.99141 0.0
C1371 C 0.44803 0.37485 0.96546 0.0
C1372 C 0.45044 0.38035 0.97834 0.0
C1373 C 0.44516 0.36585 0.98656 0.0
C1374 C 0.4588 0.40121 0.98343 0.0
C1375 C 0.45429 0.38996 0.95626 0.0
C1376 C 0.47701 0.41104 0.99085 0.0
C1377 C 0.48544 0.43103 0.99516 0.0
C1378 C 0.47572 0.44147 0.99217 0.0
C1379 C 0.45721 0.4314 0.985 0.0
C1380 C 0.44882 0.41142 0.98069 0.0
H1381 H 0.45575 0.38396 0.94711 0.0
H1382 H 0.44297 0.39445 0.95491 0.0
H1383 H 0.46864 0.40339 0.95971 0.0
H1384 H 0.48488 0.40334 0.99309 0.0
H1385 H 0.49966 0.43833 1.00071 0.0
H1386 H 0.1275 0.71822 0.05715 0.0
H1387 H 0.1032 0.68481 0.04775 0.0
H1388 H 0.13562 0.66152 0.06696 0.0
H1389 H 0.1603 0.69491 0.07609 0.0
H1390 H 0.12528 0.64771 0.04196 0.0
H1391 H 0.06043 0.63981 0.06468 0.0
H1392 H 0.07261 0.66157 0.05677 0.0
H1393 H 0.08553 0.65885 0.07003 0.0
C1394 C 0.1295 0.706 0.05933 0.0
C1395 C 0.14579 0.70921 0.0674 0.0
C1396 C 0.11548 0.6869 0.05407 0.0
C1397 C 0.11746 0.67069 0.05683 0.0
C1398 C 0.13375 0.67384 0.06481 0.0
H1399 H 0.03066 0.54555 0.03996 0.0
H1400 H 0.054 0.57868 0.05022 0.0
C1401 C 0.14776 0.69291 0.07007 0.0
C1402 C 0.10297 0.65048 0.05106 0.0
H1403 H 0.05411 0.61477 0.0486 0.0
C1404 C 0.10973 0.64047 0.04343 0.0
C1405 C 0.08275 0.64103 0.05313 0.0
C1406 C 0.07487 0.65076 0.06169 0.0
C1407 C 0.09674 0.62133 0.03765 0.0
C1408 C 0.07641 0.61212 0.0394 0.0
C1409 C 0.06969 0.62198 0.0472 0.0
C1410 C 0.06191 0.59224 0.0332 0.0
C1411 C 0.10492 0.61104 0.02983 0.0
C1412 C 0.05841 0.58902 0.02025 0.0
C1413 C 0.04514 0.57015 0.01436 0.0
C1414 C 0.03503 0.55415 0.02132 0.0
C1415 C 0.03826 0.55752 0.03432 0.0
C1416 C 0.05155 0.57643 0.0402 0.0
H1417 H 0.12121 0.61793 0.03194 0.0
H1418 H 0.09784 0.59513 0.03126 0.0
H1419 H 0.10178 0.61207 0.01991 0.0
H1420 H 0.066 0.60112 0.01469 0.0
H1421 H 0.04293 0.56813 0.00434 0.0
H1422 H 0.29663 0.42571 0.05389 0.0
H1423 H 0.32656 0.43495 0.04373 0.0
H1424 H 0.3598 0.48557 0.07093 0.0
H1425 H 0.32971 0.47704 0.08079 0.0
H1426 H 0.36854 0.49512 0.04784 0.0
H1427 H 0.37221 0.42769 0.05533 0.0
H1428 H 0.34914 0.42234 0.04726 0.0
H1429 H 0.35584 0.43381 0.06298 0.0
C1430 C 0.31024 0.43891 0.05767 0.0
C1431 C 0.3107 0.45058 0.06821 0.0
C1432 C 0.32743 0.44402 0.05194 0.0
C1433 C 0.34553 0.46074 0.0567 0.0
C1434 C 0.34604 0.4725 0.06715 0.0
H1435 H 0.46105 0.48488 0.03792 0.0
H1436 H 0.43154 0.47751 0.04809 0.0
C1437 C 0.32883 0.46749 0.07285 0.0
C1438 C 0.36385 0.46621 0.05066 0.0
H1439 H 0.39398 0.44885 0.0417 0.0
C1440 C 0.37415 0.48503 0.04653 0.0
C1441 C 0.37132 0.45315 0.04911 0.0
C1442 C 0.36168 0.4332 0.05401 0.0
C1443 C 0.39158 0.49107 0.04078 0.0
C1444 C 0.39865 0.47774 0.03883 0.0
C1445 C 0.38846 0.459 0.04308 0.0
C1446 C 0.41683 0.48301 0.03267 0.0
C1447 C 0.40247 0.51183 0.0371 0.0
C1448 C 0.41842 0.48855 0.02058 0.0
C1449 C 0.43541 0.49296 0.01475 0.0
C1450 C 0.45099 0.4916 0.02083 0.0
C1451 C 0.44931 0.48601 0.03293 0.0
C1452 C 0.43244 0.48178 0.03877 0.0
H1453 H 0.39847 0.52175 0.04234 0.0
H1454 H 0.41876 0.51823 0.03867 0.0
H1455 H 0.39841 0.5115 0.02711 0.0
H1456 H 0.40639 0.48914 0.01556 0.0
H1457 H 0.43614 0.49705 0.0054 0.0
H1458 H 0.60822 0.90778 0.0691 0.0
H1459 H 0.59251 0.92484 0.0597 0.0
H1460 H 0.56824 0.88045 0.02822 0.0
H1461 H 0.58363 0.86314 0.03762 0.0
H1462 H 0.59605 0.93928 0.0351 0.0
H1463 H 0.51974 0.88116 0.04232 0.0
H1464 H 0.54159 0.88345 0.05064 0.0
H1465 H 0.5345 0.87277 0.03481 0.0
C1466 C 0.59955 0.90168 0.06017 0.0
C1467 C 0.59708 0.88408 0.05412 0.0
C1468 C 0.59068 0.91147 0.0548 0.0
C1469 C 0.57907 0.90374 0.04335 0.0
C1470 C 0.57701 0.8865 0.03712 0.0
H1471 H 0.53111 0.95956 0.99687 0.0
H1472 H 0.54743 0.94213 0.00473 0.0
C1473 C 0.58594 0.87675 0.04245 0.0
C1474 C 0.56873 0.91347 0.03808 0.0
H1475 H 0.52276 0.90748 0.03141 0.0
C1476 C 0.58004 0.93235 0.03425 0.0
C1477 C 0.54786 0.90439 0.03714 0.0
C1478 C 0.53513 0.88438 0.04152 0.0
C1479 C 0.57095 0.94238 0.02938 0.0
C1480 C 0.55006 0.93318 0.02828 0.0
C1481 C 0.53877 0.91437 0.0322 0.0
C1482 C 0.53968 0.94313 0.0234 0.0
C1483 C 0.58372 0.96286 0.02565 0.0
C1484 C 0.52955 0.949 0.03125 0.0
C1485 C 0.52021 0.95896 0.02681 0.0
C1486 C 0.5207 0.96305 0.01439 0.0
C1487 C 0.53047 0.95668 0.00648 0.0
C1488 C 0.5399 0.94682 0.01096 0.0
H1489 H 0.59953 0.96931 0.02926 0.0
H1490 H 0.58274 0.96214 0.0154 0.0
H1491 H 0.57844 0.97291 0.02906 0.0
H1492 H 0.52917 0.94618 0.04087 0.0
H1493 H 0.51276 0.96358 0.03314 0.0
H1494 H 0.9853 0.22507 0.40849 0.0
H1495 H 0.01407 0.2436 0.39724 0.0
H1496 H 0.98953 0.19564 0.36786 0.0
H1497 H 0.96039 0.1773 0.37883 0.0
H1498 H 0.04075 0.23194 0.39031 0.0
H1499 H 0.00401 0.2438 0.3491 0.0
H1500 H 0.99217 0.23613 0.36306 0.0
H1501 H 0.99337 0.2185 0.3523 0.0
C1502 C 0.98584 0.2186 0.39954 0.0
C1503 C 0.97052 0.19971 0.39456 0.0
C1504 C 0.00236 0.22915 0.39316 0.0
C1505 C 0.00383 0.22108 0.38166 0.0
C1506 C 0.98855 0.20228 0.37663 0.0
H1507 H 0.10045 0.26917 0.33384 0.0
H1508 H 0.06994 0.24673 0.34272 0.0
C1509 C 0.97201 0.19173 0.38299 0.0
C1510 C 0.02175 0.23206 0.3752 0.0
H1511 H 0.038 0.25406 0.3489 0.0
C1512 C 0.04014 0.23676 0.38125 0.0
C1513 C 0.02088 0.23818 0.36334 0.0
C1514 C 0.00159 0.23407 0.35658 0.0
C1515 C 0.05774 0.24758 0.3758 0.0
C1516 C 0.05692 0.25408 0.36408 0.0
C1517 C 0.03851 0.24898 0.35787 0.0
C1518 C 0.07516 0.26743 0.35857 0.0
C1519 C 0.07709 0.25204 0.38266 0.0
C1520 C 0.08793 0.2865 0.36447 0.0
C1521 C 0.10521 0.29931 0.35945 0.0
C1522 C 0.1101 0.29332 0.34838 0.0
C1523 C 0.09716 0.27421 0.3424 0.0
C1524 C 0.07974 0.2614 0.34743 0.0
H1525 H 0.07478 0.24175 0.38977 0.0
H1526 H 0.08708 0.25108 0.37617 0.0
H1527 H 0.08461 0.26731 0.38742 0.0
H1528 H 0.08449 0.29153 0.37297 0.0
H1529 H 0.11477 0.31389 0.36433 0.0
H1530 H 0.79705 0.76968 0.41463 0.0
H1531 H 0.77278 0.77652 0.40436 0.0
H1532 H 0.81235 0.8045 0.3768 0.0
H1533 H 0.83632 0.79696 0.38667 0.0
H1534 H 0.77617 0.81206 0.40004 0.0
H1535 H 0.76128 0.76606 0.35554 0.0
H1536 H 0.77433 0.76411 0.36914 0.0
H1537 H 0.78705 0.78378 0.35963 0.0
C1538 C 0.80048 0.77701 0.40627 0.0
C1539 C 0.81862 0.78264 0.40144 0.0
C1540 C 0.78664 0.78105 0.40047 0.0
C1541 C 0.7906 0.79073 0.3897 0.0
C1542 C 0.80878 0.79663 0.38495 0.0
H1543 H 0.73089 0.83459 0.34291 0.0
H1544 H 0.75427 0.82677 0.35337 0.0
C1545 C 0.8226 0.79254 0.39071 0.0
C1546 C 0.7759 0.79508 0.38361 0.0
H1547 H 0.74835 0.78786 0.3562 0.0
C1548 C 0.76998 0.80666 0.39048 0.0
C1549 C 0.76782 0.788 0.37113 0.0
C1550 C 0.77278 0.77464 0.36346 0.0
C1551 C 0.75653 0.81171 0.38514 0.0
C1552 C 0.74866 0.80482 0.37263 0.0
C1553 C 0.75449 0.79317 0.36577 0.0
C1554 C 0.73444 0.80966 0.36646 0.0
C1555 C 0.75117 0.82474 0.39281 0.0
C1556 C 0.71546 0.80247 0.3703 0.0
C1557 C 0.702 0.80685 0.36432 0.0
C1558 C 0.70729 0.81852 0.35438 0.0
C1559 C 0.72633 0.82564 0.35055 0.0
C1560 C 0.73972 0.82116 0.3565 0.0
H1561 H 0.76164 0.83222 0.40132 0.0
H1562 H 0.75101 0.83617 0.38735 0.0
H1563 H 0.7361 0.81555 0.39565 0.0
H1564 H 0.711 0.79331 0.37785 0.0
H1565 H 0.68747 0.80109 0.3675 0.0
H1566 H 0.23042 0.05118 0.3912 0.0
H1567 H 0.21778 0.01696 0.38261 0.0
H1568 H 0.27488 0.03305 0.37055 0.0
H1569 H 0.28759 0.0675 0.37889 0.0
H1570 H 0.24134 0.0084 0.35249 0.0
H1571 H 0.23339 0.97897 0.3982 0.0
H1572 H 0.22176 0.99347 0.39578 0.0
H1573 H 0.24825 0.005 0.3965 0.0
C1574 C 0.24024 0.0475 0.3866 0.0
C1575 C 0.26002 0.06202 0.38574 0.0
C1576 C 0.23305 0.02791 0.38181 0.0
C1577 C 0.24549 0.02249 0.37611 0.0
C1578 C 0.26511 0.03698 0.375 0.0
H1579 H 0.22192 0.9025 0.35935 0.0
H1580 H 0.23682 0.93766 0.36646 0.0
C1581 C 0.27236 0.05658 0.37982 0.0
C1582 C 0.23799 0.00165 0.37137 0.0
H1583 H 0.2195 0.95536 0.38045 0.0
C1584 C 0.23663 0.99679 0.35858 0.0
C1585 C 0.23211 0.98664 0.37939 0.0
C1586 C 0.23408 0.99123 0.39325 0.0
C1587 C 0.22907 0.97713 0.35356 0.0
C1588 C 0.22257 0.96204 0.36155 0.0
C1589 C 0.22436 0.96698 0.37436 0.0
C1590 C 0.21382 0.94096 0.35683 0.0
C1591 C 0.22825 0.97268 0.33978 0.0
C1592 C 0.19588 0.93119 0.34914 0.0
C1593 C 0.18728 0.9111 0.34507 0.0
C1594 C 0.19648 0.90042 0.34867 0.0
C1595 C 0.21447 0.91029 0.35638 0.0
C1596 C 0.22302 0.93037 0.36046 0.0
H1597 H 0.23815 0.98615 0.33541 0.0
H1598 H 0.23251 0.96133 0.3377 0.0
H1599 H 0.21288 0.96681 0.33549 0.0
H1600 H 0.18837 0.93905 0.34643 0.0
H1601 H 0.17339 0.90393 0.33917 0.0
H1602 H 0.50577 0.61459 0.29261 0.0
H1603 H 0.52968 0.64866 0.30097 0.0
H1604 H 0.56626 0.65339 0.2718 0.0
H1605 H 0.54204 0.61965 0.26306 0.0
H1606 H 0.56915 0.66542 0.30949 0.0
H1607 H 0.5601 0.70163 0.26936 0.0
H1608 H 0.54301 0.67612 0.27127 0.0
H1609 H 0.56638 0.68296 0.26548 0.0
C1610 C 0.51877 0.62295 0.28787 0.0
C1611 C 0.5219 0.61441 0.2771 0.0
C1612 C 0.53249 0.64237 0.29272 0.0
C1613 C 0.54957 0.65365 0.28689 0.0
C1614 C 0.55297 0.64507 0.2763 0.0
H1615 H 0.64869 0.7742 0.30539 0.0
H1616 H 0.62694 0.73996 0.2962 0.0
C1617 C 0.53923 0.62568 0.27141 0.0
C1618 C 0.56392 0.67432 0.292 0.0
H1619 H 0.58574 0.7222 0.28523 0.0
C1620 C 0.57276 0.67784 0.3042 0.0
C1621 C 0.56861 0.69048 0.28506 0.0
C1622 C 0.55891 0.6877 0.27211 0.0
C1623 C 0.58624 0.6971 0.30962 0.0
C1624 C 0.59082 0.71323 0.3027 0.0
C1625 C 0.58221 0.70974 0.29047 0.0
C1626 C 0.60394 0.73391 0.30819 0.0
C1627 C 0.5956 0.70007 0.32269 0.0
C1628 C 0.59801 0.74185 0.31782 0.0
C1629 C 0.6103 0.76136 0.32304 0.0
C1630 C 0.62879 0.77332 0.31873 0.0
C1631 C 0.6346 0.76536 0.30897 0.0
C1632 C 0.6222 0.74583 0.3037 0.0
H1633 H 0.59416 0.68615 0.32566 0.0
H1634 H 0.61154 0.71154 0.32358 0.0
H1635 H 0.58813 0.70516 0.32908 0.0
H1636 H 0.58382 0.73294 0.32127 0.0
H1637 H 0.60533 0.767 0.33052 0.0
H1638 H 0.36631 0.87079 0.28587 0.0
H1639 H 0.33703 0.86334 0.29642 0.0
H1640 H 0.31676 0.88649 0.26768 0.0
H1641 H 0.34565 0.89337 0.25683 0.0
H1642 H 0.3245 0.88866 0.30558 0.0
H1643 H 0.26843 0.83208 0.26937 0.0
H1644 H 0.29456 0.84068 0.26953 0.0
H1645 H 0.2846 0.85531 0.26381 0.0
C1646 C 0.3555 0.87407 0.2817 0.0
C1647 C 0.35827 0.88253 0.27043 0.0
C1648 C 0.33885 0.86993 0.28779 0.0
C1649 C 0.32455 0.87406 0.28274 0.0
C1650 C 0.32741 0.88282 0.27163 0.0
H1651 H 0.21568 0.86344 0.30469 0.0
H1652 H 0.24507 0.86996 0.29463 0.0
C1653 C 0.34406 0.88696 0.26551 0.0
C1654 C 0.30683 0.86949 0.28923 0.0
H1655 H 0.25624 0.84293 0.28578 0.0
C1656 C 0.30957 0.87857 0.30129 0.0
C1657 C 0.28737 0.8563 0.28361 0.0
C1658 C 0.2835 0.84537 0.27091 0.0
C1659 C 0.29336 0.87519 0.30777 0.0
C1660 C 0.27391 0.86213 0.30211 0.0
C1661 C 0.27117 0.85295 0.29009 0.0
C1662 C 0.25615 0.85812 0.30838 0.0
C1663 C 0.29717 0.88602 0.32049 0.0
C1664 C 0.25248 0.84906 0.3194 0.0
C1665 C 0.23565 0.8453 0.32522 0.0
C1666 C 0.22213 0.85048 0.32009 0.0
C1667 C 0.22579 0.85935 0.30896 0.0
C1668 C 0.24258 0.86306 0.30317 0.0
H1669 H 0.31249 0.89887 0.32228 0.0
H1670 H 0.28655 0.89135 0.32168 0.0
H1671 H 0.29519 0.87577 0.32756 0.0
H1672 H 0.26258 0.84477 0.32346 0.0
H1673 H 0.23326 0.83836 0.33373 0.0
H1674 H 0.09292 0.48377 0.30493 0.0
H1675 H 0.10616 0.4647 0.31444 0.0
H1676 H 0.08196 0.42158 0.28231 0.0
H1677 H 0.06903 0.44072 0.27258 0.0
H1678 H 0.0749 0.40623 0.30676 0.0
H1679 H 0.15393 0.46035 0.30215 0.0
H1680 H 0.13962 0.46986 0.30907 0.0
H1681 H 0.13372 0.46012 0.29306 0.0
C1682 C 0.09052 0.4703 0.29984 0.0
C1683 C 0.08001 0.46383 0.28795 0.0
C1684 C 0.09805 0.45942 0.30531 0.0
C1685 C 0.09519 0.4419 0.299 0.0
C1686 C 0.08431 0.43511 0.2873 0.0
H1687 H 0.12426 0.35135 0.30856 0.0
H1688 H 0.1108 0.37202 0.30241 0.0
C1689 C 0.07684 0.44601 0.28179 0.0
C1690 C 0.10368 0.43065 0.30452 0.0
H1691 H 0.14734 0.43184 0.31166 0.0
C1692 C 0.09073 0.41182 0.30789 0.0
C1693 C 0.12434 0.43813 0.30604 0.0
C1694 C 0.13879 0.45817 0.30234 0.0
C1695 C 0.09792 0.40013 0.31269 0.0
C1696 C 0.11856 0.40732 0.31383 0.0
C1697 C 0.13154 0.42637 0.31074 0.0
C1698 C 0.12691 0.39493 0.31765 0.0
C1699 C 0.08335 0.38026 0.31656 0.0
C1700 C 0.14098 0.4013 0.32802 0.0
C1701 C 0.14891 0.38958 0.33151 0.0
C1702 C 0.14291 0.37133 0.32465 0.0
C1703 C 0.12905 0.3652 0.31415 0.0
C1704 C 0.12123 0.37694 0.31065 0.0
H1705 H 0.06938 0.37965 0.31872 0.0
H1706 H 0.07959 0.36861 0.30884 0.0
H1707 H 0.0897 0.37682 0.32479 0.0
H1708 H 0.14569 0.41525 0.33347 0.0
H1709 H 0.15959 0.39475 0.33964 0.0
H1710 H 0.34653 0.43359 0.26265 0.0
H1711 H 0.31601 0.41587 0.27262 0.0
H1712 H 0.33954 0.46317 0.30236 0.0
H1713 H 0.36991 0.48113 0.29238 0.0
H1714 H 0.31222 0.40374 0.29738 0.0
H1715 H 0.28471 0.45578 0.28973 0.0
H1716 H 0.30349 0.45521 0.28114 0.0
H1717 H 0.3098 0.46688 0.29676 0.0
C1718 C 0.34513 0.44028 0.27126 0.0
C1719 C 0.36061 0.45878 0.27671 0.0
C1720 C 0.32776 0.4301 0.27697 0.0
C1721 C 0.32549 0.43833 0.28814 0.0
C1722 C 0.34094 0.45669 0.29366 0.0
H1723 H 0.23617 0.37862 0.33849 0.0
H1724 H 0.26733 0.3981 0.32952 0.0
C1725 C 0.35834 0.46683 0.288 0.0
C1726 C 0.307 0.42764 0.29409 0.0
H1727 H 0.26671 0.43011 0.30212 0.0
C1728 C 0.30226 0.40948 0.29844 0.0
C1729 C 0.29401 0.43514 0.29534 0.0
C1730 C 0.29809 0.45424 0.29042 0.0
C1731 C 0.28488 0.39868 0.30412 0.0
C1732 C 0.27206 0.40634 0.30556 0.0
C1733 C 0.27671 0.42441 0.30111 0.0
C1734 C 0.25331 0.39539 0.3112 0.0
C1735 C 0.28016 0.37896 0.30833 0.0
C1736 C 0.23516 0.3879 0.30393 0.0
C1737 C 0.21736 0.37681 0.30901 0.0
C1738 C 0.21738 0.37313 0.32149 0.0
C1739 C 0.23562 0.38116 0.32885 0.0
C1740 C 0.25344 0.39219 0.32373 0.0
H1741 H 0.28946 0.3734 0.30439 0.0
H1742 H 0.28289 0.38055 0.31858 0.0
H1743 H 0.26432 0.36776 0.30565 0.0
H1744 H 0.23478 0.39031 0.29425 0.0
H1745 H 0.2036 0.37092 0.30308 0.0
H1746 H 0.53214 0.90793 0.28026 0.0
H1747 H 0.55581 0.90001 0.29025 0.0
H1748 H 0.52677 0.84309 0.26853 0.0
H1749 H 0.50269 0.85065 0.25873 0.0
H1750 H 0.53463 0.84135 0.29371 0.0
H1751 H 0.60151 0.89824 0.27468 0.0
H1752 H 0.58783 0.90776 0.28236 0.0
H1753 H 0.57668 0.89106 0.26842 0.0
C1754 C 0.53071 0.89368 0.27765 0.0
C1755 C 0.51555 0.87995 0.26866 0.0
C1756 C 0.54439 0.88927 0.28328 0.0
C1757 C 0.54323 0.87109 0.27999 0.0
C1758 C 0.52802 0.85728 0.27112 0.0
H1759 H 0.63269 0.83917 0.29866 0.0
H1760 H 0.60885 0.84625 0.28799 0.0
C1761 C 0.51436 0.86168 0.26548 0.0
C1762 C 0.55757 0.86627 0.28602 0.0
H1763 H 0.60681 0.88121 0.29043 0.0
C1764 C 0.55041 0.85002 0.29296 0.0
C1765 C 0.57811 0.87746 0.28491 0.0
C1766 C 0.58653 0.8945 0.2771 0.0
C1767 C 0.56329 0.84487 0.29902 0.0
C1768 C 0.58389 0.85645 0.29824 0.0
C1769 C 0.59102 0.87247 0.2911 0.0
C1770 C 0.5983 0.85216 0.30475 0.0
C1771 C 0.55471 0.82694 0.30608 0.0
C1772 C 0.60043 0.85338 0.31772 0.0
C1773 C 0.61404 0.84935 0.32385 0.0
C1774 C 0.62585 0.8441 0.31713 0.0
C1775 C 0.6238 0.8431 0.30413 0.0
C1776 C 0.6102 0.84716 0.29801 0.0
H1777 H 0.53864 0.81693 0.30322 0.0
H1778 H 0.56249 0.81848 0.30472 0.0
H1779 H 0.55657 0.83181 0.31611 0.0
H1780 H 0.59165 0.85757 0.32311 0.0
H1781 H 0.61527 0.85037 0.33387 0.0
H1782 H 0.06259 0.62802 0.27152 0.0
H1783 H 0.07642 0.66189 0.28134 0.0
H1784 H 0.10124 0.64782 0.31288 0.0
H1785 H 0.08768 0.61398 0.30307 0.0
H1786 H 0.07165 0.6759 0.30636 0.0
H1787 H 0.14888 0.6958 0.29878 0.0
H1788 H 0.1275 0.67468 0.29026 0.0
H1789 H 0.13462 0.67366 0.30606 0.0
C1790 C 0.07095 0.63214 0.28056 0.0
C1791 C 0.07417 0.61841 0.28649 0.0
C1792 C 0.07873 0.65141 0.28618 0.0
C1793 C 0.08997 0.65731 0.29775 0.0
C1794 C 0.0927 0.64351 0.30389 0.0
H1795 H 0.13614 0.77014 0.3432 0.0
H1796 H 0.12015 0.73484 0.33598 0.0
C1797 C 0.08484 0.62419 0.29831 0.0
C1798 C 0.09952 0.67814 0.30314 0.0
H1799 H 0.14451 0.72043 0.30921 0.0
C1800 C 0.08757 0.68565 0.30706 0.0
C1801 C 0.12028 0.69076 0.3039 0.0
C1802 C 0.13365 0.68346 0.29946 0.0
C1803 C 0.09591 0.70557 0.31176 0.0
C1804 C 0.11667 0.71816 0.31256 0.0
C1805 C 0.1286 0.71064 0.30864 0.0
C1806 C 0.12625 0.73941 0.31698 0.0
C1807 C 0.08249 0.71318 0.31558 0.0
C1808 C 0.13519 0.75358 0.30869 0.0
C1809 C 0.1443 0.77371 0.31276 0.0
C1810 C 0.14479 0.78003 0.32523 0.0
C1811 C 0.136 0.76576 0.33354 0.0
C1812 C 0.12678 0.7456 0.32943 0.0
H1813 H 0.06665 0.70241 0.3125 0.0
H1814 H 0.08423 0.71607 0.32582 0.0
H1815 H 0.0866 0.72734 0.31171 0.0
H1816 H 0.13497 0.74902 0.29905 0.0
H1817 H 0.15097 0.7843 0.30612 0.0
H1818 H 0.82725 0.0305 0.40868 0.0
H1819 H 0.80323 0.99726 0.39899 0.0
H1820 H 0.771 0.02053 0.37955 0.0
H1821 H 0.79467 0.05382 0.38948 0.0
H1822 H 0.74681 0.98582 0.39069 0.0
H1823 H 0.79943 0.97737 0.36243 0.0
H1824 H 0.80769 0.98409 0.37867 0.0
H1825 H 0.80457 0.00102 0.36971 0.0
C1826 C 0.81495 0.02854 0.40243 0.0
C1827 C 0.81289 0.04482 0.39983 0.0
C1828 C 0.80136 0.00957 0.39681 0.0
C1829 C 0.78553 0.00651 0.38843 0.0
C1830 C 0.78322 0.02264 0.38594 0.0
H1831 H 0.71164 0.90249 0.33674 0.0
H1832 H 0.73391 0.93592 0.34677 0.0
C1833 C 0.79682 0.04164 0.39155 0.0
C1834 C 0.77132 0.98646 0.38231 0.0
H1835 H 0.76794 0.94876 0.36286 0.0
C1836 C 0.75138 0.97771 0.38458 0.0
C1837 C 0.77733 0.97606 0.37423 0.0
C1838 C 0.79838 0.98514 0.371 0.0
C1839 C 0.7373 0.95863 0.37913 0.0
C1840 C 0.74344 0.948 0.37134 0.0
C1841 C 0.76333 0.95689 0.36893 0.0
C1842 C 0.72944 0.92775 0.36541 0.0
C1843 C 0.71595 0.95014 0.38158 0.0
C1844 C 0.71962 0.91204 0.37259 0.0
C1845 C 0.70683 0.89286 0.36689 0.0
C1846 C 0.70373 0.88906 0.3539 0.0
C1847 C 0.71364 0.90487 0.34676 0.0
C1848 C 0.7264 0.924 0.35246 0.0
H1849 H 0.71287 0.96183 0.38515 0.0
H1850 H 0.70582 0.94199 0.37304 0.0
H1851 H 0.71256 0.93959 0.38863 0.0
H1852 H 0.72206 0.91456 0.3826 0.0
H1853 H 0.69951 0.88102 0.37267 0.0
H1854 H 0.99017 0.77221 0.41442 0.0
H1855 H 0.02052 0.78185 0.40448 0.0
H1856 H 0.00145 0.80768 0.37689 0.0
H1857 H 0.97124 0.79838 0.38687 0.0
H1858 H 0.02355 0.77116 0.37901 0.0
H1859 H 0.05827 0.85235 0.39103 0.0
H1860 H 0.03837 0.83457 0.39894 0.0
H1861 H 0.03316 0.84002 0.38386 0.0
C1862 C 0.99252 0.78009 0.4063 0.0
C1863 C 0.97832 0.78458 0.40145 0.0
C1864 C 0.0098 0.78548 0.4006 0.0
C1865 C 0.0133 0.79565 0.39004 0.0
C1866 C 0.99913 0.80005 0.38513 0.0
H1867 H 0.09862 0.81444 0.33733 0.0
H1868 H 0.06864 0.80534 0.34752 0.0
C1869 C 0.9818 0.79456 0.39077 0.0
C1870 C 0.03167 0.80145 0.38406 0.0
H1871 H 0.07421 0.84154 0.37732 0.0
C1872 C 0.03465 0.78654 0.37865 0.0
C1873 C 0.04617 0.82152 0.38371 0.0
C1874 C 0.04401 0.83809 0.38977 0.0
C1875 C 0.05167 0.79118 0.37271 0.0
C1876 C 0.06595 0.81125 0.37212 0.0
C1877 C 0.06312 0.82616 0.3777 0.0
C1878 C 0.08411 0.81706 0.3659 0.0
C1879 C 0.05438 0.77462 0.36725 0.0
C1880 C 0.10275 0.82703 0.37282 0.0
C1881 C 0.11992 0.83227 0.36704 0.0
C1882 C 0.11878 0.82779 0.35418 0.0
C1883 C 0.10006 0.81811 0.34724 0.0
C1884 C 0.08289 0.81279 0.35305 0.0
H1885 H 0.04423 0.7603 0.37071 0.0
H1886 H 0.05123 0.77286 0.35703 0.0
H1887 H 0.06988 0.77805 0.36943 0.0
H1888 H 0.10399 0.83053 0.38274 0.0
H1889 H 0.13406 0.83978 0.37268 0.0
H1890 H 0.25179 0.1999 0.3703 0.0
H1891 H 0.23615 0.21658 0.36034 0.0
H1892 H 0.26078 0.26255 0.39094 0.0
H1893 H 0.27671 0.24611 0.4009 0.0
H1894 H 0.20835 0.22516 0.37148 0.0
H1895 H 0.27452 0.29246 0.35938 0.0
H1896 H 0.27498 0.27036 0.36263 0.0
H1897 H 0.27582 0.287 0.37509 0.0
C1898 C 0.25419 0.21377 0.37479 0.0
C1899 C 0.26552 0.22175 0.38636 0.0
C1900 C 0.24516 0.22318 0.36913 0.0
C1901 C 0.24747 0.24083 0.37487 0.0
C1902 C 0.25905 0.24905 0.38631 0.0
H1903 H 0.17819 0.29752 0.36565 0.0
H1904 H 0.19453 0.27974 0.37282 0.0
C1905 C 0.268 0.23958 0.39202 0.0
C1906 C 0.23686 0.25006 0.36925 0.0
H1907 H 0.24389 0.29202 0.35728 0.0
C1908 C 0.21608 0.23972 0.3683 0.0
C1909 C 0.24704 0.26897 0.36504 0.0
C1910 C 0.26932 0.28034 0.36546 0.0
C1911 C 0.20519 0.24805 0.36352 0.0
C1912 C 0.2154 0.26722 0.35968 0.0
C1913 C 0.23615 0.27735 0.36033 0.0
C1914 C 0.20482 0.27718 0.35516 0.0
C1915 C 0.18287 0.23631 0.36258 0.0
C1916 C 0.20532 0.28167 0.34289 0.0
C1917 C 0.19596 0.29178 0.33874 0.0
C1918 C 0.18615 0.29777 0.34686 0.0
C1919 C 0.18558 0.2931 0.35915 0.0
C1920 C 0.19484 0.28288 0.36326 0.0
H1921 H 0.17725 0.22035 0.36331 0.0
H1922 H 0.17769 0.24205 0.37021 0.0
H1923 H 0.17632 0.23788 0.35368 0.0
H1924 H 0.21303 0.27743 0.33654 0.0
H1925 H 0.19674 0.29521 0.32923 0.0
H1926 H 0.65405 0.52191 0.73441 0.0
H1927 H 0.68274 0.54107 0.72327 0.0
H1928 H 0.65639 0.57436 0.71012 0.0
H1929 H 0.62748 0.55514 0.72118 0.0
H1930 H 0.68419 0.54519 0.69773 0.0
H1931 H 0.71178 0.61723 0.72607 0.0
H1932 H 0.69358 0.59401 0.73096 0.0
H1933 H 0.68641 0.60535 0.71946 0.0
C1934 C 0.65427 0.53322 0.72909 0.0
C1935 C 0.63847 0.53701 0.7287 0.0
C1936 C 0.67071 0.54418 0.72276 0.0
C1937 C 0.67176 0.55923 0.71597 0.0
C1938 C 0.65601 0.56303 0.71548 0.0
H1939 H 0.76055 0.61843 0.66443 0.0
H1940 H 0.72916 0.59859 0.67311 0.0
C1941 C 0.63953 0.55206 0.72182 0.0
C1942 C 0.68941 0.57088 0.70942 0.0
H1943 H 0.72905 0.61725 0.70902 0.0
C1944 C 0.69398 0.56096 0.70014 0.0
C1945 C 0.70219 0.59141 0.71268 0.0
C1946 C 0.69841 0.60267 0.7229 0.0
C1947 C 0.71111 0.57102 0.69409 0.0
C1948 C 0.72384 0.59157 0.69733 0.0
C1949 C 0.71917 0.6015 0.70652 0.0
C1950 C 0.7427 0.60289 0.69182 0.0
C1951 C 0.71578 0.5595 0.68459 0.0
C1952 C 0.76066 0.61197 0.69947 0.0
C1953 C 0.77855 0.62334 0.69458 0.0
C1954 C 0.77886 0.62594 0.68191 0.0
C1955 C 0.76084 0.61663 0.67421 0.0
C1956 C 0.7429 0.60524 0.67914 0.0
H1957 H 0.70679 0.54329 0.68505 0.0
H1958 H 0.71253 0.5626 0.67519 0.0
H1959 H 0.73172 0.56402 0.68586 0.0
H1960 H 0.76083 0.61034 0.70928 0.0
H1961 H 0.79211 0.63027 0.7008 0.0
H1962 H 0.47309 0.09204 0.72177 0.0
H1963 H 0.44956 0.09994 0.71153 0.0
H1964 H 0.47165 0.15203 0.7376 0.0
H1965 H 0.49569 0.14453 0.74755 0.0
H1966 H 0.41988 0.10265 0.71931 0.0
H1967 H 0.47444 0.17574 0.70594 0.0
H1968 H 0.48166 0.15905 0.7119 0.0
H1969 H 0.4769 0.17466 0.72231 0.0
C1970 C 0.47294 0.1052 0.72527 0.0
C1971 C 0.48629 0.11776 0.73538 0.0
C1972 C 0.45951 0.10972 0.71942 0.0
C1973 C 0.45905 0.1268 0.72363 0.0
C1974 C 0.4721 0.13912 0.73392 0.0
H1975 H 0.35898 0.14395 0.70418 0.0
H1976 H 0.3827 0.13644 0.71455 0.0
C1977 C 0.48576 0.13477 0.73965 0.0
C1978 C 0.44462 0.13142 0.7174 0.0
H1979 H 0.4407 0.16768 0.70393 0.0
C1980 C 0.42445 0.11684 0.71588 0.0
C1981 C 0.45057 0.14982 0.71274 0.0
C1982 C 0.47209 0.16562 0.71318 0.0
C1983 C 0.41009 0.12018 0.70996 0.0
C1984 C 0.41595 0.1389 0.70581 0.0
C1985 C 0.43614 0.15341 0.70723 0.0
C1986 C 0.40153 0.14361 0.69966 0.0
C1987 C 0.3889 0.10338 0.70792 0.0
C1988 C 0.40456 0.15088 0.68804 0.0
C1989 C 0.39129 0.15563 0.68224 0.0
C1990 C 0.37457 0.15303 0.68788 0.0
C1991 C 0.37157 0.14585 0.69953 0.0
C1992 C 0.38506 0.14142 0.70543 0.0
H1993 H 0.388 0.08879 0.70805 0.0
H1994 H 0.38066 0.10485 0.71548 0.0
H1995 H 0.38145 0.10352 0.69895 0.0
H1996 H 0.41717 0.15278 0.68341 0.0
H1997 H 0.394 0.1611 0.67325 0.0
H1998 H 0.93504 0.37809 0.73566 0.0
H1999 H 0.92165 0.34376 0.72686 0.0
H2000 H 0.90524 0.35754 0.69194 0.0
H2001 H 0.91869 0.39197 0.70064 0.0
H2002 H 0.87889 0.31865 0.71464 0.0
H2003 H 0.93764 0.32754 0.68482 0.0
H2004 H 0.94259 0.3447 0.69828 0.0
H2005 H 0.92909 0.34504 0.6845 0.0
C2006 C 0.92887 0.37388 0.72605 0.0
C2007 C 0.92792 0.38769 0.71882 0.0
C2008 C 0.92115 0.35429 0.72107 0.0
C2009 C 0.91261 0.34826 0.70876 0.0
C2010 C 0.91194 0.36203 0.70144 0.0
H2011 H 0.85954 0.23452 0.66393 0.0
H2012 H 0.87391 0.26958 0.67125 0.0
C2013 C 0.9195 0.38161 0.70644 0.0
C2014 C 0.90345 0.32729 0.70378 0.0
H2015 H 0.90972 0.29561 0.68416 0.0
C2016 C 0.88559 0.31355 0.70798 0.0
C2017 C 0.9122 0.32087 0.69502 0.0
C2018 C 0.9315 0.33521 0.69038 0.0
C2019 C 0.87613 0.29342 0.7036 0.0
C2020 C 0.88512 0.28684 0.69505 0.0
C2021 C 0.9029 0.30068 0.69074 0.0
C2022 C 0.87647 0.26563 0.69064 0.0
C2023 C 0.85643 0.27947 0.70799 0.0
C2024 C 0.87343 0.25185 0.6991 0.0
C2025 C 0.86509 0.23182 0.69497 0.0
C2026 C 0.8599 0.22522 0.68227 0.0
C2027 C 0.86334 0.23912 0.67378 0.0
C2028 C 0.87155 0.25915 0.67794 0.0
H2029 H 0.84891 0.28745 0.71136 0.0
H2030 H 0.84642 0.26779 0.70048 0.0
H2031 H 0.85886 0.27221 0.71579 0.0
H2032 H 0.87759 0.2566 0.70891 0.0
H2033 H 0.86285 0.22155 0.70174 0.0
H2034 H 0.20894 0.9433 0.61648 0.0
H2035 H 0.23314 0.97702 0.62541 0.0
H2036 H 0.19422 0.99741 0.61191 0.0
H2037 H 0.17025 0.96391 0.60259 0.0
H2038 H 0.23344 0.02162 0.60744 0.0
H2039 H 0.22804 0.00574 0.65651 0.0
H2040 H 0.23377 0.99028 0.64678 0.0
H2041 H 0.21016 0.98879 0.64405 0.0
C2042 C 0.20559 0.95498 0.61533 0.0
C2043 C 0.1876 0.95088 0.60887 0.0
C2044 C 0.21934 0.9742 0.62055 0.0
C2045 C 0.21532 0.98964 0.61948 0.0
C2046 C 0.19753 0.98567 0.61291 0.0
H2047 H 0.27037 0.10439 0.66155 0.0
H2048 H 0.24826 0.07078 0.65177 0.0
C2049 C 0.18379 0.96648 0.60768 0.0
C2050 C 0.22969 0.01001 0.6251 0.0
H2051 H 0.25263 0.03781 0.65274 0.0
C2052 C 0.23767 0.02519 0.61734 0.0
C2053 C 0.23499 0.01461 0.63803 0.0
C2054 C 0.22619 0.99906 0.64687 0.0
C2055 C 0.25089 0.04488 0.62217 0.0
C2056 C 0.25646 0.04941 0.63508 0.0
C2057 C 0.24844 0.03424 0.64283 0.0
C2058 C 0.27003 0.06993 0.6408 0.0
C2059 C 0.25836 0.06071 0.61345 0.0
C2060 C 0.28966 0.08057 0.63792 0.0
C2061 C 0.30237 0.09986 0.64348 0.0
C2062 C 0.29569 0.1088 0.65207 0.0
C2063 C 0.27602 0.09802 0.65496 0.0
C2064 C 0.26335 0.07877 0.6494 0.0
H2065 H 0.24911 0.05557 0.60438 0.0
H2066 H 0.25861 0.0742 0.61752 0.0
H2067 H 0.27371 0.06482 0.61175 0.0
H2068 H 0.29521 0.07388 0.63147 0.0
H2069 H 0.31745 0.1077 0.64108 0.0
H2070 H 0.0354 0.2454 0.61112 0.0
H2071 H 0.00627 0.23783 0.62192 0.0
H2072 H 0.97864 0.17662 0.60705 0.0
H2073 H 0.00758 0.18406 0.59613 0.0
H2074 H 0.96654 0.22158 0.61253 0.0
H2075 H 0.97579 0.17359 0.64443 0.0
H2076 H 0.99522 0.18971 0.63556 0.0
H2077 H 0.97525 0.16636 0.62835 0.0
C2078 C 0.02306 0.23036 0.61005 0.0
C2079 C 0.02389 0.21531 0.60281 0.0
C2080 C 0.00647 0.22604 0.61629 0.0
C2081 C 0.99044 0.2066 0.61546 0.0
C2082 C 0.99104 0.19164 0.60805 0.0
H2083 H 0.87104 0.16739 0.63393 0.0
H2084 H 0.90074 0.17607 0.62363 0.0
C2085 C 0.0076 0.19592 0.60182 0.0
C2086 C 0.97299 0.20201 0.62223 0.0
H2087 H 0.94553 0.17388 0.64403 0.0
C2088 C 0.96197 0.21121 0.61945 0.0
C2089 C 0.96723 0.18868 0.63138 0.0
C2090 C 0.97907 0.17914 0.63522 0.0
C2091 C 0.94509 0.20712 0.62539 0.0
C2092 C 0.9389 0.19323 0.63421 0.0
C2093 C 0.95017 0.18437 0.63718 0.0
C2094 C 0.92081 0.18776 0.64049 0.0
C2095 C 0.93418 0.21791 0.62229 0.0
C2096 C 0.92212 0.19089 0.65343 0.0
C2097 C 0.90512 0.18583 0.65939 0.0
C2098 C 0.88644 0.17743 0.6525 0.0
C2099 C 0.88517 0.17399 0.63954 0.0
C2100 C 0.90217 0.17904 0.63361 0.0
H2101 H 0.94366 0.23166 0.61804 0.0
H2102 H 0.92109 0.20819 0.61555 0.0
H2103 H 0.92892 0.22183 0.63067 0.0
H2104 H 0.93636 0.19749 0.65893 0.0
H2105 H 0.90668 0.18867 0.66937 0.0
H2106 H 0.73301 0.76697 0.60159 0.0
H2107 H 0.74678 0.7479 0.61047 0.0
H2108 H 0.7719 0.79033 0.64293 0.0
H2109 H 0.75783 0.80927 0.6343 0.0
H2110 H 0.79878 0.7803 0.63119 0.0
H2111 H 0.7286 0.71462 0.64066 0.0
H2112 H 0.72902 0.72221 0.62538 0.0
H2113 H 0.73049 0.73814 0.6385 0.0
C2114 C 0.74117 0.77208 0.61071 0.0
C2115 C 0.74431 0.78965 0.61724 0.0
C2116 C 0.74907 0.7612 0.61574 0.0
C2117 C 0.76021 0.76768 0.62737 0.0
C2118 C 0.76333 0.78513 0.63393 0.0
H2119 H 0.80116 0.70574 0.67299 0.0
H2120 H 0.78719 0.72523 0.66508 0.0
C2121 C 0.75537 0.79597 0.62895 0.0
C2122 C 0.76916 0.7566 0.63253 0.0
H2123 H 0.75785 0.71272 0.64346 0.0
C2124 C 0.78988 0.76554 0.6339 0.0
C2125 C 0.75744 0.73745 0.63614 0.0
C2126 C 0.73515 0.72752 0.63521 0.0
C2127 C 0.7992 0.75564 0.63862 0.0
C2128 C 0.78746 0.73633 0.64198 0.0
C2129 C 0.76676 0.72751 0.6408 0.0
C2130 C 0.7964 0.72501 0.64677 0.0
C2131 C 0.82153 0.76594 0.64011 0.0
C2132 C 0.80613 0.71844 0.63904 0.0
C2133 C 0.81407 0.70724 0.64349 0.0
C2134 C 0.81242 0.70247 0.65577 0.0
C2135 C 0.80275 0.70922 0.6635 0.0
C2136 C 0.79472 0.72031 0.65901 0.0
H2137 H 0.8284 0.78209 0.63947 0.0
H2138 H 0.827 0.76364 0.64915 0.0
H2139 H 0.8265 0.7596 0.63269 0.0
H2140 H 0.80734 0.72175 0.62951 0.0
H2141 H 0.82137 0.70224 0.63728 0.0
H2142 H 0.01123 0.77341 0.59603 0.0
H2143 H 0.98166 0.75641 0.60688 0.0
H2144 H 0.01194 0.79808 0.63929 0.0
H2145 H 0.04139 0.81562 0.62843 0.0
H2146 H 0.99125 0.7552 0.64284 0.0
H2147 H 0.9446 0.77896 0.61695 0.0
H2148 H 0.95696 0.76948 0.60771 0.0
H2149 H 0.97132 0.7922 0.61764 0.0
C2150 C 0.01156 0.77916 0.6054 0.0
C2151 C 0.02873 0.79594 0.61133 0.0
C2152 C 0.99466 0.76938 0.61159 0.0
C2153 C 0.99463 0.77613 0.62383 0.0
C2154 C 0.01172 0.79269 0.62984 0.0
H2155 H 0.89124 0.73222 0.66597 0.0
H2156 H 0.92272 0.75412 0.65786 0.0
C2157 C 0.02858 0.80259 0.62363 0.0
C2158 C 0.97684 0.7656 0.63042 0.0
H2159 H 0.9286 0.75401 0.63029 0.0
C2160 C 0.97759 0.75505 0.64018 0.0
C2161 C 0.95915 0.76564 0.62698 0.0
C2162 C 0.95787 0.77728 0.61681 0.0
C2163 C 0.96081 0.74391 0.64631 0.0
C2164 C 0.94293 0.74338 0.64257 0.0
C2165 C 0.94237 0.75447 0.6331 0.0
C2166 C 0.92434 0.73034 0.64783 0.0
C2167 C 0.96217 0.73256 0.65664 0.0
C2168 C 0.91492 0.70984 0.64478 0.0
C2169 C 0.89697 0.69736 0.64928 0.0
C2170 C 0.88813 0.70517 0.65697 0.0
C2171 C 0.89772 0.72576 0.66012 0.0
C2172 C 0.91564 0.73827 0.65549 0.0
H2173 H 0.97779 0.73758 0.66005 0.0
H2174 H 0.95448 0.73416 0.6645 0.0
H2175 H 0.95475 0.71661 0.65322 0.0
H2176 H 0.92135 0.70349 0.63879 0.0
H2177 H 0.89003 0.68159 0.64669 0.0
H2178 H 0.19915 0.24325 0.6144 0.0
H2179 H 0.22296 0.23564 0.62454 0.0
H2180 H 0.19455 0.17872 0.60285 0.0
H2181 H 0.17034 0.18597 0.5929 0.0
H2182 H 0.20235 0.17715 0.62812 0.0
H2183 H 0.26903 0.23435 0.60907 0.0
H2184 H 0.25509 0.24364 0.61667 0.0
H2185 H 0.24416 0.22687 0.60274 0.0
C2186 C 0.19789 0.22906 0.61183 0.0
C2187 C 0.18287 0.21524 0.6028 0.0
C2188 C 0.21164 0.22483 0.61754 0.0
C2189 C 0.2107 0.20674 0.61431 0.0
C2190 C 0.19563 0.19283 0.6054 0.0
H2191 H 0.30039 0.17515 0.63273 0.0
H2192 H 0.27653 0.18235 0.62222 0.0
C2193 C 0.18189 0.19706 0.59967 0.0
C2194 C 0.22516 0.20211 0.6204 0.0
H2195 H 0.27448 0.21735 0.62477 0.0
C2196 C 0.21811 0.1859 0.62737 0.0
C2197 C 0.24569 0.21342 0.61928 0.0
C2198 C 0.25399 0.23044 0.61145 0.0
C2199 C 0.2311 0.18088 0.63343 0.0
C2200 C 0.25168 0.19254 0.63261 0.0
C2201 C 0.2587 0.20855 0.62547 0.0
C2202 C 0.26617 0.18829 0.63905 0.0
C2203 C 0.22264 0.16297 0.64051 0.0
C2204 C 0.26844 0.1895 0.65202 0.0
C2205 C 0.28206 0.18541 0.65807 0.0
C2206 C 0.29375 0.1801 0.65126 0.0
C2207 C 0.29159 0.17913 0.63827 0.0
C2208 C 0.27799 0.18326 0.63223 0.0
H2209 H 0.20655 0.15293 0.63772 0.0
H2210 H 0.23043 0.15452 0.63909 0.0
H2211 H 0.22463 0.16786 0.65054 0.0
H2212 H 0.25973 0.19371 0.65747 0.0
H2213 H 0.28338 0.1864 0.66808 0.0
H2214 H 0.75084 0.93816 0.63779 0.0
H2215 H 0.76496 0.97193 0.64792 0.0
H2216 H 0.73258 0.98427 0.61984 0.0
H2217 H 0.71835 0.95055 0.6097 0.0
H2218 H 0.78782 0.00669 0.63453 0.0
H2219 H 0.72293 0.00508 0.65384 0.0
H2220 H 0.72434 0.98299 0.6503 0.0
H2221 H 0.71877 0.99435 0.63807 0.0
C2222 C 0.74642 0.94795 0.63394 0.0
C2223 C 0.73353 0.94178 0.62296 0.0
C2224 C 0.75454 0.96721 0.63969 0.0
C2225 C 0.74965 0.98046 0.63466 0.0
C2226 C 0.73631 0.97415 0.62393 0.0
H2227 H 0.78512 0.10351 0.64639 0.0
H2228 H 0.76914 0.06799 0.64017 0.0
C2229 C 0.72833 0.95497 0.61811 0.0
C2230 C 0.75974 0.00136 0.63997 0.0
H2231 H 0.75156 0.03664 0.65365 0.0
C2232 C 0.78 0.01326 0.63884 0.0
C2233 C 0.74936 0.00977 0.64546 0.0
C2234 C 0.72767 0.99741 0.64711 0.0
C2235 C 0.7901 0.03361 0.64271 0.0
C2236 C 0.77971 0.04211 0.64815 0.0
C2237 C 0.75948 0.03008 0.64948 0.0
C2238 C 0.78938 0.06358 0.65215 0.0
C2239 C 0.81157 0.0459 0.64047 0.0
C2240 C 0.80593 0.07284 0.66106 0.0
C2241 C 0.81525 0.09319 0.66454 0.0
C2242 C 0.80796 0.10457 0.6593 0.0
C2243 C 0.79112 0.09517 0.65058 0.0
C2244 C 0.78194 0.07486 0.64703 0.0
H2245 H 0.8157 0.03822 0.63333 0.0
H2246 H 0.81481 0.0604 0.63746 0.0
H2247 H 0.82109 0.04868 0.64919 0.0
H2248 H 0.81162 0.06433 0.66536 0.0
H2249 H 0.82804 0.09996 0.67139 0.0
H2250 H 0.46513 0.37088 0.7494 0.0
H2251 H 0.44195 0.33716 0.74007 0.0
H2252 H 0.46841 0.35114 0.70579 0.0
H2253 H 0.49225 0.38457 0.71521 0.0
H2254 H 0.4142 0.32365 0.72005 0.0
H2255 H 0.4702 0.30167 0.71194 0.0
H2256 H 0.47602 0.32384 0.72159 0.0
H2257 H 0.4748 0.32353 0.70502 0.0
C2258 C 0.46621 0.36672 0.73993 0.0
C2259 C 0.4807 0.38042 0.7331 0.0
C2260 C 0.45285 0.34748 0.73458 0.0
C2261 C 0.45369 0.34153 0.72231 0.0
C2262 C 0.46777 0.35528 0.71537 0.0
H2263 H 0.38449 0.23633 0.67122 0.0
H2264 H 0.40703 0.2696 0.68145 0.0
C2265 C 0.48122 0.37449 0.72072 0.0
C2266 C 0.43968 0.32101 0.71674 0.0
H2267 H 0.43741 0.27974 0.70246 0.0
C2268 C 0.41926 0.314 0.71629 0.0
C2269 C 0.44633 0.30841 0.71188 0.0
C2270 C 0.46802 0.31465 0.71273 0.0
C2271 C 0.40531 0.29488 0.71082 0.0
C2272 C 0.412 0.28247 0.70578 0.0
C2273 C 0.43238 0.28938 0.70631 0.0
C2274 C 0.39808 0.26233 0.6997 0.0
C2275 C 0.38354 0.2882 0.71022 0.0
C2276 C 0.38572 0.24723 0.70663 0.0
C2277 C 0.37286 0.22813 0.70083 0.0
C2278 C 0.37213 0.22386 0.68799 0.0
C2279 C 0.38459 0.2391 0.68111 0.0
C2280 C 0.39751 0.25812 0.68693 0.0
H2281 H 0.38096 0.30068 0.71259 0.0
H2282 H 0.37606 0.28101 0.70083 0.0
H2283 H 0.37656 0.27712 0.71687 0.0
H2284 H 0.38615 0.25018 0.71653 0.0
H2285 H 0.36349 0.21675 0.7064 0.0
H2286 H 0.66415 0.14224 0.74827 0.0
H2287 H 0.69381 0.15025 0.73805 0.0
H2288 H 0.65913 0.10057 0.71042 0.0
H2289 H 0.62959 0.09181 0.72093 0.0
H2290 H 0.69329 0.1026 0.71822 0.0
H2291 H 0.70871 0.17643 0.70662 0.0
H2292 H 0.70747 0.17396 0.72286 0.0
H2293 H 0.68572 0.15895 0.71213 0.0
C2294 C 0.66283 0.13286 0.7401 0.0
C2295 C 0.64438 0.11641 0.73541 0.0
C2296 C 0.67979 0.13766 0.73415 0.0
C2297 C 0.67864 0.12629 0.7233 0.0
C2298 C 0.66035 0.1097 0.71871 0.0
H2299 H 0.76941 0.16085 0.67235 0.0
H2300 H 0.73948 0.15275 0.68236 0.0
C2301 C 0.64342 0.1048 0.72468 0.0
C2302 C 0.69657 0.13135 0.71689 0.0
H2303 H 0.73394 0.16845 0.70361 0.0
C2304 C 0.70213 0.11698 0.71499 0.0
C2305 C 0.70794 0.15001 0.71248 0.0
C2306 C 0.70207 0.16566 0.7135 0.0
C2307 C 0.7189 0.12082 0.70899 0.0
C2308 C 0.73075 0.13976 0.70506 0.0
C2309 C 0.725 0.15403 0.70676 0.0
C2310 C 0.7491 0.14501 0.6991 0.0
C2311 C 0.7235 0.10441 0.70672 0.0
C2312 C 0.76463 0.14374 0.70527 0.0
C2313 C 0.78168 0.1482 0.69954 0.0
C2314 C 0.78369 0.15432 0.68757 0.0
C2315 C 0.76835 0.15615 0.68155 0.0
C2316 C 0.75122 0.15152 0.68727 0.0
H2317 H 0.71015 0.08962 0.7069 0.0
H2318 H 0.72945 0.10485 0.69767 0.0
H2319 H 0.7348 0.10613 0.71412 0.0
H2320 H 0.7636 0.13929 0.71454 0.0
H2321 H 0.79329 0.14689 0.70453 0.0
H2322 H 0.94568 0.55585 0.7065 0.0
H2323 H 0.93032 0.57263 0.69643 0.0
H2324 H 0.88454 0.55062 0.72108 0.0
H2325 H 0.89897 0.53277 0.73064 0.0
H2326 H 0.86929 0.54763 0.69795 0.0
H2327 H 0.93392 0.62311 0.71047 0.0
H2328 H 0.93952 0.60684 0.70151 0.0
H2329 H 0.93223 0.60169 0.71682 0.0
C2330 C 0.93222 0.55438 0.70969 0.0
C2331 C 0.9237 0.5431 0.71949 0.0
C2332 C 0.9236 0.56421 0.70403 0.0
C2333 C 0.90652 0.56322 0.70818 0.0
C2334 C 0.89782 0.55172 0.71779 0.0
H2335 H 0.86403 0.64409 0.69917 0.0
H2336 H 0.87796 0.62417 0.70615 0.0
C2337 C 0.90625 0.54171 0.72335 0.0
C2338 C 0.89762 0.57416 0.70261 0.0
H2339 H 0.90712 0.62047 0.69761 0.0
C2340 C 0.87755 0.56356 0.69786 0.0
C2341 C 0.90838 0.59497 0.70262 0.0
C2342 C 0.92964 0.60736 0.70823 0.0
C2343 C 0.86786 0.57322 0.69328 0.0
C2344 C 0.87872 0.59399 0.69311 0.0
C2345 C 0.89885 0.60453 0.69769 0.0
C2346 C 0.86936 0.60531 0.68885 0.0
C2347 C 0.84596 0.56115 0.6891 0.0
C2348 C 0.85978 0.60128 0.67681 0.0
C2349 C 0.85151 0.61249 0.67285 0.0
C2350 C 0.85308 0.62818 0.68079 0.0
C2351 C 0.86268 0.63217 0.69282 0.0
C2352 C 0.87066 0.6208 0.69681 0.0
H2353 H 0.83892 0.54666 0.69295 0.0
H2354 H 0.83824 0.56919 0.69191 0.0
H2355 H 0.84375 0.55819 0.67886 0.0
H2356 H 0.85901 0.58972 0.6704 0.0
H2357 H 0.84438 0.60923 0.66348 0.0
H2358 H 0.43784 0.94719 0.17889 0.0
H2359 H 0.44519 0.96062 0.15892 0.0
H2360 H 0.49393 0.94966 0.15846 0.0
H2361 H 0.48715 0.93676 0.17854 0.0
H2362 H 0.48379 0.99335 0.15259 0.0
H2363 H 0.4577 0.92106 0.12493 0.0
H2364 H 0.45017 0.92298 0.14009 0.0
H2365 H 0.4744 0.92648 0.1386 0.0
C2366 C 0.45027 0.94781 0.17462 0.0
C2367 C 0.46181 0.94074 0.18033 0.0
C2368 C 0.45436 0.9554 0.16318 0.0
C2369 C 0.46993 0.95588 0.15717 0.0
C2370 C 0.48163 0.9491 0.16287 0.0
H2371 H 0.51692 0.98834 0.08699 0.0
H2372 H 0.50895 0.97634 0.10726 0.0
C2373 C 0.47765 0.94164 0.17433 0.0
C2374 C 0.4741 0.96359 0.14496 0.0
H2375 H 0.47391 0.94972 0.11456 0.0
C2376 C 0.48154 0.98384 0.14424 0.0
C2377 C 0.47122 0.95112 0.13413 0.0
C2378 C 0.4628 0.92916 0.13438 0.0
C2379 C 0.48667 0.99209 0.133 0.0
C2380 C 0.48378 0.9796 0.12213 0.0
C2381 C 0.47615 0.95929 0.12287 0.0
C2382 C 0.48877 0.98728 0.10992 0.0
C2383 C 0.49574 0.01416 0.13297 0.0
C2384 C 0.47994 0.99726 0.1046 0.0
C2385 C 0.48455 0.00422 0.09303 0.0
C2386 C 0.49786 0.00107 0.08647 0.0
C2387 C 0.5065 0.99087 0.09176 0.0
C2388 C 0.502 0.98406 0.10336 0.0
H2389 H 0.50212 0.02207 0.14239 0.0
H2390 H 0.50757 0.02008 0.12667 0.0
H2391 H 0.48409 0.01747 0.12972 0.0
H2392 H 0.46927 -0.00055 0.10931 0.0
H2393 H 0.47739 0.01173 0.08911 0.0
H2394 H 0.04838 0.51339 0.18589 0.0
H2395 H 0.03867 0.50734 0.16353 0.0
H2396 H 0.9771 0.47724 0.16999 0.0
H2397 H 0.98667 0.48332 0.19241 0.0
H2398 H 0.00996 0.46732 0.14845 0.0
H2399 H 0.98791 0.52484 0.14828 0.0
H2400 H 0.00485 0.52523 0.16048 0.0
H2401 H 0.97889 0.50761 0.15973 0.0
C2402 C 0.03277 0.50548 0.18255 0.0
C2403 C 0.01827 0.49893 0.19088 0.0
C2404 C 0.02727 0.50195 0.1698 0.0
C2405 C 0.00721 0.49199 0.16518 0.0
C2406 C 0.99267 0.48505 0.17343 0.0
H2407 H 0.95104 0.47556 0.09072 0.0
H2408 H 0.95779 0.47616 0.11298 0.0
C2409 C 0.99815 0.48843 0.1862 0.0
C2410 C 0.00157 0.48938 0.15172 0.0
H2411 H 0.98417 0.50688 0.12921 0.0
C2412 C 0.00426 0.47589 0.1442 0.0
C2413 C 0.9941 0.50057 0.1463 0.0
C2414 C 0.99132 0.51549 0.15405 0.0
C2415 C 0.99955 0.47321 0.13132 0.0
C2416 C 0.99248 0.48474 0.12584 0.0
C2417 C 0.98961 0.49808 0.13342 0.0
C2418 C 0.98824 0.48347 0.11225 0.0
C2419 C 0.00189 0.45783 0.12375 0.0
C2420 C 0.00315 0.4875 0.10445 0.0
C2421 C 0.99927 0.48689 0.09169 0.0
C2422 C 0.98044 0.48251 0.08649 0.0
C2423 C 0.96559 0.47864 0.09436 0.0
C2424 C 0.96946 0.47912 0.10711 0.0
H2425 H 0.0015 0.44642 0.12947 0.0
H2426 H 0.99007 0.45037 0.11588 0.0
H2427 H 0.01643 0.46511 0.11995 0.0
H2428 H 0.01789 0.49134 0.10824 0.0
H2429 H 0.011 0.48978 0.0859 0.0
H2430 H 0.44019 0.46879 0.18074 0.0
H2431 H 0.44761 0.46623 0.15936 0.0
H2432 H 0.50356 0.52053 0.16766 0.0
H2433 H 0.49624 0.52329 0.18893 0.0
H2434 H 0.45529 0.49316 0.14179 0.0
H2435 H 0.51928 0.48218 0.15181 0.0
H2436 H 0.50211 0.47923 0.16299 0.0
H2437 H 0.52149 0.50352 0.16055 0.0
C2438 C 0.45406 0.48019 0.178 0.0
C2439 C 0.4677 0.49615 0.18657 0.0
C2440 C 0.4583 0.47867 0.16581 0.0
C2441 C 0.47628 0.49301 0.162 0.0
C2442 C 0.48982 0.50903 0.17049 0.0
H2443 H 0.50791 0.52263 0.08843 0.0
H2444 H 0.49829 0.52121 0.10948 0.0
C2445 C 0.48561 0.51057 0.18266 0.0
C2446 C 0.48067 0.49167 0.14904 0.0
H2447 H 0.51457 0.48987 0.13149 0.0
C2448 C 0.46816 0.49228 0.13951 0.0
C2449 C 0.49734 0.49031 0.1461 0.0
C2450 C 0.51074 0.48858 0.15588 0.0
C2451 C 0.47219 0.49213 0.12713 0.0
C2452 C 0.48935 0.49165 0.12425 0.0
C2453 C 0.50154 0.49046 0.13374 0.0
C2454 C 0.49498 0.49244 0.11145 0.0
C2455 C 0.45797 0.49235 0.11723 0.0
C2456 C 0.49678 0.47697 0.1057 0.0
C2457 C 0.50235 0.47777 0.09369 0.0
C2458 C 0.50631 0.49413 0.08723 0.0
C2459 C 0.50465 0.50969 0.09308 0.0
C2460 C 0.49912 0.50889 0.10509 0.0
H2461 H 0.44314 0.48729 0.12044 0.0
H2462 H 0.46384 0.50769 0.1148 0.0
H2463 H 0.45622 0.48278 0.10872 0.0
H2464 H 0.49371 0.46418 0.11047 0.0
H2465 H 0.50328 0.46545 0.08941 0.0
H2466 H 0.95801 0.49021 0.81853 0.0
H2467 H 0.96518 0.49192 0.84085 0.0
H2468 H 0.02572 0.50881 0.83612 0.0
H2469 H 0.01893 0.50803 0.8138 0.0
H2470 H 0.97765 0.47035 0.85341 0.0
H2471 H 0.03267 0.5505 0.86317 0.0
H2472 H 0.01708 0.53991 0.84869 0.0
H2473 H 0.03879 0.53779 0.85151 0.0
C2474 C 0.97297 0.49469 0.82224 0.0
C2475 C 0.98794 0.49915 0.81436 0.0
C2476 C 0.97699 0.49548 0.83499 0.0
C2477 C 0.99604 0.50075 0.84016 0.0
C2478 C 0.01101 0.50509 0.83235 0.0
H2479 H 0.0453 0.50737 0.91515 0.0
H2480 H 0.03925 0.50569 0.89267 0.0
C2481 C 0.00703 0.5044 0.81958 0.0
C2482 C 0.99997 0.50104 0.85367 0.0
H2483 H 0.02849 0.53082 0.87967 0.0
C2484 C 0.98872 0.48359 0.85916 0.0
C2485 C 0.01443 0.51833 0.86114 0.0
C2486 C 0.02632 0.53775 0.85587 0.0
C2487 C 0.99166 0.48291 0.87192 0.0
C2488 C 0.00611 0.50018 0.87936 0.0
C2489 C 0.01747 0.5176 0.87389 0.0
C2490 C 0.00946 0.50059 0.89291 0.0
C2491 C 0.97949 0.46369 0.87733 0.0
C2492 C 0.99472 0.49836 0.90045 0.0
C2493 C 0.99818 0.49949 0.91329 0.0
C2494 C 0.01647 0.50291 0.91883 0.0
C2495 C 0.03115 0.50497 0.9112 0.0
C2496 C 0.0277 0.50392 0.89836 0.0
H2497 H 0.97226 0.45086 0.87008 0.0
H2498 H 0.98883 0.46116 0.88422 0.0
H2499 H 0.96771 0.46439 0.88215 0.0
H2500 H 0.98067 0.49612 0.8964 0.0
H2501 H 0.98669 0.49819 0.9189 0.0
H2502 H 0.51789 0.47796 0.82424 0.0
H2503 H 0.51208 0.48589 0.845 0.0
H2504 H 0.5603 0.5458 0.84552 0.0
H2505 H 0.56688 0.5377 0.82487 0.0
H2506 H 0.56176 0.53056 0.86687 0.0
H2507 H 0.48594 0.51686 0.85533 0.0
H2508 H 0.48799 0.49584 0.85015 0.0
H2509 H 0.50202 0.51883 0.84362 0.0
C2510 C 0.5274 0.4928 0.82877 0.0
C2511 C 0.54291 0.50717 0.82287 0.0
C2512 C 0.52384 0.4974 0.84059 0.0
C2513 C 0.53548 0.51655 0.84672 0.0
C2514 C 0.551 0.53097 0.8409 0.0
H2515 H 0.49815 0.54377 0.91615 0.0
H2516 H 0.50842 0.54558 0.89521 0.0
C2517 C 0.55466 0.52635 0.82906 0.0
C2518 C 0.53189 0.5211 0.85943 0.0
H2519 H 0.49532 0.5168 0.87679 0.0
C2520 C 0.54731 0.52782 0.86902 0.0
C2521 C 0.51316 0.51792 0.86222 0.0
C2522 C 0.49641 0.51218 0.85226 0.0
C2523 C 0.54422 0.53049 0.8814 0.0
C2524 C 0.52507 0.52584 0.88428 0.0
C2525 C 0.50993 0.52009 0.87462 0.0
C2526 C 0.52011 0.5259 0.89724 0.0
C2527 C 0.56152 0.53823 0.89125 0.0
C2528 C 0.52317 0.51419 0.90532 0.0
C2529 C 0.51744 0.51323 0.91728 0.0
C2530 C 0.50822 0.52373 0.92135 0.0
C2531 C 0.50514 0.53546 0.91325 0.0
C2532 C 0.51105 0.53654 0.90131 0.0
H2533 H 0.5758 0.5473 0.88739 0.0
H2534 H 0.5603 0.54735 0.89901 0.0
H2535 H 0.5619 0.52556 0.89498 0.0
H2536 H 0.52954 0.50534 0.90228 0.0
H2537 H 0.51964 0.50375 0.92321 0.0
H2538 H 0.55955 0.04704 0.82513 0.0
H2539 H 0.55155 0.03419 0.84523 0.0
H2540 H 0.50114 0.04272 0.84344 0.0
H2541 H 0.50888 0.0553 0.82333 0.0
H2542 H 0.54931 0.05155 0.86697 0.0
H2543 H 0.47599 0.98599 0.85091 0.0
H2544 H 0.49326 0.00032 0.84033 0.0
H2545 H 0.47784 0.00868 0.84697 0.0
C2546 C 0.54676 0.04617 0.82903 0.0
C2547 C 0.53474 0.05201 0.82258 0.0
C2548 C 0.54218 0.03878 0.8405 0.0
C2549 C 0.5255 0.0371 0.84574 0.0
C2550 C 0.51372 0.0433 0.83943 0.0
H2551 H 0.47708 0.00557 0.91591 0.0
H2552 H 0.48554 0.01792 0.89571 0.0
C2553 C 0.5182 0.05054 0.82794 0.0
C2554 C 0.52072 0.02938 0.85795 0.0
H2555 H 0.48391 0.99429 0.87274 0.0
C2556 C 0.53507 0.03894 0.86821 0.0
C2557 C 0.50213 0.01289 0.85957 0.0
C2558 C 0.48649 0.00124 0.84884 0.0
C2559 C 0.53117 0.03273 0.88006 0.0
C2560 C 0.51249 0.01647 0.88169 0.0
C2561 C 0.49818 0.00684 0.87146 0.0
C2562 C 0.50756 0.00916 0.89394 0.0
C2563 C 0.54689 0.0438 0.89083 0.0
C2564 C 0.51702 0.0 0.89956 0.0
C2565 C 0.51219 0.99289 0.91106 0.0
C2566 C 0.49782 0.99485 0.91718 0.0
C2567 C 0.48835 0.00402 0.9115 0.0
C2568 C 0.49309 0.01099 0.89995 0.0
H2569 H 0.55897 0.05819 0.88849 0.0
H2570 H 0.54033 0.04655 0.89896 0.0
H2571 H 0.55347 0.03472 0.89352 0.0
H2572 H 0.52809 0.99828 0.89501 0.0
H2573 H 0.51987 0.98606 0.91523 0.0
H2574 H 0.15454 0.27152 0.51209 0.0
H2575 H 0.16121 0.28446 0.49201 0.0
H2576 H 0.11198 0.29466 0.49243 0.0
H2577 H 0.10474 0.28118 0.51237 0.0
H2578 H 0.13232 0.26957 0.46937 0.0
H2579 H 0.16147 0.34883 0.4858 0.0
H2580 H 0.16087 0.33128 0.49601 0.0
H2581 H 0.13845 0.33098 0.49102 0.0
C2582 C 0.14496 0.27631 0.50789 0.0
C2583 C 0.12903 0.27522 0.51388 0.0
C2584 C 0.1489 0.28383 0.49645 0.0
C2585 C 0.13719 0.29065 0.49081 0.0
C2586 C 0.12135 0.28971 0.49673 0.0
H2587 H 0.14433 0.34537 0.42258 0.0
H2588 H 0.13587 0.33244 0.4426 0.0
C2589 C 0.11729 0.28205 0.50815 0.0
C2590 C 0.14133 0.29832 0.47858 0.0
H2591 H 0.15858 0.34053 0.46428 0.0
C2592 C 0.13807 0.28508 0.46823 0.0
C2593 C 0.14867 0.31851 0.47715 0.0
C2594 C 0.15273 0.33334 0.48807 0.0
C2595 C 0.14184 0.29148 0.45641 0.0
C2596 C 0.14962 0.3118 0.45499 0.0
C2597 C 0.15268 0.32499 0.46537 0.0
C2598 C 0.15485 0.31968 0.44286 0.0
C2599 C 0.13703 0.27632 0.44554 0.0
C2600 C 0.16858 0.31711 0.43643 0.0
C2601 C 0.17336 0.3244 0.42497 0.0
C2602 C 0.16474 0.33469 0.41979 0.0
C2603 C 0.15132 0.33763 0.42637 0.0
C2604 C 0.14643 0.33019 0.43779 0.0
H2605 H 0.12583 0.26123 0.44747 0.0
H2606 H 0.13136 0.27994 0.43709 0.0
H2607 H 0.15067 0.27605 0.44363 0.0
H2608 H 0.17573 0.30958 0.44031 0.0
H2609 H 0.18401 0.32221 0.42024 0.0
H2610 H 0.67533 0.85618 0.52318 0.0
H2611 H 0.66849 0.85153 0.50064 0.0
H2612 H 0.66923 0.79686 0.49948 0.0
H2613 H 0.67669 0.80161 0.52205 0.0
H2614 H 0.69579 0.84293 0.48346 0.0
H2615 H 0.6148 0.78827 0.47873 0.0
H2616 H 0.62688 0.80601 0.49228 0.0
H2617 H 0.63123 0.78573 0.48985 0.0
C2618 C 0.67413 0.84319 0.51816 0.0
C2619 C 0.67669 0.82933 0.52442 0.0
C2620 C 0.6701 0.84053 0.5053 0.0
C2621 C 0.66835 0.82387 0.49849 0.0
C2622 C 0.67042 0.80974 0.50466 0.0
H2623 H 0.6382 0.78727 0.41921 0.0
H2624 H 0.64467 0.78817 0.44161 0.0
C2625 C 0.67457 0.81244 0.51754 0.0
C2626 C 0.6652 0.82179 0.48486 0.0
H2627 H 0.62953 0.79895 0.4604 0.0
C2628 C 0.68135 0.83328 0.47837 0.0
C2629 C 0.64639 0.80904 0.47836 0.0
C2630 C 0.62872 0.79652 0.48508 0.0
C2631 C 0.67913 0.83244 0.46543 0.0
C2632 C 0.66013 0.82019 0.4589 0.0
C2633 C 0.64406 0.80839 0.46543 0.0
C2634 C 0.65652 0.81972 0.44534 0.0
C2635 C 0.69721 0.8445 0.45889 0.0
C2636 C 0.66082 0.83711 0.44004 0.0
C2637 C 0.65724 0.83665 0.42727 0.0
C2638 C 0.649 0.81872 0.41959 0.0
C2639 C 0.64444 0.80127 0.42493 0.0
C2640 C 0.64818 0.80178 0.4377 0.0
H2641 H 0.71104 0.84798 0.46459 0.0
H2642 H 0.69647 0.83662 0.44985 0.0
H2643 H 0.69814 0.85872 0.45717 0.0
H2644 H 0.66673 0.85102 0.4458 0.0
H2645 H 0.66057 0.85026 0.42343 0.0
H2646 H 0.1043 0.79728 0.51542 0.0
H2647 H 0.1103 0.79146 0.49411 0.0
H2648 H 0.16192 0.84986 0.49765 0.0
H2649 H 0.15617 0.85564 0.5189 0.0
H2650 H 0.11137 0.81065 0.47417 0.0
H2651 H 0.18425 0.81653 0.48463 0.0
H2652 H 0.16823 0.81421 0.49645 0.0
H2653 H 0.184 0.83795 0.49121 0.0
C2654 C 0.11694 0.80884 0.51164 0.0
C2655 C 0.12989 0.82684 0.51887 0.0
C2656 C 0.12039 0.80548 0.49949 0.0
C2657 C 0.13681 0.82006 0.49437 0.0
C2658 C 0.14952 0.83815 0.50152 0.0
H2659 H 0.1557 0.84011 0.41862 0.0
H2660 H 0.14592 0.83782 0.4396 0.0
C2661 C 0.14618 0.84146 0.51366 0.0
C2662 C 0.14033 0.81677 0.48141 0.0
H2663 H 0.17598 0.81972 0.46363 0.0
C2664 C 0.12541 0.81239 0.47187 0.0
C2665 C 0.15849 0.81865 0.4784 0.0
C2666 C 0.17456 0.82188 0.48823 0.0
C2667 C 0.12849 0.81071 0.45938 0.0
C2668 C 0.14717 0.81397 0.45636 0.0
C2669 C 0.16175 0.81748 0.46592 0.0
C2670 C 0.1522 0.81459 0.4434 0.0
C2671 C 0.11168 0.80541 0.44956 0.0
C2672 C 0.15948 0.80267 0.43863 0.0
C2673 C 0.16532 0.80412 0.42666 0.0
C2674 C 0.16394 0.81752 0.41924 0.0
C2675 C 0.15655 0.82937 0.42402 0.0
C2676 C 0.15089 0.82802 0.43601 0.0
H2677 H 0.09708 0.79706 0.45321 0.0
H2678 H 0.11295 0.81919 0.44649 0.0
H2679 H 0.11202 0.7964 0.44139 0.0
H2680 H 0.16074 0.79229 0.44419 0.0
H2681 H 0.17087 0.79475 0.4232 0.0
H2682 H 0.62511 0.82257 0.15212 0.0
H2683 H 0.63242 0.82354 0.17436 0.0
H2684 H 0.69262 0.83966 0.16916 0.0
H2685 H 0.6857 0.83959 0.14694 0.0
H2686 H 0.64474 0.8014 0.18659 0.0
H2687 H 0.70033 0.88138 0.19649 0.0
H2688 H 0.68447 0.87102 0.1821 0.0
H2689 H 0.70607 0.86863 0.18462 0.0
C2690 C 0.64002 0.82669 0.15571 0.0
C2691 C 0.65488 0.83118 0.14775 0.0
C2692 C 0.64411 0.82706 0.16842 0.0
C2693 C 0.66312 0.83194 0.17342 0.0
C2694 C 0.67794 0.83623 0.16551 0.0
H2695 H 0.7132 0.83842 0.24818 0.0
H2696 H 0.70682 0.83635 0.2257 0.0
C2697 C 0.6739 0.83595 0.1528 0.0
C2698 C 0.66721 0.83204 0.18689 0.0
H2699 H 0.69613 0.86152 0.21287 0.0
C2700 C 0.65593 0.81455 0.19235 0.0
C2701 C 0.68183 0.84923 0.19437 0.0
C2702 C 0.69376 0.86869 0.18914 0.0
C2703 C 0.65901 0.81375 0.20508 0.0
C2704 C 0.67361 0.83093 0.21252 0.0
C2705 C 0.68499 0.84837 0.20708 0.0
C2706 C 0.67705 0.83127 0.22606 0.0
C2707 C 0.64679 0.79451 0.21045 0.0
C2708 C 0.66241 0.82914 0.23366 0.0
C2709 C 0.66606 0.83049 0.2465 0.0
C2710 C 0.68444 0.83405 0.25198 0.0
C2711 C 0.69898 0.83593 0.24428 0.0
C2712 C 0.69534 0.83465 0.23144 0.0
H2713 H 0.63949 0.78172 0.20317 0.0
H2714 H 0.65612 0.79188 0.21729 0.0
H2715 H 0.63507 0.79524 0.21532 0.0
H2716 H 0.64833 0.82688 0.22967 0.0
H2717 H 0.65467 0.82933 0.25216 0.0
H2718 H 0.23073 0.82701 0.16572 0.0
H2719 H 0.22246 0.83249 0.18641 0.0
H2720 H 0.18573 0.85393 0.17074 0.0
H2721 H 0.19381 0.84837 0.14998 0.0
H2722 H 0.22581 0.86994 0.19919 0.0
H2723 H 0.14943 0.80483 0.19011 0.0
H2724 H 0.16918 0.80758 0.18115 0.0
H2725 H 0.15777 0.82224 0.17875 0.0
C2726 C 0.22098 0.833 0.1667 0.0
C2727 C 0.21282 0.83716 0.15624 0.0
C2728 C 0.21635 0.83619 0.17851 0.0
C2729 C 0.20336 0.84342 0.18004 0.0
C2730 C 0.19569 0.84822 0.16969 0.0
H2731 H 0.14512 0.85015 0.24434 0.0
H2732 H 0.15566 0.85106 0.2236 0.0
C2733 C 0.20043 0.84517 0.15788 0.0
C2734 C 0.1972 0.84511 0.19241 0.0
H2735 H 0.15834 0.82314 0.20969 0.0
C2736 C 0.21106 0.85978 0.20151 0.0
C2737 C 0.17793 0.83186 0.19533 0.0
C2738 C 0.16267 0.81562 0.18589 0.0
C2739 C 0.20609 0.86161 0.21352 0.0
C2740 C 0.18693 0.84802 0.21655 0.0
C2741 C 0.17302 0.83352 0.20736 0.0
C2742 C 0.18107 0.84828 0.22925 0.0
C2743 C 0.22132 0.87826 0.22276 0.0
C2744 C 0.19174 0.84622 0.23931 0.0
C2745 C 0.18593 0.84598 0.25122 0.0
C2746 C 0.16912 0.84748 0.25329 0.0
C2747 C 0.15833 0.8493 0.24314 0.0
C2748 C 0.16425 0.84968 0.23125 0.0
H2749 H 0.23245 0.89063 0.21807 0.0
H2750 H 0.21428 0.8841 0.229 0.0
H2751 H 0.22933 0.87269 0.22848 0.0
H2752 H 0.20449 0.84462 0.23795 0.0
H2753 H 0.19473 0.84478 0.25881 0.0
H2754 H 0.18084 0.35698 0.14873 0.0
H2755 H 0.17255 0.34534 0.16903 0.0
H2756 H 0.21533 0.40344 0.1867 0.0
H2757 H 0.22303 0.41547 0.16646 0.0
H2758 H 0.19531 0.34377 0.18837 0.0
H2759 H 0.16627 0.39277 0.20291 0.0
H2760 H 0.17108 0.38954 0.18718 0.0
H2761 H 0.1911 0.40594 0.19871 0.0
C2762 C 0.18832 0.36737 0.15692 0.0
C2763 C 0.20249 0.38723 0.15592 0.0
C2764 C 0.18367 0.36064 0.16853 0.0
C2765 C 0.19304 0.3736 0.17939 0.0
C2766 C 0.20757 0.39328 0.17845 0.0
H2767 H 0.18753 0.35978 0.25784 0.0
H2768 H 0.196 0.37163 0.23759 0.0
C2769 C 0.21216 0.40006 0.16685 0.0
C2770 C 0.18773 0.36645 0.19169 0.0
H2771 H 0.17056 0.37461 0.21829 0.0
C2772 C 0.18981 0.35045 0.19489 0.0
C2773 C 0.1805 0.37516 0.20018 0.0
C2774 C 0.17691 0.39167 0.19705 0.0
C2775 C 0.18519 0.34315 0.20642 0.0
C2776 C 0.17813 0.35196 0.21492 0.0
C2777 C 0.17605 0.36795 0.21175 0.0
C2778 C 0.17275 0.34474 0.22716 0.0
C2779 C 0.18822 0.32628 0.20952 0.0
C2780 C 0.15667 0.3258 0.228 0.0
C2781 C 0.15162 0.31905 0.23956 0.0
C2782 C 0.16258 0.33111 0.25053 0.0
C2783 C 0.17859 0.35018 0.24962 0.0
C2784 C 0.18355 0.35694 0.23805 0.0
H2785 H 0.19769 0.32402 0.20318 0.0
H2786 H 0.19511 0.32896 0.21919 0.0
H2787 H 0.17363 0.31244 0.20869 0.0
H2788 H 0.14792 0.3163 0.21969 0.0
H2789 H 0.139 0.30444 0.23989 0.0
H2790 H 0.77211 0.6137 0.84464 0.0
H2791 H 0.78024 0.62726 0.82477 0.0
H2792 H 0.82897 0.6162 0.82522 0.0
H2793 H 0.82138 0.60315 0.84521 0.0
H2794 H 0.81889 0.66001 0.8191 0.0
H2795 H 0.79454 0.58832 0.79119 0.0
H2796 H 0.78632 0.58982 0.80617 0.0
H2797 H 0.81077 0.59367 0.80508 0.0
C2798 C 0.78468 0.61431 0.84059 0.0
C2799 C 0.79601 0.6072 0.84653 0.0
C2800 C 0.78922 0.62196 0.8292 0.0
C2801 C 0.80504 0.62248 0.82348 0.0
C2802 C 0.81649 0.61561 0.8294 0.0
H2803 H 0.85394 0.65716 0.7538 0.0
H2804 H 0.84594 0.64467 0.77397 0.0
C2805 C 0.81205 0.60807 0.84081 0.0
C2806 C 0.80977 0.63043 0.81137 0.0
H2807 H 0.81084 0.61722 0.78106 0.0
C2808 C 0.81706 0.65068 0.81075 0.0
C2809 C 0.80746 0.6182 0.80055 0.0
C2810 C 0.79921 0.59625 0.80068 0.0
C2811 C 0.82251 0.65915 0.79962 0.0
C2812 C 0.82009 0.6469 0.78874 0.0
C2813 C 0.81271 0.62661 0.78938 0.0
C2814 C 0.8251 0.65479 0.7766 0.0
C2815 C 0.83132 0.68122 0.7997 0.0
C2816 C 0.81589 0.66443 0.77129 0.0
C2817 C 0.82051 0.67165 0.7598 0.0
C2818 C 0.83423 0.66913 0.75329 0.0
C2819 C 0.84323 0.65923 0.75855 0.0
C2820 C 0.83871 0.65214 0.77008 0.0
H2821 H 0.83748 0.68902 0.80916 0.0
H2822 H 0.84327 0.68739 0.79349 0.0
H2823 H 0.81957 0.68436 0.7964 0.0
H2824 H 0.80493 0.66616 0.77596 0.0
H2825 H 0.81303 0.67887 0.7559 0.0
H2826 H 0.35149 0.19102 0.85571 0.0
H2827 H 0.34394 0.18568 0.83322 0.0
H2828 H 0.33567 0.12705 0.83308 0.0
H2829 H 0.3438 0.13241 0.85562 0.0
H2830 H 0.36649 0.17121 0.81585 0.0
H2831 H 0.28418 0.12502 0.81293 0.0
H2832 H 0.29841 0.14271 0.8262 0.0
H2833 H 0.29935 0.1204 0.8238 0.0
C2834 C 0.3482 0.17701 0.85092 0.0
C2835 C 0.34841 0.16219 0.85747 0.0
C2836 C 0.34377 0.17397 0.83809 0.0
C2837 C 0.33925 0.156 0.83158 0.0
C2838 C 0.33902 0.14098 0.83802 0.0
H2839 H 0.3026 0.11958 0.75246 0.0
H2840 H 0.30966 0.11967 0.77471 0.0
C2841 C 0.34357 0.14404 0.85089 0.0
C2842 C 0.33548 0.15338 0.81796 0.0
H2843 H 0.29838 0.13366 0.79423 0.0
C2844 C 0.35164 0.16291 0.81108 0.0
C2845 C 0.3161 0.1424 0.81186 0.0
C2846 C 0.2984 0.13202 0.819 0.0
C2847 C 0.34889 0.16194 0.79815 0.0
C2848 C 0.32941 0.15162 0.79204 0.0
C2849 C 0.31328 0.14164 0.79894 0.0
C2850 C 0.3254 0.15157 0.77856 0.0
C2851 C 0.36689 0.17186 0.79118 0.0
C2852 C 0.33168 0.16945 0.77339 0.0
C2853 C 0.32774 0.16944 0.76071 0.0
C2854 C 0.31719 0.15152 0.75299 0.0
C2855 C 0.31065 0.1336 0.75821 0.0
C2856 C 0.31473 0.13364 0.77089 0.0
H2857 H 0.38026 0.17348 0.79652 0.0
H2858 H 0.36456 0.16341 0.78206 0.0
H2859 H 0.36987 0.1869 0.78959 0.0
H2860 H 0.33944 0.18343 0.77919 0.0
H2861 H 0.33265 0.18344 0.75698 0.0
H2862 H 0.82931 0.18973 0.85562 0.0
H2863 H 0.83654 0.18731 0.83428 0.0
H2864 H 0.78156 0.13194 0.8262 0.0
H2865 H 0.7742 0.13423 0.84761 0.0
H2866 H 0.84076 0.15827 0.82138 0.0
H2867 H 0.77872 0.16466 0.79908 0.0
H2868 H 0.78625 0.17049 0.81552 0.0
H2869 H 0.77142 0.14516 0.80894 0.0
C2870 C 0.81882 0.17693 0.84934 0.0
C2871 C 0.80118 0.16214 0.85332 0.0
C2872 C 0.82294 0.17563 0.83714 0.0
C2873 C 0.80949 0.15958 0.82863 0.0
C2874 C 0.79196 0.14466 0.83256 0.0
H2875 H 0.83767 0.12993 0.75688 0.0
H2876 H 0.82883 0.12969 0.77807 0.0
C2877 C 0.78779 0.14597 0.84479 0.0
C2878 C 0.81406 0.15851 0.81569 0.0
H2879 H 0.79813 0.15823 0.78574 0.0
C2880 C 0.83143 0.15822 0.81357 0.0
C2881 C 0.80198 0.15871 0.80556 0.0
C2882 C 0.78364 0.15995 0.80734 0.0
C2883 C 0.83706 0.15808 0.80158 0.0
C2884 C 0.82478 0.15789 0.79143 0.0
C2885 C 0.80743 0.15823 0.79355 0.0
C2886 C 0.82996 0.15788 0.77857 0.0
C2887 C 0.85635 0.15868 0.79993 0.0
C2888 C 0.83309 0.17359 0.77174 0.0
C2889 C 0.83811 0.17376 0.75962 0.0
C2890 C 0.84002 0.15816 0.7541 0.0
C2891 C 0.83668 0.14234 0.76095 0.0
C2892 C 0.83161 0.14217 0.77305 0.0
H2893 H 0.86625 0.16372 0.80874 0.0
H2894 H 0.85323 0.14359 0.79669 0.0
H2895 H 0.86431 0.16865 0.7929 0.0
H2896 H 0.83187 0.18585 0.77583 0.0
H2897 H 0.84076 0.18624 0.75464 0.0
H2898 H 0.29292 0.16263 0.48575 0.0
H2899 H 0.2997 0.16321 0.50801 0.0
H2900 H 0.35984 0.17858 0.50325 0.0
H2901 H 0.35347 0.17895 0.48103 0.0
H2902 H 0.31111 0.14037 0.5201 0.0
H2903 H 0.36774 0.21985 0.5309 0.0
H2904 H 0.35219 0.21006 0.51637 0.0
H2905 H 0.37351 0.20721 0.51898 0.0
C2906 C 0.30771 0.16654 0.48946 0.0
C2907 C 0.3227 0.17091 0.48161 0.0
C2908 C 0.3115 0.16668 0.50217 0.0
C2909 C 0.33034 0.1712 0.5073 0.0
C2910 C 0.34531 0.17544 0.49951 0.0
H2911 H 0.37933 0.17398 0.58152 0.0
H2912 H 0.3729 0.17275 0.55911 0.0
C2913 C 0.34157 0.1754 0.48679 0.0
C2914 C 0.33408 0.17088 0.52075 0.0
H2915 H 0.36312 0.1993 0.54698 0.0
C2916 C 0.32242 0.15327 0.52599 0.0
C2917 C 0.34885 0.18775 0.5284 0.0
C2918 C 0.36118 0.20734 0.52342 0.0
C2919 C 0.3253 0.15201 0.53867 0.0
C2920 C 0.34012 0.16884 0.54628 0.0
C2921 C 0.35183 0.18642 0.54106 0.0
C2922 C 0.34353 0.16864 0.55976 0.0
C2923 C 0.3127 0.13264 0.54382 0.0
C2924 C 0.32912 0.16676 0.56749 0.0
C2925 C 0.3328 0.16764 0.58029 0.0
C2926 C 0.35099 0.17046 0.58559 0.0
C2927 C 0.36528 0.17206 0.57776 0.0
C2928 C 0.36161 0.17126 0.56496 0.0
H2929 H 0.30502 0.12009 0.5364 0.0
H2930 H 0.32184 0.12945 0.55045 0.0
H2931 H 0.30127 0.13361 0.54889 0.0
H2932 H 0.31521 0.16506 0.56363 0.0
H2933 H 0.32162 0.1667 0.58606 0.0
H2934 H 0.89938 0.20227 0.49145 0.0
H2935 H 0.89304 0.21005 0.51224 0.0
H2936 H 0.84556 0.1498 0.51183 0.0
H2937 H 0.85107 0.14219 0.49092 0.0
H2938 H 0.83523 0.17577 0.52092 0.0
H2939 H 0.90866 0.1942 0.54381 0.0
H2940 H 0.90962 0.20878 0.53151 0.0
H2941 H 0.90006 0.18267 0.52811 0.0
C2942 C 0.88746 0.19074 0.49573 0.0
C2943 C 0.87589 0.17153 0.48954 0.0
C2944 C 0.88401 0.19515 0.50768 0.0
C2945 C 0.86908 0.18041 0.51369 0.0
C2946 C 0.85727 0.16138 0.50742 0.0
H2947 H 0.85144 0.16686 0.58987 0.0
H2948 H 0.86065 0.16789 0.56878 0.0
C2949 C 0.86059 0.157 0.49549 0.0
C2950 C 0.86557 0.18451 0.52651 0.0
H2951 H 0.88672 0.19729 0.55646 0.0
C2952 C 0.84652 0.18061 0.52869 0.0
C2953 C 0.88028 0.19063 0.53664 0.0
C2954 C 0.90076 0.19416 0.53497 0.0
C2955 C 0.8416 0.18217 0.54074 0.0
C2956 C 0.85632 0.18835 0.55088 0.0
C2957 C 0.87551 0.19271 0.54867 0.0
C2958 C 0.85173 0.18888 0.56388 0.0
C2959 C 0.82045 0.17629 0.54251 0.0
C2960 C 0.84401 0.20064 0.56824 0.0
C2961 C 0.83859 0.19996 0.5803 0.0
C2962 C 0.84111 0.18776 0.58826 0.0
C2963 C 0.84949 0.17655 0.584 0.0
C2964 C 0.85471 0.17709 0.57193 0.0
H2965 H 0.81012 0.16739 0.53417 0.0
H2966 H 0.81547 0.16757 0.55053 0.0
H2967 H 0.8194 0.18981 0.5443 0.0
H2968 H 0.84203 0.21022 0.56229 0.0
H2969 H 0.83242 0.20896 0.58339 0.0
H2970 H 0.89236 0.74775 0.49997 0.0
H2971 H 0.88556 0.73512 0.52013 0.0
H2972 H 0.84231 0.67739 0.50218 0.0
H2973 H 0.8497 0.68962 0.48197 0.0
H2974 H 0.85115 0.71975 0.53063 0.0
H2975 H 0.8745 0.66371 0.52565 0.0
H2976 H 0.88048 0.68232 0.51513 0.0
H2977 H 0.85634 0.66045 0.51345 0.0
C2978 C 0.88169 0.73226 0.50028 0.0
C2979 C 0.87167 0.7197 0.4893 0.0
C2980 C 0.8777 0.7251 0.51183 0.0
C2981 C 0.86364 0.70523 0.51268 0.0
C2982 C 0.85354 0.69266 0.50177 0.0
H2983 H 0.81059 0.63705 0.57356 0.0
H2984 H 0.8191 0.64907 0.55334 0.0
C2985 C 0.85759 0.69977 0.4902 0.0
C2986 C 0.85899 0.69791 0.525 0.0
H2987 H 0.85684 0.66275 0.54292 0.0
C2988 C 0.85253 0.70737 0.53334 0.0
C2989 C 0.86076 0.68173 0.52854 0.0
C2990 C 0.86858 0.67158 0.52028 0.0
C2991 C 0.84749 0.70091 0.54503 0.0
C2992 C 0.84911 0.68466 0.5485 0.0
C2993 C 0.85556 0.67517 0.54019 0.0
C2994 C 0.84423 0.67734 0.56076 0.0
C2995 C 0.84011 0.71127 0.55348 0.0
C2996 C 0.85573 0.68915 0.57161 0.0
C2997 C 0.85105 0.68226 0.58318 0.0
C2998 C 0.83474 0.66339 0.58413 0.0
C2999 C 0.82338 0.65154 0.57319 0.0
C3000 C 0.82814 0.65842 0.56163 0.0
H3001 H 0.83571 0.72063 0.54847 0.0
H3002 H 0.82722 0.70037 0.55792 0.0
H3003 H 0.85207 0.72094 0.56092 0.0
H3004 H 0.86842 0.70367 0.57113 0.0
H3005 H 0.86037 0.69165 0.59137 0.0
loop_
_geom_bond_atom_site_label_1
_geom_bond_atom_site_label_2
_geom_bond_distance
_geom_bond_site_symmetry_2
_ccdc_geom_bond_type
C0 C1 1.386 . S
C0 C2 1.397 . S
C0 H24 0.931 . S
C1 C0 1.386 . S
C1 C5 1.397 . S
C2 C0 1.397 . S
C2 C3 1.384 . S
C2 H25 0.930 . S
C3 C2 1.384 . S
C3 C4 1.377 . S
C3 C6 1.481 . S
C4 C3 1.377 . S
C4 C5 1.389 . S
C4 H26 0.929 . S
C5 C1 1.397 . S
C5 C4 1.389 . S
C5 H27 0.931 . S
C6 C3 1.481 . S
C6 C7 1.387 . S
C6 C11 1.390 . S
C7 C6 1.387 . S
C7 C8 1.401 . S
C7 H28 0.930 . S
C8 C7 1.401 . S
C8 C9 1.376 . S
C8 C17 1.511 . S
C9 C8 1.376 . S
C9 C10 1.392 . S
C9 H30 0.931 . S
C10 C9 1.392 . S
C10 C11 1.361 . S
C10 C12 1.500 . S
C11 C6 1.390 . S
C11 C10 1.361 . S
C11 H29 0.931 . S
C12 C10 1.500 . S
C12 C13 1.371 . S
C12 C14 1.365 . S
C13 C12 1.371 . S
C13 C23 1.386 . S
C13 H31 0.931 . S
C14 C12 1.365 . S
C14 C15 1.409 . S
C14 H32 0.929 . S
C15 C14 1.409 . S
C15 C16 1.380 . S
C15 H33 0.930 . S
C16 C15 1.380 . S
C16 C23 1.357 . S
C17 C8 1.511 . S
C17 C18 1.341 . S
C17 C19 1.371 . S
C18 C17 1.341 . S
C18 C22 1.394 . S
C18 H34 0.930 . S
C19 C17 1.371 . S
C19 C20 1.392 . S
C19 H35 0.931 . S
C20 C19 1.392 . S
C20 C21 1.331 . S
C20 H38 0.932 . S
C21 C20 1.331 . S
C21 C22 1.336 . S
C22 C18 1.394 . S
C22 C21 1.336 . S
C22 H37 0.929 . S
C23 C13 1.386 . S
C23 C16 1.357 . S
C23 H36 0.928 . S
H24 C0 0.931 . S
H25 C2 0.930 . S
H26 C4 0.929 . S
H27 C5 0.931 . S
H28 C7 0.930 . S
H29 C11 0.931 . S
H30 C9 0.931 . S
H31 C13 0.931 . S
H32 C14 0.929 . S
H33 C15 0.930 . S
H34 C18 0.930 . S
H35 C19 0.931 . S
H36 C23 0.928 . S
H37 C22 0.929 . S
H38 C20 0.932 . S
C39 C40 1.386 . S
C39 C41 1.397 . S
C39 H63 0.931 . S
C40 C39 1.386 . S
C40 C44 1.397 . S
C41 C39 1.397 . S
C41 C42 1.384 . S
C41 H64 0.930 . S
C42 C41 1.384 . S
C42 C43 1.377 . S
C42 C45 1.481 . S
C43 C42 1.377 . S
C43 C44 1.389 . S
C43 H65 0.929 . S
C44 C40 1.397 . S
C44 C43 1.389 . S
C44 H66 0.931 . S
C45 C42 1.481 . S
C45 C46 1.387 . S
C45 C50 1.390 . S
C46 C45 1.387 . S
C46 C47 1.401 . S
C46 H67 0.930 . S
C47 C46 1.401 . S
C47 C48 1.376 . S
C47 C56 1.511 . S
C48 C47 1.376 . S
C48 C49 1.392 . S
C48 H69 0.931 . S
C49 C48 1.392 . S
C49 C50 1.361 . S
C49 C51 1.500 . S
C50 C45 1.390 . S
C50 C49 1.361 . S
C50 H68 0.931 . S
C51 C49 1.500 . S
C51 C52 1.371 . S
C51 C53 1.365 . S
C52 C51 1.371 . S
C52 C62 1.386 . S
C52 H70 0.931 . S
C53 C51 1.365 . S
C53 C54 1.409 . S
C53 H71 0.929 . S
C54 C53 1.409 . S
C54 C55 1.380 . S
C54 H72 0.930 . S
C55 C54 1.380 . S
C55 C62 1.357 . S
C56 C47 1.511 . S
C56 C57 1.341 . S
C56 C58 1.371 . S
C57 C56 1.341 . S
C57 C61 1.394 . S
C57 H73 0.930 . S
C58 C56 1.371 . S
C58 C59 1.392 . S
C58 H74 0.931 . S
C59 C58 1.392 . S
C59 C60 1.331 . S
C59 H77 0.932 . S
C60 C59 1.331 . S
C60 C61 1.336 . S
C61 C57 1.394 . S
C61 C60 1.336 . S
C61 H76 0.929 . S
C62 C52 1.386 . S
C62 C55 1.357 . S
C62 H75 0.928 . S
H63 C39 0.931 . S
H64 C41 0.930 . S
H65 C43 0.929 . S
H66 C44 0.931 . S
H67 C46 0.930 . S
H68 C50 0.931 . S
H69 C48 0.931 . S
H70 C52 0.931 . S
H71 C53 0.929 . S
H72 C54 0.930 . S
H73 C57 0.930 . S
H74 C58 0.931 . S
H75 C62 0.928 . S
H76 C61 0.929 . S
H77 C59 0.932 . S
C78 C79 1.386 . S
C78 C80 1.397 . S
C78 H102 0.931 . S
C79 C78 1.386 . S
C79 C83 1.397 . S
C80 C78 1.397 . S
C80 C81 1.384 . S
C80 H103 0.930 . S
C81 C80 1.384 . S
C81 C82 1.377 . S
C81 C84 1.481 . S
C82 C81 1.377 . S
C82 C83 1.389 . S
C82 H104 0.929 . S
C83 C79 1.397 . S
C83 C82 1.389 . S
C83 H105 0.931 . S
C84 C81 1.481 . S
C84 C85 1.387 . S
C84 C89 1.390 . S
C85 C84 1.387 . S
C85 C86 1.401 . S
C85 H106 0.930 . S
C86 C85 1.401 . S
C86 C87 1.376 . S
C86 C95 1.511 . S
C87 C86 1.376 . S
C87 C88 1.392 . S
C87 H108 0.931 . S
C88 C87 1.392 . S
C88 C89 1.361 . S
C88 C90 1.500 . S
C89 C84 1.390 . S
C89 C88 1.361 . S
C89 H107 0.931 . S
C90 C88 1.500 . S
C90 C91 1.371 . S
C90 C92 1.365 . S
C91 C90 1.371 . S
C91 C101 1.386 . S
C91 H109 0.931 . S
C92 C90 1.365 . S
C92 C93 1.409 . S
C92 H110 0.929 . S
C93 C92 1.409 . S
C93 C94 1.380 . S
C93 H111 0.930 . S
C94 C93 1.380 . S
C94 C101 1.357 . S
C95 C86 1.511 . S
C95 C96 1.341 . S
C95 C97 1.371 . S
C96 C95 1.341 . S
C96 C100 1.394 . S
C96 H112 0.930 . S
C97 C95 1.371 . S
C97 C98 1.392 . S
C97 H113 0.931 . S
C98 C97 1.392 . S
C98 C99 1.331 . S
C98 H116 0.932 . S
C99 C98 1.331 . S
C99 C100 1.336 . S
C100 C96 1.394 . S
C100 C99 1.336 . S
C100 H115 0.929 . S
C101 C91 1.386 . S
C101 C94 1.357 . S
C101 H114 0.928 . S
H102 C78 0.931 . S
H103 C80 0.930 . S
H104 C82 0.929 . S
H105 C83 0.931 . S
H106 C85 0.930 . S
H107 C89 0.931 . S
H108 C87 0.931 . S
H109 C91 0.931 . S
H110 C92 0.929 . S
H111 C93 0.930 . S
H112 C96 0.930 . S
H113 C97 0.931 . S
H114 C101 0.928 . S
H115 C100 0.929 . S
H116 C98 0.932 . S
C117 C118 1.386 . S
C117 C119 1.397 . S
C117 H141 0.931 . S
C118 C117 1.386 . S
C118 C122 1.397 . S
C119 C117 1.397 . S
C119 C120 1.384 . S
C119 H142 0.930 . S
C120 C119 1.384 . S
C120 C121 1.377 . S
C120 C123 1.481 . S
C121 C120 1.377 . S
C121 C122 1.389 . S
C121 H143 0.929 . S
C122 C118 1.397 . S
C122 C121 1.389 . S
C122 H144 0.931 . S
C123 C120 1.481 . S
C123 C124 1.387 . S
C123 C128 1.390 . S
C124 C123 1.387 . S
C124 C125 1.401 . S
C124 H145 0.930 . S
C125 C124 1.401 . S
C125 C126 1.376 . S
C125 C134 1.511 . S
C126 C125 1.376 . S
C126 C127 1.392 . S
C126 H147 0.931 . S
C127 C126 1.392 . S
C127 C128 1.361 . S
C127 C129 1.500 . S
C128 C123 1.390 . S
C128 C127 1.361 . S
C128 H146 0.931 . S
C129 C127 1.500 . S
C129 C130 1.371 . S
C129 C131 1.365 . S
C130 C129 1.371 . S
C130 C140 1.386 . S
C130 H148 0.931 . S
C131 C129 1.365 . S
C131 C132 1.409 . S
C131 H149 0.929 . S
C132 C131 1.409 . S
C132 C133 1.380 . S
C132 H150 0.930 . S
C133 C132 1.380 . S
C133 C140 1.357 . S
C134 C125 1.511 . S
C134 C135 1.341 . S
C134 C136 1.371 . S
C135 C134 1.341 . S
C135 C139 1.394 . S
C135 H151 0.930 . S
C136 C134 1.371 . S
C136 C137 1.392 . S
C136 H152 0.931 . S
C137 C136 1.392 . S
C137 C138 1.331 . S
C137 H155 0.932 . S
C138 C137 1.331 . S
C138 C139 1.336 . S
C139 C135 1.394 . S
C139 C138 1.336 . S
C139 H154 0.929 . S
C140 C130 1.386 . S
C140 C133 1.357 . S
C140 H153 0.928 . S
H141 C117 0.931 . S
H142 C119 0.930 . S
H143 C121 0.929 . S
H144 C122 0.931 . S
H145 C124 0.930 . S
H146 C128 0.931 . S
H147 C126 0.931 . S
H148 C130 0.931 . S
H149 C131 0.929 . S
H150 C132 0.930 . S
H151 C135 0.930 . S
H152 C136 0.931 . S
H153 C140 0.928 . S
H154 C139 0.929 . S
H155 C137 0.932 . S
C156 C157 1.386 . S
C156 C158 1.397 . S
C156 H180 0.931 . S
C157 C156 1.386 . S
C157 C161 1.397 . S
C158 C156 1.397 . S
C158 C159 1.384 . S
C158 H181 0.930 . S
C159 C158 1.384 . S
C159 C160 1.377 . S
C159 C162 1.481 . S
C160 C159 1.377 . S
C160 C161 1.389 . S
C160 H182 0.929 . S
C161 C157 1.397 . S
C161 C160 1.389 . S
C161 H183 0.931 . S
C162 C159 1.481 . S
C162 C163 1.387 . S
C162 C167 1.390 . S
C163 C162 1.387 . S
C163 C164 1.401 . S
C163 H184 0.930 . S
C164 C163 1.401 . S
C164 C165 1.376 . S
C164 C173 1.511 . S
C165 C164 1.376 . S
C165 C166 1.392 . S
C165 H186 0.931 . S
C166 C165 1.392 . S
C166 C167 1.361 . S
C166 C168 1.500 . S
C167 C162 1.390 . S
C167 C166 1.361 . S
C167 H185 0.931 . S
C168 C166 1.500 . S
C168 C169 1.371 . S
C168 C170 1.365 . S
C169 C168 1.371 . S
C169 C179 1.386 . S
C169 H187 0.931 . S
C170 C168 1.365 . S
C170 C171 1.409 . S
C170 H188 0.929 . S
C171 C170 1.409 . S
C171 C172 1.380 . S
C171 H189 0.930 . S
C172 C171 1.380 . S
C172 C179 1.357 . S
C173 C164 1.511 . S
C173 C174 1.341 . S
C173 C175 1.371 . S
C174 C173 1.341 . S
C174 C178 1.394 . S
C174 H190 0.930 . S
C175 C173 1.371 . S
C175 C176 1.392 . S
C175 H191 0.931 . S
C176 C175 1.392 . S
C176 C177 1.331 . S
C176 H194 0.932 . S
C177 C176 1.331 . S
C177 C178 1.336 . S
C178 C174 1.394 . S
C178 C177 1.336 . S
C178 H193 0.929 . S
C179 C169 1.386 . S
C179 C172 1.357 . S
C179 H192 0.928 . S
H180 C156 0.931 . S
H181 C158 0.930 . S
H182 C160 0.929 . S
H183 C161 0.931 . S
H184 C163 0.930 . S
H185 C167 0.931 . S
H186 C165 0.931 . S
H187 C169 0.931 . S
H188 C170 0.929 . S
H189 C171 0.930 . S
H190 C174 0.930 . S
H191 C175 0.931 . S
H192 C179 0.928 . S
H193 C178 0.929 . S
H194 C176 0.932 . S
C195 C196 1.386 . S
C195 C197 1.397 . S
C195 H219 0.931 . S
C196 C195 1.386 . S
C196 C200 1.397 . S
C197 C195 1.397 . S
C197 C198 1.384 . S
C197 H220 0.930 . S
C198 C197 1.384 . S
C198 C199 1.377 . S
C198 C201 1.481 . S
C199 C198 1.377 . S
C199 C200 1.389 . S
C199 H221 0.929 . S
C200 C196 1.397 . S
C200 C199 1.389 . S
C200 H222 0.931 . S
C201 C198 1.481 . S
C201 C202 1.387 . S
C201 C206 1.390 . S
C202 C201 1.387 . S
C202 C203 1.401 . S
C202 H223 0.930 . S
C203 C202 1.401 . S
C203 C204 1.376 . S
C203 C212 1.511 . S
C204 C203 1.376 . S
C204 C205 1.392 . S
C204 H225 0.931 . S
C205 C204 1.392 . S
C205 C206 1.361 . S
C205 C207 1.500 . S
C206 C201 1.390 . S
C206 C205 1.361 . S
C206 H224 0.931 . S
C207 C205 1.500 . S
C207 C208 1.371 . S
C207 C209 1.365 . S
C208 C207 1.371 . S
C208 C218 1.386 . S
C208 H226 0.931 . S
C209 C207 1.365 . S
C209 C210 1.409 . S
C209 H227 0.929 . S
C210 C209 1.409 . S
C210 C211 1.380 . S
C210 H228 0.930 . S
C211 C210 1.380 . S
C211 C218 1.357 . S
C212 C203 1.511 . S
C212 C213 1.341 . S
C212 C214 1.371 . S
C213 C212 1.341 . S
C213 C217 1.394 . S
C213 H229 0.930 . S
C214 C212 1.371 . S
C214 C215 1.392 . S
C214 H230 0.931 . S
C215 C214 1.392 . S
C215 C216 1.331 . S
C215 H233 0.932 . S
C216 C215 1.331 . S
C216 C217 1.336 . S
C217 C213 1.394 . S
C217 C216 1.336 . S
C217 H232 0.929 . S
C218 C208 1.386 . S
C218 C211 1.357 . S
C218 H231 0.928 . S
H219 C195 0.931 . S
H220 C197 0.930 . S
H221 C199 0.929 . S
H222 C200 0.931 . S
H223 C202 0.930 . S
H224 C206 0.931 . S
H225 C204 0.931 . S
H226 C208 0.931 . S
H227 C209 0.929 . S
H228 C210 0.930 . S
H229 C213 0.930 . S
H230 C214 0.931 . S
H231 C218 0.928 . S
H232 C217 0.929 . S
H233 C215 0.932 . S
C234 C235 1.386 . S
C234 C236 1.397 . S
C234 H258 0.931 . S
C235 C234 1.386 . S
C235 C239 1.397 . S
C236 C234 1.397 . S
C236 C237 1.384 . S
C236 H259 0.930 . S
C237 C236 1.384 . S
C237 C238 1.377 . S
C237 C240 1.481 . S
C238 C237 1.377 . S
C238 C239 1.389 . S
C238 H260 0.929 . S
C239 C235 1.397 . S
C239 C238 1.389 . S
C239 H261 0.931 1_655 S
C240 C237 1.481 . S
C240 C241 1.387 . S
C240 C245 1.390 . S
C241 C240 1.387 . S
C241 C242 1.401 . S
C241 H262 0.930 . S
C242 C241 1.401 . S
C242 C243 1.376 . S
C242 C251 1.511 . S
C243 C242 1.376 . S
C243 C244 1.392 . S
C243 H264 0.931 . S
C244 C243 1.392 . S
C244 C245 1.361 . S
C244 C246 1.500 . S
C245 C240 1.390 . S
C245 C244 1.361 . S
C245 H263 0.931 . S
C246 C244 1.500 . S
C246 C247 1.371 . S
C246 C248 1.365 . S
C247 C246 1.371 . S
C247 C257 1.386 . S
C247 H265 0.931 . S
C248 C246 1.365 . S
C248 C249 1.409 . S
C248 H266 0.929 . S
C249 C248 1.409 . S
C249 C250 1.380 . S
C249 H267 0.930 . S
C250 C249 1.380 . S
C250 C257 1.357 . S
C251 C242 1.511 . S
C251 C252 1.341 . S
C251 C253 1.371 . S
C252 C251 1.341 . S
C252 C256 1.394 . S
C252 H268 0.930 . S
C253 C251 1.371 . S
C253 C254 1.392 . S
C253 H269 0.931 . S
C254 C253 1.392 . S
C254 C255 1.331 . S
C254 H272 0.932 . S
C255 C254 1.331 . S
C255 C256 1.336 . S
C256 C252 1.394 . S
C256 C255 1.336 . S
C256 H271 0.929 . S
C257 C247 1.386 . S
C257 C250 1.357 . S
C257 H270 0.928 . S
H258 C234 0.931 . S
H259 C236 0.930 . S
H260 C238 0.929 . S
H261 C239 0.931 1_455 S
H262 C241 0.930 . S
H263 C245 0.931 . S
H264 C243 0.931 . S
H265 C247 0.931 . S
H266 C248 0.929 . S
H267 C249 0.930 . S
H268 C252 0.930 . S
H269 C253 0.931 . S
H270 C257 0.928 . S
H271 C256 0.929 . S
H272 C254 0.932 . S
C273 C274 1.386 . S
C273 C275 1.397 . S
C273 H297 0.931 . S
C274 C273 1.386 . S
C274 C278 1.397 . S
C275 C273 1.397 . S
C275 C276 1.384 . S
C275 H298 0.930 . S
C276 C275 1.384 . S
C276 C277 1.377 . S
C276 C279 1.481 . S
C277 C276 1.377 . S
C277 C278 1.389 . S
C277 H299 0.929 . S
C278 C274 1.397 . S
C278 C277 1.389 . S
C278 H300 0.931 . S
C279 C276 1.481 . S
C279 C280 1.387 . S
C279 C284 1.390 . S
C280 C279 1.387 . S
C280 C281 1.401 . S
C280 H301 0.930 . S
C281 C280 1.401 . S
C281 C282 1.376 . S
C281 C290 1.511 . S
C282 C281 1.376 . S
C282 C283 1.392 . S
C282 H303 0.931 . S
C283 C282 1.392 . S
C283 C284 1.361 . S
C283 C285 1.500 . S
C284 C279 1.390 . S
C284 C283 1.361 . S
C284 H302 0.931 . S
C285 C283 1.500 . S
C285 C286 1.371 . S
C285 C287 1.365 . S
C286 C285 1.371 . S
C286 C296 1.386 . S
C286 H304 0.931 . S
C287 C285 1.365 . S
C287 C288 1.409 . S
C287 H305 0.929 . S
C288 C287 1.409 . S
C288 C289 1.380 . S
C288 H306 0.930 . S
C289 C288 1.380 . S
C289 C296 1.357 . S
C290 C281 1.511 . S
C290 C291 1.341 . S
C290 C292 1.371 . S
C291 C290 1.341 . S
C291 C295 1.394 . S
C291 H307 0.930 . S
C292 C290 1.371 . S
C292 C293 1.392 . S
C292 H308 0.931 . S
C293 C292 1.392 . S
C293 C294 1.331 . S
C293 H311 0.932 . S
C294 C293 1.331 . S
C294 C295 1.336 . S
C295 C291 1.394 . S
C295 C294 1.336 . S
C295 H310 0.929 . S
C296 C286 1.386 . S
C296 C289 1.357 . S
C296 H309 0.928 . S
H297 C273 0.931 . S
H298 C275 0.930 . S
H299 C277 0.929 . S
H300 C278 0.931 . S
H301 C280 0.930 . S
H302 C284 0.931 . S
H303 C282 0.931 . S
H304 C286 0.931 . S
H305 C287 0.929 . S
H306 C288 0.930 . S
H307 C291 0.930 . S
H308 C292 0.931 . S
H309 C296 0.928 . S
H310 C295 0.929 . S
H311 C293 0.932 . S
C312 C313 1.386 . S
C312 C314 1.397 . S
C312 H336 0.931 . S
C313 C312 1.386 . S
C313 C317 1.397 . S
C314 C312 1.397 . S
C314 C315 1.384 . S
C314 H337 0.930 . S
C315 C314 1.384 . S
C315 C316 1.377 . S
C315 C318 1.481 . S
C316 C315 1.377 . S
C316 C317 1.389 . S
C316 H338 0.929 . S
C317 C313 1.397 . S
C317 C316 1.389 . S
C317 H339 0.931 . S
C318 C315 1.481 . S
C318 C319 1.387 . S
C318 C323 1.390 . S
C319 C318 1.387 . S
C319 C320 1.401 . S
C319 H340 0.930 . S
C320 C319 1.401 . S
C320 C321 1.376 . S
C320 C329 1.511 . S
C321 C320 1.376 . S
C321 C322 1.392 . S
C321 H342 0.931 . S
C322 C321 1.392 . S
C322 C323 1.361 . S
C322 C324 1.500 . S
C323 C318 1.390 . S
C323 C322 1.361 . S
C323 H341 0.931 . S
C324 C322 1.500 . S
C324 C325 1.371 . S
C324 C326 1.365 . S
C325 C324 1.371 . S
C325 C335 1.386 . S
C325 H343 0.931 . S
C326 C324 1.365 . S
C326 C327 1.409 . S
C326 H344 0.929 . S
C327 C326 1.409 . S
C327 C328 1.380 . S
C327 H345 0.930 . S
C328 C327 1.380 . S
C328 C335 1.357 . S
C329 C320 1.511 . S
C329 C330 1.341 . S
C329 C331 1.371 . S
C330 C329 1.341 . S
C330 C334 1.394 . S
C330 H346 0.930 . S
C331 C329 1.371 . S
C331 C332 1.392 . S
C331 H347 0.931 . S
C332 C331 1.392 . S
C332 C333 1.331 . S
C332 H350 0.932 . S
C333 C332 1.331 . S
C333 C334 1.336 . S
C334 C330 1.394 . S
C334 C333 1.336 . S
C334 H349 0.929 . S
C335 C325 1.386 . S
C335 C328 1.357 . S
C335 H348 0.928 . S
H336 C312 0.931 . S
H337 C314 0.930 . S
H338 C316 0.929 . S
H339 C317 0.931 . S
H340 C319 0.930 . S
H341 C323 0.931 . S
H342 C321 0.931 . S
H343 C325 0.931 . S
H344 C326 0.929 . S
H345 C327 0.930 . S
H346 C330 0.930 . S
H347 C331 0.931 . S
H348 C335 0.928 . S
H349 C334 0.929 . S
H350 C332 0.932 . S
C351 C352 1.386 . S
C351 C353 1.397 . S
C351 H375 0.931 . S
C352 C351 1.386 . S
C352 C356 1.397 . S
C353 C351 1.397 . S
C353 C354 1.384 . S
C353 H376 0.930 . S
C354 C353 1.384 . S
C354 C355 1.377 . S
C354 C357 1.481 . S
C355 C354 1.377 . S
C355 C356 1.389 . S
C355 H377 0.929 . S
C356 C352 1.397 . S
C356 C355 1.389 . S
C356 H378 0.931 . S
C357 C354 1.481 . S
C357 C358 1.387 . S
C357 C362 1.390 . S
C358 C357 1.387 . S
C358 C359 1.401 . S
C358 H379 0.930 . S
C359 C358 1.401 . S
C359 C360 1.376 . S
C359 C368 1.511 . S
C360 C359 1.376 . S
C360 C361 1.392 . S
C360 H381 0.931 . S
C361 C360 1.392 . S
C361 C362 1.361 . S
C361 C363 1.500 . S
C362 C357 1.390 . S
C362 C361 1.361 . S
C362 H380 0.931 . S
C363 C361 1.500 . S
C363 C364 1.371 . S
C363 C365 1.365 . S
C364 C363 1.371 . S
C364 C374 1.386 . S
C364 H382 0.931 . S
C365 C363 1.365 . S
C365 C366 1.409 . S
C365 H383 0.929 . S
C366 C365 1.409 . S
C366 C367 1.380 . S
C366 H384 0.930 . S
C367 C366 1.380 . S
C367 C374 1.357 . S
C368 C359 1.511 . S
C368 C369 1.341 . S
C368 C370 1.371 . S
C369 C368 1.341 . S
C369 C373 1.394 . S
C369 H385 0.930 . S
C370 C368 1.371 . S
C370 C371 1.392 . S
C370 H386 0.931 . S
C371 C370 1.392 . S
C371 C372 1.331 . S
C371 H389 0.932 . S
C372 C371 1.331 . S
C372 C373 1.336 . S
C373 C369 1.394 . S
C373 C372 1.336 . S
C373 H388 0.929 . S
C374 C364 1.386 . S
C374 C367 1.357 . S
C374 H387 0.928 . S
H375 C351 0.931 . S
H376 C353 0.930 . S
H377 C355 0.929 . S
H378 C356 0.931 . S
H379 C358 0.930 . S
H380 C362 0.931 . S
H381 C360 0.931 . S
H382 C364 0.931 . S
H383 C365 0.929 . S
H384 C366 0.930 . S
H385 C369 0.930 . S
H386 C370 0.931 . S
H387 C374 0.928 . S
H388 C373 0.929 . S
H389 C371 0.932 . S
C390 C391 1.386 . S
C390 C392 1.397 . S
C390 H414 0.931 . S
C391 C390 1.386 . S
C391 C395 1.397 . S
C392 C390 1.397 . S
C392 C393 1.384 . S
C392 H415 0.930 . S
C393 C392 1.384 . S
C393 C394 1.377 . S
C393 C396 1.481 . S
C394 C393 1.377 . S
C394 C395 1.389 . S
C394 H416 0.929 . S
C395 C391 1.397 . S
C395 C394 1.389 . S
C395 H417 0.931 . S
C396 C393 1.481 . S
C396 C397 1.387 . S
C396 C401 1.390 . S
C397 C396 1.387 . S
C397 C398 1.401 . S
C397 H418 0.930 . S
C398 C397 1.401 . S
C398 C399 1.376 . S
C398 C407 1.511 . S
C399 C398 1.376 . S
C399 C400 1.392 . S
C399 H420 0.931 . S
C400 C399 1.392 . S
C400 C401 1.361 . S
C400 C402 1.500 . S
C401 C396 1.390 . S
C401 C400 1.361 . S
C401 H419 0.931 . S
C402 C400 1.500 . S
C402 C403 1.371 . S
C402 C404 1.365 . S
C403 C402 1.371 . S
C403 C413 1.386 . S
C403 H421 0.931 . S
C404 C402 1.365 . S
C404 C405 1.409 . S
C404 H422 0.929 . S
C405 C404 1.409 . S
C405 C406 1.380 . S
C405 H423 0.930 . S
C406 C405 1.380 . S
C406 C413 1.357 . S
C407 C398 1.511 . S
C407 C408 1.341 . S
C407 C409 1.371 . S
C408 C407 1.341 . S
C408 C412 1.394 . S
C408 H424 0.930 . S
C409 C407 1.371 . S
C409 C410 1.392 . S
C409 H425 0.931 . S
C410 C409 1.392 . S
C410 C411 1.331 . S
C410 H428 0.932 . S
C411 C410 1.331 . S
C411 C412 1.336 . S
C412 C408 1.394 . S
C412 C411 1.336 . S
C412 H427 0.929 . S
C413 C403 1.386 . S
C413 C406 1.357 . S
C413 H426 0.928 . S
H414 C390 0.931 . S
H415 C392 0.930 . S
H416 C394 0.929 . S
H417 C395 0.931 . S
H418 C397 0.930 . S
H419 C401 0.931 . S
H420 C399 0.931 . S
H421 C403 0.931 . S
H422 C404 0.929 . S
H423 C405 0.930 . S
H424 C408 0.930 . S
H425 C409 0.931 . S
H426 C413 0.928 . S
H427 C412 0.929 . S
H428 C410 0.932 . S
C429 C430 1.386 . S
C429 C431 1.397 . S
C429 H453 0.931 . S
C430 C429 1.386 . S
C430 C434 1.397 . S
C431 C429 1.397 . S
C431 C432 1.384 . S
C431 H454 0.930 . S
C432 C431 1.384 . S
C432 C433 1.377 . S
C432 C435 1.481 . S
C433 C432 1.377 . S
C433 C434 1.389 . S
C433 H455 0.929 . S
C434 C430 1.397 . S
C434 C433 1.389 . S
C434 H456 0.931 . S
C435 C432 1.481 . S
C435 C436 1.387 . S
C435 C440 1.390 . S
C436 C435 1.387 . S
C436 C437 1.401 . S
C436 H457 0.930 . S
C437 C436 1.401 . S
C437 C438 1.376 . S
C437 C446 1.511 . S
C438 C437 1.376 . S
C438 C439 1.392 . S
C438 H459 0.931 . S
C439 C438 1.392 . S
C439 C440 1.361 . S
C439 C441 1.500 . S
C440 C435 1.390 . S
C440 C439 1.361 . S
C440 H458 0.931 . S
C441 C439 1.500 . S
C441 C442 1.371 . S
C441 C443 1.365 . S
C442 C441 1.371 . S
C442 C452 1.386 . S
C442 H460 0.931 . S
C443 C441 1.365 . S
C443 C444 1.409 . S
C443 H461 0.929 . S
C444 C443 1.409 . S
C444 C445 1.380 . S
C444 H462 0.930 . S
C445 C444 1.380 . S
C445 C452 1.357 . S
C446 C437 1.511 . S
C446 C447 1.341 . S
C446 C448 1.371 . S
C447 C446 1.341 . S
C447 C451 1.394 . S
C447 H463 0.930 . S
C448 C446 1.371 . S
C448 C449 1.392 . S
C448 H464 0.931 . S
C449 C448 1.392 . S
C449 C450 1.331 . S
C449 H467 0.932 . S
C450 C449 1.331 . S
C450 C451 1.336 . S
C451 C447 1.394 . S
C451 C450 1.336 . S
C451 H466 0.929 . S
C452 C442 1.386 . S
C452 C445 1.357 . S
C452 H465 0.928 . S
H453 C429 0.931 . S
H454 C431 0.930 . S
H455 C433 0.929 . S
H456 C434 0.931 . S
H457 C436 0.930 . S
H458 C440 0.931 . S
H459 C438 0.931 . S
H460 C442 0.931 . S
H461 C443 0.929 . S
H462 C444 0.930 . S
H463 C447 0.930 . S
H464 C448 0.931 . S
H465 C452 0.928 . S
H466 C451 0.929 . S
H467 C449 0.932 . S
C468 C469 1.386 . S
C468 C470 1.397 . S
C468 H492 0.931 . S
C469 C468 1.386 . S
C469 C473 1.397 . S
C470 C468 1.397 . S
C470 C471 1.384 . S
C470 H493 0.930 . S
C471 C470 1.384 . S
C471 C472 1.377 . S
C471 C474 1.481 . S
C472 C471 1.377 . S
C472 C473 1.389 . S
C472 H494 0.929 . S
C473 C469 1.397 . S
C473 C472 1.389 . S
C473 H495 0.931 . S
C474 C471 1.481 . S
C474 C475 1.387 . S
C474 C479 1.390 . S
C475 C474 1.387 . S
C475 C476 1.401 . S
C475 H496 0.930 . S
C476 C475 1.401 . S
C476 C477 1.376 . S
C476 C485 1.511 . S
C477 C476 1.376 . S
C477 C478 1.392 . S
C477 H498 0.931 . S
C478 C477 1.392 . S
C478 C479 1.361 . S
C478 C480 1.500 . S
C479 C474 1.390 . S
C479 C478 1.361 . S
C479 H497 0.931 . S
C480 C478 1.500 . S
C480 C481 1.371 . S
C480 C482 1.365 . S
C481 C480 1.371 . S
C481 C491 1.386 . S
C481 H499 0.931 . S
C482 C480 1.365 . S
C482 C483 1.409 . S
C482 H500 0.929 . S
C483 C482 1.409 . S
C483 C484 1.380 . S
C483 H501 0.930 . S
C484 C483 1.380 . S
C484 C491 1.357 . S
C485 C476 1.511 . S
C485 C486 1.341 . S
C485 C487 1.371 . S
C486 C485 1.341 . S
C486 C490 1.394 . S
C486 H502 0.930 . S
C487 C485 1.371 . S
C487 C488 1.392 . S
C487 H503 0.931 . S
C488 C487 1.392 . S
C488 C489 1.331 . S
C488 H506 0.932 . S
C489 C488 1.331 . S
C489 C490 1.336 . S
C490 C486 1.394 . S
C490 C489 1.336 . S
C490 H505 0.929 . S
C491 C481 1.386 . S
C491 C484 1.357 . S
C491 H504 0.928 . S
H492 C468 0.931 . S
H493 C470 0.930 . S
H494 C472 0.929 . S
H495 C473 0.931 . S
H496 C475 0.930 . S
H497 C479 0.931 . S
H498 C477 0.931 . S
H499 C481 0.931 . S
H500 C482 0.929 . S
H501 C483 0.930 . S
H502 C486 0.930 . S
H503 C487 0.931 . S
H504 C491 0.928 . S
H505 C490 0.929 . S
H506 C488 0.932 . S
C507 C508 1.386 . S
C507 C509 1.397 . S
C507 H531 0.931 . S
C508 C507 1.386 . S
C508 C512 1.397 . S
C509 C507 1.397 . S
C509 C510 1.384 . S
C509 H532 0.930 . S
C510 C509 1.384 . S
C510 C511 1.377 . S
C510 C513 1.481 . S
C511 C510 1.377 . S
C511 C512 1.389 . S
C511 H533 0.929 . S
C512 C508 1.397 . S
C512 C511 1.389 . S
C512 H534 0.931 . S
C513 C510 1.481 . S
C513 C514 1.387 . S
C513 C518 1.390 . S
C514 C513 1.387 . S
C514 C515 1.401 . S
C514 H535 0.930 . S
C515 C514 1.401 . S
C515 C516 1.376 . S
C515 C524 1.511 . S
C516 C515 1.376 . S
C516 C517 1.392 . S
C516 H537 0.931 . S
C517 C516 1.392 . S
C517 C518 1.361 . S
C517 C519 1.500 . S
C518 C513 1.390 . S
C518 C517 1.361 . S
C518 H536 0.931 . S
C519 C517 1.500 . S
C519 C520 1.371 . S
C519 C521 1.365 . S
C520 C519 1.371 . S
C520 C530 1.386 . S
C520 H538 0.931 . S
C521 C519 1.365 . S
C521 C522 1.409 . S
C521 H539 0.929 . S
C522 C521 1.409 . S
C522 C523 1.380 . S
C522 H540 0.930 . S
C523 C522 1.380 . S
C523 C530 1.357 . S
C524 C515 1.511 . S
C524 C525 1.341 . S
C524 C526 1.371 . S
C525 C524 1.341 . S
C525 C529 1.394 . S
C525 H541 0.930 . S
C526 C524 1.371 . S
C526 C527 1.392 . S
C526 H542 0.931 . S
C527 C526 1.392 . S
C527 C528 1.331 . S
C527 H545 0.932 . S
C528 C527 1.331 . S
C528 C529 1.336 . S
C529 C525 1.394 . S
C529 C528 1.336 . S
C529 H544 0.929 . S
C530 C520 1.386 . S
C530 C523 1.357 . S
C530 H543 0.928 . S
H531 C507 0.931 . S
H532 C509 0.930 . S
H533 C511 0.929 . S
H534 C512 0.931 . S
H535 C514 0.930 . S
H536 C518 0.931 . S
H537 C516 0.931 . S
H538 C520 0.931 . S
H539 C521 0.929 . S
H540 C522 0.930 . S
H541 C525 0.930 . S
H542 C526 0.931 . S
H543 C530 0.928 . S
H544 C529 0.929 . S
H545 C527 0.932 . S
C546 C547 1.386 . S
C546 C548 1.397 . S
C546 H570 0.931 . S
C547 C546 1.386 . S
C547 C551 1.397 . S
C548 C546 1.397 . S
C548 C549 1.384 . S
C548 H571 0.930 . S
C549 C548 1.384 . S
C549 C550 1.377 . S
C549 C552 1.481 . S
C550 C549 1.377 . S
C550 C551 1.389 . S
C550 H572 0.929 . S
C551 C547 1.397 . S
C551 C550 1.389 . S
C551 H573 0.931 . S
C552 C549 1.481 . S
C552 C553 1.387 . S
C552 C557 1.390 . S
C553 C552 1.387 . S
C553 C554 1.401 . S
C553 H574 0.930 . S
C554 C553 1.401 . S
C554 C555 1.376 . S
C554 C563 1.511 . S
C555 C554 1.376 . S
C555 C556 1.392 . S
C555 H576 0.931 . S
C556 C555 1.392 . S
C556 C557 1.361 . S
C556 C558 1.500 . S
C557 C552 1.390 . S
C557 C556 1.361 . S
C557 H575 0.931 . S
C558 C556 1.500 . S
C558 C559 1.371 . S
C558 C560 1.365 . S
C559 C558 1.371 . S
C559 C569 1.386 . S
C559 H577 0.931 . S
C560 C558 1.365 . S
C560 C561 1.409 . S
C560 H578 0.929 . S
C561 C560 1.409 . S
C561 C562 1.380 . S
C561 H579 0.930 . S
C562 C561 1.380 . S
C562 C569 1.357 . S
C563 C554 1.511 . S
C563 C564 1.341 . S
C563 C565 1.371 . S
C564 C563 1.341 . S
C564 C568 1.394 . S
C564 H580 0.930 . S
C565 C563 1.371 . S
C565 C566 1.392 . S
C565 H581 0.931 . S
C566 C565 1.392 . S
C566 C567 1.331 . S
C566 H584 0.932 . S
C567 C566 1.331 . S
C567 C568 1.336 . S
C568 C564 1.394 . S
C568 C567 1.336 . S
C568 H583 0.929 . S
C569 C559 1.386 . S
C569 C562 1.357 . S
C569 H582 0.928 . S
H570 C546 0.931 . S
H571 C548 0.930 . S
H572 C550 0.929 . S
H573 C551 0.931 . S
H574 C553 0.930 . S
H575 C557 0.931 . S
H576 C555 0.931 . S
H577 C559 0.931 . S
H578 C560 0.929 . S
H579 C561 0.930 . S
H580 C564 0.930 . S
H581 C565 0.931 . S
H582 C569 0.928 . S
H583 C568 0.929 . S
H584 C566 0.932 . S
C585 C586 1.386 . S
C585 C587 1.397 . S
C585 H609 0.931 . S
C586 C585 1.386 . S
C586 C590 1.397 . S
C587 C585 1.397 . S
C587 C588 1.384 . S
C587 H610 0.930 . S
C588 C587 1.384 . S
C588 C589 1.377 . S
C588 C591 1.481 . S
C589 C588 1.377 . S
C589 C590 1.389 . S
C589 H611 0.929 . S
C590 C586 1.397 . S
C590 C589 1.389 . S
C590 H612 0.931 . S
C591 C588 1.481 . S
C591 C592 1.387 . S
C591 C596 1.390 . S
C592 C591 1.387 . S
C592 C593 1.401 . S
C592 H613 0.930 . S
C593 C592 1.401 . S
C593 C594 1.376 . S
C593 C602 1.511 . S
C594 C593 1.376 . S
C594 C595 1.392 . S
C594 H615 0.931 . S
C595 C594 1.392 . S
C595 C596 1.361 . S
C595 C597 1.500 . S
C596 C591 1.390 . S
C596 C595 1.361 . S
C596 H614 0.931 . S
C597 C595 1.500 . S
C597 C598 1.371 . S
C597 C599 1.365 . S
C598 C597 1.371 . S
C598 C608 1.386 . S
C598 H616 0.931 . S
C599 C597 1.365 . S
C599 C600 1.409 . S
C599 H617 0.929 . S
C600 C599 1.409 . S
C600 C601 1.380 . S
C600 H618 0.930 . S
C601 C600 1.380 . S
C601 C608 1.357 . S
C602 C593 1.511 . S
C602 C603 1.341 . S
C602 C604 1.371 . S
C603 C602 1.341 . S
C603 C607 1.394 . S
C603 H619 0.930 . S
C604 C602 1.371 . S
C604 C605 1.392 . S
C604 H620 0.931 . S
C605 C604 1.392 . S
C605 C606 1.331 . S
C605 H623 0.932 . S
C606 C605 1.331 . S
C606 C607 1.336 . S
C607 C603 1.394 . S
C607 C606 1.336 . S
C607 H622 0.929 . S
C608 C598 1.386 . S
C608 C601 1.357 . S
C608 H621 0.928 . S
H609 C585 0.931 . S
H610 C587 0.930 . S
H611 C589 0.929 . S
H612 C590 0.931 . S
H613 C592 0.930 . S
H614 C596 0.931 . S
H615 C594 0.931 . S
H616 C598 0.931 . S
H617 C599 0.929 . S
H618 C600 0.930 . S
H619 C603 0.930 . S
H620 C604 0.931 . S
H621 C608 0.928 . S
H622 C607 0.929 . S
H623 C605 0.932 . S
C624 C625 1.386 . S
C624 C626 1.397 . S
C624 H648 0.931 1_455 S
C625 C624 1.386 . S
C625 C629 1.397 . S
C626 C624 1.397 . S
C626 C627 1.384 . S
C626 H649 0.930 . S
C627 C626 1.384 . S
C627 C628 1.377 . S
C627 C630 1.481 . S
C628 C627 1.377 . S
C628 C629 1.389 . S
C628 H650 0.929 . S
C629 C625 1.397 . S
C629 C628 1.389 . S
C629 H651 0.931 . S
C630 C627 1.481 . S
C630 C631 1.387 . S
C630 C635 1.390 . S
C631 C630 1.387 . S
C631 C632 1.401 . S
C631 H652 0.930 . S
C632 C631 1.401 . S
C632 C633 1.376 . S
C632 C641 1.511 . S
C633 C632 1.376 . S
C633 C634 1.392 . S
C633 H654 0.931 . S
C634 C633 1.392 . S
C634 C635 1.361 . S
C634 C636 1.500 . S
C635 C630 1.390 . S
C635 C634 1.361 . S
C635 H653 0.931 . S
C636 C634 1.500 . S
C636 C637 1.371 . S
C636 C638 1.365 . S
C637 C636 1.371 . S
C637 C647 1.386 . S
C637 H655 0.931 . S
C638 C636 1.365 . S
C638 C639 1.409 . S
C638 H656 0.929 . S
C639 C638 1.409 . S
C639 C640 1.380 . S
C639 H657 0.930 . S
C640 C639 1.380 . S
C640 C647 1.357 . S
C641 C632 1.511 . S
C641 C642 1.341 . S
C641 C643 1.371 . S
C642 C641 1.341 . S
C642 C646 1.394 . S
C642 H658 0.930 . S
C643 C641 1.371 . S
C643 C644 1.392 . S
C643 H659 0.931 . S
C644 C643 1.392 . S
C644 C645 1.331 . S
C644 H662 0.932 . S
C645 C644 1.331 . S
C645 C646 1.336 . S
C646 C642 1.394 . S
C646 C645 1.336 . S
C646 H661 0.929 . S
C647 C637 1.386 . S
C647 C640 1.357 . S
C647 H660 0.928 . S
H648 C624 0.931 1_655 S
H649 C626 0.930 . S
H650 C628 0.929 . S
H651 C629 0.931 . S
H652 C631 0.930 . S
H653 C635 0.931 . S
H654 C633 0.931 . S
H655 C637 0.931 . S
H656 C638 0.929 . S
H657 C639 0.930 . S
H658 C642 0.930 . S
H659 C643 0.931 . S
H660 C647 0.928 . S
H661 C646 0.929 . S
H662 C644 0.932 . S
C663 C664 1.386 . S
C663 C665 1.397 . S
C663 H687 0.931 . S
C664 C663 1.386 . S
C664 C668 1.397 . S
C665 C663 1.397 . S
C665 C666 1.384 . S
C665 H688 0.930 . S
C666 C665 1.384 . S
C666 C667 1.377 . S
C666 C669 1.481 . S
C667 C666 1.377 . S
C667 C668 1.389 . S
C667 H689 0.929 . S
C668 C664 1.397 . S
C668 C667 1.389 . S
C668 H690 0.931 . S
C669 C666 1.481 . S
C669 C670 1.387 . S
C669 C674 1.390 . S
C670 C669 1.387 . S
C670 C671 1.401 . S
C670 H691 0.930 . S
C671 C670 1.401 . S
C671 C672 1.376 . S
C671 C680 1.511 . S
C672 C671 1.376 . S
C672 C673 1.392 . S
C672 H693 0.931 . S
C673 C672 1.392 . S
C673 C674 1.361 . S
C673 C675 1.500 . S
C674 C669 1.390 . S
C674 C673 1.361 . S
C674 H692 0.931 . S
C675 C673 1.500 . S
C675 C676 1.371 . S
C675 C677 1.365 . S
C676 C675 1.371 . S
C676 C686 1.386 . S
C676 H694 0.931 . S
C677 C675 1.365 . S
C677 C678 1.409 . S
C677 H695 0.929 . S
C678 C677 1.409 . S
C678 C679 1.380 . S
C678 H696 0.930 . S
C679 C678 1.380 . S
C679 C686 1.357 . S
C680 C671 1.511 . S
C680 C681 1.341 . S
C680 C682 1.371 . S
C681 C680 1.341 . S
C681 C685 1.394 . S
C681 H697 0.930 . S
C682 C680 1.371 . S
C682 C683 1.392 . S
C682 H698 0.931 . S
C683 C682 1.392 . S
C683 C684 1.331 . S
C683 H701 0.932 . S
C684 C683 1.331 . S
C684 C685 1.336 . S
C685 C681 1.394 . S
C685 C684 1.336 . S
C685 H700 0.929 . S
C686 C676 1.386 . S
C686 C679 1.357 . S
C686 H699 0.928 . S
H687 C663 0.931 . S
H688 C665 0.930 . S
H689 C667 0.929 . S
H690 C668 0.931 . S
H691 C670 0.930 . S
H692 C674 0.931 . S
H693 C672 0.931 . S
H694 C676 0.931 . S
H695 C677 0.929 . S
H696 C678 0.930 . S
H697 C681 0.930 . S
H698 C682 0.931 . S
H699 C686 0.928 . S
H700 C685 0.929 . S
H701 C683 0.932 . S
Eu702 C711 2.828 . S
Eu702 O713 2.400 1_556 S
Eu702 O715 2.418 . S
Eu702 O720 2.373 1_565 S
Eu702 O723 2.488 . S
Eu702 O724 2.471 1_565 S
Eu702 O725 2.349 1_565 S
Eu703 O712 2.373 1_545 S
Eu703 O716 2.488 . S
Eu703 O717 2.436 1_545 S
Eu703 O718 2.349 1_545 S
Eu703 O721 2.392 . S
Eu703 O722 2.418 . S
Eu703 C732 2.828 . S
C704 O722 1.240 1_556 S
C704 O725 1.266 . S
C705 C706 1.379 1_565 S
C705 C709 1.373 . S
C705 C711 1.505 . S
C706 C705 1.379 1_545 S
C706 C708 1.369 . S
C706 H734 0.930 . S
C707 C709 1.383 . S
C707 C710 1.382 1_565 S
C707 H735 0.930 . S
C708 C706 1.369 . S
C708 C710 1.392 . S
C708 H736 0.930 . S
C709 C705 1.373 . S
C709 C707 1.383 . S
C709 H737 0.931 . S
C710 C707 1.382 1_545 S
C710 C708 1.392 . S
C711 Eu702 2.828 . S
C711 C705 1.505 . S
C711 O723 1.249 . S
C711 O724 1.244 1_565 S
O712 Eu703 2.373 1_565 S
O712 C714 1.258 . S
O713 Eu702 2.400 1_554 S
O713 C714 1.233 . S
C714 O712 1.258 . S
C714 O713 1.233 . S
O715 Eu702 2.418 . S
O715 C719 1.244 1_556 S
O716 Eu703 2.488 . S
O716 C732 1.249 . S
O717 Eu703 2.436 1_565 S
O717 C732 1.192 1_565 S
O718 Eu703 2.349 1_565 S
O718 C719 1.265 . S
C719 O715 1.244 1_554 S
C719 O718 1.265 . S
O720 Eu702 2.373 1_545 S
O720 C733 1.258 . S
O721 Eu703 2.392 . S
O721 C733 1.242 1_554 S
O722 Eu703 2.418 . S
O722 C704 1.240 1_554 S
O723 Eu702 2.488 . S
O723 C711 1.249 . S
O724 Eu702 2.471 1_545 S
O724 C711 1.244 1_545 S
O725 Eu702 2.349 1_545 S
O725 C704 1.266 . S
C726 C727 1.379 1_545 S
C726 C730 1.373 . S
C726 C732 1.505 . S
C727 C726 1.379 1_565 S
C727 C729 1.369 . S
C727 H738 0.930 . S
C728 C730 1.383 . S
C728 C731 1.382 1_545 S
C728 H739 0.930 . S
C729 C727 1.369 . S
C729 C731 1.392 . S
C729 H740 0.930 . S
C730 C726 1.373 . S
C730 C728 1.383 . S
C730 H741 0.931 . S
C731 C728 1.382 1_565 S
C731 C729 1.392 . S
C732 Eu703 2.828 . S
C732 O716 1.249 . S
C732 O717 1.192 1_545 S
C732 C726 1.505 . S
C733 O720 1.258 . S
C733 O721 1.242 1_556 S
H734 C706 0.930 . S
H735 C707 0.930 . S
H736 C708 0.930 . S
H737 C709 0.931 . S
H738 C727 0.930 . S
H739 C728 0.930 . S
H740 C729 0.930 . S
H741 C730 0.931 . S
Eu742 C751 2.828 . S
Eu742 O753 2.392 1_556 S
Eu742 O755 2.418 . S
Eu742 O760 2.373 1_455 S
Eu742 O763 2.488 . S
Eu742 O764 2.471 1_455 S
Eu742 O765 2.349 1_455 S
Eu743 O752 2.373 1_655 S
Eu743 O756 2.488 . S
Eu743 O757 2.471 1_655 S
Eu743 O758 2.349 1_655 S
Eu743 O761 2.422 . S
Eu743 O762 2.418 . S
Eu743 C772 2.828 . S
C744 O762 1.244 1_556 S
C744 O765 1.265 . S
C745 C746 1.379 1_455 S
C745 C749 1.373 . S
C745 C751 1.505 . S
C746 C745 1.379 1_655 S
C746 C748 1.369 . S
C746 H774 0.930 . S
C747 C749 1.383 . S
C747 C750 1.382 1_455 S
C747 H775 0.930 . S
C748 C746 1.369 . S
C748 C750 1.392 . S
C748 H776 0.930 . S
C749 C745 1.373 . S
C749 C747 1.383 . S
C749 H777 0.931 . S
C750 C747 1.382 1_655 S
C750 C748 1.392 . S
C751 Eu742 2.828 . S
C751 C745 1.505 . S
C751 O763 1.249 . S
C751 O764 1.244 1_455 S
O752 Eu743 2.373 1_455 S
O752 C754 1.258 . S
O753 Eu742 2.392 1_554 S
O753 C754 1.242 . S
C754 O752 1.258 . S
C754 O753 1.242 . S
O755 Eu742 2.418 . S
O755 C759 1.244 1_556 S
O756 Eu743 2.488 . S
O756 C772 1.249 . S
O757 Eu743 2.471 1_455 S
O757 C772 1.244 1_455 S
O758 Eu743 2.349 1_455 S
O758 C759 1.265 . S
C759 O755 1.244 1_554 S
C759 O758 1.265 . S
O760 Eu742 2.373 1_655 S
O760 C773 1.258 . S
O761 Eu743 2.422 . S
O761 C773 1.206 1_554 S
O762 Eu743 2.418 . S
O762 C744 1.244 1_554 S
O763 Eu742 2.488 . S
O763 C751 1.249 . S
O764 Eu742 2.471 1_655 S
O764 C751 1.244 1_655 S
O765 Eu742 2.349 1_655 S
O765 C744 1.265 . S
C766 C767 1.351 1_655 S
C766 C770 1.390 . S
C766 C772 1.518 . S
C767 C766 1.351 1_455 S
C767 C769 1.369 . S
C767 H778 0.930 . S
C768 C770 1.383 . S
C768 C771 1.382 1_655 S
C768 H779 0.930 . S
C769 C767 1.369 . S
C769 C771 1.392 . S
C769 H780 0.930 . S
C770 C766 1.390 . S
C770 C768 1.383 . S
C770 H781 0.931 . S
C771 C768 1.382 1_455 S
C771 C769 1.392 . S
C772 Eu743 2.828 . S
C772 O756 1.249 . S
C772 O757 1.244 1_655 S
C772 C766 1.518 . S
C773 O760 1.258 . S
C773 O761 1.206 1_556 S
H774 C746 0.930 . S
H775 C747 0.930 . S
H776 C748 0.930 . S
H777 C749 0.931 . S
H778 C767 0.930 . S
H779 C768 0.930 . S
H780 C769 0.930 . S
H781 C770 0.931 . S
Eu782 C791 2.828 . S
Eu782 O793 2.392 . S
Eu782 O795 2.418 . S
Eu782 O800 2.373 . S
Eu782 O803 2.488 . S
Eu782 O804 2.471 . S
Eu782 O805 2.349 . S
Eu783 O792 2.373 . S
Eu783 O796 2.488 . S
Eu783 O797 2.471 . S
Eu783 O798 2.349 . S
Eu783 O801 2.392 1_556 S
Eu783 O802 2.418 . S
Eu783 C812 2.828 . S
C784 O802 1.244 1_554 S
C784 O805 1.265 . S
C785 C786 1.379 . S
C785 C789 1.373 . S
C785 C791 1.505 . S
C786 C785 1.379 . S
C786 C788 1.369 . S
C786 H814 0.930 . S
C787 C789 1.383 . S
C787 C790 1.382 . S
C787 H815 0.930 . S
C788 C786 1.369 . S
C788 C790 1.392 . S
C788 H816 0.930 . S
C789 C785 1.373 . S
C789 C787 1.383 . S
C789 H817 0.931 . S
C790 C787 1.382 . S
C790 C788 1.392 . S
C791 Eu782 2.828 . S
C791 C785 1.505 . S
C791 O803 1.249 . S
C791 O804 1.244 . S
O792 Eu783 2.373 . S
O792 C794 1.258 . S
O793 Eu782 2.392 . S
O793 C794 1.242 1_554 S
C794 O792 1.258 . S
C794 O793 1.242 1_556 S
O795 Eu782 2.418 . S
O795 C799 1.244 1_554 S
O796 Eu783 2.488 . S
O796 C812 1.249 . S
O797 Eu783 2.471 . S
O797 C812 1.244 . S
O798 Eu783 2.349 . S
O798 C799 1.265 . S
C799 O795 1.244 1_556 S
C799 O798 1.265 . S
O800 Eu782 2.373 . S
O800 C813 1.258 . S
O801 Eu783 2.392 1_554 S
O801 C813 1.242 . S
O802 Eu783 2.418 . S
O802 C784 1.244 1_556 S
O803 Eu782 2.488 . S
O803 C791 1.249 . S
O804 Eu782 2.471 . S
O804 C791 1.244 . S
O805 Eu782 2.349 . S
O805 C784 1.265 . S
C806 C807 1.379 . S
C806 C810 1.373 . S
C806 C812 1.505 . S
C807 C806 1.379 . S
C807 C809 1.369 . S
C807 H818 0.930 . S
C808 C810 1.383 . S
C808 C811 1.382 . S
C808 H819 0.930 . S
C809 C807 1.369 . S
C809 C811 1.392 . S
C809 H820 0.930 . S
C810 C806 1.373 . S
C810 C808 1.383 . S
C810 H821 0.931 . S
C811 C808 1.382 . S
C811 C809 1.392 . S
C812 Eu783 2.828 . S
C812 O796 1.249 . S
C812 O797 1.244 . S
C812 C806 1.505 . S
C813 O800 1.258 . S
C813 O801 1.242 . S
H814 C786 0.930 . S
H815 C787 0.930 . S
H816 C788 0.930 . S
H817 C789 0.931 . S
H818 C807 0.930 . S
H819 C808 0.930 . S
H820 C809 0.930 . S
H821 C810 0.931 . S
Eu822 C831 2.828 . S
Eu822 O833 2.392 . S
Eu822 O835 2.418 . S
Eu822 O840 2.373 . S
Eu822 O843 2.488 . S
Eu822 O844 2.471 . S
Eu822 O845 2.349 . S
Eu823 O832 2.373 . S
Eu823 O836 2.488 . S
Eu823 O837 2.471 . S
Eu823 O838 2.349 . S
Eu823 O841 2.392 . S
Eu823 O842 2.418 . S
Eu823 C852 2.828 . S
C824 O842 1.244 . S
C824 O845 1.265 . S
C825 C826 1.379 . S
C825 C829 1.373 . S
C825 C831 1.505 . S
C826 C825 1.379 . S
C826 C828 1.369 . S
C826 H854 0.930 . S
C827 C829 1.383 . S
C827 C830 1.382 . S
C827 H855 0.930 . S
C828 C826 1.369 . S
C828 C830 1.392 . S
C828 H856 0.930 . S
C829 C825 1.373 . S
C829 C827 1.383 . S
C829 H857 0.931 . S
C830 C827 1.382 . S
C830 C828 1.392 . S
C831 Eu822 2.828 . S
C831 C825 1.505 . S
C831 O843 1.249 . S
C831 O844 1.244 . S
O832 Eu823 2.373 . S
O832 C834 1.258 . S
O833 Eu822 2.392 . S
O833 C834 1.242 . S
C834 O832 1.258 . S
C834 O833 1.242 . S
O835 Eu822 2.418 . S
O835 C839 1.244 . S
O836 Eu823 2.488 . S
O836 C852 1.249 . S
O837 Eu823 2.471 . S
O837 C852 1.244 . S
O838 Eu823 2.349 . S
O838 C839 1.265 . S
C839 O835 1.244 . S
C839 O838 1.265 . S
O840 Eu822 2.373 . S
O840 C853 1.258 . S
O841 Eu823 2.392 . S
O841 C853 1.242 . S
O842 Eu823 2.418 . S
O842 C824 1.244 . S
O843 Eu822 2.488 . S
O843 C831 1.249 . S
O844 Eu822 2.471 . S
O844 C831 1.244 . S
O845 Eu822 2.349 . S
O845 C824 1.265 . S
C846 C847 1.379 . S
C846 C850 1.373 . S
C846 C852 1.505 . S
C847 C846 1.379 . S
C847 C849 1.369 . S
C847 H858 0.930 . S
C848 C850 1.383 . S
C848 C851 1.382 . S
C848 H859 0.930 . S
C849 C847 1.369 . S
C849 C851 1.392 . S
C849 H860 0.930 . S
C850 C846 1.373 . S
C850 C848 1.383 . S
C850 H861 0.931 . S
C851 C848 1.382 . S
C851 C849 1.392 . S
C852 Eu823 2.828 . S
C852 O836 1.249 . S
C852 O837 1.244 . S
C852 C846 1.505 . S
C853 O840 1.258 . S
C853 O841 1.242 . S
H854 C826 0.930 . S
H855 C827 0.930 . S
H856 C828 0.930 . S
H857 C829 0.931 . S
H858 C847 0.930 . S
H859 C848 0.930 . S
H860 C849 0.930 . S
H861 C850 0.931 . S
Eu862 C871 2.828 . S
Eu862 O873 2.392 . S
Eu862 O875 2.418 . S
Eu862 O880 2.373 . S
Eu862 O883 2.488 . S
Eu862 O884 2.471 . S
Eu862 O885 2.349 . S
Eu863 O872 2.373 . S
Eu863 O876 2.488 . S
Eu863 O877 2.471 . S
Eu863 O878 2.349 . S
Eu863 O881 2.392 . S
Eu863 O882 2.418 . S
Eu863 C892 2.828 . S
C864 O882 1.244 . S
C864 O885 1.265 . S
C865 C866 1.379 . S
C865 C869 1.373 . S
C865 C871 1.505 . S
C866 C865 1.379 . S
C866 C868 1.369 . S
C866 H894 0.930 . S
C867 C869 1.383 . S
C867 C870 1.382 . S
C867 H895 0.930 . S
C868 C866 1.369 . S
C868 C870 1.392 . S
C868 H896 0.930 . S
C869 C865 1.373 . S
C869 C867 1.383 . S
C869 H897 0.931 . S
C870 C867 1.382 . S
C870 C868 1.392 . S
C871 Eu862 2.828 . S
C871 C865 1.505 . S
C871 O883 1.249 . S
C871 O884 1.244 . S
O872 Eu863 2.373 . S
O872 C874 1.258 . S
O873 Eu862 2.392 . S
O873 C874 1.242 . S
C874 O872 1.258 . S
C874 O873 1.242 . S
O875 Eu862 2.418 . S
O875 C879 1.244 . S
O876 Eu863 2.488 . S
O876 C892 1.249 . S
O877 Eu863 2.471 . S
O877 C892 1.244 . S
O878 Eu863 2.349 . S
O878 C879 1.265 . S
C879 O875 1.244 . S
C879 O878 1.265 . S
O880 Eu862 2.373 . S
O880 C893 1.258 . S
O881 Eu863 2.392 . S
O881 C893 1.242 . S
O882 Eu863 2.418 . S
O882 C864 1.244 . S
O883 Eu862 2.488 . S
O883 C871 1.249 . S
O884 Eu862 2.471 . S
O884 C871 1.244 . S
O885 Eu862 2.349 . S
O885 C864 1.265 . S
C886 C887 1.379 . S
C886 C890 1.373 . S
C886 C892 1.505 . S
C887 C886 1.379 . S
C887 C889 1.369 . S
C887 H898 0.930 . S
C888 C890 1.383 . S
C888 C891 1.382 . S
C888 H899 0.930 . S
C889 C887 1.369 . S
C889 C891 1.392 . S
C889 H900 0.930 . S
C890 C886 1.373 . S
C890 C888 1.383 . S
C890 H901 0.931 . S
C891 C888 1.382 . S
C891 C889 1.392 . S
C892 Eu863 2.828 . S
C892 O876 1.249 . S
C892 O877 1.244 . S
C892 C886 1.505 . S
C893 O880 1.258 . S
C893 O881 1.242 . S
H894 C866 0.930 . S
H895 C867 0.930 . S
H896 C868 0.930 . S
H897 C869 0.931 . S
H898 C887 0.930 . S
H899 C888 0.930 . S
H900 C889 0.930 . S
H901 C890 0.931 . S
Eu902 C911 2.828 . S
Eu902 O913 2.392 . S
Eu902 O915 2.418 . S
Eu902 O920 2.373 . S
Eu902 O923 2.488 . S
Eu902 O924 2.471 . S
Eu902 O925 2.349 . S
Eu903 O912 2.373 . S
Eu903 O916 2.488 . S
Eu903 O917 2.471 . S
Eu903 O918 2.349 . S
Eu903 O921 2.392 . S
Eu903 O922 2.418 . S
Eu903 C932 2.828 . S
C904 O922 1.244 . S
C904 O925 1.265 . S
C905 C906 1.379 . S
C905 C909 1.373 . S
C905 C911 1.505 . S
C906 C905 1.379 . S
C906 C908 1.369 . S
C906 H934 0.930 . S
C907 C909 1.383 . S
C907 C910 1.382 . S
C907 H935 0.930 . S
C908 C906 1.369 . S
C908 C910 1.392 . S
C908 H936 0.930 . S
C909 C905 1.373 . S
C909 C907 1.383 . S
C909 H937 0.931 . S
C910 C907 1.382 . S
C910 C908 1.392 . S
C911 Eu902 2.828 . S
C911 C905 1.505 . S
C911 O923 1.249 . S
C911 O924 1.244 . S
O912 Eu903 2.373 . S
O912 C914 1.258 . S
O913 Eu902 2.392 . S
O913 C914 1.242 . S
C914 O912 1.258 . S
C914 O913 1.242 . S
O915 Eu902 2.418 . S
O915 C919 1.244 . S
O916 Eu903 2.488 . S
O916 C932 1.249 . S
O917 Eu903 2.471 . S
O917 C932 1.244 . S
O918 Eu903 2.349 . S
O918 C919 1.265 . S
C919 O915 1.244 . S
C919 O918 1.265 . S
O920 Eu902 2.373 . S
O920 C933 1.258 . S
O921 Eu903 2.392 . S
O921 C933 1.242 . S
O922 Eu903 2.418 . S
O922 C904 1.244 . S
O923 Eu902 2.488 . S
O923 C911 1.249 . S
O924 Eu902 2.471 . S
O924 C911 1.244 . S
O925 Eu902 2.349 . S
O925 C904 1.265 . S
C926 C927 1.379 . S
C926 C930 1.373 . S
C926 C932 1.505 . S
C927 C926 1.379 . S
C927 C929 1.369 . S
C927 H938 0.930 . S
C928 C930 1.383 . S
C928 C931 1.382 . S
C928 H939 0.930 . S
C929 C927 1.369 . S
C929 C931 1.392 . S
C929 H940 0.930 . S
C930 C926 1.373 . S
C930 C928 1.383 . S
C930 H941 0.931 . S
C931 C928 1.382 . S
C931 C929 1.392 . S
C932 Eu903 2.828 . S
C932 O916 1.249 . S
C932 O917 1.244 . S
C932 C926 1.505 . S
C933 O920 1.258 . S
C933 O921 1.242 . S
H934 C906 0.930 . S
H935 C907 0.930 . S
H936 C908 0.930 . S
H937 C909 0.931 . S
H938 C927 0.930 . S
H939 C928 0.930 . S
H940 C929 0.930 . S
H941 C930 0.931 . S
Eu942 C951 2.828 . S
Eu942 O953 2.392 . S
Eu942 O955 2.418 . S
Eu942 O960 2.373 . S
Eu942 O963 2.488 . S
Eu942 O964 2.471 . S
Eu942 O965 2.349 . S
Eu943 O952 2.373 . S
Eu943 O956 2.488 . S
Eu943 O957 2.471 . S
Eu943 O958 2.349 . S
Eu943 O961 2.392 . S
Eu943 O962 2.418 . S
Eu943 C972 2.828 . S
C944 O962 1.244 . S
C944 O965 1.265 . S
C945 C946 1.379 . S
C945 C949 1.373 . S
C945 C951 1.505 . S
C946 C945 1.379 . S
C946 C948 1.369 . S
C946 H974 0.930 . S
C947 C949 1.383 . S
C947 C950 1.382 . S
C947 H975 0.930 . S
C948 C946 1.369 . S
C948 C950 1.392 . S
C948 H976 0.930 . S
C949 C945 1.373 . S
C949 C947 1.383 . S
C949 H977 0.931 . S
C950 C947 1.382 . S
C950 C948 1.392 . S
C951 Eu942 2.828 . S
C951 C945 1.505 . S
C951 O963 1.249 . S
C951 O964 1.244 . S
O952 Eu943 2.373 . S
O952 C954 1.258 . S
O953 Eu942 2.392 . S
O953 C954 1.242 . S
C954 O952 1.258 . S
C954 O953 1.242 . S
O955 Eu942 2.418 . S
O955 C959 1.244 . S
O956 Eu943 2.488 . S
O956 C972 1.249 . S
O957 Eu943 2.471 . S
O957 C972 1.244 . S
O958 Eu943 2.349 . S
O958 C959 1.265 . S
C959 O955 1.244 . S
C959 O958 1.265 . S
O960 Eu942 2.373 . S
O960 C973 1.258 . S
O961 Eu943 2.392 . S
O961 C973 1.242 . S
O962 Eu943 2.418 . S
O962 C944 1.244 . S
O963 Eu942 2.488 . S
O963 C951 1.249 . S
O964 Eu942 2.471 . S
O964 C951 1.244 . S
O965 Eu942 2.349 . S
O965 C944 1.265 . S
C966 C967 1.379 . S
C966 C970 1.373 . S
C966 C972 1.505 . S
C967 C966 1.379 . S
C967 C969 1.369 . S
C967 H978 0.930 . S
C968 C970 1.383 . S
C968 C971 1.382 . S
C968 H979 0.930 . S
C969 C967 1.369 . S
C969 C971 1.392 . S
C969 H980 0.930 . S
C970 C966 1.373 . S
C970 C968 1.383 . S
C970 H981 0.931 . S
C971 C968 1.382 . S
C971 C969 1.392 . S
C972 Eu943 2.828 . S
C972 O956 1.249 . S
C972 O957 1.244 . S
C972 C966 1.505 . S
C973 O960 1.258 . S
C973 O961 1.242 . S
H974 C946 0.930 . S
H975 C947 0.930 . S
H976 C948 0.930 . S
H977 C949 0.931 . S
H978 C967 0.930 . S
H979 C968 0.930 . S
H980 C969 0.930 . S
H981 C970 0.931 . S
Eu982 C991 2.828 . S
Eu982 O993 2.392 . S
Eu982 O995 2.418 . S
Eu982 O1000 2.373 . S
Eu982 O1003 2.488 . S
Eu982 O1004 2.471 . S
Eu982 O1005 2.349 . S
Eu983 O992 2.373 . S
Eu983 O996 2.488 . S
Eu983 O997 2.471 . S
Eu983 O998 2.349 . S
Eu983 O1001 2.392 . S
Eu983 O1002 2.418 . S
Eu983 C1012 2.828 . S
C984 O1002 1.244 . S
C984 O1005 1.265 . S
C985 C986 1.379 . S
C985 C989 1.373 . S
C985 C991 1.505 . S
C986 C985 1.379 . S
C986 C988 1.369 . S
C986 H1014 0.930 . S
C987 C989 1.383 . S
C987 C990 1.382 . S
C987 H1015 0.930 . S
C988 C986 1.369 . S
C988 C990 1.392 . S
C988 H1016 0.930 . S
C989 C985 1.373 . S
C989 C987 1.383 . S
C989 H1017 0.931 . S
C990 C987 1.382 . S
C990 C988 1.392 . S
C991 Eu982 2.828 . S
C991 C985 1.505 . S
C991 O1003 1.249 . S
C991 O1004 1.244 . S
O992 Eu983 2.373 . S
O992 C994 1.258 . S
O993 Eu982 2.392 . S
O993 C994 1.242 . S
C994 O992 1.258 . S
C994 O993 1.242 . S
O995 Eu982 2.418 . S
O995 C999 1.244 . S
O996 Eu983 2.488 . S
O996 C1012 1.249 . S
O997 Eu983 2.471 . S
O997 C1012 1.244 . S
O998 Eu983 2.349 . S
O998 C999 1.265 . S
C999 O995 1.244 . S
C999 O998 1.265 . S
O1000 Eu982 2.373 . S
O1000 C1013 1.258 . S
O1001 Eu983 2.392 . S
O1001 C1013 1.242 . S
O1002 Eu983 2.418 . S
O1002 C984 1.244 . S
O1003 Eu982 2.488 . S
O1003 C991 1.249 . S
O1004 Eu982 2.471 . S
O1004 C991 1.244 . S
O1005 Eu982 2.349 . S
O1005 C984 1.265 . S
C1006 C1007 1.379 . S
C1006 C1010 1.373 . S
C1006 C1012 1.505 . S
C1007 C1006 1.379 . S
C1007 C1009 1.369 . S
C1007 H1018 0.930 . S
C1008 C1010 1.383 . S
C1008 C1011 1.382 . S
C1008 H1019 0.930 . S
C1009 C1007 1.369 . S
C1009 C1011 1.392 . S
C1009 H1020 0.930 . S
C1010 C1006 1.373 . S
C1010 C1008 1.383 . S
C1010 H1021 0.931 . S
C1011 C1008 1.382 . S
C1011 C1009 1.392 . S
C1012 Eu983 2.828 . S
C1012 O996 1.249 . S
C1012 O997 1.244 . S
C1012 C1006 1.505 . S
C1013 O1000 1.258 . S
C1013 O1001 1.242 . S
H1014 C986 0.930 . S
H1015 C987 0.930 . S
H1016 C988 0.930 . S
H1017 C989 0.931 . S
H1018 C1007 0.930 . S
H1019 C1008 0.930 . S
H1020 C1009 0.930 . S
H1021 C1010 0.931 . S
Eu1022 C1031 2.828 . S
Eu1022 O1033 2.392 . S
Eu1022 O1035 2.418 . S
Eu1022 O1040 2.373 . S
Eu1022 O1043 2.488 . S
Eu1022 O1044 2.471 . S
Eu1022 O1045 2.349 . S
Eu1023 O1032 2.373 . S
Eu1023 O1036 2.488 . S
Eu1023 O1037 2.471 . S
Eu1023 O1038 2.349 . S
Eu1023 O1041 2.392 . S
Eu1023 O1042 2.418 . S
Eu1023 C1052 2.828 . S
C1024 O1042 1.244 . S
C1024 O1045 1.265 . S
C1025 C1026 1.379 . S
C1025 C1029 1.373 . S
C1025 C1031 1.505 . S
C1026 C1025 1.379 . S
C1026 C1028 1.369 . S
C1026 H1054 0.930 . S
C1027 C1029 1.383 . S
C1027 C1030 1.382 . S
C1027 H1055 0.930 . S
C1028 C1026 1.369 . S
C1028 C1030 1.392 . S
C1028 H1056 0.930 . S
C1029 C1025 1.373 . S
C1029 C1027 1.383 . S
C1029 H1057 0.931 . S
C1030 C1027 1.382 . S
C1030 C1028 1.392 . S
C1031 Eu1022 2.828 . S
C1031 C1025 1.505 . S
C1031 O1043 1.249 . S
C1031 O1044 1.244 . S
O1032 Eu1023 2.373 . S
O1032 C1034 1.258 . S
O1033 Eu1022 2.392 . S
O1033 C1034 1.242 . S
C1034 O1032 1.258 . S
C1034 O1033 1.242 . S
O1035 Eu1022 2.418 . S
O1035 C1039 1.244 . S
O1036 Eu1023 2.488 . S
O1036 C1052 1.249 . S
O1037 Eu1023 2.471 . S
O1037 C1052 1.244 . S
O1038 Eu1023 2.349 . S
O1038 C1039 1.265 . S
C1039 O1035 1.244 . S
C1039 O1038 1.265 . S
O1040 Eu1022 2.373 . S
O1040 C1053 1.258 . S
O1041 Eu1023 2.392 . S
O1041 C1053 1.242 . S
O1042 Eu1023 2.418 . S
O1042 C1024 1.244 . S
O1043 Eu1022 2.488 . S
O1043 C1031 1.249 . S
O1044 Eu1022 2.471 . S
O1044 C1031 1.244 . S
O1045 Eu1022 2.349 . S
O1045 C1024 1.265 . S
C1046 C1047 1.379 . S
C1046 C1050 1.373 . S
C1046 C1052 1.505 . S
C1047 C1046 1.379 . S
C1047 C1049 1.369 . S
C1047 H1058 0.930 . S
C1048 C1050 1.383 . S
C1048 C1051 1.382 . S
C1048 H1059 0.930 . S
C1049 C1047 1.369 . S
C1049 C1051 1.392 . S
C1049 H1060 0.930 . S
C1050 C1046 1.373 . S
C1050 C1048 1.383 . S
C1050 H1061 0.931 . S
C1051 C1048 1.382 . S
C1051 C1049 1.392 . S
C1052 Eu1023 2.828 . S
C1052 O1036 1.249 . S
C1052 O1037 1.244 . S
C1052 C1046 1.505 . S
C1053 O1040 1.258 . S
C1053 O1041 1.242 . S
H1054 C1026 0.930 . S
H1055 C1027 0.930 . S
H1056 C1028 0.930 . S
H1057 C1029 0.931 . S
H1058 C1047 0.930 . S
H1059 C1048 0.930 . S
H1060 C1049 0.930 . S
H1061 C1050 0.931 . S
H1062 C1070 0.929 . S
H1063 C1072 0.930 . S
H1064 C1074 0.930 . S
H1065 C1077 0.929 . S
H1066 C1080 0.930 . S
H1067 C1082 0.960 . S
H1068 C1082 0.960 . S
H1069 C1082 0.960 . S
C1070 H1062 0.929 . S
C1070 C1071 1.377 . S
C1070 C1072 1.384 . S
C1071 C1070 1.377 . S
C1071 C1077 1.390 . S
C1072 H1063 0.930 . S
C1072 C1070 1.384 . S
C1072 C1073 1.372 . S
C1073 C1072 1.372 . S
C1073 C1074 1.400 . S
C1073 C1078 1.490 . S
C1074 H1064 0.930 . S
C1074 C1073 1.400 . S
C1074 C1077 1.386 . S
H1075 C1091 0.930 . S
H1076 C1092 0.931 . S
C1077 H1065 0.929 . S
C1077 C1071 1.390 . S
C1077 C1074 1.386 . S
C1078 C1073 1.490 . S
C1078 C1080 1.395 . S
C1078 C1081 1.403 . S
H1079 C1085 0.930 . S
C1080 H1066 0.930 . S
C1080 C1078 1.395 . S
C1080 C1083 1.403 . S
C1081 C1078 1.403 . S
C1081 C1082 1.524 . S
C1081 C1085 1.400 . S
C1082 H1067 0.960 . S
C1082 H1068 0.960 . S
C1082 H1069 0.960 . S
C1082 C1081 1.524 . S
C1083 C1080 1.403 . S
C1083 C1084 1.392 . S
C1083 C1087 1.495 . S
C1084 C1083 1.392 . S
C1084 C1085 1.385 . S
C1084 C1086 1.478 . S
C1085 H1079 0.930 . S
C1085 C1081 1.400 . S
C1085 C1084 1.385 . S
C1086 C1084 1.478 . S
C1086 C1088 1.381 . S
C1086 C1092 1.383 . S
C1087 C1083 1.495 . S
C1087 H1093 0.959 . S
C1087 H1094 0.961 . S
C1087 H1095 0.960 . S
C1088 C1086 1.381 . S
C1088 C1089 1.394 . S
C1088 H1096 0.930 . S
C1089 C1088 1.394 . S
C1089 C1090 1.383 . S
C1089 H1097 0.929 . S
C1090 C1089 1.383 . S
C1090 C1091 1.377 . S
C1091 H1075 0.930 . S
C1091 C1090 1.377 . S
C1091 C1092 1.379 . S
C1092 H1076 0.931 . S
C1092 C1086 1.383 . S
C1092 C1091 1.379 . S
H1093 C1087 0.959 . S
H1094 C1087 0.961 . S
H1095 C1087 0.960 . S
H1096 C1088 0.930 . S
H1097 C1089 0.929 . S
H1098 C1106 0.929 . S
H1099 C1108 0.930 . S
H1100 C1110 0.930 . S
H1101 C1113 0.929 . S
H1102 C1116 0.930 . S
H1103 C1118 0.960 . S
H1104 C1118 0.960 . S
H1105 C1118 0.960 . S
C1106 H1098 0.929 . S
C1106 C1107 1.377 . S
C1106 C1108 1.384 . S
C1107 C1106 1.377 . S
C1107 C1113 1.390 . S
C1108 H1099 0.930 . S
C1108 C1106 1.384 . S
C1108 C1109 1.372 . S
C1109 C1108 1.372 . S
C1109 C1110 1.400 . S
C1109 C1114 1.490 . S
C1110 H1100 0.930 . S
C1110 C1109 1.400 . S
C1110 C1113 1.386 . S
H1111 C1127 0.930 . S
H1112 C1128 0.931 . S
C1113 H1101 0.929 . S
C1113 C1107 1.390 . S
C1113 C1110 1.386 . S
C1114 C1109 1.490 . S
C1114 C1116 1.395 . S
C1114 C1117 1.403 . S
H1115 C1121 0.930 . S
C1116 H1102 0.930 . S
C1116 C1114 1.395 . S
C1116 C1119 1.403 . S
C1117 C1114 1.403 . S
C1117 C1118 1.524 . S
C1117 C1121 1.400 . S
C1118 H1103 0.960 . S
C1118 H1104 0.960 . S
C1118 H1105 0.960 . S
C1118 C1117 1.524 . S
C1119 C1116 1.403 . S
C1119 C1120 1.392 . S
C1119 C1123 1.495 . S
C1120 C1119 1.392 . S
C1120 C1121 1.385 . S
C1120 C1122 1.478 . S
C1121 H1115 0.930 . S
C1121 C1117 1.400 . S
C1121 C1120 1.385 . S
C1122 C1120 1.478 . S
C1122 C1124 1.381 . S
C1122 C1128 1.383 . S
C1123 C1119 1.495 . S
C1123 H1129 0.959 . S
C1123 H1130 0.961 . S
C1123 H1131 0.960 . S
C1124 C1122 1.381 . S
C1124 C1125 1.394 . S
C1124 H1132 0.930 . S
C1125 C1124 1.394 . S
C1125 C1126 1.383 . S
C1125 H1133 0.929 . S
C1126 C1125 1.383 . S
C1126 C1127 1.377 . S
C1127 H1111 0.930 . S
C1127 C1126 1.377 . S
C1127 C1128 1.379 . S
C1128 H1112 0.931 . S
C1128 C1122 1.383 . S
C1128 C1127 1.379 . S
H1129 C1123 0.959 . S
H1130 C1123 0.961 . S
H1131 C1123 0.960 . S
H1132 C1124 0.930 . S
H1133 C1125 0.929 . S
H1134 C1142 0.929 . S
H1135 C1144 0.930 . S
H1136 C1146 0.930 . S
H1137 C1149 0.929 . S
H1138 C1152 0.930 . S
H1139 C1154 0.960 . S
H1140 C1154 0.960 . S
H1141 C1154 0.960 . S
C1142 H1134 0.929 . S
C1142 C1143 1.377 . S
C1142 C1144 1.384 . S
C1143 C1142 1.377 . S
C1143 C1149 1.390 . S
C1144 H1135 0.930 . S
C1144 C1142 1.384 . S
C1144 C1145 1.372 . S
C1145 C1144 1.372 . S
C1145 C1146 1.400 . S
C1145 C1150 1.490 . S
C1146 H1136 0.930 . S
C1146 C1145 1.400 . S
C1146 C1149 1.386 . S
H1147 C1163 0.930 . S
H1148 C1164 0.931 . S
C1149 H1137 0.929 . S
C1149 C1143 1.390 . S
C1149 C1146 1.386 . S
C1150 C1145 1.490 . S
C1150 C1152 1.395 . S
C1150 C1153 1.403 . S
H1151 C1157 0.930 . S
C1152 H1138 0.930 . S
C1152 C1150 1.395 . S
C1152 C1155 1.403 . S
C1153 C1150 1.403 . S
C1153 C1154 1.524 . S
C1153 C1157 1.400 . S
C1154 H1139 0.960 . S
C1154 H1140 0.960 . S
C1154 H1141 0.960 . S
C1154 C1153 1.524 . S
C1155 C1152 1.403 . S
C1155 C1156 1.392 . S
C1155 C1159 1.495 . S
C1156 C1155 1.392 . S
C1156 C1157 1.385 . S
C1156 C1158 1.478 . S
C1157 H1151 0.930 . S
C1157 C1153 1.400 . S
C1157 C1156 1.385 . S
C1158 C1156 1.478 . S
C1158 C1160 1.381 . S
C1158 C1164 1.383 . S
C1159 C1155 1.495 . S
C1159 H1165 0.959 . S
C1159 H1166 0.961 . S
C1159 H1167 0.960 . S
C1160 C1158 1.381 . S
C1160 C1161 1.394 . S
C1160 H1168 0.930 . S
C1161 C1160 1.394 . S
C1161 C1162 1.383 . S
C1161 H1169 0.929 . S
C1162 C1161 1.383 . S
C1162 C1163 1.377 . S
C1163 H1147 0.930 . S
C1163 C1162 1.377 . S
C1163 C1164 1.379 . S
C1164 H1148 0.931 . S
C1164 C1158 1.383 . S
C1164 C1163 1.379 . S
H1165 C1159 0.959 . S
H1166 C1159 0.961 . S
H1167 C1159 0.960 . S
H1168 C1160 0.930 . S
H1169 C1161 0.929 . S
H1170 C1178 0.929 . S
H1171 C1180 0.930 . S
H1172 C1182 0.930 . S
H1173 C1185 0.929 . S
H1174 C1188 0.930 . S
H1175 C1190 0.960 . S
H1176 C1190 0.960 . S
H1177 C1190 0.960 . S
C1178 H1170 0.929 . S
C1178 C1179 1.377 . S
C1178 C1180 1.384 . S
C1179 C1178 1.377 . S
C1179 C1185 1.390 . S
C1180 H1171 0.930 . S
C1180 C1178 1.384 . S
C1180 C1181 1.372 . S
C1181 C1180 1.372 . S
C1181 C1182 1.400 . S
C1181 C1186 1.490 . S
C1182 H1172 0.930 . S
C1182 C1181 1.400 . S
C1182 C1185 1.386 . S
H1183 C1199 0.930 . S
H1184 C1200 0.931 . S
C1185 H1173 0.929 . S
C1185 C1179 1.390 . S
C1185 C1182 1.386 . S
C1186 C1181 1.490 . S
C1186 C1188 1.395 . S
C1186 C1189 1.403 . S
H1187 C1193 0.930 . S
C1188 H1174 0.930 . S
C1188 C1186 1.395 . S
C1188 C1191 1.403 . S
C1189 C1186 1.403 . S
C1189 C1190 1.524 . S
C1189 C1193 1.400 . S
C1190 H1175 0.960 . S
C1190 H1176 0.960 . S
C1190 H1177 0.960 . S
C1190 C1189 1.524 . S
C1191 C1188 1.403 . S
C1191 C1192 1.392 . S
C1191 C1195 1.518 . S
C1192 C1191 1.392 . S
C1192 C1193 1.385 . S
C1192 C1194 1.478 . S
C1193 H1187 0.930 . S
C1193 C1189 1.400 . S
C1193 C1192 1.385 . S
C1194 C1192 1.478 . S
C1194 C1196 1.381 . S
C1194 C1200 1.383 . S
C1195 C1191 1.518 . S
C1195 H1201 0.947 1_556 S
C1195 H1202 0.972 . S
C1195 H1203 0.940 1_556 S
C1196 C1194 1.381 . S
C1196 C1197 1.404 . S
C1196 H1204 0.930 1_556 S
C1197 C1196 1.404 . S
C1197 C1198 1.431 . S
C1197 H1205 0.875 1_556 S
C1198 C1197 1.431 . S
C1198 C1199 1.377 . S
C1199 H1183 0.930 . S
C1199 C1198 1.377 . S
C1199 C1200 1.379 . S
C1200 H1184 0.931 . S
C1200 C1194 1.383 . S
C1200 C1199 1.379 . S
H1201 C1195 0.947 1_554 S
H1202 C1195 0.972 . S
H1203 C1195 0.940 1_554 S
H1204 C1196 0.930 1_554 S
H1205 C1197 0.875 1_554 S
H1206 C1214 0.929 . S
H1207 C1216 0.930 . S
H1208 C1218 0.930 . S
H1209 C1221 0.929 . S
H1210 C1224 0.930 . S
H1211 C1226 0.960 . S
H1212 C1226 0.960 . S
H1213 C1226 0.960 . S
C1214 H1206 0.929 . S
C1214 C1215 1.377 . S
C1214 C1216 1.384 . S
C1215 C1214 1.377 . S
C1215 C1221 1.390 . S
C1216 H1207 0.930 . S
C1216 C1214 1.384 . S
C1216 C1217 1.372 . S
C1217 C1216 1.372 . S
C1217 C1218 1.400 . S
C1217 C1222 1.490 . S
C1218 H1208 0.930 . S
C1218 C1217 1.400 . S
C1218 C1221 1.386 . S
H1219 C1235 0.930 . S
H1220 C1236 0.931 . S
C1221 H1209 0.929 . S
C1221 C1215 1.390 . S
C1221 C1218 1.386 . S
C1222 C1217 1.490 . S
C1222 C1224 1.395 . S
C1222 C1225 1.403 . S
H1223 C1229 0.930 . S
C1224 H1210 0.930 . S
C1224 C1222 1.395 . S
C1224 C1227 1.403 . S
C1225 C1222 1.403 . S
C1225 C1226 1.524 . S
C1225 C1229 1.400 . S
C1226 H1211 0.960 . S
C1226 H1212 0.960 . S
C1226 H1213 0.960 . S
C1226 C1225 1.524 . S
C1227 C1224 1.403 . S
C1227 C1228 1.392 . S
C1227 C1231 1.495 . S
C1228 C1227 1.392 . S
C1228 C1229 1.385 . S
C1228 C1230 1.478 . S
C1229 H1223 0.930 . S
C1229 C1225 1.400 . S
C1229 C1228 1.385 . S
C1230 C1228 1.478 . S
C1230 C1232 1.381 . S
C1230 C1236 1.383 . S
C1231 C1227 1.495 . S
C1231 H1237 0.959 . S
C1231 H1238 0.961 . S
C1231 H1239 0.960 . S
C1232 C1230 1.381 . S
C1232 C1233 1.394 . S
C1232 H1240 0.930 . S
C1233 C1232 1.394 . S
C1233 C1234 1.383 . S
C1233 H1241 0.929 . S
C1234 C1233 1.383 . S
C1234 C1235 1.377 . S
C1235 H1219 0.930 . S
C1235 C1234 1.377 . S
C1235 C1236 1.379 . S
C1236 H1220 0.931 . S
C1236 C1230 1.383 . S
C1236 C1235 1.379 . S
H1237 C1231 0.959 . S
H1238 C1231 0.961 . S
H1239 C1231 0.960 . S
H1240 C1232 0.930 . S
H1241 C1233 0.929 . S
H1242 C1250 0.929 . S
H1243 C1252 0.930 . S
H1244 C1254 0.930 . S
H1245 C1257 0.929 . S
H1246 C1260 0.930 . S
H1247 C1262 0.960 . S
H1248 C1262 0.960 . S
H1249 C1262 0.960 . S
C1250 H1242 0.929 . S
C1250 C1251 1.377 . S
C1250 C1252 1.384 . S
C1251 C1250 1.377 . S
C1251 C1257 1.390 . S
C1252 H1243 0.930 . S
C1252 C1250 1.384 . S
C1252 C1253 1.372 . S
C1253 C1252 1.372 . S
C1253 C1254 1.400 . S
C1253 C1258 1.490 . S
C1254 H1244 0.930 . S
C1254 C1253 1.400 . S
C1254 C1257 1.386 . S
H1255 C1271 0.930 . S
H1256 C1272 0.931 1_554 S
C1257 H1245 0.929 . S
C1257 C1251 1.390 . S
C1257 C1254 1.386 . S
C1258 C1253 1.490 . S
C1258 C1260 1.395 . S
C1258 C1261 1.403 . S
H1259 C1265 0.930 . S
C1260 H1246 0.930 . S
C1260 C1258 1.395 . S
C1260 C1263 1.403 . S
C1261 C1258 1.403 . S
C1261 C1262 1.524 . S
C1261 C1265 1.400 . S
C1262 H1247 0.960 . S
C1262 H1248 0.960 . S
C1262 H1249 0.960 . S
C1262 C1261 1.524 . S
C1263 C1260 1.403 . S
C1263 C1264 1.392 . S
C1263 C1267 1.495 . S
C1264 C1263 1.392 . S
C1264 C1265 1.385 . S
C1264 C1266 1.478 . S
C1265 H1259 0.930 . S
C1265 C1261 1.400 . S
C1265 C1264 1.385 . S
C1266 C1264 1.478 . S
C1266 C1268 1.381 . S
C1266 C1272 1.383 . S
C1267 C1263 1.495 . S
C1267 H1273 0.959 . S
C1267 H1274 0.961 . S
C1267 H1275 0.960 . S
C1268 C1266 1.381 . S
C1268 C1269 1.394 . S
C1268 H1276 0.930 . S
C1269 C1268 1.394 . S
C1269 C1270 1.383 . S
C1269 H1277 0.929 . S
C1270 C1269 1.383 . S
C1270 C1271 1.377 1_556 S
C1271 H1255 0.930 . S
C1271 C1270 1.377 1_554 S
C1271 C1272 1.379 1_554 S
C1272 H1256 0.931 1_556 S
C1272 C1266 1.383 . S
C1272 C1271 1.379 1_556 S
H1273 C1267 0.959 . S
H1274 C1267 0.961 . S
H1275 C1267 0.960 . S
H1276 C1268 0.930 . S
H1277 C1269 0.929 . S
H1278 C1286 0.929 . S
H1279 C1288 0.930 . S
H1280 C1290 0.930 . S
H1281 C1293 0.929 . S
H1282 C1296 0.930 . S
H1283 C1298 0.960 . S
H1284 C1298 0.960 . S
H1285 C1298 0.960 . S
C1286 H1278 0.929 . S
C1286 C1287 1.377 . S
C1286 C1288 1.384 . S
C1287 C1286 1.377 . S
C1287 C1293 1.390 . S
C1288 H1279 0.930 . S
C1288 C1286 1.384 . S
C1288 C1289 1.372 . S
C1289 C1288 1.372 . S
C1289 C1290 1.400 . S
C1289 C1294 1.490 . S
C1290 H1280 0.930 . S
C1290 C1289 1.400 . S
C1290 C1293 1.386 . S
H1291 C1307 0.930 . S
H1292 C1308 0.931 . S
C1293 H1281 0.929 . S
C1293 C1287 1.390 . S
C1293 C1290 1.386 . S
C1294 C1289 1.490 . S
C1294 C1296 1.395 . S
C1294 C1297 1.403 . S
H1295 C1301 0.930 . S
C1296 H1282 0.930 . S
C1296 C1294 1.395 . S
C1296 C1299 1.403 . S
C1297 C1294 1.403 . S
C1297 C1298 1.524 . S
C1297 C1301 1.400 . S
C1298 H1283 0.960 . S
C1298 H1284 0.960 . S
C1298 H1285 0.960 . S
C1298 C1297 1.524 . S
C1299 C1296 1.403 . S
C1299 C1300 1.392 . S
C1299 C1303 1.495 . S
C1300 C1299 1.392 . S
C1300 C1301 1.385 . S
C1300 C1302 1.478 . S
C1301 H1295 0.930 . S
C1301 C1297 1.400 . S
C1301 C1300 1.385 . S
C1302 C1300 1.478 . S
C1302 C1304 1.381 . S
C1302 C1308 1.383 . S
C1303 C1299 1.495 . S
C1303 H1309 0.959 . S
C1303 H1310 0.961 . S
C1303 H1311 0.960 . S
C1304 C1302 1.381 . S
C1304 C1305 1.394 . S
C1304 H1312 0.930 . S
C1305 C1304 1.394 . S
C1305 C1306 1.383 . S
C1305 H1313 0.929 . S
C1306 C1305 1.383 . S
C1306 C1307 1.377 . S
C1307 H1291 0.930 . S
C1307 C1306 1.377 . S
C1307 C1308 1.379 . S
C1308 H1292 0.931 . S
C1308 C1302 1.383 . S
C1308 C1307 1.379 . S
H1309 C1303 0.959 . S
H1310 C1303 0.961 . S
H1311 C1303 0.960 . S
H1312 C1304 0.930 . S
H1313 C1305 0.929 . S
H1314 C1322 0.929 . S
H1315 C1324 0.930 . S
H1316 C1326 0.930 . S
H1317 C1329 0.929 . S
H1318 C1332 0.930 . S
H1319 C1334 0.960 . S
H1320 C1334 0.960 . S
H1321 C1334 0.960 . S
C1322 H1314 0.929 . S
C1322 C1323 1.377 . S
C1322 C1324 1.384 . S
C1323 C1322 1.377 . S
C1323 C1329 1.390 . S
C1324 H1315 0.930 . S
C1324 C1322 1.384 . S
C1324 C1325 1.372 . S
C1325 C1324 1.372 . S
C1325 C1326 1.400 . S
C1325 C1330 1.490 . S
C1326 H1316 0.930 . S
C1326 C1325 1.400 . S
C1326 C1329 1.386 . S
H1327 C1343 0.930 . S
H1328 C1344 0.931 . S
C1329 H1317 0.929 . S
C1329 C1323 1.390 . S
C1329 C1326 1.386 . S
C1330 C1325 1.490 . S
C1330 C1332 1.395 . S
C1330 C1333 1.403 . S
H1331 C1337 0.930 . S
C1332 H1318 0.930 . S
C1332 C1330 1.395 . S
C1332 C1335 1.403 . S
C1333 C1330 1.403 . S
C1333 C1334 1.524 . S
C1333 C1337 1.400 . S
C1334 H1319 0.960 . S
C1334 H1320 0.960 . S
C1334 H1321 0.960 . S
C1334 C1333 1.524 . S
C1335 C1332 1.403 . S
C1335 C1336 1.392 . S
C1335 C1339 1.495 . S
C1336 C1335 1.392 . S
C1336 C1337 1.385 . S
C1336 C1338 1.478 . S
C1337 H1331 0.930 . S
C1337 C1333 1.400 . S
C1337 C1336 1.385 . S
C1338 C1336 1.478 . S
C1338 C1340 1.381 . S
C1338 C1344 1.383 . S
C1339 C1335 1.495 . S
C1339 H1345 0.959 . S
C1339 H1346 0.961 . S
C1339 H1347 0.960 . S
C1340 C1338 1.381 . S
C1340 C1341 1.394 . S
C1340 H1348 0.930 . S
C1341 C1340 1.394 . S
C1341 C1342 1.383 . S
C1341 H1349 0.877 1_556 S
C1342 C1341 1.383 . S
C1342 C1343 1.377 . S
C1343 H1327 0.930 . S
C1343 C1342 1.377 . S
C1343 C1344 1.379 . S
C1344 H1328 0.931 . S
C1344 C1338 1.383 . S
C1344 C1343 1.379 . S
H1345 C1339 0.959 . S
H1346 C1339 0.961 . S
H1347 C1339 0.960 . S
H1348 C1340 0.930 . S
H1349 C1341 0.877 1_554 S
H1350 C1358 0.929 . S
H1351 C1360 0.930 . S
H1352 C1362 0.930 . S
H1353 C1365 0.929 . S
H1354 C1368 0.930 . S
H1355 C1370 0.960 1_554 S
H1356 C1370 0.960 1_554 S
H1357 C1370 0.960 . S
C1358 H1350 0.929 . S
C1358 C1359 1.377 . S
C1358 C1360 1.384 . S
C1359 C1358 1.377 . S
C1359 C1365 1.390 . S
C1360 H1351 0.930 . S
C1360 C1358 1.384 . S
C1360 C1361 1.372 . S
C1361 C1360 1.372 . S
C1361 C1362 1.400 . S
C1361 C1366 1.490 . S
C1362 H1352 0.930 . S
C1362 C1361 1.400 . S
C1362 C1365 1.386 . S
H1363 C1379 0.930 . S
H1364 C1380 0.931 . S
C1365 H1353 0.929 . S
C1365 C1359 1.390 . S
C1365 C1362 1.386 . S
C1366 C1361 1.490 . S
C1366 C1368 1.395 . S
C1366 C1369 1.403 . S
H1367 C1373 0.930 . S
C1368 H1354 0.930 . S
C1368 C1366 1.395 . S
C1368 C1371 1.403 . S
C1369 C1366 1.403 . S
C1369 C1370 1.524 . S
C1369 C1373 1.400 . S
C1370 H1355 0.960 1_556 S
C1370 H1356 0.960 1_556 S
C1370 H1357 0.960 . S
C1370 C1369 1.524 . S
C1371 C1368 1.403 . S
C1371 C1372 1.392 . S
C1371 C1375 1.495 . S
C1372 C1371 1.392 . S
C1372 C1373 1.385 . S
C1372 C1374 1.478 . S
C1373 H1367 0.930 . S
C1373 C1369 1.400 . S
C1373 C1372 1.385 . S
C1374 C1372 1.478 . S
C1374 C1376 1.381 . S
C1374 C1380 1.383 . S
C1375 C1371 1.495 . S
C1375 H1381 0.959 . S
C1375 H1382 0.961 . S
C1375 H1383 0.960 . S
C1376 C1374 1.381 . S
C1376 C1377 1.394 . S
C1376 H1384 0.930 . S
C1377 C1376 1.394 . S
C1377 C1378 1.383 . S
C1377 H1385 0.929 . S
C1378 C1377 1.383 . S
C1378 C1379 1.377 . S
C1379 H1363 0.930 . S
C1379 C1378 1.377 . S
C1379 C1380 1.379 . S
C1380 H1364 0.931 . S
C1380 C1374 1.383 . S
C1380 C1379 1.379 . S
H1381 C1375 0.959 . S
H1382 C1375 0.961 . S
H1383 C1375 0.960 . S
H1384 C1376 0.930 . S
H1385 C1377 0.929 . S
H1386 C1394 0.929 . S
H1387 C1396 0.930 . S
H1388 C1398 0.930 . S
H1389 C1401 0.929 . S
H1390 C1404 0.930 . S
H1391 C1406 0.960 . S
H1392 C1406 0.960 . S
H1393 C1406 0.960 . S
C1394 H1386 0.929 . S
C1394 C1395 1.377 . S
C1394 C1396 1.384 . S
C1395 C1394 1.377 . S
C1395 C1401 1.390 . S
C1396 H1387 0.930 . S
C1396 C1394 1.384 . S
C1396 C1397 1.372 . S
C1397 C1396 1.372 . S
C1397 C1398 1.400 . S
C1397 C1402 1.490 . S
C1398 H1388 0.930 . S
C1398 C1397 1.400 . S
C1398 C1401 1.386 . S
H1399 C1415 0.930 . S
H1400 C1416 0.931 . S
C1401 H1389 0.929 . S
C1401 C1395 1.390 . S
C1401 C1398 1.386 . S
C1402 C1397 1.490 . S
C1402 C1404 1.395 . S
C1402 C1405 1.403 . S
H1403 C1409 0.930 . S
C1404 H1390 0.930 . S
C1404 C1402 1.395 . S
C1404 C1407 1.403 . S
C1405 C1402 1.403 . S
C1405 C1406 1.524 . S
C1405 C1409 1.400 . S
C1406 H1391 0.960 . S
C1406 H1392 0.960 . S
C1406 H1393 0.960 . S
C1406 C1405 1.524 . S
C1407 C1404 1.403 . S
C1407 C1408 1.392 . S
C1407 C1411 1.495 . S
C1408 C1407 1.392 . S
C1408 C1409 1.385 . S
C1408 C1410 1.478 . S
C1409 H1403 0.930 . S
C1409 C1405 1.400 . S
C1409 C1408 1.385 . S
C1410 C1408 1.478 . S
C1410 C1412 1.381 . S
C1410 C1416 1.383 . S
C1411 C1407 1.495 . S
C1411 H1417 0.976 . S
C1411 H1418 0.961 . S
C1411 H1419 0.960 1_554 S
C1412 C1410 1.381 . S
C1412 C1413 1.394 . S
C1412 H1420 0.930 . S
C1413 C1412 1.394 . S
C1413 C1414 1.383 . S
C1413 H1421 0.929 1_554 S
C1414 C1413 1.383 . S
C1414 C1415 1.377 . S
C1415 H1399 0.930 . S
C1415 C1414 1.377 . S
C1415 C1416 1.379 . S
C1416 H1400 0.931 . S
C1416 C1410 1.383 . S
C1416 C1415 1.379 . S
H1417 C1411 0.976 . S
H1418 C1411 0.961 . S
H1419 C1411 0.960 1_556 S
H1420 C1412 0.930 . S
H1421 C1413 0.929 1_556 S
H1422 C1430 0.929 . S
H1423 C1432 0.930 . S
H1424 C1434 0.930 . S
H1425 C1437 0.929 . S
H1426 C1440 0.930 . S
H1427 C1442 0.960 . S
H1428 C1442 0.960 . S
H1429 C1442 0.960 . S
C1430 H1422 0.929 . S
C1430 C1431 1.377 . S
C1430 C1432 1.384 . S
C1431 C1430 1.377 . S
C1431 C1437 1.390 . S
C1432 H1423 0.930 . S
C1432 C1430 1.384 . S
C1432 C1433 1.372 . S
C1433 C1432 1.372 . S
C1433 C1434 1.400 . S
C1433 C1438 1.490 . S
C1434 H1424 0.930 . S
C1434 C1433 1.400 . S
C1434 C1437 1.386 . S
H1435 C1451 0.930 . S
H1436 C1452 0.931 . S
C1437 H1425 0.929 . S
C1437 C1431 1.390 . S
C1437 C1434 1.386 . S
C1438 C1433 1.490 . S
C1438 C1440 1.395 . S
C1438 C1441 1.403 . S
H1439 C1445 0.930 . S
C1440 H1426 0.930 . S
C1440 C1438 1.395 . S
C1440 C1443 1.403 . S
C1441 C1438 1.403 . S
C1441 C1442 1.524 . S
C1441 C1445 1.400 . S
C1442 H1427 0.960 . S
C1442 H1428 0.960 . S
C1442 H1429 0.960 . S
C1442 C1441 1.524 . S
C1443 C1440 1.403 . S
C1443 C1444 1.392 . S
C1443 C1447 1.495 . S
C1444 C1443 1.392 . S
C1444 C1445 1.385 . S
C1444 C1446 1.478 . S
C1445 H1439 0.930 . S
C1445 C1441 1.400 . S
C1445 C1444 1.385 . S
C1446 C1444 1.478 . S
C1446 C1448 1.381 . S
C1446 C1452 1.383 . S
C1447 C1443 1.495 . S
C1447 H1453 0.959 . S
C1447 H1454 0.961 . S
C1447 H1455 0.960 . S
C1448 C1446 1.381 . S
C1448 C1449 1.394 . S
C1448 H1456 0.930 . S
C1449 C1448 1.394 . S
C1449 C1450 1.383 . S
C1449 H1457 0.929 . S
C1450 C1449 1.383 . S
C1450 C1451 1.377 . S
C1451 H1435 0.930 . S
C1451 C1450 1.377 . S
C1451 C1452 1.379 . S
C1452 H1436 0.931 . S
C1452 C1446 1.383 . S
C1452 C1451 1.379 . S
H1453 C1447 0.959 . S
H1454 C1447 0.961 . S
H1455 C1447 0.960 . S
H1456 C1448 0.930 . S
H1457 C1449 0.929 . S
H1458 C1466 0.929 . S
H1459 C1468 0.930 . S
H1460 C1470 0.930 . S
H1461 C1473 0.929 . S
H1462 C1476 0.930 . S
H1463 C1478 0.960 . S
H1464 C1478 0.960 . S
H1465 C1478 0.960 . S
C1466 H1458 0.929 . S
C1466 C1467 1.377 . S
C1466 C1468 1.384 . S
C1467 C1466 1.377 . S
C1467 C1473 1.390 . S
C1468 H1459 0.930 . S
C1468 C1466 1.384 . S
C1468 C1469 1.372 . S
C1469 C1468 1.372 . S
C1469 C1470 1.400 . S
C1469 C1474 1.490 . S
C1470 H1460 0.930 . S
C1470 C1469 1.400 . S
C1470 C1473 1.386 . S
H1471 C1487 0.930 1_556 S
H1472 C1488 0.931 . S
C1473 H1461 0.929 . S
C1473 C1467 1.390 . S
C1473 C1470 1.386 . S
C1474 C1469 1.490 . S
C1474 C1476 1.395 . S
C1474 C1477 1.403 . S
H1475 C1481 0.930 . S
C1476 H1462 0.930 . S
C1476 C1474 1.395 . S
C1476 C1479 1.403 . S
C1477 C1474 1.403 . S
C1477 C1478 1.524 . S
C1477 C1481 1.400 . S
C1478 H1463 0.960 . S
C1478 H1464 0.960 . S
C1478 H1465 0.960 . S
C1478 C1477 1.524 . S
C1479 C1476 1.403 . S
C1479 C1480 1.392 . S
C1479 C1483 1.495 . S
C1480 C1479 1.392 . S
C1480 C1481 1.385 . S
C1480 C1482 1.478 . S
C1481 H1475 0.930 . S
C1481 C1477 1.400 . S
C1481 C1480 1.385 . S
C1482 C1480 1.478 . S
C1482 C1484 1.381 . S
C1482 C1488 1.383 . S
C1483 C1479 1.495 . S
C1483 H1489 0.959 . S
C1483 H1490 0.961 . S
C1483 H1491 0.960 . S
C1484 C1482 1.381 . S
C1484 C1485 1.394 . S
C1484 H1492 0.930 . S
C1485 C1484 1.394 . S
C1485 C1486 1.383 . S
C1485 H1493 0.929 . S
C1486 C1485 1.383 . S
C1486 C1487 1.377 . S
C1487 H1471 0.930 1_554 S
C1487 C1486 1.377 . S
C1487 C1488 1.379 . S
C1488 H1472 0.931 . S
C1488 C1482 1.383 . S
C1488 C1487 1.379 . S
H1489 C1483 0.959 . S
H1490 C1483 0.961 . S
H1491 C1483 0.960 . S
H1492 C1484 0.930 . S
H1493 C1485 0.929 . S
H1494 C1502 0.929 . S
H1495 C1504 0.930 1_455 S
H1496 C1506 0.930 . S
H1497 C1509 0.929 . S
H1498 C1512 0.930 . S
H1499 C1514 0.960 . S
H1500 C1514 0.960 . S
H1501 C1514 0.960 1_655 S
C1502 H1494 0.929 . S
C1502 C1503 1.377 . S
C1502 C1504 1.384 . S
C1503 C1502 1.377 . S
C1503 C1509 1.390 . S
C1504 H1495 0.930 1_655 S
C1504 C1502 1.384 . S
C1504 C1505 1.372 . S
C1505 C1504 1.372 . S
C1505 C1506 1.400 . S
C1505 C1510 1.490 1_655 S
C1506 H1496 0.930 . S
C1506 C1505 1.400 . S
C1506 C1509 1.386 . S
H1507 C1523 0.930 . S
H1508 C1524 0.931 . S
C1509 H1497 0.929 . S
C1509 C1503 1.390 . S
C1509 C1506 1.386 . S
C1510 C1505 1.490 1_455 S
C1510 C1512 1.395 . S
C1510 C1513 1.403 . S
H1511 C1517 0.930 . S
C1512 H1498 0.930 . S
C1512 C1510 1.395 . S
C1512 C1515 1.403 . S
C1513 C1510 1.403 . S
C1513 C1514 1.524 . S
C1513 C1517 1.400 . S
C1514 H1499 0.960 . S
C1514 H1500 0.960 . S
C1514 H1501 0.960 1_455 S
C1514 C1513 1.524 . S
C1515 C1512 1.403 . S
C1515 C1516 1.392 . S
C1515 C1519 1.495 . S
C1516 C1515 1.392 . S
C1516 C1517 1.385 . S
C1516 C1518 1.478 . S
C1517 H1511 0.930 . S
C1517 C1513 1.400 . S
C1517 C1516 1.385 . S
C1518 C1516 1.478 . S
C1518 C1520 1.381 . S
C1518 C1524 1.383 . S
C1519 C1515 1.495 . S
C1519 H1525 0.959 . S
C1519 H1526 0.961 . S
C1519 H1527 0.960 . S
C1520 C1518 1.381 . S
C1520 C1521 1.394 . S
C1520 H1528 0.930 . S
C1521 C1520 1.394 . S
C1521 C1522 1.383 . S
C1521 H1529 0.929 . S
C1522 C1521 1.383 . S
C1522 C1523 1.377 . S
C1523 H1507 0.930 . S
C1523 C1522 1.377 . S
C1523 C1524 1.379 . S
C1524 H1508 0.931 . S
C1524 C1518 1.383 . S
C1524 C1523 1.379 . S
H1525 C1519 0.959 . S
H1526 C1519 0.961 . S
H1527 C1519 0.960 . S
H1528 C1520 0.930 . S
H1529 C1521 0.929 . S
H1530 C1538 0.929 . S
H1531 C1540 0.930 . S
H1532 C1542 0.930 . S
H1533 C1545 0.929 . S
H1534 C1548 0.930 . S
H1535 C1550 0.960 . S
H1536 C1550 0.960 . S
H1537 C1550 0.960 . S
C1538 H1530 0.929 . S
C1538 C1539 1.377 . S
C1538 C1540 1.384 . S
C1539 C1538 1.377 . S
C1539 C1545 1.390 . S
C1540 H1531 0.930 . S
C1540 C1538 1.384 . S
C1540 C1541 1.372 . S
C1541 C1540 1.372 . S
C1541 C1542 1.400 . S
C1541 C1546 1.490 . S
C1542 H1532 0.930 . S
C1542 C1541 1.400 . S
C1542 C1545 1.386 . S
H1543 C1559 0.930 . S
H1544 C1560 0.931 . S
C1545 H1533 0.929 . S
C1545 C1539 1.390 . S
C1545 C1542 1.386 . S
C1546 C1541 1.490 . S
C1546 C1548 1.395 . S
C1546 C1549 1.403 . S
H1547 C1553 0.930 . S
C1548 H1534 0.930 . S
C1548 C1546 1.395 . S
C1548 C1551 1.403 . S
C1549 C1546 1.403 . S
C1549 C1550 1.524 . S
C1549 C1553 1.400 . S
C1550 H1535 0.960 . S
C1550 H1536 0.960 . S
C1550 H1537 0.960 . S
C1550 C1549 1.524 . S
C1551 C1548 1.403 . S
C1551 C1552 1.392 . S
C1551 C1555 1.495 . S
C1552 C1551 1.392 . S
C1552 C1553 1.385 . S
C1552 C1554 1.478 . S
C1553 H1547 0.930 . S
C1553 C1549 1.400 . S
C1553 C1552 1.385 . S
C1554 C1552 1.478 . S
C1554 C1556 1.381 . S
C1554 C1560 1.383 . S
C1555 C1551 1.495 . S
C1555 H1561 0.959 . S
C1555 H1562 0.961 . S
C1555 H1563 0.960 . S
C1556 C1554 1.381 . S
C1556 C1557 1.394 . S
C1556 H1564 0.930 . S
C1557 C1556 1.394 . S
C1557 C1558 1.383 . S
C1557 H1565 0.929 . S
C1558 C1557 1.383 . S
C1558 C1559 1.377 . S
C1559 H1543 0.930 . S
C1559 C1558 1.377 . S
C1559 C1560 1.379 . S
C1560 H1544 0.931 . S
C1560 C1554 1.383 . S
C1560 C1559 1.379 . S
H1561 C1555 0.959 . S
H1562 C1555 0.961 . S
H1563 C1555 0.960 . S
H1564 C1556 0.930 . S
H1565 C1557 0.929 . S
H1566 C1574 0.929 . S
H1567 C1576 0.930 . S
H1568 C1578 0.930 . S
H1569 C1581 0.929 . S
H1570 C1584 0.919 1_545 S
H1571 C1586 0.960 . S
H1572 C1586 0.960 1_545 S
H1573 C1586 0.960 1_545 S
C1574 H1566 0.929 . S
C1574 C1575 1.377 . S
C1574 C1576 1.384 . S
C1575 C1574 1.377 . S
C1575 C1581 1.390 . S
C1576 H1567 0.930 . S
C1576 C1574 1.384 . S
C1576 C1577 1.372 . S
C1577 C1576 1.372 . S
C1577 C1578 1.400 . S
C1577 C1582 1.491 1_545 S
C1578 H1568 0.930 . S
C1578 C1577 1.400 . S
C1578 C1581 1.386 . S
H1579 C1595 0.930 . S
H1580 C1596 0.931 . S
C1581 H1569 0.929 . S
C1581 C1575 1.390 . S
C1581 C1578 1.386 . S
C1582 C1577 1.491 1_565 S
C1582 C1584 1.395 . S
C1582 C1585 1.402 . S
H1583 C1589 0.930 . S
C1584 H1570 0.919 1_565 S
C1584 C1582 1.395 . S
C1584 C1587 1.403 . S
C1585 C1582 1.402 . S
C1585 C1586 1.524 . S
C1585 C1589 1.400 . S
C1586 H1571 0.960 . S
C1586 H1572 0.960 1_565 S
C1586 H1573 0.960 1_565 S
C1586 C1585 1.524 . S
C1587 C1584 1.403 . S
C1587 C1588 1.392 . S
C1587 C1591 1.495 . S
C1588 C1587 1.392 . S
C1588 C1589 1.385 . S
C1588 C1590 1.478 . S
C1589 H1583 0.930 . S
C1589 C1585 1.400 . S
C1589 C1588 1.385 . S
C1590 C1588 1.478 . S
C1590 C1592 1.381 . S
C1590 C1596 1.383 . S
C1591 C1587 1.495 . S
C1591 H1597 0.959 . S
C1591 H1598 0.961 . S
C1591 H1599 0.960 . S
C1592 C1590 1.381 . S
C1592 C1593 1.394 . S
C1592 H1600 0.930 . S
C1593 C1592 1.394 . S
C1593 C1594 1.383 . S
C1593 H1601 0.929 . S
C1594 C1593 1.383 . S
C1594 C1595 1.377 . S
C1595 H1579 0.930 . S
C1595 C1594 1.377 . S
C1595 C1596 1.379 . S
C1596 H1580 0.931 . S
C1596 C1590 1.383 . S
C1596 C1595 1.379 . S
H1597 C1591 0.959 . S
H1598 C1591 0.961 . S
H1599 C1591 0.960 . S
H1600 C1592 0.930 . S
H1601 C1593 0.929 . S
H1602 C1610 0.929 . S
H1603 C1612 0.930 . S
H1604 C1614 0.930 . S
H1605 C1617 0.929 . S
H1606 C1620 0.930 . S
H1607 C1622 0.960 . S
H1608 C1622 0.960 . S
H1609 C1622 0.960 . S
C1610 H1602 0.929 . S
C1610 C1611 1.377 . S
C1610 C1612 1.384 . S
C1611 C1610 1.377 . S
C1611 C1617 1.390 . S
C1612 H1603 0.930 . S
C1612 C1610 1.384 . S
C1612 C1613 1.372 . S
C1613 C1612 1.372 . S
C1613 C1614 1.400 . S
C1613 C1618 1.490 . S
C1614 H1604 0.930 . S
C1614 C1613 1.400 . S
C1614 C1617 1.386 . S
H1615 C1631 0.930 . S
H1616 C1632 0.931 . S
C1617 H1605 0.929 . S
C1617 C1611 1.390 . S
C1617 C1614 1.386 . S
C1618 C1613 1.490 . S
C1618 C1620 1.395 . S
C1618 C1621 1.403 . S
H1619 C1625 0.930 . S
C1620 H1606 0.930 . S
C1620 C1618 1.395 . S
C1620 C1623 1.403 . S
C1621 C1618 1.403 . S
C1621 C1622 1.524 . S
C1621 C1625 1.400 . S
C1622 H1607 0.960 . S
C1622 H1608 0.960 . S
C1622 H1609 0.960 . S
C1622 C1621 1.524 . S
C1623 C1620 1.403 . S
C1623 C1624 1.392 . S
C1623 C1627 1.495 . S
C1624 C1623 1.392 . S
C1624 C1625 1.385 . S
C1624 C1626 1.478 . S
C1625 H1619 0.930 . S
C1625 C1621 1.400 . S
C1625 C1624 1.385 . S
C1626 C1624 1.478 . S
C1626 C1628 1.381 . S
C1626 C1632 1.383 . S
C1627 C1623 1.495 . S
C1627 H1633 0.959 . S
C1627 H1634 0.961 . S
C1627 H1635 0.960 . S
C1628 C1626 1.381 . S
C1628 C1629 1.394 . S
C1628 H1636 0.930 . S
C1629 C1628 1.394 . S
C1629 C1630 1.383 . S
C1629 H1637 0.929 . S
C1630 C1629 1.383 . S
C1630 C1631 1.377 . S
C1631 H1615 0.930 . S
C1631 C1630 1.377 . S
C1631 C1632 1.379 . S
C1632 H1616 0.931 . S
C1632 C1626 1.383 . S
C1632 C1631 1.379 . S
H1633 C1627 0.959 . S
H1634 C1627 0.961 . S
H1635 C1627 0.960 . S
H1636 C1628 0.930 . S
H1637 C1629 0.929 . S
H1638 C1646 0.929 . S
H1639 C1648 0.930 . S
H1640 C1650 0.930 . S
H1641 C1653 0.929 . S
H1642 C1656 0.930 . S
H1643 C1658 0.960 . S
H1644 C1658 0.960 . S
H1645 C1658 0.960 . S
C1646 H1638 0.929 . S
C1646 C1647 1.377 . S
C1646 C1648 1.384 . S
C1647 C1646 1.377 . S
C1647 C1653 1.390 . S
C1648 H1639 0.930 . S
C1648 C1646 1.384 . S
C1648 C1649 1.372 . S
C1649 C1648 1.372 . S
C1649 C1650 1.400 . S
C1649 C1654 1.490 . S
C1650 H1640 0.930 . S
C1650 C1649 1.400 . S
C1650 C1653 1.386 . S
H1651 C1667 0.930 . S
H1652 C1668 0.931 . S
C1653 H1641 0.929 . S
C1653 C1647 1.390 . S
C1653 C1650 1.386 . S
C1654 C1649 1.490 . S
C1654 C1656 1.395 . S
C1654 C1657 1.403 . S
H1655 C1661 0.930 . S
C1656 H1642 0.930 . S
C1656 C1654 1.395 . S
C1656 C1659 1.403 . S
C1657 C1654 1.403 . S
C1657 C1658 1.524 . S
C1657 C1661 1.400 . S
C1658 H1643 0.960 . S
C1658 H1644 0.960 . S
C1658 H1645 0.960 . S
C1658 C1657 1.524 . S
C1659 C1656 1.403 . S
C1659 C1660 1.392 . S
C1659 C1663 1.495 . S
C1660 C1659 1.392 . S
C1660 C1661 1.385 . S
C1660 C1662 1.478 . S
C1661 H1655 0.930 . S
C1661 C1657 1.400 . S
C1661 C1660 1.385 . S
C1662 C1660 1.478 . S
C1662 C1664 1.381 . S
C1662 C1668 1.383 . S
C1663 C1659 1.495 . S
C1663 H1669 0.959 . S
C1663 H1670 0.961 . S
C1663 H1671 0.960 . S
C1664 C1662 1.381 . S
C1664 C1665 1.394 . S
C1664 H1672 0.930 . S
C1665 C1664 1.394 . S
C1665 C1666 1.383 . S
C1665 H1673 0.929 . S
C1666 C1665 1.383 . S
C1666 C1667 1.377 . S
C1667 H1651 0.930 . S
C1667 C1666 1.377 . S
C1667 C1668 1.379 . S
C1668 H1652 0.931 . S
C1668 C1662 1.383 . S
C1668 C1667 1.379 . S
H1669 C1663 0.959 . S
H1670 C1663 0.961 . S
H1671 C1663 0.960 . S
H1672 C1664 0.930 . S
H1673 C1665 0.929 . S
H1674 C1682 0.929 . S
H1675 C1684 0.930 . S
H1676 C1686 0.930 . S
H1677 C1689 0.929 . S
H1678 C1692 0.930 . S
H1679 C1694 0.960 . S
H1680 C1694 0.960 . S
H1681 C1694 0.960 . S
C1682 H1674 0.929 . S
C1682 C1683 1.377 . S
C1682 C1684 1.384 . S
C1683 C1682 1.377 . S
C1683 C1689 1.390 . S
C1684 H1675 0.930 . S
C1684 C1682 1.384 . S
C1684 C1685 1.372 . S
C1685 C1684 1.372 . S
C1685 C1686 1.400 . S
C1685 C1690 1.490 . S
C1686 H1676 0.930 . S
C1686 C1685 1.400 . S
C1686 C1689 1.386 . S
H1687 C1703 0.930 . S
H1688 C1704 0.931 . S
C1689 H1677 0.929 . S
C1689 C1683 1.390 . S
C1689 C1686 1.386 . S
C1690 C1685 1.490 . S
C1690 C1692 1.395 . S
C1690 C1693 1.403 . S
H1691 C1697 0.930 . S
C1692 H1678 0.930 . S
C1692 C1690 1.395 . S
C1692 C1695 1.403 . S
C1693 C1690 1.403 . S
C1693 C1694 1.524 . S
C1693 C1697 1.400 . S
C1694 H1679 0.960 . S
C1694 H1680 0.960 . S
C1694 H1681 0.960 . S
C1694 C1693 1.524 . S
C1695 C1692 1.403 . S
C1695 C1696 1.392 . S
C1695 C1699 1.495 . S
C1696 C1695 1.392 . S
C1696 C1697 1.385 . S
C1696 C1698 1.478 . S
C1697 H1691 0.930 . S
C1697 C1693 1.400 . S
C1697 C1696 1.385 . S
C1698 C1696 1.478 . S
C1698 C1700 1.381 . S
C1698 C1704 1.383 . S
C1699 C1695 1.495 . S
C1699 H1705 0.959 . S
C1699 H1706 0.961 . S
C1699 H1707 0.960 . S
C1700 C1698 1.381 . S
C1700 C1701 1.394 . S
C1700 H1708 0.930 . S
C1701 C1700 1.394 . S
C1701 C1702 1.383 . S
C1701 H1709 0.929 . S
C1702 C1701 1.383 . S
C1702 C1703 1.377 . S
C1703 H1687 0.930 . S
C1703 C1702 1.377 . S
C1703 C1704 1.379 . S
C1704 H1688 0.931 . S
C1704 C1698 1.383 . S
C1704 C1703 1.379 . S
H1705 C1699 0.959 . S
H1706 C1699 0.961 . S
H1707 C1699 0.960 . S
H1708 C1700 0.930 . S
H1709 C1701 0.929 . S
H1710 C1718 0.929 . S
H1711 C1720 0.930 . S
H1712 C1722 0.930 . S
H1713 C1725 0.929 . S
H1714 C1728 0.930 . S
H1715 C1730 0.960 . S
H1716 C1730 0.960 . S
H1717 C1730 0.960 . S
C1718 H1710 0.929 . S
C1718 C1719 1.377 . S
C1718 C1720 1.384 . S
C1719 C1718 1.377 . S
C1719 C1725 1.390 . S
C1720 H1711 0.930 . S
C1720 C1718 1.384 . S
C1720 C1721 1.372 . S
C1721 C1720 1.372 . S
C1721 C1722 1.400 . S
C1721 C1726 1.490 . S
C1722 H1712 0.930 . S
C1722 C1721 1.400 . S
C1722 C1725 1.386 . S
H1723 C1739 0.930 . S
H1724 C1740 0.931 . S
C1725 H1713 0.929 . S
C1725 C1719 1.390 . S
C1725 C1722 1.386 . S
C1726 C1721 1.490 . S
C1726 C1728 1.395 . S
C1726 C1729 1.403 . S
H1727 C1733 0.930 . S
C1728 H1714 0.930 . S
C1728 C1726 1.395 . S
C1728 C1731 1.403 . S
C1729 C1726 1.403 . S
C1729 C1730 1.524 . S
C1729 C1733 1.400 . S
C1730 H1715 0.960 . S
C1730 H1716 0.960 . S
C1730 H1717 0.960 . S
C1730 C1729 1.524 . S
C1731 C1728 1.403 . S
C1731 C1732 1.392 . S
C1731 C1735 1.495 . S
C1732 C1731 1.392 . S
C1732 C1733 1.385 . S
C1732 C1734 1.478 . S
C1733 H1727 0.930 . S
C1733 C1729 1.400 . S
C1733 C1732 1.385 . S
C1734 C1732 1.478 . S
C1734 C1736 1.381 . S
C1734 C1740 1.383 . S
C1735 C1731 1.495 . S
C1735 H1741 0.959 . S
C1735 H1742 0.961 . S
C1735 H1743 0.960 . S
C1736 C1734 1.381 . S
C1736 C1737 1.394 . S
C1736 H1744 0.930 . S
C1737 C1736 1.394 . S
C1737 C1738 1.383 . S
C1737 H1745 0.929 . S
C1738 C1737 1.383 . S
C1738 C1739 1.377 . S
C1739 H1723 0.930 . S
C1739 C1738 1.377 . S
C1739 C1740 1.379 . S
C1740 H1724 0.931 . S
C1740 C1734 1.383 . S
C1740 C1739 1.379 . S
H1741 C1735 0.959 . S
H1742 C1735 0.961 . S
H1743 C1735 0.960 . S
H1744 C1736 0.930 . S
H1745 C1737 0.929 . S
H1746 C1754 0.929 . S
H1747 C1756 0.930 . S
H1748 C1758 0.930 . S
H1749 C1761 0.929 . S
H1750 C1764 0.930 . S
H1751 C1766 0.960 . S
H1752 C1766 0.960 . S
H1753 C1766 0.960 . S
C1754 H1746 0.929 . S
C1754 C1755 1.377 . S
C1754 C1756 1.384 . S
C1755 C1754 1.377 . S
C1755 C1761 1.390 . S
C1756 H1747 0.930 . S
C1756 C1754 1.384 . S
C1756 C1757 1.372 . S
C1757 C1756 1.372 . S
C1757 C1758 1.400 . S
C1757 C1762 1.490 . S
C1758 H1748 0.930 . S
C1758 C1757 1.400 . S
C1758 C1761 1.386 . S
H1759 C1775 0.930 . S
H1760 C1776 0.931 . S
C1761 H1749 0.929 . S
C1761 C1755 1.390 . S
C1761 C1758 1.386 . S
C1762 C1757 1.490 . S
C1762 C1764 1.395 . S
C1762 C1765 1.403 . S
H1763 C1769 0.930 . S
C1764 H1750 0.930 . S
C1764 C1762 1.395 . S
C1764 C1767 1.403 . S
C1765 C1762 1.403 . S
C1765 C1766 1.524 . S
C1765 C1769 1.400 . S
C1766 H1751 0.960 . S
C1766 H1752 0.960 . S
C1766 H1753 0.960 . S
C1766 C1765 1.524 . S
C1767 C1764 1.403 . S
C1767 C1768 1.392 . S
C1767 C1771 1.495 . S
C1768 C1767 1.392 . S
C1768 C1769 1.385 . S
C1768 C1770 1.478 . S
C1769 H1763 0.930 . S
C1769 C1765 1.400 . S
C1769 C1768 1.385 . S
C1770 C1768 1.478 . S
C1770 C1772 1.381 . S
C1770 C1776 1.383 . S
C1771 C1767 1.495 . S
C1771 H1777 0.959 . S
C1771 H1778 0.961 . S
C1771 H1779 0.960 . S
C1772 C1770 1.381 . S
C1772 C1773 1.394 . S
C1772 H1780 0.930 . S
C1773 C1772 1.394 . S
C1773 C1774 1.383 . S
C1773 H1781 0.929 . S
C1774 C1773 1.383 . S
C1774 C1775 1.377 . S
C1775 H1759 0.930 . S
C1775 C1774 1.377 . S
C1775 C1776 1.379 . S
C1776 H1760 0.931 . S
C1776 C1770 1.383 . S
C1776 C1775 1.379 . S
H1777 C1771 0.959 . S
H1778 C1771 0.961 . S
H1779 C1771 0.960 . S
H1780 C1772 0.930 . S
H1781 C1773 0.929 . S
H1782 C1790 0.929 . S
H1783 C1792 0.930 . S
H1784 C1794 0.930 . S
H1785 C1797 0.929 . S
H1786 C1800 0.930 . S
H1787 C1802 0.960 . S
H1788 C1802 0.960 . S
H1789 C1802 0.960 . S
C1790 H1782 0.929 . S
C1790 C1791 1.377 . S
C1790 C1792 1.384 . S
C1791 C1790 1.377 . S
C1791 C1797 1.390 . S
C1792 H1783 0.930 . S
C1792 C1790 1.384 . S
C1792 C1793 1.372 . S
C1793 C1792 1.372 . S
C1793 C1794 1.400 . S
C1793 C1798 1.490 . S
C1794 H1784 0.930 . S
C1794 C1793 1.400 . S
C1794 C1797 1.386 . S
H1795 C1811 0.930 . S
H1796 C1812 0.931 . S
C1797 H1785 0.929 . S
C1797 C1791 1.390 . S
C1797 C1794 1.386 . S
C1798 C1793 1.490 . S
C1798 C1800 1.395 . S
C1798 C1801 1.403 . S
H1799 C1805 0.930 . S
C1800 H1786 0.930 . S
C1800 C1798 1.395 . S
C1800 C1803 1.403 . S
C1801 C1798 1.403 . S
C1801 C1802 1.524 . S
C1801 C1805 1.400 . S
C1802 H1787 0.960 . S
C1802 H1788 0.960 . S
C1802 H1789 0.960 . S
C1802 C1801 1.524 . S
C1803 C1800 1.403 . S
C1803 C1804 1.392 . S
C1803 C1807 1.495 . S
C1804 C1803 1.392 . S
C1804 C1805 1.385 . S
C1804 C1806 1.478 . S
C1805 H1799 0.930 . S
C1805 C1801 1.400 . S
C1805 C1804 1.385 . S
C1806 C1804 1.478 . S
C1806 C1808 1.381 . S
C1806 C1812 1.383 . S
C1807 C1803 1.495 . S
C1807 H1813 0.959 . S
C1807 H1814 0.961 . S
C1807 H1815 0.960 . S
C1808 C1806 1.381 . S
C1808 C1809 1.394 . S
C1808 H1816 0.930 . S
C1809 C1808 1.394 . S
C1809 C1810 1.383 . S
C1809 H1817 0.929 . S
C1810 C1809 1.383 . S
C1810 C1811 1.377 . S
C1811 H1795 0.930 . S
C1811 C1810 1.377 . S
C1811 C1812 1.379 . S
C1812 H1796 0.931 . S
C1812 C1806 1.383 . S
C1812 C1811 1.379 . S
H1813 C1807 0.959 . S
H1814 C1807 0.961 . S
H1815 C1807 0.960 . S
H1816 C1808 0.930 . S
H1817 C1809 0.929 . S
H1818 C1826 0.929 . S
H1819 C1828 0.930 . S
H1820 C1830 0.930 . S
H1821 C1833 0.929 . S
H1822 C1836 0.930 . S
H1823 C1838 0.960 . S
H1824 C1838 0.960 1_545 S
H1825 C1838 0.960 1_545 S
C1826 H1818 0.929 . S
C1826 C1827 1.377 . S
C1826 C1828 1.384 . S
C1827 C1826 1.377 . S
C1827 C1833 1.390 . S
C1828 H1819 0.930 . S
C1828 C1826 1.384 . S
C1828 C1829 1.372 . S
C1829 C1828 1.372 . S
C1829 C1830 1.400 . S
C1829 C1834 1.490 1_545 S
C1830 H1820 0.930 . S
C1830 C1829 1.400 . S
C1830 C1833 1.386 . S
H1831 C1847 0.930 . S
H1832 C1848 0.931 . S
C1833 H1821 0.929 . S
C1833 C1827 1.390 . S
C1833 C1830 1.386 . S
C1834 C1829 1.490 1_565 S
C1834 C1836 1.395 . S
C1834 C1837 1.403 . S
H1835 C1841 0.930 . S
C1836 H1822 0.930 . S
C1836 C1834 1.395 . S
C1836 C1839 1.403 . S
C1837 C1834 1.403 . S
C1837 C1838 1.524 . S
C1837 C1841 1.400 . S
C1838 H1823 0.960 . S
C1838 H1824 0.960 1_565 S
C1838 H1825 0.960 1_565 S
C1838 C1837 1.524 . S
C1839 C1836 1.403 . S
C1839 C1840 1.392 . S
C1839 C1843 1.495 . S
C1840 C1839 1.392 . S
C1840 C1841 1.385 . S
C1840 C1842 1.478 . S
C1841 H1835 0.930 . S
C1841 C1837 1.400 . S
C1841 C1840 1.385 . S
C1842 C1840 1.478 . S
C1842 C1844 1.381 . S
C1842 C1848 1.383 . S
C1843 C1839 1.495 . S
C1843 H1849 0.959 . S
C1843 H1850 0.961 . S
C1843 H1851 0.960 . S
C1844 C1842 1.381 . S
C1844 C1845 1.394 . S
C1844 H1852 0.930 . S
C1845 C1844 1.394 . S
C1845 C1846 1.383 . S
C1845 H1853 0.929 . S
C1846 C1845 1.383 . S
C1846 C1847 1.377 . S
C1847 H1831 0.930 . S
C1847 C1846 1.377 . S
C1847 C1848 1.379 . S
C1848 H1832 0.931 . S
C1848 C1842 1.383 . S
C1848 C1847 1.379 . S
H1849 C1843 0.959 . S
H1850 C1843 0.961 . S
H1851 C1843 0.960 . S
H1852 C1844 0.930 . S
H1853 C1845 0.929 . S
H1854 C1862 0.929 . S
H1855 C1864 0.930 . S
H1856 C1866 0.930 . S
H1857 C1869 0.929 . S
H1858 C1872 0.930 . S
H1859 C1874 0.960 . S
H1860 C1874 0.960 . S
H1861 C1874 0.960 . S
C1862 H1854 0.929 . S
C1862 C1863 1.377 . S
C1862 C1864 1.384 1_655 S
C1863 C1862 1.377 . S
C1863 C1869 1.390 . S
C1864 H1855 0.930 . S
C1864 C1862 1.384 1_455 S
C1864 C1865 1.372 . S
C1865 C1864 1.372 . S
C1865 C1866 1.400 1_455 S
C1865 C1870 1.490 . S
C1866 H1856 0.930 . S
C1866 C1865 1.400 1_655 S
C1866 C1869 1.386 . S
H1867 C1883 0.930 . S
H1868 C1884 0.931 . S
C1869 H1857 0.929 . S
C1869 C1863 1.390 . S
C1869 C1866 1.386 . S
C1870 C1865 1.490 . S
C1870 C1872 1.395 . S
C1870 C1873 1.403 . S
H1871 C1877 0.930 . S
C1872 H1858 0.930 . S
C1872 C1870 1.395 . S
C1872 C1875 1.403 . S
C1873 C1870 1.403 . S
C1873 C1874 1.524 . S
C1873 C1877 1.400 . S
C1874 H1859 0.960 . S
C1874 H1860 0.960 . S
C1874 H1861 0.960 . S
C1874 C1873 1.524 . S
C1875 C1872 1.403 . S
C1875 C1876 1.392 . S
C1875 C1879 1.495 . S
C1876 C1875 1.392 . S
C1876 C1877 1.385 . S
C1876 C1878 1.478 . S
C1877 H1871 0.930 . S
C1877 C1873 1.400 . S
C1877 C1876 1.385 . S
C1878 C1876 1.478 . S
C1878 C1880 1.381 . S
C1878 C1884 1.383 . S
C1879 C1875 1.495 . S
C1879 H1885 0.959 . S
C1879 H1886 0.961 . S
C1879 H1887 0.960 . S
C1880 C1878 1.381 . S
C1880 C1881 1.394 . S
C1880 H1888 0.930 . S
C1881 C1880 1.394 . S
C1881 C1882 1.383 . S
C1881 H1889 0.929 . S
C1882 C1881 1.383 . S
C1882 C1883 1.377 . S
C1883 H1867 0.930 . S
C1883 C1882 1.377 . S
C1883 C1884 1.379 . S
C1884 H1868 0.931 . S
C1884 C1878 1.383 . S
C1884 C1883 1.379 . S
H1885 C1879 0.959 . S
H1886 C1879 0.961 . S
H1887 C1879 0.960 . S
H1888 C1880 0.930 . S
H1889 C1881 0.929 . S
H1890 C1898 0.929 . S
H1891 C1900 0.930 . S
H1892 C1902 0.930 . S
H1893 C1905 0.929 . S
H1894 C1908 0.930 . S
H1895 C1910 0.960 . S
H1896 C1910 0.960 . S
H1897 C1910 0.960 . S
C1898 H1890 0.929 . S
C1898 C1899 1.377 . S
C1898 C1900 1.384 . S
C1899 C1898 1.377 . S
C1899 C1905 1.390 . S
C1900 H1891 0.930 . S
C1900 C1898 1.384 . S
C1900 C1901 1.372 . S
C1901 C1900 1.372 . S
C1901 C1902 1.400 . S
C1901 C1906 1.490 . S
C1902 H1892 0.930 . S
C1902 C1901 1.400 . S
C1902 C1905 1.386 . S
H1903 C1919 0.930 . S
H1904 C1920 0.931 . S
C1905 H1893 0.929 . S
C1905 C1899 1.390 . S
C1905 C1902 1.386 . S
C1906 C1901 1.490 . S
C1906 C1908 1.395 . S
C1906 C1909 1.403 . S
H1907 C1913 0.930 . S
C1908 H1894 0.930 . S
C1908 C1906 1.395 . S
C1908 C1911 1.403 . S
C1909 C1906 1.403 . S
C1909 C1910 1.524 . S
C1909 C1913 1.400 . S
C1910 H1895 0.960 . S
C1910 H1896 0.960 . S
C1910 H1897 0.960 . S
C1910 C1909 1.524 . S
C1911 C1908 1.403 . S
C1911 C1912 1.392 . S
C1911 C1915 1.495 . S
C1912 C1911 1.392 . S
C1912 C1913 1.385 . S
C1912 C1914 1.478 . S
C1913 H1907 0.930 . S
C1913 C1909 1.400 . S
C1913 C1912 1.385 . S
C1914 C1912 1.478 . S
C1914 C1916 1.381 . S
C1914 C1920 1.383 . S
C1915 C1911 1.495 . S
C1915 H1921 0.959 . S
C1915 H1922 0.961 . S
C1915 H1923 0.960 . S
C1916 C1914 1.381 . S
C1916 C1917 1.394 . S
C1916 H1924 0.930 . S
C1917 C1916 1.394 . S
C1917 C1918 1.383 . S
C1917 H1925 0.929 . S
C1918 C1917 1.383 . S
C1918 C1919 1.377 . S
C1919 H1903 0.930 . S
C1919 C1918 1.377 . S
C1919 C1920 1.379 . S
C1920 H1904 0.931 . S
C1920 C1914 1.383 . S
C1920 C1919 1.379 . S
H1921 C1915 0.959 . S
H1922 C1915 0.961 . S
H1923 C1915 0.960 . S
H1924 C1916 0.930 . S
H1925 C1917 0.929 . S
H1926 C1934 0.929 . S
H1927 C1936 0.930 . S
H1928 C1938 0.930 . S
H1929 C1941 0.929 . S
H1930 C1944 0.930 . S
H1931 C1946 0.960 . S
H1932 C1946 0.960 . S
H1933 C1946 0.960 . S
C1934 H1926 0.929 . S
C1934 C1935 1.377 . S
C1934 C1936 1.384 . S
C1935 C1934 1.377 . S
C1935 C1941 1.390 . S
C1936 H1927 0.930 . S
C1936 C1934 1.384 . S
C1936 C1937 1.372 . S
C1937 C1936 1.372 . S
C1937 C1938 1.400 . S
C1937 C1942 1.490 . S
C1938 H1928 0.930 . S
C1938 C1937 1.400 . S
C1938 C1941 1.386 . S
H1939 C1955 0.930 . S
H1940 C1956 0.931 . S
C1941 H1929 0.929 . S
C1941 C1935 1.390 . S
C1941 C1938 1.386 . S
C1942 C1937 1.490 . S
C1942 C1944 1.395 . S
C1942 C1945 1.403 . S
H1943 C1949 0.930 . S
C1944 H1930 0.930 . S
C1944 C1942 1.395 . S
C1944 C1947 1.403 . S
C1945 C1942 1.403 . S
C1945 C1946 1.524 . S
C1945 C1949 1.400 . S
C1946 H1931 0.960 . S
C1946 H1932 0.960 . S
C1946 H1933 0.960 . S
C1946 C1945 1.524 . S
C1947 C1944 1.403 . S
C1947 C1948 1.392 . S
C1947 C1951 1.495 . S
C1948 C1947 1.392 . S
C1948 C1949 1.385 . S
C1948 C1950 1.478 . S
C1949 H1943 0.930 . S
C1949 C1945 1.400 . S
C1949 C1948 1.385 . S
C1950 C1948 1.478 . S
C1950 C1952 1.381 . S
C1950 C1956 1.383 . S
C1951 C1947 1.495 . S
C1951 H1957 0.959 . S
C1951 H1958 0.961 . S
C1951 H1959 0.960 . S
C1952 C1950 1.381 . S
C1952 C1953 1.394 . S
C1952 H1960 0.930 . S
C1953 C1952 1.394 . S
C1953 C1954 1.383 . S
C1953 H1961 0.929 . S
C1954 C1953 1.383 . S
C1954 C1955 1.377 . S
C1955 H1939 0.930 . S
C1955 C1954 1.377 . S
C1955 C1956 1.379 . S
C1956 H1940 0.931 . S
C1956 C1950 1.383 . S
C1956 C1955 1.379 . S
H1957 C1951 0.959 . S
H1958 C1951 0.961 . S
H1959 C1951 0.960 . S
H1960 C1952 0.930 . S
H1961 C1953 0.929 . S
H1962 C1970 0.929 . S
H1963 C1972 0.930 . S
H1964 C1974 0.930 . S
H1965 C1977 0.929 . S
H1966 C1980 0.930 . S
H1967 C1982 0.960 . S
H1968 C1982 0.960 . S
H1969 C1982 0.960 . S
C1970 H1962 0.929 . S
C1970 C1971 1.377 . S
C1970 C1972 1.384 . S
C1971 C1970 1.377 . S
C1971 C1977 1.390 . S
C1972 H1963 0.930 . S
C1972 C1970 1.384 . S
C1972 C1973 1.372 . S
C1973 C1972 1.372 . S
C1973 C1974 1.400 . S
C1973 C1978 1.490 . S
C1974 H1964 0.930 . S
C1974 C1973 1.400 . S
C1974 C1977 1.386 . S
H1975 C1991 0.930 . S
H1976 C1992 0.931 . S
C1977 H1965 0.929 . S
C1977 C1971 1.390 . S
C1977 C1974 1.386 . S
C1978 C1973 1.490 . S
C1978 C1980 1.395 . S
C1978 C1981 1.403 . S
H1979 C1985 0.930 . S
C1980 H1966 0.930 . S
C1980 C1978 1.395 . S
C1980 C1983 1.403 . S
C1981 C1978 1.403 . S
C1981 C1982 1.524 . S
C1981 C1985 1.400 . S
C1982 H1967 0.960 . S
C1982 H1968 0.960 . S
C1982 H1969 0.960 . S
C1982 C1981 1.524 . S
C1983 C1980 1.403 . S
C1983 C1984 1.392 . S
C1983 C1987 1.495 . S
C1984 C1983 1.392 . S
C1984 C1985 1.385 . S
C1984 C1986 1.478 . S
C1985 H1979 0.930 . S
C1985 C1981 1.400 . S
C1985 C1984 1.385 . S
C1986 C1984 1.478 . S
C1986 C1988 1.381 . S
C1986 C1992 1.383 . S
C1987 C1983 1.495 . S
C1987 H1993 0.959 . S
C1987 H1994 0.961 . S
C1987 H1995 0.960 . S
C1988 C1986 1.381 . S
C1988 C1989 1.394 . S
C1988 H1996 0.930 . S
C1989 C1988 1.394 . S
C1989 C1990 1.383 . S
C1989 H1997 0.929 . S
C1990 C1989 1.383 . S
C1990 C1991 1.377 . S
C1991 H1975 0.930 . S
C1991 C1990 1.377 . S
C1991 C1992 1.379 . S
C1992 H1976 0.931 . S
C1992 C1986 1.383 . S
C1992 C1991 1.379 . S
H1993 C1987 0.959 . S
H1994 C1987 0.961 . S
H1995 C1987 0.960 . S
H1996 C1988 0.930 . S
H1997 C1989 0.929 . S
H1998 C2006 0.929 . S
H1999 C2008 0.930 . S
H2000 C2010 0.930 . S
H2001 C2013 0.929 . S
H2002 C2016 0.930 . S
H2003 C2018 0.960 . S
H2004 C2018 0.960 . S
H2005 C2018 0.960 . S
C2006 H1998 0.929 . S
C2006 C2007 1.377 . S
C2006 C2008 1.384 . S
C2007 C2006 1.377 . S
C2007 C2013 1.390 . S
C2008 H1999 0.930 . S
C2008 C2006 1.384 . S
C2008 C2009 1.372 . S
C2009 C2008 1.372 . S
C2009 C2010 1.400 . S
C2009 C2014 1.490 . S
C2010 H2000 0.930 . S
C2010 C2009 1.400 . S
C2010 C2013 1.386 . S
H2011 C2027 0.930 . S
H2012 C2028 0.931 . S
C2013 H2001 0.929 . S
C2013 C2007 1.390 . S
C2013 C2010 1.386 . S
C2014 C2009 1.490 . S
C2014 C2016 1.395 . S
C2014 C2017 1.403 . S
H2015 C2021 0.930 . S
C2016 H2002 0.930 . S
C2016 C2014 1.395 . S
C2016 C2019 1.403 . S
C2017 C2014 1.403 . S
C2017 C2018 1.524 . S
C2017 C2021 1.400 . S
C2018 H2003 0.960 . S
C2018 H2004 0.960 . S
C2018 H2005 0.960 . S
C2018 C2017 1.524 . S
C2019 C2016 1.403 . S
C2019 C2020 1.392 . S
C2019 C2023 1.495 . S
C2020 C2019 1.392 . S
C2020 C2021 1.385 . S
C2020 C2022 1.478 . S
C2021 H2015 0.930 . S
C2021 C2017 1.400 . S
C2021 C2020 1.385 . S
C2022 C2020 1.478 . S
C2022 C2024 1.381 . S
C2022 C2028 1.383 . S
C2023 C2019 1.495 . S
C2023 H2029 0.959 . S
C2023 H2030 0.961 . S
C2023 H2031 0.960 . S
C2024 C2022 1.381 . S
C2024 C2025 1.394 . S
C2024 H2032 0.930 . S
C2025 C2024 1.394 . S
C2025 C2026 1.383 . S
C2025 H2033 0.929 . S
C2026 C2025 1.383 . S
C2026 C2027 1.377 . S
C2027 H2011 0.930 . S
C2027 C2026 1.377 . S
C2027 C2028 1.379 . S
C2028 H2012 0.931 . S
C2028 C2022 1.383 . S
C2028 C2027 1.379 . S
H2029 C2023 0.959 . S
H2030 C2023 0.961 . S
H2031 C2023 0.960 . S
H2032 C2024 0.930 . S
H2033 C2025 0.929 . S
H2034 C2042 0.929 . S
H2035 C2044 0.930 . S
H2036 C2046 0.930 . S
H2037 C2049 0.929 . S
H2038 C2052 0.930 . S
H2039 C2054 0.983 . S
H2040 C2054 0.919 1_565 S
H2041 C2054 0.958 1_565 S
C2042 H2034 0.929 . S
C2042 C2043 1.377 . S
C2042 C2044 1.384 . S
C2043 C2042 1.377 . S
C2043 C2049 1.390 . S
C2044 H2035 0.930 . S
C2044 C2042 1.384 . S
C2044 C2045 1.372 . S
C2045 C2044 1.372 . S
C2045 C2046 1.400 . S
C2045 C2050 1.490 1_565 S
C2046 H2036 0.930 . S
C2046 C2045 1.400 . S
C2046 C2049 1.386 . S
H2047 C2063 0.930 . S
H2048 C2064 0.931 . S
C2049 H2037 0.929 . S
C2049 C2043 1.390 . S
C2049 C2046 1.386 . S
C2050 C2045 1.490 1_545 S
C2050 C2052 1.395 . S
C2050 C2053 1.403 . S
H2051 C2057 0.930 . S
C2052 H2038 0.930 . S
C2052 C2050 1.395 . S
C2052 C2055 1.403 . S
C2053 C2050 1.403 . S
C2053 C2054 1.546 . S
C2053 C2057 1.400 . S
C2054 H2039 0.983 . S
C2054 H2040 0.919 1_545 S
C2054 H2041 0.958 1_545 S
C2054 C2053 1.546 . S
C2055 C2052 1.403 . S
C2055 C2056 1.392 . S
C2055 C2059 1.495 . S
C2056 C2055 1.392 . S
C2056 C2057 1.385 . S
C2056 C2058 1.478 . S
C2057 H2051 0.930 . S
C2057 C2053 1.400 . S
C2057 C2056 1.385 . S
C2058 C2056 1.478 . S
C2058 C2060 1.381 . S
C2058 C2064 1.383 . S
C2059 C2055 1.495 . S
C2059 H2065 0.959 . S
C2059 H2066 0.961 . S
C2059 H2067 0.960 . S
C2060 C2058 1.381 . S
C2060 C2061 1.394 . S
C2060 H2068 0.930 . S
C2061 C2060 1.394 . S
C2061 C2062 1.383 . S
C2061 H2069 0.929 . S
C2062 C2061 1.383 . S
C2062 C2063 1.377 . S
C2063 H2047 0.930 . S
C2063 C2062 1.377 . S
C2063 C2064 1.379 . S
C2064 H2048 0.931 . S
C2064 C2058 1.383 . S
C2064 C2063 1.379 . S
H2065 C2059 0.959 . S
H2066 C2059 0.961 . S
H2067 C2059 0.960 . S
H2068 C2060 0.930 . S
H2069 C2061 0.929 . S
H2070 C2078 0.929 . S
H2071 C2080 0.930 . S
H2072 C2082 0.931 . S
H2073 C2085 0.929 . S
H2074 C2088 0.930 . S
H2075 C2090 0.960 . S
H2076 C2090 0.960 . S
H2077 C2090 0.960 . S
C2078 H2070 0.929 . S
C2078 C2079 1.377 . S
C2078 C2080 1.384 . S
C2079 C2078 1.377 . S
C2079 C2085 1.390 . S
C2080 H2071 0.930 . S
C2080 C2078 1.384 . S
C2080 C2081 1.372 1_455 S
C2081 C2080 1.372 1_655 S
C2081 C2082 1.404 . S
C2081 C2086 1.490 . S
C2082 H2072 0.931 . S
C2082 C2081 1.404 . S
C2082 C2085 1.380 1_655 S
H2083 C2099 0.930 . S
H2084 C2100 0.931 . S
C2085 H2073 0.929 . S
C2085 C2079 1.390 . S
C2085 C2082 1.380 1_455 S
C2086 C2081 1.490 . S
C2086 C2088 1.395 . S
C2086 C2089 1.403 . S
H2087 C2093 0.930 . S
C2088 H2074 0.930 . S
C2088 C2086 1.395 . S
C2088 C2091 1.403 . S
C2089 C2086 1.403 . S
C2089 C2090 1.524 . S
C2089 C2093 1.400 . S
C2090 H2075 0.960 . S
C2090 H2076 0.960 . S
C2090 H2077 0.960 . S
C2090 C2089 1.524 . S
C2091 C2088 1.403 . S
C2091 C2092 1.392 . S
C2091 C2095 1.495 . S
C2092 C2091 1.392 . S
C2092 C2093 1.385 . S
C2092 C2094 1.478 . S
C2093 H2087 0.930 . S
C2093 C2089 1.400 . S
C2093 C2092 1.385 . S
C2094 C2092 1.478 . S
C2094 C2096 1.381 . S
C2094 C2100 1.383 . S
C2095 C2091 1.495 . S
C2095 H2101 0.959 . S
C2095 H2102 0.961 . S
C2095 H2103 0.960 . S
C2096 C2094 1.381 . S
C2096 C2097 1.394 . S
C2096 H2104 0.930 . S
C2097 C2096 1.394 . S
C2097 C2098 1.383 . S
C2097 H2105 0.929 . S
C2098 C2097 1.383 . S
C2098 C2099 1.377 . S
C2099 H2083 0.930 . S
C2099 C2098 1.377 . S
C2099 C2100 1.379 . S
C2100 H2084 0.931 . S
C2100 C2094 1.383 . S
C2100 C2099 1.379 . S
H2101 C2095 0.959 . S
H2102 C2095 0.961 . S
H2103 C2095 0.960 . S
H2104 C2096 0.930 . S
H2105 C2097 0.929 . S
H2106 C2114 0.929 . S
H2107 C2116 0.930 . S
H2108 C2118 0.930 . S
H2109 C2121 0.929 . S
H2110 C2124 0.930 . S
H2111 C2126 0.960 . S
H2112 C2126 0.960 . S
H2113 C2126 0.960 . S
C2114 H2106 0.929 . S
C2114 C2115 1.377 . S
C2114 C2116 1.384 . S
C2115 C2114 1.377 . S
C2115 C2121 1.390 . S
C2116 H2107 0.930 . S
C2116 C2114 1.384 . S
C2116 C2117 1.372 . S
C2117 C2116 1.372 . S
C2117 C2118 1.400 . S
C2117 C2122 1.490 . S
C2118 H2108 0.930 . S
C2118 C2117 1.400 . S
C2118 C2121 1.386 . S
H2119 C2135 0.930 . S
H2120 C2136 0.931 . S
C2121 H2109 0.929 . S
C2121 C2115 1.390 . S
C2121 C2118 1.386 . S
C2122 C2117 1.490 . S
C2122 C2124 1.395 . S
C2122 C2125 1.403 . S
H2123 C2129 0.930 . S
C2124 H2110 0.930 . S
C2124 C2122 1.395 . S
C2124 C2127 1.403 . S
C2125 C2122 1.403 . S
C2125 C2126 1.524 . S
C2125 C2129 1.400 . S
C2126 H2111 0.960 . S
C2126 H2112 0.960 . S
C2126 H2113 0.960 . S
C2126 C2125 1.524 . S
C2127 C2124 1.403 . S
C2127 C2128 1.392 . S
C2127 C2131 1.495 . S
C2128 C2127 1.392 . S
C2128 C2129 1.385 . S
C2128 C2130 1.478 . S
C2129 H2123 0.930 . S
C2129 C2125 1.400 . S
C2129 C2128 1.385 . S
C2130 C2128 1.478 . S
C2130 C2132 1.381 . S
C2130 C2136 1.383 . S
C2131 C2127 1.495 . S
C2131 H2137 0.959 . S
C2131 H2138 0.961 . S
C2131 H2139 0.960 . S
C2132 C2130 1.381 . S
C2132 C2133 1.394 . S
C2132 H2140 0.930 . S
C2133 C2132 1.394 . S
C2133 C2134 1.383 . S
C2133 H2141 0.929 . S
C2134 C2133 1.383 . S
C2134 C2135 1.377 . S
C2135 H2119 0.930 . S
C2135 C2134 1.377 . S
C2135 C2136 1.379 . S
C2136 H2120 0.931 . S
C2136 C2130 1.383 . S
C2136 C2135 1.379 . S
H2137 C2131 0.959 . S
H2138 C2131 0.961 . S
H2139 C2131 0.960 . S
H2140 C2132 0.930 . S
H2141 C2133 0.929 . S
H2142 C2150 0.929 . S
H2143 C2152 0.930 . S
H2144 C2154 0.930 . S
H2145 C2157 0.929 . S
H2146 C2160 0.930 . S
H2147 C2162 0.960 . S
H2148 C2162 0.960 . S
H2149 C2162 0.960 . S
C2150 H2142 0.929 . S
C2150 C2151 1.377 . S
C2150 C2152 1.384 . S
C2151 C2150 1.377 . S
C2151 C2157 1.390 . S
C2152 H2143 0.930 . S
C2152 C2150 1.384 . S
C2152 C2153 1.372 . S
C2153 C2152 1.372 . S
C2153 C2154 1.400 . S
C2153 C2158 1.490 1_455 S
C2154 H2144 0.930 . S
C2154 C2153 1.400 . S
C2154 C2157 1.386 . S
H2155 C2171 0.930 . S
H2156 C2172 0.931 . S
C2157 H2145 0.929 . S
C2157 C2151 1.390 . S
C2157 C2154 1.386 . S
C2158 C2153 1.490 1_655 S
C2158 C2160 1.395 . S
C2158 C2161 1.403 . S
H2159 C2165 0.930 . S
C2160 H2146 0.930 . S
C2160 C2158 1.395 . S
C2160 C2163 1.403 . S
C2161 C2158 1.403 . S
C2161 C2162 1.524 . S
C2161 C2165 1.400 . S
C2162 H2147 0.960 . S
C2162 H2148 0.960 . S
C2162 H2149 0.960 . S
C2162 C2161 1.524 . S
C2163 C2160 1.403 . S
C2163 C2164 1.392 . S
C2163 C2167 1.495 . S
C2164 C2163 1.392 . S
C2164 C2165 1.385 . S
C2164 C2166 1.478 . S
C2165 H2159 0.930 . S
C2165 C2161 1.400 . S
C2165 C2164 1.385 . S
C2166 C2164 1.478 . S
C2166 C2168 1.381 . S
C2166 C2172 1.383 . S
C2167 C2163 1.495 . S
C2167 H2173 0.959 . S
C2167 H2174 0.961 . S
C2167 H2175 0.960 . S
C2168 C2166 1.381 . S
C2168 C2169 1.394 . S
C2168 H2176 0.930 . S
C2169 C2168 1.394 . S
C2169 C2170 1.383 . S
C2169 H2177 0.929 . S
C2170 C2169 1.383 . S
C2170 C2171 1.377 . S
C2171 H2155 0.930 . S
C2171 C2170 1.377 . S
C2171 C2172 1.379 . S
C2172 H2156 0.931 . S
C2172 C2166 1.383 . S
C2172 C2171 1.379 . S
H2173 C2167 0.959 . S
H2174 C2167 0.961 . S
H2175 C2167 0.960 . S
H2176 C2168 0.930 . S
H2177 C2169 0.929 . S
H2178 C2186 0.929 . S
H2179 C2188 0.930 . S
H2180 C2190 0.930 . S
H2181 C2193 0.929 . S
H2182 C2196 0.930 . S
H2183 C2198 0.960 . S
H2184 C2198 0.960 . S
H2185 C2198 0.960 . S
C2186 H2178 0.929 . S
C2186 C2187 1.377 . S
C2186 C2188 1.384 . S
C2187 C2186 1.377 . S
C2187 C2193 1.390 . S
C2188 H2179 0.930 . S
C2188 C2186 1.384 . S
C2188 C2189 1.372 . S
C2189 C2188 1.372 . S
C2189 C2190 1.400 . S
C2189 C2194 1.490 . S
C2190 H2180 0.930 . S
C2190 C2189 1.400 . S
C2190 C2193 1.386 . S
H2191 C2207 0.930 . S
H2192 C2208 0.931 . S
C2193 H2181 0.929 . S
C2193 C2187 1.390 . S
C2193 C2190 1.386 . S
C2194 C2189 1.490 . S
C2194 C2196 1.395 . S
C2194 C2197 1.403 . S
H2195 C2201 0.930 . S
C2196 H2182 0.930 . S
C2196 C2194 1.395 . S
C2196 C2199 1.403 . S
C2197 C2194 1.403 . S
C2197 C2198 1.524 . S
C2197 C2201 1.400 . S
C2198 H2183 0.960 . S
C2198 H2184 0.960 . S
C2198 H2185 0.960 . S
C2198 C2197 1.524 . S
C2199 C2196 1.403 . S
C2199 C2200 1.392 . S
C2199 C2203 1.495 . S
C2200 C2199 1.392 . S
C2200 C2201 1.385 . S
C2200 C2202 1.478 . S
C2201 H2195 0.930 . S
C2201 C2197 1.400 . S
C2201 C2200 1.385 . S
C2202 C2200 1.478 . S
C2202 C2204 1.381 . S
C2202 C2208 1.383 . S
C2203 C2199 1.495 . S
C2203 H2209 0.959 . S
C2203 H2210 0.961 . S
C2203 H2211 0.960 . S
C2204 C2202 1.381 . S
C2204 C2205 1.394 . S
C2204 H2212 0.930 . S
C2205 C2204 1.394 . S
C2205 C2206 1.383 . S
C2205 H2213 0.929 . S
C2206 C2205 1.383 . S
C2206 C2207 1.377 . S
C2207 H2191 0.930 . S
C2207 C2206 1.377 . S
C2207 C2208 1.379 . S
C2208 H2192 0.931 . S
C2208 C2202 1.383 . S
C2208 C2207 1.379 . S
H2209 C2203 0.959 . S
H2210 C2203 0.961 . S
H2211 C2203 0.960 . S
H2212 C2204 0.930 . S
H2213 C2205 0.929 . S
H2214 C2222 0.929 . S
H2215 C2224 0.930 . S
H2216 C2226 0.930 . S
H2217 C2229 0.929 . S
H2218 C2232 0.930 . S
H2219 C2234 0.983 . S
H2220 C2234 0.942 1_565 S
H2221 C2234 0.956 1_565 S
C2222 H2214 0.929 . S
C2222 C2223 1.377 . S
C2222 C2224 1.384 . S
C2223 C2222 1.377 . S
C2223 C2229 1.390 . S
C2224 H2215 0.930 . S
C2224 C2222 1.384 . S
C2224 C2225 1.372 . S
C2225 C2224 1.372 . S
C2225 C2226 1.400 . S
C2225 C2230 1.448 1_565 S
C2226 H2216 0.930 . S
C2226 C2225 1.400 . S
C2226 C2229 1.386 . S
H2227 C2243 0.930 . S
H2228 C2244 0.931 . S
C2229 H2217 0.929 . S
C2229 C2223 1.390 . S
C2229 C2226 1.386 . S
C2230 C2225 1.448 1_545 S
C2230 C2232 1.398 . S
C2230 C2233 1.442 . S
H2231 C2237 0.930 . S
C2232 H2218 0.930 . S
C2232 C2230 1.398 . S
C2232 C2235 1.403 . S
C2233 C2230 1.442 . S
C2233 C2234 1.524 . S
C2233 C2237 1.400 . S
C2234 H2219 0.983 . S
C2234 H2220 0.942 1_545 S
C2234 H2221 0.956 1_545 S
C2234 C2233 1.524 . S
C2235 C2232 1.403 . S
C2235 C2236 1.392 . S
C2235 C2239 1.495 . S
C2236 C2235 1.392 . S
C2236 C2237 1.385 . S
C2236 C2238 1.478 . S
C2237 H2231 0.930 . S
C2237 C2233 1.400 . S
C2237 C2236 1.385 . S
C2238 C2236 1.478 . S
C2238 C2240 1.381 . S
C2238 C2244 1.383 . S
C2239 C2235 1.495 . S
C2239 H2245 0.959 . S
C2239 H2246 0.961 . S
C2239 H2247 0.960 . S
C2240 C2238 1.381 . S
C2240 C2241 1.394 . S
C2240 H2248 0.930 . S
C2241 C2240 1.394 . S
C2241 C2242 1.383 . S
C2241 H2249 0.929 . S
C2242 C2241 1.383 . S
C2242 C2243 1.377 . S
C2243 H2227 0.930 . S
C2243 C2242 1.377 . S
C2243 C2244 1.379 . S
C2244 H2228 0.931 . S
C2244 C2238 1.383 . S
C2244 C2243 1.379 . S
H2245 C2239 0.959 . S
H2246 C2239 0.961 . S
H2247 C2239 0.960 . S
H2248 C2240 0.930 . S
H2249 C2241 0.929 . S
H2250 C2258 0.929 . S
H2251 C2260 0.930 . S
H2252 C2262 0.930 . S
H2253 C2265 0.929 . S
H2254 C2268 0.930 . S
H2255 C2270 0.960 . S
H2256 C2270 0.960 . S
H2257 C2270 0.960 . S
C2258 H2250 0.929 . S
C2258 C2259 1.377 . S
C2258 C2260 1.384 . S
C2259 C2258 1.377 . S
C2259 C2265 1.390 . S
C2260 H2251 0.930 . S
C2260 C2258 1.384 . S
C2260 C2261 1.372 . S
C2261 C2260 1.372 . S
C2261 C2262 1.400 . S
C2261 C2266 1.490 . S
C2262 H2252 0.930 . S
C2262 C2261 1.400 . S
C2262 C2265 1.386 . S
H2263 C2279 0.930 . S
H2264 C2280 0.931 . S
C2265 H2253 0.929 . S
C2265 C2259 1.390 . S
C2265 C2262 1.386 . S
C2266 C2261 1.490 . S
C2266 C2268 1.395 . S
C2266 C2269 1.403 . S
H2267 C2273 0.930 . S
C2268 H2254 0.930 . S
C2268 C2266 1.395 . S
C2268 C2271 1.403 . S
C2269 C2266 1.403 . S
C2269 C2270 1.524 . S
C2269 C2273 1.400 . S
C2270 H2255 0.960 . S
C2270 H2256 0.960 . S
C2270 H2257 0.960 . S
C2270 C2269 1.524 . S
C2271 C2268 1.403 . S
C2271 C2272 1.392 . S
C2271 C2275 1.495 . S
C2272 C2271 1.392 . S
C2272 C2273 1.385 . S
C2272 C2274 1.478 . S
C2273 H2267 0.930 . S
C2273 C2269 1.400 . S
C2273 C2272 1.385 . S
C2274 C2272 1.478 . S
C2274 C2276 1.381 . S
C2274 C2280 1.383 . S
C2275 C2271 1.495 . S
C2275 H2281 0.959 . S
C2275 H2282 0.961 . S
C2275 H2283 0.960 . S
C2276 C2274 1.381 . S
C2276 C2277 1.394 . S
C2276 H2284 0.930 . S
C2277 C2276 1.394 . S
C2277 C2278 1.383 . S
C2277 H2285 0.929 . S
C2278 C2277 1.383 . S
C2278 C2279 1.377 . S
C2279 H2263 0.930 . S
C2279 C2278 1.377 . S
C2279 C2280 1.379 . S
C2280 H2264 0.931 . S
C2280 C2274 1.383 . S
C2280 C2279 1.379 . S
H2281 C2275 0.959 . S
H2282 C2275 0.961 . S
H2283 C2275 0.960 . S
H2284 C2276 0.930 . S
H2285 C2277 0.929 . S
H2286 C2294 0.929 . S
H2287 C2296 0.930 . S
H2288 C2298 0.930 . S
H2289 C2301 0.929 . S
H2290 C2304 0.930 . S
H2291 C2306 0.960 . S
H2292 C2306 0.960 . S
H2293 C2306 0.960 . S
C2294 H2286 0.929 . S
C2294 C2295 1.377 . S
C2294 C2296 1.384 . S
C2295 C2294 1.377 . S
C2295 C2301 1.390 . S
C2296 H2287 0.930 . S
C2296 C2294 1.384 . S
C2296 C2297 1.372 . S
C2297 C2296 1.372 . S
C2297 C2298 1.400 . S
C2297 C2302 1.490 . S
C2298 H2288 0.930 . S
C2298 C2297 1.400 . S
C2298 C2301 1.386 . S
H2299 C2315 0.930 . S
H2300 C2316 0.931 . S
C2301 H2289 0.929 . S
C2301 C2295 1.390 . S
C2301 C2298 1.386 . S
C2302 C2297 1.490 . S
C2302 C2304 1.395 . S
C2302 C2305 1.403 . S
H2303 C2309 0.930 . S
C2304 H2290 0.930 . S
C2304 C2302 1.395 . S
C2304 C2307 1.403 . S
C2305 C2302 1.403 . S
C2305 C2306 1.524 . S
C2305 C2309 1.400 . S
C2306 H2291 0.960 . S
C2306 H2292 0.960 . S
C2306 H2293 0.960 . S
C2306 C2305 1.524 . S
C2307 C2304 1.403 . S
C2307 C2308 1.392 . S
C2307 C2311 1.495 . S
C2308 C2307 1.392 . S
C2308 C2309 1.385 . S
C2308 C2310 1.478 . S
C2309 H2303 0.930 . S
C2309 C2305 1.400 . S
C2309 C2308 1.385 . S
C2310 C2308 1.478 . S
C2310 C2312 1.381 . S
C2310 C2316 1.383 . S
C2311 C2307 1.495 . S
C2311 H2317 0.959 . S
C2311 H2318 0.961 . S
C2311 H2319 0.960 . S
C2312 C2310 1.381 . S
C2312 C2313 1.394 . S
C2312 H2320 0.930 . S
C2313 C2312 1.394 . S
C2313 C2314 1.383 . S
C2313 H2321 0.929 . S
C2314 C2313 1.383 . S
C2314 C2315 1.377 . S
C2315 H2299 0.930 . S
C2315 C2314 1.377 . S
C2315 C2316 1.379 . S
C2316 H2300 0.931 . S
C2316 C2310 1.383 . S
C2316 C2315 1.379 . S
H2317 C2311 0.959 . S
H2318 C2311 0.961 . S
H2319 C2311 0.960 . S
H2320 C2312 0.930 . S
H2321 C2313 0.929 . S
H2322 C2330 0.929 . S
H2323 C2332 0.930 . S
H2324 C2334 0.930 . S
H2325 C2337 0.929 . S
H2326 C2340 0.930 . S
H2327 C2342 0.960 . S
H2328 C2342 0.960 . S
H2329 C2342 0.960 . S
C2330 H2322 0.929 . S
C2330 C2331 1.377 . S
C2330 C2332 1.384 . S
C2331 C2330 1.377 . S
C2331 C2337 1.390 . S
C2332 H2323 0.930 . S
C2332 C2330 1.384 . S
C2332 C2333 1.372 . S
C2333 C2332 1.372 . S
C2333 C2334 1.400 . S
C2333 C2338 1.490 . S
C2334 H2324 0.930 . S
C2334 C2333 1.400 . S
C2334 C2337 1.386 . S
H2335 C2351 0.930 . S
H2336 C2352 0.931 . S
C2337 H2325 0.929 . S
C2337 C2331 1.390 . S
C2337 C2334 1.386 . S
C2338 C2333 1.490 . S
C2338 C2340 1.395 . S
C2338 C2341 1.403 . S
H2339 C2345 0.930 . S
C2340 H2326 0.930 . S
C2340 C2338 1.395 . S
C2340 C2343 1.403 . S
C2341 C2338 1.403 . S
C2341 C2342 1.524 . S
C2341 C2345 1.400 . S
C2342 H2327 0.960 . S
C2342 H2328 0.960 . S
C2342 H2329 0.960 . S
C2342 C2341 1.524 . S
C2343 C2340 1.403 . S
C2343 C2344 1.392 . S
C2343 C2347 1.495 . S
C2344 C2343 1.392 . S
C2344 C2345 1.385 . S
C2344 C2346 1.478 . S
C2345 H2339 0.930 . S
C2345 C2341 1.400 . S
C2345 C2344 1.385 . S
C2346 C2344 1.478 . S
C2346 C2348 1.381 . S
C2346 C2352 1.383 . S
C2347 C2343 1.495 . S
C2347 H2353 0.959 . S
C2347 H2354 0.961 . S
C2347 H2355 0.960 . S
C2348 C2346 1.381 . S
C2348 C2349 1.394 . S
C2348 H2356 0.930 . S
C2349 C2348 1.394 . S
C2349 C2350 1.383 . S
C2349 H2357 0.929 . S
C2350 C2349 1.383 . S
C2350 C2351 1.377 . S
C2351 H2335 0.930 . S
C2351 C2350 1.377 . S
C2351 C2352 1.379 . S
C2352 H2336 0.931 . S
C2352 C2346 1.383 . S
C2352 C2351 1.379 . S
H2353 C2347 0.959 . S
H2354 C2347 0.961 . S
H2355 C2347 0.960 . S
H2356 C2348 0.930 . S
H2357 C2349 0.929 . S
H2358 C2366 0.929 . S
H2359 C2368 0.930 . S
H2360 C2370 0.930 . S
H2361 C2373 0.929 . S
H2362 C2376 0.930 . S
H2363 C2378 0.960 . S
H2364 C2378 0.960 . S
H2365 C2378 0.960 . S
C2366 H2358 0.929 . S
C2366 C2367 1.377 . S
C2366 C2368 1.384 . S
C2367 C2366 1.377 . S
C2367 C2373 1.390 . S
C2368 H2359 0.930 . S
C2368 C2366 1.384 . S
C2368 C2369 1.372 . S
C2369 C2368 1.372 . S
C2369 C2370 1.400 . S
C2369 C2374 1.490 . S
C2370 H2360 0.930 . S
C2370 C2369 1.400 . S
C2370 C2373 1.386 . S
H2371 C2387 0.930 1_545 S
H2372 C2388 0.931 . S
C2373 H2361 0.929 . S
C2373 C2367 1.390 . S
C2373 C2370 1.386 . S
C2374 C2369 1.490 . S
C2374 C2376 1.395 . S
C2374 C2377 1.403 . S
H2375 C2381 0.930 . S
C2376 H2362 0.930 . S
C2376 C2374 1.395 . S
C2376 C2379 1.403 . S
C2377 C2374 1.403 . S
C2377 C2378 1.524 . S
C2377 C2381 1.400 . S
C2378 H2363 0.960 . S
C2378 H2364 0.960 . S
C2378 H2365 0.960 . S
C2378 C2377 1.524 . S
C2379 C2376 1.403 . S
C2379 C2380 1.392 . S
C2379 C2383 1.495 1_565 S
C2380 C2379 1.392 . S
C2380 C2381 1.385 . S
C2380 C2382 1.478 . S
C2381 H2375 0.930 . S
C2381 C2377 1.400 . S
C2381 C2380 1.385 . S
C2382 C2380 1.478 . S
C2382 C2384 1.381 . S
C2382 C2388 1.383 . S
C2383 C2379 1.495 1_545 S
C2383 H2389 0.959 . S
C2383 H2390 0.961 . S
C2383 H2391 0.960 . S
C2384 C2382 1.381 . S
C2384 C2385 1.394 . S
C2384 H2392 0.930 . S
C2385 C2384 1.394 . S
C2385 C2386 1.383 . S
C2385 H2393 0.929 . S
C2386 C2385 1.383 . S
C2386 C2387 1.377 . S
C2387 H2371 0.930 1_565 S
C2387 C2386 1.377 . S
C2387 C2388 1.379 . S
C2388 H2372 0.931 . S
C2388 C2382 1.383 . S
C2388 C2387 1.379 . S
H2389 C2383 0.959 . S
H2390 C2383 0.961 . S
H2391 C2383 0.960 . S
H2392 C2384 0.930 . S
H2393 C2385 0.929 . S
H2394 C2402 0.929 . S
H2395 C2404 0.930 . S
H2396 C2406 0.930 . S
H2397 C2409 0.929 . S
H2398 C2412 0.930 . S
H2399 C2414 0.960 . S
H2400 C2414 0.960 . S
H2401 C2414 0.960 . S
C2402 H2394 0.929 . S
C2402 C2403 1.377 . S
C2402 C2404 1.384 . S
C2403 C2402 1.377 . S
C2403 C2409 1.390 1_455 S
C2404 H2395 0.930 . S
C2404 C2402 1.384 . S
C2404 C2405 1.372 . S
C2405 C2404 1.372 . S
C2405 C2406 1.400 1_455 S
C2405 C2410 1.490 . S
C2406 H2396 0.930 . S
C2406 C2405 1.400 1_655 S
C2406 C2409 1.386 . S
H2407 C2423 0.930 . S
H2408 C2424 0.931 . S
C2409 H2397 0.929 . S
C2409 C2403 1.390 1_655 S
C2409 C2406 1.386 . S
C2410 C2405 1.490 . S
C2410 C2412 1.395 . S
C2410 C2413 1.403 . S
H2411 C2417 0.930 . S
C2412 H2398 0.930 . S
C2412 C2410 1.395 . S
C2412 C2415 1.403 . S
C2413 C2410 1.403 . S
C2413 C2414 1.524 . S
C2413 C2417 1.400 . S
C2414 H2399 0.960 . S
C2414 H2400 0.960 . S
C2414 H2401 0.960 . S
C2414 C2413 1.524 . S
C2415 C2412 1.403 . S
C2415 C2416 1.392 . S
C2415 C2419 1.495 . S
C2416 C2415 1.392 . S
C2416 C2417 1.385 . S
C2416 C2418 1.478 . S
C2417 H2411 0.930 . S
C2417 C2413 1.400 . S
C2417 C2416 1.385 . S
C2418 C2416 1.478 . S
C2418 C2420 1.381 . S
C2418 C2424 1.383 1_455 S
C2419 C2415 1.495 . S
C2419 H2425 0.959 . S
C2419 H2426 0.961 1_455 S
C2419 H2427 0.960 . S
C2420 C2418 1.381 . S
C2420 C2421 1.394 . S
C2420 H2428 0.930 . S
C2421 C2420 1.394 . S
C2421 C2422 1.383 . S
C2421 H2429 0.929 . S
C2422 C2421 1.383 . S
C2422 C2423 1.377 1_455 S
C2423 H2407 0.930 . S
C2423 C2422 1.377 1_655 S
C2423 C2424 1.379 . S
C2424 H2408 0.931 . S
C2424 C2418 1.383 1_655 S
C2424 C2423 1.379 . S
H2425 C2419 0.959 . S
H2426 C2419 0.961 1_655 S
H2427 C2419 0.960 . S
H2428 C2420 0.930 . S
H2429 C2421 0.929 . S
H2430 C2438 0.929 . S
H2431 C2440 0.930 . S
H2432 C2442 0.930 . S
H2433 C2445 0.929 . S
H2434 C2448 0.930 . S
H2435 C2450 0.960 . S
H2436 C2450 0.960 . S
H2437 C2450 0.960 . S
C2438 H2430 0.929 . S
C2438 C2439 1.377 . S
C2438 C2440 1.384 . S
C2439 C2438 1.377 . S
C2439 C2445 1.390 . S
C2440 H2431 0.930 . S
C2440 C2438 1.384 . S
C2440 C2441 1.372 . S
C2441 C2440 1.372 . S
C2441 C2442 1.400 . S
C2441 C2446 1.490 . S
C2442 H2432 0.930 . S
C2442 C2441 1.400 . S
C2442 C2445 1.386 . S
H2443 C2459 0.930 . S
H2444 C2460 0.931 . S
C2445 H2433 0.929 . S
C2445 C2439 1.390 . S
C2445 C2442 1.386 . S
C2446 C2441 1.490 . S
C2446 C2448 1.395 . S
C2446 C2449 1.403 . S
H2447 C2453 0.930 . S
C2448 H2434 0.930 . S
C2448 C2446 1.395 . S
C2448 C2451 1.403 . S
C2449 C2446 1.403 . S
C2449 C2450 1.524 . S
C2449 C2453 1.400 . S
C2450 H2435 0.960 . S
C2450 H2436 0.960 . S
C2450 H2437 0.960 . S
C2450 C2449 1.524 . S
C2451 C2448 1.403 . S
C2451 C2452 1.392 . S
C2451 C2455 1.495 . S
C2452 C2451 1.392 . S
C2452 C2453 1.385 . S
C2452 C2454 1.478 . S
C2453 H2447 0.930 . S
C2453 C2449 1.400 . S
C2453 C2452 1.385 . S
C2454 C2452 1.478 . S
C2454 C2456 1.381 . S
C2454 C2460 1.383 . S
C2455 C2451 1.495 . S
C2455 H2461 0.959 . S
C2455 H2462 0.961 . S
C2455 H2463 0.960 . S
C2456 C2454 1.381 . S
C2456 C2457 1.394 . S
C2456 H2464 0.930 . S
C2457 C2456 1.394 . S
C2457 C2458 1.383 . S
C2457 H2465 0.929 . S
C2458 C2457 1.383 . S
C2458 C2459 1.377 . S
C2459 H2443 0.930 . S
C2459 C2458 1.377 . S
C2459 C2460 1.379 . S
C2460 H2444 0.931 . S
C2460 C2454 1.383 . S
C2460 C2459 1.379 . S
H2461 C2455 0.959 . S
H2462 C2455 0.961 . S
H2463 C2455 0.960 . S
H2464 C2456 0.930 . S
H2465 C2457 0.929 . S
H2466 C2474 0.929 . S
H2467 C2476 0.930 . S
H2468 C2478 0.930 . S
H2469 C2481 0.929 . S
H2470 C2484 0.930 . S
H2471 C2486 0.960 . S
H2472 C2486 0.960 . S
H2473 C2486 0.960 . S
C2474 H2466 0.929 . S
C2474 C2475 1.377 . S
C2474 C2476 1.384 . S
C2475 C2474 1.377 . S
C2475 C2481 1.390 1_655 S
C2476 H2467 0.930 . S
C2476 C2474 1.384 . S
C2476 C2477 1.372 . S
C2477 C2476 1.372 . S
C2477 C2478 1.400 1_655 S
C2477 C2482 1.490 . S
C2478 H2468 0.930 . S
C2478 C2477 1.400 1_455 S
C2478 C2481 1.386 . S
H2479 C2495 0.930 1_455 S
H2480 C2496 0.931 1_455 S
C2481 H2469 0.929 . S
C2481 C2475 1.390 1_455 S
C2481 C2478 1.386 . S
C2482 C2477 1.490 . S
C2482 C2484 1.395 . S
C2482 C2485 1.403 1_655 S
H2483 C2489 0.930 . S
C2484 H2470 0.930 . S
C2484 C2482 1.395 . S
C2484 C2487 1.403 . S
C2485 C2482 1.403 1_455 S
C2485 C2486 1.524 . S
C2485 C2489 1.400 . S
C2486 H2471 0.960 . S
C2486 H2472 0.960 . S
C2486 H2473 0.960 . S
C2486 C2485 1.524 . S
C2487 C2484 1.403 . S
C2487 C2488 1.392 . S
C2487 C2491 1.495 . S
C2488 C2487 1.392 . S
C2488 C2489 1.385 1_655 S
C2488 C2490 1.478 . S
C2489 H2483 0.930 . S
C2489 C2485 1.400 . S
C2489 C2488 1.385 1_455 S
C2490 C2488 1.478 . S
C2490 C2492 1.381 . S
C2490 C2496 1.383 . S
C2491 C2487 1.495 . S
C2491 H2497 0.959 . S
C2491 H2498 0.961 . S
C2491 H2499 0.960 . S
C2492 C2490 1.381 . S
C2492 C2493 1.394 . S
C2492 H2500 0.930 . S
C2493 C2492 1.394 . S
C2493 C2494 1.383 . S
C2493 H2501 0.929 . S
C2494 C2493 1.383 . S
C2494 C2495 1.377 . S
C2495 H2479 0.930 1_655 S
C2495 C2494 1.377 . S
C2495 C2496 1.379 . S
C2496 H2480 0.931 1_655 S
C2496 C2490 1.383 . S
C2496 C2495 1.379 . S
H2497 C2491 0.959 . S
H2498 C2491 0.961 . S
H2499 C2491 0.960 . S
H2500 C2492 0.930 . S
H2501 C2493 0.929 . S
H2502 C2510 0.929 . S
H2503 C2512 0.930 . S
H2504 C2514 0.930 . S
H2505 C2517 0.929 . S
H2506 C2520 0.930 . S
H2507 C2522 0.960 . S
H2508 C2522 0.960 . S
H2509 C2522 0.960 . S
C2510 H2502 0.929 . S
C2510 C2511 1.377 . S
C2510 C2512 1.384 . S
C2511 C2510 1.377 . S
C2511 C2517 1.390 . S
C2512 H2503 0.930 . S
C2512 C2510 1.384 . S
C2512 C2513 1.372 . S
C2513 C2512 1.372 . S
C2513 C2514 1.400 . S
C2513 C2518 1.490 . S
C2514 H2504 0.930 . S
C2514 C2513 1.400 . S
C2514 C2517 1.386 . S
H2515 C2531 0.930 . S
H2516 C2532 0.931 . S
C2517 H2505 0.929 . S
C2517 C2511 1.390 . S
C2517 C2514 1.386 . S
C2518 C2513 1.490 . S
C2518 C2520 1.395 . S
C2518 C2521 1.403 . S
H2519 C2525 0.930 . S
C2520 H2506 0.930 . S
C2520 C2518 1.395 . S
C2520 C2523 1.403 . S
C2521 C2518 1.403 . S
C2521 C2522 1.524 . S
C2521 C2525 1.400 . S
C2522 H2507 0.960 . S
C2522 H2508 0.960 . S
C2522 H2509 0.960 . S
C2522 C2521 1.524 . S
C2523 C2520 1.403 . S
C2523 C2524 1.392 . S
C2523 C2527 1.495 . S
C2524 C2523 1.392 . S
C2524 C2525 1.385 . S
C2524 C2526 1.478 . S
C2525 H2519 0.930 . S
C2525 C2521 1.400 . S
C2525 C2524 1.385 . S
C2526 C2524 1.478 . S
C2526 C2528 1.381 . S
C2526 C2532 1.383 . S
C2527 C2523 1.495 . S
C2527 H2533 0.959 . S
C2527 H2534 0.961 . S
C2527 H2535 0.960 . S
C2528 C2526 1.381 . S
C2528 C2529 1.394 . S
C2528 H2536 0.930 . S
C2529 C2528 1.394 . S
C2529 C2530 1.383 . S
C2529 H2537 0.929 . S
C2530 C2529 1.383 . S
C2530 C2531 1.377 . S
C2531 H2515 0.930 . S
C2531 C2530 1.377 . S
C2531 C2532 1.379 . S
C2532 H2516 0.931 . S
C2532 C2526 1.383 . S
C2532 C2531 1.379 . S
H2533 C2527 0.959 . S
H2534 C2527 0.961 . S
H2535 C2527 0.960 . S
H2536 C2528 0.930 . S
H2537 C2529 0.929 . S
H2538 C2546 0.929 . S
H2539 C2548 0.930 . S
H2540 C2550 0.930 . S
H2541 C2553 0.929 . S
H2542 C2556 0.930 . S
H2543 C2558 0.960 . S
H2544 C2558 0.960 . S
H2545 C2558 0.960 1_545 S
C2546 H2538 0.929 . S
C2546 C2547 1.377 . S
C2546 C2548 1.384 . S
C2547 C2546 1.377 . S
C2547 C2553 1.390 . S
C2548 H2539 0.930 . S
C2548 C2546 1.384 . S
C2548 C2549 1.372 . S
C2549 C2548 1.372 . S
C2549 C2550 1.400 . S
C2549 C2554 1.490 . S
C2550 H2540 0.930 . S
C2550 C2549 1.400 . S
C2550 C2553 1.386 . S
H2551 C2567 0.930 . S
H2552 C2568 0.931 . S
C2553 H2541 0.929 . S
C2553 C2547 1.390 . S
C2553 C2550 1.386 . S
C2554 C2549 1.490 . S
C2554 C2556 1.395 . S
C2554 C2557 1.403 . S
H2555 C2561 0.936 . S
C2556 H2542 0.930 . S
C2556 C2554 1.395 . S
C2556 C2559 1.403 . S
C2557 C2554 1.403 . S
C2557 C2558 1.524 1_545 S
C2557 C2561 1.400 . S
C2558 H2543 0.960 . S
C2558 H2544 0.960 . S
C2558 H2545 0.960 1_565 S
C2558 C2557 1.524 1_565 S
C2559 C2556 1.403 . S
C2559 C2560 1.392 . S
C2559 C2563 1.495 . S
C2560 C2559 1.392 . S
C2560 C2561 1.385 . S
C2560 C2562 1.478 . S
C2561 H2555 0.936 . S
C2561 C2557 1.400 . S
C2561 C2560 1.385 . S
C2562 C2560 1.478 . S
C2562 C2564 1.381 . S
C2562 C2568 1.383 . S
C2563 C2559 1.495 . S
C2563 H2569 0.959 . S
C2563 H2570 0.961 . S
C2563 H2571 0.960 . S
C2564 C2562 1.381 . S
C2564 C2565 1.394 . S
C2564 H2572 0.930 . S
C2565 C2564 1.394 . S
C2565 C2566 1.383 . S
C2565 H2573 0.929 . S
C2566 C2565 1.383 . S
C2566 C2567 1.377 . S
C2567 H2551 0.930 . S
C2567 C2566 1.377 . S
C2567 C2568 1.379 . S
C2568 H2552 0.931 . S
C2568 C2562 1.383 . S
C2568 C2567 1.379 . S
H2569 C2563 0.959 . S
H2570 C2563 0.961 . S
H2571 C2563 0.960 . S
H2572 C2564 0.930 . S
H2573 C2565 0.929 . S
H2574 C2582 0.929 . S
H2575 C2584 0.930 . S
H2576 C2586 0.930 . S
H2577 C2589 0.929 . S
H2578 C2592 0.930 . S
H2579 C2594 0.960 . S
H2580 C2594 0.960 . S
H2581 C2594 0.960 . S
C2582 H2574 0.929 . S
C2582 C2583 1.377 . S
C2582 C2584 1.384 . S
C2583 C2582 1.377 . S
C2583 C2589 1.390 . S
C2584 H2575 0.930 . S
C2584 C2582 1.384 . S
C2584 C2585 1.372 . S
C2585 C2584 1.372 . S
C2585 C2586 1.400 . S
C2585 C2590 1.490 . S
C2586 H2576 0.930 . S
C2586 C2585 1.400 . S
C2586 C2589 1.386 . S
H2587 C2603 0.930 . S
H2588 C2604 0.931 . S
C2589 H2577 0.929 . S
C2589 C2583 1.390 . S
C2589 C2586 1.386 . S
C2590 C2585 1.490 . S
C2590 C2592 1.395 . S
C2590 C2593 1.403 . S
H2591 C2597 0.930 . S
C2592 H2578 0.930 . S
C2592 C2590 1.395 . S
C2592 C2595 1.403 . S
C2593 C2590 1.403 . S
C2593 C2594 1.524 . S
C2593 C2597 1.400 . S
C2594 H2579 0.960 . S
C2594 H2580 0.960 . S
C2594 H2581 0.960 . S
C2594 C2593 1.524 . S
C2595 C2592 1.403 . S
C2595 C2596 1.392 . S
C2595 C2599 1.495 . S
C2596 C2595 1.392 . S
C2596 C2597 1.385 . S
C2596 C2598 1.478 . S
C2597 H2591 0.930 . S
C2597 C2593 1.400 . S
C2597 C2596 1.385 . S
C2598 C2596 1.478 . S
C2598 C2600 1.381 . S
C2598 C2604 1.383 . S
C2599 C2595 1.495 . S
C2599 H2605 0.959 . S
C2599 H2606 0.961 . S
C2599 H2607 0.960 . S
C2600 C2598 1.381 . S
C2600 C2601 1.394 . S
C2600 H2608 0.930 . S
C2601 C2600 1.394 . S
C2601 C2602 1.383 . S
C2601 H2609 0.929 . S
C2602 C2601 1.383 . S
C2602 C2603 1.377 . S
C2603 H2587 0.930 . S
C2603 C2602 1.377 . S
C2603 C2604 1.379 . S
C2604 H2588 0.931 . S
C2604 C2598 1.383 . S
C2604 C2603 1.379 . S
H2605 C2599 0.959 . S
H2606 C2599 0.961 . S
H2607 C2599 0.960 . S
H2608 C2600 0.930 . S
H2609 C2601 0.929 . S
H2610 C2618 0.929 . S
H2611 C2620 0.930 . S
H2612 C2622 0.930 . S
H2613 C2625 0.929 . S
H2614 C2628 0.930 . S
H2615 C2630 0.960 . S
H2616 C2630 0.960 . S
H2617 C2630 0.960 . S
C2618 H2610 0.929 . S
C2618 C2619 1.377 . S
C2618 C2620 1.384 . S
C2619 C2618 1.377 . S
C2619 C2625 1.390 . S
C2620 H2611 0.930 . S
C2620 C2618 1.384 . S
C2620 C2621 1.372 . S
C2621 C2620 1.372 . S
C2621 C2622 1.400 . S
C2621 C2626 1.490 . S
C2622 H2612 0.930 . S
C2622 C2621 1.400 . S
C2622 C2625 1.386 . S
H2623 C2639 0.930 . S
H2624 C2640 0.931 . S
C2625 H2613 0.929 . S
C2625 C2619 1.390 . S
C2625 C2622 1.386 . S
C2626 C2621 1.490 . S
C2626 C2628 1.395 . S
C2626 C2629 1.403 . S
H2627 C2633 0.930 . S
C2628 H2614 0.930 . S
C2628 C2626 1.395 . S
C2628 C2631 1.403 . S
C2629 C2626 1.403 . S
C2629 C2630 1.524 . S
C2629 C2633 1.400 . S
C2630 H2615 0.960 . S
C2630 H2616 0.960 . S
C2630 H2617 0.960 . S
C2630 C2629 1.524 . S
C2631 C2628 1.403 . S
C2631 C2632 1.392 . S
C2631 C2635 1.495 . S
C2632 C2631 1.392 . S
C2632 C2633 1.385 . S
C2632 C2634 1.478 . S
C2633 H2627 0.930 . S
C2633 C2629 1.400 . S
C2633 C2632 1.385 . S
C2634 C2632 1.478 . S
C2634 C2636 1.381 . S
C2634 C2640 1.383 . S
C2635 C2631 1.495 . S
C2635 H2641 0.959 . S
C2635 H2642 0.961 . S
C2635 H2643 0.960 . S
C2636 C2634 1.381 . S
C2636 C2637 1.394 . S
C2636 H2644 0.930 . S
C2637 C2636 1.394 . S
C2637 C2638 1.383 . S
C2637 H2645 0.929 . S
C2638 C2637 1.383 . S
C2638 C2639 1.377 . S
C2639 H2623 0.930 . S
C2639 C2638 1.377 . S
C2639 C2640 1.379 . S
C2640 H2624 0.931 . S
C2640 C2634 1.383 . S
C2640 C2639 1.379 . S
H2641 C2635 0.959 . S
H2642 C2635 0.961 . S
H2643 C2635 0.960 . S
H2644 C2636 0.930 . S
H2645 C2637 0.929 . S
H2646 C2654 0.929 . S
H2647 C2656 0.930 . S
H2648 C2658 0.930 . S
H2649 C2661 0.929 . S
H2650 C2664 0.930 . S
H2651 C2666 0.960 . S
H2652 C2666 0.960 . S
H2653 C2666 0.960 . S
C2654 H2646 0.929 . S
C2654 C2655 1.377 . S
C2654 C2656 1.384 . S
C2655 C2654 1.377 . S
C2655 C2661 1.390 . S
C2656 H2647 0.930 . S
C2656 C2654 1.384 . S
C2656 C2657 1.372 . S
C2657 C2656 1.372 . S
C2657 C2658 1.400 . S
C2657 C2662 1.490 . S
C2658 H2648 0.930 . S
C2658 C2657 1.400 . S
C2658 C2661 1.386 . S
H2659 C2675 0.930 . S
H2660 C2676 0.931 . S
C2661 H2649 0.929 . S
C2661 C2655 1.390 . S
C2661 C2658 1.386 . S
C2662 C2657 1.490 . S
C2662 C2664 1.395 . S
C2662 C2665 1.403 . S
H2663 C2669 0.930 . S
C2664 H2650 0.930 . S
C2664 C2662 1.395 . S
C2664 C2667 1.403 . S
C2665 C2662 1.403 . S
C2665 C2666 1.524 . S
C2665 C2669 1.400 . S
C2666 H2651 0.960 . S
C2666 H2652 0.960 . S
C2666 H2653 0.960 . S
C2666 C2665 1.524 . S
C2667 C2664 1.403 . S
C2667 C2668 1.392 . S
C2667 C2671 1.495 . S
C2668 C2667 1.392 . S
C2668 C2669 1.385 . S
C2668 C2670 1.478 . S
C2669 H2663 0.930 . S
C2669 C2665 1.400 . S
C2669 C2668 1.385 . S
C2670 C2668 1.478 . S
C2670 C2672 1.381 . S
C2670 C2676 1.383 . S
C2671 C2667 1.495 . S
C2671 H2677 0.959 . S
C2671 H2678 0.961 . S
C2671 H2679 0.960 . S
C2672 C2670 1.381 . S
C2672 C2673 1.394 . S
C2672 H2680 0.930 . S
C2673 C2672 1.394 . S
C2673 C2674 1.383 . S
C2673 H2681 0.929 . S
C2674 C2673 1.383 . S
C2674 C2675 1.377 . S
C2675 H2659 0.930 . S
C2675 C2674 1.377 . S
C2675 C2676 1.379 . S
C2676 H2660 0.931 . S
C2676 C2670 1.383 . S
C2676 C2675 1.379 . S
H2677 C2671 0.959 . S
H2678 C2671 0.961 . S
H2679 C2671 0.960 . S
H2680 C2672 0.930 . S
H2681 C2673 0.929 . S
H2682 C2690 0.929 . S
H2683 C2692 0.930 . S
H2684 C2694 0.930 . S
H2685 C2697 0.929 . S
H2686 C2700 0.930 . S
H2687 C2702 0.960 . S
H2688 C2702 0.960 . S
H2689 C2702 0.960 . S
C2690 H2682 0.929 . S
C2690 C2691 1.377 . S
C2690 C2692 1.384 . S
C2691 C2690 1.377 . S
C2691 C2697 1.390 . S
C2692 H2683 0.930 . S
C2692 C2690 1.384 . S
C2692 C2693 1.372 . S
C2693 C2692 1.372 . S
C2693 C2694 1.400 . S
C2693 C2698 1.490 . S
C2694 H2684 0.930 . S
C2694 C2693 1.400 . S
C2694 C2697 1.386 . S
H2695 C2711 0.930 . S
H2696 C2712 0.931 . S
C2697 H2685 0.929 . S
C2697 C2691 1.390 . S
C2697 C2694 1.386 . S
C2698 C2693 1.490 . S
C2698 C2700 1.395 . S
C2698 C2701 1.403 . S
H2699 C2705 0.930 . S
C2700 H2686 0.930 . S
C2700 C2698 1.395 . S
C2700 C2703 1.403 . S
C2701 C2698 1.403 . S
C2701 C2702 1.524 . S
C2701 C2705 1.400 . S
C2702 H2687 0.960 . S
C2702 H2688 0.960 . S
C2702 H2689 0.960 . S
C2702 C2701 1.524 . S
C2703 C2700 1.403 . S
C2703 C2704 1.392 . S
C2703 C2707 1.495 . S
C2704 C2703 1.392 . S
C2704 C2705 1.385 . S
C2704 C2706 1.478 . S
C2705 H2699 0.930 . S
C2705 C2701 1.400 . S
C2705 C2704 1.385 . S
C2706 C2704 1.478 . S
C2706 C2708 1.381 . S
C2706 C2712 1.383 . S
C2707 C2703 1.495 . S
C2707 H2713 0.959 . S
C2707 H2714 0.961 . S
C2707 H2715 0.960 . S
C2708 C2706 1.381 . S
C2708 C2709 1.394 . S
C2708 H2716 0.930 . S
C2709 C2708 1.394 . S
C2709 C2710 1.383 . S
C2709 H2717 0.929 . S
C2710 C2709 1.383 . S
C2710 C2711 1.377 . S
C2711 H2695 0.930 . S
C2711 C2710 1.377 . S
C2711 C2712 1.379 . S
C2712 H2696 0.931 . S
C2712 C2706 1.383 . S
C2712 C2711 1.379 . S
H2713 C2707 0.959 . S
H2714 C2707 0.961 . S
H2715 C2707 0.960 . S
H2716 C2708 0.930 . S
H2717 C2709 0.929 . S
H2718 C2726 0.929 . S
H2719 C2728 0.930 . S
H2720 C2730 0.930 . S
H2721 C2733 0.929 . S
H2722 C2736 0.930 . S
H2723 C2738 0.960 . S
H2724 C2738 0.960 . S
H2725 C2738 0.960 . S
C2726 H2718 0.929 . S
C2726 C2727 1.377 . S
C2726 C2728 1.384 . S
C2727 C2726 1.377 . S
C2727 C2733 1.390 . S
C2728 H2719 0.930 . S
C2728 C2726 1.384 . S
C2728 C2729 1.372 . S
C2729 C2728 1.372 . S
C2729 C2730 1.400 . S
C2729 C2734 1.490 . S
C2730 H2720 0.930 . S
C2730 C2729 1.400 . S
C2730 C2733 1.386 . S
H2731 C2747 0.930 . S
H2732 C2748 0.931 . S
C2733 H2721 0.929 . S
C2733 C2727 1.390 . S
C2733 C2730 1.386 . S
C2734 C2729 1.490 . S
C2734 C2736 1.395 . S
C2734 C2737 1.403 . S
H2735 C2741 0.930 . S
C2736 H2722 0.930 . S
C2736 C2734 1.395 . S
C2736 C2739 1.403 . S
C2737 C2734 1.403 . S
C2737 C2738 1.524 . S
C2737 C2741 1.400 . S
C2738 H2723 0.960 . S
C2738 H2724 0.960 . S
C2738 H2725 0.960 . S
C2738 C2737 1.524 . S
C2739 C2736 1.403 . S
C2739 C2740 1.392 . S
C2739 C2743 1.495 . S
C2740 C2739 1.392 . S
C2740 C2741 1.385 . S
C2740 C2742 1.478 . S
C2741 H2735 0.930 . S
C2741 C2737 1.400 . S
C2741 C2740 1.385 . S
C2742 C2740 1.478 . S
C2742 C2744 1.381 . S
C2742 C2748 1.383 . S
C2743 C2739 1.495 . S
C2743 H2749 0.959 . S
C2743 H2750 0.961 . S
C2743 H2751 0.960 . S
C2744 C2742 1.381 . S
C2744 C2745 1.394 . S
C2744 H2752 0.930 . S
C2745 C2744 1.394 . S
C2745 C2746 1.383 . S
C2745 H2753 0.929 . S
C2746 C2745 1.383 . S
C2746 C2747 1.377 . S
C2747 H2731 0.930 . S
C2747 C2746 1.377 . S
C2747 C2748 1.379 . S
C2748 H2732 0.931 . S
C2748 C2742 1.383 . S
C2748 C2747 1.379 . S
H2749 C2743 0.959 . S
H2750 C2743 0.961 . S
H2751 C2743 0.960 . S
H2752 C2744 0.930 . S
H2753 C2745 0.929 . S
H2754 C2762 0.929 . S
H2755 C2764 0.930 . S
H2756 C2766 0.930 . S
H2757 C2769 0.929 . S
H2758 C2772 0.930 . S
H2759 C2774 0.960 . S
H2760 C2774 0.960 . S
H2761 C2774 0.960 . S
C2762 H2754 0.929 . S
C2762 C2763 1.377 . S
C2762 C2764 1.384 . S
C2763 C2762 1.377 . S
C2763 C2769 1.390 . S
C2764 H2755 0.930 . S
C2764 C2762 1.384 . S
C2764 C2765 1.372 . S
C2765 C2764 1.372 . S
C2765 C2766 1.400 . S
C2765 C2770 1.490 . S
C2766 H2756 0.930 . S
C2766 C2765 1.400 . S
C2766 C2769 1.386 . S
H2767 C2783 0.930 . S
H2768 C2784 0.931 . S
C2769 H2757 0.929 . S
C2769 C2763 1.390 . S
C2769 C2766 1.386 . S
C2770 C2765 1.490 . S
C2770 C2772 1.395 . S
C2770 C2773 1.403 . S
H2771 C2777 0.930 . S
C2772 H2758 0.930 . S
C2772 C2770 1.395 . S
C2772 C2775 1.403 . S
C2773 C2770 1.403 . S
C2773 C2774 1.524 . S
C2773 C2777 1.400 . S
C2774 H2759 0.960 . S
C2774 H2760 0.960 . S
C2774 H2761 0.960 . S
C2774 C2773 1.524 . S
C2775 C2772 1.403 . S
C2775 C2776 1.392 . S
C2775 C2779 1.495 . S
C2776 C2775 1.392 . S
C2776 C2777 1.385 . S
C2776 C2778 1.478 . S
C2777 H2771 0.930 . S
C2777 C2773 1.400 . S
C2777 C2776 1.385 . S
C2778 C2776 1.478 . S
C2778 C2780 1.381 . S
C2778 C2784 1.383 . S
C2779 C2775 1.495 . S
C2779 H2785 0.959 . S
C2779 H2786 0.961 . S
C2779 H2787 0.960 . S
C2780 C2778 1.381 . S
C2780 C2781 1.394 . S
C2780 H2788 0.930 . S
C2781 C2780 1.394 . S
C2781 C2782 1.383 . S
C2781 H2789 0.929 . S
C2782 C2781 1.383 . S
C2782 C2783 1.377 . S
C2783 H2767 0.930 . S
C2783 C2782 1.377 . S
C2783 C2784 1.379 . S
C2784 H2768 0.931 . S
C2784 C2778 1.383 . S
C2784 C2783 1.379 . S
H2785 C2779 0.959 . S
H2786 C2779 0.961 . S
H2787 C2779 0.960 . S
H2788 C2780 0.930 . S
H2789 C2781 0.929 . S
H2790 C2798 0.929 . S
H2791 C2800 0.930 . S
H2792 C2802 0.930 . S
H2793 C2805 0.929 . S
H2794 C2808 0.930 . S
H2795 C2810 0.960 . S
H2796 C2810 0.960 . S
H2797 C2810 0.960 . S
C2798 H2790 0.929 . S
C2798 C2799 1.377 . S
C2798 C2800 1.384 . S
C2799 C2798 1.377 . S
C2799 C2805 1.390 . S
C2800 H2791 0.930 . S
C2800 C2798 1.384 . S
C2800 C2801 1.372 . S
C2801 C2800 1.372 . S
C2801 C2802 1.400 . S
C2801 C2806 1.490 . S
C2802 H2792 0.930 . S
C2802 C2801 1.400 . S
C2802 C2805 1.386 . S
H2803 C2819 0.930 . S
H2804 C2820 0.931 . S
C2805 H2793 0.929 . S
C2805 C2799 1.390 . S
C2805 C2802 1.386 . S
C2806 C2801 1.490 . S
C2806 C2808 1.395 . S
C2806 C2809 1.403 . S
H2807 C2813 0.930 . S
C2808 H2794 0.930 . S
C2808 C2806 1.395 . S
C2808 C2811 1.403 . S
C2809 C2806 1.403 . S
C2809 C2810 1.524 . S
C2809 C2813 1.400 . S
C2810 H2795 0.960 . S
C2810 H2796 0.960 . S
C2810 H2797 0.960 . S
C2810 C2809 1.524 . S
C2811 C2808 1.403 . S
C2811 C2812 1.392 . S
C2811 C2815 1.495 . S
C2812 C2811 1.392 . S
C2812 C2813 1.385 . S
C2812 C2814 1.478 . S
C2813 H2807 0.930 . S
C2813 C2809 1.400 . S
C2813 C2812 1.385 . S
C2814 C2812 1.478 . S
C2814 C2816 1.381 . S
C2814 C2820 1.383 . S
C2815 C2811 1.495 . S
C2815 H2821 0.959 . S
C2815 H2822 0.961 . S
C2815 H2823 0.960 . S
C2816 C2814 1.381 . S
C2816 C2817 1.394 . S
C2816 H2824 0.930 . S
C2817 C2816 1.394 . S
C2817 C2818 1.383 . S
C2817 H2825 0.929 . S
C2818 C2817 1.383 . S
C2818 C2819 1.377 . S
C2819 H2803 0.930 . S
C2819 C2818 1.377 . S
C2819 C2820 1.379 . S
C2820 H2804 0.931 . S
C2820 C2814 1.383 . S
C2820 C2819 1.379 . S
H2821 C2815 0.959 . S
H2822 C2815 0.961 . S
H2823 C2815 0.960 . S
H2824 C2816 0.930 . S
H2825 C2817 0.929 . S
H2826 C2834 0.929 . S
H2827 C2836 0.930 . S
H2828 C2838 0.930 . S
H2829 C2841 0.929 . S
H2830 C2844 0.930 . S
H2831 C2846 0.960 . S
H2832 C2846 0.960 . S
H2833 C2846 0.960 . S
C2834 H2826 0.929 . S
C2834 C2835 1.377 . S
C2834 C2836 1.384 . S
C2835 C2834 1.377 . S
C2835 C2841 1.390 . S
C2836 H2827 0.930 . S
C2836 C2834 1.384 . S
C2836 C2837 1.372 . S
C2837 C2836 1.372 . S
C2837 C2838 1.400 . S
C2837 C2842 1.490 . S
C2838 H2828 0.930 . S
C2838 C2837 1.400 . S
C2838 C2841 1.386 . S
H2839 C2855 0.930 . S
H2840 C2856 0.931 . S
C2841 H2829 0.929 . S
C2841 C2835 1.390 . S
C2841 C2838 1.386 . S
C2842 C2837 1.490 . S
C2842 C2844 1.395 . S
C2842 C2845 1.403 . S
H2843 C2849 0.930 . S
C2844 H2830 0.930 . S
C2844 C2842 1.395 . S
C2844 C2847 1.403 . S
C2845 C2842 1.403 . S
C2845 C2846 1.524 . S
C2845 C2849 1.400 . S
C2846 H2831 0.960 . S
C2846 H2832 0.960 . S
C2846 H2833 0.960 . S
C2846 C2845 1.524 . S
C2847 C2844 1.403 . S
C2847 C2848 1.392 . S
C2847 C2851 1.495 . S
C2848 C2847 1.392 . S
C2848 C2849 1.385 . S
C2848 C2850 1.478 . S
C2849 H2843 0.930 . S
C2849 C2845 1.400 . S
C2849 C2848 1.385 . S
C2850 C2848 1.478 . S
C2850 C2852 1.381 . S
C2850 C2856 1.383 . S
C2851 C2847 1.495 . S
C2851 H2857 0.959 . S
C2851 H2858 0.961 . S
C2851 H2859 0.960 . S
C2852 C2850 1.381 . S
C2852 C2853 1.394 . S
C2852 H2860 0.930 . S
C2853 C2852 1.394 . S
C2853 C2854 1.383 . S
C2853 H2861 0.929 . S
C2854 C2853 1.383 . S
C2854 C2855 1.377 . S
C2855 H2839 0.930 . S
C2855 C2854 1.377 . S
C2855 C2856 1.379 . S
C2856 H2840 0.931 . S
C2856 C2850 1.383 . S
C2856 C2855 1.379 . S
H2857 C2851 0.959 . S
H2858 C2851 0.961 . S
H2859 C2851 0.960 . S
H2860 C2852 0.930 . S
H2861 C2853 0.929 . S
H2862 C2870 0.929 . S
H2863 C2872 0.930 . S
H2864 C2874 0.930 . S
H2865 C2877 0.929 . S
H2866 C2880 0.930 . S
H2867 C2882 0.960 . S
H2868 C2882 0.960 . S
H2869 C2882 0.960 . S
C2870 H2862 0.929 . S
C2870 C2871 1.377 . S
C2870 C2872 1.384 . S
C2871 C2870 1.377 . S
C2871 C2877 1.390 . S
C2872 H2863 0.930 . S
C2872 C2870 1.384 . S
C2872 C2873 1.372 . S
C2873 C2872 1.372 . S
C2873 C2874 1.400 . S
C2873 C2878 1.490 . S
C2874 H2864 0.930 . S
C2874 C2873 1.400 . S
C2874 C2877 1.386 . S
H2875 C2891 0.930 . S
H2876 C2892 0.931 . S
C2877 H2865 0.929 . S
C2877 C2871 1.390 . S
C2877 C2874 1.386 . S
C2878 C2873 1.490 . S
C2878 C2880 1.395 . S
C2878 C2881 1.403 . S
H2879 C2885 0.930 . S
C2880 H2866 0.930 . S
C2880 C2878 1.395 . S
C2880 C2883 1.403 . S
C2881 C2878 1.403 . S
C2881 C2882 1.524 . S
C2881 C2885 1.400 . S
C2882 H2867 0.960 . S
C2882 H2868 0.960 . S
C2882 H2869 0.960 . S
C2882 C2881 1.524 . S
C2883 C2880 1.403 . S
C2883 C2884 1.392 . S
C2883 C2887 1.495 . S
C2884 C2883 1.392 . S
C2884 C2885 1.385 . S
C2884 C2886 1.478 . S
C2885 H2879 0.930 . S
C2885 C2881 1.400 . S
C2885 C2884 1.385 . S
C2886 C2884 1.478 . S
C2886 C2888 1.381 . S
C2886 C2892 1.383 . S
C2887 C2883 1.495 . S
C2887 H2893 0.959 . S
C2887 H2894 0.961 . S
C2887 H2895 0.960 . S
C2888 C2886 1.381 . S
C2888 C2889 1.394 . S
C2888 H2896 0.930 . S
C2889 C2888 1.394 . S
C2889 C2890 1.383 . S
C2889 H2897 0.929 . S
C2890 C2889 1.383 . S
C2890 C2891 1.377 . S
C2891 H2875 0.930 . S
C2891 C2890 1.377 . S
C2891 C2892 1.379 . S
C2892 H2876 0.931 . S
C2892 C2886 1.383 . S
C2892 C2891 1.379 . S
H2893 C2887 0.959 . S
H2894 C2887 0.961 . S
H2895 C2887 0.960 . S
H2896 C2888 0.930 . S
H2897 C2889 0.929 . S
H2898 C2906 0.929 . S
H2899 C2908 0.930 . S
H2900 C2910 0.930 . S
H2901 C2913 0.929 . S
H2902 C2916 0.930 . S
H2903 C2918 0.960 . S
H2904 C2918 0.960 . S
H2905 C2918 0.960 . S
C2906 H2898 0.929 . S
C2906 C2907 1.377 . S
C2906 C2908 1.384 . S
C2907 C2906 1.377 . S
C2907 C2913 1.390 . S
C2908 H2899 0.930 . S
C2908 C2906 1.384 . S
C2908 C2909 1.372 . S
C2909 C2908 1.372 . S
C2909 C2910 1.400 . S
C2909 C2914 1.490 . S
C2910 H2900 0.930 . S
C2910 C2909 1.400 . S
C2910 C2913 1.386 . S
H2911 C2927 0.930 . S
H2912 C2928 0.931 . S
C2913 H2901 0.929 . S
C2913 C2907 1.390 . S
C2913 C2910 1.386 . S
C2914 C2909 1.490 . S
C2914 C2916 1.395 . S
C2914 C2917 1.403 . S
H2915 C2921 0.930 . S
C2916 H2902 0.930 . S
C2916 C2914 1.395 . S
C2916 C2919 1.403 . S
C2917 C2914 1.403 . S
C2917 C2918 1.524 . S
C2917 C2921 1.400 . S
C2918 H2903 0.960 . S
C2918 H2904 0.960 . S
C2918 H2905 0.960 . S
C2918 C2917 1.524 . S
C2919 C2916 1.403 . S
C2919 C2920 1.392 . S
C2919 C2923 1.495 . S
C2920 C2919 1.392 . S
C2920 C2921 1.385 . S
C2920 C2922 1.478 . S
C2921 H2915 0.930 . S
C2921 C2917 1.400 . S
C2921 C2920 1.385 . S
C2922 C2920 1.478 . S
C2922 C2924 1.381 . S
C2922 C2928 1.383 . S
C2923 C2919 1.495 . S
C2923 H2929 0.959 . S
C2923 H2930 0.961 . S
C2923 H2931 0.960 . S
C2924 C2922 1.381 . S
C2924 C2925 1.394 . S
C2924 H2932 0.930 . S
C2925 C2924 1.394 . S
C2925 C2926 1.383 . S
C2925 H2933 0.929 . S
C2926 C2925 1.383 . S
C2926 C2927 1.377 . S
C2927 H2911 0.930 . S
C2927 C2926 1.377 . S
C2927 C2928 1.379 . S
C2928 H2912 0.931 . S
C2928 C2922 1.383 . S
C2928 C2927 1.379 . S
H2929 C2923 0.959 . S
H2930 C2923 0.961 . S
H2931 C2923 0.960 . S
H2932 C2924 0.930 . S
H2933 C2925 0.929 . S
H2934 C2942 0.929 . S
H2935 C2944 0.930 . S
H2936 C2946 0.930 . S
H2937 C2949 0.929 . S
H2938 C2952 0.930 . S
H2939 C2954 0.960 . S
H2940 C2954 0.960 . S
H2941 C2954 0.960 . S
C2942 H2934 0.929 . S
C2942 C2943 1.377 . S
C2942 C2944 1.384 . S
C2943 C2942 1.377 . S
C2943 C2949 1.390 . S
C2944 H2935 0.930 . S
C2944 C2942 1.384 . S
C2944 C2945 1.372 . S
C2945 C2944 1.372 . S
C2945 C2946 1.400 . S
C2945 C2950 1.490 . S
C2946 H2936 0.930 . S
C2946 C2945 1.400 . S
C2946 C2949 1.386 . S
H2947 C2963 0.930 . S
H2948 C2964 0.931 . S
C2949 H2937 0.929 . S
C2949 C2943 1.390 . S
C2949 C2946 1.386 . S
C2950 C2945 1.490 . S
C2950 C2952 1.395 . S
C2950 C2953 1.403 . S
H2951 C2957 0.930 . S
C2952 H2938 0.930 . S
C2952 C2950 1.395 . S
C2952 C2955 1.403 . S
C2953 C2950 1.403 . S
C2953 C2954 1.524 . S
C2953 C2957 1.400 . S
C2954 H2939 0.960 . S
C2954 H2940 0.960 . S
C2954 H2941 0.960 . S
C2954 C2953 1.524 . S
C2955 C2952 1.403 . S
C2955 C2956 1.392 . S
C2955 C2959 1.495 . S
C2956 C2955 1.392 . S
C2956 C2957 1.385 . S
C2956 C2958 1.478 . S
C2957 H2951 0.930 . S
C2957 C2953 1.400 . S
C2957 C2956 1.385 . S
C2958 C2956 1.478 . S
C2958 C2960 1.381 . S
C2958 C2964 1.383 . S
C2959 C2955 1.495 . S
C2959 H2965 0.959 . S
C2959 H2966 0.961 . S
C2959 H2967 0.960 . S
C2960 C2958 1.381 . S
C2960 C2961 1.394 . S
C2960 H2968 0.930 . S
C2961 C2960 1.394 . S
C2961 C2962 1.383 . S
C2961 H2969 0.929 . S
C2962 C2961 1.383 . S
C2962 C2963 1.377 . S
C2963 H2947 0.930 . S
C2963 C2962 1.377 . S
C2963 C2964 1.379 . S
C2964 H2948 0.931 . S
C2964 C2958 1.383 . S
C2964 C2963 1.379 . S
H2965 C2959 0.959 . S
H2966 C2959 0.961 . S
H2967 C2959 0.960 . S
H2968 C2960 0.930 . S
H2969 C2961 0.929 . S
H2970 C2978 0.929 . S
H2971 C2980 0.930 . S
H2972 C2982 0.930 . S
H2973 C2985 0.929 . S
H2974 C2988 0.930 . S
H2975 C2990 0.960 . S
H2976 C2990 0.960 . S
H2977 C2990 0.960 . S
C2978 H2970 0.929 . S
C2978 C2979 1.377 . S
C2978 C2980 1.384 . S
C2979 C2978 1.377 . S
C2979 C2985 1.390 . S
C2980 H2971 0.930 . S
C2980 C2978 1.384 . S
C2980 C2981 1.372 . S
C2981 C2980 1.372 . S
C2981 C2982 1.400 . S
C2981 C2986 1.490 . S
C2982 H2972 0.930 . S
C2982 C2981 1.400 . S
C2982 C2985 1.386 . S
H2983 C2999 0.930 . S
H2984 C3000 0.931 . S
C2985 H2973 0.929 . S
C2985 C2979 1.390 . S
C2985 C2982 1.386 . S
C2986 C2981 1.490 . S
C2986 C2988 1.395 . S
C2986 C2989 1.403 . S
H2987 C2993 0.930 . S
C2988 H2974 0.930 . S
C2988 C2986 1.395 . S
C2988 C2991 1.403 . S
C2989 C2986 1.403 . S
C2989 C2990 1.524 . S
C2989 C2993 1.400 . S
C2990 H2975 0.960 . S
C2990 H2976 0.960 . S
C2990 H2977 0.960 . S
C2990 C2989 1.524 . S
C2991 C2988 1.403 . S
C2991 C2992 1.392 . S
C2991 C2995 1.495 . S
C2992 C2991 1.392 . S
C2992 C2993 1.385 . S
C2992 C2994 1.478 . S
C2993 H2987 0.930 . S
C2993 C2989 1.400 . S
C2993 C2992 1.385 . S
C2994 C2992 1.478 . S
C2994 C2996 1.381 . S
C2994 C3000 1.383 . S
C2995 C2991 1.495 . S
C2995 H3001 0.959 . S
C2995 H3002 0.961 . S
C2995 H3003 0.960 . S
C2996 C2994 1.381 . S
C2996 C2997 1.394 . S
C2996 H3004 0.930 . S
C2997 C2996 1.394 . S
C2997 C2998 1.383 . S
C2997 H3005 0.929 . S
C2998 C2997 1.383 . S
C2998 C2999 1.377 . S
C2999 H2983 0.930 . S
C2999 C2998 1.377 . S
C2999 C3000 1.379 . S
C3000 H2984 0.931 . S
C3000 C2994 1.383 . S
C3000 C2999 1.379 . S
H3001 C2995 0.959 . S
H3002 C2995 0.961 . S
H3003 C2995 0.960 . S
H3004 C2996 0.930 . S
H3005 C2997 0.929 . S
C1071 C528 1.640 . S
C1090 C714 1.654 . S
C1107 C562 1.851 . S
C1126 C754 1.855 . S
C1143 C484 1.727 . S
C1162 C784 1.736 . S
C1179 C445 1.536 . S
C1198 C744 1.515 . S
C1234 C794 1.466 . S
C1215 C367 1.458 . S
C1251 C411 1.322 . S
C1270 C704 1.329 . S
C1306 C733 1.669 . S
C1287 C450 1.644 . S
C1342 C773 1.828 . S
C1323 C372 1.825 . S
C1359 C406 1.722 . S
C1378 C799 1.739 . S
C1395 C523 1.537 . S
C1414 C759 1.507 . S
C1431 C567 1.434 . S
C1450 C813 1.442 . S
C1486 C719 1.338 . S
C1467 C489 1.330 . S
C1522 C834 1.656 . S
C1503 C60 1.640 . S
C1539 C94 1.850 . S
C1558 C874 1.854 . S
C1575 C16 1.720 . S
C1594 C904 1.707 . S
C1611 C679 1.534 . S
C1630 C864 1.510 . S
C1647 C601 1.455 . S
C1666 C914 1.457 . S
C1683 C645 1.321 . S
C1702 C824 1.323 . S
C1719 C684 1.644 . S
C1738 C853 1.654 . S
C1755 C606 1.826 . S
C1774 C893 1.826 . S
C1810 C919 1.717 . S
C1791 C640 1.717 . S
C1827 C55 1.531 . S
C1846 C879 1.542 . S
C1882 C933 1.432 . S
C1863 C99 1.431 . S
C1899 C21 1.334 . S
C1918 C839 1.362 . S
C1954 C954 1.647 . S
C1935 C294 1.635 . S
C1971 C328 1.851 . S
C1990 C994 1.850 . S
C2026 C1024 1.726 . S
C2007 C250 1.723 . S
C2062 C984 1.545 . S
C2043 C211 1.541 . S
C2098 C1034 1.458 . S
C2079 C133 1.459 . S
C2115 C177 1.321 . S
C2134 C944 1.327 . S
C2151 C216 1.647 . S
C2170 C973 1.657 . S
C2187 C138 1.825 . S
C2206 C1013 1.823 . S
C2242 C1039 1.731 . S
C2223 C172 1.724 . S
C2259 C289 1.530 . S
C2278 C999 1.537 . S
C2295 C333 1.428 . S
C2314 C1053 1.433 . S
C2331 C255 1.337 . S
C2350 C959 1.344 . S
C2367 C586 1.264 . S
C2386 C731 1.263 . S
C2422 C771 1.894 . S
C2403 C625 1.898 . S
C2439 C664 1.576 . S
C2458 C790 1.583 . S
C2475 C235 1.909 . S
C2494 C750 1.910 . S
C2511 C274 1.561 . S
C2530 C811 1.569 . S
C2566 C710 1.260 . S
C2547 C313 1.263 . S
C2583 C118 1.266 . S
C2602 C851 1.250 . S
C2619 C157 1.902 . S
C2638 C891 1.891 . S
C2655 C196 1.577 . S
C2674 C910 1.586 . S
C2691 C469 1.907 . S
C2710 C870 1.903 . S
C2746 C931 1.569 . S
C2727 C508 1.560 . S
C2763 C547 1.262 . S
C2782 C830 1.259 . S
C2799 C352 1.265 . S
C2818 C971 1.252 . S
C2835 C391 1.902 . S
C2854 C1011 1.892 . S
C2890 C1030 1.569 . S
C2871 C430 1.573 . S
C2907 C1 1.907 . S
C2926 C990 1.897 . S
C2943 C40 1.561 . S
C2962 C1051 1.551 . S
C2979 C79 1.262 . S
C2998 C950 1.247 . S
