# Generated by pormake.
# Topology ctn, (3,4)-cn, num edge types: 1
# Building blocks:
#     Node 0, Type 0, BuildingBlock: PAMTOO_clean_linker_0, # of connection points: 3
#     Node 1, Type 0, BuildingBlock: PAMTOO_clean_linker_0, # of connection points: 3
#     Node 2, Type 0, BuildingBlock: PAMTOO_clean_linker_0, # of connection points: 3
#     Node 3, Type 0, BuildingBlock: PAMTOO_clean_linker_0, # of connection points: 3
#     Node 4, Type 0, BuildingBlock: PAMTOO_clean_linker_0, # of connection points: 3
#     Node 5, Type 0, BuildingBlock: PAMTOO_clean_linker_0, # of connection points: 3
#     Node 6, Type 0, BuildingBlock: PAMTOO_clean_linker_0, # of connection points: 3
#     Node 7, Type 0, BuildingBlock: PAMTOO_clean_linker_0, # of connection points: 3
#     Node 8, Type 0, BuildingBlock: PAMTOO_clean_linker_0, # of connection points: 3
#     Node 9, Type 0, BuildingBlock: PAMTOO_clean_linker_0, # of connection points: 3
#     Node 10, Type 0, BuildingBlock: PAMTOO_clean_linker_0, # of connection points: 3
#     Node 11, Type 0, BuildingBlock: PAMTOO_clean_linker_0, # of connection points: 3
#     Node 12, Type 0, BuildingBlock: PAMTOO_clean_linker_0, # of connection points: 3
#     Node 13, Type 0, BuildingBlock: PAMTOO_clean_linker_0, # of connection points: 3
#     Node 14, Type 0, BuildingBlock: PAMTOO_clean_linker_0, # of connection points: 3
#     Node 15, Type 0, BuildingBlock: PAMTOO_clean_linker_0, # of connection points: 3
#     Node 16, Type 1, BuildingBlock: AZAVOO_clean_sbu_0, # of connection points: 4
#     Node 17, Type 1, BuildingBlock: AZAVOO_clean_sbu_0, # of connection points: 4
#     Node 18, Type 1, BuildingBlock: AZAVOO_clean_sbu_0, # of connection points: 4
#     Node 19, Type 1, BuildingBlock: AZAVOO_clean_sbu_0, # of connection points: 4
#     Node 20, Type 1, BuildingBlock: AZAVOO_clean_sbu_0, # of connection points: 4
#     Node 21, Type 1, BuildingBlock: AZAVOO_clean_sbu_0, # of connection points: 4
#     Node 22, Type 1, BuildingBlock: AZAVOO_clean_sbu_0, # of connection points: 4
#     Node 23, Type 1, BuildingBlock: AZAVOO_clean_sbu_0, # of connection points: 4
#     Node 24, Type 1, BuildingBlock: AZAVOO_clean_sbu_0, # of connection points: 4
#     Node 25, Type 1, BuildingBlock: AZAVOO_clean_sbu_0, # of connection points: 4
#     Node 26, Type 1, BuildingBlock: AZAVOO_clean_sbu_0, # of connection points: 4
#     Node 27, Type 1, BuildingBlock: AZAVOO_clean_sbu_0, # of connection points: 4
#     Edge 28, Type (0, 1), BuildingBlock: OJICUG_clean_linker_0, # of connection points: 2
#     Edge 29, Type (0, 1), BuildingBlock: OJICUG_clean_linker_0, # of connection points: 2
#     Edge 30, Type (0, 1), BuildingBlock: OJICUG_clean_linker_0, # of connection points: 2
#     Edge 31, Type (0, 1), BuildingBlock: OJICUG_clean_linker_0, # of connection points: 2
#     Edge 32, Type (0, 1), BuildingBlock: OJICUG_clean_linker_0, # of connection points: 2
#     Edge 33, Type (0, 1), BuildingBlock: OJICUG_clean_linker_0, # of connection points: 2
#     Edge 34, Type (0, 1), BuildingBlock: OJICUG_clean_linker_0, # of connection points: 2
#     Edge 35, Type (0, 1), BuildingBlock: OJICUG_clean_linker_0, # of connection points: 2
#     Edge 36, Type (0, 1), BuildingBlock: OJICUG_clean_linker_0, # of connection points: 2
#     Edge 37, Type (0, 1), BuildingBlock: OJICUG_clean_linker_0, # of connection points: 2
#     Edge 38, Type (0, 1), BuildingBlock: OJICUG_clean_linker_0, # of connection points: 2
#     Edge 39, Type (0, 1), BuildingBlock: OJICUG_clean_linker_0, # of connection points: 2
#     Edge 40, Type (0, 1), BuildingBlock: OJICUG_clean_linker_0, # of connection points: 2
#     Edge 41, Type (0, 1), BuildingBlock: OJICUG_clean_linker_0, # of connection points: 2
#     Edge 42, Type (0, 1), BuildingBlock: OJICUG_clean_linker_0, # of connection points: 2
#     Edge 43, Type (0, 1), BuildingBlock: OJICUG_clean_linker_0, # of connection points: 2
#     Edge 44, Type (0, 1), BuildingBlock: OJICUG_clean_linker_0, # of connection points: 2
#     Edge 45, Type (0, 1), BuildingBlock: OJICUG_clean_linker_0, # of connection points: 2
#     Edge 46, Type (0, 1), BuildingBlock: OJICUG_clean_linker_0, # of connection points: 2
#     Edge 47, Type (0, 1), BuildingBlock: OJICUG_clean_linker_0, # of connection points: 2
#     Edge 48, Type (0, 1), BuildingBlock: OJICUG_clean_linker_0, # of connection points: 2
#     Edge 49, Type (0, 1), BuildingBlock: OJICUG_clean_linker_0, # of connection points: 2
#     Edge 50, Type (0, 1), BuildingBlock: OJICUG_clean_linker_0, # of connection points: 2
#     Edge 51, Type (0, 1), BuildingBlock: OJICUG_clean_linker_0, # of connection points: 2
#     Edge 52, Type (0, 1), BuildingBlock: OJICUG_clean_linker_0, # of connection points: 2
#     Edge 53, Type (0, 1), BuildingBlock: OJICUG_clean_linker_0, # of connection points: 2
#     Edge 54, Type (0, 1), BuildingBlock: OJICUG_clean_linker_0, # of connection points: 2
#     Edge 55, Type (0, 1), BuildingBlock: OJICUG_clean_linker_0, # of connection points: 2
#     Edge 56, Type (0, 1), BuildingBlock: OJICUG_clean_linker_0, # of connection points: 2
#     Edge 57, Type (0, 1), BuildingBlock: OJICUG_clean_linker_0, # of connection points: 2
#     Edge 58, Type (0, 1), BuildingBlock: OJICUG_clean_linker_0, # of connection points: 2
#     Edge 59, Type (0, 1), BuildingBlock: OJICUG_clean_linker_0, # of connection points: 2
#     Edge 60, Type (0, 1), BuildingBlock: OJICUG_clean_linker_0, # of connection points: 2
#     Edge 61, Type (0, 1), BuildingBlock: OJICUG_clean_linker_0, # of connection points: 2
#     Edge 62, Type (0, 1), BuildingBlock: OJICUG_clean_linker_0, # of connection points: 2
#     Edge 63, Type (0, 1), BuildingBlock: OJICUG_clean_linker_0, # of connection points: 2
#     Edge 64, Type (0, 1), BuildingBlock: OJICUG_clean_linker_0, # of connection points: 2
#     Edge 65, Type (0, 1), BuildingBlock: OJICUG_clean_linker_0, # of connection points: 2
#     Edge 66, Type (0, 1), BuildingBlock: OJICUG_clean_linker_0, # of connection points: 2
#     Edge 67, Type (0, 1), BuildingBlock: OJICUG_clean_linker_0, # of connection points: 2
#     Edge 68, Type (0, 1), BuildingBlock: OJICUG_clean_linker_0, # of connection points: 2
#     Edge 69, Type (0, 1), BuildingBlock: OJICUG_clean_linker_0, # of connection points: 2
#     Edge 70, Type (0, 1), BuildingBlock: OJICUG_clean_linker_0, # of connection points: 2
#     Edge 71, Type (0, 1), BuildingBlock: OJICUG_clean_linker_0, # of connection points: 2
#     Edge 72, Type (0, 1), BuildingBlock: OJICUG_clean_linker_0, # of connection points: 2
#     Edge 73, Type (0, 1), BuildingBlock: OJICUG_clean_linker_0, # of connection points: 2
#     Edge 74, Type (0, 1), BuildingBlock: OJICUG_clean_linker_0, # of connection points: 2
#     Edge 75, Type (0, 1), BuildingBlock: OJICUG_clean_linker_0, # of connection points: 2
# Relax obj value: 0.060
# Max RMSD: 0.169
# Mean RMSD: 0.106
data_MOF--net-ctn--node1-AZAVOO_clean_sbu_0--node2-PAMTOO_clean_linker_0--edge1-OJICUG_clean_linker_0
_symmetry_space_group_name_H-M    P1
_symmetry_Int_Tables_number       1
_symmetry_cell_setting            triclinic
loop_
_symmetry_equiv_pos_as_xyz
'x, y, z'
_cell_length_a     37.561403
_cell_length_b     38.764133
_cell_length_c     39.826684
_cell_angle_alpha  85.012674
_cell_angle_beta   96.429367
_cell_angle_gamma 101.86691
loop_
_atom_site_label
_atom_site_type_symbol
_atom_site_fract_x
_atom_site_fract_y
_atom_site_fract_z
_atom_type_partial_charge
H0 H 1.00541 0.10055 0.0473 0.0
H1 H 0.04619 0.00545 0.07774 0.0
H2 H 0.07131 0.06191 0.98328 0.0
H3 H 0.0599 0.98584 0.9777 0.0
C4 C 0.06418 0.97727 0.00499 0.0
O5 O 0.07911 0.00633 0.02325 0.0
H6 H 0.03707 0.96432 0.01349 0.0
C7 C 0.0205 0.08093 0.04232 0.0
C8 C 0.03822 0.08525 0.01257 0.0
C9 C 0.02348 0.05279 0.06658 0.0
C10 C 0.04284 0.02721 0.0595 0.0
C11 C 0.05946 0.03034 0.02924 0.0
C12 C 0.05749 0.05944 0.00608 0.0
H13 H 0.33203 0.70442 0.29921 0.0
H14 H 0.31529 0.71885 0.19075 0.0
H15 H 0.41488 0.77114 0.24288 0.0
H16 H 0.39988 0.81049 0.16133 0.0
C17 C 0.37519 0.79831 0.17427 0.0
O18 O 0.37723 0.76372 0.18454 0.0
H19 H 0.37571 0.81402 0.19654 0.0
C20 C 0.34181 0.71661 0.27557 0.0
C21 C 0.37639 0.73916 0.27548 0.0
C22 C 0.32003 0.70844 0.24515 0.0
C23 C 0.33188 0.72471 0.2144 0.0
C24 C 0.36564 0.74804 0.21406 0.0
C25 C 0.38813 0.75438 0.24423 0.0
H26 H 0.99202 0.5588 0.12713 0.0
H27 H 0.92734 0.50834 0.04175 0.0
H28 H 0.02317 0.47166 0.08549 0.0
H29 H 1.00784 0.48788 0.00763 0.0
C30 C 0.98209 0.46752 0.00706 0.0
O31 O 0.96882 0.46257 0.03849 0.0
H32 H 0.96158 0.47698 0.98814 0.0
C33 C 0.98689 0.53872 0.10893 0.0
C34 C 0.0114 0.51554 0.10956 0.0
C35 C 0.95643 0.53675 0.08439 0.0
C36 C 0.95089 0.51109 0.06039 0.0
C37 C 0.97516 0.48804 0.06078 0.0
C38 C 1.00515 0.49024 0.08522 0.0
H39 H 0.73745 0.89907 0.28279 0.0
H40 H 0.68841 0.78894 0.28095 0.0
H41 H 0.78241 0.82915 0.22777 0.0
H42 H 0.69182 0.7782 0.20354 0.0
C43 C 0.70868 0.75907 0.21561 0.0
O44 O 0.73313 0.77363 0.2416 0.0
H45 H 0.68935 0.73621 0.22635 0.0
C46 C 0.73734 0.87323 0.27439 0.0
C47 C 0.76429 0.86834 0.25423 0.0
C48 C 0.71018 0.84482 0.28448 0.0
C49 C 0.70877 0.81136 0.27294 0.0
C50 C 0.73423 0.80626 0.25175 0.0
C51 C 0.76196 0.83446 0.24263 0.0
H52 H 0.13426 0.97672 0.57462 0.0
H53 H 0.05385 0.92522 0.49948 0.0
H54 H 0.10062 0.03482 0.48303 0.0
H55 H 0.01776 0.00938 0.46901 0.0
C56 C 0.01937 0.98626 0.45488 0.0
O57 O 0.0549 0.98115 0.45799 0.0
H58 H 1.00133 0.96247 0.46577 0.0
C59 C 0.11797 0.97775 0.55044 0.0
C60 C 0.12056 0.00978 0.53022 0.0
C61 C 0.09351 0.94724 0.53951 0.0
C62 C 0.07252 0.94865 0.50823 0.0
C63 C 0.07501 0.98021 0.48819 0.0
C64 C 0.0988 0.01061 0.49913 0.0
H65 H 0.15011 0.74797 0.80526 0.0
H66 H 0.18868 0.67711 0.74611 0.0
H67 H 0.24973 0.71076 0.8381 0.0
H68 H 0.29437 0.70866 0.78506 0.0
C69 C 0.27675 0.68736 0.77026 0.0
O70 O 0.24645 0.67266 0.78702 0.0
H71 H 0.26817 0.69956 0.74509 0.0
C72 C 0.1698 0.73223 0.80138 0.0
C73 C 0.20104 0.73291 0.82478 0.0
C74 C 0.16437 0.71174 0.77283 0.0
C75 C 0.19087 0.69194 0.76831 0.0
C76 C 0.22128 0.69171 0.79185 0.0
C77 C 0.22606 0.71169 0.82005 0.0
H78 H 0.90491 0.53123 0.53421 0.0
H79 H 0.94185 0.47996 0.45697 0.0
H80 H 1.00127 0.5811 0.48494 0.0
H81 H 0.99221 0.56715 0.41087 0.0
C82 C 0.99552 0.53914 0.41397 0.0
O83 O 0.99952 0.52856 0.44793 0.0
H84 H 0.97056 0.52261 0.40154 0.0
C85 C 0.92387 0.53177 0.51552 0.0
C86 C 0.9537 0.56051 0.51256 0.0
C87 C 0.91907 0.50269 0.49541 0.0
C88 C 0.94479 0.50213 0.47256 0.0
C89 C 0.97435 0.53023 0.4692 0.0
C90 C 0.97852 0.55941 0.4887 0.0
H91 H 0.73939 0.80824 0.86049 0.0
H92 H 0.82278 0.75465 0.83768 0.0
H93 H 0.7927 0.83691 0.76879 0.0
H94 H 0.80481 0.77893 0.73454 0.0
C95 C 0.82407 0.76799 0.75383 0.0
O96 O 0.83413 0.79026 0.77994 0.0
H97 H 0.80951 0.74164 0.76356 0.0
C98 C 0.75891 0.80453 0.84379 0.0
C99 C 0.76232 0.82556 0.81313 0.0
C100 C 0.7809 0.7791 0.85338 0.0
C101 C 0.80605 0.7744 0.83137 0.0
C102 C 0.80974 0.79498 0.80085 0.0
C103 C 0.78839 0.82064 0.79205 0.0
H104 H 0.24338 0.32024 0.36106 0.0
H105 H 0.32503 0.2646 0.33802 0.0
H106 H 0.29548 0.34649 0.26843 0.0
H107 H 0.2989 0.27694 0.24174 0.0
C108 C 0.32555 0.27402 0.25589 0.0
O109 O 0.33582 0.29904 0.27961 0.0
H110 H 0.32171 0.24716 0.26898 0.0
C111 C 0.26252 0.31595 0.34423 0.0
C112 C 0.26591 0.3366 0.31331 0.0
C113 C 0.28397 0.29005 0.35383 0.0
C114 C 0.30872 0.28469 0.33171 0.0
C115 C 0.31219 0.30471 0.30086 0.0
C116 C 0.29127 0.33068 0.29195 0.0
H117 H 0.49502 0.0635 0.62809 0.0
H118 H 0.42959 0.01828 0.54045 0.0
H119 H 0.52173 0.97556 0.58386 0.0
H120 H 0.50764 0.99695 0.50562 0.0
C121 C 0.48179 0.97671 0.50455 0.0
O122 O 0.46833 0.97082 0.53589 0.0
H123 H 0.46144 0.98679 0.4859 0.0
C124 C 0.48912 0.04412 0.60918 0.0
C125 C 0.51207 0.01948 0.60934 0.0
C126 C 0.45933 0.04446 0.58413 0.0
C127 C 0.45277 0.01948 0.55942 0.0
C128 C 0.47553 0.99518 0.55927 0.0
C129 C 0.50491 0.99514 0.58407 0.0
H130 H 0.23588 0.39761 0.78266 0.0
H131 H 0.18607 0.28764 0.78107 0.0
H132 H 0.28083 0.32677 0.72872 0.0
H133 H 0.1888 0.27551 0.70526 0.0
C134 C 0.20659 0.25692 0.71664 0.0
O135 O 0.23102 0.27161 0.74258 0.0
H136 H 0.18812 0.23334 0.72728 0.0
C137 C 0.23564 0.37166 0.77444 0.0
C138 C 0.26271 0.36637 0.75462 0.0
C139 C 0.20812 0.3435 0.78432 0.0
C140 C 0.20666 0.30989 0.77314 0.0
C141 C 0.2323 0.3044 0.75238 0.0
C142 C 0.26029 0.33235 0.74331 0.0
H143 H 0.84046 0.18494 0.79679 0.0
H144 H 0.79128 0.2258 0.70311 0.0
H145 H 0.88489 0.28937 0.75504 0.0
H146 H 0.83449 0.33643 0.70962 0.0
C147 C 0.81643 0.31134 0.70186 0.0
O148 O 0.83772 0.28628 0.70149 0.0
H149 H 0.79567 0.30318 0.72043 0.0
C150 C 0.84012 0.20606 0.77709 0.0
C151 C 0.86616 0.23768 0.77957 0.0
C152 C 0.81299 0.20168 0.74974 0.0
C153 C 0.81229 0.22882 0.72423 0.0
C154 C 0.83858 0.26014 0.72607 0.0
C155 C 0.86537 0.26459 0.75361 0.0
H156 H 0.5025 0.60313 0.54976 0.0
H157 H 0.52656 0.49874 0.5602 0.0
H158 H 0.56476 0.57065 0.478 0.0
H159 H 0.55218 0.50077 0.45808 0.0
C160 C 0.55154 0.48582 0.48322 0.0
O161 O 0.56556 0.50859 0.50833 0.0
H162 H 0.52258 0.47332 0.4866 0.0
C163 C 0.5138 0.58291 0.53997 0.0
C164 C 0.53299 0.59104 0.51105 0.0
C165 C 0.5109 0.54971 0.55778 0.0
C166 C 0.52787 0.52432 0.54652 0.0
C167 C 0.54729 0.53214 0.51782 0.0
C168 C 0.54969 0.56524 0.50014 0.0
H169 H 0.62539 0.47585 0.07285 0.0
H170 H 0.5429 0.42778 0.99748 0.0
H171 H 0.59574 0.5358 0.98114 0.0
H172 H 0.51439 0.51634 0.96391 0.0
C173 C 0.5142 0.4923 0.95042 0.0
O174 O 0.54836 0.48373 0.9553 0.0
H175 H 0.49377 0.47015 0.96084 0.0
C176 C 0.6093 0.47764 0.04864 0.0
C177 C 0.61352 0.50977 0.02859 0.0
C178 C 0.58332 0.44812 0.03772 0.0
C179 C 0.56254 0.45053 0.00637 0.0
C180 C 0.56719 0.48207 0.98612 0.0
C181 C 0.59237 0.51156 0.99726 0.0
H182 H 0.65447 0.24824 0.30691 0.0
H183 H 0.69665 0.17964 0.24822 0.0
H184 H 0.75134 0.20795 0.3442 0.0
H185 H 0.80035 0.20816 0.29451 0.0
C186 C 0.78352 0.18828 0.27764 0.0
O187 O 0.75171 0.1729 0.29186 0.0
H188 H 0.77701 0.20235 0.25284 0.0
C189 C 0.67434 0.23245 0.30378 0.0
C190 C 0.70398 0.23175 0.32888 0.0
C191 C 0.67056 0.21312 0.27458 0.0
C192 C 0.69739 0.19344 0.27085 0.0
C193 C 0.7262 0.19183 0.29592 0.0
C194 C 0.72906 0.21028 0.32494 0.0
H195 H 0.40812 0.03085 0.03807 0.0
H196 H 0.44619 0.97838 0.9624 0.0
H197 H 0.50611 0.07916 0.99068 0.0
H198 H 0.49906 0.06587 0.91646 0.0
C199 C 0.5 0.03726 0.91948 0.0
O200 O 0.50391 0.02665 0.95346 0.0
H201 H 0.47387 0.02231 0.90741 0.0
C202 C 0.42775 0.0307 0.02023 0.0
C203 C 0.458 0.05912 0.01774 0.0
C204 C 0.42247 1.00185 0.9997 0.0
C205 C 0.44872 1.00085 0.97751 0.0
C206 C 0.47872 0.02856 0.97463 0.0
C207 C 0.48308 0.05771 0.99421 0.0
Mg208 Mg 0.22137 0.8351 0.01849 0.0
O209 O 0.27265 0.87841 0.00946 0.0
O210 O 0.31985 0.85114 0.00963 0.0
Mg211 Mg 0.29925 0.79173 0.01661 0.0
C212 C 0.30653 0.87905 0.00751 0.0
C213 C 0.16171 0.87698 0.02599 0.0
O214 O 0.16065 0.85531 0.05329 0.0
O215 O 0.2157 0.81849 0.96374 0.0
O216 O 0.26389 0.79242 0.96581 0.0
O217 O 0.23657 0.83861 0.07408 0.0
O218 O 0.25482 0.80192 0.04342 0.0
C219 C 0.23576 0.80204 0.9498 0.0
C220 C 0.25671 0.81563 0.07202 0.0
O221 O 0.18437 0.87548 0.00493 0.0
Mg222 Mg 0.17164 0.52897 0.29121 0.0
O223 O 0.13351 0.52353 0.24134 0.0
O224 O 0.1686 0.52485 0.19939 0.0
Mg225 Mg 0.22838 0.53222 0.2215 0.0
C226 C 0.13728 0.5226 0.20994 0.0
C227 C 0.12356 0.5341 0.34633 0.0
O228 O 0.15342 0.55795 0.35262 0.0
O229 O 0.18142 0.472 0.2921 0.0
O230 O 0.21831 0.47766 0.25066 0.0
O231 O 0.17973 0.58776 0.28469 0.0
O232 O 0.21522 0.55691 0.26512 0.0
C233 C 0.20163 0.45931 0.27453 0.0
C234 C 0.2074 0.58723 0.26825 0.0
O235 O 0.12206 0.51437 0.32205 0.0
Mg236 Mg 0.80276 0.68409 0.06393 0.0
O237 O 0.75015 0.64069 0.05944 0.0
O238 O 0.70287 0.66822 0.05402 0.0
Mg239 Mg 0.72356 0.72779 0.05431 0.0
C240 C 0.71574 0.64 0.056 0.0
C241 C 0.85503 0.63171 0.08506 0.0
O242 O 0.85031 0.64287 0.11413 0.0
O243 O 0.79528 0.69933 0.0064 0.0
O244 O 0.7477 0.72639 0.00426 0.0
O245 O 0.79983 0.68401 0.12026 0.0
O246 O 0.77457 0.7187 0.08237 0.0
C247 C 0.77202 0.71601 0.98987 0.0
C248 C 0.78012 0.70789 0.11353 0.0
O249 O 0.83844 0.64332 0.05809 0.0
Mg250 Mg 0.94055 0.05726 0.24995 0.0
O251 O 0.8963 0.00726 0.24324 0.0
O252 O 0.92242 0.96319 0.23174 0.0
Mg253 Mg 0.98405 0.98461 0.23342 0.0
C254 C 0.89436 0.97529 0.23646 0.0
C255 C 0.87088 0.08827 0.25092 0.0
O256 O 0.86421 0.07304 0.22205 0.0
O257 O 0.95742 0.03471 0.30222 0.0
O258 O 0.98547 0.99202 0.29076 0.0
O259 O 0.93743 0.07261 0.19485 0.0
O260 O 0.97363 0.03799 0.22047 0.0
C261 C 0.97497 0.0101 0.31183 0.0
C262 C 0.96118 0.05312 0.1929 0.0
O263 O 0.90004 0.08551 0.26964 0.0
Mg264 Mg 0.30437 0.19041 0.56277 0.0
O265 O 0.2532 0.14532 0.55787 0.0
O266 O 0.20444 0.17075 0.55276 0.0
Mg267 Mg 0.22282 0.23059 0.55362 0.0
C268 C 0.21856 0.14328 0.55455 0.0
C269 C 0.36051 0.1421 0.58376 0.0
O270 O 0.35698 0.15486 0.61241 0.0
O271 O 0.29686 0.20664 0.50535 0.0
O272 O 0.248 0.23179 0.50362 0.0
O273 O 0.301 0.18884 0.619 0.0
O274 O 0.2744 0.22314 0.58171 0.0
C275 C 0.27311 0.22294 0.48908 0.0
C276 C 0.28019 0.21181 0.6127 0.0
O277 O 0.34201 0.15147 0.55693 0.0
Mg278 Mg 0.43526 0.55788 0.74286 0.0
O279 O 0.39286 0.50613 0.74063 0.0
O280 O 0.42008 0.46279 0.72925 0.0
Mg281 Mg 0.48114 0.48628 0.72893 0.0
C282 C 0.39179 0.47405 0.73479 0.0
C283 C 0.3642 0.58697 0.7447 0.0
O284 O 0.35652 0.57024 0.71667 0.0
O285 O 0.45566 0.53966 0.79593 0.0
O286 O 0.48355 0.49643 0.78574 0.0
O287 O 0.42749 0.56777 0.68694 0.0
O288 O 0.46814 0.53834 0.71315 0.0
C289 C 0.47368 0.51555 0.80624 0.0
C290 C 0.45255 0.54972 0.68511 0.0
O291 O 0.39432 0.58573 0.76244 0.0
Mg292 Mg 0.70984 0.34838 0.51236 0.0
O293 O 0.76565 0.38619 0.50482 0.0
O294 O 0.80793 0.35261 0.51631 0.0
Mg295 Mg 0.78089 0.29556 0.52897 0.0
C296 C 0.79904 0.38251 0.5081 0.0
C297 C 0.6453 0.38272 0.49954 0.0
O298 O 0.63596 0.35385 0.51905 0.0
O299 O 0.70902 0.32401 0.4618 0.0
O300 O 0.75276 0.29225 0.47452 0.0
O301 O 0.71768 0.3597 0.56657 0.0
O302 O 0.73627 0.31574 0.54644 0.0
C303 C 0.72825 0.30297 0.4537 0.0
C304 C 0.73548 0.33418 0.57167 0.0
O305 O 0.67699 0.38933 0.48919 0.0
Mg306 Mg 0.66884 0.01748 0.7927 0.0
O307 O 0.6311 0.01453 0.74254 0.0
O308 O 0.66652 0.01634 0.70078 0.0
Mg309 Mg 0.72595 0.02043 0.72337 0.0
C310 C 0.63521 0.01482 0.71108 0.0
C311 C 0.623 0.02295 0.8489 0.0
O312 O 0.65469 0.04398 0.85599 0.0
O313 O 0.67659 0.95991 0.79273 0.0
O314 O 0.71365 0.96548 0.75141 0.0
O315 O 0.67895 0.07634 0.78642 0.0
O316 O 0.71373 0.044 0.76789 0.0
C317 C 0.69642 0.94702 0.7749 0.0
C318 C 0.7069 0.07473 0.77077 0.0
O319 O 0.61907 0.00454 0.82327 0.0
Mg320 Mg 0.05596 0.28988 0.92976 0.0
O321 O 1.00333 0.27328 0.89505 0.0
O322 O 0.95943 0.24643 0.92737 0.0
Mg323 Mg 0.9842 0.24539 0.98246 0.0
C324 C 0.97038 0.25768 0.89844 0.0
C325 C 0.11519 0.33813 0.89003 0.0
O326 O 0.13166 0.33929 0.92093 0.0
O327 O 0.03332 0.3351 0.9469 0.0
O328 O 0.99163 0.30618 0.98061 0.0
O329 O 0.07175 0.23839 0.92543 0.0
O330 O 0.03808 0.24824 0.96442 0.0
C331 C 0.00914 0.33492 0.96712 0.0
C332 C 0.05227 0.22627 0.95024 0.0
O333 O 0.0819 0.32275 0.88574 0.0
Mg334 Mg 0.55743 0.79831 0.43163 0.0
O335 O 0.50538 0.78108 0.39634 0.0
O336 O 0.46078 0.75262 0.42733 0.0
Mg337 Mg 0.48368 0.75506 0.48293 0.0
C338 C 0.47269 0.76426 0.39888 0.0
C339 C 0.61853 0.84208 0.3912 0.0
O340 O 0.63521 0.84213 0.42202 0.0
O341 O 0.53435 0.8442 0.44625 0.0
O342 O 0.49079 0.81585 0.47834 0.0
O343 O 0.57315 0.74645 0.42979 0.0
O344 O 0.5386 0.75785 0.46731 0.0
C345 C 0.5089 0.84435 0.46497 0.0
C346 C 0.55315 0.73529 0.45443 0.0
O347 O 0.58452 0.82922 0.38711 0.0
Mg348 Mg 0.98187 0.74302 0.61743 0.0
O349 O 0.02569 0.72868 0.65878 0.0
O350 O 0.06967 0.71471 0.63197 0.0
Mg351 Mg 0.05525 0.721 0.57476 0.0
C352 C 0.05621 0.71888 0.65903 0.0
C353 C 0.94142 0.74363 0.68143 0.0
O354 O 0.95033 0.71238 0.6858 0.0
O355 O 0.0197 0.79641 0.60731 0.0
O356 O 0.06157 0.78123 0.57881 0.0
O357 O 0.95194 0.68679 0.61346 0.0
O358 O 0.99735 0.71169 0.58344 0.0
C359 C 0.04818 0.80462 0.59118 0.0
C360 C 0.97346 0.68403 0.59108 0.0
O361 O 0.95234 0.76411 0.6563 0.0
Mg362 Mg 0.48348 0.24083 0.12334 0.0
O363 O 0.53085 0.22905 0.16191 0.0
O364 O 0.5741 0.21759 0.13254 0.0
Mg365 Mg 0.55564 0.22346 0.07597 0.0
C366 C 0.56193 0.22098 0.16048 0.0
C367 C 0.42842 0.27325 0.15771 0.0
O368 O 0.41823 0.27983 0.12554 0.0
O369 O 0.51719 0.29579 0.11103 0.0
O370 O 0.55866 0.28324 0.08023 0.0
O371 O 0.4567 0.18368 0.12066 0.0
O372 O 0.49842 0.21108 0.08753 0.0
C373 C 0.54434 0.30552 0.09333 0.0
C374 C 0.47674 0.18234 0.0966 0.0
O375 O 0.45621 0.25913 0.16549 0.0
C376 C 0.24454 0.77234 0.86421 0.0
C377 C 0.20843 0.75574 0.85408 0.0
H378 H 0.2813 0.80011 0.90233 0.0
C379 C 0.18043 0.75934 0.87349 0.0
H380 H 0.26668 0.77121 0.84935 0.0
C381 C 0.18884 0.77696 0.90361 0.0
C382 C 0.22538 0.79085 0.9149 0.0
H383 H 0.15232 0.74693 0.86647 0.0
H384 H 0.16709 0.77761 0.91911 0.0
C385 C 0.25294 0.78927 0.89439 0.0
C386 C 0.02695 0.51159 0.37303 0.0
C387 C 0.02894 0.53601 0.39763 0.0
H388 H 0.05533 0.49164 0.33749 0.0
C389 C 0.06255 0.55819 0.40654 0.0
H390 H 1.00134 0.49403 0.36587 0.0
C391 C 0.09342 0.55674 0.39052 0.0
C392 C 0.09136 0.53308 0.36514 0.0
H393 H 0.06474 0.57706 0.42557 0.0
H394 H 0.11876 0.57473 0.39761 0.0
C395 C 0.05787 0.51017 0.35688 0.0
C396 C 0.80983 0.75107 0.90647 0.0
C397 C 0.77829 0.75845 0.88681 0.0
H398 H 0.83259 0.73122 0.95442 0.0
C399 C 0.74438 0.74757 0.9002 0.0
H400 H 0.83648 0.75922 0.89717 0.0
C401 C 0.74234 0.73203 0.93307 0.0
C402 C 0.77403 0.72639 0.95333 0.0
H403 H 0.71937 0.75176 0.88556 0.0
H404 H 0.71591 0.72529 0.94302 0.0
C405 C 0.80767 0.73499 0.93933 0.0
C406 C 0.00998 0.96762 0.39497 0.0
C407 C 1.00671 0.99195 0.41803 0.0
H408 H 1.00273 0.95431 0.34331 0.0
C409 C 0.99136 0.02136 0.40627 0.0
H410 H 0.0213 0.94449 0.40361 0.0
C411 C 0.98037 0.02688 0.37187 0.0
C412 C 0.98467 1.00314 0.34853 0.0
H413 H 0.98819 0.04028 0.42364 0.0
H414 H 0.96914 0.05013 0.36354 0.0
C415 C 0.99932 0.97328 0.36052 0.0
C416 C 0.2448 0.21742 0.69719 0.0
C417 C 0.22671 0.24591 0.69012 0.0
H418 H 0.27597 0.18413 0.67817 0.0
C419 C 0.22711 0.26358 0.65787 0.0
H420 H 0.24492 0.20356 0.72202 0.0
C421 C 0.24452 0.25242 0.63281 0.0
C422 C 0.26214 0.22353 0.63959 0.0
H423 H 0.21363 0.28583 0.65193 0.0
H424 H 0.24426 0.26657 0.60814 0.0
C425 C 0.26246 0.20635 0.67215 0.0
C426 C 0.45968 0.55519 0.5909 0.0
C427 C 0.49241 0.54337 0.58945 0.0
H428 H 0.42127 0.56623 0.62223 0.0
C429 C 0.5094 0.52946 0.61933 0.0
H430 H 0.44567 0.56555 0.56817 0.0
C431 C 0.49533 0.52973 0.65037 0.0
C432 C 0.46402 0.54391 0.65205 0.0
H433 H 0.53476 0.52035 0.61904 0.0
H434 H 0.51007 0.52052 0.6732 0.0
C435 C 0.44568 0.55553 0.62186 0.0
C436 C 0.79008 0.29165 0.64327 0.0
C437 C 0.79658 0.31721 0.66744 0.0
H438 H 0.76602 0.27721 0.59389 0.0
C439 C 0.78216 0.34795 0.66008 0.0
H440 H 0.80003 0.26724 0.64839 0.0
C441 C 0.76225 0.35344 0.62898 0.0
C442 C 0.75638 0.32823 0.60459 0.0
H443 H 0.78619 0.36769 0.67853 0.0
H444 H 0.7516 0.37751 0.62402 0.0
C445 C 0.7705 0.2973 0.61202 0.0
C446 C 0.53994 0.02153 0.67003 0.0
C447 C 0.54355 0.01884 0.63563 0.0
H448 H 0.56567 0.02182 0.72092 0.0
C449 C 0.57734 0.01445 0.62645 0.0
H450 H 0.51417 0.02458 0.67798 0.0
C451 C 0.60674 0.01274 0.65095 0.0
C452 C 0.60322 0.01524 0.68541 0.0
H453 H 0.5812 0.01265 0.60015 0.0
H454 H 0.63235 0.00956 0.64274 0.0
C455 C 0.56938 0.0196 0.69467 0.0
C456 C 0.88212 0.23171 0.84232 0.0
C457 C 0.89309 0.24291 0.80987 0.0
H458 H 0.89768 0.22755 0.89552 0.0
C459 C 0.92972 0.25918 0.80674 0.0
H460 H 0.85396 0.21965 0.84567 0.0
C461 C 0.95488 0.26395 0.83544 0.0
C462 C 0.9439 0.25261 0.8679 0.0
H463 H 0.93907 0.26782 0.78206 0.0
H464 H 0.98293 0.27647 0.83212 0.0
C465 C 0.9072 0.23645 0.87096 0.0
C466 C 0.46251 0.91119 0.49739 0.0
C467 C 0.48838 0.94264 0.49323 0.0
H468 H 0.4488 0.85551 0.49196 0.0
C469 C 0.51989 0.94205 0.4775 0.0
H470 H 0.43755 0.9111 0.50867 0.0
C471 C 0.52617 0.9103 0.46744 0.0
C472 C 0.50105 0.87851 0.47297 0.0
H473 H 0.5399 0.96609 0.47339 0.0
H474 H 0.55112 0.91056 0.45607 0.0
C475 C 0.46894 0.87942 0.4877 0.0
C476 C 0.14538 0.33375 0.80354 0.0
C477 C 0.18287 0.34818 0.80881 0.0
H478 H 0.09418 0.32021 0.82484 0.0
C479 C 0.19676 0.36394 0.83928 0.0
H480 H 0.13397 0.32179 0.78011 0.0
C481 C 0.1741 0.36285 0.86505 0.0
C482 C 0.13708 0.34628 0.86066 0.0
H483 H 0.22561 0.37515 0.84401 0.0
H484 H 0.18601 0.3734 0.88899 0.0
C485 C 0.12262 0.33306 0.82912 0.0
C486 C 0.56997 0.6436 0.48049 0.0
C487 C 0.53706 0.6271 0.49378 0.0
H488 H 0.60057 0.69075 0.45735 0.0
C489 C 0.50869 0.64614 0.49213 0.0
H490 H 0.59264 0.63009 0.48166 0.0
C491 C 0.51374 0.68124 0.47914 0.0
C492 C 0.54693 0.69782 0.46676 0.0
H493 H 0.48256 0.63405 0.50117 0.0
H494 H 0.49154 0.6952 0.47857 0.0
C495 C 0.57468 0.67848 0.46679 0.0
C496 C 0.87093 0.78835 0.71168 0.0
C497 C 0.85723 0.76394 0.73757 0.0
H498 H 0.9085 0.80127 0.67361 0.0
C499 C 0.87403 0.73498 0.74726 0.0
H500 H 0.85871 0.81117 0.70412 0.0
C501 C 0.90246 0.72923 0.72991 0.0
C502 C 0.91489 0.75252 0.70265 0.0
H503 H 0.86432 0.7161 0.76753 0.0
H504 H 0.91392 0.70592 0.73724 0.0
C505 C 0.89947 0.78269 0.69432 0.0
C506 C 0.05934 0.90443 0.58044 0.0
C507 C 0.08844 0.91338 0.56006 0.0
H508 H 0.02391 0.863 0.60672 0.0
C509 C 0.10698 0.88722 0.55341 0.0
H510 H 0.04424 0.92419 0.58527 0.0
C511 C 0.09527 0.85214 0.56535 0.0
C512 C 0.0645 0.84252 0.58389 0.0
H513 H 0.12906 0.89353 0.53719 0.0
H514 H 0.10919 0.83232 0.55845 0.0
C515 C 0.04757 0.86934 0.59243 0.0
C516 C 0.11745 0.74257 0.73873 0.0
C517 C 0.1324 0.71201 0.74673 0.0
H518 H 0.08068 0.76823 0.70501 0.0
C519 C 0.11818 0.68229 0.72775 0.0
H520 H 0.12771 0.76619 0.75225 0.0
C521 C 0.09223 0.68407 0.69997 0.0
C522 C 0.07866 0.71503 0.69136 0.0
H523 H 0.12778 0.65778 0.73366 0.0
H524 H 0.08329 0.66146 0.68475 0.0
C525 C 0.09053 0.74388 0.71155 0.0
C526 C 0.92903 0.60169 0.54602 0.0
C527 C 0.95908 0.59136 0.53429 0.0
H528 H 0.91026 0.63836 0.57375 0.0
C529 C 0.99435 0.61118 0.54325 0.0
H530 H 0.90135 0.58794 0.53935 0.0
C531 C 0.99918 0.641 0.56204 0.0
C532 C 0.96908 0.65116 0.57337 0.0
H533 H 0.01846 0.60379 0.53586 0.0
H534 H 0.02655 0.65595 0.5679 0.0
C535 C 0.93405 0.63085 0.56569 0.0
C536 C 0.80852 0.92394 0.271 0.0
C537 C 0.79602 0.89772 0.2476 0.0
H538 H 0.8486 0.96944 0.28501 0.0
C539 C 0.8154 0.89903 0.21897 0.0
H540 H 0.79559 0.92367 0.29397 0.0
C541 C 0.84712 0.92463 0.21485 0.0
C542 C 0.8593 0.95032 0.23848 0.0
H543 H 0.80647 0.88011 0.19983 0.0
H544 H 0.8622 0.92433 0.19326 0.0
C545 C 0.8393 0.95023 0.26612 0.0
C546 C 0.79487 0.14019 0.24396 0.0
C547 C 0.80458 0.16044 0.27229 0.0
H548 H 0.80813 0.10141 0.21501 0.0
C549 C 0.83441 0.15475 0.29516 0.0
H550 H 0.77161 0.14382 0.22628 0.0
C551 C 0.85537 0.13048 0.28884 0.0
C552 C 0.8467 0.1113 0.25962 0.0
H553 H 0.84205 0.16972 0.31748 0.0
H554 H 0.87885 0.12739 0.30642 0.0
C555 C 0.81576 0.11592 0.23761 0.0
C556 C 0.37675 0.95914 0.03272 0.0
C557 C 0.38997 0.97242 0.00147 0.0
H558 H 0.33933 0.9191 0.05886 0.0
C559 C 0.37283 0.95631 0.97185 0.0
H560 H 0.38948 0.97049 0.05607 0.0
C561 C 0.34442 0.92675 0.97362 0.0
C562 C 0.33216 0.91311 0.00491 0.0
H563 H 0.38177 0.96619 0.94728 0.0
H564 H 0.33265 0.91401 0.95065 0.0
C565 C 0.34808 0.92973 0.03438 0.0
C566 C 0.23505 0.38489 0.32837 0.0
C567 C 0.24417 0.36506 0.30367 0.0
H568 H 0.21337 0.42965 0.3385 0.0
C569 C 0.23407 0.37405 0.26936 0.0
H570 H 0.24257 0.37934 0.35502 0.0
C571 C 0.21814 0.40351 0.25998 0.0
C572 C 0.21078 0.4242 0.28461 0.0
H573 H 0.23932 0.35893 0.2495 0.0
H574 H 0.2126 0.41079 0.2333 0.0
C575 C 0.2182 0.41388 0.31894 0.0
C576 C 0.183 0.04413 0.54942 0.0
C577 C 0.14544 0.04281 0.5408 0.0
H578 H 0.23586 0.07697 0.56023 0.0
C579 C 0.13203 0.07422 0.53905 0.0
H580 H 0.19404 0.02029 0.55073 0.0
C581 C 0.15569 0.10646 0.54446 0.0
C582 C 0.19357 0.10828 0.55154 0.0
H583 H 0.10316 0.07392 0.53269 0.0
H584 H 0.14424 0.13011 0.54215 0.0
C585 C 0.2069 0.07661 0.55459 0.0
C586 C 0.79411 0.13626 0.7494 0.0
C587 C 0.78443 0.16932 0.74924 0.0
H588 H 0.77666 0.08019 0.75537 0.0
C589 C 0.74803 0.17111 0.75239 0.0
H590 H 0.82211 0.13442 0.74704 0.0
C591 C 0.7221 0.14016 0.7578 0.0
C592 C 0.73214 0.10703 0.75951 0.0
H593 H 0.74016 0.19647 0.75252 0.0
H594 H 0.6946 0.14222 0.76185 0.0
C595 C 0.76807 0.10533 0.75408 0.0
C596 C 0.42512 0.07995 0.61435 0.0
C597 C 0.43464 0.07024 0.58387 0.0
H598 H 0.3944 0.10993 0.63816 0.0
C599 C 0.41953 0.08465 0.55311 0.0
H600 H 0.43558 0.06903 0.63851 0.0
C601 C 0.39527 0.10775 0.55288 0.0
C602 C 0.38582 0.11733 0.58341 0.0
H603 H 0.42665 0.07832 0.52908 0.0
H604 H 0.38419 0.11832 0.52881 0.0
C605 C 0.40118 0.10326 0.61412 0.0
C606 C 0.56375 0.42537 0.50245 0.0
C607 C 0.57443 0.45805 0.48469 0.0
H608 H 0.57744 0.37579 0.52049 0.0
C609 C 0.60812 0.46554 0.4707 0.0
H610 H 0.53815 0.41924 0.51388 0.0
C611 C 0.63087 0.44073 0.47457 0.0
C612 C 0.62038 0.40812 0.49274 0.0
H613 H 0.61708 0.49085 0.45733 0.0
H614 H 0.65696 0.44742 0.46402 0.0
C615 C 0.58636 0.40058 0.50625 0.0
C616 C 0.74525 0.26725 0.37314 0.0
C617 C 0.70956 0.25342 0.35907 0.0
H618 H 0.77892 0.29336 0.4141 0.0
C619 C 0.67986 0.25945 0.37491 0.0
H620 H 0.76892 0.26449 0.36118 0.0
C621 C 0.68583 0.27743 0.40478 0.0
C622 C 0.72152 0.28904 0.4197 0.0
H623 H 0.652 0.24914 0.36509 0.0
H624 H 0.66253 0.28061 0.41711 0.0
C625 C 0.75111 0.28426 0.40331 0.0
C626 C 0.52696 0.00819 0.87632 0.0
C627 C 0.53198 0.03132 0.90253 0.0
H628 H 0.55182 0.98714 0.83882 0.0
C629 C 0.56725 0.04995 0.91215 0.0
H630 H 0.49998 0.99344 0.86849 0.0
C631 C 0.59687 0.04626 0.89538 0.0
C632 C 0.59186 0.02393 0.86847 0.0
H633 H 0.57175 0.06787 0.93232 0.0
H634 H 0.62361 0.06158 0.9031 0.0
C635 C 0.55663 0.00454 0.85942 0.0
C636 C 0.24685 0.25859 0.40033 0.0
C637 C 0.28089 0.26914 0.38714 0.0
H638 H 0.21775 0.23534 0.44249 0.0
C639 C 0.31204 0.26061 0.40663 0.0
H640 H 0.2221 0.26368 0.38582 0.0
C641 C 0.30938 0.2435 0.43905 0.0
C642 C 0.2756 0.23492 0.45283 0.0
H643 H 0.33879 0.26847 0.39748 0.0
H644 H 0.33403 0.23872 0.45397 0.0
C645 C 0.24429 0.24195 0.43277 0.0
C646 C 0.50731 0.4739 0.89043 0.0
C647 C 0.50366 0.49846 0.9131 0.0
H648 H 0.50113 0.46017 0.83895 0.0
C649 C 0.48912 0.52818 0.90061 0.0
H650 H 0.51786 0.45046 0.89956 0.0
C651 C 0.47916 0.53366 0.86595 0.0
C652 C 0.48359 0.50951 0.84307 0.0
H653 H 0.48556 0.54726 0.91765 0.0
H654 H 0.46829 0.55699 0.8571 0.0
C655 C 0.49769 0.4795 0.85576 0.0
C656 C 0.72995 0.76369 0.15723 0.0
C657 C 0.72859 0.74661 0.18971 0.0
H658 H 0.74723 0.76478 0.10777 0.0
C659 C 0.74529 0.71725 0.1975 0.0
H660 H 0.71756 0.78658 0.15072 0.0
C661 C 0.76241 0.70469 0.17291 0.0
C662 C 0.76292 0.72124 0.14009 0.0
H663 H 0.74467 0.70381 0.22251 0.0
H664 H 0.77476 0.6818 0.17946 0.0
C665 C 0.74681 0.75107 0.13264 0.0
C666 C 0.9941 0.0198 0.1176 0.0
C667 C 1.00798 0.05189 0.0997 0.0
H668 H 0.9686 0.99494 0.16175 0.0
C669 C 1.0067 0.08379 0.11363 0.0
H670 H 0.9944 0.9947 0.10778 0.0
C671 C 0.99041 0.08371 0.14332 0.0
C672 C 0.97651 0.05186 0.16086 0.0
H673 H 0.01858 0.10914 0.10188 0.0
H674 H 0.9896 0.10873 0.15314 0.0
C675 C 0.97901 0.01983 0.14828 0.0
C676 C 0.32076 0.82551 0.1526 0.0
C677 C 0.34189 0.80009 0.14987 0.0
H678 H 0.27695 0.85018 0.13027 0.0
C679 C 0.33361 0.77862 0.12234 0.0
H680 H 0.3269 0.84266 0.17343 0.0
C681 C 0.30499 0.78277 0.09772 0.0
C682 C 0.28448 0.80891 0.09986 0.0
H683 H 0.34978 0.75908 0.11952 0.0
H684 H 0.29943 0.76591 0.07671 0.0
C685 C 0.29221 0.8298 0.12789 0.0
C686 C 0.07775 0.5146 0.12621 0.0
C687 C 0.04352 0.51753 0.13548 0.0
H688 H 0.13384 0.51381 0.14214 0.0
C689 C 0.0402 0.52177 0.16965 0.0
H690 H 0.08137 0.51169 0.10007 0.0
C691 C 0.07039 0.52291 0.19396 0.0
C692 C 0.10469 0.52011 0.18461 0.0
H693 H 0.01412 0.52373 0.17769 0.0
H694 H 0.06688 0.52624 0.22003 0.0
C695 C 0.10791 0.51595 0.1504 0.0
C696 C 0.39981 0.71978 0.33462 0.0
C697 C 0.40061 0.74591 0.30763 0.0
H698 H 0.42155 0.70541 0.38479 0.0
C699 C 0.42532 0.77835 0.31145 0.0
H700 H 0.38203 0.69412 0.3326 0.0
C701 C 0.44901 0.78412 0.34094 0.0
C702 C 0.44778 0.75808 0.36775 0.0
H703 H 0.42632 0.79954 0.29179 0.0
H704 H 0.46788 0.80924 0.34304 0.0
C705 C 0.42273 0.72603 0.36452 0.0
C706 C 0.01922 0.43285 0.97879 0.0
C707 C 0.98901 0.43316 0.99656 0.0
H708 H 0.04936 0.40169 0.95552 0.0
C709 C 0.96446 0.40125 0.00292 0.0
H710 H 0.03813 0.45719 0.97291 0.0
C711 C 0.97091 0.36947 0.99316 0.0
C712 C 1.00165 0.36894 0.97614 0.0
H713 H 0.94042 0.40083 0.01576 0.0
H714 H 0.95171 0.3453 0.99896 0.0
C715 C 0.0255 0.40108 0.96869 0.0
C716 C 0.64781 0.83489 0.30479 0.0
C717 C 0.68536 0.84923 0.30952 0.0
H718 H 0.59685 0.82233 0.32663 0.0
C719 C 0.69975 0.86524 0.33978 0.0
H720 H 0.63602 0.82268 0.28156 0.0
C721 C 0.67747 0.86483 0.36571 0.0
C722 C 0.64028 0.84878 0.36172 0.0
H723 H 0.72867 0.87635 0.34414 0.0
H724 H 0.68971 0.87575 0.3894 0.0
C725 C 0.62539 0.83495 0.33052 0.0
C726 C 0.07214 0.13591 0.97741 0.0
C727 C 0.03951 0.11875 0.99085 0.0
H728 H 0.10146 0.18346 0.95372 0.0
C729 C 0.00971 0.13619 0.98714 0.0
H730 H 0.09578 0.12361 0.97997 0.0
C731 C 0.01353 0.17096 0.9733 0.0
C732 C 0.04679 0.1886 0.96179 0.0
H733 H 0.98372 0.12344 0.99607 0.0
H734 H 0.99058 0.1841 0.97193 0.0
C735 C 0.07557 0.17037 0.96268 0.0
C736 C 0.34888 0.29274 0.19862 0.0
C737 C 0.35437 0.27758 0.23163 0.0
H738 H 0.36804 0.30343 0.14942 0.0
C739 C 0.38635 0.26428 0.24122 0.0
H740 H 0.32466 0.3036 0.19074 0.0
C741 C 0.41136 0.26427 0.21764 0.0
C742 C 0.40486 0.27762 0.18399 0.0
H743 H 0.39131 0.2528 0.26667 0.0
H744 H 0.43509 0.25264 0.22548 0.0
C745 C 0.37378 0.29265 0.17501 0.0
C746 C 0.54492 0.40308 0.07396 0.0
C747 C 0.57734 0.41421 0.05823 0.0
H748 H 0.50936 0.36007 0.09815 0.0
C749 C 0.60083 0.39057 0.05748 0.0
H750 H 0.52624 0.4209 0.07439 0.0
C751 C 0.59101 0.35559 0.07054 0.0
C752 C 0.5576 0.34375 0.08479 0.0
H753 H 0.62574 0.3986 0.04506 0.0
H754 H 0.60892 0.33748 0.06824 0.0
C755 C 0.5353 0.36825 0.08745 0.0
C756 C 0.62402 0.24427 0.24005 0.0
C757 C 0.63963 0.21401 0.24739 0.0
H758 H 0.5864 0.26972 0.20714 0.0
C759 C 0.6265 0.18494 0.22731 0.0
H760 H 0.63345 0.26747 0.25433 0.0
C761 C 0.60058 0.18694 0.19952 0.0
C762 C 0.58594 0.21742 0.19193 0.0
H763 H 0.63658 0.16062 0.2326 0.0
H764 H 0.59216 0.1647 0.18376 0.0
C765 C 0.59711 0.24574 0.21286 0.0
C766 C 0.49838 0.11025 0.04821 0.0
C767 C 0.46322 0.09014 0.03931 0.0
H768 H 0.53023 0.15529 0.07286 0.0
C769 C 0.43304 0.10033 0.05098 0.0
H770 H 0.52261 0.10309 0.04084 0.0
C771 C 0.43784 0.12935 0.07077 0.0
C772 C 0.47274 0.14981 0.07852 0.0
H773 H 0.40538 0.08661 0.04423 0.0
H774 H 0.41397 0.13665 0.0789 0.0
C775 C 0.50297 0.14007 0.06702 0.0
C776 C 0.31363 0.39666 0.71909 0.0
C777 C 0.29451 0.39556 0.74784 0.0
H778 H 0.3599 0.42208 0.69273 0.0
C779 C 0.30719 0.42191 0.77107 0.0
H780 H 0.30456 0.3776 0.7001 0.0
C781 C 0.33779 0.44829 0.76578 0.0
C782 C 0.3574 0.44833 0.73789 0.0
H783 H 0.29441 0.42176 0.79411 0.0
H784 H 0.34714 0.46778 0.78442 0.0
C785 C 0.34515 0.42238 0.71454 0.0
C786 C 0.28714 0.63757 0.73824 0.0
C787 C 0.29785 0.65941 0.76537 0.0
H788 H 0.29962 0.59746 0.71045 0.0
C789 C 0.32874 0.65517 0.78747 0.0
H790 H 0.26307 0.64005 0.7212 0.0
C791 C 0.34972 0.6308 0.78144 0.0
C792 C 0.34003 0.61005 0.75331 0.0
H793 H 0.33717 0.67137 0.80889 0.0
H794 H 0.37401 0.62888 0.79835 0.0
C795 C 0.30806 0.6132 0.73219 0.0
C796 C 0.89388 0.43758 0.49983 0.0
C797 C 0.88791 0.47227 0.49873 0.0
H798 H 0.87083 0.38248 0.50332 0.0
C799 C 0.85211 0.47744 0.50012 0.0
H800 H 0.92115 0.43264 0.49919 0.0
C801 C 0.82291 0.44845 0.5024 0.0
C802 C 0.82904 0.41373 0.50369 0.0
H803 H 0.84662 0.5039 0.49904 0.0
H804 H 0.79569 0.45325 0.50359 0.0
C805 C 0.86492 0.40877 0.50232 0.0
C806 C 0.72977 0.86245 0.76927 0.0
C807 C 0.73988 0.85343 0.80356 0.0
H808 H 0.7078 0.89897 0.73334 0.0
C809 C 0.73003 0.87268 0.82834 0.0
H810 H 0.73563 0.84774 0.74936 0.0
C811 C 0.71259 0.90127 0.81902 0.0
C812 C 0.70525 0.91176 0.78473 0.0
H813 H 0.73752 0.86706 0.85499 0.0
H814 H 0.70738 0.91674 0.83866 0.0
C815 C 0.71319 0.89151 0.76 0.0
C816 C 0.62737 0.57407 0.03817 0.0
C817 C 0.63942 0.54196 0.03974 0.0
H818 H 0.64166 0.62977 0.04233 0.0
C819 C 0.67656 0.5417 0.04917 0.0
H820 H 0.59883 0.57496 0.03125 0.0
C821 C 0.70148 0.57338 0.05529 0.0
C822 C 0.68955 0.60578 0.05243 0.0
H823 H 0.68653 0.51727 0.05041 0.0
H824 H 0.73013 0.57257 0.06148 0.0
C825 C 0.65203 0.6055 0.04456 0.0
C826 C 0.2845 0.64984 0.22818 0.0
C827 C 0.28691 0.68022 0.24575 0.0
H828 H 0.25734 0.59634 0.22154 0.0
C829 C 0.26011 0.68128 0.26732 0.0
H830 H 0.30505 0.64835 0.21161 0.0
C831 C 0.23245 0.65172 0.27261 0.0
C832 C 0.23166 0.62033 0.25705 0.0
H833 H 0.26148 0.70447 0.28112 0.0
H834 H 0.21312 0.65277 0.29057 0.0
C835 C 0.2573 0.62002 0.23401 0.0
C836 C 0.9144 0.57495 0.05356 0.0
C837 C 0.93014 0.56095 0.0842 0.0
H838 H 0.87834 0.60814 0.02964 0.0
C839 C 0.9203 0.57003 0.11481 0.0
H840 H 0.9216 0.56886 0.02948 0.0
C841 C 0.89578 0.59269 0.11486 0.0
C842 C 0.88022 0.60686 0.08431 0.0
H843 H 0.93122 0.55929 0.13887 0.0
H844 H 0.88901 0.59904 0.13902 0.0
C845 C 0.88968 0.59759 0.05362 0.0
C846 C 0.11455 0.95075 0.98659 0.0
C847 C 0.0894 0.95127 0.01005 0.0
H848 H 0.15699 0.92667 0.97299 0.0
C849 C 0.08872 0.92785 0.03897 0.0
H850 H 0.11591 0.96895 0.96432 0.0
C851 C 0.11215 0.90375 0.04401 0.0
C852 C 0.137 0.90272 0.02033 0.0
H853 H 0.0699 0.92816 0.05763 0.0
H854 H 0.11074 0.88592 0.06654 0.0
C855 C 0.13803 0.92659 0.99159 0.0
loop_
_geom_bond_atom_site_label_1
_geom_bond_atom_site_label_2
_geom_bond_distance
_geom_bond_site_symmetry_2
_ccdc_geom_bond_type
H0 C7 0.929 . S
H1 C10 0.930 . S
H2 C12 0.943 . S
H3 C4 0.969 . S
C4 H3 0.969 . S
C4 O5 1.550 1_565 S
C4 H6 0.973 . S
O5 C4 1.550 1_545 S
O5 C11 1.412 . S
H6 C4 0.973 . S
C7 H0 0.929 . S
C7 C8 1.400 . S
C7 C9 1.364 . S
C8 C7 1.400 . S
C8 C12 1.371 1_654 S
C9 C7 1.364 . S
C9 C10 1.374 1_655 S
C10 H1 0.930 . S
C10 C9 1.374 1_455 S
C10 C11 1.383 . S
C11 O5 1.412 . S
C11 C10 1.383 . S
C11 C12 1.386 1_554 S
C12 H2 0.943 . S
C12 C8 1.371 1_456 S
C12 C11 1.386 1_556 S
H13 C20 0.929 . S
H14 C23 0.930 . S
H15 C25 0.929 . S
H16 C17 0.969 . S
C17 H16 0.969 . S
C17 O18 1.550 . S
C17 H19 0.973 . S
O18 C17 1.550 . S
O18 C24 1.412 . S
H19 C17 0.973 . S
C20 H13 0.929 . S
C20 C21 1.400 . S
C20 C22 1.364 . S
C21 C20 1.400 . S
C21 C25 1.377 . S
C22 C20 1.364 . S
C22 C23 1.374 . S
C23 H14 0.930 . S
C23 C22 1.374 . S
C23 C24 1.383 . S
C24 O18 1.412 . S
C24 C23 1.383 . S
C24 C25 1.394 . S
C25 H15 0.929 . S
C25 C21 1.377 . S
C25 C24 1.394 . S
H26 C33 0.929 . S
H27 C36 0.930 . S
H28 C38 0.929 . S
H29 C30 0.969 . S
C30 H29 0.969 . S
C30 O31 1.550 . S
C30 H32 0.973 . S
O31 C30 1.550 . S
O31 C37 1.412 . S
H32 C30 0.973 . S
C33 H26 0.929 . S
C33 C34 1.400 1_655 S
C33 C35 1.364 . S
C34 C33 1.400 1_455 S
C34 C38 1.377 . S
C35 C33 1.364 . S
C35 C36 1.374 . S
C36 H27 0.930 . S
C36 C35 1.374 . S
C36 C37 1.383 . S
C37 O31 1.412 . S
C37 C36 1.383 . S
C37 C38 1.394 1_655 S
C38 H28 0.929 . S
C38 C34 1.377 . S
C38 C37 1.394 1_455 S
H39 C46 0.929 . S
H40 C49 0.930 . S
H41 C51 0.929 . S
H42 C43 0.969 . S
C43 H42 0.969 . S
C43 O44 1.550 . S
C43 H45 0.973 . S
O44 C43 1.550 . S
O44 C50 1.412 . S
H45 C43 0.973 . S
C46 H39 0.929 . S
C46 C47 1.400 . S
C46 C48 1.364 . S
C47 C46 1.400 . S
C47 C51 1.377 . S
C48 C46 1.364 . S
C48 C49 1.374 . S
C49 H40 0.930 . S
C49 C48 1.374 . S
C49 C50 1.383 . S
C50 O44 1.412 . S
C50 C49 1.383 . S
C50 C51 1.394 . S
C51 H41 0.929 . S
C51 C47 1.377 . S
C51 C50 1.394 . S
H52 C59 0.929 . S
H53 C62 0.930 . S
H54 C64 0.929 . S
H55 C56 0.969 1_655 S
C56 H55 0.969 1_455 S
C56 O57 1.550 1_565 S
C56 H58 0.973 1_455 S
O57 C56 1.550 1_545 S
O57 C63 1.411 1_545 S
H58 C56 0.973 1_655 S
C59 H52 0.929 . S
C59 C60 1.400 1_565 S
C59 C61 1.364 . S
C60 C59 1.400 1_545 S
C60 C64 1.377 . S
C61 C59 1.364 . S
C61 C62 1.374 . S
C62 H53 0.930 . S
C62 C61 1.374 . S
C62 C63 1.383 . S
C63 O57 1.411 1_565 S
C63 C62 1.383 . S
C63 C64 1.394 1_565 S
C64 H54 0.929 . S
C64 C60 1.377 . S
C64 C63 1.394 1_545 S
H65 C72 0.929 . S
H66 C75 0.930 . S
H67 C77 0.929 . S
H68 C69 0.969 . S
C69 H68 0.969 . S
C69 O70 1.550 . S
C69 H71 0.973 . S
O70 C69 1.550 . S
O70 C76 1.412 . S
H71 C69 0.973 . S
C72 H65 0.929 . S
C72 C73 1.400 . S
C72 C74 1.364 . S
C73 C72 1.400 . S
C73 C77 1.377 . S
C74 C72 1.364 . S
C74 C75 1.374 . S
C75 H66 0.930 . S
C75 C74 1.374 . S
C75 C76 1.383 . S
C76 O70 1.412 . S
C76 C75 1.383 . S
C76 C77 1.394 . S
C77 H67 0.929 . S
C77 C73 1.377 . S
C77 C76 1.394 . S
H78 C85 0.929 . S
H79 C88 0.930 . S
H80 C90 0.929 1_455 S
H81 C82 0.969 1_655 S
C82 H81 0.969 1_455 S
C82 O83 1.550 . S
C82 H84 0.973 1_455 S
O83 C82 1.550 . S
O83 C89 1.412 1_455 S
H84 C82 0.973 1_655 S
C85 H78 0.929 . S
C85 C86 1.400 . S
C85 C87 1.364 . S
C86 C85 1.400 . S
C86 C90 1.377 . S
C87 C85 1.364 . S
C87 C88 1.374 . S
C88 H79 0.930 . S
C88 C87 1.374 . S
C88 C89 1.383 . S
C89 O83 1.412 1_655 S
C89 C88 1.383 . S
C89 C90 1.394 . S
C90 H80 0.929 1_655 S
C90 C86 1.377 . S
C90 C89 1.394 . S
H91 C98 0.929 . S
H92 C101 0.930 . S
H93 C103 0.929 . S
H94 C95 0.969 . S
C95 H94 0.969 . S
C95 O96 1.550 . S
C95 H97 0.973 . S
O96 C95 1.550 . S
O96 C102 1.412 . S
H97 C95 0.973 . S
C98 H91 0.929 . S
C98 C99 1.400 . S
C98 C100 1.364 . S
C99 C98 1.400 . S
C99 C103 1.377 . S
C100 C98 1.364 . S
C100 C101 1.374 . S
C101 H92 0.930 . S
C101 C100 1.374 . S
C101 C102 1.383 . S
C102 O96 1.412 . S
C102 C101 1.383 . S
C102 C103 1.394 . S
C103 H93 0.929 . S
C103 C99 1.377 . S
C103 C102 1.394 . S
H104 C111 0.929 . S
H105 C114 0.930 . S
H106 C116 0.929 . S
H107 C108 0.969 . S
C108 H107 0.969 . S
C108 O109 1.550 . S
C108 H110 0.973 . S
O109 C108 1.550 . S
O109 C115 1.412 . S
H110 C108 0.973 . S
C111 H104 0.929 . S
C111 C112 1.400 . S
C111 C113 1.364 . S
C112 C111 1.400 . S
C112 C116 1.377 . S
C113 C111 1.364 . S
C113 C114 1.374 . S
C114 H105 0.930 . S
C114 C113 1.374 . S
C114 C115 1.383 . S
C115 O109 1.412 . S
C115 C114 1.383 . S
C115 C116 1.394 . S
C116 H106 0.929 . S
C116 C112 1.377 . S
C116 C115 1.394 . S
H117 C124 0.929 1_545 S
H118 C127 0.930 . S
H119 C129 0.929 . S
H120 C121 0.969 . S
C121 H120 0.969 . S
C121 O122 1.550 . S
C121 H123 0.973 . S
O122 C121 1.550 . S
O122 C128 1.412 . S
H123 C121 0.973 . S
C124 H117 0.929 1_565 S
C124 C125 1.400 . S
C124 C126 1.364 . S
C125 C124 1.400 . S
C125 C129 1.377 . S
C126 C124 1.364 . S
C126 C127 1.374 . S
C127 H118 0.930 . S
C127 C126 1.374 . S
C127 C128 1.383 . S
C128 O122 1.412 . S
C128 C127 1.383 . S
C128 C129 1.394 . S
C129 H119 0.929 . S
C129 C125 1.377 . S
C129 C128 1.394 . S
H130 C137 0.929 . S
H131 C140 0.930 . S
H132 C142 0.929 . S
H133 C134 0.969 . S
C134 H133 0.969 . S
C134 O135 1.550 . S
C134 H136 0.973 . S
O135 C134 1.550 . S
O135 C141 1.412 . S
H136 C134 0.973 . S
C137 H130 0.929 . S
C137 C138 1.400 . S
C137 C139 1.364 . S
C138 C137 1.400 . S
C138 C142 1.377 . S
C139 C137 1.364 . S
C139 C140 1.374 . S
C140 H131 0.930 . S
C140 C139 1.374 . S
C140 C141 1.383 . S
C141 O135 1.412 . S
C141 C140 1.383 . S
C141 C142 1.394 . S
C142 H132 0.929 . S
C142 C138 1.377 . S
C142 C141 1.394 . S
H143 C150 0.929 . S
H144 C153 0.930 . S
H145 C155 0.929 . S
H146 C147 0.969 . S
C147 H146 0.969 . S
C147 O148 1.550 . S
C147 H149 0.973 . S
O148 C147 1.550 . S
O148 C154 1.412 . S
H149 C147 0.973 . S
C150 H143 0.929 . S
C150 C151 1.400 . S
C150 C152 1.364 . S
C151 C150 1.400 . S
C151 C155 1.377 . S
C152 C150 1.364 . S
C152 C153 1.374 . S
C153 H144 0.930 . S
C153 C152 1.374 . S
C153 C154 1.383 . S
C154 O148 1.412 . S
C154 C153 1.383 . S
C154 C155 1.394 . S
C155 H145 0.929 . S
C155 C151 1.377 . S
C155 C154 1.394 . S
H156 C163 0.929 . S
H157 C166 0.930 . S
H158 C168 0.929 . S
H159 C160 0.969 . S
C160 H159 0.969 . S
C160 O161 1.550 . S
C160 H162 0.973 . S
O161 C160 1.550 . S
O161 C167 1.412 . S
H162 C160 0.973 . S
C163 H156 0.929 . S
C163 C164 1.400 . S
C163 C165 1.364 . S
C164 C163 1.400 . S
C164 C168 1.377 . S
C165 C163 1.364 . S
C165 C166 1.374 . S
C166 H157 0.930 . S
C166 C165 1.374 . S
C166 C167 1.383 . S
C167 O161 1.412 . S
C167 C166 1.383 . S
C167 C168 1.394 . S
C168 H158 0.929 . S
C168 C164 1.377 . S
C168 C167 1.394 . S
H169 C176 0.929 . S
H170 C179 0.930 . S
H171 C181 0.929 . S
H172 C173 0.969 . S
C173 H172 0.969 . S
C173 O174 1.550 . S
C173 H175 0.973 . S
O174 C173 1.550 . S
O174 C180 1.412 . S
H175 C173 0.973 . S
C176 H169 0.929 . S
C176 C177 1.400 1_554 S
C176 C178 1.364 . S
C177 C176 1.400 1_556 S
C177 C181 1.377 . S
C178 C176 1.364 . S
C178 C179 1.374 1_554 S
C179 H170 0.930 . S
C179 C178 1.374 1_556 S
C179 C180 1.383 . S
C180 O174 1.412 . S
C180 C179 1.383 . S
C180 C181 1.394 . S
C181 H171 0.929 . S
C181 C177 1.377 . S
C181 C180 1.394 . S
H182 C189 0.929 . S
H183 C192 0.930 . S
H184 C194 0.929 . S
H185 C186 0.969 . S
C186 H185 0.969 . S
C186 O187 1.550 . S
C186 H188 0.973 . S
O187 C186 1.550 . S
O187 C193 1.412 . S
H188 C186 0.973 . S
C189 H182 0.929 . S
C189 C190 1.400 . S
C189 C191 1.364 . S
C190 C189 1.400 . S
C190 C194 1.377 . S
C191 C189 1.364 . S
C191 C192 1.374 . S
C192 H183 0.930 . S
C192 C191 1.374 . S
C192 C193 1.383 . S
C193 O187 1.412 . S
C193 C192 1.383 . S
C193 C194 1.394 . S
C194 H184 0.929 . S
C194 C190 1.377 . S
C194 C193 1.394 . S
H195 C202 0.929 . S
H196 C205 0.930 . S
H197 C207 0.929 . S
H198 C199 0.969 . S
C199 H198 0.969 . S
C199 O200 1.550 . S
C199 H201 0.973 . S
O200 C199 1.550 . S
O200 C206 1.412 . S
H201 C199 0.973 . S
C202 H195 0.929 . S
C202 C203 1.400 . S
C202 C204 1.364 . S
C203 C202 1.400 . S
C203 C207 1.377 . S
C204 C202 1.364 . S
C204 C205 1.374 1_554 S
C205 H196 0.930 . S
C205 C204 1.374 1_556 S
C205 C206 1.383 . S
C206 O200 1.412 . S
C206 C205 1.383 . S
C206 C207 1.394 1_556 S
C207 H197 0.929 . S
C207 C203 1.377 . S
C207 C206 1.394 1_554 S
Mg208 O209 2.029 . S
Mg208 O215 1.986 1_554 S
Mg208 O217 2.114 . S
Mg208 O218 2.251 . S
Mg208 O221 2.010 . S
O209 Mg208 2.029 . S
O209 C212 1.249 1_554 S
O210 Mg211 2.028 . S
O210 C212 1.248 . S
Mg211 O210 2.028 . S
Mg211 O216 2.032 . S
Mg211 O218 2.079 1_556 S
C212 O209 1.249 1_556 S
C212 O210 1.248 . S
C213 O214 1.264 . S
C213 O221 1.249 . S
O214 C213 1.264 . S
O215 Mg208 1.986 1_556 S
O215 C219 1.246 . S
O216 Mg211 2.032 . S
O216 C219 1.259 . S
O217 Mg208 2.114 . S
O217 C220 1.252 . S
O218 Mg208 2.251 . S
O218 Mg211 2.079 1_554 S
O218 C220 1.273 . S
C219 O215 1.246 . S
C219 O216 1.259 . S
C220 O217 1.252 . S
C220 O218 1.273 . S
O221 Mg208 2.010 . S
O221 C213 1.249 . S
Mg222 O223 2.028 . S
Mg222 O229 1.986 . S
Mg222 O231 2.114 . S
Mg222 O232 2.251 . S
Mg222 O235 2.010 . S
O223 Mg222 2.028 . S
O223 C226 1.250 . S
O224 Mg225 2.028 . S
O224 C226 1.248 . S
Mg225 O224 2.028 . S
Mg225 O230 2.032 . S
Mg225 O232 2.079 . S
C226 O223 1.250 . S
C226 O224 1.248 . S
C227 O228 1.264 . S
C227 O235 1.249 . S
O228 C227 1.264 . S
O229 Mg222 1.986 . S
O229 C233 1.246 . S
O230 Mg225 2.032 . S
O230 C233 1.259 . S
O231 Mg222 2.114 . S
O231 C234 1.252 . S
O232 Mg222 2.251 . S
O232 Mg225 2.079 . S
O232 C234 1.273 . S
C233 O229 1.246 . S
C233 O230 1.259 . S
C234 O231 1.252 . S
C234 O232 1.273 . S
O235 Mg222 2.010 . S
O235 C227 1.249 . S
Mg236 O237 2.028 . S
Mg236 O243 1.986 . S
Mg236 O245 2.114 . S
Mg236 O246 2.251 . S
Mg236 O249 2.010 . S
O237 Mg236 2.028 . S
O237 C240 1.250 . S
O238 Mg239 2.028 . S
O238 C240 1.248 . S
Mg239 O238 2.028 . S
Mg239 O244 2.032 1_554 S
Mg239 O246 2.079 . S
C240 O237 1.250 . S
C240 O238 1.248 . S
C241 O242 1.264 . S
C241 O249 1.249 . S
O242 C241 1.264 . S
O243 Mg236 1.986 . S
O243 C247 1.246 1_554 S
O244 Mg239 2.032 1_556 S
O244 C247 1.259 . S
O245 Mg236 2.114 . S
O245 C248 1.252 . S
O246 Mg236 2.251 . S
O246 Mg239 2.079 . S
O246 C248 1.273 . S
C247 O243 1.246 1_556 S
C247 O244 1.259 . S
C248 O245 1.252 . S
C248 O246 1.273 . S
O249 Mg236 2.010 . S
O249 C241 1.249 . S
Mg250 O251 2.028 . S
Mg250 O257 1.986 . S
Mg250 O259 2.114 . S
Mg250 O260 2.251 . S
Mg250 O263 2.010 . S
O251 Mg250 2.028 . S
O251 C254 1.250 1_545 S
O252 Mg253 2.028 . S
O252 C254 1.248 . S
Mg253 O252 2.028 . S
Mg253 O258 2.032 . S
Mg253 O260 2.079 1_565 S
C254 O251 1.250 1_565 S
C254 O252 1.248 . S
C255 O256 1.264 . S
C255 O263 1.249 . S
O256 C255 1.264 . S
O257 Mg250 1.986 . S
O257 C261 1.246 . S
O258 Mg253 2.032 . S
O258 C261 1.259 1_565 S
O259 Mg250 2.114 . S
O259 C262 1.252 . S
O260 Mg250 2.251 . S
O260 Mg253 2.079 1_545 S
O260 C262 1.273 . S
C261 O257 1.246 . S
C261 O258 1.259 1_545 S
C262 O259 1.252 . S
C262 O260 1.273 . S
O263 Mg250 2.010 . S
O263 C255 1.249 . S
Mg264 O265 2.028 . S
Mg264 O271 1.986 . S
Mg264 O273 2.114 . S
Mg264 O274 2.251 . S
Mg264 O277 2.010 . S
O265 Mg264 2.028 . S
O265 C268 1.250 . S
O266 Mg267 2.028 . S
O266 C268 1.248 . S
Mg267 O266 2.028 . S
Mg267 O272 2.032 . S
Mg267 O274 2.079 . S
C268 O265 1.250 . S
C268 O266 1.248 . S
C269 O270 1.264 . S
C269 O277 1.249 . S
O270 C269 1.264 . S
O271 Mg264 1.986 . S
O271 C275 1.246 . S
O272 Mg267 2.032 . S
O272 C275 1.259 . S
O273 Mg264 2.114 . S
O273 C276 1.252 . S
O274 Mg264 2.251 . S
O274 Mg267 2.079 . S
O274 C276 1.273 . S
C275 O271 1.246 . S
C275 O272 1.259 . S
C276 O273 1.252 . S
C276 O274 1.273 . S
O277 Mg264 2.010 . S
O277 C269 1.249 . S
Mg278 O279 2.028 . S
Mg278 O285 1.986 . S
Mg278 O287 2.114 . S
Mg278 O288 2.251 . S
Mg278 O291 2.010 . S
O279 Mg278 2.028 . S
O279 C282 1.250 . S
O280 Mg281 2.028 . S
O280 C282 1.248 . S
Mg281 O280 2.028 . S
Mg281 O286 2.032 . S
Mg281 O288 2.079 . S
C282 O279 1.250 . S
C282 O280 1.248 . S
C283 O284 1.264 . S
C283 O291 1.249 . S
O284 C283 1.264 . S
O285 Mg278 1.986 . S
O285 C289 1.246 . S
O286 Mg281 2.032 . S
O286 C289 1.259 . S
O287 Mg278 2.114 . S
O287 C290 1.252 . S
O288 Mg278 2.251 . S
O288 Mg281 2.079 . S
O288 C290 1.273 . S
C289 O285 1.246 . S
C289 O286 1.259 . S
C290 O287 1.252 . S
C290 O288 1.273 . S
O291 Mg278 2.010 . S
O291 C283 1.249 . S
Mg292 O293 2.028 . S
Mg292 O299 1.986 . S
Mg292 O301 2.114 . S
Mg292 O302 2.251 . S
Mg292 O305 2.010 . S
O293 Mg292 2.028 . S
O293 C296 1.250 . S
O294 Mg295 2.028 . S
O294 C296 1.248 . S
Mg295 O294 2.028 . S
Mg295 O300 2.032 . S
Mg295 O302 2.079 . S
C296 O293 1.250 . S
C296 O294 1.248 . S
C297 O298 1.264 . S
C297 O305 1.249 . S
O298 C297 1.264 . S
O299 Mg292 1.986 . S
O299 C303 1.246 . S
O300 Mg295 2.032 . S
O300 C303 1.259 . S
O301 Mg292 2.114 . S
O301 C304 1.252 . S
O302 Mg292 2.251 . S
O302 Mg295 2.079 . S
O302 C304 1.273 . S
C303 O299 1.246 . S
C303 O300 1.259 . S
C304 O301 1.252 . S
C304 O302 1.273 . S
O305 Mg292 2.010 . S
O305 C297 1.249 . S
Mg306 O307 2.028 1_545 S
Mg306 O313 1.986 1_545 S
Mg306 O315 2.114 . S
Mg306 O316 2.251 . S
Mg306 O319 2.010 . S
O307 Mg306 2.028 1_565 S
O307 C310 1.250 . S
O308 Mg309 2.028 . S
O308 C310 1.248 . S
Mg309 O308 2.028 . S
Mg309 O314 2.032 . S
Mg309 O316 2.079 1_565 S
C310 O307 1.250 . S
C310 O308 1.248 . S
C311 O312 1.264 . S
C311 O319 1.249 . S
O312 C311 1.264 . S
O313 Mg306 1.986 1_565 S
O313 C317 1.246 . S
O314 Mg309 2.032 . S
O314 C317 1.259 . S
O315 Mg306 2.114 . S
O315 C318 1.252 . S
O316 Mg306 2.251 . S
O316 Mg309 2.079 1_545 S
O316 C318 1.273 . S
C317 O313 1.246 . S
C317 O314 1.259 . S
C318 O315 1.252 . S
C318 O316 1.273 . S
O319 Mg306 2.010 . S
O319 C311 1.249 . S
Mg320 O321 2.028 1_455 S
Mg320 O327 1.986 . S
Mg320 O329 2.114 . S
Mg320 O330 2.251 1_455 S
Mg320 O333 2.010 . S
O321 Mg320 2.028 1_655 S
O321 C324 1.250 . S
O322 Mg323 2.028 . S
O322 C324 1.248 . S
Mg323 O322 2.028 . S
Mg323 O328 2.032 . S
Mg323 O330 2.079 . S
C324 O321 1.250 . S
C324 O322 1.248 . S
C325 O326 1.264 . S
C325 O333 1.249 . S
O326 C325 1.264 . S
O327 Mg320 1.986 . S
O327 C331 1.246 1_455 S
O328 Mg323 2.032 . S
O328 C331 1.259 . S
O329 Mg320 2.114 . S
O329 C332 1.252 . S
O330 Mg320 2.251 1_655 S
O330 Mg323 2.079 . S
O330 C332 1.273 1_655 S
C331 O327 1.246 1_655 S
C331 O328 1.259 . S
C332 O329 1.252 . S
C332 O330 1.273 1_455 S
O333 Mg320 2.010 . S
O333 C325 1.249 . S
Mg334 O335 2.028 . S
Mg334 O341 1.986 . S
Mg334 O343 2.114 . S
Mg334 O344 2.251 . S
Mg334 O347 2.010 . S
O335 Mg334 2.028 . S
O335 C338 1.250 . S
O336 Mg337 2.028 . S
O336 C338 1.248 . S
Mg337 O336 2.028 . S
Mg337 O342 2.032 . S
Mg337 O344 2.079 . S
C338 O335 1.250 . S
C338 O336 1.248 . S
C339 O340 1.264 . S
C339 O347 1.249 . S
O340 C339 1.264 . S
O341 Mg334 1.986 . S
O341 C345 1.246 . S
O342 Mg337 2.032 . S
O342 C345 1.259 . S
O343 Mg334 2.114 . S
O343 C346 1.252 . S
O344 Mg334 2.251 . S
O344 Mg337 2.079 . S
O344 C346 1.273 . S
C345 O341 1.246 . S
C345 O342 1.259 . S
C346 O343 1.252 . S
C346 O344 1.273 . S
O347 Mg334 2.010 . S
O347 C339 1.249 . S
Mg348 O349 2.028 1_655 S
Mg348 O355 1.986 1_655 S
Mg348 O357 2.114 . S
Mg348 O358 2.251 1_655 S
Mg348 O361 2.010 . S
O349 Mg348 2.028 1_455 S
O349 C352 1.250 . S
O350 Mg351 2.028 . S
O350 C352 1.248 . S
Mg351 O350 2.028 . S
Mg351 O356 2.032 . S
Mg351 O358 2.079 . S
C352 O349 1.250 . S
C352 O350 1.248 . S
C353 O354 1.264 . S
C353 O361 1.249 . S
O354 C353 1.264 . S
O355 Mg348 1.986 1_455 S
O355 C359 1.246 . S
O356 Mg351 2.032 . S
O356 C359 1.259 . S
O357 Mg348 2.114 . S
O357 C360 1.252 . S
O358 Mg348 2.251 1_455 S
O358 Mg351 2.079 . S
O358 C360 1.273 1_455 S
C359 O355 1.246 . S
C359 O356 1.259 . S
C360 O357 1.252 . S
C360 O358 1.273 1_655 S
O361 Mg348 2.010 . S
O361 C353 1.249 . S
Mg362 O363 2.028 . S
Mg362 O369 1.986 . S
Mg362 O371 2.114 . S
Mg362 O372 2.251 . S
Mg362 O375 2.010 . S
O363 Mg362 2.028 . S
O363 C366 1.250 . S
O364 Mg365 2.028 . S
O364 C366 1.248 . S
Mg365 O364 2.028 . S
Mg365 O370 2.032 . S
Mg365 O372 2.079 . S
C366 O363 1.250 . S
C366 O364 1.248 . S
C367 O368 1.264 . S
C367 O375 1.249 . S
O368 C367 1.264 . S
O369 Mg362 1.986 . S
O369 C373 1.246 . S
O370 Mg365 2.032 . S
O370 C373 1.259 . S
O371 Mg362 2.114 . S
O371 C374 1.252 . S
O372 Mg362 2.251 . S
O372 Mg365 2.079 . S
O372 C374 1.273 . S
C373 O369 1.246 . S
C373 O370 1.259 . S
C374 O371 1.252 . S
C374 O372 1.273 . S
O375 Mg362 2.010 . S
O375 C367 1.249 . S
C376 C377 1.387 . S
C376 H380 0.950 . S
C376 C385 1.390 . S
C377 C376 1.387 . S
C377 C379 1.387 . S
H378 C385 0.950 . S
C379 C377 1.387 . S
C379 C381 1.390 . S
C379 H383 0.950 . S
H380 C376 0.950 . S
C381 C379 1.390 . S
C381 C382 1.387 . S
C381 H384 0.950 . S
C382 C381 1.387 . S
C382 C385 1.387 . S
H383 C379 0.950 . S
H384 C381 0.950 . S
C385 C376 1.390 . S
C385 H378 0.950 . S
C385 C382 1.387 . S
C386 C387 1.387 . S
C386 H390 0.950 . S
C386 C395 1.390 . S
C387 C386 1.387 . S
C387 C389 1.387 . S
H388 C395 0.950 . S
C389 C387 1.387 . S
C389 C391 1.390 . S
C389 H393 0.950 . S
H390 C386 0.950 . S
C391 C389 1.390 . S
C391 C392 1.387 . S
C391 H394 0.950 . S
C392 C391 1.387 . S
C392 C395 1.387 . S
H393 C389 0.950 . S
H394 C391 0.950 . S
C395 C386 1.390 . S
C395 H388 0.950 . S
C395 C392 1.387 . S
C396 C397 1.387 . S
C396 H400 0.950 . S
C396 C405 1.390 . S
C397 C396 1.387 . S
C397 C399 1.387 . S
H398 C405 0.950 . S
C399 C397 1.387 . S
C399 C401 1.390 . S
C399 H403 0.950 . S
H400 C396 0.950 . S
C401 C399 1.390 . S
C401 C402 1.387 . S
C401 H404 0.950 . S
C402 C401 1.387 . S
C402 C405 1.387 . S
H403 C399 0.950 . S
H404 C401 0.950 . S
C405 C396 1.390 . S
C405 H398 0.950 . S
C405 C402 1.387 . S
C406 C407 1.387 . S
C406 H410 0.950 . S
C406 C415 1.390 . S
C407 C406 1.387 . S
C407 C409 1.387 1_565 S
H408 C415 0.950 . S
C409 C407 1.387 1_545 S
C409 C411 1.390 . S
C409 H413 0.950 . S
H410 C406 0.950 . S
C411 C409 1.390 . S
C411 C412 1.387 . S
C411 H414 0.950 . S
C412 C411 1.387 . S
C412 C415 1.387 1_545 S
H413 C409 0.950 . S
H414 C411 0.950 . S
C415 C406 1.390 . S
C415 H408 0.950 . S
C415 C412 1.387 1_565 S
C416 C417 1.387 . S
C416 H420 0.950 . S
C416 C425 1.390 . S
C417 C416 1.387 . S
C417 C419 1.387 . S
H418 C425 0.950 . S
C419 C417 1.387 . S
C419 C421 1.390 . S
C419 H423 0.950 . S
H420 C416 0.950 . S
C421 C419 1.390 . S
C421 C422 1.387 . S
C421 H424 0.950 . S
C422 C421 1.387 . S
C422 C425 1.387 . S
H423 C419 0.950 . S
H424 C421 0.950 . S
C425 C416 1.390 . S
C425 H418 0.950 . S
C425 C422 1.387 . S
C426 C427 1.387 . S
C426 H430 0.950 . S
C426 C435 1.390 . S
C427 C426 1.387 . S
C427 C429 1.387 . S
H428 C435 0.950 . S
C429 C427 1.387 . S
C429 C431 1.390 . S
C429 H433 0.950 . S
H430 C426 0.950 . S
C431 C429 1.390 . S
C431 C432 1.387 . S
C431 H434 0.950 . S
C432 C431 1.387 . S
C432 C435 1.387 . S
H433 C429 0.950 . S
H434 C431 0.950 . S
C435 C426 1.390 . S
C435 H428 0.950 . S
C435 C432 1.387 . S
C436 C437 1.387 . S
C436 H440 0.950 . S
C436 C445 1.390 . S
C437 C436 1.387 . S
C437 C439 1.387 . S
H438 C445 0.950 . S
C439 C437 1.387 . S
C439 C441 1.390 . S
C439 H443 0.950 . S
H440 C436 0.950 . S
C441 C439 1.390 . S
C441 C442 1.387 . S
C441 H444 0.950 . S
C442 C441 1.387 . S
C442 C445 1.387 . S
H443 C439 0.950 . S
H444 C441 0.950 . S
C445 C436 1.390 . S
C445 H438 0.950 . S
C445 C442 1.387 . S
C446 C447 1.387 . S
C446 H450 0.950 . S
C446 C455 1.390 . S
C447 C446 1.387 . S
C447 C449 1.387 1_565 S
H448 C455 0.950 . S
C449 C447 1.387 1_545 S
C449 C451 1.390 . S
C449 H453 0.950 . S
H450 C446 0.950 . S
C451 C449 1.390 . S
C451 C452 1.387 1_545 S
C451 H454 0.950 . S
C452 C451 1.387 1_565 S
C452 C455 1.387 . S
H453 C449 0.950 . S
H454 C451 0.950 . S
C455 C446 1.390 . S
C455 H448 0.950 . S
C455 C452 1.387 . S
C456 C457 1.387 . S
C456 H460 0.950 . S
C456 C465 1.390 . S
C457 C456 1.387 . S
C457 C459 1.387 . S
H458 C465 0.950 . S
C459 C457 1.387 . S
C459 C461 1.390 . S
C459 H463 0.950 . S
H460 C456 0.950 . S
C461 C459 1.390 . S
C461 C462 1.387 . S
C461 H464 0.950 . S
C462 C461 1.387 . S
C462 C465 1.387 . S
H463 C459 0.950 . S
H464 C461 0.950 . S
C465 C456 1.390 . S
C465 H458 0.950 . S
C465 C462 1.387 . S
C466 C467 1.387 . S
C466 H470 0.950 . S
C466 C475 1.390 . S
C467 C466 1.387 . S
C467 C469 1.387 . S
H468 C475 0.950 . S
C469 C467 1.387 . S
C469 C471 1.390 . S
C469 H473 0.950 . S
H470 C466 0.950 . S
C471 C469 1.390 . S
C471 C472 1.387 . S
C471 H474 0.950 . S
C472 C471 1.387 . S
C472 C475 1.387 . S
H473 C469 0.950 . S
H474 C471 0.950 . S
C475 C466 1.390 . S
C475 H468 0.950 . S
C475 C472 1.387 . S
C476 C477 1.387 . S
C476 H480 0.950 . S
C476 C485 1.390 . S
C477 C476 1.387 . S
C477 C479 1.387 . S
H478 C485 0.950 . S
C479 C477 1.387 . S
C479 C481 1.390 . S
C479 H483 0.950 . S
H480 C476 0.950 . S
C481 C479 1.390 . S
C481 C482 1.387 . S
C481 H484 0.950 . S
C482 C481 1.387 . S
C482 C485 1.387 . S
H483 C479 0.950 . S
H484 C481 0.950 . S
C485 C476 1.390 . S
C485 H478 0.950 . S
C485 C482 1.387 . S
C486 C487 1.387 . S
C486 H490 0.950 . S
C486 C495 1.390 . S
C487 C486 1.387 . S
C487 C489 1.387 . S
H488 C495 0.950 . S
C489 C487 1.387 . S
C489 C491 1.390 . S
C489 H493 0.950 . S
H490 C486 0.950 . S
C491 C489 1.390 . S
C491 C492 1.387 . S
C491 H494 0.950 . S
C492 C491 1.387 . S
C492 C495 1.387 . S
H493 C489 0.950 . S
H494 C491 0.950 . S
C495 C486 1.390 . S
C495 H488 0.950 . S
C495 C492 1.387 . S
C496 C497 1.387 . S
C496 H500 0.950 . S
C496 C505 1.390 . S
C497 C496 1.387 . S
C497 C499 1.387 . S
H498 C505 0.950 . S
C499 C497 1.387 . S
C499 C501 1.390 . S
C499 H503 0.950 . S
H500 C496 0.950 . S
C501 C499 1.390 . S
C501 C502 1.387 . S
C501 H504 0.950 . S
C502 C501 1.387 . S
C502 C505 1.387 . S
H503 C499 0.950 . S
H504 C501 0.950 . S
C505 C496 1.390 . S
C505 H498 0.950 . S
C505 C502 1.387 . S
C506 C507 1.387 . S
C506 H510 0.962 . S
C506 C515 1.390 . S
C507 C506 1.387 . S
C507 C509 1.387 . S
H508 C515 0.950 1_655 S
C509 C507 1.387 . S
C509 C511 1.390 . S
C509 H513 0.950 . S
H510 C506 0.962 . S
C511 C509 1.390 . S
C511 C512 1.387 . S
C511 H514 0.950 . S
C512 C511 1.387 . S
C512 C515 1.387 . S
H513 C509 0.950 . S
H514 C511 0.950 . S
C515 C506 1.390 . S
C515 H508 0.950 1_455 S
C515 C512 1.387 . S
C516 C517 1.387 . S
C516 H520 0.950 . S
C516 C525 1.390 . S
C517 C516 1.387 . S
C517 C519 1.387 . S
H518 C525 0.950 . S
C519 C517 1.387 . S
C519 C521 1.390 . S
C519 H523 0.950 . S
H520 C516 0.950 . S
C521 C519 1.390 . S
C521 C522 1.387 . S
C521 H524 0.950 . S
C522 C521 1.387 . S
C522 C525 1.387 . S
H523 C519 0.950 . S
H524 C521 0.950 . S
C525 C516 1.390 . S
C525 H518 0.950 . S
C525 C522 1.387 . S
C526 C527 1.387 . S
C526 H530 0.950 . S
C526 C535 1.390 . S
C527 C526 1.387 . S
C527 C529 1.387 1_655 S
H528 C535 0.950 . S
C529 C527 1.387 1_455 S
C529 C531 1.390 . S
C529 H533 0.950 . S
H530 C526 0.950 . S
C531 C529 1.390 . S
C531 C532 1.387 1_455 S
C531 H534 0.950 . S
C532 C531 1.387 1_655 S
C532 C535 1.387 . S
H533 C529 0.950 . S
H534 C531 0.950 . S
C535 C526 1.390 . S
C535 H528 0.950 . S
C535 C532 1.387 . S
C536 C537 1.387 . S
C536 H540 0.950 . S
C536 C545 1.390 . S
C537 C536 1.387 . S
C537 C539 1.387 . S
H538 C545 0.950 . S
C539 C537 1.387 . S
C539 C541 1.390 . S
C539 H543 0.950 . S
H540 C536 0.950 . S
C541 C539 1.390 . S
C541 C542 1.387 . S
C541 H544 0.950 . S
C542 C541 1.387 . S
C542 C545 1.387 . S
H543 C539 0.950 . S
H544 C541 0.950 . S
C545 C536 1.390 . S
C545 H538 0.950 . S
C545 C542 1.387 . S
C546 C547 1.387 . S
C546 H550 0.950 . S
C546 C555 1.390 . S
C547 C546 1.387 . S
C547 C549 1.387 . S
H548 C555 0.950 . S
C549 C547 1.387 . S
C549 C551 1.390 . S
C549 H553 0.950 . S
H550 C546 0.950 . S
C551 C549 1.390 . S
C551 C552 1.387 . S
C551 H554 0.950 . S
C552 C551 1.387 . S
C552 C555 1.387 . S
H553 C549 0.950 . S
H554 C551 0.950 . S
C555 C546 1.390 . S
C555 H548 0.950 . S
C555 C552 1.387 . S
C556 C557 1.382 1_565 S
C556 H560 0.950 . S
C556 C565 1.390 . S
C557 C556 1.382 1_545 S
C557 C559 1.383 1_544 S
H558 C565 0.950 . S
C559 C557 1.383 1_566 S
C559 C561 1.390 . S
C559 H563 0.950 1_565 S
H560 C556 0.950 . S
C561 C559 1.390 . S
C561 C562 1.370 1_556 S
C561 H564 0.950 . S
C562 C561 1.370 1_554 S
C562 C565 1.407 . S
H563 C559 0.950 1_545 S
H564 C561 0.950 . S
C565 C556 1.390 . S
C565 H558 0.950 . S
C565 C562 1.407 . S
C566 C567 1.387 . S
C566 H570 0.950 . S
C566 C575 1.390 . S
C567 C566 1.387 . S
C567 C569 1.387 . S
H568 C575 0.950 . S
C569 C567 1.387 . S
C569 C571 1.390 . S
C569 H573 0.950 . S
H570 C566 0.950 . S
C571 C569 1.390 . S
C571 C572 1.387 . S
C571 H574 0.950 . S
C572 C571 1.387 . S
C572 C575 1.387 . S
H573 C569 0.950 . S
H574 C571 0.950 . S
C575 C566 1.390 . S
C575 H568 0.950 . S
C575 C572 1.387 . S
C576 C577 1.387 . S
C576 H580 0.950 . S
C576 C585 1.390 . S
C577 C576 1.387 . S
C577 C579 1.387 . S
H578 C585 0.950 . S
C579 C577 1.387 . S
C579 C581 1.390 . S
C579 H583 0.950 . S
H580 C576 0.950 . S
C581 C579 1.390 . S
C581 C582 1.387 . S
C581 H584 0.950 . S
C582 C581 1.387 . S
C582 C585 1.387 . S
H583 C579 0.950 . S
H584 C581 0.950 . S
C585 C576 1.390 . S
C585 H578 0.950 . S
C585 C582 1.387 . S
C586 C587 1.387 . S
C586 H590 0.950 . S
C586 C595 1.390 . S
C587 C586 1.387 . S
C587 C589 1.387 . S
H588 C595 0.950 . S
C589 C587 1.387 . S
C589 C591 1.390 . S
C589 H593 0.950 . S
H590 C586 0.950 . S
C591 C589 1.390 . S
C591 C592 1.387 . S
C591 H594 0.950 . S
C592 C591 1.387 . S
C592 C595 1.387 . S
H593 C589 0.950 . S
H594 C591 0.950 . S
C595 C586 1.390 . S
C595 H588 0.950 . S
C595 C592 1.387 . S
C596 C597 1.387 . S
C596 H600 0.950 . S
C596 C605 1.390 . S
C597 C596 1.387 . S
C597 C599 1.387 . S
H598 C605 0.950 . S
C599 C597 1.387 . S
C599 C601 1.390 . S
C599 H603 0.950 . S
H600 C596 0.950 . S
C601 C599 1.390 . S
C601 C602 1.387 . S
C601 H604 0.950 . S
C602 C601 1.387 . S
C602 C605 1.387 . S
H603 C599 0.950 . S
H604 C601 0.950 . S
C605 C596 1.390 . S
C605 H598 0.950 . S
C605 C602 1.387 . S
C606 C607 1.387 . S
C606 H610 0.950 . S
C606 C615 1.390 . S
C607 C606 1.387 . S
C607 C609 1.387 . S
H608 C615 0.950 . S
C609 C607 1.387 . S
C609 C611 1.390 . S
C609 H613 0.950 . S
H610 C606 0.950 . S
C611 C609 1.390 . S
C611 C612 1.387 . S
C611 H614 0.950 . S
C612 C611 1.387 . S
C612 C615 1.387 . S
H613 C609 0.950 . S
H614 C611 0.950 . S
C615 C606 1.390 . S
C615 H608 0.950 . S
C615 C612 1.387 . S
C616 C617 1.387 . S
C616 H620 0.950 . S
C616 C625 1.390 . S
C617 C616 1.387 . S
C617 C619 1.387 . S
H618 C625 0.950 . S
C619 C617 1.387 . S
C619 C621 1.390 . S
C619 H623 0.950 . S
H620 C616 0.950 . S
C621 C619 1.390 . S
C621 C622 1.387 . S
C621 H624 0.950 . S
C622 C621 1.387 . S
C622 C625 1.387 . S
H623 C619 0.950 . S
H624 C621 0.950 . S
C625 C616 1.390 . S
C625 H618 0.950 . S
C625 C622 1.387 . S
C626 C627 1.387 . S
C626 H630 0.950 . S
C626 C635 1.390 . S
C627 C626 1.387 . S
C627 C629 1.387 . S
H628 C635 0.950 . S
C629 C627 1.387 . S
C629 C631 1.390 . S
C629 H633 0.950 . S
H630 C626 0.950 . S
C631 C629 1.390 . S
C631 C632 1.387 . S
C631 H634 0.950 . S
C632 C631 1.387 . S
C632 C635 1.387 . S
H633 C629 0.950 . S
H634 C631 0.950 . S
C635 C626 1.390 . S
C635 H628 0.950 . S
C635 C632 1.387 . S
C636 C637 1.387 . S
C636 H640 0.950 . S
C636 C645 1.390 . S
C637 C636 1.387 . S
C637 C639 1.387 . S
H638 C645 0.950 . S
C639 C637 1.387 . S
C639 C641 1.390 . S
C639 H643 0.950 . S
H640 C636 0.950 . S
C641 C639 1.390 . S
C641 C642 1.387 . S
C641 H644 0.950 . S
C642 C641 1.387 . S
C642 C645 1.387 . S
H643 C639 0.950 . S
H644 C641 0.950 . S
C645 C636 1.390 . S
C645 H638 0.950 . S
C645 C642 1.387 . S
C646 C647 1.387 . S
C646 H650 0.950 . S
C646 C655 1.390 . S
C647 C646 1.387 . S
C647 C649 1.387 . S
H648 C655 0.950 . S
C649 C647 1.387 . S
C649 C651 1.390 . S
C649 H653 0.950 . S
H650 C646 0.950 . S
C651 C649 1.390 . S
C651 C652 1.387 . S
C651 H654 0.950 . S
C652 C651 1.387 . S
C652 C655 1.387 . S
H653 C649 0.950 . S
H654 C651 0.950 . S
C655 C646 1.390 . S
C655 H648 0.950 . S
C655 C652 1.387 . S
C656 C657 1.387 . S
C656 H660 0.950 . S
C656 C665 1.390 . S
C657 C656 1.387 . S
C657 C659 1.387 . S
H658 C665 0.950 . S
C659 C657 1.387 . S
C659 C661 1.390 . S
C659 H663 0.950 . S
H660 C656 0.950 . S
C661 C659 1.390 . S
C661 C662 1.387 . S
C661 H664 0.950 . S
C662 C661 1.387 . S
C662 C665 1.387 . S
H663 C659 0.950 . S
H664 C661 0.950 . S
C665 C656 1.390 . S
C665 H658 0.950 . S
C665 C662 1.387 . S
C666 C667 1.387 . S
C666 H670 0.950 1_545 S
C666 C675 1.390 . S
C667 C666 1.387 . S
C667 C669 1.387 . S
H668 C675 0.950 1_565 S
C669 C667 1.387 . S
C669 C671 1.390 . S
C669 H673 0.950 . S
H670 C666 0.950 1_565 S
C671 C669 1.390 . S
C671 C672 1.387 . S
C671 H674 0.950 . S
C672 C671 1.387 . S
C672 C675 1.387 . S
H673 C669 0.950 . S
H674 C671 0.950 . S
C675 C666 1.390 . S
C675 H668 0.950 1_545 S
C675 C672 1.387 . S
C676 C677 1.387 . S
C676 H680 0.950 . S
C676 C685 1.390 . S
C677 C676 1.387 . S
C677 C679 1.387 . S
H678 C685 0.950 . S
C679 C677 1.387 . S
C679 C681 1.390 . S
C679 H683 0.950 . S
H680 C676 0.950 . S
C681 C679 1.390 . S
C681 C682 1.387 . S
C681 H684 0.950 . S
C682 C681 1.387 . S
C682 C685 1.387 . S
H683 C679 0.950 . S
H684 C681 0.950 . S
C685 C676 1.390 . S
C685 H678 0.950 . S
C685 C682 1.387 . S
C686 C687 1.387 . S
C686 H690 0.950 . S
C686 C695 1.390 . S
C687 C686 1.387 . S
C687 C689 1.387 . S
H688 C695 0.950 . S
C689 C687 1.387 . S
C689 C691 1.390 . S
C689 H693 0.950 . S
H690 C686 0.950 . S
C691 C689 1.390 . S
C691 C692 1.387 . S
C691 H694 0.950 . S
C692 C691 1.387 . S
C692 C695 1.387 . S
H693 C689 0.950 . S
H694 C691 0.950 . S
C695 C686 1.390 . S
C695 H688 0.950 . S
C695 C692 1.387 . S
C696 C697 1.387 . S
C696 H700 0.950 . S
C696 C705 1.390 . S
C697 C696 1.387 . S
C697 C699 1.387 . S
H698 C705 0.950 . S
C699 C697 1.387 . S
C699 C701 1.390 . S
C699 H703 0.950 . S
H700 C696 0.950 . S
C701 C699 1.390 . S
C701 C702 1.387 . S
C701 H704 0.950 . S
C702 C701 1.387 . S
C702 C705 1.387 . S
H703 C699 0.950 . S
H704 C701 0.950 . S
C705 C696 1.390 . S
C705 H698 0.950 . S
C705 C702 1.387 . S
C706 C707 1.387 1_456 S
C706 H710 0.950 . S
C706 C715 1.390 . S
C707 C706 1.387 1_654 S
C707 C709 1.387 . S
H708 C715 0.950 . S
C709 C707 1.387 . S
C709 C711 1.390 1_554 S
C709 H713 0.950 . S
H710 C706 0.950 . S
C711 C709 1.390 1_556 S
C711 C712 1.386 1_655 S
C711 H714 0.950 . S
C712 C711 1.386 1_455 S
C712 C715 1.389 . S
H713 C709 0.950 . S
H714 C711 0.950 . S
C715 C706 1.390 . S
C715 H708 0.950 . S
C715 C712 1.389 . S
C716 C717 1.387 . S
C716 H720 0.950 . S
C716 C725 1.390 . S
C717 C716 1.387 . S
C717 C719 1.387 . S
H718 C725 0.950 . S
C719 C717 1.387 . S
C719 C721 1.390 . S
C719 H723 0.950 . S
H720 C716 0.950 . S
C721 C719 1.390 . S
C721 C722 1.387 . S
C721 H724 0.950 . S
C722 C721 1.387 . S
C722 C725 1.387 . S
H723 C719 0.950 . S
H724 C721 0.950 . S
C725 C716 1.390 . S
C725 H718 0.950 . S
C725 C722 1.387 . S
C726 C727 1.387 1_455 S
C726 H730 0.950 . S
C726 C735 1.390 . S
C727 C726 1.387 1_655 S
C727 C729 1.387 . S
H728 C735 0.950 . S
C729 C727 1.387 . S
C729 C731 1.390 . S
C729 H733 0.950 . S
H730 C726 0.950 . S
C731 C729 1.390 . S
C731 C732 1.387 1_655 S
C731 H734 0.950 . S
C732 C731 1.387 1_455 S
C732 C735 1.387 . S
H733 C729 0.950 . S
H734 C731 0.950 . S
C735 C726 1.390 . S
C735 H728 0.950 . S
C735 C732 1.387 . S
C736 C737 1.387 . S
C736 H740 0.950 . S
C736 C745 1.390 . S
C737 C736 1.387 . S
C737 C739 1.387 . S
H738 C745 0.950 . S
C739 C737 1.387 . S
C739 C741 1.390 . S
C739 H743 0.950 . S
H740 C736 0.950 . S
C741 C739 1.390 . S
C741 C742 1.387 . S
C741 H744 0.950 . S
C742 C741 1.387 . S
C742 C745 1.387 . S
H743 C739 0.950 . S
H744 C741 0.950 . S
C745 C736 1.390 . S
C745 H738 0.950 . S
C745 C742 1.387 . S
C746 C747 1.387 . S
C746 H750 0.950 . S
C746 C755 1.390 . S
C747 C746 1.387 . S
C747 C749 1.387 . S
H748 C755 0.950 . S
C749 C747 1.387 . S
C749 C751 1.390 . S
C749 H753 0.950 . S
H750 C746 0.950 . S
C751 C749 1.390 . S
C751 C752 1.387 . S
C751 H754 0.950 . S
C752 C751 1.387 . S
C752 C755 1.387 . S
H753 C749 0.950 . S
H754 C751 0.950 . S
C755 C746 1.390 . S
C755 H748 0.950 . S
C755 C752 1.387 . S
C756 C757 1.387 . S
C756 H760 0.950 . S
C756 C765 1.390 . S
C757 C756 1.387 . S
C757 C759 1.387 . S
H758 C765 0.950 . S
C759 C757 1.387 . S
C759 C761 1.390 . S
C759 H763 0.950 . S
H760 C756 0.950 . S
C761 C759 1.390 . S
C761 C762 1.387 . S
C761 H764 0.950 . S
C762 C761 1.387 . S
C762 C765 1.387 . S
H763 C759 0.950 . S
H764 C761 0.950 . S
C765 C756 1.390 . S
C765 H758 0.950 . S
C765 C762 1.387 . S
C766 C767 1.387 . S
C766 H770 0.950 . S
C766 C775 1.390 . S
C767 C766 1.387 . S
C767 C769 1.387 . S
H768 C775 0.950 . S
C769 C767 1.387 . S
C769 C771 1.390 . S
C769 H773 0.950 . S
H770 C766 0.950 . S
C771 C769 1.390 . S
C771 C772 1.387 . S
C771 H774 0.950 . S
C772 C771 1.387 . S
C772 C775 1.387 . S
H773 C769 0.950 . S
H774 C771 0.950 . S
C775 C766 1.390 . S
C775 H768 0.950 . S
C775 C772 1.387 . S
C776 C777 1.387 . S
C776 H780 0.950 . S
C776 C785 1.390 . S
C777 C776 1.387 . S
C777 C779 1.387 . S
H778 C785 0.950 . S
C779 C777 1.387 . S
C779 C781 1.390 . S
C779 H783 0.950 . S
H780 C776 0.950 . S
C781 C779 1.390 . S
C781 C782 1.387 . S
C781 H784 0.950 . S
C782 C781 1.387 . S
C782 C785 1.387 . S
H783 C779 0.950 . S
H784 C781 0.950 . S
C785 C776 1.390 . S
C785 H778 0.950 . S
C785 C782 1.387 . S
C786 C787 1.387 . S
C786 H790 0.950 . S
C786 C795 1.390 . S
C787 C786 1.387 . S
C787 C789 1.387 . S
H788 C795 0.950 . S
C789 C787 1.387 . S
C789 C791 1.390 . S
C789 H793 0.950 . S
H790 C786 0.950 . S
C791 C789 1.390 . S
C791 C792 1.387 . S
C791 H794 0.950 . S
C792 C791 1.387 . S
C792 C795 1.387 . S
H793 C789 0.950 . S
H794 C791 0.950 . S
C795 C786 1.390 . S
C795 H788 0.950 . S
C795 C792 1.387 . S
C796 C797 1.387 . S
C796 H800 0.950 . S
C796 C805 1.390 . S
C797 C796 1.387 . S
C797 C799 1.387 . S
H798 C805 0.950 . S
C799 C797 1.387 . S
C799 C801 1.390 . S
C799 H803 0.950 . S
H800 C796 0.950 . S
C801 C799 1.390 . S
C801 C802 1.387 . S
C801 H804 0.950 . S
C802 C801 1.387 . S
C802 C805 1.387 . S
H803 C799 0.950 . S
H804 C801 0.950 . S
C805 C796 1.390 . S
C805 H798 0.950 . S
C805 C802 1.387 . S
C806 C807 1.387 . S
C806 H810 0.950 . S
C806 C815 1.390 . S
C807 C806 1.387 . S
C807 C809 1.387 . S
H808 C815 0.950 . S
C809 C807 1.387 . S
C809 C811 1.390 . S
C809 H813 0.950 . S
H810 C806 0.950 . S
C811 C809 1.390 . S
C811 C812 1.387 . S
C811 H814 0.950 . S
C812 C811 1.387 . S
C812 C815 1.387 . S
H813 C809 0.950 . S
H814 C811 0.950 . S
C815 C806 1.390 . S
C815 H808 0.950 . S
C815 C812 1.387 . S
C816 C817 1.387 . S
C816 H820 0.950 . S
C816 C825 1.390 . S
C817 C816 1.387 . S
C817 C819 1.387 1_554 S
H818 C825 0.950 . S
C819 C817 1.387 1_556 S
C819 C821 1.390 1_556 S
C819 H823 0.950 . S
H820 C816 0.950 . S
C821 C819 1.390 1_554 S
C821 C822 1.387 . S
C821 H824 0.950 1_554 S
C822 C821 1.387 . S
C822 C825 1.387 . S
H823 C819 0.950 . S
H824 C821 0.950 1_556 S
C825 C816 1.390 . S
C825 H818 0.950 . S
C825 C822 1.387 . S
C826 C827 1.387 . S
C826 H830 0.950 . S
C826 C835 1.390 . S
C827 C826 1.387 . S
C827 C829 1.387 . S
H828 C835 0.950 . S
C829 C827 1.387 . S
C829 C831 1.390 . S
C829 H833 0.950 . S
H830 C826 0.950 . S
C831 C829 1.390 . S
C831 C832 1.387 . S
C831 H834 0.950 . S
C832 C831 1.387 . S
C832 C835 1.387 . S
H833 C829 0.950 . S
H834 C831 0.950 . S
C835 C826 1.390 . S
C835 H828 0.950 . S
C835 C832 1.387 . S
C836 C837 1.387 . S
C836 H840 0.950 . S
C836 C845 1.390 . S
C837 C836 1.387 . S
C837 C839 1.387 . S
H838 C845 0.950 . S
C839 C837 1.387 . S
C839 C841 1.390 . S
C839 H843 0.950 . S
H840 C836 0.950 . S
C841 C839 1.390 . S
C841 C842 1.387 . S
C841 H844 0.950 . S
C842 C841 1.387 . S
C842 C845 1.387 . S
H843 C839 0.950 . S
H844 C841 0.950 . S
C845 C836 1.390 . S
C845 H838 0.950 . S
C845 C842 1.387 . S
C846 C847 1.387 1_556 S
C846 H850 0.950 1_565 S
C846 C855 1.390 . S
C847 C846 1.387 1_554 S
C847 C849 1.387 . S
H848 C855 0.950 . S
C849 C847 1.387 . S
C849 C851 1.390 . S
C849 H853 0.950 . S
H850 C846 0.950 1_545 S
C851 C849 1.390 . S
C851 C852 1.387 . S
C851 H854 0.950 . S
C852 C851 1.387 . S
C852 C855 1.387 1_554 S
H853 C849 0.950 . S
H854 C851 0.950 . S
C855 C846 1.390 . S
C855 H848 0.950 . S
C855 C852 1.387 1_556 S
C382 C219 1.646 . S
C377 C73 1.680 . S
C392 C227 1.167 . S
C387 C82 1.320 . S
C397 C100 1.716 . S
C402 C247 1.655 . S
C412 C261 1.363 . S
C407 C56 1.363 1_655 S
C422 C276 1.455 . S
C417 C134 1.445 . S
C432 C290 1.691 . S
C427 C165 1.672 . S
C437 C147 1.289 . S
C442 C304 1.333 . S
C452 C310 1.706 . S
C447 C125 1.752 . S
C457 C151 1.437 . S
C462 C324 1.401 . S
C472 C345 1.469 . S
C467 C121 1.464 . S
C477 C139 1.669 . S
C482 C325 1.425 . S
C492 C346 1.410 . S
C487 C164 1.402 . S
C497 C95 1.327 . S
C502 C353 1.185 . S
C507 C61 1.514 . S
C512 C359 1.492 . S
C517 C74 1.466 . S
C522 C352 1.434 . S
C527 C86 1.673 . S
C532 C360 1.678 . S
C537 C47 1.452 . S
C542 C254 1.402 . S
C547 C186 1.354 . S
C552 C255 1.139 . S
C562 C212 1.503 1_554 S
C557 C204 1.580 . S
C572 C233 1.706 . S
C567 C112 1.741 . S
C577 C60 1.403 . S
C582 C268 1.358 . S
C592 C318 1.468 . S
C587 C152 1.458 . S
C602 C269 1.508 . S
C597 C126 1.771 1_545 S
C612 C297 1.111 . S
C607 C160 1.422 . S
C622 C303 1.646 . S
C617 C190 1.680 . S
C627 C199 1.318 . S
C632 C311 1.161 . S
C637 C113 1.715 . S
C642 C275 1.656 . S
C652 C289 1.363 . S
C647 C173 1.363 . S
C657 C43 1.443 . S
C662 C248 1.456 . S
C672 C262 1.691 . S
C667 C9 1.673 . S
C682 C220 1.333 . S
C677 C17 1.288 . S
C692 C226 1.709 . S
C687 C34 1.752 . S
C697 C21 1.437 . S
C702 C338 1.402 . S
C707 C30 1.461 . S
C712 C331 1.469 1_455 S
C717 C48 1.669 . S
C722 C339 1.425 . S
C727 C8 1.402 1_556 S
C732 C332 1.410 . S
C742 C367 1.182 . S
C737 C108 1.326 . S
C752 C373 1.492 . S
C747 C178 1.514 . S
C762 C366 1.434 . S
C757 C191 1.466 . S
C767 C203 1.673 . S
C772 C374 1.681 . S
C777 C138 1.452 . S
C782 C282 1.406 . S
C792 C283 1.139 . S
C787 C69 1.355 . S
C802 C296 1.504 . S
C797 C87 1.569 . S
C812 C317 1.706 . S
C807 C99 1.745 . S
C817 C177 1.403 1_554 S
C822 C240 1.361 . S
C832 C234 1.468 . S
C827 C22 1.461 . S
C837 C35 1.771 . S
C842 C241 1.514 . S
C852 C213 1.117 . S
C847 C4 1.422 . S
