# Generated by pormake.
# Topology rtl, (3,6)-cn, num edge types: 1
# Building blocks:
#     Node 0, Type 0, BuildingBlock: INOVEN_clean_linker_0, # of connection points: 3
#     Node 1, Type 0, BuildingBlock: INOVEN_clean_linker_0, # of connection points: 3
#     Node 2, Type 0, BuildingBlock: INOVEN_clean_linker_0, # of connection points: 3
#     Node 3, Type 0, BuildingBlock: INOVEN_clean_linker_0, # of connection points: 3
#     Node 4, Type 1, BuildingBlock: FUNLAD_clean_sbu_0, # of connection points: 6
#     Node 5, Type 1, BuildingBlock: FUNLAD_clean_sbu_0, # of connection points: 6
#     Edge 6, Type (0, 1), BuildingBlock: CIFDUS_clean_linker_0, # of connection points: 2
#     Edge 7, Type (0, 1), BuildingBlock: CIFDUS_clean_linker_0, # of connection points: 2
#     Edge 8, Type (0, 1), BuildingBlock: CIFDUS_clean_linker_0, # of connection points: 2
#     Edge 9, Type (0, 1), BuildingBlock: CIFDUS_clean_linker_0, # of connection points: 2
#     Edge 10, Type (0, 1), BuildingBlock: CIFDUS_clean_linker_0, # of connection points: 2
#     Edge 11, Type (0, 1), BuildingBlock: CIFDUS_clean_linker_0, # of connection points: 2
#     Edge 12, Type (0, 1), BuildingBlock: CIFDUS_clean_linker_0, # of connection points: 2
#     Edge 13, Type (0, 1), BuildingBlock: CIFDUS_clean_linker_0, # of connection points: 2
#     Edge 14, Type (0, 1), BuildingBlock: CIFDUS_clean_linker_0, # of connection points: 2
#     Edge 15, Type (0, 1), BuildingBlock: CIFDUS_clean_linker_0, # of connection points: 2
#     Edge 16, Type (0, 1), BuildingBlock: CIFDUS_clean_linker_0, # of connection points: 2
#     Edge 17, Type (0, 1), BuildingBlock: CIFDUS_clean_linker_0, # of connection points: 2
# Relax obj value: 0.003
# Max RMSD: 0.042
# Mean RMSD: 0.026
data_MOF--net-rtl--node1-FUNLAD_clean_sbu_0--node2-INOVEN_clean_linker_0--edge1-CIFDUS_clean_linker_0
_symmetry_space_group_name_H-M    P1
_symmetry_Int_Tables_number       1
_symmetry_cell_setting            triclinic
loop_
_symmetry_equiv_pos_as_xyz
'x, y, z'
_cell_length_a     35.509331
_cell_length_b     35.653475
_cell_length_c     18.242312
_cell_angle_alpha  91.510279
_cell_angle_beta   92.617134
_cell_angle_gamma 89.680604
loop_
_atom_site_label
_atom_site_type_symbol
_atom_site_fract_x
_atom_site_fract_y
_atom_site_fract_z
_atom_type_partial_charge
H0 H 0.18187 0.82102 0.90511 0.0
H1 H 0.10234 0.88333 0.03107 0.0
H2 H 0.19696 0.82954 0.14082 0.0
N3 N 0.2249 0.79812 0.01677 0.0
N4 N 0.24741 0.79246 0.0699 0.0
C5 C 0.17238 0.83112 0.95774 0.0
C6 C 0.13957 0.85303 0.96088 0.0
C7 C 0.19304 0.82211 0.02228 0.0
C8 C 0.1811 0.83603 0.09056 0.0
C9 C 0.14801 0.85771 0.09397 0.0
C10 C 0.12731 0.86571 0.02898 0.0
H11 H 0.67498 0.70219 0.64407 0.0
H12 H 0.60875 0.6213 0.5161 0.0
H13 H 0.67174 0.70434 0.40788 0.0
N14 N 0.7028 0.73671 0.53245 0.0
N15 N 0.70922 0.75646 0.47899 0.0
C16 C 0.66486 0.6907 0.59124 0.0
C17 C 0.64035 0.65986 0.58778 0.0
C18 C 0.67651 0.70679 0.52678 0.0
C19 C 0.66297 0.69216 0.45812 0.0
C20 C 0.63898 0.66095 0.45414 0.0
C21 C 0.62806 0.64482 0.51908 0.0
H22 H 0.82146 0.18075 0.89889 0.0
H23 H 0.91224 0.12472 0.01634 0.0
H24 H 0.83058 0.18805 0.13529 0.0
N25 N 0.7907 0.212 0.01386 0.0
N26 N 0.77301 0.22087 0.06932 0.0
C27 C 0.83606 0.17369 0.95022 0.0
C28 C 0.86844 0.151 0.94971 0.0
C29 C 0.82237 0.18752 0.01661 0.0
C30 C 0.841 0.17787 0.08349 0.0
C31 C 0.87382 0.15571 0.08313 0.0
C32 C 0.88747 0.14269 0.01628 0.0
H33 H 0.33791 0.31747 0.35763 0.0
H34 H 0.4088 0.39144 0.49195 0.0
H35 H 0.33618 0.31387 0.59337 0.0
N36 N 0.30428 0.28567 0.46486 0.0
N37 N 0.29345 0.26666 0.51626 0.0
C38 C 0.34818 0.32757 0.41142 0.0
C39 C 0.37532 0.35598 0.4175 0.0
C40 C 0.33366 0.31242 0.47428 0.0
C41 C 0.3472 0.32532 0.5443 0.0
C42 C 0.37401 0.35422 0.55077 0.0
C43 C 0.38767 0.36954 0.48717 0.0
C44 C 0.03806 0.95915 0.41341 0.0
N45 N 0.07545 0.06092 0.51184 0.0
C46 C 0.11137 0.04741 0.51784 0.0
C47 C 0.14191 0.07198 0.52274 0.0
C48 C 0.13548 0.11077 0.52005 0.0
C49 C 0.09829 0.12396 0.51105 0.0
C50 C 0.06848 0.09842 0.5077 0.0
Zn51 Zn 0.03149 0.0241 0.51648 0.0
C52 C 0.96602 0.04327 0.4162 0.0
N53 N 0.94024 0.94701 0.5316 0.0
C54 C 0.94837 0.90991 0.53911 0.0
C55 C 0.90391 0.95948 0.52727 0.0
C56 C 0.87408 0.93419 0.52957 0.0
C57 C 0.88175 0.89584 0.5377 0.0
C58 C 0.91943 0.88378 0.54293 0.0
Zn59 Zn 0.98375 0.98422 0.52551 0.0
O60 O 0.05449 0.9895 0.43381 0.0
C61 C 0.04894 0.96506 0.6259 0.0
O62 O 0.00755 0.95018 0.44226 0.0
H63 H 0.89801 0.98909 0.52176 0.0
H64 H 0.11639 0.01753 0.52047 0.0
H65 H 0.97737 0.90047 0.54172 0.0
O66 O 0.06252 0.99365 0.59682 0.0
O67 O 0.01562 0.95472 0.60706 0.0
H68 H 0.03975 0.10861 0.50355 0.0
O69 O 0.96064 0.01901 0.60781 0.0
O70 O 0.00807 0.05785 0.60034 0.0
O71 O 0.95279 0.01432 0.44481 0.0
O72 O 0.99923 0.05403 0.43535 0.0
C73 C 0.97747 0.04904 0.62897 0.0
H74 H 0.17027 0.06079 0.52891 0.0
H75 H 0.09228 0.15375 0.50916 0.0
H76 H 0.84533 0.94452 0.52581 0.0
H77 H 0.92642 0.85435 0.54847 0.0
C78 C 0.46647 0.47057 0.89037 0.0
N79 N 0.56657 0.43817 0.00376 0.0
C80 C 0.55556 0.40198 0.01123 0.0
C81 C 0.58226 0.37293 0.01261 0.0
C82 C 0.62042 0.38126 0.00474 0.0
C83 C 0.63096 0.41872 0.99706 0.0
C84 C 0.60354 0.44689 0.99748 0.0
Zn85 Zn 0.528 0.48135 0.00228 0.0
C86 C 0.54985 0.54106 0.8981 0.0
N87 N 0.45127 0.57451 0.0005 0.0
C88 C 0.41412 0.56567 0.9904 0.0
C89 C 0.46249 0.61082 0.01065 0.0
C90 C 0.43581 0.63987 0.0112 0.0
C91 C 0.39739 0.63141 -7e-05 0.0
C92 C 0.38666 0.5938 0.98928 0.0
Zn93 Zn 0.48977 0.53137 0.00148 0.0
O94 O 0.49496 0.45346 0.91817 0.0
C95 C 0.46775 0.47217 0.10575 0.0
O96 O 0.45836 0.50328 0.91452 0.0
H97 H 0.49215 0.61729 0.01846 0.0
H98 H 0.52605 0.39559 0.01599 0.0
H99 H 0.40565 0.53667 0.9835 0.0
O100 O 0.49659 0.45531 0.08218 0.0
O101 O 0.45849 0.50405 0.08084 0.0
H102 H 0.6119 0.4758 0.99281 0.0
O103 O 0.52205 0.55835 0.08691 0.0
O104 O 0.5604 0.50981 0.08774 0.0
O105 O 0.52168 0.55828 0.9236 0.0
O106 O 0.55839 0.50854 0.92082 0.0
C107 C 0.55129 0.54198 0.11331 0.0
H108 H 0.57316 0.34426 0.01839 0.0
H109 H 0.66022 0.42619 0.99163 0.0
H110 H 0.44511 0.66862 0.01932 0.0
H111 H 0.35724 0.58616 0.98133 0.0
H112 H 0.27757 0.21183 0.60424 0.0
H113 H 0.24045 0.26494 0.40407 0.0
H114 H 0.18755 0.22149 0.38852 0.0
H115 H 0.15172 0.16809 0.4319 0.0
H116 H 0.19055 0.11266 0.62863 0.0
H117 H 0.24288 0.15691 0.64553 0.0
C118 C 0.25782 0.21363 0.55733 0.0
C119 C 0.26288 0.24125 0.50552 0.0
C120 C 0.22783 0.18812 0.54811 0.0
C121 C 0.2373 0.24363 0.44452 0.0
C122 C 0.20699 0.21887 0.43569 0.0
C123 C 0.17166 0.16586 0.47846 0.0
C124 C 0.16736 0.13734 0.52905 0.0
C125 C 0.20197 0.19099 0.48711 0.0
C126 C 0.19352 0.13433 0.58878 0.0
C127 C 0.22332 0.15966 0.59859 0.0
H128 H 0.25917 0.74202 0.95966 0.0
H129 H 0.30412 0.78523 0.16816 0.0
H130 H 0.35673 0.74034 0.16386 0.0
H131 H 0.38842 0.68718 0.10228 0.0
H132 H 0.341 0.64228 0.89678 0.0
H133 H 0.29082 0.6895 0.89802 0.0
C134 C 0.28065 0.74183 0.00383 0.0
C135 C 0.27816 0.76703 0.06418 0.0
C136 C 0.31021 0.71556 0.00145 0.0
C137 C 0.30583 0.76609 0.12132 0.0
C138 C 0.33576 0.74048 0.1188 0.0
C139 C 0.36728 0.68809 0.05751 0.0
C140 C 0.36834 0.66141 -0.00053 0.0
C141 C 0.33809 0.71488 0.05935 0.0
C142 C 0.34056 0.66245 0.9422 0.0
C143 C 0.31193 0.68944 0.94285 0.0
H144 H 0.76517 0.76634 0.58354 0.0
H145 H 0.71588 0.81014 0.38319 0.0
H146 H 0.7642 0.85914 0.38474 0.0
H147 H 0.8216 0.8881 0.44152 0.0
H148 H 0.87287 0.84175 0.63805 0.0
H149 H 0.82271 0.79502 0.63989 0.0
C150 C 0.76485 0.78684 0.54068 0.0
C151 C 0.73686 0.78515 0.48348 0.0
C152 C 0.79315 0.81424 0.54123 0.0
C153 C 0.73714 0.81135 0.42769 0.0
C154 C 0.76471 0.8392 0.42861 0.0
C155 C 0.8215 0.86794 0.48502 0.0
C156 C 0.8507 0.86835 0.53971 0.0
C157 C 0.79299 0.84078 0.48488 0.0
C158 C 0.85071 0.84178 0.59522 0.0
C159 C 0.82203 0.81516 0.59636 0.0
H160 H 0.75527 0.26841 0.95977 0.0
H161 H 0.72279 0.2321 0.17106 0.0
H162 H 0.67039 0.27741 0.16886 0.0
H163 H 0.6351 0.32872 0.10764 0.0
H164 H 0.67078 0.36722 0.89994 0.0
H165 H 0.72063 0.31959 0.89939 0.0
C166 C 0.73653 0.27021 0.00504 0.0
C167 C 0.74244 0.24677 0.06546 0.0
C168 C 0.70717 0.29676 0.00388 0.0
C169 C 0.71841 0.24985 0.12413 0.0
C170 C 0.68859 0.27568 0.12278 0.0
C171 C 0.65366 0.32633 0.06212 0.0
C172 C 0.64934 0.35121 0.00377 0.0
C173 C 0.68281 0.29943 0.06307 0.0
C174 C 0.67376 0.34835 0.94546 0.0
C175 C 0.7022 0.32116 0.94513 0.0
H176 H 0.07871 0.85228 0.14785 0.0
H177 H 0.18862 0.89995 0.19578 0.0
H178 H 0.16448 0.93515 0.30105 0.0
H179 H 0.11074 0.95601 0.37299 0.0
H180 H 1.00116 0.90696 0.32592 0.0
H181 H 0.02646 0.86872 0.22643 0.0
C182 C 0.09741 0.87003 0.18208 0.0
C183 C 0.13524 0.8738 0.16421 0.0
C184 C 0.08327 0.89025 0.24185 0.0
C185 C 0.15943 0.89652 0.20901 0.0
C186 C 0.14555 0.91687 0.26865 0.0
C187 C 0.09247 0.93686 0.34102 0.0
C188 C 0.05404 0.93467 0.35602 0.0
C189 C 0.10731 0.9146 0.28449 0.0
C190 C 0.0308 0.90927 0.31516 0.0
C191 C 0.04522 0.88741 0.25828 0.0
H192 H 0.64179 0.58713 0.62709 0.0
H193 H 0.60618 0.69738 0.6985 0.0
H194 H 0.57551 0.67048 0.80249 0.0
H195 H 0.5556 0.61506 0.86842 0.0
H196 H 0.59346 0.50503 0.79931 0.0
H197 H 0.62648 0.53231 0.69908 0.0
C198 C 0.62758 0.60519 0.66594 0.0
C199 C 0.62598 0.64406 0.65525 0.0
C200 C 0.6102 0.58955 0.72551 0.0
C201 C 0.60788 0.66737 0.70609 0.0
C202 C 0.59016 0.65199 0.76514 0.0
C203 C 0.57121 0.59712 0.83154 0.0
C204 C 0.57175 0.55807 0.84069 0.0
C205 C 0.59059 0.61305 0.77464 0.0
C206 C 0.59256 0.53517 0.79328 0.0
C207 C 0.61139 0.55073 0.73588 0.0
H208 H 0.84799 0.10933 0.18367 0.0
H209 H 0.94455 0.17455 0.13241 0.0
H210 H 0.98147 0.14707 0.23454 0.0
H211 H 0.98755 0.10067 0.33178 0.0
H212 H 0.89169 0.03256 0.37772 0.0
H213 H 0.8533 0.06478 0.28451 0.0
C214 C 0.87685 0.11803 0.19626 0.0
C215 C 0.89357 0.14412 0.15178 0.0
C216 C 0.89817 0.10112 0.25324 0.0
C217 C 0.93119 0.15473 0.16689 0.0
C218 C 0.95229 0.13885 0.22477 0.0
C219 C 0.95821 0.09304 0.32172 0.0
C220 C 0.94267 0.06404 0.36134 0.0
C221 C 0.93633 0.11136 0.26726 0.0
C222 C 0.90454 0.05454 0.34761 0.0
C223 C 0.88246 0.07303 0.29442 0.0
H224 H 0.37167 0.42592 0.6011 0.0
H225 H 0.40899 0.31533 0.66136 0.0
H226 H 0.44048 0.34136 0.77385 0.0
H227 H 0.4609 0.39648 0.85032 0.0
H228 H 0.42107 0.50668 0.79092 0.0
H229 H 0.387 0.47998 0.68291 0.0
C230 C 0.38635 0.40757 0.6395 0.0
C231 C 0.38832 0.36892 0.62326 0.0
C232 C 0.40417 0.42271 0.7037 0.0
C233 C 0.40707 0.34519 0.67325 0.0
C234 C 0.42524 0.3601 0.73713 0.0
C235 C 0.4446 0.41457 0.81386 0.0
C236 C 0.44386 0.45355 0.82815 0.0
C237 C 0.4246 0.39894 0.75219 0.0
C238 C 0.42217 0.4766 0.78109 0.0
C239 C 0.40273 0.46139 0.71921 0.0
H240 H 0.64373 0.5891 0.40408 0.0
H241 H 0.60113 0.69812 0.34492 0.0
H242 H 0.57098 0.67113 0.23219 0.0
H243 H 0.55369 0.61573 0.15464 0.0
H244 H 0.59854 0.50708 0.21189 0.0
H245 H 0.63103 0.53468 0.32108 0.0
C246 C 0.62807 0.60688 0.36602 0.0
C247 C 0.62432 0.64538 0.38258 0.0
C248 C 0.61112 0.59122 0.30139 0.0
C249 C 0.6044 0.6684 0.33286 0.0
C250 C 0.58704 0.65295 0.26877 0.0
C251 C 0.57077 0.59817 0.19084 0.0
C252 C 0.57341 0.55938 0.17568 0.0
C253 C 0.58971 0.61429 0.25309 0.0
C254 C 0.59604 0.53702 0.22242 0.0
C255 C 0.61453 0.55274 0.28498 0.0
H256 H 0.93893 0.15347 0.89963 0.0
H257 H 0.82768 0.11016 0.84634 0.0
H258 H 0.85142 0.0751 0.74066 0.0
H259 H 0.9048 0.05364 0.66861 0.0
H260 H 0.01567 0.09881 0.71983 0.0
H261 H 0.99118 0.13625 0.8213 0.0
C262 C 0.91991 0.13661 0.86427 0.0
C263 C 0.88175 0.13412 0.8806 0.0
C264 C 0.93376 0.11665 0.80388 0.0
C265 C 0.85715 0.11259 0.83432 0.0
C266 C 0.87076 0.09236 0.77436 0.0
C267 C 0.92353 0.07178 0.70193 0.0
C268 C 0.96204 0.07315 0.68745 0.0
C269 C 0.90916 0.09363 0.75948 0.0
C270 C 0.98592 0.09722 0.73012 0.0
C271 C 0.97197 0.11858 0.78816 0.0
H272 H 0.37558 0.42847 0.37794 0.0
H273 H 0.41121 0.31767 0.31025 0.0
H274 H 0.44288 0.34372 0.20647 0.0
H275 H 0.46269 0.39854 0.13857 0.0
H276 H 0.42404 0.509 0.20306 0.0
H277 H 0.39116 0.48265 0.30442 0.0
C278 C 0.39011 0.41014 0.33999 0.0
C279 C 0.39141 0.37137 0.35146 0.0
C280 C 0.40777 0.42526 0.28028 0.0
C281 C 0.40987 0.34763 0.30195 0.0
C282 C 0.42807 0.36252 0.243 0.0
C283 C 0.44694 0.41676 0.17472 0.0
C284 C 0.44604 0.45565 0.16386 0.0
C285 C 0.42759 0.40135 0.23217 0.0
C286 C 0.42512 0.47895 0.21035 0.0
C287 C 0.40641 0.46394 0.26842 0.0
H288 H 0.16616 0.89627 0.85617 0.0
H289 H 0.06669 0.83867 0.91826 0.0
H290 H 0.02994 0.86661 0.81643 0.0
H291 H 0.02532 0.9111 0.71578 0.0
H292 H 0.1242 0.97206 0.6594 0.0
H293 H 0.16198 0.93929 0.75287 0.0
C294 C 0.13662 0.88935 0.84615 0.0
C295 C 0.11905 0.86528 0.89354 0.0
C296 C 0.11552 0.90655 0.78934 0.0
C297 C 0.08064 0.85697 0.88166 0.0
C298 C 0.05968 0.87309 0.82388 0.0
C299 C 0.05518 0.91704 0.72364 0.0
C300 C 0.07184 0.94414 0.68099 0.0
C301 C 0.07665 0.89854 0.77833 0.0
C302 C 0.11058 0.95155 0.69192 0.0
C303 C 0.13226 0.93275 0.74522 0.0
loop_
_geom_bond_atom_site_label_1
_geom_bond_atom_site_label_2
_geom_bond_distance
_geom_bond_site_symmetry_2
_ccdc_geom_bond_type
H0 C5 0.929 . S
H1 C10 0.931 . S
H2 C8 0.930 . S
N3 N4 1.234 1_556 S
N3 C7 1.454 . S
N4 N3 1.234 1_554 S
C5 H0 0.929 . S
C5 C6 1.373 . S
C5 C7 1.372 . S
C6 C5 1.373 . S
C6 C10 1.397 1_556 S
C7 N3 1.454 . S
C7 C5 1.372 . S
C7 C8 1.368 1_556 S
C8 H2 0.930 . S
C8 C7 1.368 1_554 S
C8 C9 1.371 . S
C9 C8 1.371 . S
C9 C10 1.383 . S
C10 H1 0.931 . S
C10 C6 1.397 1_554 S
C10 C9 1.383 . S
H11 C16 0.929 . S
H12 C21 0.931 . S
H13 C19 0.930 . S
N14 N15 1.234 . S
N14 C18 1.453 . S
N15 N14 1.234 . S
C16 H11 0.929 . S
C16 C17 1.373 . S
C16 C18 1.368 . S
C17 C16 1.373 . S
C17 C21 1.397 . S
C18 N14 1.453 . S
C18 C16 1.368 . S
C18 C19 1.373 . S
C19 H13 0.930 . S
C19 C18 1.373 . S
C19 C20 1.371 . S
C20 C19 1.371 . S
C20 C21 1.383 . S
C21 H12 0.931 . S
C21 C17 1.397 . S
C21 C20 1.383 . S
H22 C27 0.929 . S
H23 C32 0.931 . S
H24 C30 0.930 . S
N25 N26 1.234 1_556 S
N25 C29 1.453 . S
N26 N25 1.234 1_554 S
C27 H22 0.929 . S
C27 C28 1.373 . S
C27 C29 1.368 . S
C28 C27 1.373 . S
C28 C32 1.397 1_556 S
C29 N25 1.453 . S
C29 C27 1.368 . S
C29 C30 1.373 1_556 S
C30 H24 0.930 . S
C30 C29 1.373 1_554 S
C30 C31 1.371 . S
C31 C30 1.371 . S
C31 C32 1.383 . S
C32 H23 0.931 . S
C32 C28 1.397 1_554 S
C32 C31 1.383 . S
H33 C38 0.929 . S
H34 C43 0.931 . S
H35 C41 0.930 . S
N36 N37 1.234 . S
N36 C40 1.453 . S
N37 N36 1.234 . S
C38 H33 0.929 . S
C38 C39 1.373 . S
C38 C40 1.368 . S
C39 C38 1.373 . S
C39 C43 1.397 . S
C40 N36 1.453 . S
C40 C38 1.368 . S
C40 C41 1.373 . S
C41 H35 0.930 . S
C41 C40 1.373 . S
C41 C42 1.371 . S
C42 C41 1.371 . S
C42 C43 1.383 . S
C43 H34 0.931 . S
C43 C39 1.397 . S
C43 C42 1.383 . S
C44 O60 1.275 . S
C44 O62 1.254 . S
N45 C46 1.333 . S
N45 C50 1.307 . S
N45 Zn51 2.020 . S
C46 N45 1.333 . S
C46 C47 1.379 . S
C46 H64 0.952 . S
C47 C46 1.379 . S
C47 C48 1.390 . S
C47 H74 0.949 . S
C48 C47 1.390 . S
C48 C49 1.357 . S
C49 C48 1.357 . S
C49 C50 1.370 . S
C49 H75 0.950 . S
C50 N45 1.307 . S
C50 C49 1.370 . S
C50 H68 0.948 . S
Zn51 N45 2.020 . S
Zn51 O60 2.023 1_545 S
Zn51 O66 2.034 1_545 S
Zn51 O70 2.025 1_455 S
Zn51 O72 2.024 1_455 S
C52 O71 1.246 . S
C52 O72 1.249 . S
N53 C54 1.307 . S
N53 C55 1.333 . S
N53 Zn59 2.020 . S
C54 N53 1.307 . S
C54 C58 1.370 . S
C54 H65 0.948 . S
C55 N53 1.333 . S
C55 C56 1.379 . S
C55 H63 0.952 . S
C56 C55 1.379 . S
C56 C57 1.390 . S
C56 H76 0.949 . S
C57 C56 1.390 . S
C57 C58 1.357 . S
C58 C54 1.370 . S
C58 C57 1.357 . S
C58 H77 0.950 . S
Zn59 N53 2.020 . S
Zn59 O62 2.025 1_655 S
Zn59 O67 2.024 1_655 S
Zn59 O69 2.039 1_565 S
Zn59 O71 2.034 1_565 S
O60 C44 1.275 . S
O60 Zn51 2.023 1_565 S
C61 O66 1.246 . S
C61 O67 1.249 . S
O62 C44 1.254 . S
O62 Zn59 2.025 1_455 S
H63 C55 0.952 . S
H64 C46 0.952 . S
H65 C54 0.948 . S
O66 Zn51 2.034 1_565 S
O66 C61 1.246 . S
O67 Zn59 2.024 1_455 S
O67 C61 1.249 . S
H68 C50 0.948 . S
O69 Zn59 2.039 1_545 S
O69 C73 1.251 . S
O70 Zn51 2.025 1_655 S
O70 C73 1.254 . S
O71 C52 1.246 . S
O71 Zn59 2.034 1_545 S
O72 Zn51 2.024 1_655 S
O72 C52 1.249 . S
C73 O69 1.251 . S
C73 O70 1.254 . S
H74 C47 0.949 . S
H75 C49 0.950 . S
H76 C56 0.949 . S
H77 C58 0.950 . S
C78 O94 1.251 . S
C78 O96 1.254 . S
N79 C80 1.333 . S
N79 C84 1.307 . S
N79 Zn85 2.020 . S
C80 N79 1.333 . S
C80 C81 1.379 . S
C80 H98 0.952 1_554 S
C81 C80 1.379 . S
C81 C82 1.390 . S
C81 H108 0.949 1_554 S
C82 C81 1.390 . S
C82 C83 1.357 . S
C83 C82 1.357 . S
C83 C84 1.370 . S
C83 H109 0.950 . S
C84 N79 1.307 . S
C84 C83 1.370 . S
C84 H102 0.948 . S
Zn85 N79 2.020 . S
Zn85 O94 2.039 1_554 S
Zn85 O100 2.034 . S
Zn85 O104 2.025 . S
Zn85 O106 2.024 1_554 S
C86 O105 1.246 . S
C86 O106 1.249 . S
N87 C88 1.307 . S
N87 C89 1.333 . S
N87 Zn93 2.020 . S
C88 N87 1.307 . S
C88 C92 1.370 . S
C88 H99 0.948 1_554 S
C89 N87 1.333 . S
C89 C90 1.379 . S
C89 H97 0.952 . S
C90 C89 1.379 . S
C90 C91 1.390 . S
C90 H110 0.949 . S
C91 C90 1.390 . S
C91 C92 1.357 . S
C92 C88 1.370 . S
C92 C91 1.357 . S
C92 H111 0.950 1_554 S
Zn93 N87 2.020 . S
Zn93 O96 2.025 1_554 S
Zn93 O101 2.024 . S
Zn93 O103 2.039 . S
Zn93 O105 2.034 1_554 S
O94 C78 1.251 . S
O94 Zn85 2.039 1_556 S
C95 O100 1.246 . S
C95 O101 1.249 . S
O96 C78 1.254 . S
O96 Zn93 2.025 1_556 S
H97 C89 0.952 . S
H98 C80 0.952 1_556 S
H99 C88 0.948 1_556 S
O100 Zn85 2.034 . S
O100 C95 1.246 . S
O101 Zn93 2.024 . S
O101 C95 1.249 . S
H102 C84 0.948 . S
O103 Zn93 2.039 . S
O103 C107 1.251 . S
O104 Zn85 2.025 . S
O104 C107 1.254 . S
O105 C86 1.246 . S
O105 Zn93 2.034 1_556 S
O106 Zn85 2.024 1_556 S
O106 C86 1.249 . S
C107 O103 1.251 . S
C107 O104 1.254 . S
H108 C81 0.949 1_556 S
H109 C83 0.950 . S
H110 C90 0.949 . S
H111 C92 0.950 1_556 S
H112 C118 0.930 . S
H113 C121 0.930 . S
H114 C122 0.930 . S
H115 C123 0.930 . S
H116 C126 0.930 . S
H117 C127 0.930 . S
C118 H112 0.930 . S
C118 C119 1.355 . S
C118 C120 1.415 . S
C119 C118 1.355 . S
C119 C121 1.419 . S
C120 C118 1.415 . S
C120 C125 1.425 . S
C120 C127 1.409 . S
C121 H113 0.930 . S
C121 C119 1.419 . S
C121 C122 1.362 . S
C122 H114 0.930 . S
C122 C121 1.362 . S
C122 C125 1.409 . S
C123 H115 0.930 . S
C123 C124 1.355 . S
C123 C125 1.415 . S
C124 C123 1.355 . S
C124 C126 1.419 . S
C125 C120 1.425 . S
C125 C122 1.409 . S
C125 C123 1.415 . S
C126 H116 0.930 . S
C126 C124 1.419 . S
C126 C127 1.362 . S
C127 H117 0.930 . S
C127 C120 1.409 . S
C127 C126 1.362 . S
H128 C134 0.930 . S
H129 C137 0.930 . S
H130 C138 0.930 . S
H131 C139 0.930 . S
H132 C142 0.930 . S
H133 C143 0.930 . S
C134 H128 0.930 . S
C134 C135 1.355 1_556 S
C134 C136 1.415 1_556 S
C135 C134 1.355 1_554 S
C135 C137 1.419 . S
C136 C134 1.415 1_554 S
C136 C141 1.425 . S
C136 C143 1.409 1_554 S
C137 H129 0.930 . S
C137 C135 1.419 . S
C137 C138 1.362 . S
C138 H130 0.930 . S
C138 C137 1.362 . S
C138 C141 1.409 . S
C139 H131 0.930 . S
C139 C140 1.355 . S
C139 C141 1.415 . S
C140 C139 1.355 . S
C140 C142 1.419 1_554 S
C141 C136 1.425 . S
C141 C138 1.409 . S
C141 C139 1.415 . S
C142 H132 0.930 . S
C142 C140 1.419 1_556 S
C142 C143 1.362 . S
C143 H133 0.930 . S
C143 C136 1.409 1_556 S
C143 C142 1.362 . S
H144 C150 0.930 . S
H145 C153 0.930 . S
H146 C154 0.930 . S
H147 C155 0.930 . S
H148 C158 0.930 . S
H149 C159 0.930 . S
C150 H144 0.930 . S
C150 C151 1.355 . S
C150 C152 1.415 . S
C151 C150 1.355 . S
C151 C153 1.419 . S
C152 C150 1.415 . S
C152 C157 1.425 . S
C152 C159 1.409 . S
C153 H145 0.930 . S
C153 C151 1.419 . S
C153 C154 1.362 . S
C154 H146 0.930 . S
C154 C153 1.362 . S
C154 C157 1.409 . S
C155 H147 0.930 . S
C155 C156 1.355 . S
C155 C157 1.415 . S
C156 C155 1.355 . S
C156 C158 1.419 . S
C157 C152 1.425 . S
C157 C154 1.409 . S
C157 C155 1.415 . S
C158 H148 0.930 . S
C158 C156 1.419 . S
C158 C159 1.362 . S
C159 H149 0.930 . S
C159 C152 1.409 . S
C159 C158 1.362 . S
H160 C166 0.930 . S
H161 C169 0.930 . S
H162 C170 0.930 . S
H163 C171 0.930 . S
H164 C174 0.930 . S
H165 C175 0.930 . S
C166 H160 0.930 . S
C166 C167 1.355 . S
C166 C168 1.415 . S
C167 C166 1.355 . S
C167 C169 1.419 . S
C168 C166 1.415 . S
C168 C173 1.425 . S
C168 C175 1.409 . S
C169 H161 0.930 . S
C169 C167 1.419 . S
C169 C170 1.362 . S
C170 H162 0.930 . S
C170 C169 1.362 . S
C170 C173 1.409 . S
C171 H163 0.930 . S
C171 C172 1.355 . S
C171 C173 1.415 . S
C172 C171 1.355 . S
C172 C174 1.419 . S
C173 C168 1.425 . S
C173 C170 1.409 . S
C173 C171 1.415 . S
C174 H164 0.930 . S
C174 C172 1.419 . S
C174 C175 1.362 . S
C175 H165 0.930 . S
C175 C168 1.409 . S
C175 C174 1.362 . S
H176 C182 0.930 . S
H177 C185 0.930 . S
H178 C186 0.930 . S
H179 C187 0.930 . S
H180 C190 0.930 . S
H181 C191 0.930 . S
C182 H176 0.930 . S
C182 C183 1.355 . S
C182 C184 1.415 . S
C183 C182 1.355 . S
C183 C185 1.419 . S
C184 C182 1.415 . S
C184 C189 1.425 . S
C184 C191 1.409 . S
C185 H177 0.930 . S
C185 C183 1.419 . S
C185 C186 1.362 . S
C186 H178 0.930 . S
C186 C185 1.362 . S
C186 C189 1.409 . S
C187 H179 0.930 . S
C187 C188 1.355 . S
C187 C189 1.415 . S
C188 C187 1.355 . S
C188 C190 1.419 . S
C189 C184 1.425 . S
C189 C186 1.409 . S
C189 C187 1.415 . S
C190 H180 0.930 . S
C190 C188 1.419 . S
C190 C191 1.362 . S
C191 H181 0.930 . S
C191 C184 1.409 . S
C191 C190 1.362 . S
H192 C198 0.930 . S
H193 C201 0.930 . S
H194 C202 0.930 . S
H195 C203 0.930 . S
H196 C206 0.930 . S
H197 C207 0.930 . S
C198 H192 0.930 . S
C198 C199 1.355 . S
C198 C200 1.415 . S
C199 C198 1.355 . S
C199 C201 1.419 . S
C200 C198 1.415 . S
C200 C205 1.425 . S
C200 C207 1.409 . S
C201 H193 0.930 . S
C201 C199 1.419 . S
C201 C202 1.362 . S
C202 H194 0.930 . S
C202 C201 1.362 . S
C202 C205 1.409 . S
C203 H195 0.930 . S
C203 C204 1.355 . S
C203 C205 1.415 . S
C204 C203 1.355 . S
C204 C206 1.419 . S
C205 C200 1.425 . S
C205 C202 1.409 . S
C205 C203 1.415 . S
C206 H196 0.930 . S
C206 C204 1.419 . S
C206 C207 1.362 . S
C207 H197 0.930 . S
C207 C200 1.409 . S
C207 C206 1.362 . S
H208 C214 0.930 . S
H209 C217 0.930 . S
H210 C218 0.930 . S
H211 C219 0.930 . S
H212 C222 0.930 . S
H213 C223 0.930 . S
C214 H208 0.930 . S
C214 C215 1.355 . S
C214 C216 1.415 . S
C215 C214 1.355 . S
C215 C217 1.419 . S
C216 C214 1.415 . S
C216 C221 1.425 . S
C216 C223 1.409 . S
C217 H209 0.930 . S
C217 C215 1.419 . S
C217 C218 1.362 . S
C218 H210 0.930 . S
C218 C217 1.362 . S
C218 C221 1.409 . S
C219 H211 0.930 . S
C219 C220 1.355 . S
C219 C221 1.415 . S
C220 C219 1.355 . S
C220 C222 1.419 . S
C221 C216 1.425 . S
C221 C218 1.409 . S
C221 C219 1.415 . S
C222 H212 0.930 . S
C222 C220 1.419 . S
C222 C223 1.362 . S
C223 H213 0.930 . S
C223 C216 1.409 . S
C223 C222 1.362 . S
H224 C230 0.930 . S
H225 C233 0.930 . S
H226 C234 0.930 . S
H227 C235 0.930 . S
H228 C238 0.930 . S
H229 C239 0.930 . S
C230 H224 0.930 . S
C230 C231 1.355 . S
C230 C232 1.415 . S
C231 C230 1.355 . S
C231 C233 1.419 . S
C232 C230 1.415 . S
C232 C237 1.425 . S
C232 C239 1.409 . S
C233 H225 0.930 . S
C233 C231 1.419 . S
C233 C234 1.362 . S
C234 H226 0.930 . S
C234 C233 1.362 . S
C234 C237 1.409 . S
C235 H227 0.930 . S
C235 C236 1.355 . S
C235 C237 1.415 . S
C236 C235 1.355 . S
C236 C238 1.419 . S
C237 C232 1.425 . S
C237 C234 1.409 . S
C237 C235 1.415 . S
C238 H228 0.930 . S
C238 C236 1.419 . S
C238 C239 1.362 . S
C239 H229 0.930 . S
C239 C232 1.409 . S
C239 C238 1.362 . S
H240 C246 0.930 . S
H241 C249 0.930 . S
H242 C250 0.930 . S
H243 C251 0.930 . S
H244 C254 0.930 . S
H245 C255 0.930 . S
C246 H240 0.930 . S
C246 C247 1.355 . S
C246 C248 1.415 . S
C247 C246 1.355 . S
C247 C249 1.419 . S
C248 C246 1.415 . S
C248 C253 1.425 . S
C248 C255 1.409 . S
C249 H241 0.930 . S
C249 C247 1.419 . S
C249 C250 1.362 . S
C250 H242 0.930 . S
C250 C249 1.362 . S
C250 C253 1.409 . S
C251 H243 0.930 . S
C251 C252 1.355 . S
C251 C253 1.415 . S
C252 C251 1.355 . S
C252 C254 1.419 . S
C253 C248 1.425 . S
C253 C250 1.409 . S
C253 C251 1.415 . S
C254 H244 0.930 . S
C254 C252 1.419 . S
C254 C255 1.362 . S
C255 H245 0.930 . S
C255 C248 1.409 . S
C255 C254 1.362 . S
H256 C262 0.930 . S
H257 C265 0.930 . S
H258 C266 0.930 . S
H259 C267 0.930 . S
H260 C270 0.930 1_455 S
H261 C271 0.930 . S
C262 H256 0.930 . S
C262 C263 1.355 . S
C262 C264 1.415 . S
C263 C262 1.355 . S
C263 C265 1.419 . S
C264 C262 1.415 . S
C264 C269 1.425 . S
C264 C271 1.409 . S
C265 H257 0.930 . S
C265 C263 1.419 . S
C265 C266 1.362 . S
C266 H258 0.930 . S
C266 C265 1.362 . S
C266 C269 1.409 . S
C267 H259 0.930 . S
C267 C268 1.355 . S
C267 C269 1.415 . S
C268 C267 1.355 . S
C268 C270 1.419 . S
C269 C264 1.425 . S
C269 C266 1.409 . S
C269 C267 1.415 . S
C270 H260 0.930 1_655 S
C270 C268 1.419 . S
C270 C271 1.362 . S
C271 H261 0.930 . S
C271 C264 1.409 . S
C271 C270 1.362 . S
H272 C278 0.930 . S
H273 C281 0.930 . S
H274 C282 0.930 . S
H275 C283 0.930 . S
H276 C286 0.930 . S
H277 C287 0.930 . S
C278 H272 0.930 . S
C278 C279 1.355 . S
C278 C280 1.415 . S
C279 C278 1.355 . S
C279 C281 1.419 . S
C280 C278 1.415 . S
C280 C285 1.425 . S
C280 C287 1.409 . S
C281 H273 0.930 . S
C281 C279 1.419 . S
C281 C282 1.362 . S
C282 H274 0.930 . S
C282 C281 1.362 . S
C282 C285 1.409 . S
C283 H275 0.930 . S
C283 C284 1.355 . S
C283 C285 1.415 . S
C284 C283 1.355 . S
C284 C286 1.419 . S
C285 C280 1.425 . S
C285 C282 1.409 . S
C285 C283 1.415 . S
C286 H276 0.930 . S
C286 C284 1.419 . S
C286 C287 1.362 . S
C287 H277 0.930 . S
C287 C280 1.409 . S
C287 C286 1.362 . S
H288 C294 0.930 . S
H289 C297 0.930 . S
H290 C298 0.930 . S
H291 C299 0.930 . S
H292 C302 0.930 1_545 S
H293 C303 0.930 . S
C294 H288 0.930 . S
C294 C295 1.355 . S
C294 C296 1.415 . S
C295 C294 1.355 . S
C295 C297 1.419 . S
C296 C294 1.415 . S
C296 C301 1.425 . S
C296 C303 1.409 . S
C297 H289 0.930 . S
C297 C295 1.419 . S
C297 C298 1.362 . S
C298 H290 0.930 . S
C298 C297 1.362 . S
C298 C301 1.409 . S
C299 H291 0.930 . S
C299 C300 1.355 . S
C299 C301 1.415 . S
C300 C299 1.355 . S
C300 C302 1.419 . S
C301 C296 1.425 . S
C301 C298 1.409 . S
C301 C299 1.415 . S
C302 H292 0.930 1_565 S
C302 C300 1.419 . S
C302 C303 1.362 . S
C303 H293 0.930 . S
C303 C296 1.409 . S
C303 C302 1.362 . S
C124 C48 1.498 . S
C119 N37 1.502 . S
C135 N4 1.490 . S
C140 C91 1.494 . S
C151 N15 1.500 . S
C156 C57 1.497 . S
C167 N26 1.490 . S
C172 C82 1.498 . S
C188 C44 1.554 . S
C183 C9 1.524 . S
C204 C86 1.526 . S
C199 C17 1.523 . S
C215 C31 1.514 . S
C220 C52 1.548 . S
C231 C42 1.535 . S
C236 C78 1.536 . S
C252 C107 1.465 . S
C247 C20 1.459 . S
C268 C73 1.449 . S
C263 C28 1.454 . S
C284 C95 1.465 . S
C279 C39 1.472 . S
C295 C6 1.440 . S
C300 C61 1.452 . S
