# Generated by pormake.
# Topology csq, (4,8)-cn, num edge types: 1
# Building blocks:
#     Node 0, Type 0, BuildingBlock: IZENUY_clean_linker_0, # of connection points: 4
#     Node 1, Type 0, BuildingBlock: IZENUY_clean_linker_0, # of connection points: 4
#     Node 2, Type 0, BuildingBlock: IZENUY_clean_linker_0, # of connection points: 4
#     Node 3, Type 0, BuildingBlock: IZENUY_clean_linker_0, # of connection points: 4
#     Node 4, Type 0, BuildingBlock: IZENUY_clean_linker_0, # of connection points: 4
#     Node 5, Type 0, BuildingBlock: IZENUY_clean_linker_0, # of connection points: 4
#     Node 6, Type 1, BuildingBlock: TAGTUT_clean_sbu_3, # of connection points: 8
#     Node 7, Type 1, BuildingBlock: TAGTUT_clean_sbu_3, # of connection points: 8
#     Node 8, Type 1, BuildingBlock: TAGTUT_clean_sbu_3, # of connection points: 8
#     Edge 9, Type (0, 1), BuildingBlock: AJUNOK_clean_linker_0, # of connection points: 2
#     Edge 10, Type (0, 1), BuildingBlock: AJUNOK_clean_linker_0, # of connection points: 2
#     Edge 11, Type (0, 1), BuildingBlock: AJUNOK_clean_linker_0, # of connection points: 2
#     Edge 12, Type (0, 1), BuildingBlock: AJUNOK_clean_linker_0, # of connection points: 2
#     Edge 13, Type (0, 1), BuildingBlock: AJUNOK_clean_linker_0, # of connection points: 2
#     Edge 14, Type (0, 1), BuildingBlock: AJUNOK_clean_linker_0, # of connection points: 2
#     Edge 15, Type (0, 1), BuildingBlock: AJUNOK_clean_linker_0, # of connection points: 2
#     Edge 16, Type (0, 1), BuildingBlock: AJUNOK_clean_linker_0, # of connection points: 2
#     Edge 17, Type (0, 1), BuildingBlock: AJUNOK_clean_linker_0, # of connection points: 2
#     Edge 18, Type (0, 1), BuildingBlock: AJUNOK_clean_linker_0, # of connection points: 2
#     Edge 19, Type (0, 1), BuildingBlock: AJUNOK_clean_linker_0, # of connection points: 2
#     Edge 20, Type (0, 1), BuildingBlock: AJUNOK_clean_linker_0, # of connection points: 2
#     Edge 21, Type (0, 1), BuildingBlock: AJUNOK_clean_linker_0, # of connection points: 2
#     Edge 22, Type (0, 1), BuildingBlock: AJUNOK_clean_linker_0, # of connection points: 2
#     Edge 23, Type (0, 1), BuildingBlock: AJUNOK_clean_linker_0, # of connection points: 2
#     Edge 24, Type (0, 1), BuildingBlock: AJUNOK_clean_linker_0, # of connection points: 2
#     Edge 25, Type (0, 1), BuildingBlock: AJUNOK_clean_linker_0, # of connection points: 2
#     Edge 26, Type (0, 1), BuildingBlock: AJUNOK_clean_linker_0, # of connection points: 2
#     Edge 27, Type (0, 1), BuildingBlock: AJUNOK_clean_linker_0, # of connection points: 2
#     Edge 28, Type (0, 1), BuildingBlock: AJUNOK_clean_linker_0, # of connection points: 2
#     Edge 29, Type (0, 1), BuildingBlock: AJUNOK_clean_linker_0, # of connection points: 2
#     Edge 30, Type (0, 1), BuildingBlock: AJUNOK_clean_linker_0, # of connection points: 2
#     Edge 31, Type (0, 1), BuildingBlock: AJUNOK_clean_linker_0, # of connection points: 2
#     Edge 32, Type (0, 1), BuildingBlock: AJUNOK_clean_linker_0, # of connection points: 2
# Relax obj value: 0.055
# Max RMSD: 0.129
# Mean RMSD: 0.120
data_MOF--net-csq--node1-TAGTUT_clean_sbu_3--node2-IZENUY_clean_linker_0--edge1-AJUNOK_clean_linker_0
_symmetry_space_group_name_H-M    P1
_symmetry_Int_Tables_number       1
_symmetry_cell_setting            triclinic
loop_
_symmetry_equiv_pos_as_xyz
'x, y, z'
_cell_length_a     44.092176
_cell_length_b     43.696967
_cell_length_c     14.595145
_cell_angle_alpha  95.138843
_cell_angle_beta   93.696266
_cell_angle_gamma 119.28357
loop_
_atom_site_label
_atom_site_type_symbol
_atom_site_fract_x
_atom_site_fract_y
_atom_site_fract_z
_atom_type_partial_charge
H0 H 0.2231 0.46465 0.02484 0.0
H1 H 0.22762 0.49788 0.31576 0.0
H2 H 0.13093 0.45307 0.13454 0.0
H3 H 0.32185 0.50633 0.2862 0.0
H4 H 0.32452 0.50001 -0.00951 0.0
H5 H 0.41725 0.52995 0.17473 0.0
N6 N 0.26626 0.49434 0.18698 0.0
N7 N 0.28337 0.49484 0.1215 0.0
C8 C 0.2104 0.46724 0.08381 0.0
C9 C 0.17446 0.45546 0.07121 0.0
C10 C 0.22982 0.48266 0.17223 0.0
C11 C 0.21282 0.4864 0.24762 0.0
C12 C 0.17678 0.47513 0.23456 0.0
C13 C 0.15826 0.46006 0.14615 0.0
C14 C 0.33641 0.51091 0.22706 0.0
C15 C 0.37156 0.51954 0.24015 0.0
C16 C 0.31956 0.50549 0.13688 0.0
C17 C 0.33807 0.50732 0.06031 0.0
C18 C 0.37365 0.51687 0.07459 0.0
C19 C 0.39043 0.52479 0.1645 0.0
H20 H 0.73863 0.22207 0.94526 0.0
H21 H 0.73844 0.22464 0.24206 0.0
H22 H 0.64952 0.14477 0.05764 0.0
H23 H 0.83407 0.30513 0.21631 0.0
H24 H 0.82322 0.31661 0.92687 0.0
H25 H 0.91691 0.39102 0.10598 0.0
N26 N 0.77563 0.25935 0.11422 0.0
N27 N 0.7907 0.27642 0.05146 0.0
C28 C 0.72534 0.21213 0.00485 0.0
C29 C 0.69165 0.18201 -0.00834 0.0
C30 C 0.7419 0.22856 0.09618 0.0
C31 C 0.72516 0.21347 0.17221 0.0
C32 C 0.69163 0.18359 0.15783 0.0
C33 C 0.67488 0.16892 0.06819 0.0
C34 C 0.84424 0.31936 0.15837 0.0
C35 C 0.87786 0.34953 0.17129 0.0
C36 C 0.82437 0.30732 0.06936 0.0
C37 C 0.83826 0.32596 -0.00491 0.0
C38 C 0.87138 0.35646 0.00848 0.0
C39 C 0.89086 0.36788 0.09628 0.0
H40 H 0.55575 0.73489 0.88859 0.0
H41 H 0.53185 0.72691 0.17105 0.0
H42 H 0.54705 0.64744 0.01986 0.0
H43 H 0.54698 0.82073 0.12878 0.0
H44 H 0.54725 0.82171 0.83287 0.0
H45 H 0.54961 0.90768 0.00865 0.0
N46 N 0.54272 0.76702 0.03646 0.0
N47 N 0.54624 0.7839 0.96929 0.0
C48 C 0.55046 0.72094 0.9485 0.0
C49 C 0.55236 0.68986 0.94579 0.0
C50 C 0.54297 0.73448 0.02984 0.0
C51 C 0.53705 0.71625 0.10789 0.0
C52 C 0.53791 0.68437 0.1042 0.0
C53 C 0.54555 0.67157 0.02277 0.0
C54 C 0.54756 0.83332 0.06774 0.0
C55 C 0.54832 0.86573 0.07781 0.0
C56 C 0.54708 0.81706 -0.02051 0.0
C57 C 0.54777 0.83411 0.90108 0.0
C58 C 0.54924 0.86726 0.91143 0.0
C59 C 0.54927 0.88257 9e-05 0.0
H60 H 0.75357 0.54247 0.88555 0.0
H61 H 0.77027 0.55899 0.18537 0.0
H62 H 0.68719 0.56719 0.04102 0.0
H63 H 0.84447 0.53898 0.11642 0.0
H64 H 0.83944 0.53576 0.81869 0.0
H65 H 0.91523 0.51862 0.97084 0.0
N66 N 0.79549 0.54561 0.03609 0.0
N67 N 0.80741 0.54133 0.96364 0.0
C68 C 0.74686 0.54891 0.95188 0.0
C69 C 0.71844 0.55488 0.95457 0.0
C70 C 0.76636 0.55125 0.0355 0.0
C71 C 0.75636 0.55859 0.1209 0.0
C72 C 0.72811 0.56494 0.12256 0.0
C73 C 0.70976 0.5634 0.03948 0.0
C74 C 0.85279 0.53412 0.0511 0.0
C75 C 0.88085 0.52763 0.05162 0.0
C76 C 0.83644 0.53542 0.96626 0.0
C77 C 0.85014 0.53231 0.88333 0.0
C78 C 0.87848 0.52587 0.88519 0.0
C79 C 0.89237 0.52202 0.9688 0.0
H80 H 0.20656 0.74858 0.9638 0.0
H81 H 0.22268 0.75596 0.2619 0.0
H82 H 0.14052 0.66044 0.10116 0.0
H83 H 0.30507 0.8441 0.20756 0.0
H84 H 0.27095 0.85224 0.93133 0.0
H85 H 0.36459 0.9387 0.08656 0.0
N86 N 0.24665 0.79169 0.1238 0.0
N87 N 0.25454 0.80945 0.0582 0.0
C88 C 0.19918 0.73706 0.02704 0.0
C89 C 0.17085 0.70231 0.02228 0.0
C90 C 0.21779 0.75666 0.11431 0.0
C91 C 0.2082 0.74114 0.19527 0.0
C92 C 0.18056 0.70649 0.1905 0.0
C93 C 0.16193 0.68742 0.10437 0.0
C94 C 0.30826 0.85918 0.15038 0.0
C95 C 0.33779 0.89313 0.15589 0.0
C96 C 0.28375 0.84437 0.06906 0.0
C97 C 0.28892 0.86399 -0.00506 0.0
C98 C 0.31762 0.89832 0.00182 0.0
C99 C 0.34164 0.91262 0.08247 0.0
H100 H 0.52003 0.21301 0.07149 0.0
H101 H 0.50584 0.22368 0.35883 0.0
H102 H 0.54979 0.16003 0.2622 0.0
H103 H 0.48586 0.29401 0.25403 0.0
H104 H 0.5046 0.28785 0.96813 0.0
H105 H 0.4782 0.36475 0.08012 0.0
N106 N 0.50483 0.24978 0.20101 0.0
N107 N 0.50434 0.26027 0.12422 0.0
C108 C 0.5242 0.20827 0.14144 0.0
C109 C 0.53572 0.18414 0.15736 0.0
C110 C 0.51542 0.22439 0.21518 0.0
C111 C 0.51569 0.21402 0.30385 0.0
C112 C 0.52787 0.19047 0.32044 0.0
C113 C 0.54042 0.1782 0.2487 0.0
C114 C 0.48626 0.30243 0.18631 0.0
C115 C 0.47979 0.33035 0.17532 0.0
C116 C 0.49493 0.28664 0.11164 0.0
C117 C 0.49674 0.29898 0.02494 0.0
C118 C 0.48983 0.32669 0.01304 0.0
C119 C 0.48124 0.34192 0.0882 0.0
C120 C 0.08477 0.48557 0.48687 0.0
C121 C 0.07616 0.44875 0.8067 0.0
C122 C 0.97201 0.43985 0.77992 0.0
Mg123 Mg 0.04858 0.52521 0.38475 0.0
Mg124 Mg 0.03343 0.58259 0.50983 0.0
O125 O 0.02614 0.53626 0.48692 0.0
Mg126 Mg 0.03905 0.51611 0.58667 0.0
O127 O 0.05179 0.49293 0.68015 0.0
Mg128 Mg 0.0249 0.44199 0.61944 0.0
Mg129 Mg 0.04736 0.50126 0.80447 0.0
C130 C 0.99015 0.54757 0.67113 0.0
O131 O 0.08018 0.57131 0.67169 0.0
O132 O 1.01196 0.5381 0.29494 0.0
O133 O 0.07354 0.55865 0.81852 0.0
O134 O 0.0925 0.58275 0.39893 0.0
O135 O 1.00249 0.57662 0.38537 0.0
O136 O 0.08711 0.62108 0.49776 0.0
O137 O 0.9969 0.4598 0.51595 0.0
O138 O 1.00472 0.46813 0.36941 0.0
C139 C 0.98916 0.44819 0.42931 0.0
C140 C 0.99672 0.5565 0.3096 0.0
O141 O 0.99796 0.5227 0.6635 0.0
O142 O 0.05825 0.4316 0.72825 0.0
O143 O 1.00504 0.57504 0.62952 0.0
O144 O 0.98053 0.42644 0.71188 0.0
O145 O 0.07566 0.47573 0.84726 0.0
O146 O 0.99311 0.47078 0.82266 0.0
O147 O 0.07894 0.51167 0.49716 0.0
O148 O 0.06799 0.45812 0.52658 0.0
C149 C 0.10432 0.61411 0.44043 0.0
C150 C 0.08604 0.58077 0.76024 0.0
C151 C 0.51002 0.07733 0.49038 0.0
C152 C 0.60688 0.06934 0.34898 0.0
C153 C 0.55216 0.95744 0.38604 0.0
Mg154 Mg 0.46493 0.03743 0.64729 0.0
Mg155 Mg 0.49013 0.99973 0.79758 0.0
O156 O 0.48356 1.00491 0.67487 0.0
Mg157 Mg 0.52103 0.01935 0.5931 0.0
O158 O 0.55532 0.03455 0.50423 0.0
Mg159 Mg 0.52333 0.01699 0.38559 0.0
Mg160 Mg 0.59373 0.02703 0.51404 0.0
C161 C 0.52694 0.95923 0.7113 0.0
O162 O 0.5682 0.05679 0.70318 0.0
O163 O 0.41811 1.00415 0.72703 0.0
O164 O 0.61355 0.05168 0.65637 0.0
O165 O 0.49582 0.07679 0.78138 0.0
O166 O 0.43612 0.97507 0.81612 0.0
O167 O 0.51751 0.05165 0.87229 0.0
O168 O 0.47738 0.98468 0.47091 0.0
O169 O 0.4368 0.99744 0.51638 0.0
C170 C 0.44639 0.98066 0.45958 0.0
C171 C 0.41248 0.98134 0.78274 0.0
O172 O 0.52971 0.97242 0.63437 0.0
O173 O 0.57366 0.05445 0.32428 0.0
O174 O 0.51499 0.96814 0.78028 0.0
O175 O 0.53367 0.97069 0.35768 0.0
O176 O 0.62012 0.06181 0.41786 0.0
O177 O 0.57648 0.97337 0.45415 0.0
O178 O 0.51199 0.06594 0.56693 0.0
O179 O 0.51393 0.06334 0.41492 0.0
C180 C 0.5142 0.07798 0.85464 0.0
C181 C 0.60069 0.06505 0.71322 0.0
C182 C 0.56362 0.58975 0.71828 0.0
C183 C 0.46309 0.48941 0.85462 0.0
C184 C 0.50376 0.42223 0.75416 0.0
Mg185 Mg 0.59689 0.58742 0.52926 0.0
Mg186 Mg 0.54877 0.52604 0.35497 0.0
O187 O 0.5674 0.53584 0.47943 0.0
Mg188 Mg 0.53621 0.51759 0.57719 0.0
O189 O 0.50716 0.50183 0.67906 0.0
Mg190 Mg 0.54283 0.51309 0.78575 0.0
Mg191 Mg 0.46654 0.45687 0.66192 0.0
C192 C 0.50628 0.44946 0.41674 0.0
O193 O 0.48833 0.51315 0.49684 0.0
O194 O 0.63408 0.58849 0.42057 0.0
O195 O 0.44301 0.46369 0.53509 0.0
O196 O 0.56883 0.60644 0.42757 0.0
O197 O 0.59922 0.54202 0.31075 0.0
O198 O 0.53065 0.56205 0.32157 0.0
O199 O 0.58145 0.52013 0.67338 0.0
O200 O 0.62391 0.56968 0.63055 0.0
C201 C 0.61377 0.54421 0.67892 0.0
C202 C 0.62951 0.56717 0.34744 0.0
O203 O 0.51662 0.46083 0.50376 0.0
O204 O 0.49688 0.50686 0.87181 0.0
O205 O 0.51275 0.47002 0.3542 0.0
O206 O 0.52614 0.45398 0.79006 0.0
O207 O 0.44658 0.46806 0.78029 0.0
O208 O 0.4788 0.41602 0.69227 0.0
O209 O 0.55607 0.57595 0.63343 0.0
O210 O 0.55943 0.57099 0.78355 0.0
C211 C 0.54513 0.59442 0.35789 0.0
C212 C 0.45553 0.49028 0.48953 0.0
C213 C 0.12365 0.44927 0.31583 0.0
C214 C 0.15681 0.47839 0.30968 0.0
C215 C 0.10058 0.45246 0.37168 0.0
C216 C 0.10962 0.48484 0.42472 0.0
H217 H 0.11498 0.42386 0.27473 0.0
H218 H 0.07516 0.4293 0.37251 0.0
S219 S 0.19554 0.56742 0.44744 0.0
N220 N 0.19905 0.53982 0.3695 0.0
N221 N 0.15559 0.5455 0.47732 0.0
C222 C 0.14331 0.51381 0.42358 0.0
C223 C 0.16703 0.51057 0.36598 0.0
C224 C 0.64027 0.15345 0.24103 0.0
C225 C 0.67507 0.16254 0.23126 0.0
C226 C 0.61826 0.12287 0.27802 0.0
C227 C 0.63048 0.10061 0.30741 0.0
H228 H 0.62927 0.16857 0.21304 0.0
H229 H 0.59138 0.11642 0.28244 0.0
S230 S 0.72052 0.11489 0.30477 0.0
N231 N 0.7215 0.14856 0.25914 0.0
N232 N 0.68036 0.09135 0.33172 0.0
C233 C 0.66593 0.11081 0.30414 0.0
C234 C 0.68826 0.14187 0.26577 0.0
C235 C 0.5087 0.62828 0.17458 0.0
C236 C 0.53353 0.66465 0.185 0.0
C237 C 0.51084 0.60612 0.23547 0.0
C238 C 0.538 0.61947 0.30971 0.0
H239 H 0.48873 0.61644 0.1154 0.0
H240 H 0.49226 0.57798 0.22071 0.0
S241 S 0.60596 0.71424 0.37661 0.0
N242 N 0.58329 0.71391 0.28158 0.0
N243 N 0.5873 0.67278 0.39767 0.0
C244 C 0.56084 0.65654 0.32647 0.0
C245 C 0.55862 0.67901 0.26377 0.0
C246 C 0.92976 0.56892 0.16932 0.0
C247 C 0.90393 0.5338 0.13601 0.0
C248 C 0.96028 0.57628 0.22462 0.0
C249 C 0.966 0.54871 0.24634 0.0
H250 H 0.92741 0.59079 0.14735 0.0
H251 H 0.97995 0.60365 0.24829 0.0
S252 S 0.90328 0.45243 0.19018 0.0
N253 N 0.88383 0.47135 0.13762 0.0
N254 N 0.94124 0.48509 0.24251 0.0
C255 C 0.93933 0.5135 0.21842 0.0
C256 C 0.90819 0.50606 0.16309 0.0
C257 C 0.35715 0.91716 0.32378 0.0
C258 C 0.3654 0.90935 0.23683 0.0
C259 C 0.38369 0.93942 0.39586 0.0
C260 C 0.41952 0.95451 0.38399 0.0
H261 H 0.33006 0.90762 0.33462 0.0
H262 H 0.37597 0.94553 0.4609 0.0
S263 S 0.45459 0.93938 0.17099 0.0
N264 N 0.41161 0.91612 0.14403 0.0
N265 N 0.46149 0.95782 0.27971 0.0
C266 C 0.42803 0.94516 0.29883 0.0
C267 C 0.40097 0.92266 0.22521 0.0
C268 C 0.50451 0.36571 0.33248 0.0
C269 C 0.47781 0.35191 0.25685 0.0
C270 C 0.51074 0.39516 0.39465 0.0
C271 C 0.49058 0.41164 0.38233 0.0
H272 H 0.52298 0.35618 0.33822 0.0
H273 H 0.53383 0.40741 0.44564 0.0
S274 S 0.41226 0.38028 0.21094 0.0
N275 N 0.42664 0.35238 0.18567 0.0
N276 N 0.43918 0.40846 0.30091 0.0
C277 C 0.4612 0.39539 0.31471 0.0
C278 C 0.45459 0.36526 0.25221 0.0
C279 C 0.51713 0.87407 0.77416 0.0
C280 C 0.54874 0.88617 0.83185 0.0
C281 C 0.51171 0.8971 0.72253 0.0
C282 C 0.53784 0.93281 0.72603 0.0
H283 H 0.49526 0.84784 0.77638 0.0
H284 H 0.48574 0.88789 0.68727 0.0
S285 S 0.62676 0.97597 0.85619 0.0
N286 N 0.60777 0.93498 0.88114 0.0
N287 N 0.59757 0.97794 0.7838 0.0
C288 C 0.57064 0.94407 0.77591 0.0
C289 C 0.5761 0.92081 0.82889 0.0
C290 C 0.69374 0.58175 0.85449 0.0
C291 C 0.69615 0.55186 0.87112 0.0
C292 C 0.6666 0.57861 0.79276 0.0
C293 C 0.64068 0.54539 0.74608 0.0
H294 H 0.7121 0.60755 0.89286 0.0
H295 H 0.66544 0.60235 0.78319 0.0
S296 S 0.63772 0.45969 0.7575 0.0
N297 N 0.6722 0.48844 0.83151 0.0
N298 N 0.62083 0.48249 0.71377 0.0
C299 C 0.64349 0.51541 0.75912 0.0
C300 C 0.67147 0.5187 0.82183 0.0
C301 C 0.16568 0.66517 0.87449 0.0
C302 C 0.15055 0.67974 0.93348 0.0
C303 C 0.14455 0.63487 0.80885 0.0
C304 C 0.10777 0.61842 0.8004 0.0
H305 H 0.19367 0.67519 0.88493 0.0
H306 H 0.1569 0.62245 0.77077 0.0
S307 S 0.05579 0.64925 0.92902 0.0
N308 N 0.0969 0.67787 0.97127 0.0
N309 N 0.05744 0.62109 0.84888 0.0
C310 C 0.09267 0.63467 0.85303 0.0
C311 C 0.11402 0.66536 0.91929 0.0
C312 C 0.52085 0.12323 0.09094 0.0
C313 C 0.53546 0.1593 0.07984 0.0
C314 C 0.51634 0.09786 0.01865 0.0
C315 C 0.52503 0.10699 0.93068 0.0
H316 H 0.51108 0.11384 0.15489 0.0
H317 H 0.50392 0.07041 0.03055 0.0
S318 S 0.56695 0.19732 0.86456 0.0
N319 N 0.56182 0.20311 -0.02522 0.0
N320 N 0.55071 0.15425 0.83587 0.0
C321 C 0.54036 0.14273 0.91777 0.0
C322 C 0.54611 0.16912 -0.00706 0.0
C323 C 0.38774 0.4757 -0.01348 0.0
C324 C 0.392 0.50989 0.00188 0.0
C325 C 0.41189 0.46955 0.94233 0.0
C326 C 0.44151 0.4975 0.91375 0.0
H327 H 0.36647 0.45388 0.01291 0.0
H328 H 0.40754 0.44278 0.93099 0.0
S329 S 0.46168 0.59072 0.92493 0.0
N330 N 0.4262 0.57138 -0.02221 0.0
N331 N 0.47152 0.55969 0.89324 0.0
C332 C 0.44537 0.53154 0.92532 0.0
C333 C 0.42063 0.53777 0.96985 0.0
C334 C 0.90209 0.41251 0.94017 0.0
C335 C 0.88795 0.3756 0.93112 0.0
C336 C 0.92728 0.43308 0.88508 0.0
C337 C 0.9391 0.41738 0.81857 0.0
H338 H 0.89537 0.4258 -0.00553 0.0
H339 H 0.93911 0.46164 0.89886 0.0
S340 S 0.90502 0.32081 0.7566 0.0
N341 N 0.8837 0.32361 0.84299 0.0
N342 N 0.93054 0.36193 0.73735 0.0
C343 C 0.92215 0.38004 0.80185 0.0
C344 C 0.89664 0.35919 0.8587 0.0
C345 C 0.90512 0.50175 0.77719 0.0
C346 C 0.89947 0.52978 0.80785 0.0
C347 C 0.93461 0.50784 0.73377 0.0
C348 C 0.95967 0.54224 0.71943 0.0
H349 H 0.88789 0.47532 0.79289 0.0
H350 H 0.93802 0.4854 0.71282 0.0
S351 S 0.95606 0.62445 0.7847 0.0
N352 N 0.92046 0.59282 0.81887 0.0
N353 N 0.97581 0.60452 0.73632 0.0
C354 C 0.95339 0.57026 0.74608 0.0
C355 C 0.92325 0.56394 0.7901 0.0
C356 C 0.33656 0.90193 0.84638 0.0
C357 C 0.32749 0.91728 0.92058 0.0
C358 C 0.36156 0.92329 0.79215 0.0
C359 C 0.37751 0.96036 0.80969 0.0
H360 H 0.328 0.87388 0.8381 0.0
H361 H 0.37117 0.91101 0.74297 0.0
S362 S 0.35592 0.01242 -0.02022 0.0
N363 N 0.33087 0.97086 -0.00336 0.0
N364 N 0.37797 0.01109 0.89358 0.0
C365 C 0.36477 0.97557 0.87388 0.0
C366 C 0.33945 0.95386 0.92954 0.0
C367 C 0.46739 0.33762 0.86452 0.0
C368 C 0.49596 0.34405 0.92786 0.0
C369 C 0.47096 0.36123 0.80077 0.0
C370 C 0.50308 0.39263 0.79981 0.0
H371 H 0.44158 0.31559 0.86875 0.0
H372 H 0.44766 0.35632 0.75777 0.0
S373 S 0.58649 0.41948 0.94678 0.0
N374 N 0.55784 0.38197 -0.01943 0.0
N375 N 0.56474 0.42666 0.86289 0.0
C376 C 0.53236 0.39779 0.8586 0.0
C377 C 0.52873 0.3735 0.92226 0.0
C378 C 0.16339 0.46858 0.91603 0.0
C379 C 0.15385 0.44378 -0.02133 0.0
C380 C 0.13795 0.46742 0.85132 0.0
C381 C 0.10258 0.44121 0.84688 0.0
H382 H 0.1895 0.49148 0.92486 0.0
H383 H 0.14539 0.48915 0.811 0.0
S384 S 0.06615 0.36543 -0.02046 0.0
N385 N 0.10827 0.38839 0.01983 0.0
N386 N 0.06031 0.38653 0.89775 0.0
C387 C 0.09364 0.4135 0.89954 0.0
C388 C 0.11953 0.41459 0.96538 0.0
C389 C 0.6406 0.15291 0.87036 0.0
C390 C 0.67424 0.15926 0.90221 0.0
C391 C 0.61679 0.12196 0.81124 0.0
C392 C 0.62568 0.09612 0.78141 0.0
H393 H 0.6318 0.17085 0.89667 0.0
H394 H 0.59111 0.11822 0.78943 0.0
S395 S 0.71111 0.10097 0.84314 0.0
N396 N 0.71566 0.13793 0.89835 0.0
N397 N 0.67126 0.0799 0.78563 0.0
C398 C 0.65985 0.10296 0.80967 0.0
C399 C 0.68405 0.13454 0.87004 0.0
C400 C 0.59211 0.6722 0.87668 0.0
C401 C 0.56215 0.67574 0.86457 0.0
C402 C 0.5954 0.64721 0.81794 0.0
C403 C 0.56896 0.62531 0.74517 0.0
H404 H 0.61116 0.68604 0.93772 0.0
H405 H 0.6167 0.64224 0.83586 0.0
S406 S 0.48885 0.62911 0.67442 0.0
N407 N 0.50831 0.65932 0.76714 0.0
N408 N 0.51475 0.61244 0.65531 0.0
C409 C 0.54134 0.63197 0.7249 0.0
C410 C 0.53781 0.65724 0.78538 0.0
C411 C 0.4871 0.14134 0.39899 0.0
C412 C 0.52066 0.17116 0.40208 0.0
C413 C 0.48242 0.1117 0.44021 0.0
C414 C 0.51094 0.11143 0.4881 0.0
H415 H 0.46529 0.13891 0.35395 0.0
H416 H 0.45719 0.08761 0.42603 0.0
S417 S 0.60265 0.18526 0.53056 0.0
N418 N 0.58177 0.20031 0.46709 0.0
N419 N 0.57269 0.1452 0.54767 0.0
C420 C 0.54355 0.1428 0.50224 0.0
C421 C 0.54847 0.17265 0.4587 0.0
C422 C 0.42032 0.54077 0.36577 0.0
C423 C 0.38698 0.514 0.32477 0.0
C424 C 0.44204 0.53273 0.41982 0.0
C425 C 0.43112 0.49761 0.43492 0.0
H426 H 0.43066 0.5676 0.34988 0.0
H427 H 0.46797 0.55415 0.44778 0.0
S428 S 0.34486 0.41852 0.34859 0.0
N429 N 0.34299 0.45157 0.30707 0.0
N430 N 0.38373 0.43636 0.4104 0.0
C431 C 0.39688 0.471 0.3996 0.0
C432 C 0.37476 0.47926 0.34436 0.0
C433 C 0.93427 0.36581 0.26283 0.0
C434 C 0.90107 0.36309 0.26081 0.0
C435 C 0.96246 0.39081 0.32747 0.0
C436 C 0.95828 0.41351 0.39331 0.0
H437 H 0.93941 0.35127 0.20774 0.0
H438 H 0.98839 0.39476 0.32004 0.0
S439 S 0.87552 0.41307 0.42665 0.0
N440 N 0.86461 0.38207 0.33728 0.0
N441 N 0.91758 0.42867 0.46035 0.0
C442 C 0.92437 0.40814 0.39916 0.0
C443 C 0.89567 0.38291 0.33247 0.0
C444 C 0.51739 0.88434 0.18577 0.0
C445 C 0.54726 0.88214 0.16919 0.0
C446 C 0.51799 0.90583 0.26354 0.0
C447 C 0.54875 0.92647 0.32625 0.0
H448 H 0.49403 0.87084 0.13566 0.0
H449 H 0.49494 0.90824 0.27093 0.0
S450 S 0.63236 0.92567 0.31892 0.0
N451 N 0.60686 0.89845 0.22585 0.0
N452 N 0.60854 0.93974 0.37186 0.0
C453 C 0.57781 0.92189 0.31458 0.0
C454 C 0.57699 0.89962 0.23554 0.0
C455 C 0.71342 0.59991 0.23654 0.0
C456 C 0.71288 0.56799 0.20745 0.0
C457 C 0.68766 0.60021 0.28801 0.0
C458 C 0.6602 0.56843 0.30927 0.0
H459 H 0.73203 0.6242 0.21258 0.0
H460 H 0.68769 0.62488 0.30479 0.0
S461 S 0.64967 0.47876 0.25871 0.0
N462 N 0.68504 0.50476 0.21213 0.0
N463 N 0.63636 0.505 0.30724 0.0
C464 C 0.66109 0.5369 0.28687 0.0
C465 C 0.6876 0.53678 0.23649 0.0
C466 C 0.15352 0.69865 0.33808 0.0
C467 C 0.17091 0.689 0.2742 0.0
C468 C 0.13528 0.67604 0.40194 0.0
C469 C 0.13378 0.64308 0.40283 0.0
H470 H 0.1515 0.72221 0.33338 0.0
H471 H 0.11952 0.68286 0.44399 0.0
S472 S 0.18131 0.60979 0.26088 0.0
N473 N 0.19035 0.64774 0.22482 0.0
N474 N 0.15636 0.60519 0.34415 0.0
C475 C 0.15464 0.63546 0.34625 0.0
C476 C 0.17302 0.65838 0.28167 0.0
loop_
_geom_bond_atom_site_label_1
_geom_bond_atom_site_label_2
_geom_bond_distance
_geom_bond_site_symmetry_2
_ccdc_geom_bond_type
H0 C8 0.940 . S
H1 C11 0.940 . S
H2 C13 0.940 . S
H3 C14 0.940 . S
H4 C17 0.940 . S
H5 C19 0.940 . S
N6 N7 1.190 . S
N6 C10 1.477 . S
N7 N6 1.190 . S
N7 C16 1.477 . S
C8 H0 0.940 . S
C8 C9 1.390 . S
C8 C10 1.322 . S
C9 C8 1.390 . S
C9 C13 1.370 . S
C10 N6 1.477 . S
C10 C8 1.322 . S
C10 C11 1.447 . S
C11 H1 0.940 . S
C11 C10 1.447 . S
C11 C12 1.373 . S
C12 C11 1.373 . S
C12 C13 1.417 . S
C13 H2 0.940 . S
C13 C9 1.370 . S
C13 C12 1.417 . S
C14 H3 0.940 . S
C14 C15 1.390 . S
C14 C16 1.322 . S
C15 C14 1.390 . S
C15 C19 1.370 . S
C16 N7 1.477 . S
C16 C14 1.322 . S
C16 C17 1.447 . S
C17 H4 0.940 . S
C17 C16 1.447 . S
C17 C18 1.373 . S
C18 C17 1.373 . S
C18 C19 1.417 . S
C19 H5 0.940 . S
C19 C15 1.370 . S
C19 C18 1.417 . S
H20 C28 0.940 1_556 S
H21 C31 0.940 . S
H22 C33 0.940 . S
H23 C34 0.940 . S
H24 C37 0.940 1_556 S
H25 C39 0.940 . S
N26 N27 1.190 . S
N26 C30 1.477 . S
N27 N26 1.190 . S
N27 C36 1.477 . S
C28 H20 0.940 1_554 S
C28 C29 1.390 . S
C28 C30 1.322 . S
C29 C28 1.390 . S
C29 C33 1.370 . S
C30 N26 1.477 . S
C30 C28 1.322 . S
C30 C31 1.447 . S
C31 H21 0.940 . S
C31 C30 1.447 . S
C31 C32 1.373 . S
C32 C31 1.373 . S
C32 C33 1.417 . S
C33 H22 0.940 . S
C33 C29 1.370 . S
C33 C32 1.417 . S
C34 H23 0.940 . S
C34 C35 1.390 . S
C34 C36 1.322 . S
C35 C34 1.390 . S
C35 C39 1.370 . S
C36 N27 1.477 . S
C36 C34 1.322 . S
C36 C37 1.447 . S
C37 H24 0.940 1_554 S
C37 C36 1.447 . S
C37 C38 1.373 . S
C38 C37 1.373 . S
C38 C39 1.417 . S
C39 H25 0.940 . S
C39 C35 1.370 . S
C39 C38 1.417 . S
H40 C48 0.940 . S
H41 C51 0.940 . S
H42 C53 0.940 . S
H43 C54 0.940 . S
H44 C57 0.940 . S
H45 C59 0.940 . S
N46 N47 1.190 1_554 S
N46 C50 1.477 . S
N47 N46 1.190 1_556 S
N47 C56 1.477 1_556 S
C48 H40 0.940 . S
C48 C49 1.390 . S
C48 C50 1.322 1_556 S
C49 C48 1.390 . S
C49 C53 1.370 1_556 S
C50 N46 1.477 . S
C50 C48 1.322 1_554 S
C50 C51 1.447 . S
C51 H41 0.940 . S
C51 C50 1.447 . S
C51 C52 1.373 . S
C52 C51 1.373 . S
C52 C53 1.417 . S
C53 H42 0.940 . S
C53 C49 1.370 1_554 S
C53 C52 1.417 . S
C54 H43 0.940 . S
C54 C55 1.390 . S
C54 C56 1.322 . S
C55 C54 1.390 . S
C55 C59 1.370 . S
C56 N47 1.477 1_554 S
C56 C54 1.322 . S
C56 C57 1.447 1_554 S
C57 H44 0.940 . S
C57 C56 1.447 1_556 S
C57 C58 1.373 . S
C58 C57 1.373 . S
C58 C59 1.417 1_556 S
C59 H45 0.940 . S
C59 C55 1.370 . S
C59 C58 1.417 1_554 S
H60 C68 0.940 . S
H61 C71 0.940 . S
H62 C73 0.940 1_556 S
H63 C74 0.940 . S
H64 C77 0.940 . S
H65 C79 0.940 . S
N66 N67 1.190 1_554 S
N66 C70 1.477 . S
N67 N66 1.190 1_556 S
N67 C76 1.477 . S
C68 H60 0.940 . S
C68 C69 1.390 . S
C68 C70 1.322 1_556 S
C69 C68 1.390 . S
C69 C73 1.370 1_556 S
C70 N66 1.477 . S
C70 C68 1.322 1_554 S
C70 C71 1.447 . S
C71 H61 0.940 . S
C71 C70 1.447 . S
C71 C72 1.373 . S
C72 C71 1.373 . S
C72 C73 1.417 . S
C73 H62 0.940 1_554 S
C73 C69 1.370 1_554 S
C73 C72 1.417 . S
C74 H63 0.940 . S
C74 C75 1.390 . S
C74 C76 1.322 1_554 S
C75 C74 1.390 . S
C75 C79 1.370 . S
C76 N67 1.477 . S
C76 C74 1.322 1_556 S
C76 C77 1.447 . S
C77 H64 0.940 . S
C77 C76 1.447 . S
C77 C78 1.373 . S
C78 C77 1.373 . S
C78 C79 1.417 1_556 S
C79 H65 0.940 . S
C79 C75 1.370 . S
C79 C78 1.417 1_554 S
H80 C88 0.940 1_556 S
H81 C91 0.940 . S
H82 C93 0.940 . S
H83 C94 0.940 . S
H84 C97 0.940 1_556 S
H85 C99 0.940 . S
N86 N87 1.190 . S
N86 C90 1.477 . S
N87 N86 1.190 . S
N87 C96 1.477 . S
C88 H80 0.940 1_554 S
C88 C89 1.390 . S
C88 C90 1.322 . S
C89 C88 1.390 . S
C89 C93 1.370 . S
C90 N86 1.477 . S
C90 C88 1.322 . S
C90 C91 1.447 . S
C91 H81 0.940 . S
C91 C90 1.447 . S
C91 C92 1.373 . S
C92 C91 1.373 . S
C92 C93 1.417 . S
C93 H82 0.940 . S
C93 C89 1.370 . S
C93 C92 1.417 . S
C94 H83 0.940 . S
C94 C95 1.390 . S
C94 C96 1.322 . S
C95 C94 1.390 . S
C95 C99 1.370 . S
C96 N87 1.477 . S
C96 C94 1.322 . S
C96 C97 1.447 . S
C97 H84 0.940 1_554 S
C97 C96 1.447 . S
C97 C98 1.373 . S
C98 C97 1.373 . S
C98 C99 1.417 . S
C99 H85 0.940 . S
C99 C95 1.370 . S
C99 C98 1.417 . S
H100 C108 0.940 . S
H101 C111 0.940 . S
H102 C113 0.940 . S
H103 C114 0.940 . S
H104 C117 0.940 . S
H105 C119 0.940 . S
N106 N107 1.190 . S
N106 C110 1.477 . S
N107 N106 1.190 . S
N107 C116 1.477 . S
C108 H100 0.940 . S
C108 C109 1.390 . S
C108 C110 1.322 . S
C109 C108 1.390 . S
C109 C113 1.370 . S
C110 N106 1.477 . S
C110 C108 1.322 . S
C110 C111 1.447 . S
C111 H101 0.940 . S
C111 C110 1.447 . S
C111 C112 1.373 . S
C112 C111 1.373 . S
C112 C113 1.417 . S
C113 H102 0.940 . S
C113 C109 1.370 . S
C113 C112 1.417 . S
C114 H103 0.940 . S
C114 C115 1.390 . S
C114 C116 1.322 . S
C115 C114 1.390 . S
C115 C119 1.370 . S
C116 N107 1.477 . S
C116 C114 1.322 . S
C116 C117 1.447 . S
C117 H104 0.940 . S
C117 C116 1.447 . S
C117 C118 1.373 . S
C118 C117 1.373 . S
C118 C119 1.417 . S
C119 H105 0.940 . S
C119 C115 1.370 . S
C119 C118 1.417 . S
C120 O147 1.312 . S
C120 O148 1.208 . S
C121 O142 1.331 . S
C121 O145 1.244 . S
C122 O144 1.264 . S
C122 O146 1.273 . S
Mg123 O125 1.936 1_455 S
Mg123 O132 2.081 1_455 S
Mg123 O134 2.023 . S
Mg123 O138 2.031 1_455 S
Mg123 O147 2.291 . S
Mg124 O125 1.963 . S
Mg124 O135 1.942 . S
Mg124 O136 1.955 1_655 S
Mg124 O143 1.986 . S
O125 Mg123 1.936 1_655 S
O125 Mg124 1.963 . S
O125 Mg126 1.915 1_655 S
Mg126 O125 1.915 1_455 S
Mg126 O127 1.915 . S
Mg126 O131 2.013 . S
Mg126 O137 2.114 1_455 S
Mg126 O141 2.013 1_455 S
Mg126 O147 2.114 . S
O127 Mg126 1.915 . S
O127 Mg128 1.936 . S
O127 Mg129 1.963 . S
Mg128 O127 1.936 . S
Mg128 O137 2.291 1_455 S
Mg128 O142 2.081 . S
Mg128 O144 2.023 1_455 S
Mg128 O148 2.031 . S
Mg129 O127 1.963 . S
Mg129 O133 1.986 . S
Mg129 O145 1.942 . S
Mg129 O146 1.955 1_455 S
C130 O141 1.191 . S
C130 O143 1.307 . S
O131 Mg126 2.013 . S
O131 C150 1.191 . S
O132 Mg123 2.081 1_655 S
O132 C140 1.331 . S
O133 Mg129 1.986 . S
O133 C150 1.307 . S
O134 Mg123 2.023 . S
O134 C149 1.264 . S
O135 Mg124 1.942 . S
O135 C140 1.244 . S
O136 Mg124 1.955 1_455 S
O136 C149 1.273 . S
O137 Mg126 2.114 1_655 S
O137 Mg128 2.291 1_655 S
O137 C139 1.312 . S
O138 Mg123 2.031 1_655 S
O138 C139 1.208 . S
C139 O137 1.312 . S
C139 O138 1.208 . S
C140 O132 1.331 . S
C140 O135 1.244 . S
O141 Mg126 2.013 1_655 S
O141 C130 1.191 . S
O142 C121 1.331 . S
O142 Mg128 2.081 . S
O143 Mg124 1.986 . S
O143 C130 1.307 . S
O144 C122 1.264 . S
O144 Mg128 2.023 1_655 S
O145 C121 1.244 . S
O145 Mg129 1.942 . S
O146 C122 1.273 . S
O146 Mg129 1.955 1_655 S
O147 C120 1.312 . S
O147 Mg123 2.291 . S
O147 Mg126 2.114 . S
O148 C120 1.208 . S
O148 Mg128 2.031 . S
C149 O134 1.264 . S
C149 O136 1.273 . S
C150 O131 1.191 . S
C150 O133 1.307 . S
C151 O178 1.312 . S
C151 O179 1.208 . S
C152 O173 1.331 . S
C152 O176 1.244 . S
C153 O175 1.264 . S
C153 O177 1.273 . S
Mg154 O156 1.923 1_545 S
Mg154 O163 2.081 1_545 S
Mg154 O165 2.023 . S
Mg154 O169 2.031 1_545 S
Mg154 O178 2.291 . S
Mg155 O156 1.967 1_545 S
Mg155 O166 1.942 1_545 S
Mg155 O167 1.955 . S
Mg155 O174 1.986 1_545 S
O156 Mg154 1.923 1_565 S
O156 Mg155 1.967 1_565 S
O156 Mg157 1.916 1_565 S
Mg157 O156 1.916 1_545 S
Mg157 O158 1.915 . S
Mg157 O162 2.013 . S
Mg157 O168 2.114 1_545 S
Mg157 O172 2.013 1_545 S
Mg157 O178 2.114 . S
O158 Mg157 1.915 . S
O158 Mg159 1.936 . S
O158 Mg160 1.963 . S
Mg159 O158 1.936 . S
Mg159 O168 2.291 1_545 S
Mg159 O173 2.081 . S
Mg159 O175 2.023 1_545 S
Mg159 O179 2.031 . S
Mg160 O158 1.963 . S
Mg160 O164 1.986 . S
Mg160 O176 1.942 . S
Mg160 O177 1.955 1_545 S
C161 O172 1.191 . S
C161 O174 1.307 . S
O162 Mg157 2.013 . S
O162 C181 1.191 . S
O163 Mg154 2.081 1_565 S
O163 C171 1.331 . S
O164 Mg160 1.986 . S
O164 C181 1.307 . S
O165 Mg154 2.023 . S
O165 C180 1.264 . S
O166 Mg155 1.942 1_565 S
O166 C171 1.244 . S
O167 Mg155 1.955 . S
O167 C180 1.273 . S
O168 Mg157 2.114 1_565 S
O168 Mg159 2.291 1_565 S
O168 C170 1.312 . S
O169 Mg154 2.031 1_565 S
O169 C170 1.208 . S
C170 O168 1.312 . S
C170 O169 1.208 . S
C171 O163 1.331 . S
C171 O166 1.244 . S
O172 Mg157 2.013 1_565 S
O172 C161 1.191 . S
O173 C152 1.331 . S
O173 Mg159 2.081 . S
O174 Mg155 1.986 1_565 S
O174 C161 1.307 . S
O175 C153 1.264 . S
O175 Mg159 2.023 1_565 S
O176 C152 1.244 . S
O176 Mg160 1.942 . S
O177 C153 1.273 . S
O177 Mg160 1.955 1_565 S
O178 C151 1.312 . S
O178 Mg154 2.291 . S
O178 Mg157 2.114 . S
O179 C151 1.208 . S
O179 Mg159 2.031 . S
C180 O165 1.264 . S
C180 O167 1.273 . S
C181 O162 1.191 . S
C181 O164 1.307 . S
C182 O209 1.312 . S
C182 O210 1.208 . S
C183 O204 1.331 . S
C183 O207 1.244 . S
C184 O206 1.264 . S
C184 O208 1.273 . S
Mg185 O187 1.936 . S
Mg185 O194 2.081 . S
Mg185 O196 2.023 . S
Mg185 O200 2.031 . S
Mg185 O209 2.291 . S
Mg186 O187 1.963 . S
Mg186 O197 1.942 . S
Mg186 O198 1.955 . S
Mg186 O205 1.986 . S
O187 Mg185 1.936 . S
O187 Mg186 1.963 . S
O187 Mg188 1.915 . S
Mg188 O187 1.915 . S
Mg188 O189 1.915 . S
Mg188 O193 2.013 . S
Mg188 O199 2.114 . S
Mg188 O203 2.013 . S
Mg188 O209 2.114 . S
O189 Mg188 1.915 . S
O189 Mg190 1.936 . S
O189 Mg191 1.963 . S
Mg190 O189 1.936 . S
Mg190 O199 2.291 . S
Mg190 O204 2.081 . S
Mg190 O206 2.023 . S
Mg190 O210 2.031 . S
Mg191 O189 1.963 . S
Mg191 O195 1.986 . S
Mg191 O207 1.942 . S
Mg191 O208 1.955 . S
C192 O203 1.191 . S
C192 O205 1.307 . S
O193 Mg188 2.013 . S
O193 C212 1.191 . S
O194 Mg185 2.081 . S
O194 C202 1.331 . S
O195 Mg191 1.986 . S
O195 C212 1.307 . S
O196 Mg185 2.023 . S
O196 C211 1.264 . S
O197 Mg186 1.942 . S
O197 C202 1.244 . S
O198 Mg186 1.955 . S
O198 C211 1.273 . S
O199 Mg188 2.114 . S
O199 Mg190 2.291 . S
O199 C201 1.312 . S
O200 Mg185 2.031 . S
O200 C201 1.208 . S
C201 O199 1.312 . S
C201 O200 1.208 . S
C202 O194 1.331 . S
C202 O197 1.244 . S
O203 Mg188 2.013 . S
O203 C192 1.191 . S
O204 C183 1.331 . S
O204 Mg190 2.081 . S
O205 Mg186 1.986 . S
O205 C192 1.307 . S
O206 C184 1.264 . S
O206 Mg190 2.023 . S
O207 C183 1.244 . S
O207 Mg191 1.942 . S
O208 C184 1.273 . S
O208 Mg191 1.955 . S
O209 C182 1.312 . S
O209 Mg185 2.291 . S
O209 Mg188 2.114 . S
O210 C182 1.208 . S
O210 Mg190 2.031 . S
C211 O196 1.264 . S
C211 O198 1.273 . S
C212 O193 1.191 . S
C212 O195 1.307 . S
C213 C214 1.369 . S
C213 C215 1.419 . S
C213 H217 0.930 . S
C214 C213 1.369 . S
C214 C223 1.429 . S
C215 C213 1.419 . S
C215 C216 1.363 . S
C215 H218 0.929 . S
C216 C215 1.363 . S
C216 C222 1.428 . S
H217 C213 0.930 . S
H218 C215 0.929 . S
S219 N220 1.613 . S
S219 N221 1.610 . S
N220 S219 1.613 . S
N220 C223 1.350 . S
N221 S219 1.610 . S
N221 C222 1.351 . S
C222 C216 1.428 . S
C222 N221 1.351 . S
C222 C223 1.434 . S
C223 C214 1.429 . S
C223 N220 1.350 . S
C223 C222 1.434 . S
C224 C225 1.369 . S
C224 C226 1.419 . S
C224 H228 0.930 . S
C225 C224 1.369 . S
C225 C234 1.429 . S
C226 C224 1.419 . S
C226 C227 1.363 . S
C226 H229 0.929 . S
C227 C226 1.363 . S
C227 C233 1.428 . S
H228 C224 0.930 . S
H229 C226 0.929 . S
S230 N231 1.613 . S
S230 N232 1.610 . S
N231 S230 1.613 . S
N231 C234 1.350 . S
N232 S230 1.610 . S
N232 C233 1.351 . S
C233 C227 1.428 . S
C233 N232 1.351 . S
C233 C234 1.434 . S
C234 C225 1.429 . S
C234 N231 1.350 . S
C234 C233 1.434 . S
C235 C236 1.369 . S
C235 C237 1.419 . S
C235 H239 0.930 . S
C236 C235 1.369 . S
C236 C245 1.429 . S
C237 C235 1.419 . S
C237 C238 1.363 . S
C237 H240 0.929 . S
C238 C237 1.363 . S
C238 C244 1.428 . S
H239 C235 0.930 . S
H240 C237 0.929 . S
S241 N242 1.613 . S
S241 N243 1.610 . S
N242 S241 1.613 . S
N242 C245 1.350 . S
N243 S241 1.610 . S
N243 C244 1.351 . S
C244 C238 1.428 . S
C244 N243 1.351 . S
C244 C245 1.434 . S
C245 C236 1.429 . S
C245 N242 1.350 . S
C245 C244 1.434 . S
C246 C247 1.369 . S
C246 C248 1.419 . S
C246 H250 0.930 . S
C247 C246 1.369 . S
C247 C256 1.429 . S
C248 C246 1.419 . S
C248 C249 1.363 . S
C248 H251 0.929 . S
C249 C248 1.363 . S
C249 C255 1.428 . S
H250 C246 0.930 . S
H251 C248 0.929 . S
S252 N253 1.613 . S
S252 N254 1.610 . S
N253 S252 1.613 . S
N253 C256 1.350 . S
N254 S252 1.610 . S
N254 C255 1.351 . S
C255 C249 1.428 . S
C255 N254 1.351 . S
C255 C256 1.434 . S
C256 C247 1.429 . S
C256 N253 1.350 . S
C256 C255 1.434 . S
C257 C258 1.369 . S
C257 C259 1.419 . S
C257 H261 0.930 . S
C258 C257 1.369 . S
C258 C267 1.429 . S
C259 C257 1.419 . S
C259 C260 1.363 . S
C259 H262 0.929 . S
C260 C259 1.363 . S
C260 C266 1.428 . S
H261 C257 0.930 . S
H262 C259 0.929 . S
S263 N264 1.613 . S
S263 N265 1.610 . S
N264 S263 1.613 . S
N264 C267 1.350 . S
N265 S263 1.610 . S
N265 C266 1.351 . S
C266 C260 1.428 . S
C266 N265 1.351 . S
C266 C267 1.434 . S
C267 C258 1.429 . S
C267 N264 1.350 . S
C267 C266 1.434 . S
C268 C269 1.369 . S
C268 C270 1.419 . S
C268 H272 0.930 . S
C269 C268 1.369 . S
C269 C278 1.429 . S
C270 C268 1.419 . S
C270 C271 1.363 . S
C270 H273 0.929 . S
C271 C270 1.363 . S
C271 C277 1.428 . S
H272 C268 0.930 . S
H273 C270 0.929 . S
S274 N275 1.613 . S
S274 N276 1.610 . S
N275 S274 1.613 . S
N275 C278 1.350 . S
N276 S274 1.610 . S
N276 C277 1.351 . S
C277 C271 1.428 . S
C277 N276 1.351 . S
C277 C278 1.434 . S
C278 C269 1.429 . S
C278 N275 1.350 . S
C278 C277 1.434 . S
C279 C280 1.369 . S
C279 C281 1.419 . S
C279 H283 0.930 . S
C280 C279 1.369 . S
C280 C289 1.429 . S
C281 C279 1.419 . S
C281 C282 1.363 . S
C281 H284 0.929 . S
C282 C281 1.363 . S
C282 C288 1.428 . S
H283 C279 0.930 . S
H284 C281 0.929 . S
S285 N286 1.613 . S
S285 N287 1.610 . S
N286 S285 1.613 . S
N286 C289 1.350 . S
N287 S285 1.610 . S
N287 C288 1.351 . S
C288 C282 1.428 . S
C288 N287 1.351 . S
C288 C289 1.434 . S
C289 C280 1.429 . S
C289 N286 1.350 . S
C289 C288 1.434 . S
C290 C291 1.369 . S
C290 C292 1.419 . S
C290 H294 0.930 . S
C291 C290 1.369 . S
C291 C300 1.429 . S
C292 C290 1.419 . S
C292 C293 1.363 . S
C292 H295 0.929 . S
C293 C292 1.363 . S
C293 C299 1.428 . S
H294 C290 0.930 . S
H295 C292 0.929 . S
S296 N297 1.613 1_554 S
S296 N298 1.610 1_554 S
N297 S296 1.613 1_556 S
N297 C300 1.350 . S
N298 S296 1.610 1_556 S
N298 C299 1.351 . S
C299 C293 1.428 . S
C299 N298 1.351 . S
C299 C300 1.434 . S
C300 C291 1.429 . S
C300 N297 1.350 . S
C300 C299 1.434 . S
C301 C302 1.369 . S
C301 C303 1.419 . S
C301 H305 0.930 . S
C302 C301 1.369 . S
C302 C311 1.429 . S
C303 C301 1.419 . S
C303 C304 1.363 . S
C303 H306 0.929 . S
C304 C303 1.363 . S
C304 C310 1.428 . S
H305 C301 0.930 . S
H306 C303 0.929 . S
S307 N308 1.613 . S
S307 N309 1.610 1_554 S
N308 S307 1.613 . S
N308 C311 1.350 1_554 S
N309 S307 1.610 1_556 S
N309 C310 1.351 . S
C310 C304 1.428 . S
C310 N309 1.351 . S
C310 C311 1.434 . S
C311 C302 1.429 . S
C311 N308 1.350 1_556 S
C311 C310 1.434 . S
C312 C313 1.369 . S
C312 C314 1.419 1_554 S
C312 H316 0.930 . S
C313 C312 1.369 . S
C313 C322 1.429 1_554 S
C314 C312 1.419 1_556 S
C314 C315 1.363 . S
C314 H317 0.929 . S
C315 C314 1.363 . S
C315 C321 1.428 . S
H316 C312 0.930 . S
H317 C314 0.929 . S
S318 N319 1.613 . S
S318 N320 1.610 . S
N319 S318 1.613 . S
N319 C322 1.350 . S
N320 S318 1.610 . S
N320 C321 1.351 . S
C321 C315 1.428 . S
C321 N320 1.351 . S
C321 C322 1.434 . S
C322 C313 1.429 1_556 S
C322 N319 1.350 . S
C322 C321 1.434 . S
C323 C324 1.369 1_556 S
C323 C325 1.419 . S
C323 H327 0.930 . S
C324 C323 1.369 1_554 S
C324 C333 1.429 . S
C325 C323 1.419 . S
C325 C326 1.363 . S
C325 H328 0.929 . S
C326 C325 1.363 . S
C326 C332 1.428 1_556 S
H327 C323 0.930 . S
H328 C325 0.929 . S
S329 N330 1.613 . S
S329 N331 1.610 . S
N330 S329 1.613 . S
N330 C333 1.350 . S
N331 S329 1.610 . S
N331 C332 1.351 . S
C332 C326 1.428 1_554 S
C332 N331 1.351 . S
C332 C333 1.434 . S
C333 C324 1.429 . S
C333 N330 1.350 . S
C333 C332 1.434 . S
C334 C335 1.369 . S
C334 C336 1.419 . S
C334 H338 0.930 1_556 S
C335 C334 1.369 . S
C335 C344 1.429 . S
C336 C334 1.419 . S
C336 C337 1.363 . S
C336 H339 0.929 . S
C337 C336 1.363 . S
C337 C343 1.428 . S
H338 C334 0.930 1_554 S
H339 C336 0.929 . S
S340 N341 1.613 . S
S340 N342 1.610 . S
N341 S340 1.613 . S
N341 C344 1.350 . S
N342 S340 1.610 . S
N342 C343 1.351 . S
C343 C337 1.428 . S
C343 N342 1.351 . S
C343 C344 1.434 . S
C344 C335 1.429 . S
C344 N341 1.350 . S
C344 C343 1.434 . S
C345 C346 1.369 . S
C345 C347 1.419 . S
C345 H349 0.930 . S
C346 C345 1.369 . S
C346 C355 1.429 . S
C347 C345 1.419 . S
C347 C348 1.363 . S
C347 H350 0.929 . S
C348 C347 1.363 . S
C348 C354 1.428 . S
H349 C345 0.930 . S
H350 C347 0.929 . S
S351 N352 1.613 . S
S351 N353 1.610 . S
N352 S351 1.613 . S
N352 C355 1.350 . S
N353 S351 1.610 . S
N353 C354 1.351 . S
C354 C348 1.428 . S
C354 N353 1.351 . S
C354 C355 1.434 . S
C355 C346 1.429 . S
C355 N352 1.350 . S
C355 C354 1.434 . S
C356 C357 1.369 . S
C356 C358 1.419 . S
C356 H360 0.930 . S
C357 C356 1.369 . S
C357 C366 1.429 . S
C358 C356 1.419 . S
C358 C359 1.363 . S
C358 H361 0.929 . S
C359 C358 1.363 . S
C359 C365 1.428 . S
H360 C356 0.930 . S
H361 C358 0.929 . S
S362 N363 1.612 1_556 S
S362 N364 1.610 . S
N363 S362 1.612 1_554 S
N363 C366 1.349 1_554 S
N364 S362 1.610 . S
N364 C365 1.351 . S
C365 C359 1.428 . S
C365 N364 1.351 . S
C365 C366 1.434 . S
C366 C357 1.429 . S
C366 N363 1.349 1_556 S
C366 C365 1.434 . S
C367 C368 1.369 1_556 S
C367 C369 1.419 . S
C367 H371 0.930 1_556 S
C368 C367 1.369 1_554 S
C368 C377 1.429 1_554 S
C369 C367 1.419 . S
C369 C370 1.363 . S
C369 H372 0.929 . S
C370 C369 1.363 . S
C370 C376 1.428 . S
H371 C367 0.930 1_554 S
H372 C369 0.929 . S
S373 N374 1.613 . S
S373 N375 1.610 . S
N374 S373 1.613 . S
N374 C377 1.350 . S
N375 S373 1.610 . S
N375 C376 1.351 . S
C376 C370 1.428 . S
C376 N375 1.351 . S
C376 C377 1.434 . S
C377 C368 1.429 1_556 S
C377 N374 1.350 . S
C377 C376 1.434 . S
C378 C379 1.369 . S
C378 C380 1.419 1_554 S
C378 H382 0.930 . S
C379 C378 1.369 . S
C379 C388 1.429 1_554 S
C380 C378 1.419 1_556 S
C380 C381 1.363 . S
C380 H383 0.929 . S
C381 C380 1.363 . S
C381 C387 1.428 . S
H382 C378 0.930 . S
H383 C380 0.929 . S
S384 N385 1.613 . S
S384 N386 1.610 . S
N385 S384 1.613 . S
N385 C388 1.350 . S
N386 S384 1.610 . S
N386 C387 1.351 . S
C387 C381 1.428 . S
C387 N386 1.351 . S
C387 C388 1.434 . S
C388 C379 1.429 1_556 S
C388 N385 1.350 . S
C388 C387 1.434 . S
C389 C390 1.369 . S
C389 C391 1.419 . S
C389 H393 0.930 . S
C390 C389 1.369 . S
C390 C399 1.429 . S
C391 C389 1.419 . S
C391 C392 1.363 . S
C391 H394 0.929 . S
C392 C391 1.363 . S
C392 C398 1.428 . S
H393 C389 0.930 . S
H394 C391 0.929 . S
S395 N396 1.613 . S
S395 N397 1.610 1_554 S
N396 S395 1.613 . S
N396 C399 1.350 1_554 S
N397 S395 1.610 1_556 S
N397 C398 1.351 . S
C398 C392 1.428 . S
C398 N397 1.351 . S
C398 C399 1.434 . S
C399 C390 1.429 . S
C399 N396 1.350 1_556 S
C399 C398 1.434 . S
C400 C401 1.369 . S
C400 C402 1.419 . S
C400 H404 0.930 . S
C401 C400 1.369 . S
C401 C410 1.429 . S
C402 C400 1.419 . S
C402 C403 1.363 . S
C402 H405 0.929 . S
C403 C402 1.363 . S
C403 C409 1.428 . S
H404 C400 0.930 . S
H405 C402 0.929 . S
S406 N407 1.613 . S
S406 N408 1.610 . S
N407 S406 1.613 . S
N407 C410 1.350 . S
N408 S406 1.610 . S
N408 C409 1.351 . S
C409 C403 1.428 . S
C409 N408 1.351 . S
C409 C410 1.434 . S
C410 C401 1.429 . S
C410 N407 1.350 . S
C410 C409 1.434 . S
C411 C412 1.369 . S
C411 C413 1.419 . S
C411 H415 0.930 . S
C412 C411 1.369 . S
C412 C421 1.429 . S
C413 C411 1.419 . S
C413 C414 1.363 . S
C413 H416 0.929 . S
C414 C413 1.363 . S
C414 C420 1.428 . S
H415 C411 0.930 . S
H416 C413 0.929 . S
S417 N418 1.613 . S
S417 N419 1.610 . S
N418 S417 1.613 . S
N418 C421 1.350 . S
N419 S417 1.610 . S
N419 C420 1.351 . S
C420 C414 1.428 . S
C420 N419 1.351 . S
C420 C421 1.434 . S
C421 C412 1.429 . S
C421 N418 1.350 . S
C421 C420 1.434 . S
C422 C423 1.369 . S
C422 C424 1.419 . S
C422 H426 0.930 . S
C423 C422 1.369 . S
C423 C432 1.429 . S
C424 C422 1.419 . S
C424 C425 1.363 . S
C424 H427 0.929 . S
C425 C424 1.363 . S
C425 C431 1.428 . S
H426 C422 0.930 . S
H427 C424 0.929 . S
S428 N429 1.613 . S
S428 N430 1.610 . S
N429 S428 1.613 . S
N429 C432 1.350 . S
N430 S428 1.610 . S
N430 C431 1.351 . S
C431 C425 1.428 . S
C431 N430 1.351 . S
C431 C432 1.434 . S
C432 C423 1.429 . S
C432 N429 1.350 . S
C432 C431 1.434 . S
C433 C434 1.369 . S
C433 C435 1.419 . S
C433 H437 0.930 . S
C434 C433 1.369 . S
C434 C443 1.429 . S
C435 C433 1.419 . S
C435 C436 1.363 . S
C435 H438 0.929 . S
C436 C435 1.363 . S
C436 C442 1.428 . S
H437 C433 0.930 . S
H438 C435 0.929 . S
S439 N440 1.613 . S
S439 N441 1.610 . S
N440 S439 1.613 . S
N440 C443 1.350 . S
N441 S439 1.610 . S
N441 C442 1.351 . S
C442 C436 1.428 . S
C442 N441 1.351 . S
C442 C443 1.434 . S
C443 C434 1.429 . S
C443 N440 1.350 . S
C443 C442 1.434 . S
C444 C445 1.369 . S
C444 C446 1.419 . S
C444 H448 0.930 . S
C445 C444 1.369 . S
C445 C454 1.429 . S
C446 C444 1.419 . S
C446 C447 1.363 . S
C446 H449 0.929 . S
C447 C446 1.363 . S
C447 C453 1.428 . S
H448 C444 0.930 . S
H449 C446 0.929 . S
S450 N451 1.613 . S
S450 N452 1.610 . S
N451 S450 1.613 . S
N451 C454 1.350 . S
N452 S450 1.610 . S
N452 C453 1.351 . S
C453 C447 1.428 . S
C453 N452 1.351 . S
C453 C454 1.434 . S
C454 C445 1.429 . S
C454 N451 1.350 . S
C454 C453 1.434 . S
C455 C456 1.369 . S
C455 C457 1.419 . S
C455 H459 0.930 . S
C456 C455 1.369 . S
C456 C465 1.429 . S
C457 C455 1.419 . S
C457 C458 1.363 . S
C457 H460 0.929 . S
C458 C457 1.363 . S
C458 C464 1.428 . S
H459 C455 0.930 . S
H460 C457 0.929 . S
S461 N462 1.613 . S
S461 N463 1.610 . S
N462 S461 1.613 . S
N462 C465 1.350 . S
N463 S461 1.610 . S
N463 C464 1.351 . S
C464 C458 1.428 . S
C464 N463 1.351 . S
C464 C465 1.434 . S
C465 C456 1.429 . S
C465 N462 1.350 . S
C465 C464 1.434 . S
C466 C467 1.369 . S
C466 C468 1.419 . S
C466 H470 0.930 . S
C467 C466 1.369 . S
C467 C476 1.429 . S
C468 C466 1.419 . S
C468 C469 1.363 . S
C468 H471 0.929 . S
C469 C468 1.363 . S
C469 C475 1.428 . S
H470 C466 0.930 . S
H471 C468 0.929 . S
S472 N473 1.613 . S
S472 N474 1.610 . S
N473 S472 1.613 . S
N473 C476 1.350 . S
N474 S472 1.610 . S
N474 C475 1.351 . S
C475 C469 1.428 . S
C475 N474 1.351 . S
C475 C476 1.434 . S
C476 C467 1.429 . S
C476 N473 1.350 . S
C476 C475 1.434 . S
C214 C12 1.802 . S
C216 C120 1.776 . S
C225 C32 1.555 . S
C227 C152 1.579 . S
C238 C211 1.826 . S
C236 C52 1.872 . S
C249 C140 1.505 . S
C247 C75 1.477 . S
C258 C95 1.701 . S
C260 C170 1.692 . S
C271 C192 1.487 . S
C269 C115 1.364 . S
C282 C161 1.786 . S
C280 C58 1.746 . S
C291 C69 1.416 . S
C293 C201 1.492 . S
C304 C150 1.712 . S
C302 C89 1.648 1_556 S
C313 C109 1.553 . S
C315 C180 1.577 . S
C324 C18 1.785 . S
C326 C183 1.755 . S
C337 C122 1.649 . S
C335 C38 1.632 1_556 S
C348 C130 1.701 . S
C346 C78 1.695 . S
C359 C171 1.527 . S
C357 C98 1.526 1_556 S
C370 C184 1.814 . S
C368 C118 1.857 . S
C381 C121 1.486 . S
C379 C9 1.498 . S
C392 C181 1.619 . S
C390 C29 1.628 1_556 S
C401 C49 1.375 . S
C403 C182 1.426 . S
C414 C151 1.694 . S
C412 C112 1.700 . S
C425 C212 1.432 . S
C423 C15 1.388 . S
C436 C139 1.617 . S
C434 C35 1.654 . S
C447 C153 1.572 . S
C445 C55 1.584 . S
C456 C72 1.765 . S
C458 C202 1.716 . S
C467 C92 1.617 . S
C469 C149 1.630 . S
