# Generated by pormake.
# Topology ctn, (3,4)-cn, num edge types: 1
# Building blocks:
#     Node 0, Type 0, BuildingBlock: QEWDON_clean_linker_0, # of connection points: 3
#     Node 1, Type 0, BuildingBlock: QEWDON_clean_linker_0, # of connection points: 3
#     Node 2, Type 0, BuildingBlock: QEWDON_clean_linker_0, # of connection points: 3
#     Node 3, Type 0, BuildingBlock: QEWDON_clean_linker_0, # of connection points: 3
#     Node 4, Type 0, BuildingBlock: QEWDON_clean_linker_0, # of connection points: 3
#     Node 5, Type 0, BuildingBlock: QEWDON_clean_linker_0, # of connection points: 3
#     Node 6, Type 0, BuildingBlock: QEWDON_clean_linker_0, # of connection points: 3
#     Node 7, Type 0, BuildingBlock: QEWDON_clean_linker_0, # of connection points: 3
#     Node 8, Type 0, BuildingBlock: QEWDON_clean_linker_0, # of connection points: 3
#     Node 9, Type 0, BuildingBlock: QEWDON_clean_linker_0, # of connection points: 3
#     Node 10, Type 0, BuildingBlock: QEWDON_clean_linker_0, # of connection points: 3
#     Node 11, Type 0, BuildingBlock: QEWDON_clean_linker_0, # of connection points: 3
#     Node 12, Type 0, BuildingBlock: QEWDON_clean_linker_0, # of connection points: 3
#     Node 13, Type 0, BuildingBlock: QEWDON_clean_linker_0, # of connection points: 3
#     Node 14, Type 0, BuildingBlock: QEWDON_clean_linker_0, # of connection points: 3
#     Node 15, Type 0, BuildingBlock: QEWDON_clean_linker_0, # of connection points: 3
#     Node 16, Type 1, BuildingBlock: QUQFOY_clean_sbu_1, # of connection points: 4
#     Node 17, Type 1, BuildingBlock: QUQFOY_clean_sbu_1, # of connection points: 4
#     Node 18, Type 1, BuildingBlock: QUQFOY_clean_sbu_1, # of connection points: 4
#     Node 19, Type 1, BuildingBlock: QUQFOY_clean_sbu_1, # of connection points: 4
#     Node 20, Type 1, BuildingBlock: QUQFOY_clean_sbu_1, # of connection points: 4
#     Node 21, Type 1, BuildingBlock: QUQFOY_clean_sbu_1, # of connection points: 4
#     Node 22, Type 1, BuildingBlock: QUQFOY_clean_sbu_1, # of connection points: 4
#     Node 23, Type 1, BuildingBlock: QUQFOY_clean_sbu_1, # of connection points: 4
#     Node 24, Type 1, BuildingBlock: QUQFOY_clean_sbu_1, # of connection points: 4
#     Node 25, Type 1, BuildingBlock: QUQFOY_clean_sbu_1, # of connection points: 4
#     Node 26, Type 1, BuildingBlock: QUQFOY_clean_sbu_1, # of connection points: 4
#     Node 27, Type 1, BuildingBlock: QUQFOY_clean_sbu_1, # of connection points: 4
#     Edge 28, Type (0, 1), BuildingBlock: OJICUG_clean_linker_0, # of connection points: 2
#     Edge 29, Type (0, 1), BuildingBlock: OJICUG_clean_linker_0, # of connection points: 2
#     Edge 30, Type (0, 1), BuildingBlock: OJICUG_clean_linker_0, # of connection points: 2
#     Edge 31, Type (0, 1), BuildingBlock: OJICUG_clean_linker_0, # of connection points: 2
#     Edge 32, Type (0, 1), BuildingBlock: OJICUG_clean_linker_0, # of connection points: 2
#     Edge 33, Type (0, 1), BuildingBlock: OJICUG_clean_linker_0, # of connection points: 2
#     Edge 34, Type (0, 1), BuildingBlock: OJICUG_clean_linker_0, # of connection points: 2
#     Edge 35, Type (0, 1), BuildingBlock: OJICUG_clean_linker_0, # of connection points: 2
#     Edge 36, Type (0, 1), BuildingBlock: OJICUG_clean_linker_0, # of connection points: 2
#     Edge 37, Type (0, 1), BuildingBlock: OJICUG_clean_linker_0, # of connection points: 2
#     Edge 38, Type (0, 1), BuildingBlock: OJICUG_clean_linker_0, # of connection points: 2
#     Edge 39, Type (0, 1), BuildingBlock: OJICUG_clean_linker_0, # of connection points: 2
#     Edge 40, Type (0, 1), BuildingBlock: OJICUG_clean_linker_0, # of connection points: 2
#     Edge 41, Type (0, 1), BuildingBlock: OJICUG_clean_linker_0, # of connection points: 2
#     Edge 42, Type (0, 1), BuildingBlock: OJICUG_clean_linker_0, # of connection points: 2
#     Edge 43, Type (0, 1), BuildingBlock: OJICUG_clean_linker_0, # of connection points: 2
#     Edge 44, Type (0, 1), BuildingBlock: OJICUG_clean_linker_0, # of connection points: 2
#     Edge 45, Type (0, 1), BuildingBlock: OJICUG_clean_linker_0, # of connection points: 2
#     Edge 46, Type (0, 1), BuildingBlock: OJICUG_clean_linker_0, # of connection points: 2
#     Edge 47, Type (0, 1), BuildingBlock: OJICUG_clean_linker_0, # of connection points: 2
#     Edge 48, Type (0, 1), BuildingBlock: OJICUG_clean_linker_0, # of connection points: 2
#     Edge 49, Type (0, 1), BuildingBlock: OJICUG_clean_linker_0, # of connection points: 2
#     Edge 50, Type (0, 1), BuildingBlock: OJICUG_clean_linker_0, # of connection points: 2
#     Edge 51, Type (0, 1), BuildingBlock: OJICUG_clean_linker_0, # of connection points: 2
#     Edge 52, Type (0, 1), BuildingBlock: OJICUG_clean_linker_0, # of connection points: 2
#     Edge 53, Type (0, 1), BuildingBlock: OJICUG_clean_linker_0, # of connection points: 2
#     Edge 54, Type (0, 1), BuildingBlock: OJICUG_clean_linker_0, # of connection points: 2
#     Edge 55, Type (0, 1), BuildingBlock: OJICUG_clean_linker_0, # of connection points: 2
#     Edge 56, Type (0, 1), BuildingBlock: OJICUG_clean_linker_0, # of connection points: 2
#     Edge 57, Type (0, 1), BuildingBlock: OJICUG_clean_linker_0, # of connection points: 2
#     Edge 58, Type (0, 1), BuildingBlock: OJICUG_clean_linker_0, # of connection points: 2
#     Edge 59, Type (0, 1), BuildingBlock: OJICUG_clean_linker_0, # of connection points: 2
#     Edge 60, Type (0, 1), BuildingBlock: OJICUG_clean_linker_0, # of connection points: 2
#     Edge 61, Type (0, 1), BuildingBlock: OJICUG_clean_linker_0, # of connection points: 2
#     Edge 62, Type (0, 1), BuildingBlock: OJICUG_clean_linker_0, # of connection points: 2
#     Edge 63, Type (0, 1), BuildingBlock: OJICUG_clean_linker_0, # of connection points: 2
#     Edge 64, Type (0, 1), BuildingBlock: OJICUG_clean_linker_0, # of connection points: 2
#     Edge 65, Type (0, 1), BuildingBlock: OJICUG_clean_linker_0, # of connection points: 2
#     Edge 66, Type (0, 1), BuildingBlock: OJICUG_clean_linker_0, # of connection points: 2
#     Edge 67, Type (0, 1), BuildingBlock: OJICUG_clean_linker_0, # of connection points: 2
#     Edge 68, Type (0, 1), BuildingBlock: OJICUG_clean_linker_0, # of connection points: 2
#     Edge 69, Type (0, 1), BuildingBlock: OJICUG_clean_linker_0, # of connection points: 2
#     Edge 70, Type (0, 1), BuildingBlock: OJICUG_clean_linker_0, # of connection points: 2
#     Edge 71, Type (0, 1), BuildingBlock: OJICUG_clean_linker_0, # of connection points: 2
#     Edge 72, Type (0, 1), BuildingBlock: OJICUG_clean_linker_0, # of connection points: 2
#     Edge 73, Type (0, 1), BuildingBlock: OJICUG_clean_linker_0, # of connection points: 2
#     Edge 74, Type (0, 1), BuildingBlock: OJICUG_clean_linker_0, # of connection points: 2
#     Edge 75, Type (0, 1), BuildingBlock: OJICUG_clean_linker_0, # of connection points: 2
# Relax obj value: 0.134
# Max RMSD: 0.252
# Mean RMSD: 0.167
data_MOF--net-ctn--node1-QUQFOY_clean_sbu_1--node2-QEWDON_clean_linker_0--edge1-OJICUG_clean_linker_0
_symmetry_space_group_name_H-M    P1
_symmetry_Int_Tables_number       1
_symmetry_cell_setting            triclinic
loop_
_symmetry_equiv_pos_as_xyz
'x, y, z'
_cell_length_a     38.234207
_cell_length_b     40.006272
_cell_length_c     43.765286
_cell_angle_alpha  102.80765
_cell_angle_beta   92.645381
_cell_angle_gamma 102.42706
loop_
_atom_site_label
_atom_site_type_symbol
_atom_site_fract_x
_atom_site_fract_y
_atom_site_fract_z
_atom_type_partial_charge
H0 H 0.11539 0.02676 0.06183 0.0
C1 C 0.09892 0.02402 0.08104 0.0
C2 C 0.09437 0.99344 0.09265 0.0
C3 C 0.08449 0.0522 0.09548 0.0
H4 H 0.07161 0.96795 0.128 0.0
C5 C 0.0745 0.99122 0.11871 0.0
C6 C 0.05886 0.01899 0.13296 0.0
C7 C 0.06419 0.04942 0.12103 0.0
C8 C 0.09382 0.08603 0.0861 0.0
H9 H 0.05258 0.07119 0.13147 0.0
C10 C 0.08341 0.08866 0.05561 0.0
C11 C 0.09346 0.12108 0.04705 0.0
C12 C 0.11415 0.1159 0.10792 0.0
H13 H 0.12246 0.1143 0.13146 0.0
C14 C 0.12445 0.1479 0.0994 0.0
H15 H 0.06752 0.06571 0.03875 0.0
C16 C 0.11428 0.15053 0.06918 0.0
H17 H 0.12202 0.17586 0.06331 0.0
H18 H 0.14025 0.17079 0.11632 0.0
H19 H 0.41936 0.76028 0.26539 0.0
C20 C 0.39594 0.73853 0.2584 0.0
C21 C 0.39706 0.70524 0.2636 0.0
C22 C 0.36402 0.74449 0.24564 0.0
H23 H 0.36659 0.65193 0.25821 0.0
C24 C 0.36595 0.67792 0.25508 0.0
C25 C 0.33319 0.68423 0.24485 0.0
C26 C 0.33271 0.71728 0.23909 0.0
C27 C 0.36207 0.78011 0.24229 0.0
H28 H 0.30749 0.72275 0.23172 0.0
C29 C 0.3476 0.78486 0.21384 0.0
C30 C 0.34407 0.81841 0.21113 0.0
C31 C 0.3732 0.80931 0.26803 0.0
H32 H 0.38411 0.80625 0.29027 0.0
C33 C 0.3694 0.84257 0.26553 0.0
H34 H 0.33907 0.76245 0.19384 0.0
C35 C 0.3548 0.84714 0.23733 0.0
H36 H 0.35258 0.87327 0.23577 0.0
H37 H 0.37782 0.8649 0.28554 0.0
H38 H 0.9898 0.46625 0.06304 0.0
C39 C 0.98103 0.48734 0.05544 0.0
C40 C 0.99151 0.522 0.07408 0.0
C41 C 0.95864 0.47928 0.02729 0.0
H42 H 0.98746 0.57589 0.07755 0.0
C43 C 0.97998 0.54907 0.06345 0.0
C44 C 0.95855 0.54163 0.03465 0.0
C45 C 0.94783 0.50659 0.01693 0.0
C46 C 0.94513 0.44204 0.00966 0.0
H47 H 0.93053 0.50042 0.99515 0.0
C48 C 0.96809 0.4185 0.00562 0.0
C49 C 0.9547 0.38275 0.99062 0.0
C50 C 0.90865 0.42945 0.99802 0.0
H51 H 0.89021 0.44677 0.00121 0.0
C52 C 0.89532 0.39408 0.98287 0.0
H53 H 0.9963 0.42791 0.01435 0.0
C54 C 0.91808 0.37083 0.97924 0.0
H55 H 0.90712 0.34357 0.96707 0.0
H56 H 0.86718 0.38462 0.97403 0.0
H57 H 0.79221 0.79571 0.27504 0.0
C58 C 0.79619 0.78706 0.25047 0.0
C59 C 0.80739 0.8122 0.23297 0.0
C60 C 0.79056 0.75077 0.23681 0.0
H61 H 0.82216 0.81931 0.1874 0.0
C62 C 0.81235 0.80044 0.20115 0.0
C63 C 0.80576 0.76442 0.18674 0.0
C64 C 0.79554 0.73957 0.20481 0.0
C65 C 0.77966 0.72517 0.25654 0.0
H66 H 0.79031 0.71168 0.19375 0.0
C67 C 0.75469 0.73091 0.27859 0.0
C68 C 0.74701 0.70971 0.30024 0.0
C69 C 0.79562 0.69643 0.25509 0.0
H70 H 0.81515 0.69145 0.23853 0.0
C71 C 0.7874 0.67454 0.27589 0.0
H72 H 0.74109 0.75206 0.27874 0.0
C73 C 0.76354 0.68125 0.29853 0.0
H74 H 0.75848 0.66447 0.3149 0.0
H75 H 0.80013 0.65268 0.27487 0.0
H76 H 0.16029 0.97995 0.47898 0.0
C77 C 0.13593 0.98296 0.46727 0.0
C78 C 0.13632 0.01322 0.456 0.0
C79 C 0.10428 0.95646 0.46349 0.0
H80 H 0.10517 0.03966 0.43128 0.0
C81 C 0.10469 0.01683 0.44092 0.0
C82 C 0.07311 0.99016 0.43618 0.0
C83 C 0.0729 0.9599 0.44762 0.0
C84 C 0.1055 0.92408 0.47393 0.0
H85 H 0.04879 0.93885 0.44356 0.0
C86 C 0.09093 0.918 0.50171 0.0
C87 C 0.09564 0.8887 0.51301 0.0
C88 C 0.12411 0.90047 0.45719 0.0
H89 H 0.13574 0.90499 0.43593 0.0
C90 C 0.12818 0.87109 0.46791 0.0
H91 H 0.07712 0.93661 0.51495 0.0
C92 C 0.11421 0.86526 0.49565 0.0
H93 H 0.11763 0.84213 0.50335 0.0
H94 H 0.14246 0.8529 0.45479 0.0
H95 H 0.29517 0.67419 0.78693 0.0
C96 C 0.28782 0.68726 0.80932 0.0
C97 C 0.29567 0.6762 0.83667 0.0
C98 C 0.27002 0.71478 0.81049 0.0
H99 H 0.29143 0.68492 0.88661 0.0
C100 C 0.28519 0.69301 0.86537 0.0
C101 C 0.26767 0.72082 0.86716 0.0
C102 C 0.25992 0.73127 0.83944 0.0
C103 C 0.2634 0.72732 0.78171 0.0
H104 H 0.24758 0.75344 0.84055 0.0
C105 C 0.22968 0.73364 0.77376 0.0
C106 C 0.22339 0.74534 0.74632 0.0
C107 C 0.29102 0.73325 0.7621 0.0
H108 H 0.31735 0.72901 0.76783 0.0
C109 C 0.28513 0.74524 0.73514 0.0
H110 H 0.2083 0.72915 0.78882 0.0
C111 C 0.25161 0.75118 0.72721 0.0
H112 H 0.24758 0.75963 0.70572 0.0
H113 H 0.3066 0.74972 0.72019 0.0
H114 H 0.96499 0.62468 0.47011 0.0
C115 C 0.94806 0.60156 0.47532 0.0
C116 C 0.94224 0.60078 0.50669 0.0
C117 C 0.93102 0.573 0.45057 0.0
H118 H 0.91451 0.57045 0.53707 0.0
C119 C 0.91995 0.57079 0.51303 0.0
C120 C 0.9026 0.54225 0.48845 0.0
C121 C 0.90823 0.54357 0.45726 0.0
C122 C 0.93456 0.57464 0.41747 0.0
H123 H 0.89477 0.52169 0.43807 0.0
C124 C 0.9679 0.57616 0.40485 0.0
C125 C 0.9704 0.57594 0.37277 0.0
C126 C 0.90384 0.57337 0.39805 0.0
H127 H 0.87795 0.57212 0.40739 0.0
C128 C 0.90624 0.57368 0.36645 0.0
H129 H 0.99158 0.57701 0.41987 0.0
C130 C 0.93917 0.5748 0.35381 0.0
H131 H 0.93996 0.57398 0.32896 0.0
H132 H 0.8824 0.5726 0.35159 0.0
H133 H 0.8736 0.87705 0.79696 0.0
C134 C 0.87075 0.85993 0.81315 0.0
C135 C 0.88446 0.82935 0.80709 0.0
C136 C 0.8543 0.86945 0.8407 0.0
H137 H 0.8903 0.78419 0.82454 0.0
C138 C 0.88001 0.80776 0.82884 0.0
C139 C 0.8631 0.81666 0.85648 0.0
C140 C 0.85074 0.84799 0.86224 0.0
C141 C 0.84629 0.90463 0.84961 0.0
H142 H 0.83951 0.85665 0.88409 0.0
C143 C 0.81257 0.9106 0.84095 0.0
C144 C 0.80558 0.94437 0.85121 0.0
C145 C 0.87298 0.93247 0.86796 0.0
H146 H 0.89899 0.92823 0.87479 0.0
C147 C 0.86634 0.96589 0.87775 0.0
H148 H 0.79183 0.88905 0.82694 0.0
C149 C 0.83296 0.97184 0.86953 0.0
H150 H 0.82867 0.99819 0.87729 0.0
H151 H 0.88714 0.98727 0.89183 0.0
H152 H 0.37106 0.38325 0.31637 0.0
C153 C 0.36909 0.3642 0.33071 0.0
C154 C 0.38273 0.33375 0.32117 0.0
C155 C 0.35392 0.37084 0.35944 0.0
H156 H 0.38988 0.28607 0.33379 0.0
C157 C 0.37948 0.30945 0.34056 0.0
C158 C 0.36329 0.31518 0.36889 0.0
C159 C 0.35115 0.34628 0.37815 0.0
C160 C 0.34354 0.40459 0.37199 0.0
H161 H 0.34003 0.35201 0.40053 0.0
C162 C 0.31816 0.41645 0.35516 0.0
C163 C 0.30663 0.44716 0.3692 0.0
C164 C 0.35791 0.4241 0.40244 0.0
H165 H 0.37763 0.41569 0.41571 0.0
C166 C 0.34664 0.45422 0.41636 0.0
H167 H 0.30724 0.40162 0.33158 0.0
C168 C 0.32098 0.46545 0.40014 0.0
H169 H 0.31208 0.48838 0.41218 0.0
H170 H 0.35751 0.4687 0.44003 0.0
H171 H 0.49442 0.96018 0.5682 0.0
C172 C 0.48524 0.98125 0.56089 0.0
C173 C 0.49482 0.01575 0.57999 0.0
C174 C 0.46304 0.97326 0.53265 0.0
H175 H 0.48947 0.06941 0.58394 0.0
C176 C 0.48278 0.04272 0.56955 0.0
C177 C 0.46176 0.03531 0.54054 0.0
C178 C 0.45175 0.00041 0.52252 0.0
C179 C 0.44996 0.9362 0.51464 0.0
H180 H 0.43458 0.99419 0.50064 0.0
C181 C 0.47366 0.91353 0.50881 0.0
C182 C 0.46073 0.87799 0.49296 0.0
C183 C 0.41323 0.92302 0.50411 0.0
H184 H 0.39434 0.93979 0.50863 0.0
C185 C 0.40033 0.88783 0.48828 0.0
H186 H 0.50206 0.92346 0.51672 0.0
C187 C 0.42384 0.86539 0.48278 0.0
H188 H 0.41324 0.83825 0.47011 0.0
H189 H 0.372 0.87788 0.48032 0.0
H190 H 0.2896 0.29147 0.77925 0.0
C191 C 0.29412 0.28226 0.7549 0.0
C192 C 0.30738 0.3068 0.73731 0.0
C193 C 0.2871 0.2458 0.7416 0.0
H194 H 0.3241 0.31254 0.69189 0.0
C195 C 0.31284 0.29424 0.70573 0.0
C196 C 0.30484 0.25807 0.69168 0.0
C197 C 0.29266 0.23382 0.70987 0.0
C198 C 0.27417 0.22078 0.76139 0.0
H199 H 0.28636 0.20582 0.69907 0.0
C200 C 0.24859 0.22769 0.78254 0.0
C201 C 0.23874 0.20672 0.80404 0.0
C202 C 0.2887 0.19129 0.76078 0.0
H203 H 0.30866 0.18543 0.74492 0.0
C204 C 0.27847 0.16975 0.78152 0.0
H205 H 0.23616 0.24951 0.78205 0.0
C206 C 0.25392 0.17751 0.80321 0.0
H207 H 0.24727 0.16091 0.81956 0.0
H208 H 0.29012 0.1473 0.78117 0.0
H209 H 0.90417 0.27152 0.76185 0.0
C210 C 0.88046 0.25115 0.76205 0.0
C211 C 0.88331 0.22135 0.77334 0.0
C212 C 0.84682 0.25565 0.75181 0.0
H213 H 0.85294 0.17301 0.78248 0.0
C214 C 0.85171 0.19565 0.77314 0.0
C215 C 0.81796 0.19955 0.76246 0.0
C216 C 0.81577 0.22949 0.75145 0.0
C217 C 0.84359 0.28969 0.74549 0.0
H218 H 0.78971 0.23356 0.74446 0.0
C219 C 0.82944 0.29165 0.7159 0.0
C220 C 0.82544 0.32418 0.71065 0.0
C221 C 0.85364 0.3204 0.76984 0.0
H222 H 0.86441 0.31935 0.79286 0.0
C223 C 0.84918 0.35255 0.76488 0.0
H224 H 0.82177 0.268 0.69702 0.0
C225 C 0.83509 0.3545 0.73551 0.0
H226 H 0.83258 0.37987 0.732 0.0
H227 H 0.85682 0.37608 0.78382 0.0
H228 H 0.61867 0.53215 0.56888 0.0
C229 C 0.60284 0.5287 0.58836 0.0
C230 C 0.59859 0.49737 0.59872 0.0
C231 C 0.5888 0.55657 0.60418 0.0
H232 H 0.57698 0.47017 0.63338 0.0
C233 C 0.57956 0.49406 0.62507 0.0
C234 C 0.56416 0.52142 0.64072 0.0
C235 C 0.56912 0.55261 0.62993 0.0
C236 C 0.5972 0.59088 0.59541 0.0
H237 H 0.55746 0.57399 0.64129 0.0
C238 C 0.58964 0.5933 0.56427 0.0
C239 C 0.59903 0.62602 0.55617 0.0
C240 C 0.61405 0.62141 0.61834 0.0
H241 H 0.6203 0.62008 0.64239 0.0
C242 C 0.62369 0.65377 0.61033 0.0
H243 H 0.57642 0.56987 0.5465 0.0
C244 C 0.61634 0.65612 0.57947 0.0
H245 H 0.62347 0.68169 0.57396 0.0
H246 H 0.63681 0.67714 0.62812 0.0
H247 H 0.66777 0.4904 0.98839 0.0
C248 C 0.64239 0.49109 0.97669 0.0
C249 C 0.64035 0.51915 0.96286 0.0
C250 C 0.61182 0.46396 0.9757 0.0
H251 H 0.606 0.54091 0.93629 0.0
C252 C 0.60746 0.51989 0.94793 0.0
C253 C 0.57698 0.4926 0.94597 0.0
C254 C 0.57907 0.46461 0.96005 0.0
C255 C 0.61541 0.43395 0.98919 0.0
H256 H 0.55573 0.44308 0.95808 0.0
C257 C 0.59672 0.42676 0.01488 0.0
C258 C 0.60293 0.39987 0.02911 0.0
C259 C 0.63965 0.41364 0.97737 0.0
H260 H 0.65434 0.41887 0.9577 0.0
C261 C 0.64521 0.38651 0.99082 0.0
H262 H 0.57852 0.44288 0.0244 0.0
C263 C 0.62712 0.37968 0.0165 0.0
H264 H 0.63184 0.35828 0.02632 0.0
H265 H 0.66378 0.37083 0.9814 0.0
H266 H 0.79131 0.18094 0.28174 0.0
C267 C 0.78228 0.19179 0.30411 0.0
C268 C 0.78862 0.17841 0.33051 0.0
C269 C 0.76396 0.21905 0.30635 0.0
H270 H 0.78189 0.18347 0.37988 0.0
C271 C 0.77652 0.19302 0.35927 0.0
C272 C 0.75879 0.22077 0.36209 0.0
C273 C 0.75219 0.23318 0.33527 0.0
C274 C 0.75943 0.23506 0.27937 0.0
H275 H 0.73977 0.25541 0.3372 0.0
C276 C 0.72559 0.24009 0.27002 0.0
C277 C 0.72165 0.25882 0.2467 0.0
C278 C 0.78945 0.2478 0.26451 0.0
H279 H 0.81581 0.24446 0.27147 0.0
C280 C 0.78599 0.26631 0.24147 0.0
H281 H 0.70249 0.22898 0.28095 0.0
C282 C 0.75261 0.27221 0.23289 0.0
H283 H 0.75143 0.28775 0.21572 0.0
H284 H 0.80946 0.27673 0.23058 0.0
H285 H 0.45549 0.13573 0.98117 0.0
C286 C 0.43986 0.11188 0.98619 0.0
C287 C 0.43449 0.11029 0.01749 0.0
C288 C 0.42422 0.08299 0.96126 0.0
H289 H 0.40877 0.07815 0.04745 0.0
C290 C 0.41393 0.07923 0.0235 0.0
C291 C 0.39795 0.05039 0.99867 0.0
C292 C 0.40322 0.05247 0.96759 0.0
C293 C 0.42725 0.08515 0.9283 0.0
H294 H 0.39082 0.03038 0.9482 0.0
C295 C 0.4593 0.08291 0.91434 0.0
C296 C 0.46095 0.0822 0.88209 0.0
C297 C 0.39694 0.08718 0.91015 0.0
H298 H 0.37198 0.08863 0.92058 0.0
C299 C 0.3985 0.087 0.87838 0.0
H300 H 0.48261 0.08128 0.92851 0.0
C301 C 0.43012 0.08432 0.86435 0.0
H302 H 0.43011 0.08314 0.83939 0.0
H303 H 0.37495 0.08839 0.86445 0.0
O304 O 0.27504 0.82171 0.00595 0.0
Cd305 Cd 0.28641 0.86208 0.04616 0.0
Cd306 Cd 0.22993 0.87864 0.01625 0.0
O307 O 0.22525 0.83059 0.985 0.0
O308 O 0.32133 0.84662 0.07201 0.0
O309 O 0.26974 0.85625 0.08825 0.0
C310 C 0.29944 0.84711 0.0935 0.0
C311 C 0.1813 0.89897 0.03747 0.0
C312 C 0.24918 0.8128 0.98426 0.0
C313 C 0.30294 0.92813 0.02345 0.0
O314 O 0.27091 0.9186 0.01032 0.0
O315 O 0.31416 0.9104 0.04093 0.0
O316 O 0.18592 0.89565 0.00805 0.0
O317 O 0.20308 0.88835 0.0546 0.0
O318 O 0.1977 0.57206 0.27466 0.0
Cd319 Cd 0.16261 0.53457 0.29087 0.0
Cd320 Cd 0.1191 0.56068 0.23756 0.0
O321 O 0.17075 0.58721 0.23582 0.0
O322 O 0.19543 0.53472 0.32761 0.0
O323 O 0.17784 0.48812 0.28801 0.0
C324 C 0.19787 0.50346 0.31402 0.0
C325 C 0.08224 0.54868 0.19061 0.0
C326 C 0.19869 0.58936 0.25353 0.0
C327 C 0.09363 0.56092 0.3038 0.0
O328 O 0.09314 0.5699 0.27768 0.0
O329 O 0.11688 0.54498 0.31159 0.0
O330 O 0.09291 0.58021 0.20781 0.0
O331 O 0.09235 0.52356 0.20006 0.0
O332 O 0.82517 0.73283 0.96745 0.0
Cd333 Cd 0.80913 0.70205 0.99853 0.0
Cd334 Cd 0.84524 0.6586 0.96435 0.0
O335 O 0.85627 0.69834 0.93986 0.0
O336 O 0.79214 0.73245 0.0342 0.0
O337 O 0.83606 0.70561 0.04014 0.0
C338 C 0.81482 0.72473 0.05268 0.0
C339 C 0.88969 0.63623 0.98565 0.0
C340 C 0.84429 0.72623 0.94486 0.0
C341 C 0.76638 0.63002 0.96723 0.0
O342 O 0.79521 0.62376 0.95645 0.0
O343 O 0.76614 0.66023 0.98385 0.0
O344 O 0.88053 0.6284 0.95571 0.0
O345 O 0.87522 0.65883 0.0034 0.0
O346 O 0.96591 0.99508 0.32026 0.0
Cd347 Cd 0.93878 0.0011 0.28025 0.0
Cd348 Cd 0.89979 0.02607 0.3282 0.0
O349 O 0.94454 0.0297 0.35772 0.0
O350 O 0.96544 0.97871 0.24631 0.0
O351 O 0.96358 0.03468 0.25507 0.0
C352 C 0.97438 0.00842 0.23874 0.0
C353 C 0.87101 0.07201 0.32919 0.0
C354 C 0.96637 0.01034 0.34913 0.0
C355 C 0.86603 0.95898 0.28356 0.0
O356 O 0.86861 0.9758 0.31205 0.0
O357 O 0.88827 0.96943 0.26516 0.0
O358 O 0.8675 0.0541 0.35049 0.0
O359 O 0.89228 0.06474 0.3078 0.0
O360 O 0.32761 0.22343 0.47374 0.0
Cd361 Cd 0.31135 0.19184 0.5041 0.0
Cd362 Cd 0.34617 0.14902 0.46797 0.0
O363 O 0.35777 0.1894 0.44436 0.0
O364 O 0.29341 0.22228 0.53916 0.0
O365 O 0.33707 0.19561 0.54638 0.0
C366 C 0.31565 0.21488 0.55822 0.0
C367 C 0.39036 0.12725 0.49033 0.0
C368 C 0.34614 0.21745 0.45062 0.0
C369 C 0.26734 0.12098 0.47032 0.0
O370 O 0.29582 0.11463 0.45882 0.0
O371 O 0.26798 0.1506 0.4885 0.0
O372 O 0.38199 0.11933 0.46026 0.0
O373 O 0.37495 0.14932 0.50766 0.0
O374 O 0.47076 0.491 0.8276 0.0
Cd375 Cd 0.44415 0.49594 0.78688 0.0
Cd376 Cd 0.40237 0.52038 0.83354 0.0
O377 O 0.44585 0.52326 0.86414 0.0
O378 O 0.47269 0.47559 0.75343 0.0
O379 O 0.46795 0.53078 0.76239 0.0
C380 C 0.4803 0.50554 0.74614 0.0
C381 C 0.37472 0.56721 0.83517 0.0
C382 C 0.46914 0.50536 0.85638 0.0
C383 C 0.37048 0.45293 0.7881 0.0
O384 O 0.37082 0.47052 0.81607 0.0
O385 O 0.39469 0.46246 0.77092 0.0
O386 O 0.37004 0.54845 0.85578 0.0
O387 O 0.3963 0.56006 0.81403 0.0
O388 O 0.7674 0.32005 0.5011 0.0
Cd389 Cd 0.78001 0.36135 0.54043 0.0
Cd390 Cd 0.72656 0.3799 0.51091 0.0
O391 O 0.71896 0.33115 0.48003 0.0
O392 O 0.81177 0.34486 0.56831 0.0
O393 O 0.76061 0.35817 0.58205 0.0
C394 C 0.78888 0.34744 0.58888 0.0
C395 C 0.68079 0.40215 0.53562 0.0
C396 C 0.74151 0.31191 0.47953 0.0
C397 C 0.80082 0.42602 0.51626 0.0
O398 O 0.76867 0.41801 0.50349 0.0
O399 O 0.81072 0.408 0.53412 0.0
O400 O 0.68322 0.39899 0.50585 0.0
O401 O 0.70322 0.39049 0.55113 0.0
O402 O 0.68886 0.08189 0.79555 0.0
Cd403 Cd 0.6536 0.03815 0.80312 0.0
Cd404 Cd 0.61342 0.05749 0.74901 0.0
O405 O 0.66457 0.08708 0.75051 0.0
O406 O 0.68194 0.02706 0.83754 0.0
O407 O 0.66911 0.99184 0.79006 0.0
C408 C 0.68558 -0.0009 0.81799 0.0
C409 C 0.58024 0.04399 0.69974 0.0
C410 C 0.69033 0.09596 0.77215 0.0
C411 C 0.58246 0.0588 0.81279 0.0
O412 O 0.58351 0.06739 0.7865 0.0
O413 O 0.60582 0.04394 0.82216 0.0
O414 O 0.58909 0.07561 0.7169 0.0
O415 O 0.59014 0.01954 0.71045 0.0
O416 O 0.01321 0.24666 0.94119 0.0
Cd417 Cd 0.02357 0.20206 0.91306 0.0
Cd418 Cd 0.07143 0.25034 0.89637 0.0
O419 O 0.06295 0.28435 0.93675 0.0
O420 O 0.00897 0.1628 0.93491 0.0
O421 O 0.06533 0.18554 0.92804 0.0
C422 C 0.0429 0.16438 0.94021 0.0
C423 C 0.12628 0.24085 0.88013 0.0
C424 C 0.03344 0.27753 0.94894 0.0
C425 C 0.00564 0.21453 0.85164 0.0
O426 O 0.03149 0.24147 0.86084 0.0
O427 O 0.00024 0.19064 0.86705 0.0
O428 O 0.11752 0.27031 0.8803 0.0
O429 O 0.1048 0.21772 0.89103 0.0
O430 O 0.52366 0.74415 0.44075 0.0
Cd431 Cd 0.53599 0.69981 0.41431 0.0
Cd432 Cd 0.57906 0.74719 0.39241 0.0
O433 O 0.5688 0.78337 0.43062 0.0
O434 O 0.52147 0.66251 0.4381 0.0
O435 O 0.57799 0.68468 0.43129 0.0
C436 C 0.55533 0.66453 0.44423 0.0
C437 C 0.63515 0.74022 0.378 0.0
C438 C 0.54134 0.77588 0.44533 0.0
C439 C 0.5145 0.70371 0.34973 0.0
O440 O 0.53937 0.73166 0.35565 0.0
O441 O 0.51063 0.68375 0.36894 0.0
O442 O 0.62399 0.76782 0.37546 0.0
O443 O 0.61536 0.71768 0.39078 0.0
O444 O 0.98818 0.77163 0.70528 0.0
Cd445 Cd 0.02633 0.75593 0.67703 0.0
Cd446 Cd 0.00109 0.79863 0.64236 0.0
O447 O 0.97616 0.81293 0.68297 0.0
O448 O 0.05459 0.73327 0.70238 0.0
O449 O 0.07879 0.78085 0.68617 0.0
C450 C 0.08275 0.75701 0.70085 0.0
C451 C 0.03163 0.83902 0.61598 0.0
C452 C 0.97222 0.79631 0.70472 0.0
C453 C 0.99008 0.72102 0.61222 0.0
O454 O 0.9816 0.74992 0.61168 0.0
O455 O 0.00919 0.71843 0.6357 0.0
O456 O 0.99704 0.83214 0.6154 0.0
O457 O 0.04914 0.82507 0.63379 0.0
O458 O 0.48477 0.28481 0.21572 0.0
Cd459 Cd 0.52103 0.26813 0.18576 0.0
Cd460 Cd 0.49348 0.30918 0.15213 0.0
O461 O 0.4686 0.32389 0.19276 0.0
O462 O 0.55261 0.24914 0.21179 0.0
O463 O 0.57336 0.29278 0.1891 0.0
C464 C 0.57956 0.27159 0.20598 0.0
C465 C 0.52682 0.34878 0.12654 0.0
C466 C 0.46711 0.30825 0.21519 0.0
C467 C 0.4817 0.23106 0.12283 0.0
O468 O 0.47379 0.26013 0.12189 0.0
O469 O 0.50122 0.22873 0.14619 0.0
O470 O 0.49216 0.34282 0.12473 0.0
O471 O 0.54269 0.33428 0.14503 0.0
C472 C 0.28507 0.74786 0.92483 0.0
C473 C 0.26011 0.74073 0.89826 0.0
H474 H 0.30072 0.77525 0.97279 0.0
C475 C 0.22919 0.75454 0.90138 0.0
H476 H 0.30948 0.73825 0.92338 0.0
C477 C 0.22439 0.77644 0.92989 0.0
C478 C 0.25031 0.78482 0.95595 0.0
H479 H 0.20905 0.74907 0.88159 0.0
H480 H 0.20107 0.7878 0.93113 0.0
C481 C 0.28011 0.76936 0.9533 0.0
C482 C 0.02703 0.55363 0.36519 0.0
C483 C 0.00483 0.57543 0.35834 0.0
H484 H 0.07271 0.53193 0.3534 0.0
C485 C 0.01429 0.59481 0.33563 0.0
H486 H 0.02039 0.5382 0.38244 0.0
C487 C 0.04388 0.59096 0.31885 0.0
C488 C 0.06504 0.56781 0.32447 0.0
H489 H 0.99827 0.61244 0.33027 0.0
H490 H 0.04966 0.60561 0.30091 0.0
C491 C 0.05692 0.54992 0.34846 0.0
C492 C 0.82908 0.79115 0.8973 0.0
C493 C 0.85899 0.7938 0.87963 0.0
H494 H 0.80145 0.76842 0.93187 0.0
C495 C 0.88462 0.77426 0.88427 0.0
H496 H 0.80826 0.80495 0.8941 0.0
C497 C 0.88001 0.75229 0.9054 0.0
C498 C 0.85021 0.75003 0.92304 0.0
H499 H 0.90852 0.77606 0.87185 0.0
H500 H 0.89999 0.73738 0.90818 0.0
C501 C 0.82501 0.76995 0.91894 0.0
C502 C 0.02793 0.02315 0.42329 0.0
C503 C 0.0421 0.99299 0.41626 0.0
H504 H 0.99244 0.05218 0.40767 0.0
C505 C 0.02997 0.9679 0.38781 0.0
H506 H 0.0372 0.04299 0.44504 0.0
C507 C 0.00522 0.97357 0.36613 0.0
C508 C 0.99164 0.00414 0.37275 0.0
H509 H 0.04091 0.94472 0.3817 0.0
H510 H 0.99697 0.95412 0.34402 0.0
C511 C 0.00255 0.02847 0.40188 0.0
C512 C 0.29269 0.26231 0.63647 0.0
C513 C 0.30798 0.2464 0.65758 0.0
H514 H 0.28344 0.26504 0.58872 0.0
C515 C 0.3268 0.22049 0.64595 0.0
H516 H 0.27783 0.28221 0.64482 0.0
C517 C 0.33042 0.21087 0.61365 0.0
C518 C 0.31478 0.22667 0.59256 0.0
H519 H 0.33903 0.20804 0.66183 0.0
H520 H 0.34482 0.19064 0.60515 0.0
C521 C 0.29593 0.25248 0.60435 0.0
C522 C 0.52221 0.48439 0.66966 0.0
C523 C 0.54297 0.51752 0.66816 0.0
H524 H 0.48661 0.45475 0.69549 0.0
C525 C 0.54277 0.54688 0.69291 0.0
H526 H 0.52079 0.46124 0.65091 0.0
C527 C 0.52204 0.54325 0.71805 0.0
C528 C 0.50178 0.51005 0.71949 0.0
H529 H 0.55894 0.57274 0.69317 0.0
H530 H 0.52241 0.56629 0.73666 0.0
C531 C 0.50227 0.48067 0.69516 0.0
C532 C 0.78693 0.34607 0.67509 0.0
C533 C 0.81324 0.3272 0.67896 0.0
H534 H 0.75809 0.36683 0.64333 0.0
C535 C 0.8298 0.31335 0.65266 0.0
H536 H 0.77365 0.35688 0.69502 0.0
C537 C 0.8213 0.31943 0.6233 0.0
C538 C 0.79566 0.33903 0.61952 0.0
H539 H 0.85037 0.29897 0.65504 0.0
H540 H 0.83524 0.30917 0.60362 0.0
C541 C 0.77797 0.35166 0.64555 0.0
C542 C 0.54158 0.05562 0.62271 0.0
C543 C 0.51685 0.02312 0.61087 0.0
H544 H 0.58076 0.08768 0.66017 0.0
C545 C 0.51358 0.99743 0.62875 0.0
H546 H 0.54552 0.07586 0.60956 0.0
C547 C 0.53487 0.0038 0.65718 0.0
C548 C 0.55909 0.03639 0.66896 0.0
H549 H 0.49419 0.97244 0.62112 0.0
H550 H 0.53166 0.98358 0.67037 0.0
C551 C 0.5621 0.06232 0.6516 0.0
C552 C 0.92526 0.18603 0.7902 0.0
C553 C 0.9181 0.21891 0.78882 0.0
H554 H 0.9583 0.1586 0.81164 0.0
C555 C 0.94293 0.24971 0.80529 0.0
H556 H 0.90763 0.1616 0.77709 0.0
C557 C 0.97275 0.24779 0.82372 0.0
C558 C 0.97811 0.21509 0.8271 0.0
H559 H 0.93851 0.2756 0.80567 0.0
H560 H 0.99026 0.27221 0.83709 0.0
C561 C 0.95456 0.18415 0.80967 0.0
C562 C 0.51744 0.86395 0.47247 0.0
C563 C 0.48546 0.85398 0.48613 0.0
H564 H 0.56079 0.84698 0.44902 0.0
C565 C 0.47558 0.81974 0.49079 0.0
H566 H 0.52569 0.89024 0.46865 0.0
C567 C 0.49567 0.7951 0.47978 0.0
C568 C 0.52599 0.80411 0.46368 0.0
H569 H 0.45146 0.8116 0.50187 0.0
H570 H 0.48622 0.76844 0.48238 0.0
C571 C 0.53756 0.83919 0.46129 0.0
C572 C 0.21185 0.25087 0.83984 0.0
C573 C 0.21246 0.21548 0.82689 0.0
H574 H 0.18415 0.28665 0.86684 0.0
C575 C 0.1866 0.18873 0.83471 0.0
H576 H 0.23197 0.27224 0.83519 0.0
C577 C 0.15978 0.19713 0.85365 0.0
C578 C 0.15795 0.23241 0.86481 0.0
H579 H 0.18601 0.16122 0.82508 0.0
H580 H 0.1394 0.17587 0.85818 0.0
C581 C 0.18468 0.25921 0.85829 0.0
C582 C 0.61465 0.6495 0.50881 0.0
C583 C 0.58932 0.62975 0.52409 0.0
H584 H 0.62393 0.67524 0.47102 0.0
C585 C 0.5537 0.61711 0.51015 0.0
H586 H 0.64238 0.65924 0.51891 0.0
C587 C 0.543 0.62646 0.48279 0.0
C588 C 0.56784 0.6483 0.46872 0.0
H589 H 0.53362 0.60191 0.52149 0.0
H590 H 0.5149 0.61808 0.47362 0.0
C591 C 0.60408 0.65849 0.4813 0.0
C592 C 0.92635 0.84792 0.76749 0.0
C593 C 0.90513 0.82089 0.77918 0.0
H594 H 0.96364 0.86132 0.73444 0.0
C595 C 0.90521 0.78571 0.76478 0.0
H596 H 0.92782 0.87537 0.77811 0.0
C597 C 0.92699 0.77793 0.74064 0.0
C598 C 0.94833 0.80496 0.72942 0.0
H599 H 0.88856 0.76396 0.77214 0.0
H600 H 0.92693 0.75061 0.73053 0.0
C601 C 0.94725 0.83998 0.74259 0.0
C602 C 0.10158 0.87056 0.56403 0.0
C603 C 0.08099 0.88178 0.5425 0.0
H604 H 0.1024 0.84894 0.60457 0.0
C605 C 0.04545 0.88342 0.54807 0.0
H606 H 0.12928 0.86962 0.56069 0.0
C607 C 0.03003 0.87164 0.57331 0.0
C608 C 0.04992 0.85819 0.59361 0.0
H609 H 0.0289 0.89191 0.53191 0.0
H610 H 0.00197 0.87148 0.57597 0.0
C611 C 0.08626 0.85898 0.58935 0.0
C612 C 0.18356 0.77804 0.72319 0.0
C613 C 0.18718 0.75003 0.73679 0.0
H614 H 0.14783 0.80239 0.70131 0.0
C615 C 0.15594 0.72551 0.73984 0.0
H616 H 0.20702 0.7977 0.72089 0.0
C617 C 0.12206 0.72837 0.72885 0.0
C618 C 0.11854 0.75577 0.71447 0.0
H619 H 0.15768 0.70337 0.74979 0.0
H620 H 0.09868 0.70855 0.73102 0.0
C621 C 0.14962 0.78086 0.71213 0.0
C622 C 0.97262 0.62819 0.56113 0.0
C623 C 0.95686 0.63203 0.53287 0.0
H624 H 0.99545 0.6532 0.60834 0.0
C625 C 0.95263 0.66545 0.53065 0.0
H626 H 0.97629 0.60271 0.56341 0.0
C627 C 0.96323 0.69434 0.55646 0.0
C628 C 0.97858 0.69043 0.58492 0.0
H629 H 0.94013 0.66905 0.50926 0.0
H630 H 0.95931 0.71971 0.55412 0.0
C631 C 0.98353 0.6571 0.58684 0.0
C632 C 0.81182 0.87526 0.23033 0.0
C633 C 0.81589 0.85065 0.24804 0.0
H634 H 0.825 0.92939 0.22778 0.0
C635 C 0.83107 0.86332 0.27955 0.0
H636 H 0.79906 0.86676 0.20643 0.0
C637 C 0.84405 0.89936 0.29219 0.0
C638 C 0.8431 0.92333 0.27334 0.0
H639 H 0.83522 0.84551 0.29397 0.0
H640 H 0.85766 0.90817 0.31582 0.0
C641 C 0.82603 0.91121 0.24265 0.0
C642 C 0.83869 0.14955 0.31087 0.0
C643 C 0.80904 0.15024 0.32878 0.0
H644 H 0.88158 0.12434 0.2969 0.0
C645 C 0.79985 0.12451 0.34618 0.0
H646 H 0.84692 0.16916 0.29749 0.0
C647 C 0.82024 0.0995 0.34645 0.0
C648 C 0.85001 0.09905 0.32886 0.0
H649 H 0.77676 0.12357 0.35967 0.0
H650 H 0.81236 0.08023 0.36025 0.0
C651 C 0.8588 0.12407 0.31074 0.0
C652 C 0.34009 0.00477 0.98786 0.0
C653 C 0.37394 0.01893 0.00508 0.0
H654 H 0.29107 0.96528 0.98035 0.0
C655 C 0.38431 0.00329 0.02871 0.0
H656 H 0.33124 0.01663 0.96982 0.0
C657 C 0.3613 0.97373 0.03477 0.0
C658 C 0.32737 0.95959 0.01753 0.0
H659 H 0.41035 0.01369 0.04224 0.0
H660 H 0.37007 0.96207 0.05298 0.0
C661 C 0.317 0.97551 0.99409 0.0
C662 C 0.24951 0.43775 0.33313 0.0
C663 C 0.27953 0.46059 0.35255 0.0
H664 H 0.19983 0.43325 0.3055 0.0
C665 C 0.28266 0.49714 0.35768 0.0
H666 H 0.24608 0.40946 0.32872 0.0
C667 C 0.25586 0.51049 0.34537 0.0
C668 C 0.22545 0.48785 0.32674 0.0
H669 H 0.30586 0.5157 0.37152 0.0
H670 H 0.25925 0.53882 0.35024 0.0
C671 C 0.22283 0.4513 0.32009 0.0
C672 C 0.16956 0.07634 0.46963 0.0
C673 C 0.16991 0.04068 0.45897 0.0
H674 H 0.20002 0.12964 0.48134 0.0
C675 C 0.20227 0.03154 0.45062 0.0
H676 H 0.14498 0.08407 0.47628 0.0
C677 C 0.23385 0.05768 0.4532 0.0
C678 C 0.23362 0.09335 0.46453 0.0
H679 H 0.2031 0.0042 0.44193 0.0
H680 H 0.25854 0.0499 0.44703 0.0
C681 C 0.20109 0.10239 0.47252 0.0
C682 C 0.75694 0.16161 0.74049 0.0
C683 C 0.78489 0.17346 0.76502 0.0
H684 H 0.70517 0.12776 0.72341 0.0
C685 C 0.78117 0.16016 0.79217 0.0
H686 H 0.75914 0.17126 0.71924 0.0
C687 C 0.75047 0.13509 0.79452 0.0
C688 C 0.72265 0.12291 0.76986 0.0
H689 H 0.8019 0.16935 0.8118 0.0
H690 H 0.74856 0.12534 0.81572 0.0
C691 C 0.72612 0.13659 0.74287 0.0
C692 C 0.43307 0.08735 0.54908 0.0
C693 C 0.44872 0.06324 0.52907 0.0
H694 H 0.40245 0.12687 0.55254 0.0
C695 C 0.44894 0.06382 0.49708 0.0
H696 H 0.43236 0.08747 0.57381 0.0
C697 C 0.43172 0.08615 0.48489 0.0
C698 C 0.41399 0.10861 0.50443 0.0
H699 H 0.46142 0.04606 0.48118 0.0
H700 H 0.43112 0.08477 0.45986 0.0
C701 C 0.41587 0.10986 0.53686 0.0
C702 C 0.61366 0.45958 0.54962 0.0
C703 C 0.61568 0.46904 0.58265 0.0
H704 H 0.63203 0.43058 0.5089 0.0
C705 C 0.63628 0.45316 0.60006 0.0
H706 H 0.59757 0.47096 0.53556 0.0
C707 C 0.65609 0.42987 0.58475 0.0
C708 C 0.65554 0.42192 0.55175 0.0
H709 H 0.63851 0.46006 0.62555 0.0
H710 H 0.67299 0.4193 0.59885 0.0
C711 C 0.63328 0.43626 0.53435 0.0
C712 C 0.7202 0.25388 0.39674 0.0
C713 C 0.7506 0.23925 0.39352 0.0
H714 H 0.69307 0.28808 0.42658 0.0
C715 C 0.775 0.24506 0.42025 0.0
H716 H 0.70041 0.24937 0.37686 0.0
C717 C 0.77033 0.26651 0.44883 0.0
C718 C 0.74146 0.28326 0.45143 0.0
H719 H 0.79899 0.23477 0.4188 0.0
H720 H 0.7907 0.27158 0.46839 0.0
C721 C 0.71576 0.27579 0.42535 0.0
C722 C 0.50426 0.0961 0.84285 0.0
C723 C 0.49407 0.07817 0.86641 0.0
H724 H 0.53985 0.10403 0.80761 0.0
C725 C 0.51467 0.05514 0.87355 0.0
H726 H 0.48962 0.11466 0.83721 0.0
C727 C 0.54403 0.04938 0.85676 0.0
C728 C 0.55315 0.06629 0.83233 0.0
H729 H 0.50741 0.04064 0.89136 0.0
H730 H 0.55887 0.03091 0.86228 0.0
C731 C 0.53323 0.09009 0.82593 0.0
C732 C 0.32905 0.28446 0.40649 0.0
C733 C 0.35915 0.28925 0.38922 0.0
H734 H 0.30192 0.25885 0.43957 0.0
C735 C 0.38509 0.26952 0.3921 0.0
H736 H 0.30784 0.29812 0.40431 0.0
C737 C 0.38098 0.24589 0.41182 0.0
C738 C 0.35134 0.24213 0.42961 0.0
H739 H 0.4089 0.27268 0.37961 0.0
H740 H 0.4013 0.23109 0.41359 0.0
C741 C 0.32548 0.26168 0.42667 0.0
C742 C 0.52797 0.52075 0.93253 0.0
C743 C 0.54475 0.49233 0.92597 0.0
H744 H 0.49048 0.54702 0.9157 0.0
C745 C 0.53494 0.46713 0.89731 0.0
H746 H 0.53562 0.54076 0.95437 0.0
C747 C 0.51003 0.47122 0.87484 0.0
C748 C 0.49406 0.50029 0.88089 0.0
H749 H 0.54806 0.44538 0.89158 0.0
H750 H 0.50372 0.45191 0.85251 0.0
C751 C 0.50246 0.52446 0.91033 0.0
C752 C 0.7918 0.76934 0.13199 0.0
C753 C 0.80836 0.75355 0.15246 0.0
H754 H 0.78123 0.77292 0.08467 0.0
C755 C 0.82806 0.7287 0.14001 0.0
H756 H 0.77622 0.7884 0.14094 0.0
C757 C 0.83127 0.72001 0.10759 0.0
C758 C 0.81442 0.73573 0.08716 0.0
H759 H 0.84129 0.71637 0.15537 0.0
H760 H 0.84636 0.70056 0.09848 0.0
C761 C 0.79471 0.76048 0.09975 0.0
C762 C 0.01599 0.98391 0.16261 0.0
C763 C 0.03733 0.01648 0.16037 0.0
H764 H 0.97973 0.95594 0.18912 0.0
C765 C 0.03754 0.04661 0.1844 0.0
H766 H 0.01434 0.96023 0.1444 0.0
C767 C 0.01668 0.04425 0.20964 0.0
C768 C 0.99583 0.0116 0.21185 0.0
H769 H 0.05416 0.07207 0.18403 0.0
H770 H 0.01743 0.06785 0.22772 0.0
C771 C 0.99583 0.98146 0.18817 0.0
C772 C 0.34598 0.81154 0.15312 0.0
C773 C 0.33065 0.82383 0.1807 0.0
H774 H 0.3483 0.80957 0.10404 0.0
C775 C 0.30371 0.84261 0.17921 0.0
H776 H 0.36696 0.79723 0.15368 0.0
C777 C 0.29262 0.84931 0.15065 0.0
C778 C 0.30884 0.83796 0.12328 0.0
H779 H 0.29137 0.85222 0.20017 0.0
H780 H 0.27212 0.86418 0.1502 0.0
C781 C 0.33541 0.81879 0.12477 0.0
C782 C 0.01084 0.50409 0.12281 0.0
C783 C 0.01425 0.5294 0.10456 0.0
H784 H 0.03027 0.49 0.16382 0.0
C785 C 0.04015 0.56133 0.11538 0.0
H786 H 0.99054 0.47963 0.116 0.0
C787 C 0.06198 0.56766 0.14353 0.0
C788 C 0.05907 0.54189 0.16104 0.0
H789 H 0.04413 0.58125 0.1019 0.0
H790 H 0.08171 0.59247 0.15126 0.0
C791 C 0.03342 0.51003 0.15042 0.0
C792 C 0.42332 0.67913 0.30393 0.0
C793 C 0.42866 0.70012 0.28181 0.0
H794 H 0.4464 0.66293 0.342 0.0
C795 C 0.46388 0.71827 0.27944 0.0
H796 H 0.39664 0.66523 0.30709 0.0
C797 C 0.4925 0.71744 0.30016 0.0
C798 C 0.48658 0.6981 0.32341 0.0
H799 H 0.4692 0.7341 0.26233 0.0
H800 H 0.519 0.73319 0.29884 0.0
C801 C 0.45197 0.67783 0.3242 0.0
C802 C 0.96688 0.32368 0.9904 0.0
C803 C 0.97877 0.35783 0.98592 0.0
H804 H 0.97559 0.27164 0.98313 0.0
C805 C 0.01241 0.36691 0.97446 0.0
H806 H 0.94149 0.31618 0.99993 0.0
C807 C 0.03223 0.34141 0.96506 0.0
C808 C 0.01866 0.3064 0.9669 0.0
H809 H 0.02231 0.39307 0.97081 0.0
H810 H 0.05678 0.34855 0.95423 0.0
C811 C 0.98662 0.29826 0.98103 0.0
C812 C 0.69701 0.69024 0.33259 0.0
C813 C 0.72155 0.71756 0.32416 0.0
H814 H 0.65072 0.67614 0.35688 0.0
C815 C 0.72014 0.75266 0.33736 0.0
H816 H 0.69714 0.66293 0.32286 0.0
C817 C 0.6931 0.76014 0.3563 0.0
C818 C 0.66739 0.73276 0.36315 0.0
H819 H 0.73933 0.77447 0.33233 0.0
H820 H 0.69168 0.78735 0.36479 0.0
C821 C 0.67035 0.69781 0.3521 0.0
C822 C 0.10549 0.14326 0.99857 0.0
C823 C 0.08109 0.12536 0.01583 0.0
H824 H 0.1126 0.16884 0.96057 0.0
C825 C 0.04432 0.1156 0.00501 0.0
H826 H 0.13403 0.15073 0.00623 0.0
C827 C 0.03189 0.12618 0.97888 0.0
C828 C 0.0561 0.14642 0.96303 0.0
H829 H 0.02494 0.10187 0.01796 0.0
H830 H 0.00319 0.12019 0.97224 0.0
C831 C 0.09317 0.15351 0.97235 0.0
C832 C 0.42274 0.35612 0.28175 0.0
C833 C 0.40176 0.32774 0.29191 0.0
H834 H 0.45944 0.37227 0.24907 0.0
C835 C 0.40077 0.29323 0.27476 0.0
H836 H 0.42474 0.38309 0.29436 0.0
C837 C 0.42176 0.28724 0.24973 0.0
C838 C 0.44331 0.31551 0.24028 0.0
H839 H 0.38409 0.27059 0.28081 0.0
H840 H 0.42115 0.26033 0.23767 0.0
C841 C 0.44292 0.35004 0.25591 0.0
C842 C 0.5473 0.39067 0.05776 0.0
C843 C 0.58428 0.39216 0.05678 0.0
H844 H 0.50014 0.37614 0.08083 0.0
C845 C 0.6029 0.3836 0.08139 0.0
H846 H 0.53214 0.39701 0.03918 0.0
C847 C 0.58459 0.37154 0.10522 0.0
C848 C 0.54721 0.36784 0.10507 0.0
H849 H 0.63157 0.38524 0.08175 0.0
H850 H 0.59954 0.36371 0.12298 0.0
C851 C 0.52896 0.37862 0.08165 0.0
C852 C 0.65848 0.26494 0.25762 0.0
C853 C 0.68557 0.26427 0.2368 0.0
H854 H 0.60363 0.26718 0.26394 0.0
C855 C 0.67749 0.26825 0.20617 0.0
H856 H 0.66349 0.2632 0.28168 0.0
C857 C 0.64356 0.27244 0.19671 0.0
C858 C 0.61646 0.27151 0.21718 0.0
H859 H 0.69688 0.26713 0.18897 0.0
H860 H 0.638 0.27479 0.17287 0.0
C861 C 0.62417 0.26777 0.24769 0.0
C862 C 0.4644 0.13803 0.0721 0.0
C863 C 0.44808 0.14155 0.04393 0.0
H864 H 0.48773 0.16343 0.11911 0.0
C865 C 0.44284 0.17471 0.04187 0.0
H866 H 0.46889 0.11279 0.07428 0.0
C867 C 0.45333 0.20368 0.06761 0.0
C868 C 0.46954 0.20015 0.09588 0.0
H869 H 0.42987 0.17807 0.02059 0.0
H870 H 0.44883 0.22886 0.0653 0.0
C871 C 0.47514 0.16704 0.09776 0.0
C872 C 0.33157 0.35782 0.78389 0.0
C873 C 0.3174 0.34534 0.75209 0.0
H874 H 0.35832 0.4023 0.82048 0.0
C875 C 0.3157 0.3701 0.73394 0.0
H876 H 0.33396 0.33988 0.79867 0.0
C877 C 0.33106 0.40583 0.74627 0.0
C878 C 0.3469 0.41767 0.77738 0.0
H879 H 0.3038 0.36184 0.70976 0.0
H880 H 0.33176 0.42404 0.73118 0.0
C881 C 0.34566 0.39371 0.79651 0.0
C882 C 0.34412 0.64539 0.81656 0.0
C883 C 0.31563 0.64781 0.83561 0.0
H884 H 0.38519 0.61815 0.80146 0.0
C885 C 0.3069 0.62336 0.85432 0.0
H886 H 0.352 0.66406 0.80219 0.0
C887 C 0.32638 0.59757 0.85435 0.0
C888 C 0.35485 0.59522 0.83538 0.0
H889 H 0.28475 0.6239 0.86883 0.0
H890 H 0.3188 0.57919 0.86903 0.0
C891 C 0.36339 0.61927 0.81633 0.0
C892 C 0.88591 0.4964 0.51942 0.0
C893 C 0.87692 0.51208 0.49536 0.0
H894 H 0.86899 0.45672 0.54486 0.0
C895 C 0.84276 0.49946 0.47843 0.0
H896 H 0.91215 0.5056 0.53275 0.0
C897 C 0.818 0.47176 0.48547 0.0
C898 C 0.82697 0.45587 0.50943 0.0
H899 H 0.83496 0.5114 0.46005 0.0
H900 H 0.79187 0.4627 0.47197 0.0
C901 C 0.86124 0.46841 0.52629 0.0
C902 C 0.75445 0.94271 0.81183 0.0
C903 C 0.77032 0.95201 0.84309 0.0
H904 H 0.71473 0.95019 0.77918 0.0
C905 C 0.75445 0.97245 0.86636 0.0
H906 H 0.76612 0.92703 0.79339 0.0
C907 C 0.72529 0.98569 0.85831 0.0
C908 C 0.7111 0.97878 0.82676 0.0
H909 H 0.76562 0.97951 0.89075 0.0
H910 H 0.71496 0.00276 0.87672 0.0
C911 C 0.72506 0.95601 0.80371 0.0
C912 C 0.70531 0.53909 0.95471 0.0
C913 C 0.67259 0.54734 0.96305 0.0
H914 H 0.76064 0.55885 0.94873 0.0
C915 C 0.67048 0.58277 0.97091 0.0
H916 H 0.70746 0.51192 0.94811 0.0
C917 C 0.70071 0.60953 0.97116 0.0
C918 C 0.73365 0.60142 0.96332 0.0
H919 H 0.64559 0.58984 0.97749 0.0
H920 H 0.69837 0.63663 0.97801 0.0
C921 C 0.73556 0.56591 0.95466 0.0
C922 C 0.29524 0.64088 0.26991 0.0
C923 C 0.29909 0.65829 0.24522 0.0
H924 H 0.26098 0.60567 0.29175 0.0
C925 C 0.26959 0.65241 0.22274 0.0
H926 H 0.31698 0.6455 0.28821 0.0
C927 C 0.23688 0.62979 0.22514 0.0
C928 C 0.23319 0.61264 0.25002 0.0
H929 H 0.27173 0.66538 0.20343 0.0
H930 H 0.21451 0.62588 0.20761 0.0
C931 C 0.26286 0.61824 0.27216 0.0
C932 C 0.93185 0.59498 0.04357 0.0
C933 C 0.94595 0.56982 0.0232 0.0
H934 H 0.90322 0.6361 0.04772 0.0
C935 C 0.94536 0.56998 0.99109 0.0
H936 H 0.93176 0.59547 0.06841 0.0
C937 C 0.92893 0.59308 0.97924 0.0
C938 C 0.9128 0.61672 0.99922 0.0
H939 H 0.95668 0.55144 0.97489 0.0
H940 H 0.92766 0.59142 0.95415 0.0
C941 C 0.91545 0.61823 0.0317 0.0
C942 C 0.13233 0.95036 0.09768 0.0
C943 C 0.11239 0.96502 0.07853 0.0
H944 H 0.16967 0.91768 0.09975 0.0
C945 C 0.11208 0.95434 0.04568 0.0
H946 H 0.13327 0.95821 0.12309 0.0
C947 C 0.13283 0.93114 0.03233 0.0
C948 C 0.15452 0.91813 0.05151 0.0
H949 H 0.09654 0.96473 0.03028 0.0
H950 H 0.13298 0.92458 0.00696 0.0
C951 C 0.15325 0.92718 0.0843 0.0
loop_
_geom_bond_atom_site_label_1
_geom_bond_atom_site_label_2
_geom_bond_distance
_geom_bond_site_symmetry_2
_ccdc_geom_bond_type
H0 C1 0.949 . S
C1 H0 0.949 . S
C1 C2 1.395 . S
C1 C3 1.391 . S
C2 C1 1.395 . S
C2 C5 1.390 . S
C3 C1 1.391 . S
C3 C7 1.387 . S
C3 C8 1.491 . S
H4 C5 0.950 . S
C5 C2 1.390 . S
C5 H4 0.950 . S
C5 C6 1.378 . S
C6 C5 1.378 . S
C6 C7 1.409 . S
C7 C3 1.387 . S
C7 C6 1.409 . S
C7 H9 0.951 . S
C8 C3 1.491 . S
C8 C10 1.382 . S
C8 C12 1.404 . S
H9 C7 0.951 . S
C10 C8 1.382 . S
C10 C11 1.390 . S
C10 H15 0.949 . S
C11 C10 1.390 . S
C11 C16 1.399 . S
C12 C8 1.404 . S
C12 H13 0.950 . S
C12 C14 1.375 . S
H13 C12 0.950 . S
C14 C12 1.375 . S
C14 C16 1.382 . S
C14 H18 0.950 . S
H15 C10 0.949 . S
C16 C11 1.399 . S
C16 C14 1.382 . S
C16 H17 0.952 . S
H17 C16 0.952 . S
H18 C14 0.950 . S
H19 C20 0.949 . S
C20 H19 0.949 . S
C20 C21 1.395 . S
C20 C22 1.391 . S
C21 C20 1.395 . S
C21 C24 1.390 . S
C22 C20 1.391 . S
C22 C26 1.387 . S
C22 C27 1.491 . S
H23 C24 0.950 . S
C24 C21 1.390 . S
C24 H23 0.950 . S
C24 C25 1.378 . S
C25 C24 1.378 . S
C25 C26 1.409 . S
C26 C22 1.387 . S
C26 C25 1.409 . S
C26 H28 0.951 . S
C27 C22 1.491 . S
C27 C29 1.382 . S
C27 C31 1.404 . S
H28 C26 0.951 . S
C29 C27 1.382 . S
C29 C30 1.390 . S
C29 H34 0.949 . S
C30 C29 1.390 . S
C30 C35 1.399 . S
C31 C27 1.404 . S
C31 H32 0.950 . S
C31 C33 1.375 . S
H32 C31 0.950 . S
C33 C31 1.375 . S
C33 C35 1.382 . S
C33 H37 0.950 . S
H34 C29 0.949 . S
C35 C30 1.399 . S
C35 C33 1.382 . S
C35 H36 0.952 . S
H36 C35 0.952 . S
H37 C33 0.950 . S
H38 C39 0.949 . S
C39 H38 0.949 . S
C39 C40 1.395 . S
C39 C41 1.391 . S
C40 C39 1.395 . S
C40 C43 1.390 . S
C41 C39 1.391 . S
C41 C45 1.387 . S
C41 C46 1.491 . S
H42 C43 0.950 . S
C43 C40 1.390 . S
C43 H42 0.950 . S
C43 C44 1.378 . S
C44 C43 1.378 . S
C44 C45 1.409 . S
C45 C41 1.387 . S
C45 C44 1.409 . S
C45 H47 0.951 . S
C46 C41 1.491 . S
C46 C48 1.382 . S
C46 C50 1.404 1_554 S
H47 C45 0.951 . S
C48 C46 1.382 . S
C48 C49 1.390 1_554 S
C48 H53 0.949 . S
C49 C48 1.390 1_556 S
C49 C54 1.399 . S
C50 C46 1.404 1_556 S
C50 H51 0.950 . S
C50 C52 1.375 . S
H51 C50 0.950 . S
C52 C50 1.375 . S
C52 C54 1.382 . S
C52 H56 0.950 . S
H53 C48 0.949 . S
C54 C49 1.399 . S
C54 C52 1.382 . S
C54 H55 0.952 . S
H55 C54 0.952 . S
H56 C52 0.950 . S
H57 C58 0.949 . S
C58 H57 0.949 . S
C58 C59 1.395 . S
C58 C60 1.391 . S
C59 C58 1.395 . S
C59 C62 1.390 . S
C60 C58 1.391 . S
C60 C64 1.387 . S
C60 C65 1.491 . S
H61 C62 0.950 . S
C62 C59 1.390 . S
C62 H61 0.950 . S
C62 C63 1.378 . S
C63 C62 1.378 . S
C63 C64 1.409 . S
C64 C60 1.387 . S
C64 C63 1.409 . S
C64 H66 0.951 . S
C65 C60 1.491 . S
C65 C67 1.382 . S
C65 C69 1.404 . S
H66 C64 0.951 . S
C67 C65 1.382 . S
C67 C68 1.390 . S
C67 H72 0.949 . S
C68 C67 1.390 . S
C68 C73 1.399 . S
C69 C65 1.404 . S
C69 H70 0.950 . S
C69 C71 1.375 . S
H70 C69 0.950 . S
C71 C69 1.375 . S
C71 C73 1.382 . S
C71 H75 0.950 . S
H72 C67 0.949 . S
C73 C68 1.399 . S
C73 C71 1.382 . S
C73 H74 0.952 . S
H74 C73 0.952 . S
H75 C71 0.950 . S
H76 C77 0.949 . S
C77 H76 0.949 . S
C77 C78 1.395 . S
C77 C79 1.391 . S
C78 C77 1.395 . S
C78 C81 1.390 . S
C79 C77 1.391 . S
C79 C83 1.387 . S
C79 C84 1.491 . S
H80 C81 0.950 1_545 S
C81 C78 1.390 . S
C81 H80 0.950 1_565 S
C81 C82 1.378 . S
C82 C81 1.378 . S
C82 C83 1.409 . S
C83 C79 1.387 . S
C83 C82 1.409 . S
C83 H85 0.951 . S
C84 C79 1.491 . S
C84 C86 1.382 . S
C84 C88 1.404 . S
H85 C83 0.951 . S
C86 C84 1.382 . S
C86 C87 1.390 . S
C86 H91 0.949 . S
C87 C86 1.390 . S
C87 C92 1.399 . S
C88 C84 1.404 . S
C88 H89 0.950 . S
C88 C90 1.375 . S
H89 C88 0.950 . S
C90 C88 1.375 . S
C90 C92 1.382 . S
C90 H94 0.950 . S
H91 C86 0.949 . S
C92 C87 1.399 . S
C92 C90 1.382 . S
C92 H93 0.952 . S
H93 C92 0.952 . S
H94 C90 0.950 . S
H95 C96 0.949 . S
C96 H95 0.949 . S
C96 C97 1.395 . S
C96 C98 1.391 . S
C97 C96 1.395 . S
C97 C100 1.390 . S
C98 C96 1.391 . S
C98 C102 1.387 . S
C98 C103 1.491 . S
H99 C100 0.950 . S
C100 C97 1.390 . S
C100 H99 0.950 . S
C100 C101 1.378 . S
C101 C100 1.378 . S
C101 C102 1.409 . S
C102 C98 1.387 . S
C102 C101 1.409 . S
C102 H104 0.951 . S
C103 C98 1.491 . S
C103 C105 1.382 . S
C103 C107 1.404 . S
H104 C102 0.951 . S
C105 C103 1.382 . S
C105 C106 1.390 . S
C105 H110 0.949 . S
C106 C105 1.390 . S
C106 C111 1.399 . S
C107 C103 1.404 . S
C107 H108 0.950 . S
C107 C109 1.375 . S
H108 C107 0.950 . S
C109 C107 1.375 . S
C109 C111 1.382 . S
C109 H113 0.950 . S
H110 C105 0.949 . S
C111 C106 1.399 . S
C111 C109 1.382 . S
C111 H112 0.952 . S
H112 C111 0.952 . S
H113 C109 0.950 . S
H114 C115 0.949 . S
C115 H114 0.949 . S
C115 C116 1.395 . S
C115 C117 1.391 . S
C116 C115 1.395 . S
C116 C119 1.390 . S
C117 C115 1.391 . S
C117 C121 1.387 . S
C117 C122 1.491 . S
H118 C119 0.950 . S
C119 C116 1.390 . S
C119 H118 0.950 . S
C119 C120 1.378 . S
C120 C119 1.378 . S
C120 C121 1.409 . S
C121 C117 1.387 . S
C121 C120 1.409 . S
C121 H123 0.951 . S
C122 C117 1.491 . S
C122 C124 1.382 . S
C122 C126 1.404 . S
H123 C121 0.951 . S
C124 C122 1.382 . S
C124 C125 1.390 . S
C124 H129 0.949 . S
C125 C124 1.390 . S
C125 C130 1.399 . S
C126 C122 1.404 . S
C126 H127 0.950 . S
C126 C128 1.375 . S
H127 C126 0.950 . S
C128 C126 1.375 . S
C128 C130 1.382 . S
C128 H132 0.950 . S
H129 C124 0.949 . S
C130 C125 1.399 . S
C130 C128 1.382 . S
C130 H131 0.952 . S
H131 C130 0.952 . S
H132 C128 0.950 . S
H133 C134 0.949 . S
C134 H133 0.949 . S
C134 C135 1.395 . S
C134 C136 1.391 . S
C135 C134 1.395 . S
C135 C138 1.390 . S
C136 C134 1.391 . S
C136 C140 1.387 . S
C136 C141 1.491 . S
H137 C138 0.950 . S
C138 C135 1.390 . S
C138 H137 0.950 . S
C138 C139 1.378 . S
C139 C138 1.378 . S
C139 C140 1.409 . S
C140 C136 1.387 . S
C140 C139 1.409 . S
C140 H142 0.951 . S
C141 C136 1.491 . S
C141 C143 1.382 . S
C141 C145 1.404 . S
H142 C140 0.951 . S
C143 C141 1.382 . S
C143 C144 1.390 . S
C143 H148 0.949 . S
C144 C143 1.390 . S
C144 C149 1.399 . S
C145 C141 1.404 . S
C145 H146 0.950 . S
C145 C147 1.375 . S
H146 C145 0.950 . S
C147 C145 1.375 . S
C147 C149 1.382 . S
C147 H151 0.950 . S
H148 C143 0.949 . S
C149 C144 1.399 . S
C149 C147 1.382 . S
C149 H150 0.952 . S
H150 C149 0.952 . S
H151 C147 0.950 . S
H152 C153 0.949 . S
C153 H152 0.949 . S
C153 C154 1.395 . S
C153 C155 1.391 . S
C154 C153 1.395 . S
C154 C157 1.390 . S
C155 C153 1.391 . S
C155 C159 1.387 . S
C155 C160 1.491 . S
H156 C157 0.950 . S
C157 C154 1.390 . S
C157 H156 0.950 . S
C157 C158 1.378 . S
C158 C157 1.378 . S
C158 C159 1.409 . S
C159 C155 1.387 . S
C159 C158 1.409 . S
C159 H161 0.951 . S
C160 C155 1.491 . S
C160 C162 1.382 . S
C160 C164 1.404 . S
H161 C159 0.951 . S
C162 C160 1.382 . S
C162 C163 1.390 . S
C162 H167 0.949 . S
C163 C162 1.390 . S
C163 C168 1.399 . S
C164 C160 1.404 . S
C164 H165 0.950 . S
C164 C166 1.375 . S
H165 C164 0.950 . S
C166 C164 1.375 . S
C166 C168 1.382 . S
C166 H170 0.950 . S
H167 C162 0.949 . S
C168 C163 1.399 . S
C168 C166 1.382 . S
C168 H169 0.952 . S
H169 C168 0.952 . S
H170 C166 0.950 . S
H171 C172 0.949 . S
C172 H171 0.949 . S
C172 C173 1.395 . S
C172 C174 1.391 . S
C173 C172 1.395 . S
C173 C176 1.390 . S
C174 C172 1.391 . S
C174 C178 1.387 . S
C174 C179 1.491 . S
H175 C176 0.950 . S
C176 C173 1.390 . S
C176 H175 0.950 . S
C176 C177 1.378 . S
C177 C176 1.378 . S
C177 C178 1.409 . S
C178 C174 1.387 . S
C178 C177 1.409 . S
C178 H180 0.951 . S
C179 C174 1.491 . S
C179 C181 1.382 . S
C179 C183 1.404 . S
H180 C178 0.951 . S
C181 C179 1.382 . S
C181 C182 1.390 . S
C181 H186 0.949 . S
C182 C181 1.390 . S
C182 C187 1.399 . S
C183 C179 1.404 . S
C183 H184 0.950 . S
C183 C185 1.375 . S
H184 C183 0.950 . S
C185 C183 1.375 . S
C185 C187 1.382 . S
C185 H189 0.950 . S
H186 C181 0.949 . S
C187 C182 1.399 . S
C187 C185 1.382 . S
C187 H188 0.952 . S
H188 C187 0.952 . S
H189 C185 0.950 . S
H190 C191 0.949 . S
C191 H190 0.949 . S
C191 C192 1.395 . S
C191 C193 1.391 . S
C192 C191 1.395 . S
C192 C195 1.390 . S
C193 C191 1.391 . S
C193 C197 1.387 . S
C193 C198 1.491 . S
H194 C195 0.950 . S
C195 C192 1.390 . S
C195 H194 0.950 . S
C195 C196 1.378 . S
C196 C195 1.378 . S
C196 C197 1.409 . S
C197 C193 1.387 . S
C197 C196 1.409 . S
C197 H199 0.951 . S
C198 C193 1.491 . S
C198 C200 1.382 . S
C198 C202 1.404 . S
H199 C197 0.951 . S
C200 C198 1.382 . S
C200 C201 1.390 . S
C200 H205 0.949 . S
C201 C200 1.390 . S
C201 C206 1.399 . S
C202 C198 1.404 . S
C202 H203 0.950 . S
C202 C204 1.375 . S
H203 C202 0.950 . S
C204 C202 1.375 . S
C204 C206 1.382 . S
C204 H208 0.950 . S
H205 C200 0.949 . S
C206 C201 1.399 . S
C206 C204 1.382 . S
C206 H207 0.952 . S
H207 C206 0.952 . S
H208 C204 0.950 . S
H209 C210 0.949 . S
C210 H209 0.949 . S
C210 C211 1.395 . S
C210 C212 1.391 . S
C211 C210 1.395 . S
C211 C214 1.390 . S
C212 C210 1.391 . S
C212 C216 1.387 . S
C212 C217 1.491 . S
H213 C214 0.950 . S
C214 C211 1.390 . S
C214 H213 0.950 . S
C214 C215 1.378 . S
C215 C214 1.378 . S
C215 C216 1.409 . S
C216 C212 1.387 . S
C216 C215 1.409 . S
C216 H218 0.951 . S
C217 C212 1.491 . S
C217 C219 1.382 . S
C217 C221 1.404 . S
H218 C216 0.951 . S
C219 C217 1.382 . S
C219 C220 1.390 . S
C219 H224 0.949 . S
C220 C219 1.390 . S
C220 C225 1.399 . S
C221 C217 1.404 . S
C221 H222 0.950 . S
C221 C223 1.375 . S
H222 C221 0.950 . S
C223 C221 1.375 . S
C223 C225 1.382 . S
C223 H227 0.950 . S
H224 C219 0.949 . S
C225 C220 1.399 . S
C225 C223 1.382 . S
C225 H226 0.952 . S
H226 C225 0.952 . S
H227 C223 0.950 . S
H228 C229 0.949 . S
C229 H228 0.949 . S
C229 C230 1.395 . S
C229 C231 1.391 . S
C230 C229 1.395 . S
C230 C233 1.390 . S
C231 C229 1.391 . S
C231 C235 1.387 . S
C231 C236 1.491 . S
H232 C233 0.950 . S
C233 C230 1.390 . S
C233 H232 0.950 . S
C233 C234 1.378 . S
C234 C233 1.378 . S
C234 C235 1.409 . S
C235 C231 1.387 . S
C235 C234 1.409 . S
C235 H237 0.951 . S
C236 C231 1.491 . S
C236 C238 1.382 . S
C236 C240 1.404 . S
H237 C235 0.951 . S
C238 C236 1.382 . S
C238 C239 1.390 . S
C238 H243 0.949 . S
C239 C238 1.390 . S
C239 C244 1.399 . S
C240 C236 1.404 . S
C240 H241 0.950 . S
C240 C242 1.375 . S
H241 C240 0.950 . S
C242 C240 1.375 . S
C242 C244 1.382 . S
C242 H246 0.950 . S
H243 C238 0.949 . S
C244 C239 1.399 . S
C244 C242 1.382 . S
C244 H245 0.952 . S
H245 C244 0.952 . S
H246 C242 0.950 . S
H247 C248 0.949 . S
C248 H247 0.949 . S
C248 C249 1.395 . S
C248 C250 1.391 . S
C249 C248 1.395 . S
C249 C252 1.390 . S
C250 C248 1.391 . S
C250 C254 1.387 . S
C250 C255 1.491 . S
H251 C252 0.950 . S
C252 C249 1.390 . S
C252 H251 0.950 . S
C252 C253 1.378 . S
C253 C252 1.378 . S
C253 C254 1.409 . S
C254 C250 1.387 . S
C254 C253 1.409 . S
C254 H256 0.951 . S
C255 C250 1.491 . S
C255 C257 1.382 . S
C255 C259 1.404 . S
H256 C254 0.951 . S
C257 C255 1.382 . S
C257 C258 1.390 . S
C257 H262 0.949 . S
C258 C257 1.390 . S
C258 C263 1.399 . S
C259 C255 1.404 . S
C259 H260 0.950 . S
C259 C261 1.375 . S
H260 C259 0.950 . S
C261 C259 1.375 . S
C261 C263 1.382 . S
C261 H265 0.950 . S
H262 C257 0.949 . S
C263 C258 1.399 . S
C263 C261 1.382 . S
C263 H264 0.952 . S
H264 C263 0.952 . S
H265 C261 0.950 . S
H266 C267 0.949 . S
C267 H266 0.949 . S
C267 C268 1.395 . S
C267 C269 1.391 . S
C268 C267 1.395 . S
C268 C271 1.390 . S
C269 C267 1.391 . S
C269 C273 1.387 . S
C269 C274 1.491 . S
H270 C271 0.950 . S
C271 C268 1.390 . S
C271 H270 0.950 . S
C271 C272 1.378 . S
C272 C271 1.378 . S
C272 C273 1.409 . S
C273 C269 1.387 . S
C273 C272 1.409 . S
C273 H275 0.951 . S
C274 C269 1.491 . S
C274 C276 1.382 . S
C274 C278 1.404 . S
H275 C273 0.951 . S
C276 C274 1.382 . S
C276 C277 1.390 . S
C276 H281 0.949 . S
C277 C276 1.390 . S
C277 C282 1.399 . S
C278 C274 1.404 . S
C278 H279 0.950 . S
C278 C280 1.375 . S
H279 C278 0.950 . S
C280 C278 1.375 . S
C280 C282 1.382 . S
C280 H284 0.950 . S
H281 C276 0.949 . S
C282 C277 1.399 . S
C282 C280 1.382 . S
C282 H283 0.952 . S
H283 C282 0.952 . S
H284 C280 0.950 . S
H285 C286 0.949 . S
C286 H285 0.949 . S
C286 C287 1.395 . S
C286 C288 1.391 . S
C287 C286 1.395 . S
C287 C290 1.390 . S
C288 C286 1.391 . S
C288 C292 1.387 . S
C288 C293 1.491 . S
H289 C290 0.950 1_554 S
C290 C287 1.390 . S
C290 H289 0.950 1_556 S
C290 C291 1.378 . S
C291 C290 1.378 . S
C291 C292 1.409 . S
C292 C288 1.387 . S
C292 C291 1.409 . S
C292 H294 0.951 . S
C293 C288 1.491 . S
C293 C295 1.382 . S
C293 C297 1.404 . S
H294 C292 0.951 . S
C295 C293 1.382 . S
C295 C296 1.390 . S
C295 H300 0.949 . S
C296 C295 1.390 . S
C296 C301 1.399 . S
C297 C293 1.404 . S
C297 H298 0.950 . S
C297 C299 1.375 . S
H298 C297 0.950 . S
C299 C297 1.375 . S
C299 C301 1.382 . S
C299 H303 0.950 . S
H300 C295 0.949 . S
C301 C296 1.399 . S
C301 C299 1.382 . S
C301 H302 0.952 . S
H302 C301 0.952 . S
H303 C299 0.950 . S
O304 Cd305 2.223 . S
O304 C312 1.315 . S
Cd305 O304 2.223 . S
Cd305 O308 2.297 . S
Cd305 O309 2.439 . S
Cd305 O315 2.240 . S
Cd306 O307 2.240 . S
Cd306 O314 2.223 . S
Cd306 O316 2.297 1_565 S
Cd306 O317 2.439 . S
O307 Cd306 2.240 . S
O307 C312 1.279 . S
O308 Cd305 2.297 . S
O308 C310 1.247 . S
O309 Cd305 2.439 . S
O309 C310 1.208 . S
C310 O308 1.247 . S
C310 O309 1.208 . S
C311 O316 1.247 . S
C311 O317 1.208 1_545 S
C312 O304 1.315 . S
C312 O307 1.279 . S
C313 O314 1.315 . S
C313 O315 1.279 . S
O314 Cd306 2.223 . S
O314 C313 1.315 . S
O315 Cd305 2.240 . S
O315 C313 1.279 . S
O316 Cd306 2.297 1_545 S
O316 C311 1.247 . S
O317 Cd306 2.439 . S
O317 C311 1.208 1_565 S
O318 Cd319 2.223 . S
O318 C326 1.315 . S
Cd319 O318 2.223 . S
Cd319 O322 2.297 . S
Cd319 O323 2.439 . S
Cd319 O329 2.240 . S
Cd320 O321 2.240 . S
Cd320 O328 2.223 . S
Cd320 O330 2.297 . S
Cd320 O331 2.439 . S
O321 Cd320 2.240 . S
O321 C326 1.279 . S
O322 Cd319 2.297 . S
O322 C324 1.247 . S
O323 Cd319 2.439 . S
O323 C324 1.208 . S
C324 O322 1.247 . S
C324 O323 1.208 . S
C325 O330 1.247 . S
C325 O331 1.208 . S
C326 O318 1.315 . S
C326 O321 1.279 . S
C327 O328 1.315 . S
C327 O329 1.279 . S
O328 Cd320 2.223 . S
O328 C327 1.315 . S
O329 Cd319 2.240 . S
O329 C327 1.279 . S
O330 Cd320 2.297 . S
O330 C325 1.247 . S
O331 Cd320 2.439 . S
O331 C325 1.208 . S
O332 Cd333 2.223 1_556 S
O332 C340 1.315 . S
Cd333 O332 2.223 1_554 S
Cd333 O336 2.297 . S
Cd333 O337 2.439 . S
Cd333 O343 2.240 1_554 S
Cd334 O335 2.240 . S
Cd334 O342 2.223 . S
Cd334 O344 2.297 . S
Cd334 O345 2.439 1_556 S
O335 Cd334 2.240 . S
O335 C340 1.279 . S
O336 Cd333 2.297 . S
O336 C338 1.247 . S
O337 Cd333 2.439 . S
O337 C338 1.208 . S
C338 O336 1.247 . S
C338 O337 1.208 . S
C339 O344 1.247 1_554 S
C339 O345 1.208 . S
C340 O332 1.315 . S
C340 O335 1.279 . S
C341 O342 1.315 . S
C341 O343 1.279 . S
O342 Cd334 2.223 . S
O342 C341 1.315 . S
O343 Cd333 2.240 1_556 S
O343 C341 1.279 . S
O344 Cd334 2.297 . S
O344 C339 1.247 1_556 S
O345 Cd334 2.439 1_554 S
O345 C339 1.208 . S
O346 Cd347 2.223 . S
O346 C354 1.315 . S
Cd347 O346 2.223 . S
Cd347 O350 2.297 . S
Cd347 O351 2.439 . S
Cd347 O357 2.240 1_455 S
Cd348 O349 2.240 1_655 S
Cd348 O356 2.223 . S
Cd348 O358 2.297 . S
Cd348 O359 2.439 . S
O349 Cd348 2.240 1_455 S
O349 C354 1.279 . S
O350 Cd347 2.297 . S
O350 C352 1.247 . S
O351 Cd347 2.439 . S
O351 C352 1.208 . S
C352 O350 1.247 . S
C352 O351 1.208 . S
C353 O358 1.247 . S
C353 O359 1.208 . S
C354 O346 1.315 . S
C354 O349 1.279 . S
C355 O356 1.315 . S
C355 O357 1.279 . S
O356 Cd348 2.223 . S
O356 C355 1.315 . S
O357 Cd347 2.240 1_655 S
O357 C355 1.279 . S
O358 Cd348 2.297 . S
O358 C353 1.247 . S
O359 Cd348 2.439 . S
O359 C353 1.208 . S
O360 Cd361 2.223 . S
O360 C368 1.315 . S
Cd361 O360 2.223 . S
Cd361 O364 2.297 . S
Cd361 O365 2.439 . S
Cd361 O371 2.240 . S
Cd362 O363 2.240 . S
Cd362 O370 2.223 . S
Cd362 O372 2.297 . S
Cd362 O373 2.439 . S
O363 Cd362 2.240 . S
O363 C368 1.279 . S
O364 Cd361 2.297 . S
O364 C366 1.247 . S
O365 Cd361 2.439 . S
O365 C366 1.208 . S
C366 O364 1.247 . S
C366 O365 1.208 . S
C367 O372 1.247 . S
C367 O373 1.208 . S
C368 O360 1.315 . S
C368 O363 1.279 . S
C369 O370 1.315 . S
C369 O371 1.279 . S
O370 Cd362 2.223 . S
O370 C369 1.315 . S
O371 Cd361 2.240 . S
O371 C369 1.279 . S
O372 Cd362 2.297 . S
O372 C367 1.247 . S
O373 Cd362 2.439 . S
O373 C367 1.208 . S
O374 Cd375 2.223 . S
O374 C382 1.315 . S
Cd375 O374 2.223 . S
Cd375 O378 2.297 . S
Cd375 O379 2.439 . S
Cd375 O385 2.240 . S
Cd376 O377 2.240 . S
Cd376 O384 2.223 . S
Cd376 O386 2.297 . S
Cd376 O387 2.439 . S
O377 Cd376 2.240 . S
O377 C382 1.279 . S
O378 Cd375 2.297 . S
O378 C380 1.247 . S
O379 Cd375 2.439 . S
O379 C380 1.208 . S
C380 O378 1.247 . S
C380 O379 1.208 . S
C381 O386 1.247 . S
C381 O387 1.208 . S
C382 O374 1.315 . S
C382 O377 1.279 . S
C383 O384 1.315 . S
C383 O385 1.279 . S
O384 Cd376 2.223 . S
O384 C383 1.315 . S
O385 Cd375 2.240 . S
O385 C383 1.279 . S
O386 Cd376 2.297 . S
O386 C381 1.247 . S
O387 Cd376 2.439 . S
O387 C381 1.208 . S
O388 Cd389 2.223 . S
O388 C396 1.315 . S
Cd389 O388 2.223 . S
Cd389 O392 2.297 . S
Cd389 O393 2.439 . S
Cd389 O399 2.240 . S
Cd390 O391 2.240 . S
Cd390 O398 2.223 . S
Cd390 O400 2.297 . S
Cd390 O401 2.439 . S
O391 Cd390 2.240 . S
O391 C396 1.279 . S
O392 Cd389 2.297 . S
O392 C394 1.247 . S
O393 Cd389 2.439 . S
O393 C394 1.208 . S
C394 O392 1.247 . S
C394 O393 1.208 . S
C395 O400 1.247 . S
C395 O401 1.208 . S
C396 O388 1.315 . S
C396 O391 1.279 . S
C397 O398 1.315 . S
C397 O399 1.279 . S
O398 Cd390 2.223 . S
O398 C397 1.315 . S
O399 Cd389 2.240 . S
O399 C397 1.279 . S
O400 Cd390 2.297 . S
O400 C395 1.247 . S
O401 Cd390 2.439 . S
O401 C395 1.208 . S
O402 Cd403 2.223 1_545 S
O402 C410 1.315 . S
Cd403 O402 2.223 1_565 S
Cd403 O406 2.297 . S
Cd403 O407 2.439 . S
Cd403 O413 2.240 1_565 S
Cd404 O405 2.240 . S
Cd404 O412 2.223 . S
Cd404 O414 2.297 1_545 S
Cd404 O415 2.439 1_545 S
O405 Cd404 2.240 . S
O405 C410 1.279 . S
O406 Cd403 2.297 . S
O406 C408 1.247 . S
O407 Cd403 2.439 . S
O407 C408 1.208 . S
C408 O406 1.247 . S
C408 O407 1.208 . S
C409 O414 1.247 . S
C409 O415 1.208 . S
C410 O402 1.315 . S
C410 O405 1.279 . S
C411 O412 1.315 . S
C411 O413 1.279 . S
O412 Cd404 2.223 . S
O412 C411 1.315 . S
O413 Cd403 2.240 1_545 S
O413 C411 1.279 . S
O414 Cd404 2.297 1_565 S
O414 C409 1.247 . S
O415 Cd404 2.439 1_565 S
O415 C409 1.208 . S
O416 Cd417 2.223 . S
O416 C424 1.315 . S
Cd417 O416 2.223 . S
Cd417 O420 2.299 . S
Cd417 O421 2.439 1_655 S
Cd417 O427 2.240 . S
Cd418 O419 2.240 . S
Cd418 O426 2.223 1_455 S
Cd418 O428 2.297 . S
Cd418 O429 2.439 . S
O419 Cd418 2.240 . S
O419 C424 1.279 1_455 S
O420 Cd417 2.299 . S
O420 C422 1.244 1_655 S
O421 Cd417 2.439 1_455 S
O421 C422 1.208 . S
C422 O420 1.244 1_455 S
C422 O421 1.208 . S
C423 O428 1.247 . S
C423 O429 1.208 . S
C424 O416 1.315 . S
C424 O419 1.279 1_655 S
C425 O426 1.315 . S
C425 O427 1.279 . S
O426 Cd418 2.223 1_655 S
O426 C425 1.315 . S
O427 Cd417 2.240 . S
O427 C425 1.279 . S
O428 Cd418 2.297 . S
O428 C423 1.247 . S
O429 Cd418 2.439 . S
O429 C423 1.208 . S
O430 Cd431 2.223 . S
O430 C438 1.315 . S
Cd431 O430 2.223 . S
Cd431 O434 2.297 . S
Cd431 O435 2.439 . S
Cd431 O441 2.240 . S
Cd432 O433 2.240 . S
Cd432 O440 2.223 . S
Cd432 O442 2.297 . S
Cd432 O443 2.439 . S
O433 Cd432 2.240 . S
O433 C438 1.279 . S
O434 Cd431 2.297 . S
O434 C436 1.247 . S
O435 Cd431 2.439 . S
O435 C436 1.208 . S
C436 O434 1.247 . S
C436 O435 1.208 . S
C437 O442 1.247 . S
C437 O443 1.208 . S
C438 O430 1.315 . S
C438 O433 1.279 . S
C439 O440 1.315 . S
C439 O441 1.279 . S
O440 Cd432 2.223 . S
O440 C439 1.315 . S
O441 Cd431 2.240 . S
O441 C439 1.279 . S
O442 Cd432 2.297 . S
O442 C437 1.247 . S
O443 Cd432 2.439 . S
O443 C437 1.208 . S
O444 Cd445 2.223 1_655 S
O444 C452 1.315 . S
Cd445 O444 2.223 1_455 S
Cd445 O448 2.297 . S
Cd445 O449 2.439 . S
Cd445 O455 2.240 . S
Cd446 O447 2.240 1_455 S
Cd446 O454 2.223 1_455 S
Cd446 O456 2.297 . S
Cd446 O457 2.439 . S
O447 Cd446 2.240 1_655 S
O447 C452 1.278 . S
O448 Cd445 2.297 . S
O448 C450 1.247 . S
O449 Cd445 2.439 . S
O449 C450 1.208 . S
C450 O448 1.247 . S
C450 O449 1.208 . S
C451 O456 1.247 . S
C451 O457 1.208 . S
C452 O444 1.315 . S
C452 O447 1.278 . S
C453 O454 1.315 . S
C453 O455 1.279 1_655 S
O454 Cd446 2.223 1_655 S
O454 C453 1.315 . S
O455 Cd445 2.240 . S
O455 C453 1.279 1_455 S
O456 Cd446 2.297 . S
O456 C451 1.247 . S
O457 Cd446 2.439 . S
O457 C451 1.208 . S
O458 Cd459 2.223 . S
O458 C466 1.315 . S
Cd459 O458 2.223 . S
Cd459 O462 2.297 . S
Cd459 O463 2.439 . S
Cd459 O469 2.240 . S
Cd460 O461 2.240 . S
Cd460 O468 2.223 . S
Cd460 O470 2.297 . S
Cd460 O471 2.439 . S
O461 Cd460 2.240 . S
O461 C466 1.279 . S
O462 Cd459 2.297 . S
O462 C464 1.247 . S
O463 Cd459 2.439 . S
O463 C464 1.208 . S
C464 O462 1.247 . S
C464 O463 1.208 . S
C465 O470 1.247 . S
C465 O471 1.208 . S
C466 O458 1.315 . S
C466 O461 1.279 . S
C467 O468 1.315 . S
C467 O469 1.279 . S
O468 Cd460 2.223 . S
O468 C467 1.315 . S
O469 Cd459 2.240 . S
O469 C467 1.279 . S
O470 Cd460 2.297 . S
O470 C465 1.247 . S
O471 Cd460 2.439 . S
O471 C465 1.208 . S
C472 C473 1.387 . S
C472 H476 0.950 . S
C472 C481 1.390 . S
C473 C472 1.387 . S
C473 C475 1.387 . S
H474 C481 0.950 1_554 S
C475 C473 1.387 . S
C475 C477 1.390 . S
C475 H479 0.950 . S
H476 C472 0.950 . S
C477 C475 1.390 . S
C477 C478 1.387 1_556 S
C477 H480 0.950 1_556 S
C478 C477 1.387 1_554 S
C478 C481 1.387 1_554 S
H479 C475 0.950 . S
H480 C477 0.950 1_554 S
C481 C472 1.390 . S
C481 H474 0.950 1_556 S
C481 C478 1.387 1_556 S
C482 C483 1.387 1_455 S
C482 H486 0.941 1_455 S
C482 C491 1.390 . S
C483 C482 1.387 1_655 S
C483 C485 1.387 1_655 S
H484 C491 0.950 . S
C485 C483 1.387 1_455 S
C485 C487 1.390 . S
C485 H489 0.950 1_455 S
H486 C482 0.941 1_655 S
C487 C485 1.390 . S
C487 C488 1.387 . S
C487 H490 0.950 . S
C488 C487 1.387 . S
C488 C491 1.387 . S
H489 C485 0.950 1_655 S
H490 C487 0.950 . S
C491 C482 1.390 . S
C491 H484 0.950 . S
C491 C488 1.387 . S
C492 C493 1.387 . S
C492 H496 0.950 . S
C492 C501 1.390 . S
C493 C492 1.387 . S
C493 C495 1.387 . S
H494 C501 0.950 . S
C495 C493 1.387 . S
C495 C497 1.390 . S
C495 H499 0.950 . S
H496 C492 0.950 . S
C497 C495 1.390 . S
C497 C498 1.387 . S
C497 H500 0.950 . S
C498 C497 1.387 . S
C498 C501 1.387 . S
H499 C495 0.950 . S
H500 C497 0.950 . S
C501 C492 1.390 . S
C501 H494 0.950 . S
C501 C498 1.387 . S
C502 C503 1.387 1_545 S
C502 H506 0.950 . S
C502 C511 1.390 . S
C503 C502 1.387 1_565 S
C503 C505 1.387 . S
H504 C511 0.950 . S
C505 C503 1.387 . S
C505 C507 1.390 . S
C505 H509 0.950 . S
H506 C502 0.950 . S
C507 C505 1.390 . S
C507 C508 1.387 1_565 S
C507 H510 0.950 . S
C508 C507 1.387 1_545 S
C508 C511 1.387 . S
H509 C505 0.950 . S
H510 C507 0.950 . S
C511 C502 1.390 . S
C511 H504 0.950 . S
C511 C508 1.387 . S
C512 C513 1.387 . S
C512 H516 0.950 . S
C512 C521 1.390 . S
C513 C512 1.387 . S
C513 C515 1.387 . S
H514 C521 0.950 . S
C515 C513 1.387 . S
C515 C517 1.390 . S
C515 H519 0.950 . S
H516 C512 0.950 . S
C517 C515 1.390 . S
C517 C518 1.387 . S
C517 H520 0.950 . S
C518 C517 1.387 . S
C518 C521 1.387 . S
H519 C515 0.950 . S
H520 C517 0.950 . S
C521 C512 1.390 . S
C521 H514 0.950 . S
C521 C518 1.387 . S
C522 C523 1.387 . S
C522 H526 0.950 . S
C522 C531 1.390 . S
C523 C522 1.387 . S
C523 C525 1.387 . S
H524 C531 0.950 . S
C525 C523 1.387 . S
C525 C527 1.390 . S
C525 H529 0.950 . S
H526 C522 0.950 . S
C527 C525 1.390 . S
C527 C528 1.387 . S
C527 H530 0.950 . S
C528 C527 1.387 . S
C528 C531 1.387 . S
H529 C525 0.950 . S
H530 C527 0.950 . S
C531 C522 1.390 . S
C531 H524 0.950 . S
C531 C528 1.387 . S
C532 C533 1.387 . S
C532 H536 0.950 . S
C532 C541 1.390 . S
C533 C532 1.387 . S
C533 C535 1.387 . S
H534 C541 0.950 . S
C535 C533 1.387 . S
C535 C537 1.390 . S
C535 H539 0.950 . S
H536 C532 0.950 . S
C537 C535 1.390 . S
C537 C538 1.387 . S
C537 H540 0.950 . S
C538 C537 1.387 . S
C538 C541 1.387 . S
H539 C535 0.950 . S
H540 C537 0.950 . S
C541 C532 1.390 . S
C541 H534 0.950 . S
C541 C538 1.387 . S
C542 C543 1.387 . S
C542 H546 0.950 . S
C542 C551 1.390 . S
C543 C542 1.387 . S
C543 C545 1.387 . S
H544 C551 0.950 . S
C545 C543 1.387 . S
C545 C547 1.390 . S
C545 H549 0.950 . S
H546 C542 0.950 . S
C547 C545 1.390 . S
C547 C548 1.387 . S
C547 H550 0.950 . S
C548 C547 1.387 . S
C548 C551 1.387 . S
H549 C545 0.950 . S
H550 C547 0.950 . S
C551 C542 1.390 . S
C551 H544 0.950 . S
C551 C548 1.387 . S
C552 C553 1.387 . S
C552 H556 0.950 . S
C552 C561 1.390 . S
C553 C552 1.387 . S
C553 C555 1.387 . S
H554 C561 0.950 . S
C555 C553 1.387 . S
C555 C557 1.390 . S
C555 H559 0.950 . S
H556 C552 0.950 . S
C557 C555 1.390 . S
C557 C558 1.387 . S
C557 H560 0.950 . S
C558 C557 1.387 . S
C558 C561 1.387 . S
H559 C555 0.950 . S
H560 C557 0.950 . S
C561 C552 1.390 . S
C561 H554 0.950 . S
C561 C558 1.387 . S
C562 C563 1.387 . S
C562 H566 0.950 . S
C562 C571 1.390 . S
C563 C562 1.387 . S
C563 C565 1.387 . S
H564 C571 0.950 . S
C565 C563 1.387 . S
C565 C567 1.390 . S
C565 H569 0.950 . S
H566 C562 0.950 . S
C567 C565 1.390 . S
C567 C568 1.387 . S
C567 H570 0.950 . S
C568 C567 1.387 . S
C568 C571 1.387 . S
H569 C565 0.950 . S
H570 C567 0.950 . S
C571 C562 1.390 . S
C571 H564 0.950 . S
C571 C568 1.387 . S
C572 C573 1.387 . S
C572 H576 0.950 . S
C572 C581 1.390 . S
C573 C572 1.387 . S
C573 C575 1.387 . S
H574 C581 0.950 . S
C575 C573 1.387 . S
C575 C577 1.390 . S
C575 H579 0.950 . S
H576 C572 0.950 . S
C577 C575 1.390 . S
C577 C578 1.387 . S
C577 H580 0.950 . S
C578 C577 1.387 . S
C578 C581 1.387 . S
H579 C575 0.950 . S
H580 C577 0.950 . S
C581 C572 1.390 . S
C581 H574 0.950 . S
C581 C578 1.387 . S
C582 C583 1.387 . S
C582 H586 0.950 . S
C582 C591 1.390 . S
C583 C582 1.387 . S
C583 C585 1.387 . S
H584 C591 0.950 . S
C585 C583 1.387 . S
C585 C587 1.390 . S
C585 H589 0.950 . S
H586 C582 0.950 . S
C587 C585 1.390 . S
C587 C588 1.387 . S
C587 H590 0.950 . S
C588 C587 1.387 . S
C588 C591 1.387 . S
H589 C585 0.950 . S
H590 C587 0.950 . S
C591 C582 1.390 . S
C591 H584 0.950 . S
C591 C588 1.387 . S
C592 C593 1.387 . S
C592 H596 0.950 . S
C592 C601 1.390 . S
C593 C592 1.387 . S
C593 C595 1.387 . S
H594 C601 0.950 . S
C595 C593 1.387 . S
C595 C597 1.390 . S
C595 H599 0.950 . S
H596 C592 0.950 . S
C597 C595 1.390 . S
C597 C598 1.387 . S
C597 H600 0.950 . S
C598 C597 1.387 . S
C598 C601 1.387 . S
H599 C595 0.950 . S
H600 C597 0.950 . S
C601 C592 1.390 . S
C601 H594 0.950 . S
C601 C598 1.387 . S
C602 C603 1.387 . S
C602 H606 0.950 . S
C602 C611 1.390 . S
C603 C602 1.387 . S
C603 C605 1.387 . S
H604 C611 0.950 . S
C605 C603 1.387 . S
C605 C607 1.390 . S
C605 H609 0.950 . S
H606 C602 0.950 . S
C607 C605 1.390 . S
C607 C608 1.387 . S
C607 H610 0.950 . S
C608 C607 1.387 . S
C608 C611 1.387 . S
H609 C605 0.950 . S
H610 C607 0.950 . S
C611 C602 1.390 . S
C611 H604 0.950 . S
C611 C608 1.387 . S
C612 C613 1.387 . S
C612 H616 0.950 . S
C612 C621 1.390 . S
C613 C612 1.387 . S
C613 C615 1.387 . S
H614 C621 0.950 . S
C615 C613 1.387 . S
C615 C617 1.390 . S
C615 H619 0.950 . S
H616 C612 0.950 . S
C617 C615 1.390 . S
C617 C618 1.387 . S
C617 H620 0.950 . S
C618 C617 1.387 . S
C618 C621 1.387 . S
H619 C615 0.950 . S
H620 C617 0.950 . S
C621 C612 1.390 . S
C621 H614 0.950 . S
C621 C618 1.387 . S
C622 C623 1.387 . S
C622 H626 0.950 . S
C622 C631 1.390 . S
C623 C622 1.387 . S
C623 C625 1.387 . S
H624 C631 0.950 . S
C625 C623 1.387 . S
C625 C627 1.390 . S
C625 H629 0.950 . S
H626 C622 0.950 . S
C627 C625 1.390 . S
C627 C628 1.387 . S
C627 H630 0.950 1_655 S
C628 C627 1.387 . S
C628 C631 1.387 . S
H629 C625 0.950 . S
H630 C627 0.950 1_455 S
C631 C622 1.390 . S
C631 H624 0.950 . S
C631 C628 1.387 . S
C632 C633 1.387 . S
C632 H636 0.950 . S
C632 C641 1.390 . S
C633 C632 1.387 . S
C633 C635 1.387 . S
H634 C641 0.953 1_545 S
C635 C633 1.387 . S
C635 C637 1.390 . S
C635 H639 0.950 . S
H636 C632 0.950 . S
C637 C635 1.390 . S
C637 C638 1.387 . S
C637 H640 0.950 . S
C638 C637 1.387 . S
C638 C641 1.387 . S
H639 C635 0.950 . S
H640 C637 0.950 . S
C641 C632 1.390 . S
C641 H634 0.953 1_565 S
C641 C638 1.387 . S
C642 C643 1.387 . S
C642 H646 0.950 . S
C642 C651 1.390 . S
C643 C642 1.387 . S
C643 C645 1.387 . S
H644 C651 0.950 . S
C645 C643 1.387 . S
C645 C647 1.390 . S
C645 H649 0.950 . S
H646 C642 0.950 . S
C647 C645 1.390 . S
C647 C648 1.387 . S
C647 H650 0.950 . S
C648 C647 1.387 . S
C648 C651 1.387 . S
H649 C645 0.950 . S
H650 C647 0.950 . S
C651 C642 1.390 . S
C651 H644 0.950 . S
C651 C648 1.387 . S
C652 C653 1.387 1_554 S
C652 H656 0.950 . S
C652 C661 1.390 . S
C653 C652 1.387 1_556 S
C653 C655 1.387 . S
H654 C661 0.950 . S
C655 C653 1.387 . S
C655 C657 1.390 1_546 S
C655 H659 0.945 1_545 S
H656 C652 0.950 . S
C657 C655 1.390 1_564 S
C657 C658 1.387 1_565 S
C657 H660 0.950 . S
C658 C657 1.387 1_545 S
C658 C661 1.387 . S
H659 C655 0.945 1_565 S
H660 C657 0.950 . S
C661 C652 1.390 . S
C661 H654 0.950 . S
C661 C658 1.387 . S
C662 C663 1.387 . S
C662 H666 0.950 . S
C662 C671 1.390 . S
C663 C662 1.387 . S
C663 C665 1.387 . S
H664 C671 0.950 . S
C665 C663 1.387 . S
C665 C667 1.390 . S
C665 H669 0.950 . S
H666 C662 0.950 . S
C667 C665 1.390 . S
C667 C668 1.387 . S
C667 H670 0.950 . S
C668 C667 1.387 . S
C668 C671 1.387 . S
H669 C665 0.950 . S
H670 C667 0.950 . S
C671 C662 1.390 . S
C671 H664 0.950 . S
C671 C668 1.387 . S
C672 C673 1.387 . S
C672 H676 0.950 . S
C672 C681 1.390 . S
C673 C672 1.387 . S
C673 C675 1.387 . S
H674 C681 0.950 . S
C675 C673 1.387 . S
C675 C677 1.390 . S
C675 H679 0.950 . S
H676 C672 0.950 . S
C677 C675 1.390 . S
C677 C678 1.387 . S
C677 H680 0.950 . S
C678 C677 1.387 . S
C678 C681 1.387 . S
H679 C675 0.950 . S
H680 C677 0.950 . S
C681 C672 1.390 . S
C681 H674 0.950 . S
C681 C678 1.387 . S
C682 C683 1.387 . S
C682 H686 0.950 . S
C682 C691 1.390 . S
C683 C682 1.387 . S
C683 C685 1.387 . S
H684 C691 0.950 . S
C685 C683 1.387 . S
C685 C687 1.390 . S
C685 H689 0.950 . S
H686 C682 0.950 . S
C687 C685 1.390 . S
C687 C688 1.387 . S
C687 H690 0.950 . S
C688 C687 1.387 . S
C688 C691 1.387 . S
H689 C685 0.950 . S
H690 C687 0.950 . S
C691 C682 1.390 . S
C691 H684 0.950 . S
C691 C688 1.387 . S
C692 C693 1.387 1_545 S
C692 H696 0.950 . S
C692 C701 1.390 . S
C693 C692 1.387 1_565 S
C693 C695 1.387 . S
H694 C701 0.950 . S
C695 C693 1.387 . S
C695 C697 1.390 1_565 S
C695 H699 0.950 . S
H696 C692 0.950 . S
C697 C695 1.390 1_545 S
C697 C698 1.387 . S
C697 H700 0.950 . S
C698 C697 1.387 . S
C698 C701 1.387 . S
H699 C695 0.950 . S
H700 C697 0.950 . S
C701 C692 1.390 . S
C701 H694 0.950 . S
C701 C698 1.387 . S
C702 C703 1.387 . S
C702 H706 0.950 . S
C702 C711 1.390 . S
C703 C702 1.387 . S
C703 C705 1.387 . S
H704 C711 0.950 . S
C705 C703 1.387 . S
C705 C707 1.390 . S
C705 H709 0.950 . S
H706 C702 0.950 . S
C707 C705 1.390 . S
C707 C708 1.387 . S
C707 H710 0.950 . S
C708 C707 1.387 . S
C708 C711 1.387 . S
H709 C705 0.950 . S
H710 C707 0.950 . S
C711 C702 1.390 . S
C711 H704 0.950 . S
C711 C708 1.387 . S
C712 C713 1.387 . S
C712 H716 0.950 . S
C712 C721 1.390 . S
C713 C712 1.387 . S
C713 C715 1.387 . S
H714 C721 0.950 . S
C715 C713 1.387 . S
C715 C717 1.390 . S
C715 H719 0.950 . S
H716 C712 0.950 . S
C717 C715 1.390 . S
C717 C718 1.387 . S
C717 H720 0.950 . S
C718 C717 1.387 . S
C718 C721 1.387 . S
H719 C715 0.950 . S
H720 C717 0.950 . S
C721 C712 1.390 . S
C721 H714 0.950 . S
C721 C718 1.387 . S
C722 C723 1.387 . S
C722 H726 0.950 . S
C722 C731 1.390 . S
C723 C722 1.387 . S
C723 C725 1.387 . S
H724 C731 0.950 . S
C725 C723 1.387 . S
C725 C727 1.390 . S
C725 H729 0.950 . S
H726 C722 0.950 . S
C727 C725 1.390 . S
C727 C728 1.387 . S
C727 H730 0.950 . S
C728 C727 1.387 . S
C728 C731 1.387 . S
H729 C725 0.950 . S
H730 C727 0.950 . S
C731 C722 1.390 . S
C731 H724 0.950 . S
C731 C728 1.387 . S
C732 C733 1.387 . S
C732 H736 0.950 . S
C732 C741 1.390 . S
C733 C732 1.387 . S
C733 C735 1.387 . S
H734 C741 0.950 . S
C735 C733 1.387 . S
C735 C737 1.390 . S
C735 H739 0.950 . S
H736 C732 0.950 . S
C737 C735 1.390 . S
C737 C738 1.387 . S
C737 H740 0.950 . S
C738 C737 1.387 . S
C738 C741 1.387 . S
H739 C735 0.950 . S
H740 C737 0.950 . S
C741 C732 1.390 . S
C741 H734 0.950 . S
C741 C738 1.387 . S
C742 C743 1.387 . S
C742 H746 0.950 . S
C742 C751 1.390 . S
C743 C742 1.387 . S
C743 C745 1.387 . S
H744 C751 0.950 . S
C745 C743 1.387 . S
C745 C747 1.390 . S
C745 H749 0.950 . S
H746 C742 0.950 . S
C747 C745 1.390 . S
C747 C748 1.387 . S
C747 H750 0.950 . S
C748 C747 1.387 . S
C748 C751 1.387 . S
H749 C745 0.950 . S
H750 C747 0.950 . S
C751 C742 1.390 . S
C751 H744 0.950 . S
C751 C748 1.387 . S
C752 C753 1.387 . S
C752 H756 0.950 . S
C752 C761 1.390 . S
C753 C752 1.387 . S
C753 C755 1.387 . S
H754 C761 0.950 . S
C755 C753 1.387 . S
C755 C757 1.390 . S
C755 H759 0.950 . S
H756 C752 0.950 . S
C757 C755 1.390 . S
C757 C758 1.387 . S
C757 H760 0.950 . S
C758 C757 1.387 . S
C758 C761 1.387 . S
H759 C755 0.950 . S
H760 C757 0.950 . S
C761 C752 1.390 . S
C761 H754 0.950 . S
C761 C758 1.387 . S
C762 C763 1.387 . S
C762 H766 0.950 . S
C762 C771 1.390 . S
C763 C762 1.387 . S
C763 C765 1.387 . S
H764 C771 0.950 . S
C765 C763 1.387 . S
C765 C767 1.390 . S
C765 H769 0.950 . S
H766 C762 0.950 . S
C767 C765 1.390 . S
C767 C768 1.387 . S
C767 H770 0.950 . S
C768 C767 1.387 . S
C768 C771 1.387 . S
H769 C765 0.950 . S
H770 C767 0.950 . S
C771 C762 1.390 . S
C771 H764 0.950 . S
C771 C768 1.387 . S
C772 C773 1.387 . S
C772 H776 0.950 . S
C772 C781 1.390 . S
C773 C772 1.387 . S
C773 C775 1.387 . S
H774 C781 0.950 . S
C775 C773 1.387 . S
C775 C777 1.390 . S
C775 H779 0.950 . S
H776 C772 0.950 . S
C777 C775 1.390 . S
C777 C778 1.387 . S
C777 H780 0.950 . S
C778 C777 1.387 . S
C778 C781 1.387 . S
H779 C775 0.950 . S
H780 C777 0.950 . S
C781 C772 1.390 . S
C781 H774 0.950 . S
C781 C778 1.387 . S
C782 C783 1.387 . S
C782 H786 0.950 . S
C782 C791 1.390 . S
C783 C782 1.387 . S
C783 C785 1.387 . S
H784 C791 0.950 1_455 S
C785 C783 1.387 . S
C785 C787 1.390 . S
C785 H789 0.950 . S
H786 C782 0.950 . S
C787 C785 1.390 . S
C787 C788 1.387 1_655 S
C787 H790 0.950 1_655 S
C788 C787 1.387 1_455 S
C788 C791 1.387 1_455 S
H789 C785 0.950 . S
H790 C787 0.950 1_455 S
C791 C782 1.390 . S
C791 H784 0.950 1_655 S
C791 C788 1.387 1_655 S
C792 C793 1.387 . S
C792 H796 0.950 . S
C792 C801 1.390 . S
C793 C792 1.387 . S
C793 C795 1.387 . S
H794 C801 0.950 . S
C795 C793 1.387 . S
C795 C797 1.390 . S
C795 H799 0.950 . S
H796 C792 0.950 . S
C797 C795 1.390 . S
C797 C798 1.387 . S
C797 H800 0.950 . S
C798 C797 1.387 . S
C798 C801 1.387 . S
H799 C795 0.950 . S
H800 C797 0.950 . S
C801 C792 1.390 . S
C801 H794 0.950 . S
C801 C798 1.387 . S
C802 C803 1.387 . S
C802 H806 0.950 . S
C802 C811 1.390 . S
C803 C802 1.387 . S
C803 C805 1.387 . S
H804 C811 0.950 . S
C805 C803 1.387 . S
C805 C807 1.390 . S
C805 H809 0.950 . S
H806 C802 0.950 . S
C807 C805 1.390 . S
C807 C808 1.387 . S
C807 H810 0.950 . S
C808 C807 1.387 . S
C808 C811 1.387 . S
H809 C805 0.950 . S
H810 C807 0.950 . S
C811 C802 1.390 . S
C811 H804 0.950 . S
C811 C808 1.387 . S
C812 C813 1.387 . S
C812 H816 0.950 . S
C812 C821 1.390 . S
C813 C812 1.387 . S
C813 C815 1.387 . S
H814 C821 0.950 . S
C815 C813 1.387 . S
C815 C817 1.390 . S
C815 H819 0.950 . S
H816 C812 0.950 . S
C817 C815 1.390 . S
C817 C818 1.387 . S
C817 H820 0.950 . S
C818 C817 1.387 . S
C818 C821 1.387 . S
H819 C815 0.950 . S
H820 C817 0.950 . S
C821 C812 1.390 . S
C821 H814 0.950 . S
C821 C818 1.387 . S
C822 C823 1.387 . S
C822 H826 0.950 . S
C822 C831 1.390 1_554 S
C823 C822 1.387 . S
C823 C825 1.387 . S
H824 C831 0.950 . S
C825 C823 1.387 . S
C825 C827 1.390 1_554 S
C825 H829 0.950 . S
H826 C822 0.950 . S
C827 C825 1.390 1_556 S
C827 C828 1.387 . S
C827 H830 0.950 . S
C828 C827 1.387 . S
C828 C831 1.387 . S
H829 C825 0.950 . S
H830 C827 0.950 . S
C831 C822 1.390 1_556 S
C831 H824 0.950 . S
C831 C828 1.387 . S
C832 C833 1.387 . S
C832 H836 0.950 . S
C832 C841 1.390 . S
C833 C832 1.387 . S
C833 C835 1.387 . S
H834 C841 0.950 . S
C835 C833 1.387 . S
C835 C837 1.390 . S
C835 H839 0.950 . S
H836 C832 0.950 . S
C837 C835 1.390 . S
C837 C838 1.387 . S
C837 H840 0.950 . S
C838 C837 1.387 . S
C838 C841 1.387 . S
H839 C835 0.950 . S
H840 C837 0.950 . S
C841 C832 1.390 . S
C841 H834 0.950 . S
C841 C838 1.387 . S
C842 C843 1.387 . S
C842 H846 0.950 . S
C842 C851 1.390 . S
C843 C842 1.387 . S
C843 C845 1.387 . S
H844 C851 0.950 . S
C845 C843 1.387 . S
C845 C847 1.390 . S
C845 H849 0.950 1_554 S
H846 C842 0.950 . S
C847 C845 1.390 . S
C847 C848 1.387 . S
C847 H850 0.950 . S
C848 C847 1.387 . S
C848 C851 1.387 . S
H849 C845 0.950 1_556 S
H850 C847 0.950 . S
C851 C842 1.390 . S
C851 H844 0.950 . S
C851 C848 1.387 . S
C852 C853 1.387 . S
C852 H856 0.950 . S
C852 C861 1.390 . S
C853 C852 1.387 . S
C853 C855 1.387 . S
H854 C861 0.950 . S
C855 C853 1.387 . S
C855 C857 1.390 . S
C855 H859 0.950 . S
H856 C852 0.950 . S
C857 C855 1.390 . S
C857 C858 1.387 . S
C857 H860 0.950 . S
C858 C857 1.387 . S
C858 C861 1.387 . S
H859 C855 0.950 . S
H860 C857 0.950 . S
C861 C852 1.390 . S
C861 H854 0.950 . S
C861 C858 1.387 . S
C862 C863 1.387 . S
C862 H866 0.950 . S
C862 C871 1.390 . S
C863 C862 1.387 . S
C863 C865 1.387 . S
H864 C871 0.950 . S
C865 C863 1.387 . S
C865 C867 1.390 . S
C865 H869 0.950 . S
H866 C862 0.950 . S
C867 C865 1.390 . S
C867 C868 1.387 . S
C867 H870 0.950 . S
C868 C867 1.387 . S
C868 C871 1.387 . S
H869 C865 0.950 . S
H870 C867 0.950 . S
C871 C862 1.390 . S
C871 H864 0.950 . S
C871 C868 1.387 . S
C872 C873 1.387 . S
C872 H876 0.950 . S
C872 C881 1.390 . S
C873 C872 1.387 . S
C873 C875 1.387 . S
H874 C881 0.950 . S
C875 C873 1.387 . S
C875 C877 1.390 . S
C875 H879 0.950 . S
H876 C872 0.950 . S
C877 C875 1.390 . S
C877 C878 1.387 . S
C877 H880 0.950 . S
C878 C877 1.387 . S
C878 C881 1.387 . S
H879 C875 0.950 . S
H880 C877 0.950 . S
C881 C872 1.390 . S
C881 H874 0.950 . S
C881 C878 1.387 . S
C882 C883 1.387 . S
C882 H886 0.950 . S
C882 C891 1.390 . S
C883 C882 1.387 . S
C883 C885 1.387 . S
H884 C891 0.950 . S
C885 C883 1.387 . S
C885 C887 1.390 . S
C885 H889 0.950 . S
H886 C882 0.950 . S
C887 C885 1.390 . S
C887 C888 1.387 . S
C887 H890 0.950 . S
C888 C887 1.387 . S
C888 C891 1.387 . S
H889 C885 0.950 . S
H890 C887 0.950 . S
C891 C882 1.390 . S
C891 H884 0.950 . S
C891 C888 1.387 . S
C892 C893 1.387 . S
C892 H896 0.950 . S
C892 C901 1.390 . S
C893 C892 1.387 . S
C893 C895 1.387 . S
H894 C901 0.950 . S
C895 C893 1.387 . S
C895 C897 1.390 . S
C895 H899 0.950 . S
H896 C892 0.950 . S
C897 C895 1.390 . S
C897 C898 1.387 . S
C897 H900 0.950 . S
C898 C897 1.387 . S
C898 C901 1.387 . S
H899 C895 0.950 . S
H900 C897 0.950 . S
C901 C892 1.390 . S
C901 H894 0.950 . S
C901 C898 1.387 . S
C902 C903 1.387 . S
C902 H906 0.950 . S
C902 C911 1.390 . S
C903 C902 1.387 . S
C903 C905 1.387 . S
H904 C911 0.950 . S
C905 C903 1.387 . S
C905 C907 1.390 . S
C905 H909 0.950 . S
H906 C902 0.950 . S
C907 C905 1.390 . S
C907 C908 1.387 . S
C907 H910 0.950 . S
C908 C907 1.387 . S
C908 C911 1.387 . S
H909 C905 0.950 . S
H910 C907 0.950 . S
C911 C902 1.390 . S
C911 H904 0.950 . S
C911 C908 1.387 . S
C912 C913 1.387 . S
C912 H916 0.950 . S
C912 C921 1.390 . S
C913 C912 1.387 . S
C913 C915 1.387 . S
H914 C921 0.950 . S
C915 C913 1.387 . S
C915 C917 1.390 . S
C915 H919 0.950 . S
H916 C912 0.950 . S
C917 C915 1.390 . S
C917 C918 1.387 . S
C917 H920 0.950 1_556 S
C918 C917 1.387 . S
C918 C921 1.387 . S
H919 C915 0.950 . S
H920 C917 0.950 1_554 S
C921 C912 1.390 . S
C921 H914 0.950 . S
C921 C918 1.387 . S
C922 C923 1.387 . S
C922 H926 0.950 . S
C922 C931 1.390 . S
C923 C922 1.387 . S
C923 C925 1.387 . S
H924 C931 0.950 . S
C925 C923 1.387 . S
C925 C927 1.390 . S
C925 H929 0.950 . S
H926 C922 0.950 . S
C927 C925 1.390 . S
C927 C928 1.387 . S
C927 H930 0.950 . S
C928 C927 1.387 . S
C928 C931 1.387 . S
H929 C925 0.950 . S
H930 C927 0.950 . S
C931 C922 1.390 . S
C931 H924 0.950 . S
C931 C928 1.387 . S
C932 C933 1.387 . S
C932 H936 0.950 . S
C932 C941 1.390 . S
C933 C932 1.387 . S
C933 C935 1.387 . S
H934 C941 0.950 . S
C935 C933 1.387 . S
C935 C937 1.390 . S
C935 H939 0.950 . S
H936 C932 0.950 . S
C937 C935 1.390 . S
C937 C938 1.387 . S
C937 H940 0.950 1_554 S
C938 C937 1.387 . S
C938 C941 1.387 . S
H939 C935 0.950 . S
H940 C937 0.950 1_556 S
C941 C932 1.390 . S
C941 H934 0.950 . S
C941 C938 1.387 . S
C942 C943 1.387 . S
C942 H946 0.950 . S
C942 C951 1.390 . S
C943 C942 1.387 . S
C943 C945 1.387 . S
H944 C951 0.950 . S
C945 C943 1.387 . S
C945 C947 1.390 . S
C945 H949 0.950 . S
H946 C942 0.950 . S
C947 C945 1.390 . S
C947 C948 1.387 . S
C947 H950 0.950 . S
C948 C947 1.387 . S
C948 C951 1.387 . S
H949 C945 0.950 . S
H950 C947 0.950 . S
C951 C942 1.390 . S
C951 H944 0.950 . S
C951 C948 1.387 . S
C478 C312 1.963 . S
C473 C101 1.968 . S
C488 C327 1.557 . S
C483 C125 1.561 . S
C493 C139 2.127 . S
C498 C340 2.103 . S
C508 C354 1.657 . S
C503 C82 1.687 . S
C518 C366 1.729 . S
C513 C196 1.912 . S
C528 C380 1.584 . S
C523 C234 1.650 . S
C533 C220 1.265 . S
C538 C394 1.311 . S
C548 C409 1.579 . S
C543 C173 1.610 . S
C553 C211 1.514 . S
C558 C425 1.421 . S
C568 C438 1.313 . S
C563 C182 1.121 . S
C573 C201 1.444 . S
C578 C423 1.565 . S
C588 C436 1.776 . S
C583 C239 1.794 . S
C593 C135 1.980 . S
C598 C452 1.959 . S
C603 C87 1.765 . S
C608 C451 1.790 . S
C613 C106 1.325 . S
C618 C450 1.468 . S
C623 C116 1.392 . S
C628 C453 1.417 . S
C633 C59 2.054 . S
C638 C355 2.047 1_565 S
C643 C268 1.955 . S
C648 C353 1.926 . S
C658 C313 1.311 1_545 S
C653 C291 1.406 . S
C668 C324 1.657 . S
C663 C163 1.569 . S
C673 C78 1.817 1_545 S
C678 C369 1.819 . S
C688 C410 1.629 . S
C683 C215 1.638 . S
C698 C367 2.019 . S
C693 C177 2.016 . S
C708 C395 1.646 . S
C703 C230 1.676 . S
C718 C396 1.962 . S
C713 C272 1.966 . S
C723 C296 1.558 . S
C728 C411 1.559 . S
C733 C158 2.127 . S
C738 C368 2.103 . S
C748 C382 1.658 . S
C743 C253 1.687 . S
C753 C63 1.912 . S
C758 C338 1.729 . S
C768 C352 1.585 . S
C763 C6 1.650 . S
C778 C310 1.310 . S
C773 C30 1.264 . S
C788 C325 1.579 . S
C783 C40 1.612 . S
C793 C21 1.516 . S
C798 C439 1.424 . S
C803 C49 1.124 . S
C808 C424 1.314 . S
C813 C68 1.444 . S
C818 C437 1.565 . S
C823 C11 1.792 . S
C828 C422 1.776 . S
C838 C466 1.959 . S
C833 C154 1.980 . S
C848 C465 1.790 . S
C843 C258 1.765 1_554 S
C858 C464 1.468 . S
C853 C277 1.325 . S
C863 C287 1.392 1_554 S
C868 C467 1.417 . S
C873 C192 2.055 . S
C878 C383 2.048 . S
C888 C381 1.926 . S
C883 C97 1.955 . S
C898 C397 1.317 . S
C893 C120 1.411 . S
C908 C408 1.660 . S
C903 C144 1.569 . S
C913 C249 1.819 . S
C918 C341 1.821 . S
C928 C326 1.630 . S
C923 C25 1.637 . S
C933 C44 2.016 . S
C938 C339 2.019 . S
C948 C311 1.645 . S
C943 C2 1.679 . S
