# Generated by pormake.
# Topology zzz, (3,6)-cn, num edge types: 1
# Building blocks:
#     Node 0, Type 0, BuildingBlock: CUQRIR_clean_linker_1, # of connection points: 3
#     Node 1, Type 0, BuildingBlock: CUQRIR_clean_linker_1, # of connection points: 3
#     Node 2, Type 0, BuildingBlock: CUQRIR_clean_linker_1, # of connection points: 3
#     Node 3, Type 0, BuildingBlock: CUQRIR_clean_linker_1, # of connection points: 3
#     Node 4, Type 0, BuildingBlock: CUQRIR_clean_linker_1, # of connection points: 3
#     Node 5, Type 0, BuildingBlock: CUQRIR_clean_linker_1, # of connection points: 3
#     Node 6, Type 0, BuildingBlock: CUQRIR_clean_linker_1, # of connection points: 3
#     Node 7, Type 0, BuildingBlock: CUQRIR_clean_linker_1, # of connection points: 3
#     Node 8, Type 1, BuildingBlock: KUMJIN_clean_sbu_1, # of connection points: 6
#     Node 9, Type 1, BuildingBlock: KUMJIN_clean_sbu_1, # of connection points: 6
#     Node 10, Type 1, BuildingBlock: KUMJIN_clean_sbu_1, # of connection points: 6
#     Node 11, Type 1, BuildingBlock: KUMJIN_clean_sbu_1, # of connection points: 6
#     Edge 12, Type (0, 1), BuildingBlock: AJUNOK_clean_linker_0, # of connection points: 2
#     Edge 13, Type (0, 1), BuildingBlock: AJUNOK_clean_linker_0, # of connection points: 2
#     Edge 14, Type (0, 1), BuildingBlock: AJUNOK_clean_linker_0, # of connection points: 2
#     Edge 15, Type (0, 1), BuildingBlock: AJUNOK_clean_linker_0, # of connection points: 2
#     Edge 16, Type (0, 1), BuildingBlock: AJUNOK_clean_linker_0, # of connection points: 2
#     Edge 17, Type (0, 1), BuildingBlock: AJUNOK_clean_linker_0, # of connection points: 2
#     Edge 18, Type (0, 1), BuildingBlock: AJUNOK_clean_linker_0, # of connection points: 2
#     Edge 19, Type (0, 1), BuildingBlock: AJUNOK_clean_linker_0, # of connection points: 2
#     Edge 20, Type (0, 1), BuildingBlock: AJUNOK_clean_linker_0, # of connection points: 2
#     Edge 21, Type (0, 1), BuildingBlock: AJUNOK_clean_linker_0, # of connection points: 2
#     Edge 22, Type (0, 1), BuildingBlock: AJUNOK_clean_linker_0, # of connection points: 2
#     Edge 23, Type (0, 1), BuildingBlock: AJUNOK_clean_linker_0, # of connection points: 2
#     Edge 24, Type (0, 1), BuildingBlock: AJUNOK_clean_linker_0, # of connection points: 2
#     Edge 25, Type (0, 1), BuildingBlock: AJUNOK_clean_linker_0, # of connection points: 2
#     Edge 26, Type (0, 1), BuildingBlock: AJUNOK_clean_linker_0, # of connection points: 2
#     Edge 27, Type (0, 1), BuildingBlock: AJUNOK_clean_linker_0, # of connection points: 2
#     Edge 28, Type (0, 1), BuildingBlock: AJUNOK_clean_linker_0, # of connection points: 2
#     Edge 29, Type (0, 1), BuildingBlock: AJUNOK_clean_linker_0, # of connection points: 2
#     Edge 30, Type (0, 1), BuildingBlock: AJUNOK_clean_linker_0, # of connection points: 2
#     Edge 31, Type (0, 1), BuildingBlock: AJUNOK_clean_linker_0, # of connection points: 2
#     Edge 32, Type (0, 1), BuildingBlock: AJUNOK_clean_linker_0, # of connection points: 2
#     Edge 33, Type (0, 1), BuildingBlock: AJUNOK_clean_linker_0, # of connection points: 2
#     Edge 34, Type (0, 1), BuildingBlock: AJUNOK_clean_linker_0, # of connection points: 2
#     Edge 35, Type (0, 1), BuildingBlock: AJUNOK_clean_linker_0, # of connection points: 2
# Relax obj value: 0.311
# Max RMSD: 0.138
# Mean RMSD: 0.095
data_MOF--net-zzz--node1-KUMJIN_clean_sbu_1--node2-CUQRIR_clean_linker_1--edge1-AJUNOK_clean_linker_0
_symmetry_space_group_name_H-M    P1
_symmetry_Int_Tables_number       1
_symmetry_cell_setting            triclinic
loop_
_symmetry_equiv_pos_as_xyz
'x, y, z'
_cell_length_a     33.372873
_cell_length_b     33.220636
_cell_length_c     10.430631
_cell_angle_alpha  89.675343
_cell_angle_beta   89.960957
_cell_angle_gamma 90.376694
loop_
_atom_site_label
_atom_site_type_symbol
_atom_site_fract_x
_atom_site_fract_y
_atom_site_fract_z
_atom_type_partial_charge
C0 C 0.75502 0.55868 0.4111 0.0
N1 N 0.79629 0.55491 0.39715 0.0
N2 N 0.73577 0.5692 0.2972 0.0
C3 C 0.73352 0.54989 0.53324 0.0
C4 C 0.76771 0.57439 0.2193 0.0
N5 N 0.80221 0.56037 0.27178 0.0
C6 C 0.76386 0.58644 0.07978 0.0
H7 H 0.70127 0.54475 0.51491 0.0
H8 H 0.73675 0.57607 0.5977 0.0
H9 H 0.74739 0.52365 0.58153 0.0
H10 H 0.73691 0.60524 0.06428 0.0
H11 H 0.76127 0.55915 1.0193 0.0
H12 H 0.7908 0.60364 0.04866 0.0
C13 C 1.02274 0.75824 0.45582 0.0
N14 N 0.03655 0.79809 0.44881 0.0
N15 N 1.0216 0.73888 0.33642 0.0
C16 C 1.01197 0.73792 0.57888 0.0
C17 C 0.03358 0.76902 0.25865 0.0
N18 N 0.04429 0.80254 0.32419 0.0
C19 C 0.03965 0.76419 0.11569 0.0
H20 H 1.0057 0.70557 0.56277 0.0
H21 H 0.98505 0.75252 0.61961 0.0
H22 H 0.0367 0.74168 0.64887 0.0
H23 H 1.01793 0.74234 0.07494 0.0
H24 H 0.07038 0.75299 0.09745 0.0
H25 H 0.0361 0.79336 0.06489 0.0
C26 C 0.81802 1.01452 0.45143 0.0
N27 N 0.77786 1.02357 0.42681 0.0
N28 N 0.84235 1.01676 0.34165 0.0
C29 C 0.8333 1.00188 0.57931 0.0
C30 C 0.8159 0.02793 0.25193 0.0
N31 N 0.779 0.03171 0.30161 0.0
C32 C 0.82607 0.03807 0.1135 0.0
H33 H 0.86603 1.00724 0.58445 0.0
H34 H 0.82677 0.96936 0.59202 0.0
H35 H 0.81813 1.01821 0.65743 0.0
H36 H 0.8103 1.01679 0.04924 0.0
H37 H 0.85839 0.03671 0.09095 0.0
H38 H 0.81524 0.06872 0.08964 0.0
C39 C 0.55262 0.81273 0.38582 0.0
N40 N 0.52736 0.78224 0.43735 0.0
N41 N 0.53616 0.83247 0.27813 0.0
C42 C 0.59694 0.81345 0.40747 0.0
C43 C 0.50507 0.80731 0.2543 0.0
N44 N 0.49692 0.78286 0.35443 0.0
C45 C 0.49495 0.79308 0.119 0.0
H46 H 0.60431 0.8282 0.49934 0.0
H47 H 0.61285 0.82869 0.32788 0.0
H48 H 0.60849 0.78231 0.40589 0.0
H49 H 0.51649 0.80446 0.0461 0.0
H50 H 0.46384 0.80166 0.09372 0.0
H51 H 0.49644 0.75982 0.11267 0.0
C52 C 0.31048 0.53332 0.10451 0.0
N53 N 0.26966 0.53083 0.12635 0.0
N54 N 0.33311 0.52001 0.20904 0.0
C55 C 0.32716 0.55534 0.99172 0.0
C56 C 0.30348 0.51077 0.2935 0.0
N57 N 0.26647 0.52118 0.24987 0.0
C58 C 0.31125 0.49805 0.43079 0.0
H59 H 0.32233 0.58808 1.00457 0.0
H60 H 0.31135 0.54601 0.90304 0.0
H61 H 0.35932 0.54972 0.98377 0.0
H62 H 0.30804 0.52434 0.49511 0.0
H63 H 0.34162 0.4855 0.44424 0.0
H64 H 0.28918 0.47476 0.46049 0.0
C65 C 0.04051 0.32171 0.15051 0.0
N66 N 0.0347 0.28046 0.16083 0.0
N67 N 0.05156 0.33955 0.26592 0.0
C68 C 0.03135 0.34472 0.03159 0.0
C69 C 0.05336 0.30677 0.34284 0.0
N70 N 0.03828 0.27304 0.28627 0.0
C71 C 0.06608 0.30829 0.48141 0.0
H72 H 0.04426 0.32931 0.9472 0.0
H73 H 0.04316 0.37563 0.04008 0.0
H74 H 0.99837 0.34583 1.01866 0.0
H75 H 0.04672 0.32933 0.53526 0.0
H76 H 0.09726 0.31993 0.48706 0.0
H77 H 0.0649 0.27799 0.52674 0.0
C78 C 0.25519 0.05805 0.19059 0.0
N79 N 0.28934 0.03546 0.16764 0.0
N80 N 0.22984 0.04049 0.28223 0.0
C81 C 0.2466 0.09644 0.12168 0.0
C82 C 0.25048 1.0069 0.31354 0.0
N83 N 0.28447 1.00359 0.24409 0.0
C84 C 0.23887 0.978 0.42045 0.0
H85 H 0.27383 0.11577 0.11986 0.0
H86 H 0.22152 0.11255 0.16712 0.0
H87 H 0.23875 0.08931 0.02105 0.0
H88 H 0.21989 0.95356 0.38056 0.0
H89 H 0.22205 0.99352 0.49727 0.0
H90 H 0.26526 0.96363 0.46522 0.0
C91 C 0.51283 0.27102 0.14724 0.0
N92 N 0.53276 0.30708 0.12122 0.0
N93 N 0.51918 0.25714 0.27112 0.0
C94 C 0.48571 0.25018 0.05533 0.0
C95 C 0.54034 0.28828 0.3205 0.0
N96 N 0.55152 0.31581 0.23057 0.0
C97 C 0.54552 0.29515 0.46254 0.0
H98 H 0.45527 0.24796 0.09769 0.0
H99 H 0.49639 0.219 0.04069 0.0
H100 H 0.48413 0.26691 0.96335 0.0
H101 H 0.57551 0.28555 0.4956 0.0
H102 H 0.52244 0.27817 0.51758 0.0
H103 H 0.5429 0.32775 0.48364 0.0
Eu104 Eu 0.99013 0.04192 0.72467 0.0
C105 C 0.12842 0.11178 0.03572 0.0
N106 N 0.12789 0.08919 0.9271 0.0
C107 C 0.18351 0.12744 0.84348 0.0
C108 C 0.15492 0.14493 0.04766 0.0
C109 C 0.15577 0.09592 0.83326 0.0
C110 C 0.1824 0.15271 0.94938 0.0
C111 C 0.09916 0.1279 0.24142 0.0
C112 C 0.10091 0.10302 0.13227 0.0
C113 C 0.12401 0.16198 0.25015 0.0
C114 C 0.15238 0.17003 0.15488 0.0
Eu115 Eu 0.08344 0.0328 0.92794 0.0
N116 N 0.07598 0.07046 0.12 0.0
C117 C 0.07237 0.11793 0.33914 0.0
C118 C 0.05243 0.05901 0.22083 0.0
C119 C 0.04899 0.08334 0.32837 0.0
H120 H 0.15827 0.07525 0.7546 0.0
H121 H 0.02741 0.07594 0.40148 0.0
H122 H 0.91189 1.01949 0.92358 0.0
H123 H 0.04184 0.95874 0.30164 0.0
H124 H 0.0367 0.03086 0.22199 0.0
H125 H 0.06935 0.1367 0.42319 0.0
H126 H 0.04325 1.01199 0.46212 0.0
H127 H 0.20637 0.13175 0.77121 0.0
H128 H 0.12187 0.18202 0.33139 0.0
H129 H 0.17188 0.19605 0.16421 0.0
H130 H 0.85924 0.96803 0.94658 0.0
H131 H 0.20354 0.17752 0.95587 0.0
H132 H 0.98763 0.90795 0.30585 0.0
N133 N 0.93835 0.99302 0.75886 0.0
C134 C 0.93361 0.96504 0.66471 0.0
C135 C 0.88053 0.96626 0.86863 0.0
C136 C 0.90343 0.93509 0.67403 0.0
C137 C 0.91129 0.99475 0.85738 0.0
C138 C 0.87717 0.93572 0.77845 0.0
N139 N 0.99107 0.99239 0.55972 0.0
C140 C 1.01948 0.99061 0.46608 0.0
C141 C 0.95813 0.93398 0.46984 0.0
C142 C 0.96038 0.96495 0.56196 0.0
C143 C 0.9879 0.93179 0.37609 0.0
C144 C 1.01863 0.96025 0.374 0.0
H145 H 0.85347 0.91346 0.78826 0.0
H146 H 0.87726 0.88236 0.58511 0.0
H147 H 0.92591 0.88054 0.40919 0.0
O148 O 0.96912 0.07785 0.56109 0.0
O149 O 1.00755 0.97471 0.77064 0.0
O150 O 0.07514 0.9752 0.79411 0.0
O151 O 0.92738 0.05791 0.7046 0.0
O152 O 0.05082 0.06371 0.62152 0.0
O153 O 0.09924 1.02571 0.71849 0.0
O154 O 0.10954 0.99459 0.07765 0.0
O155 O 0.06618 0.10044 0.87897 0.0
O156 O 0.99868 0.10127 0.84573 0.0
O157 O 0.14749 1.02233 0.93688 0.0
O158 O 0.02342 1.00634 1.01953 0.0
O159 O 0.97918 0.05139 0.93865 0.0
C160 C 0.04203 0.9556 0.7569 0.0
C161 C 0.9102 0.11662 0.59803 0.0
C162 C 0.91309 0.18695 0.54346 0.0
C163 C 0.87148 0.18774 0.52638 0.0
C164 C 0.86843 0.11684 0.58122 0.0
C165 C 0.84892 0.15284 0.55059 0.0
C166 C 0.93127 0.15275 0.59549 0.0
C167 C 0.0884 0.04928 0.62406 0.0
C168 C 0.93202 0.07851 0.60111 0.0
C169 C 0.90031 0.90543 0.57945 0.0
C170 C 0.92776 0.90466 0.47844 0.0
C171 C 0.03185 0.12074 0.88111 0.0
C172 C 0.16901 0.9607 1.01718 0.0
C173 C 0.16567 0.8907 0.06908 0.0
C174 C 0.18703 0.88093 0.95798 0.0
C175 C 0.19117 0.95196 0.90563 0.0
C176 C 0.16229 0.93054 0.10639 0.0
C177 C 0.20166 0.91204 0.87938 0.0
C178 C 0.98791 1.02461 0.02711 0.0
C179 C 0.14601 0.99785 0.03257 0.0
H180 H 0.85713 0.2139 0.48494 0.0
H181 H 0.85129 0.08913 0.58629 0.0
H182 H 0.81687 0.15283 0.53478 0.0
H183 H 0.96358 0.15248 0.60818 0.0
H184 H 0.18979 0.84993 0.92785 0.0
H185 H 0.1983 0.97523 0.83599 0.0
H186 H 0.14534 0.93717 0.19248 0.0
H187 H 0.2177 0.905 0.79221 0.0
Eu188 Eu 0.54429 0.07972 0.88709 0.0
C189 C 0.51537 0.91076 0.69013 0.0
N190 N 0.54049 0.94295 0.67405 0.0
C191 C 0.59719 0.89862 0.69111 0.0
C192 C 0.53053 0.87151 0.71031 0.0
C193 C 0.58104 0.93681 0.67153 0.0
C194 C 0.57188 0.86591 0.71199 0.0
C195 C 0.44782 0.88451 0.71728 0.0
C196 C 0.47439 0.91722 0.69445 0.0
C197 C 0.46293 0.8456 0.73521 0.0
C198 C 0.50417 0.83914 0.73204 0.0
Eu199 Eu 0.50936 1.00762 0.64643 0.0
N200 N 0.46044 0.95535 0.67937 0.0
C201 C 0.4067 0.89178 0.72271 0.0
C202 C 0.42 0.96172 0.67697 0.0
C203 C 0.39274 0.93056 0.7017 0.0
H204 H 0.60189 0.96066 0.65534 0.0
H205 H 0.36085 0.93636 0.70059 0.0
H206 H 0.45295 0.1226 0.81885 0.0
H207 H 0.6898 0.15447 0.95312 0.0
H208 H 0.40809 0.99035 0.64841 0.0
H209 H 0.38548 0.86756 0.74059 0.0
H210 H 0.64238 0.09777 0.95243 0.0
H211 H 0.62935 0.89452 0.69042 0.0
H212 H 0.44295 0.82031 0.75283 0.0
H213 H 0.51544 0.80904 0.74834 0.0
H214 H 0.42726 0.18768 0.74779 0.0
H215 H 0.58455 0.83643 0.72919 0.0
H216 H 0.66742 0.22191 0.88448 0.0
N217 N 0.5136 0.14243 0.83419 0.0
C218 C 0.53905 0.17478 0.8279 0.0
C219 C 0.45877 0.18441 0.76962 0.0
C220 C 0.52532 0.21273 0.78566 0.0
C221 C 0.47355 0.14736 0.81163 0.0
C222 C 0.48487 0.21696 0.75374 0.0
N223 N 0.59255 0.1325 0.89521 0.0
C224 C 0.63171 0.12702 0.92742 0.0
C225 C 0.60612 0.20275 0.85236 0.0
C226 C 0.57938 0.16966 0.85908 0.0
C227 C 0.64613 0.19715 0.88739 0.0
C228 C 0.65887 0.15917 0.92609 0.0
H229 H 0.47332 0.24552 0.71996 0.0
H230 H 0.54198 0.27475 0.7464 0.0
H231 H 0.61285 0.26558 0.80132 0.0
O232 O 0.55383 0.11609 0.05698 0.0
O233 O 0.54395 0.10633 0.68565 0.0
O234 O 0.49304 0.07444 0.58808 0.0
O235 O 0.51509 0.06345 0.06453 0.0
O236 O 0.60458 0.05235 0.80808 0.0
O237 O 0.57908 1.02491 0.62284 0.0
O238 O 0.47118 1.00875 0.47873 0.0
O239 O 0.51471 0.98061 0.84909 0.0
O240 O 0.56765 1.01397 0.93432 0.0
O241 O 0.53034 0.9828 0.46272 0.0
O242 O 0.45182 0.03271 0.75004 0.0
O243 O 0.47779 0.06207 0.92757 0.0
C244 C 0.5162 0.1068 0.59747 0.0
C245 C 0.5639 0.07084 0.21695 0.0
C246 C 0.63459 0.07462 0.23806 0.0
C247 C 0.63006 0.08315 0.3686 0.0
C248 C 0.55864 0.07538 0.34632 0.0
C249 C 0.59226 0.08161 0.42275 0.0
C250 C 0.60154 0.06377 0.16749 0.0
C251 C 0.61129 0.03657 0.69241 0.0
C252 C 0.53652 0.08892 0.12925 0.0
C253 C 0.55214 0.24535 0.77722 0.0
C254 C 0.59238 0.24031 0.81002 0.0
C255 C 0.54507 0.9808 0.9303 0.0
C256 C 0.48076 0.96435 0.30668 0.0
C257 C 0.423 0.92397 0.24452 0.0
C258 C 0.42863 0.93666 0.1167 0.0
C259 C 0.48289 0.97941 0.18266 0.0
C260 C 0.4533 0.93337 0.33496 0.0
C261 C 0.45696 0.96579 0.08842 0.0
C262 C 0.44637 0.04722 0.86701 0.0
C263 C 0.49694 0.99116 0.40497 0.0
H264 H 0.65539 0.09071 0.42885 0.0
H265 H 0.52861 0.07702 0.38168 0.0
H266 H 0.58963 0.08825 0.52171 0.0
H267 H 0.60454 0.0587 0.06659 0.0
H268 H 0.40743 0.92971 0.04157 0.0
H269 H 0.50432 1.00247 0.16064 0.0
H270 H 0.44962 0.9239 0.43364 0.0
H271 H 0.45796 0.97826 0.99331 0.0
Eu272 Eu 0.57536 0.53938 0.68081 0.0
C273 C 0.42302 0.48707 0.02836 0.0
N274 N 0.43215 0.50492 0.91339 0.0
C275 C 0.36971 0.4807 0.82051 0.0
C276 C 0.37824 0.46614 0.04658 0.0
C277 C 0.40682 0.50027 0.81126 0.0
C278 C 0.35518 0.46517 0.9357 0.0
C279 C 0.43237 0.44178 0.32548 0.0
C280 C 0.45941 0.48337 0.13753 0.0
C281 C 0.38291 0.42731 0.30244 0.0
C282 C 0.36008 0.44034 0.17008 0.0
Eu283 Eu 0.48766 0.55183 0.90613 0.0
N284 N 0.49433 0.50883 0.089 0.0
C285 C 0.47129 0.46886 0.24357 0.0
C286 C 0.52508 0.50625 0.17288 0.0
C287 C 0.51684 0.48003 0.27031 0.0
H288 H 0.41366 0.51426 0.72137 0.0
H289 H 0.53784 0.47293 0.3464 0.0
H290 H 0.65561 0.57257 0.85067 0.0
H291 H 0.50843 0.60603 0.24759 0.0
H292 H 0.55222 0.52328 0.17052 0.0
H293 H 0.44638 0.45014 0.30393 0.0
H294 H 0.52024 0.55271 0.4017 0.0
H295 H 0.35093 0.47894 0.73606 0.0
H296 H 0.36739 0.40974 0.37478 0.0
H297 H 0.32972 0.42909 0.16092 0.0
H298 H 0.70882 0.62361 0.8326 0.0
H299 H 0.32587 0.45097 0.9368 0.0
H300 H 0.55377 0.66479 0.23688 0.0
N301 N 0.62469 0.59152 0.68323 0.0
C302 C 0.62475 0.61707 0.58061 0.0
C303 C 0.68513 0.62244 0.76188 0.0
C304 C 0.65471 0.64706 0.56706 0.0
C305 C 0.65434 0.59399 0.77342 0.0
C306 C 0.68553 0.64889 0.65774 0.0
N307 N 0.56608 0.58409 0.50297 0.0
C308 C 0.53783 0.57953 0.40954 0.0
C309 C 0.58973 0.64473 0.39699 0.0
C310 C 0.59336 0.61481 0.49311 0.0
C311 C 0.55747 0.64256 0.31227 0.0
C312 C 0.53198 0.60935 0.31712 0.0
H313 H 0.70919 0.67127 0.64997 0.0
H314 H 0.67425 0.69923 0.45748 0.0
H315 H 0.61647 0.69819 0.31189 0.0
O316 O 0.59757 0.50379 0.51845 0.0
O317 O 0.56491 0.60535 0.75211 0.0
O318 O 0.49751 0.60694 0.76773 0.0
O319 O 0.63724 0.52095 0.67168 0.0
O320 O 0.51229 0.51997 0.59791 0.0
O321 O 0.46875 0.56248 0.69685 0.0
O322 O 0.47199 0.59818 0.0481 0.0
O323 O 0.49665 0.48402 0.86224 0.0
O324 O 0.56126 0.47855 0.78744 0.0
O325 O 0.42663 0.56689 0.94325 0.0
O326 O 0.55207 0.56957 0.99486 0.0
O327 O 0.59186 0.52603 0.88705 0.0
C328 C 0.53144 0.62619 0.74093 0.0
C329 C 0.65642 0.46347 0.55929 0.0
C330 C 0.6713 0.40446 0.43174 0.0
C331 C 0.70753 0.3993 0.49745 0.0
C332 C 0.69291 0.4584 0.62478 0.0
C333 C 0.71795 0.426 0.59551 0.0
C334 C 0.64485 0.43478 0.47124 0.0
C335 C 0.47707 0.53912 0.59952 0.0
C336 C 0.63372 0.50133 0.56622 0.0
C337 C 0.65181 0.67573 0.4682 0.0
C338 C 0.61881 0.67527 0.38578 0.0
C339 C 0.5285 0.4617 0.83792 0.0
C340 C 0.40885 0.62943 1.01242 0.0
C341 C 0.38402 0.68539 0.12839 0.0
C342 C 0.37909 0.70711 1.0128 0.0
C343 C 0.40613 0.65079 0.89637 0.0
C344 C 0.38998 0.644 0.12104 0.0
C345 C 0.3888 0.689 0.89592 0.0
C346 C 0.5877 0.55112 0.98213 0.0
C347 C 0.43364 0.59388 0.0273 0.0
H348 H 0.72779 0.3753 0.47194 0.0
H349 H 0.70258 0.47998 0.6958 0.0
H350 H 0.74608 0.42245 0.64579 0.0
H351 H 0.61537 0.4374 0.42873 0.0
H352 H 0.37332 0.73914 1.01329 0.0
H353 H 0.4185 0.63871 0.80877 0.0
H354 H 0.39217 0.62683 0.2093 0.0
H355 H 0.38706 0.70611 0.8075 0.0
Eu356 Eu 0.03364 0.58518 0.68257 0.0
C357 C 0.09284 0.4377 0.97399 0.0
N358 N 0.06586 0.44175 0.87653 0.0
C359 C 0.09133 0.38186 0.77787 0.0
C360 C 0.12086 0.40593 0.97416 0.0
C361 C 0.06402 0.41349 0.78158 0.0
C362 C 0.11998 0.37814 0.8741 0.0
C363 C 0.1232 0.46409 0.16778 0.0
C364 C 0.09353 0.46632 0.07143 0.0
C365 C 0.15072 0.43234 0.16837 0.0
C366 C 0.14932 0.40317 0.0726 0.0
Eu367 Eu 1.02035 0.49658 0.89352 0.0
N368 N 0.06721 0.49772 0.06725 0.0
C369 C 0.12516 0.49443 0.25939 0.0
C370 C 0.06813 0.52604 0.16173 0.0
C371 C 0.09747 0.52537 0.25681 0.0
H372 H 0.04019 0.41379 0.71226 0.0
H373 H 0.09828 0.54847 0.32959 0.0
H374 H 0.99507 0.66048 0.86058 0.0
H375 H 0.97764 0.52273 0.2291 0.0
H376 H 0.04622 0.54906 0.16809 0.0
H377 H 0.14747 0.49385 0.33385 0.0
H378 H 0.02605 0.53266 0.39885 0.0
H379 H 0.08969 0.35979 0.70234 0.0
H380 H 0.17348 0.4303 0.24216 0.0
H381 H 0.17092 0.37896 0.07414 0.0
H382 H 0.93965 0.70869 0.85094 0.0
H383 H 0.14093 0.35338 0.87116 0.0
H384 H 0.91887 0.56684 0.21188 0.0
N385 N 0.97935 0.63116 0.68672 0.0
C386 C 0.95505 0.63152 0.58157 0.0
C387 C 0.94338 0.68687 0.77528 0.0
C388 C 0.92303 0.65893 0.57201 0.0
C389 C 0.97443 0.65892 0.7816 0.0
C390 C 0.91762 0.68694 0.67005 0.0
N391 N 0.99188 0.57638 0.49854 0.0
C392 C 0.99911 0.54974 0.40229 0.0
C393 C 0.93355 0.60001 0.38364 0.0
C394 C 0.96073 0.60263 0.48726 0.0
C395 C 0.93911 0.57008 0.29211 0.0
C396 C 0.97218 0.54508 0.30135 0.0
H397 H 0.89343 0.70851 0.66592 0.0
H398 H 0.87177 0.67742 0.45923 0.0
H399 H 0.8806 0.6254 0.29542 0.0
O400 O 0.05336 0.64781 0.67256 0.0
O401 O 0.96766 0.57168 0.74779 0.0
O402 O 0.96773 0.50448 0.74259 0.0
O403 O 0.06421 0.60868 0.51317 0.0
O404 O 0.05718 0.52273 0.59581 0.0
O405 O 1.01137 0.47994 0.68301 0.0
O406 O 0.9715 0.48415 0.02786 0.0
O407 O 0.08799 0.50956 0.84868 0.0
O408 O 0.09212 0.57655 0.80785 0.0
O409 O 1.00588 0.4354 0.95382 0.0
O410 O 1.00363 0.55898 0.99484 0.0
O411 O 0.04388 0.60455 0.89106 0.0
C412 C 0.94787 0.53832 0.72022 0.0
C413 C 0.11516 0.6542 0.57366 0.0
C414 C 0.1842 0.63285 0.5604 0.0
C415 C 0.19697 0.67021 0.60821 0.0
C416 C 0.12772 0.69154 0.62221 0.0
C417 C 0.16862 0.69945 0.63952 0.0
C418 C 0.14356 0.62539 0.54303 0.0
C419 C 0.03788 0.48711 0.59266 0.0
C420 C 0.07274 0.64311 0.56645 0.0
C421 C 0.89667 0.65681 0.46746 0.0
C422 C 0.90163 0.62714 0.37437 0.0
C423 C 0.10934 0.54321 0.85169 0.0
C424 C 0.93686 0.42656 0.96021 0.0
C425 C 0.8668 0.44111 0.95617 0.0
C426 C 0.86415 0.42951 0.82758 0.0
C427 C 0.9347 0.41336 0.83195 0.0
C428 C 0.90187 0.43487 0.0254 0.0
C429 C 0.8979 0.41348 0.76746 0.0
C430 C 1.02173 0.59525 0.99149 0.0
C431 C 0.97333 0.44531 1.0109 0.0
H432 H 0.22859 0.67691 0.61895 0.0
H433 H 0.10603 0.7142 0.64804 0.0
H434 H 0.17833 0.72827 0.67652 0.0
H435 H 0.1341 0.59705 0.50142 0.0
H436 H 0.8372 0.43512 0.77265 0.0
H437 H 0.96159 0.4064 0.77851 0.0
H438 H 0.90391 0.44609 0.12289 0.0
H439 H 0.89651 0.40505 0.66746 0.0
C440 C 0.16043 1.01875 0.34859 0.0
C441 C 0.1897 0.04977 0.33822 0.0
C442 C 0.12736 1.01986 0.43461 0.0
C443 C 0.11884 0.05353 0.5119 0.0
H444 H 0.16539 0.99124 0.29772 0.0
H445 H 0.10937 0.99281 0.44466 0.0
S446 S 0.18185 0.14677 0.51196 0.0
N447 N 0.20605 0.11687 0.4128 0.0
N448 N 0.14152 0.12163 0.55971 0.0
C449 C 0.14598 0.08656 0.49546 0.0
C450 C 0.18131 0.08434 0.41215 0.0
C451 C 0.48214 0.19302 0.35256 0.0
C452 C 0.51765 0.21633 0.33305 0.0
C453 C 0.48133 0.15729 0.43303 0.0
C454 C 0.51525 0.1442 0.50513 0.0
H455 H 0.4546 0.20276 0.30784 0.0
H456 H 0.45342 0.14077 0.4426 0.0
S457 S 0.61593 0.19364 0.48468 0.0
N458 N 0.58858 0.21863 0.38037 0.0
N459 N 0.58501 0.16073 0.55041 0.0
C460 C 0.55024 0.1682 0.487 0.0
C461 C 0.55195 0.20134 0.39667 0.0
C462 C 0.38389 0.55562 0.34914 0.0
C463 C 0.37583 0.52503 0.25209 0.0
C464 C 0.41486 0.56015 0.44977 0.0
C465 C 0.44533 0.53262 0.49229 0.0
H466 H 0.36162 0.57918 0.35157 0.0
H467 H 0.41331 0.58788 0.50356 0.0
S468 S 0.48317 0.39915 0.28202 0.0
N469 N 0.42774 0.42804 0.14026 0.0
N470 N 0.48086 0.45349 0.4527 0.0
C471 C 0.44521 0.49803 0.42489 0.0
C472 C 0.40543 0.49344 0.25374 0.0
C473 C 0.08331 0.39984 0.38027 0.0
C474 C 0.04987 0.38156 0.31761 0.0
C475 C 0.08024 0.43515 0.45972 0.0
C476 C 0.04321 0.45433 0.48599 0.0
H477 H 0.11225 0.38557 0.37228 0.0
H478 H 0.10701 0.44604 0.50707 0.0
S479 S 0.94549 0.41712 0.35877 0.0
N480 N 0.97801 0.38568 0.29554 0.0
N481 N 0.97201 0.44947 0.44391 0.0
C482 C 1.00971 0.436 0.42459 0.0
C483 C 1.01299 0.40076 0.3417 0.0
C484 C 0.90862 0.04899 0.29169 0.0
C485 C 0.88573 1.01335 0.3105 0.0
C486 C 0.94219 0.0512 0.20662 0.0
C487 C 0.95733 1.01791 0.13833 0.0
H488 H 0.89747 0.07684 0.331 0.0
H489 H 0.95482 0.0802 0.18639 0.0
S490 S 0.90868 0.91697 0.14568 0.0
N491 N 0.88051 0.94375 0.24345 0.0
N492 N 0.94536 0.94713 0.09732 0.0
C493 C 0.9362 0.98139 0.16092 0.0
C494 C 0.90056 0.9794 0.24305 0.0
C495 C 0.51576 0.88035 0.09813 0.0
C496 C 0.54368 0.86997 0.19602 0.0
C497 C 0.52061 0.91202 1.0091 0.0
C498 C 0.54948 0.94283 1.02037 0.0
H499 H 0.48724 0.8655 0.09077 0.0
H500 H 0.49724 0.91468 0.93879 0.0
S501 S 0.62621 0.94185 0.27931 0.0
N502 N 0.60089 0.89987 0.30726 0.0
N503 N 0.60553 0.96345 0.15299 0.0
C504 C 0.57641 0.93643 0.12477 0.0
C505 C 0.57392 0.90056 0.21055 0.0
C506 C 0.66476 0.58905 0.24075 0.0
C507 C 0.69548 0.55967 0.24136 0.0
C508 C 0.62967 0.58636 0.16351 0.0
C509 C 0.62356 0.55441 0.07942 0.0
H510 H 0.66953 0.61583 0.29654 0.0
H511 H 0.60906 0.61105 0.16092 0.0
S512 S 0.70106 0.46667 0.9888 0.0
N513 N 0.67466 0.50664 0.05215 0.0
N514 N 0.66139 0.49702 0.99218 0.0
C515 C 0.659 0.52504 0.0763 0.0
C516 C 0.69386 0.52582 0.15654 0.0
C517 C 0.98415 0.68012 0.2311 0.0
C518 C 1.01953 0.69624 0.28877 0.0
C519 C 0.9843 0.64641 0.14355 0.0
C520 C 1.01997 0.62655 0.10429 0.0
H521 H 0.95607 0.69538 0.24744 0.0
H522 H 0.95617 0.63741 0.10036 0.0
S523 S 0.12137 0.65681 0.21905 0.0
N524 N 0.09153 0.68855 0.29337 0.0
N525 N 0.09197 0.62723 0.13327 0.0
C526 C 0.0553 0.64209 0.16235 0.0
C527 C 0.05504 0.67585 0.25223 0.0
C528 C 0.98043 0.27187 0.43761 0.0
C529 C 1.00692 0.25128 0.35351 0.0
C530 C 0.94838 0.25203 0.49775 0.0
C531 C 0.93942 0.2124 0.46508 0.0
H532 H 0.98435 0.3035 0.45817 0.0
H533 H 0.93098 0.26744 0.56988 0.0
S534 S 0.99145 0.14902 0.23148 0.0
N535 N 1.02069 0.18876 0.24613 0.0
N536 N 0.95263 0.15649 0.32455 0.0
C537 C 0.96212 0.19349 0.37036 0.0
C538 C 0.99787 0.21146 0.32403 0.0
C539 C 0.33919 0.97771 0.36976 0.0
C540 C 0.31354 0.97345 0.26599 0.0
C541 C 0.37175 0.95258 0.38252 0.0
C542 C 0.38066 0.92362 0.2885 0.0
H543 H 0.33592 1.00288 0.43453 0.0
H544 H 0.39371 0.96229 0.45021 0.0
S545 S 0.31128 0.89081 0.03137 0.0
N546 N 0.29025 0.93143 0.09188 0.0
N547 N 0.35223 0.88282 0.11681 0.0
C548 C 0.34973 0.9135 0.20195 0.0
C549 C 0.31653 0.93973 0.18757 0.0
C550 C 0.62271 0.31572 0.29621 0.0
C551 C 0.58983 0.33624 0.2407 0.0
C552 C 0.65562 0.33693 0.34493 0.0
C553 C 0.6584 0.37844 0.32477 0.0
H554 H 0.62104 0.28387 0.31511 0.0
H555 H 0.67591 0.32174 0.40985 0.0
S556 S 0.59313 0.4422 0.13071 0.0
N557 N 0.56737 0.40031 0.15372 0.0
N558 N 0.63747 0.43435 0.19375 0.0
C559 C 0.63298 0.39567 0.23349 0.0
C560 C 0.59569 0.37675 0.20745 0.0
C561 C 0.25378 0.58929 0.32247 0.0
C562 C 0.24476 0.54788 0.33111 0.0
C563 C 0.23718 0.61675 0.40672 0.0
C564 C 0.21181 0.60355 0.50512 0.0
H565 H 0.27428 0.60046 0.24996 0.0
H566 H 0.24249 0.64857 0.39012 0.0
S567 S 0.18678 0.49755 0.58863 0.0
N568 N 0.21425 0.49433 0.45721 0.0
N569 N 0.18347 0.54608 0.62042 0.0
C570 C 0.2056 0.56185 0.52279 0.0
C571 C 0.22186 0.53393 0.43448 0.0
C572 C 0.06591 0.85921 0.19525 0.0
C573 C 0.07567 0.82683 0.27401 0.0
C574 C 0.09511 0.87701 0.11887 0.0
C575 C 0.13532 0.86398 0.12384 0.0
H576 H 0.03522 0.86929 0.18824 0.0
H577 H 0.08662 0.90235 0.05895 0.0
S578 S 0.17417 0.77666 0.3037 0.0
N579 N 0.12599 0.77828 0.33998 0.0
N580 N 0.18264 0.81517 0.20607 0.0
C581 C 0.14519 0.83077 0.19903 0.0
C582 C 0.11491 0.81149 0.27249 0.0
C583 C 0.73843 0.09002 0.26304 0.0
C584 C 0.74826 0.05041 0.23357 0.0
C585 C 0.70119 0.10424 0.2281 0.0
C586 C 0.67351 0.0769 0.17627 0.0
H587 H 0.75756 0.10789 0.32471 0.0
H588 H 0.69139 0.1327 0.26719 0.0
S589 S 0.6964 0.98044 1.01636 0.0
N590 N 0.7367 0.99188 0.10062 0.0
N591 N 0.6651 1.01806 0.0382 0.0
C592 C 0.68761 0.04237 0.11421 0.0
C593 C 0.72576 0.02839 0.14654 0.0
C594 C 0.47264 0.71506 0.31872 0.0
C595 C 0.4643 0.75503 0.34565 0.0
C596 C 0.44345 0.69029 0.26821 0.0
C597 C 0.40524 0.70551 0.23474 0.0
H598 H 0.50295 0.70421 0.32629 0.0
H599 H 0.45337 0.66072 0.23984 0.0
S600 S 0.36683 0.80641 0.31515 0.0
N601 N 0.41417 0.80732 0.36151 0.0
N602 N 0.3586 0.76093 0.25681 0.0
C603 C 0.39517 0.74424 0.27564 0.0
C604 C 0.42499 0.76914 0.33221 0.0
C605 C 0.84547 0.54009 0.09436 0.0
C606 C 0.82029 0.52948 0.19661 0.0
C607 C 0.85547 0.51177 1.00163 0.0
C608 C 0.84116 0.47185 1.0101 0.0
H609 H 0.85669 0.57063 0.08517 0.0
H610 H 0.87715 0.52015 0.92865 0.0
S611 S 0.77153 0.42996 0.25171 0.0
N612 N 0.77798 0.47742 0.29347 0.0
N613 N 0.79938 0.42356 0.12268 0.0
C614 C 0.81485 0.46126 0.10836 0.0
C615 C 0.80404 0.49012 0.20136 0.0
C616 C 0.06788 0.22644 0.02308 0.0
C617 C 0.03292 0.24779 0.06008 0.0
C618 C 0.06683 0.18839 0.95665 0.0
C619 C 0.0311 0.16646 0.92823 0.0
H620 H 0.0968 0.2387 0.04971 0.0
H621 H 0.09488 0.17582 0.9273 0.0
S622 S 0.93003 0.21128 0.98035 0.0
N623 N 0.96046 0.24576 0.04087 0.0
N624 N 0.95875 0.17487 0.92518 0.0
C625 C 0.99579 0.18942 0.95304 0.0
C626 C 0.99669 0.22913 1.01706 0.0
C627 C 0.36493 0.04855 0.14618 0.0
C628 C 0.3266 0.04334 0.08853 0.0
C629 C 0.40186 0.05064 0.07457 0.0
C630 C 0.40425 0.04692 0.93842 0.0
H631 H 0.36662 0.0507 0.24949 0.0
H632 H 0.42933 0.05433 0.12847 0.0
S633 S 0.31271 0.03485 0.73548 0.0
N634 N 0.29416 0.03551 0.88244 0.0
N635 N 0.36178 0.04028 0.75009 0.0
C636 C 0.36583 0.0426 0.87913 0.0
C637 C 0.32802 0.04056 0.9526 0.0
C638 C 0.4934 0.36028 1.00074 0.0
C639 C 0.52845 0.33675 1.01346 0.0
C640 C 0.49309 0.3985 0.93576 0.0
C641 C 0.52773 0.41628 0.87911 0.0
H642 H 0.46646 0.3505 0.04993 0.0
H643 H 0.46546 0.41515 0.93409 0.0
S644 S 0.62485 0.36233 0.85097 0.0
N645 N 0.59689 0.331 0.93693 0.0
N646 N 0.59622 0.40133 0.81661 0.0
C647 C 0.56135 0.3902 0.87415 0.0
C648 C 0.56165 0.35105 0.93997 0.0
C649 C 0.21117 0.50219 0.99866 0.0
C650 C 0.23375 0.53604 0.03998 0.0
C651 C 0.17346 0.50527 0.93267 0.0
C652 C 0.15342 0.54227 0.90822 0.0
H653 H 0.22275 0.47245 1.01863 0.0
H654 H 0.1597 0.47769 0.90067 0.0
S655 S 0.20111 0.64159 0.97836 0.0
N656 N 0.23423 0.60917 0.03442 0.0
N657 N 0.16354 0.61461 0.92041 0.0
C658 C 0.17657 0.57669 0.9438 0.0
C659 C 0.21593 0.57367 1.00764 0.0
C660 C 1.00589 0.84983 0.60648 0.0
C661 C 0.03987 0.83243 0.54564 0.0
C662 C 1.00744 0.88709 0.67906 0.0
C663 C 0.04255 0.9118 0.69317 0.0
H664 H 0.97711 0.83506 0.59522 0.0
H665 H 0.97998 0.89708 0.72297 0.0
S666 S 0.14248 0.87769 0.57922 0.0
N667 N 0.11218 0.84135 0.53088 0.0
N668 N 0.11384 0.91101 0.65116 0.0
C669 C 0.07714 0.89355 0.63959 0.0
C670 C 0.07601 0.85486 0.56985 0.0
C671 C 0.70307 1.0043 0.46254 0.0
C672 C 0.73899 1.02377 0.50589 0.0
C673 C 0.66406 1.00815 0.52336 0.0
C674 C 0.65611 0.03182 0.63424 0.0
H675 H 0.70486 0.98586 0.3777 0.0
H676 H 0.63898 0.99282 0.48043 0.0
S677 S 0.73827 0.0911 0.79111 0.0
N678 N 0.76185 0.06985 0.67011 0.0
N679 N 0.6913 0.0753 0.78386 0.0
C680 C 0.69204 0.05111 0.68009 0.0
C681 C 0.73198 0.04768 0.61704 0.0
C682 C 0.49521 0.7282 0.58647 0.0
C683 C 0.53022 0.74949 0.54186 0.0
C684 C 0.49583 0.68911 0.64492 0.0
C685 C 0.53149 0.67041 0.68579 0.0
H686 H 0.46593 0.7412 0.57452 0.0
H687 H 0.46751 0.67378 0.66031 0.0
S688 S 0.62537 0.73066 0.72053 0.0
N689 N 0.59838 0.75827 0.6215 0.0
N690 N 0.59876 0.68949 0.74943 0.0
C691 C 0.56548 0.69663 0.67855 0.0
C692 C 0.56523 0.73512 0.60639 0.0
C693 C 0.85948 0.51675 0.47338 0.0
C694 C 0.82999 0.54723 0.49176 0.0
C695 C 0.8951 0.51287 0.55054 0.0
C696 C 0.90574 0.53982 0.65021 0.0
H697 H 0.85557 0.49503 0.39807 0.0
H698 H 0.9153 0.48885 0.5285 0.0
S699 S 0.83789 0.62221 0.75522 0.0
N700 N 0.81376 0.60293 0.6314 0.0
N701 N 0.87963 0.59611 0.77111 0.0
C702 C 0.87582 0.56941 0.67388 0.0
C703 C 0.83888 0.57295 0.59694 0.0
loop_
_geom_bond_atom_site_label_1
_geom_bond_atom_site_label_2
_geom_bond_distance
_geom_bond_site_symmetry_2
_ccdc_geom_bond_type
C0 N1 1.317 . S
C0 N2 1.348 . S
C0 C3 1.485 . S
N1 C0 1.317 . S
N1 N5 1.370 . S
N2 C0 1.348 . S
N2 C4 1.346 . S
C3 C0 1.485 . S
C3 H7 0.960 . S
C3 H8 0.961 . S
C3 H9 0.960 . S
C4 N2 1.346 . S
C4 N5 1.307 . S
C4 C6 1.486 . S
N5 N1 1.370 . S
N5 C4 1.307 . S
C6 C4 1.486 . S
C6 H10 0.960 . S
C6 H11 0.960 . S
C6 H12 0.959 . S
H7 C3 0.960 . S
H8 C3 0.961 . S
H9 C3 0.960 . S
H10 C6 0.960 . S
H11 C6 0.960 . S
H12 C6 0.959 . S
C13 N14 1.317 . S
C13 N15 1.348 . S
C13 C16 1.485 . S
N14 C13 1.317 . S
N14 N18 1.370 . S
N15 C13 1.348 . S
N15 C17 1.346 . S
C16 C13 1.485 . S
C16 H20 0.960 1_655 S
C16 H21 0.961 . S
C16 H22 0.960 . S
C17 N15 1.346 . S
C17 N18 1.307 . S
C17 C19 1.486 . S
N18 N14 1.370 . S
N18 C17 1.307 . S
C19 C17 1.486 . S
C19 H23 0.960 . S
C19 H24 0.960 1_655 S
C19 H25 0.959 . S
H20 C16 0.960 1_455 S
H21 C16 0.961 . S
H22 C16 0.960 . S
H23 C19 0.960 . S
H24 C19 0.960 1_455 S
H25 C19 0.959 . S
C26 N27 1.317 . S
C26 N28 1.348 . S
C26 C29 1.485 . S
N27 C26 1.317 . S
N27 N31 1.370 . S
N28 C26 1.348 . S
N28 C30 1.346 . S
C29 C26 1.485 . S
C29 H33 0.960 1_565 S
C29 H34 0.961 . S
C29 H35 0.960 . S
C30 N28 1.346 . S
C30 N31 1.307 . S
C30 C32 1.486 . S
N31 N27 1.370 . S
N31 C30 1.307 . S
C32 C30 1.486 . S
C32 H36 0.960 . S
C32 H37 0.960 1_565 S
C32 H38 0.959 . S
H33 C29 0.960 1_545 S
H34 C29 0.961 . S
H35 C29 0.960 . S
H36 C32 0.960 . S
H37 C32 0.960 1_545 S
H38 C32 0.959 . S
C39 N40 1.317 . S
C39 N41 1.348 . S
C39 C42 1.485 . S
N40 C39 1.317 . S
N40 N44 1.370 . S
N41 C39 1.348 . S
N41 C43 1.346 . S
C42 C39 1.485 . S
C42 H46 0.960 . S
C42 H47 0.961 . S
C42 H48 0.960 . S
C43 N41 1.346 . S
C43 N44 1.307 . S
C43 C45 1.486 . S
N44 N40 1.370 . S
N44 C43 1.307 . S
C45 C43 1.486 . S
C45 H49 0.960 . S
C45 H50 0.960 . S
C45 H51 0.959 . S
H46 C42 0.960 . S
H47 C42 0.961 . S
H48 C42 0.960 . S
H49 C45 0.960 . S
H50 C45 0.960 . S
H51 C45 0.959 . S
C52 N53 1.317 . S
C52 N54 1.348 1_556 S
C52 C55 1.485 . S
N53 C52 1.317 . S
N53 N57 1.370 1_556 S
N54 C52 1.348 1_554 S
N54 C56 1.346 . S
C55 C52 1.485 . S
C55 H59 0.960 . S
C55 H60 0.961 . S
C55 H61 0.960 . S
C56 N54 1.346 . S
C56 N57 1.307 . S
C56 C58 1.486 . S
N57 N53 1.370 1_554 S
N57 C56 1.307 . S
C58 C56 1.486 . S
C58 H62 0.960 . S
C58 H63 0.960 . S
C58 H64 0.959 . S
H59 C55 0.960 . S
H60 C55 0.961 . S
H61 C55 0.960 . S
H62 C58 0.960 . S
H63 C58 0.960 . S
H64 C58 0.959 . S
C65 N66 1.317 . S
C65 N67 1.348 1_556 S
C65 C68 1.485 . S
N66 C65 1.317 . S
N66 N70 1.370 1_556 S
N67 C65 1.348 1_554 S
N67 C69 1.346 . S
C68 C65 1.485 . S
C68 H72 0.960 . S
C68 H73 0.961 . S
C68 H74 0.960 . S
C69 N67 1.346 . S
C69 N70 1.307 . S
C69 C71 1.486 . S
N70 N66 1.370 1_554 S
N70 C69 1.307 . S
C71 C69 1.486 . S
C71 H75 0.960 . S
C71 H76 0.960 . S
C71 H77 0.959 . S
H72 C68 0.960 . S
H73 C68 0.961 . S
H74 C68 0.960 . S
H75 C71 0.960 . S
H76 C71 0.960 . S
H77 C71 0.959 . S
C78 N79 1.317 . S
C78 N80 1.348 1_556 S
C78 C81 1.485 . S
N79 C78 1.317 . S
N79 N83 1.370 1_556 S
N80 C78 1.348 1_554 S
N80 C82 1.346 . S
C81 C78 1.485 . S
C81 H85 0.960 . S
C81 H86 0.961 . S
C81 H87 0.960 . S
C82 N80 1.346 . S
C82 N83 1.307 . S
C82 C84 1.486 . S
N83 N79 1.370 1_554 S
N83 C82 1.307 . S
C84 C82 1.486 . S
C84 H88 0.960 . S
C84 H89 0.960 . S
C84 H90 0.959 . S
H85 C81 0.960 . S
H86 C81 0.961 . S
H87 C81 0.960 . S
H88 C84 0.960 . S
H89 C84 0.960 . S
H90 C84 0.959 . S
C91 N92 1.317 . S
C91 N93 1.348 1_556 S
C91 C94 1.485 . S
N92 C91 1.317 . S
N92 N96 1.370 1_556 S
N93 C91 1.348 1_554 S
N93 C95 1.346 . S
C94 C91 1.485 . S
C94 H98 0.960 . S
C94 H99 0.961 . S
C94 H100 0.960 . S
C95 N93 1.346 . S
C95 N96 1.307 . S
C95 C97 1.486 . S
N96 N92 1.370 1_554 S
N96 C95 1.307 . S
C97 C95 1.486 . S
C97 H101 0.960 . S
C97 H102 0.960 . S
C97 H103 0.959 . S
H98 C94 0.960 . S
H99 C94 0.961 . S
H100 C94 0.960 . S
H101 C97 0.960 . S
H102 C97 0.960 . S
H103 C97 0.959 . S
Eu104 N133 2.600 . S
Eu104 N139 2.562 . S
Eu104 O148 2.462 . S
Eu104 O149 2.373 1_545 S
Eu104 O151 2.432 . S
Eu104 O152 2.291 1_655 S
Eu104 O156 2.331 1_655 S
Eu104 O159 2.372 . S
Eu104 C168 2.787 . S
C105 N106 1.365 1_554 S
C105 C108 1.405 . S
C105 C112 1.448 . S
N106 C105 1.365 1_556 S
N106 C109 1.319 . S
N106 Eu115 2.600 1_545 S
C107 C109 1.397 . S
C107 C110 1.367 1_556 S
C107 H127 0.931 . S
C108 C105 1.405 . S
C108 C110 1.403 . S
C108 C114 1.439 . S
C109 N106 1.319 . S
C109 C107 1.397 . S
C109 H120 0.930 1_545 S
C110 C107 1.367 1_554 S
C110 C108 1.403 . S
C110 H131 0.929 . S
C111 C112 1.430 . S
C111 C113 1.387 . S
C111 C117 1.404 . S
C112 C105 1.448 . S
C112 C111 1.430 . S
C112 N116 1.351 . S
C113 C111 1.387 . S
C113 C114 1.374 . S
C113 H128 0.931 . S
C114 C108 1.439 . S
C114 C113 1.374 . S
C114 H129 0.931 . S
Eu115 N106 2.600 1_565 S
Eu115 N116 2.562 1_566 S
Eu115 O150 2.335 . S
Eu115 O153 2.372 . S
Eu115 O154 2.462 1_556 S
Eu115 O155 2.373 1_565 S
Eu115 O157 2.432 . S
Eu115 O158 2.291 1_465 S
Eu115 C179 2.787 1_556 S
N116 C112 1.351 . S
N116 Eu115 2.562 1_544 S
N116 C118 1.325 . S
C117 C111 1.404 . S
C117 C119 1.366 . S
C117 H125 0.930 . S
C118 N116 1.325 . S
C118 C119 1.416 . S
C118 H124 0.929 . S
C119 C117 1.366 . S
C119 C118 1.416 . S
C119 H121 0.930 . S
H120 C109 0.930 1_565 S
H121 C119 0.930 . S
H122 C137 0.930 . S
H123 C144 0.930 1_455 S
H124 C118 0.929 . S
H125 C117 0.930 . S
H126 C140 0.929 1_445 S
H127 C107 0.931 . S
H128 C113 0.931 . S
H129 C114 0.931 . S
H130 C135 0.931 . S
H131 C110 0.929 . S
H132 C143 0.930 . S
N133 Eu104 2.600 . S
N133 C134 1.365 1_545 S
N133 C137 1.319 . S
C134 N133 1.365 1_565 S
C134 C136 1.405 . S
C134 C142 1.448 . S
C135 H130 0.931 . S
C135 C137 1.397 . S
C135 C138 1.367 1_545 S
C136 C134 1.405 . S
C136 C138 1.403 . S
C136 C169 1.439 . S
C137 H122 0.930 . S
C137 N133 1.319 . S
C137 C135 1.397 . S
C138 C135 1.367 1_565 S
C138 C136 1.403 . S
C138 H145 0.929 . S
N139 Eu104 2.562 . S
N139 C140 1.325 1_545 S
N139 C142 1.351 1_545 S
C140 H126 0.929 1_665 S
C140 N139 1.325 1_565 S
C140 C144 1.416 . S
C141 C142 1.430 . S
C141 C143 1.404 . S
C141 C170 1.387 . S
C142 C134 1.448 . S
C142 N139 1.351 1_565 S
C142 C141 1.430 . S
C143 H132 0.930 . S
C143 C141 1.404 . S
C143 C144 1.366 . S
C144 H123 0.930 1_655 S
C144 C140 1.416 . S
C144 C143 1.366 . S
H145 C138 0.929 . S
H146 C169 0.931 . S
H147 C170 0.931 . S
O148 Eu104 2.462 . S
O148 C168 1.252 . S
O149 Eu104 2.373 1_565 S
O149 C160 1.249 . S
O150 Eu115 2.335 . S
O150 C160 1.264 1_455 S
O151 Eu104 2.432 . S
O151 C168 1.268 . S
O152 Eu104 2.291 1_455 S
O152 C167 1.255 . S
O153 Eu115 2.372 . S
O153 C167 1.257 1_565 S
O154 Eu115 2.462 1_554 S
O154 C179 1.252 . S
O155 Eu115 2.373 1_545 S
O155 C171 1.249 . S
O156 Eu104 2.331 1_455 S
O156 C171 1.270 . S
O157 Eu115 2.432 . S
O157 C179 1.268 1_556 S
O158 Eu115 2.291 1_645 S
O158 C178 1.255 . S
O159 Eu104 2.372 . S
O159 C178 1.257 . S
C160 O149 1.249 . S
C160 O150 1.264 1_655 S
C161 C164 1.382 . S
C161 C166 1.390 . S
C161 C168 1.506 . S
C162 C163 1.398 . S
C162 C166 1.392 . S
C163 C162 1.398 . S
C163 C165 1.372 . S
C163 H180 0.931 . S
C164 C161 1.382 . S
C164 C165 1.390 . S
C164 H181 0.931 . S
C165 C163 1.372 . S
C165 C164 1.390 . S
C165 H182 0.929 . S
C166 C161 1.390 . S
C166 C162 1.392 . S
C166 H183 0.930 1_655 S
C167 O152 1.255 . S
C167 O153 1.257 1_545 S
C168 Eu104 2.787 . S
C168 O148 1.252 . S
C168 O151 1.268 . S
C168 C161 1.506 . S
C169 C136 1.439 . S
C169 H146 0.931 . S
C169 C170 1.374 . S
C170 C141 1.387 . S
C170 H147 0.931 . S
C170 C169 1.374 . S
C171 O155 1.249 . S
C171 O156 1.270 . S
C172 C175 1.382 . S
C172 C176 1.390 . S
C172 C179 1.506 . S
C173 C174 1.398 . S
C173 C176 1.392 . S
C174 C173 1.398 . S
C174 C177 1.372 . S
C174 H184 0.931 . S
C175 C172 1.382 . S
C175 C177 1.390 . S
C175 H185 0.931 . S
C176 C172 1.390 . S
C176 C173 1.392 . S
C176 H186 0.930 . S
C177 C174 1.372 . S
C177 C175 1.390 . S
C177 H187 0.929 . S
C178 O158 1.255 . S
C178 O159 1.257 . S
C179 Eu115 2.787 1_554 S
C179 O154 1.252 . S
C179 O157 1.268 1_554 S
C179 C172 1.506 . S
H180 C163 0.931 . S
H181 C164 0.931 . S
H182 C165 0.929 . S
H183 C166 0.930 1_455 S
H184 C174 0.931 . S
H185 C175 0.931 . S
H186 C176 0.930 . S
H187 C177 0.929 . S
Eu188 N217 2.600 . S
Eu188 N223 2.562 . S
Eu188 O232 2.462 . S
Eu188 O233 2.373 . S
Eu188 O235 2.432 1_556 S
Eu188 O236 2.291 . S
Eu188 O240 2.335 1_545 S
Eu188 O243 2.372 . S
Eu188 C252 2.787 1_556 S
C189 N190 1.365 . S
C189 C192 1.405 . S
C189 C196 1.448 . S
N190 C189 1.365 . S
N190 C193 1.319 . S
N190 Eu199 2.600 . S
C191 C193 1.397 . S
C191 C194 1.367 . S
C191 H211 0.931 . S
C192 C189 1.405 . S
C192 C194 1.403 . S
C192 C198 1.439 . S
C193 N190 1.319 . S
C193 C191 1.397 . S
C193 H204 0.930 . S
C194 C191 1.367 . S
C194 C192 1.403 . S
C194 H215 0.929 . S
C195 C196 1.430 . S
C195 C197 1.387 . S
C195 C201 1.404 . S
C196 C189 1.448 . S
C196 C195 1.430 . S
C196 N200 1.351 . S
C197 C195 1.387 . S
C197 C198 1.374 . S
C197 H212 0.931 . S
C198 C192 1.439 . S
C198 C197 1.374 . S
C198 H213 0.931 . S
Eu199 N190 2.600 . S
Eu199 N200 2.562 . S
Eu199 O234 2.335 1_565 S
Eu199 O237 2.372 . S
Eu199 O238 2.462 . S
Eu199 O239 2.373 . S
Eu199 O241 2.432 . S
Eu199 O242 2.282 1_565 S
Eu199 C263 2.787 . S
N200 C196 1.351 . S
N200 Eu199 2.562 . S
N200 C202 1.325 . S
C201 C195 1.404 . S
C201 C203 1.366 . S
C201 H209 0.930 . S
C202 N200 1.325 . S
C202 C203 1.416 . S
C202 H208 0.929 . S
C203 C201 1.366 . S
C203 C202 1.416 . S
C203 H205 0.930 . S
H204 C193 0.930 . S
H205 C203 0.930 . S
H206 C221 0.930 . S
H207 C228 0.930 . S
H208 C202 0.929 . S
H209 C201 0.930 . S
H210 C224 0.929 . S
H211 C191 0.931 . S
H212 C197 0.931 . S
H213 C198 0.931 . S
H214 C219 0.931 . S
H215 C194 0.929 . S
H216 C227 0.930 . S
N217 Eu188 2.600 . S
N217 C218 1.365 . S
N217 C221 1.319 1_556 S
C218 N217 1.365 . S
C218 C220 1.405 . S
C218 C226 1.448 . S
C219 H214 0.931 . S
C219 C221 1.397 . S
C219 C222 1.367 . S
C220 C218 1.405 . S
C220 C222 1.403 1_556 S
C220 C253 1.439 . S
C221 H206 0.930 . S
C221 N217 1.319 1_554 S
C221 C219 1.397 . S
C222 C219 1.367 . S
C222 C220 1.403 1_554 S
C222 H229 0.929 . S
N223 Eu188 2.562 . S
N223 C224 1.325 . S
N223 C226 1.351 . S
C224 H210 0.929 . S
C224 N223 1.325 . S
C224 C228 1.416 . S
C225 C226 1.430 . S
C225 C227 1.404 . S
C225 C254 1.387 . S
C226 C218 1.448 . S
C226 N223 1.351 . S
C226 C225 1.430 . S
C227 H216 0.930 . S
C227 C225 1.404 . S
C227 C228 1.366 . S
C228 H207 0.930 . S
C228 C224 1.416 . S
C228 C227 1.366 . S
H229 C222 0.929 . S
H230 C253 0.931 . S
H231 C254 0.931 . S
O232 Eu188 2.462 . S
O232 C252 1.252 1_556 S
O233 Eu188 2.373 . S
O233 C244 1.249 . S
O234 Eu199 2.335 1_545 S
O234 C244 1.264 . S
O235 Eu188 2.432 1_554 S
O235 C252 1.268 . S
O236 Eu188 2.291 . S
O236 C251 1.255 1_545 S
O237 Eu199 2.372 . S
O237 C251 1.257 . S
O238 Eu199 2.462 . S
O238 C263 1.252 . S
O239 Eu199 2.373 . S
O239 C255 1.249 . S
O240 Eu188 2.335 1_565 S
O240 C255 1.264 . S
O241 Eu199 2.432 . S
O241 C263 1.268 . S
O242 Eu199 2.282 1_545 S
O242 C262 1.270 . S
O243 Eu188 2.372 . S
O243 C262 1.257 . S
C244 O233 1.249 . S
C244 O234 1.264 . S
C245 C248 1.382 . S
C245 C250 1.390 . S
C245 C252 1.506 . S
C246 C247 1.398 . S
C246 C250 1.392 . S
C247 C246 1.398 . S
C247 C249 1.372 . S
C247 H264 0.931 . S
C248 C245 1.382 . S
C248 C249 1.390 . S
C248 H265 0.931 . S
C249 C247 1.372 . S
C249 C248 1.390 . S
C249 H266 0.929 . S
C250 C245 1.390 . S
C250 C246 1.392 . S
C250 H267 0.930 . S
C251 O236 1.255 1_565 S
C251 O237 1.257 . S
C252 Eu188 2.787 1_554 S
C252 O232 1.252 1_554 S
C252 O235 1.268 . S
C252 C245 1.506 . S
C253 C220 1.439 . S
C253 H230 0.931 . S
C253 C254 1.374 . S
C254 C225 1.387 . S
C254 H231 0.931 . S
C254 C253 1.374 . S
C255 O239 1.249 . S
C255 O240 1.264 . S
C256 C259 1.382 . S
C256 C260 1.390 . S
C256 C263 1.506 . S
C257 C258 1.398 . S
C257 C260 1.392 . S
C258 C257 1.398 . S
C258 C261 1.372 . S
C258 H268 0.931 . S
C259 C256 1.382 . S
C259 C261 1.390 . S
C259 H269 0.931 . S
C260 C256 1.390 . S
C260 C257 1.392 . S
C260 H270 0.930 . S
C261 C258 1.372 . S
C261 C259 1.390 . S
C261 H271 0.929 . S
C262 O242 1.270 . S
C262 O243 1.257 . S
C263 Eu199 2.787 . S
C263 O238 1.252 . S
C263 O241 1.268 . S
C263 C256 1.506 . S
H264 C247 0.931 . S
H265 C248 0.931 . S
H266 C249 0.929 . S
H267 C250 0.930 . S
H268 C258 0.931 . S
H269 C259 0.931 . S
H270 C260 0.930 . S
H271 C261 0.929 . S
Eu272 N301 2.600 . S
Eu272 N307 2.562 . S
Eu272 O316 2.462 . S
Eu272 O317 2.373 . S
Eu272 O319 2.432 . S
Eu272 O320 2.291 . S
Eu272 O324 2.335 . S
Eu272 O327 2.372 . S
Eu272 C336 2.787 . S
C273 N274 1.365 1_554 S
C273 C276 1.405 . S
C273 C280 1.448 . S
N274 C273 1.365 1_556 S
N274 C277 1.319 . S
N274 Eu283 2.600 . S
C275 C277 1.397 . S
C275 C278 1.367 1_556 S
C275 H295 0.931 . S
C276 C273 1.405 . S
C276 C278 1.403 . S
C276 C282 1.439 . S
C277 N274 1.319 . S
C277 C275 1.397 . S
C277 H288 0.930 . S
C278 C275 1.367 1_554 S
C278 C276 1.403 . S
C278 H299 0.929 . S
C279 C280 1.430 . S
C279 C281 1.387 . S
C279 C285 1.404 . S
C280 C273 1.448 . S
C280 C279 1.430 . S
C280 N284 1.351 . S
C281 C279 1.387 . S
C281 C282 1.374 . S
C281 H296 0.931 . S
C282 C276 1.439 . S
C282 C281 1.374 . S
C282 H297 0.931 . S
Eu283 N274 2.600 . S
Eu283 N284 2.562 1_556 S
Eu283 O318 2.335 . S
Eu283 O321 2.372 . S
Eu283 O322 2.462 1_556 S
Eu283 O323 2.373 . S
Eu283 O325 2.432 . S
Eu283 O326 2.291 . S
Eu283 C347 2.787 1_556 S
N284 C280 1.351 . S
N284 Eu283 2.562 1_554 S
N284 C286 1.325 . S
C285 C279 1.404 . S
C285 C287 1.366 . S
C285 H293 0.930 . S
C286 N284 1.325 . S
C286 C287 1.416 . S
C286 H292 0.929 . S
C287 C285 1.366 . S
C287 C286 1.416 . S
C287 H289 0.930 . S
H288 C277 0.930 . S
H289 C287 0.930 . S
H290 C305 0.930 . S
H291 C312 0.930 . S
H292 C286 0.929 . S
H293 C285 0.930 . S
H294 C308 0.929 . S
H295 C275 0.931 . S
H296 C281 0.931 . S
H297 C282 0.931 . S
H298 C303 0.931 . S
H299 C278 0.929 . S
H300 C311 0.930 . S
N301 Eu272 2.600 . S
N301 C302 1.365 . S
N301 C305 1.319 . S
C302 N301 1.365 . S
C302 C304 1.405 . S
C302 C310 1.448 . S
C303 H298 0.931 . S
C303 C305 1.397 . S
C303 C306 1.367 . S
C304 C302 1.405 . S
C304 C306 1.403 . S
C304 C337 1.439 . S
C305 H290 0.930 . S
C305 N301 1.319 . S
C305 C303 1.397 . S
C306 C303 1.367 . S
C306 C304 1.403 . S
C306 H313 0.929 . S
N307 Eu272 2.562 . S
N307 C308 1.325 . S
N307 C310 1.351 . S
C308 H294 0.929 . S
C308 N307 1.325 . S
C308 C312 1.416 . S
C309 C310 1.430 . S
C309 C311 1.404 . S
C309 C338 1.387 . S
C310 C302 1.448 . S
C310 N307 1.351 . S
C310 C309 1.430 . S
C311 H300 0.930 . S
C311 C309 1.404 . S
C311 C312 1.366 . S
C312 H291 0.930 . S
C312 C308 1.416 . S
C312 C311 1.366 . S
H313 C306 0.929 . S
H314 C337 0.931 . S
H315 C338 0.931 . S
O316 Eu272 2.462 . S
O316 C336 1.252 . S
O317 Eu272 2.373 . S
O317 C328 1.249 . S
O318 Eu283 2.335 . S
O318 C328 1.264 . S
O319 Eu272 2.432 . S
O319 C336 1.268 . S
O320 Eu272 2.291 . S
O320 C335 1.255 . S
O321 Eu283 2.372 . S
O321 C335 1.257 . S
O322 Eu283 2.462 1_554 S
O322 C347 1.252 . S
O323 Eu283 2.373 . S
O323 C339 1.249 . S
O324 Eu272 2.335 . S
O324 C339 1.264 . S
O325 Eu283 2.432 . S
O325 C347 1.268 1_556 S
O326 Eu283 2.291 . S
O326 C346 1.255 . S
O327 Eu272 2.372 . S
O327 C346 1.257 . S
C328 O317 1.249 . S
C328 O318 1.264 . S
C329 C332 1.382 . S
C329 C334 1.390 . S
C329 C336 1.506 . S
C330 C331 1.398 . S
C330 C334 1.392 . S
C331 C330 1.398 . S
C331 C333 1.372 . S
C331 H348 0.931 . S
C332 C329 1.382 . S
C332 C333 1.390 . S
C332 H349 0.931 . S
C333 C331 1.372 . S
C333 C332 1.390 . S
C333 H350 0.929 . S
C334 C329 1.390 . S
C334 C330 1.392 . S
C334 H351 0.930 . S
C335 O320 1.255 . S
C335 O321 1.257 . S
C336 Eu272 2.787 . S
C336 O316 1.252 . S
C336 O319 1.268 . S
C336 C329 1.506 . S
C337 C304 1.439 . S
C337 H314 0.931 . S
C337 C338 1.374 . S
C338 C309 1.387 . S
C338 H315 0.931 . S
C338 C337 1.374 . S
C339 O323 1.249 . S
C339 O324 1.264 . S
C340 C343 1.382 . S
C340 C344 1.390 . S
C340 C347 1.506 . S
C341 C342 1.398 . S
C341 C344 1.392 . S
C342 C341 1.398 . S
C342 C345 1.372 . S
C342 H352 0.931 . S
C343 C340 1.382 . S
C343 C345 1.390 . S
C343 H353 0.931 . S
C344 C340 1.390 . S
C344 C341 1.392 . S
C344 H354 0.930 . S
C345 C342 1.372 . S
C345 C343 1.390 . S
C345 H355 0.929 . S
C346 O326 1.255 . S
C346 O327 1.257 . S
C347 Eu283 2.787 1_554 S
C347 O322 1.252 . S
C347 O325 1.268 1_554 S
C347 C340 1.506 . S
H348 C331 0.931 . S
H349 C332 0.931 . S
H350 C333 0.929 . S
H351 C334 0.930 . S
H352 C342 0.931 . S
H353 C343 0.931 . S
H354 C344 0.930 . S
H355 C345 0.929 . S
Eu356 N385 2.600 . S
Eu356 N391 2.562 . S
Eu356 O400 2.462 . S
Eu356 O401 2.373 1_455 S
Eu356 O403 2.432 . S
Eu356 O404 2.291 . S
Eu356 O408 2.335 . S
Eu356 O411 2.372 . S
Eu356 C420 2.787 . S
C357 N358 1.365 1_554 S
C357 C360 1.405 . S
C357 C364 1.448 . S
N358 C357 1.365 1_556 S
N358 C361 1.319 1_455 S
N358 Eu367 2.600 1_455 S
C359 C361 1.397 1_455 S
C359 C362 1.367 1_556 S
C359 H379 0.931 . S
C360 C357 1.405 . S
C360 C362 1.403 . S
C360 C366 1.439 . S
C361 N358 1.319 1_655 S
C361 C359 1.397 1_655 S
C361 H372 0.930 . S
C362 C359 1.367 1_554 S
C362 C360 1.403 . S
C362 H383 0.929 . S
C363 C364 1.430 . S
C363 C365 1.387 . S
C363 C369 1.404 . S
C364 C357 1.448 . S
C364 C363 1.430 . S
C364 N368 1.351 . S
C365 C363 1.387 . S
C365 C366 1.374 . S
C365 H380 0.931 . S
C366 C360 1.439 . S
C366 C365 1.374 . S
C366 H381 0.931 . S
Eu367 N358 2.600 1_655 S
Eu367 N368 2.562 1_656 S
Eu367 O402 2.335 . S
Eu367 O405 2.372 . S
Eu367 O406 2.462 1_556 S
Eu367 O407 2.373 1_655 S
Eu367 O409 2.432 . S
Eu367 O410 2.291 1_655 S
Eu367 C431 2.787 1_556 S
N368 C364 1.351 . S
N368 Eu367 2.562 1_454 S
N368 C370 1.325 . S
C369 C363 1.404 . S
C369 C371 1.366 . S
C369 H377 0.930 . S
C370 N368 1.325 . S
C370 C371 1.416 . S
C370 H376 0.929 . S
C371 C369 1.366 . S
C371 C370 1.416 . S
C371 H373 0.930 . S
H372 C361 0.930 . S
H373 C371 0.930 . S
H374 C389 0.930 . S
H375 C396 0.930 . S
H376 C370 0.929 . S
H377 C369 0.930 . S
H378 C392 0.929 1_455 S
H379 C359 0.931 . S
H380 C365 0.931 . S
H381 C366 0.931 . S
H382 C387 0.934 . S
H383 C362 0.929 . S
H384 C395 0.930 . S
N385 Eu356 2.600 . S
N385 C386 1.365 1_455 S
N385 C389 1.319 . S
C386 N385 1.365 1_655 S
C386 C388 1.405 . S
C386 C394 1.448 . S
C387 H382 0.934 . S
C387 C389 1.406 . S
C387 C390 1.355 1_455 S
C388 C386 1.405 . S
C388 C390 1.403 . S
C388 C421 1.439 . S
C389 H374 0.930 . S
C389 N385 1.319 . S
C389 C387 1.406 . S
C390 C387 1.355 1_655 S
C390 C388 1.403 . S
C390 H397 0.929 . S
N391 Eu356 2.562 . S
N391 C392 1.325 1_455 S
N391 C394 1.351 1_455 S
C392 H378 0.929 1_655 S
C392 N391 1.325 1_655 S
C392 C396 1.416 . S
C393 C394 1.430 . S
C393 C395 1.404 . S
C393 C422 1.387 . S
C394 C386 1.448 . S
C394 N391 1.351 1_655 S
C394 C393 1.430 . S
C395 H384 0.930 . S
C395 C393 1.404 . S
C395 C396 1.366 . S
C396 H375 0.930 . S
C396 C392 1.416 . S
C396 C395 1.366 . S
H397 C390 0.929 . S
H398 C421 0.931 . S
H399 C422 0.931 . S
O400 Eu356 2.462 . S
O400 C420 1.252 . S
O401 Eu356 2.373 1_655 S
O401 C412 1.249 . S
O402 Eu367 2.335 . S
O402 C412 1.264 . S
O403 Eu356 2.432 . S
O403 C420 1.268 . S
O404 Eu356 2.291 . S
O404 C419 1.255 . S
O405 Eu367 2.372 . S
O405 C419 1.257 1_655 S
O406 Eu367 2.462 1_554 S
O406 C431 1.252 . S
O407 Eu367 2.373 1_455 S
O407 C423 1.249 . S
O408 Eu356 2.335 . S
O408 C423 1.264 . S
O409 Eu367 2.432 . S
O409 C431 1.268 1_556 S
O410 Eu367 2.291 1_455 S
O410 C430 1.255 . S
O411 Eu356 2.372 . S
O411 C430 1.257 . S
C412 O401 1.249 . S
C412 O402 1.264 . S
C413 C416 1.382 . S
C413 C418 1.390 . S
C413 C420 1.506 . S
C414 C415 1.398 . S
C414 C418 1.392 . S
C415 C414 1.398 . S
C415 C417 1.372 . S
C415 H432 0.931 . S
C416 C413 1.382 . S
C416 C417 1.390 . S
C416 H433 0.931 . S
C417 C415 1.372 . S
C417 C416 1.390 . S
C417 H434 0.929 . S
C418 C413 1.390 . S
C418 C414 1.392 . S
C418 H435 0.930 . S
C419 O404 1.255 . S
C419 O405 1.257 1_455 S
C420 Eu356 2.787 . S
C420 O400 1.252 . S
C420 O403 1.268 . S
C420 C413 1.506 . S
C421 C388 1.439 . S
C421 H398 0.931 . S
C421 C422 1.374 . S
C422 C393 1.387 . S
C422 H399 0.931 . S
C422 C421 1.374 . S
C423 O407 1.249 . S
C423 O408 1.264 . S
C424 C427 1.382 . S
C424 C428 1.390 . S
C424 C431 1.506 . S
C425 C426 1.398 . S
C425 C428 1.392 . S
C426 C425 1.398 . S
C426 C429 1.372 . S
C426 H436 0.931 . S
C427 C424 1.382 . S
C427 C429 1.390 . S
C427 H437 0.931 . S
C428 C424 1.390 . S
C428 C425 1.392 . S
C428 H438 0.930 . S
C429 C426 1.372 . S
C429 C427 1.390 . S
C429 H439 0.929 . S
C430 O410 1.255 . S
C430 O411 1.257 . S
C431 Eu367 2.787 1_554 S
C431 O406 1.252 . S
C431 O409 1.268 1_554 S
C431 C424 1.506 . S
H432 C415 0.931 . S
H433 C416 0.931 . S
H434 C417 0.929 . S
H435 C418 0.930 . S
H436 C426 0.931 . S
H437 C427 0.931 . S
H438 C428 0.930 . S
H439 C429 0.929 . S
C440 C441 1.369 1_565 S
C440 C442 1.419 . S
C440 H444 0.930 . S
C441 C440 1.369 1_545 S
C441 C450 1.429 . S
C442 C440 1.419 . S
C442 C443 1.363 1_565 S
C442 H445 0.929 . S
C443 C442 1.363 1_545 S
C443 C449 1.428 . S
H444 C440 0.930 . S
H445 C442 0.929 . S
S446 N447 1.613 . S
S446 N448 1.610 . S
N447 S446 1.613 . S
N447 C450 1.350 . S
N448 S446 1.610 . S
N448 C449 1.351 . S
C449 C443 1.428 . S
C449 N448 1.351 . S
C449 C450 1.434 . S
C450 C441 1.429 . S
C450 N447 1.350 . S
C450 C449 1.434 . S
C451 C452 1.369 . S
C451 C453 1.419 . S
C451 H455 0.930 . S
C452 C451 1.369 . S
C452 C461 1.429 . S
C453 C451 1.419 . S
C453 C454 1.363 . S
C453 H456 0.929 . S
C454 C453 1.363 . S
C454 C460 1.428 . S
H455 C451 0.930 . S
H456 C453 0.929 . S
S457 N458 1.613 . S
S457 N459 1.610 . S
N458 S457 1.613 . S
N458 C461 1.350 . S
N459 S457 1.610 . S
N459 C460 1.351 . S
C460 C454 1.428 . S
C460 N459 1.351 . S
C460 C461 1.434 . S
C461 C452 1.429 . S
C461 N458 1.350 . S
C461 C460 1.434 . S
C462 C463 1.369 . S
C462 C464 1.419 . S
C462 H466 0.930 . S
C463 C462 1.369 . S
C463 C472 1.429 . S
C464 C462 1.419 . S
C464 C465 1.363 . S
C464 H467 0.929 . S
C465 C464 1.363 . S
C465 C471 1.428 . S
H466 C462 0.930 . S
H467 C464 0.929 . S
S468 N469 1.613 . S
S468 N470 1.610 . S
N469 S468 1.613 . S
N469 C472 1.350 . S
N470 S468 1.610 . S
N470 C471 1.351 . S
C471 C465 1.428 . S
C471 N470 1.351 . S
C471 C472 1.434 . S
C472 C463 1.429 . S
C472 N469 1.350 . S
C472 C471 1.434 . S
C473 C474 1.369 . S
C473 C475 1.419 . S
C473 H477 0.930 . S
C474 C473 1.369 . S
C474 C483 1.429 1_455 S
C475 C473 1.419 . S
C475 C476 1.363 . S
C475 H478 0.929 . S
C476 C475 1.363 . S
C476 C482 1.428 1_455 S
H477 C473 0.930 . S
H478 C475 0.929 . S
S479 N480 1.613 . S
S479 N481 1.610 . S
N480 S479 1.613 . S
N480 C483 1.350 . S
N481 S479 1.610 . S
N481 C482 1.351 . S
C482 C476 1.428 1_655 S
C482 N481 1.351 . S
C482 C483 1.434 . S
C483 C474 1.429 1_655 S
C483 N480 1.350 . S
C483 C482 1.434 . S
C484 C485 1.369 1_545 S
C484 C486 1.419 . S
C484 H488 0.930 . S
C485 C484 1.369 1_565 S
C485 C494 1.429 . S
C486 C484 1.419 . S
C486 C487 1.363 1_545 S
C486 H489 0.929 . S
C487 C486 1.363 1_565 S
C487 C493 1.428 . S
H488 C484 0.930 . S
H489 C486 0.929 . S
S490 N491 1.613 . S
S490 N492 1.610 1_554 S
N491 S490 1.613 . S
N491 C494 1.350 . S
N492 S490 1.610 1_556 S
N492 C493 1.351 1_556 S
C493 C487 1.428 . S
C493 N492 1.351 1_554 S
C493 C494 1.434 . S
C494 C485 1.429 . S
C494 N491 1.350 . S
C494 C493 1.434 . S
C495 C496 1.369 . S
C495 C497 1.419 . S
C495 H499 0.930 . S
C496 C495 1.369 . S
C496 C505 1.429 . S
C497 C495 1.419 . S
C497 C498 1.363 . S
C497 H500 0.929 . S
C498 C497 1.363 . S
C498 C504 1.428 . S
H499 C495 0.930 . S
H500 C497 0.929 . S
S501 N502 1.613 . S
S501 N503 1.610 . S
N502 S501 1.613 . S
N502 C505 1.350 . S
N503 S501 1.610 . S
N503 C504 1.351 . S
C504 C498 1.428 . S
C504 N503 1.351 . S
C504 C505 1.434 . S
C505 C496 1.429 . S
C505 N502 1.350 . S
C505 C504 1.434 . S
C506 C507 1.369 . S
C506 C508 1.419 . S
C506 H510 0.930 . S
C507 C506 1.369 . S
C507 C516 1.429 . S
C508 C506 1.419 . S
C508 C509 1.363 . S
C508 H511 0.929 . S
C509 C508 1.363 . S
C509 C515 1.428 . S
H510 C506 0.930 . S
H511 C508 0.929 . S
S512 N513 1.613 . S
S512 N514 1.610 1_554 S
N513 S512 1.613 . S
N513 C516 1.350 . S
N514 S512 1.610 1_556 S
N514 C515 1.351 1_556 S
C515 C509 1.428 . S
C515 N514 1.351 1_554 S
C515 C516 1.434 . S
C516 C507 1.429 . S
C516 N513 1.350 . S
C516 C515 1.434 . S
C517 C518 1.369 . S
C517 C519 1.419 . S
C517 H521 0.930 . S
C518 C517 1.369 . S
C518 C527 1.429 . S
C519 C517 1.419 . S
C519 C520 1.363 . S
C519 H522 0.929 . S
C520 C519 1.363 . S
C520 C526 1.429 . S
H521 C517 0.930 . S
H522 C519 0.929 . S
S523 N524 1.613 . S
S523 N525 1.610 . S
N524 S523 1.613 . S
N524 C527 1.350 1_455 S
N525 S523 1.610 . S
N525 C526 1.350 1_455 S
C526 C520 1.429 . S
C526 N525 1.350 1_655 S
C526 C527 1.434 . S
C527 C518 1.429 . S
C527 N524 1.350 1_655 S
C527 C526 1.434 . S
C528 C529 1.369 1_655 S
C528 C530 1.419 . S
C528 H532 0.930 . S
C529 C528 1.369 1_455 S
C529 C538 1.429 . S
C530 C528 1.419 . S
C530 C531 1.363 . S
C530 H533 0.929 . S
C531 C530 1.363 . S
C531 C537 1.428 1_655 S
H532 C528 0.930 . S
H533 C530 0.929 . S
S534 N535 1.613 . S
S534 N536 1.610 . S
N535 S534 1.613 . S
N535 C538 1.350 . S
N536 S534 1.610 . S
N536 C537 1.351 . S
C537 C531 1.428 1_455 S
C537 N536 1.351 . S
C537 C538 1.434 . S
C538 C529 1.429 . S
C538 N535 1.350 . S
C538 C537 1.434 . S
C539 C540 1.369 . S
C539 C541 1.419 . S
C539 H543 0.930 . S
C540 C539 1.369 . S
C540 C549 1.429 . S
C541 C539 1.419 . S
C541 C542 1.363 1_545 S
C541 H544 0.929 1_545 S
C542 C541 1.363 1_565 S
C542 C548 1.428 1_565 S
H543 C539 0.930 . S
H544 C541 0.929 1_565 S
S545 N546 1.613 . S
S545 N547 1.610 1_546 S
N546 S545 1.613 . S
N546 C549 1.350 1_556 S
N547 S545 1.610 1_564 S
N547 C548 1.351 1_565 S
C548 C542 1.428 1_545 S
C548 N547 1.351 1_545 S
C548 C549 1.434 . S
C549 C540 1.429 . S
C549 N546 1.350 1_554 S
C549 C548 1.434 . S
C550 C551 1.369 . S
C550 C552 1.419 . S
C550 H554 0.930 . S
C551 C550 1.369 . S
C551 C560 1.429 . S
C552 C550 1.419 . S
C552 C553 1.363 . S
C552 H555 0.929 . S
C553 C552 1.363 . S
C553 C559 1.428 . S
H554 C550 0.930 . S
H555 C552 0.929 . S
S556 N557 1.613 . S
S556 N558 1.610 . S
N557 S556 1.613 . S
N557 C560 1.350 . S
N558 S556 1.610 . S
N558 C559 1.351 . S
C559 C553 1.428 . S
C559 N558 1.351 . S
C559 C560 1.434 . S
C560 C551 1.429 . S
C560 N557 1.350 . S
C560 C559 1.434 . S
C561 C562 1.369 . S
C561 C563 1.419 . S
C561 H565 0.930 1_554 S
C562 C561 1.369 . S
C562 C571 1.429 . S
C563 C561 1.419 . S
C563 C564 1.363 . S
C563 H566 0.929 . S
C564 C563 1.363 . S
C564 C570 1.428 . S
H565 C561 0.930 1_556 S
H566 C563 0.929 . S
S567 N568 1.613 . S
S567 N569 1.610 . S
N568 S567 1.613 . S
N568 C571 1.350 . S
N569 S567 1.610 . S
N569 C570 1.351 . S
C570 C564 1.428 . S
C570 N569 1.351 . S
C570 C571 1.434 . S
C571 C562 1.429 . S
C571 N568 1.350 . S
C571 C570 1.434 . S
C572 C573 1.369 . S
C572 C574 1.419 . S
C572 H576 0.930 . S
C573 C572 1.369 . S
C573 C582 1.429 1_655 S
C574 C572 1.419 . S
C574 C575 1.363 1_655 S
C574 H577 0.929 . S
C575 C574 1.363 1_455 S
C575 C581 1.428 . S
H576 C572 0.930 . S
H577 C574 0.929 . S
S578 N579 1.613 . S
S578 N580 1.610 . S
N579 S578 1.613 . S
N579 C582 1.350 . S
N580 S578 1.610 . S
N580 C581 1.351 . S
C581 C575 1.428 . S
C581 N580 1.351 . S
C581 C582 1.434 . S
C582 C573 1.429 1_455 S
C582 N579 1.350 . S
C582 C581 1.434 . S
C583 C584 1.369 1_545 S
C583 C585 1.419 . S
C583 H587 0.930 . S
C584 C583 1.369 1_565 S
C584 C593 1.429 . S
C585 C583 1.419 . S
C585 C586 1.363 . S
C585 H588 0.929 . S
C586 C585 1.363 . S
C586 C592 1.428 1_545 S
H587 C583 0.930 . S
H588 C585 0.929 . S
S589 N590 1.613 . S
S589 N591 1.610 . S
N590 S589 1.613 . S
N590 C593 1.350 . S
N591 S589 1.610 . S
N591 C592 1.351 . S
C592 C586 1.428 1_565 S
C592 N591 1.351 . S
C592 C593 1.434 . S
C593 C584 1.429 . S
C593 N590 1.350 . S
C593 C592 1.434 . S
C594 C595 1.369 . S
C594 C596 1.419 . S
C594 H598 0.930 . S
C595 C594 1.369 . S
C595 C604 1.429 . S
C596 C594 1.419 . S
C596 C597 1.363 . S
C596 H599 0.929 . S
C597 C596 1.363 . S
C597 C603 1.428 . S
H598 C594 0.930 . S
H599 C596 0.929 . S
S600 N601 1.613 . S
S600 N602 1.610 . S
N601 S600 1.613 . S
N601 C604 1.350 . S
N602 S600 1.610 . S
N602 C603 1.351 . S
C603 C597 1.428 . S
C603 N602 1.351 . S
C603 C604 1.434 . S
C604 C595 1.429 . S
C604 N601 1.350 . S
C604 C603 1.434 . S
C605 C606 1.369 . S
C605 C607 1.419 . S
C605 H609 0.930 . S
C606 C605 1.369 . S
C606 C615 1.429 . S
C607 C605 1.419 . S
C607 C608 1.363 . S
C607 H610 0.929 . S
C608 C607 1.363 . S
C608 C614 1.428 . S
H609 C605 0.930 . S
H610 C607 0.929 . S
S611 N612 1.613 . S
S611 N613 1.610 . S
N612 S611 1.613 . S
N612 C615 1.350 . S
N613 S611 1.610 . S
N613 C614 1.351 . S
C614 C608 1.428 . S
C614 N613 1.351 . S
C614 C615 1.434 . S
C615 C606 1.429 . S
C615 N612 1.350 . S
C615 C614 1.434 . S
C616 C617 1.369 . S
C616 C618 1.419 . S
C616 H620 0.930 . S
C617 C616 1.369 . S
C617 C626 1.429 1_556 S
C618 C616 1.419 . S
C618 C619 1.363 . S
C618 H621 0.929 . S
C619 C618 1.363 . S
C619 C625 1.428 . S
H620 C616 0.930 . S
H621 C618 0.929 . S
S622 N623 1.613 . S
S622 N624 1.610 . S
N623 S622 1.613 . S
N623 C626 1.350 1_655 S
N624 S622 1.610 . S
N624 C625 1.351 1_654 S
C625 C619 1.428 . S
C625 N624 1.351 1_456 S
C625 C626 1.434 1_556 S
C626 C617 1.429 1_554 S
C626 N623 1.350 1_455 S
C626 C625 1.434 1_554 S
C627 C628 1.369 . S
C627 C629 1.419 . S
C627 H631 0.930 1_556 S
C628 C627 1.369 . S
C628 C637 1.429 . S
C629 C627 1.419 . S
C629 C630 1.363 . S
C629 H632 0.929 . S
C630 C629 1.363 . S
C630 C636 1.441 . S
H631 C627 0.930 1_554 S
H632 C629 0.929 . S
S633 N634 1.613 . S
S633 N635 1.610 . S
N634 S633 1.613 . S
N634 C637 1.350 1_565 S
N635 S633 1.610 . S
N635 C636 1.337 1_565 S
C636 C630 1.441 . S
C636 N635 1.337 1_545 S
C636 C637 1.434 . S
C637 C628 1.429 . S
C637 N634 1.350 1_545 S
C637 C636 1.434 . S
C638 C639 1.369 . S
C638 C640 1.419 . S
C638 H642 0.930 . S
C639 C638 1.369 . S
C639 C648 1.429 . S
C640 C638 1.419 . S
C640 C641 1.363 . S
C640 H643 0.929 . S
C641 C640 1.363 . S
C641 C647 1.428 . S
H642 C638 0.930 . S
H643 C640 0.929 . S
S644 N645 1.613 . S
S644 N646 1.610 . S
N645 S644 1.613 . S
N645 C648 1.350 1_554 S
N646 S644 1.610 . S
N646 C647 1.351 1_554 S
C647 C641 1.428 . S
C647 N646 1.351 1_556 S
C647 C648 1.434 . S
C648 C639 1.429 . S
C648 N645 1.350 1_556 S
C648 C647 1.434 . S
C649 C650 1.369 . S
C649 C651 1.419 . S
C649 H653 0.930 . S
C650 C649 1.369 . S
C650 C659 1.429 . S
C651 C649 1.419 . S
C651 C652 1.363 . S
C651 H654 0.929 . S
C652 C651 1.363 . S
C652 C658 1.428 . S
H653 C649 0.930 . S
H654 C651 0.929 . S
S655 N656 1.613 . S
S655 N657 1.610 . S
N656 S655 1.613 . S
N656 C659 1.350 . S
N657 S655 1.610 . S
N657 C658 1.351 . S
C658 C652 1.428 . S
C658 N657 1.351 . S
C658 C659 1.434 . S
C659 C650 1.429 . S
C659 N656 1.350 . S
C659 C658 1.434 . S
C660 C661 1.369 . S
C660 C662 1.419 . S
C660 H664 0.930 . S
C661 C660 1.369 . S
C661 C670 1.429 1_655 S
C662 C660 1.419 . S
C662 C663 1.363 . S
C662 H665 0.929 . S
C663 C662 1.363 . S
C663 C669 1.428 1_655 S
H664 C660 0.930 . S
H665 C662 0.929 . S
S666 N667 1.613 . S
S666 N668 1.610 . S
N667 S666 1.613 . S
N667 C670 1.350 . S
N668 S666 1.610 . S
N668 C669 1.351 . S
C669 C663 1.428 1_455 S
C669 N668 1.351 . S
C669 C670 1.434 . S
C670 C661 1.429 1_455 S
C670 N667 1.350 . S
C670 C669 1.434 . S
C671 C672 1.369 . S
C671 C673 1.419 . S
C671 H675 0.930 . S
C672 C671 1.369 . S
C672 C681 1.429 1_565 S
C673 C671 1.419 . S
C673 C674 1.363 . S
C673 H676 0.929 . S
C674 C673 1.363 . S
C674 C680 1.428 1_565 S
H675 C671 0.930 . S
H676 C673 0.929 . S
S677 N678 1.613 . S
S677 N679 1.610 . S
N678 S677 1.613 . S
N678 C681 1.350 . S
N679 S677 1.610 . S
N679 C680 1.351 . S
C680 C674 1.428 1_545 S
C680 N679 1.351 . S
C680 C681 1.434 . S
C681 C672 1.429 1_545 S
C681 N678 1.350 . S
C681 C680 1.434 . S
C682 C683 1.369 . S
C682 C684 1.419 . S
C682 H686 0.930 . S
C683 C682 1.369 . S
C683 C692 1.429 . S
C684 C682 1.419 . S
C684 C685 1.363 . S
C684 H687 0.929 . S
C685 C684 1.363 . S
C685 C691 1.428 . S
H686 C682 0.930 . S
H687 C684 0.929 . S
S688 N689 1.613 . S
S688 N690 1.610 . S
N689 S688 1.613 . S
N689 C692 1.350 . S
N690 S688 1.610 . S
N690 C691 1.351 . S
C691 C685 1.428 . S
C691 N690 1.351 . S
C691 C692 1.434 . S
C692 C683 1.429 . S
C692 N689 1.350 . S
C692 C691 1.434 . S
C693 C694 1.369 . S
C693 C695 1.419 . S
C693 H697 0.930 . S
C694 C693 1.369 . S
C694 C703 1.429 . S
C695 C693 1.419 . S
C695 C696 1.363 . S
C695 H698 0.929 . S
C696 C695 1.363 . S
C696 C702 1.428 . S
H697 C693 0.930 . S
H698 C695 0.929 . S
S699 N700 1.613 . S
S699 N701 1.610 . S
N700 S699 1.613 . S
N700 C703 1.350 . S
N701 S699 1.610 . S
N701 C702 1.351 . S
C702 C696 1.428 . S
C702 N701 1.351 . S
C702 C703 1.434 . S
C703 C694 1.429 . S
C703 N700 1.350 . S
C703 C702 1.434 . S
C441 N80 2.019 . S
C443 C167 2.152 . S
C454 C244 2.157 . S
C452 N93 2.018 . S
C465 C335 2.150 . S
C463 N54 2.022 . S
C476 C419 2.139 . S
C474 N67 2.017 . S
C487 C178 2.152 1_564 S
C485 N28 2.022 . S
C496 N41 2.023 . S
C498 C255 2.156 1_554 S
C507 N2 2.018 . S
C509 C346 2.152 1_554 S
C518 N15 2.021 . S
C520 C430 2.139 1_654 S
C531 C162 0.737 . S
C529 N70 0.735 . S
C542 C257 0.715 . S
C540 N83 0.716 . S
C553 C330 0.739 . S
C551 N96 0.737 . S
C562 N57 0.721 . S
C564 C414 0.714 . S
C573 N18 0.725 . S
C575 C173 0.731 . S
C586 C246 0.718 . S
C584 N31 0.727 . S
C597 C341 0.737 . S
C595 N44 0.732 . S
C606 N5 0.709 . S
C608 C425 0.716 . S
C617 N66 2.149 . S
C619 C171 2.261 . S
C628 N79 2.165 . S
C630 C262 2.290 . S
C641 C339 2.272 . S
C639 N92 2.159 . S
C652 C423 2.275 . S
C650 N53 2.168 . S
C661 N14 2.159 . S
C663 C160 2.259 . S
C674 C251 2.290 . S
C672 N27 2.168 . S
C685 C328 2.272 . S
C683 N40 2.160 . S
C694 N1 2.168 . S
C696 C412 2.277 . S
