# Generated by pormake.
# Topology anh, (6,3)-cn, num edge types: 1
# Building blocks:
#     Node 0, Type 0, BuildingBlock: BETDEL_clean_sbu_0, # of connection points: 6
#     Node 1, Type 0, BuildingBlock: BETDEL_clean_sbu_0, # of connection points: 6
#     Node 2, Type 0, BuildingBlock: BETDEL_clean_sbu_0, # of connection points: 6
#     Node 3, Type 1, BuildingBlock: ESEHIV_clean_linker_0, # of connection points: 3
#     Node 4, Type 1, BuildingBlock: ESEHIV_clean_linker_0, # of connection points: 3
#     Node 5, Type 1, BuildingBlock: ESEHIV_clean_linker_0, # of connection points: 3
#     Node 6, Type 1, BuildingBlock: ESEHIV_clean_linker_0, # of connection points: 3
#     Node 7, Type 1, BuildingBlock: ESEHIV_clean_linker_0, # of connection points: 3
#     Node 8, Type 1, BuildingBlock: ESEHIV_clean_linker_0, # of connection points: 3
#     Edge 9, Type (0, 1), BuildingBlock: AJUNOK_clean_linker_0, # of connection points: 2
#     Edge 10, Type (0, 1), BuildingBlock: AJUNOK_clean_linker_0, # of connection points: 2
#     Edge 11, Type (0, 1), BuildingBlock: AJUNOK_clean_linker_0, # of connection points: 2
#     Edge 12, Type (0, 1), BuildingBlock: AJUNOK_clean_linker_0, # of connection points: 2
#     Edge 13, Type (0, 1), BuildingBlock: AJUNOK_clean_linker_0, # of connection points: 2
#     Edge 14, Type (0, 1), BuildingBlock: AJUNOK_clean_linker_0, # of connection points: 2
#     Edge 15, Type (0, 1), BuildingBlock: AJUNOK_clean_linker_0, # of connection points: 2
#     Edge 16, Type (0, 1), BuildingBlock: AJUNOK_clean_linker_0, # of connection points: 2
#     Edge 17, Type (0, 1), BuildingBlock: AJUNOK_clean_linker_0, # of connection points: 2
#     Edge 18, Type (0, 1), BuildingBlock: AJUNOK_clean_linker_0, # of connection points: 2
#     Edge 19, Type (0, 1), BuildingBlock: AJUNOK_clean_linker_0, # of connection points: 2
#     Edge 20, Type (0, 1), BuildingBlock: AJUNOK_clean_linker_0, # of connection points: 2
#     Edge 21, Type (0, 1), BuildingBlock: AJUNOK_clean_linker_0, # of connection points: 2
#     Edge 22, Type (0, 1), BuildingBlock: AJUNOK_clean_linker_0, # of connection points: 2
#     Edge 23, Type (0, 1), BuildingBlock: AJUNOK_clean_linker_0, # of connection points: 2
#     Edge 24, Type (0, 1), BuildingBlock: AJUNOK_clean_linker_0, # of connection points: 2
#     Edge 25, Type (0, 1), BuildingBlock: AJUNOK_clean_linker_0, # of connection points: 2
#     Edge 26, Type (0, 1), BuildingBlock: AJUNOK_clean_linker_0, # of connection points: 2
# Relax obj value: 0.167
# Max RMSD: 0.169
# Mean RMSD: 0.141
data_MOF--net-anh--node1-BETDEL_clean_sbu_0--node2-ESEHIV_clean_linker_0--edge1-AJUNOK_clean_linker_0
_symmetry_space_group_name_H-M    P1
_symmetry_Int_Tables_number       1
_symmetry_cell_setting            triclinic
loop_
_symmetry_equiv_pos_as_xyz
'x, y, z'
_cell_length_a     19.466827
_cell_length_b     19.499763
_cell_length_c     35.7928
_cell_angle_alpha  90.03917
_cell_angle_beta   89.809448
_cell_angle_gamma 120.11883
loop_
_atom_site_label
_atom_site_type_symbol
_atom_site_fract_x
_atom_site_fract_y
_atom_site_fract_z
_atom_type_partial_charge
Dy0 Dy 0.08796 0.4802 0.15889 0.0
C1 C 0.90726 0.62044 0.18623 0.0
C2 C 0.18233 0.41979 0.14054 0.0
Dy3 Dy 1.00912 0.5683 0.16743 0.0
O4 O 0.1586 0.42326 0.17386 0.0
O5 O 0.1542 0.44971 0.11689 0.0
O6 O 1.03909 0.41796 0.21324 0.0
O7 O 0.07146 0.53789 0.20773 0.0
C8 C 1.04021 0.47832 0.229 0.0
C9 C 0.05339 0.56915 0.09603 0.0
O10 O 0.12711 0.66284 0.18892 0.0
O11 O 0.19377 0.60774 0.16065 0.0
O12 O 0.96746 0.65641 0.16378 0.0
O13 O 0.90531 0.55746 0.19902 0.0
O14 O 0.05499 0.62858 0.11284 0.0
O15 O 1.02395 0.50943 0.11755 0.0
O16 O 0.96579 0.37575 0.14965 0.0
O17 O 0.90392 0.44284 0.17005 0.0
C18 C 0.19483 0.6692 0.17752 0.0
C19 C 0.90051 0.37556 0.16028 0.0
Dy20 Dy 0.49936 0.05834 0.49522 0.0
C21 C 0.8381 0.24284 0.52799 0.0
C22 C 0.35241 0.95864 0.46898 0.0
Dy23 Dy 0.68656 0.15092 0.50329 0.0
O24 O 0.37251 0.96604 0.50397 0.0
O25 O 0.41228 1.00828 0.44862 0.0
O26 O 0.48715 0.10256 0.55088 0.0
O27 O 0.58443 0.08582 0.54009 0.0
C28 C 0.55463 0.11283 0.56315 0.0
C29 C 0.64068 0.12418 0.43075 0.0
O30 O 0.6604 1.02704 0.51645 0.0
O31 O 0.52798 0.95822 0.49744 0.0
O32 O 0.81328 0.18095 0.50656 0.0
O33 O 0.7781 0.25131 0.53727 0.0
O34 O 0.71479 0.16057 0.44054 0.0
O35 O 0.60061 0.10768 0.46002 0.0
O36 O 0.52457 0.18332 0.48527 0.0
O37 O 0.65576 0.24855 0.50612 0.0
C38 C 0.59408 0.9595 0.50858 0.0
C39 C 0.59068 0.24927 0.49528 0.0
Dy40 Dy 0.63415 0.65353 0.82221 0.0
C41 C 0.50541 0.32837 0.86257 0.0
C42 C 0.68365 0.80639 0.80669 0.0
Dy43 Dy 0.54411 0.47097 0.83215 0.0
O44 O 0.65188 0.77087 0.8379 0.0
O45 O 0.68886 0.75818 0.78321 0.0
O46 O 0.69336 0.66441 0.87723 0.0
O47 O 0.57674 0.57185 0.86794 0.0
C48 C 0.63401 0.59964 0.8903 0.0
C49 C 0.55715 0.50621 0.75853 0.0
O50 O 0.4423 0.49115 0.84401 0.0
O51 O 0.50332 0.62126 0.8223 0.0
O52 O 0.46261 0.34053 0.8384 0.0
O53 O 0.56402 0.39666 0.87283 0.0
O54 O 0.52104 0.43424 0.77148 0.0
O55 O 0.58332 0.55282 0.78583 0.0
O56 O 0.73831 0.63467 0.81394 0.0
O57 O 0.67359 0.50259 0.83285 0.0
C58 C 0.43911 0.55562 0.83483 0.0
C59 C 0.73934 0.56924 0.8234 0.0
H60 H 0.45401 0.9338 0.27764 0.0
H61 H 0.67377 0.15138 0.26108 0.0
H62 H 0.54429 1.01258 0.1658 0.0
C63 C 0.49926 0.97611 0.2589 0.0
C64 C 0.49048 0.96288 0.21987 0.0
C65 C 0.56493 0.04388 0.27404 0.0
C66 C 0.62263 0.09928 0.24967 0.0
C67 C 0.61629 0.08933 0.21082 0.0
C68 C 0.55028 1.02023 0.19581 0.0
H69 H 0.57766 0.69073 0.6027 0.0
H70 H 0.57823 0.47261 0.58801 0.0
H71 H 0.59134 0.61063 0.49162 0.0
C72 C 0.58012 0.64779 0.58432 0.0
C73 C 0.5858 0.66042 0.54532 0.0
C74 C 0.57523 0.57932 0.59979 0.0
C75 C 0.57891 0.52409 0.57607 0.0
C76 C 0.5838 0.53362 0.53723 0.0
C77 C 0.58683 0.60212 0.52161 0.0
H78 H 0.97226 0.56716 0.92573 0.0
H79 H 0.18127 0.547 0.93249 0.0
H80 H 0.09164 0.56365 0.82453 0.0
C81 C 1.0199 0.56355 0.91176 0.0
C82 C 1.02373 0.56548 0.87251 0.0
C83 C 0.07611 0.55676 0.93343 0.0
C84 C 0.13729 0.55105 0.91559 0.0
C85 C 0.14476 0.5544 0.87633 0.0
C86 C 0.0871 0.5613 0.85472 0.0
H87 H 0.99128 0.4144 0.41026 0.0
H88 H 0.11084 0.65574 0.37242 0.0
H89 H 0.12569 0.60406 0.48766 0.0
C90 C 1.0292 0.47711 0.41588 0.0
C91 C 0.05676 0.50306 0.45235 0.0
C92 C 1.04827 0.53192 0.38684 0.0
C93 C 0.09498 0.61286 0.39468 0.0
C94 C 0.12398 0.63946 0.4306 0.0
C95 C 0.10397 0.58424 0.45959 0.0
H96 H 0.60953 0.2335 0.73808 0.0
H97 H 0.68593 0.0688 0.70824 0.0
H98 H 0.67635 0.12487 0.82345 0.0
C99 C 0.6328 0.19538 0.74583 0.0
C100 C 0.63864 0.18127 0.78382 0.0
C101 C 0.65103 0.15591 0.71814 0.0
C102 C 0.67916 0.10532 0.72908 0.0
C103 C 0.68936 0.09451 0.76697 0.0
C104 C 0.67213 0.13564 0.79408 0.0
H105 H 0.45542 0.46512 0.0414 0.0
H106 H 0.70639 0.58451 0.06212 0.0
H107 H 0.54137 0.48971 0.15356 0.0
C108 C 0.50446 0.48407 0.06068 0.0
C109 C 0.48951 0.47475 0.09916 0.0
C110 C 0.58263 0.5228 0.04701 0.0
C111 C 0.64584 0.55218 0.07236 0.0
C112 C 0.63101 0.54202 0.11094 0.0
C113 C 0.55292 0.49927 0.12384 0.0
C114 C 0.2659 0.37837 0.10579 0.0
C115 C 0.25731 0.42274 0.13426 0.0
C116 C 0.34134 0.3918 0.09605 0.0
C117 C 0.40984 0.45194 0.11367 0.0
H118 H 0.21449 0.33467 0.09051 0.0
H119 H 0.3463 0.35697 0.07374 0.0
S120 S 0.41591 0.58686 0.18884 0.0
N121 N 0.32077 0.52747 0.18031 0.0
N122 N 0.46288 0.55808 0.16011 0.0
C123 C 0.4009 0.49615 0.14251 0.0
C124 C 0.32431 0.48026 0.15322 0.0
C125 C 0.92989 0.38674 0.53289 0.0
C126 C 0.91894 0.31129 0.52473 0.0
C127 C 0.98344 0.4529 0.51203 0.0
C128 C 1.02809 0.44509 0.48317 0.0
H129 H 0.88931 0.39297 0.55149 0.0
H130 H 0.98262 0.5077 0.5155 0.0
S131 S 1.0438 0.26771 0.4619 0.0
N132 N 0.9737 0.23767 0.49419 0.0
N133 N 0.07503 0.36268 0.45505 0.0
C134 C 1.0287 0.37372 0.48 0.0
C135 C 0.97424 0.30644 0.50121 0.0
C136 C 0.64707 0.90772 0.81676 0.0
C137 C 0.6944 0.88396 0.79758 0.0
C138 C 0.64794 0.97691 0.80714 0.0
C139 C 0.69827 1.02681 0.77872 0.0
H140 H 0.6058 0.87064 0.83829 0.0
H141 H 0.6059 0.98914 0.82121 0.0
S142 S 0.83983 0.99407 0.72255 0.0
N143 N 0.79536 0.91551 0.75007 0.0
N144 N 0.80112 0.05014 0.73316 0.0
C145 C 0.74874 1.00537 0.76029 0.0
C146 C 0.74598 0.9329 0.76949 0.0
C147 C 0.76272 0.55392 0.19022 0.0
C148 C 0.83415 0.62283 0.18093 0.0
C149 C 0.69537 0.5298 0.16844 0.0
C150 C 0.69657 0.57612 0.1381 0.0
H151 H 0.76156 0.51262 0.21082 0.0
H152 H 0.64472 0.47146 0.17352 0.0
S153 S 0.85917 0.77784 0.11364 0.0
N154 N 0.89634 0.74769 0.147 0.0
N155 N 0.76689 0.70519 0.10758 0.0
C156 C 0.76296 0.65229 0.13343 0.0
C157 C 0.83236 0.67571 0.155 0.0
C158 C 0.2204 0.83973 0.47791 0.0
C159 C 0.28533 0.88591 0.45438 0.0
C160 C 0.16658 0.76061 0.46933 0.0
C161 C 0.17714 0.72497 0.43735 0.0
H162 H 0.21332 0.8638 0.504 0.0
H163 H 0.11781 0.7265 0.48843 0.0
S164 S 0.33685 0.82245 0.36607 0.0
N165 N 0.3546 0.89286 0.39656 0.0
N166 N 0.25691 0.74269 0.38166 0.0
C167 C 0.24037 0.77174 0.41285 0.0
C168 C 0.29356 0.85282 0.42102 0.0
C169 C 0.47839 0.20875 0.82813 0.0
C170 C 0.51946 0.2616 0.85737 0.0
C171 C 0.51686 0.1803 0.80535 0.0
C172 C 0.5962 0.20138 0.81205 0.0
H173 H 0.42057 0.19824 0.81951 0.0
H174 H 0.4859 0.1455 0.78101 0.0
S175 S 0.71694 0.31111 0.89417 0.0
N176 N 0.63413 0.31437 0.89852 0.0
N177 N 0.70607 0.259 0.856 0.0
C178 C 0.63204 0.24125 0.84533 0.0
C179 C 0.59295 0.27076 0.86839 0.0
C180 C 0.65221 0.88082 0.5368 0.0
C181 C 0.59325 0.88237 0.51455 0.0
C182 C 0.65096 0.8095 0.54504 0.0
C183 C 0.59159 0.73585 0.53097 0.0
H184 H 0.69881 0.93503 0.54907 0.0
H185 H 0.69623 0.81182 0.56339 0.0
S186 S 0.42565 0.70599 0.46949 0.0
N187 N 0.47499 0.80255 0.47722 0.0
N188 N 0.47355 0.66931 0.49248 0.0
C189 C 0.53382 0.73643 0.50759 0.0
C190 C 0.53436 0.80918 0.49951 0.0
C191 C 0.87918 0.63756 0.84835 0.0
C192 C 0.81781 0.57315 0.82894 0.0
C193 C 0.94811 0.6369 0.85996 0.0
C194 C 0.96013 0.57274 0.85196 0.0
H195 H 0.87182 0.68692 0.85668 0.0
H196 H 0.99098 0.68568 0.87688 0.0
S197 S 0.82304 0.3945 0.79722 0.0
N198 N 0.77699 0.44619 0.79947 0.0
N199 N 0.90728 0.44628 0.82022 0.0
C200 C 0.90167 0.51035 0.83044 0.0
C201 C 0.83046 0.51015 0.81931 0.0
C202 C 0.2714 0.80081 0.2108 0.0
C203 C 0.27177 0.74485 0.18586 0.0
C204 C 0.34146 0.8712 0.22045 0.0
C205 C 0.41629 0.89046 0.20558 0.0
H206 H 0.21635 0.78982 0.22367 0.0
H207 H 0.33686 0.91091 0.24016 0.0
S208 S 0.45133 0.76729 0.13752 0.0
N209 N 0.35458 0.71594 0.1453 0.0
N210 N 0.48579 0.84796 0.16348 0.0
C211 C 0.41771 0.83634 0.17982 0.0
C212 C 0.34598 0.76385 0.1701 0.0
C213 C 0.51812 0.32676 0.50078 0.0
C214 C 0.59033 0.32641 0.49787 0.0
C215 C 0.51641 0.3966 0.50962 0.0
C216 C 0.58674 0.46972 0.51515 0.0
H217 H 0.46212 0.27173 0.49859 0.0
H218 H 0.45943 0.39224 0.5146 0.0
S219 S 0.79158 0.50415 0.507 0.0
N220 N 0.73454 0.40858 0.49829 0.0
N221 N 0.73052 0.53835 0.51478 0.0
C222 C 0.65916 0.47134 0.51 0.0
C223 C 0.66116 0.40034 0.50135 0.0
C224 C 0.2974 0.48888 0.8589 0.0
C225 C 0.36151 0.55459 0.84104 0.0
C226 C 0.22636 0.48778 0.86816 0.0
C227 C 0.21461 0.55169 0.8596 0.0
H228 H 0.30268 0.43824 0.86702 0.0
H229 H 0.18078 0.43705 0.88325 0.0
S230 S 0.36067 0.73717 0.81165 0.0
N231 N 0.4061 0.68496 0.81407 0.0
N232 N 0.27259 0.68204 0.83125 0.0
C233 C 0.27656 0.61663 0.84057 0.0
C234 C 0.34969 0.61829 0.8314 0.0
C235 C 0.7541 0.2995 0.17662 0.0
C236 C 0.82318 0.29843 0.16532 0.0
C237 C 0.68442 0.22988 0.18775 0.0
C238 C 0.67964 0.15532 0.1878 0.0
H239 H 0.75478 0.35526 0.17873 0.0
H240 H 0.63525 0.23516 0.1986 0.0
S241 S 0.83999 0.11703 0.15829 0.0
N242 N 0.87927 0.21368 0.1527 0.0
N243 N 0.74863 0.08392 0.17379 0.0
C244 C 0.74621 0.1523 0.17463 0.0
C245 C 0.81758 0.22331 0.1633 0.0
C246 C 0.05827 0.50071 0.03688 0.0
C247 C 0.06175 0.56687 0.05468 0.0
C248 C 0.06455 0.49804 -0.00233 0.0
C249 C 0.07321 0.56086 0.97492 0.0
H250 H 1.05046 0.45064 0.0533 0.0
H251 H 0.06107 0.44592 0.98501 0.0
S252 S 0.08895 0.74872 0.00734 0.0
N253 N 0.0777 0.69809 0.04604 0.0
N254 N 0.0878 0.69178 0.97294 0.0
C255 C 0.07771 0.62744 0.99236 0.0
C256 C 0.07246 0.63079 0.03205 0.0
C257 C 0.61761 0.15631 0.36642 0.0
C258 C 0.61074 0.09949 0.39243 0.0
C259 C 0.59883 0.13654 0.32865 0.0
C260 C 0.57418 0.0595 0.31522 0.0
H261 H 0.63913 0.21691 0.3752 0.0
H262 H 0.60558 0.18268 0.3096 0.0
S263 S 0.5487 0.88986 0.37286 0.0
N264 N 0.57671 0.96324 0.40302 0.0
N265 N 0.54435 0.92621 0.33179 0.0
C266 C 0.56559 1.00169 0.34141 0.0
C267 C 0.5835 1.02177 0.38004 0.0
C268 C 0.61254 0.60325 0.70504 0.0
C269 C 0.55803 0.52721 0.71867 0.0
C270 C 0.61636 0.62109 0.66666 0.0
C271 C 0.56543 0.56355 0.64078 0.0
H272 H 0.65401 0.64839 0.72391 0.0
H273 H 0.66113 0.67933 0.65704 0.0
S274 S 0.40514 0.35907 0.66317 0.0
N275 N 0.44786 0.39628 0.7037 0.0
N276 N 0.45352 0.43036 0.63229 0.0
C277 C 0.50815 0.48875 0.65453 0.0
C278 C 0.50489 0.47042 0.69327 0.0
C279 C 0.65667 0.14617 0.61245 0.0
C280 C 0.58194 0.13415 0.60202 0.0
C281 C 0.68052 0.15815 0.64987 0.0
C282 C 0.62986 0.15695 0.67836 0.0
H283 H 0.69623 0.14412 0.59171 0.0
H284 H 0.7381 0.16572 0.65671 0.0
S285 S 0.42798 0.12899 0.66527 0.0
N286 N 0.45875 0.1257 0.62265 0.0
N287 N 0.50123 0.14323 0.69319 0.0
C288 C 0.55565 0.1472 0.66806 0.0
C289 C 0.53223 0.13686 0.62983 0.0
C290 C 0.56576 0.58772 0.94976 0.0
C291 C 0.62357 0.58016 0.92985 0.0
C292 C 0.55364 0.56946 0.98769 0.0
C293 C 0.59755 0.54101 0.00671 0.0
H294 H 0.53049 0.60904 0.93602 0.0
H295 H 0.51003 0.57861 0.00226 0.0
S296 S 0.75298 0.50665 0.96539 0.0
N297 N 0.72446 0.542 0.93053 0.0
N298 N 0.69928 0.50333 0.00196 0.0
C299 C 0.65511 0.53226 0.98669 0.0
C300 C 0.66858 0.55274 0.9481 0.0
C301 C 1.03989 0.43472 0.29438 0.0
C302 C 1.0286 0.48344 0.26923 0.0
C303 C 1.04026 0.44664 0.33299 0.0
C304 C 1.02702 0.50612 0.34755 0.0
H305 H 0.05353 0.39054 0.2842 0.0
H306 H 0.05603 0.41247 0.35127 0.0
S307 S 0.97736 0.63733 0.29319 0.0
N308 N 0.99608 0.58749 0.26142 0.0
N309 N 0.98719 0.60354 0.33389 0.0
C310 C 1.00701 0.54905 0.32263 0.0
C311 C 1.01053 0.53954 0.28344 0.0
loop_
_geom_bond_atom_site_label_1
_geom_bond_atom_site_label_2
_geom_bond_distance
_geom_bond_site_symmetry_2
_ccdc_geom_bond_type
Dy0 O4 2.398 . S
Dy0 O5 2.491 . S
Dy0 O6 2.403 . S
Dy0 O7 2.664 . S
Dy0 O11 2.326 . S
Dy0 O15 2.310 . S
Dy0 O16 2.351 1_455 S
C1 O12 1.185 . S
C1 O13 1.355 . S
C2 O4 1.185 . S
C2 O5 1.355 . S
Dy3 O7 2.310 1_655 S
Dy3 O10 2.351 1_655 S
Dy3 O12 2.398 . S
Dy3 O13 2.491 . S
Dy3 O14 2.403 . S
Dy3 O15 2.664 1_655 S
Dy3 O17 2.326 . S
O4 Dy0 2.398 . S
O4 C2 1.185 . S
O5 Dy0 2.491 . S
O5 C2 1.355 . S
O6 Dy0 2.403 . S
O6 C8 1.254 . S
O7 Dy0 2.664 . S
O7 Dy3 2.310 1_455 S
O7 C8 1.268 . S
C8 O6 1.254 . S
C8 O7 1.268 . S
C9 O14 1.254 1_455 S
C9 O15 1.268 . S
O10 Dy3 2.351 1_455 S
O10 C18 1.249 . S
O11 Dy0 2.326 . S
O11 C18 1.267 . S
O12 C1 1.185 . S
O12 Dy3 2.398 . S
O13 C1 1.355 . S
O13 Dy3 2.491 . S
O14 Dy3 2.403 . S
O14 C9 1.254 1_655 S
O15 Dy0 2.310 . S
O15 Dy3 2.664 1_455 S
O15 C9 1.268 . S
O16 Dy0 2.351 1_655 S
O16 C19 1.249 . S
O17 Dy3 2.326 . S
O17 C19 1.267 . S
C18 O10 1.249 . S
C18 O11 1.267 . S
C19 O16 1.249 . S
C19 O17 1.267 . S
Dy20 O24 2.398 . S
Dy20 O25 2.491 . S
Dy20 O26 2.403 . S
Dy20 O27 2.664 1_565 S
Dy20 O31 2.326 . S
Dy20 O35 2.310 1_565 S
Dy20 O36 2.351 1_565 S
C21 O32 1.185 . S
C21 O33 1.355 . S
C22 O24 1.185 . S
C22 O25 1.355 . S
Dy23 O27 2.310 . S
Dy23 O30 2.351 1_545 S
Dy23 O32 2.398 . S
Dy23 O33 2.491 . S
Dy23 O34 2.403 . S
Dy23 O35 2.664 . S
Dy23 O37 2.326 . S
O24 Dy20 2.398 . S
O24 C22 1.185 . S
O25 Dy20 2.491 . S
O25 C22 1.355 . S
O26 Dy20 2.403 . S
O26 C28 1.254 1_565 S
O27 Dy20 2.664 1_545 S
O27 Dy23 2.310 . S
O27 C28 1.268 . S
C28 O26 1.254 1_545 S
C28 O27 1.268 . S
C29 O34 1.254 . S
C29 O35 1.268 . S
O30 Dy23 2.351 1_565 S
O30 C38 1.249 . S
O31 Dy20 2.326 . S
O31 C38 1.267 . S
O32 C21 1.185 . S
O32 Dy23 2.398 . S
O33 C21 1.355 . S
O33 Dy23 2.491 . S
O34 Dy23 2.403 . S
O34 C29 1.254 . S
O35 Dy20 2.310 1_545 S
O35 Dy23 2.664 . S
O35 C29 1.268 . S
O36 Dy20 2.351 1_545 S
O36 C39 1.249 . S
O37 Dy23 2.326 . S
O37 C39 1.267 . S
C38 O30 1.249 . S
C38 O31 1.267 . S
C39 O36 1.249 . S
C39 O37 1.267 . S
Dy40 O44 2.398 . S
Dy40 O45 2.491 . S
Dy40 O46 2.403 . S
Dy40 O47 2.664 . S
Dy40 O51 2.326 . S
Dy40 O55 2.310 . S
Dy40 O56 2.351 . S
C41 O52 1.185 . S
C41 O53 1.355 . S
C42 O44 1.185 . S
C42 O45 1.355 . S
Dy43 O47 2.310 . S
Dy43 O50 2.351 . S
Dy43 O52 2.398 . S
Dy43 O53 2.491 . S
Dy43 O54 2.403 . S
Dy43 O55 2.664 . S
Dy43 O57 2.326 . S
O44 Dy40 2.398 . S
O44 C42 1.185 . S
O45 Dy40 2.491 . S
O45 C42 1.355 . S
O46 Dy40 2.403 . S
O46 C48 1.254 . S
O47 Dy40 2.664 . S
O47 Dy43 2.310 . S
O47 C48 1.268 . S
C48 O46 1.254 . S
C48 O47 1.268 . S
C49 O54 1.254 . S
C49 O55 1.268 . S
O50 Dy43 2.351 . S
O50 C58 1.249 . S
O51 Dy40 2.326 . S
O51 C58 1.267 . S
O52 C41 1.185 . S
O52 Dy43 2.398 . S
O53 C41 1.355 . S
O53 Dy43 2.491 . S
O54 Dy43 2.403 . S
O54 C49 1.254 . S
O55 Dy40 2.310 . S
O55 Dy43 2.664 . S
O55 C49 1.268 . S
O56 Dy40 2.351 . S
O56 C59 1.249 . S
O57 Dy43 2.326 . S
O57 C59 1.267 . S
C58 O50 1.249 . S
C58 O51 1.267 . S
C59 O56 1.249 . S
C59 O57 1.267 . S
H60 C63 0.931 . S
H61 C66 0.928 . S
H62 C68 0.930 . S
C63 H60 0.931 . S
C63 C64 1.413 . S
C63 C65 1.360 1_565 S
C64 C63 1.413 . S
C64 C68 1.429 1_565 S
C65 C63 1.360 1_545 S
C65 C66 1.372 . S
C66 H61 0.928 . S
C66 C65 1.372 . S
C66 C67 1.404 . S
C67 C66 1.404 . S
C67 C68 1.391 . S
C68 H62 0.930 . S
C68 C64 1.429 1_545 S
C68 C67 1.391 . S
H69 C72 0.931 . S
H70 C75 0.928 . S
H71 C77 0.930 . S
C72 H69 0.931 . S
C72 C73 1.413 . S
C72 C74 1.360 . S
C73 C72 1.413 . S
C73 C77 1.429 . S
C74 C72 1.360 . S
C74 C75 1.372 . S
C75 H70 0.928 . S
C75 C74 1.372 . S
C75 C76 1.404 . S
C76 C75 1.404 . S
C76 C77 1.391 . S
C77 H71 0.930 . S
C77 C73 1.429 . S
C77 C76 1.391 . S
H78 C81 0.931 . S
H79 C84 0.928 . S
H80 C86 0.930 . S
C81 H78 0.931 . S
C81 C82 1.413 . S
C81 C83 1.360 1_655 S
C82 C81 1.413 . S
C82 C86 1.429 1_655 S
C83 C81 1.360 1_455 S
C83 C84 1.372 . S
C84 H79 0.928 . S
C84 C83 1.372 . S
C84 C85 1.404 . S
C85 C84 1.404 . S
C85 C86 1.391 . S
C86 H80 0.930 . S
C86 C82 1.429 1_455 S
C86 C85 1.391 . S
H87 C90 0.931 . S
H88 C93 0.928 . S
H89 C95 0.930 . S
C90 H87 0.931 . S
C90 C91 1.413 . S
C90 C92 1.360 1_655 S
C91 C90 1.413 . S
C91 C95 1.429 1_655 S
C92 C90 1.360 1_455 S
C92 C93 1.372 . S
C93 H88 0.928 . S
C93 C92 1.372 . S
C93 C94 1.404 . S
C94 C93 1.404 . S
C94 C95 1.391 . S
C95 H89 0.930 . S
C95 C91 1.429 1_455 S
C95 C94 1.391 . S
H96 C99 0.931 . S
H97 C102 0.928 . S
H98 C104 0.930 . S
C99 H96 0.931 . S
C99 C100 1.413 . S
C99 C101 1.360 . S
C100 C99 1.413 . S
C100 C104 1.429 . S
C101 C99 1.360 . S
C101 C102 1.372 1_545 S
C102 H97 0.928 . S
C102 C101 1.372 1_565 S
C102 C103 1.404 . S
C103 C102 1.404 . S
C103 C104 1.391 1_565 S
C104 H98 0.930 . S
C104 C100 1.429 . S
C104 C103 1.391 1_545 S
H105 C108 0.931 . S
H106 C111 0.928 . S
H107 C113 0.930 . S
C108 H105 0.931 . S
C108 C109 1.413 . S
C108 C110 1.360 . S
C109 C108 1.413 . S
C109 C113 1.429 . S
C110 C108 1.360 . S
C110 C111 1.372 . S
C111 H106 0.928 . S
C111 C110 1.372 . S
C111 C112 1.404 . S
C112 C111 1.404 . S
C112 C113 1.391 . S
C113 H107 0.930 . S
C113 C109 1.429 . S
C113 C112 1.391 . S
C114 C115 1.369 . S
C114 C116 1.419 . S
C114 H118 0.930 . S
C115 C114 1.369 . S
C115 C124 1.429 . S
C116 C114 1.419 . S
C116 C117 1.363 . S
C116 H119 0.929 . S
C117 C116 1.363 . S
C117 C123 1.428 . S
H118 C114 0.930 . S
H119 C116 0.929 . S
S120 N121 1.613 . S
S120 N122 1.610 . S
N121 S120 1.613 . S
N121 C124 1.350 . S
N122 S120 1.610 . S
N122 C123 1.351 . S
C123 C117 1.428 . S
C123 N122 1.351 . S
C123 C124 1.434 . S
C124 C115 1.429 . S
C124 N121 1.350 . S
C124 C123 1.434 . S
C125 C126 1.369 . S
C125 C127 1.419 . S
C125 H129 0.930 . S
C126 C125 1.369 . S
C126 C135 1.429 . S
C127 C125 1.419 . S
C127 C128 1.363 . S
C127 H130 0.929 . S
C128 C127 1.363 . S
C128 C134 1.428 . S
H129 C125 0.930 . S
H130 C127 0.929 . S
S131 N132 1.613 . S
S131 N133 1.610 . S
N132 S131 1.613 . S
N132 C135 1.350 . S
N133 S131 1.610 . S
N133 C134 1.351 . S
C134 C128 1.428 . S
C134 N133 1.351 . S
C134 C135 1.434 . S
C135 C126 1.429 . S
C135 N132 1.350 . S
C135 C134 1.434 . S
C136 C137 1.369 . S
C136 C138 1.419 . S
C136 H140 0.930 . S
C137 C136 1.369 . S
C137 C146 1.429 . S
C138 C136 1.419 . S
C138 C139 1.363 . S
C138 H141 0.929 . S
C139 C138 1.363 . S
C139 C145 1.428 . S
H140 C136 0.930 . S
H141 C138 0.929 . S
S142 N143 1.613 . S
S142 N144 1.610 . S
N143 S142 1.613 . S
N143 C146 1.350 . S
N144 S142 1.610 . S
N144 C145 1.351 . S
C145 C139 1.428 . S
C145 N144 1.351 . S
C145 C146 1.434 . S
C146 C137 1.429 . S
C146 N143 1.350 . S
C146 C145 1.434 . S
C147 C148 1.369 . S
C147 C149 1.419 . S
C147 H151 0.930 . S
C148 C147 1.369 . S
C148 C157 1.429 . S
C149 C147 1.419 . S
C149 C150 1.363 . S
C149 H152 0.929 . S
C150 C149 1.363 . S
C150 C156 1.428 . S
H151 C147 0.930 . S
H152 C149 0.929 . S
S153 N154 1.613 . S
S153 N155 1.610 . S
N154 S153 1.613 . S
N154 C157 1.350 . S
N155 S153 1.610 . S
N155 C156 1.351 . S
C156 C150 1.428 . S
C156 N155 1.351 . S
C156 C157 1.434 . S
C157 C148 1.429 . S
C157 N154 1.350 . S
C157 C156 1.434 . S
C158 C159 1.369 . S
C158 C160 1.419 . S
C158 H162 0.930 . S
C159 C158 1.369 . S
C159 C168 1.429 . S
C160 C158 1.419 . S
C160 C161 1.363 . S
C160 H163 0.929 . S
C161 C160 1.363 . S
C161 C167 1.428 . S
H162 C158 0.930 . S
H163 C160 0.929 . S
S164 N165 1.613 . S
S164 N166 1.610 . S
N165 S164 1.613 . S
N165 C168 1.350 . S
N166 S164 1.610 . S
N166 C167 1.351 . S
C167 C161 1.428 . S
C167 N166 1.351 . S
C167 C168 1.434 . S
C168 C159 1.429 . S
C168 N165 1.350 . S
C168 C167 1.434 . S
C169 C170 1.369 . S
C169 C171 1.419 . S
C169 H173 0.930 . S
C170 C169 1.369 . S
C170 C179 1.429 . S
C171 C169 1.419 . S
C171 C172 1.363 . S
C171 H174 0.929 . S
C172 C171 1.363 . S
C172 C178 1.428 . S
H173 C169 0.930 . S
H174 C171 0.929 . S
S175 N176 1.613 . S
S175 N177 1.610 . S
N176 S175 1.613 . S
N176 C179 1.350 . S
N177 S175 1.610 . S
N177 C178 1.351 . S
C178 C172 1.428 . S
C178 N177 1.351 . S
C178 C179 1.434 . S
C179 C170 1.429 . S
C179 N176 1.350 . S
C179 C178 1.434 . S
C180 C181 1.369 . S
C180 C182 1.419 . S
C180 H184 0.930 . S
C181 C180 1.369 . S
C181 C190 1.429 . S
C182 C180 1.419 . S
C182 C183 1.363 . S
C182 H185 0.929 . S
C183 C182 1.363 . S
C183 C189 1.428 . S
H184 C180 0.930 . S
H185 C182 0.929 . S
S186 N187 1.613 . S
S186 N188 1.610 . S
N187 S186 1.613 . S
N187 C190 1.350 . S
N188 S186 1.610 . S
N188 C189 1.351 . S
C189 C183 1.428 . S
C189 N188 1.351 . S
C189 C190 1.434 . S
C190 C181 1.429 . S
C190 N187 1.350 . S
C190 C189 1.434 . S
C191 C192 1.369 . S
C191 C193 1.419 . S
C191 H195 0.930 . S
C192 C191 1.369 . S
C192 C201 1.429 . S
C193 C191 1.419 . S
C193 C194 1.363 . S
C193 H196 0.929 . S
C194 C193 1.363 . S
C194 C200 1.428 . S
H195 C191 0.930 . S
H196 C193 0.929 . S
S197 N198 1.613 . S
S197 N199 1.610 . S
N198 S197 1.613 . S
N198 C201 1.350 . S
N199 S197 1.610 . S
N199 C200 1.351 . S
C200 C194 1.428 . S
C200 N199 1.351 . S
C200 C201 1.434 . S
C201 C192 1.429 . S
C201 N198 1.350 . S
C201 C200 1.434 . S
C202 C203 1.369 . S
C202 C204 1.419 . S
C202 H206 0.930 . S
C203 C202 1.369 . S
C203 C212 1.429 . S
C204 C202 1.419 . S
C204 C205 1.363 . S
C204 H207 0.929 . S
C205 C204 1.363 . S
C205 C211 1.428 . S
H206 C202 0.930 . S
H207 C204 0.929 . S
S208 N209 1.613 . S
S208 N210 1.610 . S
N209 S208 1.613 . S
N209 C212 1.350 . S
N210 S208 1.610 . S
N210 C211 1.351 . S
C211 C205 1.428 . S
C211 N210 1.351 . S
C211 C212 1.434 . S
C212 C203 1.429 . S
C212 N209 1.350 . S
C212 C211 1.434 . S
C213 C214 1.369 . S
C213 C215 1.419 . S
C213 H217 0.930 . S
C214 C213 1.369 . S
C214 C223 1.429 . S
C215 C213 1.419 . S
C215 C216 1.363 . S
C215 H218 0.929 . S
C216 C215 1.363 . S
C216 C222 1.428 . S
H217 C213 0.930 . S
H218 C215 0.929 . S
S219 N220 1.613 . S
S219 N221 1.610 . S
N220 S219 1.613 . S
N220 C223 1.350 . S
N221 S219 1.610 . S
N221 C222 1.351 . S
C222 C216 1.428 . S
C222 N221 1.351 . S
C222 C223 1.434 . S
C223 C214 1.429 . S
C223 N220 1.350 . S
C223 C222 1.434 . S
C224 C225 1.369 . S
C224 C226 1.419 . S
C224 H228 0.930 . S
C225 C224 1.369 . S
C225 C234 1.429 . S
C226 C224 1.419 . S
C226 C227 1.363 . S
C226 H229 0.929 . S
C227 C226 1.363 . S
C227 C233 1.428 . S
H228 C224 0.930 . S
H229 C226 0.929 . S
S230 N231 1.613 . S
S230 N232 1.610 . S
N231 S230 1.613 . S
N231 C234 1.350 . S
N232 S230 1.610 . S
N232 C233 1.351 . S
C233 C227 1.428 . S
C233 N232 1.351 . S
C233 C234 1.434 . S
C234 C225 1.429 . S
C234 N231 1.350 . S
C234 C233 1.434 . S
C235 C236 1.369 . S
C235 C237 1.419 . S
C235 H239 0.930 . S
C236 C235 1.369 . S
C236 C245 1.429 . S
C237 C235 1.419 . S
C237 C238 1.363 . S
C237 H240 0.929 . S
C238 C237 1.363 . S
C238 C244 1.428 . S
H239 C235 0.930 . S
H240 C237 0.929 . S
S241 N242 1.613 . S
S241 N243 1.610 . S
N242 S241 1.613 . S
N242 C245 1.350 . S
N243 S241 1.610 . S
N243 C244 1.351 . S
C244 C238 1.428 . S
C244 N243 1.351 . S
C244 C245 1.434 . S
C245 C236 1.429 . S
C245 N242 1.350 . S
C245 C244 1.434 . S
C246 C247 1.369 . S
C246 C248 1.419 1_554 S
C246 H250 0.930 . S
C247 C246 1.369 . S
C247 C256 1.429 . S
C248 C246 1.419 1_556 S
C248 C249 1.363 . S
C248 H251 0.929 . S
C249 C248 1.363 . S
C249 C255 1.428 . S
H250 C246 0.930 . S
H251 C248 0.929 . S
S252 N253 1.613 . S
S252 N254 1.610 1_554 S
N253 S252 1.613 . S
N253 C256 1.350 1_655 S
N254 S252 1.610 1_556 S
N254 C255 1.351 1_655 S
C255 C249 1.428 . S
C255 N254 1.351 1_455 S
C255 C256 1.434 1_556 S
C256 C247 1.429 . S
C256 N253 1.350 1_455 S
C256 C255 1.434 1_554 S
C257 C258 1.369 . S
C257 C259 1.419 . S
C257 H261 0.930 . S
C258 C257 1.369 . S
C258 C267 1.429 1_545 S
C259 C257 1.419 . S
C259 C260 1.363 . S
C259 H262 0.929 . S
C260 C259 1.363 . S
C260 C266 1.428 1_545 S
H261 C257 0.930 . S
H262 C259 0.929 . S
S263 N264 1.613 . S
S263 N265 1.610 . S
N264 S263 1.613 . S
N264 C267 1.350 . S
N265 S263 1.610 . S
N265 C266 1.351 . S
C266 C260 1.428 1_565 S
C266 N265 1.351 . S
C266 C267 1.434 . S
C267 C258 1.429 1_565 S
C267 N264 1.350 . S
C267 C266 1.434 . S
C268 C269 1.369 . S
C268 C270 1.419 . S
C268 H272 0.930 . S
C269 C268 1.369 . S
C269 C278 1.429 . S
C270 C268 1.419 . S
C270 C271 1.363 . S
C270 H273 0.929 . S
C271 C270 1.363 . S
C271 C277 1.428 . S
H272 C268 0.930 . S
H273 C270 0.929 . S
S274 N275 1.613 . S
S274 N276 1.610 . S
N275 S274 1.613 . S
N275 C278 1.350 . S
N276 S274 1.610 . S
N276 C277 1.351 . S
C277 C271 1.428 . S
C277 N276 1.351 . S
C277 C278 1.434 . S
C278 C269 1.429 . S
C278 N275 1.350 . S
C278 C277 1.434 . S
C279 C280 1.369 . S
C279 C281 1.419 . S
C279 H283 0.930 . S
C280 C279 1.369 . S
C280 C289 1.429 . S
C281 C279 1.419 . S
C281 C282 1.363 . S
C281 H284 0.929 . S
C282 C281 1.363 . S
C282 C288 1.428 . S
H283 C279 0.930 . S
H284 C281 0.929 . S
S285 N286 1.613 . S
S285 N287 1.610 . S
N286 S285 1.613 . S
N286 C289 1.350 . S
N287 S285 1.610 . S
N287 C288 1.351 . S
C288 C282 1.428 . S
C288 N287 1.351 . S
C288 C289 1.434 . S
C289 C280 1.429 . S
C289 N286 1.350 . S
C289 C288 1.434 . S
C290 C291 1.369 . S
C290 C292 1.419 1_556 S
C290 H294 0.930 . S
C291 C290 1.369 . S
C291 C300 1.429 . S
C292 C290 1.419 1_554 S
C292 C293 1.363 . S
C292 H295 0.929 . S
C293 C292 1.363 . S
C293 C299 1.428 . S
H294 C290 0.930 . S
H295 C292 0.929 . S
S296 N297 1.613 . S
S296 N298 1.610 1_556 S
N297 S296 1.613 . S
N297 C300 1.350 . S
N298 S296 1.610 1_554 S
N298 C299 1.351 . S
C299 C293 1.428 . S
C299 N298 1.351 . S
C299 C300 1.434 1_554 S
C300 C291 1.429 . S
C300 N297 1.350 . S
C300 C299 1.434 1_556 S
C301 C302 1.369 1_655 S
C301 C303 1.419 . S
C301 H305 0.930 . S
C302 C301 1.369 1_455 S
C302 C311 1.429 . S
C303 C301 1.419 . S
C303 C304 1.363 1_655 S
C303 H306 0.929 . S
C304 C303 1.363 1_455 S
C304 C310 1.428 . S
H305 C301 0.930 . S
H306 C303 0.929 . S
S307 N308 1.613 . S
S307 N309 1.610 . S
N308 S307 1.613 . S
N308 C311 1.350 . S
N309 S307 1.610 . S
N309 C310 1.351 . S
C310 C304 1.428 . S
C310 N309 1.351 . S
C310 C311 1.434 . S
C311 C302 1.429 . S
C311 N308 1.350 . S
C311 C310 1.434 . S
C115 C2 1.086 . S
C117 C109 1.098 . S
C126 C21 1.043 . S
C128 C91 1.083 . S
C137 C42 1.068 . S
C139 C103 1.084 . S
C148 C1 1.042 . S
C150 C112 1.073 . S
C161 C94 1.083 . S
C159 C22 1.072 . S
C172 C100 1.084 . S
C170 C41 1.049 . S
C181 C38 1.852 . S
C183 C73 1.864 . S
C192 C59 1.916 . S
C194 C82 1.894 . S
C203 C18 1.852 . S
C205 C64 1.865 . S
C216 C76 1.875 . S
C214 C39 1.906 . S
C227 C85 1.848 . S
C225 C58 1.844 . S
C236 C19 1.905 . S
C238 C67 1.877 . S
C249 C83 1.585 . S
C247 C9 1.510 . S
C258 C29 1.515 . S
C260 C65 1.584 . S
C269 C49 1.510 . S
C271 C74 1.584 . S
C282 C101 1.385 . S
C280 C28 1.359 . S
C293 C110 1.386 . S
C291 C48 1.364 . S
C302 C8 1.358 . S
C304 C92 1.385 . S
