# Generated by pormake.
# Topology eea, (3,6)-cn, num edge types: 1
# Building blocks:
#     Node 0, Type 0, BuildingBlock: BETDAH_clean_linker_0, # of connection points: 3
#     Node 1, Type 0, BuildingBlock: BETDAH_clean_linker_0, # of connection points: 3
#     Node 2, Type 0, BuildingBlock: BETDAH_clean_linker_0, # of connection points: 3
#     Node 3, Type 0, BuildingBlock: BETDAH_clean_linker_0, # of connection points: 3
#     Node 4, Type 0, BuildingBlock: BETDAH_clean_linker_0, # of connection points: 3
#     Node 5, Type 0, BuildingBlock: BETDAH_clean_linker_0, # of connection points: 3
#     Node 6, Type 0, BuildingBlock: BETDAH_clean_linker_0, # of connection points: 3
#     Node 7, Type 0, BuildingBlock: BETDAH_clean_linker_0, # of connection points: 3
#     Node 8, Type 0, BuildingBlock: BETDAH_clean_linker_0, # of connection points: 3
#     Node 9, Type 0, BuildingBlock: BETDAH_clean_linker_0, # of connection points: 3
#     Node 10, Type 0, BuildingBlock: BETDAH_clean_linker_0, # of connection points: 3
#     Node 11, Type 0, BuildingBlock: BETDAH_clean_linker_0, # of connection points: 3
#     Node 12, Type 0, BuildingBlock: BETDAH_clean_linker_0, # of connection points: 3
#     Node 13, Type 0, BuildingBlock: BETDAH_clean_linker_0, # of connection points: 3
#     Node 14, Type 0, BuildingBlock: BETDAH_clean_linker_0, # of connection points: 3
#     Node 15, Type 0, BuildingBlock: BETDAH_clean_linker_0, # of connection points: 3
#     Node 16, Type 0, BuildingBlock: BETDAH_clean_linker_0, # of connection points: 3
#     Node 17, Type 0, BuildingBlock: BETDAH_clean_linker_0, # of connection points: 3
#     Node 18, Type 1, BuildingBlock: HISSIN_clean_sbu_0, # of connection points: 6
#     Node 19, Type 1, BuildingBlock: HISSIN_clean_sbu_0, # of connection points: 6
#     Node 20, Type 1, BuildingBlock: HISSIN_clean_sbu_0, # of connection points: 6
#     Node 21, Type 1, BuildingBlock: HISSIN_clean_sbu_0, # of connection points: 6
#     Node 22, Type 1, BuildingBlock: HISSIN_clean_sbu_0, # of connection points: 6
#     Node 23, Type 1, BuildingBlock: HISSIN_clean_sbu_0, # of connection points: 6
#     Node 24, Type 1, BuildingBlock: HISSIN_clean_sbu_0, # of connection points: 6
#     Node 25, Type 1, BuildingBlock: HISSIN_clean_sbu_0, # of connection points: 6
#     Node 26, Type 1, BuildingBlock: HISSIN_clean_sbu_0, # of connection points: 6
#     Edge 27, Type (0, 1), BuildingBlock: KIFKEQ_clean_linker_1, # of connection points: 2
#     Edge 28, Type (0, 1), BuildingBlock: KIFKEQ_clean_linker_1, # of connection points: 2
#     Edge 29, Type (0, 1), BuildingBlock: KIFKEQ_clean_linker_1, # of connection points: 2
#     Edge 30, Type (0, 1), BuildingBlock: KIFKEQ_clean_linker_1, # of connection points: 2
#     Edge 31, Type (0, 1), BuildingBlock: KIFKEQ_clean_linker_1, # of connection points: 2
#     Edge 32, Type (0, 1), BuildingBlock: KIFKEQ_clean_linker_1, # of connection points: 2
#     Edge 33, Type (0, 1), BuildingBlock: KIFKEQ_clean_linker_1, # of connection points: 2
#     Edge 34, Type (0, 1), BuildingBlock: KIFKEQ_clean_linker_1, # of connection points: 2
#     Edge 35, Type (0, 1), BuildingBlock: KIFKEQ_clean_linker_1, # of connection points: 2
#     Edge 36, Type (0, 1), BuildingBlock: KIFKEQ_clean_linker_1, # of connection points: 2
#     Edge 37, Type (0, 1), BuildingBlock: KIFKEQ_clean_linker_1, # of connection points: 2
#     Edge 38, Type (0, 1), BuildingBlock: KIFKEQ_clean_linker_1, # of connection points: 2
#     Edge 39, Type (0, 1), BuildingBlock: KIFKEQ_clean_linker_1, # of connection points: 2
#     Edge 40, Type (0, 1), BuildingBlock: KIFKEQ_clean_linker_1, # of connection points: 2
#     Edge 41, Type (0, 1), BuildingBlock: KIFKEQ_clean_linker_1, # of connection points: 2
#     Edge 42, Type (0, 1), BuildingBlock: KIFKEQ_clean_linker_1, # of connection points: 2
#     Edge 43, Type (0, 1), BuildingBlock: KIFKEQ_clean_linker_1, # of connection points: 2
#     Edge 44, Type (0, 1), BuildingBlock: KIFKEQ_clean_linker_1, # of connection points: 2
#     Edge 45, Type (0, 1), BuildingBlock: KIFKEQ_clean_linker_1, # of connection points: 2
#     Edge 46, Type (0, 1), BuildingBlock: KIFKEQ_clean_linker_1, # of connection points: 2
#     Edge 47, Type (0, 1), BuildingBlock: KIFKEQ_clean_linker_1, # of connection points: 2
#     Edge 48, Type (0, 1), BuildingBlock: KIFKEQ_clean_linker_1, # of connection points: 2
#     Edge 49, Type (0, 1), BuildingBlock: KIFKEQ_clean_linker_1, # of connection points: 2
#     Edge 50, Type (0, 1), BuildingBlock: KIFKEQ_clean_linker_1, # of connection points: 2
#     Edge 51, Type (0, 1), BuildingBlock: KIFKEQ_clean_linker_1, # of connection points: 2
#     Edge 52, Type (0, 1), BuildingBlock: KIFKEQ_clean_linker_1, # of connection points: 2
#     Edge 53, Type (0, 1), BuildingBlock: KIFKEQ_clean_linker_1, # of connection points: 2
#     Edge 54, Type (0, 1), BuildingBlock: KIFKEQ_clean_linker_1, # of connection points: 2
#     Edge 55, Type (0, 1), BuildingBlock: KIFKEQ_clean_linker_1, # of connection points: 2
#     Edge 56, Type (0, 1), BuildingBlock: KIFKEQ_clean_linker_1, # of connection points: 2
#     Edge 57, Type (0, 1), BuildingBlock: KIFKEQ_clean_linker_1, # of connection points: 2
#     Edge 58, Type (0, 1), BuildingBlock: KIFKEQ_clean_linker_1, # of connection points: 2
#     Edge 59, Type (0, 1), BuildingBlock: KIFKEQ_clean_linker_1, # of connection points: 2
#     Edge 60, Type (0, 1), BuildingBlock: KIFKEQ_clean_linker_1, # of connection points: 2
#     Edge 61, Type (0, 1), BuildingBlock: KIFKEQ_clean_linker_1, # of connection points: 2
#     Edge 62, Type (0, 1), BuildingBlock: KIFKEQ_clean_linker_1, # of connection points: 2
#     Edge 63, Type (0, 1), BuildingBlock: KIFKEQ_clean_linker_1, # of connection points: 2
#     Edge 64, Type (0, 1), BuildingBlock: KIFKEQ_clean_linker_1, # of connection points: 2
#     Edge 65, Type (0, 1), BuildingBlock: KIFKEQ_clean_linker_1, # of connection points: 2
#     Edge 66, Type (0, 1), BuildingBlock: KIFKEQ_clean_linker_1, # of connection points: 2
#     Edge 67, Type (0, 1), BuildingBlock: KIFKEQ_clean_linker_1, # of connection points: 2
#     Edge 68, Type (0, 1), BuildingBlock: KIFKEQ_clean_linker_1, # of connection points: 2
#     Edge 69, Type (0, 1), BuildingBlock: KIFKEQ_clean_linker_1, # of connection points: 2
#     Edge 70, Type (0, 1), BuildingBlock: KIFKEQ_clean_linker_1, # of connection points: 2
#     Edge 71, Type (0, 1), BuildingBlock: KIFKEQ_clean_linker_1, # of connection points: 2
#     Edge 72, Type (0, 1), BuildingBlock: KIFKEQ_clean_linker_1, # of connection points: 2
#     Edge 73, Type (0, 1), BuildingBlock: KIFKEQ_clean_linker_1, # of connection points: 2
#     Edge 74, Type (0, 1), BuildingBlock: KIFKEQ_clean_linker_1, # of connection points: 2
#     Edge 75, Type (0, 1), BuildingBlock: KIFKEQ_clean_linker_1, # of connection points: 2
#     Edge 76, Type (0, 1), BuildingBlock: KIFKEQ_clean_linker_1, # of connection points: 2
#     Edge 77, Type (0, 1), BuildingBlock: KIFKEQ_clean_linker_1, # of connection points: 2
#     Edge 78, Type (0, 1), BuildingBlock: KIFKEQ_clean_linker_1, # of connection points: 2
#     Edge 79, Type (0, 1), BuildingBlock: KIFKEQ_clean_linker_1, # of connection points: 2
#     Edge 80, Type (0, 1), BuildingBlock: KIFKEQ_clean_linker_1, # of connection points: 2
# Relax obj value: 0.057
# Max RMSD: 0.204
# Mean RMSD: 0.144
data_MOF--net-eea--node1-HISSIN_clean_sbu_0--node2-BETDAH_clean_linker_0--edge1-KIFKEQ_clean_linker_1
_symmetry_space_group_name_H-M    P1
_symmetry_Int_Tables_number       1
_symmetry_cell_setting            triclinic
loop_
_symmetry_equiv_pos_as_xyz
'x, y, z'
_cell_length_a     55.660486
_cell_length_b     56.00957
_cell_length_c     70.641945
_cell_angle_alpha  93.23554
_cell_angle_beta   93.414514
_cell_angle_gamma 119.91989
loop_
_atom_site_label
_atom_site_type_symbol
_atom_site_fract_x
_atom_site_fract_y
_atom_site_fract_z
_atom_type_partial_charge
H0 H 0.25111 0.08466 0.42789 0.0
H1 H 0.27531 0.16977 0.42177 0.0
H2 H 0.25437 0.1126 0.37218 0.0
C3 C 0.25441 0.10098 0.41899 0.0
C4 C 0.25099 0.09528 0.39909 0.0
C5 C 0.26376 0.12795 0.42739 0.0
C6 C 0.26831 0.14894 0.41554 0.0
C7 C 0.26482 0.14327 0.39562 0.0
C8 C 0.25677 0.1167 0.38756 0.0
N9 N 0.27039 0.16408 0.38325 0.0
C10 C 0.26438 0.18508 0.3867 0.0
H11 H 0.95243 0.18524 0.43626 0.0
H12 H 0.87061 0.11328 0.42351 0.0
H13 H 0.92438 0.14386 0.37926 0.0
C14 C 0.93668 0.1689 0.42609 0.0
C15 C 0.94235 0.16664 0.40705 0.0
C16 C 0.91074 0.14987 0.4322 0.0
C17 C 0.89076 0.12785 0.41917 0.0
C18 C 0.89599 0.12577 0.40015 0.0
C19 C 0.92131 0.14538 0.39419 0.0
N20 N 0.87562 0.10527 0.38626 0.0
C21 C 0.85651 0.07841 0.38972 0.0
H22 H 0.84423 0.76732 0.44591 0.0
H23 H 0.91264 0.75491 0.43376 0.0
H24 H 0.87392 0.77915 0.39054 0.0
C25 C 0.85889 0.7678 0.43629 0.0
C26 C 0.85722 0.775 0.41772 0.0
C27 C 0.87881 0.76053 0.44236 0.0
C28 C 0.89753 0.76091 0.4295 0.0
C29 C 0.89582 0.76793 0.41083 0.0
C30 C 0.87563 0.77469 0.40514 0.0
N31 N 0.91155 0.7653 0.3966 0.0
C32 C 0.9397 0.7734 0.39876 0.0
H33 H 0.07004 0.24931 0.58043 0.0
H34 H 0.14795 0.25164 0.59441 0.0
H35 H 0.09034 0.23416 0.6364 0.0
C36 C 0.08407 0.24678 0.59031 0.0
C37 C 0.07675 0.24045 0.60883 0.0
C38 C 0.11 0.25144 0.58491 0.0
C39 C 0.12806 0.24841 0.59823 0.0
C40 C 0.12087 0.24226 0.61681 0.0
C41 C 0.09557 0.23878 0.622 0.0
N42 N 0.13925 0.24135 0.63117 0.0
C43 C 0.1576 0.23173 0.62837 0.0
H44 H 0.74871 0.82181 0.59592 0.0
H45 H 0.73733 0.89178 0.60721 0.0
H46 H 0.76453 0.86114 0.653 0.0
C47 C 0.74977 0.83795 0.60575 0.0
C48 C 0.75817 0.83946 0.62518 0.0
C49 C 0.74195 0.85657 0.59904 0.0
C50 C 0.74285 0.877 0.61211 0.0
C51 C 0.7506 0.87823 0.63159 0.0
C52 C 0.75793 0.85939 0.63799 0.0
N53 N 0.75115 0.89812 0.64518 0.0
C54 C 0.75708 0.92429 0.64101 0.0
H55 H 0.16586 0.92148 0.58124 0.0
H56 H 0.11032 0.83527 0.58694 0.0
H57 H 0.13867 0.89495 0.63596 0.0
C58 C 0.15316 0.9052 0.5899 0.0
C59 C 0.15396 0.91166 0.60952 0.0
C60 C 0.13734 0.87777 0.58153 0.0
C61 C 0.12193 0.85667 0.59303 0.0
C62 C 0.12175 0.86293 0.6125 0.0
C63 C 0.13766 0.89044 0.62071 0.0
N64 N 0.10919 0.84108 0.62421 0.0
C65 C 0.08376 0.83319 0.63122 0.0
H66 H 0.924 0.42045 0.76458 0.0
H67 H 0.94886 0.50488 0.75569 0.0
H68 H 0.92301 0.44395 0.70775 0.0
C69 C 0.92682 0.43599 0.75509 0.0
C70 C 0.92168 0.42867 0.73531 0.0
C71 C 0.93701 0.46352 0.76263 0.0
C72 C 0.94112 0.48362 0.75011 0.0
C73 C 0.93605 0.47642 0.73031 0.0
C74 C 0.92686 0.4492 0.72306 0.0
N75 N 0.941 0.49626 0.71725 0.0
C76 C 0.93479 0.51722 0.72009 0.0
H77 H 0.61741 0.52191 0.76763 0.0
H78 H 0.5504 0.43689 0.76317 0.0
H79 H 0.61035 0.46339 0.72237 0.0
C80 C 0.6066 0.50111 0.76046 0.0
C81 C 0.61702 0.4952 0.74425 0.0
C82 C 0.5825 0.48021 0.76755 0.0
C83 C 0.56858 0.45335 0.7578 0.0
C84 C 0.57877 0.44743 0.74152 0.0
C85 C 0.60288 0.46827 0.73502 0.0
N86 N 0.56591 0.4207 0.73142 0.0
C87 C 0.53948 0.39893 0.73347 0.0
H88 H 0.50655 0.1004 0.77562 0.0
H89 H 0.57034 0.07963 0.76701 0.0
H90 H 0.53964 0.10783 0.72146 0.0
C91 C 0.52089 0.09873 0.76665 0.0
C92 C 0.52118 0.10564 0.74781 0.0
C93 C 0.53846 0.08927 0.77392 0.0
C94 C 0.55748 0.08797 0.76211 0.0
C95 C 0.55826 0.0952 0.7433 0.0
C96 C 0.54003 0.10385 0.73628 0.0
N97 N 0.57265 0.08826 0.73015 0.0
C98 C 0.60135 0.10302 0.72929 0.0
H99 H 0.73665 0.57877 0.91272 0.0
H100 H 0.81384 0.57907 0.92467 0.0
H101 H 0.75273 0.55068 0.96479 0.0
C102 C 0.75022 0.57482 0.92201 0.0
C103 C 0.74117 0.56349 0.93924 0.0
C104 C 0.77642 0.58052 0.91652 0.0
C105 C 0.79348 0.57439 0.9285 0.0
C106 C 0.78478 0.56366 0.94595 0.0
C107 C 0.7589 0.55848 0.95114 0.0
N108 N 0.80178 0.55917 0.95938 0.0
C109 C 0.82375 0.55504 0.95567 0.0
H110 H 0.41282 0.15505 0.93014 0.0
H111 H 0.39833 0.22339 0.93988 0.0
H112 H 0.4235 0.19307 0.98695 0.0
C113 C 0.41236 0.17061 0.93969 0.0
C114 C 0.41989 0.17241 0.95929 0.0
C115 C 0.40426 0.18875 0.93244 0.0
C116 C 0.40407 0.20894 0.94514 0.0
C117 C 0.41081 0.21025 0.96478 0.0
C118 C 0.41837 0.19187 0.97175 0.0
N119 N 0.40975 0.22964 0.97789 0.0
C120 C 0.4196 0.25692 0.97438 0.0
H121 H 0.83293 0.25758 0.91615 0.0
H122 H 0.78063 0.16971 0.91784 0.0
H123 H 0.7966 0.225 0.96757 0.0
C124 C 0.81956 0.24013 0.92369 0.0
C125 C 0.81635 0.2447 0.94293 0.0
C126 C 0.8067 0.21319 0.91436 0.0
C127 C 0.78995 0.19072 0.92448 0.0
C128 C 0.78578 0.19499 0.94344 0.0
C129 C 0.79903 0.22194 0.95268 0.0
N130 N 0.77106 0.17175 0.95368 0.0
C131 C 0.74602 0.16519 0.96087 0.0
H132 H 0.58869 0.75312 0.09606 0.0
H133 H 0.61142 0.83755 0.08896 0.0
H134 H 0.58634 0.77825 0.03996 0.0
C135 C 0.59127 0.769 0.08694 0.0
C136 C 0.58581 0.76234 0.06712 0.0
C137 C 0.60056 0.79608 0.09501 0.0
C138 C 0.60406 0.81654 0.08295 0.0
C139 C 0.59878 0.80996 0.06307 0.0
C140 C 0.58991 0.78302 0.05531 0.0
N141 N 0.6035 0.8302 0.05038 0.0
C142 C 0.59781 0.8514 0.05387 0.0
H143 H 0.28161 0.8546 0.10118 0.0
H144 H 0.21041 0.77174 0.09224 0.0
H145 H 0.26953 0.80128 0.05092 0.0
C146 C 0.26954 0.83481 0.0927 0.0
C147 C 0.27897 0.83032 0.07552 0.0
C148 C 0.24466 0.81383 0.09896 0.0
C149 C 0.22926 0.78825 0.08758 0.0
C150 C 0.23833 0.78389 0.07025 0.0
C151 C 0.26296 0.80488 0.06441 0.0
N152 N 0.2234 0.75886 0.05806 0.0
C153 C 0.19991 0.73487 0.06206 0.0
H154 H 0.17934 0.43431 0.11158 0.0
H155 H 0.24549 0.41829 0.09981 0.0
H156 H 0.20473 0.43776 0.055 0.0
C157 C 0.19301 0.43311 0.10176 0.0
C158 C 0.19005 0.43788 0.08264 0.0
C159 C 0.21273 0.42577 0.10818 0.0
C160 C 0.23049 0.42428 0.09526 0.0
C161 C 0.22781 0.42917 0.07613 0.0
C162 C 0.20742 0.43544 0.06998 0.0
N163 N 0.24241 0.42416 0.06209 0.0
C164 C 0.27107 0.43469 0.06324 0.0
H165 H 0.40638 0.91902 0.24756 0.0
H166 H 0.4733 0.90099 0.25301 0.0
H167 H 0.41066 0.87161 0.29204 0.0
C168 C 0.41688 0.90976 0.25488 0.0
C169 C 0.40584 0.89558 0.27084 0.0
C170 C 0.44125 0.91188 0.24824 0.0
C171 C 0.45457 0.89952 0.25789 0.0
C172 C 0.44345 0.88513 0.2738 0.0
C173 C 0.41924 0.88321 0.27999 0.0
N174 N 0.45515 0.87145 0.28381 0.0
C175 C 0.48153 0.87488 0.28277 0.0
H176 H 0.08245 0.49253 0.26227 0.0
H177 H 0.06641 0.55944 0.27437 0.0
H178 H 0.09004 0.52579 0.32007 0.0
C179 C 0.08137 0.50724 0.27231 0.0
C180 C 0.08803 0.50752 0.29185 0.0
C181 C 0.0733 0.52576 0.26573 0.0
C182 C 0.07222 0.54477 0.27908 0.0
C183 C 0.07808 0.54454 0.29865 0.0
C184 C 0.08565 0.52581 0.30491 0.0
N185 N 0.07595 0.56252 0.31244 0.0
C186 C 0.08539 0.59014 0.31016 0.0
H187 H 0.50526 0.5917 0.25196 0.0
H188 H 0.44157 0.50613 0.24969 0.0
H189 H 0.46155 0.55986 0.30119 0.0
C190 C 0.4891 0.57478 0.2586 0.0
C191 C 0.48527 0.57902 0.27773 0.0
C192 C 0.47333 0.54868 0.24826 0.0
C193 C 0.45347 0.52663 0.2573 0.0
C194 C 0.44858 0.53063 0.27612 0.0
C195 C 0.46429 0.55701 0.28634 0.0
N196 N 0.43024 0.50694 0.28494 0.0
C197 C 0.41021 0.50533 0.29647 0.0
Eu198 Eu 0.50004 0.9993 0.99399 0.0
Eu199 Eu 0.51562 0.02788 0.03905 0.0
C200 C 0.48979 0.04936 0.00701 0.0
C201 C 0.49664 0.99275 0.93949 0.0
C202 C 0.4991 0.01868 0.93749 0.0
C203 C 0.50612 0.99028 0.90643 0.0
C204 C 0.50484 0.03021 0.92005 0.0
C205 C 0.50023 0.97871 0.92383 0.0
C206 C 0.50849 0.01619 0.90427 0.0
C207 C 0.49142 0.98055 0.9579 0.0
O208 O 0.46954 0.99807 0.03482 0.0
O209 O 0.46658 0.96756 0.01042 0.0
C210 C 0.45625 0.9736 0.02506 0.0
O211 O 0.5273 0.9857 0.00909 0.0
O212 O 0.50562 0.04438 0.06433 0.0
O213 O 0.54282 0.04113 0.06567 0.0
O214 O 0.51487 0.98738 0.03913 0.0
C215 C 0.52573 0.97854 0.02653 0.0
O216 O 0.53658 0.04242 0.99415 0.0
O217 O 0.55565 0.04851 0.02493 0.0
O218 O 0.50766 0.05684 0.02228 0.0
O219 O 0.51348 0.98612 0.96902 0.0
O220 O 0.47263 0.98196 0.96735 0.0
O221 O 0.48023 0.02555 0.99675 0.0
C222 C 0.51833 0.03208 0.09317 0.0
C223 C 0.51547 0.0059 0.09479 0.0
C224 C 0.50562 0.03246 0.12552 0.0
C225 C 0.50798 0.99323 0.11169 0.0
C226 C 0.51331 0.04521 0.10866 0.0
C227 C 0.50289 0.00631 0.12727 0.0
C228 C 0.52593 0.04559 0.07534 0.0
C229 C 0.55797 0.05478 0.00721 0.0
H230 H 0.49677 0.03008 0.94946 0.0
H231 H 0.50845 0.97872 0.89458 0.0
H232 H 0.50683 0.05033 0.919 0.0
H233 H 0.49856 0.95875 0.92508 0.0
H234 H 0.5189 0.99517 0.08296 0.0
H235 H 0.5021 0.04323 0.13728 0.0
H236 H 0.50571 0.97295 0.11244 0.0
H237 H 0.51531 0.06535 0.10771 0.0
Eu238 Eu 0.01591 0.49395 0.99374 0.0
Eu239 Eu 0.98849 0.485 0.03485 0.0
C240 C 0.96076 0.43714 0.99981 0.0
C241 C 0.02474 0.49902 0.94068 0.0
C242 C 0.99688 0.47976 0.93415 0.0
C243 C 0.03228 0.51495 0.90915 0.0
C244 C 0.98688 0.47789 0.91516 0.0
C245 C 0.04229 0.51667 0.9281 0.0
C246 C 0.00449 0.49541 0.90238 0.0
C247 C 0.0357 0.50125 0.96059 0.0
O248 O 0.02857 0.48468 0.04075 0.0
O249 O 0.03399 0.4723 0.01046 0.0
C250 C 0.04009 0.47526 0.02904 0.0
O251 O 0.0484 0.52827 0.01474 0.0
O252 O 0.97305 0.46021 0.05872 0.0
O253 O 0.97203 0.49832 0.0579 0.0
O254 O 0.0194 0.53071 0.03544 0.0
C255 C 0.04358 0.54171 0.02841 0.0
O256 O 0.98925 0.51387 0.9932 0.0
O257 O 0.9583 0.48841 0.01399 0.0
O258 O 0.96757 0.44282 0.0183 0.0
O259 O 0.03713 0.52119 0.97196 0.0
O260 O 0.02644 0.47818 0.96856 0.0
O261 O 0.97343 0.4558 0.98797 0.0
C262 C 0.98038 0.48581 0.08822 0.0
C263 C 1.00127 0.51289 0.09506 0.0
C264 C 0.98243 0.47118 0.11972 0.0
C265 C 0.01256 0.51905 0.11413 0.0
C266 C 0.97097 0.4651 0.10074 0.0
C267 C 1.00342 0.49818 0.1266 0.0
C268 C 0.96883 0.47833 0.06804 0.0
C269 C 0.96509 0.50455 1.0001 0.0
H270 H 0.98289 0.46605 0.94368 0.0
H271 H 0.04631 0.52911 0.89984 0.0
H272 H 0.96549 0.46238 0.91043 0.0
H273 H 0.06377 0.53186 0.93294 0.0
H274 H 0.00911 0.52922 0.08565 0.0
H275 H 0.97476 0.45476 0.12905 0.0
H276 H 0.02886 0.53999 0.11902 0.0
H277 H 0.9549 0.44409 0.09576 0.0
Eu278 Eu 0.52057 0.51078 0.02406 0.0
Eu279 Eu 0.49858 0.51665 0.98067 0.0
C280 C 0.52458 0.56753 0.01338 0.0
C281 C 0.53123 0.51206 0.07809 0.0
C282 C 0.52528 0.53325 0.08231 0.0
C283 C 0.52537 0.50051 0.11074 0.0
C284 C 0.51952 0.53811 0.10069 0.0
C285 C 0.53129 0.4958 0.09242 0.0
C286 C 0.51936 0.52169 0.11514 0.0
C287 C 0.53583 0.50557 0.05864 0.0
O288 O 0.54494 0.53421 0.98153 0.0
O289 O 0.55167 0.51076 0.0049 0.0
C290 C 0.55987 0.525 0.99007 0.0
O291 O 0.49253 0.46808 0.00968 0.0
O292 O 0.50349 0.54137 0.95679 0.0
O293 O 0.47061 0.49848 0.95438 0.0
O294 O 0.49985 0.47697 0.97876 0.0
C295 C 0.49227 0.45975 0.99195 0.0
O296 O 0.4819 0.51325 0.02767 0.0
O297 O 0.46043 0.49792 0.9971 0.0
O298 O 0.50542 0.55441 0.99888 0.0
O299 O 0.51385 0.48624 0.04818 0.0
O300 O 0.55109 0.52643 0.04915 0.0
O301 O 0.537 0.55599 0.02214 0.0
C302 C 0.49353 0.51577 0.9269 0.0
C303 C 0.50551 0.49898 0.92489 0.0
C304 C 0.50071 0.52591 0.89399 0.0
C305 C 0.51489 0.49556 0.90754 0.0
C306 C 0.49121 0.52919 0.91134 0.0
C307 C 0.51275 0.50907 0.89184 0.0
C308 C 0.48461 0.52033 0.94538 0.0
C309 C 0.45943 0.50246 0.01549 0.0
H310 H 0.52487 0.54588 0.07136 0.0
H311 H 0.52493 0.48711 0.12135 0.0
H312 H 0.51531 0.55479 0.10358 0.0
H313 H 0.53548 0.47913 0.08934 0.0
H314 H 0.50773 0.48858 0.93678 0.0
H315 H 0.49909 0.53701 0.88238 0.0
H316 H 0.52364 0.48213 0.90642 0.0
H317 H 0.48232 0.5425 0.91267 0.0
Eu318 Eu 0.16744 0.33281 0.32668 0.0
Eu319 Eu 0.17912 0.35984 0.37181 0.0
C320 C 0.1555 0.38211 0.33898 0.0
C321 C 0.16647 0.32685 0.27237 0.0
C322 C 0.17016 0.35331 0.27063 0.0
C323 C 0.17614 0.32443 0.23937 0.0
C324 C 0.17666 0.36518 0.25334 0.0
C325 C 0.1695 0.31254 0.25661 0.0
C326 C 0.17987 0.35094 0.23749 0.0
C327 C 0.16069 0.31442 0.29066 0.0
O328 O 0.13314 0.33015 0.36536 0.0
O329 O 0.134 0.29995 0.34252 0.0
C330 C 0.12152 0.30557 0.35589 0.0
O331 O 0.19519 0.32048 0.34251 0.0
O332 O 0.166 0.37385 0.39665 0.0
O333 O 0.20465 0.3733 0.39915 0.0
O334 O 0.18022 0.32019 0.37191 0.0
C335 C 0.19263 0.31259 0.35976 0.0
O336 O 0.20387 0.37614 0.32764 0.0
O337 O 0.22026 0.38319 0.35925 0.0
O338 O 0.17206 0.38915 0.35489 0.0
O339 O 0.18247 0.32045 0.30225 0.0
O340 O 0.14119 0.31522 0.29959 0.0
O341 O 0.14712 0.35878 0.32837 0.0
C342 C 0.17856 0.36221 0.42582 0.0
C343 C 0.17463 0.33554 0.42684 0.0
C344 C 0.16752 0.36264 0.45859 0.0
C345 C 0.16748 0.32263 0.44368 0.0
C346 C 0.17481 0.37557 0.44178 0.0
C347 C 0.1639 0.33603 0.45984 0.0
C348 C 0.18638 0.3762 0.40822 0.0
C349 C 0.22394 0.38941 0.34156 0.0
H350 H 0.16824 0.36488 0.28269 0.0
H351 H 0.17809 0.31271 0.22743 0.0
H352 H 0.17969 0.38574 0.2525 0.0
H353 H 0.16687 0.29216 0.25767 0.0
H354 H 0.17727 0.32474 0.41465 0.0
H355 H 0.16444 0.37343 0.47056 0.0
H356 H 0.16519 0.30231 0.44411 0.0
H357 H 0.17749 0.39605 0.44124 0.0
Eu358 Eu 0.68295 0.82924 0.32601 0.0
Eu359 Eu 0.65673 0.82255 0.36768 0.0
C360 C 0.62919 0.77214 0.33439 0.0
C361 C 0.69046 0.83085 0.2726 0.0
C362 C 0.66251 0.81087 0.26695 0.0
C363 C 0.69594 0.84417 0.24032 0.0
C364 C 0.65138 0.80749 0.24804 0.0
C365 C 0.70708 0.84739 0.25917 0.0
C366 C 0.66794 0.82426 0.23455 0.0
C367 C 0.70215 0.83599 0.2926 0.0
O368 O 0.68631 0.80598 0.37009 0.0
O369 O 0.7142 0.82689 0.34643 0.0
C370 C 0.70931 0.8137 0.36183 0.0
O371 O 0.70182 0.87193 0.34145 0.0
O372 O 0.63734 0.79745 0.39086 0.0
O373 O 0.64507 0.83948 0.39164 0.0
O374 O 0.69859 0.86161 0.3724 0.0
C375 C 0.70971 0.87927 0.35973 0.0
O376 O 0.64216 0.82784 0.32005 0.0
O377 O 0.63881 0.8435 0.3499 0.0
O378 O 0.62446 0.78547 0.34822 0.0
O379 O 0.70034 0.85497 0.30286 0.0
O380 O 0.69625 0.81441 0.30174 0.0
O381 O 0.65273 0.78367 0.32651 0.0
C382 C 0.64909 0.82281 0.42111 0.0
C383 C 0.67442 0.84672 0.42788 0.0
C384 C 0.64515 0.80734 0.45282 0.0
C385 C 0.68488 0.85102 0.44704 0.0
C386 C 0.63462 0.80316 0.43371 0.0
C387 C 0.67036 0.8314 0.45977 0.0
C388 C 0.6376 0.81779 0.40099 0.0
C389 C 0.63182 0.839 0.33138 0.0
H390 H 0.64923 0.79817 0.2772 0.0
H391 H 0.70929 0.85717 0.23022 0.0
H392 H 0.62967 0.79216 0.24407 0.0
H393 H 0.72864 0.86304 0.26332 0.0
H394 H 0.68612 0.86214 0.41841 0.0
H395 H 0.63365 0.79152 0.46208 0.0
H396 H 0.70416 0.86993 0.4519 0.0
H397 H 0.61516 0.78447 0.42873 0.0
Eu398 Eu 0.18836 0.84798 0.35693 0.0
Eu399 Eu 0.16344 0.84938 0.3136 0.0
C400 C 0.19223 0.90257 0.34328 0.0
C401 C 0.19655 0.84954 0.41089 0.0
C402 C 0.18377 0.86533 0.41443 0.0
C403 C 0.191 0.83661 0.44328 0.0
C404 C 0.17506 0.86707 0.43235 0.0
C405 C 0.19996 0.83509 0.42539 0.0
C406 C 0.17863 0.85277 0.44699 0.0
C407 C 0.20585 0.84755 0.39208 0.0
O408 O 0.20975 0.86681 0.3132 0.0
O409 O 0.21865 0.84637 0.3378 0.0
C410 C 0.22564 0.859 0.32221 0.0
O411 O 0.15914 0.80409 0.34475 0.0
O412 O 0.16648 0.87276 0.28922 0.0
O413 O 0.13491 0.8294 0.28771 0.0
O414 O 0.16497 0.80995 0.31333 0.0
C415 C 0.15778 0.79401 0.32728 0.0
O416 O 0.14902 0.84907 0.36085 0.0
O417 O 0.12613 0.83122 0.33082 0.0
O418 O 0.16982 0.88719 0.33143 0.0
O419 O 0.18933 0.8252 0.38085 0.0
O420 O 0.2157 0.86966 0.38302 0.0
O421 O 0.20689 0.89222 0.35044 0.0
C422 C 0.15663 0.84628 0.25968 0.0
C423 C 0.16702 0.82816 0.25723 0.0
C424 C 0.16533 0.85782 0.22715 0.0
C425 C 0.17634 0.82477 0.23984 0.0
C426 C 0.15586 0.86106 0.24452 0.0
C427 C 0.17575 0.83964 0.22455 0.0
C428 C 0.1479 0.85096 0.27823 0.0
C429 C 0.12595 0.8369 0.34918 0.0
H430 H 0.18055 0.87634 0.40334 0.0
H431 H 0.19421 0.82553 0.45432 0.0
H432 H 0.16529 0.8794 0.43473 0.0
H433 H 0.20962 0.82268 0.42289 0.0
H434 H 0.16807 0.8167 0.2688 0.0
H435 H 0.16497 0.87 0.21589 0.0
H436 H 0.18381 0.81031 0.23837 0.0
H437 H 0.14825 0.87541 0.24618 0.0
Eu438 Eu 0.83507 0.66355 0.65961 0.0
Eu439 Eu 0.84974 0.69164 0.7048 0.0
C440 C 0.82593 0.71449 0.67245 0.0
C441 C 0.83215 0.65707 0.60516 0.0
C442 C 0.83555 0.68338 0.60324 0.0
C443 C 0.84189 0.65444 0.5722 0.0
C444 C 0.84194 0.69507 0.58588 0.0
C445 C 0.83539 0.64275 0.58952 0.0
C446 C 0.84527 0.68079 0.57008 0.0
C447 C 0.82638 0.64476 0.62352 0.0
O448 O 0.80357 0.66274 0.69958 0.0
O449 O 0.80146 0.6318 0.67595 0.0
C450 C 0.79058 0.63807 0.69013 0.0
O451 O 0.86213 0.64984 0.67477 0.0
O452 O 0.83871 0.70725 0.73 0.0
O453 O 0.87623 0.70457 0.73172 0.0
O454 O 0.84931 0.65122 0.70474 0.0
C455 C 0.86042 0.64258 0.69219 0.0
O456 O 0.87256 0.7061 0.65994 0.0
O457 O 0.8902 0.71306 0.69127 0.0
O458 O 0.84314 0.7214 0.68802 0.0
O459 O 0.84813 0.6497 0.63473 0.0
O460 O 0.80782 0.64676 0.63287 0.0
O461 O 0.81625 0.69074 0.66207 0.0
C462 C 0.8511 0.69495 0.75905 0.0
C463 C 0.85273 0.67117 0.76205 0.0
C464 C 0.83405 0.69323 0.79019 0.0
C465 C 0.84534 0.6587 0.77904 0.0
C466 C 0.84163 0.70578 0.77325 0.0
C467 C 0.83591 0.66957 0.7934 0.0
C468 C 0.85889 0.70852 0.74121 0.0
C469 C 0.89332 0.71882 0.67346 0.0
H470 H 0.83336 0.69493 0.61517 0.0
H471 H 0.84475 0.64296 0.56056 0.0
H472 H 0.84401 0.7152 0.58481 0.0
H473 H 0.83317 0.62256 0.59075 0.0
H474 H 0.85981 0.66221 0.75129 0.0
H475 H 0.8264 0.70195 0.80067 0.0
H476 H 0.8474 0.64075 0.781 0.0
H477 H 0.83997 0.72396 0.77121 0.0
Eu478 Eu 0.34802 0.16604 0.65863 0.0
Eu479 Eu 0.32181 0.15429 0.70036 0.0
C480 C 0.29479 0.10694 0.66501 0.0
C481 C 0.3549 0.17 0.60534 0.0
C482 C 0.32754 0.14836 0.59994 0.0
C483 C 0.35868 0.18252 0.57286 0.0
C484 C 0.31586 0.14376 0.58106 0.0
C485 C 0.37038 0.18698 0.59169 0.0
C486 C 0.33125 0.16093 0.56733 0.0
C487 C 0.36707 0.17604 0.62527 0.0
O488 O 0.35187 0.13832 0.70073 0.0
O489 O 0.37975 0.16245 0.6779 0.0
C490 C 0.37506 0.14763 0.69249 0.0
O491 O 0.36628 0.20734 0.67613 0.0
O492 O 0.30405 0.12743 0.72303 0.0
O493 O 0.30882 0.16839 0.72499 0.0
O494 O 0.3635 0.19324 0.70609 0.0
C495 C 0.37414 0.21266 0.69451 0.0
O496 O 0.30677 0.16416 0.65377 0.0
O497 O 0.30289 0.17593 0.68458 0.0
O498 O 0.2901 0.11824 0.68008 0.0
O499 O 0.36267 0.19307 0.63581 0.0
O500 O 0.36402 0.15504 0.63416 0.0
O501 O 0.31781 0.1201 0.65667 0.0
C502 C 0.31457 0.15127 0.75376 0.0
C503 C 0.33953 0.17554 0.76059 0.0
C504 C 0.31105 0.13556 0.78535 0.0
C505 C 0.34996 0.17995 0.77975 0.0
C506 C 0.30053 0.13128 0.76623 0.0
C507 C 0.33577 0.16006 0.79241 0.0
C508 C 0.30284 0.14647 0.73375 0.0
C509 C 0.29578 0.17322 0.66616 0.0
H510 H 0.31514 0.13523 0.61036 0.0
H511 H 0.37118 0.19588 0.56258 0.0
H512 H 0.2946 0.12714 0.57728 0.0
H513 H 0.39147 0.20386 0.59564 0.0
H514 H 0.35088 0.19122 0.75119 0.0
H515 H 0.29985 0.11955 0.79456 0.0
H516 H 0.36886 0.19917 0.7847 0.0
H517 H 0.28137 0.11232 0.76118 0.0
Eu518 Eu 0.85123 0.17563 0.68959 0.0
Eu519 Eu 0.8292 0.18335 0.64689 0.0
C520 C 0.85292 0.23179 0.6817 0.0
C521 C 0.8598 0.17342 0.74304 0.0
C522 C 0.84587 0.18807 0.74648 0.0
C523 C 0.86038 0.16573 0.7765 0.0
C524 C 0.83943 0.19174 0.76487 0.0
C525 C 0.8669 0.16218 0.75812 0.0
C526 C 0.84668 0.18067 0.78014 0.0
C527 C 0.86678 0.16961 0.72378 0.0
O528 O 0.86878 0.18252 0.64362 0.0
O529 O 0.88971 0.19809 0.67413 0.0
C530 C 0.89116 0.19395 0.65584 0.0
O531 O 0.84603 0.14022 0.6698 0.0
O532 O 0.83721 0.2091 0.6233 0.0
O533 O 0.80083 0.16812 0.62063 0.0
O534 O 0.81208 0.13766 0.64846 0.0
C535 C 0.82534 0.12633 0.65641 0.0
O536 O 0.80477 0.15779 0.68923 0.0
O537 O 0.79551 0.17919 0.66526 0.0
O538 O 0.85231 0.22579 0.66336 0.0
O539 O 0.84679 0.14938 0.71239 0.0
O540 O 0.88036 0.19209 0.71531 0.0
O541 O 0.84693 0.21316 0.69376 0.0
C542 C 0.82509 0.18375 0.59309 0.0
C543 C 0.82308 0.1582 0.58766 0.0
C544 C 0.84634 0.2009 0.56396 0.0
C545 C 0.83254 0.15406 0.57051 0.0
C546 C 0.83663 0.20495 0.58099 0.0
C547 C 0.84454 0.17545 0.55854 0.0
C548 C 0.81709 0.18935 0.61175 0.0
C549 C 0.7885 0.16539 0.68044 0.0
H550 H 0.84013 0.19682 0.73496 0.0
H551 H 0.86586 0.15654 0.78783 0.0
H552 H 0.82919 0.20363 0.76716 0.0
H553 H 0.87746 0.15062 0.75566 0.0
H554 H 0.81464 0.14156 0.5968 0.0
H555 H 0.85519 0.2177 0.55497 0.0
H556 H 0.83109 0.13431 0.56685 0.0
H557 H 0.83854 0.22485 0.58489 0.0
H558 H 0.3197 0.82345 0.0609 0.0
H559 H 0.29778 0.88578 0.07466 0.0
H560 H 0.36153 0.85772 0.04796 0.0
H561 H 0.33952 0.92015 0.06147 0.0
H562 H 0.4313 0.97973 0.05555 0.0
H563 H 0.38903 0.94559 0.06762 0.0
H564 H 0.37731 0.88545 0.02158 0.0
H565 H 0.42048 0.91974 0.00964 0.0
C566 C 0.32378 0.8445 0.06107 0.0
C567 C 0.30537 0.85188 0.06879 0.0
C568 C 0.3477 0.86413 0.05354 0.0
C569 C 0.35389 0.89172 0.05349 0.0
C570 C 0.33563 0.89918 0.06144 0.0
C571 C 0.31171 0.87952 0.06905 0.0
C572 C 0.41976 0.95929 0.04785 0.0
C573 C 0.42943 0.95256 0.03155 0.0
C574 C 0.39529 0.93969 0.05477 0.0
C575 C 0.37961 0.91271 0.04561 0.0
C576 C 0.38904 0.90595 0.02916 0.0
C577 C 0.4137 0.92565 0.02222 0.0
H578 H 0.1936 0.47365 0.05646 0.0
H579 H 0.13645 0.41601 0.09252 0.0
H580 H 0.1571 0.48193 0.04355 0.0
H581 H 0.1002 0.42491 0.07989 0.0
H582 H 0.05292 0.47163 0.06642 0.0
H583 H 0.08899 0.4629 0.07969 0.0
H584 H 0.11179 0.45601 0.02313 0.0
H585 H 0.07577 0.46481 0.00981 0.0
C586 C 0.17326 0.46266 0.06162 0.0
C587 C 0.16807 0.44407 0.07553 0.0
C588 C 0.15233 0.46745 0.0542 0.0
C589 C 0.12569 0.45399 0.06062 0.0
C590 C 0.12058 0.43581 0.07478 0.0
C591 C 0.14145 0.43082 0.08208 0.0
C592 C 0.06555 0.46818 0.05678 0.0
C593 C 0.06141 0.46896 0.03702 0.0
C594 C 0.08616 0.46305 0.0644 0.0
C595 C 0.10333 0.45884 0.05248 0.0
C596 C 0.09912 0.45948 0.03273 0.0
C597 C 0.07832 0.46434 0.02508 0.0
H598 H 0.60974 0.73125 0.07416 0.0
H599 H 0.54129 0.72979 0.04101 0.0
H600 H 0.59487 0.6846 0.06031 0.0
H601 H 0.52546 0.6825 0.02765 0.0
H602 H 0.51993 0.60671 0.99438 0.0
H603 H 0.535 0.65428 0.00676 0.0
H604 H 0.55991 0.63879 0.06177 0.0
H605 H 0.54617 0.59215 0.04918 0.0
C606 C 0.59129 0.72072 0.06405 0.0
C607 C 0.57655 0.73395 0.05872 0.0
C608 C 0.58264 0.69394 0.05615 0.0
C609 C 0.55874 0.67957 0.04296 0.0
C610 C 0.54412 0.693 0.03755 0.0
C611 C 0.55306 0.72 0.04527 0.0
C612 C 0.52864 0.6136 0.0091 0.0
C613 C 0.53219 0.59587 0.02073 0.0
C614 C 0.53716 0.64079 0.01625 0.0
C615 C 0.549 0.65056 0.03524 0.0
C616 C 0.55169 0.63237 0.04694 0.0
C617 C 0.54362 0.60549 0.03974 0.0
H618 H 0.82441 0.29359 0.931 0.0
H619 H 0.84743 0.2597 0.97743 0.0
H620 H 0.85741 0.34035 0.94547 0.0
H621 H 0.8808 0.30636 0.99177 0.0
H622 H 0.92571 0.39481 0.0198 0.0
H623 H 0.88806 0.34892 0.00717 0.0
H624 H 0.90686 0.36994 0.94987 0.0
H625 H 0.94391 0.41601 0.96245 0.0
C626 C 0.83641 0.29617 0.94438 0.0
C627 C 0.83339 0.27297 0.95304 0.0
C628 C 0.85545 0.32296 0.95263 0.0
C629 C 0.87209 0.32721 0.96968 0.0
C630 C 0.86819 0.30395 0.97874 0.0
C631 C 0.849 0.27716 0.97054 0.0
C632 C 0.92179 0.38967 0.0045 0.0
C633 C 0.93792 0.40913 0.99216 0.0
C634 C 0.90023 0.36328 0.99725 0.0
C635 C 0.89432 0.35565 0.97748 0.0
C636 C 0.91043 0.37519 0.96516 0.0
C637 C 0.93188 0.4016 0.97239 0.0
H638 H 0.71644 0.59533 0.93752 0.0
H639 H 0.70342 0.51729 0.95465 0.0
H640 H 0.67276 0.5862 0.94971 0.0
H641 H 0.65973 0.50798 0.96662 0.0
H642 H 0.59957 0.51401 0.00516 0.0
H643 H 0.64284 0.52332 0.99235 0.0
H644 H 0.62295 0.55737 0.94451 0.0
H645 H 0.58015 0.54871 0.95752 0.0
C646 C 0.70405 0.57605 0.94364 0.0
C647 C 0.71352 0.55714 0.94522 0.0
C648 C 0.679 0.57079 0.95065 0.0
C649 C 0.66275 0.54643 0.95934 0.0
C650 C 0.67194 0.52723 0.96044 0.0
C651 C 0.69697 0.53253 0.9535 0.0
C652 C 0.60445 0.52352 0.99193 0.0
C653 C 0.58635 0.53067 0.98244 0.0
C654 C 0.62921 0.52872 0.9845 0.0
C655 C 0.63646 0.54109 0.96734 0.0
C656 C 0.61833 0.54821 0.95788 0.0
C657 C 0.59364 0.5431 0.96533 0.0
H658 H 0.39627 0.11645 0.95175 0.0
H659 H 0.46594 0.18787 0.98383 0.0
H660 H 0.41285 0.08692 0.96418 0.0
H661 H 0.4831 0.1586 0.99588 0.0
H662 H 0.49206 0.09376 0.02747 0.0
H663 H 0.47441 0.12335 0.01657 0.0
H664 H 0.44933 0.0773 0.96086 0.0
H665 H 0.46593 0.04742 0.97188 0.0
C666 C 0.41526 0.12581 0.96135 0.0
C667 C 0.42984 0.15439 0.96682 0.0
C668 C 0.42484 0.10896 0.96845 0.0
C669 C 0.44942 0.12039 0.98099 0.0
C670 C 0.46389 0.14902 0.98651 0.0
C671 C 0.45414 0.16581 0.97955 0.0
C672 C 0.48276 0.09004 0.01291 0.0
C673 C 0.48017 0.06813 1.00061 0.0
C674 C 0.47274 0.10703 0.00663 0.0
C675 C 0.46021 0.10257 0.98786 0.0
C676 C 0.45818 0.08094 0.97553 0.0
C677 C 0.46789 0.06387 0.98184 0.0
H678 H 0.69755 0.12865 0.94098 0.0
H679 H 0.7335 0.17555 0.99576 0.0
H680 H 0.6518 0.10479 0.95279 0.0
H681 H 0.68746 0.15228 0.00769 0.0
H682 H 0.60935 0.07739 0.02749 0.0
H683 H 0.6547 0.10731 0.01646 0.0
H684 H 0.61406 0.10908 0.96293 0.0
H685 H 0.56888 0.07856 0.97371 0.0
C686 C 0.6954 0.1342 0.95547 0.0
C687 C 0.71874 0.1539 0.96748 0.0
C688 C 0.6692 0.12065 0.96226 0.0
C689 C 0.66581 0.12657 0.98123 0.0
C690 C 0.68931 0.14695 0.99309 0.0
C691 C 0.71559 0.16046 0.98626 0.0
C692 C 0.61009 0.0844 0.01345 0.0
C693 C 0.58546 0.07532 1.00143 0.0
C694 C 0.63614 0.10171 0.00714 0.0
C695 C 0.63814 0.11047 0.98871 0.0
C696 C 0.6134 0.1023 0.97704 0.0
C697 C 0.58743 0.08488 0.98328 0.0
H698 H 0.81619 0.50381 0.95359 0.0
H699 H 0.8794 0.59016 0.96172 0.0
H700 H 0.85119 0.49104 0.96246 0.0
H701 H 0.91462 0.5776 0.97075 0.0
H702 H 0.9735 0.54181 0.97401 0.0
H703 H 0.94 0.55368 0.96013 0.0
H704 H 0.87747 0.49606 0.99331 0.0
H705 H 0.91075 0.48407 0.0071 0.0
C706 C 0.83779 0.51999 0.95679 0.0
C707 C 0.84534 0.54788 0.95679 0.0
C708 C 0.85775 0.51275 0.96209 0.0
C709 C 0.88564 0.53331 0.96754 0.0
C710 C 0.89337 0.56126 0.96652 0.0
C711 C 0.8733 0.56848 0.9613 0.0
C712 C 0.95259 0.53163 0.97834 0.0
C713 C 0.94487 0.512 0.99173 0.0
C714 C 0.93343 0.53852 0.9704 0.0
C715 C 0.90602 0.52571 0.97552 0.0
C716 C 0.89829 0.506 0.98883 0.0
C717 C 0.91748 0.4993 0.99687 0.0
H718 H 0.39802 0.28387 0.95553 0.0
H719 H 0.4695 0.29538 0.99101 0.0
H720 H 0.41802 0.33438 0.95734 0.0
H721 H 0.48958 0.34558 0.99279 0.0
H722 H 0.48791 0.42279 0.01663 0.0
H723 H 0.47218 0.37406 0.0096 0.0
H724 H 0.46058 0.38074 0.94955 0.0
H725 H 0.47656 0.43018 0.95659 0.0
C726 C 0.41823 0.29733 0.96339 0.0
C727 C 0.43233 0.2862 0.97325 0.0
C728 C 0.42971 0.32608 0.96435 0.0
C729 C 0.45522 0.34378 0.97532 0.0
C730 C 0.46976 0.33237 0.9844 0.0
C731 C 0.45837 0.30377 0.98336 0.0
C732 C 0.48212 0.41402 1.00189 0.0
C733 C 0.48342 0.43033 0.98716 0.0
C734 C 0.4733 0.38611 0.99787 0.0
C735 C 0.46537 0.37372 0.97903 0.0
C736 C 0.46659 0.38988 0.9642 0.0
C737 C 0.47581 0.4181 0.96822 0.0
H738 H 0.14547 0.71915 0.0556 0.0
H739 H 0.20182 0.68923 0.06871 0.0
H740 H 0.10643 0.67132 0.0501 0.0
H741 H 0.16299 0.64146 0.0634 0.0
H742 H 0.09823 0.56734 0.02164 0.0
H743 H 0.13515 0.61385 0.03334 0.0
H744 H 0.07726 0.62653 0.0644 0.0
H745 H 0.03999 0.57972 0.05259 0.0
C746 C 0.14925 0.70227 0.05783 0.0
C747 C 0.17636 0.70755 0.06264 0.0
C748 C 0.127 0.67496 0.0547 0.0
C749 C 0.13171 0.65263 0.05613 0.0
C750 C 0.15878 0.65821 0.06194 0.0
C751 C 0.18092 0.68547 0.06515 0.0
C752 C 0.09329 0.57993 0.03101 0.0
C753 C 0.06609 0.56981 0.0361 0.0
C754 C 0.11456 0.60654 0.03786 0.0
C755 C 0.10916 0.62381 0.04989 0.0
C756 C 0.08201 0.61371 0.0551 0.0
C757 C 0.06071 0.58689 0.04837 0.0
H758 H 0.2885 0.40594 0.04241 0.0
H759 H 0.31702 0.48503 0.074 0.0
H760 H 0.33454 0.42308 0.03127 0.0
H761 H 0.36336 0.50251 0.06281 0.0
H762 H 0.44981 0.51318 0.05179 0.0
H763 H 0.40505 0.49691 0.06463 0.0
H764 H 0.36239 0.45644 0.00919 0.0
H765 H 0.40709 0.47251 0.99633 0.0
C766 C 0.30488 0.4269 0.04721 0.0
C767 C 0.29948 0.44411 0.0592 0.0
C768 C 0.33114 0.43684 0.04066 0.0
C769 C 0.35262 0.46428 0.04597 0.0
C770 C 0.34736 0.48124 0.05853 0.0
C771 C 0.32092 0.47127 0.06499 0.0
C772 C 0.4309 0.50094 0.04228 0.0
C773 C 0.43215 0.49412 0.02299 0.0
C774 C 0.40521 0.49169 0.04966 0.0
C775 C 0.38008 0.47517 0.03801 0.0
C776 C 0.38133 0.46875 0.01866 0.0
C777 C 0.407 0.47818 0.01123 0.0
H778 H 0.62673 0.90141 0.04128 0.0
H779 H 0.55129 0.84789 0.06602 0.0
H780 H 0.61044 0.93415 0.03645 0.0
H781 H 0.5346 0.88038 0.06103 0.0
H782 H 0.52338 0.95654 0.06055 0.0
H783 H 0.54292 0.92783 0.0698 0.0
H784 H 0.573 0.93154 0.01445 0.0
H785 H 0.55383 0.96032 0.00526 0.0
C786 C 0.60689 0.89704 0.04602 0.0
C787 C 0.59022 0.87247 0.05409 0.0
C788 C 0.59744 0.91556 0.04311 0.0
C789 C 0.5711 0.90968 0.04817 0.0
C790 C 0.55505 0.88557 0.05711 0.0
C791 C 0.56453 0.86701 0.05997 0.0
C792 C 0.5342 0.95125 0.05037 0.0
C793 C 0.53704 0.96073 0.03215 0.0
C794 C 0.54532 0.93476 0.05566 0.0
C795 C 0.55968 0.92761 0.04291 0.0
C796 C 0.56248 0.9371 0.02472 0.0
C797 C 0.55126 0.95341 0.0194 0.0
H798 H 0.97677 0.22242 0.41835 0.0
H799 H 0.97052 0.15603 0.38018 0.0
H800 H 0.02003 0.25461 0.40609 0.0
H801 H 0.01212 0.1886 0.36664 0.0
H802 H 0.10184 0.24993 0.35633 0.0
H803 H 0.05984 0.21619 0.3696 0.0
H804 H 0.03765 0.2792 0.3805 0.0
H805 H 0.08034 0.31291 0.36839 0.0
C806 C 0.98452 0.21459 0.40736 0.0
C807 C 0.96971 0.18649 0.40021 0.0
C808 C 0.00921 0.23326 0.4 0.0
C809 C 0.01964 0.22454 0.38503 0.0
C810 C 0.00512 0.19631 0.3782 0.0
C811 C 0.98078 0.17758 0.3858 0.0
C812 C 0.08775 0.25635 0.3614 0.0
C813 C 0.09436 0.28402 0.36135 0.0
C814 C 0.06358 0.23702 0.36903 0.0
C815 C 0.0452 0.24482 0.37644 0.0
C816 C 0.0515 0.27238 0.37558 0.0
C817 C 0.07587 0.29173 0.36836 0.0
H818 H 0.8015 0.74735 0.42252 0.0
H819 H 0.86406 0.81774 0.39749 0.0
H820 H 0.76565 0.75649 0.40933 0.0
H821 H 0.82851 0.82738 0.38468 0.0
H822 H 0.75566 0.81915 0.34652 0.0
H823 H 0.79084 0.80997 0.36059 0.0
H824 H 0.74717 0.78668 0.41099 0.0
H825 H 0.71146 0.79501 0.39662 0.0
C826 C 0.80765 0.76505 0.41446 0.0
C827 C 0.83561 0.78174 0.41098 0.0
C828 C 0.7871 0.77034 0.40689 0.0
C829 C 0.79404 0.79258 0.39576 0.0
C830 C 0.82218 0.80968 0.39277 0.0
C831 C 0.84264 0.80426 0.4002 0.0
C832 C 0.7535 0.81204 0.3606 0.0
C833 C 0.73065 0.80781 0.3704 0.0
C834 C 0.77385 0.80694 0.36876 0.0
C835 C 0.77207 0.79771 0.38703 0.0
C836 C 0.74913 0.79341 0.39681 0.0
C837 C 0.72866 0.79832 0.38858 0.0
H838 H 0.27574 0.08098 0.37213 0.0
H839 H 0.20618 0.0464 0.40606 0.0
H840 H 0.26095 0.03461 0.3572 0.0
H841 H 0.19122 0.99994 0.39099 0.0
H842 H 0.15972 0.9265 0.34348 0.0
H843 H 0.17353 0.97362 0.35649 0.0
H844 H 0.25762 0.99078 0.37018 0.0
H845 H 0.24389 0.94383 0.35749 0.0
C846 C 0.25721 0.06343 0.3763 0.0
C847 C 0.24209 0.06717 0.39024 0.0
C848 C 0.24883 0.03697 0.36782 0.0
C849 C 0.22491 0.01381 0.37291 0.0
C850 C 0.20959 0.01754 0.38671 0.0
C851 C 0.21826 0.04399 0.39543 0.0
C852 C 0.1812 0.94046 0.34909 0.0
C853 C 0.20073 0.93154 0.34949 0.0
C854 C 0.18901 0.96728 0.35664 0.0
C855 C 0.2166 0.98571 0.36435 0.0
C856 C 0.23626 0.97701 0.36423 0.0
C857 C 0.22836 0.95013 0.35702 0.0
H858 H 0.47448 0.61527 0.29822 0.0
H859 H 0.54133 0.60301 0.28202 0.0
H860 H 0.50874 0.66198 0.31289 0.0
H861 H 0.57541 0.64885 0.29705 0.0
H862 H 0.62757 0.74181 0.30223 0.0
H863 H 0.59207 0.69504 0.29011 0.0
H864 H 0.54563 0.69013 0.33807 0.0
H865 H 0.581 0.7376 0.34997 0.0
C866 C 0.4965 0.62243 0.29813 0.0
C867 C 0.50533 0.60578 0.2888 0.0
C868 C 0.51613 0.64912 0.30652 0.0
C869 C 0.54491 0.65945 0.30585 0.0
C870 C 0.5535 0.64201 0.29736 0.0
C871 C 0.53399 0.61564 0.28887 0.0
C872 C 0.60986 0.73081 0.31027 0.0
C873 C 0.60729 0.74347 0.32716 0.0
C874 C 0.5895 0.70383 0.30335 0.0
C875 C 0.56605 0.68855 0.31322 0.0
C876 C 0.56328 0.7013 0.33003 0.0
C877 C 0.58364 0.72848 0.3369 0.0
H878 H 0.3567 0.88237 0.25022 0.0
H879 H 0.39669 0.90263 0.30774 0.0
H880 H 0.31325 0.87396 0.26247 0.0
H881 H 0.35354 0.89456 0.31998 0.0
H882 H 0.26462 0.84654 0.33643 0.0
H883 H 0.30807 0.85645 0.3237 0.0
H884 H 0.29064 0.89562 0.27813 0.0
H885 H 0.24693 0.88515 0.29056 0.0
C886 C 0.35633 0.88546 0.26545 0.0
C887 C 0.38008 0.89297 0.27801 0.0
C888 C 0.33142 0.88061 0.2725 0.0
C889 C 0.32975 0.88328 0.29226 0.0
C890 C 0.35382 0.89165 0.30473 0.0
C891 C 0.37862 0.8964 0.2977 0.0
C892 C 0.27002 0.85725 0.32369 0.0
C893 C 0.25223 0.86507 0.31458 0.0
C894 C 0.29506 0.86311 0.31644 0.0
C895 C 0.30298 0.87696 0.2999 0.0
C896 C 0.28511 0.88467 0.29076 0.0
C897 C 0.26007 0.8788 0.29799 0.0
H898 H 0.06517 0.45196 0.28232 0.0
H899 H 0.13312 0.52166 0.31698 0.0
H900 H 0.08111 0.42165 0.29426 0.0
H901 H 0.14966 0.49168 0.32853 0.0
H902 H 0.15621 0.42554 0.35954 0.0
H903 H 0.13928 0.4555 0.34841 0.0
H904 H 0.11746 0.41155 0.2921 0.0
H905 H 0.13337 0.38117 0.30336 0.0
C906 C 0.08368 0.46079 0.29235 0.0
C907 C 0.09788 0.48909 0.29875 0.0
C908 C 0.0929 0.44349 0.29917 0.0
C909 C 0.11672 0.4542 0.31238 0.0
C910 C 0.13096 0.4826 0.31867 0.0
C911 C 0.12158 0.49981 0.31199 0.0
C912 C 0.14778 0.42233 0.3448 0.0
C913 C 0.14598 0.40089 0.33239 0.0
C914 C 0.13818 0.43956 0.33838 0.0
C915 C 0.12687 0.4359 0.31935 0.0
C916 C 0.12545 0.41464 0.30693 0.0
C917 C 0.13475 0.39728 0.31339 0.0
H918 H 0.36619 0.51193 0.28759 0.0
H919 H 0.39901 0.47726 0.32741 0.0
H920 H 0.32108 0.48832 0.30065 0.0
H921 H 0.35393 0.45303 0.34024 0.0
H922 H 0.27201 0.42063 0.36565 0.0
H923 H 0.31809 0.45425 0.35721 0.0
H924 H 0.28463 0.44077 0.29832 0.0
H925 H 0.23874 0.40785 0.30675 0.0
C926 C 0.36385 0.4998 0.29949 0.0
C927 C 0.38591 0.49652 0.30669 0.0
C928 C 0.33799 0.48601 0.30683 0.0
C929 C 0.3337 0.46847 0.32138 0.0
C930 C 0.35647 0.46655 0.32922 0.0
C931 C 0.3823 0.4804 0.32189 0.0
C932 C 0.27443 0.42509 0.35094 0.0
C933 C 0.25162 0.41136 0.33689 0.0
C934 C 0.3009 0.44429 0.34609 0.0
C935 C 0.30517 0.45027 0.32707 0.0
C936 C 0.28214 0.4371 0.31316 0.0
C937 C 0.25576 0.41796 0.31799 0.0
H938 H 0.49199 0.83607 0.268 0.0
H939 H 0.52746 0.9114 0.30562 0.0
H940 H 0.53062 0.82936 0.27873 0.0
H941 H 0.56655 0.90522 0.31623 0.0
H942 H 0.60517 0.86205 0.34986 0.0
H943 H 0.57164 0.8737 0.33601 0.0
H944 H 0.58005 0.84568 0.27987 0.0
H945 H 0.61318 0.83352 0.29372 0.0
C946 C 0.50863 0.85164 0.27812 0.0
C947 C 0.50713 0.87438 0.28586 0.0
C948 C 0.53073 0.84782 0.28432 0.0
C949 C 0.55161 0.86662 0.2985 0.0
C950 C 0.55062 0.89012 0.30552 0.0
C951 C 0.5285 0.8939 0.29929 0.0
C952 C 0.59995 0.85842 0.33456 0.0
C953 C 0.6118 0.84668 0.32296 0.0
C954 C 0.58087 0.86534 0.32658 0.0
C955 C 0.57316 0.86071 0.30679 0.0
C956 C 0.58527 0.84926 0.29517 0.0
C957 C 0.60436 0.84236 0.30314 0.0
H958 H 0.12981 0.6283 0.33271 0.0
H959 H 0.06768 0.61773 0.28834 0.0
H960 H 0.14882 0.67836 0.33548 0.0
H961 H 0.08647 0.66807 0.29117 0.0
H962 H 0.14602 0.7635 0.29266 0.0
H963 H 0.1295 0.71391 0.28692 0.0
H964 H 0.13042 0.70776 0.34759 0.0
H965 H 0.14699 0.75689 0.35337 0.0
C966 C 0.12043 0.63689 0.32346 0.0
C967 C 0.09738 0.61957 0.3104 0.0
C968 C 0.13117 0.66542 0.32509 0.0
C969 C 0.11895 0.67706 0.31366 0.0
C970 C 0.09637 0.65965 0.30007 0.0
C971 C 0.08556 0.63097 0.2985 0.0
C972 C 0.14275 0.75153 0.30475 0.0
C973 C 0.14788 0.76415 0.32347 0.0
C974 C 0.13317 0.72317 0.30145 0.0
C975 C 0.12886 0.70706 0.31681 0.0
C976 C 0.13397 0.71973 0.33548 0.0
C977 C 0.14331 0.74789 0.33877 0.0
H978 H 0.86226 0.03818 0.37259 0.0
H979 H 0.80711 0.05316 0.40507 0.0
H980 H 0.82723 0.98896 0.36715 0.0
H981 H 0.77171 0.00363 0.39965 0.0
H982 H 0.725 0.90637 0.39589 0.0
H983 H 0.76172 0.95438 0.40564 0.0
H984 H 0.78088 0.96517 0.34733 0.0
H985 H 0.74448 0.91768 0.33758 0.0
C986 C 0.84275 0.03071 0.37885 0.0
C987 C 0.83719 0.04913 0.38924 0.0
C988 C 0.82267 0.00265 0.37565 0.0
C989 C 0.79664 0.99252 0.38282 0.0
C990 C 0.79164 0.01086 0.39405 0.0
C991 C 0.81177 0.03909 0.39713 0.0
C992 C 0.73711 0.91902 0.38519 0.0
C993 C 0.73181 0.90819 0.36596 0.0
C994 C 0.75802 0.94649 0.39076 0.0
C995 C 0.77427 0.96342 0.37727 0.0
C996 C 0.76896 0.95251 0.3581 0.0
C997 C 0.74794 0.92531 0.3525 0.0
H998 H 0.95634 0.74226 0.37984 0.0
H999 H 0.98623 0.82338 0.40864 0.0
H1000 H 1.00208 0.75785 0.36852 0.0
H1001 H 0.03218 0.83929 0.39728 0.0
H1002 H 0.11785 0.84955 0.38548 0.0
H1003 H 0.0738 0.83373 0.39924 0.0
H1004 H 0.02893 0.78928 0.34512 0.0
H1005 H 0.07294 0.80492 0.33134 0.0
C1006 C 0.97299 0.76329 0.38408 0.0
C1007 C 0.96804 0.78155 0.3953 0.0
C1008 C 0.99906 0.77235 0.37741 0.0
C1009 C 0.02077 0.79993 0.3818 0.0
C1010 C 0.01602 0.81789 0.39372 0.0
C1011 C 0.9898 0.80881 0.4003 0.0
C1012 C 0.09861 0.8365 0.37645 0.0
C1013 C 0.09903 0.82852 0.35725 0.0
C1014 C 0.07333 0.82749 0.38437 0.0
C1015 C 0.04779 0.81006 0.37336 0.0
C1016 C 0.04821 0.80233 0.35411 0.0
C1017 C 0.07348 0.81151 0.34615 0.0
H1018 H 0.21672 0.1804 0.3975 0.0
H1019 H 0.29421 0.23615 0.37585 0.0
H1020 H 0.20025 0.21311 0.39282 0.0
H1021 H 0.27813 0.26913 0.37136 0.0
H1022 H 0.22326 0.29669 0.33937 0.0
H1023 H 0.24226 0.26781 0.34859 0.0
H1024 H 0.2076 0.25992 0.40254 0.0
H1025 H 0.18821 0.28876 0.39324 0.0
C1026 C 0.23042 0.20002 0.39219 0.0
C1027 C 0.25665 0.20605 0.38707 0.0
C1028 C 0.22107 0.21873 0.38953 0.0
C1029 C 0.2378 0.24358 0.38155 0.0
C1030 C 0.26462 0.24998 0.37727 0.0
C1031 C 0.27393 0.23131 0.37998 0.0
C1032 C 0.21967 0.28888 0.35322 0.0
C1033 C 0.20416 0.29503 0.36555 0.0
C1034 C 0.23079 0.2725 0.35858 0.0
C1035 C 0.22663 0.26176 0.37636 0.0
C1036 C 0.21107 0.26782 0.38871 0.0
C1037 C 0.20003 0.28439 0.3834 0.0
H1038 H 0.6313 0.54863 0.7388 0.0
H1039 H 0.66035 0.49042 0.73225 0.0
H1040 H 0.67172 0.58276 0.72431 0.0
H1041 H 0.70083 0.5245 0.71798 0.0
H1042 H 0.75756 0.58272 0.67714 0.0
H1043 H 0.71494 0.54842 0.68967 0.0
H1044 H 0.72108 0.61183 0.73076 0.0
H1045 H 0.76278 0.6459 0.71807 0.0
C1046 C 0.64649 0.54325 0.73449 0.0
C1047 C 0.64256 0.5168 0.73665 0.0
C1048 C 0.66965 0.56277 0.72612 0.0
C1049 C 0.68952 0.55636 0.71982 0.0
C1050 C 0.6857 0.52999 0.72225 0.0
C1051 C 0.66255 0.5105 0.73055 0.0
C1052 C 0.74961 0.58934 0.6887 0.0
C1053 C 0.7637 0.6171 0.69656 0.0
C1054 C 0.7253 0.56965 0.696 0.0
C1055 C 0.71455 0.57731 0.7113 0.0
C1056 C 0.72842 0.60517 0.71883 0.0
C1057 C 0.75257 0.62475 0.71158 0.0
H1058 H 0.46535 0.07888 0.75129 0.0
H1059 H 0.52945 0.14745 0.72575 0.0
H1060 H 0.43058 0.08886 0.7376 0.0
H1061 H 0.49477 0.15818 0.71245 0.0
H1062 H 0.42119 0.15367 0.67621 0.0
H1063 H 0.45646 0.14368 0.68927 0.0
H1064 H 0.41404 0.11979 0.74016 0.0
H1065 H 0.37839 0.12867 0.72678 0.0
C1066 C 0.47208 0.0964 0.74297 0.0
C1067 C 0.50022 0.11249 0.73973 0.0
C1068 C 0.45211 0.10221 0.73512 0.0
C1069 C 0.45971 0.12449 0.72394 0.0
C1070 C 0.48794 0.14061 0.72071 0.0
C1071 C 0.50791 0.13458 0.72842 0.0
C1072 C 0.41938 0.1462 0.69016 0.0
C1073 C 0.39679 0.14178 0.70035 0.0
C1074 C 0.43975 0.14065 0.69774 0.0
C1075 C 0.43822 0.13078 0.71581 0.0
C1076 C 0.41574 0.12673 0.72605 0.0
C1077 C 0.39527 0.13199 0.71839 0.0
H1078 H 0.93933 0.41053 0.70535 0.0
H1079 H 0.88016 0.38136 0.74733 0.0
H1080 H 0.92169 0.36293 0.69211 0.0
H1081 H 0.86223 0.33373 0.73397 0.0
H1082 H 0.85981 0.25203 0.71892 0.0
H1083 H 0.87604 0.29936 0.73161 0.0
H1084 H 0.88132 0.32389 0.67439 0.0
H1085 H 0.8657 0.27647 0.66163 0.0
C1086 C 0.92237 0.39393 0.71164 0.0
C1087 C 0.91114 0.39967 0.72739 0.0
C1088 C 0.9122 0.36666 0.70402 0.0
C1089 C 0.89049 0.3445 0.71194 0.0
C1090 C 0.87924 0.35028 0.72769 0.0
C1091 C 0.8895 0.37755 0.73535 0.0
C1092 C 0.8643 0.26743 0.70899 0.0
C1093 C 0.86149 0.26042 0.68922 0.0
C1094 C 0.87348 0.2946 0.71629 0.0
C1095 C 0.88 0.31545 0.70404 0.0
C1096 C 0.87685 0.30839 0.68425 0.0
C1097 C 0.86772 0.28118 0.67692 0.0
H1098 H 0.14428 0.94496 0.6341 0.0
H1099 H 0.209 0.94217 0.60508 0.0
H1100 H 0.17752 0.99251 0.64749 0.0
H1101 H 0.24238 0.98893 0.61886 0.0
H1102 H 0.28958 0.08176 0.62956 0.0
H1103 H 0.25474 0.0351 0.61644 0.0
H1104 H 0.21717 0.02069 0.66956 0.0
H1105 H 0.25145 0.0679 0.68239 0.0
C1106 C 0.16568 0.95448 0.63074 0.0
C1107 C 0.174 0.94008 0.61837 0.0
C1108 C 0.18478 0.98166 0.63845 0.0
C1109 C 0.21268 0.9948 0.63413 0.0
C1110 C 0.22098 0.97992 0.62212 0.0
C1111 C 0.20187 0.95301 0.61427 0.0
C1112 C 0.27389 0.06864 0.63845 0.0
C1113 C 0.2734 0.07852 0.65706 0.0
C1114 C 0.25394 0.04176 0.63096 0.0
C1115 C 0.23318 0.02387 0.64196 0.0
C1116 C 0.23257 0.03389 0.66055 0.0
C1117 C 0.25235 0.06095 0.66796 0.0
H1118 H 0.0247 0.20685 0.59031 0.0
H1119 H 0.06763 0.26332 0.64079 0.0
H1120 H 0.97999 0.19598 0.60147 0.0
H1121 H 0.02317 0.25342 0.65171 0.0
H1122 H 0.94012 0.20706 0.67654 0.0
H1123 H 0.98454 0.21888 0.6647 0.0
H1124 H 0.94873 0.21159 0.60716 0.0
H1125 H 0.90406 0.19863 0.61898 0.0
C1126 C 0.02453 0.21729 0.60364 0.0
C1127 C 0.04963 0.23578 0.61472 0.0
C1128 C 0.99891 0.21114 0.61006 0.0
C1129 C 0.99777 0.22362 0.62763 0.0
C1130 C 0.02304 0.24282 0.63837 0.0
C1131 C 0.04859 0.24868 0.63206 0.0
C1132 C 0.94174 0.208 0.66137 0.0
C1133 C 0.91848 0.20181 0.64873 0.0
C1134 C 0.96733 0.21498 0.65454 0.0
C1135 C 0.97045 0.21631 0.63491 0.0
C1136 C 0.94715 0.21034 0.62231 0.0
C1137 C 0.92149 0.20305 0.62912 0.0
H1138 H 0.7482 0.81439 0.65842 0.0
H1139 H 0.79064 0.82268 0.60777 0.0
H1140 H 0.7662 0.78571 0.67036 0.0
H1141 H 0.80797 0.79343 0.61956 0.0
H1142 H 0.80294 0.71321 0.63711 0.0
H1143 H 0.78703 0.74372 0.626 0.0
H1144 H 0.81284 0.79013 0.6815 0.0
H1145 H 0.82889 0.75934 0.69281 0.0
C1146 C 0.76146 0.81023 0.64986 0.0
C1147 C 0.76795 0.82086 0.6321 0.0
C1148 C 0.77177 0.79382 0.65674 0.0
C1149 C 0.78853 0.78743 0.64592 0.0
C1150 C 0.79486 0.79783 0.62812 0.0
C1151 C 0.78478 0.81444 0.62132 0.0
C1152 C 0.80526 0.72989 0.64702 0.0
C1153 C 0.81707 0.73379 0.6659 0.0
C1154 C 0.79631 0.74748 0.64057 0.0
C1155 C 0.79871 0.76928 0.65287 0.0
C1156 C 0.81057 0.77332 0.67176 0.0
C1157 C 0.81988 0.75583 0.67819 0.0
H1158 H 0.06932 0.80321 0.66107 0.0
H1159 H 0.03834 0.83559 0.61817 0.0
H1160 H 0.02312 0.77834 0.67222 0.0
H1161 H 0.99198 0.81131 0.62954 0.0
H1162 H 0.90824 0.73363 0.63789 0.0
H1163 H 0.95449 0.76436 0.6288 0.0
H1164 H 0.98796 0.78209 0.68794 0.0
H1165 H 0.94166 0.75068 0.69703 0.0
C1166 C 0.0526 0.80536 0.65431 0.0
C1167 C 0.05714 0.82122 0.63888 0.0
C1168 C 0.02616 0.79126 0.66072 0.0
C1169 C 1.00372 0.79275 0.65179 0.0
C1170 C 0.00866 0.80939 0.6366 0.0
C1171 C 0.03517 0.82347 0.63017 0.0
C1172 C 0.92537 0.74422 0.64902 0.0
C1173 C 0.92118 0.73946 0.66821 0.0
C1174 C 0.95195 0.76206 0.64379 0.0
C1175 C 0.97507 0.7757 0.65761 0.0
C1176 C 0.97073 0.77161 0.67688 0.0
C1177 C 0.94412 0.75369 0.68211 0.0
H1178 H 0.14902 0.18927 0.64792 0.0
H1179 H 0.20757 0.24963 0.61417 0.0
H1180 H 0.182 0.17368 0.65583 0.0
H1181 H 0.24092 0.23407 0.62206 0.0
H1182 H 0.28264 0.18 0.62951 0.0
H1183 H 0.24834 0.19263 0.61838 0.0
H1184 H 0.22756 0.19606 0.676 0.0
H1185 H 0.26167 0.18352 0.68714 0.0
C1186 C 0.16885 0.19883 0.64193 0.0
C1187 C 0.17586 0.22045 0.63039 0.0
C1188 C 0.1878 0.1901 0.64657 0.0
C1189 C 0.21417 0.20283 0.63973 0.0
C1190 C 0.2207 0.22378 0.62747 0.0
C1191 C 0.20171 0.23267 0.62294 0.0
C1192 C 0.2707 0.18339 0.6398 0.0
C1193 C 0.2749 0.1807 0.65924 0.0
C1194 C 0.25117 0.19076 0.63341 0.0
C1195 C 0.23515 0.1952 0.64628 0.0
C1196 C 0.23932 0.19242 0.66568 0.0
C1197 C 0.25902 0.18539 0.67209 0.0
H1198 H 0.7261 0.94878 0.64354 0.0
H1199 H 0.80791 0.96342 0.63389 0.0
H1200 H 0.74312 0.99853 0.64422 0.0
H1201 H 0.82507 0.01313 0.63431 0.0
H1202 H 0.85042 0.09744 0.6675 0.0
H1203 H 0.8335 0.04833 0.66038 0.0
H1204 H 0.76251 0.03938 0.6255 0.0
H1205 H 0.7793 0.08868 0.63277 0.0
C1206 C 0.74757 0.96271 0.64114 0.0
C1207 C 0.76583 0.95269 0.63866 0.0
C1208 C 0.7573 0.99108 0.64146 0.0
C1209 C 0.78548 0.00973 0.63944 0.0
C1210 C 0.80336 0.99929 0.63614 0.0
C1211 C 0.79357 0.97095 0.63577 0.0
C1212 C 0.83132 0.08511 0.65818 0.0
C1213 C 0.81611 0.09695 0.65082 0.0
C1214 C 0.82173 0.05698 0.65398 0.0
C1215 C 0.79667 0.04001 0.64238 0.0
C1216 C 0.78178 0.05193 0.63462 0.0
C1217 C 0.79146 0.08017 0.63873 0.0
H1218 H 0.52789 0.35128 0.74779 0.0
H1219 H 0.49155 0.39044 0.71542 0.0
H1220 H 0.4851 0.30648 0.74021 0.0
H1221 H 0.44843 0.34581 0.708 0.0
H1222 H 0.39962 0.25848 0.67513 0.0
H1223 H 0.43705 0.30454 0.68728 0.0
H1224 H 0.43528 0.2777 0.74358 0.0
H1225 H 0.39797 0.2313 0.73136 0.0
C1226 C 0.51033 0.35031 0.73952 0.0
C1227 C 0.51267 0.37403 0.73224 0.0
C1228 C 0.48584 0.32473 0.73518 0.0
C1229 C 0.46341 0.32252 0.72335 0.0
C1230 C 0.46545 0.34674 0.71691 0.0
C1231 C 0.48995 0.37229 0.72129 0.0
C1232 C 0.40704 0.26237 0.69013 0.0
C1233 C 0.39587 0.24109 0.70223 0.0
C1234 C 0.42837 0.2889 0.69715 0.0
C1235 C 0.43914 0.29485 0.71643 0.0
C1236 C 0.42761 0.27373 0.72863 0.0
C1237 C 0.40617 0.24716 0.72162 0.0
H1238 H 0.6346 0.08137 0.73432 0.0
H1239 H 0.63172 0.15066 0.71323 0.0
H1240 H 0.68025 0.0976 0.72282 0.0
H1241 H 0.67788 0.16762 0.70204 0.0
H1242 H 0.74459 0.17001 0.66468 0.0
H1243 H 0.70034 0.15675 0.67768 0.0
H1244 H 0.72803 0.13215 0.72747 0.0
H1245 H 0.77161 0.14461 0.71433 0.0
C1246 C 0.64415 0.10048 0.72759 0.0
C1247 C 0.62997 0.115 0.72486 0.0
C1248 C 0.67034 0.10986 0.72098 0.0
C1249 C 0.68294 0.134 0.71143 0.0
C1250 C 0.66877 0.14879 0.70908 0.0
C1251 C 0.64251 0.13932 0.7157 0.0
C1252 C 0.74121 0.16178 0.6784 0.0
C1253 C 0.76165 0.15814 0.6883 0.0
C1254 C 0.71587 0.15433 0.68595 0.0
C1255 C 0.71038 0.14317 0.70364 0.0
C1256 C 0.73113 0.1401 0.71366 0.0
C1257 C 0.75629 0.14738 0.7061 0.0
H1258 H 0.88822 0.5134 0.73242 0.0
H1259 H 0.96261 0.56671 0.70657 0.0
H1260 H 0.8708 0.54527 0.72721 0.0
H1261 H 0.94561 0.59885 0.70152 0.0
H1262 H 0.88812 0.62407 0.67075 0.0
H1263 H 0.90763 0.59559 0.67989 0.0
H1264 H 0.87868 0.59262 0.73557 0.0
H1265 H 0.85877 0.62105 0.72636 0.0
C1266 C 0.90106 0.53233 0.72604 0.0
C1267 C 0.92667 0.5379 0.71993 0.0
C1268 C 0.89117 0.55055 0.72307 0.0
C1269 C 0.90673 0.57443 0.71379 0.0
C1270 C 0.93297 0.58041 0.70845 0.0
C1271 C 0.94283 0.56224 0.71147 0.0
C1272 C 0.88585 0.61739 0.68495 0.0
C1273 C 0.87185 0.62485 0.69781 0.0
C1274 C 0.89727 0.60123 0.69025 0.0
C1275 C 0.89492 0.59206 0.70852 0.0
C1276 C 0.88073 0.5993 0.72137 0.0
C1277 C 0.86939 0.61563 0.7161 0.0
H1278 H 0.45993 0.89548 0.21786 0.0
H1279 H 0.44737 0.96155 0.23968 0.0
H1280 H 0.47517 0.91821 0.18887 0.0
H1281 H 0.46311 0.98462 0.21095 0.0
H1282 H 0.4624 0.00308 0.14899 0.0
H1283 H 0.44856 0.9807 0.17817 0.0
H1284 H 0.51104 0.95661 0.17557 0.0
H1285 H 0.52446 0.97859 0.14613 0.0
C1286 C 0.46081 0.91507 0.21658 0.0
C1287 C 0.45228 0.9266 0.23106 0.0
C1288 C 0.46959 0.92817 0.19995 0.0
C1289 C 0.47025 0.95326 0.1974 0.0
C1290 C 0.46231 0.96505 0.21213 0.0
C1291 C 0.45337 0.95187 0.22868 0.0
C1292 C 0.47332 0.99317 0.15472 0.0
C1293 C 0.49458 0.99269 0.14521 0.0
C1294 C 0.46543 0.98036 0.17153 0.0
C1295 C 0.47872 0.96685 0.1794 0.0
C1296 C 0.50001 0.9664 0.16985 0.0
C1297 C 0.50777 0.97907 0.15296 0.0
H1298 H 0.09742 0.51722 0.23522 0.0
H1299 H 0.03089 0.53165 0.24931 0.0
H1300 H 0.08217 0.51225 0.20141 0.0
H1301 H 0.0162 0.52738 0.21549 0.0
H1302 H 0.01353 0.5416 0.15207 0.0
H1303 H 0.03251 0.55065 0.18555 0.0
H1304 H 0.03996 0.47749 0.17987 0.0
H1305 H 0.02129 0.46863 0.14645 0.0
C1306 C 0.07956 0.51932 0.23115 0.0
C1307 C 0.0653 0.52466 0.24505 0.0
C1308 C 0.0709 0.51657 0.21177 0.0
C1309 C 0.04795 0.51936 0.20582 0.0
C1310 C 0.03416 0.52545 0.21965 0.0
C1311 C 0.04265 0.52796 0.23904 0.0
C1312 C 0.01949 0.52763 0.15796 0.0
C1313 C 0.01583 0.50435 0.1467 0.0
C1314 C 0.03014 0.5327 0.17713 0.0
C1315 C 0.03769 0.51476 0.18531 0.0
C1316 C 0.03455 0.4918 0.17392 0.0
C1317 C 0.02362 0.48659 0.15485 0.0
H1318 H 0.47962 0.58085 0.21914 0.0
H1319 H 0.47961 0.5066 0.23262 0.0
H1320 H 0.49056 0.57458 0.18685 0.0
H1321 H 0.49017 0.50013 0.2003 0.0
H1322 H 0.54282 0.51836 0.14943 0.0
H1323 H 0.53064 0.52426 0.18123 0.0
H1324 H 0.46879 0.5419 0.15704 0.0
H1325 H 0.48043 0.53537 0.12511 0.0
C1326 C 0.48189 0.56317 0.21517 0.0
C1327 C 0.47877 0.54422 0.2284 0.0
C1328 C 0.48795 0.55947 0.19667 0.0
C1329 C 0.49131 0.53691 0.19106 0.0
C1330 C 0.48797 0.51786 0.20426 0.0
C1331 C 0.48165 0.52141 0.22269 0.0
C1332 C 0.5264 0.52319 0.15082 0.0
C1333 C 0.51256 0.52627 0.13463 0.0
C1334 C 0.51946 0.52662 0.16907 0.0
C1335 C 0.49869 0.53344 0.17163 0.0
C1336 C 0.48508 0.53691 0.15552 0.0
C1337 C 0.49185 0.53326 0.13723 0.0
H1338 H 0.98466 0.50788 0.7804 0.0
H1339 H 0.90789 0.43643 0.79187 0.0
H1340 H 1.00035 0.51786 0.81442 0.0
H1341 H 0.92382 0.44609 0.82587 0.0
H1342 H 0.9531 0.48542 0.88767 0.0
H1343 H 0.93582 0.47996 0.8542 0.0
H1344 H 0.01514 0.49478 0.83754 0.0
H1345 H 0.03228 0.49971 0.87086 0.0
C1346 C 0.97095 0.49457 0.79022 0.0
C1347 C 0.94508 0.47131 0.78345 0.0
C1348 C 0.98006 0.50011 0.80968 0.0
C1349 C 0.96343 0.48263 0.82281 0.0
C1350 C 0.93706 0.46003 0.81613 0.0
C1351 C 0.92803 0.45438 0.79665 0.0
C1352 C 0.96681 0.48734 0.87688 0.0
C1353 C 0.99411 0.49298 0.88202 0.0
C1354 C 0.95692 0.4843 0.85771 0.0
C1355 C 0.97414 0.48704 0.84324 0.0
C1356 C 1.00151 0.49303 0.84837 0.0
C1357 C 0.01134 0.49588 0.8675 0.0
H1358 H 0.52839 0.46057 0.77552 0.0
H1359 H 0.6135 0.51296 0.80021 0.0
H1360 H 0.51188 0.46769 0.80528 0.0
H1361 H 0.59699 0.52136 0.82959 0.0
H1362 H 0.55935 0.50544 0.88636 0.0
H1363 H 0.57571 0.49886 0.85643 0.0
H1364 H 0.50722 0.50027 0.8254 0.0
H1365 H 0.48995 0.50525 0.85536 0.0
C1366 C 0.54363 0.47371 0.78726 0.0
C1367 C 0.57234 0.48605 0.78539 0.0
C1368 C 0.53412 0.4781 0.8043 0.0
C1369 C 0.55304 0.49508 0.81997 0.0
C1370 C 0.58174 0.50782 0.81798 0.0
C1371 C 0.59125 0.50332 0.80097 0.0
C1372 C 0.54753 0.504 0.87318 0.0
C1373 C 0.52318 0.50576 0.8734 0.0
C1374 C 0.55719 0.50064 0.85594 0.0
C1375 C 0.54289 0.49908 0.83837 0.0
C1376 C 0.51865 0.50104 0.83858 0.0
C1377 C 0.50891 0.50428 0.85584 0.0
H1378 H 0.57919 0.0949 0.80118 0.0
H1379 H 0.49009 0.05939 0.79048 0.0
H1380 H 0.57315 0.07821 0.83284 0.0
H1381 H 0.48423 0.04327 0.82198 0.0
H1382 H 0.48509 0.04302 0.88637 0.0
H1383 H 0.4937 0.06159 0.8555 0.0
H1384 H 0.55348 0.03483 0.84864 0.0
H1385 H 0.54534 0.0168 0.87977 0.0
C1386 C 0.55834 0.0835 0.8055 0.0
C1387 C 0.53521 0.07891 0.79326 0.0
C1388 C 0.55488 0.07394 0.82367 0.0
C1389 C 0.52821 0.05963 0.83009 0.0
C1390 C 0.50513 0.05476 0.81774 0.0
C1391 C 0.50855 0.06412 0.79962 0.0
C1392 C 0.50031 0.04136 0.8784 0.0
C1393 C 0.51443 0.02829 0.88559 0.0
C1394 C 0.50506 0.05178 0.86058 0.0
C1395 C 0.52418 0.04959 0.84947 0.0
C1396 C 0.53874 0.03704 0.85682 0.0
C1397 C 0.53384 0.02643 0.87461 0.0
H1398 H 0.16196 0.29027 0.57634 0.0
H1399 H 0.07803 0.23539 0.55032 0.0
H1400 H 0.17564 0.30887 0.54601 0.0
H1401 H 0.09133 0.25517 0.52023 0.0
H1402 H 0.12873 0.28102 0.46423 0.0
H1403 H 0.11715 0.25908 0.49376 0.0
H1404 H 0.16977 0.33859 0.52608 0.0
H1405 H 0.18255 0.36021 0.49662 0.0
C1406 C 0.14643 0.28193 0.56413 0.0
C1407 C 0.11881 0.2613 0.56591 0.0
C1408 C 0.1542 0.29296 0.54674 0.0
C1409 C 0.13457 0.28383 0.53062 0.0
C1410 C 0.10713 0.26265 0.53224 0.0
C1411 C 0.09939 0.25151 0.54962 0.0
C1412 C 0.13817 0.29379 0.47762 0.0
C1413 C 0.1566 0.32247 0.47794 0.0
C1414 C 0.13123 0.28122 0.49461 0.0
C1415 C 0.14246 0.29698 0.51242 0.0
C1416 C 0.16096 0.32563 0.51271 0.0
C1417 C 0.16798 0.33816 0.49574 0.0
H1418 H 0.76241 0.84434 0.5678 0.0
H1419 H 0.6997 0.86356 0.58368 0.0
H1420 H 0.74516 0.8383 0.5344 0.0
H1421 H 0.68362 0.85926 0.55024 0.0
H1422 H 0.64091 0.81876 0.49105 0.0
H1423 H 0.65861 0.82499 0.52432 0.0
H1424 H 0.74269 0.86229 0.50834 0.0
H1425 H 0.7248 0.85444 0.47492 0.0
C1426 C 0.74499 0.84737 0.56419 0.0
C1427 C 0.73238 0.8543 0.57851 0.0
C1428 C 0.73533 0.84428 0.54497 0.0
C1429 C 0.71293 0.84824 0.53955 0.0
C1430 C 0.70063 0.85563 0.55386 0.0
C1431 C 0.71015 0.85851 0.57307 0.0
C1432 C 0.66315 0.82796 0.49457 0.0
C1433 C 0.68137 0.83597 0.48022 0.0
C1434 C 0.67337 0.83193 0.51373 0.0
C1435 C 0.70213 0.84424 0.5191 0.0
C1436 C 0.72039 0.85244 0.50476 0.0
C1437 C 0.71014 0.84829 0.48557 0.0
H1438 H 0.14734 0.83819 0.56602 0.0
H1439 H 0.13161 0.90316 0.55116 0.0
H1440 H 0.15534 0.83108 0.53315 0.0
H1441 H 0.13867 0.89558 0.51811 0.0
H1442 H 0.18839 0.89968 0.46798 0.0
H1443 H 0.17581 0.90404 0.49988 0.0
H1444 H 0.13603 0.81532 0.50108 0.0
H1445 H 0.14946 0.81121 0.46931 0.0
C1446 C 0.14498 0.85052 0.5556 0.0
C1447 C 0.13896 0.87129 0.56115 0.0
C1448 C 0.14952 0.84645 0.53672 0.0
C1449 C 0.14789 0.8629 0.52291 0.0
C1450 C 0.14075 0.88295 0.52839 0.0
C1451 C 0.13652 0.8872 0.5473 0.0
C1452 C 0.17675 0.8811 0.47501 0.0
C1453 C 0.16996 0.85512 0.46616 0.0
C1454 C 0.1694 0.88355 0.49329 0.0
C1455 C 0.15479 0.86002 0.50313 0.0
C1456 C 0.14765 0.83395 0.49411 0.0
C1457 C 0.15527 0.83155 0.47588 0.0
H1458 H 0.64788 0.83955 0.11386 0.0
H1459 H 0.57025 0.76762 0.12327 0.0
H1460 H 0.6628 0.84724 0.14791 0.0
H1461 H 0.58474 0.77558 0.1574 0.0
H1462 H 0.63483 0.77626 0.21156 0.0
H1463 H 0.61702 0.77105 0.17834 0.0
H1464 H 0.6562 0.85998 0.17914 0.0
H1465 H 0.67446 0.8651 0.2123 0.0
C1466 C 0.63375 0.82576 0.1233 0.0
C1467 C 0.60799 0.80289 0.11591 0.0
C1468 C 0.64227 0.83014 0.14283 0.0
C1469 C 0.62511 0.81186 0.15544 0.0
C1470 C 0.59878 0.7897 0.14809 0.0
C1471 C 0.59039 0.78522 0.12855 0.0
C1472 C 0.63939 0.79467 0.20468 0.0
C1473 C 0.65614 0.82108 0.21453 0.0
C1474 C 0.62911 0.79171 0.18563 0.0
C1475 C 0.63513 0.8151 0.17599 0.0
C1476 C 0.65151 0.84153 0.18598 0.0
C1477 C 0.66195 0.84447 0.205 0.0
H1478 H 0.19091 0.7962 0.10687 0.0
H1479 H 0.27594 0.84193 0.13283 0.0
H1480 H 0.17462 0.80207 0.13699 0.0
H1481 H 0.25974 0.84928 0.16268 0.0
H1482 H 0.22035 0.83253 0.2188 0.0
H1483 H 0.23655 0.82617 0.18873 0.0
H1484 H 0.17205 0.83469 0.1582 0.0
H1485 H 0.1548 0.83934 0.18821 0.0
C1486 C 0.20619 0.80755 0.11898 0.0
C1487 C 0.2348 0.81844 0.11732 0.0
C1488 C 0.19683 0.81128 0.13626 0.0
C1489 C 0.21579 0.82621 0.1524 0.0
C1490 C 0.24443 0.83735 0.15069 0.0
C1491 C 0.25379 0.83347 0.13343 0.0
C1492 C 0.20933 0.83267 0.20569 0.0
C1493 C 0.18611 0.83635 0.20606 0.0
C1494 C 0.21893 0.82943 0.18838 0.0
C1495 C 0.20571 0.82993 0.17091 0.0
C1496 C 0.1826 0.8338 0.17129 0.0
C1497 C 0.17291 0.83687 0.18859 0.0
H1498 H 0.21017 0.45171 0.14148 0.0
H1499 H 0.21466 0.38071 0.11953 0.0
H1500 H 0.20446 0.4352 0.17303 0.0
H1501 H 0.20846 0.36386 0.15098 0.0
H1502 H 0.21662 0.35023 0.21349 0.0
H1503 H 0.22761 0.37005 0.18315 0.0
H1504 H 0.16996 0.39979 0.18924 0.0
H1505 H 0.15932 0.3803 0.21966 0.0
C1506 C 0.21005 0.4326 0.14342 0.0
C1507 C 0.21279 0.41751 0.12793 0.0
C1508 C 0.2066 0.42302 0.16151 0.0
C1509 C 0.20563 0.39795 0.16464 0.0
C1510 C 0.20938 0.38337 0.14927 0.0
C1511 C 0.21299 0.39306 0.13118 0.0
C1512 C 0.2062 0.36091 0.20832 0.0
C1513 C 0.18702 0.36358 0.21906 0.0
C1514 C 0.2125 0.37229 0.19087 0.0
C1515 C 0.19972 0.3866 0.1836 0.0
C1516 C 0.18067 0.38941 0.19445 0.0
C1517 C 0.17448 0.37814 0.21193 0.0
H1518 H 0.77265 0.62358 0.90328 0.0
H1519 H 0.80211 0.56725 0.88915 0.0
H1520 H 0.7874 0.64466 0.87371 0.0
H1521 H 0.81731 0.5887 0.85958 0.0
H1522 H 0.80963 0.61408 0.79872 0.0
H1523 H 0.79655 0.59277 0.82843 0.0
H1524 H 0.8308 0.6736 0.85914 0.0
H1525 H 0.84449 0.69502 0.82961 0.0
C1526 C 0.78223 0.61564 0.89383 0.0
C1527 C 0.78608 0.59363 0.89856 0.0
C1528 C 0.79094 0.62792 0.87695 0.0
C1529 C 0.80358 0.61842 0.86425 0.0
C1530 C 0.80745 0.59639 0.86896 0.0
C1531 C 0.79897 0.58426 0.88598 0.0
C1532 C 0.81477 0.6274 0.81182 0.0
C1533 C 0.82809 0.65637 0.81162 0.0
C1534 C 0.80719 0.61513 0.82887 0.0
C1535 C 0.81251 0.63145 0.84617 0.0
C1536 C 0.82598 0.66037 0.84603 0.0
C1537 C 0.83375 0.67266 0.82903 0.0
H1538 H 0.36169 0.19423 0.91597 0.0
H1539 H 0.42662 0.17728 0.90199 0.0
H1540 H 0.34647 0.18911 0.88229 0.0
H1541 H 0.41024 0.17038 0.86832 0.0
H1542 H 0.39013 0.18469 0.80808 0.0
H1543 H 0.40743 0.19347 0.84169 0.0
H1544 H 0.32278 0.15387 0.85673 0.0
H1545 H 0.30562 0.14669 0.82329 0.0
C1546 C 0.37283 0.18952 0.90572 0.0
C1547 C 0.3954 0.18616 0.91176 0.0
C1548 C 0.3638 0.18616 0.88638 0.0
C1549 C 0.37695 0.17909 0.87254 0.0
C1550 C 0.39975 0.17606 0.87854 0.0
C1551 C 0.40892 0.17964 0.8979 0.0
C1552 C 0.37522 0.17819 0.81857 0.0
C1553 C 0.34645 0.16498 0.81292 0.0
C1554 C 0.38514 0.18291 0.83786 0.0
C1555 C 0.36653 0.17438 0.85198 0.0
C1556 C 0.33778 0.16109 0.84631 0.0
C1557 C 0.32788 0.15657 0.82705 0.0
H1558 H 0.85607 0.23944 0.89843 0.0
H1559 H 0.76963 0.17607 0.88527 0.0
H1560 H 0.86504 0.2319 0.86602 0.0
H1561 H 0.77895 0.16753 0.85301 0.0
H1562 H 0.79968 0.1796 0.79116 0.0
H1563 H 0.78994 0.18791 0.82329 0.0
H1564 H 0.86888 0.19846 0.84587 0.0
H1565 H 0.87923 0.19157 0.81373 0.0
C1566 C 0.83891 0.22396 0.8886 0.0
C1567 C 0.81206 0.20848 0.89447 0.0
C1568 C 0.84417 0.21935 0.87006 0.0
C1569 C 0.82277 0.199 0.85688 0.0
C1570 C 0.79588 0.18355 0.86271 0.0
C1571 C 0.79059 0.18823 0.88128 0.0
C1572 C 0.8151 0.18399 0.80296 0.0
C1573 C 0.84029 0.18498 0.79981 0.0
C1574 C 0.80934 0.18841 0.82143 0.0
C1575 C 0.82862 0.19389 0.83721 0.0
C1576 C 0.8537 0.19467 0.83406 0.0
C1577 C 0.85949 0.19033 0.81561 0.0
H1578 H 0.23403 0.09802 0.4556 0.0
H1579 H 0.30996 0.17225 0.44657 0.0
H1580 H 0.2482 0.10651 0.48983 0.0
H1581 H 0.32432 0.18057 0.48063 0.0
H1582 H 0.33412 0.19993 0.54452 0.0
H1583 H 0.31544 0.19291 0.51129 0.0
H1584 H 0.28203 0.10479 0.51159 0.0
H1585 H 0.30036 0.11185 0.54491 0.0
C1586 C 0.2537 0.1162 0.46094 0.0
C1587 C 0.27087 0.13445 0.44837 0.0
C1588 C 0.26188 0.12102 0.48055 0.0
C1589 C 0.2875 0.14415 0.48803 0.0
C1590 C 0.30427 0.16278 0.47546 0.0
C1591 C 0.29603 0.15802 0.4559 0.0
C1592 C 0.3228 0.17906 0.53746 0.0
C1593 C 0.31886 0.15646 0.54731 0.0
C1594 C 0.3121 0.17503 0.5184 0.0
C1595 C 0.29731 0.14829 0.50868 0.0
C1596 C 0.29293 0.12563 0.51867 0.0
C1597 C 0.30351 0.12966 0.53777 0.0
H1598 H 0.9201 0.19789 0.45153 0.0
H1599 H 0.88495 0.11063 0.45695 0.0
H1600 H 0.90498 0.20385 0.4822 0.0
H1601 H 0.87041 0.11659 0.48792 0.0
H1602 H 0.81994 0.13078 0.53153 0.0
H1603 H 0.83723 0.12466 0.50179 0.0
H1604 H 0.91164 0.20466 0.51552 0.0
H1605 H 0.89387 0.21095 0.54496 0.0
C1606 C 0.90962 0.18006 0.45947 0.0
C1607 C 0.90372 0.15378 0.45176 0.0
C1608 C 0.90092 0.18346 0.47711 0.0
C1609 C 0.88628 0.1607 0.48764 0.0
C1610 C 0.88107 0.13453 0.48012 0.0
C1611 C 0.88956 0.1311 0.46238 0.0
C1612 C 0.84006 0.14697 0.52822 0.0
C1613 C 0.85543 0.17141 0.54058 0.0
C1614 C 0.85009 0.14344 0.51118 0.0
C1615 C 0.87592 0.16416 0.50611 0.0
C1616 C 0.89145 0.18845 0.51866 0.0
C1617 C 0.88129 0.19206 0.53561 0.0
H1618 H 0.87433 0.78363 0.47623 0.0
H1619 H 0.8818 0.71531 0.45223 0.0
H1620 H 0.86785 0.76489 0.50708 0.0
H1621 H 0.8759 0.6968 0.48325 0.0
H1622 H 0.82654 0.65454 0.53371 0.0
H1623 H 0.83777 0.6747 0.50355 0.0
H1624 H 0.89075 0.75554 0.53393 0.0
H1625 H 0.87989 0.73536 0.56417 0.0
C1626 C 0.87489 0.76474 0.4776 0.0
C1627 C 0.87846 0.75092 0.46171 0.0
C1628 C 0.87137 0.75408 0.49534 0.0
C1629 C 0.87115 0.7292 0.49768 0.0
C1630 C 0.87558 0.71581 0.48192 0.0
C1631 C 0.87931 0.7266 0.46419 0.0
C1632 C 0.84091 0.67657 0.53404 0.0
C1633 C 0.85224 0.69324 0.55153 0.0
C1634 C 0.84736 0.68815 0.51668 0.0
C1635 C 0.86523 0.71678 0.51625 0.0
C1636 C 0.87665 0.73347 0.53369 0.0
C1637 C 0.87031 0.72187 0.55108 0.0
loop_
_geom_bond_atom_site_label_1
_geom_bond_atom_site_label_2
_geom_bond_distance
_geom_bond_site_symmetry_2
_ccdc_geom_bond_type
H0 C3 0.929 . S
H1 C6 0.929 . S
H2 C8 0.930 . S
C3 H0 0.929 . S
C3 C4 1.398 . S
C3 C5 1.396 . S
C4 C3 1.398 . S
C4 C8 1.407 . S
C5 C3 1.396 . S
C5 C6 1.394 . S
C6 H1 0.929 . S
C6 C5 1.394 . S
C6 C7 1.382 . S
C7 C6 1.382 . S
C7 C8 1.392 . S
C7 N9 1.420 . S
C8 H2 0.930 . S
C8 C4 1.407 . S
C8 C7 1.392 . S
N9 C7 1.420 . S
N9 C10 1.244 . S
C10 N9 1.244 . S
H11 C14 0.929 . S
H12 C17 0.929 . S
H13 C19 0.930 . S
C14 H11 0.929 . S
C14 C15 1.398 . S
C14 C16 1.396 . S
C15 C14 1.398 . S
C15 C19 1.407 . S
C16 C14 1.396 . S
C16 C17 1.394 . S
C17 H12 0.929 . S
C17 C16 1.394 . S
C17 C18 1.382 . S
C18 C17 1.382 . S
C18 C19 1.392 . S
C18 N20 1.420 . S
C19 H13 0.930 . S
C19 C15 1.407 . S
C19 C18 1.392 . S
N20 C18 1.420 . S
N20 C21 1.244 . S
C21 N20 1.244 . S
H22 C25 0.929 . S
H23 C28 0.929 . S
H24 C30 0.930 . S
C25 H22 0.929 . S
C25 C26 1.398 . S
C25 C27 1.396 . S
C26 C25 1.398 . S
C26 C30 1.407 . S
C27 C25 1.396 . S
C27 C28 1.394 . S
C28 H23 0.929 . S
C28 C27 1.394 . S
C28 C29 1.382 . S
C29 C28 1.382 . S
C29 C30 1.392 . S
C29 N31 1.420 . S
C30 H24 0.930 . S
C30 C26 1.407 . S
C30 C29 1.392 . S
N31 C29 1.420 . S
N31 C32 1.244 . S
C32 N31 1.244 . S
H33 C36 0.929 . S
H34 C39 0.929 . S
H35 C41 0.930 . S
C36 H33 0.929 . S
C36 C37 1.398 . S
C36 C38 1.396 . S
C37 C36 1.398 . S
C37 C41 1.407 . S
C38 C36 1.396 . S
C38 C39 1.394 . S
C39 H34 0.929 . S
C39 C38 1.394 . S
C39 C40 1.382 . S
C40 C39 1.382 . S
C40 C41 1.392 . S
C40 N42 1.420 . S
C41 H35 0.930 . S
C41 C37 1.407 . S
C41 C40 1.392 . S
N42 C40 1.420 . S
N42 C43 1.244 . S
C43 N42 1.244 . S
H44 C47 0.929 . S
H45 C50 0.929 . S
H46 C52 0.930 . S
C47 H44 0.929 . S
C47 C48 1.398 . S
C47 C49 1.396 . S
C48 C47 1.398 . S
C48 C52 1.407 . S
C49 C47 1.396 . S
C49 C50 1.394 . S
C50 H45 0.929 . S
C50 C49 1.394 . S
C50 C51 1.382 . S
C51 C50 1.382 . S
C51 C52 1.392 . S
C51 N53 1.420 . S
C52 H46 0.930 . S
C52 C48 1.407 . S
C52 C51 1.392 . S
N53 C51 1.420 . S
N53 C54 1.244 . S
C54 N53 1.244 . S
H55 C58 0.929 . S
H56 C61 0.929 . S
H57 C63 0.930 . S
C58 H55 0.929 . S
C58 C59 1.398 . S
C58 C60 1.396 . S
C59 C58 1.398 . S
C59 C63 1.407 . S
C60 C58 1.396 . S
C60 C61 1.394 . S
C61 H56 0.929 . S
C61 C60 1.394 . S
C61 C62 1.382 . S
C62 C61 1.382 . S
C62 C63 1.392 . S
C62 N64 1.420 . S
C63 H57 0.930 . S
C63 C59 1.407 . S
C63 C62 1.392 . S
N64 C62 1.420 . S
N64 C65 1.244 . S
C65 N64 1.244 . S
H66 C69 0.929 . S
H67 C72 0.929 . S
H68 C74 0.930 . S
C69 H66 0.929 . S
C69 C70 1.398 . S
C69 C71 1.396 . S
C70 C69 1.398 . S
C70 C74 1.407 . S
C71 C69 1.396 . S
C71 C72 1.394 . S
C72 H67 0.929 . S
C72 C71 1.394 . S
C72 C73 1.382 . S
C73 C72 1.382 . S
C73 C74 1.392 . S
C73 N75 1.420 . S
C74 H68 0.930 . S
C74 C70 1.407 . S
C74 C73 1.392 . S
N75 C73 1.420 . S
N75 C76 1.244 . S
C76 N75 1.244 . S
H77 C80 0.929 . S
H78 C83 0.929 . S
H79 C85 0.930 . S
C80 H77 0.929 . S
C80 C81 1.398 . S
C80 C82 1.396 . S
C81 C80 1.398 . S
C81 C85 1.407 . S
C82 C80 1.396 . S
C82 C83 1.394 . S
C83 H78 0.929 . S
C83 C82 1.394 . S
C83 C84 1.382 . S
C84 C83 1.382 . S
C84 C85 1.392 . S
C84 N86 1.420 . S
C85 H79 0.930 . S
C85 C81 1.407 . S
C85 C84 1.392 . S
N86 C84 1.420 . S
N86 C87 1.244 . S
C87 N86 1.244 . S
H88 C91 0.929 . S
H89 C94 0.929 . S
H90 C96 0.930 . S
C91 H88 0.929 . S
C91 C92 1.398 . S
C91 C93 1.396 . S
C92 C91 1.398 . S
C92 C96 1.407 . S
C93 C91 1.396 . S
C93 C94 1.394 . S
C94 H89 0.929 . S
C94 C93 1.394 . S
C94 C95 1.382 . S
C95 C94 1.382 . S
C95 C96 1.392 . S
C95 N97 1.420 . S
C96 H90 0.930 . S
C96 C92 1.407 . S
C96 C95 1.392 . S
N97 C95 1.420 . S
N97 C98 1.244 . S
C98 N97 1.244 . S
H99 C102 0.929 . S
H100 C105 0.929 . S
H101 C107 0.930 . S
C102 H99 0.929 . S
C102 C103 1.398 . S
C102 C104 1.396 . S
C103 C102 1.398 . S
C103 C107 1.407 . S
C104 C102 1.396 . S
C104 C105 1.394 . S
C105 H100 0.929 . S
C105 C104 1.394 . S
C105 C106 1.382 . S
C106 C105 1.382 . S
C106 C107 1.392 . S
C106 N108 1.420 . S
C107 H101 0.930 . S
C107 C103 1.407 . S
C107 C106 1.392 . S
N108 C106 1.420 . S
N108 C109 1.244 . S
C109 N108 1.244 . S
H110 C113 0.929 . S
H111 C116 0.929 . S
H112 C118 0.930 . S
C113 H110 0.929 . S
C113 C114 1.398 . S
C113 C115 1.396 . S
C114 C113 1.398 . S
C114 C118 1.407 . S
C115 C113 1.396 . S
C115 C116 1.394 . S
C116 H111 0.929 . S
C116 C115 1.394 . S
C116 C117 1.382 . S
C117 C116 1.382 . S
C117 C118 1.392 . S
C117 N119 1.420 . S
C118 H112 0.930 . S
C118 C114 1.407 . S
C118 C117 1.392 . S
N119 C117 1.420 . S
N119 C120 1.244 . S
C120 N119 1.244 . S
H121 C124 0.929 . S
H122 C127 0.929 . S
H123 C129 0.930 . S
C124 H121 0.929 . S
C124 C125 1.398 . S
C124 C126 1.396 . S
C125 C124 1.398 . S
C125 C129 1.407 . S
C126 C124 1.396 . S
C126 C127 1.394 . S
C127 H122 0.929 . S
C127 C126 1.394 . S
C127 C128 1.382 . S
C128 C127 1.382 . S
C128 C129 1.392 . S
C128 N130 1.420 . S
C129 H123 0.930 . S
C129 C125 1.407 . S
C129 C128 1.392 . S
N130 C128 1.420 . S
N130 C131 1.244 . S
C131 N130 1.244 . S
H132 C135 0.929 . S
H133 C138 0.929 . S
H134 C140 0.930 . S
C135 H132 0.929 . S
C135 C136 1.398 . S
C135 C137 1.396 . S
C136 C135 1.398 . S
C136 C140 1.407 . S
C137 C135 1.396 . S
C137 C138 1.394 . S
C138 H133 0.929 . S
C138 C137 1.394 . S
C138 C139 1.382 . S
C139 C138 1.382 . S
C139 C140 1.392 . S
C139 N141 1.420 . S
C140 H134 0.930 . S
C140 C136 1.407 . S
C140 C139 1.392 . S
N141 C139 1.420 . S
N141 C142 1.244 . S
C142 N141 1.244 . S
H143 C146 0.929 . S
H144 C149 0.929 . S
H145 C151 0.930 . S
C146 H143 0.929 . S
C146 C147 1.398 . S
C146 C148 1.396 . S
C147 C146 1.398 . S
C147 C151 1.407 . S
C148 C146 1.396 . S
C148 C149 1.394 . S
C149 H144 0.929 . S
C149 C148 1.394 . S
C149 C150 1.382 . S
C150 C149 1.382 . S
C150 C151 1.392 . S
C150 N152 1.420 . S
C151 H145 0.930 . S
C151 C147 1.407 . S
C151 C150 1.392 . S
N152 C150 1.420 . S
N152 C153 1.244 . S
C153 N152 1.244 . S
H154 C157 0.929 . S
H155 C160 0.929 . S
H156 C162 0.930 . S
C157 H154 0.929 . S
C157 C158 1.398 . S
C157 C159 1.396 . S
C158 C157 1.398 . S
C158 C162 1.407 . S
C159 C157 1.396 . S
C159 C160 1.394 . S
C160 H155 0.929 . S
C160 C159 1.394 . S
C160 C161 1.382 . S
C161 C160 1.382 . S
C161 C162 1.392 . S
C161 N163 1.420 . S
C162 H156 0.930 . S
C162 C158 1.407 . S
C162 C161 1.392 . S
N163 C161 1.420 . S
N163 C164 1.244 . S
C164 N163 1.244 . S
H165 C168 0.929 . S
H166 C171 0.929 . S
H167 C173 0.930 . S
C168 H165 0.929 . S
C168 C169 1.398 . S
C168 C170 1.396 . S
C169 C168 1.398 . S
C169 C173 1.407 . S
C170 C168 1.396 . S
C170 C171 1.394 . S
C171 H166 0.929 . S
C171 C170 1.394 . S
C171 C172 1.382 . S
C172 C171 1.382 . S
C172 C173 1.392 . S
C172 N174 1.420 . S
C173 H167 0.930 . S
C173 C169 1.407 . S
C173 C172 1.392 . S
N174 C172 1.420 . S
N174 C175 1.244 . S
C175 N174 1.244 . S
H176 C179 0.929 . S
H177 C182 0.929 . S
H178 C184 0.930 . S
C179 H176 0.929 . S
C179 C180 1.398 . S
C179 C181 1.396 . S
C180 C179 1.398 . S
C180 C184 1.407 . S
C181 C179 1.396 . S
C181 C182 1.394 . S
C182 H177 0.929 . S
C182 C181 1.394 . S
C182 C183 1.382 . S
C183 C182 1.382 . S
C183 C184 1.392 . S
C183 N185 1.420 . S
C184 H178 0.930 . S
C184 C180 1.407 . S
C184 C183 1.392 . S
N185 C183 1.420 . S
N185 C186 1.244 . S
C186 N185 1.244 . S
H187 C190 0.929 . S
H188 C193 0.929 . S
H189 C195 0.930 . S
C190 H187 0.929 . S
C190 C191 1.398 . S
C190 C192 1.396 . S
C191 C190 1.398 . S
C191 C195 1.407 . S
C192 C190 1.396 . S
C192 C193 1.394 . S
C193 H188 0.929 . S
C193 C192 1.394 . S
C193 C194 1.382 . S
C194 C193 1.382 . S
C194 C195 1.392 . S
C194 N196 1.420 . S
C195 H189 0.930 . S
C195 C191 1.407 . S
C195 C194 1.392 . S
N196 C194 1.420 . S
N196 C197 1.244 . S
C197 N196 1.244 . S
Eu198 C207 2.828 1_565 S
Eu198 O209 2.392 . S
Eu198 O211 2.418 . S
Eu198 O216 2.373 1_565 S
Eu198 O219 2.488 . S
Eu198 O220 2.471 1_565 S
Eu198 O221 2.349 1_565 S
Eu199 O208 2.373 1_545 S
Eu199 O212 2.488 . S
Eu199 O213 2.471 1_545 S
Eu199 O214 2.349 1_545 S
Eu199 O217 2.392 . S
Eu199 O218 2.418 . S
Eu199 C228 2.828 . S
C200 O218 1.244 . S
C200 O221 1.265 1_554 S
C201 C202 1.379 . S
C201 C205 1.373 1_545 S
C201 C207 1.505 . S
C202 C201 1.379 . S
C202 C204 1.369 . S
C202 H230 0.930 . S
C203 C205 1.383 1_545 S
C203 C206 1.382 . S
C203 H231 0.930 1_545 S
C204 C202 1.369 . S
C204 C206 1.392 . S
C204 H232 0.930 . S
C205 C201 1.373 1_565 S
C205 C203 1.383 1_565 S
C205 H233 0.931 . S
C206 C203 1.382 . S
C206 C204 1.392 . S
C207 Eu198 2.828 1_545 S
C207 C201 1.505 . S
C207 O219 1.249 1_545 S
C207 O220 1.244 . S
O208 Eu199 2.373 1_565 S
O208 C210 1.258 . S
O209 Eu198 2.392 . S
O209 C210 1.242 1_556 S
C210 O208 1.258 . S
C210 O209 1.242 1_554 S
O211 Eu198 2.418 . S
O211 C215 1.244 1_556 S
O212 Eu199 2.488 . S
O212 C228 1.249 . S
O213 Eu199 2.471 1_565 S
O213 C228 1.244 1_565 S
O214 Eu199 2.349 1_565 S
O214 C215 1.265 . S
C215 O211 1.244 1_554 S
C215 O214 1.265 . S
O216 Eu198 2.373 1_545 S
O216 C229 1.258 . S
O217 Eu199 2.392 . S
O217 C229 1.242 1_554 S
O218 Eu199 2.418 . S
O218 C200 1.244 . S
O219 Eu198 2.488 . S
O219 C207 1.249 1_565 S
O220 Eu198 2.471 1_545 S
O220 C207 1.244 . S
O221 Eu198 2.349 1_545 S
O221 C200 1.265 1_556 S
C222 C223 1.379 . S
C222 C226 1.373 1_565 S
C222 C228 1.505 1_565 S
C223 C222 1.379 . S
C223 C225 1.369 . S
C223 H234 0.930 . S
C224 C226 1.383 . S
C224 C227 1.382 1_545 S
C224 H235 0.930 . S
C225 C223 1.369 . S
C225 C227 1.392 . S
C225 H236 0.930 . S
C226 C222 1.373 1_545 S
C226 C224 1.383 . S
C226 H237 0.931 . S
C227 C224 1.382 1_565 S
C227 C225 1.392 . S
C228 Eu199 2.828 . S
C228 O212 1.249 . S
C228 O213 1.244 1_545 S
C228 C222 1.505 1_545 S
C229 O216 1.258 . S
C229 O217 1.242 1_556 S
H230 C202 0.930 . S
H231 C203 0.930 1_565 S
H232 C204 0.930 . S
H233 C205 0.931 . S
H234 C223 0.930 . S
H235 C224 0.930 . S
H236 C225 0.930 . S
H237 C226 0.931 . S
Eu238 C247 2.825 1_455 S
Eu238 O249 2.392 1_556 S
Eu238 O251 2.418 . S
Eu238 O256 2.373 1_455 S
Eu238 O259 2.488 . S
Eu238 O260 2.471 1_455 S
Eu238 O261 2.349 1_455 S
Eu239 O248 2.373 1_655 S
Eu239 O252 2.488 . S
Eu239 O253 2.471 1_655 S
Eu239 O254 2.349 1_655 S
Eu239 O257 2.392 . S
Eu239 O258 2.418 . S
Eu239 C268 2.828 1_655 S
C240 O258 1.244 . S
C240 O261 1.265 1_554 S
C241 C242 1.379 . S
C241 C245 1.373 1_655 S
C241 C247 1.508 . S
C242 C241 1.379 . S
C242 C244 1.369 . S
C242 H270 0.930 . S
C243 C245 1.383 1_655 S
C243 C246 1.382 . S
C243 H271 0.930 1_655 S
C244 C242 1.369 . S
C244 C246 1.392 . S
C244 H272 0.930 . S
C245 C241 1.373 1_455 S
C245 C243 1.383 1_455 S
C245 H273 0.931 . S
C246 C243 1.382 . S
C246 C244 1.392 . S
C247 Eu238 2.825 1_655 S
C247 C241 1.508 . S
C247 O259 1.246 1_655 S
C247 O260 1.245 . S
O248 Eu239 2.373 1_455 S
O248 C250 1.258 . S
O249 Eu238 2.392 1_554 S
O249 C250 1.242 . S
C250 O248 1.258 . S
C250 O249 1.242 . S
O251 Eu238 2.418 . S
O251 C255 1.244 1_556 S
O252 Eu239 2.488 . S
O252 C268 1.249 1_655 S
O253 Eu239 2.471 1_455 S
O253 C268 1.244 . S
O254 Eu239 2.349 1_455 S
O254 C255 1.265 . S
C255 O251 1.244 1_554 S
C255 O254 1.265 . S
O256 Eu238 2.373 1_655 S
O256 C269 1.258 . S
O257 Eu239 2.392 . S
O257 C269 1.242 1_554 S
O258 Eu239 2.418 . S
O258 C240 1.244 . S
O259 Eu238 2.488 . S
O259 C247 1.246 1_455 S
O260 Eu238 2.471 1_655 S
O260 C247 1.245 . S
O261 Eu238 2.349 1_655 S
O261 C240 1.265 1_556 S
C262 C263 1.379 . S
C262 C266 1.368 1_455 S
C262 C268 1.505 . S
C263 C262 1.379 . S
C263 C265 1.369 . S
C263 H274 0.930 . S
C264 C266 1.377 1_455 S
C264 C267 1.382 . S
C264 H275 0.930 1_455 S
C265 C263 1.369 . S
C265 C267 1.392 . S
C265 H276 0.930 . S
C266 C262 1.368 1_655 S
C266 C264 1.377 1_655 S
C266 H277 0.942 . S
C267 C264 1.382 . S
C267 C265 1.392 . S
C268 Eu239 2.828 1_455 S
C268 O252 1.249 1_455 S
C268 O253 1.244 . S
C268 C262 1.505 . S
C269 O256 1.258 . S
C269 O257 1.242 1_556 S
H270 C242 0.930 . S
H271 C243 0.930 1_455 S
H272 C244 0.930 . S
H273 C245 0.931 . S
H274 C263 0.930 . S
H275 C264 0.930 1_655 S
H276 C265 0.930 . S
H277 C266 0.942 . S
Eu278 C287 2.828 . S
Eu278 O289 2.392 . S
Eu278 O291 2.418 . S
Eu278 O296 2.373 . S
Eu278 O299 2.488 . S
Eu278 O300 2.471 . S
Eu278 O301 2.349 . S
Eu279 O288 2.373 . S
Eu279 O292 2.488 . S
Eu279 O293 2.471 . S
Eu279 O294 2.345 1_556 S
Eu279 O297 2.392 1_556 S
Eu279 O298 2.418 . S
Eu279 C308 2.828 . S
C280 O298 1.244 1_554 S
C280 O301 1.265 . S
C281 C282 1.379 . S
C281 C285 1.373 . S
C281 C287 1.505 . S
C282 C281 1.379 . S
C282 C284 1.369 . S
C282 H310 0.930 . S
C283 C285 1.383 . S
C283 C286 1.382 . S
C283 H311 0.930 . S
C284 C282 1.369 . S
C284 C286 1.392 . S
C284 H312 0.930 . S
C285 C281 1.373 . S
C285 C283 1.383 . S
C285 H313 0.931 . S
C286 C283 1.382 . S
C286 C284 1.392 . S
C287 Eu278 2.828 . S
C287 C281 1.505 . S
C287 O299 1.249 . S
C287 O300 1.244 . S
O288 Eu279 2.373 . S
O288 C290 1.258 . S
O289 Eu278 2.392 . S
O289 C290 1.242 1_554 S
C290 O288 1.258 . S
C290 O289 1.242 1_556 S
O291 Eu278 2.418 . S
O291 C295 1.244 . S
O292 Eu279 2.488 . S
O292 C308 1.249 . S
O293 Eu279 2.471 . S
O293 C308 1.244 . S
O294 Eu279 2.345 1_554 S
O294 C295 1.269 . S
C295 O291 1.244 . S
C295 O294 1.269 . S
O296 Eu278 2.373 . S
O296 C309 1.258 . S
O297 Eu279 2.392 1_554 S
O297 C309 1.242 . S
O298 Eu279 2.418 . S
O298 C280 1.244 1_556 S
O299 Eu278 2.488 . S
O299 C287 1.249 . S
O300 Eu278 2.471 . S
O300 C287 1.244 . S
O301 Eu278 2.349 . S
O301 C280 1.265 . S
C302 C303 1.379 . S
C302 C306 1.373 . S
C302 C308 1.505 . S
C303 C302 1.379 . S
C303 C305 1.369 . S
C303 H314 0.930 . S
C304 C306 1.383 . S
C304 C307 1.382 . S
C304 H315 0.930 . S
C305 C303 1.369 . S
C305 C307 1.392 . S
C305 H316 0.930 . S
C306 C302 1.373 . S
C306 C304 1.383 . S
C306 H317 0.931 . S
C307 C304 1.382 . S
C307 C305 1.392 . S
C308 Eu279 2.828 . S
C308 O292 1.249 . S
C308 O293 1.244 . S
C308 C302 1.505 . S
C309 O296 1.258 . S
C309 O297 1.242 . S
H310 C282 0.930 . S
H311 C283 0.930 . S
H312 C284 0.930 . S
H313 C285 0.931 . S
H314 C303 0.930 . S
H315 C304 0.930 . S
H316 C305 0.930 . S
H317 C306 0.931 . S
Eu318 C327 2.828 . S
Eu318 O329 2.392 . S
Eu318 O331 2.418 . S
Eu318 O336 2.373 . S
Eu318 O339 2.488 . S
Eu318 O340 2.471 . S
Eu318 O341 2.349 . S
Eu319 O328 2.373 . S
Eu319 O332 2.488 . S
Eu319 O333 2.471 . S
Eu319 O334 2.349 . S
Eu319 O337 2.392 . S
Eu319 O338 2.418 . S
Eu319 C348 2.828 . S
C320 O338 1.244 . S
C320 O341 1.265 . S
C321 C322 1.379 . S
C321 C325 1.373 . S
C321 C327 1.505 . S
C322 C321 1.379 . S
C322 C324 1.369 . S
C322 H350 0.930 . S
C323 C325 1.383 . S
C323 C326 1.382 . S
C323 H351 0.930 . S
C324 C322 1.369 . S
C324 C326 1.392 . S
C324 H352 0.930 . S
C325 C321 1.373 . S
C325 C323 1.383 . S
C325 H353 0.931 . S
C326 C323 1.382 . S
C326 C324 1.392 . S
C327 Eu318 2.828 . S
C327 C321 1.505 . S
C327 O339 1.249 . S
C327 O340 1.244 . S
O328 Eu319 2.373 . S
O328 C330 1.258 . S
O329 Eu318 2.392 . S
O329 C330 1.242 . S
C330 O328 1.258 . S
C330 O329 1.242 . S
O331 Eu318 2.418 . S
O331 C335 1.244 . S
O332 Eu319 2.488 . S
O332 C348 1.249 . S
O333 Eu319 2.471 . S
O333 C348 1.244 . S
O334 Eu319 2.349 . S
O334 C335 1.265 . S
C335 O331 1.244 . S
C335 O334 1.265 . S
O336 Eu318 2.373 . S
O336 C349 1.258 . S
O337 Eu319 2.392 . S
O337 C349 1.242 . S
O338 Eu319 2.418 . S
O338 C320 1.244 . S
O339 Eu318 2.488 . S
O339 C327 1.249 . S
O340 Eu318 2.471 . S
O340 C327 1.244 . S
O341 Eu318 2.349 . S
O341 C320 1.265 . S
C342 C343 1.379 . S
C342 C346 1.373 . S
C342 C348 1.505 . S
C343 C342 1.379 . S
C343 C345 1.369 . S
C343 H354 0.930 . S
C344 C346 1.383 . S
C344 C347 1.382 . S
C344 H355 0.930 . S
C345 C343 1.369 . S
C345 C347 1.392 . S
C345 H356 0.930 . S
C346 C342 1.373 . S
C346 C344 1.383 . S
C346 H357 0.931 . S
C347 C344 1.382 . S
C347 C345 1.392 . S
C348 Eu319 2.828 . S
C348 O332 1.249 . S
C348 O333 1.244 . S
C348 C342 1.505 . S
C349 O336 1.258 . S
C349 O337 1.242 . S
H350 C322 0.930 . S
H351 C323 0.930 . S
H352 C324 0.930 . S
H353 C325 0.931 . S
H354 C343 0.930 . S
H355 C344 0.930 . S
H356 C345 0.930 . S
H357 C346 0.931 . S
Eu358 C367 2.828 . S
Eu358 O369 2.392 . S
Eu358 O371 2.418 . S
Eu358 O376 2.373 . S
Eu358 O379 2.488 . S
Eu358 O380 2.471 . S
Eu358 O381 2.349 . S
Eu359 O368 2.373 . S
Eu359 O372 2.488 . S
Eu359 O373 2.471 . S
Eu359 O374 2.349 . S
Eu359 O377 2.392 . S
Eu359 O378 2.418 . S
Eu359 C388 2.828 . S
C360 O378 1.244 . S
C360 O381 1.265 . S
C361 C362 1.379 . S
C361 C365 1.373 . S
C361 C367 1.505 . S
C362 C361 1.379 . S
C362 C364 1.369 . S
C362 H390 0.930 . S
C363 C365 1.383 . S
C363 C366 1.382 . S
C363 H391 0.930 . S
C364 C362 1.369 . S
C364 C366 1.392 . S
C364 H392 0.930 . S
C365 C361 1.373 . S
C365 C363 1.383 . S
C365 H393 0.931 . S
C366 C363 1.382 . S
C366 C364 1.392 . S
C367 Eu358 2.828 . S
C367 C361 1.505 . S
C367 O379 1.249 . S
C367 O380 1.244 . S
O368 Eu359 2.373 . S
O368 C370 1.258 . S
O369 Eu358 2.392 . S
O369 C370 1.242 . S
C370 O368 1.258 . S
C370 O369 1.242 . S
O371 Eu358 2.418 . S
O371 C375 1.244 . S
O372 Eu359 2.488 . S
O372 C388 1.249 . S
O373 Eu359 2.471 . S
O373 C388 1.244 . S
O374 Eu359 2.349 . S
O374 C375 1.265 . S
C375 O371 1.244 . S
C375 O374 1.265 . S
O376 Eu358 2.373 . S
O376 C389 1.258 . S
O377 Eu359 2.392 . S
O377 C389 1.242 . S
O378 Eu359 2.418 . S
O378 C360 1.244 . S
O379 Eu358 2.488 . S
O379 C367 1.249 . S
O380 Eu358 2.471 . S
O380 C367 1.244 . S
O381 Eu358 2.349 . S
O381 C360 1.265 . S
C382 C383 1.379 . S
C382 C386 1.373 . S
C382 C388 1.505 . S
C383 C382 1.379 . S
C383 C385 1.369 . S
C383 H394 0.930 . S
C384 C386 1.383 . S
C384 C387 1.382 . S
C384 H395 0.930 . S
C385 C383 1.369 . S
C385 C387 1.392 . S
C385 H396 0.930 . S
C386 C382 1.373 . S
C386 C384 1.383 . S
C386 H397 0.931 . S
C387 C384 1.382 . S
C387 C385 1.392 . S
C388 Eu359 2.828 . S
C388 O372 1.249 . S
C388 O373 1.244 . S
C388 C382 1.505 . S
C389 O376 1.258 . S
C389 O377 1.242 . S
H390 C362 0.930 . S
H391 C363 0.930 . S
H392 C364 0.930 . S
H393 C365 0.931 . S
H394 C383 0.930 . S
H395 C384 0.930 . S
H396 C385 0.930 . S
H397 C386 0.931 . S
Eu398 C407 2.828 . S
Eu398 O409 2.392 . S
Eu398 O411 2.418 . S
Eu398 O416 2.373 . S
Eu398 O419 2.488 . S
Eu398 O420 2.471 . S
Eu398 O421 2.349 . S
Eu399 O408 2.373 . S
Eu399 O412 2.488 . S
Eu399 O413 2.471 . S
Eu399 O414 2.349 . S
Eu399 O417 2.392 . S
Eu399 O418 2.418 . S
Eu399 C428 2.828 . S
C400 O418 1.244 . S
C400 O421 1.265 . S
C401 C402 1.379 . S
C401 C405 1.373 . S
C401 C407 1.505 . S
C402 C401 1.379 . S
C402 C404 1.369 . S
C402 H430 0.930 . S
C403 C405 1.383 . S
C403 C406 1.382 . S
C403 H431 0.930 . S
C404 C402 1.369 . S
C404 C406 1.392 . S
C404 H432 0.930 . S
C405 C401 1.373 . S
C405 C403 1.383 . S
C405 H433 0.931 . S
C406 C403 1.382 . S
C406 C404 1.392 . S
C407 Eu398 2.828 . S
C407 C401 1.505 . S
C407 O419 1.249 . S
C407 O420 1.244 . S
O408 Eu399 2.373 . S
O408 C410 1.258 . S
O409 Eu398 2.392 . S
O409 C410 1.242 . S
C410 O408 1.258 . S
C410 O409 1.242 . S
O411 Eu398 2.418 . S
O411 C415 1.244 . S
O412 Eu399 2.488 . S
O412 C428 1.249 . S
O413 Eu399 2.471 . S
O413 C428 1.244 . S
O414 Eu399 2.349 . S
O414 C415 1.265 . S
C415 O411 1.244 . S
C415 O414 1.265 . S
O416 Eu398 2.373 . S
O416 C429 1.258 . S
O417 Eu399 2.392 . S
O417 C429 1.242 . S
O418 Eu399 2.418 . S
O418 C400 1.244 . S
O419 Eu398 2.488 . S
O419 C407 1.249 . S
O420 Eu398 2.471 . S
O420 C407 1.244 . S
O421 Eu398 2.349 . S
O421 C400 1.265 . S
C422 C423 1.379 . S
C422 C426 1.373 . S
C422 C428 1.505 . S
C423 C422 1.379 . S
C423 C425 1.369 . S
C423 H434 0.930 . S
C424 C426 1.383 . S
C424 C427 1.382 . S
C424 H435 0.930 . S
C425 C423 1.369 . S
C425 C427 1.392 . S
C425 H436 0.930 . S
C426 C422 1.373 . S
C426 C424 1.383 . S
C426 H437 0.931 . S
C427 C424 1.382 . S
C427 C425 1.392 . S
C428 Eu399 2.828 . S
C428 O412 1.249 . S
C428 O413 1.244 . S
C428 C422 1.505 . S
C429 O416 1.258 . S
C429 O417 1.242 . S
H430 C402 0.930 . S
H431 C403 0.930 . S
H432 C404 0.930 . S
H433 C405 0.931 . S
H434 C423 0.930 . S
H435 C424 0.930 . S
H436 C425 0.930 . S
H437 C426 0.931 . S
Eu438 C447 2.828 . S
Eu438 O449 2.392 . S
Eu438 O451 2.418 . S
Eu438 O456 2.373 . S
Eu438 O459 2.488 . S
Eu438 O460 2.471 . S
Eu438 O461 2.349 . S
Eu439 O448 2.373 . S
Eu439 O452 2.488 . S
Eu439 O453 2.471 . S
Eu439 O454 2.349 . S
Eu439 O457 2.392 . S
Eu439 O458 2.418 . S
Eu439 C468 2.828 . S
C440 O458 1.244 . S
C440 O461 1.265 . S
C441 C442 1.379 . S
C441 C445 1.373 . S
C441 C447 1.505 . S
C442 C441 1.379 . S
C442 C444 1.369 . S
C442 H470 0.930 . S
C443 C445 1.383 . S
C443 C446 1.382 . S
C443 H471 0.930 . S
C444 C442 1.369 . S
C444 C446 1.392 . S
C444 H472 0.930 . S
C445 C441 1.373 . S
C445 C443 1.383 . S
C445 H473 0.931 . S
C446 C443 1.382 . S
C446 C444 1.392 . S
C447 Eu438 2.828 . S
C447 C441 1.505 . S
C447 O459 1.249 . S
C447 O460 1.244 . S
O448 Eu439 2.373 . S
O448 C450 1.258 . S
O449 Eu438 2.392 . S
O449 C450 1.242 . S
C450 O448 1.258 . S
C450 O449 1.242 . S
O451 Eu438 2.418 . S
O451 C455 1.244 . S
O452 Eu439 2.488 . S
O452 C468 1.249 . S
O453 Eu439 2.471 . S
O453 C468 1.244 . S
O454 Eu439 2.349 . S
O454 C455 1.265 . S
C455 O451 1.244 . S
C455 O454 1.265 . S
O456 Eu438 2.373 . S
O456 C469 1.258 . S
O457 Eu439 2.392 . S
O457 C469 1.242 . S
O458 Eu439 2.418 . S
O458 C440 1.244 . S
O459 Eu438 2.488 . S
O459 C447 1.249 . S
O460 Eu438 2.471 . S
O460 C447 1.244 . S
O461 Eu438 2.349 . S
O461 C440 1.265 . S
C462 C463 1.379 . S
C462 C466 1.373 . S
C462 C468 1.505 . S
C463 C462 1.379 . S
C463 C465 1.369 . S
C463 H474 0.930 . S
C464 C466 1.383 . S
C464 C467 1.382 . S
C464 H475 0.930 . S
C465 C463 1.369 . S
C465 C467 1.392 . S
C465 H476 0.930 . S
C466 C462 1.373 . S
C466 C464 1.383 . S
C466 H477 0.931 . S
C467 C464 1.382 . S
C467 C465 1.392 . S
C468 Eu439 2.828 . S
C468 O452 1.249 . S
C468 O453 1.244 . S
C468 C462 1.505 . S
C469 O456 1.258 . S
C469 O457 1.242 . S
H470 C442 0.930 . S
H471 C443 0.930 . S
H472 C444 0.930 . S
H473 C445 0.931 . S
H474 C463 0.930 . S
H475 C464 0.930 . S
H476 C465 0.930 . S
H477 C466 0.931 . S
Eu478 C487 2.828 . S
Eu478 O489 2.392 . S
Eu478 O491 2.418 . S
Eu478 O496 2.373 . S
Eu478 O499 2.488 . S
Eu478 O500 2.471 . S
Eu478 O501 2.349 . S
Eu479 O488 2.373 . S
Eu479 O492 2.488 . S
Eu479 O493 2.471 . S
Eu479 O494 2.349 . S
Eu479 O497 2.392 . S
Eu479 O498 2.418 . S
Eu479 C508 2.828 . S
C480 O498 1.244 . S
C480 O501 1.265 . S
C481 C482 1.379 . S
C481 C485 1.373 . S
C481 C487 1.505 . S
C482 C481 1.379 . S
C482 C484 1.369 . S
C482 H510 0.930 . S
C483 C485 1.383 . S
C483 C486 1.382 . S
C483 H511 0.930 . S
C484 C482 1.369 . S
C484 C486 1.392 . S
C484 H512 0.930 . S
C485 C481 1.373 . S
C485 C483 1.383 . S
C485 H513 0.931 . S
C486 C483 1.382 . S
C486 C484 1.392 . S
C487 Eu478 2.828 . S
C487 C481 1.505 . S
C487 O499 1.249 . S
C487 O500 1.244 . S
O488 Eu479 2.373 . S
O488 C490 1.258 . S
O489 Eu478 2.392 . S
O489 C490 1.242 . S
C490 O488 1.258 . S
C490 O489 1.242 . S
O491 Eu478 2.418 . S
O491 C495 1.244 . S
O492 Eu479 2.488 . S
O492 C508 1.249 . S
O493 Eu479 2.471 . S
O493 C508 1.244 . S
O494 Eu479 2.349 . S
O494 C495 1.265 . S
C495 O491 1.244 . S
C495 O494 1.265 . S
O496 Eu478 2.373 . S
O496 C509 1.258 . S
O497 Eu479 2.392 . S
O497 C509 1.242 . S
O498 Eu479 2.418 . S
O498 C480 1.244 . S
O499 Eu478 2.488 . S
O499 C487 1.249 . S
O500 Eu478 2.471 . S
O500 C487 1.244 . S
O501 Eu478 2.349 . S
O501 C480 1.265 . S
C502 C503 1.379 . S
C502 C506 1.373 . S
C502 C508 1.505 . S
C503 C502 1.379 . S
C503 C505 1.369 . S
C503 H514 0.930 . S
C504 C506 1.383 . S
C504 C507 1.382 . S
C504 H515 0.930 . S
C505 C503 1.369 . S
C505 C507 1.392 . S
C505 H516 0.930 . S
C506 C502 1.373 . S
C506 C504 1.383 . S
C506 H517 0.931 . S
C507 C504 1.382 . S
C507 C505 1.392 . S
C508 Eu479 2.828 . S
C508 O492 1.249 . S
C508 O493 1.244 . S
C508 C502 1.505 . S
C509 O496 1.258 . S
C509 O497 1.242 . S
H510 C482 0.930 . S
H511 C483 0.930 . S
H512 C484 0.930 . S
H513 C485 0.931 . S
H514 C503 0.930 . S
H515 C504 0.930 . S
H516 C505 0.930 . S
H517 C506 0.931 . S
Eu518 C527 2.828 . S
Eu518 O529 2.392 . S
Eu518 O531 2.418 . S
Eu518 O536 2.373 . S
Eu518 O539 2.488 . S
Eu518 O540 2.471 . S
Eu518 O541 2.349 . S
Eu519 O528 2.373 . S
Eu519 O532 2.488 . S
Eu519 O533 2.471 . S
Eu519 O534 2.349 . S
Eu519 O537 2.392 . S
Eu519 O538 2.418 . S
Eu519 C548 2.828 . S
C520 O538 1.244 . S
C520 O541 1.265 . S
C521 C522 1.379 . S
C521 C525 1.373 . S
C521 C527 1.505 . S
C522 C521 1.379 . S
C522 C524 1.369 . S
C522 H550 0.930 . S
C523 C525 1.383 . S
C523 C526 1.382 . S
C523 H551 0.930 . S
C524 C522 1.369 . S
C524 C526 1.392 . S
C524 H552 0.930 . S
C525 C521 1.373 . S
C525 C523 1.383 . S
C525 H553 0.931 . S
C526 C523 1.382 . S
C526 C524 1.392 . S
C527 Eu518 2.828 . S
C527 C521 1.505 . S
C527 O539 1.249 . S
C527 O540 1.244 . S
O528 Eu519 2.373 . S
O528 C530 1.258 . S
O529 Eu518 2.392 . S
O529 C530 1.242 . S
C530 O528 1.258 . S
C530 O529 1.242 . S
O531 Eu518 2.418 . S
O531 C535 1.244 . S
O532 Eu519 2.488 . S
O532 C548 1.249 . S
O533 Eu519 2.471 . S
O533 C548 1.244 . S
O534 Eu519 2.349 . S
O534 C535 1.265 . S
C535 O531 1.244 . S
C535 O534 1.265 . S
O536 Eu518 2.373 . S
O536 C549 1.258 . S
O537 Eu519 2.392 . S
O537 C549 1.242 . S
O538 Eu519 2.418 . S
O538 C520 1.244 . S
O539 Eu518 2.488 . S
O539 C527 1.249 . S
O540 Eu518 2.471 . S
O540 C527 1.244 . S
O541 Eu518 2.349 . S
O541 C520 1.265 . S
C542 C543 1.379 . S
C542 C546 1.373 . S
C542 C548 1.505 . S
C543 C542 1.379 . S
C543 C545 1.369 . S
C543 H554 0.930 . S
C544 C546 1.383 . S
C544 C547 1.382 . S
C544 H555 0.930 . S
C545 C543 1.369 . S
C545 C547 1.392 . S
C545 H556 0.930 . S
C546 C542 1.373 . S
C546 C544 1.383 . S
C546 H557 0.931 . S
C547 C544 1.382 . S
C547 C545 1.392 . S
C548 Eu519 2.828 . S
C548 O532 1.249 . S
C548 O533 1.244 . S
C548 C542 1.505 . S
C549 O536 1.258 . S
C549 O537 1.242 . S
H550 C522 0.930 . S
H551 C523 0.930 . S
H552 C524 0.930 . S
H553 C525 0.931 . S
H554 C543 0.930 . S
H555 C544 0.930 . S
H556 C545 0.930 . S
H557 C546 0.931 . S
H558 C566 0.950 . S
H559 C571 0.950 . S
H560 C568 0.950 . S
H561 C570 0.950 . S
H562 C572 0.950 . S
H563 C574 0.950 . S
H564 C576 0.950 . S
H565 C577 0.950 . S
C566 H558 0.950 . S
C566 C567 1.386 . S
C566 C568 1.391 . S
C567 C566 1.386 . S
C567 C571 1.393 . S
C568 H560 0.950 . S
C568 C566 1.391 . S
C568 C569 1.400 . S
C569 C568 1.400 . S
C569 C570 1.398 . S
C569 C575 1.491 . S
C570 H561 0.950 . S
C570 C569 1.398 . S
C570 C571 1.391 . S
C571 H559 0.950 . S
C571 C567 1.393 . S
C571 C570 1.391 . S
C572 H562 0.950 . S
C572 C573 1.386 . S
C572 C574 1.391 . S
C573 C572 1.386 . S
C573 C577 1.393 . S
C574 H563 0.950 . S
C574 C572 1.391 . S
C574 C575 1.400 . S
C575 C569 1.491 . S
C575 C574 1.400 . S
C575 C576 1.398 . S
C576 H564 0.950 . S
C576 C575 1.398 . S
C576 C577 1.391 . S
C577 H565 0.950 . S
C577 C573 1.393 . S
C577 C576 1.391 . S
H578 C586 0.950 . S
H579 C591 0.950 . S
H580 C588 0.950 . S
H581 C590 0.950 . S
H582 C592 0.950 . S
H583 C594 0.950 . S
H584 C596 0.950 . S
H585 C597 0.950 . S
C586 H578 0.950 . S
C586 C587 1.386 . S
C586 C588 1.391 . S
C587 C586 1.386 . S
C587 C591 1.393 . S
C588 H580 0.950 . S
C588 C586 1.391 . S
C588 C589 1.400 . S
C589 C588 1.400 . S
C589 C590 1.398 . S
C589 C595 1.491 . S
C590 H581 0.950 . S
C590 C589 1.398 . S
C590 C591 1.391 . S
C591 H579 0.950 . S
C591 C587 1.393 . S
C591 C590 1.391 . S
C592 H582 0.950 . S
C592 C593 1.386 . S
C592 C594 1.391 . S
C593 C592 1.386 . S
C593 C597 1.393 . S
C594 H583 0.950 . S
C594 C592 1.391 . S
C594 C595 1.400 . S
C595 C589 1.491 . S
C595 C594 1.400 . S
C595 C596 1.398 . S
C596 H584 0.950 . S
C596 C595 1.398 . S
C596 C597 1.391 . S
C597 H585 0.950 . S
C597 C593 1.393 . S
C597 C596 1.391 . S
H598 C606 0.950 . S
H599 C611 0.950 . S
H600 C608 0.950 . S
H601 C610 0.950 . S
H602 C612 0.950 1_556 S
H603 C614 0.966 . S
H604 C616 0.950 . S
H605 C617 0.950 . S
C606 H598 0.950 . S
C606 C607 1.386 . S
C606 C608 1.391 . S
C607 C606 1.386 . S
C607 C611 1.393 . S
C608 H600 0.950 . S
C608 C606 1.391 . S
C608 C609 1.400 . S
C609 C608 1.400 . S
C609 C610 1.398 . S
C609 C615 1.491 . S
C610 H601 0.950 . S
C610 C609 1.398 . S
C610 C611 1.391 . S
C611 H599 0.950 . S
C611 C607 1.393 . S
C611 C610 1.391 . S
C612 H602 0.950 1_554 S
C612 C613 1.386 . S
C612 C614 1.391 . S
C613 C612 1.386 . S
C613 C617 1.393 . S
C614 H603 0.966 . S
C614 C612 1.391 . S
C614 C615 1.400 . S
C615 C609 1.491 . S
C615 C614 1.400 . S
C615 C616 1.398 . S
C616 H604 0.950 . S
C616 C615 1.398 . S
C616 C617 1.391 . S
C617 H605 0.950 . S
C617 C613 1.393 . S
C617 C616 1.391 . S
H618 C626 0.950 . S
H619 C631 0.950 . S
H620 C628 0.950 . S
H621 C630 0.950 . S
H622 C632 0.950 . S
H623 C634 0.950 1_554 S
H624 C636 0.950 . S
H625 C637 0.950 . S
C626 H618 0.950 . S
C626 C627 1.386 . S
C626 C628 1.391 . S
C627 C626 1.386 . S
C627 C631 1.393 . S
C628 H620 0.950 . S
C628 C626 1.391 . S
C628 C629 1.400 . S
C629 C628 1.400 . S
C629 C630 1.398 . S
C629 C635 1.491 . S
C630 H621 0.950 . S
C630 C629 1.398 . S
C630 C631 1.391 . S
C631 H619 0.950 . S
C631 C627 1.393 . S
C631 C630 1.391 . S
C632 H622 0.950 . S
C632 C633 1.386 1_554 S
C632 C634 1.391 1_554 S
C633 C632 1.386 1_556 S
C633 C637 1.393 . S
C634 H623 0.950 1_556 S
C634 C632 1.391 1_556 S
C634 C635 1.400 . S
C635 C629 1.491 . S
C635 C634 1.400 . S
C635 C636 1.398 . S
C636 H624 0.950 . S
C636 C635 1.398 . S
C636 C637 1.391 . S
C637 H625 0.950 . S
C637 C633 1.393 . S
C637 C636 1.391 . S
H638 C646 0.950 . S
H639 C651 0.950 . S
H640 C648 0.950 . S
H641 C650 0.950 . S
H642 C652 0.950 1_554 S
H643 C654 0.950 . S
H644 C656 0.950 . S
H645 C657 0.950 . S
C646 H638 0.950 . S
C646 C647 1.386 . S
C646 C648 1.391 . S
C647 C646 1.386 . S
C647 C651 1.393 . S
C648 H640 0.950 . S
C648 C646 1.391 . S
C648 C649 1.400 . S
C649 C648 1.400 . S
C649 C650 1.398 . S
C649 C655 1.491 . S
C650 H641 0.950 . S
C650 C649 1.398 . S
C650 C651 1.391 . S
C651 H639 0.950 . S
C651 C647 1.393 . S
C651 C650 1.391 . S
C652 H642 0.950 1_556 S
C652 C653 1.386 . S
C652 C654 1.391 . S
C653 C652 1.386 . S
C653 C657 1.393 . S
C654 H643 0.950 . S
C654 C652 1.391 . S
C654 C655 1.400 . S
C655 C649 1.491 . S
C655 C654 1.400 . S
C655 C656 1.398 . S
C656 H644 0.950 . S
C656 C655 1.398 . S
C656 C657 1.391 . S
C657 H645 0.950 . S
C657 C653 1.393 . S
C657 C656 1.391 . S
H658 C666 0.950 . S
H659 C671 0.950 1_554 S
H660 C668 0.950 . S
H661 C670 0.950 1_554 S
H662 C672 0.950 . S
H663 C674 0.950 . S
H664 C676 0.950 . S
H665 C677 0.950 . S
C666 H658 0.950 . S
C666 C667 1.386 . S
C666 C668 1.391 . S
C667 C666 1.386 . S
C667 C671 1.393 . S
C668 H660 0.950 . S
C668 C666 1.391 . S
C668 C669 1.400 . S
C669 C668 1.400 . S
C669 C670 1.398 . S
C669 C675 1.491 . S
C670 H661 0.950 1_556 S
C670 C669 1.398 . S
C670 C671 1.391 . S
C671 H659 0.950 1_556 S
C671 C667 1.393 . S
C671 C670 1.391 . S
C672 H662 0.950 . S
C672 C673 1.358 1_554 S
C672 C674 1.391 . S
C673 C672 1.358 1_556 S
C673 C677 1.434 . S
C674 H663 0.950 . S
C674 C672 1.391 . S
C674 C675 1.400 1_554 S
C675 C669 1.491 . S
C675 C674 1.400 1_556 S
C675 C676 1.398 . S
C676 H664 0.950 . S
C676 C675 1.398 . S
C676 C677 1.391 . S
C677 H665 0.950 . S
C677 C673 1.434 . S
C677 C676 1.391 . S
H678 C686 0.950 . S
H679 C691 0.950 . S
H680 C688 0.950 . S
H681 C690 0.950 1_554 S
H682 C692 0.950 . S
H683 C694 0.954 1_554 S
H684 C696 0.950 . S
H685 C697 0.950 . S
C686 H678 0.950 . S
C686 C687 1.386 . S
C686 C688 1.391 . S
C687 C686 1.386 . S
C687 C691 1.393 . S
C688 H680 0.950 . S
C688 C686 1.391 . S
C688 C689 1.400 . S
C689 C688 1.400 . S
C689 C690 1.398 . S
C689 C695 1.491 . S
C690 H681 0.950 1_556 S
C690 C689 1.398 . S
C690 C691 1.391 . S
C691 H679 0.950 . S
C691 C687 1.393 . S
C691 C690 1.391 . S
C692 H682 0.950 . S
C692 C693 1.386 1_554 S
C692 C694 1.393 1_554 S
C693 C692 1.386 1_556 S
C693 C697 1.393 . S
C694 H683 0.954 1_556 S
C694 C692 1.393 1_556 S
C694 C695 1.394 . S
C695 C689 1.491 . S
C695 C694 1.394 . S
C695 C696 1.398 . S
C696 H684 0.950 . S
C696 C695 1.398 . S
C696 C697 1.391 . S
C697 H685 0.950 . S
C697 C693 1.393 . S
C697 C696 1.391 . S
H698 C706 0.950 . S
H699 C711 0.950 . S
H700 C708 0.950 . S
H701 C710 0.950 . S
H702 C712 0.950 . S
H703 C714 0.950 . S
H704 C716 0.950 . S
H705 C717 0.950 . S
C706 H698 0.950 . S
C706 C707 1.386 . S
C706 C708 1.391 . S
C707 C706 1.386 . S
C707 C711 1.393 . S
C708 H700 0.950 . S
C708 C706 1.391 . S
C708 C709 1.400 . S
C709 C708 1.400 . S
C709 C710 1.398 . S
C709 C715 1.491 . S
C710 H701 0.950 . S
C710 C709 1.398 . S
C710 C711 1.391 . S
C711 H699 0.950 . S
C711 C707 1.393 . S
C711 C710 1.391 . S
C712 H702 0.950 . S
C712 C713 1.386 . S
C712 C714 1.391 . S
C713 C712 1.386 . S
C713 C717 1.393 . S
C714 H703 0.950 . S
C714 C712 1.391 . S
C714 C715 1.400 . S
C715 C709 1.491 . S
C715 C714 1.400 . S
C715 C716 1.398 . S
C716 H704 0.950 . S
C716 C715 1.398 . S
C716 C717 1.391 . S
C717 H705 0.950 . S
C717 C713 1.393 . S
C717 C716 1.391 . S
H718 C726 0.950 . S
H719 C731 0.950 . S
H720 C728 0.950 . S
H721 C730 0.950 . S
H722 C732 0.950 . S
H723 C734 0.950 . S
H724 C736 0.950 . S
H725 C737 0.950 . S
C726 H718 0.950 . S
C726 C727 1.386 . S
C726 C728 1.391 . S
C727 C726 1.386 . S
C727 C731 1.393 1_556 S
C728 H720 0.950 . S
C728 C726 1.391 . S
C728 C729 1.400 . S
C729 C728 1.400 . S
C729 C730 1.398 1_556 S
C729 C735 1.491 . S
C730 H721 0.950 . S
C730 C729 1.398 1_554 S
C730 C731 1.391 . S
C731 H719 0.950 . S
C731 C727 1.393 1_554 S
C731 C730 1.391 . S
C732 H722 0.950 . S
C732 C733 1.430 . S
C732 C734 1.391 . S
C733 C732 1.430 . S
C733 C737 1.349 1_554 S
C734 H723 0.950 . S
C734 C732 1.391 . S
C734 C735 1.400 1_554 S
C735 C729 1.491 . S
C735 C734 1.400 1_556 S
C735 C736 1.398 . S
C736 H724 0.950 . S
C736 C735 1.398 . S
C736 C737 1.391 . S
C737 H725 0.950 . S
C737 C733 1.349 1_556 S
C737 C736 1.391 . S
H738 C746 0.950 . S
H739 C751 0.950 . S
H740 C748 0.950 . S
H741 C750 0.950 . S
H742 C752 0.950 1_556 S
H743 C754 0.950 . S
H744 C756 0.950 . S
H745 C757 0.950 . S
C746 H738 0.950 . S
C746 C747 1.386 . S
C746 C748 1.391 . S
C747 C746 1.386 . S
C747 C751 1.393 . S
C748 H740 0.950 . S
C748 C746 1.391 . S
C748 C749 1.400 . S
C749 C748 1.400 . S
C749 C750 1.398 . S
C749 C755 1.491 . S
C750 H741 0.950 . S
C750 C749 1.398 . S
C750 C751 1.391 . S
C751 H739 0.950 . S
C751 C747 1.393 . S
C751 C750 1.391 . S
C752 H742 0.950 1_554 S
C752 C753 1.386 . S
C752 C754 1.391 . S
C753 C752 1.386 . S
C753 C757 1.393 . S
C754 H743 0.950 . S
C754 C752 1.391 . S
C754 C755 1.400 . S
C755 C749 1.491 . S
C755 C754 1.400 . S
C755 C756 1.398 . S
C756 H744 0.950 . S
C756 C755 1.398 . S
C756 C757 1.391 . S
C757 H745 0.950 . S
C757 C753 1.393 . S
C757 C756 1.391 . S
H758 C766 0.950 . S
H759 C771 0.950 . S
H760 C768 0.950 . S
H761 C770 0.950 . S
H762 C772 0.950 . S
H763 C774 0.950 . S
H764 C776 0.950 . S
H765 C777 0.950 . S
C766 H758 0.950 . S
C766 C767 1.386 . S
C766 C768 1.391 . S
C767 C766 1.386 . S
C767 C771 1.393 . S
C768 H760 0.950 . S
C768 C766 1.391 . S
C768 C769 1.400 . S
C769 C768 1.400 . S
C769 C770 1.398 . S
C769 C775 1.491 . S
C770 H761 0.950 . S
C770 C769 1.398 . S
C770 C771 1.391 . S
C771 H759 0.950 . S
C771 C767 1.393 . S
C771 C770 1.391 . S
C772 H762 0.950 . S
C772 C773 1.386 . S
C772 C774 1.391 . S
C773 C772 1.386 . S
C773 C777 1.393 . S
C774 H763 0.950 . S
C774 C772 1.391 . S
C774 C775 1.400 . S
C775 C769 1.491 . S
C775 C774 1.400 . S
C775 C776 1.398 . S
C776 H764 0.950 . S
C776 C775 1.398 . S
C776 C777 1.391 . S
C777 H765 0.950 . S
C777 C773 1.393 . S
C777 C776 1.391 . S
H778 C786 0.950 . S
H779 C791 0.950 . S
H780 C788 0.950 . S
H781 C790 0.950 . S
H782 C792 0.950 . S
H783 C794 0.950 . S
H784 C796 0.924 1_556 S
H785 C797 0.950 1_556 S
C786 H778 0.950 . S
C786 C787 1.386 . S
C786 C788 1.391 . S
C787 C786 1.386 . S
C787 C791 1.393 . S
C788 H780 0.950 . S
C788 C786 1.391 . S
C788 C789 1.400 . S
C789 C788 1.400 . S
C789 C790 1.398 . S
C789 C795 1.491 . S
C790 H781 0.950 . S
C790 C789 1.398 . S
C790 C791 1.391 . S
C791 H779 0.950 . S
C791 C787 1.393 . S
C791 C790 1.391 . S
C792 H782 0.950 . S
C792 C793 1.386 . S
C792 C794 1.391 . S
C793 C792 1.386 . S
C793 C797 1.393 . S
C794 H783 0.950 . S
C794 C792 1.391 . S
C794 C795 1.400 . S
C795 C789 1.491 . S
C795 C794 1.400 . S
C795 C796 1.398 . S
C796 H784 0.924 1_554 S
C796 C795 1.398 . S
C796 C797 1.391 . S
C797 H785 0.950 1_554 S
C797 C793 1.393 . S
C797 C796 1.391 . S
H798 C806 0.950 . S
H799 C811 0.950 . S
H800 C808 0.950 . S
H801 C810 0.950 . S
H802 C812 0.950 . S
H803 C814 0.950 . S
H804 C816 0.983 . S
H805 C817 0.950 . S
C806 H798 0.950 . S
C806 C807 1.386 . S
C806 C808 1.391 . S
C807 C806 1.386 . S
C807 C811 1.393 . S
C808 H800 0.950 . S
C808 C806 1.391 . S
C808 C809 1.400 . S
C809 C808 1.400 . S
C809 C810 1.398 . S
C809 C815 1.491 1_655 S
C810 H801 0.950 . S
C810 C809 1.398 . S
C810 C811 1.391 . S
C811 H799 0.950 . S
C811 C807 1.393 . S
C811 C810 1.391 . S
C812 H802 0.950 . S
C812 C813 1.386 . S
C812 C814 1.391 . S
C813 C812 1.386 . S
C813 C817 1.393 . S
C814 H803 0.950 . S
C814 C812 1.391 . S
C814 C815 1.400 . S
C815 C809 1.491 1_455 S
C815 C814 1.400 . S
C815 C816 1.398 . S
C816 H804 0.983 . S
C816 C815 1.398 . S
C816 C817 1.391 . S
C817 H805 0.950 . S
C817 C813 1.393 . S
C817 C816 1.391 . S
H818 C826 0.950 . S
H819 C831 0.950 . S
H820 C828 0.950 . S
H821 C830 0.950 . S
H822 C832 0.950 . S
H823 C834 0.950 . S
H824 C836 0.950 . S
H825 C837 0.950 . S
C826 H818 0.950 . S
C826 C827 1.386 . S
C826 C828 1.391 . S
C827 C826 1.386 . S
C827 C831 1.393 . S
C828 H820 0.950 . S
C828 C826 1.391 . S
C828 C829 1.400 . S
C829 C828 1.400 . S
C829 C830 1.398 . S
C829 C835 1.491 . S
C830 H821 0.950 . S
C830 C829 1.398 . S
C830 C831 1.391 . S
C831 H819 0.950 . S
C831 C827 1.393 . S
C831 C830 1.391 . S
C832 H822 0.950 . S
C832 C833 1.386 . S
C832 C834 1.391 . S
C833 C832 1.386 . S
C833 C837 1.393 . S
C834 H823 0.950 . S
C834 C832 1.391 . S
C834 C835 1.400 . S
C835 C829 1.491 . S
C835 C834 1.400 . S
C835 C836 1.398 . S
C836 H824 0.950 . S
C836 C835 1.398 . S
C836 C837 1.391 . S
C837 H825 0.950 . S
C837 C833 1.393 . S
C837 C836 1.391 . S
H838 C846 0.950 . S
H839 C851 0.950 . S
H840 C848 0.950 . S
H841 C850 0.950 . S
H842 C852 0.950 . S
H843 C854 0.950 . S
H844 C856 0.943 1_545 S
H845 C857 0.950 . S
C846 H838 0.950 . S
C846 C847 1.386 . S
C846 C848 1.391 . S
C847 C846 1.386 . S
C847 C851 1.393 . S
C848 H840 0.950 . S
C848 C846 1.391 . S
C848 C849 1.400 . S
C849 C848 1.400 . S
C849 C850 1.398 . S
C849 C855 1.491 . S
C850 H841 0.950 . S
C850 C849 1.398 . S
C850 C851 1.391 . S
C851 H839 0.950 . S
C851 C847 1.393 . S
C851 C850 1.391 . S
C852 H842 0.950 . S
C852 C853 1.386 . S
C852 C854 1.391 . S
C853 C852 1.386 . S
C853 C857 1.393 . S
C854 H843 0.950 . S
C854 C852 1.391 . S
C854 C855 1.400 1_565 S
C855 C849 1.491 . S
C855 C854 1.400 1_545 S
C855 C856 1.378 1_545 S
C856 H844 0.943 1_565 S
C856 C855 1.378 1_565 S
C856 C857 1.418 . S
C857 H845 0.950 . S
C857 C853 1.393 . S
C857 C856 1.418 . S
H858 C866 0.950 . S
H859 C871 0.950 . S
H860 C868 0.950 . S
H861 C870 0.950 . S
H862 C872 0.950 . S
H863 C874 0.950 . S
H864 C876 0.950 . S
H865 C877 0.950 . S
C866 H858 0.950 . S
C866 C867 1.386 . S
C866 C868 1.391 . S
C867 C866 1.386 . S
C867 C871 1.393 . S
C868 H860 0.950 . S
C868 C866 1.391 . S
C868 C869 1.400 . S
C869 C868 1.400 . S
C869 C870 1.398 . S
C869 C875 1.491 . S
C870 H861 0.950 . S
C870 C869 1.398 . S
C870 C871 1.391 . S
C871 H859 0.950 . S
C871 C867 1.393 . S
C871 C870 1.391 . S
C872 H862 0.950 . S
C872 C873 1.386 . S
C872 C874 1.391 . S
C873 C872 1.386 . S
C873 C877 1.393 . S
C874 H863 0.950 . S
C874 C872 1.391 . S
C874 C875 1.400 . S
C875 C869 1.491 . S
C875 C874 1.400 . S
C875 C876 1.398 . S
C876 H864 0.950 . S
C876 C875 1.398 . S
C876 C877 1.391 . S
C877 H865 0.950 . S
C877 C873 1.393 . S
C877 C876 1.391 . S
H878 C886 0.950 . S
H879 C891 0.950 . S
H880 C888 0.950 . S
H881 C890 0.950 . S
H882 C892 0.950 . S
H883 C894 0.950 . S
H884 C896 0.950 . S
H885 C897 0.950 . S
C886 H878 0.950 . S
C886 C887 1.386 . S
C886 C888 1.391 . S
C887 C886 1.386 . S
C887 C891 1.393 . S
C888 H880 0.950 . S
C888 C886 1.391 . S
C888 C889 1.400 . S
C889 C888 1.400 . S
C889 C890 1.398 . S
C889 C895 1.491 . S
C890 H881 0.950 . S
C890 C889 1.398 . S
C890 C891 1.391 . S
C891 H879 0.950 . S
C891 C887 1.393 . S
C891 C890 1.391 . S
C892 H882 0.950 . S
C892 C893 1.386 . S
C892 C894 1.391 . S
C893 C892 1.386 . S
C893 C897 1.393 . S
C894 H883 0.950 . S
C894 C892 1.391 . S
C894 C895 1.400 . S
C895 C889 1.491 . S
C895 C894 1.400 . S
C895 C896 1.398 . S
C896 H884 0.950 . S
C896 C895 1.398 . S
C896 C897 1.391 . S
C897 H885 0.950 . S
C897 C893 1.393 . S
C897 C896 1.391 . S
H898 C906 0.950 . S
H899 C911 0.950 . S
H900 C908 0.950 . S
H901 C910 0.950 . S
H902 C912 0.950 . S
H903 C914 0.950 . S
H904 C916 0.950 . S
H905 C917 0.950 . S
C906 H898 0.950 . S
C906 C907 1.386 . S
C906 C908 1.391 . S
C907 C906 1.386 . S
C907 C911 1.393 . S
C908 H900 0.950 . S
C908 C906 1.391 . S
C908 C909 1.400 . S
C909 C908 1.400 . S
C909 C910 1.398 . S
C909 C915 1.491 . S
C910 H901 0.950 . S
C910 C909 1.398 . S
C910 C911 1.391 . S
C911 H899 0.950 . S
C911 C907 1.393 . S
C911 C910 1.391 . S
C912 H902 0.950 . S
C912 C913 1.386 . S
C912 C914 1.391 . S
C913 C912 1.386 . S
C913 C917 1.393 . S
C914 H903 0.950 . S
C914 C912 1.391 . S
C914 C915 1.400 . S
C915 C909 1.491 . S
C915 C914 1.400 . S
C915 C916 1.398 . S
C916 H904 0.950 . S
C916 C915 1.398 . S
C916 C917 1.391 . S
C917 H905 0.950 . S
C917 C913 1.393 . S
C917 C916 1.391 . S
H918 C926 0.950 . S
H919 C931 0.950 . S
H920 C928 0.950 . S
H921 C930 0.950 . S
H922 C932 0.950 . S
H923 C934 0.950 . S
H924 C936 0.950 . S
H925 C937 0.950 . S
C926 H918 0.950 . S
C926 C927 1.386 . S
C926 C928 1.391 . S
C927 C926 1.386 . S
C927 C931 1.393 . S
C928 H920 0.950 . S
C928 C926 1.391 . S
C928 C929 1.400 . S
C929 C928 1.400 . S
C929 C930 1.398 . S
C929 C935 1.491 . S
C930 H921 0.950 . S
C930 C929 1.398 . S
C930 C931 1.391 . S
C931 H919 0.950 . S
C931 C927 1.393 . S
C931 C930 1.391 . S
C932 H922 0.950 . S
C932 C933 1.386 . S
C932 C934 1.391 . S
C933 C932 1.386 . S
C933 C937 1.393 . S
C934 H923 0.950 . S
C934 C932 1.391 . S
C934 C935 1.400 . S
C935 C929 1.491 . S
C935 C934 1.400 . S
C935 C936 1.398 . S
C936 H924 0.950 . S
C936 C935 1.398 . S
C936 C937 1.391 . S
C937 H925 0.950 . S
C937 C933 1.393 . S
C937 C936 1.391 . S
H938 C946 0.950 . S
H939 C951 0.950 . S
H940 C948 0.950 . S
H941 C950 0.950 . S
H942 C952 0.950 . S
H943 C954 0.950 . S
H944 C956 0.950 . S
H945 C957 0.950 . S
C946 H938 0.950 . S
C946 C947 1.386 . S
C946 C948 1.391 . S
C947 C946 1.386 . S
C947 C951 1.393 . S
C948 H940 0.950 . S
C948 C946 1.391 . S
C948 C949 1.400 . S
C949 C948 1.400 . S
C949 C950 1.398 . S
C949 C955 1.491 . S
C950 H941 0.950 . S
C950 C949 1.398 . S
C950 C951 1.391 . S
C951 H939 0.950 . S
C951 C947 1.393 . S
C951 C950 1.391 . S
C952 H942 0.950 . S
C952 C953 1.386 . S
C952 C954 1.391 . S
C953 C952 1.386 . S
C953 C957 1.393 . S
C954 H943 0.950 . S
C954 C952 1.391 . S
C954 C955 1.400 . S
C955 C949 1.491 . S
C955 C954 1.400 . S
C955 C956 1.398 . S
C956 H944 0.950 . S
C956 C955 1.398 . S
C956 C957 1.391 . S
C957 H945 0.950 . S
C957 C953 1.393 . S
C957 C956 1.391 . S
H958 C966 0.950 . S
H959 C971 0.950 . S
H960 C968 0.950 . S
H961 C970 0.950 . S
H962 C972 0.950 . S
H963 C974 0.950 . S
H964 C976 0.950 . S
H965 C977 0.950 . S
C966 H958 0.950 . S
C966 C967 1.386 . S
C966 C968 1.391 . S
C967 C966 1.386 . S
C967 C971 1.393 . S
C968 H960 0.950 . S
C968 C966 1.391 . S
C968 C969 1.400 . S
C969 C968 1.400 . S
C969 C970 1.398 . S
C969 C975 1.491 . S
C970 H961 0.950 . S
C970 C969 1.398 . S
C970 C971 1.391 . S
C971 H959 0.950 . S
C971 C967 1.393 . S
C971 C970 1.391 . S
C972 H962 0.950 . S
C972 C973 1.386 . S
C972 C974 1.391 . S
C973 C972 1.386 . S
C973 C977 1.393 . S
C974 H963 0.950 . S
C974 C972 1.391 . S
C974 C975 1.400 . S
C975 C969 1.491 . S
C975 C974 1.400 . S
C975 C976 1.398 . S
C976 H964 0.950 . S
C976 C975 1.398 . S
C976 C977 1.391 . S
C977 H965 0.950 . S
C977 C973 1.393 . S
C977 C976 1.391 . S
H978 C986 0.950 . S
H979 C991 0.950 . S
H980 C988 0.950 . S
H981 C990 0.950 . S
H982 C992 0.950 . S
H983 C994 0.950 . S
H984 C996 0.950 . S
H985 C997 0.950 . S
C986 H978 0.950 . S
C986 C987 1.386 . S
C986 C988 1.391 1_545 S
C987 C986 1.386 . S
C987 C991 1.393 . S
C988 H980 0.950 . S
C988 C986 1.391 1_565 S
C988 C989 1.400 . S
C989 C988 1.400 . S
C989 C990 1.398 . S
C989 C995 1.491 . S
C990 H981 0.950 . S
C990 C989 1.398 . S
C990 C991 1.391 1_565 S
C991 H979 0.950 . S
C991 C987 1.393 . S
C991 C990 1.391 1_545 S
C992 H982 0.950 . S
C992 C993 1.386 . S
C992 C994 1.391 . S
C993 C992 1.386 . S
C993 C997 1.393 . S
C994 H983 0.950 . S
C994 C992 1.391 . S
C994 C995 1.400 . S
C995 C989 1.491 . S
C995 C994 1.400 . S
C995 C996 1.398 . S
C996 H984 0.950 . S
C996 C995 1.398 . S
C996 C997 1.391 . S
C997 H985 0.950 . S
C997 C993 1.393 . S
C997 C996 1.391 . S
H998 C1006 0.950 . S
H999 C1011 0.950 . S
H1000 C1008 0.950 . S
H1001 C1010 0.950 . S
H1002 C1012 0.950 . S
H1003 C1014 0.950 . S
H1004 C1016 0.950 . S
H1005 C1017 0.950 . S
C1006 H998 0.950 . S
C1006 C1007 1.386 . S
C1006 C1008 1.391 1_655 S
C1007 C1006 1.386 . S
C1007 C1011 1.393 1_655 S
C1008 H1000 0.950 . S
C1008 C1006 1.391 1_455 S
C1008 C1009 1.400 . S
C1009 C1008 1.400 . S
C1009 C1010 1.398 . S
C1009 C1015 1.491 . S
C1010 H1001 0.950 . S
C1010 C1009 1.398 . S
C1010 C1011 1.391 . S
C1011 H999 0.950 . S
C1011 C1007 1.393 1_455 S
C1011 C1010 1.391 . S
C1012 H1002 0.950 . S
C1012 C1013 1.386 . S
C1012 C1014 1.391 . S
C1013 C1012 1.386 . S
C1013 C1017 1.393 . S
C1014 H1003 0.950 . S
C1014 C1012 1.391 . S
C1014 C1015 1.400 . S
C1015 C1009 1.491 . S
C1015 C1014 1.400 . S
C1015 C1016 1.398 . S
C1016 H1004 0.950 . S
C1016 C1015 1.398 . S
C1016 C1017 1.391 . S
C1017 H1005 0.950 . S
C1017 C1013 1.393 . S
C1017 C1016 1.391 . S
H1018 C1026 0.950 . S
H1019 C1031 0.950 . S
H1020 C1028 0.950 . S
H1021 C1030 0.950 . S
H1022 C1032 0.950 . S
H1023 C1034 0.950 . S
H1024 C1036 0.950 . S
H1025 C1037 0.950 . S
C1026 H1018 0.950 . S
C1026 C1027 1.386 . S
C1026 C1028 1.391 . S
C1027 C1026 1.386 . S
C1027 C1031 1.393 . S
C1028 H1020 0.950 . S
C1028 C1026 1.391 . S
C1028 C1029 1.400 . S
C1029 C1028 1.400 . S
C1029 C1030 1.398 . S
C1029 C1035 1.491 . S
C1030 H1021 0.950 . S
C1030 C1029 1.398 . S
C1030 C1031 1.391 . S
C1031 H1019 0.950 . S
C1031 C1027 1.393 . S
C1031 C1030 1.391 . S
C1032 H1022 0.950 . S
C1032 C1033 1.386 . S
C1032 C1034 1.391 . S
C1033 C1032 1.386 . S
C1033 C1037 1.393 . S
C1034 H1023 0.950 . S
C1034 C1032 1.391 . S
C1034 C1035 1.400 . S
C1035 C1029 1.491 . S
C1035 C1034 1.400 . S
C1035 C1036 1.398 . S
C1036 H1024 0.950 . S
C1036 C1035 1.398 . S
C1036 C1037 1.391 . S
C1037 H1025 0.950 . S
C1037 C1033 1.393 . S
C1037 C1036 1.391 . S
H1038 C1046 0.950 . S
H1039 C1051 0.950 . S
H1040 C1048 0.950 . S
H1041 C1050 0.950 . S
H1042 C1052 0.950 . S
H1043 C1054 0.950 . S
H1044 C1056 0.950 . S
H1045 C1057 0.950 . S
C1046 H1038 0.950 . S
C1046 C1047 1.386 . S
C1046 C1048 1.391 . S
C1047 C1046 1.386 . S
C1047 C1051 1.393 . S
C1048 H1040 0.950 . S
C1048 C1046 1.391 . S
C1048 C1049 1.400 . S
C1049 C1048 1.400 . S
C1049 C1050 1.398 . S
C1049 C1055 1.491 . S
C1050 H1041 0.950 . S
C1050 C1049 1.398 . S
C1050 C1051 1.391 . S
C1051 H1039 0.950 . S
C1051 C1047 1.393 . S
C1051 C1050 1.391 . S
C1052 H1042 0.950 . S
C1052 C1053 1.386 . S
C1052 C1054 1.391 . S
C1053 C1052 1.386 . S
C1053 C1057 1.393 . S
C1054 H1043 0.950 . S
C1054 C1052 1.391 . S
C1054 C1055 1.400 . S
C1055 C1049 1.491 . S
C1055 C1054 1.400 . S
C1055 C1056 1.398 . S
C1056 H1044 0.950 . S
C1056 C1055 1.398 . S
C1056 C1057 1.391 . S
C1057 H1045 0.950 . S
C1057 C1053 1.393 . S
C1057 C1056 1.391 . S
H1058 C1066 0.950 . S
H1059 C1071 0.950 . S
H1060 C1068 0.950 . S
H1061 C1070 0.950 . S
H1062 C1072 0.950 . S
H1063 C1074 0.950 . S
H1064 C1076 0.950 . S
H1065 C1077 0.950 . S
C1066 H1058 0.950 . S
C1066 C1067 1.386 . S
C1066 C1068 1.391 . S
C1067 C1066 1.386 . S
C1067 C1071 1.393 . S
C1068 H1060 0.950 . S
C1068 C1066 1.391 . S
C1068 C1069 1.400 . S
C1069 C1068 1.400 . S
C1069 C1070 1.398 . S
C1069 C1075 1.491 . S
C1070 H1061 0.950 . S
C1070 C1069 1.398 . S
C1070 C1071 1.391 . S
C1071 H1059 0.950 . S
C1071 C1067 1.393 . S
C1071 C1070 1.391 . S
C1072 H1062 0.950 . S
C1072 C1073 1.386 . S
C1072 C1074 1.391 . S
C1073 C1072 1.386 . S
C1073 C1077 1.393 . S
C1074 H1063 0.950 . S
C1074 C1072 1.391 . S
C1074 C1075 1.400 . S
C1075 C1069 1.491 . S
C1075 C1074 1.400 . S
C1075 C1076 1.398 . S
C1076 H1064 0.950 . S
C1076 C1075 1.398 . S
C1076 C1077 1.391 . S
C1077 H1065 0.950 . S
C1077 C1073 1.393 . S
C1077 C1076 1.391 . S
H1078 C1086 0.950 . S
H1079 C1091 0.950 . S
H1080 C1088 0.950 . S
H1081 C1090 0.950 . S
H1082 C1092 0.950 . S
H1083 C1094 0.950 . S
H1084 C1096 0.950 . S
H1085 C1097 0.950 . S
C1086 H1078 0.950 . S
C1086 C1087 1.386 . S
C1086 C1088 1.391 . S
C1087 C1086 1.386 . S
C1087 C1091 1.393 . S
C1088 H1080 0.950 . S
C1088 C1086 1.391 . S
C1088 C1089 1.400 . S
C1089 C1088 1.400 . S
C1089 C1090 1.398 . S
C1089 C1095 1.491 . S
C1090 H1081 0.950 . S
C1090 C1089 1.398 . S
C1090 C1091 1.391 . S
C1091 H1079 0.950 . S
C1091 C1087 1.393 . S
C1091 C1090 1.391 . S
C1092 H1082 0.950 . S
C1092 C1093 1.386 . S
C1092 C1094 1.391 . S
C1093 C1092 1.386 . S
C1093 C1097 1.393 . S
C1094 H1083 0.950 . S
C1094 C1092 1.391 . S
C1094 C1095 1.400 . S
C1095 C1089 1.491 . S
C1095 C1094 1.400 . S
C1095 C1096 1.398 . S
C1096 H1084 0.950 . S
C1096 C1095 1.398 . S
C1096 C1097 1.391 . S
C1097 H1085 0.950 . S
C1097 C1093 1.393 . S
C1097 C1096 1.391 . S
H1098 C1106 0.950 . S
H1099 C1111 0.950 . S
H1100 C1108 0.950 . S
H1101 C1110 0.950 . S
H1102 C1112 0.950 . S
H1103 C1114 0.950 . S
H1104 C1116 0.950 . S
H1105 C1117 0.950 . S
C1106 H1098 0.950 . S
C1106 C1107 1.386 . S
C1106 C1108 1.391 . S
C1107 C1106 1.386 . S
C1107 C1111 1.393 . S
C1108 H1100 0.950 . S
C1108 C1106 1.391 . S
C1108 C1109 1.400 . S
C1109 C1108 1.400 . S
C1109 C1110 1.398 . S
C1109 C1115 1.491 1_565 S
C1110 H1101 0.950 . S
C1110 C1109 1.398 . S
C1110 C1111 1.391 . S
C1111 H1099 0.950 . S
C1111 C1107 1.393 . S
C1111 C1110 1.391 . S
C1112 H1102 0.950 . S
C1112 C1113 1.386 . S
C1112 C1114 1.391 . S
C1113 C1112 1.386 . S
C1113 C1117 1.393 . S
C1114 H1103 0.950 . S
C1114 C1112 1.391 . S
C1114 C1115 1.400 . S
C1115 C1109 1.491 1_545 S
C1115 C1114 1.400 . S
C1115 C1116 1.398 . S
C1116 H1104 0.950 . S
C1116 C1115 1.398 . S
C1116 C1117 1.391 . S
C1117 H1105 0.950 . S
C1117 C1113 1.393 . S
C1117 C1116 1.391 . S
H1118 C1126 0.950 . S
H1119 C1131 0.950 . S
H1120 C1128 0.950 1_655 S
H1121 C1130 0.950 . S
H1122 C1132 0.950 . S
H1123 C1134 0.950 1_455 S
H1124 C1136 0.950 . S
H1125 C1137 0.950 . S
C1126 H1118 0.950 . S
C1126 C1127 1.386 . S
C1126 C1128 1.391 . S
C1127 C1126 1.386 . S
C1127 C1131 1.393 . S
C1128 H1120 0.950 1_455 S
C1128 C1126 1.391 . S
C1128 C1129 1.400 . S
C1129 C1128 1.400 . S
C1129 C1130 1.398 . S
C1129 C1135 1.491 1_455 S
C1130 H1121 0.950 . S
C1130 C1129 1.398 . S
C1130 C1131 1.391 . S
C1131 H1119 0.950 . S
C1131 C1127 1.393 . S
C1131 C1130 1.391 . S
C1132 H1122 0.950 . S
C1132 C1133 1.386 . S
C1132 C1134 1.391 . S
C1133 C1132 1.386 . S
C1133 C1137 1.393 . S
C1134 H1123 0.950 1_655 S
C1134 C1132 1.391 . S
C1134 C1135 1.400 . S
C1135 C1129 1.491 1_655 S
C1135 C1134 1.400 . S
C1135 C1136 1.398 . S
C1136 H1124 0.950 . S
C1136 C1135 1.398 . S
C1136 C1137 1.391 . S
C1137 H1125 0.950 . S
C1137 C1133 1.393 . S
C1137 C1136 1.391 . S
H1138 C1146 0.950 . S
H1139 C1151 0.950 . S
H1140 C1148 0.950 . S
H1141 C1150 0.950 . S
H1142 C1152 0.950 . S
H1143 C1154 0.950 . S
H1144 C1156 0.950 . S
H1145 C1157 0.950 . S
C1146 H1138 0.950 . S
C1146 C1147 1.386 . S
C1146 C1148 1.391 . S
C1147 C1146 1.386 . S
C1147 C1151 1.393 . S
C1148 H1140 0.950 . S
C1148 C1146 1.391 . S
C1148 C1149 1.400 . S
C1149 C1148 1.400 . S
C1149 C1150 1.398 . S
C1149 C1155 1.491 . S
C1150 H1141 0.950 . S
C1150 C1149 1.398 . S
C1150 C1151 1.391 . S
C1151 H1139 0.950 . S
C1151 C1147 1.393 . S
C1151 C1150 1.391 . S
C1152 H1142 0.950 . S
C1152 C1153 1.386 . S
C1152 C1154 1.391 . S
C1153 C1152 1.386 . S
C1153 C1157 1.393 . S
C1154 H1143 0.950 . S
C1154 C1152 1.391 . S
C1154 C1155 1.400 . S
C1155 C1149 1.491 . S
C1155 C1154 1.400 . S
C1155 C1156 1.398 . S
C1156 H1144 0.950 . S
C1156 C1155 1.398 . S
C1156 C1157 1.391 . S
C1157 H1145 0.950 . S
C1157 C1153 1.393 . S
C1157 C1156 1.391 . S
H1158 C1166 0.950 . S
H1159 C1171 0.950 . S
H1160 C1168 0.950 . S
H1161 C1170 0.950 . S
H1162 C1172 0.950 . S
H1163 C1174 0.950 . S
H1164 C1176 0.950 . S
H1165 C1177 0.950 . S
C1166 H1158 0.950 . S
C1166 C1167 1.386 . S
C1166 C1168 1.391 1_455 S
C1167 C1166 1.386 . S
C1167 C1171 1.393 . S
C1168 H1160 0.950 . S
C1168 C1166 1.391 1_655 S
C1168 C1169 1.400 . S
C1169 C1168 1.400 . S
C1169 C1170 1.398 . S
C1169 C1175 1.491 . S
C1170 H1161 0.950 . S
C1170 C1169 1.398 . S
C1170 C1171 1.391 1_655 S
C1171 H1159 0.950 . S
C1171 C1167 1.393 . S
C1171 C1170 1.391 1_455 S
C1172 H1162 0.950 . S
C1172 C1173 1.386 . S
C1172 C1174 1.391 . S
C1173 C1172 1.386 . S
C1173 C1177 1.393 . S
C1174 H1163 0.950 . S
C1174 C1172 1.391 . S
C1174 C1175 1.400 . S
C1175 C1169 1.491 . S
C1175 C1174 1.400 . S
C1175 C1176 1.398 . S
C1176 H1164 0.950 . S
C1176 C1175 1.398 . S
C1176 C1177 1.391 . S
C1177 H1165 0.950 . S
C1177 C1173 1.393 . S
C1177 C1176 1.391 . S
H1178 C1186 0.950 . S
H1179 C1191 0.950 . S
H1180 C1188 0.950 . S
H1181 C1190 0.950 . S
H1182 C1192 0.950 . S
H1183 C1194 0.950 . S
H1184 C1196 0.950 . S
H1185 C1197 0.950 . S
C1186 H1178 0.950 . S
C1186 C1187 1.386 . S
C1186 C1188 1.391 . S
C1187 C1186 1.386 . S
C1187 C1191 1.393 . S
C1188 H1180 0.950 . S
C1188 C1186 1.391 . S
C1188 C1189 1.400 . S
C1189 C1188 1.400 . S
C1189 C1190 1.398 . S
C1189 C1195 1.491 . S
C1190 H1181 0.950 . S
C1190 C1189 1.398 . S
C1190 C1191 1.391 . S
C1191 H1179 0.950 . S
C1191 C1187 1.393 . S
C1191 C1190 1.391 . S
C1192 H1182 0.950 . S
C1192 C1193 1.386 . S
C1192 C1194 1.391 . S
C1193 C1192 1.386 . S
C1193 C1197 1.393 . S
C1194 H1183 0.950 . S
C1194 C1192 1.391 . S
C1194 C1195 1.400 . S
C1195 C1189 1.491 . S
C1195 C1194 1.400 . S
C1195 C1196 1.398 . S
C1196 H1184 0.950 . S
C1196 C1195 1.398 . S
C1196 C1197 1.391 . S
C1197 H1185 0.950 . S
C1197 C1193 1.393 . S
C1197 C1196 1.391 . S
H1198 C1206 0.950 . S
H1199 C1211 0.950 . S
H1200 C1208 0.950 . S
H1201 C1210 0.950 . S
H1202 C1212 0.950 . S
H1203 C1214 0.950 . S
H1204 C1216 0.950 . S
H1205 C1217 0.950 . S
C1206 H1198 0.950 . S
C1206 C1207 1.386 . S
C1206 C1208 1.391 1_565 S
C1207 C1206 1.386 . S
C1207 C1211 1.393 . S
C1208 H1200 0.950 . S
C1208 C1206 1.391 1_545 S
C1208 C1209 1.400 . S
C1209 C1208 1.400 . S
C1209 C1210 1.398 . S
C1209 C1215 1.491 . S
C1210 H1201 0.950 . S
C1210 C1209 1.398 . S
C1210 C1211 1.391 1_545 S
C1211 H1199 0.950 . S
C1211 C1207 1.393 . S
C1211 C1210 1.391 1_565 S
C1212 H1202 0.950 . S
C1212 C1213 1.386 . S
C1212 C1214 1.391 . S
C1213 C1212 1.386 . S
C1213 C1217 1.393 . S
C1214 H1203 0.950 . S
C1214 C1212 1.391 . S
C1214 C1215 1.400 . S
C1215 C1209 1.491 . S
C1215 C1214 1.400 . S
C1215 C1216 1.398 . S
C1216 H1204 0.950 . S
C1216 C1215 1.398 . S
C1216 C1217 1.391 . S
C1217 H1205 0.950 . S
C1217 C1213 1.393 . S
C1217 C1216 1.391 . S
H1218 C1226 0.950 . S
H1219 C1231 0.950 . S
H1220 C1228 0.950 . S
H1221 C1230 0.950 . S
H1222 C1232 0.950 . S
H1223 C1234 0.950 . S
H1224 C1236 0.950 . S
H1225 C1237 0.950 . S
C1226 H1218 0.950 . S
C1226 C1227 1.386 . S
C1226 C1228 1.391 . S
C1227 C1226 1.386 . S
C1227 C1231 1.393 . S
C1228 H1220 0.950 . S
C1228 C1226 1.391 . S
C1228 C1229 1.400 . S
C1229 C1228 1.400 . S
C1229 C1230 1.398 . S
C1229 C1235 1.491 . S
C1230 H1221 0.950 . S
C1230 C1229 1.398 . S
C1230 C1231 1.391 . S
C1231 H1219 0.950 . S
C1231 C1227 1.393 . S
C1231 C1230 1.391 . S
C1232 H1222 0.950 . S
C1232 C1233 1.386 . S
C1232 C1234 1.391 . S
C1233 C1232 1.386 . S
C1233 C1237 1.393 . S
C1234 H1223 0.950 . S
C1234 C1232 1.391 . S
C1234 C1235 1.400 . S
C1235 C1229 1.491 . S
C1235 C1234 1.400 . S
C1235 C1236 1.398 . S
C1236 H1224 0.950 . S
C1236 C1235 1.398 . S
C1236 C1237 1.391 . S
C1237 H1225 0.950 . S
C1237 C1233 1.393 . S
C1237 C1236 1.391 . S
H1238 C1246 0.950 . S
H1239 C1251 0.950 . S
H1240 C1248 0.950 . S
H1241 C1250 0.950 . S
H1242 C1252 0.950 . S
H1243 C1254 0.950 . S
H1244 C1256 0.950 . S
H1245 C1257 0.950 . S
C1246 H1238 0.950 . S
C1246 C1247 1.386 . S
C1246 C1248 1.391 . S
C1247 C1246 1.386 . S
C1247 C1251 1.393 . S
C1248 H1240 0.950 . S
C1248 C1246 1.391 . S
C1248 C1249 1.400 . S
C1249 C1248 1.400 . S
C1249 C1250 1.398 . S
C1249 C1255 1.491 . S
C1250 H1241 0.950 . S
C1250 C1249 1.398 . S
C1250 C1251 1.391 . S
C1251 H1239 0.950 . S
C1251 C1247 1.393 . S
C1251 C1250 1.391 . S
C1252 H1242 0.950 . S
C1252 C1253 1.386 . S
C1252 C1254 1.391 . S
C1253 C1252 1.386 . S
C1253 C1257 1.393 . S
C1254 H1243 0.950 . S
C1254 C1252 1.391 . S
C1254 C1255 1.400 . S
C1255 C1249 1.491 . S
C1255 C1254 1.400 . S
C1255 C1256 1.398 . S
C1256 H1244 0.950 . S
C1256 C1255 1.398 . S
C1256 C1257 1.391 . S
C1257 H1245 0.950 . S
C1257 C1253 1.393 . S
C1257 C1256 1.391 . S
H1258 C1266 0.950 . S
H1259 C1271 0.950 . S
H1260 C1268 0.950 . S
H1261 C1270 0.950 . S
H1262 C1272 0.950 . S
H1263 C1274 0.950 . S
H1264 C1276 0.950 . S
H1265 C1277 0.950 . S
C1266 H1258 0.950 . S
C1266 C1267 1.386 . S
C1266 C1268 1.391 . S
C1267 C1266 1.386 . S
C1267 C1271 1.393 . S
C1268 H1260 0.950 . S
C1268 C1266 1.391 . S
C1268 C1269 1.400 . S
C1269 C1268 1.400 . S
C1269 C1270 1.398 . S
C1269 C1275 1.491 . S
C1270 H1261 0.950 . S
C1270 C1269 1.398 . S
C1270 C1271 1.391 . S
C1271 H1259 0.950 . S
C1271 C1267 1.393 . S
C1271 C1270 1.391 . S
C1272 H1262 0.950 . S
C1272 C1273 1.386 . S
C1272 C1274 1.391 . S
C1273 C1272 1.386 . S
C1273 C1277 1.393 . S
C1274 H1263 0.950 . S
C1274 C1272 1.391 . S
C1274 C1275 1.400 . S
C1275 C1269 1.491 . S
C1275 C1274 1.400 . S
C1275 C1276 1.398 . S
C1276 H1264 0.950 . S
C1276 C1275 1.398 . S
C1276 C1277 1.391 . S
C1277 H1265 0.950 . S
C1277 C1273 1.393 . S
C1277 C1276 1.391 . S
H1278 C1286 0.950 . S
H1279 C1291 0.950 . S
H1280 C1288 0.950 . S
H1281 C1290 0.950 . S
H1282 C1292 0.950 . S
H1283 C1294 0.950 . S
H1284 C1296 0.950 . S
H1285 C1297 0.950 . S
C1286 H1278 0.950 . S
C1286 C1287 1.386 . S
C1286 C1288 1.391 . S
C1287 C1286 1.386 . S
C1287 C1291 1.393 . S
C1288 H1280 0.950 . S
C1288 C1286 1.391 . S
C1288 C1289 1.400 . S
C1289 C1288 1.400 . S
C1289 C1290 1.398 . S
C1289 C1295 1.491 . S
C1290 H1281 0.950 . S
C1290 C1289 1.398 . S
C1290 C1291 1.391 . S
C1291 H1279 0.950 . S
C1291 C1287 1.393 . S
C1291 C1290 1.391 . S
C1292 H1282 0.950 . S
C1292 C1293 1.386 . S
C1292 C1294 1.391 . S
C1293 C1292 1.386 . S
C1293 C1297 1.393 . S
C1294 H1283 0.950 . S
C1294 C1292 1.391 . S
C1294 C1295 1.400 . S
C1295 C1289 1.491 . S
C1295 C1294 1.400 . S
C1295 C1296 1.398 . S
C1296 H1284 0.950 . S
C1296 C1295 1.398 . S
C1296 C1297 1.391 . S
C1297 H1285 0.950 . S
C1297 C1293 1.393 . S
C1297 C1296 1.391 . S
H1298 C1306 0.950 . S
H1299 C1311 0.950 . S
H1300 C1308 0.950 . S
H1301 C1310 0.950 . S
H1302 C1312 0.950 . S
H1303 C1314 0.950 . S
H1304 C1316 0.950 . S
H1305 C1317 0.950 . S
C1306 H1298 0.950 . S
C1306 C1307 1.386 . S
C1306 C1308 1.391 . S
C1307 C1306 1.386 . S
C1307 C1311 1.393 . S
C1308 H1300 0.950 . S
C1308 C1306 1.391 . S
C1308 C1309 1.400 . S
C1309 C1308 1.400 . S
C1309 C1310 1.398 . S
C1309 C1315 1.491 . S
C1310 H1301 0.950 . S
C1310 C1309 1.398 . S
C1310 C1311 1.391 . S
C1311 H1299 0.950 . S
C1311 C1307 1.393 . S
C1311 C1310 1.391 . S
C1312 H1302 0.950 . S
C1312 C1313 1.386 . S
C1312 C1314 1.391 . S
C1313 C1312 1.386 . S
C1313 C1317 1.393 . S
C1314 H1303 0.950 . S
C1314 C1312 1.391 . S
C1314 C1315 1.400 . S
C1315 C1309 1.491 . S
C1315 C1314 1.400 . S
C1315 C1316 1.398 . S
C1316 H1304 0.950 . S
C1316 C1315 1.398 . S
C1316 C1317 1.391 . S
C1317 H1305 0.950 . S
C1317 C1313 1.393 . S
C1317 C1316 1.391 . S
H1318 C1326 0.950 . S
H1319 C1331 0.950 . S
H1320 C1328 0.950 . S
H1321 C1330 0.950 . S
H1322 C1332 0.950 . S
H1323 C1334 0.950 . S
H1324 C1336 0.950 . S
H1325 C1337 0.950 . S
C1326 H1318 0.950 . S
C1326 C1327 1.386 . S
C1326 C1328 1.391 . S
C1327 C1326 1.386 . S
C1327 C1331 1.393 . S
C1328 H1320 0.950 . S
C1328 C1326 1.391 . S
C1328 C1329 1.400 . S
C1329 C1328 1.400 . S
C1329 C1330 1.398 . S
C1329 C1335 1.491 . S
C1330 H1321 0.950 . S
C1330 C1329 1.398 . S
C1330 C1331 1.391 . S
C1331 H1319 0.950 . S
C1331 C1327 1.393 . S
C1331 C1330 1.391 . S
C1332 H1322 0.950 . S
C1332 C1333 1.386 . S
C1332 C1334 1.391 . S
C1333 C1332 1.386 . S
C1333 C1337 1.393 . S
C1334 H1323 0.950 . S
C1334 C1332 1.391 . S
C1334 C1335 1.400 . S
C1335 C1329 1.491 . S
C1335 C1334 1.400 . S
C1335 C1336 1.398 . S
C1336 H1324 0.950 . S
C1336 C1335 1.398 . S
C1336 C1337 1.391 . S
C1337 H1325 0.950 . S
C1337 C1333 1.393 . S
C1337 C1336 1.391 . S
H1338 C1346 0.950 . S
H1339 C1351 0.950 . S
H1340 C1348 0.950 . S
H1341 C1350 0.950 . S
H1342 C1352 0.950 . S
H1343 C1354 0.950 . S
H1344 C1356 0.950 . S
H1345 C1357 0.950 . S
C1346 H1338 0.950 . S
C1346 C1347 1.386 . S
C1346 C1348 1.391 . S
C1347 C1346 1.386 . S
C1347 C1351 1.393 . S
C1348 H1340 0.950 . S
C1348 C1346 1.391 . S
C1348 C1349 1.400 . S
C1349 C1348 1.400 . S
C1349 C1350 1.398 . S
C1349 C1355 1.491 . S
C1350 H1341 0.950 . S
C1350 C1349 1.398 . S
C1350 C1351 1.391 . S
C1351 H1339 0.950 . S
C1351 C1347 1.393 . S
C1351 C1350 1.391 . S
C1352 H1342 0.950 . S
C1352 C1353 1.386 . S
C1352 C1354 1.391 . S
C1353 C1352 1.386 . S
C1353 C1357 1.393 . S
C1354 H1343 0.950 . S
C1354 C1352 1.391 . S
C1354 C1355 1.400 . S
C1355 C1349 1.491 . S
C1355 C1354 1.400 . S
C1355 C1356 1.398 . S
C1356 H1344 0.950 . S
C1356 C1355 1.398 . S
C1356 C1357 1.391 . S
C1357 H1345 0.950 . S
C1357 C1353 1.393 . S
C1357 C1356 1.391 . S
H1358 C1366 0.950 . S
H1359 C1371 0.950 . S
H1360 C1368 0.950 . S
H1361 C1370 0.950 . S
H1362 C1372 0.950 . S
H1363 C1374 0.950 . S
H1364 C1376 0.950 . S
H1365 C1377 0.950 . S
C1366 H1358 0.950 . S
C1366 C1367 1.386 . S
C1366 C1368 1.391 . S
C1367 C1366 1.386 . S
C1367 C1371 1.393 . S
C1368 H1360 0.950 . S
C1368 C1366 1.391 . S
C1368 C1369 1.400 . S
C1369 C1368 1.400 . S
C1369 C1370 1.398 . S
C1369 C1375 1.491 . S
C1370 H1361 0.950 . S
C1370 C1369 1.398 . S
C1370 C1371 1.391 . S
C1371 H1359 0.950 . S
C1371 C1367 1.393 . S
C1371 C1370 1.391 . S
C1372 H1362 0.950 . S
C1372 C1373 1.386 . S
C1372 C1374 1.391 . S
C1373 C1372 1.386 . S
C1373 C1377 1.393 . S
C1374 H1363 0.950 . S
C1374 C1372 1.391 . S
C1374 C1375 1.400 . S
C1375 C1369 1.491 . S
C1375 C1374 1.400 . S
C1375 C1376 1.398 . S
C1376 H1364 0.950 . S
C1376 C1375 1.398 . S
C1376 C1377 1.391 . S
C1377 H1365 0.950 . S
C1377 C1373 1.393 . S
C1377 C1376 1.391 . S
H1378 C1386 0.950 . S
H1379 C1391 0.950 . S
H1380 C1388 0.950 . S
H1381 C1390 0.950 . S
H1382 C1392 0.950 . S
H1383 C1394 0.950 . S
H1384 C1396 0.950 . S
H1385 C1397 0.950 . S
C1386 H1378 0.950 . S
C1386 C1387 1.386 . S
C1386 C1388 1.391 . S
C1387 C1386 1.386 . S
C1387 C1391 1.393 . S
C1388 H1380 0.950 . S
C1388 C1386 1.391 . S
C1388 C1389 1.400 . S
C1389 C1388 1.400 . S
C1389 C1390 1.398 . S
C1389 C1395 1.491 . S
C1390 H1381 0.950 . S
C1390 C1389 1.398 . S
C1390 C1391 1.391 . S
C1391 H1379 0.950 . S
C1391 C1387 1.393 . S
C1391 C1390 1.391 . S
C1392 H1382 0.950 . S
C1392 C1393 1.386 . S
C1392 C1394 1.391 . S
C1393 C1392 1.386 . S
C1393 C1397 1.393 . S
C1394 H1383 0.950 . S
C1394 C1392 1.391 . S
C1394 C1395 1.400 . S
C1395 C1389 1.491 . S
C1395 C1394 1.400 . S
C1395 C1396 1.398 . S
C1396 H1384 0.950 . S
C1396 C1395 1.398 . S
C1396 C1397 1.391 . S
C1397 H1385 0.950 . S
C1397 C1393 1.393 . S
C1397 C1396 1.391 . S
H1398 C1406 0.950 . S
H1399 C1411 0.950 . S
H1400 C1408 0.950 . S
H1401 C1410 0.950 . S
H1402 C1412 0.950 . S
H1403 C1414 0.950 . S
H1404 C1416 0.950 . S
H1405 C1417 0.950 . S
C1406 H1398 0.950 . S
C1406 C1407 1.386 . S
C1406 C1408 1.391 . S
C1407 C1406 1.386 . S
C1407 C1411 1.393 . S
C1408 H1400 0.950 . S
C1408 C1406 1.391 . S
C1408 C1409 1.400 . S
C1409 C1408 1.400 . S
C1409 C1410 1.398 . S
C1409 C1415 1.491 . S
C1410 H1401 0.950 . S
C1410 C1409 1.398 . S
C1410 C1411 1.391 . S
C1411 H1399 0.950 . S
C1411 C1407 1.393 . S
C1411 C1410 1.391 . S
C1412 H1402 0.950 . S
C1412 C1413 1.386 . S
C1412 C1414 1.391 . S
C1413 C1412 1.386 . S
C1413 C1417 1.393 . S
C1414 H1403 0.950 . S
C1414 C1412 1.391 . S
C1414 C1415 1.400 . S
C1415 C1409 1.491 . S
C1415 C1414 1.400 . S
C1415 C1416 1.398 . S
C1416 H1404 0.950 . S
C1416 C1415 1.398 . S
C1416 C1417 1.391 . S
C1417 H1405 0.950 . S
C1417 C1413 1.393 . S
C1417 C1416 1.391 . S
H1418 C1426 0.950 . S
H1419 C1431 0.950 . S
H1420 C1428 0.950 . S
H1421 C1430 0.950 . S
H1422 C1432 0.950 . S
H1423 C1434 0.950 . S
H1424 C1436 0.950 . S
H1425 C1437 0.950 . S
C1426 H1418 0.950 . S
C1426 C1427 1.386 . S
C1426 C1428 1.391 . S
C1427 C1426 1.386 . S
C1427 C1431 1.393 . S
C1428 H1420 0.950 . S
C1428 C1426 1.391 . S
C1428 C1429 1.400 . S
C1429 C1428 1.400 . S
C1429 C1430 1.398 . S
C1429 C1435 1.491 . S
C1430 H1421 0.950 . S
C1430 C1429 1.398 . S
C1430 C1431 1.391 . S
C1431 H1419 0.950 . S
C1431 C1427 1.393 . S
C1431 C1430 1.391 . S
C1432 H1422 0.950 . S
C1432 C1433 1.386 . S
C1432 C1434 1.391 . S
C1433 C1432 1.386 . S
C1433 C1437 1.393 . S
C1434 H1423 0.950 . S
C1434 C1432 1.391 . S
C1434 C1435 1.400 . S
C1435 C1429 1.491 . S
C1435 C1434 1.400 . S
C1435 C1436 1.398 . S
C1436 H1424 0.950 . S
C1436 C1435 1.398 . S
C1436 C1437 1.391 . S
C1437 H1425 0.950 . S
C1437 C1433 1.393 . S
C1437 C1436 1.391 . S
H1438 C1446 0.950 . S
H1439 C1451 0.950 . S
H1440 C1448 0.950 . S
H1441 C1450 0.950 . S
H1442 C1452 0.950 . S
H1443 C1454 0.950 . S
H1444 C1456 0.950 . S
H1445 C1457 0.950 . S
C1446 H1438 0.950 . S
C1446 C1447 1.386 . S
C1446 C1448 1.391 . S
C1447 C1446 1.386 . S
C1447 C1451 1.393 . S
C1448 H1440 0.950 . S
C1448 C1446 1.391 . S
C1448 C1449 1.400 . S
C1449 C1448 1.400 . S
C1449 C1450 1.398 . S
C1449 C1455 1.491 . S
C1450 H1441 0.950 . S
C1450 C1449 1.398 . S
C1450 C1451 1.391 . S
C1451 H1439 0.950 . S
C1451 C1447 1.393 . S
C1451 C1450 1.391 . S
C1452 H1442 0.950 . S
C1452 C1453 1.386 . S
C1452 C1454 1.391 . S
C1453 C1452 1.386 . S
C1453 C1457 1.393 . S
C1454 H1443 0.950 . S
C1454 C1452 1.391 . S
C1454 C1455 1.400 . S
C1455 C1449 1.491 . S
C1455 C1454 1.400 . S
C1455 C1456 1.398 . S
C1456 H1444 0.950 . S
C1456 C1455 1.398 . S
C1456 C1457 1.391 . S
C1457 H1445 0.950 . S
C1457 C1453 1.393 . S
C1457 C1456 1.391 . S
H1458 C1466 0.950 . S
H1459 C1471 0.950 . S
H1460 C1468 0.950 . S
H1461 C1470 0.950 . S
H1462 C1472 0.950 . S
H1463 C1474 0.950 . S
H1464 C1476 0.950 . S
H1465 C1477 0.950 . S
C1466 H1458 0.950 . S
C1466 C1467 1.386 . S
C1466 C1468 1.391 . S
C1467 C1466 1.386 . S
C1467 C1471 1.393 . S
C1468 H1460 0.950 . S
C1468 C1466 1.391 . S
C1468 C1469 1.400 . S
C1469 C1468 1.400 . S
C1469 C1470 1.398 . S
C1469 C1475 1.491 . S
C1470 H1461 0.950 . S
C1470 C1469 1.398 . S
C1470 C1471 1.391 . S
C1471 H1459 0.950 . S
C1471 C1467 1.393 . S
C1471 C1470 1.391 . S
C1472 H1462 0.950 . S
C1472 C1473 1.386 . S
C1472 C1474 1.391 . S
C1473 C1472 1.386 . S
C1473 C1477 1.393 . S
C1474 H1463 0.950 . S
C1474 C1472 1.391 . S
C1474 C1475 1.400 . S
C1475 C1469 1.491 . S
C1475 C1474 1.400 . S
C1475 C1476 1.398 . S
C1476 H1464 0.950 . S
C1476 C1475 1.398 . S
C1476 C1477 1.391 . S
C1477 H1465 0.950 . S
C1477 C1473 1.393 . S
C1477 C1476 1.391 . S
H1478 C1486 0.950 . S
H1479 C1491 0.950 . S
H1480 C1488 0.950 . S
H1481 C1490 0.950 . S
H1482 C1492 0.950 . S
H1483 C1494 0.950 . S
H1484 C1496 0.950 . S
H1485 C1497 0.950 . S
C1486 H1478 0.950 . S
C1486 C1487 1.386 . S
C1486 C1488 1.391 . S
C1487 C1486 1.386 . S
C1487 C1491 1.393 . S
C1488 H1480 0.950 . S
C1488 C1486 1.391 . S
C1488 C1489 1.400 . S
C1489 C1488 1.400 . S
C1489 C1490 1.398 . S
C1489 C1495 1.491 . S
C1490 H1481 0.950 . S
C1490 C1489 1.398 . S
C1490 C1491 1.391 . S
C1491 H1479 0.950 . S
C1491 C1487 1.393 . S
C1491 C1490 1.391 . S
C1492 H1482 0.950 . S
C1492 C1493 1.386 . S
C1492 C1494 1.391 . S
C1493 C1492 1.386 . S
C1493 C1497 1.393 . S
C1494 H1483 0.950 . S
C1494 C1492 1.391 . S
C1494 C1495 1.400 . S
C1495 C1489 1.491 . S
C1495 C1494 1.400 . S
C1495 C1496 1.398 . S
C1496 H1484 0.950 . S
C1496 C1495 1.398 . S
C1496 C1497 1.391 . S
C1497 H1485 0.950 . S
C1497 C1493 1.393 . S
C1497 C1496 1.391 . S
H1498 C1506 0.950 . S
H1499 C1511 0.950 . S
H1500 C1508 0.950 . S
H1501 C1510 0.950 . S
H1502 C1512 0.950 . S
H1503 C1514 0.950 . S
H1504 C1516 0.950 . S
H1505 C1517 0.950 . S
C1506 H1498 0.950 . S
C1506 C1507 1.386 . S
C1506 C1508 1.391 . S
C1507 C1506 1.386 . S
C1507 C1511 1.393 . S
C1508 H1500 0.950 . S
C1508 C1506 1.391 . S
C1508 C1509 1.400 . S
C1509 C1508 1.400 . S
C1509 C1510 1.398 . S
C1509 C1515 1.491 . S
C1510 H1501 0.950 . S
C1510 C1509 1.398 . S
C1510 C1511 1.391 . S
C1511 H1499 0.950 . S
C1511 C1507 1.393 . S
C1511 C1510 1.391 . S
C1512 H1502 0.950 . S
C1512 C1513 1.386 . S
C1512 C1514 1.391 . S
C1513 C1512 1.386 . S
C1513 C1517 1.393 . S
C1514 H1503 0.950 . S
C1514 C1512 1.391 . S
C1514 C1515 1.400 . S
C1515 C1509 1.491 . S
C1515 C1514 1.400 . S
C1515 C1516 1.398 . S
C1516 H1504 0.950 . S
C1516 C1515 1.398 . S
C1516 C1517 1.391 . S
C1517 H1505 0.950 . S
C1517 C1513 1.393 . S
C1517 C1516 1.391 . S
H1518 C1526 0.950 . S
H1519 C1531 0.950 . S
H1520 C1528 0.950 . S
H1521 C1530 0.950 . S
H1522 C1532 0.950 . S
H1523 C1534 0.950 . S
H1524 C1536 0.950 . S
H1525 C1537 0.950 . S
C1526 H1518 0.950 . S
C1526 C1527 1.386 . S
C1526 C1528 1.391 . S
C1527 C1526 1.386 . S
C1527 C1531 1.393 . S
C1528 H1520 0.950 . S
C1528 C1526 1.391 . S
C1528 C1529 1.400 . S
C1529 C1528 1.400 . S
C1529 C1530 1.398 . S
C1529 C1535 1.491 . S
C1530 H1521 0.950 . S
C1530 C1529 1.398 . S
C1530 C1531 1.391 . S
C1531 H1519 0.950 . S
C1531 C1527 1.393 . S
C1531 C1530 1.391 . S
C1532 H1522 0.950 . S
C1532 C1533 1.386 . S
C1532 C1534 1.391 . S
C1533 C1532 1.386 . S
C1533 C1537 1.393 . S
C1534 H1523 0.950 . S
C1534 C1532 1.391 . S
C1534 C1535 1.400 . S
C1535 C1529 1.491 . S
C1535 C1534 1.400 . S
C1535 C1536 1.398 . S
C1536 H1524 0.950 . S
C1536 C1535 1.398 . S
C1536 C1537 1.391 . S
C1537 H1525 0.950 . S
C1537 C1533 1.393 . S
C1537 C1536 1.391 . S
H1538 C1546 0.950 . S
H1539 C1551 0.950 . S
H1540 C1548 0.950 . S
H1541 C1550 0.950 . S
H1542 C1552 0.950 . S
H1543 C1554 0.950 . S
H1544 C1556 0.950 . S
H1545 C1557 0.950 . S
C1546 H1538 0.950 . S
C1546 C1547 1.386 . S
C1546 C1548 1.391 . S
C1547 C1546 1.386 . S
C1547 C1551 1.393 . S
C1548 H1540 0.950 . S
C1548 C1546 1.391 . S
C1548 C1549 1.400 . S
C1549 C1548 1.400 . S
C1549 C1550 1.398 . S
C1549 C1555 1.491 . S
C1550 H1541 0.950 . S
C1550 C1549 1.398 . S
C1550 C1551 1.391 . S
C1551 H1539 0.950 . S
C1551 C1547 1.393 . S
C1551 C1550 1.391 . S
C1552 H1542 0.950 . S
C1552 C1553 1.386 . S
C1552 C1554 1.391 . S
C1553 C1552 1.386 . S
C1553 C1557 1.393 . S
C1554 H1543 0.950 . S
C1554 C1552 1.391 . S
C1554 C1555 1.400 . S
C1555 C1549 1.491 . S
C1555 C1554 1.400 . S
C1555 C1556 1.398 . S
C1556 H1544 0.950 . S
C1556 C1555 1.398 . S
C1556 C1557 1.391 . S
C1557 H1545 0.950 . S
C1557 C1553 1.393 . S
C1557 C1556 1.391 . S
H1558 C1566 0.950 . S
H1559 C1571 0.950 . S
H1560 C1568 0.950 . S
H1561 C1570 0.950 . S
H1562 C1572 0.950 . S
H1563 C1574 0.950 . S
H1564 C1576 0.950 . S
H1565 C1577 0.950 . S
C1566 H1558 0.950 . S
C1566 C1567 1.386 . S
C1566 C1568 1.391 . S
C1567 C1566 1.386 . S
C1567 C1571 1.393 . S
C1568 H1560 0.950 . S
C1568 C1566 1.391 . S
C1568 C1569 1.400 . S
C1569 C1568 1.400 . S
C1569 C1570 1.398 . S
C1569 C1575 1.491 . S
C1570 H1561 0.950 . S
C1570 C1569 1.398 . S
C1570 C1571 1.391 . S
C1571 H1559 0.950 . S
C1571 C1567 1.393 . S
C1571 C1570 1.391 . S
C1572 H1562 0.950 . S
C1572 C1573 1.386 . S
C1572 C1574 1.391 . S
C1573 C1572 1.386 . S
C1573 C1577 1.393 . S
C1574 H1563 0.950 . S
C1574 C1572 1.391 . S
C1574 C1575 1.400 . S
C1575 C1569 1.491 . S
C1575 C1574 1.400 . S
C1575 C1576 1.398 . S
C1576 H1564 0.950 . S
C1576 C1575 1.398 . S
C1576 C1577 1.391 . S
C1577 H1565 0.950 . S
C1577 C1573 1.393 . S
C1577 C1576 1.391 . S
H1578 C1586 0.950 . S
H1579 C1591 0.950 . S
H1580 C1588 0.950 . S
H1581 C1590 0.950 . S
H1582 C1592 0.950 . S
H1583 C1594 0.950 . S
H1584 C1596 0.950 . S
H1585 C1597 0.950 . S
C1586 H1578 0.950 . S
C1586 C1587 1.386 . S
C1586 C1588 1.391 . S
C1587 C1586 1.386 . S
C1587 C1591 1.393 . S
C1588 H1580 0.950 . S
C1588 C1586 1.391 . S
C1588 C1589 1.400 . S
C1589 C1588 1.400 . S
C1589 C1590 1.398 . S
C1589 C1595 1.491 . S
C1590 H1581 0.950 . S
C1590 C1589 1.398 . S
C1590 C1591 1.391 . S
C1591 H1579 0.950 . S
C1591 C1587 1.393 . S
C1591 C1590 1.391 . S
C1592 H1582 0.950 . S
C1592 C1593 1.386 . S
C1592 C1594 1.391 . S
C1593 C1592 1.386 . S
C1593 C1597 1.393 . S
C1594 H1583 0.950 . S
C1594 C1592 1.391 . S
C1594 C1595 1.400 . S
C1595 C1589 1.491 . S
C1595 C1594 1.400 . S
C1595 C1596 1.398 . S
C1596 H1584 0.950 . S
C1596 C1595 1.398 . S
C1596 C1597 1.391 . S
C1597 H1585 0.950 . S
C1597 C1593 1.393 . S
C1597 C1596 1.391 . S
H1598 C1606 0.950 . S
H1599 C1611 0.950 . S
H1600 C1608 0.950 . S
H1601 C1610 0.950 . S
H1602 C1612 0.950 . S
H1603 C1614 0.950 . S
H1604 C1616 0.950 . S
H1605 C1617 0.950 . S
C1606 H1598 0.950 . S
C1606 C1607 1.386 . S
C1606 C1608 1.391 . S
C1607 C1606 1.386 . S
C1607 C1611 1.393 . S
C1608 H1600 0.950 . S
C1608 C1606 1.391 . S
C1608 C1609 1.400 . S
C1609 C1608 1.400 . S
C1609 C1610 1.398 . S
C1609 C1615 1.491 . S
C1610 H1601 0.950 . S
C1610 C1609 1.398 . S
C1610 C1611 1.391 . S
C1611 H1599 0.950 . S
C1611 C1607 1.393 . S
C1611 C1610 1.391 . S
C1612 H1602 0.950 . S
C1612 C1613 1.386 . S
C1612 C1614 1.391 . S
C1613 C1612 1.386 . S
C1613 C1617 1.393 . S
C1614 H1603 0.950 . S
C1614 C1612 1.391 . S
C1614 C1615 1.400 . S
C1615 C1609 1.491 . S
C1615 C1614 1.400 . S
C1615 C1616 1.398 . S
C1616 H1604 0.950 . S
C1616 C1615 1.398 . S
C1616 C1617 1.391 . S
C1617 H1605 0.950 . S
C1617 C1613 1.393 . S
C1617 C1616 1.391 . S
H1618 C1626 0.950 . S
H1619 C1631 0.950 . S
H1620 C1628 0.950 . S
H1621 C1630 0.950 . S
H1622 C1632 0.950 . S
H1623 C1634 0.950 . S
H1624 C1636 0.950 . S
H1625 C1637 0.950 . S
C1626 H1618 0.950 . S
C1626 C1627 1.386 . S
C1626 C1628 1.391 . S
C1627 C1626 1.386 . S
C1627 C1631 1.393 . S
C1628 H1620 0.950 . S
C1628 C1626 1.391 . S
C1628 C1629 1.400 . S
C1629 C1628 1.400 . S
C1629 C1630 1.398 . S
C1629 C1635 1.491 . S
C1630 H1621 0.950 . S
C1630 C1629 1.398 . S
C1630 C1631 1.391 . S
C1631 H1619 0.950 . S
C1631 C1627 1.393 . S
C1631 C1630 1.391 . S
C1632 H1622 0.950 . S
C1632 C1633 1.386 . S
C1632 C1634 1.391 . S
C1633 C1632 1.386 . S
C1633 C1637 1.393 . S
C1634 H1623 0.950 . S
C1634 C1632 1.391 . S
C1634 C1635 1.400 . S
C1635 C1629 1.491 . S
C1635 C1634 1.400 . S
C1635 C1636 1.398 . S
C1636 H1624 0.950 . S
C1636 C1635 1.398 . S
C1636 C1637 1.391 . S
C1637 H1625 0.950 . S
C1637 C1633 1.393 . S
C1637 C1636 1.391 . S
C567 C147 1.671 . S
C573 C210 1.678 . S
C587 C158 1.795 . S
C593 C250 1.792 . S
C607 C136 1.592 . S
C613 C280 1.584 . S
C627 C125 1.482 . S
C633 C240 1.467 1_556 S
C653 C290 1.503 . S
C647 C103 1.502 . S
C667 C114 1.349 . S
C673 C200 1.330 1_556 S
C693 C229 1.676 . S
C687 C131 1.660 . S
C713 C269 1.673 . S
C707 C109 1.661 . S
C727 C120 1.660 . S
C733 C295 1.686 . S
C747 C153 1.513 . S
C753 C255 1.515 . S
C767 C164 1.458 . S
C773 C309 1.460 . S
C793 C215 1.472 . S
C787 C142 1.450 . S
C813 C330 1.676 . S
C807 C15 1.664 . S
C827 C26 1.792 . S
C833 C370 1.792 . S
C847 C4 1.590 . S
C853 C400 1.575 . S
C867 C191 1.480 . S
C873 C360 1.451 . S
C887 C169 1.502 . S
C893 C410 1.504 . S
C907 C180 1.349 . S
C913 C320 1.348 . S
C927 C197 1.653 . S
C933 C349 1.673 . S
C947 C175 1.666 . S
C953 C389 1.678 . S
C973 C415 1.673 . S
C967 C186 1.649 . S
C987 C21 1.492 . S
C993 C375 1.498 . S
C1013 C429 1.460 . S
C1007 C32 1.457 . S
C1027 C10 1.439 . S
C1033 C335 1.460 . S
C1053 C450 1.676 . S
C1047 C81 1.667 . S
C1067 C92 1.791 . S
C1073 C490 1.790 . S
C1093 C520 1.574 . S
C1087 C70 1.593 . S
C1113 C480 1.459 . S
C1107 C59 1.484 . S
C1133 C530 1.504 . S
C1127 C37 1.503 . S
C1147 C48 1.352 . S
C1153 C440 1.341 . S
C1167 C65 1.657 . S
C1173 C469 1.671 . S
C1187 C43 1.665 . S
C1193 C509 1.674 . S
C1213 C535 1.683 . S
C1207 C54 1.666 . S
C1227 C87 1.494 . S
C1233 C495 1.498 . S
C1247 C98 1.462 . S
C1253 C549 1.466 . S
C1267 C76 1.450 . S
C1273 C455 1.466 . S
C1287 C170 1.485 . S
C1293 C227 1.457 . S
C1313 C267 1.909 . S
C1307 C181 1.943 . S
C1327 C192 1.549 . S
C1333 C286 1.568 . S
C1347 C71 1.786 . S
C1353 C246 1.782 . S
C1367 C82 1.678 . S
C1373 C307 1.659 . S
C1393 C206 1.307 . S
C1387 C93 1.299 . S
C1407 C38 1.495 . S
C1413 C347 1.473 . S
C1427 C49 1.937 . S
C1433 C387 1.900 . S
C1447 C60 1.559 . S
C1453 C406 1.570 . S
C1467 C137 1.778 . S
C1473 C366 1.773 . S
C1493 C427 1.662 . S
C1487 C148 1.680 . S
C1507 C159 1.299 . S
C1513 C326 1.312 . S
C1527 C104 1.495 . S
C1533 C467 1.474 . S
C1547 C115 1.942 . S
C1553 C507 1.907 . S
C1573 C526 1.576 . S
C1567 C126 1.565 . S
C1587 C5 1.778 . S
C1593 C486 1.784 . S
C1607 C16 1.683 . S
C1613 C547 1.667 . S
C1627 C27 1.295 . S
C1633 C446 1.312 . S
