# Generated by pormake.
# Topology tsx, (6,3)-cn, num edge types: 1
# Building blocks:
#     Node 0, Type 0, BuildingBlock: VOLQOD_clean_sbu_1, # of connection points: 6
#     Node 1, Type 0, BuildingBlock: VOLQOD_clean_sbu_1, # of connection points: 6
#     Node 2, Type 1, BuildingBlock: BELTOD_clean_linker_0, # of connection points: 3
#     Node 3, Type 1, BuildingBlock: BELTOD_clean_linker_0, # of connection points: 3
#     Node 4, Type 1, BuildingBlock: BELTOD_clean_linker_0, # of connection points: 3
#     Node 5, Type 1, BuildingBlock: BELTOD_clean_linker_0, # of connection points: 3
#     Edge 6, Type (0, 1), BuildingBlock: ZUJKAS_clean_linker_0, # of connection points: 2
#     Edge 7, Type (0, 1), BuildingBlock: ZUJKAS_clean_linker_0, # of connection points: 2
#     Edge 8, Type (0, 1), BuildingBlock: ZUJKAS_clean_linker_0, # of connection points: 2
#     Edge 9, Type (0, 1), BuildingBlock: ZUJKAS_clean_linker_0, # of connection points: 2
#     Edge 10, Type (0, 1), BuildingBlock: ZUJKAS_clean_linker_0, # of connection points: 2
#     Edge 11, Type (0, 1), BuildingBlock: ZUJKAS_clean_linker_0, # of connection points: 2
#     Edge 12, Type (0, 1), BuildingBlock: ZUJKAS_clean_linker_0, # of connection points: 2
#     Edge 13, Type (0, 1), BuildingBlock: ZUJKAS_clean_linker_0, # of connection points: 2
#     Edge 14, Type (0, 1), BuildingBlock: ZUJKAS_clean_linker_0, # of connection points: 2
#     Edge 15, Type (0, 1), BuildingBlock: ZUJKAS_clean_linker_0, # of connection points: 2
#     Edge 16, Type (0, 1), BuildingBlock: ZUJKAS_clean_linker_0, # of connection points: 2
#     Edge 17, Type (0, 1), BuildingBlock: ZUJKAS_clean_linker_0, # of connection points: 2
# Relax obj value: 0.067
# Max RMSD: 0.102
# Mean RMSD: 0.074
data_MOF--net-tsx--node1-VOLQOD_clean_sbu_1--node2-BELTOD_clean_linker_0--edge1-ZUJKAS_clean_linker_0
_symmetry_space_group_name_H-M    P1
_symmetry_Int_Tables_number       1
_symmetry_cell_setting            triclinic
loop_
_symmetry_equiv_pos_as_xyz
'x, y, z'
_cell_length_a     29.037337
_cell_length_b     30.093207
_cell_length_c     56.807627
_cell_angle_alpha  91.023009
_cell_angle_beta   90.02514
_cell_angle_gamma 90.162763
loop_
_atom_site_label
_atom_site_type_symbol
_atom_site_fract_x
_atom_site_fract_y
_atom_site_fract_z
_atom_type_partial_charge
O0 O 0.01404 0.99422 0.05925 0.0
Zn1 Zn 0.03001 0.99434 0.0249 0.0
O2 O 0.97535 0.00263 0.00557 0.0
Zn3 Zn 0.9664 0.95048 0.98519 0.0
Zn4 Zn 0.92155 0.01066 0.02606 0.0
Zn5 Zn 0.98404 0.05469 0.98596 0.0
O6 O 0.96671 0.96646 0.95099 0.0
O7 O 0.9873 0.03757 0.95145 0.0
O8 O 0.0628 0.93757 0.01652 0.0
O9 O 0.0179 0.90659 0.98919 0.0
O10 O 0.90746 0.91907 0.99272 0.0
O11 O 0.87742 0.95888 0.02217 0.0
O12 O 0.88754 0.06705 0.01823 0.0
O13 O 0.07485 0.04447 0.02074 0.0
O14 O 0.93084 0.09647 0.99024 0.0
O15 O 0.04224 0.08811 0.9945 0.0
C16 C 0.97787 0.00424 0.07081 0.0
C17 C 0.97772 0.00169 0.94023 0.0
C18 C 0.87607 0.92554 0.00803 0.0
C19 C 0.0538 0.90595 0.00205 0.0
C20 C 0.89547 0.0976 0.00349 0.0
C21 C 0.07519 0.07946 0.00848 0.0
O22 O 0.9403 0.01349 0.0604 0.0
O23 O 0.5213 0.49783 0.56032 0.0
Zn24 Zn 0.53715 0.4957 0.52605 0.0
O25 O 0.48257 0.50224 0.50649 0.0
Zn26 Zn 0.47585 0.44961 0.48618 0.0
Zn27 Zn 0.42831 0.50844 0.52689 0.0
Zn28 Zn 0.48971 0.55466 0.48684 0.0
O29 O 0.47582 0.46558 0.45205 0.0
O30 O 0.49034 0.53801 0.45215 0.0
O31 O 0.57031 0.43861 0.51901 0.0
O32 O 0.52856 0.40715 0.49054 0.0
O33 O 0.41741 0.41675 0.49326 0.0
O34 O 0.38546 0.45607 0.52236 0.0
O35 O 0.39308 0.56416 0.51926 0.0
O36 O 0.58174 0.54545 0.52083 0.0
O37 O 0.43687 0.59644 0.49236 0.0
O38 O 0.54858 0.58798 0.49425 0.0
C39 C 0.48449 0.50515 0.57189 0.0
C40 C 0.48323 0.50142 0.44109 0.0
C41 C 0.38528 0.42274 0.50821 0.0
C42 C 0.56319 0.40697 0.50429 0.0
C43 C 0.40112 0.59604 0.50536 0.0
C44 C 0.58192 0.57977 0.50807 0.0
O45 O 0.4462 0.51105 0.56143 0.0
P46 P 0.07146 0.0835 0.39973 0.0
H47 H 0.05836 0.15178 0.43634 0.0
H48 H 0.98975 0.18104 0.45597 0.0
H49 H 0.90572 0.08559 0.41755 0.0
H50 H 0.97448 0.05739 0.39755 0.0
H51 H 0.1633 0.04541 0.40083 0.0
H52 H 0.19497 0.97916 0.41912 0.0
H53 H 0.06079 0.9482 0.44734 0.0
H54 H 0.02925 0.01427 0.42894 0.0
H55 H 0.01498 0.13125 0.36636 0.0
H56 H 0.09804 0.01262 0.36586 0.0
O57 O 0.11157 0.12331 0.40047 0.0
H58 H 0.99647 0.11864 0.32491 0.0
H59 H 0.08138 0.00078 0.32416 0.0
C60 C 0.02124 0.1032 0.41514 0.0
C61 C 0.02515 0.13723 0.43215 0.0
C62 C 0.98592 0.1536 0.44353 0.0
C63 C 0.94217 0.13584 0.43821 0.0
C64 C 0.93875 0.10057 0.42172 0.0
C65 C 0.97799 0.08436 0.41031 0.0
C66 C 0.09413 0.03513 0.41378 0.0
C67 C 0.14076 0.02448 0.41105 0.0
C68 C 0.15873 0.98651 0.42137 0.0
C69 C 0.1303 0.95864 0.43468 0.0
C70 C 0.08354 0.9694 0.43739 0.0
C71 C 0.0655 0.00717 0.42683 0.0
C72 C 0.05714 0.07247 0.36935 0.0
C73 C 0.0291 0.10235 0.35734 0.0
C74 C 0.01893 0.09533 0.33354 0.0
C75 C 0.03741 0.05865 0.32112 0.0
C76 C 0.06584 0.0289 0.33323 0.0
C77 C 0.07565 0.0358 0.35713 0.0
P78 P 0.08323 0.92088 0.61251 0.0
H79 H 0.07484 0.85073 0.57658 0.0
H80 H 0.00847 0.81595 0.55711 0.0
H81 H 0.91731 0.90102 0.59755 0.0
H82 H 0.98367 0.93536 0.61702 0.0
H83 H 0.13737 0.99762 0.62771 0.0
H84 H 0.1593 0.06632 0.60842 0.0
H85 H 0.08306 0.02499 0.54642 0.0
H86 H 0.06144 0.95608 0.56578 0.0
H87 H 0.10824 0.87264 0.65488 0.0
H88 H 0.03293 0.99114 0.63782 0.0
O89 O 0.12876 0.88746 0.60981 0.0
H90 H 0.09386 0.88683 0.69681 0.0
H91 H 0.01793 0.00517 0.6797 0.0
C92 C 0.03415 0.89476 0.59872 0.0
C93 C 0.04056 0.86163 0.58139 0.0
C94 C 0.00263 0.84212 0.5701 0.0
C95 C 0.95767 0.85561 0.57591 0.0
C96 C 0.9515 0.88943 0.59299 0.0
C97 C 0.98947 0.90905 0.60417 0.0
C98 C 0.09693 0.97224 0.59841 0.0
C99 C 0.12481 0.00361 0.6101 0.0
C100 C 0.13718 0.04294 0.59908 0.0
C101 C 0.12243 0.05127 0.576 0.0
C102 C 0.09489 0.01947 0.56421 0.0
C103 C 0.08231 0.98019 0.57533 0.0
C104 C 0.072 0.93106 0.6433 0.0
C105 C 0.08868 0.90173 0.66015 0.0
C106 C 0.08054 0.90991 0.68408 0.0
C107 C 0.05493 0.94719 0.69147 0.0
C108 C 0.03754 0.97606 0.67448 0.0
C109 C 0.04619 0.96813 0.65058 0.0
P110 P 0.57181 0.5891 0.90075 0.0
H111 H 0.55534 0.66726 0.93094 0.0
H112 H 0.48548 0.69789 0.94876 0.0
H113 H 0.40677 0.58779 0.91965 0.0
H114 H 0.4771 0.55691 0.90233 0.0
H115 H 0.64071 0.57709 0.93745 0.0
H116 H 0.66739 0.51174 0.95839 0.0
H117 H 0.56794 0.43054 0.92063 0.0
H118 H 0.54157 0.49618 0.89965 0.0
H119 H 0.50873 0.62803 0.86677 0.0
H120 H 0.61075 0.52416 0.86717 0.0
O121 O 0.61336 0.62752 0.90161 0.0
H122 H 0.49403 0.61297 0.82513 0.0
H123 H 0.59545 0.50811 0.82556 0.0
C124 C 0.52108 0.6103 0.915 0.0
C125 C 0.52308 0.64965 0.92848 0.0
C126 C 0.48309 0.66718 0.93859 0.0
C127 C 0.44048 0.64551 0.93541 0.0
C128 C 0.43906 0.60512 0.92258 0.0
C129 C 0.47912 0.5876 0.91254 0.0
C130 C 0.59022 0.54109 0.91652 0.0
C131 C 0.62471 0.54521 0.93366 0.0
C132 C 0.63956 0.50793 0.9458 0.0
C133 C 0.61995 0.46596 0.94102 0.0
C134 C 0.58415 0.46234 0.92441 0.0
C135 C 0.56912 0.49974 0.91241 0.0
C136 C 0.55974 0.57623 0.87028 0.0
C137 C 0.52735 0.60136 0.85802 0.0
C138 C 0.51889 0.59264 0.83418 0.0
C139 C 0.54315 0.55897 0.82204 0.0
C140 C 0.57622 0.53434 0.83434 0.0
C141 C 0.58468 0.54318 0.85821 0.0
P142 P 0.58126 0.41296 0.11363 0.0
H143 H 0.56843 0.35492 0.07261 0.0
H144 H 0.49995 0.32344 0.05355 0.0
H145 H 0.41376 0.39516 0.10318 0.0
H146 H 0.48242 0.42578 0.12238 0.0
H147 H 0.67255 0.45177 0.11 0.0
H148 H 0.70128 0.51991 0.09248 0.0
H149 H 0.56328 0.55181 0.06986 0.0
H150 H 0.535 0.48293 0.08704 0.0
H151 H 0.58536 0.35852 0.15546 0.0
H152 H 0.55023 0.49352 0.13886 0.0
O153 O 0.62216 0.37418 0.11191 0.0
H154 H 0.56966 0.37405 0.19703 0.0
H155 H 0.5334 0.50912 0.18032 0.0
C156 C 0.53047 0.39169 0.09924 0.0
C157 C 0.53476 0.36375 0.07939 0.0
C158 C 0.49557 0.34614 0.06838 0.0
C159 C 0.45138 0.35654 0.07697 0.0
C160 C 0.44731 0.38585 0.09642 0.0
C161 C 0.48655 0.40341 0.10741 0.0
C162 C 0.6019 0.46197 0.09941 0.0
C163 C 0.6486 0.47318 0.10103 0.0
C164 C 0.66486 0.51237 0.0912 0.0
C165 C 0.63452 0.54136 0.07982 0.0
C166 C 0.58761 0.52991 0.07822 0.0
C167 C 0.5714 0.49058 0.08806 0.0
C168 C 0.56992 0.42509 0.1442 0.0
C169 C 0.57437 0.39155 0.1608 0.0
C170 C 0.56495 0.4004 0.18453 0.0
C171 C 0.55038 0.4429 0.19204 0.0
C172 C 0.54533 0.47627 0.17521 0.0
C173 C 0.55486 0.46737 0.15147 0.0
H174 H 0.08574 0.16093 0.98811 0.0
H175 H 0.14935 0.21372 0.99383 0.0
H176 H 0.21573 0.12262 0.04065 0.0
H177 H 0.15291 0.06965 0.03496 0.0
H178 H 0.17817 0.25291 0.03645 0.0
H179 H 0.31909 0.15574 0.99506 0.0
H180 H 0.25902 0.14277 0.99018 0.0
H181 H 0.28759 0.12465 0.01642 0.0
C182 C 0.11409 0.15194 -0.00055 0.0
C183 C 0.11424 0.11098 0.01104 0.0
C184 C 0.15035 0.18216 0.00269 0.0
C185 C 0.18751 0.17174 0.01737 0.0
C186 C 0.18784 0.13089 0.02885 0.0
H187 H 0.37678 0.32258 0.09977 0.0
H188 H 0.31087 0.28336 0.0826 0.0
C189 C 0.15168 0.10076 0.02569 0.0
C190 C 0.22493 0.2043 0.02185 0.0
H191 H 0.34188 0.21522 0.02136 0.0
C192 C 0.21394 0.24503 0.03284 0.0
C193 C 0.27144 0.19422 0.01677 0.0
C194 C 0.28503 0.15215 0.00374 0.0
C195 C 0.24854 0.27493 0.04006 0.0
C196 C 0.29523 0.26339 0.03649 0.0
C197 C 0.30606 0.22379 0.02433 0.0
C198 C 0.33342 0.29035 0.04654 0.0
C199 C 0.2348 0.31833 0.05173 0.0
C200 C 0.36832 0.30681 0.03198 0.0
C201 C 0.40617 0.32925 0.04177 0.0
C202 C 0.4099 0.33535 0.06631 0.0
C203 C 0.37454 0.31923 0.08079 0.0
C204 C 0.33679 0.29683 0.071 0.0
H205 H 0.19947 0.32827 0.0465 0.0
H206 H 0.23509 0.31445 0.07112 0.0
H207 H 0.25913 0.34541 0.04723 0.0
H208 H 0.36645 0.30191 0.01306 0.0
H209 H 0.43262 0.34162 0.03013 0.0
H210 H 0.0445 0.83031 0.9749 0.0
H211 H 0.10312 0.77406 0.96661 0.0
H212 H 0.1978 0.8432 0.01303 0.0
H213 H 0.13928 0.89894 0.02184 0.0
H214 H 0.18329 0.79048 0.94541 0.0
H215 H 0.21835 0.7162 0.03185 0.0
H216 H 0.16783 0.74936 0.02641 0.0
H217 H 0.22209 0.77567 0.03332 0.0
C218 C 0.07751 0.83312 0.9837 0.0
C219 C 0.08724 0.86926 0.99897 0.0
C220 C 0.11093 0.80089 0.97895 0.0
C221 C 0.15463 0.80411 0.98942 0.0
C222 C 0.16397 0.83938 0.00521 0.0
H223 H 0.41631 0.73297 0.93437 0.0
H224 H 0.34457 0.76688 0.9478 0.0
C225 C 0.13052 0.87148 0.01007 0.0
C226 C 0.19207 0.77373 0.98187 0.0
H227 H 0.27838 0.70824 0.00258 0.0
C228 C 0.20358 0.77192 0.95788 0.0
C229 C 0.2182 0.74904 0.99808 0.0
C230 C 0.20567 0.74725 0.02381 0.0
C231 C 0.24191 0.74795 0.94983 0.0
C232 C 0.26999 0.726 0.96627 0.0
C233 C 0.25715 0.72574 0.99008 0.0
C234 C 0.31402 0.70521 0.95917 0.0
C235 C 0.25235 0.74684 0.9238 0.0
C236 C 0.32117 0.65952 0.96189 0.0
C237 C 0.3625 0.64004 0.95448 0.0
C238 C 0.39742 0.66609 0.94441 0.0
C239 C 0.39037 0.71204 0.94226 0.0
C240 C 0.34917 0.7314 0.94966 0.0
H241 H 0.22105 0.75346 0.91317 0.0
H242 H 0.27811 0.773 0.91988 0.0
H243 H 0.26679 0.7142 0.91819 0.0
H244 H 0.29454 0.63887 0.96941 0.0
H245 H 0.36714 0.60465 0.95664 0.0
H246 H 0.85683 0.85555 0.97829 0.0
H247 H 0.80443 0.79363 0.98527 0.0
H248 H 0.76164 0.85531 0.05077 0.0
H249 H 0.81334 0.91785 0.04375 0.0
H250 H 0.81512 0.73954 0.02219 0.0
H251 H 0.63962 0.81102 0.02418 0.0
H252 H 0.68824 0.83982 0.01168 0.0
H253 H 0.67913 0.84076 0.04301 0.0
C254 C 0.83559 0.85646 0.99397 0.0
C255 C 0.83956 0.89152 0.01057 0.0
C256 C 0.80559 0.82105 0.99789 0.0
C257 C 0.77887 0.82 0.01844 0.0
C258 C 0.78118 0.85587 0.03454 0.0
H259 H 0.69635 0.59915 0.0998 0.0
H260 H 0.72857 0.66646 0.08288 0.0
C261 C 0.81103 0.89148 0.03058 0.0
C262 C 0.75341 0.77904 0.02447 0.0
H263 H 0.64878 0.73966 0.04216 0.0
C264 C 0.7786 0.73949 0.02622 0.0
C265 C 0.70572 0.77891 0.02955 0.0
C266 C 0.67648 0.81982 0.02679 0.0
C267 C 0.75782 0.70025 0.03383 0.0
C268 C 0.71081 0.70074 0.04018 0.0
C269 C 0.68501 0.73967 0.0375 0.0
C270 C 0.68885 0.66153 0.05072 0.0
C271 C 0.78649 0.65864 0.03537 0.0
C272 C 0.65507 0.63718 0.03841 0.0
C273 C 0.63678 0.59839 0.04796 0.0
C274 C 0.65193 0.5836 0.07001 0.0
C275 C 0.68472 0.60906 0.08256 0.0
C276 C 0.70298 0.64764 0.073 0.0
H277 H 0.81837 0.66089 0.02464 0.0
H278 H 0.7967 0.65369 0.05396 0.0
H279 H 0.76649 0.62902 0.02939 0.0
H280 H 0.64378 0.64754 0.02118 0.0
H281 H 0.61176 0.57938 0.03781 0.0
H282 H 0.81821 0.11506 0.03001 0.0
H283 H 0.76445 0.17707 0.02582 0.0
H284 H 0.84486 0.2263 0.96799 0.0
H285 H 0.89894 0.16529 0.97222 0.0
H286 H 0.82054 0.29191 0.00054 0.0
H287 H 0.66902 0.18977 0.97305 0.0
H288 H 0.69558 0.17557 0.00049 0.0
H289 H 0.72673 0.1677 0.97345 0.0
C290 C 0.82443 0.13909 0.01639 0.0
C291 C 0.86283 0.13507 0.00139 0.0
C292 C 0.79356 0.17436 0.01398 0.0
C293 C 0.80043 0.20592 0.99642 0.0
C294 C 0.83893 0.20224 0.98164 0.0
H295 H 0.64001 0.38637 0.91994 0.0
H296 H 0.67894 0.32298 0.93724 0.0
C297 C 0.86979 0.16723 0.98408 0.0
C298 C 0.76793 0.24312 0.99316 0.0
H299 H 0.65934 0.26734 0.97435 0.0
C300 C 0.78509 0.28666 0.99509 0.0
C301 C 0.72185 0.23596 0.98594 0.0
C302 C 0.70207 0.18978 0.98291 0.0
C303 C 0.758 0.32326 0.9891 0.0
C304 C 0.71214 0.31609 0.98147 0.0
C305 C 0.69442 0.27265 0.98037 0.0
C306 C 0.68391 0.35269 0.97213 0.0
C307 C 0.77956 0.36899 0.98978 0.0
C308 C 0.6726 0.38989 0.9862 0.0
C309 C 0.65052 0.42633 0.9763 0.0
C310 C 0.63888 0.42584 0.95226 0.0
C311 C 0.64818 0.38759 0.93855 0.0
C312 C 0.67051 0.35139 0.9484 0.0
H313 H 0.81765 0.36757 0.99147 0.0
H314 H 0.77093 0.38746 0.97362 0.0
H315 H 0.76596 0.38804 0.00515 0.0
H316 H 0.68178 0.39114 0.00468 0.0
H317 H 0.6431 0.45511 0.98736 0.0
H318 H 0.59383 0.65899 0.48549 0.0
H319 H 0.6582 0.71135 0.48998 0.0
H320 H 0.72248 0.62414 0.53958 0.0
H321 H 0.6591 0.57159 0.53505 0.0
H322 H 0.68665 0.75476 0.53076 0.0
H323 H 0.82767 0.65109 0.49463 0.0
H324 H 0.76767 0.63789 0.48973 0.0
H325 H 0.7955 0.62257 0.51672 0.0
C326 C 0.62192 0.65074 0.49716 0.0
C327 C 0.62133 0.611 0.50986 0.0
C328 C 0.65861 0.6807 0.4997 0.0
C329 C 0.69543 0.67121 0.51479 0.0
C330 C 0.69496 0.63159 0.5274 0.0
H331 H 0.87889 0.82747 0.59713 0.0
H332 H 0.81394 0.78811 0.57904 0.0
C333 C 0.65844 0.60172 0.52491 0.0
C334 C 0.73321 0.70363 0.51866 0.0
H335 H 0.85032 0.71169 0.52052 0.0
C336 C 0.72244 0.7457 0.52814 0.0
C337 C 0.77981 0.69208 0.51482 0.0
C338 C 0.79336 0.64861 0.50318 0.0
C339 C 0.75722 0.77549 0.53526 0.0
C340 C 0.80383 0.76239 0.53324 0.0
C341 C 0.81456 0.72146 0.52239 0.0
C342 C 0.84183 0.78908 0.54371 0.0
C343 C 0.74364 0.82041 0.54518 0.0
C344 C 0.87957 0.80187 0.52995 0.0
C345 C 0.91699 0.82407 0.5403 0.0
C346 C 0.91731 0.83374 0.56462 0.0
C347 C 0.87927 0.8212 0.57829 0.0
C348 C 0.84204 0.79886 0.56796 0.0
H349 H 0.70968 0.83098 0.53823 0.0
H350 H 0.74063 0.81843 0.5646 0.0
H351 H 0.76968 0.84617 0.54099 0.0
H352 H 0.88022 0.79436 0.51123 0.0
H353 H 0.94568 0.83365 0.5293 0.0
H354 H 0.5689 0.34247 0.46988 0.0
H355 H 0.63029 0.28821 0.46407 0.0
H356 H 0.69612 0.33478 0.52801 0.0
H357 H 0.63542 0.38998 0.53369 0.0
H358 H 0.75448 0.33309 0.49154 0.0
H359 H 0.66223 0.17212 0.49427 0.0
H360 H 0.63685 0.20936 0.47369 0.0
H361 H 0.63665 0.22348 0.50463 0.0
C362 C 0.59598 0.34071 0.48294 0.0
C363 C 0.59736 0.37073 0.50219 0.0
C364 C 0.63091 0.30938 0.47968 0.0
C365 C 0.66744 0.30699 0.49579 0.0
C366 C 0.6681 0.33592 0.51543 0.0
H367 H 0.92955 0.16443 0.48389 0.0
H368 H 0.86242 0.20307 0.50036 0.0
C369 C 0.6334 0.36748 0.51862 0.0
C370 C 0.70729 0.2777 0.49079 0.0
H371 H 0.73735 0.17104 0.47629 0.0
C372 C 0.75087 0.29754 0.48861 0.0
C373 C 0.70246 0.23134 0.48691 0.0
C374 C 0.65708 0.20776 0.49023 0.0
C375 C 0.7894 0.2726 0.48173 0.0
C376 C 0.78425 0.22657 0.47712 0.0
C377 C 0.74101 0.20642 0.47984 0.0
C378 C 0.82297 0.19958 0.46807 0.0
C379 C 0.83499 0.29595 0.47849 0.0
C380 C 0.82231 0.18397 0.44469 0.0
C381 C 0.8606 0.16224 0.43519 0.0
C382 C 0.90017 0.15553 0.44897 0.0
C383 C 0.89994 0.16977 0.4727 0.0
C384 C 0.86161 0.19163 0.48217 0.0
H385 H 0.83142 0.3327 0.47904 0.0
H386 H 0.85888 0.28631 0.49276 0.0
H387 H 0.85086 0.28589 0.46143 0.0
H388 H 0.79275 0.18999 0.43356 0.0
H389 H 0.8598 0.1522 0.41679 0.0
H390 H 0.32157 0.414 0.54332 0.0
H391 H 0.26748 0.35262 0.54865 0.0
H392 H 0.31107 0.29376 0.4826 0.0
H393 H 0.36605 0.3544 0.47735 0.0
H394 H 0.19457 0.31673 0.52209 0.0
H395 H 0.33932 0.19714 0.52983 0.0
H396 H 0.34811 0.25649 0.53034 0.0
H397 H 0.33815 0.2274 0.50289 0.0
C398 C 0.31935 0.38826 0.52979 0.0
C399 C 0.34865 0.38872 0.51009 0.0
C400 C 0.28835 0.35327 0.53285 0.0
C401 C 0.28599 0.31827 0.51625 0.0
C402 C 0.31316 0.31997 0.49588 0.0
H403 H 0.15492 0.05884 0.53109 0.0
H404 H 0.18803 0.12497 0.51306 0.0
C405 C 0.34446 0.35472 0.49289 0.0
C406 C 0.25733 0.27875 0.52109 0.0
H407 H 0.26441 0.16815 0.53275 0.0
C408 C 0.20972 0.28415 0.52427 0.0
C409 C 0.27729 0.23633 0.52394 0.0
C410 C 0.32855 0.22886 0.52179 0.0
C411 C 0.18155 0.24823 0.53049 0.0
C412 C 0.20174 0.20613 0.53384 0.0
C413 C 0.24907 0.20049 0.53 0.0
C414 C 0.1755 0.16818 0.54321 0.0
C415 C 0.13054 0.25562 0.53355 0.0
C416 C 0.1571 0.1708 0.56602 0.0
C417 C 0.13822 0.13316 0.57634 0.0
C418 C 0.13761 0.09219 0.56407 0.0
C419 C 0.1545 0.09004 0.54089 0.0
C420 C 0.17354 0.12771 0.5306 0.0
H421 H 0.11869 0.28518 0.52382 0.0
H422 H 0.11053 0.22612 0.5274 0.0
H423 H 0.12296 0.2614 0.5525 0.0
H424 H 0.15909 0.2015 0.57622 0.0
H425 H 0.12508 0.13588 0.59415 0.0
H426 H 0.41466 0.67638 0.485 0.0
H427 H 0.35884 0.73593 0.48016 0.0
H428 H 0.25642 0.65941 0.51668 0.0
H429 H 0.31231 0.59932 0.52176 0.0
H430 H 0.22959 0.69375 0.47097 0.0
H431 H 0.30333 0.82368 0.53039 0.0
H432 H 0.34494 0.79753 0.51131 0.0
H433 H 0.31619 0.76527 0.53324 0.0
C434 C 0.38043 0.67225 0.49222 0.0
C435 C 0.36791 0.63305 0.50374 0.0
C436 C 0.34868 0.70647 0.48957 0.0
C437 C 0.30379 0.70219 0.49832 0.0
C438 C 0.29111 0.66337 0.51001 0.0
H439 H 0.11841 0.93005 0.47973 0.0
H440 H 0.15323 0.86465 0.49783 0.0
C441 C 0.32306 0.62917 0.51289 0.0
C442 C 0.26964 0.73718 0.49357 0.0
H443 H 0.25172 0.84864 0.50036 0.0
C444 C 0.23377 0.72746 0.47774 0.0
C445 C 0.27497 0.78092 0.50264 0.0
C446 C 0.31168 0.79252 0.52052 0.0
C447 C 0.20491 0.76111 0.46952 0.0
C448 C 0.21249 0.80542 0.47726 0.0
C449 C 0.24632 0.81463 0.4943 0.0
C450 C 0.18885 0.84312 0.46622 0.0
C451 C 0.16748 0.7493 0.45207 0.0
C452 C 0.19767 0.85257 0.44256 0.0
C453 C 0.1782 0.88983 0.43228 0.0
C454 C 0.14948 0.91828 0.44548 0.0
C455 C 0.14012 0.90842 0.46911 0.0
C456 C 0.16002 0.87127 0.47947 0.0
H457 H 0.15785 0.7136 0.45293 0.0
H458 H 0.13627 0.76981 0.45524 0.0
H459 H 0.18002 0.75582 0.43401 0.0
H460 H 0.22043 0.83157 0.43217 0.0
H461 H 0.18569 0.89646 0.41399 0.0
H462 H 0.91516 0.04065 0.10161 0.0
H463 H 0.92267 0.04906 0.14439 0.0
H464 H 0.05287 0.98056 0.14171 0.0
H465 H 0.04631 0.973 0.099 0.0
H466 H 0.93125 0.98917 0.17974 0.0
H467 H 0.08715 0.09544 0.1755 0.0
H468 H 0.05256 0.08228 0.14992 0.0
H469 H 0.09404 0.04298 0.16044 0.0
C470 C 0.94533 0.02726 0.11013 0.0
C471 C 0.9804 0.00663 0.09685 0.0
C472 C 0.94955 0.03209 0.13458 0.0
C473 C 0.9888 0.0163 0.14615 0.0
C474 C 0.0229 0.99408 0.13306 0.0
H475 H 0.02226 0.98023 0.29679 0.0
H476 H 0.00931 0.96987 0.25454 0.0
C477 C 0.01895 0.9896 0.10864 0.0
C478 C 0.99443 0.02347 0.17188 0.0
H479 H 0.06683 0.06861 0.21322 0.0
C480 C 0.96077 0.00671 0.18709 0.0
C481 C 0.0326 0.047 0.1814 0.0
C482 C 0.0684 0.06836 0.16597 0.0
C483 C 0.96466 0.01214 0.21162 0.0
C484 C 0.00383 0.03404 0.22116 0.0
C485 C 0.03707 0.05141 0.20591 0.0
C486 C 0.01088 0.04007 0.24688 0.0
C487 C 0.92638 0.9951 0.22702 0.0
C488 C 0.01744 0.08285 0.25654 0.0
C489 C 0.0259 0.08883 0.28058 0.0
C490 C 0.02789 0.05212 0.29554 0.0
C491 C 0.02132 0.00924 0.28579 0.0
C492 C 0.0132 0.00327 0.26168 0.0
H493 H 0.89364 0.99121 0.21705 0.0
H494 H 0.93601 0.962 0.23374 0.0
H495 H 0.92033 0.01778 0.24233 0.0
H496 H 0.01622 0.1117 0.24542 0.0
H497 H 0.03169 0.12225 0.28735 0.0
H498 H 0.94381 0.93816 0.90989 0.0
H499 H 0.95531 0.93249 0.86737 0.0
H500 H 0.0335 0.05459 0.86927 0.0
H501 H 0.02092 0.0613 0.91177 0.0
H502 H 0.97697 0.05083 0.83171 0.0
H503 H 0.07435 0.89336 0.83729 0.0
H504 H 0.0179 0.88939 0.84988 0.0
H505 H 0.0598 0.92649 0.86297 0.0
C506 C 0.96328 0.96395 0.90127 0.0
C507 C 0.98183 -3e-05 0.91426 0.0
C508 C 0.97008 0.96049 0.87697 0.0
C509 C 0.99629 0.99249 0.86525 0.0
C510 C 0.01347 0.02932 0.87801 0.0
H511 H 0.11756 0.94577 0.72723 0.0
H512 H 0.1038 0.95982 0.7692 0.0
C513 C 0.00622 0.03311 0.90229 0.0
C514 C 0.00628 0.98722 0.83975 0.0
H515 H 0.05209 0.91545 0.79894 0.0
C516 C 0.99359 0.02134 0.82453 0.0
C517 C 0.02881 0.9491 0.83047 0.0
C518 C 0.04645 0.91272 0.84603 0.0
C519 C 0.00199 0.018 0.80022 0.0
C520 C 0.02249 0.97892 0.79082 0.0
C521 C 0.03591 0.94519 0.80611 0.0
C522 C 0.03081 0.97225 0.76522 0.0
C523 C 0.98967 0.05677 0.78497 0.0
C524 C 0.99434 0.97428 0.74903 0.0
C525 C 0.00225 0.96667 0.72503 0.0
C526 C 0.0466 0.95603 0.71685 0.0
C527 C 0.08297 0.95358 0.73309 0.0
C528 C 0.07516 0.96173 0.75704 0.0
H529 H 0.988 0.08831 0.79541 0.0
H530 H 0.01499 0.0609 0.77054 0.0
H531 H 0.95522 0.05087 0.77704 0.0
H532 H 0.9596 0.98103 0.75498 0.0
H533 H 0.9735 0.96815 0.71291 0.0
H534 H 0.56084 0.49662 0.59951 0.0
H535 H 0.56606 0.50357 0.64224 0.0
H536 H 0.41991 0.52731 0.64632 0.0
H537 H 0.41408 0.52012 0.60337 0.0
H538 H 0.54028 0.57985 0.66944 0.0
H539 H 0.44316 0.4286 0.69507 0.0
H540 H 0.466 0.4357 0.6658 0.0
H541 H 0.41478 0.46464 0.67476 0.0
C542 C 0.52962 0.503 0.60941 0.0
C543 C 0.48698 0.50781 0.59795 0.0
C544 C 0.53274 0.50699 0.63386 0.0
C545 C 0.49335 0.51553 0.64742 0.0
C546 C 0.45061 0.52001 0.63616 0.0
H547 H 0.46054 0.55751 0.79868 0.0
H548 H 0.44746 0.5477 0.75633 0.0
C549 C 0.44741 0.51612 0.61162 0.0
C550 C 0.49777 0.5217 0.67323 0.0
H551 H 0.46875 0.47639 0.72588 0.0
C552 C 0.52465 0.55726 0.6818 0.0
C553 C 0.4771 0.49228 0.68924 0.0
C554 C 0.44888 0.45291 0.68086 0.0
C555 C 0.53144 0.56428 0.70602 0.0
C556 C 0.51159 0.53433 0.72206 0.0
C557 C 0.48406 0.49915 0.71352 0.0
C558 C 0.51946 0.53885 0.74776 0.0
C559 C 0.55931 0.60404 0.71423 0.0
C560 C 0.56418 0.53625 0.75699 0.0
C561 C 0.57183 0.54222 0.78112 0.0
C562 C 0.53481 0.55057 0.79652 0.0
C563 C 0.48988 0.5519 0.78726 0.0
C564 C 0.48229 0.54599 0.7631 0.0
H565 H 0.56119 0.62987 0.70052 0.0
H566 H 0.54447 0.61917 0.73049 0.0
H567 H 0.59497 0.59331 0.71817 0.0
H568 H 0.59327 0.52994 0.74549 0.0
H569 H 0.60688 0.54128 0.78762 0.0
H570 H 0.51045 0.56737 0.4113 0.0
H571 H 0.51949 0.56201 0.36851 0.0
H572 H 0.47007 0.42676 0.36912 0.0
H573 H 0.4617 0.43143 0.41181 0.0
H574 H 0.55111 0.43595 0.3448 0.0
H575 H 0.42373 0.5612 0.31594 0.0
H576 H 0.46501 0.58147 0.33713 0.0
H577 H 0.42422 0.53951 0.34537 0.0
C578 C 0.50098 0.53665 0.40231 0.0
C579 C 0.48544 0.4998 0.41502 0.0
C580 C 0.50594 0.53374 0.37782 0.0
C581 C 0.49497 0.49414 0.36561 0.0
C582 C 0.47864 0.45766 0.3782 0.0
H583 H 0.50641 0.38935 0.2234 0.0
H584 H 0.49361 0.40341 0.2654 0.0
C585 C 0.47388 0.46043 0.40263 0.0
C586 C 0.50311 0.48945 0.33994 0.0
H587 H 0.47199 0.52973 0.28639 0.0
C588 C 0.53371 0.45639 0.33203 0.0
C589 C 0.48059 0.51637 0.32334 0.0
C590 C 0.44624 0.5514 0.33079 0.0
C591 C 0.5424 0.44944 0.30798 0.0
C592 C 0.51945 0.47591 0.29138 0.0
C593 C 0.48942 0.50949 0.29923 0.0
C594 C 0.52563 0.4684 0.26578 0.0
C595 C 0.57643 0.4141 0.3005 0.0
C596 C 0.5469 0.50078 0.25202 0.0
C597 C 0.55454 0.49276 0.22802 0.0
C598 C 0.54074 0.45228 0.21734 0.0
C599 C 0.51833 0.42045 0.23114 0.0
C600 C 0.51083 0.42847 0.25512 0.0
H601 H 0.59895 0.40412 0.3153 0.0
H602 H 0.55736 0.3842 0.29416 0.0
H603 H 0.59843 0.42584 0.28587 0.0
H604 H 0.55848 0.53184 0.25997 0.0
H605 H 0.57223 0.51782 0.21796 0.0
loop_
_geom_bond_atom_site_label_1
_geom_bond_atom_site_label_2
_geom_bond_distance
_geom_bond_site_symmetry_2
_ccdc_geom_bond_type
O0 Zn1 1.953 . S
O0 C16 1.225 1_565 S
Zn1 O0 1.953 . S
Zn1 O2 1.949 1_565 S
Zn1 O8 1.919 . S
Zn1 O13 1.924 1_565 S
O2 Zn1 1.949 1_545 S
O2 Zn3 1.923 1_444 S
O2 Zn4 1.950 1_455 S
O2 Zn5 1.945 1_554 S
Zn3 O2 1.923 1_666 S
Zn3 O6 1.933 . S
Zn3 O9 1.941 1_655 S
Zn3 O10 1.965 . S
Zn4 O2 1.950 1_655 S
Zn4 O11 1.938 1_545 S
Zn4 O12 1.906 . S
Zn4 O22 1.953 . S
Zn5 O2 1.945 1_556 S
Zn5 O7 1.932 . S
Zn5 O14 1.977 1_455 S
Zn5 O15 1.910 . S
O6 Zn3 1.933 . S
O6 C17 1.226 1_665 S
O7 Zn5 1.932 . S
O7 C17 1.307 . S
O8 Zn1 1.919 . S
O8 C19 1.253 1_554 S
O9 Zn3 1.941 1_455 S
O9 C19 1.283 . S
O10 Zn3 1.965 . S
O10 C18 1.303 1_556 S
O11 Zn4 1.938 1_565 S
O11 C18 1.247 . S
O12 Zn4 1.906 . S
O12 C20 1.270 1_554 S
O13 Zn1 1.924 1_545 S
O13 C21 1.311 . S
O14 Zn5 1.977 1_655 S
O14 C20 1.289 . S
O15 Zn5 1.910 . S
O15 C21 1.231 1_556 S
C16 O0 1.225 1_545 S
C16 O22 1.298 1_455 S
C17 O6 1.226 1_445 S
C17 O7 1.307 . S
C18 O10 1.303 1_554 S
C18 O11 1.247 . S
C19 O8 1.253 1_556 S
C19 O9 1.283 . S
C20 O12 1.270 1_556 S
C20 O14 1.289 . S
C21 O13 1.311 . S
C21 O15 1.231 1_554 S
O22 Zn4 1.953 . S
O22 C16 1.298 1_655 S
O23 Zn24 1.953 . S
O23 C39 1.225 . S
Zn24 O23 1.953 . S
Zn24 O25 1.949 . S
Zn24 O31 1.919 . S
Zn24 O36 1.924 . S
O25 Zn24 1.949 . S
O25 Zn26 1.923 . S
O25 Zn27 1.950 . S
O25 Zn28 1.945 . S
Zn26 O25 1.923 . S
Zn26 O29 1.933 . S
Zn26 O32 1.941 . S
Zn26 O33 1.965 . S
Zn27 O25 1.950 . S
Zn27 O34 1.938 . S
Zn27 O35 1.906 . S
Zn27 O45 1.953 . S
Zn28 O25 1.945 . S
Zn28 O30 1.932 . S
Zn28 O37 1.977 . S
Zn28 O38 1.910 . S
O29 Zn26 1.933 . S
O29 C40 1.226 . S
O30 Zn28 1.932 . S
O30 C40 1.307 . S
O31 Zn24 1.919 . S
O31 C42 1.253 . S
O32 Zn26 1.941 . S
O32 C42 1.283 . S
O33 Zn26 1.965 . S
O33 C41 1.303 . S
O34 Zn27 1.938 . S
O34 C41 1.247 . S
O35 Zn27 1.906 . S
O35 C43 1.304 . S
O36 Zn24 1.924 . S
O36 C44 1.311 . S
O37 Zn28 1.977 . S
O37 C43 1.272 . S
O38 Zn28 1.910 . S
O38 C44 1.231 . S
C39 O23 1.225 . S
C39 O45 1.298 . S
C40 O29 1.226 . S
C40 O30 1.307 . S
C41 O33 1.303 . S
C41 O34 1.247 . S
C42 O31 1.253 . S
C42 O32 1.283 . S
C43 O35 1.304 . S
C43 O37 1.272 . S
C44 O36 1.311 . S
C44 O38 1.231 . S
O45 Zn27 1.953 . S
O45 C39 1.298 . S
P46 O57 1.490 . S
P46 C60 1.812 1_455 S
P46 C66 1.803 1_545 S
P46 C72 1.819 . S
H47 C61 0.941 1_455 S
H48 C62 0.939 . S
H49 C64 0.940 . S
H50 C65 0.940 . S
H51 C67 0.939 1_545 S
H52 C68 0.942 . S
H53 C70 0.940 . S
H54 C71 0.939 . S
H55 C73 0.941 . S
H56 C77 0.939 . S
O57 P46 1.490 . S
H58 C74 0.939 . S
H59 C76 0.940 . S
C60 P46 1.812 1_655 S
C60 C61 1.389 . S
C60 C65 1.391 . S
C61 H47 0.941 1_655 S
C61 C60 1.389 . S
C61 C62 1.397 . S
C62 H48 0.939 . S
C62 C61 1.397 . S
C62 C63 1.378 . S
C63 C62 1.378 . S
C63 C64 1.378 . S
C64 H49 0.940 . S
C64 C63 1.378 . S
C64 C65 1.396 . S
C65 H50 0.940 . S
C65 C60 1.391 . S
C65 C64 1.396 . S
C66 P46 1.803 1_565 S
C66 C67 1.378 . S
C66 C71 1.400 . S
C67 H51 0.939 1_565 S
C67 C66 1.378 . S
C67 C68 1.361 . S
C68 H52 0.942 . S
C68 C67 1.361 . S
C68 C69 1.369 . S
C69 C68 1.369 . S
C69 C70 1.404 . S
C70 H53 0.940 . S
C70 C69 1.404 . S
C70 C71 1.389 . S
C71 H54 0.939 . S
C71 C66 1.400 . S
C71 C70 1.389 . S
C72 P46 1.819 . S
C72 C73 1.391 . S
C72 C77 1.391 1_545 S
C73 H55 0.941 . S
C73 C72 1.391 . S
C73 C74 1.396 . S
C74 H58 0.939 . S
C74 C73 1.396 . S
C74 C75 1.397 . S
C75 C74 1.397 . S
C75 C76 1.385 1_545 S
C76 H59 0.940 . S
C76 C75 1.385 1_565 S
C76 C77 1.388 . S
C77 H56 0.939 . S
C77 C72 1.391 1_565 S
C77 C76 1.388 . S
P78 O89 1.490 . S
P78 C92 1.812 . S
P78 C98 1.803 1_565 S
P78 C104 1.819 . S
H79 C93 0.941 . S
H80 C94 0.939 . S
H81 C96 0.940 . S
H82 C97 0.940 . S
H83 C99 0.939 . S
H84 C100 0.942 . S
H85 C102 0.940 . S
H86 C103 0.939 . S
H87 C105 0.941 . S
H88 C109 0.939 . S
O89 P78 1.490 . S
H90 C106 0.939 . S
H91 C108 0.940 . S
C92 P78 1.812 . S
C92 C93 1.389 . S
C92 C97 1.391 1_455 S
C93 H79 0.941 . S
C93 C92 1.389 . S
C93 C94 1.397 1_455 S
C94 H80 0.939 . S
C94 C93 1.397 1_655 S
C94 C95 1.378 . S
C95 C94 1.378 . S
C95 C96 1.378 . S
C96 H81 0.940 . S
C96 C95 1.378 . S
C96 C97 1.396 . S
C97 H82 0.940 . S
C97 C92 1.391 1_655 S
C97 C96 1.396 . S
C98 P78 1.803 1_545 S
C98 C99 1.378 . S
C98 C103 1.400 . S
C99 H83 0.939 . S
C99 C98 1.378 . S
C99 C100 1.361 . S
C100 H84 0.942 . S
C100 C99 1.361 . S
C100 C101 1.369 . S
C101 C100 1.369 . S
C101 C102 1.404 . S
C102 H85 0.940 . S
C102 C101 1.404 . S
C102 C103 1.389 . S
C103 H86 0.939 . S
C103 C98 1.400 . S
C103 C102 1.389 . S
C104 P78 1.819 . S
C104 C105 1.391 . S
C104 C109 1.391 1_565 S
C105 H87 0.941 . S
C105 C104 1.391 . S
C105 C106 1.396 . S
C106 H90 0.939 . S
C106 C105 1.396 . S
C106 C107 1.397 . S
C107 C106 1.397 . S
C107 C108 1.385 1_565 S
C108 H91 0.940 . S
C108 C107 1.385 1_545 S
C108 C109 1.388 . S
C109 H88 0.939 . S
C109 C104 1.391 1_545 S
C109 C108 1.388 . S
P110 O121 1.490 . S
P110 C124 1.812 . S
P110 C130 1.803 . S
P110 C136 1.819 . S
H111 C125 0.941 . S
H112 C126 0.939 . S
H113 C128 0.940 . S
H114 C129 0.940 . S
H115 C131 0.939 . S
H116 C132 0.942 . S
H117 C134 0.940 . S
H118 C135 0.939 . S
H119 C137 0.941 . S
H120 C141 0.939 . S
O121 P110 1.490 . S
H122 C138 0.939 . S
H123 C140 0.940 . S
C124 P110 1.812 . S
C124 C125 1.389 . S
C124 C129 1.391 . S
C125 H111 0.941 . S
C125 C124 1.389 . S
C125 C126 1.397 . S
C126 H112 0.939 . S
C126 C125 1.397 . S
C126 C127 1.378 . S
C127 C126 1.378 . S
C127 C128 1.378 . S
C128 H113 0.940 . S
C128 C127 1.378 . S
C128 C129 1.396 . S
C129 H114 0.940 . S
C129 C124 1.391 . S
C129 C128 1.396 . S
C130 P110 1.803 . S
C130 C131 1.378 . S
C130 C135 1.400 . S
C131 H115 0.939 . S
C131 C130 1.378 . S
C131 C132 1.361 . S
C132 H116 0.942 . S
C132 C131 1.361 . S
C132 C133 1.369 . S
C133 C132 1.369 . S
C133 C134 1.404 . S
C134 H117 0.940 . S
C134 C133 1.404 . S
C134 C135 1.389 . S
C135 H118 0.939 . S
C135 C130 1.400 . S
C135 C134 1.389 . S
C136 P110 1.819 . S
C136 C137 1.391 . S
C136 C141 1.391 . S
C137 H119 0.941 . S
C137 C136 1.391 . S
C137 C138 1.396 . S
C138 H122 0.939 . S
C138 C137 1.396 . S
C138 C139 1.397 . S
C139 C138 1.397 . S
C139 C140 1.385 . S
C140 H123 0.940 . S
C140 C139 1.385 . S
C140 C141 1.388 . S
C141 H120 0.939 . S
C141 C136 1.391 . S
C141 C140 1.388 . S
P142 O153 1.490 . S
P142 C156 1.812 . S
P142 C162 1.803 . S
P142 C168 1.819 . S
H143 C157 0.941 . S
H144 C158 0.939 . S
H145 C160 0.940 . S
H146 C161 0.940 . S
H147 C163 0.939 . S
H148 C164 0.942 . S
H149 C166 0.940 . S
H150 C167 0.939 . S
H151 C169 0.941 . S
H152 C173 0.939 . S
O153 P142 1.490 . S
H154 C170 0.939 . S
H155 C172 0.940 . S
C156 P142 1.812 . S
C156 C157 1.389 . S
C156 C161 1.391 . S
C157 H143 0.941 . S
C157 C156 1.389 . S
C157 C158 1.397 . S
C158 H144 0.939 . S
C158 C157 1.397 . S
C158 C159 1.378 . S
C159 C158 1.378 . S
C159 C160 1.378 . S
C160 H145 0.940 . S
C160 C159 1.378 . S
C160 C161 1.396 . S
C161 H146 0.940 . S
C161 C156 1.391 . S
C161 C160 1.396 . S
C162 P142 1.803 . S
C162 C163 1.378 . S
C162 C167 1.400 . S
C163 H147 0.939 . S
C163 C162 1.378 . S
C163 C164 1.361 . S
C164 H148 0.942 . S
C164 C163 1.361 . S
C164 C165 1.369 . S
C165 C164 1.369 . S
C165 C166 1.404 . S
C166 H149 0.940 . S
C166 C165 1.404 . S
C166 C167 1.389 . S
C167 H150 0.939 . S
C167 C162 1.400 . S
C167 C166 1.389 . S
C168 P142 1.819 . S
C168 C169 1.391 . S
C168 C173 1.391 . S
C169 H151 0.941 . S
C169 C168 1.391 . S
C169 C170 1.396 . S
C170 H154 0.939 . S
C170 C169 1.396 . S
C170 C171 1.397 . S
C171 C170 1.397 . S
C171 C172 1.385 . S
C172 H155 0.940 . S
C172 C171 1.385 . S
C172 C173 1.388 . S
C173 H152 0.939 . S
C173 C168 1.391 . S
C173 C172 1.388 . S
H174 C182 0.929 . S
H175 C184 0.930 . S
H176 C186 0.930 . S
H177 C189 0.929 . S
H178 C192 0.930 . S
H179 C194 0.960 . S
H180 C194 0.960 . S
H181 C194 0.960 . S
C182 H174 0.929 . S
C182 C183 1.377 . S
C182 C184 1.384 . S
C183 C182 1.377 . S
C183 C189 1.390 . S
C184 H175 0.930 . S
C184 C182 1.384 . S
C184 C185 1.372 . S
C185 C184 1.372 . S
C185 C186 1.400 . S
C185 C190 1.490 . S
C186 H176 0.930 . S
C186 C185 1.400 . S
C186 C189 1.386 . S
H187 C203 0.930 . S
H188 C204 0.931 . S
C189 H177 0.929 . S
C189 C183 1.390 . S
C189 C186 1.386 . S
C190 C185 1.490 . S
C190 C192 1.395 . S
C190 C193 1.403 . S
H191 C197 0.930 . S
C192 H178 0.930 . S
C192 C190 1.395 . S
C192 C195 1.403 . S
C193 C190 1.403 . S
C193 C194 1.524 . S
C193 C197 1.400 . S
C194 H179 0.960 . S
C194 H180 0.960 . S
C194 H181 0.960 . S
C194 C193 1.524 . S
C195 C192 1.403 . S
C195 C196 1.392 . S
C195 C199 1.495 . S
C196 C195 1.392 . S
C196 C197 1.385 . S
C196 C198 1.478 . S
C197 H191 0.930 . S
C197 C193 1.400 . S
C197 C196 1.385 . S
C198 C196 1.478 . S
C198 C200 1.381 . S
C198 C204 1.383 . S
C199 C195 1.495 . S
C199 H205 0.959 . S
C199 H206 0.961 . S
C199 H207 0.960 . S
C200 C198 1.381 . S
C200 C201 1.394 . S
C200 H208 0.930 . S
C201 C200 1.394 . S
C201 C202 1.383 . S
C201 H209 0.929 . S
C202 C201 1.383 . S
C202 C203 1.377 . S
C203 H187 0.930 . S
C203 C202 1.377 . S
C203 C204 1.379 . S
C204 H188 0.931 . S
C204 C198 1.383 . S
C204 C203 1.379 . S
H205 C199 0.959 . S
H206 C199 0.961 . S
H207 C199 0.960 . S
H208 C200 0.930 . S
H209 C201 0.929 . S
H210 C218 0.929 . S
H211 C220 0.930 . S
H212 C222 0.930 . S
H213 C225 0.929 . S
H214 C228 0.930 . S
H215 C230 0.960 . S
H216 C230 0.960 . S
H217 C230 0.964 . S
C218 H210 0.929 . S
C218 C219 1.377 . S
C218 C220 1.384 . S
C219 C218 1.377 . S
C219 C225 1.390 . S
C220 H211 0.930 . S
C220 C218 1.384 . S
C220 C221 1.372 . S
C221 C220 1.372 . S
C221 C222 1.400 . S
C221 C226 1.490 . S
C222 H212 0.930 . S
C222 C221 1.400 . S
C222 C225 1.386 . S
H223 C239 0.930 . S
H224 C240 0.931 . S
C225 H213 0.929 . S
C225 C219 1.390 . S
C225 C222 1.386 . S
C226 C221 1.490 . S
C226 C228 1.395 . S
C226 C229 1.403 . S
H227 C233 0.930 . S
C228 H214 0.930 . S
C228 C226 1.395 . S
C228 C231 1.403 . S
C229 C226 1.403 . S
C229 C230 1.524 1_556 S
C229 C233 1.400 . S
C230 H215 0.960 . S
C230 H216 0.960 . S
C230 H217 0.964 . S
C230 C229 1.524 1_554 S
C231 C228 1.403 . S
C231 C232 1.392 . S
C231 C235 1.495 . S
C232 C231 1.392 . S
C232 C233 1.385 . S
C232 C234 1.478 . S
C233 H227 0.930 . S
C233 C229 1.400 . S
C233 C232 1.385 . S
C234 C232 1.478 . S
C234 C236 1.381 . S
C234 C240 1.383 . S
C235 C231 1.495 . S
C235 H241 0.959 . S
C235 H242 0.961 . S
C235 H243 0.960 . S
C236 C234 1.381 . S
C236 C237 1.394 . S
C236 H244 0.930 . S
C237 C236 1.394 . S
C237 C238 1.383 . S
C237 H245 0.929 . S
C238 C237 1.383 . S
C238 C239 1.377 . S
C239 H223 0.930 . S
C239 C238 1.377 . S
C239 C240 1.379 . S
C240 H224 0.931 . S
C240 C234 1.383 . S
C240 C239 1.379 . S
H241 C235 0.959 . S
H242 C235 0.961 . S
H243 C235 0.960 . S
H244 C236 0.930 . S
H245 C237 0.929 . S
H246 C254 0.929 1_556 S
H247 C256 0.938 . S
H248 C258 0.930 . S
H249 C261 0.929 . S
H250 C264 0.930 . S
H251 C266 0.960 . S
H252 C266 0.960 . S
H253 C266 0.960 . S
C254 H246 0.929 1_554 S
C254 C255 1.377 . S
C254 C256 1.384 . S
C255 C254 1.377 . S
C255 C261 1.390 . S
C256 H247 0.938 . S
C256 C254 1.384 . S
C256 C257 1.372 . S
C257 C256 1.372 . S
C257 C258 1.400 . S
C257 C262 1.490 . S
C258 H248 0.930 . S
C258 C257 1.400 . S
C258 C261 1.386 . S
H259 C275 0.930 . S
H260 C276 0.931 . S
C261 H249 0.929 . S
C261 C255 1.390 . S
C261 C258 1.386 . S
C262 C257 1.490 . S
C262 C264 1.395 . S
C262 C265 1.403 . S
H263 C269 0.930 . S
C264 H250 0.930 . S
C264 C262 1.395 . S
C264 C267 1.403 . S
C265 C262 1.403 . S
C265 C266 1.524 . S
C265 C269 1.400 . S
C266 H251 0.960 . S
C266 H252 0.960 . S
C266 H253 0.960 . S
C266 C265 1.524 . S
C267 C264 1.403 . S
C267 C268 1.392 . S
C267 C271 1.495 . S
C268 C267 1.392 . S
C268 C269 1.385 . S
C268 C270 1.478 . S
C269 H263 0.930 . S
C269 C265 1.400 . S
C269 C268 1.385 . S
C270 C268 1.478 . S
C270 C272 1.381 . S
C270 C276 1.383 . S
C271 C267 1.495 . S
C271 H277 0.959 . S
C271 H278 0.961 . S
C271 H279 0.960 . S
C272 C270 1.381 . S
C272 C273 1.394 . S
C272 H280 0.930 . S
C273 C272 1.394 . S
C273 C274 1.383 . S
C273 H281 0.929 . S
C274 C273 1.383 . S
C274 C275 1.377 . S
C275 H259 0.930 . S
C275 C274 1.377 . S
C275 C276 1.379 . S
C276 H260 0.931 . S
C276 C270 1.383 . S
C276 C275 1.379 . S
H277 C271 0.959 . S
H278 C271 0.961 . S
H279 C271 0.960 . S
H280 C272 0.930 . S
H281 C273 0.929 . S
H282 C290 0.929 . S
H283 C292 0.952 . S
H284 C294 0.930 . S
H285 C297 0.929 . S
H286 C300 0.930 . S
H287 C302 0.960 . S
H288 C302 0.960 . S
H289 C302 0.960 . S
C290 H282 0.929 . S
C290 C291 1.377 1_554 S
C290 C292 1.393 . S
C291 C290 1.377 1_556 S
C291 C297 1.390 . S
C292 H283 0.952 . S
C292 C290 1.393 . S
C292 C293 1.341 1_554 S
C293 C292 1.341 1_556 S
C293 C294 1.400 . S
C293 C298 1.490 . S
C294 H284 0.930 . S
C294 C293 1.400 . S
C294 C297 1.386 . S
H295 C311 0.930 . S
H296 C312 0.931 . S
C297 H285 0.929 . S
C297 C291 1.390 . S
C297 C294 1.386 . S
C298 C293 1.490 . S
C298 C300 1.395 . S
C298 C301 1.403 . S
H299 C305 0.930 . S
C300 H286 0.930 . S
C300 C298 1.395 . S
C300 C303 1.403 . S
C301 C298 1.403 . S
C301 C302 1.524 . S
C301 C305 1.400 . S
C302 H287 0.960 . S
C302 H288 0.960 . S
C302 H289 0.960 . S
C302 C301 1.524 . S
C303 C300 1.403 . S
C303 C304 1.392 . S
C303 C307 1.495 . S
C304 C303 1.392 . S
C304 C305 1.385 . S
C304 C306 1.478 . S
C305 H299 0.930 . S
C305 C301 1.400 . S
C305 C304 1.385 . S
C306 C304 1.478 . S
C306 C308 1.381 . S
C306 C312 1.383 . S
C307 C303 1.495 . S
C307 H313 0.959 . S
C307 H314 0.961 . S
C307 H315 0.960 . S
C308 C306 1.381 . S
C308 C309 1.394 . S
C308 H316 0.930 . S
C309 C308 1.394 . S
C309 C310 1.383 . S
C309 H317 0.929 . S
C310 C309 1.383 . S
C310 C311 1.377 . S
C311 H295 0.930 . S
C311 C310 1.377 . S
C311 C312 1.379 . S
C312 H296 0.931 . S
C312 C306 1.383 . S
C312 C311 1.379 . S
H313 C307 0.959 . S
H314 C307 0.961 . S
H315 C307 0.960 . S
H316 C308 0.930 . S
H317 C309 0.929 . S
H318 C326 0.929 . S
H319 C328 0.930 . S
H320 C330 0.930 . S
H321 C333 0.929 . S
H322 C336 0.930 . S
H323 C338 0.960 . S
H324 C338 0.960 . S
H325 C338 0.960 . S
C326 H318 0.929 . S
C326 C327 1.377 . S
C326 C328 1.384 . S
C327 C326 1.377 . S
C327 C333 1.390 . S
C328 H319 0.930 . S
C328 C326 1.384 . S
C328 C329 1.372 . S
C329 C328 1.372 . S
C329 C330 1.400 . S
C329 C334 1.490 . S
C330 H320 0.930 . S
C330 C329 1.400 . S
C330 C333 1.386 . S
H331 C347 0.930 . S
H332 C348 0.931 . S
C333 H321 0.929 . S
C333 C327 1.390 . S
C333 C330 1.386 . S
C334 C329 1.490 . S
C334 C336 1.395 . S
C334 C337 1.403 . S
H335 C341 0.930 . S
C336 H322 0.930 . S
C336 C334 1.395 . S
C336 C339 1.403 . S
C337 C334 1.403 . S
C337 C338 1.524 . S
C337 C341 1.400 . S
C338 H323 0.960 . S
C338 H324 0.960 . S
C338 H325 0.960 . S
C338 C337 1.524 . S
C339 C336 1.403 . S
C339 C340 1.392 . S
C339 C343 1.495 . S
C340 C339 1.392 . S
C340 C341 1.385 . S
C340 C342 1.478 . S
C341 H335 0.930 . S
C341 C337 1.400 . S
C341 C340 1.385 . S
C342 C340 1.478 . S
C342 C344 1.381 . S
C342 C348 1.383 . S
C343 C339 1.495 . S
C343 H349 0.959 . S
C343 H350 0.961 . S
C343 H351 0.960 . S
C344 C342 1.381 . S
C344 C345 1.394 . S
C344 H352 0.930 . S
C345 C344 1.394 . S
C345 C346 1.383 . S
C345 H353 0.929 . S
C346 C345 1.383 . S
C346 C347 1.377 . S
C347 H331 0.930 . S
C347 C346 1.377 . S
C347 C348 1.379 . S
C348 H332 0.931 . S
C348 C342 1.383 . S
C348 C347 1.379 . S
H349 C343 0.959 . S
H350 C343 0.961 . S
H351 C343 0.960 . S
H352 C344 0.930 . S
H353 C345 0.929 . S
H354 C362 0.929 . S
H355 C364 0.930 . S
H356 C366 0.930 . S
H357 C369 0.929 . S
H358 C372 0.930 . S
H359 C374 0.960 . S
H360 C374 0.960 . S
H361 C374 0.960 . S
C362 H354 0.929 . S
C362 C363 1.377 . S
C362 C364 1.384 . S
C363 C362 1.377 . S
C363 C369 1.390 . S
C364 H355 0.930 . S
C364 C362 1.384 . S
C364 C365 1.372 . S
C365 C364 1.372 . S
C365 C366 1.400 . S
C365 C370 1.490 . S
C366 H356 0.930 . S
C366 C365 1.400 . S
C366 C369 1.386 . S
H367 C383 0.930 . S
H368 C384 0.931 . S
C369 H357 0.929 . S
C369 C363 1.390 . S
C369 C366 1.386 . S
C370 C365 1.490 . S
C370 C372 1.395 . S
C370 C373 1.403 . S
H371 C377 0.930 . S
C372 H358 0.930 . S
C372 C370 1.395 . S
C372 C375 1.403 . S
C373 C370 1.403 . S
C373 C374 1.524 . S
C373 C377 1.400 . S
C374 H359 0.960 . S
C374 H360 0.960 . S
C374 H361 0.960 . S
C374 C373 1.524 . S
C375 C372 1.403 . S
C375 C376 1.392 . S
C375 C379 1.495 . S
C376 C375 1.392 . S
C376 C377 1.385 . S
C376 C378 1.478 . S
C377 H371 0.930 . S
C377 C373 1.400 . S
C377 C376 1.385 . S
C378 C376 1.478 . S
C378 C380 1.381 . S
C378 C384 1.383 . S
C379 C375 1.495 . S
C379 H385 0.959 . S
C379 H386 0.961 . S
C379 H387 0.960 . S
C380 C378 1.381 . S
C380 C381 1.394 . S
C380 H388 0.930 . S
C381 C380 1.394 . S
C381 C382 1.383 . S
C381 H389 0.929 . S
C382 C381 1.383 . S
C382 C383 1.377 . S
C383 H367 0.930 . S
C383 C382 1.377 . S
C383 C384 1.379 . S
C384 H368 0.931 . S
C384 C378 1.383 . S
C384 C383 1.379 . S
H385 C379 0.959 . S
H386 C379 0.961 . S
H387 C379 0.960 . S
H388 C380 0.930 . S
H389 C381 0.929 . S
H390 C398 0.929 . S
H391 C400 0.930 . S
H392 C402 0.930 . S
H393 C405 0.929 . S
H394 C408 0.930 . S
H395 C410 0.960 . S
H396 C410 0.960 . S
H397 C410 0.960 . S
C398 H390 0.929 . S
C398 C399 1.377 . S
C398 C400 1.384 . S
C399 C398 1.377 . S
C399 C405 1.390 . S
C400 H391 0.930 . S
C400 C398 1.384 . S
C400 C401 1.372 . S
C401 C400 1.372 . S
C401 C402 1.400 . S
C401 C406 1.490 . S
C402 H392 0.930 . S
C402 C401 1.400 . S
C402 C405 1.386 . S
H403 C419 0.930 . S
H404 C420 0.931 . S
C405 H393 0.929 . S
C405 C399 1.390 . S
C405 C402 1.386 . S
C406 C401 1.490 . S
C406 C408 1.395 . S
C406 C409 1.403 . S
H407 C413 0.930 . S
C408 H394 0.930 . S
C408 C406 1.395 . S
C408 C411 1.403 . S
C409 C406 1.403 . S
C409 C410 1.524 . S
C409 C413 1.400 . S
C410 H395 0.960 . S
C410 H396 0.960 . S
C410 H397 0.960 . S
C410 C409 1.524 . S
C411 C408 1.403 . S
C411 C412 1.392 . S
C411 C415 1.495 . S
C412 C411 1.392 . S
C412 C413 1.385 . S
C412 C414 1.478 . S
C413 H407 0.930 . S
C413 C409 1.400 . S
C413 C412 1.385 . S
C414 C412 1.478 . S
C414 C416 1.381 . S
C414 C420 1.383 . S
C415 C411 1.495 . S
C415 H421 0.959 . S
C415 H422 0.961 . S
C415 H423 0.960 . S
C416 C414 1.381 . S
C416 C417 1.394 . S
C416 H424 0.930 . S
C417 C416 1.394 . S
C417 C418 1.383 . S
C417 H425 0.929 . S
C418 C417 1.383 . S
C418 C419 1.377 . S
C419 H403 0.930 . S
C419 C418 1.377 . S
C419 C420 1.379 . S
C420 H404 0.931 . S
C420 C414 1.383 . S
C420 C419 1.379 . S
H421 C415 0.959 . S
H422 C415 0.961 . S
H423 C415 0.960 . S
H424 C416 0.930 . S
H425 C417 0.929 . S
H426 C434 0.929 . S
H427 C436 0.930 . S
H428 C438 0.930 . S
H429 C441 0.929 . S
H430 C444 0.930 . S
H431 C446 0.960 . S
H432 C446 0.960 . S
H433 C446 0.960 . S
C434 H426 0.929 . S
C434 C435 1.377 . S
C434 C436 1.384 . S
C435 C434 1.377 . S
C435 C441 1.390 . S
C436 H427 0.930 . S
C436 C434 1.384 . S
C436 C437 1.372 . S
C437 C436 1.372 . S
C437 C438 1.400 . S
C437 C442 1.490 . S
C438 H428 0.930 . S
C438 C437 1.400 . S
C438 C441 1.386 . S
H439 C455 0.930 . S
H440 C456 0.931 . S
C441 H429 0.929 . S
C441 C435 1.390 . S
C441 C438 1.386 . S
C442 C437 1.490 . S
C442 C444 1.395 . S
C442 C445 1.403 . S
H443 C449 0.930 . S
C444 H430 0.930 . S
C444 C442 1.395 . S
C444 C447 1.403 . S
C445 C442 1.403 . S
C445 C446 1.524 . S
C445 C449 1.400 . S
C446 H431 0.960 . S
C446 H432 0.960 . S
C446 H433 0.960 . S
C446 C445 1.524 . S
C447 C444 1.403 . S
C447 C448 1.392 . S
C447 C451 1.495 . S
C448 C447 1.392 . S
C448 C449 1.385 . S
C448 C450 1.478 . S
C449 H443 0.930 . S
C449 C445 1.400 . S
C449 C448 1.385 . S
C450 C448 1.478 . S
C450 C452 1.381 . S
C450 C456 1.383 . S
C451 C447 1.495 . S
C451 H457 0.959 . S
C451 H458 0.961 . S
C451 H459 0.960 . S
C452 C450 1.381 . S
C452 C453 1.394 . S
C452 H460 0.930 . S
C453 C452 1.394 . S
C453 C454 1.383 . S
C453 H461 0.929 . S
C454 C453 1.383 . S
C454 C455 1.377 . S
C455 H439 0.930 . S
C455 C454 1.377 . S
C455 C456 1.379 . S
C456 H440 0.931 . S
C456 C450 1.383 . S
C456 C455 1.379 . S
H457 C451 0.959 . S
H458 C451 0.961 . S
H459 C451 0.960 . S
H460 C452 0.930 . S
H461 C453 0.929 . S
H462 C470 0.929 . S
H463 C472 0.930 . S
H464 C474 0.930 1_655 S
H465 C477 0.928 1_655 S
H466 C480 0.930 . S
H467 C482 0.960 . S
H468 C482 0.960 . S
H469 C482 0.960 . S
C470 H462 0.929 . S
C470 C471 1.377 . S
C470 C472 1.384 . S
C471 C470 1.377 . S
C471 C477 1.391 1_545 S
C472 H463 0.930 . S
C472 C470 1.384 . S
C472 C473 1.372 . S
C473 C472 1.372 . S
C473 C474 1.400 1_545 S
C473 C478 1.490 . S
C474 H464 0.930 1_455 S
C474 C473 1.400 1_565 S
C474 C477 1.386 . S
H475 C491 0.930 . S
H476 C492 0.931 . S
C477 H465 0.928 1_455 S
C477 C471 1.391 1_565 S
C477 C474 1.386 . S
C478 C473 1.490 . S
C478 C480 1.395 1_455 S
C478 C481 1.403 1_545 S
H479 C485 0.930 . S
C480 H466 0.930 . S
C480 C478 1.395 1_655 S
C480 C483 1.403 . S
C481 C478 1.403 1_565 S
C481 C482 1.524 . S
C481 C485 1.400 . S
C482 H467 0.960 . S
C482 H468 0.960 . S
C482 H469 0.960 . S
C482 C481 1.524 . S
C483 C480 1.403 . S
C483 C484 1.392 . S
C483 C487 1.495 . S
C484 C483 1.392 . S
C484 C485 1.385 1_645 S
C484 C486 1.478 . S
C485 H479 0.930 . S
C485 C481 1.400 . S
C485 C484 1.385 1_465 S
C486 C484 1.478 . S
C486 C488 1.381 1_655 S
C486 C492 1.383 1_545 S
C487 C483 1.495 . S
C487 H493 0.959 . S
C487 H494 0.961 . S
C487 H495 0.960 . S
C488 C486 1.381 1_455 S
C488 C489 1.394 . S
C488 H496 0.930 . S
C489 C488 1.394 . S
C489 C490 1.383 1_455 S
C489 H497 0.929 . S
C490 C489 1.383 1_655 S
C490 C491 1.377 1_545 S
C491 H475 0.930 . S
C491 C490 1.377 1_565 S
C491 C492 1.379 . S
C492 H476 0.931 . S
C492 C486 1.383 1_565 S
C492 C491 1.379 . S
H493 C487 0.959 . S
H494 C487 0.961 . S
H495 C487 0.960 . S
H496 C488 0.930 . S
H497 C489 0.929 . S
H498 C506 0.929 . S
H499 C508 0.930 . S
H500 C510 0.930 . S
H501 C513 0.929 . S
H502 C516 0.929 1_655 S
H503 C518 0.960 . S
H504 C518 0.960 1_655 S
H505 C518 0.960 . S
C506 H498 0.929 . S
C506 C507 1.377 1_655 S
C506 C508 1.384 . S
C507 C506 1.377 1_455 S
C507 C513 1.390 1_545 S
C508 H499 0.930 . S
C508 C506 1.384 . S
C508 C509 1.372 1_655 S
C509 C508 1.372 1_455 S
C509 C510 1.400 1_545 S
C509 C514 1.490 . S
C510 H500 0.930 . S
C510 C509 1.400 1_565 S
C510 C513 1.386 . S
H511 C527 0.930 . S
H512 C528 0.936 . S
C513 H501 0.929 . S
C513 C507 1.390 1_565 S
C513 C510 1.386 . S
C514 C509 1.490 . S
C514 C516 1.395 . S
C514 C517 1.403 1_545 S
H515 C521 0.930 . S
C516 H502 0.929 1_455 S
C516 C514 1.395 . S
C516 C519 1.403 . S
C517 C514 1.403 1_565 S
C517 C518 1.524 . S
C517 C521 1.400 . S
C518 H503 0.960 . S
C518 H504 0.960 1_455 S
C518 H505 0.960 . S
C518 C517 1.524 . S
C519 C516 1.403 . S
C519 C520 1.392 . S
C519 C523 1.493 1_455 S
C520 C519 1.392 . S
C520 C521 1.385 1_545 S
C520 C522 1.478 . S
C521 H515 0.930 . S
C521 C517 1.400 . S
C521 C520 1.385 1_565 S
C522 C520 1.478 . S
C522 C524 1.381 1_455 S
C522 C528 1.376 1_545 S
C523 C519 1.493 1_655 S
C523 H529 0.962 . S
C523 H530 0.943 1_655 S
C523 H531 0.977 . S
C524 C522 1.381 1_655 S
C524 C525 1.394 . S
C524 H532 0.930 . S
C525 C524 1.394 . S
C525 C526 1.383 1_655 S
C525 H533 0.929 . S
C526 C525 1.383 1_455 S
C526 C527 1.377 1_545 S
C527 H511 0.930 . S
C527 C526 1.377 1_565 S
C527 C528 1.381 . S
C528 H512 0.936 . S
C528 C522 1.376 1_565 S
C528 C527 1.381 . S
H529 C523 0.962 . S
H530 C523 0.943 1_455 S
H531 C523 0.977 . S
H532 C524 0.930 . S
H533 C525 0.929 . S
H534 C542 0.929 . S
H535 C544 0.930 . S
H536 C546 0.930 . S
H537 C549 0.929 . S
H538 C552 0.930 . S
H539 C554 0.960 . S
H540 C554 0.960 . S
H541 C554 0.960 . S
C542 H534 0.929 . S
C542 C543 1.377 . S
C542 C544 1.384 . S
C543 C542 1.377 . S
C543 C549 1.390 . S
C544 H535 0.930 . S
C544 C542 1.384 . S
C544 C545 1.372 . S
C545 C544 1.372 . S
C545 C546 1.400 . S
C545 C550 1.490 . S
C546 H536 0.930 . S
C546 C545 1.400 . S
C546 C549 1.386 . S
H547 C563 0.930 . S
H548 C564 0.931 . S
C549 H537 0.929 . S
C549 C543 1.390 . S
C549 C546 1.386 . S
C550 C545 1.490 . S
C550 C552 1.395 . S
C550 C553 1.403 . S
H551 C557 0.930 . S
C552 H538 0.930 . S
C552 C550 1.395 . S
C552 C555 1.403 . S
C553 C550 1.403 . S
C553 C554 1.524 . S
C553 C557 1.400 . S
C554 H539 0.960 . S
C554 H540 0.960 . S
C554 H541 0.960 . S
C554 C553 1.524 . S
C555 C552 1.403 . S
C555 C556 1.392 . S
C555 C559 1.495 . S
C556 C555 1.392 . S
C556 C557 1.385 . S
C556 C558 1.478 . S
C557 H551 0.930 . S
C557 C553 1.400 . S
C557 C556 1.385 . S
C558 C556 1.478 . S
C558 C560 1.381 . S
C558 C564 1.383 . S
C559 C555 1.495 . S
C559 H565 0.959 . S
C559 H566 0.961 . S
C559 H567 0.960 . S
C560 C558 1.381 . S
C560 C561 1.394 . S
C560 H568 0.930 . S
C561 C560 1.394 . S
C561 C562 1.383 . S
C561 H569 0.929 . S
C562 C561 1.383 . S
C562 C563 1.377 . S
C563 H547 0.930 . S
C563 C562 1.377 . S
C563 C564 1.379 . S
C564 H548 0.931 . S
C564 C558 1.383 . S
C564 C563 1.379 . S
H565 C559 0.959 . S
H566 C559 0.961 . S
H567 C559 0.960 . S
H568 C560 0.930 . S
H569 C561 0.929 . S
H570 C578 0.929 . S
H571 C580 0.930 . S
H572 C582 0.930 . S
H573 C585 0.929 . S
H574 C588 0.930 . S
H575 C590 0.960 . S
H576 C590 0.960 . S
H577 C590 0.960 . S
C578 H570 0.929 . S
C578 C579 1.377 . S
C578 C580 1.384 . S
C579 C578 1.377 . S
C579 C585 1.390 . S
C580 H571 0.930 . S
C580 C578 1.384 . S
C580 C581 1.372 . S
C581 C580 1.372 . S
C581 C582 1.400 . S
C581 C586 1.490 . S
C582 H572 0.930 . S
C582 C581 1.400 . S
C582 C585 1.386 . S
H583 C599 0.930 . S
H584 C600 0.931 . S
C585 H573 0.929 . S
C585 C579 1.390 . S
C585 C582 1.386 . S
C586 C581 1.490 . S
C586 C588 1.395 . S
C586 C589 1.403 . S
H587 C593 0.930 . S
C588 H574 0.930 . S
C588 C586 1.395 . S
C588 C591 1.403 . S
C589 C586 1.403 . S
C589 C590 1.524 . S
C589 C593 1.400 . S
C590 H575 0.960 . S
C590 H576 0.960 . S
C590 H577 0.960 . S
C590 C589 1.524 . S
C591 C588 1.403 . S
C591 C592 1.392 . S
C591 C595 1.495 . S
C592 C591 1.392 . S
C592 C593 1.385 . S
C592 C594 1.478 . S
C593 H587 0.930 . S
C593 C589 1.400 . S
C593 C592 1.385 . S
C594 C592 1.478 . S
C594 C596 1.381 . S
C594 C600 1.383 . S
C595 C591 1.495 . S
C595 H601 0.959 . S
C595 H602 0.961 . S
C595 H603 0.960 . S
C596 C594 1.381 . S
C596 C597 1.394 . S
C596 H604 0.930 . S
C597 C596 1.394 . S
C597 C598 1.383 . S
C597 H605 0.929 . S
C598 C597 1.383 . S
C598 C599 1.377 . S
C599 H583 0.930 . S
C599 C598 1.377 . S
C599 C600 1.379 . S
C600 H584 0.931 . S
C600 C594 1.383 . S
C600 C599 1.379 . S
H601 C595 0.959 . S
H602 C595 0.961 . S
H603 C595 0.960 . S
H604 C596 0.930 . S
H605 C597 0.929 . S
C202 C159 1.407 . S
C183 C21 1.409 . S
C219 C19 1.398 . S
C238 C127 1.389 . S
C255 C18 1.359 . S
C274 C165 1.341 . S
C291 C20 1.401 . S
C310 C133 1.338 . S
C327 C44 1.409 . S
C346 C95 1.407 . S
C363 C42 1.402 . S
C382 C63 1.364 . S
C418 C101 1.359 . S
C399 C41 1.366 . S
C454 C69 1.372 . S
C435 C43 1.384 . S
C471 C16 1.493 . S
C490 C75 1.465 1_655 S
C507 C17 1.453 . S
C526 C107 1.433 1_545 S
C562 C139 1.438 . S
C543 C39 1.493 . S
C579 C40 1.455 . S
C598 C171 1.407 . S
