# Generated by pormake.
# Topology pyr, (3,6)-cn, num edge types: 1
# Building blocks:
#     Node 0, Type 0, BuildingBlock: BETDIP_clean_linker_0, # of connection points: 3
#     Node 1, Type 0, BuildingBlock: BETDIP_clean_linker_0, # of connection points: 3
#     Node 2, Type 0, BuildingBlock: BETDIP_clean_linker_0, # of connection points: 3
#     Node 3, Type 0, BuildingBlock: BETDIP_clean_linker_0, # of connection points: 3
#     Node 4, Type 0, BuildingBlock: BETDIP_clean_linker_0, # of connection points: 3
#     Node 5, Type 0, BuildingBlock: BETDIP_clean_linker_0, # of connection points: 3
#     Node 6, Type 0, BuildingBlock: BETDIP_clean_linker_0, # of connection points: 3
#     Node 7, Type 0, BuildingBlock: BETDIP_clean_linker_0, # of connection points: 3
#     Node 8, Type 1, BuildingBlock: VOLQOD_clean_sbu_1, # of connection points: 6
#     Node 9, Type 1, BuildingBlock: VOLQOD_clean_sbu_1, # of connection points: 6
#     Node 10, Type 1, BuildingBlock: VOLQOD_clean_sbu_1, # of connection points: 6
#     Node 11, Type 1, BuildingBlock: VOLQOD_clean_sbu_1, # of connection points: 6
#     Edge 12, Type (0, 1), BuildingBlock: ZUJKAS_clean_linker_0, # of connection points: 2
#     Edge 13, Type (0, 1), BuildingBlock: ZUJKAS_clean_linker_0, # of connection points: 2
#     Edge 14, Type (0, 1), BuildingBlock: ZUJKAS_clean_linker_0, # of connection points: 2
#     Edge 15, Type (0, 1), BuildingBlock: ZUJKAS_clean_linker_0, # of connection points: 2
#     Edge 16, Type (0, 1), BuildingBlock: ZUJKAS_clean_linker_0, # of connection points: 2
#     Edge 17, Type (0, 1), BuildingBlock: ZUJKAS_clean_linker_0, # of connection points: 2
#     Edge 18, Type (0, 1), BuildingBlock: ZUJKAS_clean_linker_0, # of connection points: 2
#     Edge 19, Type (0, 1), BuildingBlock: ZUJKAS_clean_linker_0, # of connection points: 2
#     Edge 20, Type (0, 1), BuildingBlock: ZUJKAS_clean_linker_0, # of connection points: 2
#     Edge 21, Type (0, 1), BuildingBlock: ZUJKAS_clean_linker_0, # of connection points: 2
#     Edge 22, Type (0, 1), BuildingBlock: ZUJKAS_clean_linker_0, # of connection points: 2
#     Edge 23, Type (0, 1), BuildingBlock: ZUJKAS_clean_linker_0, # of connection points: 2
#     Edge 24, Type (0, 1), BuildingBlock: ZUJKAS_clean_linker_0, # of connection points: 2
#     Edge 25, Type (0, 1), BuildingBlock: ZUJKAS_clean_linker_0, # of connection points: 2
#     Edge 26, Type (0, 1), BuildingBlock: ZUJKAS_clean_linker_0, # of connection points: 2
#     Edge 27, Type (0, 1), BuildingBlock: ZUJKAS_clean_linker_0, # of connection points: 2
#     Edge 28, Type (0, 1), BuildingBlock: ZUJKAS_clean_linker_0, # of connection points: 2
#     Edge 29, Type (0, 1), BuildingBlock: ZUJKAS_clean_linker_0, # of connection points: 2
#     Edge 30, Type (0, 1), BuildingBlock: ZUJKAS_clean_linker_0, # of connection points: 2
#     Edge 31, Type (0, 1), BuildingBlock: ZUJKAS_clean_linker_0, # of connection points: 2
#     Edge 32, Type (0, 1), BuildingBlock: ZUJKAS_clean_linker_0, # of connection points: 2
#     Edge 33, Type (0, 1), BuildingBlock: ZUJKAS_clean_linker_0, # of connection points: 2
#     Edge 34, Type (0, 1), BuildingBlock: ZUJKAS_clean_linker_0, # of connection points: 2
#     Edge 35, Type (0, 1), BuildingBlock: ZUJKAS_clean_linker_0, # of connection points: 2
# Relax obj value: 0.104
# Max RMSD: 0.185
# Mean RMSD: 0.151
data_MOF--net-pry--node1-VOLQOD_clean_sbu_1--node2-BETDIP_clean_linker_0--edge1-ZUJKAS_clean_linker_0
_symmetry_space_group_name_H-M    P1
_symmetry_Int_Tables_number       1
_symmetry_cell_setting            triclinic
loop_
_symmetry_equiv_pos_as_xyz
'x, y, z'
_cell_length_a     47.215299
_cell_length_b     46.680148
_cell_length_c     49.24941
_cell_angle_alpha  93.232404
_cell_angle_beta   85.857339
_cell_angle_gamma 96.983737
loop_
_atom_site_label
_atom_site_type_symbol
_atom_site_fract_x
_atom_site_fract_y
_atom_site_fract_z
_atom_type_partial_charge
H0 H 0.10223 0.16027 0.18481 0.0
H1 H 0.16622 0.1589 0.11806 0.0
H2 H 0.16936 0.10576 0.18576 0.0
H3 H 0.13724 0.1804 0.09595 0.0
C4 C 0.12347 0.1916 0.11039 0.0
C5 C 0.12108 0.15186 0.17515 0.0
C6 C 0.13445 0.13178 0.1884 0.0
C7 C 0.13208 0.1617 0.1497 0.0
C8 C 0.15702 0.15134 0.13744 0.0
C9 C 0.17043 0.13092 0.15023 0.0
C10 C 0.159 0.12134 0.1757 0.0
N11 N 0.11798 0.18261 0.1376 0.0
H12 H 0.36873 0.90698 0.67881 0.0
H13 H 0.37428 0.84362 0.61239 0.0
H14 H 0.4251 0.84142 0.68087 0.0
H15 H 0.33927 0.86172 0.59638 0.0
C16 C 0.33393 0.88094 0.60803 0.0
C17 C 0.37777 0.88821 0.66954 0.0
C18 C 0.39797 0.87554 0.68301 0.0
C19 C 0.36896 0.87703 0.64414 0.0
C20 C 0.38085 0.85283 0.63186 0.0
C21 C 0.40111 0.8398 0.64502 0.0
C22 C 0.40959 0.85139 0.67055 0.0
N23 N 0.34784 0.89062 0.63212 0.0
H24 H 0.65612 0.43995 0.87808 0.0
H25 H 0.58591 0.37206 0.87576 0.0
H26 H 0.65428 0.36617 0.92711 0.0
H27 H 0.5628 0.40567 0.8595 0.0
C28 C 0.5792 0.41819 0.84706 0.0
C29 C 0.64543 0.4197 0.88541 0.0
C30 C 0.65854 0.40439 0.90382 0.0
C31 C 0.61897 0.40862 0.87557 0.0
C32 C 0.60559 0.38171 0.88414 0.0
C33 C 0.61836 0.36623 0.90258 0.0
C34 C 0.64464 0.37785 0.91248 0.0
N35 N 0.60757 0.42396 0.85556 0.0
H36 H 0.89193 0.54471 0.40734 0.0
H37 H 0.95729 0.61662 0.39736 0.0
H38 H 0.88182 0.6266 0.44917 0.0
H39 H 0.98365 0.58362 0.37727 0.0
C40 C 0.96771 0.56898 0.36701 0.0
C41 C 0.90016 0.56688 0.41255 0.0
C42 C 0.88392 0.58406 0.43034 0.0
C43 C 0.92664 0.57827 0.40062 0.0
C44 C 0.93717 0.60725 0.4068 0.0
C45 C 0.92131 0.62469 0.42472 0.0
C46 C 0.8948 0.61285 0.43645 0.0
N47 N 0.94053 0.56087 0.38047 0.0
H48 H 0.86643 0.90364 0.94334 0.0
H49 H 0.9302 0.89902 0.87702 0.0
H50 H 0.85884 0.94637 0.86947 0.0
H51 H 0.95758 0.88971 0.91164 0.0
C52 C 0.94221 0.87505 0.92315 0.0
C53 C 0.87459 0.90949 0.92301 0.0
C54 C 0.85977 0.92684 0.90797 0.0
C55 C 0.9001 0.89967 0.91221 0.0
C56 C 0.91082 0.907 0.88578 0.0
C57 C 0.89619 0.92411 0.87027 0.0
C58 C 0.87077 0.93402 0.88162 0.0
N59 N 0.91336 0.8809 0.92771 0.0
H60 H 0.6351 0.08225 0.3628 0.0
H61 H 0.63106 0.14529 0.42967 0.0
H62 H 0.58021 0.14921 0.36152 0.0
H63 H 0.65443 0.11619 0.4513 0.0
C64 C 0.66605 0.10356 0.43612 0.0
C65 C 0.62628 0.10101 0.37232 0.0
C66 C 0.60645 0.11434 0.35898 0.0
C67 C 0.63504 0.1116 0.39792 0.0
C68 C 0.6238 0.13606 0.41042 0.0
C69 C 0.60393 0.1497 0.39735 0.0
C70 C 0.5953 0.13858 0.37176 0.0
N71 N 0.65638 0.09796 0.40945 0.0
H72 H 0.37906 0.56379 0.12911 0.0
H73 H 0.44652 0.63378 0.13934 0.0
H74 H 0.37455 0.64582 0.09498 0.0
H75 H 0.47084 0.60078 0.15321 0.0
C76 C 0.45523 0.5845 0.16234 0.0
C77 C 0.38843 0.58564 0.12514 0.0
C78 C 0.37354 0.60358 0.11085 0.0
C79 C 0.4149 0.59607 0.1354 0.0
C80 C 0.42667 0.62479 0.13093 0.0
C81 C 0.41206 0.64279 0.11648 0.0
C82 C 0.38564 0.63202 0.10648 0.0
N83 N 0.42777 0.57789 0.15191 0.0
H84 H 0.04865 0.39843 0.60802 0.0
H85 H 0.12523 0.45813 0.59878 0.0
H86 H 0.12042 0.37534 0.5561 0.0
H87 H 0.10373 0.48718 0.62732 0.0
C88 C 0.08602 0.47455 0.63802 0.0
C89 C 0.06986 0.40402 0.59844 0.0
C90 C 0.08252 0.38372 0.58092 0.0
C91 C 0.08487 0.43096 0.605 0.0
C92 C 0.11278 0.43794 0.59328 0.0
C93 C 0.12562 0.41799 0.57548 0.0
C94 C 0.11024 0.39109 0.5692 0.0
N95 N 0.07229 0.44881 0.62566 0.0
O96 O 0.99657 0.06422 0.5492 0.0
Zn97 Zn 0.97963 0.02305 0.5435 0.0
O98 O 0.0053 0.00174 0.51938 0.0
Zn99 Zn 0.98683 0.98962 0.4855 0.0
Zn100 Zn 0.04158 0.02609 0.51122 0.0
Zn101 Zn 0.01296 0.9679 0.53776 0.0
O102 O 0.98334 0.9462 0.47918 0.0
O103 O 0.0001 0.93151 0.51636 0.0
O104 O 0.94177 0.02388 0.52735 0.0
O105 O 0.94707 0.00169 0.48658 0.0
O106 O 0.00941 0.00781 0.45317 0.0
O107 O 0.04821 0.03123 0.4707 0.0
O108 O 0.07557 0.00905 0.52425 0.0
O109 O 0.97216 0.00591 0.58039 0.0
O110 O 0.05493 0.96819 0.54152 0.0
O111 O 0.99382 0.96618 0.57566 0.0
C112 C 0.02064 0.07826 0.54246 0.0
C113 C 0.98925 0.92603 0.49345 0.0
C114 C 0.03344 0.0234 0.45033 0.0
C115 C 0.93204 0.01494 0.50455 0.0
C116 C 0.07721 0.98551 0.53568 0.0
C117 C 0.97884 0.98306 0.59001 0.0
O118 O 0.04012 0.06617 0.52856 0.0
O119 O 0.49773 0.06855 0.98721 0.0
Zn120 Zn 0.47947 0.02847 0.99546 0.0
O121 O 0.50399 0.00929 0.01733 0.0
Zn122 Zn 0.51591 0.97532 0.99672 0.0
Zn123 Zn 0.538 0.03575 0.02603 0.0
Zn124 Zn 0.48255 0.99734 0.05111 0.0
O125 O 0.50408 0.93932 0.01721 0.0
O126 O 0.47803 0.95406 0.05351 0.0
O127 O 0.4724 0.00635 0.95962 0.0
O128 O 0.49812 0.9697 0.96059 0.0
O129 O 0.55861 0.97871 0.9894 0.0
O130 O 0.57424 0.02032 0.01039 0.0
O131 O 0.54095 0.04176 0.06668 0.0
O132 O 0.44137 0.03286 0.01575 0.0
O133 O 0.50309 0.01406 0.08385 0.0
O134 O 0.4436 0.01121 0.05439 0.0
C135 C 0.52007 0.0841 0.99488 0.0
C136 C 0.48861 0.934 0.03902 0.0
C137 C 0.57903 0.99752 0.99622 0.0
C138 C 0.48138 0.98349 0.94859 0.0
C139 C 0.52571 0.03142 0.08705 0.0
C140 C 0.43023 0.0251 0.03893 0.0
O141 O 0.53695 0.07443 0.01024 0.0
O142 O 0.52908 0.50846 0.56805 0.0
Zn143 Zn 0.52982 0.52521 0.53122 0.0
O144 O 0.50575 0.49961 0.50699 0.0
Zn145 Zn 0.52893 0.4857 0.47572 0.0
Zn146 Zn 0.48688 0.46636 0.52684 0.0
Zn147 Zn 0.47737 0.52144 0.49363 0.0
O148 O 0.51596 0.49681 0.44009 0.0
O149 O 0.48175 0.52434 0.45285 0.0
O150 O 0.57094 0.52981 0.5162 0.0
O151 O 0.57003 0.50196 0.47811 0.0
O152 O 0.52754 0.44256 0.47443 0.0
O153 O 0.49889 0.42862 0.51016 0.0
O154 O 0.4439 0.46438 0.52647 0.0
O155 O 0.51596 0.56469 0.53729 0.0
O156 O 0.43789 0.50226 0.50307 0.0
O157 O 0.47949 0.56155 0.51088 0.0
C158 C 0.51508 0.48662 0.57916 0.0
C159 C 0.49745 0.51277 0.43428 0.0
C160 C 0.51511 0.42273 0.4893 0.0
C161 C 0.58367 0.51898 0.49506 0.0
C162 C 0.42767 0.48015 0.51612 0.0
C163 C 0.49558 0.57578 0.52782 0.0
O164 O 0.49758 0.46912 0.56599 0.0
O165 O 0.98712 0.51141 0.06359 0.0
Zn166 Zn 0.98995 0.49502 0.02487 0.0
O167 O 0.01687 0.52062 0.00224 0.0
Zn168 Zn 0.99653 0.53441 0.97368 0.0
Zn169 Zn 0.03317 0.55422 0.02414 0.0
Zn170 Zn 0.04753 0.49918 0.98563 0.0
O171 O 0.01373 0.52375 0.9368 0.0
O172 O 0.04913 0.49863 0.94438 0.0
O173 O 0.95022 0.48906 0.01049 0.0
O174 O 0.95566 0.51734 0.97532 0.0
O175 O 0.99709 0.5774 0.97637 0.0
O176 O 0.02363 0.59217 0.01096 0.0
O177 O 0.07597 0.55553 0.02384 0.0
O178 O 0.00415 0.45606 0.02665 0.0
O179 O 0.08579 0.51719 0.99771 0.0
O180 O 0.04283 0.45828 0.99804 0.0
C181 C 1e-05 0.5334 0.07592 0.0
C182 C 0.0342 0.50962 0.92804 0.0
C183 C 0.00868 0.59762 0.99176 0.0
C184 C 0.94009 0.49981 0.99056 0.0
C185 C 0.09384 0.53931 0.01279 0.0
C186 C 0.02516 0.44451 0.01485 0.0
O187 O 0.01817 0.5512 0.06326 0.0
H188 H 0.16432 0.12691 0.23305 0.0
H189 H 0.14587 0.1085 0.2773 0.0
H190 H 0.06051 0.09572 0.24957 0.0
H191 H 0.07883 0.11396 0.20511 0.0
H192 H 0.09891 0.1304 0.3142 0.0
H193 H 0.07719 0.01534 0.27746 0.0
H194 H 0.10187 0.04126 0.25914 0.0
H195 H 0.06407 0.04202 0.25819 0.0
C196 C 0.14163 0.12007 0.23634 0.0
C197 C 0.12303 0.12171 0.21556 0.0
C198 C 0.13114 0.1097 0.26164 0.0
C199 C 0.10192 0.10051 0.26653 0.0
C200 C 0.08319 0.10248 0.24604 0.0
H201 H 0.00437 0.01881 0.4038 0.0
H202 H 0.02071 0.0381 0.35951 0.0
C203 C 0.09364 0.11307 0.22076 0.0
C204 C 0.09114 0.08885 0.29315 0.0
H205 H 0.06448 0.02647 0.32366 0.0
C206 C 0.09136 0.10769 0.31635 0.0
C207 C 0.08123 0.05927 0.29573 0.0
C208 C 0.08115 0.03812 0.27141 0.0
C209 C 0.08162 0.09776 0.34216 0.0
C210 C 0.07218 0.06801 0.34489 0.0
C211 C 0.0718 0.04923 0.32157 0.0
C212 C 0.0626 0.05593 0.37174 0.0
C213 C 0.08096 0.11937 0.36611 0.0
C214 C 0.08092 0.05899 0.3932 0.0
C215 C 0.07159 0.04816 0.41863 0.0
C216 C 0.04385 0.03366 0.423 0.0
C217 C 0.02585 0.02987 0.40119 0.0
C218 C 0.03515 0.04091 0.37584 0.0
H219 H 0.08066 0.14167 0.35943 0.0
H220 H 0.06198 0.11395 0.38034 0.0
H221 H 0.10046 0.1192 0.37737 0.0
H222 H 0.10249 0.06977 0.39031 0.0
H223 H 0.08612 0.05123 0.43487 0.0
H224 H 0.45185 0.88492 0.70133 0.0
H225 H 0.46563 0.90326 0.74669 0.0
H226 H 0.37738 0.91141 0.77143 0.0
H227 H 0.36335 0.89256 0.72636 0.0
H228 H 0.45565 0.95731 0.77416 0.0
H229 H 0.40418 0.86276 0.83054 0.0
H230 H 0.41127 0.86132 0.79399 0.0
H231 H 0.38134 0.87819 0.80914 0.0
C232 C 0.43536 0.89039 0.71651 0.0
C233 C 0.4065 0.88719 0.7103 0.0
C234 C 0.44328 0.90101 0.74232 0.0
C235 C 0.42248 0.90836 0.76245 0.0
C236 C 0.39371 0.90549 0.75627 0.0
H237 H 0.44852 0.00852 0.91505 0.0
H238 H 0.43426 0.99071 0.86976 0.0
C239 C 0.38577 0.89498 0.73044 0.0
C240 C 0.43093 0.91927 0.78986 0.0
H241 H 0.42331 0.90353 0.85705 0.0
C242 C 0.44862 0.94558 0.79231 0.0
C243 C 0.42192 0.90373 0.8134 0.0
C244 C 0.40382 0.8748 0.81176 0.0
C245 C 0.45728 0.95697 0.81779 0.0
C246 C 0.44776 0.94174 0.8414 0.0
C247 C 0.43035 0.91526 0.83891 0.0
C248 C 0.45621 0.95256 0.86885 0.0
C249 C 0.47696 0.98494 0.81922 0.0
C250 C 0.47278 0.93669 0.88352 0.0
C251 C 0.48092 0.94674 0.9094 0.0
C252 C 0.47244 0.97278 0.92122 0.0
C253 C 0.45551 0.98845 0.90655 0.0
C254 C 0.44746 0.9784 0.8806 0.0
H255 H 0.48731 0.99053 0.79892 0.0
H256 H 0.46442 0.0027 0.82687 0.0
H257 H 0.49387 0.98369 0.83352 0.0
H258 H 0.47963 0.91663 0.87482 0.0
H259 H 0.49387 0.93404 0.9201 0.0
H260 H 0.52959 0.4036 0.82268 0.0
H261 H 0.51787 0.41617 0.77749 0.0
H262 H 0.60016 0.46707 0.76691 0.0
H263 H 0.61226 0.45392 0.81167 0.0
H264 H 0.51369 0.46764 0.756 0.0
H265 H 0.60019 0.4144 0.699 0.0
H266 H 0.59049 0.409 0.73461 0.0
H267 H 0.61312 0.44093 0.72435 0.0
C268 C 0.54513 0.41749 0.81067 0.0
C269 C 0.57189 0.42754 0.82052 0.0
C270 C 0.53843 0.42466 0.78491 0.0
C271 C 0.55837 0.44206 0.76859 0.0
C272 C 0.58476 0.45297 0.77883 0.0
H273 H 0.55651 0.51393 0.61074 0.0
H274 H 0.56577 0.50352 0.65717 0.0
C275 C 0.59157 0.44559 0.8045 0.0
C276 C 0.55154 0.44874 0.74088 0.0
H277 H 0.57491 0.4437 0.67368 0.0
C278 C 0.52699 0.46227 0.73799 0.0
C279 C 0.56883 0.44155 0.71737 0.0
C280 C 0.59446 0.42541 0.71888 0.0
C281 C 0.5196 0.46929 0.71227 0.0
C282 C 0.53718 0.46255 0.68894 0.0
C283 C 0.56162 0.44896 0.69174 0.0
C284 C 0.53061 0.46946 0.66134 0.0
C285 C 0.49334 0.48426 0.71014 0.0
C286 C 0.50779 0.45363 0.6484 0.0
C287 C 0.50251 0.45935 0.62177 0.0
C288 C 0.51993 0.4811 0.6077 0.0
C289 C 0.54259 0.49711 0.62097 0.0
C290 C 0.54797 0.4912 0.64748 0.0
H291 H 0.48435 0.49175 0.73041 0.0
H292 H 0.49845 0.50311 0.69712 0.0
H293 H 0.4767 0.46907 0.70038 0.0
H294 H 0.49435 0.43657 0.65876 0.0
H295 H 0.48489 0.44662 0.61217 0.0
H296 H 0.93444 0.53103 0.33458 0.0
H297 H 0.94093 0.52265 0.28521 0.0
H298 H 0.01812 0.58257 0.2837 0.0
H299 H 0.01205 0.59055 0.33327 0.0
H300 H 0.94125 0.56296 0.24758 0.0
H301 H 0.04367 0.51524 0.23687 0.0
H302 H 0.02329 0.51842 0.26913 0.0
H303 H 0.04594 0.54912 0.25616 0.0
C304 C 0.95303 0.54208 0.3238 0.0
C305 C 0.97281 0.56146 0.33769 0.0
C306 C 0.95669 0.53729 0.29559 0.0
C307 C 0.98015 0.55175 0.28082 0.0
C308 C 0.00021 0.57069 0.29476 0.0
H309 H 0.02861 0.57334 0.11003 0.0
H310 H 0.02264 0.57783 0.15974 0.0
C311 C 0.99667 0.57534 0.32301 0.0
C312 C 0.9825 0.54853 0.25067 0.0
H313 H 0.02689 0.53066 0.19616 0.0
C314 C 0.95987 0.55565 0.23634 0.0
C315 C 0.00685 0.53906 0.23608 0.0
C316 C 0.0312 0.52975 0.25034 0.0
C317 C 0.96116 0.55409 0.20776 0.0
C318 C 0.98563 0.545 0.19323 0.0
C319 C 0.00822 0.53775 0.20748 0.0
C320 C 0.98824 0.54289 0.16314 0.0
C321 C 0.93665 0.56274 0.19327 0.0
C322 C 0.97075 0.52179 0.14871 0.0
C323 C 0.97412 0.51907 0.1203 0.0
C324 C 0.99505 0.53746 0.10585 0.0
C325 C 0.01221 0.55889 0.12046 0.0
C326 C 0.00892 0.56145 0.14887 0.0
H327 H 0.92193 0.57441 0.20723 0.0
H328 H 0.94477 0.5767 0.17619 0.0
H329 H 0.92424 0.54306 0.18457 0.0
H330 H 0.95486 0.50708 0.15947 0.0
H331 H 0.96058 0.5023 0.10971 0.0
H332 H 0.18221 0.07489 0.14566 0.0
H333 H 0.22578 0.05644 0.12556 0.0
H334 H 0.2607 0.14264 0.10453 0.0
H335 H 0.21742 0.16138 0.12512 0.0
H336 H 0.25122 0.0608 0.07117 0.0
H337 H 0.32241 0.11425 0.14886 0.0
H338 H 0.28391 0.11018 0.1541 0.0
H339 H 0.30185 0.13777 0.13289 0.0
C340 C 0.19925 0.08995 0.13692 0.0
C341 C 0.19646 0.11963 0.13714 0.0
C342 C 0.22403 0.07935 0.1253 0.0
C343 C 0.24655 0.09822 0.11386 0.0
C344 C 0.24368 0.12778 0.11359 0.0
H345 H 0.39511 0.05479 0.01192 0.0
H346 H 0.34984 0.0715 0.02939 0.0
C347 C 0.21886 0.1384 0.12513 0.0
C348 C 0.27312 0.08693 0.1024 0.0
H349 H 0.3445 0.0899 0.11116 0.0
C350 C 0.27164 0.06714 0.07987 0.0
C351 C 0.2996 0.09501 0.11404 0.0
C352 C 0.30217 0.11528 0.13895 0.0
C353 C 0.29609 0.05543 0.06843 0.0
C354 C 0.32269 0.06398 0.07974 0.0
C355 C 0.32409 0.08354 0.10245 0.0
C356 C 0.34935 0.05265 0.06857 0.0
C357 C 0.29321 0.03365 0.04468 0.0
C358 C 0.36419 0.0367 0.0849 0.0
C359 C 0.3901 0.02716 0.07503 0.0
C360 C 0.40182 0.03359 0.04868 0.0
C361 C 0.38669 0.04934 0.03226 0.0
C362 C 0.36073 0.05882 0.04215 0.0
H363 H 0.27061 0.02442 0.04255 0.0
H364 H 0.30114 0.04439 0.0256 0.0
H365 H 0.3062 0.01573 0.04696 0.0
H366 H 0.35579 0.0318 0.10539 0.0
H367 H 0.40114 0.01515 0.08828 0.0
H368 H 0.31431 0.93086 0.63017 0.0
H369 H 0.27323 0.95298 0.61708 0.0
H370 H 0.25814 0.88575 0.55427 0.0
H371 H 0.29962 0.86382 0.56692 0.0
H372 H 0.25256 0.94003 0.53689 0.0
H373 H 0.1906 0.92024 0.63565 0.0
H374 H 0.22504 0.9408 0.63859 0.0
H375 H 0.22268 0.90382 0.62574 0.0
C376 C 0.30231 0.92082 0.61352 0.0
C377 C 0.30997 0.89543 0.59968 0.0
C378 C 0.27876 0.93343 0.60614 0.0
C379 C 0.26232 0.92072 0.58502 0.0
C380 C 0.27046 0.89585 0.5707 0.0
H381 H 0.08857 0.9347 0.55483 0.0
H382 H 0.13446 0.92138 0.56601 0.0
C383 C 0.29408 0.88331 0.57797 0.0
C384 C 0.23623 0.93284 0.5782 0.0
H385 H 0.16988 0.94632 0.60416 0.0
C386 C 0.23449 0.94154 0.5516 0.0
C387 C 0.2126 0.93447 0.59737 0.0
C388 C 0.21259 0.92411 0.62587 0.0
C389 C 0.20965 0.9516 0.54356 0.0
C390 C 0.18613 0.95348 0.56282 0.0
C391 C 0.18802 0.94508 0.5895 0.0
C392 C 0.15857 0.96208 0.55536 0.0
C393 C 0.20842 0.95915 0.51431 0.0
C394 C 0.15679 0.98952 0.54572 0.0
C395 C 0.13044 0.99723 0.5391 0.0
C396 C 0.10539 0.97771 0.5423 0.0
C397 C 0.10735 0.95034 0.55214 0.0
C398 C 0.13361 0.94265 0.55858 0.0
H399 H 0.22552 0.95032 0.50083 0.0
H400 H 0.18738 0.95079 0.50647 0.0
H401 H 0.21131 0.983 0.51309 0.0
H402 H 0.1757 0.00507 0.54359 0.0
H403 H 0.12967 0.01853 0.53174 0.0
H404 H 0.67833 0.4598 0.92058 0.0
H405 H 0.72571 0.4774 0.93646 0.0
H406 H 0.75025 0.3913 0.92517 0.0
H407 H 0.70344 0.37374 0.90866 0.0
H408 H 0.7532 0.45851 0.98124 0.0
H409 H 0.81388 0.44159 0.88195 0.0
H410 H 0.7756 0.44203 0.88487 0.0
H411 H 0.79082 0.41036 0.89304 0.0
C412 C 0.69394 0.44472 0.92124 0.0
C413 C 0.68715 0.4154 0.91335 0.0
C414 C 0.72087 0.45474 0.93049 0.0
C415 C 0.7415 0.43567 0.93174 0.0
C416 C 0.73473 0.40641 0.92404 0.0
H417 H 0.90051 0.45891 0.01434 0.0
H418 H 0.85147 0.44404 0.00152 0.0
C419 C 0.70788 0.39638 0.91485 0.0
C420 C 0.77016 0.44623 0.94108 0.0
H421 H 0.84113 0.45283 0.92059 0.0
C422 C 0.77246 0.45741 0.968 0.0
C423 C 0.79515 0.44495 0.92365 0.0
C424 C 0.79385 0.43434 0.89419 0.0
C425 C 0.79925 0.46697 0.97809 0.0
C426 C 0.82428 0.46493 0.96085 0.0
C427 C 0.82189 0.45411 0.93383 0.0
C428 C 0.85323 0.47478 0.96996 0.0
C429 C 0.80054 0.47959 0.00691 0.0
C430 C 0.87048 0.49675 0.95631 0.0
C431 C 0.89844 0.5051 0.9634 0.0
C432 C 0.90985 0.49159 0.98428 0.0
C433 C 0.89237 0.46983 0.99825 0.0
C434 C 0.86429 0.46141 0.99105 0.0
H435 H 0.77953 0.48583 0.0152 0.0
H436 H 0.80678 0.46325 0.02014 0.0
H437 H 0.81676 0.49888 0.008 0.0
H438 H 0.86236 0.50729 0.93994 0.0
H439 H 0.91119 0.52201 0.95223 0.0
H440 H 0.84248 0.55166 0.40219 0.0
H441 H 0.79245 0.53844 0.4176 0.0
H442 H 0.80844 0.57908 0.4967 0.0
H443 H 0.85872 0.59206 0.48162 0.0
H444 H 0.76654 0.50665 0.46445 0.0
H445 H 0.74456 0.62136 0.46745 0.0
H446 H 0.77609 0.60926 0.44972 0.0
H447 H 0.77388 0.61381 0.48622 0.0
C448 C 0.83555 0.55723 0.42306 0.0
C449 C 0.85452 0.57306 0.44065 0.0
C450 C 0.80693 0.5498 0.43176 0.0
C451 C 0.79678 0.5582 0.4581 0.0
C452 C 0.81586 0.57286 0.47613 0.0
H453 H 0.62114 0.55021 0.5287 0.0
H454 H 0.67326 0.55882 0.52162 0.0
C455 C 0.84451 0.58025 0.46748 0.0
C456 C 0.76594 0.55274 0.46615 0.0
H457 H 0.7061 0.58666 0.48 0.0
C458 C 0.75329 0.52409 0.46798 0.0
C459 C 0.74886 0.57563 0.47078 0.0
C460 C 0.76137 0.60678 0.46829 0.0
C461 C 0.72383 0.51768 0.47428 0.0
C462 C 0.70661 0.54054 0.47822 0.0
C463 C 0.71939 0.56921 0.47694 0.0
C464 C 0.67513 0.53516 0.4826 0.0
C465 C 0.71145 0.48651 0.47683 0.0
C466 C 0.65895 0.51954 0.46272 0.0
C467 C 0.62924 0.51456 0.46667 0.0
C468 C 0.61508 0.52536 0.4905 0.0
C469 C 0.63134 0.54155 0.51014 0.0
C470 C 0.66112 0.54645 0.50617 0.0
H471 H 0.72804 0.47279 0.4813 0.0
H472 H 0.69394 0.4843 0.49315 0.0
H473 H 0.70258 0.47816 0.45727 0.0
H474 H 0.6693 0.5113 0.44405 0.0
H475 H 0.6174 0.50218 0.45103 0.0
H476 H 0.13447 0.21626 0.06178 0.0
H477 H 0.1144 0.25774 0.04575 0.0
H478 H 0.06226 0.26324 0.12107 0.0
H479 H 0.08289 0.2223 0.13749 0.0
H480 H 0.06005 0.26553 0.03678 0.0
H481 H 0.10083 0.345 0.11706 0.0
H482 H 0.11279 0.30974 0.11182 0.0
H483 H 0.07912 0.31397 0.13024 0.0
C484 C 0.11879 0.22641 0.07493 0.0
C485 C 0.11044 0.21624 0.10092 0.0
C486 C 0.1073 0.25005 0.06575 0.0
C487 C 0.08718 0.26394 0.08238 0.0
C488 C 0.07829 0.25335 0.10815 0.0
H489 H 0.99893 0.41295 0.05683 0.0
H490 H 0.01163 0.36761 0.07244 0.0
C491 C 0.08997 0.22983 0.11745 0.0
C492 C 0.07552 0.28937 0.07255 0.0
H493 H 0.06952 0.3609 0.08717 0.0
C494 C 0.06214 0.28638 0.0478 0.0
C495 C 0.07829 0.31661 0.08692 0.0
C496 C 0.09377 0.32169 0.11284 0.0
C497 C 0.05141 0.30985 0.03708 0.0
C498 C 0.05425 0.337 0.05143 0.0
C499 C 0.06726 0.33995 0.07632 0.0
C500 C 0.0449 0.36299 0.04051 0.0
C501 C 0.03699 0.30547 0.01058 0.0
C502 C 0.0593 0.37526 0.01726 0.0
C503 C 0.05223 0.40125 0.00834 0.0
C504 C 0.03057 0.41545 0.02251 0.0
C505 C 0.01562 0.40258 0.04535 0.0
C506 C 0.02288 0.3767 0.05437 0.0
H507 H 0.031 0.28221 0.00512 0.0
H508 H 0.01747 0.3167 0.01171 0.0
H509 H 0.05183 0.31481 0.99399 0.0
H510 H 0.07661 0.36518 0.0065 0.0
H511 H 0.06421 0.41053 0.99072 0.0
H512 H 0.64417 0.31739 0.90506 0.0
H513 H 0.62243 0.27002 0.91958 0.0
H514 H 0.54048 0.30223 0.93279 0.0
H515 H 0.56223 0.35 0.91859 0.0
H516 H 0.55754 0.27115 0.97696 0.0
H517 H 0.56682 0.21094 0.87688 0.0
H518 H 0.59932 0.23208 0.88638 0.0
H519 H 0.56891 0.24988 0.88014 0.0
C520 C 0.62153 0.31442 0.91113 0.0
C521 C 0.60489 0.33738 0.91077 0.0
C522 C 0.60911 0.2873 0.91915 0.0
C523 C 0.57983 0.28262 0.92691 0.0
C524 C 0.5631 0.30545 0.92666 0.0
H525 H 0.49202 0.11067 0.95845 0.0
H526 H 0.50372 0.15968 0.94253 0.0
C527 C 0.57549 0.33261 0.91846 0.0
C528 C 0.5671 0.25408 0.93624 0.0
H529 H 0.55659 0.18267 0.91607 0.0
C530 C 0.557 0.25182 0.96362 0.0
C531 C 0.5662 0.22903 0.91867 0.0
C532 C 0.57564 0.23051 0.8888 0.0
C533 C 0.54707 0.22487 0.97419 0.0
C534 C 0.54754 0.19966 0.95693 0.0
C535 C 0.55652 0.20206 0.92929 0.0
C536 C 0.53981 0.17047 0.96736 0.0
C537 C 0.53635 0.22353 0.00375 0.0
C538 C 0.55643 0.16033 0.9864 0.0
C539 C 0.54992 0.13234 0.99547 0.0
C540 C 0.52667 0.11395 0.9856 0.0
C541 C 0.51002 0.12427 0.96654 0.0
C542 C 0.51665 0.15225 0.95739 0.0
H543 H 0.53043 0.24474 0.01218 0.0
H544 H 0.51749 0.207 0.00638 0.0
H545 H 0.55349 0.21747 0.0158 0.0
H546 H 0.57471 0.17394 0.99395 0.0
H547 H 0.56323 0.1251 0.01011 0.0
H548 H 0.91903 0.65612 0.4732 0.0
H549 H 0.93171 0.70818 0.48098 0.0
H550 H 0.95903 0.71568 0.39598 0.0
H551 H 0.94583 0.6637 0.38782 0.0
H552 H 0.99761 0.746 0.43542 0.0
H553 H 0.88504 0.76997 0.45206 0.0
H554 H 0.89416 0.74146 0.47167 0.0
H555 H 0.89468 0.73681 0.43519 0.0
C556 C 0.92765 0.66885 0.45614 0.0
C557 C 0.93128 0.6558 0.42987 0.0
C558 C 0.9349 0.69853 0.46062 0.0
C559 C 0.9459 0.71568 0.43896 0.0
C560 C 0.95046 0.70271 0.4129 0.0
H561 H 0.96114 0.9046 0.44842 0.0
H562 H 0.95171 0.85391 0.43236 0.0
C563 C 0.9431 0.673 0.40835 0.0
C564 C 0.95235 0.74725 0.44358 0.0
H565 H 0.9212 0.80801 0.46313 0.0
C566 C 0.98094 0.75965 0.44127 0.0
C567 C 0.93046 0.76493 0.45079 0.0
C568 C 0.89931 0.75275 0.45238 0.0
C569 C 0.98832 0.78928 0.44707 0.0
C570 C 0.96651 0.80671 0.45553 0.0
C571 C 0.93784 0.79449 0.4568 0.0
C572 C 0.97309 0.83738 0.4645 0.0
C573 C 0.01936 0.80169 0.44427 0.0
C574 C 0.98793 0.84468 0.48801 0.0
C575 C 0.99321 0.87348 0.49732 0.0
C576 C 0.98369 0.89556 0.48328 0.0
C577 C 0.96883 0.88814 0.45966 0.0
C578 C 0.96342 0.85924 0.45044 0.0
H579 H 0.03234 0.78747 0.43103 0.0
H580 H 0.02175 0.82343 0.43572 0.0
H581 H 0.02809 0.80395 0.46471 0.0
H582 H 0.9951 0.82803 0.4994 0.0
H583 H 0.0047 0.87837 0.51559 0.0
H584 H 0.41958 0.82957 0.59169 0.0
H585 H 0.43742 0.7857 0.57095 0.0
H586 H 0.42781 0.74743 0.64924 0.0
H587 H 0.40926 0.79082 0.66999 0.0
H588 H 0.48514 0.75806 0.58368 0.0
H589 H 0.38223 0.68767 0.59926 0.0
H590 H 0.38466 0.72661 0.60214 0.0
H591 H 0.39472 0.70693 0.62954 0.0
C592 C 0.42107 0.81172 0.60445 0.0
C593 C 0.41286 0.81362 0.63247 0.0
C594 C 0.43145 0.78678 0.59261 0.0
C595 C 0.43361 0.76323 0.60851 0.0
C596 C 0.42594 0.76523 0.63654 0.0
H597 H 0.52168 0.6115 0.56726 0.0
H598 H 0.50811 0.658 0.58592 0.0
C599 C 0.4156 0.79015 0.64841 0.0
C600 C 0.44361 0.73642 0.59573 0.0
H601 H 0.42266 0.66457 0.58333 0.0
C602 C 0.47151 0.7376 0.58353 0.0
C603 C 0.42564 0.70988 0.59533 0.0
C604 C 0.39505 0.7076 0.60704 0.0
C605 C 0.48206 0.71277 0.57123 0.0
C606 C 0.46431 0.68609 0.57145 0.0
C607 C 0.4363 0.68503 0.58336 0.0
C608 C 0.47401 0.65898 0.55901 0.0
C609 C 0.51191 0.71538 0.55772 0.0
C610 C 0.45926 0.64405 0.53781 0.0
C611 C 0.46683 0.61746 0.5272 0.0
C612 C 0.48926 0.60511 0.53769 0.0
C613 C 0.5044 0.62042 0.5586 0.0
C614 C 0.49676 0.64707 0.56923 0.0
H615 H 0.52005 0.73815 0.55353 0.0
H616 H 0.52653 0.70732 0.57141 0.0
H617 H 0.51259 0.70217 0.53827 0.0
H618 H 0.4416 0.65284 0.52968 0.0
H619 H 0.4547 0.60635 0.5111 0.0
H620 H 0.91838 0.88782 0.83078 0.0
H621 H 0.93411 0.8983 0.78362 0.0
H622 H 0.91182 0.98506 0.79764 0.0
H623 H 0.89724 0.97518 0.84514 0.0
H624 H 0.90209 0.91369 0.74404 0.0
H625 H 0.99181 -0.00053 0.76171 0.0
H626 H 0.97563 0.97643 0.7882 0.0
H627 H 0.95872 0.00686 0.77941 0.0
C628 C 0.9174 0.90933 0.82402 0.0
C629 C 0.9067 0.93072 0.84182 0.0
C630 C 0.92617 0.91521 0.79698 0.0
C631 C 0.92451 0.94257 0.7872 0.0
C632 C 0.91386 0.96397 0.80488 0.0
H633 H 0.9519 0.01674 0.62864 0.0
H634 H 0.93821 0.00621 0.67623 0.0
C635 C 0.90519 0.95817 0.83195 0.0
C636 C 0.93273 0.94831 0.7582 0.0
H637 H 0.9765 0.99303 0.71649 0.0
C638 C 0.9185 0.93091 0.73801 0.0
C639 C 0.95413 0.97081 0.75038 0.0
C640 C 0.97116 0.9893 0.77104 0.0
C641 C 0.92472 0.93574 0.71022 0.0
C642 C 0.94589 0.95839 0.70246 0.0
C643 C 0.96018 0.97576 0.72259 0.0
C644 C 0.95366 0.96432 0.67349 0.0
C645 C 0.90823 0.91697 0.68937 0.0
C646 C 0.96699 0.94428 0.6563 0.0
C647 C 0.97493 0.95022 0.62911 0.0
C648 C 0.96966 0.97637 0.61863 0.0
C649 C 0.95618 0.99635 0.63597 0.0
C650 C 0.94839 0.99043 0.66319 0.0
H651 H 0.88867 0.90468 0.69875 0.0
H652 H 0.90196 0.93023 0.67327 0.0
H653 H 0.92201 0.90122 0.67947 0.0
H654 H 0.97157 0.92416 0.664 0.0
H655 H 0.98533 0.93438 0.61639 0.0
H656 H 0.64098 0.09617 0.31593 0.0
H657 H 0.62762 0.08108 0.26974 0.0
H658 H 0.54011 0.09398 0.29293 0.0
H659 H 0.55312 0.1086 0.33932 0.0
H660 H 0.58499 0.03535 0.25187 0.0
H661 H 0.56303 0.14454 0.22589 0.0
H662 H 0.58325 0.13874 0.25445 0.0
H663 H 0.54495 0.13133 0.25691 0.0
C664 C 0.61881 0.09541 0.31134 0.0
C665 C 0.59813 0.10374 0.3313 0.0
C666 C 0.61126 0.08694 0.2849 0.0
C667 C 0.58299 0.08685 0.2779 0.0
C668 C 0.56216 0.09445 0.29786 0.0
H669 H 0.50093 0.01054 0.13507 0.0
H670 H 0.51566 0.02364 0.18112 0.0
C671 C 0.56965 0.10283 0.32432 0.0
C672 C 0.57533 0.07901 0.24962 0.0
H673 H 0.55112 0.106 0.19377 0.0
C674 C 0.57763 0.05076 0.23911 0.0
C675 C 0.56609 0.09933 0.233 0.0
C676 C 0.56437 0.13027 0.24296 0.0
C677 C 0.57037 0.04211 0.21249 0.0
C678 C 0.56038 0.06222 0.19614 0.0
C679 C 0.5586 0.09061 0.20647 0.0
C680 C 0.55161 0.0542 0.16822 0.0
C681 C 0.57372 0.01165 0.20195 0.0
C682 C 0.56665 0.06749 0.14578 0.0
C683 C 0.5583 0.0601 0.11939 0.0
C684 C 0.53455 0.03946 0.11501 0.0
C685 C 0.51936 0.02645 0.13765 0.0
C686 C 0.52782 0.03377 0.164 0.0
H687 H 0.58771 0.00111 0.21453 0.0
H688 H 0.55241 0.99865 0.20248 0.0
H689 H 0.58282 0.01138 0.18051 0.0
H690 H 0.58499 0.08344 0.14869 0.0
H691 H 0.57043 0.07061 0.10246 0.0
H692 H 0.49728 0.60483 0.19524 0.0
H693 H 0.50548 0.58806 0.23983 0.0
H694 H 0.4363 0.51935 0.23125 0.0
H695 H 0.42719 0.53698 0.1872 0.0
H696 H 0.43101 0.54463 0.27894 0.0
H697 H 0.54337 0.52274 0.26227 0.0
H698 H 0.54003 0.5592 0.25467 0.0
H699 H 0.52252 0.52965 0.23458 0.0
C700 C 0.4841 0.58592 0.20277 0.0
C701 C 0.46162 0.57223 0.18788 0.0
C702 C 0.48894 0.57619 0.22815 0.0
C703 C 0.47187 0.55207 0.23876 0.0
C704 C 0.44982 0.53793 0.22349 0.0
H705 H 0.51376 0.48024 0.38925 0.0
H706 H 0.50635 0.48763 0.34161 0.0
C707 C 0.44464 0.548 0.19832 0.0
C708 C 0.47557 0.54307 0.26662 0.0
H709 H 0.52563 0.52888 0.30911 0.0
C710 C 0.45166 0.54081 0.2854 0.0
C711 C 0.50236 0.53756 0.27505 0.0
C712 C 0.52842 0.53709 0.25546 0.0
C713 C 0.45395 0.53415 0.31252 0.0
C714 C 0.48114 0.53077 0.32143 0.0
C715 C 0.50487 0.532 0.30244 0.0
C716 C 0.48547 0.52624 0.35038 0.0
C717 C 0.42706 0.53048 0.33115 0.0
C718 C 0.47663 0.54571 0.37116 0.0
C719 C 0.4804 0.54126 0.39841 0.0
C720 C 0.49378 0.51766 0.40539 0.0
C721 C 0.50339 0.49865 0.38452 0.0
C722 C 0.49916 0.50283 0.35729 0.0
H723 H 0.40788 0.52391 0.31944 0.0
H724 H 0.42821 0.51405 0.34636 0.0
H725 H 0.42409 0.55141 0.34216 0.0
H726 H 0.46691 0.56448 0.36631 0.0
H727 H 0.47312 0.55652 0.41398 0.0
H728 H 0.04065 0.4517 0.67101 0.0
H729 H 0.03289 0.4602 0.72022 0.0
H730 H 0.10975 0.52053 0.72051 0.0
H731 H 0.11723 0.51264 0.671 0.0
H732 H 0.06763 0.44887 0.75853 0.0
H733 H 0.0533 0.56536 0.76543 0.0
H734 H 0.05218 0.54406 0.73371 0.0
H735 H 0.08595 0.55754 0.74712 0.0
C736 C 0.0557 0.46708 0.68148 0.0
C737 C 0.07958 0.48156 0.66725 0.0
C738 C 0.05126 0.47187 0.70961 0.0
C739 C 0.07061 0.49115 0.72401 0.0
C740 C 0.09423 0.50601 0.70974 0.0
H741 H 0.08065 0.48844 0.90078 0.0
H742 H 0.09116 0.48415 0.85138 0.0
C743 C 0.09854 0.50142 0.68152 0.0
C744 C 0.06675 0.49439 0.75409 0.0
H745 H 0.05759 0.54347 0.80705 0.0
C746 C 0.06539 0.46955 0.76916 0.0
C747 C 0.06367 0.52136 0.76786 0.0
C748 C 0.06357 0.54857 0.75272 0.0
C749 C 0.06086 0.47087 0.79764 0.0
C750 C 0.05832 0.49792 0.81145 0.0
C751 C 0.05982 0.5228 0.7964 0.0
C752 C 0.0525 0.50071 0.84138 0.0
C753 C 0.05796 0.44318 0.81256 0.0
C754 C 0.02766 0.51205 0.8521 0.0
C755 C 0.02177 0.51482 0.88021 0.0
C756 C 0.04061 0.50626 0.89824 0.0
C757 C 0.06558 0.49498 0.88746 0.0
C758 C 0.07156 0.49241 0.85924 0.0
H759 H 0.05326 0.42389 0.79863 0.0
H760 H 0.07834 0.44129 0.82182 0.0
H761 H 0.04071 0.44302 0.82913 0.0
H762 H 0.01268 0.51859 0.83867 0.0
H763 H 0.00233 0.52358 0.88777 0.0
H764 H 0.84153 0.97995 0.90438 0.0
H765 H 0.79538 0.99528 0.92109 0.0
H766 H 0.76982 0.91157 0.95374 0.0
H767 H 0.8157 0.89592 0.93683 0.0
H768 H 0.74124 0.96976 0.90673 0.0
H769 H 0.7517 0.96812 0.01811 0.0
H770 H 0.78201 0.96817 0.99351 0.0
H771 H 0.75891 0.93528 0.99952 0.0
C772 C 0.82609 0.96478 0.91511 0.0
C773 C 0.83233 0.9367 0.9193 0.0
C774 C 0.79981 0.97364 0.92476 0.0
C775 C 0.77937 0.95469 0.93895 0.0
C776 C 0.78556 0.92674 0.94335 0.0
H777 H 0.59709 0.95327 0.96321 0.0
H778 H 0.64619 0.94488 0.94928 0.0
C779 C 0.81181 0.91784 0.93368 0.0
C780 C 0.75097 0.96359 0.9479 0.0
H781 H 0.70511 0.9719 0.00388 0.0
C782 C 0.73341 0.97045 0.92798 0.0
C783 C 0.74096 0.96479 0.97566 0.0
C784 C 0.75945 0.95897 0.998 0.0
C785 C 0.70572 0.97761 0.93502 0.0
C786 C 0.69526 0.97758 0.96266 0.0
C787 C 0.71313 0.97163 0.98268 0.0
C788 C 0.66555 0.98295 0.97108 0.0
C789 C 0.68787 0.98517 0.91284 0.0
C790 C 0.66021 0.00687 0.98839 0.0
C791 C 0.63211 0.01177 0.99646 0.0
C792 C 0.60887 0.99263 0.98755 0.0
C793 C 0.61442 0.96853 0.97039 0.0
C794 C 0.64248 0.96374 0.96228 0.0
H795 H 0.70128 0.99142 0.89414 0.0
H796 H 0.6726 0.96608 0.90738 0.0
H797 H 0.67537 0.00318 0.91985 0.0
H798 H 0.67779 0.02185 0.99551 0.0
H799 H 0.62864 0.03047 0.00976 0.0
H800 H 0.69052 0.11152 0.48459 0.0
H801 H 0.73495 0.0945 0.49674 0.0
H802 H 0.74457 0.05266 0.41683 0.0
H803 H 0.70057 0.06981 0.40447 0.0
H804 H 0.74997 0.03771 0.49706 0.0
H805 H 0.82091 0.10394 0.42365 0.0
H806 H 0.78446 0.11044 0.4328 0.0
H807 H 0.79191 0.08154 0.40866 0.0
C808 C 0.70215 0.09866 0.46967 0.0
C809 C 0.69222 0.09218 0.44358 0.0
C810 C 0.72745 0.08895 0.47662 0.0
C811 C 0.74326 0.07273 0.45752 0.0
C812 C 0.73299 0.06565 0.43167 0.0
H813 H 0.90469 0.00133 0.45745 0.0
H814 H 0.85797 0.01364 0.44681 0.0
C815 C 0.70775 0.07536 0.4247 0.0
C816 C 0.77055 0.06328 0.46459 0.0
H817 H 0.84213 0.06952 0.4465 0.0
C818 C 0.77016 0.04471 0.48609 0.0
C819 C 0.79682 0.07247 0.45021 0.0
C820 C 0.79873 0.0934 0.4277 0.0
C821 C 0.79533 0.03469 0.49333 0.0
C822 C 0.82158 0.04387 0.47892 0.0
C823 C 0.82194 0.06241 0.45742 0.0
C824 C 0.84908 0.03498 0.48609 0.0
C825 C 0.79354 0.01395 0.51597 0.0
C826 C 0.85957 0.04296 0.5117 0.0
C827 C 0.88626 0.03597 0.51788 0.0
C828 C 0.90308 0.021 0.49848 0.0
C829 C 0.89233 0.01281 0.4729 0.0
C830 C 0.86564 0.01984 0.46675 0.0
H831 H 0.77142 0.00324 0.51997 0.0
H832 H 0.80803 0.99706 0.51105 0.0
H833 H 0.80018 0.02601 0.53497 0.0
H834 H 0.84739 0.05515 0.52672 0.0
H835 H 0.89387 0.04273 0.53773 0.0
H836 H 0.32606 0.63157 0.11632 0.0
H837 H 0.28007 0.61697 0.0969 0.0
H838 H 0.31049 0.53815 0.06318 0.0
H839 H 0.35675 0.55266 0.08279 0.0
H840 H 0.27177 0.60655 0.04162 0.0
H841 H 0.23247 0.50985 0.10076 0.0
H842 H 0.26156 0.53598 0.11115 0.0
H843 H 0.26747 0.50989 0.08376 0.0
C844 C 0.32291 0.61106 0.10487 0.0
C845 C 0.345 0.5933 0.10092 0.0
C846 C 0.29664 0.60273 0.09384 0.0
C847 C 0.29184 0.57645 0.07871 0.0
C848 C 0.31362 0.55832 0.07516 0.0
H849 H 0.13692 0.5058 0.9988 0.0
H850 H 0.18635 0.51422 0.01198 0.0
C851 C 0.33999 0.56661 0.08634 0.0
C852 C 0.26439 0.56898 0.06579 0.0
H853 H 0.2034 0.52147 0.06694 0.0
C854 C 0.25686 0.58787 0.04706 0.0
C855 C 0.24512 0.5445 0.07282 0.0
C856 C 0.25184 0.52395 0.09337 0.0
C857 C 0.23031 0.58325 0.0355 0.0
C858 C 0.2107 0.55929 0.04315 0.0
C859 C 0.21855 0.53984 0.06118 0.0
C860 C 0.18133 0.55495 0.03387 0.0
C861 C 0.22341 0.60408 0.01529 0.0
C862 C 0.16223 0.57512 0.04183 0.0
C863 C 0.13399 0.5704 0.03442 0.0
C864 C 0.1243 0.54534 0.01893 0.0
C865 C 0.14368 0.52538 0.01063 0.0
C866 C 0.17191 0.53009 0.01819 0.0
H867 H 0.24307 0.61641 0.00615 0.0
H868 H 0.21122 0.59255 0.99868 0.0
H869 H 0.21003 0.6198 0.02589 0.0
H870 H 0.16901 0.59424 0.05431 0.0
H871 H 0.11966 0.58617 0.04123 0.0
H872 H 0.15275 0.46761 0.55387 0.0
H873 H 0.20367 0.47812 0.53967 0.0
H874 H 0.2179 0.39305 0.56152 0.0
H875 H 0.16725 0.3824 0.5755 0.0
H876 H 0.24875 0.47907 0.57153 0.0
H877 H 0.25813 0.39751 0.48618 0.0
H878 H 0.22405 0.40702 0.50051 0.0
H879 H 0.24244 0.382 0.51707 0.0
C880 C 0.16676 0.45112 0.55541 0.0
C881 C 0.15602 0.4241 0.56553 0.0
C882 C 0.19575 0.45709 0.54724 0.0
C883 C 0.21443 0.43615 0.54906 0.0
C884 C 0.20373 0.4092 0.55918 0.0
H885 H 0.39723 0.43277 0.53922 0.0
H886 H 0.34516 0.42248 0.54623 0.0
C887 C 0.17478 0.40317 0.5672 0.0
C888 C 0.24544 0.44305 0.54214 0.0
H889 H 0.302 0.41959 0.50369 0.0
C890 C 0.26034 0.46628 0.55647 0.0
C891 C 0.26049 0.42625 0.52253 0.0
C892 C 0.24542 0.40198 0.5055 0.0
C893 C 0.29007 0.47269 0.55226 0.0
C894 C 0.30514 0.45553 0.53309 0.0
C895 C 0.29027 0.43253 0.5185 0.0
C896 C 0.33643 0.46126 0.52796 0.0
C897 C 0.30529 0.49732 0.56876 0.0
C898 C 0.34852 0.48624 0.51502 0.0
C899 C 0.37815 0.49216 0.51091 0.0
C900 C 0.39624 0.47319 0.51972 0.0
C901 C 0.38394 0.44789 0.53231 0.0
C902 C 0.35424 0.44193 0.53628 0.0
H903 H 0.29135 0.50505 0.5861 0.0
H904 H 0.32474 0.49066 0.57684 0.0
H905 H 0.31215 0.51565 0.55546 0.0
H906 H 0.33501 0.50123 0.50823 0.0
H907 H 0.38685 0.5118 0.50108 0.0
H908 H 0.99621 0.86041 0.92079 0.0
H909 H 0.01195 0.81599 0.93574 0.0
H910 H 0.92516 0.78632 0.96355 0.0
H911 H 0.90948 0.83084 0.9493 0.0
H912 H 0.96419 0.77553 0.99957 0.0
H913 H 0.99718 0.73859 0.89405 0.0
H914 H 0.01451 0.77331 0.90489 0.0
H915 H 0.9766 0.76857 0.90119 0.0
C916 C 0.98058 0.84445 0.93028 0.0
C917 C 0.95165 0.84898 0.93373 0.0
C918 C 0.98954 0.81907 0.93867 0.0
C919 C 0.96963 0.79763 0.95032 0.0
C920 C 0.94086 0.80254 0.95453 0.0
H921 H 0.97388 0.61596 0.95614 0.0
H922 H 0.96646 0.66535 0.94795 0.0
C923 C 0.93192 0.82799 0.94632 0.0
C924 C 0.97841 0.76964 0.95732 0.0
H925 H 0.0053 0.70918 0.92937 0.0
C926 C 0.97333 0.76105 0.98429 0.0
C927 C 0.99006 0.7507 0.93725 0.0
C928 C 0.9947 0.75805 0.90767 0.0
C929 C 0.97922 0.73384 0.99166 0.0
C930 C 0.99097 0.71497 0.97159 0.0
C931 C 0.99648 0.72378 0.94475 0.0
C932 C 0.99566 0.68511 0.97737 0.0
C933 C 0.97176 0.7251 0.02058 0.0
C934 C 0.01468 0.67975 0.99662 0.0
C935 C 0.0189 0.65134 0.00153 0.0
C936 C 0.00436 0.62785 0.98705 0.0
C937 C 0.98549 0.63345 0.96767 0.0
C938 C 0.98121 0.66172 0.96291 0.0
H939 H 0.95718 0.73932 0.03179 0.0
H940 H 0.96146 0.70242 0.02097 0.0
H941 H 0.99163 0.72662 0.03157 0.0
H942 H 0.02648 0.69751 0.00764 0.0
H943 H 0.0337 0.64781 0.01647 0.0
H944 H 0.46568 0.663 0.09611 0.0
H945 H 0.48342 0.713 0.08496 0.0
H946 H 0.40272 0.7405 0.11564 0.0
H947 H 0.38483 0.69073 0.12663 0.0
H948 H 0.44676 0.74714 0.0489 0.0
H949 H 0.47288 0.79713 0.15077 0.0
H950 H 0.47465 0.7592 0.14207 0.0
H951 H 0.44059 0.7724 0.14862 0.0
C952 C 0.45195 0.67985 0.10083 0.0
C953 C 0.42388 0.67312 0.11209 0.0
C954 C 0.46204 0.70825 0.09442 0.0
C955 C 0.44435 0.73025 0.09964 0.0
C956 C 0.41667 0.72374 0.11166 0.0
H957 H 0.4489 0.91209 0.07802 0.0
H958 H 0.43971 0.86223 0.09208 0.0
C959 C 0.40648 0.69537 0.11778 0.0
C960 C 0.45378 0.75972 0.09078 0.0
H961 H 0.47368 0.82864 0.11471 0.0
C962 C 0.45298 0.765 0.06314 0.0
C963 C 0.46144 0.78276 0.1096 0.0
C964 C 0.46265 0.77779 0.13946 0.0
C965 C 0.4589 0.79308 0.05385 0.0
C966 C 0.4666 0.8163 0.07268 0.0
C967 C 0.46782 0.81083 0.10031 0.0
C968 C 0.47262 0.84652 0.06427 0.0
C969 C 0.45569 0.79772 0.02419 0.0
C970 C 0.4944 0.85429 0.0442 0.0
C971 C 0.49945 0.88266 0.03587 0.0
C972 C 0.48314 0.90393 0.04781 0.0
C973 C 0.46179 0.89622 0.06837 0.0
C974 C 0.45655 0.86776 0.07647 0.0
H975 H 0.44218 0.77938 0.01445 0.0
H976 H 0.44607 0.8179 0.02175 0.0
H977 H 0.47708 0.7995 0.01309 0.0
H978 H 0.50756 0.83842 0.03502 0.0
H979 H 0.51632 0.88796 0.02024 0.0
H980 H 0.07875 0.34994 0.53378 0.0
H981 H 0.06277 0.29809 0.5295 0.0
H982 H 0.03926 0.29773 0.61575 0.0
H983 H 0.05579 0.34937 0.62031 0.0
H984 H 0.07633 0.2573 0.59731 0.0
H985 H 0.98333 0.25051 0.53352 0.0
H986 H 0.01464 0.27225 0.51998 0.0
H987 H 0.99695 0.28347 0.55165 0.0
C988 C 0.06974 0.33887 0.55173 0.0
C989 C 0.06852 0.35369 0.57737 0.0
C990 C 0.06043 0.30934 0.54923 0.0
C991 C 0.04964 0.2942 0.57229 0.0
C992 C 0.04735 0.30914 0.59771 0.0
H993 H 0.98271 0.1119 0.56886 0.0
H994 H 0.98941 0.16416 0.5781 0.0
C995 C 0.0566 0.33866 0.60023 0.0
C996 C 0.04352 0.26237 0.57033 0.0
H997 H 0.0033 0.20659 0.53835 0.0
C998 C 0.06018 0.24618 0.58463 0.0
C999 C 0.02233 0.24802 0.55393 0.0
C1000 C 0.00308 0.26441 0.53907 0.0
C1001 C 0.05674 0.21591 0.58234 0.0
C1002 C 0.03636 0.20159 0.56506 0.0
C1003 C 0.0191 0.21773 0.5514 0.0
C1004 C 0.03292 0.16984 0.56054 0.0
C1005 C 0.07492 0.1995 0.59841 0.0
C1006 C 0.05524 0.15582 0.54764 0.0
C1007 C 0.05154 0.12594 0.5423 0.0
C1008 C 0.02537 0.1096 0.54969 0.0
C1009 C 0.00318 0.12377 0.56294 0.0
C1010 C 0.0069 0.15365 0.56819 0.0
H1011 H 0.08417 0.21305 0.61561 0.0
H1012 H 0.06226 0.17988 0.60664 0.0
H1013 H 0.09284 0.19252 0.58481 0.0
H1014 H 0.07535 0.16807 0.54123 0.0
H1015 H 0.06902 0.11576 0.53197 0.0
H1016 H 0.58425 0.16009 0.45035 0.0
H1017 H 0.5645 0.20356 0.47003 0.0
H1018 H 0.5795 0.24256 0.39217 0.0
H1019 H 0.59904 0.1994 0.37246 0.0
H1020 H 0.58909 0.2603 0.47406 0.0
H1021 H 0.49572 0.25123 0.41108 0.0
H1022 H 0.51674 0.22177 0.41359 0.0
H1023 H 0.52867 0.25019 0.3907 0.0
C1024 C 0.58337 0.178 0.4375 0.0
C1025 C 0.59284 0.17621 0.40978 0.0
C1026 C 0.572 0.20273 0.44872 0.0
C1027 C 0.56988 0.22598 0.43239 0.0
C1028 C 0.58009 0.22451 0.40494 0.0
H1029 H 0.54131 0.40152 0.44252 0.0
H1030 H 0.55197 0.35215 0.43161 0.0
C1031 C 0.59131 0.19986 0.39371 0.0
C1032 C 0.55782 0.25226 0.44397 0.0
H1033 H 0.50891 0.29786 0.43295 0.0
C1034 C 0.57123 0.26828 0.46544 0.0
C1035 C 0.53436 0.26251 0.4328 0.0
C1036 C 0.51785 0.24536 0.41096 0.0
C1037 C 0.56282 0.29511 0.47498 0.0
C1038 C 0.5404 0.30598 0.46278 0.0
C1039 C 0.52622 0.28945 0.44211 0.0
C1040 C 0.53294 0.33549 0.46964 0.0
C1041 C 0.57874 0.31233 0.49713 0.0
C1042 C 0.51833 0.34229 0.49454 0.0
C1043 C 0.51201 0.37054 0.50085 0.0
C1044 C 0.52037 0.39243 0.48237 0.0
C1045 C 0.53467 0.38529 0.45729 0.0
C1046 C 0.54076 0.35708 0.45097 0.0
H1047 H 0.59732 0.30198 0.5028 0.0
H1048 H 0.58646 0.33441 0.49043 0.0
H1049 H 0.56403 0.31456 0.51555 0.0
H1050 H 0.51196 0.32577 0.5091 0.0
H1051 H 0.50099 0.37531 0.52033 0.0
loop_
_geom_bond_atom_site_label_1
_geom_bond_atom_site_label_2
_geom_bond_distance
_geom_bond_site_symmetry_2
_ccdc_geom_bond_type
H0 C5 0.930 . S
H1 C8 0.930 . S
H2 C10 0.930 . S
H3 C4 1.016 . S
C4 H3 1.016 . S
C4 N11 1.286 . S
C5 H0 0.930 . S
C5 C6 1.397 . S
C5 C7 1.361 . S
C6 C5 1.397 . S
C6 C10 1.390 . S
C7 C5 1.361 . S
C7 C8 1.393 . S
C7 N11 1.413 . S
C8 H1 0.930 . S
C8 C7 1.393 . S
C8 C9 1.399 . S
C9 C8 1.399 . S
C9 C10 1.381 . S
C10 H2 0.930 . S
C10 C6 1.390 . S
C10 C9 1.381 . S
N11 C4 1.286 . S
N11 C7 1.413 . S
H12 C17 0.930 . S
H13 C20 0.930 . S
H14 C22 0.930 . S
H15 C16 1.016 . S
C16 H15 1.016 . S
C16 N23 1.286 . S
C17 H12 0.930 . S
C17 C18 1.397 . S
C17 C19 1.361 . S
C18 C17 1.397 . S
C18 C22 1.390 . S
C19 C17 1.361 . S
C19 C20 1.393 . S
C19 N23 1.413 . S
C20 H13 0.930 . S
C20 C19 1.393 . S
C20 C21 1.399 . S
C21 C20 1.399 . S
C21 C22 1.381 . S
C22 H14 0.930 . S
C22 C18 1.390 . S
C22 C21 1.381 . S
N23 C16 1.286 . S
N23 C19 1.413 . S
H24 C29 0.930 . S
H25 C32 0.930 . S
H26 C34 0.930 . S
H27 C28 1.016 . S
C28 H27 1.016 . S
C28 N35 1.286 . S
C29 H24 0.930 . S
C29 C30 1.397 . S
C29 C31 1.361 . S
C30 C29 1.397 . S
C30 C34 1.390 . S
C31 C29 1.361 . S
C31 C32 1.393 . S
C31 N35 1.413 . S
C32 H25 0.930 . S
C32 C31 1.393 . S
C32 C33 1.399 . S
C33 C32 1.399 . S
C33 C34 1.381 . S
C34 H26 0.930 . S
C34 C30 1.390 . S
C34 C33 1.381 . S
N35 C28 1.286 . S
N35 C31 1.413 . S
H36 C41 0.930 . S
H37 C44 0.930 . S
H38 C46 0.930 . S
H39 C40 1.016 . S
C40 H39 1.016 . S
C40 N47 1.286 . S
C41 H36 0.930 . S
C41 C42 1.397 . S
C41 C43 1.361 . S
C42 C41 1.397 . S
C42 C46 1.390 . S
C43 C41 1.361 . S
C43 C44 1.393 . S
C43 N47 1.413 . S
C44 H37 0.930 . S
C44 C43 1.393 . S
C44 C45 1.399 . S
C45 C44 1.399 . S
C45 C46 1.381 . S
C46 H38 0.930 . S
C46 C42 1.390 . S
C46 C45 1.381 . S
N47 C40 1.286 . S
N47 C43 1.413 . S
H48 C53 0.930 . S
H49 C56 0.930 . S
H50 C58 0.930 . S
H51 C52 1.016 . S
C52 H51 1.016 . S
C52 N59 1.286 . S
C53 H48 0.930 . S
C53 C54 1.397 . S
C53 C55 1.361 . S
C54 C53 1.397 . S
C54 C58 1.390 . S
C55 C53 1.361 . S
C55 C56 1.393 . S
C55 N59 1.413 . S
C56 H49 0.930 . S
C56 C55 1.393 . S
C56 C57 1.399 . S
C57 C56 1.399 . S
C57 C58 1.381 . S
C58 H50 0.930 . S
C58 C54 1.390 . S
C58 C57 1.381 . S
N59 C52 1.286 . S
N59 C55 1.413 . S
H60 C65 0.930 . S
H61 C68 0.930 . S
H62 C70 0.930 . S
H63 C64 1.016 . S
C64 H63 1.016 . S
C64 N71 1.286 . S
C65 H60 0.930 . S
C65 C66 1.397 . S
C65 C67 1.361 . S
C66 C65 1.397 . S
C66 C70 1.390 . S
C67 C65 1.361 . S
C67 C68 1.393 . S
C67 N71 1.413 . S
C68 H61 0.930 . S
C68 C67 1.393 . S
C68 C69 1.399 . S
C69 C68 1.399 . S
C69 C70 1.381 . S
C70 H62 0.930 . S
C70 C66 1.390 . S
C70 C69 1.381 . S
N71 C64 1.286 . S
N71 C67 1.413 . S
H72 C77 0.930 . S
H73 C80 0.930 . S
H74 C82 0.930 . S
H75 C76 1.016 . S
C76 H75 1.016 . S
C76 N83 1.286 . S
C77 H72 0.930 . S
C77 C78 1.397 . S
C77 C79 1.361 . S
C78 C77 1.397 . S
C78 C82 1.390 . S
C79 C77 1.361 . S
C79 C80 1.393 . S
C79 N83 1.413 . S
C80 H73 0.930 . S
C80 C79 1.393 . S
C80 C81 1.399 . S
C81 C80 1.399 . S
C81 C82 1.381 . S
C82 H74 0.930 . S
C82 C78 1.390 . S
C82 C81 1.381 . S
N83 C76 1.286 . S
N83 C79 1.413 . S
H84 C89 0.930 . S
H85 C92 0.930 . S
H86 C94 0.930 . S
H87 C88 1.016 . S
C88 H87 1.016 . S
C88 N95 1.286 . S
C89 H84 0.930 . S
C89 C90 1.397 . S
C89 C91 1.361 . S
C90 C89 1.397 . S
C90 C94 1.390 . S
C91 C89 1.361 . S
C91 C92 1.393 . S
C91 N95 1.413 . S
C92 H85 0.930 . S
C92 C91 1.393 . S
C92 C93 1.399 . S
C93 C92 1.399 . S
C93 C94 1.381 . S
C94 H86 0.930 . S
C94 C90 1.390 . S
C94 C93 1.381 . S
N95 C88 1.286 . S
N95 C91 1.413 . S
O96 Zn97 1.953 1_455 S
O96 C112 1.224 . S
Zn97 O96 1.953 1_655 S
Zn97 O98 1.949 1_655 S
Zn97 O104 1.919 . S
Zn97 O109 1.924 . S
O98 Zn97 1.949 1_455 S
O98 Zn99 1.923 1_445 S
O98 Zn100 1.950 . S
O98 Zn101 1.945 1_545 S
Zn99 O98 1.923 1_665 S
Zn99 O102 1.933 . S
Zn99 O105 1.941 1_565 S
Zn99 O106 1.965 1_665 S
Zn100 O98 1.950 . S
Zn100 O107 1.938 . S
Zn100 O108 1.890 1_545 S
Zn100 O118 1.953 . S
Zn101 O98 1.945 1_565 S
Zn101 O103 1.932 1_455 S
Zn101 O110 1.977 . S
Zn101 O111 1.910 1_455 S
O102 Zn99 1.933 . S
O102 C113 1.226 . S
O103 Zn101 1.932 1_655 S
O103 C113 1.307 . S
O104 Zn97 1.919 . S
O104 C115 1.253 . S
O105 Zn99 1.941 1_545 S
O105 C115 1.283 . S
O106 Zn99 1.965 1_445 S
O106 C114 1.303 . S
O107 Zn100 1.938 . S
O107 C114 1.247 . S
O108 Zn100 1.890 1_565 S
O108 C116 1.327 . S
O109 Zn97 1.924 . S
O109 C117 1.311 1_545 S
O110 Zn101 1.977 . S
O110 C116 1.272 . S
O111 Zn101 1.910 1_655 S
O111 C117 1.231 . S
C112 O96 1.224 . S
C112 O118 1.298 . S
C113 O102 1.226 . S
C113 O103 1.307 . S
C114 O106 1.303 . S
C114 O107 1.247 . S
C115 O104 1.253 . S
C115 O105 1.283 . S
C116 O108 1.327 . S
C116 O110 1.272 . S
C117 O109 1.311 1_565 S
C117 O111 1.231 . S
O118 Zn100 1.953 . S
O118 C112 1.298 . S
O119 Zn120 1.953 . S
O119 C135 1.225 . S
Zn120 O119 1.953 . S
Zn120 O121 1.949 1_556 S
Zn120 O127 1.919 . S
Zn120 O132 1.924 1_556 S
O121 Zn120 1.949 1_554 S
O121 Zn122 1.923 1_545 S
O121 Zn123 1.950 . S
O121 Zn124 1.951 . S
Zn122 O121 1.923 1_565 S
Zn122 O125 1.933 . S
Zn122 O128 1.941 1_554 S
Zn122 O129 1.965 1_554 S
Zn123 O121 1.950 . S
Zn123 O130 1.938 . S
Zn123 O131 1.906 . S
Zn123 O141 1.953 . S
Zn124 O121 1.951 . S
Zn124 O126 1.901 1_545 S
Zn124 O133 1.984 . S
Zn124 O134 1.929 . S
O125 Zn122 1.933 . S
O125 C136 1.226 . S
O126 Zn124 1.901 1_565 S
O126 C136 1.307 . S
O127 Zn120 1.919 . S
O127 C138 1.253 1_545 S
O128 Zn122 1.941 1_556 S
O128 C138 1.283 . S
O129 Zn122 1.965 1_556 S
O129 C137 1.304 1_565 S
O130 Zn123 1.938 . S
O130 C137 1.243 1_554 S
O131 Zn123 1.906 . S
O131 C139 1.304 . S
O132 Zn120 1.924 1_554 S
O132 C140 1.311 . S
O133 Zn124 1.984 . S
O133 C139 1.272 . S
O134 Zn124 1.929 . S
O134 C140 1.231 . S
C135 O119 1.225 . S
C135 O141 1.298 1_556 S
C136 O125 1.226 . S
C136 O126 1.307 . S
C137 O129 1.304 1_545 S
C137 O130 1.243 1_556 S
C138 O127 1.253 1_565 S
C138 O128 1.283 . S
C139 O131 1.304 . S
C139 O133 1.272 . S
C140 O132 1.311 . S
C140 O134 1.231 . S
O141 Zn123 1.953 . S
O141 C135 1.298 1_554 S
O142 Zn143 1.953 . S
O142 C158 1.225 . S
Zn143 O142 1.953 . S
Zn143 O144 1.949 . S
Zn143 O150 1.919 . S
Zn143 O155 1.924 . S
O144 Zn143 1.949 . S
O144 Zn145 1.923 . S
O144 Zn146 1.950 . S
O144 Zn147 1.945 . S
Zn145 O144 1.923 . S
Zn145 O148 1.933 . S
Zn145 O151 1.941 . S
Zn145 O152 1.965 . S
Zn146 O144 1.950 . S
Zn146 O153 1.938 . S
Zn146 O154 1.906 . S
Zn146 O164 1.953 . S
Zn147 O144 1.945 . S
Zn147 O149 1.932 . S
Zn147 O156 1.977 . S
Zn147 O157 1.910 . S
O148 Zn145 1.933 . S
O148 C159 1.226 . S
O149 Zn147 1.932 . S
O149 C159 1.307 . S
O150 Zn143 1.919 . S
O150 C161 1.253 . S
O151 Zn145 1.941 . S
O151 C161 1.283 . S
O152 Zn145 1.965 . S
O152 C160 1.303 . S
O153 Zn146 1.938 . S
O153 C160 1.247 . S
O154 Zn146 1.906 . S
O154 C162 1.304 . S
O155 Zn143 1.924 . S
O155 C163 1.311 . S
O156 Zn147 1.977 . S
O156 C162 1.272 . S
O157 Zn147 1.910 . S
O157 C163 1.231 . S
C158 O142 1.225 . S
C158 O164 1.298 . S
C159 O148 1.226 . S
C159 O149 1.307 . S
C160 O152 1.303 . S
C160 O153 1.247 . S
C161 O150 1.253 . S
C161 O151 1.283 . S
C162 O154 1.304 . S
C162 O156 1.272 . S
C163 O155 1.311 . S
C163 O157 1.231 . S
O164 Zn146 1.953 . S
O164 C158 1.298 . S
O165 Zn166 1.953 . S
O165 C181 1.225 . S
Zn166 O165 1.953 . S
Zn166 O167 1.949 1_655 S
Zn166 O173 1.919 . S
Zn166 O178 1.924 1_655 S
O167 Zn166 1.949 1_455 S
O167 Zn168 1.923 1_554 S
O167 Zn169 1.950 . S
O167 Zn170 1.945 1_554 S
Zn168 O167 1.923 1_556 S
Zn168 O171 1.933 . S
Zn168 O174 1.941 1_455 S
Zn168 O175 1.965 . S
Zn169 O167 1.950 . S
Zn169 O176 1.938 . S
Zn169 O177 1.906 . S
Zn169 O187 1.953 . S
Zn170 O167 1.945 1_556 S
Zn170 O172 1.932 . S
Zn170 O179 1.977 1_556 S
Zn170 O180 1.910 1_556 S
O171 Zn168 1.933 . S
O171 C182 1.226 . S
O172 Zn170 1.932 . S
O172 C182 1.307 . S
O173 Zn166 1.919 . S
O173 C184 1.253 1_554 S
O174 Zn168 1.941 1_655 S
O174 C184 1.283 . S
O175 Zn168 1.965 . S
O175 C183 1.303 . S
O176 Zn169 1.938 . S
O176 C183 1.247 1_554 S
O177 Zn169 1.906 . S
O177 C185 1.304 . S
O178 Zn166 1.924 1_455 S
O178 C186 1.311 . S
O179 Zn170 1.977 1_554 S
O179 C185 1.272 . S
O180 Zn170 1.910 1_554 S
O180 C186 1.231 . S
C181 O165 1.225 . S
C181 O187 1.298 1_655 S
C182 O171 1.226 . S
C182 O172 1.307 . S
C183 O175 1.303 . S
C183 O176 1.247 1_556 S
C184 O173 1.253 1_556 S
C184 O174 1.283 . S
C185 O177 1.304 . S
C185 O179 1.272 . S
C186 O178 1.311 . S
C186 O180 1.231 . S
O187 Zn169 1.953 . S
O187 C181 1.298 1_455 S
H188 C196 0.929 . S
H189 C198 0.930 . S
H190 C200 0.930 . S
H191 C203 0.929 . S
H192 C206 0.930 . S
H193 C208 0.960 . S
H194 C208 0.960 . S
H195 C208 0.960 . S
C196 H188 0.929 . S
C196 C197 1.377 . S
C196 C198 1.384 . S
C197 C196 1.377 . S
C197 C203 1.390 . S
C198 H189 0.930 . S
C198 C196 1.384 . S
C198 C199 1.372 . S
C199 C198 1.372 . S
C199 C200 1.400 . S
C199 C204 1.490 . S
C200 H190 0.930 . S
C200 C199 1.400 . S
C200 C203 1.386 . S
H201 C217 0.930 . S
H202 C218 0.931 . S
C203 H191 0.929 . S
C203 C197 1.390 . S
C203 C200 1.386 . S
C204 C199 1.490 . S
C204 C206 1.395 . S
C204 C207 1.403 . S
H205 C211 0.930 . S
C206 H192 0.930 . S
C206 C204 1.395 . S
C206 C209 1.403 . S
C207 C204 1.403 . S
C207 C208 1.524 . S
C207 C211 1.400 . S
C208 H193 0.960 . S
C208 H194 0.960 . S
C208 H195 0.960 . S
C208 C207 1.524 . S
C209 C206 1.403 . S
C209 C210 1.392 . S
C209 C213 1.495 . S
C210 C209 1.392 . S
C210 C211 1.385 . S
C210 C212 1.478 . S
C211 H205 0.930 . S
C211 C207 1.400 . S
C211 C210 1.385 . S
C212 C210 1.478 . S
C212 C214 1.381 . S
C212 C218 1.383 . S
C213 C209 1.495 . S
C213 H219 0.959 . S
C213 H220 0.961 . S
C213 H221 0.960 . S
C214 C212 1.381 . S
C214 C215 1.394 . S
C214 H222 0.930 . S
C215 C214 1.394 . S
C215 C216 1.383 . S
C215 H223 0.929 . S
C216 C215 1.383 . S
C216 C217 1.377 . S
C217 H201 0.930 . S
C217 C216 1.377 . S
C217 C218 1.379 . S
C218 H202 0.931 . S
C218 C212 1.383 . S
C218 C217 1.379 . S
H219 C213 0.959 . S
H220 C213 0.961 . S
H221 C213 0.960 . S
H222 C214 0.930 . S
H223 C215 0.929 . S
H224 C232 0.929 . S
H225 C234 0.930 . S
H226 C236 0.930 . S
H227 C239 0.929 . S
H228 C242 0.930 . S
H229 C244 0.960 . S
H230 C244 0.960 . S
H231 C244 0.960 . S
C232 H224 0.929 . S
C232 C233 1.377 . S
C232 C234 1.384 . S
C233 C232 1.377 . S
C233 C239 1.390 . S
C234 H225 0.930 . S
C234 C232 1.384 . S
C234 C235 1.372 . S
C235 C234 1.372 . S
C235 C236 1.400 . S
C235 C240 1.490 . S
C236 H226 0.930 . S
C236 C235 1.400 . S
C236 C239 1.386 . S
H237 C253 0.930 . S
H238 C254 0.931 . S
C239 H227 0.929 . S
C239 C233 1.390 . S
C239 C236 1.386 . S
C240 C235 1.490 . S
C240 C242 1.395 . S
C240 C243 1.403 . S
H241 C247 0.930 . S
C242 H228 0.930 . S
C242 C240 1.395 . S
C242 C245 1.403 . S
C243 C240 1.403 . S
C243 C244 1.524 . S
C243 C247 1.400 . S
C244 H229 0.960 . S
C244 H230 0.960 . S
C244 H231 0.960 . S
C244 C243 1.524 . S
C245 C242 1.403 . S
C245 C246 1.392 . S
C245 C249 1.495 . S
C246 C245 1.392 . S
C246 C247 1.385 . S
C246 C248 1.478 . S
C247 H241 0.930 . S
C247 C243 1.400 . S
C247 C246 1.385 . S
C248 C246 1.478 . S
C248 C250 1.381 . S
C248 C254 1.383 . S
C249 C245 1.495 . S
C249 H255 0.959 . S
C249 H256 0.961 . S
C249 H257 0.960 . S
C250 C248 1.381 . S
C250 C251 1.394 . S
C250 H258 0.930 . S
C251 C250 1.394 . S
C251 C252 1.383 . S
C251 H259 0.929 . S
C252 C251 1.383 . S
C252 C253 1.377 . S
C253 H237 0.930 . S
C253 C252 1.377 . S
C253 C254 1.379 . S
C254 H238 0.931 . S
C254 C248 1.383 . S
C254 C253 1.379 . S
H255 C249 0.959 . S
H256 C249 0.961 . S
H257 C249 0.960 . S
H258 C250 0.930 . S
H259 C251 0.929 . S
H260 C268 0.929 . S
H261 C270 0.930 . S
H262 C272 0.930 . S
H263 C275 0.929 . S
H264 C278 0.930 . S
H265 C280 0.960 . S
H266 C280 0.960 . S
H267 C280 0.960 . S
C268 H260 0.929 . S
C268 C269 1.377 . S
C268 C270 1.384 . S
C269 C268 1.377 . S
C269 C275 1.390 . S
C270 H261 0.930 . S
C270 C268 1.384 . S
C270 C271 1.372 . S
C271 C270 1.372 . S
C271 C272 1.400 . S
C271 C276 1.490 . S
C272 H262 0.930 . S
C272 C271 1.400 . S
C272 C275 1.386 . S
H273 C289 0.930 . S
H274 C290 0.931 . S
C275 H263 0.929 . S
C275 C269 1.390 . S
C275 C272 1.386 . S
C276 C271 1.490 . S
C276 C278 1.395 . S
C276 C279 1.403 . S
H277 C283 0.930 . S
C278 H264 0.930 . S
C278 C276 1.395 . S
C278 C281 1.403 . S
C279 C276 1.403 . S
C279 C280 1.524 . S
C279 C283 1.400 . S
C280 H265 0.960 . S
C280 H266 0.960 . S
C280 H267 0.960 . S
C280 C279 1.524 . S
C281 C278 1.403 . S
C281 C282 1.392 . S
C281 C285 1.495 . S
C282 C281 1.392 . S
C282 C283 1.385 . S
C282 C284 1.478 . S
C283 H277 0.930 . S
C283 C279 1.400 . S
C283 C282 1.385 . S
C284 C282 1.478 . S
C284 C286 1.381 . S
C284 C290 1.383 . S
C285 C281 1.495 . S
C285 H291 0.959 . S
C285 H292 0.961 . S
C285 H293 0.960 . S
C286 C284 1.381 . S
C286 C287 1.394 . S
C286 H294 0.930 . S
C287 C286 1.394 . S
C287 C288 1.383 . S
C287 H295 0.929 . S
C288 C287 1.383 . S
C288 C289 1.377 . S
C289 H273 0.930 . S
C289 C288 1.377 . S
C289 C290 1.379 . S
C290 H274 0.931 . S
C290 C284 1.383 . S
C290 C289 1.379 . S
H291 C285 0.959 . S
H292 C285 0.961 . S
H293 C285 0.960 . S
H294 C286 0.930 . S
H295 C287 0.929 . S
H296 C304 0.929 . S
H297 C306 0.930 . S
H298 C308 0.930 . S
H299 C311 0.929 . S
H300 C314 0.930 . S
H301 C316 0.960 1_455 S
H302 C316 0.960 1_455 S
H303 C316 0.960 . S
C304 H296 0.929 . S
C304 C305 1.377 . S
C304 C306 1.384 . S
C305 C304 1.377 . S
C305 C311 1.390 . S
C306 H297 0.930 . S
C306 C304 1.384 . S
C306 C307 1.372 . S
C307 C306 1.372 . S
C307 C308 1.400 . S
C307 C312 1.490 . S
C308 H298 0.930 . S
C308 C307 1.400 . S
C308 C311 1.386 . S
H309 C325 0.930 . S
H310 C326 0.931 . S
C311 H299 0.929 . S
C311 C305 1.390 . S
C311 C308 1.386 . S
C312 C307 1.490 . S
C312 C314 1.395 . S
C312 C315 1.403 . S
H313 C319 0.930 . S
C314 H300 0.930 . S
C314 C312 1.395 . S
C314 C317 1.403 . S
C315 C312 1.403 . S
C315 C316 1.524 . S
C315 C319 1.400 . S
C316 H301 0.960 1_655 S
C316 H302 0.960 1_655 S
C316 H303 0.960 . S
C316 C315 1.524 . S
C317 C314 1.403 . S
C317 C318 1.392 . S
C317 C321 1.495 . S
C318 C317 1.392 . S
C318 C319 1.385 . S
C318 C320 1.478 . S
C319 H313 0.930 . S
C319 C315 1.400 . S
C319 C318 1.385 . S
C320 C318 1.478 . S
C320 C322 1.381 . S
C320 C326 1.383 . S
C321 C317 1.495 . S
C321 H327 0.959 . S
C321 H328 0.961 . S
C321 H329 0.960 . S
C322 C320 1.381 . S
C322 C323 1.394 . S
C322 H330 0.930 . S
C323 C322 1.394 . S
C323 C324 1.383 . S
C323 H331 0.929 . S
C324 C323 1.383 . S
C324 C325 1.377 . S
C325 H309 0.930 . S
C325 C324 1.377 . S
C325 C326 1.379 . S
C326 H310 0.931 . S
C326 C320 1.383 . S
C326 C325 1.379 . S
H327 C321 0.959 . S
H328 C321 0.961 . S
H329 C321 0.960 . S
H330 C322 0.930 . S
H331 C323 0.929 . S
H332 C340 0.929 . S
H333 C342 0.930 . S
H334 C344 0.930 . S
H335 C347 0.929 . S
H336 C350 0.930 . S
H337 C352 0.960 . S
H338 C352 0.960 . S
H339 C352 0.960 . S
C340 H332 0.929 . S
C340 C341 1.377 . S
C340 C342 1.384 . S
C341 C340 1.377 . S
C341 C347 1.390 . S
C342 H333 0.930 . S
C342 C340 1.384 . S
C342 C343 1.372 . S
C343 C342 1.372 . S
C343 C344 1.400 . S
C343 C348 1.490 . S
C344 H334 0.930 . S
C344 C343 1.400 . S
C344 C347 1.386 . S
H345 C361 0.930 . S
H346 C362 0.931 . S
C347 H335 0.929 . S
C347 C341 1.390 . S
C347 C344 1.386 . S
C348 C343 1.490 . S
C348 C350 1.395 . S
C348 C351 1.403 . S
H349 C355 0.930 . S
C350 H336 0.930 . S
C350 C348 1.395 . S
C350 C353 1.403 . S
C351 C348 1.403 . S
C351 C352 1.524 . S
C351 C355 1.400 . S
C352 H337 0.960 . S
C352 H338 0.960 . S
C352 H339 0.960 . S
C352 C351 1.524 . S
C353 C350 1.403 . S
C353 C354 1.392 . S
C353 C357 1.495 . S
C354 C353 1.392 . S
C354 C355 1.385 . S
C354 C356 1.478 . S
C355 H349 0.930 . S
C355 C351 1.400 . S
C355 C354 1.385 . S
C356 C354 1.478 . S
C356 C358 1.381 . S
C356 C362 1.383 . S
C357 C353 1.495 . S
C357 H363 0.959 . S
C357 H364 0.961 . S
C357 H365 0.960 . S
C358 C356 1.381 . S
C358 C359 1.394 . S
C358 H366 0.930 . S
C359 C358 1.394 . S
C359 C360 1.383 . S
C359 H367 0.929 . S
C360 C359 1.383 . S
C360 C361 1.377 . S
C361 H345 0.930 . S
C361 C360 1.377 . S
C361 C362 1.379 . S
C362 H346 0.931 . S
C362 C356 1.383 . S
C362 C361 1.379 . S
H363 C357 0.959 . S
H364 C357 0.961 . S
H365 C357 0.960 . S
H366 C358 0.930 . S
H367 C359 0.929 . S
H368 C376 0.929 . S
H369 C378 0.930 . S
H370 C380 0.930 . S
H371 C383 0.929 . S
H372 C386 0.930 . S
H373 C388 0.960 . S
H374 C388 0.960 . S
H375 C388 0.960 . S
C376 H368 0.929 . S
C376 C377 1.377 . S
C376 C378 1.384 . S
C377 C376 1.377 . S
C377 C383 1.390 . S
C378 H369 0.930 . S
C378 C376 1.384 . S
C378 C379 1.372 . S
C379 C378 1.372 . S
C379 C380 1.400 . S
C379 C384 1.490 . S
C380 H370 0.930 . S
C380 C379 1.400 . S
C380 C383 1.386 . S
H381 C397 0.930 . S
H382 C398 0.931 . S
C383 H371 0.929 . S
C383 C377 1.390 . S
C383 C380 1.386 . S
C384 C379 1.490 . S
C384 C386 1.395 . S
C384 C387 1.403 . S
H385 C391 0.930 . S
C386 H372 0.930 . S
C386 C384 1.395 . S
C386 C389 1.403 . S
C387 C384 1.403 . S
C387 C388 1.524 . S
C387 C391 1.400 . S
C388 H373 0.960 . S
C388 H374 0.960 . S
C388 H375 0.960 . S
C388 C387 1.524 . S
C389 C386 1.403 . S
C389 C390 1.392 . S
C389 C393 1.495 . S
C390 C389 1.392 . S
C390 C391 1.385 . S
C390 C392 1.478 . S
C391 H385 0.930 . S
C391 C387 1.400 . S
C391 C390 1.385 . S
C392 C390 1.478 . S
C392 C394 1.381 . S
C392 C398 1.383 . S
C393 C389 1.495 . S
C393 H399 0.969 . S
C393 H400 0.961 . S
C393 H401 0.969 . S
C394 C392 1.381 . S
C394 C395 1.394 . S
C394 H402 0.930 . S
C395 C394 1.394 . S
C395 C396 1.383 . S
C395 H403 0.929 . S
C396 C395 1.383 . S
C396 C397 1.377 . S
C397 H381 0.930 . S
C397 C396 1.377 . S
C397 C398 1.379 . S
C398 H382 0.931 . S
C398 C392 1.383 . S
C398 C397 1.379 . S
H399 C393 0.969 . S
H400 C393 0.961 . S
H401 C393 0.969 . S
H402 C394 0.930 . S
H403 C395 0.929 . S
H404 C412 0.929 . S
H405 C414 0.930 . S
H406 C416 0.930 . S
H407 C419 0.929 . S
H408 C422 0.930 . S
H409 C424 0.960 . S
H410 C424 0.960 . S
H411 C424 0.960 . S
C412 H404 0.929 . S
C412 C413 1.377 . S
C412 C414 1.384 . S
C413 C412 1.377 . S
C413 C419 1.390 . S
C414 H405 0.930 . S
C414 C412 1.384 . S
C414 C415 1.372 . S
C415 C414 1.372 . S
C415 C416 1.400 . S
C415 C420 1.490 . S
C416 H406 0.930 . S
C416 C415 1.400 . S
C416 C419 1.386 . S
H417 C433 0.930 . S
H418 C434 0.931 . S
C419 H407 0.929 . S
C419 C413 1.390 . S
C419 C416 1.386 . S
C420 C415 1.490 . S
C420 C422 1.395 . S
C420 C423 1.403 . S
H421 C427 0.930 . S
C422 H408 0.930 . S
C422 C420 1.395 . S
C422 C425 1.403 . S
C423 C420 1.403 . S
C423 C424 1.524 . S
C423 C427 1.400 . S
C424 H409 0.960 . S
C424 H410 0.960 . S
C424 H411 0.960 . S
C424 C423 1.524 . S
C425 C422 1.403 . S
C425 C426 1.392 . S
C425 C429 1.495 . S
C426 C425 1.392 . S
C426 C427 1.385 . S
C426 C428 1.478 . S
C427 H421 0.930 . S
C427 C423 1.400 . S
C427 C426 1.385 . S
C428 C426 1.478 . S
C428 C430 1.381 . S
C428 C434 1.383 . S
C429 C425 1.495 . S
C429 H435 0.959 . S
C429 H436 0.961 . S
C429 H437 0.960 . S
C430 C428 1.381 . S
C430 C431 1.394 . S
C430 H438 0.930 . S
C431 C430 1.394 . S
C431 C432 1.383 . S
C431 H439 0.929 . S
C432 C431 1.383 . S
C432 C433 1.377 . S
C433 H417 0.930 . S
C433 C432 1.377 . S
C433 C434 1.379 . S
C434 H418 0.931 . S
C434 C428 1.383 . S
C434 C433 1.379 . S
H435 C429 0.959 . S
H436 C429 0.961 . S
H437 C429 0.960 . S
H438 C430 0.930 . S
H439 C431 0.929 . S
H440 C448 0.929 . S
H441 C450 0.930 . S
H442 C452 0.930 . S
H443 C455 0.929 . S
H444 C458 0.930 . S
H445 C460 0.960 . S
H446 C460 0.960 . S
H447 C460 0.960 . S
C448 H440 0.929 . S
C448 C449 1.377 . S
C448 C450 1.384 . S
C449 C448 1.377 . S
C449 C455 1.390 . S
C450 H441 0.930 . S
C450 C448 1.384 . S
C450 C451 1.372 . S
C451 C450 1.372 . S
C451 C452 1.400 . S
C451 C456 1.490 . S
C452 H442 0.930 . S
C452 C451 1.400 . S
C452 C455 1.386 . S
H453 C469 0.930 . S
H454 C470 0.931 . S
C455 H443 0.929 . S
C455 C449 1.390 . S
C455 C452 1.386 . S
C456 C451 1.490 . S
C456 C458 1.395 . S
C456 C459 1.403 . S
H457 C463 0.930 . S
C458 H444 0.930 . S
C458 C456 1.395 . S
C458 C461 1.403 . S
C459 C456 1.403 . S
C459 C460 1.524 . S
C459 C463 1.400 . S
C460 H445 0.960 . S
C460 H446 0.960 . S
C460 H447 0.960 . S
C460 C459 1.524 . S
C461 C458 1.403 . S
C461 C462 1.392 . S
C461 C465 1.495 . S
C462 C461 1.392 . S
C462 C463 1.385 . S
C462 C464 1.478 . S
C463 H457 0.930 . S
C463 C459 1.400 . S
C463 C462 1.385 . S
C464 C462 1.478 . S
C464 C466 1.381 . S
C464 C470 1.383 . S
C465 C461 1.495 . S
C465 H471 0.959 . S
C465 H472 0.961 . S
C465 H473 0.960 . S
C466 C464 1.381 . S
C466 C467 1.394 . S
C466 H474 0.930 . S
C467 C466 1.394 . S
C467 C468 1.383 . S
C467 H475 0.929 . S
C468 C467 1.383 . S
C468 C469 1.377 . S
C469 H453 0.930 . S
C469 C468 1.377 . S
C469 C470 1.379 . S
C470 H454 0.931 . S
C470 C464 1.383 . S
C470 C469 1.379 . S
H471 C465 0.959 . S
H472 C465 0.961 . S
H473 C465 0.960 . S
H474 C466 0.930 . S
H475 C467 0.929 . S
H476 C484 0.929 . S
H477 C486 0.930 . S
H478 C488 0.930 . S
H479 C491 0.929 . S
H480 C494 0.930 . S
H481 C496 0.960 . S
H482 C496 0.960 . S
H483 C496 0.960 . S
C484 H476 0.929 . S
C484 C485 1.377 . S
C484 C486 1.384 . S
C485 C484 1.377 . S
C485 C491 1.390 . S
C486 H477 0.930 . S
C486 C484 1.384 . S
C486 C487 1.372 . S
C487 C486 1.372 . S
C487 C488 1.400 . S
C487 C492 1.490 . S
C488 H478 0.930 . S
C488 C487 1.400 . S
C488 C491 1.386 . S
H489 C505 0.930 . S
H490 C506 0.931 . S
C491 H479 0.929 . S
C491 C485 1.390 . S
C491 C488 1.386 . S
C492 C487 1.490 . S
C492 C494 1.395 . S
C492 C495 1.403 . S
H493 C499 0.930 . S
C494 H480 0.930 . S
C494 C492 1.395 . S
C494 C497 1.403 . S
C495 C492 1.403 . S
C495 C496 1.524 . S
C495 C499 1.400 . S
C496 H481 0.960 . S
C496 H482 0.960 . S
C496 H483 0.960 . S
C496 C495 1.524 . S
C497 C494 1.403 . S
C497 C498 1.392 . S
C497 C501 1.495 . S
C498 C497 1.392 . S
C498 C499 1.385 . S
C498 C500 1.478 . S
C499 H493 0.930 . S
C499 C495 1.400 . S
C499 C498 1.385 . S
C500 C498 1.478 . S
C500 C502 1.381 . S
C500 C506 1.383 . S
C501 C497 1.495 . S
C501 H507 0.959 . S
C501 H508 0.961 . S
C501 H509 0.960 . S
C502 C500 1.381 . S
C502 C503 1.394 . S
C502 H510 0.930 . S
C503 C502 1.394 . S
C503 C504 1.383 . S
C503 H511 0.929 . S
C504 C503 1.383 . S
C504 C505 1.377 . S
C505 H489 0.930 . S
C505 C504 1.377 . S
C505 C506 1.379 . S
C506 H490 0.931 . S
C506 C500 1.383 . S
C506 C505 1.379 . S
H507 C501 0.959 . S
H508 C501 0.961 . S
H509 C501 0.960 . S
H510 C502 0.930 . S
H511 C503 0.929 . S
H512 C520 0.929 . S
H513 C522 0.930 . S
H514 C524 0.930 . S
H515 C527 0.929 . S
H516 C530 0.930 . S
H517 C532 0.960 . S
H518 C532 0.960 . S
H519 C532 0.960 . S
C520 H512 0.929 . S
C520 C521 1.377 . S
C520 C522 1.384 . S
C521 C520 1.377 . S
C521 C527 1.390 . S
C522 H513 0.930 . S
C522 C520 1.384 . S
C522 C523 1.372 . S
C523 C522 1.372 . S
C523 C524 1.400 . S
C523 C528 1.490 . S
C524 H514 0.930 . S
C524 C523 1.400 . S
C524 C527 1.386 . S
H525 C541 0.930 . S
H526 C542 0.931 . S
C527 H515 0.929 . S
C527 C521 1.390 . S
C527 C524 1.386 . S
C528 C523 1.490 . S
C528 C530 1.395 . S
C528 C531 1.403 . S
H529 C535 0.930 . S
C530 H516 0.930 . S
C530 C528 1.395 . S
C530 C533 1.403 . S
C531 C528 1.403 . S
C531 C532 1.524 . S
C531 C535 1.400 . S
C532 H517 0.960 . S
C532 H518 0.960 . S
C532 H519 0.960 . S
C532 C531 1.524 . S
C533 C530 1.403 . S
C533 C534 1.392 . S
C533 C537 1.495 1_556 S
C534 C533 1.392 . S
C534 C535 1.385 . S
C534 C536 1.478 . S
C535 H529 0.930 . S
C535 C531 1.400 . S
C535 C534 1.385 . S
C536 C534 1.478 . S
C536 C538 1.381 . S
C536 C542 1.383 . S
C537 C533 1.495 1_554 S
C537 H543 0.959 . S
C537 H544 0.961 . S
C537 H545 0.960 . S
C538 C536 1.381 . S
C538 C539 1.394 . S
C538 H546 0.930 . S
C539 C538 1.394 . S
C539 C540 1.383 . S
C539 H547 0.929 . S
C540 C539 1.383 . S
C540 C541 1.377 . S
C541 H525 0.930 . S
C541 C540 1.377 . S
C541 C542 1.379 . S
C542 H526 0.931 . S
C542 C536 1.383 . S
C542 C541 1.379 . S
H543 C537 0.959 . S
H544 C537 0.961 . S
H545 C537 0.960 . S
H546 C538 0.930 . S
H547 C539 0.929 . S
H548 C556 0.929 . S
H549 C558 0.930 . S
H550 C560 0.930 . S
H551 C563 0.929 . S
H552 C566 0.930 . S
H553 C568 0.960 . S
H554 C568 0.960 . S
H555 C568 0.960 . S
C556 H548 0.929 . S
C556 C557 1.377 . S
C556 C558 1.384 . S
C557 C556 1.377 . S
C557 C563 1.390 . S
C558 H549 0.930 . S
C558 C556 1.384 . S
C558 C559 1.372 . S
C559 C558 1.372 . S
C559 C560 1.400 . S
C559 C564 1.490 . S
C560 H550 0.930 . S
C560 C559 1.400 . S
C560 C563 1.386 . S
H561 C577 0.930 . S
H562 C578 0.931 . S
C563 H551 0.929 . S
C563 C557 1.390 . S
C563 C560 1.386 . S
C564 C559 1.490 . S
C564 C566 1.395 . S
C564 C567 1.403 . S
H565 C571 0.930 . S
C566 H552 0.930 . S
C566 C564 1.395 . S
C566 C569 1.403 . S
C567 C564 1.403 . S
C567 C568 1.524 . S
C567 C571 1.400 . S
C568 H553 0.960 . S
C568 H554 0.960 . S
C568 H555 0.960 . S
C568 C567 1.524 . S
C569 C566 1.403 . S
C569 C570 1.392 . S
C569 C573 1.495 . S
C570 C569 1.392 . S
C570 C571 1.385 . S
C570 C572 1.478 . S
C571 H565 0.930 . S
C571 C567 1.400 . S
C571 C570 1.385 . S
C572 C570 1.478 . S
C572 C574 1.381 . S
C572 C578 1.383 . S
C573 C569 1.495 . S
C573 H579 0.959 1_655 S
C573 H580 0.961 1_655 S
C573 H581 0.960 . S
C574 C572 1.381 . S
C574 C575 1.394 . S
C574 H582 0.930 . S
C575 C574 1.394 . S
C575 C576 1.383 . S
C575 H583 0.929 . S
C576 C575 1.383 . S
C576 C577 1.377 . S
C577 H561 0.930 . S
C577 C576 1.377 . S
C577 C578 1.379 . S
C578 H562 0.931 . S
C578 C572 1.383 . S
C578 C577 1.379 . S
H579 C573 0.959 1_455 S
H580 C573 0.961 1_455 S
H581 C573 0.960 . S
H582 C574 0.930 . S
H583 C575 0.929 . S
H584 C592 0.929 . S
H585 C594 0.930 . S
H586 C596 0.930 . S
H587 C599 0.929 . S
H588 C602 0.930 . S
H589 C604 0.960 . S
H590 C604 0.960 . S
H591 C604 0.960 . S
C592 H584 0.929 . S
C592 C593 1.377 . S
C592 C594 1.384 . S
C593 C592 1.377 . S
C593 C599 1.390 . S
C594 H585 0.930 . S
C594 C592 1.384 . S
C594 C595 1.372 . S
C595 C594 1.372 . S
C595 C596 1.400 . S
C595 C600 1.490 . S
C596 H586 0.930 . S
C596 C595 1.400 . S
C596 C599 1.386 . S
H597 C613 0.930 . S
H598 C614 0.931 . S
C599 H587 0.929 . S
C599 C593 1.390 . S
C599 C596 1.386 . S
C600 C595 1.490 . S
C600 C602 1.395 . S
C600 C603 1.403 . S
H601 C607 0.930 . S
C602 H588 0.930 . S
C602 C600 1.395 . S
C602 C605 1.403 . S
C603 C600 1.403 . S
C603 C604 1.524 . S
C603 C607 1.400 . S
C604 H589 0.960 . S
C604 H590 0.960 . S
C604 H591 0.960 . S
C604 C603 1.524 . S
C605 C602 1.403 . S
C605 C606 1.392 . S
C605 C609 1.495 . S
C606 C605 1.392 . S
C606 C607 1.385 . S
C606 C608 1.478 . S
C607 H601 0.930 . S
C607 C603 1.400 . S
C607 C606 1.385 . S
C608 C606 1.478 . S
C608 C610 1.381 . S
C608 C614 1.383 . S
C609 C605 1.495 . S
C609 H615 0.959 . S
C609 H616 0.961 . S
C609 H617 0.960 . S
C610 C608 1.381 . S
C610 C611 1.394 . S
C610 H618 0.930 . S
C611 C610 1.394 . S
C611 C612 1.383 . S
C611 H619 0.929 . S
C612 C611 1.383 . S
C612 C613 1.377 . S
C613 H597 0.930 . S
C613 C612 1.377 . S
C613 C614 1.379 . S
C614 H598 0.931 . S
C614 C608 1.383 . S
C614 C613 1.379 . S
H615 C609 0.959 . S
H616 C609 0.961 . S
H617 C609 0.960 . S
H618 C610 0.930 . S
H619 C611 0.929 . S
H620 C628 0.929 . S
H621 C630 0.930 . S
H622 C632 0.930 1_545 S
H623 C635 0.929 1_545 S
H624 C638 0.930 . S
H625 C640 0.960 . S
H626 C640 0.960 . S
H627 C640 0.985 . S
C628 H620 0.929 . S
C628 C629 1.377 . S
C628 C630 1.384 . S
C629 C628 1.377 . S
C629 C635 1.390 . S
C630 H621 0.930 . S
C630 C628 1.384 . S
C630 C631 1.372 . S
C631 C630 1.372 . S
C631 C632 1.400 . S
C631 C636 1.490 . S
C632 H622 0.930 1_565 S
C632 C631 1.400 . S
C632 C635 1.386 . S
H633 C649 0.930 . S
H634 C650 0.931 . S
C635 H623 0.929 1_565 S
C635 C629 1.390 . S
C635 C632 1.386 . S
C636 C631 1.490 . S
C636 C638 1.395 . S
C636 C639 1.403 . S
H637 C643 0.930 . S
C638 H624 0.930 . S
C638 C636 1.395 . S
C638 C641 1.403 . S
C639 C636 1.403 . S
C639 C640 1.524 1_655 S
C639 C643 1.400 . S
C640 H625 0.960 . S
C640 H626 0.960 . S
C640 H627 0.985 . S
C640 C639 1.524 1_455 S
C641 C638 1.403 . S
C641 C642 1.392 . S
C641 C645 1.495 . S
C642 C641 1.392 . S
C642 C643 1.385 . S
C642 C644 1.478 . S
C643 H637 0.930 . S
C643 C639 1.400 . S
C643 C642 1.385 . S
C644 C642 1.478 . S
C644 C646 1.381 . S
C644 C650 1.383 1_565 S
C645 C641 1.495 . S
C645 H651 0.959 . S
C645 H652 0.961 . S
C645 H653 0.960 . S
C646 C644 1.381 . S
C646 C647 1.394 . S
C646 H654 0.930 . S
C647 C646 1.394 . S
C647 C648 1.383 . S
C647 H655 0.929 . S
C648 C647 1.383 . S
C648 C649 1.377 1_565 S
C649 H633 0.930 . S
C649 C648 1.377 1_545 S
C649 C650 1.379 . S
C650 H634 0.931 . S
C650 C644 1.383 1_545 S
C650 C649 1.379 . S
H651 C645 0.959 . S
H652 C645 0.961 . S
H653 C645 0.960 . S
H654 C646 0.930 . S
H655 C647 0.929 . S
H656 C664 0.929 . S
H657 C666 0.930 . S
H658 C668 0.930 . S
H659 C671 0.929 . S
H660 C674 0.930 . S
H661 C676 0.960 . S
H662 C676 0.960 . S
H663 C676 0.960 . S
C664 H656 0.929 . S
C664 C665 1.377 . S
C664 C666 1.384 . S
C665 C664 1.377 . S
C665 C671 1.390 . S
C666 H657 0.930 . S
C666 C664 1.384 . S
C666 C667 1.372 . S
C667 C666 1.372 . S
C667 C668 1.400 . S
C667 C672 1.490 . S
C668 H658 0.930 . S
C668 C667 1.400 . S
C668 C671 1.386 . S
H669 C685 0.930 . S
H670 C686 0.931 . S
C671 H659 0.929 . S
C671 C665 1.390 . S
C671 C668 1.386 . S
C672 C667 1.490 . S
C672 C674 1.395 . S
C672 C675 1.403 . S
H673 C679 0.930 . S
C674 H660 0.930 . S
C674 C672 1.395 . S
C674 C677 1.403 . S
C675 C672 1.403 . S
C675 C676 1.524 . S
C675 C679 1.400 . S
C676 H661 0.960 . S
C676 H662 0.960 . S
C676 H663 0.960 . S
C676 C675 1.524 . S
C677 C674 1.403 . S
C677 C678 1.392 . S
C677 C681 1.495 1_545 S
C678 C677 1.392 . S
C678 C679 1.385 . S
C678 C680 1.478 . S
C679 H673 0.930 . S
C679 C675 1.400 . S
C679 C678 1.385 . S
C680 C678 1.478 . S
C680 C682 1.381 . S
C680 C686 1.383 . S
C681 C677 1.495 1_565 S
C681 H687 0.959 . S
C681 H688 0.961 . S
C681 H689 0.953 1_565 S
C682 C680 1.381 . S
C682 C683 1.394 . S
C682 H690 0.930 . S
C683 C682 1.394 . S
C683 C684 1.383 . S
C683 H691 0.929 . S
C684 C683 1.383 . S
C684 C685 1.377 . S
C685 H669 0.930 . S
C685 C684 1.377 . S
C685 C686 1.379 . S
C686 H670 0.931 . S
C686 C680 1.383 . S
C686 C685 1.379 . S
H687 C681 0.959 . S
H688 C681 0.961 . S
H689 C681 0.953 1_545 S
H690 C682 0.930 . S
H691 C683 0.929 . S
H692 C700 0.929 . S
H693 C702 0.930 . S
H694 C704 0.930 . S
H695 C707 0.929 . S
H696 C710 0.930 . S
H697 C712 0.960 . S
H698 C712 0.960 . S
H699 C712 0.960 . S
C700 H692 0.929 . S
C700 C701 1.377 . S
C700 C702 1.384 . S
C701 C700 1.377 . S
C701 C707 1.390 . S
C702 H693 0.930 . S
C702 C700 1.384 . S
C702 C703 1.372 . S
C703 C702 1.372 . S
C703 C704 1.400 . S
C703 C708 1.490 . S
C704 H694 0.930 . S
C704 C703 1.400 . S
C704 C707 1.386 . S
H705 C721 0.930 . S
H706 C722 0.931 . S
C707 H695 0.929 . S
C707 C701 1.390 . S
C707 C704 1.386 . S
C708 C703 1.490 . S
C708 C710 1.395 . S
C708 C711 1.403 . S
H709 C715 0.930 . S
C710 H696 0.930 . S
C710 C708 1.395 . S
C710 C713 1.403 . S
C711 C708 1.403 . S
C711 C712 1.524 . S
C711 C715 1.400 . S
C712 H697 0.960 . S
C712 H698 0.960 . S
C712 H699 0.960 . S
C712 C711 1.524 . S
C713 C710 1.403 . S
C713 C714 1.392 . S
C713 C717 1.495 . S
C714 C713 1.392 . S
C714 C715 1.385 . S
C714 C716 1.478 . S
C715 H709 0.930 . S
C715 C711 1.400 . S
C715 C714 1.385 . S
C716 C714 1.478 . S
C716 C718 1.381 . S
C716 C722 1.383 . S
C717 C713 1.495 . S
C717 H723 0.959 . S
C717 H724 0.961 . S
C717 H725 0.960 . S
C718 C716 1.381 . S
C718 C719 1.394 . S
C718 H726 0.930 . S
C719 C718 1.394 . S
C719 C720 1.383 . S
C719 H727 0.929 . S
C720 C719 1.383 . S
C720 C721 1.377 . S
C721 H705 0.930 . S
C721 C720 1.377 . S
C721 C722 1.379 . S
C722 H706 0.931 . S
C722 C716 1.383 . S
C722 C721 1.379 . S
H723 C717 0.959 . S
H724 C717 0.961 . S
H725 C717 0.960 . S
H726 C718 0.930 . S
H727 C719 0.929 . S
H728 C736 0.929 . S
H729 C738 0.930 . S
H730 C740 0.930 . S
H731 C743 0.929 . S
H732 C746 0.930 . S
H733 C748 0.960 . S
H734 C748 0.960 . S
H735 C748 0.960 . S
C736 H728 0.929 . S
C736 C737 1.377 . S
C736 C738 1.384 . S
C737 C736 1.377 . S
C737 C743 1.390 . S
C738 H729 0.930 . S
C738 C736 1.384 . S
C738 C739 1.372 . S
C739 C738 1.372 . S
C739 C740 1.400 . S
C739 C744 1.490 . S
C740 H730 0.930 . S
C740 C739 1.400 . S
C740 C743 1.386 . S
H741 C757 0.930 . S
H742 C758 0.931 . S
C743 H731 0.929 . S
C743 C737 1.390 . S
C743 C740 1.386 . S
C744 C739 1.490 . S
C744 C746 1.395 . S
C744 C747 1.403 . S
H745 C751 0.930 . S
C746 H732 0.930 . S
C746 C744 1.395 . S
C746 C749 1.403 . S
C747 C744 1.403 . S
C747 C748 1.524 . S
C747 C751 1.400 . S
C748 H733 0.960 . S
C748 H734 0.960 . S
C748 H735 0.960 . S
C748 C747 1.524 . S
C749 C746 1.403 . S
C749 C750 1.392 . S
C749 C753 1.495 . S
C750 C749 1.392 . S
C750 C751 1.385 . S
C750 C752 1.478 . S
C751 H745 0.930 . S
C751 C747 1.400 . S
C751 C750 1.385 . S
C752 C750 1.478 . S
C752 C754 1.381 . S
C752 C758 1.383 . S
C753 C749 1.495 . S
C753 H759 0.959 1_455 S
C753 H760 0.961 . S
C753 H761 0.960 . S
C754 C752 1.381 . S
C754 C755 1.394 . S
C754 H762 0.930 . S
C755 C754 1.394 . S
C755 C756 1.383 . S
C755 H763 0.929 . S
C756 C755 1.383 . S
C756 C757 1.377 . S
C757 H741 0.930 . S
C757 C756 1.377 . S
C757 C758 1.379 . S
C758 H742 0.931 . S
C758 C752 1.383 . S
C758 C757 1.379 . S
H759 C753 0.959 1_655 S
H760 C753 0.961 . S
H761 C753 0.960 . S
H762 C754 0.930 . S
H763 C755 0.929 . S
H764 C772 0.929 1_545 S
H765 C774 0.945 . S
H766 C776 0.930 . S
H767 C779 0.929 . S
H768 C782 0.930 . S
H769 C784 0.960 . S
H770 C784 0.960 . S
H771 C784 0.956 1_556 S
C772 H764 0.929 1_565 S
C772 C773 1.377 . S
C772 C774 1.380 1_565 S
C773 C772 1.377 . S
C773 C779 1.390 . S
C774 H765 0.945 . S
C774 C772 1.380 1_545 S
C774 C775 1.361 1_545 S
C775 C774 1.361 1_565 S
C775 C776 1.400 . S
C775 C780 1.490 . S
C776 H766 0.930 . S
C776 C775 1.400 . S
C776 C779 1.386 . S
H777 C793 0.930 . S
H778 C794 0.931 . S
C779 H767 0.929 . S
C779 C773 1.390 . S
C779 C776 1.386 . S
C780 C775 1.490 . S
C780 C782 1.395 . S
C780 C783 1.403 . S
H781 C787 0.930 . S
C782 H768 0.930 . S
C782 C780 1.395 . S
C782 C785 1.403 . S
C783 C780 1.403 . S
C783 C784 1.524 1_556 S
C783 C787 1.400 . S
C784 H769 0.960 . S
C784 H770 0.960 . S
C784 H771 0.956 1_554 S
C784 C783 1.524 1_554 S
C785 C782 1.403 . S
C785 C786 1.392 . S
C785 C789 1.495 1_565 S
C786 C785 1.392 . S
C786 C787 1.385 . S
C786 C788 1.478 . S
C787 H781 0.930 . S
C787 C783 1.400 . S
C787 C786 1.385 . S
C788 C786 1.478 . S
C788 C790 1.381 1_565 S
C788 C794 1.383 . S
C789 C785 1.495 1_545 S
C789 H795 0.959 . S
C789 H796 0.961 1_545 S
C789 H797 0.960 . S
C790 C788 1.381 1_545 S
C790 C791 1.394 . S
C790 H798 0.930 . S
C791 C790 1.394 . S
C791 C792 1.383 . S
C791 H799 0.929 . S
C792 C791 1.383 . S
C792 C793 1.377 1_545 S
C793 H777 0.930 . S
C793 C792 1.377 1_565 S
C793 C794 1.379 . S
C794 H778 0.931 . S
C794 C788 1.383 . S
C794 C793 1.379 . S
H795 C789 0.959 . S
H796 C789 0.961 1_565 S
H797 C789 0.960 . S
H798 C790 0.930 . S
H799 C791 0.929 . S
H800 C808 0.929 . S
H801 C810 0.930 . S
H802 C812 0.930 . S
H803 C815 0.929 . S
H804 C818 0.930 . S
H805 C820 0.960 . S
H806 C820 0.960 . S
H807 C820 0.960 . S
C808 H800 0.929 . S
C808 C809 1.377 . S
C808 C810 1.384 . S
C809 C808 1.377 . S
C809 C815 1.390 . S
C810 H801 0.930 . S
C810 C808 1.384 . S
C810 C811 1.372 . S
C811 C810 1.372 . S
C811 C812 1.400 . S
C811 C816 1.490 . S
C812 H802 0.930 . S
C812 C811 1.400 . S
C812 C815 1.386 . S
H813 C829 0.930 1_565 S
H814 C830 0.931 1_565 S
C815 H803 0.929 . S
C815 C809 1.390 . S
C815 C812 1.386 . S
C816 C811 1.490 . S
C816 C818 1.395 . S
C816 C819 1.403 . S
H817 C823 0.930 . S
C818 H804 0.930 . S
C818 C816 1.395 . S
C818 C821 1.403 . S
C819 C816 1.403 . S
C819 C820 1.524 . S
C819 C823 1.400 . S
C820 H805 0.960 . S
C820 H806 0.960 . S
C820 H807 0.960 . S
C820 C819 1.524 . S
C821 C818 1.403 . S
C821 C822 1.392 . S
C821 C825 1.495 1_545 S
C822 C821 1.392 . S
C822 C823 1.385 . S
C822 C824 1.478 . S
C823 H817 0.930 . S
C823 C819 1.400 . S
C823 C822 1.385 . S
C824 C822 1.478 . S
C824 C826 1.381 . S
C824 C830 1.383 . S
C825 C821 1.495 1_565 S
C825 H831 0.959 . S
C825 H832 0.961 . S
C825 H833 0.960 . S
C826 C824 1.381 . S
C826 C827 1.394 . S
C826 H834 0.930 . S
C827 C826 1.394 . S
C827 C828 1.383 . S
C827 H835 0.929 . S
C828 C827 1.383 . S
C828 C829 1.377 . S
C829 H813 0.930 1_545 S
C829 C828 1.377 . S
C829 C830 1.379 . S
C830 H814 0.931 1_545 S
C830 C824 1.383 . S
C830 C829 1.379 . S
H831 C825 0.959 . S
H832 C825 0.961 . S
H833 C825 0.960 . S
H834 C826 0.930 . S
H835 C827 0.929 . S
H836 C844 0.929 . S
H837 C846 0.930 . S
H838 C848 0.930 . S
H839 C851 0.929 . S
H840 C854 0.930 . S
H841 C856 0.960 . S
H842 C856 0.960 . S
H843 C856 0.960 . S
C844 H836 0.929 . S
C844 C845 1.377 . S
C844 C846 1.384 . S
C845 C844 1.377 . S
C845 C851 1.390 . S
C846 H837 0.930 . S
C846 C844 1.384 . S
C846 C847 1.372 . S
C847 C846 1.372 . S
C847 C848 1.400 . S
C847 C852 1.490 . S
C848 H838 0.930 . S
C848 C847 1.400 . S
C848 C851 1.386 . S
H849 C865 0.930 1_556 S
H850 C866 0.931 . S
C851 H839 0.929 . S
C851 C845 1.390 . S
C851 C848 1.386 . S
C852 C847 1.490 . S
C852 C854 1.395 . S
C852 C855 1.403 . S
H853 C859 0.930 . S
C854 H840 0.930 . S
C854 C852 1.395 . S
C854 C857 1.403 . S
C855 C852 1.403 . S
C855 C856 1.524 . S
C855 C859 1.400 . S
C856 H841 0.960 . S
C856 H842 0.960 . S
C856 H843 0.960 . S
C856 C855 1.524 . S
C857 C854 1.403 . S
C857 C858 1.392 . S
C857 C861 1.495 . S
C858 C857 1.392 . S
C858 C859 1.385 . S
C858 C860 1.478 . S
C859 H853 0.930 . S
C859 C855 1.400 . S
C859 C858 1.385 . S
C860 C858 1.478 . S
C860 C862 1.381 . S
C860 C866 1.383 . S
C861 C857 1.495 . S
C861 H867 0.959 . S
C861 H868 0.961 1_554 S
C861 H869 0.960 . S
C862 C860 1.381 . S
C862 C863 1.394 . S
C862 H870 0.930 . S
C863 C862 1.394 . S
C863 C864 1.383 . S
C863 H871 0.929 . S
C864 C863 1.383 . S
C864 C865 1.377 . S
C865 H849 0.930 1_554 S
C865 C864 1.377 . S
C865 C866 1.379 . S
C866 H850 0.931 . S
C866 C860 1.383 . S
C866 C865 1.379 . S
H867 C861 0.959 . S
H868 C861 0.961 1_556 S
H869 C861 0.960 . S
H870 C862 0.930 . S
H871 C863 0.929 . S
H872 C880 0.929 . S
H873 C882 0.930 . S
H874 C884 0.930 . S
H875 C887 0.929 . S
H876 C890 0.930 . S
H877 C892 0.960 . S
H878 C892 0.960 . S
H879 C892 0.960 . S
C880 H872 0.929 . S
C880 C881 1.377 . S
C880 C882 1.384 . S
C881 C880 1.377 . S
C881 C887 1.390 . S
C882 H873 0.930 . S
C882 C880 1.384 . S
C882 C883 1.372 . S
C883 C882 1.372 . S
C883 C884 1.400 . S
C883 C888 1.490 . S
C884 H874 0.930 . S
C884 C883 1.400 . S
C884 C887 1.386 . S
H885 C901 0.930 . S
H886 C902 0.931 . S
C887 H875 0.929 . S
C887 C881 1.390 . S
C887 C884 1.386 . S
C888 C883 1.490 . S
C888 C890 1.395 . S
C888 C891 1.403 . S
H889 C895 0.930 . S
C890 H876 0.930 . S
C890 C888 1.395 . S
C890 C893 1.403 . S
C891 C888 1.403 . S
C891 C892 1.524 . S
C891 C895 1.400 . S
C892 H877 0.960 . S
C892 H878 0.960 . S
C892 H879 0.960 . S
C892 C891 1.524 . S
C893 C890 1.403 . S
C893 C894 1.392 . S
C893 C897 1.495 . S
C894 C893 1.392 . S
C894 C895 1.385 . S
C894 C896 1.478 . S
C895 H889 0.930 . S
C895 C891 1.400 . S
C895 C894 1.385 . S
C896 C894 1.478 . S
C896 C898 1.381 . S
C896 C902 1.383 . S
C897 C893 1.495 . S
C897 H903 0.959 . S
C897 H904 0.961 . S
C897 H905 0.960 . S
C898 C896 1.381 . S
C898 C899 1.394 . S
C898 H906 0.930 . S
C899 C898 1.394 . S
C899 C900 1.383 . S
C899 H907 0.929 . S
C900 C899 1.383 . S
C900 C901 1.377 . S
C901 H885 0.930 . S
C901 C900 1.377 . S
C901 C902 1.379 . S
C902 H886 0.931 . S
C902 C896 1.383 . S
C902 C901 1.379 . S
H903 C897 0.959 . S
H904 C897 0.961 . S
H905 C897 0.960 . S
H906 C898 0.930 . S
H907 C899 0.929 . S
H908 C916 0.929 . S
H909 C918 0.930 1_455 S
H910 C920 0.930 . S
H911 C923 0.929 . S
H912 C926 0.930 . S
H913 C928 0.960 . S
H914 C928 0.960 . S
H915 C928 0.960 . S
C916 H908 0.929 . S
C916 C917 1.377 . S
C916 C918 1.384 . S
C917 C916 1.377 . S
C917 C923 1.390 . S
C918 H909 0.930 1_655 S
C918 C916 1.384 . S
C918 C919 1.372 . S
C919 C918 1.372 . S
C919 C920 1.400 . S
C919 C924 1.490 . S
C920 H910 0.930 . S
C920 C919 1.400 . S
C920 C923 1.386 . S
H921 C937 0.930 . S
H922 C938 0.931 . S
C923 H911 0.929 . S
C923 C917 1.390 . S
C923 C920 1.386 . S
C924 C919 1.490 . S
C924 C926 1.395 . S
C924 C927 1.403 . S
H925 C931 0.930 . S
C926 H912 0.930 . S
C926 C924 1.395 . S
C926 C929 1.403 . S
C927 C924 1.403 . S
C927 C928 1.524 . S
C927 C931 1.400 . S
C928 H913 0.960 . S
C928 H914 0.960 . S
C928 H915 0.960 . S
C928 C927 1.524 . S
C929 C926 1.403 . S
C929 C930 1.392 . S
C929 C933 1.495 1_656 S
C930 C929 1.392 . S
C930 C931 1.385 . S
C930 C932 1.478 . S
C931 H925 0.930 . S
C931 C927 1.400 . S
C931 C930 1.385 . S
C932 C930 1.478 . S
C932 C934 1.381 1_655 S
C932 C938 1.383 . S
C933 C929 1.495 1_454 S
C933 H939 0.959 . S
C933 H940 0.961 1_455 S
C933 H941 0.960 . S
C934 C932 1.381 1_455 S
C934 C935 1.394 . S
C934 H942 0.930 . S
C935 C934 1.394 . S
C935 C936 1.383 1_455 S
C935 H943 0.929 . S
C936 C935 1.383 1_655 S
C936 C937 1.377 . S
C937 H921 0.930 . S
C937 C936 1.377 . S
C937 C938 1.379 . S
C938 H922 0.931 . S
C938 C932 1.383 . S
C938 C937 1.379 . S
H939 C933 0.959 . S
H940 C933 0.961 1_655 S
H941 C933 0.960 . S
H942 C934 0.930 . S
H943 C935 0.929 . S
H944 C952 0.929 . S
H945 C954 0.930 . S
H946 C956 0.930 . S
H947 C959 0.929 . S
H948 C962 0.930 . S
H949 C964 0.960 . S
H950 C964 0.960 . S
H951 C964 0.960 . S
C952 H944 0.929 . S
C952 C953 1.377 . S
C952 C954 1.384 . S
C953 C952 1.377 . S
C953 C959 1.390 . S
C954 H945 0.930 . S
C954 C952 1.384 . S
C954 C955 1.372 . S
C955 C954 1.372 . S
C955 C956 1.400 . S
C955 C960 1.490 . S
C956 H946 0.930 . S
C956 C955 1.400 . S
C956 C959 1.386 . S
H957 C973 0.930 . S
H958 C974 0.931 . S
C959 H947 0.929 . S
C959 C953 1.390 . S
C959 C956 1.386 . S
C960 C955 1.490 . S
C960 C962 1.395 . S
C960 C963 1.403 . S
H961 C967 0.930 . S
C962 H948 0.930 . S
C962 C960 1.395 . S
C962 C965 1.403 . S
C963 C960 1.403 . S
C963 C964 1.524 . S
C963 C967 1.400 . S
C964 H949 0.960 . S
C964 H950 0.960 . S
C964 H951 0.960 . S
C964 C963 1.524 . S
C965 C962 1.403 . S
C965 C966 1.392 . S
C965 C969 1.495 . S
C966 C965 1.392 . S
C966 C967 1.385 . S
C966 C968 1.478 . S
C967 H961 0.930 . S
C967 C963 1.400 . S
C967 C966 1.385 . S
C968 C966 1.478 . S
C968 C970 1.381 . S
C968 C974 1.383 . S
C969 C965 1.495 . S
C969 H975 0.965 . S
C969 H976 0.984 . S
C969 H977 0.960 . S
C970 C968 1.381 . S
C970 C971 1.394 . S
C970 H978 0.930 . S
C971 C970 1.394 . S
C971 C972 1.383 . S
C971 H979 0.929 . S
C972 C971 1.383 . S
C972 C973 1.377 . S
C973 H957 0.930 . S
C973 C972 1.377 . S
C973 C974 1.379 . S
C974 H958 0.931 . S
C974 C968 1.383 . S
C974 C973 1.379 . S
H975 C969 0.965 . S
H976 C969 0.984 . S
H977 C969 0.960 . S
H978 C970 0.930 . S
H979 C971 0.929 . S
H980 C988 0.929 . S
H981 C990 0.930 . S
H982 C992 0.930 . S
H983 C995 0.929 . S
H984 C998 0.930 . S
H985 C1000 0.960 . S
H986 C1000 0.960 . S
H987 C1000 0.960 . S
C988 H980 0.929 . S
C988 C989 1.377 . S
C988 C990 1.384 . S
C989 C988 1.377 . S
C989 C995 1.390 . S
C990 H981 0.930 . S
C990 C988 1.384 . S
C990 C991 1.372 . S
C991 C990 1.372 . S
C991 C992 1.400 . S
C991 C996 1.490 . S
C992 H982 0.930 . S
C992 C991 1.400 . S
C992 C995 1.386 . S
H993 C1009 0.930 . S
H994 C1010 0.931 . S
C995 H983 0.929 . S
C995 C989 1.390 . S
C995 C992 1.386 . S
C996 C991 1.490 . S
C996 C998 1.395 . S
C996 C999 1.403 . S
H997 C1003 0.930 . S
C998 H984 0.930 . S
C998 C996 1.395 . S
C998 C1001 1.403 . S
C999 C996 1.403 . S
C999 C1000 1.524 . S
C999 C1003 1.400 . S
C1000 H985 0.960 . S
C1000 H986 0.960 . S
C1000 H987 0.960 . S
C1000 C999 1.524 . S
C1001 C998 1.403 . S
C1001 C1002 1.392 . S
C1001 C1005 1.495 . S
C1002 C1001 1.392 . S
C1002 C1003 1.385 . S
C1002 C1004 1.478 . S
C1003 H997 0.930 . S
C1003 C999 1.400 . S
C1003 C1002 1.385 . S
C1004 C1002 1.478 . S
C1004 C1006 1.381 . S
C1004 C1010 1.383 . S
C1005 C1001 1.495 . S
C1005 H1011 0.959 . S
C1005 H1012 0.961 . S
C1005 H1013 0.960 . S
C1006 C1004 1.381 . S
C1006 C1007 1.394 . S
C1006 H1014 0.930 . S
C1007 C1006 1.394 . S
C1007 C1008 1.383 . S
C1007 H1015 0.929 . S
C1008 C1007 1.383 . S
C1008 C1009 1.377 . S
C1009 H993 0.930 . S
C1009 C1008 1.377 . S
C1009 C1010 1.379 . S
C1010 H994 0.931 . S
C1010 C1004 1.383 . S
C1010 C1009 1.379 . S
H1011 C1005 0.959 . S
H1012 C1005 0.961 . S
H1013 C1005 0.960 . S
H1014 C1006 0.930 . S
H1015 C1007 0.929 . S
H1016 C1024 0.929 . S
H1017 C1026 0.930 . S
H1018 C1028 0.930 . S
H1019 C1031 0.929 . S
H1020 C1034 0.930 . S
H1021 C1036 0.960 . S
H1022 C1036 0.960 . S
H1023 C1036 0.960 . S
C1024 H1016 0.929 . S
C1024 C1025 1.377 . S
C1024 C1026 1.384 . S
C1025 C1024 1.377 . S
C1025 C1031 1.390 . S
C1026 H1017 0.930 . S
C1026 C1024 1.384 . S
C1026 C1027 1.372 . S
C1027 C1026 1.372 . S
C1027 C1028 1.400 . S
C1027 C1032 1.490 . S
C1028 H1018 0.930 . S
C1028 C1027 1.400 . S
C1028 C1031 1.386 . S
H1029 C1045 0.930 . S
H1030 C1046 0.931 . S
C1031 H1019 0.929 . S
C1031 C1025 1.390 . S
C1031 C1028 1.386 . S
C1032 C1027 1.490 . S
C1032 C1034 1.395 . S
C1032 C1035 1.403 . S
H1033 C1039 0.930 . S
C1034 H1020 0.930 . S
C1034 C1032 1.395 . S
C1034 C1037 1.403 . S
C1035 C1032 1.403 . S
C1035 C1036 1.524 . S
C1035 C1039 1.400 . S
C1036 H1021 0.960 . S
C1036 H1022 0.960 . S
C1036 H1023 0.960 . S
C1036 C1035 1.524 . S
C1037 C1034 1.403 . S
C1037 C1038 1.392 . S
C1037 C1041 1.495 . S
C1038 C1037 1.392 . S
C1038 C1039 1.385 . S
C1038 C1040 1.478 . S
C1039 H1033 0.930 . S
C1039 C1035 1.400 . S
C1039 C1038 1.385 . S
C1040 C1038 1.478 . S
C1040 C1042 1.381 . S
C1040 C1046 1.383 . S
C1041 C1037 1.495 . S
C1041 H1047 0.959 . S
C1041 H1048 0.961 . S
C1041 H1049 0.960 . S
C1042 C1040 1.381 . S
C1042 C1043 1.394 . S
C1042 H1050 0.930 . S
C1043 C1042 1.394 . S
C1043 C1044 1.383 . S
C1043 H1051 0.929 . S
C1044 C1043 1.383 . S
C1044 C1045 1.377 . S
C1045 H1029 0.930 . S
C1045 C1044 1.377 . S
C1045 C1046 1.379 . S
C1046 H1030 0.931 . S
C1046 C1040 1.383 . S
C1046 C1045 1.379 . S
H1047 C1041 0.959 . S
H1048 C1041 0.961 . S
H1049 C1041 0.960 . S
H1050 C1042 0.930 . S
H1051 C1043 0.929 . S
C197 C6 1.803 . S
C216 C114 1.778 . S
C233 C18 1.934 . S
C252 C138 1.893 . S
C288 C158 1.413 . S
C269 C28 1.392 . S
C305 C40 0.802 . S
C324 C181 0.797 . S
C360 C140 2.012 . S
C341 C9 2.046 . S
C396 C116 1.638 . S
C377 C16 1.689 . S
C432 C184 1.522 . S
C413 C30 1.589 . S
C468 C161 1.182 . S
C449 C42 1.222 . S
C485 C4 1.368 . S
C504 C186 1.335 . S
C540 C135 1.707 . S
C521 C33 1.697 . S
C557 C45 1.335 . S
C576 C113 1.338 . S
C593 C21 1.660 . S
C612 C163 1.615 . S
C648 C117 1.844 . S
C629 C57 1.848 . S
C665 C66 1.881 . S
C684 C139 1.878 . S
C701 C76 1.800 . S
C720 C159 1.818 . S
C737 C88 1.092 . S
C756 C182 1.103 . S
C773 C54 1.803 . S
C792 C137 1.783 . S
C828 C115 1.558 . S
C809 C64 1.539 . S
C864 C185 1.327 . S
C845 C78 1.326 . S
C900 C162 1.118 . S
C881 C93 1.176 . S
C917 C52 1.701 . S
C936 C183 1.704 1_655 S
C972 C136 1.570 . S
C953 C81 1.552 . S
C1008 C112 1.267 . S
C989 C90 1.258 . S
C1025 C69 2.092 . S
C1044 C160 2.076 . S
