# Generated by pormake.
# Topology ctn, (3,4)-cn, num edge types: 1
# Building blocks:
#     Node 0, Type 0, BuildingBlock: ESEHIV_clean_linker_0, # of connection points: 3
#     Node 1, Type 0, BuildingBlock: ESEHIV_clean_linker_0, # of connection points: 3
#     Node 2, Type 0, BuildingBlock: ESEHIV_clean_linker_0, # of connection points: 3
#     Node 3, Type 0, BuildingBlock: ESEHIV_clean_linker_0, # of connection points: 3
#     Node 4, Type 0, BuildingBlock: ESEHIV_clean_linker_0, # of connection points: 3
#     Node 5, Type 0, BuildingBlock: ESEHIV_clean_linker_0, # of connection points: 3
#     Node 6, Type 0, BuildingBlock: ESEHIV_clean_linker_0, # of connection points: 3
#     Node 7, Type 0, BuildingBlock: ESEHIV_clean_linker_0, # of connection points: 3
#     Node 8, Type 0, BuildingBlock: ESEHIV_clean_linker_0, # of connection points: 3
#     Node 9, Type 0, BuildingBlock: ESEHIV_clean_linker_0, # of connection points: 3
#     Node 10, Type 0, BuildingBlock: ESEHIV_clean_linker_0, # of connection points: 3
#     Node 11, Type 0, BuildingBlock: ESEHIV_clean_linker_0, # of connection points: 3
#     Node 12, Type 0, BuildingBlock: ESEHIV_clean_linker_0, # of connection points: 3
#     Node 13, Type 0, BuildingBlock: ESEHIV_clean_linker_0, # of connection points: 3
#     Node 14, Type 0, BuildingBlock: ESEHIV_clean_linker_0, # of connection points: 3
#     Node 15, Type 0, BuildingBlock: ESEHIV_clean_linker_0, # of connection points: 3
#     Node 16, Type 1, BuildingBlock: TATPOV_clean_sbu_0, # of connection points: 4
#     Node 17, Type 1, BuildingBlock: TATPOV_clean_sbu_0, # of connection points: 4
#     Node 18, Type 1, BuildingBlock: TATPOV_clean_sbu_0, # of connection points: 4
#     Node 19, Type 1, BuildingBlock: TATPOV_clean_sbu_0, # of connection points: 4
#     Node 20, Type 1, BuildingBlock: TATPOV_clean_sbu_0, # of connection points: 4
#     Node 21, Type 1, BuildingBlock: TATPOV_clean_sbu_0, # of connection points: 4
#     Node 22, Type 1, BuildingBlock: TATPOV_clean_sbu_0, # of connection points: 4
#     Node 23, Type 1, BuildingBlock: TATPOV_clean_sbu_0, # of connection points: 4
#     Node 24, Type 1, BuildingBlock: TATPOV_clean_sbu_0, # of connection points: 4
#     Node 25, Type 1, BuildingBlock: TATPOV_clean_sbu_0, # of connection points: 4
#     Node 26, Type 1, BuildingBlock: TATPOV_clean_sbu_0, # of connection points: 4
#     Node 27, Type 1, BuildingBlock: TATPOV_clean_sbu_0, # of connection points: 4
#     Edge 28, Type (0, 1), BuildingBlock: EZIPEK_clean_linker_0, # of connection points: 2
#     Edge 29, Type (0, 1), BuildingBlock: EZIPEK_clean_linker_0, # of connection points: 2
#     Edge 30, Type (0, 1), BuildingBlock: EZIPEK_clean_linker_0, # of connection points: 2
#     Edge 31, Type (0, 1), BuildingBlock: EZIPEK_clean_linker_0, # of connection points: 2
#     Edge 32, Type (0, 1), BuildingBlock: EZIPEK_clean_linker_0, # of connection points: 2
#     Edge 33, Type (0, 1), BuildingBlock: EZIPEK_clean_linker_0, # of connection points: 2
#     Edge 34, Type (0, 1), BuildingBlock: EZIPEK_clean_linker_0, # of connection points: 2
#     Edge 35, Type (0, 1), BuildingBlock: EZIPEK_clean_linker_0, # of connection points: 2
#     Edge 36, Type (0, 1), BuildingBlock: EZIPEK_clean_linker_0, # of connection points: 2
#     Edge 37, Type (0, 1), BuildingBlock: EZIPEK_clean_linker_0, # of connection points: 2
#     Edge 38, Type (0, 1), BuildingBlock: EZIPEK_clean_linker_0, # of connection points: 2
#     Edge 39, Type (0, 1), BuildingBlock: EZIPEK_clean_linker_0, # of connection points: 2
#     Edge 40, Type (0, 1), BuildingBlock: EZIPEK_clean_linker_0, # of connection points: 2
#     Edge 41, Type (0, 1), BuildingBlock: EZIPEK_clean_linker_0, # of connection points: 2
#     Edge 42, Type (0, 1), BuildingBlock: EZIPEK_clean_linker_0, # of connection points: 2
#     Edge 43, Type (0, 1), BuildingBlock: EZIPEK_clean_linker_0, # of connection points: 2
#     Edge 44, Type (0, 1), BuildingBlock: EZIPEK_clean_linker_0, # of connection points: 2
#     Edge 45, Type (0, 1), BuildingBlock: EZIPEK_clean_linker_0, # of connection points: 2
#     Edge 46, Type (0, 1), BuildingBlock: EZIPEK_clean_linker_0, # of connection points: 2
#     Edge 47, Type (0, 1), BuildingBlock: EZIPEK_clean_linker_0, # of connection points: 2
#     Edge 48, Type (0, 1), BuildingBlock: EZIPEK_clean_linker_0, # of connection points: 2
#     Edge 49, Type (0, 1), BuildingBlock: EZIPEK_clean_linker_0, # of connection points: 2
#     Edge 50, Type (0, 1), BuildingBlock: EZIPEK_clean_linker_0, # of connection points: 2
#     Edge 51, Type (0, 1), BuildingBlock: EZIPEK_clean_linker_0, # of connection points: 2
#     Edge 52, Type (0, 1), BuildingBlock: EZIPEK_clean_linker_0, # of connection points: 2
#     Edge 53, Type (0, 1), BuildingBlock: EZIPEK_clean_linker_0, # of connection points: 2
#     Edge 54, Type (0, 1), BuildingBlock: EZIPEK_clean_linker_0, # of connection points: 2
#     Edge 55, Type (0, 1), BuildingBlock: EZIPEK_clean_linker_0, # of connection points: 2
#     Edge 56, Type (0, 1), BuildingBlock: EZIPEK_clean_linker_0, # of connection points: 2
#     Edge 57, Type (0, 1), BuildingBlock: EZIPEK_clean_linker_0, # of connection points: 2
#     Edge 58, Type (0, 1), BuildingBlock: EZIPEK_clean_linker_0, # of connection points: 2
#     Edge 59, Type (0, 1), BuildingBlock: EZIPEK_clean_linker_0, # of connection points: 2
#     Edge 60, Type (0, 1), BuildingBlock: EZIPEK_clean_linker_0, # of connection points: 2
#     Edge 61, Type (0, 1), BuildingBlock: EZIPEK_clean_linker_0, # of connection points: 2
#     Edge 62, Type (0, 1), BuildingBlock: EZIPEK_clean_linker_0, # of connection points: 2
#     Edge 63, Type (0, 1), BuildingBlock: EZIPEK_clean_linker_0, # of connection points: 2
#     Edge 64, Type (0, 1), BuildingBlock: EZIPEK_clean_linker_0, # of connection points: 2
#     Edge 65, Type (0, 1), BuildingBlock: EZIPEK_clean_linker_0, # of connection points: 2
#     Edge 66, Type (0, 1), BuildingBlock: EZIPEK_clean_linker_0, # of connection points: 2
#     Edge 67, Type (0, 1), BuildingBlock: EZIPEK_clean_linker_0, # of connection points: 2
#     Edge 68, Type (0, 1), BuildingBlock: EZIPEK_clean_linker_0, # of connection points: 2
#     Edge 69, Type (0, 1), BuildingBlock: EZIPEK_clean_linker_0, # of connection points: 2
#     Edge 70, Type (0, 1), BuildingBlock: EZIPEK_clean_linker_0, # of connection points: 2
#     Edge 71, Type (0, 1), BuildingBlock: EZIPEK_clean_linker_0, # of connection points: 2
#     Edge 72, Type (0, 1), BuildingBlock: EZIPEK_clean_linker_0, # of connection points: 2
#     Edge 73, Type (0, 1), BuildingBlock: EZIPEK_clean_linker_0, # of connection points: 2
#     Edge 74, Type (0, 1), BuildingBlock: EZIPEK_clean_linker_0, # of connection points: 2
#     Edge 75, Type (0, 1), BuildingBlock: EZIPEK_clean_linker_0, # of connection points: 2
# Relax obj value: 0.003
# Max RMSD: 0.045
# Mean RMSD: 0.021
data_MOF--net-ctn--node1-TATPOV_clean_sbu_0--node2-ESEHIV_clean_linker_0--edge1-EZIPEK_clean_linker_0
_symmetry_space_group_name_H-M    P1
_symmetry_Int_Tables_number       1
_symmetry_cell_setting            triclinic
loop_
_symmetry_equiv_pos_as_xyz
'x, y, z'
_cell_length_a     36.572722
_cell_length_b     36.551845
_cell_length_c     36.52536
_cell_angle_alpha  91.450637
_cell_angle_beta   91.656587
_cell_angle_gamma 91.599249
loop_
_atom_site_label
_atom_site_type_symbol
_atom_site_fract_x
_atom_site_fract_y
_atom_site_fract_z
_atom_type_partial_charge
H0 H 0.9626 0.06718 0.03106 0.0
H1 H 0.01707 0.97275 0.07133 0.0
H2 H 0.05929 0.02972 0.97902 0.0
C3 C 0.98446 0.04783 0.0292 0.0
C4 C 0.01054 0.05163 0.00208 0.0
C5 C 0.98673 0.0195 0.05428 0.0
C6 C 0.01517 0.9946 0.0519 0.0
C7 C 0.0414 0.99809 0.02475 0.0
C8 C 0.039 0.02672 -0.00012 0.0
H9 H 0.27029 0.67244 0.2815 0.0
H10 H 0.30788 0.7638 0.21981 0.0
H11 H 0.21328 0.6994 0.18144 0.0
C12 C 0.26685 0.6903 0.25847 0.0
C13 C 0.23782 0.68381 0.233 0.0
C14 C 0.29254 0.71863 0.25318 0.0
C15 C 0.28795 0.74177 0.22356 0.0
C16 C 0.25977 0.73488 0.19708 0.0
C17 C 0.23476 0.70555 0.20192 0.0
H18 H 0.97748 0.48557 0.10872 0.0
H19 H 0.03779 0.39432 0.06807 0.0
H20 H 0.94888 0.43687 0.00343 0.0
C21 C 0.98194 0.46492 0.08759 0.0
C22 C 0.9608 0.46439 0.05517 0.0
C23 C 0.00899 0.43897 0.09273 0.0
C24 C 0.01587 0.41339 0.06457 0.0
C25 C 0.99415 0.41228 0.03213 0.0
C26 C 0.96584 0.43726 0.02831 0.0
H27 H 0.68559 0.70972 0.20052 0.0
H28 H 0.78454 0.77388 0.1872 0.0
H29 H 0.69868 0.8155 0.25369 0.0
C30 C 0.70199 0.73444 0.20645 0.0
C31 C 0.68893 0.76161 0.22992 0.0
C32 C 0.73589 0.73946 0.19006 0.0
C33 C 0.75776 0.77083 0.19891 0.0
C34 C 0.74451 0.79879 0.22169 0.0
C35 C 0.70949 0.7942 0.23622 0.0
H36 H 0.99613 0.96271 0.44769 0.0
H37 H 0.07537 0.04082 0.40917 0.0
H38 H 0.09822 0.98117 0.50721 0.0
C39 C 0.02223 0.97742 0.45117 0.0
C40 C 0.04581 0.96938 0.48048 0.0
C41 C 0.03255 0.0034 0.42565 0.0
C42 C 0.06686 0.02147 0.42948 0.0
C43 C 0.09054 0.01371 0.45913 0.0
C44 C 0.0797 0.98791 0.48482 0.0
H45 H 0.16523 0.78935 0.7845 0.0
H46 H 0.24973 0.71626 0.81665 0.0
H47 H 0.19128 0.69869 0.71329 0.0
C48 C 0.18156 0.7657 0.77864 0.0
C49 C 0.17527 0.74531 0.74598 0.0
C50 C 0.20842 0.75536 0.80406 0.0
C51 C 0.22914 0.72444 0.79676 0.0
C52 C 0.2232 0.7039 0.76399 0.0
C53 C 0.19635 0.71464 0.73843 0.0
H54 H 0.8948 0.56852 0.51518 0.0
H55 H 0.99698 0.59849 0.46655 0.0
H56 H 0.94822 0.49139 0.44535 0.0
C57 C 0.91754 0.56161 0.49816 0.0
C58 C 0.91851 0.52689 0.48113 0.0
C59 C 0.94591 0.58746 0.49303 0.0
C60 C 0.97517 0.57848 0.47082 0.0
C61 C 0.97592 0.54391 0.45356 0.0
C62 C 0.94768 0.51814 0.45885 0.0
H63 H 0.79084 0.82322 0.88208 0.0
H64 H 0.81035 0.86547 0.77507 0.0
H65 H 0.87093 0.77467 0.81368 0.0
C66 C 0.80644 0.8236 0.85729 0.0
C67 C 0.83179 0.79624 0.85095 0.0
C68 C 0.79767 0.84823 0.82964 0.0
C69 C 0.81731 0.84733 0.7971 0.0
C70 C 0.84479 0.82193 0.79205 0.0
C71 C 0.85185 0.79625 0.81891 0.0
H72 H 0.29115 0.30741 0.37168 0.0
H73 H 0.33055 0.36776 0.28121 0.0
H74 H 0.39602 0.28356 0.32717 0.0
C75 C 0.31317 0.31374 0.35341 0.0
C76 C 0.34461 0.29243 0.35334 0.0
C77 C 0.30893 0.34192 0.32857 0.0
C78 C 0.33544 0.34817 0.3025 0.0
C79 C 0.36631 0.32648 0.30142 0.0
C80 C 0.37209 0.30036 0.32832 0.0
H81 H 0.48002 0.98824 0.604 0.0
H82 H 0.5464 0.89813 0.57087 0.0
H83 H 0.46089 0.93525 0.49874 0.0
C84 C 0.48714 0.96748 0.5839 0.0
C85 C 0.46807 0.96499 0.55017 0.0
C86 C 0.51569 0.94365 0.59156 0.0
C87 C 0.52459 0.91684 0.56519 0.0
C88 C 0.50421 0.91331 0.5321 0.0
C89 C 0.47633 0.93767 0.52455 0.0
H90 H 0.20671 0.21134 0.71064 0.0
H91 H 0.29605 0.28363 0.68281 0.0
H92 H 0.21764 0.31893 0.76093 0.0
C93 C 0.22177 0.23719 0.71457 0.0
C94 C 0.20875 0.26412 0.73845 0.0
C95 C 0.253 0.24426 0.69424 0.0
C96 C 0.27212 0.27797 0.69879 0.0
C97 C 0.25951 0.30486 0.72305 0.0
C98 C 0.22779 0.29789 0.74272 0.0
H99 H 0.79136 0.17196 0.76972 0.0
H100 H 0.82064 0.26385 0.70462 0.0
H101 H 0.72919 0.19275 0.67097 0.0
C102 C 0.78585 0.18905 0.74647 0.0
C103 C 0.75646 0.18004 0.72208 0.0
C104 C 0.80931 0.21889 0.7398 0.0
C105 C 0.80227 0.24084 0.70968 0.0
C106 C 0.77363 0.23147 0.68435 0.0
C107 C 0.7508 0.20084 0.69071 0.0
H108 H 0.47056 0.56409 0.51923 0.0
H109 H 0.52109 0.47084 0.56702 0.0
H110 H 0.56467 0.51764 0.46986 0.0
C111 C 0.49152 0.54369 0.51895 0.0
C112 C 0.51752 0.54396 0.49145 0.0
C113 C 0.49269 0.51743 0.54632 0.0
C114 C 0.52003 0.49116 0.54593 0.0
C115 C 0.54599 0.49108 0.51831 0.0
C116 C 0.5446 0.51751 0.49112 0.0
H117 H 0.49535 0.47211 0.93904 0.0
H118 H 0.57363 0.54827 0.89535 0.0
H119 H 0.60074 0.48912 0.9926 0.0
C120 C 0.52192 0.4861 0.94074 0.0
C121 C 0.54691 0.47802 0.96888 0.0
C122 C 0.53124 0.51173 0.91446 0.0
C123 C 0.56599 0.52911 0.91617 0.0
C124 C 0.59111 0.52102 0.94447 0.0
C125 C 0.58125 0.49581 0.97102 0.0
H126 H 0.66839 0.27726 0.2607 0.0
H127 H 0.75015 0.21142 0.31119 0.0
H128 H 0.69565 0.17424 0.2103 0.0
C129 C 0.68471 0.25294 0.2604 0.0
C130 C 0.6803 0.22709 0.23149 0.0
C131 C 0.70941 0.24691 0.28943 0.0
C132 C 0.73074 0.21569 0.28879 0.0
C133 C 0.72582 0.189 0.26056 0.0
C134 C 0.70014 0.19476 0.23203 0.0
H135 H 0.39303 0.08202 0.02782 0.0
H136 H 0.49212 0.11027 0.97268 0.0
H137 H 0.44019 0.0043 0.9537 0.0
C138 C 0.41434 0.0748 0.00915 0.0
C139 C 0.41357 0.04008 0.99181 0.0
C140 C 0.44269 0.10019 0.00223 0.0
C141 C 0.47022 0.09071 0.9781 0.0
C142 C 0.46917 0.05628 0.96044 0.0
C143 C 0.44088 0.03104 0.96731 0.0
Zn144 Zn 0.29804 0.84112 0.99861 0.0
Zn145 Zn 0.23802 0.87855 0.01096 0.0
O146 O 0.24279 0.84741 0.05763 0.0
O147 O 0.28671 0.81069 0.04217 0.0
O148 O 0.19321 0.90917 0.01785 0.0
O149 O 0.32921 0.88766 0.00348 0.0
O150 O 0.27848 0.91848 0.00784 0.0
C151 C 0.26293 0.82034 0.06471 0.0
C152 C 0.24583 0.83036 0.94075 0.0
O153 O 0.2265 0.84967 0.96196 0.0
O154 O 0.27874 0.824 0.94927 0.0
C155 C 0.16045 0.89653 0.01597 0.0
O156 O 0.1542 0.86122 0.01048 0.0
C157 C 0.31316 0.91783 0.00575 0.0
Zn158 Zn 0.09614 0.42281 0.30914 0.0
Zn159 Zn 0.13251 0.4861 0.291 0.0
O160 O 0.10133 0.50299 0.33342 0.0
O161 O 0.06977 0.45287 0.34667 0.0
O162 O 0.16054 0.53161 0.27721 0.0
O163 O 0.14437 0.40045 0.3214 0.0
O164 O 0.17302 0.45067 0.30368 0.0
C165 C 0.07711 0.48669 0.35188 0.0
C166 C 0.08225 0.44427 0.23494 0.0
O167 O 0.10251 0.47196 0.24453 0.0
O168 O 0.07624 0.4188 0.25705 0.0
C169 C 0.14445 0.5593 0.26489 0.0
O170 O 0.10862 0.5586 0.26097 0.0
C171 C 0.17369 0.41826 0.31558 0.0
Zn172 Zn 0.81532 0.58657 0.93743 0.0
Zn173 Zn 0.79901 0.62349 0.00052 0.0
O174 O 0.83943 0.58996 0.01775 0.0
O175 O 0.85126 0.55807 0.96749 0.0
O176 O 0.78675 0.6528 0.04535 0.0
O177 O 0.83012 0.63446 0.91528 0.0
O178 O 0.81368 0.66362 0.96553 0.0
C179 C 0.85669 0.56493 0.00139 0.0
C180 C 0.74008 0.57766 0.95765 0.0
O181 O 0.75061 0.59707 0.98564 0.0
O182 O 0.7622 0.56984 0.93277 0.0
C183 C 0.77968 0.63886 0.07593 0.0
O184 O 0.78056 0.60323 0.07956 0.0
C185 C 0.82574 0.66399 0.93325 0.0
Zn186 Zn 0.8385 0.99536 0.3095 0.0
Zn187 Zn 0.86824 0.00527 0.24994 0.0
O188 O 0.83925 0.05239 0.25437 0.0
O189 O 0.80073 0.03283 0.29488 0.0
O190 O 0.89662 0.00986 0.2037 0.0
O191 O 0.8829 0.01013 0.34049 0.0
O192 O 0.91083 0.00345 0.28836 0.0
C193 C 0.81037 0.05689 0.27243 0.0
C194 C 0.82473 0.93462 0.26373 0.0
O195 O 0.83468 0.95856 0.24096 0.0
O196 O 0.83023 0.94161 0.2975 0.0
C197 C 0.88338 0.00798 0.17115 0.0
O198 O 0.84792 0.00325 0.1654 0.0
C199 C 0.91216 0.00807 0.32307 0.0
Zn200 Zn 0.30935 0.08478 0.43991 0.0
Zn201 Zn 0.30192 0.12033 0.50471 0.0
O202 O 0.34009 0.08386 0.51931 0.0
O203 O 0.34982 0.05715 0.46561 0.0
O204 O 0.29361 0.15079 0.54986 0.0
O205 O 0.3191 0.13306 0.41619 0.0
O206 O 0.32152 0.15951 0.47075 0.0
C207 C 0.3569 0.06098 0.49968 0.0
C208 C 0.23781 0.07553 0.46698 0.0
O209 O 0.25092 0.09656 0.49279 0.0
O210 O 0.25757 0.0657 0.44085 0.0
C211 C 0.28978 0.13865 0.58181 0.0
O212 O 0.29166 0.10339 0.58739 0.0
C213 C 0.32511 0.16138 0.43635 0.0
Zn214 Zn 0.33117 0.51163 0.80283 0.0
Zn215 Zn 0.36752 0.51944 0.73935 0.0
O216 O 0.33278 0.56336 0.73847 0.0
O217 O 0.30309 0.55656 0.7898 0.0
O218 O 0.39838 0.52333 0.69446 0.0
O219 O 0.37879 0.51704 0.83205 0.0
O220 O 0.40758 0.5223 0.78013 0.0
C221 C 0.309 0.57411 0.76099 0.0
C222 C 0.32204 0.44926 0.75328 0.0
O223 O 0.34203 0.46853 0.7327 0.0
O224 O 0.31364 0.4612 0.78467 0.0
C225 C 0.38657 0.51848 0.66158 0.0
O226 O 0.35147 0.51201 0.65486 0.0
C227 C 0.40818 0.52089 0.81494 0.0
Zn228 Zn 0.79715 0.33069 0.48065 0.0
Zn229 Zn 0.73913 0.36969 0.49622 0.0
O230 O 0.74592 0.33801 0.54225 0.0
O231 O 0.78763 0.2998 0.5242 0.0
O232 O 0.6951 0.40058 0.50575 0.0
O233 O 0.82949 0.37625 0.48564 0.0
O234 O 0.7801 0.40877 0.49251 0.0
C235 C 0.76576 0.31047 0.54823 0.0
C236 C 0.74302 0.32341 0.4243 0.0
O237 O 0.72508 0.3427 0.44678 0.0
O238 O 0.77578 0.31547 0.4316 0.0
C239 C 0.66286 0.38747 0.50926 0.0
O240 O 0.65706 0.35182 0.50812 0.0
C241 C 0.81458 0.40689 0.48932 0.0
Zn242 Zn 0.59012 0.94074 0.81119 0.0
Zn243 Zn 0.62716 0.00159 0.79746 0.0
O244 O 0.59032 0.01873 0.83515 0.0
O245 O 0.56747 0.96625 0.85418 0.0
O246 O 0.65497 0.04775 0.78431 0.0
O247 O 0.63903 0.9162 0.81532 0.0
O248 O 0.6673 0.96992 0.81877 0.0
C249 C 0.56991 0.00084 0.85647 0.0
C250 C 0.57878 0.96021 0.73835 0.0
O251 O 0.60489 0.98258 0.74777 0.0
O252 O 0.56387 0.94074 0.76218 0.0
C253 C 0.67012 0.0501 0.75351 0.0
O254 O 0.66729 0.02243 0.72986 0.0
C255 C 0.66821 0.93529 0.82075 0.0
Zn256 Zn 0.01026 0.29972 0.82924 0.0
Zn257 Zn 0.01212 0.24003 0.86685 0.0
O258 O 0.06026 0.2414 0.83768 0.0
O259 O 0.05331 0.287 0.80002 0.0
O260 O 0.01799 0.19497 0.89754 0.0
O261 O 0.01987 0.33008 0.87528 0.0
O262 O 0.00543 0.28123 0.90576 0.0
C263 C 0.07186 0.26083 0.81164 0.0
C264 C 0.94671 0.25269 0.81632 0.0
O265 O 0.96519 0.23062 0.83536 0.0
O266 O 0.95872 0.28496 0.81136 0.0
C267 C 0.99148 0.17414 0.90652 0.0
O268 O 0.95801 0.18105 0.89528 0.0
C269 C 0.01186 0.31564 0.90519 0.0
Zn270 Zn 0.49332 0.80108 0.33288 0.0
Zn271 Zn 0.50269 0.7375 0.3695 0.0
O272 O 0.5454 0.73758 0.33398 0.0
O273 O 0.53785 0.7887 0.304 0.0
O274 O 0.50864 0.6923 0.39952 0.0
O275 O 0.5 0.82979 0.38054 0.0
O276 O 0.50697 0.77804 0.40943 0.0
C277 C 0.55564 0.76011 0.30995 0.0
C278 C 0.43163 0.75047 0.32522 0.0
O279 O 0.45152 0.73022 0.34496 0.0
O280 O 0.44292 0.78202 0.31646 0.0
C281 C 0.50916 0.65981 0.38638 0.0
O282 O 0.50646 0.654 0.35075 0.0
C283 C 0.50539 0.8128 0.40988 0.0
Zn284 Zn 0.92275 0.80523 0.5763 0.0
Zn285 Zn 0.98633 0.78682 0.61359 0.0
O286 O 0.0031 0.83074 0.58447 0.0
O287 O 0.95268 0.84637 0.5546 0.0
O288 O 0.03123 0.77119 0.64138 0.0
O289 O 0.8996 0.81295 0.62534 0.0
O290 O 0.95083 0.79814 0.65415 0.0
C291 C 0.98642 0.85144 0.56249 0.0
C292 C 0.94628 0.73227 0.56 0.0
O293 O 0.97242 0.74144 0.58239 0.0
O294 O 0.92122 0.75438 0.55257 0.0
C295 C 0.0553 0.79379 0.65484 0.0
O296 O 0.05171 0.82905 0.65027 0.0
C297 C 0.91775 0.80798 0.65475 0.0
Zn298 Zn 0.4337 0.32003 0.08434 0.0
Zn299 Zn 0.50024 0.30139 0.11438 0.0
O300 O 0.51441 0.34457 0.08277 0.0
O301 O 0.46109 0.36025 0.05868 0.0
O302 O 0.5465 0.28625 0.13966 0.0
O303 O 0.41577 0.32874 0.13541 0.0
O304 O 0.46937 0.3131 0.15839 0.0
C305 C 0.49544 0.36496 0.06233 0.0
C306 C 0.45435 0.24619 0.06662 0.0
O307 O 0.48305 0.25528 0.08559 0.0
O308 O 0.42902 0.26869 0.06184 0.0
C309 C 0.57163 0.26842 0.12475 0.0
O310 O 0.5692 0.25965 0.08966 0.0
C311 C 0.43691 0.32355 0.16272 0.0
C312 C 0.19573 0.76735 0.87038 0.0
C313 C 0.2148 0.77708 0.83859 0.0
C314 C 0.24593 0.8281 0.8726 0.0
C315 C 0.23074 0.81532 0.90535 0.0
N316 N 0.19277 0.77192 0.93664 0.0
N317 N 0.25934 0.81517 0.809 0.0
C318 C 0.20563 0.78499 0.90456 0.0
C319 C 0.24009 0.80724 0.83949 0.0
N320 N 0.16803 0.74141 0.86774 0.0
N321 N 0.26535 0.86064 0.87321 0.0
H322 H 0.25505 0.80113 0.78394 0.0
H323 H 0.2812 0.83402 0.809 0.0
H324 H 0.26965 0.87672 0.89706 0.0
H325 H 0.2743 0.87338 0.8498 0.0
H326 H 0.15047 0.7358 0.88893 0.0
H327 H 0.16074 0.72726 0.84333 0.0
H328 H 0.17799 0.74731 0.93844 0.0
H329 H 0.19872 0.78465 0.96207 0.0
C330 C 0.00168 0.543 0.3909 0.0
C331 C 0.00556 0.53476 0.42852 0.0
C332 C 0.06019 0.49967 0.41659 0.0
C333 C 0.05589 0.50726 0.37883 0.0
N334 N 0.02763 0.54152 0.33052 0.0
N335 N 0.04146 0.5121 0.47889 0.0
C336 C 0.02841 0.53095 0.3662 0.0
C337 C 0.03589 0.51529 0.44193 0.0
N338 N 0.97143 0.56075 0.37859 0.0
N339 N 0.087 0.47681 0.42794 0.0
H340 H 0.02382 0.52294 0.49804 0.0
H341 H 0.06475 0.50119 0.49087 0.0
H342 H 0.10673 0.4669 0.41046 0.0
H343 H 0.08906 0.46647 0.45417 0.0
H344 H 0.96444 0.56365 0.35103 0.0
H345 H 0.95183 0.57097 0.39602 0.0
H346 H 0.01091 0.56182 0.32056 0.0
H347 H 0.04559 0.5319 0.31109 0.0
C348 C 0.80426 0.73491 0.86333 0.0
C349 C 0.83067 0.76293 0.87307 0.0
C350 C 0.85536 0.7255 0.92219 0.0
C351 C 0.82734 0.69873 0.91378 0.0
N352 N 0.77007 0.68162 0.88254 0.0
N353 N 0.87856 0.78766 0.91382 0.0
C354 C 0.80034 0.70448 0.88612 0.0
C355 C 0.85544 0.75908 0.90321 0.0
N356 N 0.78356 0.73677 0.83167 0.0
N357 N 0.88234 0.71826 0.94743 0.0
H358 H 0.87971 0.81218 0.89982 0.0
H359 H 0.89482 0.78809 0.93769 0.0
H360 H 0.88262 0.6941 0.96204 0.0
H361 H 0.90559 0.73494 0.95226 0.0
H362 H 0.76723 0.71502 0.821 0.0
H363 H 0.78491 0.75884 0.81425 0.0
H364 H 0.7475 0.68697 0.86567 0.0
H365 H 0.76574 0.65911 0.89904 0.0
C366 C 0.00332 0.9816 0.3663 0.0
C367 C 0.00749 0.00944 0.39391 0.0
C368 C 0.95588 0.04146 0.3668 0.0
C369 C 0.94766 0.01036 0.34367 0.0
N370 N 0.96202 0.94919 0.32299 0.0
N371 N 0.98758 0.06563 0.42181 0.0
C372 C 0.97132 0.9802 0.34327 0.0
C373 C 0.98406 0.03965 0.39426 0.0
N374 N 0.02993 0.95638 0.3624 0.0
N375 N 0.93704 0.07285 0.36207 0.0
H376 H 0.0085 0.06569 0.44183 0.0
H377 H 0.96855 0.08585 0.42613 0.0
H378 H 0.91667 0.07516 0.34171 0.0
H379 H 0.94392 0.09752 0.37578 0.0
H380 H 0.03025 0.93744 0.34064 0.0
H381 H 0.05363 0.95677 0.37907 0.0
H382 H 0.97601 0.92487 0.32507 0.0
H383 H 0.9386 0.94659 0.30611 0.0
C384 C 0.24256 0.21492 0.63219 0.0
C385 C 0.26336 0.21742 0.66556 0.0
C386 C 0.30291 0.16896 0.64364 0.0
C387 C 0.27998 0.16428 0.61172 0.0
N388 N 0.22339 0.17711 0.57945 0.0
N389 N 0.30998 0.19388 0.70577 0.0
C390 C 0.24849 0.18569 0.60705 0.0
C391 C 0.2926 0.19355 0.67213 0.0
N392 N 0.21783 0.24111 0.62406 0.0
N393 N 0.33527 0.15122 0.64605 0.0
H394 H 0.3036 0.21207 0.72697 0.0
H395 H 0.32876 0.17443 0.71357 0.0
H396 H 0.34388 0.1332 0.62567 0.0
H397 H 0.35497 0.15657 0.66679 0.0
H398 H 0.20469 0.24281 0.59849 0.0
H399 H 0.21301 0.2633 0.64161 0.0
H400 H 0.19812 0.18942 0.57705 0.0
H401 H 0.22606 0.15507 0.56111 0.0
C402 C 0.43805 0.48936 0.57661 0.0
C403 C 0.46523 0.51775 0.57564 0.0
C404 C 0.43739 0.54905 0.62764 0.0
C405 C 0.41283 0.51865 0.63123 0.0
N406 N 0.39484 0.45642 0.61345 0.0
N407 N 0.49492 0.57138 0.60421 0.0
C408 C 0.41441 0.48786 0.60682 0.0
C409 C 0.46608 0.54672 0.6023 0.0
N410 N 0.43412 0.46435 0.54821 0.0
N411 N 0.43245 0.58073 0.64735 0.0
H412 H 0.51669 0.57038 0.58641 0.0
H413 H 0.49896 0.59071 0.62549 0.0
H414 H 0.41112 0.58395 0.66539 0.0
H415 H 0.44721 0.60496 0.64308 0.0
H416 H 0.41228 0.44547 0.54557 0.0
H417 H 0.45077 0.46462 0.5255 0.0
H418 H 0.39801 0.43197 0.59877 0.0
H419 H 0.37813 0.45357 0.6359 0.0
C420 C 0.73699 0.26812 0.63857 0.0
C421 C 0.77026 0.25171 0.64946 0.0
C422 C 0.80071 0.28127 0.5991 0.0
C423 C 0.76651 0.29234 0.58435 0.0
N424 N 0.70043 0.2894 0.58749 0.0
N425 N 0.83092 0.23422 0.63233 0.0
C426 C 0.73404 0.28397 0.60337 0.0
C427 C 0.80128 0.25568 0.62737 0.0
N428 N 0.70867 0.26972 0.66206 0.0
N429 N 0.83283 0.29635 0.5875 0.0
H430 H 0.83157 0.21315 0.65105 0.0
H431 H 0.85289 0.23456 0.61474 0.0
H432 H 0.83385 0.31794 0.56938 0.0
H433 H 0.85813 0.29073 0.59969 0.0
H434 H 0.68517 0.28437 0.65656 0.0
H435 H 0.71022 0.25967 0.68851 0.0
H436 H 0.67614 0.2805 0.59907 0.0
H437 H 0.69683 0.29915 0.56112 0.0
C438 C 0.55194 0.98097 0.63936 0.0
C439 C 0.53555 0.94685 0.62765 0.0
C440 C 0.55685 0.9203 0.68481 0.0
C441 C 0.56625 0.95585 0.69938 0.0
N442 N 0.56545 0.02155 0.69137 0.0
N443 N 0.51587 0.88557 0.64344 0.0
C444 C 0.5621 0.98673 0.67688 0.0
C445 C 0.53623 0.9168 0.65146 0.0
N446 N 0.55826 0.00771 0.61467 0.0
N447 N 0.56862 0.8898 0.70195 0.0
H448 H 0.49856 0.8824 0.62034 0.0
H449 H 0.51318 0.86442 0.66188 0.0
H450 H 0.58622 0.89106 0.72496 0.0
H451 H 0.56468 0.86349 0.69055 0.0
H452 H 0.57297 0.03189 0.62148 0.0
H453 H 0.55243 0.00391 0.58668 0.0
H454 H 0.55934 0.04455 0.6763 0.0
H455 H 0.57006 0.02747 0.71918 0.0
C456 C 0.87583 0.20712 0.75057 0.0
C457 C 0.8438 0.22488 0.76179 0.0
C458 C 0.87844 0.25545 0.81283 0.0
C459 C 0.91107 0.24079 0.79923 0.0
N460 N 0.94212 0.20546 0.75365 0.0
N461 N 0.81415 0.26754 0.80166 0.0
C462 C 0.9101 0.21704 0.7679 0.0
C463 C 0.84493 0.24939 0.79253 0.0
N464 N 0.87338 0.18059 0.72344 0.0
N465 N 0.8795 0.27439 0.84564 0.0
H466 H 0.78887 0.26271 0.78817 0.0
H467 H 0.81399 0.28889 0.82105 0.0
H468 H 0.90363 0.27921 0.86117 0.0
H469 H 0.85629 0.28277 0.85899 0.0
H470 H 0.89477 0.16366 0.71685 0.0
H471 H 0.84905 0.17351 0.70909 0.0
H472 H 0.94369 0.19183 0.7284 0.0
H473 H 0.96774 0.21166 0.76589 0.0
C474 C 0.48541 0.85259 0.50414 0.0
C475 C 0.51021 0.8831 0.5054 0.0
C476 C 0.53813 0.8607 0.44938 0.0
C477 C 0.50939 0.83393 0.44486 0.0
N478 N 0.45379 0.80564 0.4664 0.0
N479 N 0.55967 0.91759 0.47932 0.0
C480 C 0.48283 0.82971 0.47213 0.0
C481 C 0.5368 0.88733 0.47828 0.0
N482 N 0.46421 0.84575 0.53356 0.0
N483 N 0.56694 0.86015 0.42636 0.0
H484 H 0.5602 0.93701 0.50077 0.0
H485 H 0.57661 0.92456 0.458 0.0
H486 H 0.56891 0.84058 0.40525 0.0
H487 H 0.5904 0.87676 0.43021 0.0
H488 H 0.44817 0.82197 0.53587 0.0
H489 H 0.46528 0.86233 0.55727 0.0
H490 H 0.43135 0.80453 0.48328 0.0
H491 H 0.45056 0.78854 0.4432 0.0
C492 C 0.17424 0.2556 0.79626 0.0
C493 C 0.17389 0.25788 0.75753 0.0
C494 C 0.10726 0.24935 0.75564 0.0
C495 C 0.10715 0.25372 0.79428 0.0
N496 N 0.14062 0.26444 0.85177 0.0
N497 N 0.13948 0.26179 0.7003 0.0
C498 C 0.14067 0.25725 0.81487 0.0
C499 C 0.14026 0.25569 0.73709 0.0
N500 N 0.2066 0.25151 0.81516 0.0
N501 N 0.07575 0.23884 0.73674 0.0
H502 H 0.16286 0.26771 0.68568 0.0
H503 H 0.11531 0.26441 0.68492 0.0
H504 H 0.05124 0.23326 0.74975 0.0
H505 H 0.07488 0.23191 0.70887 0.0
H506 H 0.20821 0.2461 0.84301 0.0
H507 H 0.23165 0.25009 0.80229 0.0
H508 H 0.16419 0.27161 0.8673 0.0
H509 H 0.11677 0.26599 0.86659 0.0
C510 C 0.54276 0.60192 0.46495 0.0
C511 C 0.51657 0.5725 0.46318 0.0
C512 C 0.48475 0.6007 0.41152 0.0
C513 C 0.51249 0.62872 0.41155 0.0
N514 N 0.572 0.65162 0.43308 0.0
N515 N 0.46697 0.53986 0.43065 0.0
C516 C 0.54271 0.62808 0.4368 0.0
C517 C 0.48888 0.57065 0.43514 0.0
N518 N 0.56688 0.60562 0.4942 0.0
N519 N 0.45354 0.60371 0.39041 0.0
H520 H 0.46916 0.51735 0.44751 0.0
H521 H 0.44891 0.53528 0.40832 0.0
H522 H 0.44898 0.62562 0.37329 0.0
H523 H 0.43073 0.58624 0.39234 0.0
H524 H 0.58382 0.62872 0.49908 0.0
H525 H 0.56788 0.58702 0.51537 0.0
H526 H 0.59639 0.64993 0.4483 0.0
H527 H 0.57339 0.6706 0.41227 0.0
C528 C 0.84875 0.79464 0.72894 0.0
C529 C 0.86322 0.81927 0.75663 0.0
C530 C 0.91211 0.83875 0.7164 0.0
C531 C 0.8995 0.81171 0.69008 0.0
N532 N 0.86044 0.75906 0.67399 0.0
N533 N 0.91068 0.86175 0.77925 0.0
C534 C 0.86902 0.78833 0.69703 0.0
C535 C 0.89555 0.84047 0.75111 0.0
N536 N 0.81524 0.77788 0.73279 0.0
N537 N 0.93885 0.86366 0.70765 0.0
H538 H 0.89861 0.86451 0.80467 0.0
H539 H 0.93636 0.87465 0.77832 0.0
H540 H 0.95146 0.86337 0.6824 0.0
H541 H 0.9465 0.88639 0.72415 0.0
H542 H 0.80152 0.7628 0.71179 0.0
H543 H 0.79954 0.78173 0.75585 0.0
H544 H 0.84104 0.7388 0.67982 0.0
H545 H 0.8751 0.75295 0.65064 0.0
C546 C 0.0409 0.90256 0.49238 0.0
C547 C 0.03578 0.93913 0.5047 0.0
C548 C 0.00593 0.91717 0.55946 0.0
C549 C 0.0067 0.88102 0.54461 0.0
N550 N 0.02317 0.83842 0.49683 0.0
N551 N 0.01261 0.98225 0.54866 0.0
C552 C 0.02408 0.87337 0.51121 0.0
C553 C 0.01842 0.94676 0.53814 0.0
N554 N 0.06212 0.89589 0.46285 0.0
N555 N 0.99354 0.92299 0.59403 0.0
H556 H 0.02235 0.00457 0.53419 0.0
H557 H 0.99647 0.9897 0.57048 0.0
H558 H 0.98395 0.90178 0.61012 0.0
H559 H 0.99543 0.9482 0.60795 0.0
H560 H 0.07004 0.86988 0.45464 0.0
H561 H 0.0744 0.91671 0.44807 0.0
H562 H 0.03131 0.83165 0.4705 0.0
H563 H 0.01222 0.81612 0.51052 0.0
C564 C 0.1085 0.74566 0.72952 0.0
C565 C 0.14495 0.7554 0.72076 0.0
C566 C 0.12272 0.7868 0.66632 0.0
C567 C 0.08622 0.78041 0.67731 0.0
N568 N 0.0443 0.7592 0.7226 0.0
N569 N 0.18731 0.7886 0.68367 0.0
C570 C 0.07903 0.76112 0.7097 0.0
C571 C 0.15226 0.77685 0.68987 0.0
N572 N 0.10211 0.72121 0.75649 0.0
N573 N 0.12911 0.80113 0.63281 0.0
H574 H 0.20972 0.78111 0.69985 0.0
H575 H 0.19392 0.80779 0.66416 0.0
H576 H 0.10816 0.80847 0.61469 0.0
H577 H 0.15494 0.80286 0.62159 0.0
H578 H 0.0763 0.71001 0.76149 0.0
H579 H 0.12307 0.70955 0.77185 0.0
H580 H 0.03809 0.74902 0.74813 0.0
H581 H 0.02199 0.7709 0.70942 0.0
C582 C 0.94985 0.62892 0.54885 0.0
C583 C 0.94475 0.62443 0.51036 0.0
C584 C 0.94351 0.69087 0.50411 0.0
C585 C 0.94505 0.69519 0.54285 0.0
N586 N 0.94157 0.66793 0.60229 0.0
N587 N 0.92909 0.65028 0.452 0.0
C588 C 0.94595 0.66409 0.56535 0.0
C589 C 0.93927 0.65518 0.48815 0.0
N590 N 0.95963 0.5999 0.56953 0.0
N591 N 0.94788 0.72061 0.48253 0.0
H592 H 0.92523 0.62447 0.43939 0.0
H593 H 0.92109 0.67162 0.43547 0.0
H594 H 0.95218 0.7472 0.4931 0.0
H595 H 0.95086 0.71851 0.45428 0.0
H596 H 0.96755 0.60254 0.59711 0.0
H597 H 0.96304 0.57368 0.55843 0.0
H598 H 0.93829 0.64577 0.61939 0.0
H599 H 0.93746 0.69311 0.61537 0.0
C600 C 0.7845 0.85387 0.20464 0.0
C601 C 0.76722 0.83255 0.23161 0.0
C602 C 0.7815 0.88153 0.27657 0.0
C603 C 0.80475 0.89972 0.25174 0.0
N604 N 0.83572 0.89479 0.19383 0.0
N605 N 0.76207 0.82209 0.29649 0.0
C606 C 0.80855 0.88352 0.21616 0.0
C607 C 0.76997 0.84497 0.26866 0.0
N608 N 0.77699 0.84725 0.16822 0.0
N609 N 0.76792 0.89938 0.30631 0.0
H610 H 0.75614 0.79422 0.29207 0.0
H611 H 0.76593 0.83011 0.32399 0.0
H612 H 0.77022 0.92768 0.31039 0.0
H613 H 0.7494 0.88678 0.32354 0.0
H614 H 0.78705 0.86419 0.14804 0.0
H615 H 0.75747 0.82777 0.15852 0.0
H616 H 0.84038 0.8817 0.16876 0.0
H617 H 0.85646 0.9135 0.20217 0.0
C618 C 0.74574 0.13365 0.29462 0.0
C619 C 0.7464 0.15433 0.2623 0.0
C620 C 0.78411 0.10756 0.23413 0.0
C621 C 0.78869 0.09068 0.26861 0.0
N622 N 0.78199 0.09675 0.33442 0.0
N623 N 0.77413 0.16469 0.20396 0.0
C624 C 0.7718 0.10623 0.29973 0.0
C625 C 0.76789 0.14243 0.23273 0.0
N626 N 0.71981 0.1394 0.32015 0.0
N627 N 0.79345 0.08993 0.20248 0.0
H628 H 0.76439 0.19117 0.20267 0.0
H629 H 0.79232 0.15823 0.18347 0.0
H630 H 0.80254 0.06318 0.20162 0.0
H631 H 0.78774 0.10026 0.17665 0.0
H632 H 0.71688 0.12281 0.34275 0.0
H633 H 0.69872 0.15772 0.31647 0.0
H634 H 0.77197 0.10971 0.35768 0.0
H635 H 0.80387 0.07993 0.3401 0.0
C636 C 0.38819 0.98898 0.02892 0.0
C637 C 0.38426 0.01258 -0.00108 0.0
C638 C 0.33163 0.97571 0.97469 0.0
C639 C 0.33515 0.95239 0.00503 0.0
N640 N 0.36086 0.94117 0.06504 0.0
N641 N 0.34821 0.03376 0.94792 0.0
C642 C 0.36165 0.96041 0.03344 0.0
C643 C 0.35452 0.00769 0.97336 0.0
N644 N 0.41804 0.99302 0.05224 0.0
N645 N 0.30799 0.96619 0.9461 0.0
H646 H 0.36481 0.0573 0.94603 0.0
H647 H 0.32489 0.03375 0.93089 0.0
H648 H 0.29081 0.94293 0.94582 0.0
H649 H 0.3073 0.97975 0.92137 0.0
H650 H 0.42485 0.97408 0.07194 0.0
H651 H 0.43745 0.01432 0.05046 0.0
H652 H 0.37709 0.94796 0.08824 0.0
H653 H 0.34151 0.92031 0.06932 0.0
C654 C 0.24578 0.34749 0.30206 0.0
C655 C 0.27413 0.3614 0.32624 0.0
C656 C 0.23576 0.41186 0.34543 0.0
C657 C 0.20875 0.39958 0.31893 0.0
N658 N 0.191 0.36055 0.26671 0.0
N659 N 0.29868 0.40863 0.36793 0.0
C660 C 0.21454 0.36869 0.29577 0.0
C661 C 0.2699 0.39419 0.34707 0.0
N662 N 0.24832 0.31362 0.28572 0.0
N663 N 0.22822 0.43942 0.36983 0.0
H664 H 0.32367 0.39572 0.37062 0.0
H665 H 0.29872 0.43447 0.38058 0.0
H666 H 0.2035 0.45298 0.36932 0.0
H667 H 0.24522 0.44704 0.39224 0.0
H668 H 0.22674 0.3004 0.27105 0.0
H669 H 0.27083 0.29715 0.28959 0.0
H670 H 0.19607 0.34081 0.24656 0.0
H671 H 0.1681 0.3759 0.26057 0.0
C672 C 0.15836 0.00747 0.45658 0.0
C673 C 0.12806 0.03019 0.46183 0.0
C674 C 0.16964 0.08375 0.47003 0.0
C675 C 0.19992 0.06034 0.46807 0.0
N676 N 0.22266 0.99896 0.46941 0.0
N677 N 0.10473 0.08867 0.48038 0.0
C678 C 0.19414 0.02187 0.46429 0.0
C679 C 0.13363 0.06801 0.47063 0.0
N680 N 0.1531 0.97248 0.44291 0.0
N681 N 0.17501 0.12089 0.46954 0.0
H682 H 0.07799 0.07805 0.48112 0.0
H683 H 0.10771 0.11542 0.49078 0.0
H684 H 0.20084 0.13354 0.46854 0.0
H685 H 0.1537 0.13905 0.46693 0.0
H686 H 0.17453 0.95608 0.43511 0.0
H687 H 0.12732 0.96113 0.43581 0.0
H688 H 0.21923 0.97061 0.47046 0.0
H689 H 0.24914 0.00836 0.47669 0.0
C690 C 0.69743 0.15034 0.74127 0.0
C691 C 0.73333 0.14689 0.72818 0.0
C692 C 0.72869 0.08042 0.73426 0.0
C693 C 0.69172 0.08347 0.74457 0.0
N694 N 0.63849 0.12057 0.75041 0.0
N695 N 0.78024 0.10855 0.7045 0.0
C696 C 0.67536 0.11825 0.74605 0.0
C697 C 0.74807 0.11186 0.7223 0.0
N698 N 0.68478 0.18418 0.75011 0.0
N699 N 0.74597 0.04794 0.73761 0.0
H700 H 0.79504 0.131 0.69496 0.0
H701 H 0.79037 0.08346 0.69604 0.0
H702 H 0.73317 0.0244 0.74719 0.0
H703 H 0.77397 0.04523 0.73434 0.0
H704 H 0.66046 0.18813 0.76364 0.0
H705 H 0.69998 0.20834 0.74653 0.0
H706 H 0.62449 0.14485 0.74791 0.0
H707 H 0.6212 0.09767 0.75301 0.0
C708 C 0.44948 0.02636 0.52856 0.0
C709 C 0.43934 0.99122 0.54121 0.0
C710 C 0.37466 0.00268 0.52849 0.0
C711 C 0.38478 0.03809 0.51665 0.0
N712 N 0.43003 0.08673 0.51166 0.0
N713 N 0.39294 0.9481 0.55994 0.0
C714 C 0.42169 0.05095 0.51878 0.0
C715 C 0.40205 0.98004 0.54327 0.0
N716 N 0.48561 0.03553 0.52437 0.0
N717 N 0.33905 0.9904 0.5246 0.0
H718 H 0.41245 0.93081 0.57087 0.0
H719 H 0.36623 0.94006 0.56562 0.0
H720 H 0.31802 0.00681 0.51523 0.0
H721 H 0.33053 0.96344 0.52862 0.0
H722 H 0.49464 0.05896 0.51133 0.0
H723 H 0.50682 0.01842 0.53166 0.0
H724 H 0.45588 0.09886 0.51642 0.0
H725 H 0.41033 0.10527 0.50368 0.0
C726 C 0.57215 0.43402 0.49122 0.0
C727 C 0.57485 0.46319 0.51759 0.0
C728 C 0.63234 0.43914 0.54201 0.0
C729 C 0.63182 0.41259 0.51292 0.0
N730 N 0.60421 0.38868 0.45603 0.0
N731 N 0.60969 0.49679 0.56507 0.0
C732 C 0.6024 0.41089 0.48658 0.0
C733 C 0.60553 0.46663 0.54225 0.0
N734 N 0.54039 0.42802 0.47104 0.0
N735 N 0.65766 0.43731 0.57013 0.0
H736 H 0.59052 0.51735 0.56627 0.0
H737 H 0.63347 0.50291 0.58065 0.0
H738 H 0.67727 0.41716 0.57129 0.0
H739 H 0.65709 0.45354 0.59395 0.0
H740 H 0.53533 0.40488 0.45423 0.0
H741 H 0.51771 0.44449 0.4736 0.0
H742 H 0.58552 0.38933 0.43401 0.0
H743 H 0.62624 0.37198 0.45094 0.0
C744 C 0.73613 0.30263 0.32298 0.0
C745 C 0.71163 0.27188 0.32207 0.0
C746 C 0.70095 0.28026 0.38767 0.0
C747 C 0.72653 0.31016 0.38884 0.0
N748 N 0.76089 0.356 0.35723 0.0
N749 N 0.66394 0.23668 0.35027 0.0
C750 C 0.74158 0.3234 0.35621 0.0
C751 C 0.69166 0.26256 0.35341 0.0
N752 N 0.75529 0.31092 0.29254 0.0
N753 N 0.68732 0.26746 0.41953 0.0
H754 H 0.65684 0.22289 0.32562 0.0
H755 H 0.64601 0.231 0.37114 0.0
H756 H 0.69272 0.2804 0.44496 0.0
H757 H 0.6722 0.24304 0.42117 0.0
H758 H 0.77671 0.33027 0.2925 0.0
H759 H 0.75101 0.29696 0.26744 0.0
H760 H 0.77006 0.36895 0.33402 0.0
H761 H 0.76485 0.37185 0.38128 0.0
C762 C 0.52859 0.02717 0.94675 0.0
C763 C 0.49767 0.04642 0.93432 0.0
C764 C 0.51623 0.03916 0.87072 0.0
C765 C 0.54735 0.02017 0.88318 0.0
N766 N 0.58766 0.00255 0.93253 0.0
N767 N 0.46528 0.07718 0.8862 0.0
C768 C 0.55491 0.01617 0.92113 0.0
C769 C 0.49263 0.05461 0.8968 0.0
N770 N 0.53215 0.01852 0.98287 0.0
N771 N 0.50809 0.04058 0.83399 0.0
H772 H 0.44672 0.08802 0.90441 0.0
H773 H 0.46259 0.08748 0.85998 0.0
H774 H 0.52488 0.03 0.81395 0.0
H775 H 0.48353 0.05003 0.82326 0.0
H776 H 0.55161 0.00084 0.99299 0.0
H777 H 0.51419 0.02743 0.00268 0.0
H778 H 0.59651 0.00209 0.95984 0.0
H779 H 0.60757 0.99451 0.91431 0.0
C780 C 0.33667 0.26306 0.41431 0.0
C781 C 0.34627 0.25973 0.37703 0.0
C782 C 0.35565 0.19475 0.38617 0.0
C783 C 0.33622 0.19639 0.41918 0.0
N784 N 0.30218 0.23441 0.46133 0.0
N785 N 0.35647 0.21802 0.3255 0.0
C786 C 0.32536 0.23121 0.43284 0.0
C787 C 0.35385 0.22443 0.36229 0.0
N788 N 0.33812 0.29645 0.43196 0.0
N789 N 0.37605 0.1652 0.37756 0.0
H790 H 0.35113 0.23756 0.30606 0.0
H791 H 0.35929 0.19177 0.31423 0.0
H792 H 0.38053 0.14415 0.39579 0.0
H793 H 0.39227 0.16432 0.35452 0.0
H794 H 0.33382 0.2996 0.45996 0.0
H795 H 0.3477 0.3201 0.4195 0.0
H796 H 0.29168 0.25946 0.46952 0.0
H797 H 0.28975 0.21232 0.47389 0.0
C798 C 0.50037 0.49327 0.85475 0.0
C799 C 0.50438 0.51881 0.88451 0.0
C800 C 0.45074 0.55109 0.86202 0.0
C801 C 0.44345 0.52224 0.83589 0.0
N802 N 0.45951 0.4641 0.80877 0.0
N803 N 0.48344 0.57151 0.91792 0.0
C804 C 0.46808 0.49311 0.83215 0.0
C805 C 0.47983 0.5479 0.88832 0.0
N806 N 0.52748 0.46912 0.84827 0.0
N807 N 0.4302 0.58175 0.86116 0.0
H808 H 0.50516 0.57073 0.93702 0.0
H809 H 0.46392 0.59053 0.92475 0.0
H810 H 0.40895 0.58498 0.84192 0.0
H811 H 0.43619 0.60523 0.87717 0.0
H812 H 0.52797 0.45219 0.82495 0.0
H813 H 0.55129 0.4684 0.86465 0.0
H814 H 0.47416 0.4401 0.80807 0.0
H815 H 0.43606 0.46268 0.79183 0.0
C816 C 0.72927 0.71287 0.1264 0.0
C817 C 0.74714 0.71299 0.16139 0.0
C818 C 0.78754 0.66494 0.14022 0.0
C819 C 0.7676 0.66282 0.10625 0.0
N820 N 0.71424 0.67865 0.07019 0.0
N821 N 0.78903 0.68547 0.20399 0.0
C822 C 0.73694 0.68505 0.10023 0.0
C823 C 0.77505 0.68789 0.16905 0.0
N824 N 0.70583 0.74006 0.11771 0.0
N825 N 0.81927 0.64639 0.14441 0.0
H826 H 0.7807 0.70213 0.22564 0.0
H827 H 0.8066 0.66507 0.21212 0.0
H828 H 0.82949 0.62954 0.12387 0.0
H829 H 0.83705 0.65 0.16708 0.0
H830 H 0.69516 0.74356 0.09132 0.0
H831 H 0.69964 0.76123 0.13599 0.0
H832 H 0.68942 0.69153 0.06639 0.0
H833 H 0.71823 0.65772 0.05088 0.0
C834 C 0.933 0.98766 0.08264 0.0
C835 C 0.95969 0.01664 0.08379 0.0
C836 C 0.9322 0.04276 0.13862 0.0
C837 C 0.90831 0.01157 0.13998 0.0
N838 N 0.89011 0.95114 0.11667 0.0
N839 N 0.98885 0.06838 0.11628 0.0
C840 C 0.90967 0.98316 0.11281 0.0
C841 C 0.96046 0.04328 0.11274 0.0
N842 N 0.9293 0.965 0.05234 0.0
N843 N 0.92702 0.07254 0.16109 0.0
H844 H 0.01032 0.06947 0.09811 0.0
H845 H 0.99289 0.08591 0.13905 0.0
H846 H 0.90591 0.07371 0.17965 0.0
H847 H 0.94122 0.09743 0.15871 0.0
H848 H 0.90779 0.94591 0.04827 0.0
H849 H 0.94588 0.96744 0.02971 0.0
H850 H 0.89318 0.92804 0.09988 0.0
H851 H 0.87321 0.94638 0.13864 0.0
C852 C 0.29136 0.76032 0.1427 0.0
C853 C 0.25901 0.75655 0.1629 0.0
C854 C 0.22687 0.79236 0.11661 0.0
C855 C 0.26078 0.80069 0.10001 0.0
N856 N 0.32692 0.80218 0.10751 0.0
N857 N 0.1977 0.77696 0.1731 0.0
C858 C 0.29356 0.78757 0.11612 0.0
C859 C 0.22717 0.77494 0.15111 0.0
N860 N 0.31969 0.73724 0.14787 0.0
N861 N 0.19439 0.79916 0.09906 0.0
H862 H 0.19738 0.76598 0.19917 0.0
H863 H 0.17524 0.79288 0.16696 0.0
H864 H 0.19254 0.80965 0.07286 0.0
H865 H 0.16923 0.79047 0.10894 0.0
H866 H 0.34265 0.7377 0.13157 0.0
H867 H 0.31828 0.715 0.16518 0.0
H868 H 0.35116 0.79482 0.12079 0.0
H869 H 0.32989 0.82493 0.09107 0.0
C870 C 0.06651 0.44869 0.13169 0.0
C871 C 0.02892 0.43814 0.12852 0.0
C872 C 0.02575 0.43567 0.19509 0.0
C873 C 0.06414 0.44238 0.19821 0.0
N874 N 0.12236 0.44772 0.16882 0.0
N875 N 0.97492 0.41317 0.15635 0.0
C876 C 0.08498 0.4468 0.16631 0.0
C877 C 0.00922 0.42896 0.15999 0.0
N878 N 0.08424 0.4617 0.10206 0.0
N879 N 0.00467 0.4377 0.22537 0.0
H880 H 0.96207 0.40716 0.13094 0.0
H881 H 0.96086 0.40268 0.17835 0.0
H882 H 0.01529 0.44456 0.25152 0.0
H883 H 0.97617 0.43661 0.2239 0.0
H884 H 0.11053 0.47346 0.10383 0.0
H885 H 0.07156 0.46369 0.07626 0.0
H886 H 0.1388 0.44726 0.146 0.0
H887 H 0.137 0.44526 0.19352 0.0
C888 C 0.32931 0.74763 0.3059 0.0
C889 C 0.32669 0.72204 0.27607 0.0
C890 C 0.39252 0.7113 0.28165 0.0
C891 C 0.39519 0.73716 0.31128 0.0
N892 N 0.36613 0.77404 0.3569 0.0
N893 N 0.35338 0.67416 0.23981 0.0
C894 C 0.36348 0.75348 0.32508 0.0
C895 C 0.35756 0.70199 0.26548 0.0
N896 N 0.29938 0.76712 0.31503 0.0
N897 N 0.42364 0.69727 0.26765 0.0
H898 H 0.32849 0.6674 0.22634 0.0
H899 H 0.37381 0.6559 0.23372 0.0
H900 H 0.44967 0.7028 0.27923 0.0
H901 H 0.42413 0.68192 0.24329 0.0
H902 H 0.30029 0.78923 0.33358 0.0
H903 H 0.2736 0.76227 0.30256 0.0
H904 H 0.34369 0.78407 0.37042 0.0
H905 H 0.39082 0.77856 0.37159 0.0
C906 C 0.00455 0.34853 0.00519 0.0
C907 C 0.00184 0.3869 0.00081 0.0
C908 C -0.00086 0.37692 0.93471 0.0
C909 C 0.00821 0.33957 0.93862 0.0
N910 N 0.03035 0.2936 0.98015 0.0
N911 N 0.01044 0.4376 0.96023 0.0
C912 C 0.01417 0.32629 0.97462 0.0
C913 C 0.00386 0.40113 0.9652 0.0
N914 N 0.99655 0.33289 0.03764 0.0
N915 N 0.98346 0.38918 0.90309 0.0
H916 H 0.01644 0.45604 0.98199 0.0
H917 H 0.01417 0.4483 0.93434 0.0
H918 H 0.97389 0.37174 0.8817 0.0
H919 H 0.97484 0.41601 0.90067 0.0
H920 H 0.99538 0.3046 0.04071 0.0
H921 H 0.98712 0.34773 0.06003 0.0
H922 H 0.03717 0.28455 0.00626 0.0
H923 H 0.04139 0.278 0.95917 0.0
C924 C 0.62007 0.75844 0.23069 0.0
C925 C 0.65431 0.75571 0.24946 0.0
C926 C 0.62378 0.75267 0.30817 0.0
C927 C 0.58936 0.75417 0.28932 0.0
N928 N 0.55425 0.74908 0.23245 0.0
N929 N 0.68835 0.7405 0.30422 0.0
C930 C 0.58738 0.75409 0.25044 0.0
C931 C 0.65599 0.74961 0.28765 0.0
N932 N 0.61878 0.76672 0.19439 0.0
N933 N 0.62611 0.75655 0.34551 0.0
H934 H 0.71243 0.7377 0.2899 0.0
H935 H 0.6905 0.73219 0.33125 0.0
H936 H 0.60341 0.75955 0.3618 0.0
H937 H 0.65086 0.75999 0.36019 0.0
H938 H 0.59476 0.77317 0.18028 0.0
H939 H 0.64214 0.76983 0.17894 0.0
H940 H 0.55135 0.74531 0.20415 0.0
H941 H 0.52988 0.745 0.24616 0.0
C942 C 0.99164 0.07666 0.9411 0.0
C943 C 0.00813 0.08249 0.97648 0.0
C944 C 0.01268 0.14858 0.9665 0.0
C945 C 0.99818 0.14253 0.93028 0.0
N946 N 0.98026 0.10052 0.88059 0.0
N947 N 0.04034 0.12246 0.02071 0.0
C948 C 0.98942 0.10645 0.91686 0.0
C949 C 0.02054 0.11803 0.98849 0.0
N950 N 0.9771 0.04288 0.93111 0.0
N951 N 0.01721 0.18351 0.98055 0.0
H952 H 0.04626 0.10074 0.0377 0.0
H953 H 0.05354 0.14698 0.02911 0.0
H954 H 0.01134 0.20665 0.96557 0.0
H955 H 0.02378 0.18962 0.00799 0.0
H956 H 0.96094 0.03786 0.90748 0.0
H957 H 0.97896 0.02021 0.94778 0.0
H958 H 0.97736 0.07457 0.86826 0.0
H959 H 0.97871 0.1216 0.86193 0.0
C960 C 0.41698 0.34896 0.26183 0.0
C961 C 0.38684 0.32465 0.26717 0.0
C962 C 0.39462 0.29612 0.20677 0.0
C963 C 0.42157 0.32328 0.19952 0.0
N964 N 0.4575 0.3771 0.21835 0.0
N965 N 0.34286 0.27908 0.24258 0.0
C966 C 0.43281 0.35004 0.22667 0.0
C967 C 0.37457 0.29924 0.23909 0.0
N968 N 0.43044 0.37066 0.29039 0.0
N969 N 0.38898 0.26659 0.18328 0.0
H970 H 0.32716 0.28013 0.26587 0.0
H971 H 0.3304 0.26358 0.22112 0.0
H972 H 0.40357 0.26288 0.1594 0.0
H973 H 0.37255 0.24392 0.18932 0.0
H974 H 0.45446 0.38651 0.28943 0.0
H975 H 0.41885 0.37077 0.31617 0.0
H976 H 0.46409 0.39959 0.23557 0.0
H977 H 0.46981 0.37831 0.19297 0.0
C978 C 0.54602 0.41252 0.98696 0.0
C979 C 0.53751 0.44941 0.99518 0.0
C980 C 0.50878 0.43102 0.05183 0.0
C981 C 0.51341 0.39388 0.04134 0.0
N982 N 0.53394 0.34829 0.99833 0.0
N983 N 0.50965 0.49451 0.03383 0.0
C984 C 0.53178 0.38431 0.00896 0.0
C985 C 0.51878 0.45894 0.02735 0.0
N986 N 0.56783 0.40458 0.95817 0.0
N987 N 0.49548 0.43944 0.08553 0.0
H988 H 0.51772 0.51585 0.01715 0.0
H989 H 0.49237 0.50272 0.05444 0.0
H990 H 0.48803 0.41948 0.10407 0.0
H991 H 0.49463 0.46596 0.09646 0.0
H992 H 0.57842 0.37887 0.95313 0.0
H993 H 0.57764 0.4244 0.94061 0.0
H994 H 0.54292 0.33957 0.97286 0.0
H995 H 0.52457 0.32679 0.01414 0.0
C996 C 0.66446 0.25588 0.17182 0.0
C997 C 0.65373 0.23369 0.20118 0.0
C998 C 0.59156 0.2276 0.1747 0.0
C999 C 0.60099 0.25382 0.14834 0.0
N1000 N 0.64539 0.29471 0.12223 0.0
N1001 N 0.60702 0.20006 0.2326 0.0
C1002 C 0.63731 0.26815 0.14666 0.0
C1003 C 0.6173 0.21972 0.20305 0.0
N1004 N 0.70065 0.26494 0.16795 0.0
N1005 N 0.55824 0.20962 0.172 0.0
H1006 H 0.62536 0.19285 0.25343 0.0
H1007 H 0.57994 0.1929 0.23779 0.0
H1008 H 0.5389 0.21443 0.15123 0.0
H1009 H 0.55102 0.18763 0.18812 0.0
H1010 H 0.71082 0.27795 0.1452 0.0
H1011 H 0.72112 0.2568 0.18625 0.0
H1012 H 0.6702 0.30938 0.12242 0.0
H1013 H 0.62632 0.30382 0.10297 0.0
C1014 C 0.43634 0.16787 0.99743 0.0
C1015 C 0.44347 0.13734 0.01946 0.0
C1016 C 0.4529 0.17804 0.07335 0.0
C1017 C 0.45027 0.20874 0.05043 0.0
N1018 N 0.44613 0.23287 0.98952 0.0
N1019 N 0.46406 0.11322 0.07714 0.0
C1020 C 0.44364 0.20371 0.01213 0.0
C1021 C 0.45325 0.14234 0.05713 0.0
N1022 N 0.42188 0.16262 0.9627 0.0
N1023 N 0.45357 0.18284 0.11062 0.0
H1024 H 0.46456 0.08658 0.06629 0.0
H1025 H 0.47542 0.11596 0.10358 0.0
H1026 H 0.4523 0.20846 0.12366 0.0
H1027 H 0.45173 0.16122 0.12858 0.0
H1028 H 0.41263 0.18389 0.94674 0.0
H1029 H 0.41586 0.13669 0.95109 0.0
H1030 H 0.44538 0.23016 0.96105 0.0
H1031 H 0.45259 0.25949 -0.00101 0.0
C1032 C 0.30682 0.34635 0.75486 0.0
C1033 C 0.27882 0.34104 0.72741 0.0
C1034 C 0.28127 0.40659 0.71433 0.0
C1035 C 0.30956 0.4118 0.74152 0.0
N1036 N 0.35493 0.38638 0.78187 0.0
N1037 N 0.24391 0.36379 0.67631 0.0
C1038 C 0.32407 0.38153 0.76003 0.0
C1039 C 0.26756 0.37049 0.70556 0.0
N1040 N 0.31607 0.31803 0.77674 0.0
N1041 N 0.26634 0.4363 0.69823 0.0
H1042 H 0.23274 0.33781 0.66965 0.0
H1043 H 0.23748 0.38323 0.657 0.0
H1044 H 0.27613 0.46305 0.70349 0.0
H1045 H 0.24285 0.43486 0.68142 0.0
H1046 H 0.33303 0.32111 0.80005 0.0
H1047 H 0.30497 0.29155 0.7729 0.0
H1048 H 0.36909 0.36495 0.79331 0.0
H1049 H 0.36838 0.41178 0.78599 0.0
C1050 C 0.28267 0.67387 0.75111 0.0
C1051 C 0.2446 0.67044 0.75729 0.0
C1052 C 0.24854 0.60362 0.75403 0.0
C1053 C 0.28727 0.60714 0.75418 0.0
N1054 N 0.34187 0.64595 0.75606 0.0
N1055 N 0.19157 0.63198 0.76865 0.0
C1056 C 0.3046 0.64234 0.75305 0.0
C1057 C 0.22747 0.63527 0.75946 0.0
N1058 N 0.29774 0.70723 0.74303 0.0
N1059 N 0.2319 0.56995 0.74814 0.0
H1060 H 0.17515 0.6544 0.77327 0.0
H1061 H 0.17887 0.6071 0.77472 0.0
H1062 H 0.24661 0.54632 0.74332 0.0
H1063 H 0.20372 0.56604 0.74424 0.0
H1064 H 0.32456 0.71088 0.73471 0.0
H1065 H 0.28238 0.7308 0.74132 0.0
H1066 H 0.35574 0.67109 0.75981 0.0
H1067 H 0.359 0.6237 0.75758 0.0
C1068 C 0.85998 0.49558 0.45933 0.0
C1069 C 0.8888 0.49934 0.48608 0.0
C1070 C 0.86363 0.44726 0.51894 0.0
C1071 C 0.83777 0.4406 0.48968 0.0
N1072 N 0.81266 0.45604 0.43041 0.0
N1073 N 0.9201 0.47824 0.54022 0.0
C1074 C 0.83594 0.46438 0.4596 0.0
C1075 C 0.89105 0.4752 0.51579 0.0
N1076 N 0.8556 0.52198 0.43383 0.0
N1077 N 0.86134 0.42735 0.55004 0.0
H1078 H 0.94006 0.49914 0.53947 0.0
H1079 H 0.92573 0.45888 0.55987 0.0
H1080 H 0.84137 0.40683 0.55327 0.0
H1081 H 0.87704 0.43318 0.57381 0.0
H1082 H 0.83298 0.52288 0.41594 0.0
H1083 H 0.87317 0.54487 0.43251 0.0
H1084 H 0.81309 0.46982 0.40582 0.0
H1085 H 0.79445 0.43354 0.42962 0.0
C1086 C 0.7693 0.9099 0.82352 0.0
C1087 C 0.7657 0.87254 0.83277 0.0
C1088 C 0.70189 0.88276 0.84679 0.0
C1089 C 0.70318 0.91654 0.82855 0.0
N1090 N 0.73936 0.95834 0.79224 0.0
N1091 N 0.72382 0.82155 0.84436 0.0
C1092 C 0.73729 0.92949 0.81518 0.0
C1093 C 0.73074 0.85832 0.84228 0.0
N1094 N 0.80305 0.92671 0.82257 0.0
N1095 N 0.67351 0.87396 0.8687 0.0
H1096 H 0.74262 0.80199 0.83721 0.0
H1097 H 0.69768 0.81061 0.84859 0.0
H1098 H 0.65323 0.8924 0.87508 0.0
H1099 H 0.67303 0.85032 0.88414 0.0
H1100 H 0.80658 0.95471 0.81851 0.0
H1101 H 0.82699 0.91351 0.82998 0.0
H1102 H 0.7636 0.96623 0.77989 0.0
H1103 H 0.71662 0.97135 0.78166 0.0
C1104 C 0.63583 0.574 0.95557 0.0
C1105 C 0.62892 0.53671 0.94538 0.0
C1106 C 0.69458 0.52575 0.94725 0.0
C1107 C 0.70174 0.56371 0.95401 0.0
N1108 N 0.67926 0.62527 0.95682 0.0
N1109 N 0.65156 0.47916 0.9231 0.0
C1110 C 0.67239 0.58829 0.95605 0.0
C1111 C 0.65829 0.51321 0.93858 0.0
N1112 N 0.60771 0.59546 0.9659 0.0
N1113 N 0.72205 0.50137 0.95089 0.0
H1114 H 0.62528 0.4693 0.91561 0.0
H1115 H 0.67221 0.46228 0.91426 0.0
H1116 H 0.74882 0.50916 0.95882 0.0
H1117 H 0.71748 0.47309 0.94988 0.0
H1118 H 0.61171 0.62165 0.97749 0.0
H1119 H 0.58052 0.58602 0.9657 0.0
H1120 H 0.65873 0.64434 0.95457 0.0
H1121 H 0.70555 0.63694 0.95606 0.0
C1122 C 0.18268 0.65728 0.26291 0.0
C1123 C 0.21166 0.6528 0.23839 0.0
C1124 C 0.19235 0.58872 0.22676 0.0
C1125 C 0.16626 0.59201 0.25461 0.0
N1126 N 0.13933 0.62801 0.30258 0.0
N1127 N 0.247 0.61382 0.1996 0.0
C1128 C 0.16188 0.62601 0.27342 0.0
C1129 C 0.21724 0.61841 0.2209 0.0
N1130 N 0.17482 0.69153 0.27581 0.0
N1131 N 0.19246 0.55766 0.20508 0.0
H1132 H 0.26536 0.63513 0.19391 0.0
H1133 H 0.25499 0.5884 0.18969 0.0
H1134 H 0.17422 0.53557 0.20818 0.0
H1135 H 0.20822 0.55508 0.18193 0.0
H1136 H 0.15167 0.69716 0.29066 0.0
H1137 H 0.18982 0.71496 0.26899 0.0
H1138 H 0.13813 0.65095 0.31995 0.0
H1139 H 0.12389 0.60569 0.31143 0.0
C1140 C 0.94754 0.52483 0.02846 0.0
C1141 C 0.935 0.49386 0.04762 0.0
C1142 C 0.87231 0.51571 0.04496 0.0
C1143 C 0.88409 0.54377 0.0215 0.0
N1144 N 0.93208 0.57655 0.99118 0.0
N1145 N 0.88657 0.4589 0.07476 0.0
C1146 C 0.92159 0.54901 0.01365 0.0
C1147 C 0.89773 0.48931 0.05657 0.0
N1148 N 0.98429 0.53105 0.02465 0.0
N1149 N 0.8368 0.51419 0.05574 0.0
H1150 H 0.90479 0.43984 0.08481 0.0
H1151 H 0.85931 0.45147 0.07857 0.0
H1152 H 0.8172 0.53235 0.04674 0.0
H1153 H 0.82715 0.49666 0.07551 0.0
H1154 H 0.99565 0.55481 0.01408 0.0
H1155 H 0.00403 0.51346 0.03457 0.0
H1156 H 0.95804 0.57927 0.98047 0.0
H1157 H 0.91417 0.59627 0.98193 0.0
C1158 C 0.10025 0.97317 0.04988 0.0
C1159 C 0.07173 0.97181 0.02265 0.0
C1160 C 0.10284 0.92301 0.98953 0.0
C1161 C 0.12947 0.92191 0.01858 0.0
N1162 N 0.14947 0.94116 0.07979 0.0
N1163 N 0.04217 0.94108 0.97011 0.0
C1164 C 0.12709 0.94572 0.04972 0.0
C1165 C 0.07193 0.94542 0.99349 0.0
N1166 N 0.10236 0.00134 0.07527 0.0
N1167 N 0.10792 0.9041 0.95739 0.0
H1168 H 0.01901 0.95696 0.9721 0.0
H1169 H 0.03909 0.91964 0.95083 0.0
H1170 H 0.13064 0.88818 0.95285 0.0
H1171 H 0.09147 0.90702 0.93395 0.0
H1172 H 0.1247 0.00599 0.09329 0.0
H1173 H 0.08333 0.02205 0.07622 0.0
H1174 H 0.14641 0.95514 0.10467 0.0
H1175 H 0.16888 0.92083 0.08113 0.0
loop_
_geom_bond_atom_site_label_1
_geom_bond_atom_site_label_2
_geom_bond_distance
_geom_bond_site_symmetry_2
_ccdc_geom_bond_type
H0 C3 0.931 1_655 S
H1 C6 0.928 1_565 S
H2 C8 0.930 1_556 S
C3 H0 0.931 1_455 S
C3 C4 1.413 . S
C3 C5 1.360 . S
C4 C3 1.413 . S
C4 C8 1.429 . S
C5 C3 1.360 . S
C5 C6 1.372 . S
C6 H1 0.928 1_545 S
C6 C5 1.372 . S
C6 C7 1.404 . S
C7 C6 1.404 . S
C7 C8 1.391 . S
C8 H2 0.930 1_554 S
C8 C4 1.429 . S
C8 C7 1.391 . S
H9 C12 0.931 . S
H10 C15 0.928 . S
H11 C17 0.930 . S
C12 H9 0.931 . S
C12 C13 1.413 . S
C12 C14 1.360 . S
C13 C12 1.413 . S
C13 C17 1.429 . S
C14 C12 1.360 . S
C14 C15 1.372 . S
C15 H10 0.928 . S
C15 C14 1.372 . S
C15 C16 1.404 . S
C16 C15 1.404 . S
C16 C17 1.391 . S
C17 H11 0.930 . S
C17 C13 1.429 . S
C17 C16 1.391 . S
H18 C21 0.931 . S
H19 C24 0.928 1_455 S
H20 C26 0.930 . S
C21 H18 0.931 . S
C21 C22 1.413 . S
C21 C23 1.360 . S
C22 C21 1.413 . S
C22 C26 1.429 . S
C23 C21 1.360 . S
C23 C24 1.372 . S
C24 H19 0.928 1_655 S
C24 C23 1.372 . S
C24 C25 1.404 . S
C25 C24 1.404 . S
C25 C26 1.391 . S
C26 H20 0.930 . S
C26 C22 1.429 . S
C26 C25 1.391 . S
H27 C30 0.931 . S
H28 C33 0.928 . S
H29 C35 0.930 . S
C30 H27 0.931 . S
C30 C31 1.413 . S
C30 C32 1.360 . S
C31 C30 1.413 . S
C31 C35 1.429 . S
C32 C30 1.360 . S
C32 C33 1.372 . S
C33 H28 0.928 . S
C33 C32 1.372 . S
C33 C34 1.404 . S
C34 C33 1.404 . S
C34 C35 1.391 . S
C35 H29 0.930 . S
C35 C31 1.429 . S
C35 C34 1.391 . S
H36 C39 0.931 . S
H37 C42 0.953 . S
H38 C44 0.930 . S
C39 H36 0.931 . S
C39 C40 1.413 . S
C39 C41 1.360 . S
C40 C39 1.413 . S
C40 C44 1.429 . S
C41 C39 1.360 . S
C41 C42 1.372 . S
C42 H37 0.953 . S
C42 C41 1.372 . S
C42 C43 1.404 . S
C43 C42 1.404 . S
C43 C44 1.391 . S
C44 H38 0.930 . S
C44 C40 1.429 . S
C44 C43 1.391 . S
H45 C48 0.931 . S
H46 C51 0.928 . S
H47 C53 0.930 . S
C48 H45 0.931 . S
C48 C49 1.413 . S
C48 C50 1.360 . S
C49 C48 1.413 . S
C49 C53 1.429 . S
C50 C48 1.360 . S
C50 C51 1.372 . S
C51 H46 0.928 . S
C51 C50 1.372 . S
C51 C52 1.404 . S
C52 C51 1.404 . S
C52 C53 1.391 . S
C53 H47 0.930 . S
C53 C49 1.429 . S
C53 C52 1.391 . S
H54 C57 0.931 . S
H55 C60 0.928 1_455 S
H56 C62 0.930 . S
C57 H54 0.931 . S
C57 C58 1.413 . S
C57 C59 1.360 . S
C58 C57 1.413 . S
C58 C62 1.429 . S
C59 C57 1.360 . S
C59 C60 1.372 . S
C60 H55 0.928 1_655 S
C60 C59 1.372 . S
C60 C61 1.404 . S
C61 C60 1.404 . S
C61 C62 1.391 . S
C62 H56 0.930 . S
C62 C58 1.429 . S
C62 C61 1.391 . S
H63 C66 0.931 . S
H64 C69 0.928 . S
H65 C71 0.930 . S
C66 H63 0.931 . S
C66 C67 1.413 . S
C66 C68 1.360 . S
C67 C66 1.413 . S
C67 C71 1.429 . S
C68 C66 1.360 . S
C68 C69 1.372 . S
C69 H64 0.928 . S
C69 C68 1.372 . S
C69 C70 1.404 . S
C70 C69 1.404 . S
C70 C71 1.391 . S
C71 H65 0.930 . S
C71 C67 1.429 . S
C71 C70 1.391 . S
H72 C75 0.931 . S
H73 C78 0.928 . S
H74 C80 0.930 . S
C75 H72 0.931 . S
C75 C76 1.413 . S
C75 C77 1.360 . S
C76 C75 1.413 . S
C76 C80 1.429 . S
C77 C75 1.360 . S
C77 C78 1.372 . S
C78 H73 0.928 . S
C78 C77 1.372 . S
C78 C79 1.404 . S
C79 C78 1.404 . S
C79 C80 1.391 . S
C80 H74 0.930 . S
C80 C76 1.429 . S
C80 C79 1.391 . S
H81 C84 0.931 1_545 S
H82 C87 0.928 . S
H83 C89 0.930 . S
C84 H81 0.931 1_565 S
C84 C85 1.413 . S
C84 C86 1.360 . S
C85 C84 1.413 . S
C85 C89 1.429 . S
C86 C84 1.360 . S
C86 C87 1.372 . S
C87 H82 0.928 . S
C87 C86 1.372 . S
C87 C88 1.404 . S
C88 C87 1.404 . S
C88 C89 1.391 . S
C89 H83 0.930 . S
C89 C85 1.429 . S
C89 C88 1.391 . S
H90 C93 0.931 . S
H91 C96 0.928 . S
H92 C98 0.930 . S
C93 H90 0.931 . S
C93 C94 1.413 . S
C93 C95 1.360 . S
C94 C93 1.413 . S
C94 C98 1.429 . S
C95 C93 1.360 . S
C95 C96 1.372 . S
C96 H91 0.928 . S
C96 C95 1.372 . S
C96 C97 1.404 . S
C97 C96 1.404 . S
C97 C98 1.391 . S
C98 H92 0.930 . S
C98 C94 1.429 . S
C98 C97 1.391 . S
H99 C102 0.931 . S
H100 C105 0.928 . S
H101 C107 0.930 . S
C102 H99 0.931 . S
C102 C103 1.413 . S
C102 C104 1.360 . S
C103 C102 1.413 . S
C103 C107 1.429 . S
C104 C102 1.360 . S
C104 C105 1.372 . S
C105 H100 0.928 . S
C105 C104 1.372 . S
C105 C106 1.404 . S
C106 C105 1.404 . S
C106 C107 1.391 . S
C107 H101 0.930 . S
C107 C103 1.429 . S
C107 C106 1.391 . S
H108 C111 0.931 . S
H109 C114 0.928 . S
H110 C116 0.930 . S
C111 H108 0.931 . S
C111 C112 1.413 . S
C111 C113 1.360 . S
C112 C111 1.413 . S
C112 C116 1.429 . S
C113 C111 1.360 . S
C113 C114 1.372 . S
C114 H109 0.928 . S
C114 C113 1.372 . S
C114 C115 1.404 . S
C115 C114 1.404 . S
C115 C116 1.391 . S
C116 H110 0.930 . S
C116 C112 1.429 . S
C116 C115 1.391 . S
H117 C120 0.931 . S
H118 C123 0.928 . S
H119 C125 0.930 1_554 S
C120 H117 0.931 . S
C120 C121 1.413 . S
C120 C122 1.360 . S
C121 C120 1.413 . S
C121 C125 1.429 . S
C122 C120 1.360 . S
C122 C123 1.372 . S
C123 H118 0.928 . S
C123 C122 1.372 . S
C123 C124 1.404 . S
C124 C123 1.404 . S
C124 C125 1.391 . S
C125 H119 0.930 1_556 S
C125 C121 1.429 . S
C125 C124 1.391 . S
H126 C129 0.931 . S
H127 C132 0.928 . S
H128 C134 0.930 . S
C129 H126 0.931 . S
C129 C130 1.413 . S
C129 C131 1.360 . S
C130 C129 1.413 . S
C130 C134 1.429 . S
C131 C129 1.360 . S
C131 C132 1.372 . S
C132 H127 0.928 . S
C132 C131 1.372 . S
C132 C133 1.404 . S
C133 C132 1.404 . S
C133 C134 1.391 . S
C134 H128 0.930 . S
C134 C130 1.429 . S
C134 C133 1.391 . S
H135 C138 0.928 . S
H136 C141 0.928 . S
H137 C143 0.930 . S
C138 H135 0.928 . S
C138 C139 1.413 . S
C138 C140 1.360 . S
C139 C138 1.413 . S
C139 C143 1.429 . S
C140 C138 1.360 . S
C140 C141 1.372 . S
C141 H136 0.928 . S
C141 C140 1.372 . S
C141 C142 1.404 . S
C142 C141 1.404 . S
C142 C143 1.391 . S
C143 H137 0.930 . S
C143 C139 1.429 . S
C143 C142 1.391 . S
Zn144 O147 2.031 1_556 S
Zn144 O149 2.049 . S
Zn144 O154 2.067 . S
Zn145 O146 1.962 . S
Zn145 O148 1.986 . S
Zn145 O150 1.996 . S
Zn145 O153 1.943 1_554 S
O146 Zn145 1.962 . S
O146 C151 1.254 . S
O147 Zn144 2.031 1_554 S
O147 C151 1.269 . S
O148 Zn145 1.986 . S
O148 C155 1.262 . S
O149 Zn144 2.049 . S
O149 C157 1.260 . S
O150 Zn145 1.996 . S
O150 C157 1.257 1_554 S
C151 O146 1.254 . S
C151 O147 1.269 . S
C152 O153 1.249 . S
C152 O154 1.270 . S
O153 Zn145 1.943 1_556 S
O153 C152 1.249 . S
O154 Zn144 2.067 . S
O154 C152 1.270 . S
C155 O148 1.262 . S
C155 O156 1.232 . S
O156 C155 1.232 . S
C157 O149 1.260 . S
C157 O150 1.257 1_556 S
Zn158 O161 2.031 . S
Zn158 O163 2.049 . S
Zn158 O168 2.067 . S
Zn159 O160 1.962 . S
Zn159 O162 1.986 . S
Zn159 O164 1.996 . S
Zn159 O167 1.943 . S
O160 Zn159 1.962 . S
O160 C165 1.254 . S
O161 Zn158 2.031 . S
O161 C165 1.269 . S
O162 Zn159 1.986 . S
O162 C169 1.262 . S
O163 Zn158 2.049 . S
O163 C171 1.260 . S
O164 Zn159 1.996 . S
O164 C171 1.257 . S
C165 O160 1.254 . S
C165 O161 1.269 . S
C166 O167 1.249 . S
C166 O168 1.270 . S
O167 Zn159 1.943 . S
O167 C166 1.249 . S
O168 Zn158 2.067 . S
O168 C166 1.270 . S
C169 O162 1.262 . S
C169 O170 1.232 . S
O170 C169 1.232 . S
C171 O163 1.260 . S
C171 O164 1.257 . S
Zn172 O175 2.031 . S
Zn172 O177 2.049 . S
Zn172 O182 2.067 . S
Zn173 O174 1.962 . S
Zn173 O176 1.986 . S
Zn173 O178 1.996 1_554 S
Zn173 O181 1.943 . S
O174 Zn173 1.962 . S
O174 C179 1.254 . S
O175 Zn172 2.031 . S
O175 C179 1.269 1_556 S
O176 Zn173 1.986 . S
O176 C183 1.262 . S
O177 Zn172 2.049 . S
O177 C185 1.260 . S
O178 Zn173 1.996 1_556 S
O178 C185 1.257 . S
C179 O174 1.254 . S
C179 O175 1.269 1_554 S
C180 O181 1.249 1_556 S
C180 O182 1.270 . S
O181 Zn173 1.943 . S
O181 C180 1.249 1_554 S
O182 Zn172 2.067 . S
O182 C180 1.270 . S
C183 O176 1.262 . S
C183 O184 1.232 . S
O184 C183 1.232 . S
C185 O177 1.260 . S
C185 O178 1.257 . S
Zn186 O189 2.030 . S
Zn186 O191 2.050 1_545 S
Zn186 O196 2.069 1_545 S
Zn187 O188 1.962 . S
Zn187 O190 1.986 . S
Zn187 O192 1.996 . S
Zn187 O195 1.943 1_545 S
O188 Zn187 1.962 . S
O188 C193 1.254 . S
O189 Zn186 2.030 . S
O189 C193 1.269 . S
O190 Zn187 1.986 . S
O190 C197 1.262 . S
O191 Zn186 2.050 1_565 S
O191 C199 1.260 . S
O192 Zn187 1.996 . S
O192 C199 1.257 1_545 S
C193 O188 1.254 . S
C193 O189 1.269 . S
C194 O195 1.249 . S
C194 O196 1.270 . S
O195 Zn187 1.943 1_565 S
O195 C194 1.249 . S
O196 Zn186 2.069 1_565 S
O196 C194 1.270 . S
C197 O190 1.262 . S
C197 O198 1.232 . S
O198 C197 1.232 . S
C199 O191 1.260 . S
C199 O192 1.257 1_565 S
Zn200 O203 2.031 . S
Zn200 O205 2.049 . S
Zn200 O210 2.067 . S
Zn201 O202 1.962 . S
Zn201 O204 1.986 . S
Zn201 O206 1.996 . S
Zn201 O209 1.943 . S
O202 Zn201 1.962 . S
O202 C207 1.254 . S
O203 Zn200 2.031 . S
O203 C207 1.269 . S
O204 Zn201 1.986 . S
O204 C211 1.262 . S
O205 Zn200 2.049 . S
O205 C213 1.260 . S
O206 Zn201 1.996 . S
O206 C213 1.257 . S
C207 O202 1.254 . S
C207 O203 1.269 . S
C208 O209 1.249 . S
C208 O210 1.270 . S
O209 Zn201 1.943 . S
O209 C208 1.249 . S
O210 Zn200 2.067 . S
O210 C208 1.270 . S
C211 O204 1.262 . S
C211 O212 1.232 . S
O212 C211 1.232 . S
C213 O205 1.260 . S
C213 O206 1.257 . S
Zn214 O217 2.031 . S
Zn214 O219 2.049 . S
Zn214 O224 2.067 . S
Zn215 O216 1.962 . S
Zn215 O218 1.986 . S
Zn215 O220 1.996 . S
Zn215 O223 1.943 . S
O216 Zn215 1.962 . S
O216 C221 1.254 . S
O217 Zn214 2.031 . S
O217 C221 1.269 . S
O218 Zn215 1.986 . S
O218 C225 1.262 . S
O219 Zn214 2.049 . S
O219 C227 1.260 . S
O220 Zn215 1.996 . S
O220 C227 1.257 . S
C221 O216 1.254 . S
C221 O217 1.269 . S
C222 O223 1.249 . S
C222 O224 1.270 . S
O223 Zn215 1.943 . S
O223 C222 1.249 . S
O224 Zn214 2.067 . S
O224 C222 1.270 . S
C225 O218 1.262 . S
C225 O226 1.232 . S
O226 C225 1.232 . S
C227 O219 1.260 . S
C227 O220 1.257 . S
Zn228 O231 2.031 . S
Zn228 O233 2.049 . S
Zn228 O238 2.067 . S
Zn229 O230 1.962 . S
Zn229 O232 1.986 . S
Zn229 O234 1.996 . S
Zn229 O237 1.943 . S
O230 Zn229 1.962 . S
O230 C235 1.254 . S
O231 Zn228 2.031 . S
O231 C235 1.269 . S
O232 Zn229 1.986 . S
O232 C239 1.262 . S
O233 Zn228 2.049 . S
O233 C241 1.260 . S
O234 Zn229 1.996 . S
O234 C241 1.257 . S
C235 O230 1.254 . S
C235 O231 1.269 . S
C236 O237 1.249 . S
C236 O238 1.270 . S
O237 Zn229 1.943 . S
O237 C236 1.249 . S
O238 Zn228 2.067 . S
O238 C236 1.270 . S
C239 O232 1.262 . S
C239 O240 1.232 . S
O240 C239 1.232 . S
C241 O233 1.260 . S
C241 O234 1.257 . S
Zn242 O245 2.031 . S
Zn242 O247 2.049 . S
Zn242 O252 2.067 . S
Zn243 O244 1.962 . S
Zn243 O246 1.986 . S
Zn243 O248 1.996 1_545 S
Zn243 O251 1.943 . S
O244 Zn243 1.962 . S
O244 C249 1.254 . S
O245 Zn242 2.031 . S
O245 C249 1.269 1_565 S
O246 Zn243 1.986 . S
O246 C253 1.262 . S
O247 Zn242 2.049 . S
O247 C255 1.260 . S
O248 Zn243 1.996 1_565 S
O248 C255 1.257 . S
C249 O244 1.254 . S
C249 O245 1.269 1_545 S
C250 O251 1.249 1_565 S
C250 O252 1.270 . S
O251 Zn243 1.943 . S
O251 C250 1.249 1_545 S
O252 Zn242 2.067 . S
O252 C250 1.270 . S
C253 O246 1.262 . S
C253 O254 1.232 . S
O254 C253 1.232 . S
C255 O247 1.260 . S
C255 O248 1.257 . S
Zn256 O259 2.027 1_655 S
Zn256 O261 2.052 . S
Zn256 O266 2.073 . S
Zn257 O258 1.962 . S
Zn257 O260 1.986 . S
Zn257 O262 1.996 . S
Zn257 O265 1.943 1_455 S
O258 Zn257 1.962 . S
O258 C263 1.254 . S
O259 Zn256 2.027 1_455 S
O259 C263 1.269 . S
O260 Zn257 1.986 . S
O260 C267 1.262 . S
O261 Zn256 2.052 . S
O261 C269 1.260 . S
O262 Zn257 1.996 . S
O262 C269 1.257 1_455 S
C263 O258 1.254 . S
C263 O259 1.269 . S
C264 O265 1.249 . S
C264 O266 1.270 . S
O265 Zn257 1.943 1_655 S
O265 C264 1.249 . S
O266 Zn256 2.073 . S
O266 C264 1.270 . S
C267 O260 1.262 . S
C267 O268 1.232 . S
O268 C267 1.232 . S
C269 O261 1.260 . S
C269 O262 1.257 1_655 S
Zn270 O273 2.031 . S
Zn270 O275 2.049 . S
Zn270 O280 2.067 . S
Zn271 O272 1.962 . S
Zn271 O274 1.986 . S
Zn271 O276 1.996 . S
Zn271 O279 1.943 . S
O272 Zn271 1.962 . S
O272 C277 1.254 . S
O273 Zn270 2.031 . S
O273 C277 1.269 . S
O274 Zn271 1.986 . S
O274 C281 1.262 . S
O275 Zn270 2.049 . S
O275 C283 1.260 . S
O276 Zn271 1.996 . S
O276 C283 1.257 . S
C277 O272 1.254 . S
C277 O273 1.269 . S
C278 O279 1.249 . S
C278 O280 1.270 . S
O279 Zn271 1.943 . S
O279 C278 1.249 . S
O280 Zn270 2.067 . S
O280 C278 1.270 . S
C281 O274 1.262 . S
C281 O282 1.232 . S
O282 C281 1.232 . S
C283 O275 1.260 . S
C283 O276 1.257 . S
Zn284 O287 2.031 . S
Zn284 O289 2.049 . S
Zn284 O294 2.067 . S
Zn285 O286 1.962 . S
Zn285 O288 1.986 . S
Zn285 O290 1.996 1_455 S
Zn285 O293 1.943 . S
O286 Zn285 1.962 . S
O286 C291 1.254 . S
O287 Zn284 2.031 . S
O287 C291 1.269 1_655 S
O288 Zn285 1.986 . S
O288 C295 1.262 . S
O289 Zn284 2.049 . S
O289 C297 1.260 . S
O290 Zn285 1.996 1_655 S
O290 C297 1.257 . S
C291 O286 1.254 . S
C291 O287 1.269 1_455 S
C292 O293 1.249 1_655 S
C292 O294 1.270 . S
O293 Zn285 1.943 . S
O293 C292 1.249 1_455 S
O294 Zn284 2.067 . S
O294 C292 1.270 . S
C295 O288 1.262 . S
C295 O296 1.232 . S
O296 C295 1.232 . S
C297 O289 1.260 . S
C297 O290 1.257 . S
Zn298 O301 2.031 . S
Zn298 O303 2.049 . S
Zn298 O308 2.067 . S
Zn299 O300 1.962 . S
Zn299 O302 1.986 . S
Zn299 O304 1.996 . S
Zn299 O307 1.943 . S
O300 Zn299 1.962 . S
O300 C305 1.254 . S
O301 Zn298 2.031 . S
O301 C305 1.269 . S
O302 Zn299 1.986 . S
O302 C309 1.262 . S
O303 Zn298 2.049 . S
O303 C311 1.260 . S
O304 Zn299 1.996 . S
O304 C311 1.257 . S
C305 O300 1.254 . S
C305 O301 1.269 . S
C306 O307 1.249 . S
C306 O308 1.270 . S
O307 Zn299 1.943 . S
O307 C306 1.249 . S
O308 Zn298 2.067 . S
O308 C306 1.270 . S
C309 O302 1.262 . S
C309 O310 1.232 . S
O310 C309 1.232 . S
C311 O303 1.260 . S
C311 O304 1.257 . S
C312 C313 1.363 . S
C312 C318 1.379 . S
C312 N320 1.356 . S
C313 C312 1.363 . S
C313 C319 1.363 . S
C314 C315 1.363 . S
C314 C319 1.379 . S
C314 N321 1.356 . S
C315 C314 1.363 . S
C315 C318 1.363 . S
N316 C318 1.356 . S
N316 H328 0.984 . S
N316 H329 0.985 . S
N317 C319 1.356 . S
N317 H322 0.984 . S
N317 H323 0.985 . S
C318 C312 1.379 . S
C318 C315 1.363 . S
C318 N316 1.356 . S
C319 C313 1.363 . S
C319 C314 1.379 . S
C319 N317 1.356 . S
N320 C312 1.356 . S
N320 H326 0.984 . S
N320 H327 0.984 . S
N321 C314 1.356 . S
N321 H324 0.984 . S
N321 H325 0.985 . S
H322 N317 0.984 . S
H323 N317 0.985 . S
H324 N321 0.984 . S
H325 N321 0.985 . S
H326 N320 0.984 . S
H327 N320 0.984 . S
H328 N316 0.984 . S
H329 N316 0.985 . S
C330 C331 1.363 . S
C330 C336 1.379 . S
C330 N338 1.356 1_455 S
C331 C330 1.363 . S
C331 C337 1.363 . S
C332 C333 1.363 . S
C332 C337 1.379 . S
C332 N339 1.356 . S
C333 C332 1.363 . S
C333 C336 1.363 . S
N334 C336 1.356 . S
N334 H346 0.984 . S
N334 H347 0.985 . S
N335 C337 1.356 . S
N335 H340 0.984 . S
N335 H341 0.985 . S
C336 C330 1.379 . S
C336 C333 1.363 . S
C336 N334 1.356 . S
C337 C331 1.363 . S
C337 C332 1.379 . S
C337 N335 1.356 . S
N338 C330 1.356 1_655 S
N338 H344 0.984 . S
N338 H345 0.984 . S
N339 C332 1.356 . S
N339 H342 0.984 . S
N339 H343 0.985 . S
H340 N335 0.984 . S
H341 N335 0.985 . S
H342 N339 0.984 . S
H343 N339 0.985 . S
H344 N338 0.984 . S
H345 N338 0.984 . S
H346 N334 0.984 . S
H347 N334 0.985 . S
C348 C349 1.363 . S
C348 C354 1.379 . S
C348 N356 1.356 . S
C349 C348 1.363 . S
C349 C355 1.363 . S
C350 C351 1.363 . S
C350 C355 1.379 . S
C350 N357 1.356 . S
C351 C350 1.363 . S
C351 C354 1.363 . S
N352 C354 1.356 . S
N352 H364 0.984 . S
N352 H365 0.985 . S
N353 C355 1.356 . S
N353 H358 0.984 . S
N353 H359 0.985 . S
C354 C348 1.379 . S
C354 C351 1.363 . S
C354 N352 1.356 . S
C355 C349 1.363 . S
C355 C350 1.379 . S
C355 N353 1.356 . S
N356 C348 1.356 . S
N356 H362 0.984 . S
N356 H363 0.984 . S
N357 C350 1.356 . S
N357 H360 0.984 . S
N357 H361 0.985 . S
H358 N353 0.984 . S
H359 N353 0.985 . S
H360 N357 0.984 . S
H361 N357 0.985 . S
H362 N356 0.984 . S
H363 N356 0.984 . S
H364 N352 0.984 . S
H365 N352 0.985 . S
C366 C367 1.363 . S
C366 C372 1.379 1_455 S
C366 N374 1.356 . S
C367 C366 1.363 . S
C367 C373 1.363 1_455 S
C368 C369 1.363 . S
C368 C373 1.379 . S
C368 N375 1.356 1_565 S
C369 C368 1.363 . S
C369 C372 1.363 . S
N370 C372 1.356 . S
N370 H382 0.984 . S
N370 H383 0.985 . S
N371 C373 1.356 . S
N371 H376 0.984 1_655 S
N371 H377 0.985 1_565 S
C372 C366 1.379 1_655 S
C372 C369 1.363 . S
C372 N370 1.356 . S
C373 C367 1.363 1_655 S
C373 C368 1.379 . S
C373 N371 1.356 . S
N374 C366 1.356 . S
N374 H380 0.984 . S
N374 H381 0.984 . S
N375 C368 1.356 1_545 S
N375 H378 0.984 . S
N375 H379 0.985 . S
H376 N371 0.984 1_455 S
H377 N371 0.985 1_545 S
H378 N375 0.984 . S
H379 N375 0.985 . S
H380 N374 0.984 . S
H381 N374 0.984 . S
H382 N370 0.984 . S
H383 N370 0.985 . S
C384 C385 1.363 . S
C384 C390 1.379 . S
C384 N392 1.356 . S
C385 C384 1.363 . S
C385 C391 1.363 . S
C386 C387 1.363 . S
C386 C391 1.379 . S
C386 N393 1.356 . S
C387 C386 1.363 . S
C387 C390 1.363 . S
N388 C390 1.356 . S
N388 H400 0.984 . S
N388 H401 0.985 . S
N389 C391 1.356 . S
N389 H394 0.984 . S
N389 H395 0.985 . S
C390 C384 1.379 . S
C390 C387 1.363 . S
C390 N388 1.356 . S
C391 C385 1.363 . S
C391 C386 1.379 . S
C391 N389 1.356 . S
N392 C384 1.356 . S
N392 H398 0.984 . S
N392 H399 0.984 . S
N393 C386 1.356 . S
N393 H396 0.984 . S
N393 H397 0.985 . S
H394 N389 0.984 . S
H395 N389 0.985 . S
H396 N393 0.984 . S
H397 N393 0.985 . S
H398 N392 0.984 . S
H399 N392 0.984 . S
H400 N388 0.984 . S
H401 N388 0.985 . S
C402 C403 1.363 . S
C402 C408 1.379 . S
C402 N410 1.356 . S
C403 C402 1.363 . S
C403 C409 1.363 . S
C404 C405 1.363 . S
C404 C409 1.379 . S
C404 N411 1.356 . S
C405 C404 1.363 . S
C405 C408 1.363 . S
N406 C408 1.356 . S
N406 H418 0.984 . S
N406 H419 0.985 . S
N407 C409 1.356 . S
N407 H412 0.984 . S
N407 H413 0.985 . S
C408 C402 1.379 . S
C408 C405 1.363 . S
C408 N406 1.356 . S
C409 C403 1.363 . S
C409 C404 1.379 . S
C409 N407 1.356 . S
N410 C402 1.356 . S
N410 H416 0.984 . S
N410 H417 0.984 . S
N411 C404 1.356 . S
N411 H414 0.984 . S
N411 H415 0.985 . S
H412 N407 0.984 . S
H413 N407 0.985 . S
H414 N411 0.984 . S
H415 N411 0.985 . S
H416 N410 0.984 . S
H417 N410 0.984 . S
H418 N406 0.984 . S
H419 N406 0.985 . S
C420 C421 1.363 . S
C420 C426 1.379 . S
C420 N428 1.356 . S
C421 C420 1.363 . S
C421 C427 1.363 . S
C422 C423 1.363 . S
C422 C427 1.379 . S
C422 N429 1.356 . S
C423 C422 1.363 . S
C423 C426 1.363 . S
N424 C426 1.356 . S
N424 H436 0.984 . S
N424 H437 0.985 . S
N425 C427 1.356 . S
N425 H430 0.984 . S
N425 H431 0.985 . S
C426 C420 1.379 . S
C426 C423 1.363 . S
C426 N424 1.356 . S
C427 C421 1.363 . S
C427 C422 1.379 . S
C427 N425 1.356 . S
N428 C420 1.356 . S
N428 H434 0.984 . S
N428 H435 0.984 . S
N429 C422 1.356 . S
N429 H432 0.984 . S
N429 H433 0.985 . S
H430 N425 0.984 . S
H431 N425 0.985 . S
H432 N429 0.984 . S
H433 N429 0.985 . S
H434 N428 0.984 . S
H435 N428 0.984 . S
H436 N424 0.984 . S
H437 N424 0.985 . S
C438 C439 1.363 1_545 S
C438 C444 1.379 . S
C438 N446 1.356 . S
C439 C438 1.363 1_565 S
C439 C445 1.363 . S
C440 C441 1.363 . S
C440 C445 1.379 . S
C440 N447 1.356 . S
C441 C440 1.363 . S
C441 C444 1.363 1_565 S
N442 C444 1.356 . S
N442 H454 0.984 . S
N442 H455 0.985 . S
N443 C445 1.356 . S
N443 H448 0.984 . S
N443 H449 0.985 . S
C444 C438 1.379 . S
C444 C441 1.363 1_545 S
C444 N442 1.356 . S
C445 C439 1.363 . S
C445 C440 1.379 . S
C445 N443 1.356 . S
N446 C438 1.356 . S
N446 H452 0.984 . S
N446 H453 0.984 . S
N447 C440 1.356 . S
N447 H450 0.984 . S
N447 H451 0.985 . S
H448 N443 0.984 . S
H449 N443 0.985 . S
H450 N447 0.984 . S
H451 N447 0.985 . S
H452 N446 0.984 . S
H453 N446 0.984 . S
H454 N442 0.984 . S
H455 N442 0.985 . S
C456 C457 1.363 . S
C456 C462 1.379 . S
C456 N464 1.356 . S
C457 C456 1.363 . S
C457 C463 1.363 . S
C458 C459 1.363 . S
C458 C463 1.379 . S
C458 N465 1.356 . S
C459 C458 1.363 . S
C459 C462 1.363 . S
N460 C462 1.356 . S
N460 H472 0.984 . S
N460 H473 0.985 . S
N461 C463 1.356 . S
N461 H466 0.984 . S
N461 H467 0.985 . S
C462 C456 1.379 . S
C462 C459 1.363 . S
C462 N460 1.356 . S
C463 C457 1.363 . S
C463 C458 1.379 . S
C463 N461 1.356 . S
N464 C456 1.356 . S
N464 H470 0.984 . S
N464 H471 0.984 . S
N465 C458 1.356 . S
N465 H468 0.984 . S
N465 H469 0.985 . S
H466 N461 0.984 . S
H467 N461 0.985 . S
H468 N465 0.984 . S
H469 N465 0.985 . S
H470 N464 0.984 . S
H471 N464 0.984 . S
H472 N460 0.984 . S
H473 N460 0.985 . S
C474 C475 1.363 . S
C474 C480 1.379 . S
C474 N482 1.356 . S
C475 C474 1.363 . S
C475 C481 1.363 . S
C476 C477 1.363 . S
C476 C481 1.379 . S
C476 N483 1.356 . S
C477 C476 1.363 . S
C477 C480 1.363 . S
N478 C480 1.356 . S
N478 H490 0.984 . S
N478 H491 0.985 . S
N479 C481 1.356 . S
N479 H484 0.984 . S
N479 H485 0.985 . S
C480 C474 1.379 . S
C480 C477 1.363 . S
C480 N478 1.356 . S
C481 C475 1.363 . S
C481 C476 1.379 . S
C481 N479 1.356 . S
N482 C474 1.356 . S
N482 H488 0.984 . S
N482 H489 0.984 . S
N483 C476 1.356 . S
N483 H486 0.984 . S
N483 H487 0.985 . S
H484 N479 0.984 . S
H485 N479 0.985 . S
H486 N483 0.984 . S
H487 N483 0.985 . S
H488 N482 0.984 . S
H489 N482 0.984 . S
H490 N478 0.984 . S
H491 N478 0.985 . S
C492 C493 1.363 . S
C492 C498 1.379 . S
C492 N500 1.356 . S
C493 C492 1.363 . S
C493 C499 1.363 . S
C494 C495 1.363 . S
C494 C499 1.379 . S
C494 N501 1.356 . S
C495 C494 1.363 . S
C495 C498 1.363 . S
N496 C498 1.356 . S
N496 H508 0.984 . S
N496 H509 0.985 . S
N497 C499 1.356 . S
N497 H502 0.984 . S
N497 H503 0.985 . S
C498 C492 1.379 . S
C498 C495 1.363 . S
C498 N496 1.356 . S
C499 C493 1.363 . S
C499 C494 1.379 . S
C499 N497 1.356 . S
N500 C492 1.356 . S
N500 H506 0.984 . S
N500 H507 0.984 . S
N501 C494 1.356 . S
N501 H504 0.984 . S
N501 H505 0.985 . S
H502 N497 0.984 . S
H503 N497 0.985 . S
H504 N501 0.984 . S
H505 N501 0.985 . S
H506 N500 0.984 . S
H507 N500 0.984 . S
H508 N496 0.984 . S
H509 N496 0.985 . S
C510 C511 1.363 . S
C510 C516 1.379 . S
C510 N518 1.356 . S
C511 C510 1.363 . S
C511 C517 1.363 . S
C512 C513 1.363 . S
C512 C517 1.379 . S
C512 N519 1.356 . S
C513 C512 1.363 . S
C513 C516 1.363 . S
N514 C516 1.356 . S
N514 H526 0.984 . S
N514 H527 0.985 . S
N515 C517 1.356 . S
N515 H520 0.984 . S
N515 H521 0.985 . S
C516 C510 1.379 . S
C516 C513 1.363 . S
C516 N514 1.356 . S
C517 C511 1.363 . S
C517 C512 1.379 . S
C517 N515 1.356 . S
N518 C510 1.356 . S
N518 H524 0.984 . S
N518 H525 0.984 . S
N519 C512 1.356 . S
N519 H522 0.984 . S
N519 H523 0.985 . S
H520 N515 0.984 . S
H521 N515 0.985 . S
H522 N519 0.984 . S
H523 N519 0.985 . S
H524 N518 0.984 . S
H525 N518 0.984 . S
H526 N514 0.984 . S
H527 N514 0.985 . S
C528 C529 1.363 . S
C528 C534 1.379 . S
C528 N536 1.356 . S
C529 C528 1.363 . S
C529 C535 1.363 . S
C530 C531 1.363 . S
C530 C535 1.379 . S
C530 N537 1.356 . S
C531 C530 1.363 . S
C531 C534 1.363 . S
N532 C534 1.356 . S
N532 H544 0.984 . S
N532 H545 0.985 . S
N533 C535 1.356 . S
N533 H538 0.984 . S
N533 H539 0.985 . S
C534 C528 1.379 . S
C534 C531 1.363 . S
C534 N532 1.356 . S
C535 C529 1.363 . S
C535 C530 1.379 . S
C535 N533 1.356 . S
N536 C528 1.356 . S
N536 H542 0.984 . S
N536 H543 0.984 . S
N537 C530 1.356 . S
N537 H540 0.984 . S
N537 H541 0.985 . S
H538 N533 0.984 . S
H539 N533 0.985 . S
H540 N537 0.984 . S
H541 N537 0.985 . S
H542 N536 0.984 . S
H543 N536 0.984 . S
H544 N532 0.984 . S
H545 N532 0.985 . S
C546 C547 1.363 . S
C546 C552 1.379 . S
C546 N554 1.356 . S
C547 C546 1.363 . S
C547 C553 1.363 . S
C548 C549 1.363 . S
C548 C553 1.379 . S
C548 N555 1.356 . S
C549 C548 1.363 . S
C549 C552 1.363 . S
N550 C552 1.356 1_655 S
N550 H562 0.984 . S
N550 H563 0.985 . S
N551 C553 1.356 . S
N551 H556 0.984 . S
N551 H557 0.985 . S
C552 C546 1.379 . S
C552 C549 1.363 . S
C552 N550 1.356 1_455 S
C553 C547 1.363 . S
C553 C548 1.379 . S
C553 N551 1.356 . S
N554 C546 1.356 . S
N554 H560 0.984 1_455 S
N554 H561 0.984 . S
N555 C548 1.356 . S
N555 H558 0.984 . S
N555 H559 0.985 . S
H556 N551 0.984 . S
H557 N551 0.985 . S
H558 N555 0.984 . S
H559 N555 0.985 . S
H560 N554 0.984 1_655 S
H561 N554 0.984 . S
H562 N550 0.984 . S
H563 N550 0.985 . S
C564 C565 1.363 . S
C564 C570 1.379 . S
C564 N572 1.356 . S
C565 C564 1.363 . S
C565 C571 1.363 . S
C566 C567 1.363 . S
C566 C571 1.379 . S
C566 N573 1.356 . S
C567 C566 1.363 . S
C567 C570 1.363 . S
N568 C570 1.356 . S
N568 H580 0.984 . S
N568 H581 0.985 . S
N569 C571 1.356 . S
N569 H574 0.984 . S
N569 H575 0.985 . S
C570 C564 1.379 . S
C570 C567 1.363 . S
C570 N568 1.356 . S
C571 C565 1.363 . S
C571 C566 1.379 . S
C571 N569 1.356 . S
N572 C564 1.356 . S
N572 H578 0.984 . S
N572 H579 0.984 . S
N573 C566 1.356 . S
N573 H576 0.984 . S
N573 H577 0.985 . S
H574 N569 0.984 . S
H575 N569 0.985 . S
H576 N573 0.984 . S
H577 N573 0.985 . S
H578 N572 0.984 . S
H579 N572 0.984 . S
H580 N568 0.984 . S
H581 N568 0.985 . S
C582 C583 1.363 . S
C582 C588 1.379 . S
C582 N590 1.356 . S
C583 C582 1.363 . S
C583 C589 1.344 1_655 S
C584 C585 1.363 1_455 S
C584 C589 1.382 . S
C584 N591 1.356 . S
C585 C584 1.363 1_655 S
C585 C588 1.363 . S
N586 C588 1.356 . S
N586 H598 0.984 . S
N586 H599 0.985 . S
N587 C589 1.367 . S
N587 H592 0.984 . S
N587 H593 0.985 . S
C588 C582 1.379 . S
C588 C585 1.363 . S
C588 N586 1.356 . S
C589 C583 1.344 1_455 S
C589 C584 1.382 . S
C589 N587 1.367 . S
N590 C582 1.356 . S
N590 H596 0.984 . S
N590 H597 0.984 . S
N591 C584 1.356 . S
N591 H594 0.984 . S
N591 H595 0.985 . S
H592 N587 0.984 . S
H593 N587 0.985 . S
H594 N591 0.984 . S
H595 N591 0.985 . S
H596 N590 0.984 . S
H597 N590 0.984 . S
H598 N586 0.984 . S
H599 N586 0.985 . S
C600 C601 1.363 . S
C600 C606 1.379 . S
C600 N608 1.356 . S
C601 C600 1.363 . S
C601 C607 1.363 . S
C602 C603 1.363 . S
C602 C607 1.379 . S
C602 N609 1.356 . S
C603 C602 1.363 . S
C603 C606 1.363 . S
N604 C606 1.356 . S
N604 H616 0.984 . S
N604 H617 0.985 . S
N605 C607 1.356 . S
N605 H610 0.984 . S
N605 H611 0.985 . S
C606 C600 1.379 . S
C606 C603 1.363 . S
C606 N604 1.356 . S
C607 C601 1.363 . S
C607 C602 1.379 . S
C607 N605 1.356 . S
N608 C600 1.356 . S
N608 H614 0.984 . S
N608 H615 0.984 . S
N609 C602 1.356 . S
N609 H612 0.984 . S
N609 H613 0.985 . S
H610 N605 0.984 . S
H611 N605 0.985 . S
H612 N609 0.984 . S
H613 N609 0.985 . S
H614 N608 0.984 . S
H615 N608 0.984 . S
H616 N604 0.984 . S
H617 N604 0.985 . S
C618 C619 1.363 . S
C618 C624 1.379 . S
C618 N626 1.356 . S
C619 C618 1.363 . S
C619 C625 1.363 . S
C620 C621 1.363 . S
C620 C625 1.379 . S
C620 N627 1.356 . S
C621 C620 1.363 . S
C621 C624 1.363 . S
N622 C624 1.356 . S
N622 H634 0.984 . S
N622 H635 0.985 . S
N623 C625 1.356 . S
N623 H628 0.984 . S
N623 H629 0.985 . S
C624 C618 1.379 . S
C624 C621 1.363 . S
C624 N622 1.356 . S
C625 C619 1.363 . S
C625 C620 1.379 . S
C625 N623 1.356 . S
N626 C618 1.356 . S
N626 H632 0.984 . S
N626 H633 0.984 . S
N627 C620 1.356 . S
N627 H630 0.984 . S
N627 H631 0.985 . S
H628 N623 0.984 . S
H629 N623 0.985 . S
H630 N627 0.984 . S
H631 N627 0.985 . S
H632 N626 0.984 . S
H633 N626 0.984 . S
H634 N622 0.984 . S
H635 N622 0.985 . S
C636 C637 1.363 1_565 S
C636 C642 1.379 1_556 S
C636 N644 1.356 1_566 S
C637 C636 1.363 1_545 S
C637 C643 1.363 1_545 S
C638 C639 1.363 . S
C638 C643 1.379 . S
C638 N645 1.356 . S
C639 C638 1.363 . S
C639 C642 1.363 1_556 S
N640 C642 1.356 . S
N640 H652 0.984 . S
N640 H653 0.985 . S
N641 C643 1.356 1_545 S
N641 H646 0.984 . S
N641 H647 0.985 . S
C642 C636 1.379 1_554 S
C642 C639 1.363 1_554 S
C642 N640 1.356 . S
C643 C637 1.363 1_565 S
C643 C638 1.379 . S
C643 N641 1.356 1_565 S
N644 C636 1.356 1_544 S
N644 H650 0.984 1_545 S
N644 H651 0.987 . S
N645 C638 1.356 . S
N645 H648 0.984 . S
N645 H649 0.985 . S
H646 N641 0.984 . S
H647 N641 0.985 . S
H648 N645 0.984 . S
H649 N645 0.985 . S
H650 N644 0.984 1_565 S
H651 N644 0.987 . S
H652 N640 0.984 . S
H653 N640 0.985 . S
C654 C655 1.363 . S
C654 C660 1.379 . S
C654 N662 1.356 . S
C655 C654 1.363 . S
C655 C661 1.363 . S
C656 C657 1.363 . S
C656 C661 1.379 . S
C656 N663 1.356 . S
C657 C656 1.363 . S
C657 C660 1.363 . S
N658 C660 1.356 . S
N658 H670 0.984 . S
N658 H671 0.985 . S
N659 C661 1.356 . S
N659 H664 0.984 . S
N659 H665 0.985 . S
C660 C654 1.379 . S
C660 C657 1.363 . S
C660 N658 1.356 . S
C661 C655 1.363 . S
C661 C656 1.379 . S
C661 N659 1.356 . S
N662 C654 1.356 . S
N662 H668 0.984 . S
N662 H669 0.984 . S
N663 C656 1.356 . S
N663 H666 0.984 . S
N663 H667 0.985 . S
H664 N659 0.984 . S
H665 N659 0.985 . S
H666 N663 0.984 . S
H667 N663 0.985 . S
H668 N662 0.984 . S
H669 N662 0.984 . S
H670 N658 0.984 . S
H671 N658 0.985 . S
C672 C673 1.366 . S
C672 C678 1.396 . S
C672 N680 1.335 1_545 S
C673 C672 1.366 . S
C673 C679 1.363 . S
C674 C675 1.363 . S
C674 C679 1.379 . S
C674 N681 1.356 . S
C675 C674 1.363 . S
C675 C678 1.363 . S
N676 C678 1.356 . S
N676 H688 0.984 . S
N676 H689 0.985 . S
N677 C679 1.356 . S
N677 H682 0.984 . S
N677 H683 0.985 . S
C678 C672 1.396 . S
C678 C675 1.363 . S
C678 N676 1.356 . S
C679 C673 1.363 . S
C679 C674 1.379 . S
C679 N677 1.356 . S
N680 C672 1.335 1_565 S
N680 H686 0.984 . S
N680 H687 0.984 . S
N681 C674 1.356 . S
N681 H684 0.984 . S
N681 H685 0.985 . S
H682 N677 0.984 . S
H683 N677 0.985 . S
H684 N681 0.984 . S
H685 N681 0.985 . S
H686 N680 0.984 . S
H687 N680 0.984 . S
H688 N676 0.984 . S
H689 N676 0.985 . S
C690 C691 1.363 . S
C690 C696 1.379 . S
C690 N698 1.356 . S
C691 C690 1.363 . S
C691 C697 1.363 . S
C692 C693 1.363 . S
C692 C697 1.379 . S
C692 N699 1.356 . S
C693 C692 1.363 . S
C693 C696 1.363 . S
N694 C696 1.356 . S
N694 H706 0.984 . S
N694 H707 0.985 . S
N695 C697 1.356 . S
N695 H700 0.984 . S
N695 H701 0.985 . S
C696 C690 1.379 . S
C696 C693 1.363 . S
C696 N694 1.356 . S
C697 C691 1.363 . S
C697 C692 1.379 . S
C697 N695 1.356 . S
N698 C690 1.356 . S
N698 H704 0.984 . S
N698 H705 0.984 . S
N699 C692 1.356 . S
N699 H702 0.984 . S
N699 H703 0.985 . S
H700 N695 0.984 . S
H701 N695 0.985 . S
H702 N699 0.984 . S
H703 N699 0.985 . S
H704 N698 0.984 . S
H705 N698 0.984 . S
H706 N694 0.984 . S
H707 N694 0.985 . S
C708 C709 1.363 . S
C708 C714 1.379 . S
C708 N716 1.356 . S
C709 C708 1.363 . S
C709 C715 1.363 1_545 S
C710 C711 1.363 . S
C710 C715 1.379 1_545 S
C710 N717 1.356 . S
C711 C710 1.363 . S
C711 C714 1.363 . S
N712 C714 1.356 . S
N712 H724 0.984 . S
N712 H725 0.985 . S
N713 C715 1.356 . S
N713 H718 0.984 . S
N713 H719 0.985 . S
C714 C708 1.379 . S
C714 C711 1.363 . S
C714 N712 1.356 . S
C715 C709 1.363 1_565 S
C715 C710 1.379 1_565 S
C715 N713 1.356 . S
N716 C708 1.356 . S
N716 H722 0.984 . S
N716 H723 0.984 . S
N717 C710 1.356 . S
N717 H720 0.984 . S
N717 H721 0.985 1_545 S
H718 N713 0.984 . S
H719 N713 0.985 . S
H720 N717 0.984 . S
H721 N717 0.985 1_565 S
H722 N716 0.984 . S
H723 N716 0.984 . S
H724 N712 0.984 . S
H725 N712 0.985 . S
C726 C727 1.363 . S
C726 C732 1.379 . S
C726 N734 1.356 . S
C727 C726 1.363 . S
C727 C733 1.363 . S
C728 C729 1.363 . S
C728 C733 1.379 . S
C728 N735 1.356 . S
C729 C728 1.363 . S
C729 C732 1.363 . S
N730 C732 1.356 . S
N730 H742 0.984 . S
N730 H743 0.985 . S
N731 C733 1.356 . S
N731 H736 0.984 . S
N731 H737 0.985 . S
C732 C726 1.379 . S
C732 C729 1.363 . S
C732 N730 1.356 . S
C733 C727 1.363 . S
C733 C728 1.379 . S
C733 N731 1.356 . S
N734 C726 1.356 . S
N734 H740 0.984 . S
N734 H741 0.984 . S
N735 C728 1.356 . S
N735 H738 0.984 . S
N735 H739 0.985 . S
H736 N731 0.984 . S
H737 N731 0.985 . S
H738 N735 0.984 . S
H739 N735 0.985 . S
H740 N734 0.984 . S
H741 N734 0.984 . S
H742 N730 0.984 . S
H743 N730 0.985 . S
C744 C745 1.363 . S
C744 C750 1.379 . S
C744 N752 1.356 . S
C745 C744 1.363 . S
C745 C751 1.363 . S
C746 C747 1.363 . S
C746 C751 1.379 . S
C746 N753 1.356 . S
C747 C746 1.363 . S
C747 C750 1.363 . S
N748 C750 1.356 . S
N748 H760 0.984 . S
N748 H761 0.985 . S
N749 C751 1.356 . S
N749 H754 0.984 . S
N749 H755 0.985 . S
C750 C744 1.379 . S
C750 C747 1.363 . S
C750 N748 1.356 . S
C751 C745 1.363 . S
C751 C746 1.379 . S
C751 N749 1.356 . S
N752 C744 1.356 . S
N752 H758 0.984 . S
N752 H759 0.984 . S
N753 C746 1.356 . S
N753 H756 0.984 . S
N753 H757 0.985 . S
H754 N749 0.984 . S
H755 N749 0.985 . S
H756 N753 0.984 . S
H757 N753 0.985 . S
H758 N752 0.984 . S
H759 N752 0.984 . S
H760 N748 0.984 . S
H761 N748 0.985 . S
C762 C763 1.363 . S
C762 C768 1.379 . S
C762 N770 1.356 . S
C763 C762 1.363 . S
C763 C769 1.363 . S
C764 C765 1.363 . S
C764 C769 1.379 . S
C764 N771 1.356 . S
C765 C764 1.363 . S
C765 C768 1.363 . S
N766 C768 1.356 . S
N766 H778 0.984 . S
N766 H779 0.985 . S
N767 C769 1.356 . S
N767 H772 0.984 . S
N767 H773 0.985 . S
C768 C762 1.379 . S
C768 C765 1.363 . S
C768 N766 1.356 . S
C769 C763 1.363 . S
C769 C764 1.379 . S
C769 N767 1.356 . S
N770 C762 1.356 . S
N770 H776 0.984 . S
N770 H777 0.984 . S
N771 C764 1.356 . S
N771 H774 0.984 . S
N771 H775 0.985 1_545 S
H772 N767 0.984 . S
H773 N767 0.985 . S
H774 N771 0.984 . S
H775 N771 0.985 1_565 S
H776 N770 0.984 . S
H777 N770 0.984 . S
H778 N766 0.984 . S
H779 N766 0.985 . S
C780 C781 1.363 . S
C780 C786 1.379 . S
C780 N788 1.356 . S
C781 C780 1.363 . S
C781 C787 1.363 . S
C782 C783 1.363 . S
C782 C787 1.379 . S
C782 N789 1.356 . S
C783 C782 1.363 . S
C783 C786 1.363 . S
N784 C786 1.356 . S
N784 H796 0.984 . S
N784 H797 0.985 . S
N785 C787 1.356 . S
N785 H790 0.984 . S
N785 H791 0.985 . S
C786 C780 1.379 . S
C786 C783 1.363 . S
C786 N784 1.356 . S
C787 C781 1.363 . S
C787 C782 1.379 . S
C787 N785 1.356 . S
N788 C780 1.356 . S
N788 H794 0.984 . S
N788 H795 0.984 . S
N789 C782 1.356 . S
N789 H792 0.984 . S
N789 H793 0.985 . S
H790 N785 0.984 . S
H791 N785 0.985 . S
H792 N789 0.984 . S
H793 N789 0.985 . S
H794 N788 0.984 . S
H795 N788 0.984 . S
H796 N784 0.984 . S
H797 N784 0.985 . S
C798 C799 1.363 . S
C798 C804 1.379 . S
C798 N806 1.356 . S
C799 C798 1.363 . S
C799 C805 1.363 . S
C800 C801 1.363 . S
C800 C805 1.379 . S
C800 N807 1.356 . S
C801 C800 1.363 . S
C801 C804 1.363 . S
N802 C804 1.356 . S
N802 H814 0.984 . S
N802 H815 0.985 . S
N803 C805 1.356 . S
N803 H808 0.984 . S
N803 H809 0.985 . S
C804 C798 1.379 . S
C804 C801 1.363 . S
C804 N802 1.356 . S
C805 C799 1.363 . S
C805 C800 1.379 . S
C805 N803 1.356 . S
N806 C798 1.356 . S
N806 H812 0.984 . S
N806 H813 0.984 . S
N807 C800 1.356 . S
N807 H810 0.984 . S
N807 H811 0.985 . S
H808 N803 0.984 . S
H809 N803 0.985 . S
H810 N807 0.984 . S
H811 N807 0.985 . S
H812 N806 0.984 . S
H813 N806 0.984 . S
H814 N802 0.984 . S
H815 N802 0.985 . S
C816 C817 1.363 . S
C816 C822 1.379 . S
C816 N824 1.356 . S
C817 C816 1.363 . S
C817 C823 1.363 . S
C818 C819 1.363 . S
C818 C823 1.379 . S
C818 N825 1.356 . S
C819 C818 1.363 . S
C819 C822 1.363 . S
N820 C822 1.356 . S
N820 H832 0.984 . S
N820 H833 0.985 . S
N821 C823 1.356 . S
N821 H826 0.984 . S
N821 H827 0.985 . S
C822 C816 1.379 . S
C822 C819 1.363 . S
C822 N820 1.356 . S
C823 C817 1.363 . S
C823 C818 1.379 . S
C823 N821 1.356 . S
N824 C816 1.356 . S
N824 H830 0.984 . S
N824 H831 0.984 . S
N825 C818 1.356 . S
N825 H828 0.984 . S
N825 H829 0.985 . S
H826 N821 0.984 . S
H827 N821 0.985 . S
H828 N825 0.984 . S
H829 N825 0.985 . S
H830 N824 0.984 . S
H831 N824 0.984 . S
H832 N820 0.984 . S
H833 N820 0.985 . S
C834 C835 1.363 . S
C834 C840 1.379 . S
C834 N842 1.356 1_545 S
C835 C834 1.363 . S
C835 C841 1.363 1_655 S
C836 C837 1.363 . S
C836 C841 1.379 1_655 S
C836 N843 1.356 . S
C837 C836 1.363 . S
C837 C840 1.363 . S
N838 C840 1.356 1_565 S
N838 H850 0.984 . S
N838 H851 0.985 . S
N839 C841 1.356 . S
N839 H844 0.984 . S
N839 H845 0.985 . S
C840 C834 1.379 . S
C840 C837 1.363 . S
C840 N838 1.356 1_545 S
C841 C835 1.363 1_455 S
C841 C836 1.379 1_455 S
C841 N839 1.356 . S
N842 C834 1.356 1_565 S
N842 H848 0.984 . S
N842 H849 0.984 . S
N843 C836 1.356 . S
N843 H846 0.984 . S
N843 H847 0.985 . S
H844 N839 0.984 . S
H845 N839 0.985 . S
H846 N843 0.984 . S
H847 N843 0.985 . S
H848 N842 0.984 . S
H849 N842 0.984 . S
H850 N838 0.984 . S
H851 N838 0.985 . S
C852 C853 1.363 . S
C852 C858 1.379 . S
C852 N860 1.356 . S
C853 C852 1.363 . S
C853 C859 1.363 . S
C854 C855 1.363 . S
C854 C859 1.379 . S
C854 N861 1.356 . S
C855 C854 1.363 . S
C855 C858 1.363 . S
N856 C858 1.356 . S
N856 H868 0.984 . S
N856 H869 0.985 . S
N857 C859 1.356 . S
N857 H862 0.984 . S
N857 H863 0.985 . S
C858 C852 1.379 . S
C858 C855 1.363 . S
C858 N856 1.356 . S
C859 C853 1.363 . S
C859 C854 1.379 . S
C859 N857 1.356 . S
N860 C852 1.356 . S
N860 H866 0.984 . S
N860 H867 0.984 . S
N861 C854 1.356 . S
N861 H864 0.984 . S
N861 H865 0.985 . S
H862 N857 0.984 . S
H863 N857 0.985 . S
H864 N861 0.984 . S
H865 N861 0.985 . S
H866 N860 0.984 . S
H867 N860 0.984 . S
H868 N856 0.984 . S
H869 N856 0.985 . S
C870 C871 1.363 . S
C870 C876 1.379 . S
C870 N878 1.356 . S
C871 C870 1.363 . S
C871 C877 1.363 . S
C872 C873 1.363 . S
C872 C877 1.379 . S
C872 N879 1.356 . S
C873 C872 1.363 . S
C873 C876 1.363 . S
N874 C876 1.356 . S
N874 H886 0.984 . S
N874 H887 0.985 . S
N875 C877 1.356 1_655 S
N875 H880 0.984 . S
N875 H881 0.985 . S
C876 C870 1.379 . S
C876 C873 1.363 . S
C876 N874 1.356 . S
C877 C871 1.363 . S
C877 C872 1.379 . S
C877 N875 1.356 1_455 S
N878 C870 1.356 . S
N878 H884 0.984 . S
N878 H885 0.984 1_455 S
N879 C872 1.356 . S
N879 H882 0.984 . S
N879 H883 0.985 . S
H880 N875 0.984 . S
H881 N875 0.985 . S
H882 N879 0.984 . S
H883 N879 0.985 . S
H884 N878 0.984 . S
H885 N878 0.984 1_655 S
H886 N874 0.984 . S
H887 N874 0.985 . S
C888 C889 1.363 . S
C888 C894 1.379 . S
C888 N896 1.356 . S
C889 C888 1.363 . S
C889 C895 1.363 . S
C890 C891 1.363 . S
C890 C895 1.379 . S
C890 N897 1.356 . S
C891 C890 1.363 . S
C891 C894 1.363 . S
N892 C894 1.356 . S
N892 H904 0.984 . S
N892 H905 0.985 . S
N893 C895 1.356 . S
N893 H898 0.984 . S
N893 H899 0.985 . S
C894 C888 1.379 . S
C894 C891 1.363 . S
C894 N892 1.356 . S
C895 C889 1.363 . S
C895 C890 1.379 . S
C895 N893 1.356 . S
N896 C888 1.356 . S
N896 H902 0.984 . S
N896 H903 0.984 . S
N897 C890 1.356 . S
N897 H900 0.984 . S
N897 H901 0.985 . S
H898 N893 0.984 . S
H899 N893 0.985 . S
H900 N897 0.984 . S
H901 N897 0.985 . S
H902 N896 0.984 . S
H903 N896 0.984 . S
H904 N892 0.984 . S
H905 N892 0.985 . S
C906 C907 1.363 . S
C906 C912 1.379 1_554 S
C906 N914 1.348 1_655 S
C907 C906 1.363 . S
C907 C913 1.363 1_554 S
C908 C909 1.363 . S
C908 C913 1.379 . S
C908 N915 1.356 . S
C909 C908 1.363 . S
C909 C912 1.363 . S
N910 C912 1.356 1_455 S
N910 H922 0.984 1_556 S
N910 H923 0.985 . S
N911 C913 1.356 . S
N911 H916 0.984 . S
N911 H917 0.985 . S
C912 C906 1.379 1_556 S
C912 C909 1.363 . S
C912 N910 1.356 1_655 S
C913 C907 1.363 1_556 S
C913 C908 1.379 . S
C913 N911 1.356 . S
N914 C906 1.348 1_455 S
N914 H920 1.007 . S
N914 H921 0.971 1_455 S
N915 C908 1.356 . S
N915 H918 0.984 . S
N915 H919 0.985 . S
H916 N911 0.984 . S
H917 N911 0.985 . S
H918 N915 0.984 . S
H919 N915 0.985 . S
H920 N914 1.007 . S
H921 N914 0.971 1_655 S
H922 N910 0.984 1_554 S
H923 N910 0.985 . S
C924 C925 1.363 . S
C924 C930 1.379 . S
C924 N932 1.356 . S
C925 C924 1.363 . S
C925 C931 1.363 . S
C926 C927 1.363 . S
C926 C931 1.379 . S
C926 N933 1.356 . S
C927 C926 1.363 . S
C927 C930 1.363 . S
N928 C930 1.356 . S
N928 H940 0.984 . S
N928 H941 0.985 . S
N929 C931 1.356 . S
N929 H934 0.984 . S
N929 H935 0.985 . S
C930 C924 1.379 . S
C930 C927 1.363 . S
C930 N928 1.356 . S
C931 C925 1.363 . S
C931 C926 1.379 . S
C931 N929 1.356 . S
N932 C924 1.356 . S
N932 H938 0.984 . S
N932 H939 0.984 . S
N933 C926 1.356 . S
N933 H936 0.984 . S
N933 H937 0.985 . S
H934 N929 0.984 . S
H935 N929 0.985 . S
H936 N933 0.984 . S
H937 N933 0.985 . S
H938 N932 0.984 . S
H939 N932 0.984 . S
H940 N928 0.984 . S
H941 N928 0.985 . S
C942 C943 1.363 . S
C942 C948 1.379 . S
C942 N950 1.356 . S
C943 C942 1.363 . S
C943 C949 1.363 1_556 S
C944 C945 1.363 . S
C944 C949 1.379 1_556 S
C944 N951 1.356 1_455 S
C945 C944 1.363 . S
C945 C948 1.363 . S
N946 C948 1.356 . S
N946 H958 0.984 . S
N946 H959 0.985 . S
N947 C949 1.356 . S
N947 H952 0.984 . S
N947 H953 0.985 1_455 S
C948 C942 1.379 . S
C948 C945 1.363 . S
C948 N946 1.356 . S
C949 C943 1.363 1_554 S
C949 C944 1.379 1_554 S
C949 N947 1.356 . S
N950 C942 1.356 . S
N950 H956 0.984 . S
N950 H957 0.984 . S
N951 C944 1.356 1_655 S
N951 H954 0.984 . S
N951 H955 0.985 1_556 S
H952 N947 0.984 . S
H953 N947 0.985 1_655 S
H954 N951 0.984 . S
H955 N951 0.985 1_554 S
H956 N950 0.984 . S
H957 N950 0.984 . S
H958 N946 0.984 . S
H959 N946 0.985 . S
C960 C961 1.363 . S
C960 C966 1.379 . S
C960 N968 1.356 . S
C961 C960 1.363 . S
C961 C967 1.363 . S
C962 C963 1.363 . S
C962 C967 1.379 . S
C962 N969 1.356 . S
C963 C962 1.363 . S
C963 C966 1.363 . S
N964 C966 1.356 . S
N964 H976 0.984 . S
N964 H977 0.985 . S
N965 C967 1.356 . S
N965 H970 0.984 . S
N965 H971 0.985 . S
C966 C960 1.379 . S
C966 C963 1.363 . S
C966 N964 1.356 . S
C967 C961 1.363 . S
C967 C962 1.379 . S
C967 N965 1.356 . S
N968 C960 1.356 . S
N968 H974 0.984 . S
N968 H975 0.984 . S
N969 C962 1.356 . S
N969 H972 0.984 . S
N969 H973 0.985 . S
H970 N965 0.984 . S
H971 N965 0.985 . S
H972 N969 0.984 . S
H973 N969 0.985 . S
H974 N968 0.984 . S
H975 N968 0.984 . S
H976 N964 0.984 . S
H977 N964 0.985 . S
C978 C979 1.363 . S
C978 C984 1.379 . S
C978 N986 1.356 1_554 S
C979 C978 1.363 . S
C979 C985 1.363 . S
C980 C981 1.363 . S
C980 C985 1.379 . S
C980 N987 1.356 . S
C981 C980 1.363 . S
C981 C984 1.363 . S
N982 C984 1.356 . S
N982 H994 0.984 . S
N982 H995 0.985 . S
N983 C985 1.356 . S
N983 H988 0.984 . S
N983 H989 0.985 . S
C984 C978 1.379 . S
C984 C981 1.363 . S
C984 N982 1.356 . S
C985 C979 1.363 . S
C985 C980 1.379 . S
C985 N983 1.356 . S
N986 C978 1.356 1_556 S
N986 H992 0.984 . S
N986 H993 0.984 . S
N987 C980 1.356 . S
N987 H990 0.984 . S
N987 H991 0.985 . S
H988 N983 0.984 . S
H989 N983 0.985 . S
H990 N987 0.984 . S
H991 N987 0.985 . S
H992 N986 0.984 . S
H993 N986 0.984 . S
H994 N982 0.984 . S
H995 N982 0.985 . S
C996 C997 1.363 . S
C996 C1002 1.379 . S
C996 N1004 1.356 . S
C997 C996 1.363 . S
C997 C1003 1.363 . S
C998 C999 1.363 . S
C998 C1003 1.379 . S
C998 N1005 1.356 . S
C999 C998 1.363 . S
C999 C1002 1.363 . S
N1000 C1002 1.356 . S
N1000 H1012 0.984 . S
N1000 H1013 0.985 . S
N1001 C1003 1.356 . S
N1001 H1006 0.984 . S
N1001 H1007 0.985 . S
C1002 C996 1.379 . S
C1002 C999 1.363 . S
C1002 N1000 1.356 . S
C1003 C997 1.363 . S
C1003 C998 1.379 . S
C1003 N1001 1.356 . S
N1004 C996 1.356 . S
N1004 H1010 0.984 . S
N1004 H1011 0.984 . S
N1005 C998 1.356 . S
N1005 H1008 0.984 . S
N1005 H1009 0.985 . S
H1006 N1001 0.984 . S
H1007 N1001 0.985 . S
H1008 N1005 0.984 . S
H1009 N1005 0.985 . S
H1010 N1004 0.984 . S
H1011 N1004 0.984 . S
H1012 N1000 0.984 . S
H1013 N1000 0.985 . S
C1014 C1015 1.363 1_556 S
C1014 C1020 1.379 1_556 S
C1014 N1022 1.356 . S
C1015 C1014 1.363 1_554 S
C1015 C1021 1.363 . S
C1016 C1017 1.363 . S
C1016 C1021 1.379 . S
C1016 N1023 1.356 . S
C1017 C1016 1.363 . S
C1017 C1020 1.363 . S
N1018 C1020 1.356 . S
N1018 H1030 0.984 . S
N1018 H1031 0.985 . S
N1019 C1021 1.356 . S
N1019 H1024 0.984 . S
N1019 H1025 0.985 . S
C1020 C1014 1.379 1_554 S
C1020 C1017 1.363 . S
C1020 N1018 1.356 . S
C1021 C1015 1.363 . S
C1021 C1016 1.379 . S
C1021 N1019 1.356 . S
N1022 C1014 1.356 . S
N1022 H1028 0.984 . S
N1022 H1029 0.984 . S
N1023 C1016 1.356 . S
N1023 H1026 0.984 . S
N1023 H1027 0.985 . S
H1024 N1019 0.984 . S
H1025 N1019 0.985 . S
H1026 N1023 0.984 . S
H1027 N1023 0.985 . S
H1028 N1022 0.984 . S
H1029 N1022 0.984 . S
H1030 N1018 0.984 . S
H1031 N1018 0.985 . S
C1032 C1033 1.363 . S
C1032 C1038 1.379 . S
C1032 N1040 1.356 . S
C1033 C1032 1.363 . S
C1033 C1039 1.363 . S
C1034 C1035 1.363 . S
C1034 C1039 1.379 . S
C1034 N1041 1.356 . S
C1035 C1034 1.363 . S
C1035 C1038 1.363 . S
N1036 C1038 1.356 . S
N1036 H1048 0.984 . S
N1036 H1049 0.985 . S
N1037 C1039 1.356 . S
N1037 H1042 0.984 . S
N1037 H1043 0.985 . S
C1038 C1032 1.379 . S
C1038 C1035 1.363 . S
C1038 N1036 1.356 . S
C1039 C1033 1.363 . S
C1039 C1034 1.379 . S
C1039 N1037 1.356 . S
N1040 C1032 1.356 . S
N1040 H1046 0.984 . S
N1040 H1047 0.984 . S
N1041 C1034 1.356 . S
N1041 H1044 0.984 . S
N1041 H1045 0.985 . S
H1042 N1037 0.984 . S
H1043 N1037 0.985 . S
H1044 N1041 0.984 . S
H1045 N1041 0.985 . S
H1046 N1040 0.984 . S
H1047 N1040 0.984 . S
H1048 N1036 0.984 . S
H1049 N1036 0.985 . S
C1050 C1051 1.363 . S
C1050 C1056 1.379 . S
C1050 N1058 1.356 . S
C1051 C1050 1.363 . S
C1051 C1057 1.363 . S
C1052 C1053 1.363 . S
C1052 C1057 1.379 . S
C1052 N1059 1.356 . S
C1053 C1052 1.363 . S
C1053 C1056 1.363 . S
N1054 C1056 1.356 . S
N1054 H1066 0.984 . S
N1054 H1067 0.985 . S
N1055 C1057 1.356 . S
N1055 H1060 0.984 . S
N1055 H1061 0.985 . S
C1056 C1050 1.379 . S
C1056 C1053 1.363 . S
C1056 N1054 1.356 . S
C1057 C1051 1.363 . S
C1057 C1052 1.379 . S
C1057 N1055 1.356 . S
N1058 C1050 1.356 . S
N1058 H1064 0.984 . S
N1058 H1065 0.984 . S
N1059 C1052 1.356 . S
N1059 H1062 0.984 . S
N1059 H1063 0.985 . S
H1060 N1055 0.984 . S
H1061 N1055 0.985 . S
H1062 N1059 0.984 . S
H1063 N1059 0.985 . S
H1064 N1058 0.984 . S
H1065 N1058 0.984 . S
H1066 N1054 0.984 . S
H1067 N1054 0.985 . S
C1068 C1069 1.363 . S
C1068 C1074 1.379 . S
C1068 N1076 1.356 . S
C1069 C1068 1.363 . S
C1069 C1075 1.363 . S
C1070 C1071 1.363 . S
C1070 C1075 1.379 . S
C1070 N1077 1.356 . S
C1071 C1070 1.363 . S
C1071 C1074 1.363 . S
N1072 C1074 1.356 . S
N1072 H1084 0.984 . S
N1072 H1085 0.985 . S
N1073 C1075 1.356 . S
N1073 H1078 0.984 . S
N1073 H1079 0.985 . S
C1074 C1068 1.379 . S
C1074 C1071 1.363 . S
C1074 N1072 1.356 . S
C1075 C1069 1.363 . S
C1075 C1070 1.379 . S
C1075 N1073 1.356 . S
N1076 C1068 1.356 . S
N1076 H1082 0.984 . S
N1076 H1083 0.984 . S
N1077 C1070 1.356 . S
N1077 H1080 0.984 . S
N1077 H1081 0.985 . S
H1078 N1073 0.984 . S
H1079 N1073 0.985 . S
H1080 N1077 0.984 . S
H1081 N1077 0.985 . S
H1082 N1076 0.984 . S
H1083 N1076 0.984 . S
H1084 N1072 0.984 . S
H1085 N1072 0.985 . S
C1086 C1087 1.363 . S
C1086 C1092 1.379 . S
C1086 N1094 1.356 . S
C1087 C1086 1.363 . S
C1087 C1093 1.363 . S
C1088 C1089 1.363 . S
C1088 C1093 1.379 . S
C1088 N1095 1.356 . S
C1089 C1088 1.363 . S
C1089 C1092 1.363 . S
N1090 C1092 1.356 . S
N1090 H1102 0.984 . S
N1090 H1103 0.985 . S
N1091 C1093 1.356 . S
N1091 H1096 0.984 . S
N1091 H1097 0.985 . S
C1092 C1086 1.379 . S
C1092 C1089 1.363 . S
C1092 N1090 1.356 . S
C1093 C1087 1.363 . S
C1093 C1088 1.379 . S
C1093 N1091 1.356 . S
N1094 C1086 1.356 . S
N1094 H1100 0.984 . S
N1094 H1101 0.984 . S
N1095 C1088 1.356 . S
N1095 H1098 0.984 . S
N1095 H1099 0.985 . S
H1096 N1091 0.984 . S
H1097 N1091 0.985 . S
H1098 N1095 0.984 . S
H1099 N1095 0.985 . S
H1100 N1094 0.984 . S
H1101 N1094 0.984 . S
H1102 N1090 0.984 . S
H1103 N1090 0.985 . S
C1104 C1105 1.363 1_554 S
C1104 C1110 1.379 . S
C1104 N1112 1.356 . S
C1105 C1104 1.363 1_556 S
C1105 C1111 1.363 . S
C1106 C1107 1.363 . S
C1106 C1111 1.379 . S
C1106 N1113 1.356 . S
C1107 C1106 1.363 . S
C1107 C1110 1.363 1_556 S
N1108 C1110 1.356 . S
N1108 H1120 0.984 . S
N1108 H1121 0.985 . S
N1109 C1111 1.356 . S
N1109 H1114 0.984 . S
N1109 H1115 0.985 . S
C1110 C1104 1.379 . S
C1110 C1107 1.363 1_554 S
C1110 N1108 1.356 . S
C1111 C1105 1.363 . S
C1111 C1106 1.379 . S
C1111 N1109 1.356 . S
N1112 C1104 1.356 . S
N1112 H1118 0.984 . S
N1112 H1119 0.984 . S
N1113 C1106 1.356 . S
N1113 H1116 0.984 . S
N1113 H1117 0.985 . S
H1114 N1109 0.984 . S
H1115 N1109 0.985 . S
H1116 N1113 0.984 . S
H1117 N1113 0.985 . S
H1118 N1112 0.984 . S
H1119 N1112 0.984 . S
H1120 N1108 0.984 . S
H1121 N1108 0.985 . S
C1122 C1123 1.363 . S
C1122 C1128 1.379 . S
C1122 N1130 1.356 . S
C1123 C1122 1.363 . S
C1123 C1129 1.363 . S
C1124 C1125 1.363 . S
C1124 C1129 1.379 . S
C1124 N1131 1.356 . S
C1125 C1124 1.363 . S
C1125 C1128 1.363 . S
N1126 C1128 1.356 . S
N1126 H1138 0.984 . S
N1126 H1139 0.985 . S
N1127 C1129 1.356 . S
N1127 H1132 0.984 . S
N1127 H1133 0.985 . S
C1128 C1122 1.379 . S
C1128 C1125 1.363 . S
C1128 N1126 1.356 . S
C1129 C1123 1.363 . S
C1129 C1124 1.379 . S
C1129 N1127 1.356 . S
N1130 C1122 1.356 . S
N1130 H1136 0.984 . S
N1130 H1137 0.984 . S
N1131 C1124 1.356 . S
N1131 H1134 0.984 . S
N1131 H1135 0.985 . S
H1132 N1127 0.984 . S
H1133 N1127 0.985 . S
H1134 N1131 0.984 . S
H1135 N1131 0.985 . S
H1136 N1130 0.984 . S
H1137 N1130 0.984 . S
H1138 N1126 0.984 . S
H1139 N1126 0.985 . S
C1140 C1141 1.363 . S
C1140 C1146 1.379 . S
C1140 N1148 1.356 1_554 S
C1141 C1140 1.363 . S
C1141 C1147 1.363 . S
C1142 C1143 1.363 . S
C1142 C1147 1.379 . S
C1142 N1149 1.356 . S
C1143 C1142 1.363 . S
C1143 C1146 1.363 . S
N1144 C1146 1.356 1_556 S
N1144 H1156 0.984 . S
N1144 H1157 0.985 . S
N1145 C1147 1.356 . S
N1145 H1150 0.984 . S
N1145 H1151 0.985 . S
C1146 C1140 1.379 . S
C1146 C1143 1.363 . S
C1146 N1144 1.356 1_554 S
C1147 C1141 1.363 . S
C1147 C1142 1.379 . S
C1147 N1145 1.356 . S
N1148 C1140 1.356 1_556 S
N1148 H1154 0.984 . S
N1148 H1155 0.984 1_556 S
N1149 C1142 1.356 . S
N1149 H1152 0.984 . S
N1149 H1153 0.985 . S
H1150 N1145 0.984 . S
H1151 N1145 0.985 . S
H1152 N1149 0.984 . S
H1153 N1149 0.985 . S
H1154 N1148 0.984 . S
H1155 N1148 0.984 1_554 S
H1156 N1144 0.984 . S
H1157 N1144 0.985 . S
C1158 C1159 1.363 . S
C1158 C1164 1.379 . S
C1158 N1166 1.356 1_565 S
C1159 C1158 1.363 . S
C1159 C1165 1.368 . S
C1160 C1161 1.363 1_556 S
C1160 C1165 1.378 1_556 S
C1160 N1167 1.356 . S
C1161 C1160 1.363 1_554 S
C1161 C1164 1.363 . S
N1162 C1164 1.356 . S
N1162 H1174 0.984 . S
N1162 H1175 0.985 . S
N1163 C1165 1.353 1_556 S
N1163 H1168 0.984 . S
N1163 H1169 0.985 . S
C1164 C1158 1.379 . S
C1164 C1161 1.363 . S
C1164 N1162 1.356 . S
C1165 C1159 1.368 . S
C1165 C1160 1.378 1_554 S
C1165 N1163 1.353 1_554 S
N1166 C1158 1.356 1_545 S
N1166 H1172 0.984 . S
N1166 H1173 0.984 . S
N1167 C1160 1.356 . S
N1167 H1170 0.984 . S
N1167 H1171 0.985 . S
H1168 N1163 0.984 . S
H1169 N1163 0.985 . S
H1170 N1167 0.984 . S
H1171 N1167 0.985 . S
H1172 N1166 0.984 . S
H1173 N1166 0.984 . S
H1174 N1162 0.984 . S
H1175 N1162 0.985 . S
C315 C152 1.489 . S
C313 C50 1.514 . S
C333 C165 1.482 . S
C331 C61 1.489 1_455 S
C349 C67 1.595 . S
C351 C185 1.489 . S
C369 C199 1.389 . S
C367 C41 1.460 . S
C387 C211 1.499 . S
C385 C95 1.503 . S
C405 C225 1.459 . S
C403 C113 1.460 . S
C421 C106 1.482 . S
C423 C235 1.473 . S
C441 C250 1.510 . S
C439 C86 1.539 . S
C457 C104 1.506 . S
C459 C264 1.481 . S
C477 C283 1.396 . S
C475 C88 1.465 . S
C493 C94 1.501 . S
C495 C263 1.492 . S
C513 C281 1.450 . S
C511 C112 1.451 . S
C529 C70 1.587 . S
C531 C297 1.482 . S
C547 C40 1.497 . S
C549 C291 1.490 . S
C565 C49 1.507 . S
C567 C295 1.502 . S
C583 C59 1.540 . S
C585 C292 1.508 . S
C601 C34 1.505 . S
C603 C194 1.480 . S
C619 C133 1.488 . S
C621 C193 1.478 . S
C639 C157 1.395 . S
C637 C139 1.465 . S
C657 C171 1.489 . S
C655 C77 1.596 . S
C673 C43 1.526 1_545 S
C675 C208 1.495 . S
C693 C253 1.501 . S
C691 C103 1.506 . S
C711 C207 1.499 . S
C709 C85 1.505 1_545 S
C729 C239 1.446 . S
C727 C115 1.447 . S
C747 C236 1.489 . S
C745 C131 1.514 . S
C763 C142 1.489 . S
C765 C249 1.482 . S
C781 C76 1.595 . S
C783 C213 1.489 . S
C801 C227 1.389 . S
C799 C122 1.460 . S
C817 C32 1.503 . S
C819 C183 1.499 . S
C837 C197 1.459 . S
C835 C5 1.460 1_655 S
C855 C151 1.473 . S
C853 C16 1.482 . S
C873 C166 1.510 . S
C871 C23 1.539 1_455 S
C889 C14 1.506 . S
C891 C278 1.481 . S
C907 C25 1.465 . S
C909 C269 1.396 . S
C925 C31 1.502 . S
C927 C277 1.492 . S
C943 C4 1.451 1_556 S
C945 C267 1.450 . S
C963 C311 1.482 . S
C961 C79 1.587 . S
C981 C305 1.490 . S
C979 C121 1.497 1_554 S
C999 C309 1.502 . S
C997 C130 1.507 . S
C1015 C140 1.539 1_554 S
C1017 C306 1.508 . S
C1033 C97 1.505 . S
C1035 C222 1.480 . S
C1053 C221 1.478 . S
C1051 C52 1.488 . S
C1071 C241 1.395 . S
C1069 C58 1.465 . S
C1089 C255 1.489 . S
C1087 C68 1.596 . S
C1105 C124 1.526 . S
C1107 C180 1.495 . S
C1125 C169 1.501 . S
C1123 C13 1.506 . S
C1141 C22 1.505 . S
C1143 C179 1.499 . S
C1161 C155 1.446 . S
C1159 C7 1.447 1_565 S
