# Generated by pormake.
# Topology rtl, (3,6)-cn, num edge types: 1
# Building blocks:
#     Node 0, Type 0, BuildingBlock: VETTIZ_charged_linker_0, # of connection points: 3
#     Node 1, Type 0, BuildingBlock: VETTIZ_charged_linker_0, # of connection points: 3
#     Node 2, Type 0, BuildingBlock: VETTIZ_charged_linker_0, # of connection points: 3
#     Node 3, Type 0, BuildingBlock: VETTIZ_charged_linker_0, # of connection points: 3
#     Node 4, Type 1, BuildingBlock: KUMJIN_clean_sbu_1, # of connection points: 6
#     Node 5, Type 1, BuildingBlock: KUMJIN_clean_sbu_1, # of connection points: 6
#     Edge 6, Type (0, 1), BuildingBlock: KIFKEQ_clean_linker_1, # of connection points: 2
#     Edge 7, Type (0, 1), BuildingBlock: KIFKEQ_clean_linker_1, # of connection points: 2
#     Edge 8, Type (0, 1), BuildingBlock: KIFKEQ_clean_linker_1, # of connection points: 2
#     Edge 9, Type (0, 1), BuildingBlock: KIFKEQ_clean_linker_1, # of connection points: 2
#     Edge 10, Type (0, 1), BuildingBlock: KIFKEQ_clean_linker_1, # of connection points: 2
#     Edge 11, Type (0, 1), BuildingBlock: KIFKEQ_clean_linker_1, # of connection points: 2
#     Edge 12, Type (0, 1), BuildingBlock: KIFKEQ_clean_linker_1, # of connection points: 2
#     Edge 13, Type (0, 1), BuildingBlock: KIFKEQ_clean_linker_1, # of connection points: 2
#     Edge 14, Type (0, 1), BuildingBlock: KIFKEQ_clean_linker_1, # of connection points: 2
#     Edge 15, Type (0, 1), BuildingBlock: KIFKEQ_clean_linker_1, # of connection points: 2
#     Edge 16, Type (0, 1), BuildingBlock: KIFKEQ_clean_linker_1, # of connection points: 2
#     Edge 17, Type (0, 1), BuildingBlock: KIFKEQ_clean_linker_1, # of connection points: 2
# Relax obj value: 0.018
# Max RMSD: 0.096
# Mean RMSD: 0.057
data_MOF--net-rtl--node1-KUMJIN_clean_sbu_1--node2-VETTIZ_charged_linker_0--edge1-KIFKEQ_clean_linker_1
_symmetry_space_group_name_H-M    P1
_symmetry_Int_Tables_number       1
_symmetry_cell_setting            triclinic
loop_
_symmetry_equiv_pos_as_xyz
'x, y, z'
_cell_length_a     39.953045
_cell_length_b     40.609769
_cell_length_c     35.564042
_cell_angle_alpha  80.176721
_cell_angle_beta   99.413688
_cell_angle_gamma 90.550457
loop_
_atom_site_label
_atom_site_type_symbol
_atom_site_fract_x
_atom_site_fract_y
_atom_site_fract_z
_atom_type_partial_charge
C0 C 0.17512 0.8979 0.87886 0.0
C1 C 0.14666 0.91971 0.86999 0.0
C2 C 0.13165 0.9276 0.90075 0.0
C3 C 0.17219 0.89128 0.94735 0.0
C4 C 0.18698 0.88366 0.91736 0.0
C5 C 0.21466 0.85751 0.93099 0.0
H6 H 0.30184 0.74547 0.0753 0.0
C7 C 0.18968 0.87103 0.98368 0.0
C8 C 0.21434 0.85098 0.97424 0.0
H9 H 0.30625 0.76063 0.95292 0.0
H10 H 0.26689 0.80702 0.94156 0.0
H11 H 0.30083 0.82625 0.08145 0.0
H12 H 0.22076 0.75521 0.06606 0.0
H13 H 0.21296 0.77857 0.10123 0.0
H14 H 0.2506 0.75258 0.11017 0.0
H15 H 0.29342 0.79367 0.11999 0.0
H16 H 0.27045 0.83308 0.11005 0.0
C17 C 0.24838 0.87323 0.92134 0.0
C18 C 0.20406 0.8264 0.91204 0.0
C19 C 0.15341 0.88271 0.11085 0.0
C20 C 0.16394 0.86717 0.14938 0.0
C21 C 0.19103 0.84362 0.1577 0.0
C22 C 0.20677 0.8352 0.12795 0.0
C23 C 0.19533 0.85047 0.08945 0.0
C24 C 0.1693 0.87406 0.0816 0.0
C25 C 0.16029 0.88793 0.03924 0.0
C26 C 0.18529 0.86894 0.0228 0.0
C27 C 0.20568 0.84682 0.0522 0.0
C28 C 0.16718 0.92591 0.03342 0.0
C29 C 0.123 0.87888 0.02532 0.0
C30 C 0.29442 0.75909 0.04619 0.0
C31 C 0.30679 0.74924 0.01484 0.0
C32 C 0.2966 0.76744 0.97735 0.0
C33 C 0.27374 0.79441 0.97083 0.0
C34 C 0.26049 0.8032 1.00203 0.0
C35 C 0.27109 0.786 0.03906 0.0
C36 C 0.25362 0.79888 0.06836 0.0
C37 C 0.23026 0.82595 0.04253 0.0
C38 C 0.23458 0.82827 0.00377 0.0
C39 C 0.28083 0.8136 0.09677 0.0
C40 C 0.2335 0.76991 0.08783 0.0
H41 H 0.1316 0.92054 0.96116 0.0
H42 H 0.18776 0.89142 0.85635 0.0
H43 H 0.17601 0.82516 0.9041 0.0
H44 H 0.2113 0.80255 0.93182 0.0
H45 H 0.21501 0.8268 0.8852 0.0
H46 H 0.25008 0.89942 0.92684 0.0
H47 H 0.25027 0.87379 0.89042 0.0
H48 H 0.27103 0.86018 0.93955 0.0
H49 H 0.1331 0.90133 0.10346 0.0
H50 H 0.19957 0.83118 0.18713 0.0
H51 H 0.22696 0.81685 0.13601 0.0
H52 H 0.1911 0.93115 0.05216 0.0
H53 H 0.14627 0.93999 0.04104 0.0
H54 H 0.17079 0.93641 0.00366 0.0
H55 H 0.11577 0.85531 0.04287 0.0
H56 H 0.11869 0.87393 0.9953 0.0
H57 H 0.10507 0.89886 0.0277 0.0
H58 H 0.10935 0.94373 0.89515 0.0
C59 C 0.14439 0.91374 0.93925 0.0
C60 C 0.65384 0.66613 0.74008 0.0
C61 C 0.63145 0.63943 0.74564 0.0
C62 C 0.61819 0.62372 0.71425 0.0
C63 C 0.64976 0.6606 0.67244 0.0
C64 C 0.66294 0.67607 0.70327 0.0
C65 C 0.68797 0.70261 0.69218 0.0
H66 H 0.77333 0.78366 0.5541 0.0
C67 C 0.66471 0.67596 0.63844 0.0
C68 C 0.68736 0.70053 0.64972 0.0
H69 H 0.78232 0.79812 0.67295 0.0
H70 H 0.73916 0.75683 0.6838 0.0
H71 H 0.7718 0.7051 0.57144 0.0
H72 H 0.69237 0.78015 0.53842 0.0
H73 H 0.68005 0.7478 0.51237 0.0
H74 H 0.71843 0.77006 0.50524 0.0
H75 H 0.76174 0.72808 0.52312 0.0
H76 H 0.74053 0.68989 0.53838 0.0
C77 C 0.72305 0.69233 0.71693 0.0
C78 C 0.67413 0.7367 0.69738 0.0
C79 C 0.62991 0.63516 0.51033 0.0
C80 C 0.6402 0.64354 0.47392 0.0
C81 C 0.66455 0.66864 0.46888 0.0
C82 C 0.67836 0.68497 0.49938 0.0
C83 C 0.668 0.6761 0.53561 0.0
C84 C 0.64416 0.65159 0.5406 0.0
C85 C 0.63678 0.6449 0.58133 0.0
C86 C 0.65994 0.66967 0.59985 0.0
C87 C 0.67808 0.68785 0.57293 0.0
C88 C 0.64727 0.60812 0.59916 0.0
C89 C 0.59883 0.65348 0.57987 0.0
C90 C 0.76635 0.77776 0.58264 0.0
C91 C 0.78161 0.794 0.61277 0.0
C92 C 0.77094 0.78609 0.64915 0.0
C93 C 0.74603 0.76194 0.65546 0.0
C94 C 0.73154 0.7455 0.62509 0.0
C95 C 0.74167 0.75381 0.58937 0.0
C96 C 0.72369 0.73424 0.56019 0.0
C97 C 0.70125 0.71246 0.58422 0.0
C98 C 0.70585 0.71898 0.62232 0.0
C99 C 0.75063 0.71332 0.5472 0.0
C100 C 0.70264 0.75914 0.52705 0.0
H101 H 0.61599 0.62122 0.65506 0.0
H102 H 0.6646 0.67833 0.76398 0.0
H103 H 0.64625 0.73887 0.68727 0.0
H104 H 0.68496 0.75811 0.68012 0.0
H105 H 0.67895 0.73961 0.72829 0.0
H106 H 0.72744 0.66488 0.72054 0.0
H107 H 0.72481 0.69895 0.74623 0.0
H108 H 0.74436 0.70365 0.70346 0.0
H109 H 0.61108 0.61625 0.51529 0.0
H110 H 0.67351 0.67528 0.44149 0.0
H111 H 0.69686 0.70366 0.49359 0.0
H112 H 0.66783 0.59906 0.5856 0.0
H113 H 0.62552 0.59113 0.59507 0.0
H114 H 0.65802 0.60496 0.63029 0.0
H115 H 0.59101 0.67653 0.55846 0.0
H116 H 0.59314 0.6589 0.60756 0.0
H117 H 0.5824 0.63293 0.57117 0.0
H118 H 0.60088 0.60317 0.71809 0.0
C119 C 0.62703 0.63426 0.67771 0.0
C120 C 0.84387 0.11455 0.17347 0.0
C121 C 0.87041 0.09074 0.18072 0.0
C122 C 0.88331 0.0817 0.14923 0.0
C123 C 0.84387 0.12063 0.10433 0.0
C124 C 0.83128 0.12929 0.13534 0.0
C125 C 0.80474 0.15663 0.12312 0.0
H126 H 0.71625 0.27115 0.9831 0.0
C127 C 0.82618 0.14183 0.06869 0.0
C128 C 0.80346 0.1631 0.07962 0.0
H129 H 0.71359 0.25307 0.10605 0.0
H130 H 0.75343 0.20751 0.11535 0.0
H131 H 0.79645 0.2612 0.98956 0.0
H132 H 0.7158 0.19072 0.97527 0.0
H133 H 0.74439 0.18549 0.94393 0.0
H134 H 0.72179 0.22476 0.93766 0.0
H135 H 0.76725 0.26333 0.94506 0.0
H136 H 0.80492 0.2371 0.95544 0.0
C137 C 0.81799 0.18718 0.14174 0.0
C138 C 0.77092 0.14248 0.13455 0.0
C139 C 0.85398 0.12805 0.93786 0.0
C140 C 0.84331 0.14509 0.89998 0.0
C141 C 0.81954 0.1717 0.89381 0.0
C142 C 0.80641 0.18098 0.92488 0.0
C143 C 0.81742 0.16372 0.96264 0.0
C144 C 0.84096 0.13783 0.96858 0.0
C145 C 0.85096 0.1232 0.0107 0.0
C146 C 0.82892 0.14394 0.02903 0.0
C147 C 0.80924 0.16766 1.0008 0.0
C148 C 0.88931 0.12929 0.02281 0.0
C149 C 0.84114 0.08593 0.01647 0.0
C150 C 0.72413 0.25715 0.01193 0.0
C151 C 0.71211 0.26615 0.04399 0.0
C152 C 0.72302 0.24727 0.08102 0.0
C153 C 0.74608 0.22059 0.08636 0.0
C154 C 0.7586 0.21245 0.0544 0.0
C155 C 0.74736 0.23026 0.01784 0.0
C156 C 0.76348 0.21751 0.98744 0.0
C157 C 0.7865 0.18952 0.012 0.0
C158 C 0.7835 0.18692 0.05116 0.0
C159 C 0.78399 0.24617 0.96798 0.0
C160 C 0.73505 0.20404 0.95927 0.0
H161 H 0.88094 0.0885 0.08833 0.0
H162 H 0.83388 0.12249 0.1971 0.0
H163 H 0.76867 0.11556 0.13211 0.0
H164 H 0.74832 0.15464 0.11522 0.0
H165 H 0.76923 0.14466 0.16489 0.0
H166 H 0.84609 0.18872 0.14455 0.0
H167 H 0.8114 0.18551 0.17116 0.0
H168 H 0.80852 0.21135 0.12411 0.0
H169 H 0.87276 0.10797 0.94363 0.0
H170 H 0.81093 0.18516 0.86485 0.0
H171 H 0.78835 0.20137 0.91833 0.0
H172 H 0.89755 0.15234 0.00519 0.0
H173 H 0.90506 0.10812 0.01893 0.0
H174 H 0.89568 0.13359 0.053 0.0
H175 H 0.81567 0.0827 0.99956 0.0
H176 H 0.83919 0.07549 0.04677 0.0
H177 H 0.85966 0.0705 0.00656 0.0
H178 H 0.90373 0.06331 0.15419 0.0
C179 C 0.87005 0.09636 0.11107 0.0
C180 C 0.36518 0.34456 0.33342 0.0
C181 C 0.38813 0.37097 0.32885 0.0
C182 C 0.40094 0.38601 0.36103 0.0
C183 C 0.36723 0.34977 0.40089 0.0
C184 C 0.35487 0.33458 0.36959 0.0
C185 C 0.32939 0.30812 0.37946 0.0
H186 H 0.23688 0.22942 0.51164 0.0
C187 C 0.35061 0.33486 0.43381 0.0
C188 C 0.32813 0.31052 0.42148 0.0
H189 H 0.23727 0.20988 0.39591 0.0
H190 H 0.27883 0.25296 0.38605 0.0
H191 H 0.31812 0.2338 0.533 0.0
H192 H 0.23749 0.30684 0.49223 0.0
H193 H 0.26726 0.32465 0.52452 0.0
H194 H 0.24655 0.28665 0.54182 0.0
H195 H 0.28851 0.24349 0.5626 0.0
H196 H 0.32696 0.2666 0.55932 0.0
C197 C 0.34385 0.27393 0.37543 0.0
C198 C 0.29505 0.31821 0.35298 0.0
C199 C 0.37959 0.37636 0.5624 0.0
C200 C 0.36613 0.36946 0.59698 0.0
C201 C 0.34001 0.34612 0.60001 0.0
C202 C 0.3276 0.32965 0.56917 0.0
C203 C 0.34118 0.33681 0.53467 0.0
C204 C 0.3665 0.36006 0.53156 0.0
C205 C 0.37634 0.36593 0.49188 0.0
C206 C 0.35336 0.34171 0.47208 0.0
C207 C 0.33309 0.32459 0.4974 0.0
C208 C 0.41427 0.35596 0.49623 0.0
C209 C 0.36773 0.40291 0.47316 0.0
C210 C 0.24612 0.23394 0.48427 0.0
C211 C 0.23372 0.21589 0.45467 0.0
C212 C 0.24606 0.22351 0.41919 0.0
C213 C 0.27039 0.24841 0.41358 0.0
C214 C 0.28261 0.26599 0.44374 0.0
C215 C 0.27047 0.2584 0.47837 0.0
C216 C 0.28644 0.27886 0.50766 0.0
C217 C 0.31031 0.30007 0.4851 0.0
C218 C 0.30796 0.29274 0.4475 0.0
C219 C 0.30591 0.25466 0.54273 0.0
C220 C 0.25815 0.30028 0.51748 0.0
H221 H 0.40145 0.3881 0.42009 0.0
H222 H 0.3548 0.33264 0.30915 0.0
H223 H 0.29001 0.34551 0.35003 0.0
H224 H 0.27324 0.30596 0.36456 0.0
H225 H 0.29507 0.31245 0.32355 0.0
H226 H 0.37171 0.27216 0.38584 0.0
H227 H 0.3394 0.27031 0.34475 0.0
H228 H 0.33322 0.25268 0.39317 0.0
H229 H 0.39927 0.39467 0.5591 0.0
H230 H 0.32936 0.34045 0.62646 0.0
H231 H 0.30779 0.31208 0.5734 0.0
H232 H 0.42021 0.33249 0.51755 0.0
H233 H 0.43089 0.37574 0.50664 0.0
H234 H 0.42148 0.35069 0.46916 0.0
H235 H 0.34691 0.41317 0.48532 0.0
H236 H 0.35812 0.40595 0.44176 0.0
H237 H 0.39007 0.41904 0.47809 0.0
H238 H 0.41898 0.40603 0.3584 0.0
C239 C 0.39076 0.37551 0.39691 0.0
Eu240 Eu 0.02808 0.97094 0.51037 0.0
C241 C 0.92566 0.08662 0.4742 0.0
N242 N 0.95849 0.08746 0.49143 0.0
C243 C 0.96716 0.13711 0.44723 0.0
C244 C 0.91261 0.11035 0.44145 0.0
C245 C 0.97899 0.11288 0.47954 0.0
C246 C 0.93396 0.13557 0.42776 0.0
C247 C 0.87054 0.06127 0.47361 0.0
C248 C 0.90507 0.06229 0.49 0.0
C249 C 0.85766 0.08394 0.43997 0.0
C250 C 0.87866 0.10844 0.42392 0.0
Eu251 Eu 0.97758 0.04443 0.54397 0.0
N252 N 0.91831 0.04094 0.52269 0.0
C253 C 0.84976 0.03823 0.49226 0.0
C254 C 0.8975 0.02048 0.54267 0.0
C255 C 0.86318 0.01821 0.52736 0.0
H256 H 0.00476 0.11377 0.49444 0.0
H257 H 0.84701 1.00133 0.5429 0.0
H258 H 0.97891 0.90268 0.5243 0.0
H259 H 0.16341 0.9796 0.56144 0.0
H260 H 0.90711 0.00614 0.57073 0.0
H261 H 0.82309 0.03664 0.48063 0.0
H262 H 0.10803 0.99609 0.51981 0.0
H263 H 0.98367 0.15682 0.43726 0.0
H264 H 0.83129 0.08328 0.42672 0.0
H265 H 0.86821 0.12621 0.39846 0.0
H266 H 0.97821 0.85109 0.57196 0.0
H267 H 0.92489 0.15428 0.40266 0.0
H268 H 0.1674 0.93013 0.61354 0.0
N269 N 0.02619 0.91867 0.5516 0.0
C270 C 0.05471 0.90927 0.57772 0.0
C271 C 0.99967 0.86752 0.57439 0.0
C272 C 0.05617 0.87918 0.60453 0.0
C273 C 0.99975 0.89727 0.54798 0.0
C274 C 0.02775 0.85875 0.60332 0.0
N275 N 0.08145 0.95676 0.54883 0.0
C276 C 0.1098 0.97448 0.54253 0.0
C277 C 0.11425 0.91828 0.60029 0.0
C278 C 0.08341 0.92851 0.57576 0.0
C279 C 0.1432 0.93721 0.59533 0.0
C280 C 0.14105 0.96517 0.56595 0.0
H281 H 0.02782 0.83546 0.62341 0.0
H282 H 0.08778 0.84697 0.6516 0.0
H283 H 0.13866 0.88123 0.64786 0.0
O284 O 0.04883 0.98034 0.45643 0.0
O285 O 0.04966 0.99066 0.56555 0.0
O286 O 1.00113 1.00077 0.58788 0.0
O287 O 0.03791 0.92993 0.48086 0.0
O288 O 0.046 0.02391 0.49284 0.0
O289 O 0.03281 0.05479 0.53817 0.0
O290 O 0.95086 0.0663 0.58339 0.0
O291 O 0.98233 0.0451 0.481 0.0
O292 O 0.97706 0.99007 0.47673 0.0
O293 O 1.00116 0.08233 0.57565 0.0
O294 O 0.96403 0.99034 0.56519 0.0
O295 O 0.97224 0.96258 0.51582 0.0
C296 C 0.03346 0.99298 0.59427 0.0
C297 C 0.03074 0.94369 0.41308 0.0
C298 C 0.03525 0.93136 0.34926 0.0
C299 C 0.99966 0.93405 0.33935 0.0
C300 C 0.99534 0.94591 0.40279 0.0
C301 C 0.97992 0.94128 0.366 0.0
C302 C 0.05061 0.93637 0.38637 0.0
C303 C 0.05068 0.04948 0.51153 0.0
C304 C 0.04711 0.94934 0.45144 0.0
C305 C 0.08632 0.8698 0.63053 0.0
C306 C 0.11533 0.88926 0.62835 0.0
C307 C 0.97178 0.02154 0.46122 0.0
C308 C 0.98768 0.07809 0.63863 0.0
C309 C 0.97482 0.08091 0.70307 0.0
C310 C 0.00776 0.06844 0.71923 0.0
C311 C 0.02032 0.06547 0.65569 0.0
C312 C 0.96503 0.08576 0.66249 0.0
C313 C 0.03019 0.06074 0.69569 0.0
C314 C 0.95682 0.96601 0.54506 0.0
C315 C 0.97709 0.08286 0.59616 0.0
H316 H 0.98701 0.92998 0.31122 0.0
H317 H 0.97969 0.95109 0.42328 0.0
H318 H 0.95257 0.94308 0.35818 0.0
H319 H 0.078 0.93493 0.39438 0.0
H320 H 0.01646 0.06504 0.75014 0.0
H321 H 0.03829 0.05914 0.63819 0.0
H322 H 0.93971 0.09501 0.64944 0.0
H323 H 0.0554 0.05108 0.70851 0.0
Eu324 Eu 0.47017 0.4856 0.99549 0.0
C325 C 0.61254 0.53966 0.04592 0.0
N326 N 0.59748 0.51231 0.06323 0.0
C327 C 0.64831 0.4797 0.06842 0.0
C328 C 0.64574 0.53763 0.03765 0.0
C329 C 0.61562 0.48319 0.07669 0.0
C330 C 0.66321 0.50688 0.04814 0.0
C331 C 0.61146 0.59968 0.02391 0.0
C332 C 0.59567 0.57031 0.03902 0.0
C333 C 0.64385 0.59752 0.01392 0.0
C334 C 0.66091 0.56654 0.02066 0.0
Eu335 Eu 0.54111 0.52041 0.07326 0.0
N336 N 0.56412 0.57157 0.04829 0.0
C337 C 0.59444 0.63039 0.02 0.0
C338 C 0.54804 0.60146 0.04635 0.0
C339 C 0.56278 0.63131 0.03177 0.0
H340 H 0.60526 0.46275 0.09452 0.0
H341 H 0.54972 0.65496 0.02953 0.0
H342 H 0.39948 0.5229 0.0065 0.0
H343 H 0.49947 0.35161 0.01298 0.0
H344 H 0.52361 0.60208 0.05556 0.0
H345 H 0.60575 0.65354 0.0086 0.0
H346 H 0.50502 0.41136 0.98786 0.0
H347 H 0.66221 0.45624 0.07835 0.0
H348 H 0.65623 0.61974 1.00178 0.0
H349 H 0.68625 0.56538 0.01376 0.0
H350 H 0.34736 0.50826 0.0347 0.0
H351 H 0.68873 0.50426 0.04226 0.0
H352 H 0.45334 0.33283 0.04984 0.0
N353 N 0.41944 0.47326 0.02035 0.0
C354 C 0.41423 0.44072 0.03438 0.0
C355 C 0.36606 0.48907 0.03499 0.0
C356 C 0.38515 0.43123 0.05099 0.0
C357 C 0.39546 0.4973 0.01909 0.0
C358 C 0.36107 0.45596 0.05146 0.0
N359 N 0.46499 0.42699 0.01403 0.0
C360 C 0.48589 0.40384 0.00557 0.0
C361 C 0.43311 0.38287 0.04548 0.0
C362 C 0.43802 0.41697 0.03175 0.0
C363 C 0.4562 0.35927 0.03973 0.0
C364 C 0.48234 0.36977 0.01904 0.0
H365 H 0.33837 0.44968 0.06395 0.0
H366 H 0.35891 0.38971 0.07942 0.0
H367 H 0.40086 0.34731 0.07451 0.0
O368 O 0.45089 0.46402 0.94383 0.0
O369 O 0.46199 0.48646 0.05722 0.0
O370 O 0.51436 0.47237 0.09192 0.0
O371 O 0.43989 0.51566 0.94503 0.0
O372 O 0.52404 0.46463 1.00322 0.0
O373 O 0.54555 0.46555 0.06737 0.0
O374 O 0.52641 0.54031 0.12164 0.0
O375 O 0.53199 0.54676 0.01012 0.0
O376 O 0.51998 0.50311 0.97759 0.0
O377 O 0.57754 0.52189 0.12589 0.0
O378 O 0.48873 0.54478 0.06279 0.0
O379 O 0.46495 0.54046 0.99974 0.0
C380 C 0.48126 0.47069 0.08832 0.0
C381 C 0.44936 0.50224 0.88541 0.0
C382 C 0.44843 0.49233 0.81918 0.0
C383 C 0.46818 0.52099 0.81221 0.0
C384 C 0.46944 0.53042 0.87776 0.0
C385 C 0.47876 0.53964 0.84138 0.0
C386 C 0.43925 0.48313 0.8562 0.0
C387 C 0.54488 0.45305 0.0354 0.0
C388 C 0.43899 0.49249 0.92372 0.0
C389 C 0.3809 0.39748 0.06615 0.0
C390 C 0.40485 0.37335 0.06344 0.0
C391 C 0.53278 0.5327 0.97964 0.0
C392 C 0.55478 0.51678 0.18355 0.0
C393 C 0.56279 0.51911 0.25263 0.0
C394 C 0.55396 0.48521 0.25986 0.0
C395 C 0.54626 0.48304 0.19134 0.0
C396 C 0.56279 0.53473 0.21407 0.0
C397 C 0.54565 0.46742 0.22935 0.0
C398 C 0.4673 0.5549 0.03059 0.0
C399 C 0.55565 0.53361 0.1438 0.0
H400 H 0.47511 0.52945 0.78402 0.0
H401 H 0.47785 0.54544 0.8998 0.0
H402 H 0.49404 0.56152 0.83567 0.0
H403 H 0.42451 0.46096 0.86263 0.0
H404 H 0.5541 0.47222 0.28912 0.0
H405 H 0.54033 0.46882 0.16809 0.0
H406 H 0.56887 0.56095 0.20763 0.0
H407 H 0.53907 0.44133 0.23524 0.0
H408 H 0.23025 0.17129 0.52105 0.0
H409 H 0.17892 0.20026 0.40327 0.0
H410 H 0.186 0.13134 0.53382 0.0
H411 H 0.13509 0.15928 0.41599 0.0
H412 H 0.08331 0.05687 0.44864 0.0
H413 H 0.12793 0.09616 0.43358 0.0
H414 H 0.12363 0.13555 0.53804 0.0
H415 H 0.07901 0.09648 0.55314 0.0
C416 C 0.2095 0.16928 0.49785 0.0
C417 C 0.20803 0.18946 0.46122 0.0
C418 C 0.18419 0.14625 0.50521 0.0
C419 C 0.15691 0.1424 0.47604 0.0
C420 C 0.15592 0.16161 0.43901 0.0
C421 C 0.18112 0.185 0.43171 0.0
C422 C 0.09188 0.07389 0.46843 0.0
C423 C 0.07761 0.07344 0.50218 0.0
C424 C 0.1173 0.09651 0.45965 0.0
C425 C 0.12935 0.11884 0.48468 0.0
C426 C 0.1151 0.1184 0.51838 0.0
C427 C 0.08939 0.09612 0.52692 0.0
H428 H 0.29896 0.69762 0.97498 0.0
H429 H 0.36536 0.73395 0.0668 0.0
H430 H 0.33735 0.65031 0.98026 0.0
H431 H 0.40475 0.6871 0.07138 0.0
H432 H 0.45322 0.58247 0.09141 0.0
H433 H 0.4138 0.62831 0.08959 0.0
H434 H 0.39072 0.63861 0.96501 0.0
H435 H 0.42909 0.59203 0.96703 0.0
C436 C 0.32196 0.69547 0.99622 0.0
C437 C 0.32938 0.71951 0.02029 0.0
C438 C 0.34411 0.66848 0.9991 0.0
C439 C 0.37449 0.66505 0.02585 0.0
C440 C 0.38148 0.68874 0.05066 0.0
C441 C 0.35902 0.71562 0.04805 0.0
C442 C 0.43975 0.59457 0.06362 0.0
C443 C 0.44421 0.58349 0.02936 0.0
C444 C 0.41724 0.62099 0.06256 0.0
C445 C 0.39887 0.63716 0.02719 0.0
C446 C 0.40382 0.62634 0.9929 0.0
C447 C 0.42604 0.59972 0.99399 0.0
H448 H 0.83357 0.78963 0.57244 0.0
H449 H 0.79093 0.85456 0.63746 0.0
H450 H 0.87553 0.83143 0.55707 0.0
H451 H 0.83322 0.89653 0.62212 0.0
H452 H 0.93638 0.94908 0.61546 0.0
H453 H 0.89457 0.90754 0.63365 0.0
H454 H 0.87655 0.88649 0.51707 0.0
H455 H 0.91828 0.92789 0.49901 0.0
C456 C 0.83303 0.81292 0.58333 0.0
C457 C 0.80859 0.81885 0.60585 0.0
C458 C 0.85711 0.83692 0.57447 0.0
C459 C 0.85752 0.86751 0.58797 0.0
C460 C 0.83374 0.87314 0.61146 0.0
C461 C 0.80953 0.84907 0.6203 0.0
C462 C 0.92331 0.93569 0.5937 0.0
C463 C 0.93079 0.94155 0.55588 0.0
C464 C 0.89931 0.91195 0.6041 0.0
C465 C 0.88237 0.8935 0.57691 0.0
C466 C 0.88957 0.8998 0.53894 0.0
C467 C 0.91342 0.92358 0.52853 0.0
H468 H 0.65637 0.28448 0.98803 0.0
H469 H 0.71471 0.31354 0.09016 0.0
H470 H 0.61543 0.32981 0.9846 0.0
H471 H 0.67395 0.35849 0.08683 0.0
H472 H 0.57419 0.40717 0.09693 0.0
H473 H 0.61486 0.36271 0.09701 0.0
H474 H 0.60951 0.3917 0.9735 0.0
H475 H 0.5688 0.43626 0.97346 0.0
C476 C 0.66067 0.30076 0.00943 0.0
C477 C 0.68854 0.29515 0.03964 0.0
C478 C 0.63722 0.32667 0.00752 0.0
C479 C 0.64121 0.34742 0.03578 0.0
C480 C 0.6697 0.34244 0.06517 0.0
C481 C 0.69308 0.31669 0.06704 0.0
C482 C 0.58183 0.40412 0.06984 0.0
C483 C 0.56862 0.42537 0.03528 0.0
C484 C 0.60515 0.37872 0.06987 0.0
C485 C 0.61561 0.37386 0.03529 0.0
C486 C 0.60179 0.39466 1.00055 0.0
C487 C 0.57855 0.4202 1.00056 0.0
H488 H 0.0958 0.87502 0.14646 0.0
H489 H 0.19165 0.87754 0.22231 0.0
H490 H 0.06626 0.89102 0.19536 0.0
H491 H 0.16192 0.89362 0.27155 0.0
H492 H 0.08991 0.88815 0.36287 0.0
H493 H 0.12216 0.87241 0.31573 0.0
H494 H 0.0599 0.93998 0.22472 0.0
H495 H 0.02775 0.95568 0.27172 0.0
C496 C 0.11061 0.87922 0.17352 0.0
C497 C 0.14613 0.87532 0.18033 0.0
C498 C 0.09366 0.88844 0.20156 0.0
C499 C 0.11174 0.89398 0.23721 0.0
C500 C 0.14723 0.88934 0.24446 0.0
C501 C 0.16425 0.88009 0.2163 0.0
C502 C 0.0834 0.89994 0.33286 0.0
C503 C 0.05608 0.92299 0.32101 0.0
C504 C 0.10187 0.8909 0.30585 0.0
C505 C 0.09341 0.9047 0.26641 0.0
C506 C 0.06662 0.92834 0.25476 0.0
C507 C 0.04819 0.93736 0.2817 0.0
H508 H 0.59313 0.67089 0.78618 0.0
H509 H 0.64783 0.57911 0.79024 0.0
H510 H 0.57024 0.64615 0.8442 0.0
H511 H 0.62676 0.55472 0.84922 0.0
H512 H 0.55074 0.50564 0.92062 0.0
H513 H 0.57627 0.53308 0.86654 0.0
H514 H 0.57826 0.6258 0.9112 0.0
H515 H 0.54989 0.59867 0.96367 0.0
C516 C 0.6009 0.6457 0.80023 0.0
C517 C 0.62211 0.62679 0.78396 0.0
C518 C 0.5879 0.63146 0.8335 0.0
C519 C 0.59619 0.59815 0.85133 0.0
C520 C 0.61896 0.58005 0.83586 0.0
C521 C 0.63143 0.59408 0.80234 0.0
C522 C 0.55656 0.53191 0.91895 0.0
C523 C 0.54892 0.5498 0.94707 0.0
C524 C 0.57166 0.54764 0.88805 0.0
C525 C 0.58005 0.58166 0.88461 0.0
C526 C 0.57217 0.59963 0.91267 0.0
C527 C 0.55645 0.58394 0.94326 0.0
H528 H 0.93749 0.08562 0.21236 0.0
H529 H 0.83733 0.0653 0.24034 0.0
H530 H 0.96218 0.06744 0.28036 0.0
H531 H 0.86203 0.04717 0.30835 0.0
H532 H 0.92581 0.98636 0.41932 0.0
H533 H 0.90153 1.00079 0.35062 0.0
H534 H 0.9593 0.09141 0.3421 0.0
H535 H 0.98375 0.07684 0.41056 0.0
C536 C 0.92084 0.0768 0.23297 0.0
C537 C 0.88552 0.07686 0.22115 0.0
C538 C 0.93491 0.06672 0.27187 0.0
C539 C 0.91396 0.05609 0.29957 0.0
C540 C 0.87874 0.05511 0.28755 0.0
C541 C 0.86463 0.06562 0.24874 0.0
C542 C 0.93337 0.00927 0.40264 0.0
C543 C 0.95669 0.03046 0.42009 0.0
C544 C 0.91936 0.0176 0.36349 0.0
C545 C 0.92871 0.04711 0.34107 0.0
C546 C 0.95198 0.06832 0.35862 0.0
C547 C 0.9657 0.06015 0.39782 0.0
H548 H 0.43147 0.37375 0.63255 0.0
H549 H 0.32892 0.40439 0.63488 0.0
H550 H 0.45189 0.40112 0.68774 0.0
H551 H 0.34913 0.43354 0.68844 0.0
H552 H 0.38852 0.459 0.80517 0.0
H553 H 0.37004 0.42749 0.75371 0.0
H554 H 0.46272 0.45185 0.70786 0.0
H555 H 0.48263 0.48049 0.76147 0.0
C556 C 0.4134 0.38676 0.6447 0.0
C557 C 0.37868 0.38694 0.62967 0.0
C558 C 0.42505 0.40265 0.67621 0.0
C559 C 0.40226 0.41969 0.69288 0.0
C560 C 0.36747 0.4201 0.67723 0.0
C561 C 0.35582 0.40364 0.64628 0.0
C562 C 0.40537 0.45706 0.78469 0.0
C563 C 0.43713 0.47255 0.78773 0.0
C564 C 0.39444 0.43942 0.75455 0.0
C565 C 0.41462 0.43725 0.72607 0.0
C566 C 0.4465 0.4525 0.7293 0.0
C567 C 0.45771 0.46958 0.75986 0.0
H568 H 0.62513 0.57707 0.47761 0.0
H569 H 0.62383 0.66969 0.39668 0.0
H570 H 0.60444 0.54773 0.42423 0.0
H571 H 0.60404 0.64003 0.34335 0.0
H572 H 0.61248 0.56574 0.25966 0.0
H573 H 0.62878 0.59649 0.31268 0.0
H574 H 0.55282 0.54533 0.37308 0.0
H575 H 0.53566 0.51511 0.31949 0.0
C576 C 0.62008 0.59129 0.44855 0.0
C577 C 0.62633 0.62579 0.44153 0.0
C578 C 0.60831 0.57441 0.41796 0.0
C579 C 0.6028 0.59156 0.37962 0.0
C580 C 0.60855 0.62607 0.37257 0.0
C581 C 0.62001 0.64302 0.40316 0.0
C582 C 0.59879 0.56137 0.28387 0.0
C583 C 0.57262 0.53795 0.28511 0.0
C584 C 0.60824 0.57896 0.31433 0.0
C585 C 0.59204 0.57335 0.34698 0.0
C586 C 0.56598 0.54992 0.34842 0.0
C587 C 0.55626 0.53253 0.31775 0.0
H588 H 0.85027 0.08249 0.88374 0.0
H589 H 0.86918 0.18615 0.84288 0.0
H590 H 0.87758 0.06622 0.83305 0.0
H591 H 0.89767 0.17001 0.79294 0.0
H592 H 0.92947 0.13378 0.69062 0.0
H593 H 0.89338 0.14835 0.73462 0.0
H594 H 0.93241 0.06199 0.81879 0.0
H595 H 0.96655 0.04634 0.774 0.0
C596 C 0.86036 0.10179 0.86387 0.0
C597 C 0.85777 0.13556 0.86737 0.0
C598 C 0.87617 0.09249 0.83489 0.0
C599 C 0.89026 0.11672 0.80899 0.0
C600 C 0.88679 0.15063 0.81192 0.0
C601 C 0.87056 0.15994 0.84065 0.0
C602 C 0.92981 0.11753 0.7182 0.0
C603 C 0.9512 0.089 0.72879 0.0
C604 C 0.90943 0.12615 0.7437 0.0
C605 C 0.91003 0.10653 0.78052 0.0
C606 C 0.93083 0.07757 0.79062 0.0
C607 C 0.95092 0.06884 0.76506 0.0
H608 H 0.41099 0.33528 0.27881 0.0
H609 H 0.38876 0.43574 0.29322 0.0
H610 H 0.43183 0.35755 0.21839 0.0
H611 H 0.40956 0.45789 0.23334 0.0
H612 H 0.42012 0.4851 0.10671 0.0
H613 H 0.39483 0.45871 0.16209 0.0
H614 H 0.48208 0.39234 0.20035 0.0
H615 H 0.50709 0.41841 0.14431 0.0
C616 C 0.41023 0.36204 0.26883 0.0
C617 C 0.39842 0.38379 0.29078 0.0
C618 C 0.42238 0.37479 0.23449 0.0
C619 C 0.42238 0.40948 0.22115 0.0
C620 C 0.40964 0.43106 0.24263 0.0
C621 C 0.39796 0.41838 0.27707 0.0
C622 C 0.43368 0.46458 0.12665 0.0
C623 C 0.4656 0.45386 0.12126 0.0
C624 C 0.41932 0.44963 0.15852 0.0
C625 C 0.4365 0.42351 0.18568 0.0
C626 C 0.46809 0.41222 0.17976 0.0
C627 C 0.48255 0.42734 0.14793 0.0
H628 H 0.11471 0.98061 0.83951 0.0
H629 H 0.14425 0.88847 0.80683 0.0
H630 H 0.08752 1.00015 0.77278 0.0
H631 H 0.11919 0.90941 0.74002 0.0
H632 H 0.10179 0.98572 0.62003 0.0
H633 H 0.13054 0.96869 0.6867 0.0
H634 H 0.03441 0.969 0.7269 0.0
H635 H 0.0053 0.98376 0.66017 0.0
C636 C 0.11557 0.96451 0.81836 0.0
C637 C 0.13179 0.93284 0.82893 0.0
C638 C 0.10025 0.97591 0.78014 0.0
C639 C 0.10159 0.95626 0.75161 0.0
C640 C 0.11829 0.92508 0.76166 0.0
C641 C 0.13288 0.9133 0.79995 0.0
C642 C 0.08673 0.9814 0.64293 0.0
C643 C 0.05124 0.98503 0.63466 0.0
C644 C 0.1032 0.97213 0.68103 0.0
C645 C 0.08452 0.96754 0.71158 0.0
C646 C 0.04923 0.97247 0.70363 0.0
C647 C 0.03267 0.98084 0.66547 0.0
loop_
_geom_bond_atom_site_label_1
_geom_bond_atom_site_label_2
_geom_bond_distance
_geom_bond_site_symmetry_2
_ccdc_geom_bond_type
C0 C1 1.391 . S
C0 C4 1.391 . S
C0 H42 0.948 . S
C1 C0 1.391 . S
C1 C2 1.391 . S
C2 C1 1.391 . S
C2 H58 0.947 . S
C2 C59 1.392 . S
C3 C4 1.391 . S
C3 C7 1.397 . S
C3 C59 1.419 . S
C4 C0 1.391 . S
C4 C3 1.391 . S
C4 C5 1.399 . S
C5 C4 1.399 . S
C5 C8 1.396 . S
C5 C17 1.453 . S
C5 C18 1.684 . S
H6 C30 0.948 . S
C7 C3 1.397 . S
C7 C8 1.394 . S
C7 C26 1.723 1_556 S
C8 C5 1.396 . S
C8 C7 1.394 . S
C8 C38 1.723 1_556 S
H9 C32 0.947 . S
H10 C33 0.948 . S
H11 C39 0.982 . S
H12 C40 0.979 . S
H13 C40 0.980 . S
H14 C40 0.983 . S
H15 C39 0.979 . S
H16 C39 0.977 . S
C17 C5 1.453 . S
C17 H46 0.982 . S
C17 H47 0.979 . S
C17 H48 0.977 . S
C18 C5 1.684 . S
C18 H43 0.979 . S
C18 H44 0.980 . S
C18 H45 0.983 . S
C19 C20 1.391 . S
C19 C24 1.391 . S
C19 H49 0.948 . S
C20 C19 1.391 . S
C20 C21 1.391 . S
C21 C20 1.391 . S
C21 C22 1.392 . S
C21 H50 0.947 . S
C22 C21 1.392 . S
C22 C23 1.419 . S
C22 H51 0.948 . S
C23 C22 1.419 . S
C23 C24 1.391 . S
C23 C27 1.397 . S
C24 C19 1.391 . S
C24 C23 1.391 . S
C24 C25 1.399 . S
C25 C24 1.399 . S
C25 C26 1.396 . S
C25 C28 1.453 . S
C25 C29 1.684 . S
C26 C7 1.723 1_554 S
C26 C25 1.396 . S
C26 C27 1.394 . S
C27 C23 1.397 . S
C27 C26 1.394 . S
C27 C37 1.723 . S
C28 C25 1.453 . S
C28 H52 0.982 . S
C28 H53 0.979 . S
C28 H54 0.977 1_554 S
C29 C25 1.684 . S
C29 H55 0.979 . S
C29 H56 0.980 1_554 S
C29 H57 0.983 . S
C30 H6 0.948 . S
C30 C31 1.391 . S
C30 C35 1.391 . S
C31 C30 1.391 . S
C31 C32 1.391 1_554 S
C32 H9 0.947 . S
C32 C31 1.391 1_556 S
C32 C33 1.392 . S
C33 H10 0.948 . S
C33 C32 1.392 . S
C33 C34 1.419 1_556 S
C34 C33 1.419 1_554 S
C34 C35 1.391 . S
C34 C38 1.397 . S
C35 C30 1.391 . S
C35 C34 1.391 . S
C35 C36 1.399 . S
C36 C35 1.399 . S
C36 C37 1.396 . S
C36 C39 1.453 . S
C36 C40 1.684 . S
C37 C27 1.723 . S
C37 C36 1.396 . S
C37 C38 1.394 . S
C38 C8 1.723 1_554 S
C38 C34 1.397 . S
C38 C37 1.394 . S
C39 H11 0.982 . S
C39 H15 0.979 . S
C39 H16 0.977 . S
C39 C36 1.453 . S
C40 H12 0.979 . S
C40 H13 0.980 . S
C40 H14 0.983 . S
C40 C36 1.684 . S
H41 C59 0.948 . S
H42 C0 0.948 . S
H43 C18 0.979 . S
H44 C18 0.980 . S
H45 C18 0.983 . S
H46 C17 0.982 . S
H47 C17 0.979 . S
H48 C17 0.977 . S
H49 C19 0.948 . S
H50 C21 0.947 . S
H51 C22 0.948 . S
H52 C28 0.982 . S
H53 C28 0.979 . S
H54 C28 0.977 1_556 S
H55 C29 0.979 . S
H56 C29 0.980 1_556 S
H57 C29 0.983 . S
H58 C2 0.947 . S
C59 C2 1.392 . S
C59 C3 1.419 . S
C59 H41 0.948 . S
C60 C61 1.391 . S
C60 C64 1.391 . S
C60 H102 0.948 . S
C61 C60 1.391 . S
C61 C62 1.391 . S
C62 C61 1.391 . S
C62 H118 0.947 . S
C62 C119 1.392 . S
C63 C64 1.391 . S
C63 C67 1.397 . S
C63 C119 1.419 . S
C64 C60 1.391 . S
C64 C63 1.391 . S
C64 C65 1.399 . S
C65 C64 1.399 . S
C65 C68 1.396 . S
C65 C77 1.453 . S
C65 C78 1.684 . S
H66 C90 0.948 . S
C67 C63 1.397 . S
C67 C68 1.394 . S
C67 C86 1.723 . S
C68 C65 1.396 . S
C68 C67 1.394 . S
C68 C98 1.723 . S
H69 C92 0.947 . S
H70 C93 0.948 . S
H71 C99 0.982 . S
H72 C100 0.979 . S
H73 C100 0.980 . S
H74 C100 0.983 . S
H75 C99 0.979 . S
H76 C99 0.977 . S
C77 C65 1.453 . S
C77 H106 0.982 . S
C77 H107 0.979 . S
C77 H108 0.977 . S
C78 C65 1.684 . S
C78 H103 0.979 . S
C78 H104 0.980 . S
C78 H105 0.983 . S
C79 C80 1.391 . S
C79 C84 1.391 . S
C79 H109 0.948 . S
C80 C79 1.391 . S
C80 C81 1.391 . S
C81 C80 1.391 . S
C81 C82 1.392 . S
C81 H110 0.947 . S
C82 C81 1.392 . S
C82 C83 1.419 . S
C82 H111 0.948 . S
C83 C82 1.419 . S
C83 C84 1.391 . S
C83 C87 1.397 . S
C84 C79 1.391 . S
C84 C83 1.391 . S
C84 C85 1.399 . S
C85 C84 1.399 . S
C85 C86 1.396 . S
C85 C88 1.453 . S
C85 C89 1.684 . S
C86 C67 1.723 . S
C86 C85 1.396 . S
C86 C87 1.394 . S
C87 C83 1.397 . S
C87 C86 1.394 . S
C87 C97 1.723 . S
C88 C85 1.453 . S
C88 H112 0.982 . S
C88 H113 0.979 . S
C88 H114 0.977 . S
C89 C85 1.684 . S
C89 H115 0.979 . S
C89 H116 0.980 . S
C89 H117 0.983 . S
C90 H66 0.948 . S
C90 C91 1.391 . S
C90 C95 1.391 . S
C91 C90 1.391 . S
C91 C92 1.391 . S
C92 H69 0.947 . S
C92 C91 1.391 . S
C92 C93 1.392 . S
C93 H70 0.948 . S
C93 C92 1.392 . S
C93 C94 1.419 . S
C94 C93 1.419 . S
C94 C95 1.391 . S
C94 C98 1.397 . S
C95 C90 1.391 . S
C95 C94 1.391 . S
C95 C96 1.399 . S
C96 C95 1.399 . S
C96 C97 1.396 . S
C96 C99 1.453 . S
C96 C100 1.684 . S
C97 C87 1.723 . S
C97 C96 1.396 . S
C97 C98 1.394 . S
C98 C68 1.723 . S
C98 C94 1.397 . S
C98 C97 1.394 . S
C99 H71 0.982 . S
C99 H75 0.979 . S
C99 H76 0.977 . S
C99 C96 1.453 . S
C100 H72 0.979 . S
C100 H73 0.980 . S
C100 H74 0.983 . S
C100 C96 1.684 . S
H101 C119 0.948 . S
H102 C60 0.948 . S
H103 C78 0.979 . S
H104 C78 0.980 . S
H105 C78 0.983 . S
H106 C77 0.982 . S
H107 C77 0.979 . S
H108 C77 0.977 . S
H109 C79 0.948 . S
H110 C81 0.947 . S
H111 C82 0.948 . S
H112 C88 0.982 . S
H113 C88 0.979 . S
H114 C88 0.977 . S
H115 C89 0.979 . S
H116 C89 0.980 . S
H117 C89 0.983 . S
H118 C62 0.947 . S
C119 C62 1.392 . S
C119 C63 1.419 . S
C119 H101 0.948 . S
C120 C121 1.391 . S
C120 C124 1.391 . S
C120 H162 0.948 . S
C121 C120 1.391 . S
C121 C122 1.391 . S
C122 C121 1.391 . S
C122 H178 0.947 . S
C122 C179 1.392 . S
C123 C124 1.391 . S
C123 C127 1.397 . S
C123 C179 1.419 . S
C124 C120 1.391 . S
C124 C123 1.391 . S
C124 C125 1.399 . S
C125 C124 1.399 . S
C125 C128 1.396 . S
C125 C137 1.453 . S
C125 C138 1.684 . S
H126 C150 0.948 . S
C127 C123 1.397 . S
C127 C128 1.394 . S
C127 C146 1.723 . S
C128 C125 1.396 . S
C128 C127 1.394 . S
C128 C158 1.723 . S
H129 C152 0.947 . S
H130 C153 0.948 . S
H131 C159 0.982 . S
H132 C160 0.979 . S
H133 C160 0.980 . S
H134 C160 0.983 . S
H135 C159 0.979 . S
H136 C159 0.977 . S
C137 C125 1.453 . S
C137 H166 0.982 . S
C137 H167 0.979 . S
C137 H168 0.977 . S
C138 C125 1.684 . S
C138 H163 0.979 . S
C138 H164 0.980 . S
C138 H165 0.983 . S
C139 C140 1.391 . S
C139 C144 1.391 . S
C139 H169 0.948 . S
C140 C139 1.391 . S
C140 C141 1.391 . S
C141 C140 1.391 . S
C141 C142 1.392 . S
C141 H170 0.947 . S
C142 C141 1.392 . S
C142 C143 1.419 . S
C142 H171 0.948 . S
C143 C142 1.419 . S
C143 C144 1.391 . S
C143 C147 1.397 1_556 S
C144 C139 1.391 . S
C144 C143 1.391 . S
C144 C145 1.399 1_556 S
C145 C144 1.399 1_554 S
C145 C146 1.396 . S
C145 C148 1.453 . S
C145 C149 1.684 . S
C146 C127 1.723 . S
C146 C145 1.396 . S
C146 C147 1.394 . S
C147 C143 1.397 1_554 S
C147 C146 1.394 . S
C147 C157 1.723 . S
C148 C145 1.453 . S
C148 H172 0.982 . S
C148 H173 0.979 . S
C148 H174 0.977 . S
C149 C145 1.684 . S
C149 H175 0.979 . S
C149 H176 0.980 . S
C149 H177 0.983 . S
C150 H126 0.948 . S
C150 C151 1.391 1_556 S
C150 C155 1.391 1_556 S
C151 C150 1.391 1_554 S
C151 C152 1.391 . S
C152 H129 0.947 . S
C152 C151 1.391 . S
C152 C153 1.392 . S
C153 H130 0.948 . S
C153 C152 1.392 . S
C153 C154 1.419 . S
C154 C153 1.419 . S
C154 C155 1.391 . S
C154 C158 1.397 . S
C155 C150 1.391 1_554 S
C155 C154 1.391 . S
C155 C156 1.399 1_554 S
C156 C155 1.399 1_556 S
C156 C157 1.396 1_556 S
C156 C159 1.453 . S
C156 C160 1.684 . S
C157 C147 1.723 . S
C157 C156 1.396 1_554 S
C157 C158 1.394 . S
C158 C128 1.723 . S
C158 C154 1.397 . S
C158 C157 1.394 . S
C159 H131 0.982 . S
C159 H135 0.979 . S
C159 H136 0.977 . S
C159 C156 1.453 . S
C160 H132 0.979 . S
C160 H133 0.980 . S
C160 H134 0.983 . S
C160 C156 1.684 . S
H161 C179 0.948 . S
H162 C120 0.948 . S
H163 C138 0.979 . S
H164 C138 0.980 . S
H165 C138 0.983 . S
H166 C137 0.982 . S
H167 C137 0.979 . S
H168 C137 0.977 . S
H169 C139 0.948 . S
H170 C141 0.947 . S
H171 C142 0.948 . S
H172 C148 0.982 . S
H173 C148 0.979 . S
H174 C148 0.977 . S
H175 C149 0.979 . S
H176 C149 0.980 . S
H177 C149 0.983 . S
H178 C122 0.947 . S
C179 C122 1.392 . S
C179 C123 1.419 . S
C179 H161 0.948 . S
C180 C181 1.391 . S
C180 C184 1.391 . S
C180 H222 0.948 . S
C181 C180 1.391 . S
C181 C182 1.391 . S
C182 C181 1.391 . S
C182 H238 0.947 . S
C182 C239 1.392 . S
C183 C184 1.391 . S
C183 C187 1.397 . S
C183 C239 1.419 . S
C184 C180 1.391 . S
C184 C183 1.391 . S
C184 C185 1.399 . S
C185 C184 1.399 . S
C185 C188 1.396 . S
C185 C197 1.453 . S
C185 C198 1.684 . S
H186 C210 0.948 . S
C187 C183 1.397 . S
C187 C188 1.394 . S
C187 C206 1.723 . S
C188 C185 1.396 . S
C188 C187 1.394 . S
C188 C218 1.723 . S
H189 C212 0.947 . S
H190 C213 0.948 . S
H191 C219 0.982 . S
H192 C220 0.979 . S
H193 C220 0.980 . S
H194 C220 0.983 . S
H195 C219 0.979 . S
H196 C219 0.977 . S
C197 C185 1.453 . S
C197 H226 0.982 . S
C197 H227 0.979 . S
C197 H228 0.977 . S
C198 C185 1.684 . S
C198 H223 0.979 . S
C198 H224 0.980 . S
C198 H225 0.983 . S
C199 C200 1.391 . S
C199 C204 1.391 . S
C199 H229 0.948 . S
C200 C199 1.391 . S
C200 C201 1.391 . S
C201 C200 1.391 . S
C201 C202 1.392 . S
C201 H230 0.947 . S
C202 C201 1.392 . S
C202 C203 1.419 . S
C202 H231 0.948 . S
C203 C202 1.419 . S
C203 C204 1.391 . S
C203 C207 1.397 . S
C204 C199 1.391 . S
C204 C203 1.391 . S
C204 C205 1.399 . S
C205 C204 1.399 . S
C205 C206 1.396 . S
C205 C208 1.453 . S
C205 C209 1.684 . S
C206 C187 1.723 . S
C206 C205 1.396 . S
C206 C207 1.394 . S
C207 C203 1.397 . S
C207 C206 1.394 . S
C207 C217 1.723 . S
C208 C205 1.453 . S
C208 H232 0.982 . S
C208 H233 0.979 . S
C208 H234 0.977 . S
C209 C205 1.684 . S
C209 H235 0.979 . S
C209 H236 0.980 . S
C209 H237 0.983 . S
C210 H186 0.948 . S
C210 C211 1.391 . S
C210 C215 1.391 . S
C211 C210 1.391 . S
C211 C212 1.391 . S
C212 H189 0.947 . S
C212 C211 1.391 . S
C212 C213 1.392 . S
C213 H190 0.948 . S
C213 C212 1.392 . S
C213 C214 1.419 . S
C214 C213 1.419 . S
C214 C215 1.391 . S
C214 C218 1.397 . S
C215 C210 1.391 . S
C215 C214 1.391 . S
C215 C216 1.399 . S
C216 C215 1.399 . S
C216 C217 1.396 . S
C216 C219 1.453 . S
C216 C220 1.684 . S
C217 C207 1.723 . S
C217 C216 1.396 . S
C217 C218 1.394 . S
C218 C188 1.723 . S
C218 C214 1.397 . S
C218 C217 1.394 . S
C219 H191 0.982 . S
C219 H195 0.979 . S
C219 H196 0.977 . S
C219 C216 1.453 . S
C220 H192 0.979 . S
C220 H193 0.980 . S
C220 H194 0.983 . S
C220 C216 1.684 . S
H221 C239 0.948 . S
H222 C180 0.948 . S
H223 C198 0.979 . S
H224 C198 0.980 . S
H225 C198 0.983 . S
H226 C197 0.982 . S
H227 C197 0.979 . S
H228 C197 0.977 . S
H229 C199 0.948 . S
H230 C201 0.947 . S
H231 C202 0.948 . S
H232 C208 0.982 . S
H233 C208 0.979 . S
H234 C208 0.977 . S
H235 C209 0.979 . S
H236 C209 0.980 . S
H237 C209 0.983 . S
H238 C182 0.947 . S
C239 C182 1.392 . S
C239 C183 1.419 . S
C239 H221 0.948 . S
Eu240 N269 2.600 . S
Eu240 N275 2.562 . S
Eu240 O284 2.462 . S
Eu240 O285 2.373 . S
Eu240 O287 2.432 . S
Eu240 O288 2.291 1_565 S
Eu240 O292 2.335 1_455 S
Eu240 O295 2.372 1_455 S
Eu240 C304 2.787 . S
C241 N242 1.365 . S
C241 C244 1.405 . S
C241 C248 1.448 . S
N242 C241 1.365 . S
N242 C245 1.311 1_655 S
N242 Eu251 2.600 . S
C243 C245 1.397 1_655 S
C243 C246 1.367 . S
C243 H263 0.931 1_655 S
C244 C241 1.405 . S
C244 C246 1.403 . S
C244 C250 1.439 . S
C245 N242 1.311 1_455 S
C245 C243 1.397 1_455 S
C245 H256 0.937 . S
C246 C243 1.367 . S
C246 C244 1.403 . S
C246 H267 0.929 . S
C247 C248 1.430 . S
C247 C249 1.387 . S
C247 C253 1.404 . S
C248 C241 1.448 . S
C248 C247 1.430 . S
C248 N252 1.351 . S
C249 C247 1.387 . S
C249 C250 1.374 . S
C249 H264 0.931 . S
C250 C244 1.439 . S
C250 C249 1.374 . S
C250 H265 0.931 . S
Eu251 N242 2.600 . S
Eu251 N252 2.562 . S
Eu251 O286 2.335 1_655 S
Eu251 O289 2.372 1_655 S
Eu251 O290 2.462 . S
Eu251 O291 2.373 . S
Eu251 O293 2.432 . S
Eu251 O294 2.291 1_545 S
Eu251 C315 2.787 . S
N252 C248 1.351 . S
N252 Eu251 2.562 . S
N252 C254 1.325 . S
C253 C247 1.404 . S
C253 C255 1.366 . S
C253 H261 0.930 . S
C254 N252 1.325 . S
C254 C255 1.416 . S
C254 H260 0.929 . S
C255 C253 1.366 . S
C255 C254 1.416 . S
C255 H257 0.930 . S
H256 C245 0.937 . S
H257 C255 0.930 . S
H258 C273 0.930 1_655 S
H259 C280 0.930 . S
H260 C254 0.929 . S
H261 C253 0.930 . S
H262 C276 0.929 . S
H263 C243 0.931 1_455 S
H264 C249 0.931 . S
H265 C250 0.931 . S
H266 C271 0.931 1_655 S
H267 C246 0.929 . S
H268 C279 0.930 . S
N269 Eu240 2.600 . S
N269 C270 1.365 . S
N269 C273 1.319 . S
C270 N269 1.365 . S
C270 C272 1.405 . S
C270 C278 1.448 . S
C271 H266 0.931 1_455 S
C271 C273 1.397 . S
C271 C274 1.367 . S
C272 C270 1.405 . S
C272 C274 1.403 . S
C272 C305 1.439 . S
C273 H258 0.930 1_455 S
C273 N269 1.319 . S
C273 C271 1.397 . S
C274 C271 1.367 . S
C274 C272 1.403 . S
C274 H281 0.929 . S
N275 Eu240 2.562 . S
N275 C276 1.325 . S
N275 C278 1.351 . S
C276 H262 0.929 . S
C276 N275 1.325 . S
C276 C280 1.416 . S
C277 C278 1.430 . S
C277 C279 1.404 . S
C277 C306 1.387 . S
C278 C270 1.448 . S
C278 N275 1.351 . S
C278 C277 1.430 . S
C279 H268 0.930 . S
C279 C277 1.404 . S
C279 C280 1.366 . S
C280 H259 0.930 . S
C280 C276 1.416 . S
C280 C279 1.366 . S
H281 C274 0.929 . S
H282 C305 0.931 . S
H283 C306 0.931 . S
O284 Eu240 2.462 . S
O284 C304 1.252 . S
O285 Eu240 2.373 . S
O285 C296 1.249 . S
O286 Eu251 2.335 1_455 S
O286 C296 1.264 1_545 S
O287 Eu240 2.432 . S
O287 C304 1.268 . S
O288 Eu240 2.291 1_545 S
O288 C303 1.255 . S
O289 Eu251 2.372 1_455 S
O289 C303 1.257 . S
O290 Eu251 2.462 . S
O290 C315 1.252 . S
O291 Eu251 2.373 . S
O291 C307 1.249 . S
O292 Eu240 2.335 1_655 S
O292 C307 1.264 1_565 S
O293 Eu251 2.432 . S
O293 C315 1.268 . S
O294 Eu251 2.291 1_565 S
O294 C314 1.255 . S
O295 Eu240 2.372 1_655 S
O295 C314 1.257 . S
C296 O285 1.249 . S
C296 O286 1.264 1_565 S
C297 C300 1.382 . S
C297 C302 1.390 . S
C297 C304 1.506 . S
C298 C299 1.398 . S
C298 C302 1.392 . S
C299 C298 1.398 . S
C299 C301 1.372 . S
C299 H316 0.931 . S
C300 C297 1.382 . S
C300 C301 1.390 . S
C300 H317 0.931 . S
C301 C299 1.372 . S
C301 C300 1.390 . S
C301 H318 0.929 . S
C302 C297 1.390 . S
C302 C298 1.392 . S
C302 H319 0.930 . S
C303 O288 1.255 . S
C303 O289 1.257 . S
C304 Eu240 2.787 . S
C304 O284 1.252 . S
C304 O287 1.268 . S
C304 C297 1.506 . S
C305 C272 1.439 . S
C305 H282 0.931 . S
C305 C306 1.374 . S
C306 C277 1.387 . S
C306 H283 0.931 . S
C306 C305 1.374 . S
C307 O291 1.249 . S
C307 O292 1.264 1_545 S
C308 C311 1.382 . S
C308 C312 1.390 . S
C308 C315 1.506 . S
C309 C310 1.398 . S
C309 C312 1.392 . S
C310 C309 1.398 . S
C310 C313 1.372 . S
C310 H320 0.931 . S
C311 C308 1.382 . S
C311 C313 1.390 . S
C311 H321 0.931 . S
C312 C308 1.390 . S
C312 C309 1.392 . S
C312 H322 0.930 . S
C313 C310 1.372 . S
C313 C311 1.390 . S
C313 H323 0.929 . S
C314 O294 1.255 . S
C314 O295 1.257 . S
C315 Eu251 2.787 . S
C315 O290 1.252 . S
C315 O293 1.268 . S
C315 C308 1.506 . S
H316 C299 0.931 . S
H317 C300 0.931 . S
H318 C301 0.929 . S
H319 C302 0.930 . S
H320 C310 0.931 . S
H321 C311 0.931 . S
H322 C312 0.930 . S
H323 C313 0.929 . S
Eu324 N353 2.600 . S
Eu324 N359 2.562 1_556 S
Eu324 O368 2.462 . S
Eu324 O369 2.373 1_556 S
Eu324 O371 2.432 . S
Eu324 O372 2.291 1_556 S
Eu324 O376 2.335 . S
Eu324 O379 2.372 . S
Eu324 C388 2.787 . S
C325 N326 1.365 . S
C325 C328 1.405 . S
C325 C332 1.448 . S
N326 C325 1.365 . S
N326 C329 1.319 . S
N326 Eu335 2.600 . S
C327 C329 1.397 . S
C327 C330 1.367 . S
C327 H347 0.931 . S
C328 C325 1.405 . S
C328 C330 1.403 . S
C328 C334 1.439 . S
C329 N326 1.319 . S
C329 C327 1.397 . S
C329 H340 0.930 . S
C330 C327 1.367 . S
C330 C328 1.403 . S
C330 H351 0.929 . S
C331 C332 1.430 . S
C331 C333 1.387 . S
C331 C337 1.404 . S
C332 C325 1.448 . S
C332 C331 1.430 . S
C332 N336 1.351 . S
C333 C331 1.387 . S
C333 C334 1.374 . S
C333 H348 0.931 . S
C334 C328 1.439 . S
C334 C333 1.374 . S
C334 H349 0.931 . S
Eu335 N326 2.600 . S
Eu335 N336 2.562 . S
Eu335 O370 2.335 . S
Eu335 O373 2.372 . S
Eu335 O374 2.462 . S
Eu335 O375 2.373 1_554 S
Eu335 O377 2.432 . S
Eu335 O378 2.291 . S
Eu335 C399 2.787 . S
N336 C332 1.351 . S
N336 Eu335 2.562 . S
N336 C338 1.325 . S
C337 C331 1.404 . S
C337 C339 1.366 . S
C337 H345 0.930 . S
C338 N336 1.325 . S
C338 C339 1.416 . S
C338 H344 0.929 . S
C339 C337 1.366 . S
C339 C338 1.416 . S
C339 H341 0.930 . S
H340 C329 0.930 . S
H341 C339 0.930 . S
H342 C357 0.930 . S
H343 C364 0.930 . S
H344 C338 0.929 . S
H345 C337 0.930 . S
H346 C360 0.929 . S
H347 C327 0.931 . S
H348 C333 0.931 . S
H349 C334 0.931 . S
H350 C355 0.931 . S
H351 C330 0.929 . S
H352 C363 0.930 . S
N353 Eu324 2.600 . S
N353 C354 1.365 1_556 S
N353 C357 1.319 . S
C354 N353 1.365 1_554 S
C354 C356 1.405 . S
C354 C362 1.448 . S
C355 H350 0.931 . S
C355 C357 1.397 . S
C355 C358 1.367 1_556 S
C356 C354 1.405 . S
C356 C358 1.403 . S
C356 C389 1.439 . S
C357 H342 0.930 . S
C357 N353 1.319 . S
C357 C355 1.397 . S
C358 C355 1.367 1_554 S
C358 C356 1.403 . S
C358 H365 0.929 . S
N359 Eu324 2.562 1_554 S
N359 C360 1.325 . S
N359 C362 1.351 . S
C360 H346 0.929 . S
C360 N359 1.325 . S
C360 C364 1.416 . S
C361 C362 1.430 . S
C361 C363 1.404 . S
C361 C390 1.387 . S
C362 C354 1.448 . S
C362 N359 1.351 . S
C362 C361 1.430 . S
C363 H352 0.930 . S
C363 C361 1.404 . S
C363 C364 1.366 . S
C364 H343 0.930 . S
C364 C360 1.416 . S
C364 C363 1.366 . S
H365 C358 0.929 . S
H366 C389 0.931 . S
H367 C390 0.931 . S
O368 Eu324 2.462 . S
O368 C388 1.252 . S
O369 Eu324 2.373 1_554 S
O369 C380 1.249 . S
O370 Eu335 2.335 . S
O370 C380 1.264 . S
O371 Eu324 2.432 . S
O371 C388 1.268 . S
O372 Eu324 2.291 1_554 S
O372 C387 1.255 . S
O373 Eu335 2.372 . S
O373 C387 1.257 . S
O374 Eu335 2.462 . S
O374 C399 1.252 . S
O375 Eu335 2.373 1_556 S
O375 C391 1.249 . S
O376 Eu324 2.335 . S
O376 C391 1.264 . S
O377 Eu335 2.432 . S
O377 C399 1.268 . S
O378 Eu335 2.291 . S
O378 C398 1.255 . S
O379 Eu324 2.372 . S
O379 C398 1.257 1_556 S
C380 O369 1.249 . S
C380 O370 1.264 . S
C381 C384 1.382 . S
C381 C386 1.390 . S
C381 C388 1.506 . S
C382 C383 1.398 . S
C382 C386 1.392 . S
C383 C382 1.398 . S
C383 C385 1.372 . S
C383 H400 0.931 . S
C384 C381 1.382 . S
C384 C385 1.390 . S
C384 H401 0.931 . S
C385 C383 1.372 . S
C385 C384 1.390 . S
C385 H402 0.929 . S
C386 C381 1.390 . S
C386 C382 1.392 . S
C386 H403 0.930 . S
C387 O372 1.255 . S
C387 O373 1.257 . S
C388 Eu324 2.787 . S
C388 O368 1.252 . S
C388 O371 1.268 . S
C388 C381 1.506 . S
C389 C356 1.439 . S
C389 H366 0.931 . S
C389 C390 1.374 . S
C390 C361 1.387 . S
C390 H367 0.931 . S
C390 C389 1.374 . S
C391 O375 1.249 . S
C391 O376 1.264 . S
C392 C395 1.382 . S
C392 C396 1.390 . S
C392 C399 1.506 . S
C393 C394 1.398 . S
C393 C396 1.392 . S
C394 C393 1.398 . S
C394 C397 1.372 . S
C394 H404 0.931 . S
C395 C392 1.382 . S
C395 C397 1.390 . S
C395 H405 0.931 . S
C396 C392 1.390 . S
C396 C393 1.392 . S
C396 H406 0.930 . S
C397 C394 1.372 . S
C397 C395 1.390 . S
C397 H407 0.929 . S
C398 O378 1.255 . S
C398 O379 1.257 1_554 S
C399 Eu335 2.787 . S
C399 O374 1.252 . S
C399 O377 1.268 . S
C399 C392 1.506 . S
H400 C383 0.931 . S
H401 C384 0.931 . S
H402 C385 0.929 . S
H403 C386 0.930 . S
H404 C394 0.931 . S
H405 C395 0.931 . S
H406 C396 0.930 . S
H407 C397 0.929 . S
H408 C416 0.950 . S
H409 C421 0.950 . S
H410 C418 0.950 . S
H411 C420 0.950 . S
H412 C422 0.950 . S
H413 C424 0.950 . S
H414 C426 0.950 . S
H415 C427 0.950 . S
C416 H408 0.950 . S
C416 C417 1.386 . S
C416 C418 1.391 . S
C417 C416 1.386 . S
C417 C421 1.393 . S
C418 H410 0.950 . S
C418 C416 1.391 . S
C418 C419 1.400 . S
C419 C418 1.400 . S
C419 C420 1.398 . S
C419 C425 1.491 . S
C420 H411 0.950 . S
C420 C419 1.398 . S
C420 C421 1.391 . S
C421 H409 0.950 . S
C421 C417 1.393 . S
C421 C420 1.391 . S
C422 H412 0.950 . S
C422 C423 1.386 . S
C422 C424 1.391 . S
C423 C422 1.386 . S
C423 C427 1.393 . S
C424 H413 0.950 . S
C424 C422 1.391 . S
C424 C425 1.400 . S
C425 C419 1.491 . S
C425 C424 1.400 . S
C425 C426 1.398 . S
C426 H414 0.950 . S
C426 C425 1.398 . S
C426 C427 1.391 . S
C427 H415 0.950 . S
C427 C423 1.393 . S
C427 C426 1.391 . S
H428 C436 0.950 1_556 S
H429 C441 0.950 . S
H430 C438 0.950 1_556 S
H431 C440 0.950 . S
H432 C442 0.950 . S
H433 C444 0.950 . S
H434 C446 0.968 . S
H435 C447 0.950 . S
C436 H428 0.950 1_554 S
C436 C437 1.386 . S
C436 C438 1.391 . S
C437 C436 1.386 . S
C437 C441 1.393 . S
C438 H430 0.950 1_554 S
C438 C436 1.391 . S
C438 C439 1.400 . S
C439 C438 1.400 . S
C439 C440 1.398 . S
C439 C445 1.491 . S
C440 H431 0.950 . S
C440 C439 1.398 . S
C440 C441 1.391 . S
C441 H429 0.950 . S
C441 C437 1.393 . S
C441 C440 1.391 . S
C442 H432 0.950 . S
C442 C443 1.386 . S
C442 C444 1.391 . S
C443 C442 1.386 . S
C443 C447 1.393 1_554 S
C444 H433 0.950 . S
C444 C442 1.391 . S
C444 C445 1.400 . S
C445 C439 1.491 . S
C445 C444 1.400 . S
C445 C446 1.373 1_554 S
C446 H434 0.968 . S
C446 C445 1.373 1_556 S
C446 C447 1.398 . S
C447 H435 0.950 . S
C447 C443 1.393 1_556 S
C447 C446 1.398 . S
H448 C456 0.950 . S
H449 C461 0.950 . S
H450 C458 0.950 . S
H451 C460 0.950 . S
H452 C462 0.950 . S
H453 C464 0.950 . S
H454 C466 0.950 . S
H455 C467 0.950 . S
C456 H448 0.950 . S
C456 C457 1.386 . S
C456 C458 1.391 . S
C457 C456 1.386 . S
C457 C461 1.393 . S
C458 H450 0.950 . S
C458 C456 1.391 . S
C458 C459 1.400 . S
C459 C458 1.400 . S
C459 C460 1.398 . S
C459 C465 1.491 . S
C460 H451 0.950 . S
C460 C459 1.398 . S
C460 C461 1.391 . S
C461 H449 0.950 . S
C461 C457 1.393 . S
C461 C460 1.391 . S
C462 H452 0.950 . S
C462 C463 1.386 . S
C462 C464 1.391 . S
C463 C462 1.386 . S
C463 C467 1.393 . S
C464 H453 0.950 . S
C464 C462 1.391 . S
C464 C465 1.400 . S
C465 C459 1.491 . S
C465 C464 1.400 . S
C465 C466 1.398 . S
C466 H454 0.950 . S
C466 C465 1.398 . S
C466 C467 1.391 . S
C467 H455 0.950 . S
C467 C463 1.393 . S
C467 C466 1.391 . S
H468 C476 0.950 . S
H469 C481 0.950 . S
H470 C478 0.950 . S
H471 C480 0.950 . S
H472 C482 0.950 . S
H473 C484 0.950 . S
H474 C486 0.950 . S
H475 C487 0.950 . S
C476 H468 0.950 . S
C476 C477 1.386 1_556 S
C476 C478 1.391 . S
C477 C476 1.386 1_554 S
C477 C481 1.393 . S
C478 H470 0.950 . S
C478 C476 1.391 . S
C478 C479 1.400 1_556 S
C479 C478 1.400 1_554 S
C479 C480 1.398 . S
C479 C485 1.491 . S
C480 H471 0.950 . S
C480 C479 1.398 . S
C480 C481 1.391 . S
C481 H469 0.950 . S
C481 C477 1.393 . S
C481 C480 1.391 . S
C482 H472 0.950 . S
C482 C483 1.386 . S
C482 C484 1.391 . S
C483 C482 1.386 . S
C483 C487 1.393 1_554 S
C484 H473 0.950 . S
C484 C482 1.391 . S
C484 C485 1.400 . S
C485 C479 1.491 . S
C485 C484 1.400 . S
C485 C486 1.398 1_554 S
C486 H474 0.950 . S
C486 C485 1.398 1_556 S
C486 C487 1.391 . S
C487 H475 0.950 . S
C487 C483 1.393 1_556 S
C487 C486 1.391 . S
H488 C496 0.950 . S
H489 C501 0.950 . S
H490 C498 0.950 . S
H491 C500 0.950 . S
H492 C502 0.950 . S
H493 C504 0.950 . S
H494 C506 0.950 . S
H495 C507 0.950 . S
C496 H488 0.950 . S
C496 C497 1.386 . S
C496 C498 1.391 . S
C497 C496 1.386 . S
C497 C501 1.393 . S
C498 H490 0.950 . S
C498 C496 1.391 . S
C498 C499 1.400 . S
C499 C498 1.400 . S
C499 C500 1.398 . S
C499 C505 1.491 . S
C500 H491 0.950 . S
C500 C499 1.398 . S
C500 C501 1.391 . S
C501 H489 0.950 . S
C501 C497 1.393 . S
C501 C500 1.391 . S
C502 H492 0.950 . S
C502 C503 1.386 . S
C502 C504 1.391 . S
C503 C502 1.386 . S
C503 C507 1.393 . S
C504 H493 0.950 . S
C504 C502 1.391 . S
C504 C505 1.400 . S
C505 C499 1.491 . S
C505 C504 1.400 . S
C505 C506 1.398 . S
C506 H494 0.950 . S
C506 C505 1.398 . S
C506 C507 1.391 . S
C507 H495 0.950 . S
C507 C503 1.393 . S
C507 C506 1.391 . S
H508 C516 0.950 . S
H509 C521 0.950 . S
H510 C518 0.950 . S
H511 C520 0.950 . S
H512 C522 0.950 . S
H513 C524 0.950 . S
H514 C526 0.950 . S
H515 C527 0.950 . S
C516 H508 0.950 . S
C516 C517 1.386 . S
C516 C518 1.391 . S
C517 C516 1.386 . S
C517 C521 1.393 . S
C518 H510 0.950 . S
C518 C516 1.391 . S
C518 C519 1.400 . S
C519 C518 1.400 . S
C519 C520 1.398 . S
C519 C525 1.491 . S
C520 H511 0.950 . S
C520 C519 1.398 . S
C520 C521 1.391 . S
C521 H509 0.950 . S
C521 C517 1.393 . S
C521 C520 1.391 . S
C522 H512 0.950 . S
C522 C523 1.386 . S
C522 C524 1.391 . S
C523 C522 1.386 . S
C523 C527 1.393 . S
C524 H513 0.950 . S
C524 C522 1.391 . S
C524 C525 1.400 . S
C525 C519 1.491 . S
C525 C524 1.400 . S
C525 C526 1.398 . S
C526 H514 0.950 . S
C526 C525 1.398 . S
C526 C527 1.391 . S
C527 H515 0.950 . S
C527 C523 1.393 . S
C527 C526 1.391 . S
H528 C536 0.950 . S
H529 C541 0.950 . S
H530 C538 0.950 . S
H531 C540 0.950 . S
H532 C542 0.950 1_565 S
H533 C544 0.950 1_565 S
H534 C546 0.950 . S
H535 C547 0.950 . S
C536 H528 0.950 . S
C536 C537 1.386 . S
C536 C538 1.391 . S
C537 C536 1.386 . S
C537 C541 1.393 . S
C538 H530 0.950 . S
C538 C536 1.391 . S
C538 C539 1.400 . S
C539 C538 1.400 . S
C539 C540 1.398 . S
C539 C545 1.491 . S
C540 H531 0.950 . S
C540 C539 1.398 . S
C540 C541 1.391 . S
C541 H529 0.950 . S
C541 C537 1.393 . S
C541 C540 1.391 . S
C542 H532 0.950 1_545 S
C542 C543 1.386 . S
C542 C544 1.391 . S
C543 C542 1.386 . S
C543 C547 1.393 . S
C544 H533 0.950 1_545 S
C544 C542 1.391 . S
C544 C545 1.400 . S
C545 C539 1.491 . S
C545 C544 1.400 . S
C545 C546 1.398 . S
C546 H534 0.950 . S
C546 C545 1.398 . S
C546 C547 1.391 . S
C547 H535 0.950 . S
C547 C543 1.393 . S
C547 C546 1.391 . S
H548 C556 0.950 . S
H549 C561 0.950 . S
H550 C558 0.950 . S
H551 C560 0.950 . S
H552 C562 0.950 . S
H553 C564 0.950 . S
H554 C566 0.950 . S
H555 C567 0.950 . S
C556 H548 0.950 . S
C556 C557 1.386 . S
C556 C558 1.391 . S
C557 C556 1.386 . S
C557 C561 1.393 . S
C558 H550 0.950 . S
C558 C556 1.391 . S
C558 C559 1.400 . S
C559 C558 1.400 . S
C559 C560 1.398 . S
C559 C565 1.491 . S
C560 H551 0.950 . S
C560 C559 1.398 . S
C560 C561 1.391 . S
C561 H549 0.950 . S
C561 C557 1.393 . S
C561 C560 1.391 . S
C562 H552 0.950 . S
C562 C563 1.386 . S
C562 C564 1.391 . S
C563 C562 1.386 . S
C563 C567 1.393 . S
C564 H553 0.950 . S
C564 C562 1.391 . S
C564 C565 1.400 . S
C565 C559 1.491 . S
C565 C564 1.400 . S
C565 C566 1.398 . S
C566 H554 0.950 . S
C566 C565 1.398 . S
C566 C567 1.391 . S
C567 H555 0.950 . S
C567 C563 1.393 . S
C567 C566 1.391 . S
H568 C576 0.950 . S
H569 C581 0.950 . S
H570 C578 0.950 . S
H571 C580 0.950 . S
H572 C582 0.950 . S
H573 C584 0.950 . S
H574 C586 0.950 . S
H575 C587 0.950 . S
C576 H568 0.950 . S
C576 C577 1.386 . S
C576 C578 1.391 . S
C577 C576 1.386 . S
C577 C581 1.393 . S
C578 H570 0.950 . S
C578 C576 1.391 . S
C578 C579 1.400 . S
C579 C578 1.400 . S
C579 C580 1.398 . S
C579 C585 1.491 . S
C580 H571 0.950 . S
C580 C579 1.398 . S
C580 C581 1.391 . S
C581 H569 0.950 . S
C581 C577 1.393 . S
C581 C580 1.391 . S
C582 H572 0.950 . S
C582 C583 1.386 . S
C582 C584 1.391 . S
C583 C582 1.386 . S
C583 C587 1.393 . S
C584 H573 0.950 . S
C584 C582 1.391 . S
C584 C585 1.400 . S
C585 C579 1.491 . S
C585 C584 1.400 . S
C585 C586 1.398 . S
C586 H574 0.950 . S
C586 C585 1.398 . S
C586 C587 1.391 . S
C587 H575 0.950 . S
C587 C583 1.393 . S
C587 C586 1.391 . S
H588 C596 0.950 . S
H589 C601 0.950 . S
H590 C598 0.950 . S
H591 C600 0.950 . S
H592 C602 0.950 . S
H593 C604 0.950 . S
H594 C606 0.950 . S
H595 C607 0.935 1_565 S
C596 H588 0.950 . S
C596 C597 1.386 . S
C596 C598 1.391 . S
C597 C596 1.386 . S
C597 C601 1.393 . S
C598 H590 0.950 . S
C598 C596 1.391 . S
C598 C599 1.400 . S
C599 C598 1.400 . S
C599 C600 1.398 . S
C599 C605 1.491 . S
C600 H591 0.950 . S
C600 C599 1.398 . S
C600 C601 1.391 . S
C601 H589 0.950 . S
C601 C597 1.393 . S
C601 C600 1.391 . S
C602 H592 0.950 . S
C602 C603 1.386 . S
C602 C604 1.391 . S
C603 C602 1.386 . S
C603 C607 1.393 . S
C604 H593 0.950 . S
C604 C602 1.391 . S
C604 C605 1.400 . S
C605 C599 1.491 . S
C605 C604 1.400 . S
C605 C606 1.398 . S
C606 H594 0.950 . S
C606 C605 1.398 . S
C606 C607 1.391 . S
C607 H595 0.935 1_545 S
C607 C603 1.393 . S
C607 C606 1.391 . S
H608 C616 0.950 . S
H609 C621 0.950 . S
H610 C618 0.950 . S
H611 C620 0.950 . S
H612 C622 0.950 . S
H613 C624 0.950 . S
H614 C626 0.950 . S
H615 C627 0.950 . S
C616 H608 0.950 . S
C616 C617 1.386 . S
C616 C618 1.391 . S
C617 C616 1.386 . S
C617 C621 1.393 . S
C618 H610 0.950 . S
C618 C616 1.391 . S
C618 C619 1.400 . S
C619 C618 1.400 . S
C619 C620 1.398 . S
C619 C625 1.491 . S
C620 H611 0.950 . S
C620 C619 1.398 . S
C620 C621 1.391 . S
C621 H609 0.950 . S
C621 C617 1.393 . S
C621 C620 1.391 . S
C622 H612 0.950 . S
C622 C623 1.386 . S
C622 C624 1.391 . S
C623 C622 1.386 . S
C623 C627 1.393 . S
C624 H613 0.950 . S
C624 C622 1.391 . S
C624 C625 1.400 . S
C625 C619 1.491 . S
C625 C624 1.400 . S
C625 C626 1.398 . S
C626 H614 0.950 . S
C626 C625 1.398 . S
C626 C627 1.391 . S
C627 H615 0.950 . S
C627 C623 1.393 . S
C627 C626 1.391 . S
H628 C636 0.950 . S
H629 C641 0.950 . S
H630 C638 0.950 . S
H631 C640 0.950 . S
H632 C642 0.950 . S
H633 C644 0.950 . S
H634 C646 0.950 . S
H635 C647 0.950 1_545 S
C636 H628 0.950 . S
C636 C637 1.386 . S
C636 C638 1.391 . S
C637 C636 1.386 . S
C637 C641 1.393 . S
C638 H630 0.950 . S
C638 C636 1.391 . S
C638 C639 1.400 . S
C639 C638 1.400 . S
C639 C640 1.398 . S
C639 C645 1.491 . S
C640 H631 0.950 . S
C640 C639 1.398 . S
C640 C641 1.391 . S
C641 H629 0.950 . S
C641 C637 1.393 . S
C641 C640 1.391 . S
C642 H632 0.950 . S
C642 C643 1.386 . S
C642 C644 1.391 . S
C643 C642 1.386 . S
C643 C647 1.393 . S
C644 H633 0.950 . S
C644 C642 1.391 . S
C644 C645 1.400 . S
C645 C639 1.491 . S
C645 C644 1.400 . S
C645 C646 1.398 . S
C646 H634 0.950 . S
C646 C645 1.398 . S
C646 C647 1.391 . S
C647 H635 0.950 1_565 S
C647 C643 1.393 . S
C647 C646 1.391 . S
C423 C303 1.632 . S
C417 C211 1.613 . S
C437 C31 1.559 . S
C443 C398 1.621 . S
C457 C91 1.647 . S
C463 C314 1.633 . S
C477 C151 1.589 . S
C483 C387 1.625 . S
C503 C298 1.433 . S
C497 C20 1.513 . S
C523 C391 1.609 . S
C517 C61 1.559 . S
C537 C121 1.609 . S
C543 C307 1.618 . S
C557 C200 1.490 . S
C563 C382 1.419 . S
C583 C393 1.384 . S
C577 C80 1.513 . S
C603 C309 1.409 . S
C597 C140 1.546 . S
C623 C380 1.609 . S
C617 C181 1.548 . S
C637 C1 1.569 . S
C643 C296 1.618 . S
