# Generated by pormake.
# Topology anh, (6,3)-cn, num edge types: 1
# Building blocks:
#     Node 0, Type 0, BuildingBlock: PAMTUU_clean_sbu_0, # of connection points: 6
#     Node 1, Type 0, BuildingBlock: PAMTUU_clean_sbu_0, # of connection points: 6
#     Node 2, Type 0, BuildingBlock: PAMTUU_clean_sbu_0, # of connection points: 6
#     Node 3, Type 1, BuildingBlock: KAKCAD_clean_linker_0, # of connection points: 3
#     Node 4, Type 1, BuildingBlock: KAKCAD_clean_linker_0, # of connection points: 3
#     Node 5, Type 1, BuildingBlock: KAKCAD_clean_linker_0, # of connection points: 3
#     Node 6, Type 1, BuildingBlock: KAKCAD_clean_linker_0, # of connection points: 3
#     Node 7, Type 1, BuildingBlock: KAKCAD_clean_linker_0, # of connection points: 3
#     Node 8, Type 1, BuildingBlock: KAKCAD_clean_linker_0, # of connection points: 3
#     Edge 9, Type (0, 1), None
#     Edge 10, Type (0, 1), None
#     Edge 11, Type (0, 1), None
#     Edge 12, Type (0, 1), None
#     Edge 13, Type (0, 1), None
#     Edge 14, Type (0, 1), None
#     Edge 15, Type (0, 1), None
#     Edge 16, Type (0, 1), None
#     Edge 17, Type (0, 1), None
#     Edge 18, Type (0, 1), None
#     Edge 19, Type (0, 1), None
#     Edge 20, Type (0, 1), None
#     Edge 21, Type (0, 1), None
#     Edge 22, Type (0, 1), None
#     Edge 23, Type (0, 1), None
#     Edge 24, Type (0, 1), None
#     Edge 25, Type (0, 1), None
#     Edge 26, Type (0, 1), None
# Relax obj value: 0.457
# Max RMSD: 0.223
# Mean RMSD: 0.181
data_MOF--net-anh--node1-PAMTUU_clean_sbu_0--node2-KAKCAD_clean_linker_0--edge1-none
_symmetry_space_group_name_H-M    P1
_symmetry_Int_Tables_number       1
_symmetry_cell_setting            triclinic
loop_
_symmetry_equiv_pos_as_xyz
'x, y, z'
_cell_length_a     19.004032
_cell_length_b     19.03963
_cell_length_c     37.605485
_cell_angle_alpha  91.906784
_cell_angle_beta   90.794532
_cell_angle_gamma 119.91999
loop_
_atom_site_label
_atom_site_type_symbol
_atom_site_fract_x
_atom_site_fract_y
_atom_site_fract_z
_atom_type_partial_charge
Tb0 Tb 0.32162 0.85598 0.17182 0.0
Tb1 Tb 0.39645 0.74086 0.18827 0.0
C2 C 0.36906 0.77328 0.10773 0.0
C3 C 1.15652 0.89242 0.17643 0.0
C4 C 0.99527 0.76714 0.17903 0.0
C5 C 1.01722 0.82699 0.15387 0.0
C6 C 1.09783 0.88932 0.15247 0.0
C7 C 1.13145 0.84045 0.2051 0.0
C8 C 1.05121 0.77765 0.20621 0.0
C9 C 0.24041 0.92623 0.16497 0.0
O10 O 1.22202 0.73657 0.18805 0.0
O11 O 0.27275 0.65741 0.1684 0.0
O12 O 0.33811 0.7521 0.23602 0.0
O13 O 0.36143 0.87856 0.22715 0.0
O14 O 0.38839 0.64939 0.22037 0.0
O15 O 0.48458 0.70561 0.18328 0.0
O16 O 0.49644 0.8671 0.19879 0.0
O17 O 0.45206 0.94066 0.16764 0.0
O18 O 0.3402 0.82006 0.11868 0.0
O19 O 0.39482 0.73837 0.13006 0.0
C20 C 1.21119 0.66385 0.17964 0.0
O21 O 0.29584 0.94635 0.19008 0.0
O22 O 0.24804 0.88284 0.13944 0.0
C23 C 0.34158 0.81896 0.24811 0.0
C24 C 0.42591 0.56567 0.18937 0.0
C25 C 0.40505 0.42637 0.15169 0.0
C26 C 0.46116 0.46084 0.18085 0.0
C27 C 0.47166 0.53022 0.19943 0.0
C28 C 0.36427 0.52714 0.16278 0.0
C29 C 0.35355 0.4576 0.14418 0.0
C30 C 0.44686 0.64586 0.20441 0.0
C31 C 0.51038 0.9359 0.18496 0.0
H32 H 0.97485 0.81965 0.13252 0.0
H33 H 1.11592 0.92832 0.13007 0.0
H34 H 1.17551 0.84148 0.22403 0.0
H35 H 1.0351 0.73234 0.22593 0.0
H36 H 0.50279 0.4394 0.18718 0.0
H37 H 0.519 0.559 0.2201 0.0
H38 H 0.32778 0.55354 0.15495 0.0
H39 H 0.30969 0.43233 0.12204 0.0
Tb40 Tb 0.75706 1.15031 0.47533 0.0
Tb41 Tb 0.92949 0.23075 0.51664 0.0
C42 C 0.90886 0.22422 0.43499 0.0
C43 C 0.56629 1.12508 0.43851 0.0
C44 C 0.4322 1.14947 0.44156 0.0
C45 C 0.48941 0.17644 0.47018 0.0
C46 C 0.55617 0.16442 0.46864 0.0
C47 C 0.51427 1.10564 0.40868 0.0
C48 C 0.44801 1.11812 0.41006 0.0
C49 C 0.62841 1.10087 0.43857 0.0
O50 O 0.7643 1.04492 0.49458 0.0
O51 O 0.90271 1.10626 0.5043 0.0
O52 O 0.83805 0.15957 0.55523 0.0
O53 O 0.73231 0.16675 0.52934 0.0
O54 O 1.05323 0.26651 0.51381 0.0
O55 O 1.00529 0.28769 0.56201 0.0
O56 O 0.89395 0.32174 0.52607 0.0
O57 O 0.79314 0.28071 0.48296 0.0
O58 O 0.84795 1.1532 0.44089 0.0
O59 O 0.94074 0.27592 0.46239 0.0
C60 C 0.83039 1.04037 0.5019 0.0
O61 O 0.69961 1.15536 0.42821 0.0
O62 O 0.63334 1.06583 0.46704 0.0
C63 C 0.76442 1.14984 0.55629 0.0
C64 C 1.12191 0.39896 0.54048 0.0
C65 C 1.14542 0.54638 0.51639 0.0
C66 C 1.12156 0.52555 0.55131 0.0
C67 C 1.11008 0.45203 0.56342 0.0
C68 C 1.16106 0.4282 0.50838 0.0
C69 C 1.17148 0.50093 0.49616 0.0
C70 C 1.07031 0.31019 0.54362 0.0
C71 C 0.84355 0.33524 0.50728 0.0
H72 H 0.479 0.20078 0.49472 0.0
H73 H 0.59719 0.18156 0.49169 0.0
H74 H 0.52211 1.07649 0.38503 0.0
H75 H 0.40496 1.09555 0.3876 0.0
H76 H 1.10289 0.56101 0.56759 0.0
H77 H 1.08197 0.43232 0.58878 0.0
H78 H 1.17345 0.39016 0.4905 0.0
H79 H 1.19244 0.51761 0.46944 0.0
Tb80 Tb 0.79436 0.56797 0.83261 0.0
Tb81 Tb 0.87658 0.76031 0.84585 0.0
C82 C 0.83147 0.67993 0.76857 0.0
C83 C 0.63129 0.3633 0.80987 0.0
C84 C 0.47713 0.25805 0.77832 0.0
C85 C 0.51507 0.22872 0.80128 0.0
C86 C 0.59167 0.28096 0.81676 0.0
C87 C 0.59091 0.3944 0.78983 0.0
C88 C 0.51432 0.34203 0.77405 0.0
C89 C 0.71441 0.41651 0.82375 0.0
O90 O 0.92596 0.60998 0.82934 0.0
O91 O 0.98029 0.74089 0.85315 0.0
O92 O 0.82818 0.69869 0.89561 0.0
O93 O 0.8547 0.59742 0.88396 0.0
O94 O 0.92211 0.87707 0.82679 0.0
O95 O 0.91763 0.85925 0.88303 0.0
O96 O 0.74754 0.71857 0.83505 0.0
O97 O 0.6987 0.59029 0.85351 0.0
O98 O 0.77704 0.61348 0.7829 0.0
O99 O 0.88783 0.73989 0.78884 0.0
C100 C 0.98872 0.6785 0.84275 0.0
O101 O 0.71974 0.45492 0.85385 0.0
O102 O 0.76627 0.4639 0.80093 0.0
C103 C 0.84065 0.64109 0.90683 0.0
C104 C 0.8713 0.94432 0.86106 0.0
C105 C 0.7486 0.97881 0.84227 0.0
C106 C 0.73194 0.91543 0.86479 0.0
C107 C 0.79282 0.89821 0.87411 0.0
C108 C 0.89033 1.01369 0.84232 0.0
C109 C 0.82932 1.03109 0.83306 0.0
C110 C 0.92386 0.90824 0.85834 0.0
C111 C 0.68765 0.65178 0.8471 0.0
H112 H 0.48929 0.16433 0.80476 0.0
H113 H 0.62149 0.25642 0.83275 0.0
H114 H 0.6202 0.45859 0.78505 0.0
H115 H 0.48691 0.36627 0.75643 0.0
H116 H 0.67029 0.87473 0.87244 0.0
H117 H 0.77626 0.84403 0.8885 0.0
H118 H 0.9502 1.04953 0.83174 0.0
H119 H 0.84367 1.0801 0.8155 0.0
C120 C 0.94341 0.32558 0.38685 0.0
C121 C 0.92416 0.24782 0.3973 0.0
C122 C 0.93956 0.3404 0.35054 0.0
C123 C 0.91664 0.27779 0.32407 0.0
C124 C 0.90347 0.20209 0.33471 0.0
C125 C 0.90659 0.18725 0.37068 0.0
C126 C 0.90079 0.28796 0.28583 0.0
C127 C 0.95223 0.3587 0.26804 0.0
C128 C 0.93919 0.36575 0.23152 0.0
C129 C 0.87123 0.2996 0.21281 0.0
C130 C 0.81747 0.22807 0.23052 0.0
C131 C 0.83347 0.22448 0.26688 0.0
C132 C 0.74436 1.15464 0.21276 0.0
C133 C 0.68272 0.16026 0.19397 0.0
C134 C 0.73025 1.07607 0.21919 0.0
C135 C 0.65618 1.00613 0.20909 0.0
C136 C 0.59267 1.01137 0.19196 0.0
C137 C 0.99986 0.44201 0.21388 0.0
C138 C 1.01981 0.51913 0.22862 0.0
C139 C 1.04642 0.4393 0.18558 0.0
C140 C 1.11307 0.51109 0.17363 0.0
C141 C 1.13426 0.58812 0.18905 0.0
C142 C 1.08523 0.5908 0.21624 0.0
C143 C 0.60802 1.08973 0.18375 0.0
H144 H 0.95646 0.37337 0.40674 0.0
H145 H 0.95032 0.39951 0.3434 0.0
H146 H 0.8881 1.15301 0.31519 0.0
H147 H 0.89205 1.12688 0.37778 0.0
H148 H 1.00464 0.40756 0.28236 0.0
H149 H 0.7919 0.1713 0.28088 0.0
H150 H 0.86067 0.30364 0.18477 0.0
H151 H 0.69053 0.21929 0.18876 0.0
H152 H 0.77601 1.06864 0.23332 0.0
H153 H 0.64808 0.94768 0.21571 0.0
H154 H 0.98605 0.52391 0.25064 0.0
H155 H 1.03398 0.3813 0.1739 0.0
H156 H 0.56117 1.09695 0.17055 0.0
H157 H 1.09973 0.64827 0.22919 0.0
H158 H 1.14939 0.50606 0.15284 0.0
C159 C 0.77695 0.61556 0.70735 0.0
C160 C 0.82885 0.68516 0.72887 0.0
C161 C 0.7751 0.6181 0.67014 0.0
C162 C 0.82443 0.69049 0.653 0.0
C163 C 0.87498 0.76083 0.67442 0.0
C164 C 0.8776 0.75809 0.71185 0.0
C165 C 0.8255 0.69055 0.613 0.0
C166 C 0.82183 0.75141 0.59403 0.0
C167 C 0.82293 0.75106 0.55641 0.0
C168 C 0.8282 0.68761 0.53763 0.0
C169 C 0.83205 0.62566 0.55625 0.0
C170 C 0.83035 0.62852 0.59373 0.0
C171 C 0.84058 0.55807 0.53825 0.0
C172 C 0.78281 0.50171 0.51285 0.0
C173 C 0.90189 0.54298 0.55053 0.0
C174 C 0.90339 0.47263 0.53945 0.0
C175 C 0.84381 0.41387 0.51543 0.0
C176 C 0.8203 0.81892 0.53774 0.0
C177 C 0.88795 0.87708 0.51989 0.0
C178 C 0.75355 0.83157 0.54122 0.0
C179 C 0.75481 0.90063 0.52778 0.0
C180 C 0.82388 0.96073 0.51129 0.0
C181 C 0.89012 0.94726 0.50729 0.0
C182 C 0.78437 0.43051 0.50159 0.0
H183 H 0.73818 0.55821 0.71922 0.0
H184 H 0.73482 0.5629 0.65467 0.0
H185 H 0.9142 0.81754 0.66219 0.0
H186 H 0.91807 0.81302 0.72743 0.0
H187 H 0.81803 0.79941 0.60861 0.0
H188 H 0.83368 0.5819 0.60821 0.0
H189 H 0.83006 0.68693 0.50886 0.0
H190 H 0.73415 0.51063 0.50301 0.0
H191 H 0.94765 0.58468 0.56993 0.0
H192 H 0.95047 0.46324 0.5508 0.0
H193 H 0.94087 0.87016 0.51712 0.0
H194 H 0.70078 0.78867 0.55516 0.0
H195 H 0.73736 0.38725 0.48307 0.0
H196 H 0.94464 0.992 0.49496 0.0
H197 H 0.70304 0.90888 0.5319 0.0
C198 C 0.38995 0.7005 0.05455 0.0
C199 C 0.36984 0.75774 0.06838 0.0
C200 C 0.38652 0.68377 0.01758 0.0
C201 C 0.36286 0.72375 0.99331 0.0
C202 C 0.34445 0.78211 0.00725 0.0
C203 C 0.34768 0.79863 0.04405 0.0
C204 C 0.3558 0.70422 0.95378 0.0
C205 C 0.4124 0.68861 0.93656 0.0
C206 C 0.40771 0.67251 0.89933 0.0
C207 C 0.34308 0.67153 0.87911 0.0
C208 C 0.28479 0.68643 0.89593 0.0
C209 C 0.2925 0.7024 0.93307 0.0
C210 C 1.21552 0.68766 0.87612 0.0
C211 C 1.2045 0.75523 0.88085 0.0
C212 C 1.15383 0.61874 0.85704 0.0
C213 C 1.08167 0.61633 0.84477 0.0
C214 C 1.06934 0.68306 0.85095 0.0
C215 C 0.47271 0.6593 0.8826 0.0
C216 C 0.51488 0.70151 0.85276 0.0
C217 C 0.4986 0.60955 0.89864 0.0
C218 C 0.56558 0.60431 0.88616 0.0
C219 C 0.61021 0.64969 0.85751 0.0
C220 C 0.58283 0.69709 0.84062 0.0
C221 C 1.13332 0.7532 0.86838 0.0
H222 H 0.40703 0.66743 0.07229 0.0
H223 H 0.40058 0.63799 0.0081 0.0
H224 H 0.32767 0.81563 0.98964 0.0
H225 H 0.33226 0.84353 0.0534 0.0
H226 H 0.46241 0.69185 0.95214 0.0
H227 H 0.24746 0.71232 0.94609 0.0
H228 H 0.33839 0.65968 0.85056 0.0
H229 H 0.25024 0.8093 0.89547 0.0
H230 H 1.15941 0.56512 0.85326 0.0
H231 H 1.0343 0.56099 0.83161 0.0
H232 H 0.49747 0.74065 0.83968 0.0
H233 H 0.46778 0.57555 0.92149 0.0
H234 H 1.12735 0.80617 0.8738 0.0
H235 H 0.61484 0.73133 0.81811 0.0
H236 H 0.58438 0.56704 0.89996 0.0
C237 C 1.23572 0.75074 0.29292 0.0
C238 C 0.30454 0.82078 0.28199 0.0
C239 C 1.19323 0.75473 0.32224 0.0
C240 C 1.21994 0.82849 0.34187 0.0
C241 C 0.29053 0.89802 0.33129 0.0
C242 C 0.33145 0.89441 0.30134 0.0
C243 C 1.17768 0.83201 0.37451 0.0
C244 C 1.14838 0.7683 0.39778 0.0
C245 C 1.12124 0.77577 0.43144 0.0
C246 C 1.12166 0.84748 0.44169 0.0
C247 C 1.15513 0.91435 0.41972 0.0
C248 C 1.17747 0.90334 0.38513 0.0
C249 C 1.19193 0.99892 0.43584 0.0
C250 C 1.22002 1.06477 0.41334 0.0
C251 C 1.22983 1.01459 0.46997 0.0
C252 C 0.30798 1.08056 0.47575 0.0
C253 C 0.34747 1.13022 0.44744 0.0
C254 C 1.11076 0.71583 0.45789 0.0
C255 C 1.06757 0.63283 0.44805 0.0
C256 C 1.15737 0.74171 0.49005 0.0
C257 C 1.16608 0.68614 0.51039 0.0
C258 C 1.12888 0.60454 0.49854 0.0
C259 C 1.07674 0.5777 0.46817 0.0
C260 C 0.29928 1.12988 0.41865 0.0
H261 H 1.21283 0.69346 0.27799 0.0
H262 H 1.1389 0.70008 0.32925 0.0
H263 H 0.31512 0.95538 0.34627 0.0
H264 H 0.38429 0.9493 0.2933 0.0
H265 H 1.15385 0.71544 0.39115 0.0
H266 H 1.20272 0.95312 0.36747 0.0
H267 H 1.10327 0.85349 0.46823 0.0
H268 H 1.18836 1.05871 0.38826 0.0
H269 H 1.20796 0.9692 0.4898 0.0
H270 H 0.34184 1.08189 0.49942 0.0
H271 H 1.03085 0.61138 0.42357 0.0
H272 H 1.19196 0.80556 0.49805 0.0
H273 H 0.32682 0.17083 0.39729 0.0
H274 H 1.04557 0.51431 0.45921 0.0
H275 H 1.20554 0.70755 0.53406 0.0
C276 C 0.62704 1.06636 0.58014 0.0
C277 C 0.7118 1.11085 0.58621 0.0
C278 C 0.57534 1.03141 0.60814 0.0
C279 C 0.60713 1.04125 0.64299 0.0
C280 C 0.69233 1.08394 0.64883 0.0
C281 C 0.74419 1.1176 0.6206 0.0
C282 C 0.5524 1.0148 0.6736 0.0
C283 C 0.57479 0.98993 0.70429 0.0
C284 C 0.53744 0.98653 0.73638 0.0
C285 C 0.47439 1.00394 0.73765 0.0
C286 C 0.44814 1.02603 0.70684 0.0
C287 C 0.4859 1.0282 0.67458 0.0
C288 C 0.40152 1.06959 0.71134 0.0
C289 C 0.35281 1.055 0.74117 0.0
C290 C 0.43174 1.14524 0.69583 0.0
C291 C 0.43768 0.21072 0.71609 0.0
C292 C 0.41528 0.20003 0.75178 0.0
C293 C 0.57616 0.98072 0.76933 0.0
C294 C 0.57323 0.90788 0.77658 0.0
C295 C 0.62805 1.05158 0.78993 0.0
C296 C 0.68102 1.05062 0.81586 0.0
C297 C 0.68153 0.97845 0.82171 0.0
C298 C 0.62513 0.90673 0.80273 0.0
C299 C 0.36055 1.12103 0.76185 0.0
H300 H 0.60038 1.05868 0.55363 0.0
H301 H 0.51038 0.99798 0.60257 0.0
H302 H 0.71925 1.09446 0.67542 0.0
H303 H 0.80925 1.15146 0.6259 0.0
H304 H 0.6259 0.97947 0.70403 0.0
H305 H 0.46919 1.04877 0.65113 0.0
H306 H 0.45155 1.00732 0.76351 0.0
H307 H 0.32292 0.99568 0.75236 0.0
H308 H 0.46514 0.15874 0.67158 0.0
H309 H 0.4757 0.27088 0.70647 0.0
H310 H 0.53447 0.85309 0.76053 0.0
H311 H 0.63163 1.10868 0.78422 0.0
H312 H 0.33791 1.11081 0.78857 0.0
H313 H 0.62586 0.85106 0.80593 0.0
H314 H 0.72434 1.10679 0.82992 0.0
C315 C 0.85685 0.57025 0.95766 0.0
C316 C 0.81843 0.60939 0.94247 0.0
C317 C 0.82771 0.52738 0.98846 0.0
C318 C 0.75854 0.52139 0.0041 0.0
C319 C 0.7205 0.56124 0.98918 0.0
C320 C 0.75062 0.60551 0.95868 0.0
C321 C 0.73152 0.48164 0.03818 0.0
C322 C 0.78565 0.51277 0.06766 0.0
C323 C 0.75767 0.49205 0.10202 0.0
C324 C 0.67629 0.43507 0.10673 0.0
C325 C 0.621 0.40104 0.07732 0.0
C326 C 0.64957 0.42436 0.04292 0.0
C327 C 0.53309 0.36273 0.0843 0.0
C328 C 0.50274 0.31637 0.11452 0.0
C329 C 0.48951 0.397 0.06946 0.0
C330 C 0.43176 0.40364 0.08944 0.0
C331 C 0.41796 0.3764 0.12433 0.0
C332 C 0.8079 0.54695 0.13185 0.0
C333 C 0.88345 0.55485 0.14049 0.0
C334 C 0.78885 0.60492 0.14543 0.0
C335 C 0.84794 0.67462 0.16419 0.0
C336 C 0.92582 0.68579 0.17025 0.0
C337 C 0.94184 0.62358 0.15992 0.0
C338 C 0.44536 0.32363 0.13471 0.0
H339 H 0.90872 0.5717 0.94531 0.0
H340 H 0.85866 0.49822 -9e-05 0.0
H341 H 0.66809 0.55888 0.00138 0.0
H342 H 0.71903 0.63379 0.947 0.0
H343 H 0.84767 0.56078 0.06423 0.0
H344 H 0.60719 0.40278 0.0202 0.0
H345 H 0.65477 0.42466 0.13366 0.0
H346 H 0.533 0.28629 0.12572 0.0
H347 H 0.50932 0.43121 0.04563 0.0
H348 H 0.40973 0.44253 0.07997 0.0
H349 H 0.89949 0.51136 0.12975 0.0
H350 H 0.73109 0.60026 0.13846 0.0
H351 H 0.43284 0.29888 0.1609 0.0
H352 H 1.00224 0.63199 0.16355 0.0
H353 H 0.8349 0.72236 0.17152 0.0
loop_
_geom_bond_atom_site_label_1
_geom_bond_atom_site_label_2
_geom_bond_distance
_geom_bond_site_symmetry_2
_ccdc_geom_bond_type
Tb0 C9 2.764 . S
Tb0 O10 2.325 . S
Tb0 O13 2.303 1_655 S
Tb0 O17 2.322 1_655 S
Tb0 O18 2.349 1_655 S
Tb0 O21 2.415 . S
Tb0 O22 2.399 . S
Tb1 O11 2.322 1_455 S
Tb1 O12 2.349 . S
Tb1 O14 2.415 . S
Tb1 O15 2.399 . S
Tb1 O16 2.325 . S
Tb1 O19 2.303 . S
Tb1 C30 2.764 . S
C2 O18 1.261 . S
C2 O19 1.257 . S
C3 C6 1.358 . S
C3 C7 1.332 . S
C3 C9 1.504 . S
C4 C5 1.373 . S
C4 C8 1.308 . S
C5 C4 1.373 . S
C5 C6 1.429 . S
C5 H32 0.932 . S
C6 C3 1.358 . S
C6 C5 1.429 . S
C6 H33 0.930 . S
C7 C3 1.332 . S
C7 C8 1.394 . S
C7 H34 0.932 . S
C8 C4 1.308 . S
C8 C7 1.394 . S
C8 H35 0.929 . S
C9 Tb0 2.764 . S
C9 C3 1.504 . S
C9 O21 1.239 . S
C9 O22 1.263 . S
O10 Tb0 2.325 . S
O10 C20 1.236 . S
O11 Tb1 2.322 1_655 S
O11 C20 1.257 . S
O12 Tb1 2.349 . S
O12 C23 1.261 . S
O13 Tb0 2.303 1_455 S
O13 C23 1.257 . S
O14 Tb1 2.415 . S
O14 C30 1.239 . S
O15 Tb1 2.399 . S
O15 C30 1.263 . S
O16 Tb1 2.325 . S
O16 C31 1.236 . S
O17 Tb0 2.322 1_455 S
O17 C31 1.257 . S
O18 Tb0 2.349 1_455 S
O18 C2 1.261 . S
O19 Tb1 2.303 . S
O19 C2 1.257 . S
C20 O10 1.236 . S
C20 O11 1.257 . S
O21 Tb0 2.415 . S
O21 C9 1.239 . S
O22 Tb0 2.399 . S
O22 C9 1.263 . S
C23 O12 1.261 . S
C23 O13 1.257 . S
C24 C27 1.358 . S
C24 C28 1.332 . S
C24 C30 1.504 . S
C25 C26 1.373 . S
C25 C29 1.308 . S
C26 C25 1.373 . S
C26 C27 1.429 . S
C26 H36 0.932 . S
C27 C24 1.358 . S
C27 C26 1.429 . S
C27 H37 0.930 . S
C28 C24 1.332 . S
C28 C29 1.394 . S
C28 H38 0.932 . S
C29 C25 1.308 . S
C29 C28 1.394 . S
C29 H39 0.929 . S
C30 Tb1 2.764 . S
C30 O14 1.239 . S
C30 O15 1.263 . S
C30 C24 1.504 . S
C31 O16 1.236 . S
C31 O17 1.257 . S
H32 C5 0.932 . S
H33 C6 0.930 . S
H34 C7 0.932 . S
H35 C8 0.929 . S
H36 C26 0.932 . S
H37 C27 0.930 . S
H38 C28 0.932 . S
H39 C29 0.929 . S
Tb40 C49 2.764 . S
Tb40 O50 2.325 . S
Tb40 O53 2.303 1_565 S
Tb40 O57 2.322 1_565 S
Tb40 O58 2.349 1_565 S
Tb40 O61 2.415 . S
Tb40 O62 2.399 . S
Tb41 O51 2.322 1_545 S
Tb41 O52 2.349 . S
Tb41 O54 2.415 . S
Tb41 O55 2.399 . S
Tb41 O56 2.325 . S
Tb41 O59 2.303 . S
Tb41 C70 2.764 . S
C42 O58 1.261 . S
C42 O59 1.257 . S
C43 C46 1.358 . S
C43 C47 1.332 . S
C43 C49 1.504 . S
C44 C45 1.373 . S
C44 C48 1.308 . S
C45 C44 1.373 . S
C45 C46 1.429 . S
C45 H72 0.932 . S
C46 C43 1.358 . S
C46 C45 1.429 . S
C46 H73 0.930 . S
C47 C43 1.332 . S
C47 C48 1.394 . S
C47 H74 0.932 . S
C48 C44 1.308 . S
C48 C47 1.394 . S
C48 H75 0.929 . S
C49 Tb40 2.764 . S
C49 C43 1.504 . S
C49 O61 1.239 . S
C49 O62 1.263 . S
O50 Tb40 2.325 . S
O50 C60 1.236 . S
O51 Tb41 2.322 1_565 S
O51 C60 1.257 . S
O52 Tb41 2.349 . S
O52 C63 1.261 . S
O53 Tb40 2.303 1_545 S
O53 C63 1.257 . S
O54 Tb41 2.415 . S
O54 C70 1.239 . S
O55 Tb41 2.399 . S
O55 C70 1.263 . S
O56 Tb41 2.325 . S
O56 C71 1.236 . S
O57 Tb40 2.322 1_545 S
O57 C71 1.257 . S
O58 Tb40 2.349 1_545 S
O58 C42 1.261 . S
O59 Tb41 2.303 . S
O59 C42 1.257 . S
C60 O50 1.236 . S
C60 O51 1.257 . S
O61 Tb40 2.415 . S
O61 C49 1.239 . S
O62 Tb40 2.399 . S
O62 C49 1.263 . S
C63 O52 1.261 . S
C63 O53 1.257 . S
C64 C67 1.358 . S
C64 C68 1.332 . S
C64 C70 1.504 . S
C65 C66 1.373 . S
C65 C69 1.308 . S
C66 C65 1.373 . S
C66 C67 1.429 . S
C66 H76 0.932 . S
C67 C64 1.358 . S
C67 C66 1.429 . S
C67 H77 0.930 . S
C68 C64 1.332 . S
C68 C69 1.394 . S
C68 H78 0.932 . S
C69 C65 1.308 . S
C69 C68 1.394 . S
C69 H79 0.929 . S
C70 Tb41 2.764 . S
C70 O54 1.239 . S
C70 O55 1.263 . S
C70 C64 1.504 . S
C71 O56 1.236 . S
C71 O57 1.257 . S
H72 C45 0.932 . S
H73 C46 0.930 . S
H74 C47 0.932 . S
H75 C48 0.929 . S
H76 C66 0.932 . S
H77 C67 0.930 . S
H78 C68 0.932 . S
H79 C69 0.929 . S
Tb80 C89 2.764 . S
Tb80 O90 2.325 . S
Tb80 O93 2.303 . S
Tb80 O97 2.322 . S
Tb80 O98 2.349 . S
Tb80 O101 2.415 . S
Tb80 O102 2.399 . S
Tb81 O91 2.322 . S
Tb81 O92 2.349 . S
Tb81 O94 2.415 . S
Tb81 O95 2.399 . S
Tb81 O96 2.325 . S
Tb81 O99 2.303 . S
Tb81 C110 2.764 . S
C82 O98 1.261 . S
C82 O99 1.257 . S
C83 C86 1.358 . S
C83 C87 1.332 . S
C83 C89 1.504 . S
C84 C85 1.373 . S
C84 C88 1.308 . S
C85 C84 1.373 . S
C85 C86 1.429 . S
C85 H112 0.932 . S
C86 C83 1.358 . S
C86 C85 1.429 . S
C86 H113 0.930 . S
C87 C83 1.332 . S
C87 C88 1.394 . S
C87 H114 0.932 . S
C88 C84 1.308 . S
C88 C87 1.394 . S
C88 H115 0.929 . S
C89 Tb80 2.764 . S
C89 C83 1.504 . S
C89 O101 1.239 . S
C89 O102 1.263 . S
O90 Tb80 2.325 . S
O90 C100 1.236 . S
O91 Tb81 2.322 . S
O91 C100 1.257 . S
O92 Tb81 2.349 . S
O92 C103 1.261 . S
O93 Tb80 2.303 . S
O93 C103 1.257 . S
O94 Tb81 2.415 . S
O94 C110 1.239 . S
O95 Tb81 2.399 . S
O95 C110 1.263 . S
O96 Tb81 2.325 . S
O96 C111 1.236 . S
O97 Tb80 2.322 . S
O97 C111 1.257 . S
O98 Tb80 2.349 . S
O98 C82 1.261 . S
O99 Tb81 2.303 . S
O99 C82 1.257 . S
C100 O90 1.236 . S
C100 O91 1.257 . S
O101 Tb80 2.415 . S
O101 C89 1.239 . S
O102 Tb80 2.399 . S
O102 C89 1.263 . S
C103 O92 1.261 . S
C103 O93 1.257 . S
C104 C107 1.358 . S
C104 C108 1.332 . S
C104 C110 1.504 . S
C105 C106 1.373 . S
C105 C109 1.308 . S
C106 C105 1.373 . S
C106 C107 1.429 . S
C106 H116 0.932 . S
C107 C104 1.358 . S
C107 C106 1.429 . S
C107 H117 0.930 . S
C108 C104 1.332 . S
C108 C109 1.394 . S
C108 H118 0.932 . S
C109 C105 1.308 . S
C109 C108 1.394 . S
C109 H119 0.929 . S
C110 Tb81 2.764 . S
C110 O94 1.239 . S
C110 O95 1.263 . S
C110 C104 1.504 . S
C111 O96 1.236 . S
C111 O97 1.257 . S
H112 C85 0.932 . S
H113 C86 0.930 . S
H114 C87 0.932 . S
H115 C88 0.929 . S
H116 C106 0.932 . S
H117 C107 0.930 . S
H118 C108 0.932 . S
H119 C109 0.929 . S
C120 C121 1.386 . S
C120 C122 1.397 . S
C120 H144 0.931 . S
C121 C120 1.386 . S
C121 C125 1.397 . S
C122 C120 1.397 . S
C122 C123 1.384 . S
C122 H145 0.930 . S
C123 C122 1.384 . S
C123 C124 1.377 . S
C123 C126 1.481 . S
C124 C123 1.377 . S
C124 C125 1.389 . S
C124 H146 0.929 1_545 S
C125 C121 1.397 . S
C125 C124 1.389 . S
C125 H147 0.931 1_545 S
C126 C123 1.481 . S
C126 C127 1.387 . S
C126 C131 1.390 1_545 S
C127 C126 1.387 . S
C127 C128 1.401 . S
C127 H148 0.930 . S
C128 C127 1.401 . S
C128 C129 1.376 . S
C128 C137 1.511 . S
C129 C128 1.376 . S
C129 C130 1.392 1_545 S
C129 H150 0.931 . S
C130 C129 1.392 1_565 S
C130 C131 1.361 . S
C130 C132 1.500 . S
C131 C126 1.390 1_565 S
C131 C130 1.361 . S
C131 H149 0.931 . S
C132 C130 1.500 . S
C132 C133 1.371 . S
C132 C134 1.365 . S
C133 C132 1.371 . S
C133 C143 1.386 . S
C133 H151 0.931 . S
C134 C132 1.365 . S
C134 C135 1.409 . S
C134 H152 0.929 . S
C135 C134 1.409 . S
C135 C136 1.380 . S
C135 H153 0.930 . S
C136 C135 1.380 . S
C136 C143 1.357 . S
C137 C128 1.511 . S
C137 C138 1.341 . S
C137 C139 1.371 . S
C138 C137 1.341 . S
C138 C142 1.394 . S
C138 H154 0.930 . S
C139 C137 1.371 . S
C139 C140 1.392 . S
C139 H155 0.931 . S
C140 C139 1.392 . S
C140 C141 1.331 . S
C140 H158 0.932 . S
C141 C140 1.331 . S
C141 C142 1.336 . S
C142 C138 1.394 . S
C142 C141 1.336 . S
C142 H157 0.929 . S
C143 C133 1.386 . S
C143 C136 1.357 . S
C143 H156 0.928 . S
H144 C120 0.931 . S
H145 C122 0.930 . S
H146 C124 0.929 1_565 S
H147 C125 0.931 1_565 S
H148 C127 0.930 . S
H149 C131 0.931 . S
H150 C129 0.931 . S
H151 C133 0.931 . S
H152 C134 0.929 . S
H153 C135 0.930 . S
H154 C138 0.930 . S
H155 C139 0.931 . S
H156 C143 0.928 . S
H157 C142 0.929 . S
H158 C140 0.932 . S
C159 C160 1.386 . S
C159 C161 1.397 . S
C159 H183 0.931 . S
C160 C159 1.386 . S
C160 C164 1.397 . S
C161 C159 1.397 . S
C161 C162 1.384 . S
C161 H184 0.930 . S
C162 C161 1.384 . S
C162 C163 1.377 . S
C162 C165 1.481 . S
C163 C162 1.377 . S
C163 C164 1.389 . S
C163 H185 0.929 . S
C164 C160 1.397 . S
C164 C163 1.389 . S
C164 H186 0.931 . S
C165 C162 1.481 . S
C165 C166 1.387 . S
C165 C170 1.390 . S
C166 C165 1.387 . S
C166 C167 1.401 . S
C166 H187 0.930 . S
C167 C166 1.401 . S
C167 C168 1.376 . S
C167 C176 1.511 . S
C168 C167 1.376 . S
C168 C169 1.392 . S
C168 H189 0.931 . S
C169 C168 1.392 . S
C169 C170 1.361 . S
C169 C171 1.500 . S
C170 C165 1.390 . S
C170 C169 1.361 . S
C170 H188 0.931 . S
C171 C169 1.500 . S
C171 C172 1.371 . S
C171 C173 1.365 . S
C172 C171 1.371 . S
C172 C182 1.386 . S
C172 H190 0.931 . S
C173 C171 1.365 . S
C173 C174 1.409 . S
C173 H191 0.929 . S
C174 C173 1.409 . S
C174 C175 1.380 . S
C174 H192 0.930 . S
C175 C174 1.380 . S
C175 C182 1.357 . S
C176 C167 1.511 . S
C176 C177 1.341 . S
C176 C178 1.371 . S
C177 C176 1.341 . S
C177 C181 1.394 . S
C177 H193 0.930 . S
C178 C176 1.371 . S
C178 C179 1.392 . S
C178 H194 0.931 . S
C179 C178 1.392 . S
C179 C180 1.331 . S
C179 H197 0.932 . S
C180 C179 1.331 . S
C180 C181 1.336 . S
C181 C177 1.394 . S
C181 C180 1.336 . S
C181 H196 0.929 . S
C182 C172 1.386 . S
C182 C175 1.357 . S
C182 H195 0.928 . S
H183 C159 0.931 . S
H184 C161 0.930 . S
H185 C163 0.929 . S
H186 C164 0.931 . S
H187 C166 0.930 . S
H188 C170 0.931 . S
H189 C168 0.931 . S
H190 C172 0.931 . S
H191 C173 0.929 . S
H192 C174 0.930 . S
H193 C177 0.930 . S
H194 C178 0.931 . S
H195 C182 0.928 . S
H196 C181 0.929 . S
H197 C179 0.932 . S
C198 C199 1.386 . S
C198 C200 1.397 . S
C198 H222 0.931 . S
C199 C198 1.386 . S
C199 C203 1.397 . S
C200 C198 1.397 . S
C200 C201 1.384 1_554 S
C200 H223 0.930 1_554 S
C201 C200 1.384 1_556 S
C201 C202 1.365 1_556 S
C201 C204 1.481 . S
C202 C201 1.365 1_554 S
C202 C203 1.414 . S
C202 H224 0.916 1_454 S
C203 C199 1.397 . S
C203 C202 1.414 . S
C203 H225 0.931 1_455 S
C204 C201 1.481 . S
C204 C205 1.387 . S
C204 C209 1.390 . S
C205 C204 1.387 . S
C205 C206 1.401 . S
C205 H226 0.930 . S
C206 C205 1.401 . S
C206 C207 1.376 . S
C206 C215 1.511 . S
C207 C206 1.376 . S
C207 C208 1.392 . S
C207 H228 0.931 . S
C208 C207 1.392 . S
C208 C209 1.361 . S
C208 C210 1.500 1_455 S
C209 C204 1.390 . S
C209 C208 1.361 . S
C209 H227 0.931 1_455 S
C210 C208 1.500 1_655 S
C210 C211 1.371 . S
C210 C212 1.365 . S
C211 C210 1.371 . S
C211 C221 1.386 . S
C211 H229 0.931 1_655 S
C212 C210 1.365 . S
C212 C213 1.409 . S
C212 H230 0.929 . S
C213 C212 1.409 . S
C213 C214 1.380 . S
C213 H231 0.930 . S
C214 C213 1.380 . S
C214 C221 1.357 . S
C215 C206 1.511 . S
C215 C216 1.341 . S
C215 C217 1.371 . S
C216 C215 1.341 . S
C216 C220 1.394 . S
C216 H232 0.930 . S
C217 C215 1.371 . S
C217 C218 1.392 . S
C217 H233 0.931 . S
C218 C217 1.392 . S
C218 C219 1.331 . S
C218 H236 0.932 . S
C219 C218 1.331 . S
C219 C220 1.336 . S
C220 C216 1.394 . S
C220 C219 1.336 . S
C220 H235 0.929 . S
C221 C211 1.386 . S
C221 C214 1.357 . S
C221 H234 0.928 . S
H222 C198 0.931 . S
H223 C200 0.930 1_556 S
H224 C202 0.916 1_656 S
H225 C203 0.931 1_655 S
H226 C205 0.930 . S
H227 C209 0.931 1_655 S
H228 C207 0.931 . S
H229 C211 0.931 1_455 S
H230 C212 0.929 . S
H231 C213 0.930 . S
H232 C216 0.930 . S
H233 C217 0.931 . S
H234 C221 0.928 . S
H235 C220 0.929 . S
H236 C218 0.932 . S
C237 C238 1.386 . S
C237 C239 1.397 . S
C237 H261 0.931 . S
C238 C237 1.386 . S
C238 C242 1.397 1_655 S
C239 C237 1.397 . S
C239 C240 1.384 . S
C239 H262 0.930 . S
C240 C239 1.384 . S
C240 C241 1.377 1_655 S
C240 C243 1.481 . S
C241 C240 1.377 1_455 S
C241 C242 1.389 . S
C241 H263 0.929 . S
C242 C238 1.397 1_455 S
C242 C241 1.389 . S
C242 H264 0.931 . S
C243 C240 1.481 . S
C243 C244 1.387 . S
C243 C248 1.390 1_655 S
C244 C243 1.387 . S
C244 C245 1.401 . S
C244 H265 0.930 . S
C245 C244 1.401 . S
C245 C246 1.376 1_655 S
C245 C254 1.511 . S
C246 C245 1.376 1_455 S
C246 C247 1.392 . S
C246 H267 0.931 . S
C247 C246 1.392 . S
C247 C248 1.361 . S
C247 C249 1.500 . S
C248 C243 1.390 1_455 S
C248 C247 1.361 . S
C248 H266 0.931 . S
C249 C247 1.500 . S
C249 C250 1.371 . S
C249 C251 1.365 . S
C250 C249 1.371 . S
C250 C260 1.386 . S
C250 H268 0.931 . S
C251 C249 1.365 . S
C251 C252 1.409 . S
C251 H269 0.929 . S
C252 C251 1.409 . S
C252 C253 1.380 . S
C252 H270 0.930 . S
C253 C252 1.380 . S
C253 C260 1.357 . S
C254 C245 1.511 . S
C254 C255 1.341 . S
C254 C256 1.371 . S
C255 C254 1.341 . S
C255 C259 1.394 . S
C255 H271 0.930 . S
C256 C254 1.371 . S
C256 C257 1.392 . S
C256 H272 0.931 . S
C257 C256 1.392 . S
C257 C258 1.331 . S
C257 H275 0.932 . S
C258 C257 1.331 . S
C258 C259 1.336 . S
C259 C255 1.394 . S
C259 C258 1.336 . S
C259 H274 0.929 . S
C260 C250 1.386 . S
C260 C253 1.357 . S
C260 H273 0.928 . S
H261 C237 0.931 . S
H262 C239 0.930 . S
H263 C241 0.929 . S
H264 C242 0.931 . S
H265 C244 0.930 . S
H266 C248 0.931 . S
H267 C246 0.931 . S
H268 C250 0.931 . S
H269 C251 0.929 . S
H270 C252 0.930 . S
H271 C255 0.930 . S
H272 C256 0.931 . S
H273 C260 0.928 . S
H274 C259 0.929 . S
H275 C257 0.932 . S
C276 C277 1.386 . S
C276 C278 1.397 . S
C276 H300 0.931 . S
C277 C276 1.386 . S
C277 C281 1.397 1_565 S
C278 C276 1.397 . S
C278 C279 1.384 . S
C278 H301 0.930 . S
C279 C278 1.384 . S
C279 C280 1.377 1_565 S
C279 C282 1.481 . S
C280 C279 1.377 1_545 S
C280 C281 1.389 . S
C280 H302 0.929 . S
C281 C277 1.397 1_545 S
C281 C280 1.389 . S
C281 H303 0.931 . S
C282 C279 1.481 . S
C282 C283 1.387 . S
C282 C287 1.390 1_565 S
C283 C282 1.387 . S
C283 C284 1.401 . S
C283 H304 0.930 . S
C284 C283 1.401 . S
C284 C285 1.376 1_565 S
C284 C293 1.511 . S
C285 C284 1.376 1_545 S
C285 C286 1.392 . S
C285 H306 0.931 . S
C286 C285 1.392 . S
C286 C287 1.361 . S
C286 C288 1.500 . S
C287 C282 1.390 1_545 S
C287 C286 1.361 . S
C287 H305 0.931 . S
C288 C286 1.500 . S
C288 C289 1.371 . S
C288 C290 1.365 . S
C289 C288 1.371 . S
C289 C299 1.386 . S
C289 H307 0.931 . S
C290 C288 1.365 . S
C290 C291 1.409 . S
C290 H308 0.929 . S
C291 C290 1.409 . S
C291 C292 1.380 . S
C291 H309 0.930 . S
C292 C291 1.380 . S
C292 C299 1.357 . S
C293 C284 1.511 . S
C293 C294 1.341 . S
C293 C295 1.371 . S
C294 C293 1.341 . S
C294 C298 1.394 . S
C294 H310 0.930 . S
C295 C293 1.371 . S
C295 C296 1.392 . S
C295 H311 0.931 . S
C296 C295 1.392 . S
C296 C297 1.331 . S
C296 H314 0.932 . S
C297 C296 1.331 . S
C297 C298 1.336 . S
C298 C294 1.394 . S
C298 C297 1.336 . S
C298 H313 0.929 . S
C299 C289 1.386 . S
C299 C292 1.357 . S
C299 H312 0.928 . S
H300 C276 0.931 . S
H301 C278 0.930 . S
H302 C280 0.929 . S
H303 C281 0.931 . S
H304 C283 0.930 . S
H305 C287 0.931 . S
H306 C285 0.931 . S
H307 C289 0.931 . S
H308 C290 0.929 . S
H309 C291 0.930 . S
H310 C294 0.930 . S
H311 C295 0.931 . S
H312 C299 0.928 . S
H313 C298 0.929 . S
H314 C296 0.932 . S
C315 C316 1.386 . S
C315 C317 1.397 . S
C315 H339 0.931 . S
C316 C315 1.386 . S
C316 C320 1.397 . S
C317 C315 1.397 . S
C317 C318 1.384 . S
C317 H340 0.930 . S
C318 C317 1.384 . S
C318 C319 1.377 . S
C318 C321 1.481 1_556 S
C319 C318 1.377 . S
C319 C320 1.389 . S
C319 H341 0.929 . S
C320 C316 1.397 . S
C320 C319 1.389 . S
C320 H342 0.931 . S
C321 C318 1.481 1_554 S
C321 C322 1.387 . S
C321 C326 1.390 . S
C322 C321 1.387 . S
C322 C323 1.401 . S
C322 H343 0.930 . S
C323 C322 1.401 . S
C323 C324 1.376 . S
C323 C332 1.511 . S
C324 C323 1.376 . S
C324 C325 1.392 . S
C324 H345 0.931 . S
C325 C324 1.392 . S
C325 C326 1.361 . S
C325 C327 1.500 . S
C326 C321 1.390 . S
C326 C325 1.361 . S
C326 H344 0.931 . S
C327 C325 1.500 . S
C327 C328 1.371 . S
C327 C329 1.365 . S
C328 C327 1.371 . S
C328 C338 1.386 . S
C328 H346 0.931 . S
C329 C327 1.365 . S
C329 C330 1.409 . S
C329 H347 0.929 . S
C330 C329 1.409 . S
C330 C331 1.380 . S
C330 H348 0.930 . S
C331 C330 1.380 . S
C331 C338 1.357 . S
C332 C323 1.511 . S
C332 C333 1.341 . S
C332 C334 1.371 . S
C333 C332 1.341 . S
C333 C337 1.394 . S
C333 H349 0.930 . S
C334 C332 1.371 . S
C334 C335 1.392 . S
C334 H350 0.931 . S
C335 C334 1.392 . S
C335 C336 1.331 . S
C335 H353 0.932 . S
C336 C335 1.331 . S
C336 C337 1.336 . S
C337 C333 1.394 . S
C337 C336 1.336 . S
C337 H352 0.929 . S
C338 C328 1.386 . S
C338 C331 1.357 . S
C338 H351 0.928 . S
H339 C315 0.931 . S
H340 C317 0.930 . S
H341 C319 0.929 . S
H342 C320 0.931 . S
H343 C322 0.930 . S
H344 C326 0.931 . S
H345 C324 0.931 . S
H346 C328 0.931 . S
H347 C329 0.929 . S
H348 C330 0.930 . S
H349 C333 0.930 . S
H350 C334 0.931 . S
H351 C338 0.928 . S
H352 C337 0.929 . S
H353 C335 0.932 . S
C25 C331 2.261 . S
C65 C258 2.343 . S
C105 C297 2.706 . S
C4 C336 2.660 . S
C253 C44 1.876 . S
C292 C84 2.064 . S
C60 C180 4.763 . S
C100 C214 5.038 . S
C31 C136 5.080 . S
C175 C71 5.083 . S
C219 C111 4.826 . S
C20 C141 4.770 . S
C199 C2 2.093 . S
C42 C121 2.153 . S
C82 C160 2.117 . S
C277 C63 1.579 1_565 S
C316 C103 1.850 . S
C23 C238 1.282 1_455 S
