# Generated by pormake.
# Topology zzz, (3,6)-cn, num edge types: 1
# Building blocks:
#     Node 0, Type 0, BuildingBlock: BETDAH_clean_linker_0, # of connection points: 3
#     Node 1, Type 0, BuildingBlock: BETDAH_clean_linker_0, # of connection points: 3
#     Node 2, Type 0, BuildingBlock: BETDAH_clean_linker_0, # of connection points: 3
#     Node 3, Type 0, BuildingBlock: BETDAH_clean_linker_0, # of connection points: 3
#     Node 4, Type 0, BuildingBlock: BETDAH_clean_linker_0, # of connection points: 3
#     Node 5, Type 0, BuildingBlock: BETDAH_clean_linker_0, # of connection points: 3
#     Node 6, Type 0, BuildingBlock: BETDAH_clean_linker_0, # of connection points: 3
#     Node 7, Type 0, BuildingBlock: BETDAH_clean_linker_0, # of connection points: 3
#     Node 8, Type 1, BuildingBlock: CUKXOW_clean_sbu_0, # of connection points: 6
#     Node 9, Type 1, BuildingBlock: CUKXOW_clean_sbu_0, # of connection points: 6
#     Node 10, Type 1, BuildingBlock: CUKXOW_clean_sbu_0, # of connection points: 6
#     Node 11, Type 1, BuildingBlock: CUKXOW_clean_sbu_0, # of connection points: 6
#     Edge 12, Type (0, 1), BuildingBlock: XUDNAN_clean_linker_2, # of connection points: 2
#     Edge 13, Type (0, 1), BuildingBlock: XUDNAN_clean_linker_2, # of connection points: 2
#     Edge 14, Type (0, 1), BuildingBlock: XUDNAN_clean_linker_2, # of connection points: 2
#     Edge 15, Type (0, 1), BuildingBlock: XUDNAN_clean_linker_2, # of connection points: 2
#     Edge 16, Type (0, 1), BuildingBlock: XUDNAN_clean_linker_2, # of connection points: 2
#     Edge 17, Type (0, 1), BuildingBlock: XUDNAN_clean_linker_2, # of connection points: 2
#     Edge 18, Type (0, 1), BuildingBlock: XUDNAN_clean_linker_2, # of connection points: 2
#     Edge 19, Type (0, 1), BuildingBlock: XUDNAN_clean_linker_2, # of connection points: 2
#     Edge 20, Type (0, 1), BuildingBlock: XUDNAN_clean_linker_2, # of connection points: 2
#     Edge 21, Type (0, 1), BuildingBlock: XUDNAN_clean_linker_2, # of connection points: 2
#     Edge 22, Type (0, 1), BuildingBlock: XUDNAN_clean_linker_2, # of connection points: 2
#     Edge 23, Type (0, 1), BuildingBlock: XUDNAN_clean_linker_2, # of connection points: 2
#     Edge 24, Type (0, 1), BuildingBlock: XUDNAN_clean_linker_2, # of connection points: 2
#     Edge 25, Type (0, 1), BuildingBlock: XUDNAN_clean_linker_2, # of connection points: 2
#     Edge 26, Type (0, 1), BuildingBlock: XUDNAN_clean_linker_2, # of connection points: 2
#     Edge 27, Type (0, 1), BuildingBlock: XUDNAN_clean_linker_2, # of connection points: 2
#     Edge 28, Type (0, 1), BuildingBlock: XUDNAN_clean_linker_2, # of connection points: 2
#     Edge 29, Type (0, 1), BuildingBlock: XUDNAN_clean_linker_2, # of connection points: 2
#     Edge 30, Type (0, 1), BuildingBlock: XUDNAN_clean_linker_2, # of connection points: 2
#     Edge 31, Type (0, 1), BuildingBlock: XUDNAN_clean_linker_2, # of connection points: 2
#     Edge 32, Type (0, 1), BuildingBlock: XUDNAN_clean_linker_2, # of connection points: 2
#     Edge 33, Type (0, 1), BuildingBlock: XUDNAN_clean_linker_2, # of connection points: 2
#     Edge 34, Type (0, 1), BuildingBlock: XUDNAN_clean_linker_2, # of connection points: 2
#     Edge 35, Type (0, 1), BuildingBlock: XUDNAN_clean_linker_2, # of connection points: 2
# Relax obj value: 0.067
# Max RMSD: 0.118
# Mean RMSD: 0.082
data_MOF--net-zzz--node1-CUKXOW_clean_sbu_0--node2-BETDAH_clean_linker_0--edge1-XUDNAN_clean_linker_2
_symmetry_space_group_name_H-M    P1
_symmetry_Int_Tables_number       1
_symmetry_cell_setting            triclinic
loop_
_symmetry_equiv_pos_as_xyz
'x, y, z'
_cell_length_a     50.801942
_cell_length_b     52.747652
_cell_length_c     15.751298
_cell_angle_alpha  93.44246
_cell_angle_beta   86.580427
_cell_angle_gamma 93.863681
loop_
_atom_site_label
_atom_site_type_symbol
_atom_site_fract_x
_atom_site_fract_y
_atom_site_fract_z
_atom_type_partial_charge
H0 H 0.83535 0.50753 0.17884 0.0
H1 H 0.76525 0.50705 0.03931 0.0
H2 H 0.7631 0.53034 0.30704 0.0
C3 C 0.81443 0.51046 0.17757 0.0
C4 C 0.80088 0.51965 0.25161 0.0
C5 C 0.80184 0.50584 0.10109 0.0
C6 C 0.77488 0.51001 0.09895 0.0
C7 C 0.76071 0.51849 0.17409 0.0
C8 C 0.77387 0.52337 0.24986 0.0
N9 N 0.73347 0.52303 0.17564 0.0
C10 C 0.71661 0.5141 0.1127 0.0
H11 H 0.99657 0.84476 0.01655 0.0
H12 H 0.01801 0.78573 0.82872 0.0
H13 H 0.04871 0.78911 0.07719 0.0
C14 C 0.00533 0.82689 -0.00108 0.0
C15 C 0.0209 0.8171 0.05796 0.0
C16 C 0.00446 0.81633 0.91486 0.0
C17 C 0.01794 0.79419 0.89309 0.0
C18 C 0.03349 0.78415 0.95196 0.0
C19 C 0.03523 0.79581 0.03396 0.0
N20 N 0.05128 0.76564 0.92341 0.0
C21 C 0.04479 0.73984 0.92857 0.0
H22 H 0.66161 0.9735 0.062 0.0
H23 H 0.73964 0.9817 0.94322 0.0
H24 H 0.72852 0.96211 0.20608 0.0
C25 C 0.68279 0.97237 0.06528 0.0
C26 C 0.69301 0.96745 0.1425 0.0
C27 C 0.69938 0.97759 0.99372 0.0
C28 C 0.72683 0.97701 -0.00175 0.0
C29 C 0.73742 0.97068 0.07467 0.0
C30 C 0.72036 0.96597 0.1465 0.0
N31 N 0.76505 0.9698 0.08279 0.0
C32 C 0.78414 0.97426 0.0175 0.0
H33 H 0.54465 0.66523 0.10623 0.0
H34 H 0.53973 0.73757 -0.00034 0.0
H35 H 0.56273 0.73388 0.2581 0.0
C36 C 0.54685 0.68586 0.1131 0.0
C37 C 0.55358 0.69772 0.19128 0.0
C38 C 0.54161 0.69995 0.04442 0.0
C39 C 0.54411 0.72666 0.05258 0.0
C40 C 0.5526 0.73896 0.12947 0.0
C41 C 0.55726 0.72435 0.19824 0.0
N42 N 0.55626 0.76587 0.14099 0.0
C43 C 0.54758 0.78297 0.08667 0.0
H44 H 0.18331 0.50735 0.37677 0.0
H45 H 0.25448 0.53884 0.48622 0.0
H46 H 0.25176 0.52605 0.2137 0.0
C47 C 0.20396 0.51397 0.36895 0.0
C48 C 0.21571 0.51586 0.28682 0.0
C49 C 0.21756 0.5225 0.4409 0.0
C50 C 0.24413 0.53153 0.43086 0.0
C51 C 0.25683 0.53192 0.34855 0.0
C52 C 0.24236 0.52448 0.27694 0.0
N53 N 0.28367 0.5408 0.33523 0.0
C54 C 0.30203 0.54089 0.39709 0.0
H55 H 0.02814 0.17992 0.35762 0.0
H56 H 0.99217 0.24788 0.45501 0.0
H57 H 0.02789 0.2434 0.19982 0.0
C58 C 0.02428 0.19966 0.35063 0.0
C59 C 0.0304 0.21031 0.27219 0.0
C60 C 0.01019 0.21289 0.41631 0.0
C61 C 0.00368 0.23788 0.40519 0.0
C62 C 0.01092 0.24927 0.32758 0.0
C63 C 0.02362 0.23514 0.26089 0.0
N64 N 0.00443 0.27428 0.31257 0.0
C65 C 0.99934 0.29267 0.37708 0.0
H66 H 0.35355 0.0328 0.27924 0.0
H67 H 0.27798 0.03783 0.41226 0.0
H68 H 0.29108 0.06613 0.16067 0.0
C69 C 0.33367 0.03926 0.28138 0.0
C70 C 0.32477 0.05051 0.21122 0.0
C71 C 0.31716 0.03506 0.35387 0.0
C72 C 0.29078 0.04147 0.35627 0.0
C73 C 0.28134 0.05274 0.28582 0.0
C74 C 0.29848 0.05741 0.21428 0.0
N75 N 0.25481 0.05948 0.2838 0.0
C76 C 0.2349 0.05344 0.34493 0.0
H77 H 0.46538 0.33874 0.31839 0.0
H78 H 0.45371 0.27183 0.46223 0.0
H79 H 0.42146 0.27268 0.2153 0.0
C80 C 0.45719 0.31933 0.32399 0.0
C81 C 0.44303 0.30728 0.25791 0.0
C82 C 0.461 0.30687 0.39767 0.0
C83 C 0.45121 0.28149 0.40474 0.0
C84 C 0.43692 0.26914 0.33833 0.0
C85 C 0.43276 0.28215 0.26559 0.0
N86 N 0.42464 0.24445 0.34612 0.0
C87 C 0.43842 0.22344 0.36077 0.0
Tb88 Tb 0.00165 1.0004 0.57174 0.0
C89 C 0.05923 0.02289 0.61735 0.0
Tb90 Tb 0.00903 0.03113 0.74383 0.0
O91 O 0.97832 0.03002 0.52634 0.0
O92 O 0.00696 0.03882 0.61473 0.0
O93 O 0.04459 0.0078 0.56547 0.0
C94 C 0.02037 0.06829 0.85959 0.0
O95 O 0.04931 0.03462 0.68789 0.0
C96 C 0.00503 0.98152 0.74885 0.0
C97 C 0.95264 0.00792 0.70126 0.0
O98 O 0.03044 0.0462 0.85375 0.0
O99 O 0.00329 0.0692 0.80174 0.0
O100 O 0.99784 0.99661 0.81324 0.0
O101 O 0.01584 0.99454 0.69098 0.0
O102 O 0.96611 0.02719 0.74071 0.0
O103 O 0.96365 0.99271 0.64078 0.0
C104 C 0.00516 0.96351 0.44961 0.0
O105 O 0.99218 0.9614 0.5226 0.0
O106 O 0.01537 0.98666 0.4442 0.0
C107 C 0.98852 0.04759 0.57845 0.0
Tb108 Tb 0.50818 0.02701 0.63458 0.0
C109 C 0.54122 0.98172 0.55023 0.0
Tb110 Tb 0.50359 0.9755 0.71572 0.0
O111 O 0.53473 0.04361 0.73016 0.0
O112 O 0.53342 0.00508 0.69802 0.0
O113 O 0.53109 0.00393 0.53956 0.0
C114 C 0.50456 0.93391 0.80449 0.0
O115 O 0.5351 0.96855 0.61883 0.0
C116 C 0.46987 0.9814 0.59815 0.0
C117 C 0.47079 0.02021 0.79963 0.0
O118 O 0.48884 0.93704 0.74485 0.0
O119 O 0.51975 0.95454 0.81582 0.0
O120 O 0.4787 0.95971 0.61325 0.0
O121 O 0.47877 0.99762 0.65214 0.0
O122 O 0.48253 0.99921 0.81427 0.0
O123 O 0.47517 0.03175 0.72714 0.0
C124 C 0.50199 0.0659 0.53828 0.0
O125 O 0.51008 0.06777 0.61509 0.0
O126 O 0.49795 0.04199 0.51459 0.0
C127 C 0.54313 0.022 0.74864 0.0
Tb128 Tb 0.52367 0.51896 0.66745 0.0
C129 C 0.46048 0.51235 0.68483 0.0
Tb130 Tb 0.49506 0.48484 0.80119 0.0
O131 O 0.5395 0.48522 0.59867 0.0
O132 O 0.50325 0.48293 0.66841 0.0
O133 O 0.48175 0.52715 0.6622 0.0
C134 C 0.47834 0.44223 0.87551 0.0
O135 O 0.46177 0.49194 0.72921 0.0
C136 C 0.49754 0.53374 0.84094 0.0
C137 C 0.55817 0.49422 0.79519 0.0
O138 O 0.4761 0.46509 0.9099 0.0
O139 O 0.49004 0.44354 0.80052 0.0
O140 O 0.47878 0.51817 0.87123 0.0
O141 O 0.51465 0.52118 0.79957 0.0
O142 O 0.53673 0.4807 0.8238 0.0
O143 O 0.5575 0.51195 0.73902 0.0
C144 C 0.54076 0.55848 0.57677 0.0
O145 O 0.52651 0.53873 0.54876 0.0
O146 O 0.54563 0.55587 0.65548 0.0
C147 C 0.52015 0.47007 0.62734 0.0
Tb148 Tb 0.99263 0.51511 0.68501 0.0
C149 C 0.00212 0.45562 0.6993 0.0
Tb150 Tb 0.02714 0.4978 0.82364 0.0
O151 O 0.02693 0.53159 0.61226 0.0
O152 O 0.03025 0.50128 0.69046 0.0
O153 O 0.99095 0.47348 0.65983 0.0
C154 C 0.06923 0.49074 0.90986 0.0
O155 O 0.01788 0.46073 0.76308 0.0
C156 C 0.97627 0.49836 0.86205 0.0
C157 C 0.01973 0.55669 0.80658 0.0
O158 O 0.04757 0.50007 0.94235 0.0
O159 O 0.06699 0.48503 0.82931 0.0
O160 O 0.99123 0.48299 0.89577 0.0
O161 O 0.99052 0.51334 0.81767 0.0
O162 O 0.03528 0.53914 0.82841 0.0
O163 O 0.99881 0.5509 0.76039 0.0
C164 C 0.94715 0.51862 0.61225 0.0
O165 O 0.96931 0.53096 0.58981 0.0
O166 O 0.95098 0.50414 0.67316 0.0
C167 C 0.04315 0.51763 0.64686 0.0
H168 H 0.18919 0.02762 0.30678 0.0
H169 H 0.23019 0.06826 0.51199 0.0
H170 H 0.19003 0.06251 0.60843 0.0
H171 H 0.12788 0.05382 0.35243 0.0
H172 H 0.10816 0.02508 0.32555 0.0
H173 H 0.1407 0.03038 0.27561 0.0
H174 H 0.15404 0.9875 0.32695 0.0
H175 H 0.12145 0.98203 0.37676 0.0
H176 H 0.15012 0.98153 0.43864 0.0
H177 H 0.14442 0.05528 0.67783 0.0
H178 H 0.09714 0.04627 0.71728 0.0
H179 H 0.08606 0.00978 0.46617 0.0
C180 C 0.18973 0.03483 0.37257 0.0
C181 C 0.21253 0.04815 0.40306 0.0
C182 C 0.21276 0.05781 0.48852 0.0
C183 C 0.19011 0.05463 0.54339 0.0
C184 C 0.16764 0.04167 0.5113 0.0
C185 C 0.16734 0.03176 0.42801 0.0
C186 C 0.14033 0.0197 0.40813 0.0
C187 C 0.12858 0.03305 0.33619 0.0
C188 C 0.14157 0.99098 0.38636 0.0
C189 C 0.12532 0.02482 0.49266 0.0
C190 C 0.14143 0.0374 0.55142 0.0
C191 C 0.13169 0.04518 0.63266 0.0
C192 C 0.10476 0.04004 0.65434 0.0
C193 C 0.08785 0.02722 0.59499 0.0
C194 C 0.09846 0.01936 0.51339 0.0
H195 H 0.46398 0.20834 0.49397 0.0
H196 H 0.43772 0.18453 0.24327 0.0
H197 H 0.45396 0.14177 0.25668 0.0
H198 H 0.5239 0.17234 0.47976 0.0
H199 H 0.52015 0.16453 0.58986 0.0
H200 H 0.50816 0.19367 0.55768 0.0
H201 H 0.46155 0.18076 0.6235 0.0
H202 H 0.47339 0.15162 0.65575 0.0
H203 H 0.4454 0.15062 0.59024 0.0
H204 H 0.46971 0.10072 0.30262 0.0
H205 H 0.48502 0.06472 0.37645 0.0
H206 H 0.50207 0.11565 0.59556 0.0
C207 C 0.46214 0.19417 0.4416 0.0
C208 C 0.44993 0.19946 0.36732 0.0
C209 C 0.44731 0.18061 0.30028 0.0
C210 C 0.45644 0.15636 0.30738 0.0
C211 C 0.46823 0.15147 0.38187 0.0
C212 C 0.47126 0.16988 0.44762 0.0
C213 C 0.48359 0.15939 0.52223 0.0
C214 C 0.51056 0.17331 0.53829 0.0
C215 C 0.46486 0.16067 0.60265 0.0
C216 C 0.48663 0.13216 0.48877 0.0
C217 C 0.47769 0.12795 0.40765 0.0
C218 C 0.47716 0.10388 0.3656 0.0
C219 C 0.48589 0.08357 0.40785 0.0
C220 C 0.49502 0.08754 0.49098 0.0
C221 C 0.49561 0.11219 0.53136 0.0
H222 H 0.3543 0.5538 0.3754 0.0
H223 H 0.29397 0.52284 0.55335 0.0
H224 H 0.32827 0.51569 0.65308 0.0
H225 H 0.40143 0.51026 0.40453 0.0
H226 H 0.42979 0.53261 0.39651 0.0
H227 H 0.40042 0.53799 0.34354 0.0
H228 H 0.39831 0.58244 0.42232 0.0
H229 H 0.42781 0.5772 0.47526 0.0
H230 H 0.39816 0.58513 0.53699 0.0
H231 H 0.36887 0.5078 0.72517 0.0
H232 H 0.41342 0.50055 0.76863 0.0
H233 H 0.44809 0.5375 0.54583 0.0
C234 C 0.34842 0.54607 0.43636 0.0
C235 C 0.32171 0.5391 0.45805 0.0
C236 C 0.31444 0.52853 0.53684 0.0
C237 C 0.33374 0.52443 0.5936 0.0
C238 C 0.36009 0.53116 0.57021 0.0
C239 C 0.36748 0.54193 0.4938 0.0
C240 C 0.3973 0.54591 0.48194 0.0
C241 C 0.40784 0.53078 0.4019 0.0
C242 C 0.4059 0.57437 0.47898 0.0
C243 C 0.40552 0.53508 0.56256 0.0
C244 C 0.38369 0.52681 0.61262 0.0
C245 C 0.38611 0.51453 0.68725 0.0
C246 C 0.41149 0.51039 0.7111 0.0
C247 C 0.43415 0.51857 0.66073 0.0
C248 C 0.4311 0.53143 0.5862 0.0
H249 H 0.98998 0.34095 0.34846 0.0
H250 H 0.00242 0.29033 0.54684 0.0
H251 H 1.00072 0.32657 0.65455 0.0
H252 H 0.03058 0.39244 0.42641 0.0
H253 H 0.01006 0.41678 0.39758 0.0
H254 H 0.00957 0.38656 0.3381 0.0
H255 H 0.95885 0.38068 0.36761 0.0
H256 H 0.95918 0.41096 0.42711 0.0
H257 H 0.94517 0.38269 0.47591 0.0
H258 H 0.00199 0.36867 0.73688 0.0
H259 H 0.00516 0.41367 0.7901 0.0
H260 H 0.9909 0.437 0.53819 0.0
C261 C 0.99177 0.33755 0.41497 0.0
C262 C 0.99599 0.3131 0.44052 0.0
C263 C 0.99885 0.30907 0.52711 0.0
C264 C 0.99791 0.32948 0.58835 0.0
C265 C 0.99401 0.35359 0.56129 0.0
C266 C 0.99083 0.3577 0.47673 0.0
C267 C 0.98849 0.38566 0.46365 0.0
C268 C 0.01102 0.39595 0.40286 0.0
C269 C 0.9613 0.39026 0.4317 0.0
C270 C 0.99135 0.39672 0.55378 0.0
C271 C 0.99445 0.37788 0.6091 0.0
C272 C 0.99921 0.38355 0.69449 0.0
C273 C 0.00109 0.40916 0.72399 0.0
C274 C 0.99809 0.42876 0.66834 0.0
C275 C 0.99277 0.42238 0.58248 0.0
H276 H 0.82773 0.00594 0.03336 0.0
H277 H 0.78835 0.95104 0.86019 0.0
H278 H 0.82645 0.9556 0.75471 0.0
H279 H 0.85887 0.04721 0.87089 0.0
H280 H 0.88874 0.05342 0.92699 0.0
H281 H 0.85766 0.04705 0.98548 0.0
H282 H 0.87741 0.01019 0.05715 0.0
H283 H 0.90849 0.01643 -0.00118 0.0
H284 H 0.89201 0.9851 0.9914 0.0
H285 H 0.87027 0.96392 0.67365 0.0
H286 H 0.91592 0.97591 0.62118 0.0
H287 H 0.92627 0.02611 0.8471 0.0
C288 C 0.82707 0.99524 0.97254 0.0
C289 C 0.80531 0.9783 0.95375 0.0
C290 C 0.80497 0.96424 0.87468 0.0
C291 C 0.82646 0.96672 0.81471 0.0
C292 C 0.84792 0.98343 0.83523 0.0
C293 C 0.84831 0.99757 0.91207 0.0
C294 C 0.87416 0.01337 0.92003 0.0
C295 C 0.86957 0.04196 0.92619 0.0
C296 C 0.88888 0.00581 0.99636 0.0
C297 C 0.88843 0.00566 0.8363 0.0
C298 C 0.87296 0.98842 0.78819 0.0
C299 C 0.88243 0.97764 0.71032 0.0
C300 C 0.90843 0.98454 0.68113 0.0
C301 C 0.92465 0.00212 0.72958 0.0
C302 C 0.91429 0.01294 0.80777 0.0
H303 H 0.56766 0.83155 0.07433 0.0
H304 H 0.5056 0.77726 0.98908 0.0
H305 H 0.48724 0.81065 0.90989 0.0
H306 H 0.52809 0.88559 0.10531 0.0
H307 H 0.55371 0.90812 0.06725 0.0
H308 H 0.56233 0.87997 0.11577 0.0
H309 H 0.59155 0.86759 0.98117 0.0
H310 H 0.58315 0.89582 0.93263 0.0
H311 H 0.57736 0.86503 0.87854 0.0
H312 H 0.47545 0.84969 0.84254 0.0
H313 H 0.47167 0.89166 0.78504 0.0
H314 H 0.54141 0.92123 0.91382 0.0
C315 C 0.55034 0.82679 0.03825 0.0
C316 C 0.53795 0.80202 0.03673 0.0
C317 C 0.51527 0.79622 0.99002 0.0
C318 C 0.50474 0.81503 0.9453 0.0
C319 C 0.51721 0.83944 0.94841 0.0
C320 C 0.5396 0.84537 0.99321 0.0
C321 C 0.54911 0.87311 0.98601 0.0
C322 C 0.54825 0.88754 0.07382 0.0
C323 C 0.57694 0.87552 0.94195 0.0
C324 C 0.52855 0.88184 0.93023 0.0
C325 C 0.51033 0.86209 0.90957 0.0
C326 C 0.48958 0.8653 0.85824 0.0
C327 C 0.48758 0.88922 0.82606 0.0
C328 C 0.50619 0.90965 0.84527 0.0
C329 C 0.52681 0.90596 0.89869 0.0
H330 H 0.69349 0.54114 0.00048 0.0
H331 H 0.69399 0.46656 0.10104 0.0
H332 H 0.65537 0.45173 0.01813 0.0
H333 H 0.62546 0.54492 0.01171 0.0
H334 H 0.62378 0.5609 0.91439 0.0
H335 H 0.65337 0.56465 0.97235 0.0
H336 H 0.68091 0.54903 0.83783 0.0
H337 H 0.65135 0.54538 0.77918 0.0
H338 H 0.67163 0.51883 0.78451 0.0
H339 H 0.61365 0.44693 0.94005 0.0
H340 H 0.57282 0.4517 0.86628 0.0
H341 H 0.60016 0.5291 0.81233 0.0
C342 C 0.68581 0.52151 0.00281 0.0
C343 C 0.69662 0.50475 0.05561 0.0
C344 C 0.68596 0.47942 0.0596 0.0
C345 C 0.6641 0.4709 0.0129 0.0
C346 C 0.6534 0.48799 0.96238 0.0
C347 C 0.66406 0.5127 0.95622 0.0
C348 C 0.64778 0.5277 0.9019 0.0
C349 C 0.63696 0.5509 0.95318 0.0
C350 C 0.66388 0.5357 0.82105 0.0
C351 C 0.62586 0.50784 0.8808 0.0
C352 C 0.62953 0.48504 0.91592 0.0
C353 C 0.61081 0.46452 0.91082 0.0
C354 C 0.58765 0.46744 0.86919 0.0
C355 C 0.5835 0.49065 0.83286 0.0
C356 C 0.60307 0.51093 0.83782 0.0
H357 H 0.01434 0.70816 0.82773 0.0
H358 H 0.06804 0.71071 0.03207 0.0
H359 H 0.066 0.66359 0.02682 0.0
H360 H 0.97352 0.65118 0.89309 0.0
H361 H 0.96939 0.6392 0.78478 0.0
H362 H 0.97352 0.673 0.80925 0.0
H363 H 0.0133 0.67595 0.69858 0.0
H364 H 0.00944 0.64216 0.67435 0.0
H365 H 0.04068 0.65641 0.70757 0.0
H366 H 0.06117 0.61697 0.9913 0.0
H367 H 0.05183 0.57303 0.93427 0.0
H368 H 1.00024 0.60025 0.75399 0.0
C369 C 0.02517 0.69864 0.87231 0.0
C370 C 0.04114 0.71265 0.93095 0.0
C371 C 0.05552 0.69998 0.9875 0.0
C372 C 0.05451 0.67334 0.98479 0.0
C373 C 0.03891 0.65988 0.92529 0.0
C374 C 0.02427 0.67203 0.87059 0.0
C375 C 0.00989 0.65301 0.81075 0.0
C376 C 0.97979 0.65417 0.82538 0.0
C377 C 0.01888 0.65714 0.7173 0.0
C378 C 0.01913 0.62834 0.83936 0.0
C379 C 0.03585 0.63279 0.90546 0.0
C380 C 0.04786 0.61318 0.94025 0.0
C381 C 0.04251 0.58829 0.90701 0.0
C382 C 0.0252 0.58318 0.83987 0.0
C383 C 0.01333 0.60353 0.8059 0.0
H384 H 0.03592 0.18916 0.53174 0.0
H385 H 0.95825 0.20044 0.44838 0.0
H386 H 0.94089 0.16076 0.51224 0.0
H387 H 0.03845 0.13099 0.47331 0.0
H388 H 0.05456 0.11885 0.55993 0.0
H389 H 0.05915 0.15195 0.53963 0.0
H390 H 0.04219 0.16481 0.69362 0.0
H391 H 0.0385 0.13156 0.71594 0.0
H392 H 0.01084 0.15117 0.73453 0.0
H393 H 0.93641 0.11459 0.53497 0.0
H394 H 0.94316 0.06868 0.54153 0.0
H395 H 0.02275 0.08735 0.61964 0.0
C396 C 0.01488 0.18415 0.53303 0.0
C397 C 0.99829 0.19788 0.48659 0.0
C398 C 0.97106 0.19045 0.48563 0.0
C399 C 0.96111 0.16777 0.52114 0.0
C400 C 0.97853 0.15321 0.55936 0.0
C401 C 0.00469 0.16162 0.56889 0.0
C402 C 0.02028 0.14082 0.60008 0.0
C403 C 0.0445 0.13534 0.53957 0.0
C404 C 0.02846 0.1475 0.69149 0.0
C405 C 0.99961 0.11881 0.59799 0.0
C406 C 0.97551 0.12637 0.57583 0.0
C407 C 0.95479 0.10862 0.55608 0.0
C408 C 0.95883 0.08261 0.55902 0.0
C409 C 0.9833 0.07472 0.58215 0.0
C410 C 0.00362 0.09305 0.60396 0.0
H411 H 0.35248 0.05771 0.45861 0.0
H412 H 0.31097 0.98555 0.39368 0.0
H413 H 0.34511 0.96304 0.45932 0.0
H414 H 0.41223 0.04015 0.39621 0.0
H415 H 0.43077 0.05747 0.47752 0.0
H416 H 0.40001 0.06862 0.4492 0.0
H417 H 0.38132 0.06754 0.60526 0.0
H418 H 0.41228 0.05709 0.63585 0.0
H419 H 0.38187 0.03879 0.66115 0.0
H420 H 0.38851 0.94852 0.5027 0.0
H421 H 0.43416 0.94335 0.54332 0.0
H422 H 0.44748 0.02537 0.57393 0.0
C423 C 0.34972 0.0373 0.46378 0.0
C424 C 0.32884 0.02329 0.42377 0.0
C425 C 0.32639 0.99652 0.42689 0.0
C426 C 0.34592 0.98363 0.46284 0.0
C427 C 0.36753 0.99792 0.49549 0.0
C428 C 0.36917 0.02426 0.49835 0.0
C429 C 0.39575 0.03516 0.52675 0.0
C430 C 0.41054 0.05128 0.45832 0.0
C431 C 0.39262 0.05055 0.61237 0.0
C432 C 0.40916 0.01089 0.53633 0.0
C433 C 0.39263 0.98958 0.51858 0.0
C434 C 0.40142 0.96507 0.51852 0.0
C435 C 0.42745 0.96232 0.54043 0.0
C436 C 0.44424 0.98398 0.56167 0.0
C437 C 0.43504 0.00848 0.55806 0.0
H438 H 0.43853 0.34216 0.50253 0.0
H439 H 0.51273 0.30848 0.43565 0.0
H440 H 0.5367 0.34557 0.50663 0.0
H441 H 0.45949 0.40064 0.44707 0.0
H442 H 0.44077 0.41827 0.52865 0.0
H443 H 0.42915 0.38664 0.49418 0.0
H444 H 0.42713 0.37377 0.64781 0.0
H445 H 0.4405 0.40443 0.68775 0.0
H446 H 0.45641 0.37589 0.70688 0.0
H447 H 0.5526 0.39041 0.55269 0.0
H448 H 0.55879 0.4369 0.58674 0.0
H449 H 0.47398 0.44106 0.62334 0.0
C450 C 0.45967 0.34191 0.50806 0.0
C451 C 0.47382 0.32219 0.46672 0.0
C452 C 0.5016 0.32301 0.47005 0.0
C453 C 0.51532 0.34417 0.50928 0.0
C454 C 0.50088 0.3642 0.5447 0.0
C455 C 0.47356 0.36299 0.54578 0.0
C456 C 0.46275 0.38818 0.57647 0.0
C457 C 0.44714 0.39905 0.50748 0.0
C458 C 0.44571 0.38546 0.65974 0.0
C459 C 0.48822 0.40402 0.59056 0.0
C460 C 0.51004 0.38994 0.57184 0.0
C461 C 0.53567 0.40141 0.56999 0.0
C462 C 0.53902 0.42781 0.58848 0.0
C463 C 0.51688 0.44233 0.60877 0.0
C464 C 0.49126 0.43021 0.61013 0.0
H465 H 0.1888 0.48575 0.52512 0.0
H466 H 0.20784 0.5669 0.5288 0.0
H467 H 0.16625 0.57429 0.61255 0.0
H468 H 0.129 0.48702 0.47447 0.0
H469 H 0.11315 0.46223 0.53711 0.0
H470 H 0.14778 0.46194 0.50803 0.0
H471 H 0.15896 0.46161 0.66576 0.0
H472 H 0.12416 0.46096 0.69635 0.0
H473 H 0.14653 0.48539 0.7419 0.0
H474 H 0.11805 0.57348 0.64665 0.0
H475 H 0.06963 0.56411 0.65501 0.0
H476 H 0.08107 0.48334 0.63612 0.0
C477 C 0.18502 0.50489 0.54938 0.0
C478 C 0.20155 0.52575 0.52182 0.0
C479 C 0.19571 0.55069 0.55113 0.0
C480 C 0.17192 0.55503 0.59796 0.0
C481 C 0.15459 0.53416 0.61642 0.0
C482 C 0.16127 0.50944 0.59575 0.0
C483 C 0.1377 0.49063 0.60981 0.0
C484 C 0.13157 0.47455 0.52746 0.0
C485 C 0.14209 0.47364 0.68287 0.0
C486 C 0.11629 0.5087 0.63478 0.0
C487 C 0.12647 0.53373 0.63918 0.0
C488 C 0.10999 0.55397 0.64699 0.0
C489 C 0.08256 0.54851 0.65057 0.0
C490 C 0.07191 0.52305 0.6472 0.0
C491 C 0.08893 0.50295 0.64111 0.0
H492 H 0.96396 0.84884 0.92946 0.0
H493 H 0.02513 0.82095 0.75036 0.0
H494 H 0.02211 0.85777 0.66575 0.0
H495 H 0.93038 0.89106 0.77768 0.0
H496 H 0.92756 0.91539 0.86249 0.0
H497 H 0.92453 0.88226 0.88635 0.0
H498 H 0.96153 0.89094 0.99235 0.0
H499 H 0.96532 0.92373 0.96743 0.0
H500 H 0.99339 0.9044 0.95496 0.0
H501 H 0.02407 0.90202 0.62707 0.0
H502 H 0.02894 0.94888 0.63424 0.0
H503 H 0.97145 0.95166 0.84867 0.0
C504 C 0.97605 0.85 0.87073 0.0
C505 C 0.99512 0.83204 0.84814 0.0
C506 C 0.01011 0.83405 0.76968 0.0
C507 C 0.00868 0.8552 0.72095 0.0
C508 C 0.99229 0.87426 0.75142 0.0
C509 C 0.97585 0.87171 0.82409 0.0
C510 C 0.96502 0.89698 0.85501 0.0
C511 C 0.93509 0.89638 0.84473 0.0
C512 C 0.97175 0.90443 0.94784 0.0
C513 C 0.97983 0.91443 0.79319 0.0
C514 C 0.99452 0.90078 0.73172 0.0
C515 C 0.01205 0.91284 0.67325 0.0
C516 C 0.01483 0.93944 0.67817 0.0
C517 C 1.00045 0.95369 0.74179 0.0
C518 C 0.98246 0.94107 0.79908 0.0
H519 H 0.66418 0.95144 0.89371 0.0
H520 H 0.70399 0.02561 0.94079 0.0
H521 H 0.669 0.04546 0.87062 0.0
H522 H 0.63366 0.96633 0.68365 0.0
H523 H 0.60415 0.94719 0.71277 0.0
H524 H 0.63582 0.93856 0.74367 0.0
H525 H 0.61725 0.9387 0.90041 0.0
H526 H 0.58599 0.94844 0.87106 0.0
H527 H 0.6042 0.96728 0.94989 0.0
H528 H 0.62481 0.05772 0.83113 0.0
H529 H 0.57848 0.06108 0.79548 0.0
H530 H 0.56754 0.97874 0.7723 0.0
C531 C 0.66637 0.97163 0.88364 0.0
C532 C 0.68691 0.98704 0.92075 0.0
C533 C 0.68876 0.01353 0.91045 0.0
C534 C 0.66877 0.02495 0.87175 0.0
C535 C 0.64747 0.00946 0.84251 0.0
C536 C 0.6466 0.98323 0.84506 0.0
C537 C 0.62023 0.97113 0.81835 0.0
C538 C 0.62368 0.95485 0.73462 0.0
C539 C 0.60611 0.95549 0.88918 0.0
C540 C 0.60592 0.99468 0.80537 0.0
C541 C 0.62195 0.01659 0.8191 0.0
C542 C 0.61231 0.04068 0.81776 0.0
C543 C 0.58589 0.04241 0.79866 0.0
C544 C 0.56951 0.02016 0.78105 0.0
C545 C 0.57965 0.99605 0.78533 0.0
H546 H 0.56823 0.66844 0.93447 0.0
H547 H 0.49093 0.69601 -0.00202 0.0
H548 H 0.47027 0.65722 0.92753 0.0
H549 H 0.55055 0.62788 0.72646 0.0
H550 H 0.57198 0.6043 0.75561 0.0
H551 H 0.58003 0.63756 0.78142 0.0
H552 H 0.58293 0.62642 0.9387 0.0
H553 H 0.57336 0.59362 0.91356 0.0
H554 H 0.55437 0.61151 0.99373 0.0
H555 H 0.45826 0.61114 0.89249 0.0
H556 H 0.45608 0.56406 0.87317 0.0
H557 H 0.54122 0.56623 0.83177 0.0
C558 C 0.54709 0.66709 0.92734 0.0
C559 C 0.53114 0.68536 0.96952 0.0
C560 C 0.50344 0.68257 0.96359 0.0
C561 C 0.49157 0.66039 0.9246 0.0
C562 C 0.50776 0.64149 0.89078 0.0
C563 C 0.53505 0.64498 0.88923 0.0
C564 C 0.54796 0.62045 0.86237 0.0
C565 C 0.56354 0.6227 0.77627 0.0
C566 C 0.56566 0.61256 0.93121 0.0
C567 C 0.52379 0.6023 0.85428 0.0
C568 C 0.50075 0.61476 0.86996 0.0
C569 C 0.47613 0.60134 0.87711 0.0
C570 C 0.47506 0.57464 0.86709 0.0
C571 C 0.49846 0.56173 0.84996 0.0
C572 C 0.523 0.57578 0.84258 0.0
H573 H 0.83377 0.4666 0.07378 0.0
H574 H 0.80996 0.53381 0.96188 0.0
H575 H 0.851 0.53516 0.86984 0.0
H576 H 0.89434 0.48704 0.1028 0.0
H577 H 0.91107 0.45822 0.07797 0.0
H578 H 0.8768 0.45643 0.11363 0.0
H579 H 0.86418 0.42915 0.97834 0.0
H580 H 0.89866 0.42976 0.94328 0.0
H581 H 0.87477 0.44007 0.87474 0.0
H582 H 0.8986 0.53764 0.82898 0.0
H583 H 0.94682 0.53541 0.81367 0.0
H584 H 0.94076 0.46527 0.94568 0.0
C585 C 0.83651 0.48052 0.02566 0.0
C586 C 0.81872 0.49994 0.02383 0.0
C587 C 0.82311 0.51849 0.96268 0.0
C588 C 0.84653 0.51953 0.91089 0.0
C589 C 0.86495 0.50157 0.92025 0.0
C590 C 0.85984 0.4818 0.97389 0.0
C591 C 0.88428 0.46718 0.9813 0.0
C592 C 0.89206 0.46725 0.07442 0.0
C593 C 0.88023 0.43992 0.94204 0.0
C594 C 0.90435 0.48284 0.9282 0.0
C595 C 0.89271 0.50249 0.8933 0.0
C596 C 0.90771 0.52166 0.85242 0.0
C597 C 0.93514 0.52029 0.84451 0.0
C598 C 0.94738 0.49961 0.87553 0.0
C599 C 0.93179 0.48079 0.91877 0.0
H600 H 0.00658 0.19979 0.12367 0.0
H601 H 0.07311 0.18133 0.26277 0.0
H602 H 0.08091 0.14495 0.15998 0.0
H603 H 0.98133 0.1395 0.0945 0.0
H604 H 0.96979 0.14177 0.9894 0.0
H605 H 0.97297 0.16977 0.05982 0.0
H606 H 0.00475 0.19305 0.94915 0.0
H607 H 0.9994 0.16554 0.87756 0.0
H608 H 0.0326 0.17695 0.90106 0.0
H609 H 0.07616 0.10663 0.06056 0.0
H610 H 0.06166 0.07071 0.9627 0.0
H611 H 0.99804 0.11394 0.88772 0.0
C612 C 0.02363 0.18887 0.12959 0.0
C613 C 0.03962 0.19354 0.19969 0.0
C614 C 0.06099 0.17819 0.20834 0.0
C615 C 0.06549 0.15751 0.15048 0.0
C616 C 0.04846 0.15255 0.08444 0.0
C617 C 0.0282 0.16803 0.07283 0.0
C618 C 0.01069 0.15681 0.00374 0.0
C619 C 0.98202 0.15166 0.03904 0.0
C620 C 0.01198 0.17412 0.92836 0.0
C621 C 0.02377 0.13225 0.98006 0.0
C622 C 0.04561 0.13023 0.02703 0.0
C623 C 0.05949 0.10824 0.02198 0.0
C624 C 0.05099 0.08788 0.96689 0.0
C625 C 0.02883 0.0897 0.91785 0.0
C626 C 0.01521 0.11222 0.92407 0.0
H627 H 0.3784 0.06227 0.20242 0.0
H628 H 0.31203 0.04236 0.04435 0.0
H629 H 0.34299 0.0367 0.91933 0.0
H630 H 0.4246 0.0919 0.038 0.0
H631 H 0.45256 0.07778 0.07696 0.0
H632 H 0.42531 0.08614 0.14949 0.0
H633 H 0.42041 0.03991 0.19738 0.0
H634 H 0.44722 0.03118 0.12405 0.0
H635 H 0.41543 0.01396 0.11895 0.0
H636 H 0.38043 0.02735 0.81701 0.0
H637 H 0.42233 0.01635 0.74099 0.0
H638 H 0.46464 0.0376 0.96816 0.0
C639 C 0.37027 0.05715 0.14127 0.0
C640 C 0.34268 0.05268 0.13348 0.0
C641 C 0.33297 0.04633 0.05201 0.0
C642 C 0.35045 0.04286 0.98063 0.0
C643 C 0.37752 0.04576 0.99196 0.0
C644 C 0.38743 0.05295 0.07007 0.0
C645 C 0.41724 0.05183 0.06743 0.0
C646 C 0.43072 0.0785 0.08392 0.0
C647 C 0.42554 0.0331 0.13069 0.0
C648 C 0.42246 0.04201 0.97612 0.0
C649 C 0.39928 0.03917 0.9335 0.0
C650 C 0.39873 0.02981 0.84923 0.0
C651 C 0.42254 0.0235 0.80687 0.0
C652 C 0.44644 0.02613 0.84922 0.0
C653 C 0.44649 0.03535 0.93498 0.0
H654 H 0.42772 0.35553 0.25159 0.0
H655 H 0.45368 0.29112 0.09209 0.0
H656 H 0.45987 0.31831 0.96896 0.0
H657 H 0.39601 0.38884 0.08027 0.0
H658 H 0.4077 0.41954 0.12478 0.0
H659 H 0.39924 0.39374 0.19353 0.0
H660 H 0.44582 0.39983 0.25299 0.0
H661 H 0.4547 0.42517 0.18342 0.0
H662 H 0.47457 0.39804 0.18052 0.0
H663 H 0.47215 0.35388 0.8739 0.0
H664 H 0.48586 0.39452 0.80929 0.0
H665 H 0.45195 0.43608 0.03045 0.0
C666 C 0.43377 0.34698 0.18987 0.0
C667 C 0.44017 0.32129 0.18083 0.0
C668 C 0.44831 0.31068 0.09973 0.0
C669 C 0.45199 0.32603 0.02971 0.0
C670 C 0.44707 0.35174 0.04206 0.0
C671 C 0.43762 0.36204 0.11981 0.0
C672 C 0.43685 0.39069 0.11946 0.0
C673 C 0.40824 0.39867 0.13011 0.0
C674 C 0.45401 0.4042 0.18813 0.0
C675 C 0.44865 0.3951 0.03079 0.0
C676 C 0.45405 0.37236 0.98674 0.0
C677 C 0.46727 0.37171 0.90671 0.0
C678 C 0.475 0.39486 0.8706 0.0
C679 C 0.46942 0.41827 0.91432 0.0
C680 C 0.45599 0.41837 0.99518 0.0
H681 H 0.16693 0.53247 0.27235 0.0
H682 H 0.22634 0.48794 0.13608 0.0
H683 H 0.19528 0.47653 0.02169 0.0
H684 H 0.11282 0.48901 0.23295 0.0
H685 H 0.08995 0.51324 0.22348 0.0
H686 H 0.1177 0.5196 0.28919 0.0
H687 H 0.13303 0.55914 0.20447 0.0
H688 H 0.10515 0.5531 0.13909 0.0
H689 H 0.13815 0.55566 0.09022 0.0
H690 H 0.15617 0.46878 0.92581 0.0
H691 H 0.11352 0.46646 0.85594 0.0
H692 H 0.08022 0.51436 0.06259 0.0
C693 C 0.1735 0.52032 0.21843 0.0
C694 C 0.1989 0.51083 0.21324 0.0
C695 C 0.20695 0.49545 0.14089 0.0
C696 C 0.18941 0.48878 0.07613 0.0
C697 C 0.16408 0.49775 0.08518 0.0
C698 C 0.15629 0.51331 0.15452 0.0
C699 C 0.12788 0.51981 0.15189 0.0
C700 C 0.11111 0.50981 0.22894 0.0
C701 C 0.12595 0.54863 0.14603 0.0
C702 C 0.12063 0.50536 0.07025 0.0
C703 C 0.14173 0.49285 0.0321 0.0
C704 C 0.13959 0.47852 0.95523 0.0
C705 C 0.11538 0.47729 0.91608 0.0
C706 C 0.09377 0.49019 0.95425 0.0
C707 C 0.09639 0.50411 0.03259 0.0
H708 H 0.98535 0.83112 0.18589 0.0
H709 H 0.0676 0.84112 0.0982 0.0
H710 H 0.07334 0.87882 0.19782 0.0
H711 H 0.97158 0.8924 0.19667 0.0
H712 H 0.95047 0.89276 0.29284 0.0
H713 H 0.95359 0.8636 0.22894 0.0
H714 H 0.96845 0.84098 0.35779 0.0
H715 H 0.96446 0.86982 0.4234 0.0
H716 H 0.99556 0.85507 0.41699 0.0
H717 H 0.06726 0.92021 0.27944 0.0
H718 H 0.05249 0.9582 0.36405 0.0
H719 H 0.97514 0.91996 0.4094 0.0
C720 C 0.00486 0.84049 0.19138 0.0
C721 C 0.02619 0.83309 0.13591 0.0
C722 C 0.05127 0.8462 0.14193 0.0
C723 C 0.0546 0.86776 0.19761 0.0
C724 C 0.03278 0.87551 0.24795 0.0
C725 C 0.00861 0.86177 0.24781 0.0
C726 C 0.98791 0.87515 0.30388 0.0
C727 C 0.96453 0.88134 0.25247 0.0
C728 C 0.97855 0.85931 0.38005 0.0
C729 C 0.00387 0.89911 0.33219 0.0
C730 C 0.02965 0.89901 0.29868 0.0
C731 C 0.04737 0.9202 0.3082 0.0
C732 C 0.03873 0.94177 0.35524 0.0
C733 C 0.01278 0.94178 0.39305 0.0
C734 C 0.99517 0.92019 0.38165 0.0
H735 H 0.65725 0.00153 0.19561 0.0
H736 H 0.6867 0.93016 0.25865 0.0
H737 H 0.65056 0.92558 0.37138 0.0
H738 H 0.63511 0.02329 0.41083 0.0
H739 H 0.60661 0.037 0.37397 0.0
H740 H 0.63626 0.03531 0.30583 0.0
H741 H 0.60914 0.01105 0.18859 0.0
H742 H 0.57951 0.01218 0.25696 0.0
H743 H 0.59015 0.982 0.21273 0.0
H744 H 0.60903 0.92801 0.47035 0.0
H745 H 0.56814 0.9384 0.55397 0.0
H746 H 0.56582 0.00752 0.41865 0.0
C747 C 0.65631 0.98508 0.23398 0.0
C748 C 0.67459 0.96611 0.21868 0.0
C749 C 0.67292 0.94495 0.27017 0.0
C750 C 0.65239 0.94215 0.33363 0.0
C751 C 0.63396 0.96076 0.3444 0.0
C752 C 0.63601 0.98196 0.29648 0.0
C753 C 0.61337 0.99885 0.31752 0.0
C754 C 0.62344 0.02516 0.35425 0.0
C755 C 0.59709 0.00114 0.2393 0.0
C756 C 0.59794 0.98377 0.38445 0.0
C757 C 0.6101 0.96191 0.39945 0.0
C758 C 0.59941 0.9451 0.45914 0.0
C759 C 0.57606 0.95112 0.50595 0.0
C760 C 0.56361 0.97375 0.49264 0.0
C761 C 0.57461 0.98998 0.43003 0.0
H762 H 0.51984 0.65771 0.23406 0.0
H763 H 0.5903 0.70137 0.31508 0.0
H764 H 0.59416 0.67117 0.42809 0.0
H765 H 0.49375 0.63805 0.44055 0.0
H766 H 0.48267 0.60689 0.39837 0.0
H767 H 0.48413 0.63365 0.33204 0.0
H768 H 0.51402 0.6095 0.21971 0.0
H769 H 0.51289 0.58279 0.28599 0.0
H770 H 0.54429 0.59778 0.2512 0.0
H771 H 0.59093 0.63425 0.52802 0.0
H772 H 0.58121 0.59444 0.60361 0.0
H773 H 0.51516 0.57437 0.44572 0.0
C774 C 0.53614 0.66104 0.27547 0.0
C775 C 0.55495 0.68176 0.26525 0.0
C776 C 0.57558 0.6857 0.32213 0.0
C777 C 0.57798 0.66858 0.38606 0.0
C778 C 0.55959 0.64774 0.39184 0.0
C779 C 0.53905 0.64405 0.3379 0.0
C780 C 0.52271 0.61956 0.35277 0.0
C781 C 0.49413 0.62486 0.38274 0.0
C782 C 0.52355 0.60134 0.27267 0.0
C783 C 0.53737 0.60973 0.42319 0.0
C784 C 0.55838 0.62633 0.44595 0.0
C785 C 0.57452 0.6212 0.51062 0.0
C786 C 0.56887 0.59863 0.55321 0.0
C787 C 0.54753 0.5815 0.53 0.0
C788 C 0.53178 0.58707 0.4639 0.0
H789 H 0.84822 0.54641 0.26502 0.0
H790 H 0.78756 0.50347 0.41137 0.0
H791 H 0.81737 0.50372 0.5302 0.0
H792 H 0.89876 0.51248 0.31128 0.0
H793 H 0.92369 0.53842 0.31739 0.0
H794 H 0.89596 0.54049 0.25307 0.0
H795 H 0.88395 0.58254 0.33521 0.0
H796 H 0.91204 0.58097 0.39901 0.0
H797 H 0.87952 0.58363 0.44976 0.0
H798 H 0.85614 0.50134 0.61888 0.0
H799 H 0.89993 0.49904 0.67638 0.0
H800 H 0.93587 0.54314 0.47126 0.0
C801 C 0.84093 0.53782 0.32334 0.0
C802 C 0.81564 0.52495 0.32953 0.0
C803 C 0.80674 0.51371 0.40614 0.0
C804 C 0.82358 0.51369 0.47361 0.0
C805 C 0.84903 0.52525 0.46336 0.0
C806 C 0.85752 0.5375 0.39061 0.0
C807 C 0.88665 0.54581 0.39072 0.0
C808 C 0.90216 0.53356 0.31358 0.0
C809 C 0.89077 0.57497 0.3939 0.0
C810 C 0.89358 0.53531 0.47316 0.0
C811 C 0.87153 0.52383 0.51464 0.0
C812 C 0.87338 0.5108 0.58808 0.0
C813 C 0.89837 0.50947 0.61992 0.0
C814 C 0.92114 0.5211 0.57839 0.0
C815 C 0.91867 0.53442 0.50473 0.0
loop_
_geom_bond_atom_site_label_1
_geom_bond_atom_site_label_2
_geom_bond_distance
_geom_bond_site_symmetry_2
_ccdc_geom_bond_type
H0 C3 0.929 . S
H1 C6 0.929 1_556 S
H2 C8 0.930 . S
C3 H0 0.929 . S
C3 C4 1.398 . S
C3 C5 1.396 . S
C4 C3 1.398 . S
C4 C8 1.407 . S
C5 C3 1.396 . S
C5 C6 1.394 . S
C6 H1 0.929 1_554 S
C6 C5 1.394 . S
C6 C7 1.382 . S
C7 C6 1.382 . S
C7 C8 1.392 . S
C7 N9 1.420 . S
C8 H2 0.930 . S
C8 C4 1.407 . S
C8 C7 1.392 . S
N9 C7 1.420 . S
N9 C10 1.244 . S
C10 N9 1.244 . S
H11 C14 0.929 . S
H12 C17 0.929 . S
H13 C19 0.930 . S
C14 H11 0.929 . S
C14 C15 1.398 . S
C14 C16 1.396 1_554 S
C15 C14 1.398 . S
C15 C19 1.407 . S
C16 C14 1.396 1_556 S
C16 C17 1.394 . S
C17 H12 0.929 . S
C17 C16 1.394 . S
C17 C18 1.382 1_556 S
C18 C17 1.382 1_554 S
C18 C19 1.392 . S
C18 N20 1.420 . S
C19 H13 0.930 . S
C19 C15 1.407 . S
C19 C18 1.392 . S
N20 C18 1.420 . S
N20 C21 1.244 1_554 S
C21 N20 1.244 1_556 S
H22 C25 0.929 . S
H23 C28 0.929 1_556 S
H24 C30 0.930 . S
C25 H22 0.929 . S
C25 C26 1.398 . S
C25 C27 1.396 . S
C26 C25 1.398 . S
C26 C30 1.407 . S
C27 C25 1.396 . S
C27 C28 1.394 . S
C28 H23 0.929 1_554 S
C28 C27 1.394 . S
C28 C29 1.382 . S
C29 C28 1.382 . S
C29 C30 1.392 . S
C29 N31 1.420 . S
C30 H24 0.930 . S
C30 C26 1.407 . S
C30 C29 1.392 . S
N31 C29 1.420 . S
N31 C32 1.244 . S
C32 N31 1.244 . S
H33 C36 0.929 . S
H34 C39 0.929 1_556 S
H35 C41 0.930 . S
C36 H33 0.929 . S
C36 C37 1.398 . S
C36 C38 1.396 . S
C37 C36 1.398 . S
C37 C41 1.407 . S
C38 C36 1.396 . S
C38 C39 1.394 . S
C39 H34 0.929 1_554 S
C39 C38 1.394 . S
C39 C40 1.382 . S
C40 C39 1.382 . S
C40 C41 1.392 . S
C40 N42 1.420 . S
C41 H35 0.930 . S
C41 C37 1.407 . S
C41 C40 1.392 . S
N42 C40 1.420 . S
N42 C43 1.244 . S
C43 N42 1.244 . S
H44 C47 0.929 . S
H45 C50 0.929 . S
H46 C52 0.930 . S
C47 H44 0.929 . S
C47 C48 1.398 . S
C47 C49 1.396 . S
C48 C47 1.398 . S
C48 C52 1.407 . S
C49 C47 1.396 . S
C49 C50 1.394 . S
C50 H45 0.929 . S
C50 C49 1.394 . S
C50 C51 1.382 . S
C51 C50 1.382 . S
C51 C52 1.392 . S
C51 N53 1.420 . S
C52 H46 0.930 . S
C52 C48 1.407 . S
C52 C51 1.392 . S
N53 C51 1.420 . S
N53 C54 1.244 . S
C54 N53 1.244 . S
H55 C58 0.929 . S
H56 C61 0.929 . S
H57 C63 0.930 . S
C58 H55 0.929 . S
C58 C59 1.398 . S
C58 C60 1.396 . S
C59 C58 1.398 . S
C59 C63 1.407 . S
C60 C58 1.396 . S
C60 C61 1.394 . S
C61 H56 0.929 . S
C61 C60 1.394 . S
C61 C62 1.382 . S
C62 C61 1.382 . S
C62 C63 1.392 . S
C62 N64 1.420 . S
C63 H57 0.930 . S
C63 C59 1.407 . S
C63 C62 1.392 . S
N64 C62 1.420 . S
N64 C65 1.244 . S
C65 N64 1.244 . S
H66 C69 0.929 . S
H67 C72 0.929 . S
H68 C74 0.930 . S
C69 H66 0.929 . S
C69 C70 1.398 . S
C69 C71 1.396 . S
C70 C69 1.398 . S
C70 C74 1.407 . S
C71 C69 1.396 . S
C71 C72 1.394 . S
C72 H67 0.929 . S
C72 C71 1.394 . S
C72 C73 1.382 . S
C73 C72 1.382 . S
C73 C74 1.392 . S
C73 N75 1.420 . S
C74 H68 0.930 . S
C74 C70 1.407 . S
C74 C73 1.392 . S
N75 C73 1.420 . S
N75 C76 1.244 . S
C76 N75 1.244 . S
H77 C80 0.929 . S
H78 C83 0.929 . S
H79 C85 0.930 . S
C80 H77 0.929 . S
C80 C81 1.398 . S
C80 C82 1.396 . S
C81 C80 1.398 . S
C81 C85 1.407 . S
C82 C80 1.396 . S
C82 C83 1.394 . S
C83 H78 0.929 . S
C83 C82 1.394 . S
C83 C84 1.382 . S
C84 C83 1.382 . S
C84 C85 1.392 . S
C84 N86 1.420 . S
C85 H79 0.930 . S
C85 C81 1.407 . S
C85 C84 1.392 . S
N86 C84 1.420 . S
N86 C87 1.244 . S
C87 N86 1.244 . S
Tb88 O91 2.416 1_565 S
Tb88 O92 2.571 1_665 S
Tb88 O93 2.374 1_665 S
Tb88 O101 2.361 1_655 S
Tb88 O103 2.348 1_565 S
Tb88 O105 2.456 . S
Tb88 O106 2.546 1_655 S
C89 O93 1.251 . S
C89 O95 1.263 . S
Tb90 O92 2.343 . S
Tb90 O95 2.353 . S
Tb90 O98 2.427 . S
Tb90 O99 2.523 . S
Tb90 O100 2.453 1_545 S
Tb90 O101 2.596 1_545 S
Tb90 O102 2.374 1_455 S
O91 Tb88 2.416 1_545 S
O91 C107 1.245 1_655 S
O92 Tb88 2.571 1_445 S
O92 Tb90 2.343 . S
O92 C107 1.259 . S
O93 Tb88 2.374 1_445 S
O93 C89 1.251 . S
C94 O98 1.275 . S
C94 O99 1.273 . S
O95 C89 1.263 . S
O95 Tb90 2.353 . S
C96 O100 1.245 . S
C96 O101 1.259 . S
C97 O102 1.250 . S
C97 O103 1.263 . S
O98 Tb90 2.427 . S
O98 C94 1.275 . S
O99 Tb90 2.523 . S
O99 C94 1.273 . S
O100 Tb90 2.453 1_565 S
O100 C96 1.245 . S
O101 Tb88 2.361 1_455 S
O101 Tb90 2.596 1_565 S
O101 C96 1.259 . S
O102 Tb90 2.374 1_655 S
O102 C97 1.250 . S
O103 Tb88 2.348 1_545 S
O103 C97 1.263 . S
C104 O105 1.275 . S
C104 O106 1.246 1_655 S
O105 Tb88 2.456 . S
O105 C104 1.275 . S
O106 Tb88 2.546 1_455 S
O106 C104 1.246 1_455 S
C107 O91 1.245 1_455 S
C107 O92 1.259 . S
Tb108 O111 2.453 . S
Tb108 O112 2.596 1_545 S
Tb108 O113 2.374 . S
Tb108 O121 2.343 . S
Tb108 O123 2.353 . S
Tb108 O125 2.427 . S
Tb108 O126 2.513 . S
C109 O113 1.251 1_565 S
C109 O115 1.263 . S
Tb110 O112 2.343 . S
Tb110 O115 2.353 . S
Tb110 O118 2.427 . S
Tb110 O119 2.513 . S
Tb110 O120 2.453 . S
Tb110 O121 2.596 1_565 S
Tb110 O122 2.374 . S
O111 Tb108 2.453 . S
O111 C127 1.245 . S
O112 Tb108 2.596 1_565 S
O112 Tb110 2.343 . S
O112 C127 1.259 1_565 S
O113 Tb108 2.374 . S
O113 C109 1.251 1_545 S
C114 O118 1.275 . S
C114 O119 1.246 . S
O115 C109 1.263 . S
O115 Tb110 2.353 . S
C116 O120 1.245 1_545 S
C116 O121 1.259 . S
C117 O122 1.250 1_545 S
C117 O123 1.263 . S
O118 Tb110 2.427 . S
O118 C114 1.275 . S
O119 Tb110 2.513 . S
O119 C114 1.246 . S
O120 Tb110 2.453 . S
O120 C116 1.245 1_565 S
O121 Tb108 2.343 . S
O121 Tb110 2.596 1_545 S
O121 C116 1.259 . S
O122 Tb110 2.374 . S
O122 C117 1.250 1_565 S
O123 Tb108 2.353 . S
O123 C117 1.263 . S
C124 O125 1.275 . S
C124 O126 1.246 . S
O125 Tb108 2.427 . S
O125 C124 1.275 . S
O126 Tb108 2.513 . S
O126 C124 1.246 . S
C127 O111 1.245 . S
C127 O112 1.259 1_545 S
Tb128 O131 2.453 . S
Tb128 O132 2.596 . S
Tb128 O133 2.374 . S
Tb128 O141 2.343 . S
Tb128 O143 2.353 . S
Tb128 O145 2.427 . S
Tb128 O146 2.513 . S
C129 O133 1.251 . S
C129 O135 1.263 . S
Tb130 O132 2.343 . S
Tb130 O135 2.353 . S
Tb130 O138 2.427 . S
Tb130 O139 2.513 . S
Tb130 O140 2.453 . S
Tb130 O141 2.596 . S
Tb130 O142 2.374 . S
O131 Tb128 2.453 . S
O131 C147 1.245 . S
O132 Tb128 2.596 . S
O132 Tb130 2.343 . S
O132 C147 1.259 . S
O133 Tb128 2.374 . S
O133 C129 1.251 . S
C134 O138 1.275 . S
C134 O139 1.246 . S
O135 C129 1.263 . S
O135 Tb130 2.353 . S
C136 O140 1.245 . S
C136 O141 1.259 . S
C137 O142 1.250 . S
C137 O143 1.263 . S
O138 Tb130 2.427 . S
O138 C134 1.275 . S
O139 Tb130 2.513 . S
O139 C134 1.246 . S
O140 Tb130 2.453 . S
O140 C136 1.245 . S
O141 Tb128 2.343 . S
O141 Tb130 2.596 . S
O141 C136 1.259 . S
O142 Tb130 2.374 . S
O142 C137 1.250 . S
O143 Tb128 2.353 . S
O143 C137 1.263 . S
C144 O145 1.275 . S
C144 O146 1.246 . S
O145 Tb128 2.427 . S
O145 C144 1.275 . S
O146 Tb128 2.513 . S
O146 C144 1.246 . S
C147 O131 1.245 . S
C147 O132 1.259 . S
Tb148 O151 2.453 1_655 S
Tb148 O152 2.596 1_655 S
Tb148 O153 2.374 1_655 S
Tb148 O161 2.343 . S
Tb148 O163 2.353 1_655 S
Tb148 O165 2.427 . S
Tb148 O166 2.513 . S
C149 O153 1.251 . S
C149 O155 1.263 . S
Tb150 O152 2.343 . S
Tb150 O155 2.353 . S
Tb150 O158 2.427 . S
Tb150 O159 2.513 . S
Tb150 O160 2.453 1_455 S
Tb150 O161 2.596 1_455 S
Tb150 O162 2.374 . S
O151 Tb148 2.453 1_455 S
O151 C167 1.245 . S
O152 Tb148 2.596 1_455 S
O152 Tb150 2.343 . S
O152 C167 1.259 . S
O153 Tb148 2.374 1_455 S
O153 C149 1.251 . S
C154 O158 1.275 . S
C154 O159 1.246 . S
O155 C149 1.263 . S
O155 Tb150 2.353 . S
C156 O160 1.245 . S
C156 O161 1.259 . S
C157 O162 1.250 . S
C157 O163 1.263 . S
O158 Tb150 2.427 . S
O158 C154 1.275 . S
O159 Tb150 2.513 . S
O159 C154 1.246 . S
O160 Tb150 2.453 1_655 S
O160 C156 1.245 . S
O161 Tb148 2.343 . S
O161 Tb150 2.596 1_655 S
O161 C156 1.259 . S
O162 Tb150 2.374 . S
O162 C157 1.250 . S
O163 Tb148 2.353 1_455 S
O163 C157 1.263 . S
C164 O165 1.275 . S
C164 O166 1.246 . S
O165 Tb148 2.427 . S
O165 C164 1.275 . S
O166 Tb148 2.513 . S
O166 C164 1.246 . S
C167 O151 1.245 . S
C167 O152 1.259 . S
H168 C180 0.930 . S
H169 C182 0.930 . S
H170 C183 0.930 . S
H171 C187 0.959 . S
H172 C187 0.959 1_565 S
H173 C187 0.961 . S
H174 C188 0.960 . S
H175 C188 0.961 . S
H176 C188 0.959 . S
H177 C191 0.929 . S
H178 C192 0.931 . S
H179 C194 0.930 1_565 S
C180 H168 0.930 . S
C180 C181 1.399 . S
C180 C185 1.399 . S
C181 C180 1.399 . S
C181 C182 1.376 . S
C182 H169 0.930 . S
C182 C181 1.376 . S
C182 C183 1.388 . S
C183 H170 0.930 . S
C183 C182 1.388 . S
C183 C184 1.390 . S
C184 C183 1.390 . S
C184 C185 1.394 . S
C184 C190 1.465 . S
C185 C180 1.399 . S
C185 C184 1.394 . S
C185 C186 1.516 . S
C186 C185 1.516 . S
C186 C187 1.502 . S
C186 C188 1.561 1_545 S
C186 C189 1.526 . S
C187 H171 0.959 . S
C187 H172 0.959 1_545 S
C187 H173 0.961 . S
C187 C186 1.502 . S
C188 H174 0.960 . S
C188 H175 0.961 . S
C188 H176 0.959 . S
C188 C186 1.561 1_565 S
C189 C186 1.526 . S
C189 C190 1.396 . S
C189 C194 1.390 . S
C190 C184 1.465 . S
C190 C189 1.396 . S
C190 C191 1.399 . S
C191 H177 0.929 . S
C191 C190 1.399 . S
C191 C192 1.385 . S
C192 H178 0.931 . S
C192 C191 1.385 . S
C192 C193 1.389 . S
C193 C192 1.389 . S
C193 C194 1.387 . S
C194 H179 0.930 1_545 S
C194 C189 1.390 . S
C194 C193 1.387 . S
H195 C207 0.930 . S
H196 C209 0.930 . S
H197 C210 0.930 . S
H198 C214 0.959 . S
H199 C214 0.959 . S
H200 C214 0.961 . S
H201 C215 0.960 . S
H202 C215 0.961 . S
H203 C215 0.959 . S
H204 C218 0.929 . S
H205 C219 0.931 . S
H206 C221 0.930 . S
C207 H195 0.930 . S
C207 C208 1.399 . S
C207 C212 1.399 . S
C208 C207 1.399 . S
C208 C209 1.376 . S
C209 H196 0.930 . S
C209 C208 1.376 . S
C209 C210 1.388 . S
C210 H197 0.930 . S
C210 C209 1.388 . S
C210 C211 1.390 . S
C211 C210 1.390 . S
C211 C212 1.394 . S
C211 C217 1.465 . S
C212 C207 1.399 . S
C212 C211 1.394 . S
C212 C213 1.516 . S
C213 C212 1.516 . S
C213 C214 1.502 . S
C213 C215 1.561 . S
C213 C216 1.526 . S
C214 H198 0.959 . S
C214 H199 0.959 . S
C214 H200 0.961 . S
C214 C213 1.502 . S
C215 H201 0.960 . S
C215 H202 0.961 . S
C215 H203 0.959 . S
C215 C213 1.561 . S
C216 C213 1.526 . S
C216 C217 1.396 . S
C216 C221 1.390 . S
C217 C211 1.465 . S
C217 C216 1.396 . S
C217 C218 1.399 . S
C218 H204 0.929 . S
C218 C217 1.399 . S
C218 C219 1.385 . S
C219 H205 0.931 . S
C219 C218 1.385 . S
C219 C220 1.389 . S
C220 C219 1.389 . S
C220 C221 1.387 . S
C221 H206 0.930 . S
C221 C216 1.390 . S
C221 C220 1.387 . S
H222 C234 0.930 . S
H223 C236 0.930 . S
H224 C237 0.930 . S
H225 C241 0.959 . S
H226 C241 0.959 . S
H227 C241 0.961 . S
H228 C242 0.960 . S
H229 C242 0.961 . S
H230 C242 0.959 . S
H231 C245 0.929 . S
H232 C246 0.931 . S
H233 C248 0.930 . S
C234 H222 0.930 . S
C234 C235 1.399 . S
C234 C239 1.399 . S
C235 C234 1.399 . S
C235 C236 1.376 . S
C236 H223 0.930 . S
C236 C235 1.376 . S
C236 C237 1.388 . S
C237 H224 0.930 . S
C237 C236 1.388 . S
C237 C238 1.390 . S
C238 C237 1.390 . S
C238 C239 1.394 . S
C238 C244 1.465 . S
C239 C234 1.399 . S
C239 C238 1.394 . S
C239 C240 1.516 . S
C240 C239 1.516 . S
C240 C241 1.502 . S
C240 C242 1.561 . S
C240 C243 1.526 . S
C241 H225 0.959 . S
C241 H226 0.959 . S
C241 H227 0.961 . S
C241 C240 1.502 . S
C242 H228 0.960 . S
C242 H229 0.961 . S
C242 H230 0.959 . S
C242 C240 1.561 . S
C243 C240 1.526 . S
C243 C244 1.396 . S
C243 C248 1.390 . S
C244 C238 1.465 . S
C244 C243 1.396 . S
C244 C245 1.399 . S
C245 H231 0.929 . S
C245 C244 1.399 . S
C245 C246 1.385 . S
C246 H232 0.931 . S
C246 C245 1.385 . S
C246 C247 1.389 . S
C247 C246 1.389 . S
C247 C248 1.387 . S
C248 H233 0.930 . S
C248 C243 1.390 . S
C248 C247 1.387 . S
H249 C261 0.930 . S
H250 C263 0.930 . S
H251 C264 0.930 . S
H252 C268 0.959 . S
H253 C268 0.959 . S
H254 C268 0.961 . S
H255 C269 0.960 . S
H256 C269 0.961 . S
H257 C269 0.959 . S
H258 C272 0.919 1_655 S
H259 C273 0.931 1_655 S
H260 C275 0.930 . S
C261 H249 0.930 . S
C261 C262 1.399 . S
C261 C266 1.399 . S
C262 C261 1.399 . S
C262 C263 1.376 . S
C263 H250 0.930 . S
C263 C262 1.376 . S
C263 C264 1.388 . S
C264 H251 0.930 . S
C264 C263 1.388 . S
C264 C265 1.390 . S
C265 C264 1.390 . S
C265 C266 1.394 . S
C265 C271 1.465 . S
C266 C261 1.399 . S
C266 C265 1.394 . S
C266 C267 1.516 . S
C267 C266 1.516 . S
C267 C268 1.502 . S
C267 C269 1.561 . S
C267 C270 1.526 . S
C268 H252 0.959 . S
C268 H253 0.959 . S
C268 H254 0.961 . S
C268 C267 1.502 . S
C269 H255 0.960 . S
C269 H256 0.961 . S
C269 H257 0.959 . S
C269 C267 1.561 . S
C270 C267 1.526 . S
C270 C271 1.396 . S
C270 C275 1.390 . S
C271 C265 1.465 . S
C271 C270 1.396 . S
C271 C272 1.399 . S
C272 H258 0.919 1_455 S
C272 C271 1.399 . S
C272 C273 1.385 . S
C273 H259 0.931 1_455 S
C273 C272 1.385 . S
C273 C274 1.389 . S
C274 C273 1.389 . S
C274 C275 1.387 . S
C275 H260 0.930 . S
C275 C270 1.390 . S
C275 C274 1.387 . S
H276 C288 0.930 1_544 S
H277 C290 0.930 . S
H278 C291 0.930 . S
H279 C295 0.959 . S
H280 C295 0.959 . S
H281 C295 0.961 . S
H282 C296 0.960 . S
H283 C296 0.961 . S
H284 C296 0.959 . S
H285 C299 0.929 . S
H286 C300 0.931 . S
H287 C302 0.930 . S
C288 H276 0.930 1_566 S
C288 C289 1.399 . S
C288 C293 1.399 . S
C289 C288 1.399 . S
C289 C290 1.376 . S
C290 H277 0.930 . S
C290 C289 1.376 . S
C290 C291 1.388 . S
C291 H278 0.930 . S
C291 C290 1.388 . S
C291 C292 1.390 . S
C292 C291 1.390 . S
C292 C293 1.394 . S
C292 C298 1.465 . S
C293 C288 1.399 . S
C293 C292 1.394 . S
C293 C294 1.516 1_565 S
C294 C293 1.516 1_545 S
C294 C295 1.502 . S
C294 C296 1.561 1_556 S
C294 C297 1.526 1_545 S
C295 H279 0.959 . S
C295 H280 0.959 . S
C295 H281 0.961 . S
C295 C294 1.502 . S
C296 H282 0.960 . S
C296 H283 0.961 . S
C296 H284 0.959 . S
C296 C294 1.561 1_554 S
C297 C294 1.526 1_565 S
C297 C298 1.396 . S
C297 C302 1.390 1_565 S
C298 C292 1.465 . S
C298 C297 1.396 . S
C298 C299 1.399 . S
C299 H285 0.929 . S
C299 C298 1.399 . S
C299 C300 1.385 . S
C300 H286 0.931 . S
C300 C299 1.385 . S
C300 C301 1.389 . S
C301 C300 1.389 . S
C301 C302 1.387 1_565 S
C302 H287 0.930 . S
C302 C297 1.390 1_545 S
C302 C301 1.387 1_545 S
H303 C315 0.930 . S
H304 C317 0.930 . S
H305 C318 0.930 . S
H306 C322 0.959 . S
H307 C322 0.959 . S
H308 C322 0.961 . S
H309 C323 0.960 . S
H310 C323 0.961 . S
H311 C323 0.959 1_556 S
H312 C326 0.929 . S
H313 C327 0.931 . S
H314 C329 0.930 . S
C315 H303 0.930 . S
C315 C316 1.399 1_554 S
C315 C320 1.399 1_554 S
C316 C315 1.399 1_556 S
C316 C317 1.376 . S
C317 H304 0.930 . S
C317 C316 1.376 . S
C317 C318 1.388 . S
C318 H305 0.930 . S
C318 C317 1.388 . S
C318 C319 1.390 . S
C319 C318 1.390 . S
C319 C320 1.394 . S
C319 C325 1.465 . S
C320 C315 1.399 1_556 S
C320 C319 1.394 . S
C320 C321 1.516 1_556 S
C321 C320 1.516 1_554 S
C321 C322 1.502 . S
C321 C323 1.561 . S
C321 C324 1.526 1_554 S
C322 H306 0.959 . S
C322 H307 0.959 . S
C322 H308 0.961 . S
C322 C321 1.502 . S
C323 H309 0.960 . S
C323 H310 0.961 . S
C323 H311 0.959 1_554 S
C323 C321 1.561 . S
C324 C321 1.526 1_556 S
C324 C325 1.396 . S
C324 C329 1.390 . S
C325 C319 1.465 . S
C325 C324 1.396 . S
C325 C326 1.399 . S
C326 H312 0.929 . S
C326 C325 1.399 . S
C326 C327 1.385 . S
C327 H313 0.931 . S
C327 C326 1.385 . S
C327 C328 1.389 . S
C328 C327 1.389 . S
C328 C329 1.387 . S
C329 H314 0.930 . S
C329 C324 1.390 . S
C329 C328 1.387 . S
H330 C342 0.930 . S
H331 C344 0.930 . S
H332 C345 0.930 . S
H333 C349 0.959 . S
H334 C349 0.959 . S
H335 C349 0.961 . S
H336 C350 0.960 . S
H337 C350 0.961 . S
H338 C350 0.959 . S
H339 C353 0.929 . S
H340 C354 0.931 . S
H341 C356 0.930 . S
C342 H330 0.930 . S
C342 C343 1.399 . S
C342 C347 1.399 . S
C343 C342 1.399 . S
C343 C344 1.376 . S
C344 H331 0.930 . S
C344 C343 1.376 . S
C344 C345 1.388 . S
C345 H332 0.930 . S
C345 C344 1.388 . S
C345 C346 1.390 . S
C346 C345 1.390 . S
C346 C347 1.394 . S
C346 C352 1.465 . S
C347 C342 1.399 . S
C347 C346 1.394 . S
C347 C348 1.516 . S
C348 C347 1.516 . S
C348 C349 1.502 . S
C348 C350 1.561 . S
C348 C351 1.526 . S
C349 H333 0.959 . S
C349 H334 0.959 . S
C349 H335 0.961 . S
C349 C348 1.502 . S
C350 H336 0.960 . S
C350 H337 0.961 . S
C350 H338 0.959 . S
C350 C348 1.561 . S
C351 C348 1.526 . S
C351 C352 1.396 . S
C351 C356 1.390 . S
C352 C346 1.465 . S
C352 C351 1.396 . S
C352 C353 1.399 . S
C353 H339 0.929 . S
C353 C352 1.399 . S
C353 C354 1.385 . S
C354 H340 0.931 . S
C354 C353 1.385 . S
C354 C355 1.389 . S
C355 C354 1.389 . S
C355 C356 1.387 . S
C356 H341 0.930 . S
C356 C351 1.390 . S
C356 C355 1.387 . S
H357 C369 0.930 . S
H358 C371 0.930 . S
H359 C372 0.930 . S
H360 C376 0.959 . S
H361 C376 0.959 . S
H362 C376 0.961 . S
H363 C377 0.958 1_655 S
H364 C377 0.962 . S
H365 C377 0.966 . S
H366 C380 0.929 . S
H367 C381 0.931 . S
H368 C383 0.930 . S
C369 H357 0.930 . S
C369 C370 1.399 . S
C369 C374 1.399 . S
C370 C369 1.399 . S
C370 C371 1.376 1_556 S
C371 H358 0.930 . S
C371 C370 1.376 1_554 S
C371 C372 1.388 . S
C372 H359 0.930 . S
C372 C371 1.388 . S
C372 C373 1.390 1_554 S
C373 C372 1.390 1_556 S
C373 C374 1.394 . S
C373 C379 1.465 . S
C374 C369 1.399 . S
C374 C373 1.394 . S
C374 C375 1.516 . S
C375 C374 1.516 . S
C375 C376 1.502 . S
C375 C377 1.554 1_655 S
C375 C378 1.526 . S
C376 H360 0.959 . S
C376 H361 0.959 . S
C376 H362 0.961 . S
C376 C375 1.502 . S
C377 H363 0.958 1_455 S
C377 H364 0.962 . S
C377 H365 0.966 . S
C377 C375 1.554 1_455 S
C378 C375 1.526 . S
C378 C379 1.396 . S
C378 C383 1.390 . S
C379 C373 1.465 . S
C379 C378 1.396 . S
C379 C380 1.399 . S
C380 H366 0.929 . S
C380 C379 1.399 . S
C380 C381 1.385 . S
C381 H367 0.931 . S
C381 C380 1.385 . S
C381 C382 1.389 . S
C382 C381 1.389 . S
C382 C383 1.387 . S
C383 H368 0.930 . S
C383 C378 1.390 . S
C383 C382 1.387 . S
H384 C396 0.930 . S
H385 C398 0.930 . S
H386 C399 0.930 . S
H387 C403 0.959 . S
H388 C403 0.959 . S
H389 C403 0.961 . S
H390 C404 0.960 . S
H391 C404 0.961 . S
H392 C404 0.959 . S
H393 C407 0.929 . S
H394 C408 0.931 . S
H395 C410 0.930 . S
C396 H384 0.930 . S
C396 C397 1.399 . S
C396 C401 1.399 . S
C397 C396 1.399 . S
C397 C398 1.376 . S
C398 H385 0.930 . S
C398 C397 1.376 . S
C398 C399 1.388 . S
C399 H386 0.930 . S
C399 C398 1.388 . S
C399 C400 1.390 . S
C400 C399 1.390 . S
C400 C401 1.394 . S
C400 C406 1.465 . S
C401 C396 1.399 . S
C401 C400 1.394 . S
C401 C402 1.516 . S
C402 C401 1.516 . S
C402 C403 1.502 . S
C402 C404 1.561 . S
C402 C405 1.526 . S
C403 H387 0.959 . S
C403 H388 0.959 . S
C403 H389 0.961 . S
C403 C402 1.502 . S
C404 H390 0.960 . S
C404 H391 0.961 . S
C404 H392 0.959 . S
C404 C402 1.561 . S
C405 C402 1.526 . S
C405 C406 1.396 . S
C405 C410 1.390 . S
C406 C400 1.465 . S
C406 C405 1.396 . S
C406 C407 1.399 . S
C407 H393 0.929 . S
C407 C406 1.399 . S
C407 C408 1.385 . S
C408 H394 0.931 . S
C408 C407 1.385 . S
C408 C409 1.389 . S
C409 C408 1.389 . S
C409 C410 1.387 . S
C410 H395 0.930 . S
C410 C405 1.390 . S
C410 C409 1.387 . S
H411 C423 0.930 . S
H412 C425 0.930 . S
H413 C426 0.930 1_565 S
H414 C430 0.959 . S
H415 C430 0.959 . S
H416 C430 0.961 . S
H417 C431 0.960 . S
H418 C431 0.961 . S
H419 C431 0.959 . S
H420 C434 0.929 . S
H421 C435 0.931 . S
H422 C437 0.930 . S
C423 H411 0.930 . S
C423 C424 1.399 . S
C423 C428 1.399 . S
C424 C423 1.399 . S
C424 C425 1.376 . S
C425 H412 0.930 . S
C425 C424 1.376 . S
C425 C426 1.388 . S
C426 H413 0.930 1_545 S
C426 C425 1.388 . S
C426 C427 1.390 . S
C427 C426 1.390 . S
C427 C428 1.394 . S
C427 C433 1.465 . S
C428 C423 1.399 . S
C428 C427 1.394 . S
C428 C429 1.516 . S
C429 C428 1.516 . S
C429 C430 1.502 . S
C429 C431 1.561 . S
C429 C432 1.526 . S
C430 H414 0.959 . S
C430 H415 0.959 . S
C430 H416 0.961 . S
C430 C429 1.502 . S
C431 H417 0.960 . S
C431 H418 0.961 . S
C431 H419 0.959 . S
C431 C429 1.561 . S
C432 C429 1.526 . S
C432 C433 1.396 . S
C432 C437 1.390 . S
C433 C427 1.465 . S
C433 C432 1.396 . S
C433 C434 1.399 1_545 S
C434 H420 0.929 . S
C434 C433 1.399 1_565 S
C434 C435 1.385 . S
C435 H421 0.931 . S
C435 C434 1.385 . S
C435 C436 1.389 1_565 S
C436 C435 1.389 1_545 S
C436 C437 1.387 . S
C437 H422 0.930 . S
C437 C432 1.390 . S
C437 C436 1.387 . S
H438 C450 0.930 . S
H439 C452 0.930 . S
H440 C453 0.930 . S
H441 C457 0.959 . S
H442 C457 0.959 . S
H443 C457 0.961 . S
H444 C458 0.960 . S
H445 C458 0.961 . S
H446 C458 0.959 . S
H447 C461 0.929 . S
H448 C462 0.931 . S
H449 C464 0.930 . S
C450 H438 0.930 . S
C450 C451 1.399 . S
C450 C455 1.399 . S
C451 C450 1.399 . S
C451 C452 1.376 . S
C452 H439 0.930 . S
C452 C451 1.376 . S
C452 C453 1.388 . S
C453 H440 0.930 . S
C453 C452 1.388 . S
C453 C454 1.390 . S
C454 C453 1.390 . S
C454 C455 1.394 . S
C454 C460 1.465 . S
C455 C450 1.399 . S
C455 C454 1.394 . S
C455 C456 1.516 . S
C456 C455 1.516 . S
C456 C457 1.502 . S
C456 C458 1.561 . S
C456 C459 1.526 . S
C457 H441 0.959 . S
C457 H442 0.959 . S
C457 H443 0.961 . S
C457 C456 1.502 . S
C458 H444 0.960 . S
C458 H445 0.961 . S
C458 H446 0.959 . S
C458 C456 1.561 . S
C459 C456 1.526 . S
C459 C460 1.396 . S
C459 C464 1.390 . S
C460 C454 1.465 . S
C460 C459 1.396 . S
C460 C461 1.399 . S
C461 H447 0.929 . S
C461 C460 1.399 . S
C461 C462 1.385 . S
C462 H448 0.931 . S
C462 C461 1.385 . S
C462 C463 1.389 . S
C463 C462 1.389 . S
C463 C464 1.387 . S
C464 H449 0.930 . S
C464 C459 1.390 . S
C464 C463 1.387 . S
H465 C477 0.930 . S
H466 C479 0.930 . S
H467 C480 0.930 . S
H468 C484 0.959 . S
H469 C484 0.959 . S
H470 C484 0.961 . S
H471 C485 0.960 . S
H472 C485 0.961 . S
H473 C485 0.959 . S
H474 C488 0.929 . S
H475 C489 0.931 . S
H476 C491 0.930 . S
C477 H465 0.930 . S
C477 C478 1.399 . S
C477 C482 1.399 . S
C478 C477 1.399 . S
C478 C479 1.376 . S
C479 H466 0.930 . S
C479 C478 1.376 . S
C479 C480 1.388 . S
C480 H467 0.930 . S
C480 C479 1.388 . S
C480 C481 1.390 . S
C481 C480 1.390 . S
C481 C482 1.394 . S
C481 C487 1.465 . S
C482 C477 1.399 . S
C482 C481 1.394 . S
C482 C483 1.516 . S
C483 C482 1.516 . S
C483 C484 1.502 . S
C483 C485 1.561 . S
C483 C486 1.526 . S
C484 H468 0.959 . S
C484 H469 0.959 . S
C484 H470 0.961 . S
C484 C483 1.502 . S
C485 H471 0.960 . S
C485 H472 0.961 . S
C485 H473 0.959 . S
C485 C483 1.561 . S
C486 C483 1.526 . S
C486 C487 1.396 . S
C486 C491 1.390 . S
C487 C481 1.465 . S
C487 C486 1.396 . S
C487 C488 1.399 . S
C488 H474 0.929 . S
C488 C487 1.399 . S
C488 C489 1.385 . S
C489 H475 0.931 . S
C489 C488 1.385 . S
C489 C490 1.389 . S
C490 C489 1.389 . S
C490 C491 1.387 . S
C491 H476 0.930 . S
C491 C486 1.390 . S
C491 C490 1.387 . S
H492 C504 0.930 . S
H493 C506 0.930 . S
H494 C507 0.954 . S
H495 C511 0.959 . S
H496 C511 0.959 . S
H497 C511 0.961 . S
H498 C512 0.960 . S
H499 C512 0.961 . S
H500 C512 0.959 . S
H501 C515 0.929 . S
H502 C516 0.931 . S
H503 C518 0.930 . S
C504 H492 0.930 . S
C504 C505 1.399 . S
C504 C509 1.399 . S
C505 C504 1.399 . S
C505 C506 1.376 . S
C506 H493 0.930 . S
C506 C505 1.376 . S
C506 C507 1.388 . S
C507 H494 0.954 . S
C507 C506 1.388 . S
C507 C508 1.390 . S
C508 C507 1.390 . S
C508 C509 1.394 . S
C508 C514 1.465 . S
C509 C504 1.399 . S
C509 C508 1.394 . S
C509 C510 1.516 . S
C510 C509 1.516 . S
C510 C511 1.502 . S
C510 C512 1.561 1_556 S
C510 C513 1.526 . S
C511 H495 0.959 . S
C511 H496 0.959 . S
C511 H497 0.961 . S
C511 C510 1.502 . S
C512 H498 0.960 . S
C512 H499 0.961 . S
C512 H500 0.959 . S
C512 C510 1.561 1_554 S
C513 C510 1.526 . S
C513 C514 1.396 . S
C513 C518 1.390 . S
C514 C508 1.465 . S
C514 C513 1.396 . S
C514 C515 1.399 1_655 S
C515 H501 0.929 . S
C515 C514 1.399 1_455 S
C515 C516 1.385 . S
C516 H502 0.931 . S
C516 C515 1.385 . S
C516 C517 1.389 1_455 S
C517 C516 1.389 1_655 S
C517 C518 1.387 . S
C518 H503 0.930 . S
C518 C513 1.390 . S
C518 C517 1.387 . S
H519 C531 0.930 . S
H520 C533 0.930 . S
H521 C534 0.930 . S
H522 C538 0.959 1_545 S
H523 C538 0.959 . S
H524 C538 0.961 . S
H525 C539 0.960 . S
H526 C539 0.961 . S
H527 C539 0.959 . S
H528 C542 0.929 1_554 S
H529 C543 0.931 1_545 S
H530 C545 0.930 . S
C531 H519 0.930 . S
C531 C532 1.399 . S
C531 C536 1.399 . S
C532 C531 1.399 . S
C532 C533 1.376 1_556 S
C533 H520 0.930 . S
C533 C532 1.376 1_554 S
C533 C534 1.388 . S
C534 H521 0.930 . S
C534 C533 1.388 . S
C534 C535 1.390 1_554 S
C535 C534 1.390 1_556 S
C535 C536 1.394 . S
C535 C541 1.465 . S
C536 C531 1.399 . S
C536 C535 1.394 . S
C536 C537 1.516 . S
C537 C536 1.516 . S
C537 C538 1.502 . S
C537 C539 1.561 . S
C537 C540 1.526 . S
C538 H522 0.959 1_565 S
C538 H523 0.959 . S
C538 H524 0.961 . S
C538 C537 1.502 . S
C539 H525 0.960 . S
C539 H526 0.961 . S
C539 H527 0.959 . S
C539 C537 1.561 . S
C540 C537 1.526 . S
C540 C541 1.396 . S
C540 C545 1.390 . S
C541 C535 1.465 . S
C541 C540 1.396 . S
C541 C542 1.399 . S
C542 H528 0.929 1_556 S
C542 C541 1.399 . S
C542 C543 1.385 . S
C543 H529 0.931 1_565 S
C543 C542 1.385 . S
C543 C544 1.389 . S
C544 C543 1.389 . S
C544 C545 1.387 . S
C545 H530 0.930 . S
C545 C540 1.390 . S
C545 C544 1.387 . S
H546 C558 0.930 . S
H547 C560 0.930 . S
H548 C561 0.930 . S
H549 C565 0.959 . S
H550 C565 0.959 . S
H551 C565 0.961 . S
H552 C566 0.960 . S
H553 C566 0.961 . S
H554 C566 0.959 . S
H555 C569 0.929 1_554 S
H556 C570 0.931 . S
H557 C572 0.930 . S
C558 H546 0.930 . S
C558 C559 1.399 . S
C558 C563 1.399 . S
C559 C558 1.399 . S
C559 C560 1.376 1_556 S
C560 H547 0.930 . S
C560 C559 1.376 1_554 S
C560 C561 1.388 . S
C561 H548 0.930 . S
C561 C560 1.388 . S
C561 C562 1.390 1_554 S
C562 C561 1.390 1_556 S
C562 C563 1.394 . S
C562 C568 1.465 . S
C563 C558 1.399 . S
C563 C562 1.394 . S
C563 C564 1.516 . S
C564 C563 1.516 . S
C564 C565 1.502 . S
C564 C566 1.561 . S
C564 C567 1.526 . S
C565 H549 0.959 . S
C565 H550 0.959 . S
C565 H551 0.961 . S
C565 C564 1.502 . S
C566 H552 0.960 . S
C566 H553 0.961 . S
C566 H554 0.959 . S
C566 C564 1.561 . S
C567 C564 1.526 . S
C567 C568 1.396 . S
C567 C572 1.390 . S
C568 C562 1.465 . S
C568 C567 1.396 . S
C568 C569 1.399 . S
C569 H555 0.929 1_556 S
C569 C568 1.399 . S
C569 C570 1.385 . S
C570 H556 0.931 . S
C570 C569 1.385 . S
C570 C571 1.389 . S
C571 C570 1.389 . S
C571 C572 1.387 . S
C572 H557 0.930 . S
C572 C567 1.390 . S
C572 C571 1.387 . S
H573 C585 0.930 1_554 S
H574 C587 0.930 . S
H575 C588 0.930 . S
H576 C592 0.959 . S
H577 C592 0.959 . S
H578 C592 0.961 . S
H579 C593 0.960 . S
H580 C593 0.961 . S
H581 C593 0.959 . S
H582 C596 0.929 . S
H583 C597 0.931 . S
H584 C599 0.930 . S
C585 H573 0.930 1_556 S
C585 C586 1.399 . S
C585 C590 1.399 . S
C586 C585 1.399 . S
C586 C587 1.376 . S
C587 H574 0.930 . S
C587 C586 1.376 . S
C587 C588 1.388 . S
C588 H575 0.930 . S
C588 C587 1.388 . S
C588 C589 1.390 . S
C589 C588 1.390 . S
C589 C590 1.394 . S
C589 C595 1.465 . S
C590 C585 1.399 . S
C590 C589 1.394 . S
C590 C591 1.516 . S
C591 C590 1.516 . S
C591 C592 1.502 1_556 S
C591 C593 1.561 . S
C591 C594 1.526 . S
C592 H576 0.959 . S
C592 H577 0.959 . S
C592 H578 0.961 . S
C592 C591 1.502 1_554 S
C593 H579 0.960 . S
C593 H580 0.961 . S
C593 H581 0.959 . S
C593 C591 1.561 . S
C594 C591 1.526 . S
C594 C595 1.396 . S
C594 C599 1.390 . S
C595 C589 1.465 . S
C595 C594 1.396 . S
C595 C596 1.399 . S
C596 H582 0.929 . S
C596 C595 1.399 . S
C596 C597 1.385 . S
C597 H583 0.931 . S
C597 C596 1.385 . S
C597 C598 1.389 . S
C598 C597 1.389 . S
C598 C599 1.387 . S
C599 H584 0.930 . S
C599 C594 1.390 . S
C599 C598 1.387 . S
H600 C612 0.930 . S
H601 C614 0.930 . S
H602 C615 0.919 1_556 S
H603 C619 0.959 . S
H604 C619 0.959 . S
H605 C619 0.961 . S
H606 C620 0.960 . S
H607 C620 0.961 . S
H608 C620 0.959 . S
H609 C623 0.929 . S
H610 C624 0.931 . S
H611 C626 0.930 . S
C612 H600 0.930 . S
C612 C613 1.399 . S
C612 C617 1.399 . S
C613 C612 1.399 . S
C613 C614 1.376 . S
C614 H601 0.930 . S
C614 C613 1.376 . S
C614 C615 1.388 . S
C615 H602 0.919 1_554 S
C615 C614 1.388 . S
C615 C616 1.390 . S
C616 C615 1.390 . S
C616 C617 1.394 . S
C616 C622 1.465 . S
C617 C612 1.399 . S
C617 C616 1.394 . S
C617 C618 1.516 . S
C618 C617 1.516 . S
C618 C619 1.502 . S
C618 C620 1.561 1_455 S
C618 C621 1.526 . S
C619 H603 0.959 . S
C619 H604 0.959 . S
C619 H605 0.961 . S
C619 C618 1.502 . S
C620 H606 0.960 . S
C620 H607 0.961 . S
C620 H608 0.959 . S
C620 C618 1.561 1_655 S
C621 C618 1.526 . S
C621 C622 1.396 . S
C621 C626 1.390 . S
C622 C616 1.465 . S
C622 C621 1.396 . S
C622 C623 1.399 1_554 S
C623 H609 0.929 . S
C623 C622 1.399 1_556 S
C623 C624 1.385 . S
C624 H610 0.931 . S
C624 C623 1.385 . S
C624 C625 1.389 . S
C625 C624 1.389 . S
C625 C626 1.387 1_556 S
C626 H611 0.930 . S
C626 C621 1.390 . S
C626 C625 1.387 1_554 S
H627 C639 0.930 . S
H628 C641 0.930 . S
H629 C642 0.930 1_565 S
H630 C646 0.959 . S
H631 C646 0.959 . S
H632 C646 0.961 . S
H633 C647 0.960 . S
H634 C647 0.961 . S
H635 C647 0.959 . S
H636 C650 0.929 1_554 S
H637 C651 0.931 . S
H638 C653 0.930 . S
C639 H627 0.930 . S
C639 C640 1.399 . S
C639 C644 1.399 . S
C640 C639 1.399 . S
C640 C641 1.376 . S
C641 H628 0.930 . S
C641 C640 1.376 . S
C641 C642 1.388 . S
C642 H629 0.930 1_545 S
C642 C641 1.388 . S
C642 C643 1.390 . S
C643 C642 1.390 . S
C643 C644 1.394 . S
C643 C649 1.465 . S
C644 C639 1.399 . S
C644 C643 1.394 . S
C644 C645 1.516 . S
C645 C644 1.516 . S
C645 C646 1.502 1_554 S
C645 C647 1.561 . S
C645 C648 1.526 1_554 S
C646 H630 0.959 . S
C646 H631 0.959 . S
C646 H632 0.961 . S
C646 C645 1.502 1_556 S
C647 H633 0.960 . S
C647 H634 0.961 . S
C647 H635 0.959 . S
C647 C645 1.561 . S
C648 C645 1.526 1_556 S
C648 C649 1.396 1_556 S
C648 C653 1.390 . S
C649 C643 1.465 . S
C649 C648 1.396 1_554 S
C649 C650 1.399 1_544 S
C650 H636 0.929 1_556 S
C650 C649 1.399 1_566 S
C650 C651 1.385 . S
C651 H637 0.931 . S
C651 C650 1.385 . S
C651 C652 1.389 1_565 S
C652 C651 1.389 1_545 S
C652 C653 1.387 . S
C653 H638 0.930 . S
C653 C648 1.390 . S
C653 C652 1.387 . S
H654 C666 0.930 . S
H655 C668 0.930 . S
H656 C669 0.930 . S
H657 C673 0.959 . S
H658 C673 0.959 . S
H659 C673 0.961 . S
H660 C674 0.960 . S
H661 C674 0.961 . S
H662 C674 0.959 . S
H663 C677 0.929 . S
H664 C678 0.931 . S
H665 C680 0.930 1_554 S
C666 H654 0.930 . S
C666 C667 1.399 . S
C666 C671 1.399 . S
C667 C666 1.399 . S
C667 C668 1.376 . S
C668 H655 0.930 . S
C668 C667 1.376 . S
C668 C669 1.388 1_554 S
C669 H656 0.930 . S
C669 C668 1.388 1_556 S
C669 C670 1.390 1_556 S
C670 C669 1.390 1_554 S
C670 C671 1.394 . S
C670 C676 1.465 1_554 S
C671 C666 1.399 . S
C671 C670 1.394 . S
C671 C672 1.516 . S
C672 C671 1.516 . S
C672 C673 1.502 . S
C672 C674 1.561 . S
C672 C675 1.526 . S
C673 H657 0.959 . S
C673 H658 0.959 . S
C673 H659 0.961 . S
C673 C672 1.502 . S
C674 H660 0.960 . S
C674 H661 0.961 . S
C674 H662 0.959 . S
C674 C672 1.561 . S
C675 C672 1.526 . S
C675 C676 1.396 1_554 S
C675 C680 1.390 1_554 S
C676 C670 1.465 1_556 S
C676 C675 1.396 1_556 S
C676 C677 1.399 . S
C677 H663 0.929 . S
C677 C676 1.399 . S
C677 C678 1.385 . S
C678 H664 0.931 . S
C678 C677 1.385 . S
C678 C679 1.389 . S
C679 C678 1.389 . S
C679 C680 1.387 . S
C680 H665 0.930 1_556 S
C680 C675 1.390 1_556 S
C680 C679 1.387 . S
H681 C693 0.930 . S
H682 C695 0.930 . S
H683 C696 0.930 1_556 S
H684 C700 0.959 . S
H685 C700 0.959 . S
H686 C700 0.961 . S
H687 C701 0.960 . S
H688 C701 0.961 . S
H689 C701 0.959 . S
H690 C704 0.929 . S
H691 C705 0.931 . S
H692 C707 0.930 1_554 S
C693 H681 0.930 . S
C693 C694 1.399 . S
C693 C698 1.399 . S
C694 C693 1.399 . S
C694 C695 1.376 . S
C695 H682 0.930 . S
C695 C694 1.376 . S
C695 C696 1.388 . S
C696 H683 0.930 1_554 S
C696 C695 1.388 . S
C696 C697 1.390 . S
C697 C696 1.390 . S
C697 C698 1.394 . S
C697 C703 1.465 1_554 S
C698 C693 1.399 . S
C698 C697 1.394 . S
C698 C699 1.516 . S
C699 C698 1.516 . S
C699 C700 1.502 . S
C699 C701 1.561 . S
C699 C702 1.526 . S
C700 H684 0.959 . S
C700 H685 0.959 . S
C700 H686 0.961 . S
C700 C699 1.502 . S
C701 H687 0.960 . S
C701 H688 0.961 . S
C701 H689 0.959 . S
C701 C699 1.561 . S
C702 C699 1.526 . S
C702 C703 1.396 1_554 S
C702 C707 1.390 1_554 S
C703 C697 1.465 1_556 S
C703 C702 1.396 1_556 S
C703 C704 1.399 . S
C704 H690 0.929 . S
C704 C703 1.399 . S
C704 C705 1.385 . S
C705 H691 0.931 . S
C705 C704 1.385 . S
C705 C706 1.389 . S
C706 C705 1.389 . S
C706 C707 1.387 . S
C707 H692 0.930 1_556 S
C707 C702 1.390 1_556 S
C707 C706 1.387 . S
H708 C720 0.930 . S
H709 C722 0.930 . S
H710 C723 0.930 . S
H711 C727 0.959 . S
H712 C727 0.959 . S
H713 C727 0.961 . S
H714 C728 0.960 . S
H715 C728 0.961 . S
H716 C728 0.959 1_455 S
H717 C731 0.929 . S
H718 C732 0.931 . S
H719 C734 0.930 . S
C720 H708 0.930 . S
C720 C721 1.399 . S
C720 C725 1.399 . S
C721 C720 1.399 . S
C721 C722 1.376 . S
C722 H709 0.930 . S
C722 C721 1.376 . S
C722 C723 1.388 . S
C723 H710 0.930 . S
C723 C722 1.388 . S
C723 C724 1.390 . S
C724 C723 1.390 . S
C724 C725 1.394 . S
C724 C730 1.465 . S
C725 C720 1.399 . S
C725 C724 1.394 . S
C725 C726 1.516 . S
C726 C725 1.516 . S
C726 C727 1.502 . S
C726 C728 1.561 . S
C726 C729 1.526 . S
C727 H711 0.959 . S
C727 H712 0.959 . S
C727 H713 0.961 . S
C727 C726 1.502 . S
C728 H714 0.960 . S
C728 H715 0.961 . S
C728 H716 0.959 1_655 S
C728 C726 1.561 . S
C729 C726 1.526 . S
C729 C730 1.396 . S
C729 C734 1.390 . S
C730 C724 1.465 . S
C730 C729 1.396 . S
C730 C731 1.399 . S
C731 H717 0.929 . S
C731 C730 1.399 . S
C731 C732 1.385 . S
C732 H718 0.931 . S
C732 C731 1.385 . S
C732 C733 1.389 . S
C733 C732 1.389 . S
C733 C734 1.387 . S
C734 H719 0.930 . S
C734 C729 1.390 . S
C734 C733 1.387 . S
H735 C747 0.930 1_545 S
H736 C749 0.930 . S
H737 C750 0.930 . S
H738 C754 0.959 . S
H739 C754 0.959 . S
H740 C754 0.961 . S
H741 C755 0.960 . S
H742 C755 0.961 . S
H743 C755 0.959 . S
H744 C758 0.929 . S
H745 C759 0.931 . S
H746 C761 0.930 . S
C747 H735 0.930 1_565 S
C747 C748 1.399 . S
C747 C752 1.399 . S
C748 C747 1.399 . S
C748 C749 1.376 . S
C749 H736 0.930 . S
C749 C748 1.376 . S
C749 C750 1.388 . S
C750 H737 0.930 . S
C750 C749 1.388 . S
C750 C751 1.390 . S
C751 C750 1.390 . S
C751 C752 1.394 . S
C751 C757 1.465 . S
C752 C747 1.399 . S
C752 C751 1.394 . S
C752 C753 1.516 1_565 S
C753 C752 1.516 1_545 S
C753 C754 1.502 . S
C753 C755 1.561 . S
C753 C756 1.526 1_545 S
C754 H738 0.959 . S
C754 H739 0.959 . S
C754 H740 0.961 . S
C754 C753 1.502 . S
C755 H741 0.960 . S
C755 H742 0.961 . S
C755 H743 0.959 . S
C755 C753 1.561 . S
C756 C753 1.526 1_565 S
C756 C757 1.396 . S
C756 C761 1.390 1_565 S
C757 C751 1.465 . S
C757 C756 1.396 . S
C757 C758 1.399 . S
C758 H744 0.929 . S
C758 C757 1.399 . S
C758 C759 1.385 . S
C759 H745 0.931 . S
C759 C758 1.385 . S
C759 C760 1.389 . S
C760 C759 1.389 . S
C760 C761 1.387 1_565 S
C761 H746 0.930 . S
C761 C756 1.390 1_545 S
C761 C760 1.387 1_545 S
H762 C774 0.930 . S
H763 C776 0.930 . S
H764 C777 0.930 . S
H765 C781 0.959 . S
H766 C781 0.959 . S
H767 C781 0.961 . S
H768 C782 0.960 . S
H769 C782 0.961 . S
H770 C782 0.959 . S
H771 C785 0.929 . S
H772 C786 0.931 . S
H773 C788 0.930 . S
C774 H762 0.930 . S
C774 C775 1.399 . S
C774 C779 1.399 . S
C775 C774 1.399 . S
C775 C776 1.376 . S
C776 H763 0.930 . S
C776 C775 1.376 . S
C776 C777 1.388 . S
C777 H764 0.930 . S
C777 C776 1.388 . S
C777 C778 1.390 . S
C778 C777 1.390 . S
C778 C779 1.394 . S
C778 C784 1.465 . S
C779 C774 1.399 . S
C779 C778 1.394 . S
C779 C780 1.516 . S
C780 C779 1.516 . S
C780 C781 1.502 . S
C780 C782 1.561 . S
C780 C783 1.526 . S
C781 H765 0.959 . S
C781 H766 0.959 . S
C781 H767 0.961 . S
C781 C780 1.502 . S
C782 H768 0.960 . S
C782 H769 0.961 . S
C782 H770 0.959 . S
C782 C780 1.561 . S
C783 C780 1.526 . S
C783 C784 1.396 . S
C783 C788 1.390 . S
C784 C778 1.465 . S
C784 C783 1.396 . S
C784 C785 1.399 . S
C785 H771 0.929 . S
C785 C784 1.399 . S
C785 C786 1.385 . S
C786 H772 0.931 . S
C786 C785 1.385 . S
C786 C787 1.389 . S
C787 C786 1.389 . S
C787 C788 1.387 . S
C788 H773 0.930 . S
C788 C783 1.390 . S
C788 C787 1.387 . S
H789 C801 0.930 . S
H790 C803 0.930 . S
H791 C804 0.930 . S
H792 C808 0.959 . S
H793 C808 0.959 . S
H794 C808 0.961 . S
H795 C809 0.960 . S
H796 C809 0.961 . S
H797 C809 0.959 . S
H798 C812 0.929 . S
H799 C813 0.931 . S
H800 C815 0.930 . S
C801 H789 0.930 . S
C801 C802 1.399 . S
C801 C806 1.399 . S
C802 C801 1.399 . S
C802 C803 1.376 . S
C803 H790 0.930 . S
C803 C802 1.376 . S
C803 C804 1.388 . S
C804 H791 0.930 . S
C804 C803 1.388 . S
C804 C805 1.390 . S
C805 C804 1.390 . S
C805 C806 1.394 . S
C805 C811 1.465 . S
C806 C801 1.399 . S
C806 C805 1.394 . S
C806 C807 1.516 . S
C807 C806 1.516 . S
C807 C808 1.502 . S
C807 C809 1.561 . S
C807 C810 1.526 . S
C808 H792 0.959 . S
C808 H793 0.959 . S
C808 H794 0.961 . S
C808 C807 1.502 . S
C809 H795 0.960 . S
C809 H796 0.961 . S
C809 H797 0.959 . S
C809 C807 1.561 . S
C810 C807 1.526 . S
C810 C811 1.396 . S
C810 C815 1.390 . S
C811 C805 1.465 . S
C811 C810 1.396 . S
C811 C812 1.399 . S
C812 H798 0.929 . S
C812 C811 1.399 . S
C812 C813 1.385 . S
C813 H799 0.931 . S
C813 C812 1.385 . S
C813 C814 1.389 . S
C814 C813 1.389 . S
C814 C815 1.387 . S
C815 H800 0.930 . S
C815 C810 1.390 . S
C815 C814 1.387 . S
C181 C76 1.547 . S
C193 C89 1.603 . S
C220 C124 1.609 . S
C208 C87 1.586 . S
C247 C129 1.343 . S
C235 C54 1.284 . S
C274 C149 1.462 . S
C262 C65 1.412 . S
C301 C97 1.603 1_565 S
C289 C32 1.585 1_556 S
C316 C43 1.550 1_556 S
C328 C114 1.601 . S
C343 C10 1.288 1_556 S
C355 C137 1.313 . S
C370 C21 1.455 . S
C382 C157 1.461 1_655 S
C409 C107 1.201 . S
C397 C60 1.170 . S
C436 C116 0.944 . S
C424 C71 0.985 . S
C463 C147 1.293 . S
C451 C82 1.267 . S
C478 C49 0.929 . S
C490 C167 0.920 . S
C505 C16 1.220 . S
C517 C96 1.263 1_655 S
C544 C127 0.986 1_565 S
C532 C27 0.932 1_556 S
C571 C136 1.278 . S
C559 C38 1.252 1_556 S
C586 C5 1.036 1_556 S
C598 C156 1.031 . S
C613 C59 1.497 . S
C625 C94 1.504 . S
C640 C70 1.420 . S
C652 C117 1.500 . S
C679 C134 1.604 . S
C667 C81 1.566 . S
C706 C154 1.598 . S
C694 C48 1.584 . S
C721 C15 1.419 . S
C733 C104 1.450 . S
C760 C109 1.508 . S
C748 C26 1.447 . S
C787 C144 1.604 . S
C775 C37 1.566 . S
C802 C4 1.561 . S
C814 C164 1.584 . S
