# Generated by pormake.
# Topology ssa, (4,4)-cn, num edge types: 1
# Building blocks:
#     Node 0, Type 0, BuildingBlock: KOZSID_clean_sbu_0, # of connection points: 4
#     Node 1, Type 0, BuildingBlock: KOZSID_clean_sbu_0, # of connection points: 4
#     Node 2, Type 0, BuildingBlock: KOZSID_clean_sbu_0, # of connection points: 4
#     Node 3, Type 0, BuildingBlock: KOZSID_clean_sbu_0, # of connection points: 4
#     Node 4, Type 0, BuildingBlock: KOZSID_clean_sbu_0, # of connection points: 4
#     Node 5, Type 0, BuildingBlock: KOZSID_clean_sbu_0, # of connection points: 4
#     Node 6, Type 1, BuildingBlock: MIFKUJ_clean_linker_1, # of connection points: 4
#     Node 7, Type 1, BuildingBlock: MIFKUJ_clean_linker_1, # of connection points: 4
#     Node 8, Type 1, BuildingBlock: MIFKUJ_clean_linker_1, # of connection points: 4
#     Node 9, Type 1, BuildingBlock: MIFKUJ_clean_linker_1, # of connection points: 4
#     Node 10, Type 1, BuildingBlock: MIFKUJ_clean_linker_1, # of connection points: 4
#     Node 11, Type 1, BuildingBlock: MIFKUJ_clean_linker_1, # of connection points: 4
#     Edge 12, Type (0, 1), BuildingBlock: UVAHIK_clean_linker_0, # of connection points: 2
#     Edge 13, Type (0, 1), BuildingBlock: UVAHIK_clean_linker_0, # of connection points: 2
#     Edge 14, Type (0, 1), BuildingBlock: UVAHIK_clean_linker_0, # of connection points: 2
#     Edge 15, Type (0, 1), BuildingBlock: UVAHIK_clean_linker_0, # of connection points: 2
#     Edge 16, Type (0, 1), BuildingBlock: UVAHIK_clean_linker_0, # of connection points: 2
#     Edge 17, Type (0, 1), BuildingBlock: UVAHIK_clean_linker_0, # of connection points: 2
#     Edge 18, Type (0, 1), BuildingBlock: UVAHIK_clean_linker_0, # of connection points: 2
#     Edge 19, Type (0, 1), BuildingBlock: UVAHIK_clean_linker_0, # of connection points: 2
#     Edge 20, Type (0, 1), BuildingBlock: UVAHIK_clean_linker_0, # of connection points: 2
#     Edge 21, Type (0, 1), BuildingBlock: UVAHIK_clean_linker_0, # of connection points: 2
#     Edge 22, Type (0, 1), BuildingBlock: UVAHIK_clean_linker_0, # of connection points: 2
#     Edge 23, Type (0, 1), BuildingBlock: UVAHIK_clean_linker_0, # of connection points: 2
#     Edge 24, Type (0, 1), BuildingBlock: UVAHIK_clean_linker_0, # of connection points: 2
#     Edge 25, Type (0, 1), BuildingBlock: UVAHIK_clean_linker_0, # of connection points: 2
#     Edge 26, Type (0, 1), BuildingBlock: UVAHIK_clean_linker_0, # of connection points: 2
#     Edge 27, Type (0, 1), BuildingBlock: UVAHIK_clean_linker_0, # of connection points: 2
#     Edge 28, Type (0, 1), BuildingBlock: UVAHIK_clean_linker_0, # of connection points: 2
#     Edge 29, Type (0, 1), BuildingBlock: UVAHIK_clean_linker_0, # of connection points: 2
#     Edge 30, Type (0, 1), BuildingBlock: UVAHIK_clean_linker_0, # of connection points: 2
#     Edge 31, Type (0, 1), BuildingBlock: UVAHIK_clean_linker_0, # of connection points: 2
#     Edge 32, Type (0, 1), BuildingBlock: UVAHIK_clean_linker_0, # of connection points: 2
#     Edge 33, Type (0, 1), BuildingBlock: UVAHIK_clean_linker_0, # of connection points: 2
#     Edge 34, Type (0, 1), BuildingBlock: UVAHIK_clean_linker_0, # of connection points: 2
#     Edge 35, Type (0, 1), BuildingBlock: UVAHIK_clean_linker_0, # of connection points: 2
# Relax obj value: 0.004
# Max RMSD: 0.020
# Mean RMSD: 0.012
data_MOF--net-ssa--node1-KOZSID_clean_sbu_0--node2-MIFKUJ_clean_linker_1--edge1-UVAHIK_clean_linker_0
_symmetry_space_group_name_H-M    P1
_symmetry_Int_Tables_number       1
_symmetry_cell_setting            triclinic
loop_
_symmetry_equiv_pos_as_xyz
'x, y, z'
_cell_length_a     79.504169
_cell_length_b     80.861384
_cell_length_c     51.847381
_cell_angle_alpha  88.079409
_cell_angle_beta   90.007567
_cell_angle_gamma 121.71111
loop_
_atom_site_label
_atom_site_type_symbol
_atom_site_fract_x
_atom_site_fract_y
_atom_site_fract_z
_atom_type_partial_charge
C0 C 0.96839 0.50941 0.99524 0.0
C1 C 0.95166 0.50659 0.00798 0.0
C2 C 0.94934 0.49588 0.03005 0.0
C3 C 0.96479 0.49292 0.02964 0.0
N4 N 0.97698 0.50124 0.00874 0.0
Co5 Co 0.00151 0.50091 0.00076 0.0
N6 N 0.9971 0.48374 0.03209 0.0
C7 C 0.98157 0.47598 0.04895 0.0
C8 C 0.98232 0.46434 0.06815 0.0
C9 C 0.99941 0.46477 0.06341 0.0
C10 C 0.00822 0.47684 0.04161 0.0
N11 N 0.02637 0.50105 0.99323 0.0
C12 C 0.03515 0.49317 0.00702 0.0
C13 C 0.05303 0.49783 0.99569 0.0
C14 C 0.05559 0.50892 0.97395 0.0
C15 C 0.03932 0.51057 0.97332 0.0
N16 N 0.00556 0.51762 0.969 0.0
C17 C 0.02043 0.52439 0.95126 0.0
C18 C 0.01869 0.53446 0.93074 0.0
C19 C 0.00152 0.53391 0.93542 0.0
C20 C 0.99383 0.5236 0.95876 0.0
N21 N 0.01712 0.52441 0.02138 0.0
C22 C 0.04007 0.5572 0.05142 0.0
C23 C 0.04572 0.55675 0.02605 0.0
C24 C 0.03412 0.5404 0.0115 0.0
C25 C 0.02255 0.54104 0.06131 0.0
C26 C 0.01144 0.52496 0.04614 0.0
N27 N 0.9859 0.47742 0.98016 0.0
C28 C 0.98251 0.45893 0.94266 0.0
C29 C 0.96324 0.4446 0.95023 0.0
C30 C 0.95557 0.44684 0.97315 0.0
C31 C 0.96709 0.46314 0.98778 0.0
C32 C 0.99345 0.47514 0.9577 0.0
H33 H 0.96041 0.46387 0.00513 0.0
H34 H 0.00791 0.4857 0.95063 0.0
H35 H 0.03933 0.54099 0.9924 0.0
H36 H 0.99837 0.51312 0.05496 0.0
C37 C 0.96726 0.481 0.04732 0.0
C38 C 0.975 0.51922 0.96989 0.0
C39 C 0.02742 0.48172 0.0312 0.0
C40 C 0.03575 0.5209 0.95429 0.0
H41 H 0.9419 0.51142 0.00167 0.0
H42 H 0.93747 0.49042 0.04431 0.0
H43 H 0.97189 0.45679 0.08403 0.0
H44 H 0.00491 0.45727 0.07495 0.0
H45 H 0.06334 0.49386 0.00254 0.0
H46 H 0.06796 0.51522 0.96037 0.0
H47 H 0.02855 0.54114 0.91414 0.0
H48 H 0.99526 0.54013 0.92282 0.0
H49 H 0.05928 0.56879 0.01752 0.0
H50 H 0.01729 0.54077 0.08069 0.0
H51 H 0.98901 0.45785 0.92491 0.0
H52 H 0.94077 0.43595 0.97995 0.0
C53 C 0.52988 0.00945 0.54437 0.0
C54 C 0.53095 0.00224 0.5686 0.0
C55 C 0.51333 0.98528 0.57313 0.0
C56 C 0.50249 0.98316 0.55161 0.0
N57 N 0.51216 0.99764 0.53342 0.0
Co58 Co 0.50137 0.00088 0.49984 0.0
N59 N 0.4751 0.97631 0.50708 0.0
C60 C 0.46998 0.96402 0.52801 0.0
C61 C 0.45143 0.94777 0.52697 0.0
C62 C 0.44423 0.94966 0.50394 0.0
C63 C 0.45881 0.96718 0.49229 0.0
N64 N 0.49052 0.00431 0.4665 0.0
C65 C 0.47248 0.99301 0.45607 0.0
C66 C 0.47082 0.00119 0.43295 0.0
C67 C 0.48857 0.01798 0.42827 0.0
C68 C 0.49995 0.01922 0.44881 0.0
N69 N 0.52772 0.02526 0.49239 0.0
C70 C 0.53322 0.03703 0.47089 0.0
C71 C 0.5523 0.05255 0.47114 0.0
C72 C 0.55941 0.05071 0.49429 0.0
C73 C 0.54412 0.03417 0.50694 0.0
N74 N 0.51064 0.98553 0.48225 0.0
C75 C 0.522 0.96265 0.45642 0.0
C76 C 0.52527 0.98004 0.44509 0.0
C77 C 0.51946 0.99113 0.4582 0.0
C78 C 0.51335 0.95713 0.48109 0.0
C79 C 0.50794 0.96872 0.49359 0.0
N80 N 0.49208 0.0162 0.51743 0.0
C81 C 0.4905 0.04519 0.51987 0.0
C82 C 0.47993 0.03846 0.54329 0.0
C83 C 0.47534 0.02028 0.55335 0.0
C84 C 0.48147 0.00948 0.54022 0.0
C85 C 0.49638 0.03393 0.50739 0.0
H86 H 0.4775 0.99579 0.54896 0.0
H87 H 0.50456 0.03999 0.48978 0.0
H88 H 0.52205 0.00404 0.44834 0.0
H89 H 0.50148 0.96367 0.51234 0.0
C90 C 0.48308 0.96793 0.54812 0.0
C91 C 0.54578 0.0279 0.53301 0.0
C92 C 0.45668 0.97426 0.46692 0.0
C93 C 0.51975 0.03379 0.45151 0.0
H94 H 0.54308 0.00869 0.58187 0.0
H95 H 0.50883 0.97579 0.59027 0.0
H96 H 0.44413 0.93579 0.54109 0.0
H97 H 0.42995 0.93911 0.4965 0.0
H98 H 0.45815 0.99553 0.42057 0.0
H99 H 0.49275 0.02797 0.41171 0.0
H100 H 0.55999 0.06405 0.45648 0.0
H101 H 0.5741 0.06061 0.50125 0.0
H102 H 0.53183 0.98486 0.42591 0.0
H103 H 0.51083 0.94393 0.49084 0.0
H104 H 0.49461 0.05928 0.5114 0.0
H105 H 0.46691 0.01428 0.57125 0.0
C106 C 0.53404 0.52456 0.96092 0.0
C107 C 0.53892 0.53725 0.93962 0.0
C108 C 0.52265 0.53825 0.93447 0.0
C109 C 0.50889 0.52634 0.95299 0.0
N110 N 0.51542 0.51786 0.96977 0.0
Co111 Co 0.50057 0.50035 0.00047 0.0
N112 N 0.47609 0.50046 0.99146 0.0
C113 C 0.47336 0.50883 0.97016 0.0
C114 C 0.45476 0.50584 0.96871 0.0
C115 C 0.44503 0.49498 0.99044 0.0
C116 C 0.45839 0.49213 0.00408 0.0
N117 N 0.48602 0.48369 0.03195 0.0
C118 C 0.4678 0.47794 0.04155 0.0
C119 C 0.46405 0.46782 0.06514 0.0
C120 C 0.48042 0.46708 0.07057 0.0
C121 C 0.49326 0.4769 0.05025 0.0
N122 N 0.52474 0.49941 0.00867 0.0
C123 C 0.52672 0.48925 0.02843 0.0
C124 C 0.54437 0.49009 0.02808 0.0
C125 C 0.55422 0.50127 0.00662 0.0
C126 C 0.54202 0.50681 0.9952 0.0
N127 N 0.51012 0.52373 0.02129 0.0
C128 C 0.52336 0.55687 0.05099 0.0
C129 C 0.52735 0.54248 0.05826 0.0
C130 C 0.5206 0.52615 0.04332 0.0
C131 C 0.51261 0.55431 0.02858 0.0
C132 C 0.50628 0.53787 0.01411 0.0
N133 N 0.49105 0.47699 0.97959 0.0
C134 C 0.48246 0.4437 0.97569 0.0
C135 C 0.47942 0.44454 0.94929 0.0
C136 C 0.48188 0.4617 0.9384 0.0
C137 C 0.48746 0.47755 0.9538 0.0
C138 C 0.48834 0.46 0.99035 0.0
H139 H 0.48892 0.49013 0.94431 0.0
H140 H 0.49085 0.45856 0.01025 0.0
H141 H 0.52405 0.51569 0.05002 0.0
H142 H 0.49821 0.5369 0.99726 0.0
C143 C 0.48916 0.52116 0.95346 0.0
C144 C 0.54727 0.51868 0.97128 0.0
C145 C 0.45382 0.48213 0.02938 0.0
C146 C 0.51193 0.47948 0.04738 0.0
H147 H 0.55268 0.54468 0.92858 0.0
H148 H 0.52086 0.54622 0.91863 0.0
H149 H 0.44914 0.51142 0.95402 0.0
H150 H 0.42993 0.49008 0.99593 0.0
H151 H 0.45092 0.46172 0.07733 0.0
H152 H 0.48273 0.46028 0.08741 0.0
H153 H 0.54942 0.48327 0.04171 0.0
H154 H 0.56867 0.50474 1.00004 0.0
H155 H 0.53582 0.54383 0.07527 0.0
H156 H 0.50877 0.56481 0.02229 0.0
H157 H 0.48082 0.43069 0.98489 0.0
H158 H 0.47942 0.46288 0.91804 0.0
C159 C 0.9649 0.45804 0.50711 0.0
C160 C 0.94783 0.44422 0.49513 0.0
C161 C 0.94607 0.45313 0.4734 0.0
C162 C 0.96219 0.47173 0.47321 0.0
N163 N 0.97419 0.47524 0.49346 0.0
Co164 Co 0.99979 0.49998 0.49989 0.0
N165 N 0.99606 0.51367 0.46949 0.0
C166 C 0.98012 0.50641 0.45418 0.0
C167 C 0.9812 0.51952 0.4358 0.0
C168 C 0.99894 0.53617 0.43952 0.0
C169 C 0.0078 0.53213 0.45984 0.0
N170 N 0.02591 0.52442 0.50546 0.0
C171 C 0.03554 0.54138 0.49122 0.0
C172 C 0.05428 0.55396 0.5006 0.0
C173 C 0.05647 0.54475 0.52164 0.0
C174 C 0.03915 0.52706 0.52375 0.0
N175 N 0.00293 0.4866 0.53119 0.0
C176 C 0.01797 0.49443 0.54797 0.0
C177 C 0.01545 0.48231 0.56866 0.0
C178 C 0.99759 0.46579 0.56511 0.0
C179 C 0.99031 0.46874 0.54218 0.0
N180 N 0.01359 0.491 0.47769 0.0
C181 C 0.03419 0.47982 0.4456 0.0
C182 C 0.03871 0.48308 0.47164 0.0
C183 C 0.0284 0.48874 0.48718 0.0
C184 C 0.01899 0.48187 0.43595 0.0
C185 C 0.00883 0.48725 0.45225 0.0
N186 N 0.98603 0.50898 0.52201 0.0
C187 C 0.98546 0.52621 0.55893 0.0
C188 C 0.96635 0.52174 0.55328 0.0
C189 C 0.95728 0.51069 0.53175 0.0
C190 C 0.9673 0.50457 0.5165 0.0
C191 C 0.99493 0.5197 0.54321 0.0
H192 H 0.95952 0.49623 0.50038 0.0
H193 H 0.00946 0.52355 0.54858 0.0
H194 H 0.03288 0.49142 0.50672 0.0
H195 H 0.99728 0.48837 0.4437 0.0
C196 C 0.96523 0.48677 0.45608 0.0
C197 C 0.97121 0.45434 0.5319 0.0
C198 C 0.02765 0.54607 0.46857 0.0
C199 C 0.03457 0.51296 0.54326 0.0
H200 H 0.93749 0.42935 0.50173 0.0
H201 H 0.93413 0.44697 0.45981 0.0
H202 H 0.97058 0.51714 0.42108 0.0
H203 H 0.00482 0.54965 0.42823 0.0
H204 H 0.06535 0.5683 0.49301 0.0
H205 H 0.06919 0.55029 0.53392 0.0
H206 H 0.02539 0.48518 0.5845 0.0
H207 H 0.99068 0.45309 0.57808 0.0
H208 H 0.05051 0.48177 0.47985 0.0
H209 H 0.01487 0.47925 0.41591 0.0
H210 H 0.99323 0.53489 0.57524 0.0
H211 H 0.94235 0.5065 0.52678 0.0
C212 C 0.47238 0.99345 0.04579 0.0
C213 C 0.47176 0.00216 0.06811 0.0
C214 C 0.48939 0.01937 0.06914 0.0
C215 C 0.49978 0.02016 0.04757 0.0
N216 N 0.48979 0.00457 0.03263 0.0
Co217 Co 0.4997 0.99934 0.00016 0.0
N218 N 0.52607 0.02416 0.00255 0.0
C219 C 0.53193 0.03741 0.02109 0.0
C220 C 0.55078 0.05309 0.01735 0.0
C221 C 0.55732 0.04979 0.99494 0.0
C222 C 0.54198 0.03223 0.98627 0.0
N223 N 0.50964 0.99403 0.96779 0.0
C224 C 0.52721 0.00492 0.95496 0.0
C225 C 0.52804 0.99602 0.93296 0.0
C226 C 0.51031 0.97892 0.93176 0.0
C227 C 0.49972 0.97838 0.95295 0.0
N228 N 0.47332 0.97457 0.99769 0.0
C229 C 0.46733 0.96151 0.97888 0.0
C230 C 0.44838 0.94598 0.98239 0.0
C231 C 0.4419 0.94916 0.00493 0.0
C232 C 0.4574 0.96648 0.01397 0.0
N233 N 0.48983 0.01348 0.97937 0.0
C234 C 0.47649 0.03398 0.94936 0.0
C235 C 0.47255 0.01576 0.94233 0.0
C236 C 0.47938 0.00591 0.95737 0.0
C237 C 0.48715 0.04168 0.97181 0.0
C238 C 0.4935 0.03124 0.98644 0.0
N239 N 0.50957 0.98521 0.02095 0.0
C240 C 0.51177 0.95678 0.02906 0.0
C241 C 0.52295 0.96481 0.05105 0.0
C242 C 0.52741 0.9833 0.05756 0.0
C243 C 0.52057 0.9931 0.04247 0.0
C244 C 0.50538 0.96717 0.01437 0.0
H245 H 0.52434 0.00702 0.04868 0.0
H246 H 0.49693 0.96023 0.9979 0.0
H247 H 0.47605 0.99224 0.95073 0.0
H248 H 0.50149 0.03794 0.00329 0.0
C249 C 0.51922 0.03492 0.04146 0.0
C250 C 0.45648 0.97425 0.03853 0.0
C251 C 0.54314 0.02408 0.96219 0.0
C252 C 0.48015 0.96382 0.95876 0.0
H253 H 0.45997 0.99651 0.08248 0.0
H254 H 0.49425 0.02984 0.08414 0.0
H255 H 0.55872 0.06555 0.02933 0.0
H256 H 0.57169 0.05932 0.98584 0.0
H257 H 0.54008 0.00148 0.91898 0.0
H258 H 0.50556 0.96834 0.91691 0.0
H259 H 0.44036 0.93364 0.97023 0.0
H260 H 0.42748 0.93966 0.01392 0.0
H261 H 0.4641 0.00896 0.92534 0.0
H262 H 0.49092 0.05588 0.97797 0.0
H263 H 0.50762 0.94238 0.02334 0.0
H264 H 0.53629 0.99034 0.07416 0.0
C265 C 0.50974 0.54181 0.49275 0.0
C266 C 0.50696 0.55563 0.5038 0.0
C267 C 0.49564 0.54701 0.52558 0.0
C268 C 0.4923 0.52857 0.52668 0.0
N269 N 0.50093 0.52489 0.50703 0.0
Co270 Co 0.50022 0.50007 0.50145 0.0
N271 N 0.48251 0.48702 0.53259 0.0
C272 C 0.47492 0.49467 0.54824 0.0
C273 C 0.46286 0.48209 0.56767 0.0
C274 C 0.46279 0.4654 0.56438 0.0
C275 C 0.47501 0.46885 0.54314 0.0
N276 N 0.49981 0.47536 0.49618 0.0
C277 C 0.49118 0.4585 0.51065 0.0
C278 C 0.49547 0.44531 0.50081 0.0
C279 C 0.50705 0.45406 0.47928 0.0
C280 C 0.50933 0.47205 0.4773 0.0
N281 N 0.51762 0.51303 0.47 0.0
C282 C 0.52451 0.50511 0.4537 0.0
C283 C 0.5353 0.51717 0.43313 0.0
C284 C 0.53517 0.53376 0.43628 0.0
C285 C 0.52436 0.5309 0.45881 0.0
N286 N 0.52388 0.50939 0.52323 0.0
C287 C 0.55735 0.52217 0.55437 0.0
C288 C 0.55631 0.51447 0.53026 0.0
C289 C 0.53968 0.50836 0.51512 0.0
C290 C 0.54129 0.52338 0.56254 0.0
C291 C 0.52483 0.51688 0.54689 0.0
N292 N 0.47657 0.49078 0.47967 0.0
C293 C 0.45826 0.47477 0.44173 0.0
C294 C 0.44345 0.47844 0.44801 0.0
C295 C 0.44548 0.48826 0.47059 0.0
C296 C 0.46193 0.49413 0.48605 0.0
C297 C 0.47456 0.48108 0.4576 0.0
H298 H 0.46252 0.50151 0.50295 0.0
H299 H 0.48536 0.47797 0.45153 0.0
H300 H 0.53994 0.50273 0.49699 0.0
H301 H 0.51306 0.51804 0.5544 0.0
C302 C 0.48013 0.51401 0.54496 0.0
C303 C 0.52031 0.54528 0.46826 0.0
C304 C 0.4793 0.45452 0.53411 0.0
C305 C 0.52038 0.48619 0.458 0.0
H306 H 0.5123 0.57033 0.49663 0.0
H307 H 0.49016 0.55331 0.53874 0.0
H308 H 0.45523 0.48481 0.58266 0.0
H309 H 0.4548 0.45224 0.57642 0.0
H310 H 0.4909 0.43092 0.50848 0.0
H311 H 0.51325 0.44809 0.46672 0.0
H312 H 0.54219 0.51413 0.41749 0.0
H313 H 0.54203 0.54641 0.42321 0.0
H314 H 0.56815 0.51284 0.52313 0.0
H315 H 0.5414 0.52947 0.58088 0.0
H316 H 0.45728 0.46693 0.42471 0.0
H317 H 0.43462 0.49176 0.47621 0.0
H318 H 0.17207 0.40899 0.18783 0.0
H319 H 0.147 0.41177 0.16396 0.0
H320 H 0.17224 0.4704 0.18976 0.0
H321 H 0.19675 0.46722 0.21402 0.0
H322 H 0.21593 0.43545 0.18375 0.0
H323 H 0.16175 0.41033 0.25069 0.0
H324 H 0.13728 0.41388 0.27489 0.0
H325 H 0.18336 0.47137 0.29584 0.0
H326 H 0.20773 0.46764 0.27209 0.0
H327 H 0.25295 0.46168 0.28295 0.0
H328 H 0.27931 0.46299 0.3087 0.0
H329 H 0.27399 0.4148 0.26801 0.0
H330 H 0.24703 0.41301 0.24277 0.0
H331 H 0.2166 0.43726 0.27933 0.0
H332 H 0.27045 0.46529 0.22046 0.0
H333 H 0.29845 0.46947 0.19541 0.0
H334 H 0.25905 0.41759 0.15448 0.0
H335 H 0.23116 0.41297 0.18063 0.0
C336 C 0.18608 0.43782 0.20284 0.0
C337 C 0.17213 0.4224 0.18827 0.0
C338 C 0.15788 0.42407 0.17457 0.0
C339 C 0.1575 0.44128 0.17504 0.0
C340 C 0.17178 0.45678 0.18939 0.0
C341 C 0.18589 0.45505 0.20316 0.0
C342 C 0.20091 0.43605 0.21787 0.0
C343 C 0.21592 0.43537 0.20468 0.0
C344 C 0.20133 0.43691 0.24501 0.0
C345 C 0.18648 0.43872 0.25971 0.0
C346 C 0.16652 0.42364 0.2606 0.0
C347 C 0.15262 0.42566 0.2744 0.0
C348 C 0.15849 0.44292 0.28708 0.0
C349 C 0.17847 0.45799 0.28604 0.0
C350 C 0.19238 0.45584 0.27266 0.0
C351 C 0.24802 0.43731 0.26077 0.0
C352 C 0.25726 0.45123 0.2797 0.0
C353 C 0.27234 0.452 0.2944 0.0
C354 C 0.27864 0.43899 0.29032 0.0
C355 C 0.26948 0.42509 0.27135 0.0
C356 C 0.25414 0.42411 0.2569 0.0
C357 C 0.23192 0.43666 0.24534 0.0
C358 C 0.21659 0.43689 0.25843 0.0
C359 C 0.23175 0.43623 0.218 0.0
C360 C 0.24874 0.43863 0.20273 0.0
C361 C 0.26787 0.45464 0.20638 0.0
C362 C 0.28385 0.45715 0.19178 0.0
C363 C 0.28102 0.44389 0.17286 0.0
C364 C 0.26181 0.42792 0.16912 0.0
C365 C 0.24582 0.42534 0.1839 0.0
H366 H 0.73894 0.20341 0.79082 0.0
H367 H 0.70991 0.17815 0.81504 0.0
H368 H 0.7163 0.13405 0.77973 0.0
H369 H 0.74571 0.15956 0.75572 0.0
H370 H 0.77671 0.21327 0.79065 0.0
H371 H 0.72396 0.19033 0.73151 0.0
H372 H 0.69625 0.16685 0.70623 0.0
H373 H 0.73529 0.15416 0.66526 0.0
H374 H 0.76283 0.17712 0.69156 0.0
H375 H 0.81796 0.23309 0.6906 0.0
H376 H 0.84166 0.2618 0.66436 0.0
H377 H 0.82665 0.29707 0.70806 0.0
H378 H 0.80233 0.2682 0.73319 0.0
H379 H 0.77865 0.21632 0.69494 0.0
H380 H 0.83358 0.24829 0.75292 0.0
H381 H 0.85825 0.27546 0.77794 0.0
H382 H 0.81138 0.27481 0.82092 0.0
H383 H 0.78685 0.24823 0.79545 0.0
C384 C 0.74443 0.18336 0.77142 0.0
C385 C 0.73419 0.18832 0.78842 0.0
C386 C 0.7175 0.17386 0.80205 0.0
C387 C 0.71074 0.15413 0.79908 0.0
C388 C 0.72122 0.14915 0.78243 0.0
C389 C 0.73793 0.16367 0.76864 0.0
C390 C 0.76163 0.19897 0.75632 0.0
C391 C 0.77718 0.21402 0.7697 0.0
C392 C 0.76225 0.19968 0.72903 0.0
C393 C 0.74541 0.18524 0.71375 0.0
C394 C 0.7265 0.18226 0.71739 0.0
C395 C 0.71071 0.169 0.70266 0.0
C396 C 0.71353 0.15862 0.68365 0.0
C397 C 0.73253 0.16169 0.67997 0.0
C398 C 0.74832 0.17492 0.69483 0.0
C399 C 0.80857 0.24853 0.71409 0.0
C400 C 0.8198 0.24703 0.69447 0.0
C401 C 0.83345 0.26348 0.67964 0.0
C402 C 0.8361 0.28177 0.68412 0.0
C403 C 0.82483 0.2832 0.70385 0.0
C404 C 0.81109 0.26673 0.71849 0.0
C405 C 0.79361 0.23098 0.72926 0.0
C406 C 0.77849 0.21546 0.71587 0.0
C407 C 0.79307 0.23018 0.75662 0.0
C408 C 0.8083 0.24625 0.77212 0.0
C409 C 0.82861 0.25411 0.76755 0.0
C410 C 0.84269 0.26958 0.78188 0.0
C411 C 0.83669 0.27716 0.80139 0.0
C412 C 0.81641 0.26909 0.8062 0.0
C413 C 0.80238 0.25387 0.79165 0.0
H414 H 0.59527 0.82114 0.30889 0.0
H415 H 0.59058 0.84376 0.3338 0.0
H416 H 0.53484 0.82387 0.2966 0.0
H417 H 0.53955 0.80129 0.27192 0.0
H418 H 0.56989 0.77979 0.30754 0.0
H419 H 0.59472 0.83661 0.25014 0.0
H420 H 0.59247 0.86176 0.22549 0.0
H421 H 0.5443 0.81729 0.1824 0.0
H422 H 0.54616 0.79223 0.20747 0.0
H423 H 0.54643 0.74774 0.20704 0.0
H424 H 0.54445 0.72199 0.18152 0.0
H425 H 0.59225 0.72462 0.22453 0.0
H426 H 0.59471 0.75099 0.24961 0.0
H427 H 0.5727 0.78345 0.21183 0.0
H428 H 0.54176 0.7277 0.26928 0.0
H429 H 0.53797 0.69961 0.29393 0.0
H430 H 0.59005 0.73771 0.33695 0.0
H431 H 0.594 0.76582 0.31186 0.0
C432 C 0.56782 0.80967 0.28847 0.0
C433 C 0.58205 0.82168 0.30616 0.0
C434 C 0.57942 0.83465 0.32022 0.0
C435 C 0.56235 0.83557 0.31711 0.0
C436 C 0.54806 0.82337 0.29954 0.0
C437 C 0.55078 0.81056 0.28534 0.0
C438 C 0.57061 0.79603 0.27337 0.0
C439 C 0.57088 0.78075 0.28661 0.0
C440 C 0.57125 0.79701 0.24607 0.0
C441 C 0.57048 0.81249 0.23086 0.0
C442 C 0.58354 0.83226 0.23558 0.0
C443 C 0.58229 0.84661 0.22146 0.0
C444 C 0.56824 0.84144 0.20203 0.0
C445 C 0.55542 0.82169 0.19707 0.0
C446 C 0.55648 0.80737 0.21139 0.0
C447 C 0.57065 0.75129 0.23039 0.0
C448 C 0.55668 0.74299 0.21083 0.0
C449 C 0.55553 0.72825 0.19627 0.0
C450 C 0.5682 0.72134 0.20107 0.0
C451 C 0.58221 0.7296 0.2206 0.0
C452 C 0.58358 0.74462 0.23495 0.0
C453 C 0.57139 0.7668 0.2459 0.0
C454 C 0.57194 0.78255 0.23277 0.0
C455 C 0.57076 0.76586 0.27326 0.0
C456 C 0.56838 0.74883 0.28839 0.0
C457 C 0.55252 0.73 0.28377 0.0
C458 C 0.55036 0.71396 0.29787 0.0
C459 C 0.5638 0.71648 0.31722 0.0
C460 C 0.57944 0.73537 0.32221 0.0
C461 C 0.58172 0.75141 0.30789 0.0
H462 H 0.75003 0.5412 0.71728 0.0
H463 H 0.72372 0.53979 0.69134 0.0
H464 H 0.72629 0.5856 0.73489 0.0
H465 H 0.75337 0.58767 0.76021 0.0
H466 H 0.78619 0.56709 0.72194 0.0
H467 H 0.7315 0.53391 0.7834 0.0
H468 H 0.70331 0.52971 0.80815 0.0
H469 H 0.7413 0.58543 0.84196 0.0
H470 H 0.76956 0.5891 0.81776 0.0
H471 H 0.82387 0.58601 0.82197 0.0
H472 H 0.84685 0.58084 0.84719 0.0
H473 H 0.83136 0.53042 0.80314 0.0
H474 H 0.80781 0.53515 0.77898 0.0
H475 H 0.78427 0.56306 0.81763 0.0
H476 H 0.84116 0.58788 0.75967 0.0
H477 H 0.86605 0.58615 0.7339 0.0
H478 H 0.81955 0.53995 0.69086 0.0
H479 H 0.7948 0.54125 0.71698 0.0
C480 C 0.75366 0.56445 0.74088 0.0
C481 C 0.74513 0.5511 0.72116 0.0
C482 C 0.73007 0.55027 0.70636 0.0
C483 C 0.72304 0.56259 0.71116 0.0
C484 C 0.7314 0.57585 0.73099 0.0
C485 C 0.74678 0.57695 0.74552 0.0
C486 C 0.76989 0.56522 0.75617 0.0
C487 C 0.78569 0.56604 0.74287 0.0
C488 C 0.76954 0.56436 0.78348 0.0
C489 C 0.75254 0.56187 0.79865 0.0
C490 C 0.73371 0.54519 0.79617 0.0
C491 C 0.71758 0.5429 0.81022 0.0
C492 C 0.71995 0.55729 0.82698 0.0
C493 C 0.73894 0.57393 0.82953 0.0
C494 C 0.75511 0.57612 0.81563 0.0
C495 C 0.81433 0.56114 0.79835 0.0
C496 C 0.8254 0.57381 0.81785 0.0
C497 C 0.83866 0.57093 0.83209 0.0
C498 C 0.84103 0.55525 0.82715 0.0
C499 C 0.82977 0.54251 0.80769 0.0
C500 C 0.81646 0.54534 0.79361 0.0
C501 C 0.80018 0.56411 0.78331 0.0
C502 C 0.78491 0.56428 0.7967 0.0
C503 C 0.80067 0.56517 0.75597 0.0
C504 C 0.81606 0.56462 0.74039 0.0
C505 C 0.83632 0.57724 0.74487 0.0
C506 C 0.85052 0.57629 0.73013 0.0
C507 C 0.84469 0.56298 0.71034 0.0
C508 C 0.82446 0.55051 0.70577 0.0
C509 C 0.81031 0.55127 0.72069 0.0
H510 H 0.24036 0.82418 0.20937 0.0
H511 H 0.269 0.84791 0.18295 0.0
H512 H 0.3067 0.83603 0.22991 0.0
H513 H 0.27786 0.81171 0.25544 0.0
H514 H 0.22515 0.78567 0.21589 0.0
H515 H 0.2566 0.84133 0.26973 0.0
H516 H 0.28433 0.86656 0.29381 0.0
H517 H 0.28287 0.8223 0.34424 0.0
H518 H 0.25607 0.79704 0.31936 0.0
H519 H 0.21056 0.75133 0.31935 0.0
H520 H 0.1843 0.72384 0.34483 0.0
H521 H 0.14052 0.72369 0.2955 0.0
H522 H 0.16674 0.75198 0.27075 0.0
H523 H 0.22085 0.78628 0.3112 0.0
H524 H 0.19976 0.73289 0.25467 0.0
H525 H 0.17667 0.70522 0.22942 0.0
H526 H 0.16108 0.74195 0.18666 0.0
H527 H 0.18456 0.76964 0.21168 0.0
C528 C 0.25701 0.81634 0.23453 0.0
C529 C 0.25481 0.82671 0.21393 0.0
C530 C 0.27123 0.84039 0.19901 0.0
C531 C 0.29017 0.84393 0.20436 0.0
C532 C 0.2923 0.83353 0.22508 0.0
C533 C 0.27587 0.81976 0.23988 0.0
C534 C 0.23945 0.80143 0.24983 0.0
C535 C 0.22407 0.78597 0.23672 0.0
C536 C 0.23837 0.80156 0.2771 0.0
C537 C 0.25437 0.81718 0.2924 0.0
C538 C 0.26238 0.83699 0.28573 0.0
C539 C 0.27812 0.8514 0.29954 0.0
C540 C 0.28561 0.84625 0.32077 0.0
C541 C 0.27721 0.82656 0.32799 0.0
C542 C 0.26187 0.81216 0.31382 0.0
C543 C 0.19071 0.75366 0.29288 0.0
C544 C 0.19532 0.74563 0.31417 0.0
C545 C 0.18034 0.7299 0.32869 0.0
C546 C 0.16049 0.72171 0.32199 0.0
C547 C 0.15578 0.72973 0.30084 0.0
C548 C 0.17076 0.74578 0.28664 0.0
C549 C 0.20692 0.77019 0.27736 0.0
C550 C 0.22192 0.78607 0.29037 0.0
C551 C 0.20808 0.77015 0.25012 0.0
C552 C 0.19373 0.75327 0.23519 0.0
C553 C 0.19126 0.73492 0.23996 0.0
C554 C 0.17798 0.7191 0.22556 0.0
C555 C 0.16694 0.72132 0.20602 0.0
C556 C 0.16951 0.73976 0.2013 0.0
C557 C 0.18285 0.75559 0.21566 0.0
H558 H 0.46385 0.26029 0.78123 0.0
H559 H 0.46825 0.28801 0.80481 0.0
H560 H 0.40982 0.27389 0.78323 0.0
H561 H 0.40559 0.24625 0.75924 0.0
H562 H 0.43297 0.21978 0.78844 0.0
H563 H 0.46228 0.27159 0.72286 0.0
H564 H 0.46502 0.2991 0.69805 0.0
H565 H 0.40518 0.26211 0.67201 0.0
H566 H 0.40283 0.23447 0.69646 0.0
H567 H 0.40621 0.1803 0.69066 0.0
H568 H 0.40974 0.15686 0.66613 0.0
H569 H 0.46417 0.17374 0.70523 0.0
H570 H 0.46059 0.19707 0.72954 0.0
H571 H 0.42957 0.2194 0.69286 0.0
H572 H 0.40689 0.16478 0.75213 0.0
H573 H 0.40873 0.13947 0.77695 0.0
H574 H 0.45881 0.18373 0.81765 0.0
H575 H 0.45743 0.20898 0.79227 0.0
C576 C 0.43441 0.25128 0.76855 0.0
C577 C 0.45198 0.26316 0.78162 0.0
C578 C 0.45452 0.27901 0.79492 0.0
C579 C 0.43938 0.28306 0.79575 0.0
C580 C 0.42166 0.271 0.78293 0.0
C581 C 0.41926 0.2553 0.76923 0.0
C582 C 0.4322 0.23485 0.75398 0.0
C583 C 0.43227 0.21962 0.76754 0.0
C584 C 0.43083 0.23456 0.72684 0.0
C585 C 0.4323 0.25109 0.71162 0.0
C586 C 0.44974 0.26945 0.71186 0.0
C587 C 0.45123 0.28518 0.69777 0.0
C588 C 0.43526 0.28289 0.68317 0.0
C589 C 0.41783 0.26436 0.68282 0.0
C590 C 0.41641 0.24858 0.69684 0.0
C591 C 0.43296 0.19021 0.71223 0.0
C592 C 0.4189 0.17894 0.69389 0.0
C593 C 0.42096 0.1656 0.67986 0.0
C594 C 0.43716 0.16333 0.68389 0.0
C595 C 0.45133 0.17484 0.70204 0.0
C596 C 0.44931 0.1882 0.71593 0.0
C597 C 0.43084 0.20434 0.72726 0.0
C598 C 0.42984 0.21917 0.71379 0.0
C599 C 0.43163 0.20434 0.75459 0.0
C600 C 0.43216 0.18883 0.7701 0.0
C601 C 0.4184 0.16906 0.76619 0.0
C602 C 0.4194 0.15461 0.78041 0.0
C603 C 0.43389 0.15969 0.7992 0.0
C604 C 0.44737 0.17944 0.80346 0.0
C605 C 0.44657 0.19385 0.78898 0.0
C606 C 0.04347 0.46217 0.0365 0.0
C607 C 0.03957 0.47587 0.04606 0.0
C608 C 0.05518 0.45697 0.0504 0.0
C609 C 0.07263 0.45574 0.11562 0.0
H610 H 0.11584 0.45614 0.08033 0.0
C611 C 0.13406 0.45318 0.17105 0.0
C612 C 0.14239 0.4432 0.16058 0.0
C613 C 0.12052 0.45576 0.15712 0.0
C614 C 0.10364 0.45561 0.09045 0.0
H615 H 0.04434 0.49466 0.07755 0.0
H616 H 0.06465 0.4854 0.10217 0.0
H617 H 0.09386 0.46303 0.0559 0.0
H618 H 0.14271 0.42784 0.12723 0.0
H619 H 0.11854 0.43171 0.10332 0.0
H620 H 0.08219 0.44816 0.15012 0.0
C621 C 0.05872 0.47869 0.08395 0.0
C622 C 0.09109 0.45963 0.07642 0.0
C623 C 0.04721 0.48405 0.0699 0.0
C624 C 0.13648 0.43547 0.13601 0.0
C625 C 0.12281 0.43792 0.12213 0.0
C626 C 0.08504 0.45153 0.12961 0.0
C627 C 0.06292 0.46518 0.07428 0.0
C628 C 0.07561 0.45996 0.08892 0.0
C629 C 0.11478 0.44825 0.13241 0.0
C630 C 0.10087 0.45164 0.11727 0.0
H631 H 0.03754 0.4556 0.01821 0.0
H632 H 0.05804 0.44639 0.04262 0.0
H633 H 0.06062 0.45562 0.12569 0.0
H634 H 0.138 0.45906 0.19008 0.0
H635 H 0.11486 0.46399 0.16557 0.0
C636 C 0.5774 0.03598 0.55437 0.0
C637 C 0.56331 0.0409 0.54844 0.0
C638 C 0.59402 0.04845 0.56859 0.0
C639 C 0.62505 0.09967 0.58604 0.0
H640 H 0.64172 0.07915 0.64241 0.0
C641 C 0.68302 0.14963 0.65859 0.0
C642 C 0.69678 0.14493 0.66747 0.0
C643 C 0.66718 0.13679 0.64357 0.0
C644 C 0.63745 0.0851 0.6265 0.0
H645 H 0.55534 0.06248 0.55233 0.0
H646 H 0.58444 0.08441 0.57717 0.0
H647 H 0.61326 0.05695 0.61705 0.0
H648 H 0.70456 0.12293 0.66749 0.0
H649 H 0.67718 0.10072 0.64069 0.0
H650 H 0.64922 0.12779 0.5953 0.0
C651 C 0.58275 0.071 0.57081 0.0
C652 C 0.62111 0.07237 0.61201 0.0
C653 C 0.56609 0.05847 0.55675 0.0
C654 C 0.69435 0.12709 0.66079 0.0
C655 C 0.67851 0.11425 0.64567 0.0
C656 C 0.64142 0.11238 0.60042 0.0
C657 C 0.59692 0.06614 0.57687 0.0
C658 C 0.61464 0.07954 0.59176 0.0
C659 C 0.66471 0.11894 0.6369 0.0
C660 C 0.64773 0.10529 0.62099 0.0
H661 H 0.57553 0.02252 0.54789 0.0
H662 H 0.60478 0.04441 0.57273 0.0
H663 H 0.62063 0.10561 0.57027 0.0
H664 H 0.68456 0.16334 0.66306 0.0
H665 H 0.65672 0.14079 0.63744 0.0
C666 C 0.53001 0.57284 0.09382 0.0
C667 C 0.53014 0.57431 0.06668 0.0
C668 C 0.5357 0.58913 0.10848 0.0
C669 C 0.53845 0.63572 0.10545 0.0
H670 H 0.5736 0.64877 0.16334 0.0
C671 C 0.56533 0.7062 0.15875 0.0
C672 C 0.56652 0.70542 0.18573 0.0
C673 C 0.56235 0.69066 0.14428 0.0
C674 C 0.56357 0.64521 0.14743 0.0
H675 H 0.53714 0.59436 0.03377 0.0
H676 H 0.54657 0.62257 0.05938 0.0
H677 H 0.56542 0.62054 0.1382 0.0
H678 H 0.56585 0.68796 0.21876 0.0
H679 H 0.56014 0.66051 0.19359 0.0
H680 H 0.53606 0.65991 0.11487 0.0
C681 C 0.5419 0.60875 0.06926 0.0
C682 C 0.55895 0.62906 0.13301 0.0
C683 C 0.53641 0.59255 0.0546 0.0
C684 C 0.56514 0.68898 0.19794 0.0
C685 C 0.56192 0.67329 0.18348 0.0
C686 C 0.54289 0.6517 0.11998 0.0
C687 C 0.54146 0.60718 0.09634 0.0
C688 C 0.54642 0.62423 0.1118 0.0
C689 C 0.56022 0.67383 0.15647 0.0
C690 C 0.55559 0.65674 0.14109 0.0
H691 H 0.52503 0.55901 0.10381 0.0
H692 H 0.53504 0.58746 0.12934 0.0
H693 H 0.52847 0.63213 0.08948 0.0
H694 H 0.56663 0.71884 0.14882 0.0
H695 H 0.56163 0.69184 0.12349 0.0
C696 C 0.95748 0.52843 0.59672 0.0
C697 C 0.95583 0.52837 0.56969 0.0
C698 C 0.94686 0.53386 0.61211 0.0
C699 C 0.90191 0.53579 0.61171 0.0
H700 H 0.92516 0.57 0.66892 0.0
C701 C 0.85786 0.56128 0.66741 0.0
C702 C 0.85949 0.56189 0.69436 0.0
C703 C 0.87081 0.55875 0.65231 0.0
C704 C 0.91838 0.56025 0.65319 0.0
H705 H 0.94233 0.53485 0.53767 0.0
H706 H 0.92358 0.54395 0.56455 0.0
H707 H 0.94559 0.56248 0.64251 0.0
H708 H 0.87618 0.56079 0.72668 0.0
H709 H 0.89863 0.55593 0.70035 0.0
H710 H 0.87465 0.53309 0.62253 0.0
C711 C 0.93292 0.53956 0.57381 0.0
C712 C 0.93011 0.55599 0.63805 0.0
C713 C 0.94363 0.53428 0.55843 0.0
C714 C 0.8747 0.56049 0.7059 0.0
C715 C 0.88757 0.55775 0.69079 0.0
C716 C 0.89018 0.5399 0.62692 0.0
C717 C 0.93426 0.53922 0.60081 0.0
C718 C 0.92199 0.5438 0.61708 0.0
C719 C 0.88557 0.55654 0.66383 0.0
C720 C 0.89826 0.55227 0.64777 0.0
H721 H 0.96655 0.52375 0.60607 0.0
H722 H 0.94804 0.53329 0.6329 0.0
H723 H 0.89516 0.52605 0.59596 0.0
H724 H 0.84645 0.56264 0.658 0.0
H725 H 0.86914 0.55841 0.63157 0.0
C726 C 0.43818 0.94524 0.06858 0.0
C727 C 0.43983 0.9619 0.05682 0.0
C728 C 0.42205 0.93296 0.08484 0.0
C729 C 0.38304 0.93103 0.12523 0.0
H730 H 0.35662 0.87541 0.11665 0.0
C731 C 0.30971 0.87565 0.17885 0.0
C732 C 0.30755 0.85805 0.188 0.0
C733 C 0.32584 0.88868 0.16297 0.0
C734 C 0.36397 0.89088 0.11955 0.0
H735 H 0.42627 0.97901 0.05252 0.0
H736 H 0.39794 0.95756 0.08129 0.0
H737 H 0.38495 0.89761 0.08898 0.0
H738 H 0.32066 0.84035 0.1875 0.0
H739 H 0.34904 0.86328 0.16054 0.0
H740 H 0.3622 0.9243 0.156 0.0
C741 C 0.40917 0.95406 0.0781 0.0
C742 C 0.38018 0.90359 0.10365 0.0
C743 C 0.42527 0.96628 0.06167 0.0
C744 C 0.32198 0.85387 0.18107 0.0
C745 C 0.33812 0.86691 0.16529 0.0
C746 C 0.36688 0.9183 0.14126 0.0
C747 C 0.40732 0.93718 0.08967 0.0
C748 C 0.38993 0.92379 0.10639 0.0
C749 C 0.3402 0.88442 0.15591 0.0
C750 C 0.3572 0.89806 0.13868 0.0
H751 H 0.44932 0.94167 0.06498 0.0
H752 H 0.42113 0.92018 0.09372 0.0
H753 H 0.3904 0.94653 0.12792 0.0
H754 H 0.29898 0.87943 0.18405 0.0
H755 H 0.32688 0.90195 0.1559 0.0
C756 C 0.45813 0.41824 0.54014 0.0
C757 C 0.47243 0.43626 0.54968 0.0
C758 C 0.45215 0.40105 0.55457 0.0
C759 C 0.44993 0.38186 0.62054 0.0
H760 H 0.44987 0.33966 0.58708 0.0
C761 C 0.4471 0.31841 0.67842 0.0
C762 C 0.43696 0.29976 0.66825 0.0
C763 C 0.4496 0.33447 0.66399 0.0
C764 C 0.44944 0.35112 0.59667 0.0
H765 H 0.49145 0.45075 0.58166 0.0
H766 H 0.48082 0.42068 0.60721 0.0
H767 H 0.45735 0.36878 0.56178 0.0
H768 H 0.42118 0.28339 0.63498 0.0
H769 H 0.42491 0.31129 0.61018 0.0
H770 H 0.44191 0.36426 0.65539 0.0
C771 C 0.47424 0.4198 0.58861 0.0
C772 C 0.45379 0.36784 0.58215 0.0
C773 C 0.48037 0.43694 0.57404 0.0
C774 C 0.42894 0.2975 0.64352 0.0
C775 C 0.43131 0.31356 0.62914 0.0
C776 C 0.44538 0.36508 0.63502 0.0
C777 C 0.46018 0.40166 0.57894 0.0
C778 C 0.45434 0.38347 0.59401 0.0
C779 C 0.44186 0.33229 0.63909 0.0
C780 C 0.44535 0.3496 0.62335 0.0
H781 H 0.45175 0.41749 0.52142 0.0
H782 H 0.44118 0.38728 0.54676 0.0
H783 H 0.44997 0.39359 0.6301 0.0
H784 H 0.4532 0.32066 0.69756 0.0
H785 H 0.45801 0.34867 0.6722 0.0
C786 C 0.54529 0.95821 0.42898 0.0
C787 C 0.52717 0.95012 0.44249 0.0
C788 C 0.5501 0.94627 0.41604 0.0
C789 C 0.53611 0.89468 0.41284 0.0
H790 H 0.56325 0.91174 0.34624 0.0
C791 C 0.54093 0.84256 0.34431 0.0
C792 C 0.55932 0.84906 0.33227 0.0
C793 C 0.53793 0.85524 0.35842 0.0
C794 C 0.55585 0.90687 0.36495 0.0
H795 H 0.49966 0.92328 0.45251 0.0
H796 H 0.50783 0.90253 0.42963 0.0
H797 H 0.55617 0.93324 0.36942 0.0
H798 H 0.58895 0.87397 0.32541 0.0
H799 H 0.58367 0.89622 0.35006 0.0
H800 H 0.53541 0.86813 0.40802 0.0
C801 C 0.51861 0.918 0.42955 0.0
C802 C 0.55182 0.9192 0.37828 0.0
C803 C 0.51389 0.9299 0.44262 0.0
C804 C 0.57467 0.86853 0.33464 0.0
C805 C 0.5716 0.88129 0.34855 0.0
C806 C 0.53999 0.88231 0.39942 0.0
C807 C 0.53681 0.926 0.41618 0.0
C808 C 0.54176 0.91321 0.40233 0.0
C809 C 0.5532 0.87475 0.36061 0.0
C810 C 0.54979 0.88822 0.37526 0.0
H811 H 0.5559 0.97373 0.42876 0.0
H812 H 0.56436 0.95292 0.40625 0.0
H813 H 0.52872 0.88972 0.43155 0.0
H814 H 0.52888 0.82759 0.34298 0.0
H815 H 0.52354 0.84983 0.36731 0.0
C816 C 0.56414 0.51613 0.93229 0.0
C817 C 0.56553 0.52388 0.95655 0.0
C818 C 0.58124 0.52099 0.91825 0.0
C819 C 0.63324 0.5371 0.92591 0.0
H820 H 0.63823 0.55186 0.85309 0.0
C821 C 0.70472 0.56103 0.86724 0.0
C822 C 0.70268 0.55487 0.84176 0.0
C823 C 0.6884 0.55841 0.88123 0.0
C824 C 0.637 0.54752 0.87332 0.0
H825 H 0.58555 0.54289 0.98516 0.0
H826 H 0.61564 0.55114 0.96081 0.0
H827 H 0.60883 0.54482 0.87752 0.0
H828 H 0.68181 0.5415 0.81089 0.0
H829 H 0.6533 0.53614 0.83558 0.0
H830 H 0.66104 0.53917 0.92171 0.0
C831 C 0.60135 0.5413 0.95268 0.0
C832 C 0.62018 0.54358 0.88732 0.0
C833 C 0.58423 0.53663 0.96656 0.0
C834 C 0.68392 0.54615 0.8306 0.0
C835 C 0.66758 0.54336 0.84466 0.0
C836 C 0.64996 0.54082 0.91186 0.0
C837 C 0.60001 0.53353 0.92838 0.0
C838 C 0.61811 0.53826 0.91372 0.0
C839 C 0.66958 0.54941 0.8702 0.0
C840 C 0.65203 0.54601 0.88534 0.0
H841 H 0.54981 0.50627 0.92427 0.0
H842 H 0.57978 0.51467 0.89967 0.0
H843 H 0.63191 0.53282 0.94618 0.0
H844 H 0.71887 0.56762 0.8766 0.0
H845 H 0.6906 0.56352 0.9007 0.0
C846 C 0.04589 0.56443 0.428 0.0
C847 C 0.04019 0.56465 0.45354 0.0
C848 C 0.05764 0.58185 0.41374 0.0
C849 C 0.09536 0.63229 0.42039 0.0
H850 H 0.07986 0.6411 0.35287 0.0
C851 C 0.14337 0.70509 0.36374 0.0
C852 C 0.14486 0.70457 0.33687 0.0
C853 C 0.1294 0.68853 0.37807 0.0
C854 C 0.08459 0.63881 0.37151 0.0
H855 H 0.04197 0.58294 0.48426 0.0
H856 H 0.06328 0.61361 0.45956 0.0
H857 H 0.05798 0.61089 0.37756 0.0
H858 H 0.13306 0.68658 0.30375 0.0
H859 H 0.10921 0.65733 0.32874 0.0
H860 H 0.12232 0.65959 0.41416 0.0
C861 C 0.05849 0.59996 0.45057 0.0
C862 C 0.07197 0.62155 0.38568 0.0
C863 C 0.04638 0.58252 0.46464 0.0
C864 C 0.13201 0.68732 0.32447 0.0
C865 C 0.11829 0.67062 0.33884 0.0
C866 C 0.10816 0.64938 0.40606 0.0
C867 C 0.06417 0.59975 0.42499 0.0
C868 C 0.07727 0.61817 0.41022 0.0
C869 C 0.1169 0.67094 0.36589 0.0
C870 C 0.10297 0.6529 0.3814 0.0
H871 H 0.04125 0.55077 0.41913 0.0
H872 H 0.06198 0.58137 0.3941 0.0
H873 H 0.09984 0.62988 0.43918 0.0
H874 H 0.15307 0.71834 0.37365 0.0
H875 H 0.12849 0.68954 0.39873 0.0
C876 C 0.46987 0.04441 0.90621 0.0
C877 C 0.46981 0.045 0.9333 0.0
C878 C 0.46404 0.05511 0.89112 0.0
C879 C 0.4378 0.08197 0.89472 0.0
H880 H 0.46712 0.10714 0.83104 0.0
C881 C 0.43706 0.14537 0.84108 0.0
C882 C 0.43523 0.14452 0.81414 0.0
C883 C 0.43936 0.13166 0.85509 0.0
C884 C 0.45865 0.10001 0.84863 0.0
H885 H 0.46308 0.05705 0.96567 0.0
H886 H 0.45385 0.07637 0.9394 0.0
H887 H 0.47506 0.0864 0.8566 0.0
H888 H 0.43418 0.12866 0.78071 0.0
H889 H 0.43847 0.10474 0.80525 0.0
H890 H 0.42194 0.09629 0.88704 0.0
C891 C 0.458 0.06732 0.92978 0.0
C892 C 0.46314 0.08806 0.86327 0.0
C893 C 0.46362 0.05646 0.94488 0.0
C894 C 0.43545 0.12954 0.80149 0.0
C895 C 0.43803 0.11598 0.81547 0.0
C896 C 0.43349 0.09412 0.88022 0.0
C897 C 0.45821 0.06686 0.90269 0.0
C898 C 0.45286 0.07896 0.8866 0.0
C899 C 0.44013 0.11699 0.84238 0.0
C900 C 0.44395 0.10332 0.85711 0.0
H901 H 0.47476 0.03595 0.89656 0.0
H902 H 0.46413 0.05416 0.87035 0.0
H903 H 0.4293 0.07492 0.9123 0.0
H904 H 0.43681 0.15672 0.85129 0.0
H905 H 0.44109 0.13285 0.8758 0.0
C906 C 0.40733 0.46581 0.4417 0.0
C907 C 0.42616 0.47228 0.43105 0.0
C908 C 0.39124 0.46057 0.42577 0.0
C909 C 0.37918 0.46704 0.35845 0.0
H910 H 0.32641 0.42566 0.38005 0.0
C911 C 0.31102 0.44083 0.29376 0.0
C912 C 0.29483 0.44013 0.30583 0.0
C913 C 0.32689 0.44319 0.30836 0.0
C914 C 0.34107 0.43727 0.37382 0.0
H915 H 0.4427 0.47821 0.39508 0.0
H916 H 0.41453 0.46829 0.36742 0.0
H917 H 0.35454 0.43256 0.40663 0.0
H918 H 0.28212 0.44062 0.34254 0.0
H919 H 0.30973 0.4445 0.36809 0.0
H920 H 0.3656 0.47155 0.32549 0.0
C921 C 0.41226 0.46765 0.38811 0.0
C922 C 0.35719 0.44131 0.38909 0.0
C923 C 0.4284 0.47308 0.40404 0.0
C924 C 0.29451 0.44125 0.33278 0.0
C925 C 0.31021 0.44333 0.34739 0.0
C926 C 0.36308 0.46283 0.34304 0.0
C927 C 0.39349 0.46147 0.39875 0.0
C928 C 0.37644 0.45643 0.38179 0.0
C929 C 0.32667 0.44457 0.33529 0.0
C930 C 0.34385 0.44807 0.35074 0.0
H931 H 0.40494 0.46472 0.4624 0.0
H932 H 0.3771 0.45615 0.4347 0.0
H933 H 0.39369 0.479 0.35238 0.0
H934 H 0.31165 0.44009 0.27299 0.0
H935 H 0.33936 0.44401 0.29859 0.0
C936 C 0.95903 0.41704 0.92428 0.0
C937 C 0.95109 0.42751 0.93427 0.0
C938 C 0.94736 0.40066 0.90975 0.0
C939 C 0.89481 0.36429 0.89626 0.0
H940 H 0.91742 0.35278 0.83846 0.0
C941 C 0.84938 0.29281 0.84363 0.0
C942 C 0.85141 0.2936 0.81664 0.0
C943 C 0.86242 0.30875 0.858 0.0
C944 C 0.91081 0.35585 0.85441 0.0
H945 H 0.92498 0.42946 0.93621 0.0
H946 H 0.90476 0.40125 0.91038 0.0
H947 H 0.93816 0.38182 0.86265 0.0
H948 H 0.86878 0.31151 0.78351 0.0
H949 H 0.89132 0.33961 0.80848 0.0
H950 H 0.86731 0.33886 0.88745 0.0
C951 C 0.91979 0.40525 0.91435 0.0
C952 C 0.92279 0.3724 0.86852 0.0
C953 C 0.93138 0.42148 0.92909 0.0
C954 C 0.86701 0.31048 0.80433 0.0
C955 C 0.87994 0.32654 0.81868 0.0
C956 C 0.88282 0.34788 0.88204 0.0
C957 C 0.92755 0.39451 0.90467 0.0
C958 C 0.91493 0.37685 0.88963 0.0
C959 C 0.87766 0.32597 0.8457 0.0
C960 C 0.89064 0.3434 0.86094 0.0
H961 H 0.97414 0.42128 0.92818 0.0
H962 H 0.95378 0.39262 0.90295 0.0
H963 H 0.88827 0.36704 0.91261 0.0
H964 H 0.83764 0.27985 0.85363 0.0
H965 H 0.86048 0.30755 0.87879 0.0
C966 C 0.94403 0.50824 0.94545 0.0
C967 C 0.96181 0.52354 0.95476 0.0
C968 C 0.93134 0.51211 0.93159 0.0
C969 C 0.91961 0.55033 0.91893 0.0
H970 H 0.89184 0.51893 0.86074 0.0
C971 C 0.87358 0.5679 0.84915 0.0
C972 C 0.85508 0.55208 0.84225 0.0
C973 C 0.88687 0.56483 0.86298 0.0
C974 C 0.89937 0.52772 0.87708 0.0
H975 H 0.98039 0.55475 0.95736 0.0
H976 H 0.95845 0.5617 0.9325 0.0
H977 H 0.91476 0.51296 0.88433 0.0
H978 H 0.83591 0.52063 0.84516 0.0
H979 H 0.8592 0.51531 0.8689 0.0
H980 H 0.90428 0.56521 0.9114 0.0
C981 C 0.95411 0.54669 0.93615 0.0
C982 C 0.91248 0.52428 0.89065 0.0
C983 C 0.96674 0.54278 0.95016 0.0
C984 C 0.85017 0.53314 0.84967 0.0
C985 C 0.8635 0.53007 0.86333 0.0
C986 C 0.90657 0.55385 0.90523 0.0
C987 C 0.93623 0.53139 0.92669 0.0
C988 C 0.92267 0.53544 0.91186 0.0
C989 C 0.88201 0.54587 0.87006 0.0
C990 C 0.89622 0.54249 0.88428 0.0
H991 H 0.93995 0.49329 0.94903 0.0
H992 H 0.91755 0.49996 0.92503 0.0
H993 H 0.92698 0.55903 0.93539 0.0
H994 H 0.87797 0.58266 0.84345 0.0
H995 H 0.90112 0.57728 0.86766 0.0
C996 C 0.44029 0.95504 0.42793 0.0
C997 C 0.43871 0.96209 0.45162 0.0
C998 C 0.42347 0.94368 0.41341 0.0
C999 C 0.37136 0.90885 0.41908 0.0
H1000 H 0.36781 0.92372 0.34836 0.0
C1001 C 0.30046 0.86286 0.36171 0.0
C1002 C 0.30245 0.86128 0.3352 0.0
C1003 C 0.3167 0.87627 0.37574 0.0
C1004 C 0.36862 0.91913 0.36792 0.0
H1005 H 0.41857 0.9631 0.47868 0.0
H1006 H 0.38887 0.9424 0.45374 0.0
H1007 H 0.39722 0.94469 0.37302 0.0
H1008 H 0.32271 0.87224 0.30238 0.0
H1009 H 0.35138 0.89501 0.32692 0.0
H1010 H 0.34342 0.88288 0.41394 0.0
C1011 C 0.40316 0.94588 0.44635 0.0
C1012 C 0.38543 0.93125 0.38206 0.0
C1013 C 0.42005 0.95762 0.46057 0.0
C1014 C 0.32085 0.8734 0.32281 0.0
C1015 C 0.33723 0.88652 0.33693 0.0
C1016 C 0.35474 0.89651 0.4048 0.0
C1017 C 0.40476 0.93886 0.42263 0.0
C1018 C 0.3869 0.92622 0.40775 0.0
C1019 C 0.33544 0.88807 0.36367 0.0
C1020 C 0.35308 0.90146 0.379 0.0
H1021 H 0.45455 0.95833 0.4207 0.0
H1022 H 0.425 0.93833 0.39523 0.0
H1023 H 0.3723 0.9046 0.43881 0.0
H1024 H 0.28632 0.85368 0.37157 0.0
H1025 H 0.31451 0.8773 0.39608 0.0
C1026 C 0.45915 0.40891 0.94077 0.0
C1027 C 0.47429 0.42784 0.93306 0.0
C1028 C 0.45454 0.39319 0.92546 0.0
C1029 C 0.4763 0.37719 0.87813 0.0
H1030 H 0.42236 0.34031 0.85886 0.0
C1031 C 0.45933 0.31824 0.80589 0.0
C1032 C 0.44219 0.29982 0.8101 0.0
C1033 C 0.46256 0.33391 0.82026 0.0
C1034 C 0.43748 0.35029 0.86435 0.0
H1035 H 0.49658 0.44521 0.90353 0.0
H1036 H 0.48872 0.41769 0.87699 0.0
H1037 H 0.42928 0.3673 0.88585 0.0
H1038 H 0.4149 0.28326 0.83243 0.0
H1039 H 0.42076 0.31044 0.85826 0.0
H1040 H 0.48459 0.36007 0.8575 0.0
C1041 C 0.48035 0.41504 0.89475 0.0
C1042 C 0.44141 0.36578 0.87973 0.0
C1043 C 0.48475 0.43077 0.90982 0.0
C1044 C 0.42817 0.29739 0.8287 0.0
C1045 C 0.43152 0.31301 0.8434 0.0
C1046 C 0.47236 0.36158 0.8631 0.0
C1047 C 0.46522 0.39611 0.90242 0.0
C1048 C 0.46088 0.37944 0.88659 0.0
C1049 C 0.44886 0.33146 0.83953 0.0
C1050 C 0.45292 0.34798 0.85582 0.0
H1051 H 0.45081 0.40629 0.95854 0.0
H1052 H 0.44288 0.37871 0.93186 0.0
H1053 H 0.49142 0.38738 0.88346 0.0
H1054 H 0.47025 0.32052 0.79139 0.0
H1055 H 0.47582 0.34797 0.81621 0.0
C1056 C 0.05332 0.48508 0.4047 0.0
C1057 C 0.04564 0.47484 0.42843 0.0
C1058 C 0.06472 0.48093 0.38884 0.0
C1059 C 0.07466 0.44322 0.37306 0.0
H1060 H 0.12575 0.48622 0.34882 0.0
C1061 C 0.13154 0.43139 0.32056 0.0
C1062 C 0.14394 0.44531 0.30157 0.0
C1063 C 0.11879 0.43439 0.33547 0.0
C1064 C 0.11139 0.47404 0.35497 0.0
H1065 H 0.04341 0.45198 0.45397 0.0
H1066 H 0.06316 0.44447 0.42591 0.0
H1067 H 0.10471 0.49247 0.3756 0.0
H1068 H 0.15219 0.4728 0.28233 0.0
H1069 H 0.12942 0.47775 0.30751 0.0
H1070 H 0.08102 0.42479 0.35197 0.0
C1071 C 0.06042 0.45577 0.41973 0.0
C1072 C 0.0994 0.47766 0.37045 0.0
C1073 C 0.04927 0.46014 0.43582 0.0
C1074 C 0.14293 0.46198 0.29713 0.0
C1075 C 0.12997 0.46484 0.3117 0.0
C1076 C 0.08653 0.43961 0.35722 0.0
C1077 C 0.0684 0.46626 0.39623 0.0
C1078 C 0.08096 0.46229 0.37968 0.0
C1079 C 0.11797 0.45126 0.33139 0.0
C1080 C 0.10509 0.45499 0.34798 0.0
H1081 H 0.05084 0.49657 0.39866 0.0
H1082 H 0.07064 0.48915 0.37073 0.0
H1083 H 0.0604 0.43114 0.37979 0.0
H1084 H 0.13219 0.41849 0.32445 0.0
H1085 H 0.11 0.42373 0.35065 0.0
C1086 C 0.56037 0.05113 0.92913 0.0
C1087 C 0.5599 0.03611 0.94399 0.0
C1088 C 0.57642 0.06299 0.91254 0.0
C1089 C 0.61866 0.06579 0.87833 0.0
H1090 H 0.63926 0.12122 0.8766 0.0
C1091 C 0.69241 0.12322 0.82642 0.0
C1092 C 0.69277 0.13894 0.81343 0.0
C1093 C 0.6759 0.10977 0.84147 0.0
C1094 C 0.63355 0.10575 0.8766 0.0
H1095 H 0.57535 0.02137 0.95348 0.0
H1096 H 0.60373 0.04227 0.92451 0.0
H1097 H 0.61109 0.09952 0.90467 0.0
H1098 H 0.67576 0.1523 0.8048 0.0
H1099 H 0.64695 0.12882 0.83083 0.0
H1100 H 0.64125 0.07214 0.85024 0.0
C1101 C 0.59163 0.04477 0.92537 0.0
C1102 C 0.6174 0.09331 0.89271 0.0
C1103 C 0.57553 0.0329 0.94198 0.0
C1104 C 0.67606 0.14056 0.81503 0.0
C1105 C 0.65958 0.12713 0.82997 0.0
C1106 C 0.63486 0.07827 0.86217 0.0
C1107 C 0.59231 0.06005 0.91061 0.0
C1108 C 0.60968 0.07318 0.89366 0.0
C1109 C 0.65943 0.11178 0.84373 0.0
C1110 C 0.64239 0.09839 0.86101 0.0
H1111 H 0.54834 0.05372 0.93049 0.0
H1112 H 0.57636 0.07444 0.90116 0.0
H1113 H 0.61294 0.05032 0.87848 0.0
H1114 H 0.70515 0.1217 0.82565 0.0
H1115 H 0.67629 0.09819 0.85199 0.0
C1116 C 0.54567 0.57788 0.44863 0.0
C1117 C 0.5258 0.563 0.4522 0.0
C1118 C 0.55069 0.59461 0.43365 0.0
C1119 C 0.5306 0.61326 0.38384 0.0
H1120 H 0.57298 0.6637 0.4049 0.0
C1121 C 0.55692 0.68247 0.31991 0.0
C1122 C 0.56127 0.6994 0.33235 0.0
C1123 C 0.55377 0.66609 0.33419 0.0
C1124 C 0.56102 0.64975 0.39883 0.0
H1125 H 0.49555 0.55377 0.44363 0.0
H1126 H 0.50416 0.58317 0.41793 0.0
H1127 H 0.56471 0.63462 0.43084 0.0
H1128 H 0.56581 0.71253 0.36947 0.0
H1129 H 0.55995 0.68383 0.39452 0.0
H1130 H 0.52638 0.62839 0.35241 0.0
C1131 C 0.51596 0.58184 0.42605 0.0
C1132 C 0.55644 0.63303 0.41353 0.0
C1133 C 0.51099 0.56509 0.44087 0.0
C1134 C 0.56268 0.69973 0.35935 0.0
C1135 C 0.55937 0.6833 0.37368 0.0
C1136 C 0.5351 0.62996 0.36924 0.0
C1137 C 0.53588 0.5968 0.42217 0.0
C1138 C 0.54111 0.61458 0.40627 0.0
C1139 C 0.55472 0.66621 0.36129 0.0
C1140 C 0.55033 0.64843 0.37657 0.0
H1141 H 0.55727 0.5765 0.45738 0.0
H1142 H 0.56617 0.60572 0.43084 0.0
H1143 H 0.5189 0.59928 0.37745 0.0
H1144 H 0.55604 0.68191 0.29907 0.0
H1145 H 0.55062 0.65334 0.32397 0.0
C1146 C 0.46695 0.06089 0.54386 0.0
C1147 C 0.474 0.05041 0.55731 0.0
C1148 C 0.46164 0.07232 0.55707 0.0
C1149 C 0.44801 0.07969 0.62217 0.0
H1150 H 0.46366 0.1308 0.59337 0.0
C1151 C 0.44572 0.13764 0.68145 0.0
C1152 C 0.43947 0.14919 0.66911 0.0
C1153 C 0.44862 0.12485 0.66744 0.0
C1154 C 0.45894 0.11646 0.60152 0.0
H1155 H 0.48122 0.04396 0.59518 0.0
H1156 H 0.47202 0.06391 0.6182 0.0
H1157 H 0.47125 0.10993 0.56958 0.0
H1158 H 0.43122 0.15624 0.63238 0.0
H1159 H 0.43604 0.13369 0.60795 0.0
H1160 H 0.4359 0.08633 0.65424 0.0
C1161 C 0.47025 0.06302 0.59748 0.0
C1162 C 0.46329 0.10449 0.58788 0.0
C1163 C 0.47554 0.05159 0.58428 0.0
C1164 C 0.4359 0.14744 0.64248 0.0
C1165 C 0.43887 0.13468 0.62844 0.0
C1166 C 0.44368 0.09167 0.63582 0.0
C1167 C 0.46327 0.07356 0.58405 0.0
C1168 C 0.45801 0.08601 0.59812 0.0
C1169 C 0.44537 0.12332 0.64074 0.0
C1170 C 0.44922 0.11025 0.62574 0.0
H1171 H 0.46532 0.06008 0.52312 0.0
H1172 H 0.45605 0.08003 0.54618 0.0
H1173 H 0.44342 0.06541 0.63041 0.0
H1174 H 0.44838 0.13849 0.70199 0.0
H1175 H 0.45381 0.11645 0.67747 0.0
C1176 C 0.42011 0.45789 0.04781 0.0
C1177 C 0.43541 0.47731 0.04337 0.0
C1178 C 0.4028 0.45349 0.06099 0.0
C1179 C 0.37297 0.47435 0.07758 0.0
H1180 H 0.3516 0.43488 0.13306 0.0
C1181 C 0.31281 0.46578 0.14818 0.0
C1182 C 0.29804 0.44694 0.15688 0.0
C1183 C 0.32897 0.46878 0.1335 0.0
C1184 C 0.35717 0.44573 0.11736 0.0
H1185 H 0.44483 0.50737 0.0487 0.0
H1186 H 0.4145 0.49977 0.07162 0.0
H1187 H 0.38086 0.44131 0.10876 0.0
H1188 H 0.28872 0.41646 0.15686 0.0
H1189 H 0.31664 0.42163 0.13057 0.0
H1190 H 0.3493 0.47875 0.08594 0.0
C1191 C 0.4158 0.48793 0.06494 0.0
C1192 C 0.37397 0.44944 0.10349 0.0
C1193 C 0.43314 0.49229 0.05198 0.0
C1194 C 0.29973 0.43114 0.15029 0.0
C1195 C 0.31588 0.43414 0.13548 0.0
C1196 C 0.35611 0.47057 0.0913 0.0
C1197 C 0.40046 0.46848 0.06964 0.0
C1198 C 0.38215 0.46393 0.08364 0.0
C1199 C 0.33073 0.45301 0.12695 0.0
C1200 C 0.34812 0.45636 0.11156 0.0
H1201 H 0.42158 0.44616 0.04108 0.0
H1202 H 0.39115 0.43839 0.06412 0.0
H1203 H 0.37876 0.48539 0.06209 0.0
H1204 H 0.31186 0.47827 0.15256 0.0
H1205 H 0.34024 0.48354 0.12758 0.0
C1206 C 0.94005 0.43364 0.55775 0.0
C1207 C 0.95761 0.43632 0.54732 0.0
C1208 C 0.92716 0.41675 0.57234 0.0
C1209 C 0.91452 0.36614 0.58619 0.0
H1210 H 0.88804 0.37016 0.64631 0.0
C1211 C 0.86869 0.30224 0.66029 0.0
C1212 C 0.85031 0.29926 0.66807 0.0
C1213 C 0.88205 0.3188 0.64537 0.0
C1214 C 0.89523 0.3688 0.62946 0.0
H1215 H 0.97555 0.42366 0.54339 0.0
H1216 H 0.95329 0.39421 0.56955 0.0
H1217 H 0.91101 0.39941 0.62077 0.0
H1218 H 0.83141 0.31116 0.66561 0.0
H1219 H 0.85486 0.34016 0.64003 0.0
H1220 H 0.89883 0.33548 0.59523 0.0
C1221 C 0.94926 0.40496 0.56621 0.0
C1222 C 0.90834 0.38555 0.61477 0.0
C1223 C 0.96207 0.42183 0.55144 0.0
C1224 C 0.84559 0.31318 0.66045 0.0
C1225 C 0.85899 0.32978 0.64573 0.0
C1226 C 0.9015 0.3494 0.60103 0.0
C1227 C 0.93166 0.40224 0.5769 0.0
C1228 C 0.91805 0.38442 0.59283 0.0
C1229 C 0.87737 0.33279 0.63809 0.0
C1230 C 0.89161 0.35055 0.6227 0.0
H1231 H 0.93634 0.44466 0.55457 0.0
H1232 H 0.91357 0.41498 0.57984 0.0
H1233 H 0.92153 0.36469 0.56923 0.0
H1234 H 0.87292 0.29196 0.66609 0.0
H1235 H 0.89621 0.32085 0.63995 0.0
C1236 C 0.53564 0.94221 0.05572 0.0
C1237 C 0.5297 0.9539 0.06718 0.0
C1238 C 0.54151 0.93159 0.07092 0.0
C1239 C 0.53743 0.91183 0.13769 0.0
H1240 H 0.57895 0.90412 0.11374 0.0
C1241 C 0.56592 0.87118 0.19972 0.0
C1242 C 0.56668 0.85648 0.18708 0.0
C1243 C 0.56308 0.88455 0.18568 0.0
C1244 C 0.5673 0.90613 0.12062 0.0
H1245 H 0.52537 0.96358 0.10377 0.0
H1246 H 0.53633 0.9457 0.13015 0.0
H1247 H 0.57092 0.92488 0.08823 0.0
H1248 H 0.56583 0.84465 0.14987 0.0
H1249 H 0.56099 0.8681 0.12531 0.0
H1250 H 0.53394 0.89312 0.17015 0.0
C1251 C 0.53609 0.94443 0.10941 0.0
C1252 C 0.56262 0.91794 0.10597 0.0
C1253 C 0.53006 0.95492 0.09422 0.0
C1254 C 0.56514 0.85575 0.1601 0.0
C1255 C 0.56254 0.86925 0.14604 0.0
C1256 C 0.54225 0.90017 0.15244 0.0
C1257 C 0.54176 0.93252 0.09797 0.0
C1258 C 0.54746 0.92076 0.11417 0.0
C1259 C 0.56121 0.88362 0.15873 0.0
C1260 C 0.55707 0.89703 0.1439 0.0
H1261 H 0.53583 0.94127 0.03495 0.0
H1262 H 0.54553 0.92239 0.06142 0.0
H1263 H 0.52545 0.91338 0.14441 0.0
H1264 H 0.56695 0.87198 0.22052 0.0
H1265 H 0.56224 0.89557 0.1959 0.0
C1266 C 0.57277 0.52575 0.59791 0.0
C1267 C 0.57492 0.52861 0.57088 0.0
C1268 C 0.58922 0.53118 0.61326 0.0
C1269 C 0.63803 0.53763 0.61091 0.0
H1270 H 0.6482 0.56719 0.67248 0.0
C1271 C 0.70853 0.56212 0.66831 0.0
C1272 C 0.70702 0.56146 0.69532 0.0
C1273 C 0.69293 0.55975 0.6532 0.0
C1274 C 0.64546 0.5587 0.65554 0.0
H1275 H 0.59633 0.54017 0.53904 0.0
H1276 H 0.62483 0.54901 0.56582 0.0
H1277 H 0.61968 0.55967 0.6462 0.0
H1278 H 0.68828 0.55812 0.72784 0.0
H1279 H 0.66064 0.55328 0.70154 0.0
H1280 H 0.6632 0.53593 0.62043 0.0
C1281 C 0.61036 0.54249 0.57502 0.0
C1282 C 0.62916 0.55449 0.64046 0.0
C1283 C 0.59399 0.53731 0.55969 0.0
C1284 C 0.68981 0.55881 0.70701 0.0
C1285 C 0.67404 0.55612 0.69189 0.0
C1286 C 0.65412 0.54158 0.62612 0.0
C1287 C 0.60812 0.53936 0.60192 0.0
C1288 C 0.62537 0.54398 0.61796 0.0
C1289 C 0.6753 0.5563 0.66477 0.0
C1290 C 0.65813 0.55226 0.64859 0.0
H1291 H 0.55833 0.51884 0.60722 0.0
H1292 H 0.58707 0.52844 0.63395 0.0
H1293 H 0.63525 0.52922 0.59386 0.0
H1294 H 0.72179 0.56441 0.65886 0.0
H1295 H 0.6947 0.56052 0.63241 0.0
C1296 C 0.05485 0.57153 0.09394 0.0
C1297 C 0.05248 0.57423 0.06755 0.0
C1298 C 0.0667 0.58745 0.10907 0.0
C1299 C 0.08993 0.64098 0.11085 0.0
H1300 H 0.12304 0.63665 0.16218 0.0
C1301 C 0.15142 0.70708 0.16373 0.0
C1302 C 0.15305 0.70453 0.19039 0.0
C1303 C 0.13867 0.69125 0.14896 0.0
C1304 C 0.11372 0.63801 0.14811 0.0
H1305 H 0.06056 0.59594 0.03653 0.0
H1306 H 0.08169 0.62365 0.06271 0.0
H1307 H 0.1019 0.609 0.13587 0.0
H1308 H 0.1421 0.6833 0.22248 0.0
H1309 H 0.12007 0.65566 0.19661 0.0
H1310 H 0.10205 0.67014 0.12292 0.0
C1311 C 0.07415 0.60922 0.07182 0.0
C1312 C 0.10157 0.62216 0.13304 0.0
C1313 C 0.06222 0.59329 0.05671 0.0
C1314 C 0.1415 0.68575 0.20193 0.0
C1315 C 0.12884 0.66991 0.18712 0.0
C1316 C 0.10219 0.65688 0.12582 0.0
C1317 C 0.07657 0.6065 0.09819 0.0
C1318 C 0.08949 0.62342 0.11423 0.0
C1319 C 0.12733 0.67247 0.16046 0.0
C1320 C 0.1142 0.65556 0.14464 0.0
H1321 H 0.04779 0.55706 0.10291 0.0
H1322 H 0.06801 0.58481 0.12937 0.0
H1323 H 0.0806 0.64238 0.09684 0.0
H1324 H 0.16032 0.72125 0.15411 0.0
H1325 H 0.13802 0.69364 0.12839 0.0
loop_
_geom_bond_atom_site_label_1
_geom_bond_atom_site_label_2
_geom_bond_distance
_geom_bond_site_symmetry_2
_ccdc_geom_bond_type
C0 C1 1.443 1_556 S
C0 N4 1.376 1_556 S
C0 C38 1.389 . S
C1 C0 1.443 1_554 S
C1 C2 1.340 . S
C1 H41 0.951 1_554 S
C2 C1 1.340 . S
C2 C3 1.439 . S
C2 H42 0.950 . S
C3 C2 1.439 . S
C3 N4 1.374 . S
C3 C37 1.395 . S
N4 C0 1.376 1_554 S
N4 C3 1.374 . S
N4 Co5 1.986 1_655 S
Co5 N4 1.986 1_455 S
Co5 N6 2.009 1_455 S
Co5 N11 2.030 1_554 S
Co5 N16 1.981 1_554 S
Co5 N21 2.291 . S
Co5 N27 2.274 1_454 S
N6 Co5 2.009 1_655 S
N6 C7 1.376 . S
N6 C10 1.383 1_655 S
C7 N6 1.376 . S
C7 C8 1.446 . S
C7 C37 1.391 . S
C8 C7 1.446 . S
C8 C9 1.339 1_655 S
C8 H43 0.949 . S
C9 C8 1.339 1_455 S
C9 C10 1.439 . S
C9 H44 0.950 . S
C10 N6 1.383 1_455 S
C10 C9 1.439 . S
C10 C39 1.392 . S
N11 Co5 2.030 1_556 S
N11 C12 1.376 1_556 S
N11 C15 1.374 . S
C12 N11 1.376 1_554 S
C12 C13 1.428 1_554 S
C12 C39 1.389 . S
C13 C12 1.428 1_556 S
C13 C14 1.380 . S
C13 H45 0.933 1_556 S
C14 C13 1.380 . S
C14 C15 1.439 . S
C14 H46 0.950 . S
C15 N11 1.374 . S
C15 C14 1.439 . S
C15 C40 1.395 . S
N16 Co5 1.981 1_556 S
N16 C17 1.376 . S
N16 C20 1.383 1_455 S
C17 N16 1.376 . S
C17 C18 1.446 . S
C17 C40 1.391 . S
C18 C17 1.446 . S
C18 C19 1.339 1_455 S
C18 H47 0.949 . S
C19 C18 1.339 1_655 S
C19 C20 1.439 . S
C19 H48 0.950 . S
C20 N16 1.383 1_655 S
C20 C19 1.439 . S
C20 C38 1.392 . S
N21 Co5 2.291 . S
N21 C24 1.332 . S
N21 C26 1.332 . S
C22 C23 1.386 . S
C22 C25 1.388 . S
C23 C22 1.386 . S
C23 C24 1.382 . S
C23 H49 0.950 . S
C24 N21 1.332 . S
C24 C23 1.382 . S
C24 H35 0.952 1_554 S
C25 C22 1.388 . S
C25 C26 1.382 . S
C25 H50 0.950 . S
C26 N21 1.332 . S
C26 C25 1.382 . S
C26 H36 0.948 . S
N27 Co5 2.274 1_656 S
N27 C31 1.332 . S
N27 C32 1.332 . S
C28 C29 1.388 . S
C28 C32 1.382 . S
C28 H51 0.950 . S
C29 C28 1.388 . S
C29 C30 1.386 . S
C30 C29 1.386 . S
C30 C31 1.382 . S
C30 H52 0.950 . S
C31 N27 1.332 . S
C31 C30 1.382 . S
C31 H33 0.952 1_556 S
C32 N27 1.332 . S
C32 C28 1.382 . S
C32 H34 0.948 . S
H33 C31 0.952 1_554 S
H34 C32 0.948 . S
H35 C24 0.952 1_556 S
H36 C26 0.948 . S
C37 C3 1.395 . S
C37 C7 1.391 . S
C38 C0 1.389 . S
C38 C20 1.392 . S
C39 C10 1.392 . S
C39 C12 1.389 . S
C40 C15 1.395 . S
C40 C17 1.391 . S
H41 C1 0.951 1_556 S
H42 C2 0.950 . S
H43 C8 0.949 . S
H44 C9 0.950 . S
H45 C13 0.933 1_554 S
H46 C14 0.950 . S
H47 C18 0.949 . S
H48 C19 0.950 . S
H49 C23 0.950 . S
H50 C25 0.950 . S
H51 C28 0.950 . S
H52 C30 0.950 . S
C53 C54 1.443 . S
C53 N57 1.354 1_545 S
C53 C91 1.389 . S
C54 C53 1.443 . S
C54 C55 1.340 1_545 S
C54 H94 0.951 . S
C55 C54 1.340 1_565 S
C55 C56 1.439 . S
C55 H95 0.950 . S
C56 C55 1.439 . S
C56 N57 1.406 . S
C56 C90 1.395 . S
N57 C53 1.354 1_565 S
N57 C56 1.406 . S
N57 Co58 1.990 1_565 S
Co58 N57 1.990 1_545 S
Co58 N59 1.982 1_545 S
Co58 N64 2.014 . S
Co58 N69 2.007 . S
Co58 N74 2.259 1_545 S
Co58 N80 2.306 . S
N59 Co58 1.982 1_565 S
N59 C60 1.376 . S
N59 C63 1.383 . S
C60 N59 1.376 . S
C60 C61 1.446 . S
C60 C90 1.391 . S
C61 C60 1.446 . S
C61 C62 1.339 . S
C61 H96 0.949 . S
C62 C61 1.339 . S
C62 C63 1.439 . S
C62 H97 0.950 . S
C63 N59 1.383 . S
C63 C62 1.439 . S
C63 C92 1.392 . S
N64 Co58 2.014 . S
N64 C65 1.376 1_545 S
N64 C68 1.374 . S
C65 N64 1.376 1_565 S
C65 C66 1.443 . S
C65 C92 1.389 . S
C66 C65 1.443 . S
C66 C67 1.340 1_565 S
C66 H98 0.951 . S
C67 C66 1.340 1_545 S
C67 C68 1.439 . S
C67 H99 0.950 . S
C68 N64 1.374 . S
C68 C67 1.439 . S
C68 C93 1.395 . S
N69 Co58 2.007 . S
N69 C70 1.376 . S
N69 C73 1.383 . S
C70 N69 1.376 . S
C70 C71 1.446 . S
C70 C93 1.391 . S
C71 C70 1.446 . S
C71 C72 1.339 . S
C71 H100 0.949 . S
C72 C71 1.339 . S
C72 C73 1.439 . S
C72 H101 0.950 . S
C73 N69 1.383 . S
C73 C72 1.439 . S
C73 C91 1.392 . S
N74 Co58 2.259 1_565 S
N74 C77 1.332 . S
N74 C79 1.332 . S
C75 C76 1.386 . S
C75 C78 1.388 . S
C76 C75 1.386 . S
C76 C77 1.382 . S
C76 H102 0.950 . S
C77 N74 1.332 . S
C77 C76 1.382 . S
C77 H88 0.952 1_565 S
C78 C75 1.388 . S
C78 C79 1.382 . S
C78 H103 0.950 . S
C79 N74 1.332 . S
C79 C78 1.382 . S
C79 H89 0.948 . S
N80 Co58 2.306 . S
N80 C84 1.332 . S
N80 C85 1.332 . S
C81 C82 1.388 . S
C81 C85 1.382 . S
C81 H104 0.950 . S
C82 C81 1.388 . S
C82 C83 1.386 . S
C83 C82 1.386 . S
C83 C84 1.382 . S
C83 H105 0.950 . S
C84 N80 1.332 . S
C84 C83 1.382 . S
C84 H86 0.898 1_545 S
C85 N80 1.332 . S
C85 C81 1.382 . S
C85 H87 0.948 . S
H86 C84 0.898 1_565 S
H87 C85 0.948 . S
H88 C77 0.952 1_545 S
H89 C79 0.948 . S
C90 C56 1.395 . S
C90 C60 1.391 . S
C91 C53 1.389 . S
C91 C73 1.392 . S
C92 C63 1.392 . S
C92 C65 1.389 . S
C93 C68 1.395 . S
C93 C70 1.391 . S
H94 C54 0.951 . S
H95 C55 0.950 . S
H96 C61 0.949 . S
H97 C62 0.950 . S
H98 C66 0.951 . S
H99 C67 0.950 . S
H100 C71 0.949 . S
H101 C72 0.950 . S
H102 C76 0.950 . S
H103 C78 0.950 . S
H104 C81 0.950 . S
H105 C83 0.950 . S
C106 C107 1.443 . S
C106 N110 1.376 . S
C106 C144 1.389 . S
C107 C106 1.443 . S
C107 C108 1.340 . S
C107 H147 0.951 . S
C108 C107 1.340 . S
C108 C109 1.439 . S
C108 H148 0.950 . S
C109 C108 1.439 . S
C109 N110 1.374 . S
C109 C143 1.395 . S
N110 C106 1.376 . S
N110 C109 1.374 . S
N110 Co111 1.999 1_556 S
Co111 N110 1.999 1_554 S
Co111 N112 1.992 1_554 S
Co111 N117 2.018 . S
Co111 N122 1.997 . S
Co111 N127 2.288 . S
Co111 N133 2.277 1_554 S
N112 Co111 1.992 1_556 S
N112 C113 1.376 . S
N112 C116 1.383 1_556 S
C113 N112 1.376 . S
C113 C114 1.446 . S
C113 C143 1.391 . S
C114 C113 1.446 . S
C114 C115 1.339 . S
C114 H149 0.949 . S
C115 C114 1.339 . S
C115 C116 1.439 1_556 S
C115 H150 0.950 1_556 S
C116 N112 1.383 1_554 S
C116 C115 1.439 1_554 S
C116 C145 1.392 . S
N117 Co111 2.018 . S
N117 C118 1.376 . S
N117 C121 1.374 . S
C118 N117 1.376 . S
C118 C119 1.443 . S
C118 C145 1.389 . S
C119 C118 1.443 . S
C119 C120 1.340 . S
C119 H151 0.951 . S
C120 C119 1.340 . S
C120 C121 1.439 . S
C120 H152 0.950 . S
C121 N117 1.374 . S
C121 C120 1.439 . S
C121 C146 1.395 . S
N122 Co111 1.997 . S
N122 C123 1.376 . S
N122 C126 1.383 1_554 S
C123 N122 1.376 . S
C123 C124 1.446 . S
C123 C146 1.391 . S
C124 C123 1.446 . S
C124 C125 1.339 . S
C124 H153 0.949 . S
C125 C124 1.339 . S
C125 C126 1.439 1_554 S
C125 H154 0.950 1_554 S
C126 N122 1.383 1_556 S
C126 C125 1.439 1_556 S
C126 C144 1.392 . S
N127 Co111 2.288 . S
N127 C130 1.332 . S
N127 C132 1.332 . S
C128 C129 1.386 . S
C128 C131 1.388 . S
C129 C128 1.386 . S
C129 C130 1.382 . S
C129 H155 0.950 . S
C130 N127 1.332 . S
C130 C129 1.382 . S
C130 H141 0.952 . S
C131 C128 1.388 . S
C131 C132 1.382 . S
C131 H156 0.950 . S
C132 N127 1.332 . S
C132 C131 1.382 . S
C132 H142 0.909 1_554 S
N133 Co111 2.277 1_556 S
N133 C137 1.332 . S
N133 C138 1.332 . S
C134 C135 1.388 . S
C134 C138 1.382 . S
C134 H157 0.950 . S
C135 C134 1.388 . S
C135 C136 1.386 . S
C136 C135 1.386 . S
C136 C137 1.382 . S
C136 H158 0.950 . S
C137 N133 1.332 . S
C137 C136 1.382 . S
C137 H139 0.952 . S
C138 N133 1.332 . S
C138 C134 1.382 . S
C138 H140 0.948 1_556 S
H139 C137 0.952 . S
H140 C138 0.948 1_554 S
H141 C130 0.952 . S
H142 C132 0.909 1_556 S
C143 C109 1.395 . S
C143 C113 1.391 . S
C144 C106 1.389 . S
C144 C126 1.392 . S
C145 C116 1.392 . S
C145 C118 1.389 . S
C146 C121 1.395 . S
C146 C123 1.391 . S
H147 C107 0.951 . S
H148 C108 0.950 . S
H149 C114 0.949 . S
H150 C115 0.950 1_554 S
H151 C119 0.951 . S
H152 C120 0.950 . S
H153 C124 0.949 . S
H154 C125 0.950 1_556 S
H155 C129 0.950 . S
H156 C131 0.950 . S
H157 C134 0.950 . S
H158 C136 0.950 . S
C159 C160 1.443 . S
C159 N163 1.376 . S
C159 C197 1.389 . S
C160 C159 1.443 . S
C160 C161 1.340 . S
C160 H200 0.951 . S
C161 C160 1.340 . S
C161 C162 1.439 . S
C161 H201 0.950 . S
C162 C161 1.439 . S
C162 N163 1.374 . S
C162 C196 1.395 . S
N163 C159 1.376 . S
N163 C162 1.374 . S
N163 Co164 1.993 1_655 S
Co164 N163 1.993 1_455 S
Co164 N165 1.986 1_455 S
Co164 N170 2.023 . S
Co164 N175 2.004 . S
Co164 N180 2.302 . S
Co164 N186 2.263 1_455 S
N165 Co164 1.986 1_655 S
N165 C166 1.376 . S
N165 C169 1.383 1_655 S
C166 N165 1.376 . S
C166 C167 1.446 . S
C166 C196 1.391 . S
C167 C166 1.446 . S
C167 C168 1.339 1_655 S
C167 H202 0.949 . S
C168 C167 1.339 1_455 S
C168 C169 1.439 . S
C168 H203 0.950 . S
C169 N165 1.383 1_455 S
C169 C168 1.439 . S
C169 C198 1.392 . S
N170 Co164 2.023 . S
N170 C171 1.376 . S
N170 C174 1.374 . S
C171 N170 1.376 . S
C171 C172 1.443 . S
C171 C198 1.389 . S
C172 C171 1.443 . S
C172 C173 1.340 . S
C172 H204 0.951 . S
C173 C172 1.340 . S
C173 C174 1.439 . S
C173 H205 0.950 . S
C174 N170 1.374 . S
C174 C173 1.439 . S
C174 C199 1.395 . S
N175 Co164 2.004 . S
N175 C176 1.376 . S
N175 C179 1.383 1_455 S
C176 N175 1.376 . S
C176 C177 1.446 . S
C176 C199 1.391 . S
C177 C176 1.446 . S
C177 C178 1.339 1_455 S
C177 H206 0.949 . S
C178 C177 1.339 1_655 S
C178 C179 1.439 . S
C178 H207 0.950 . S
C179 N175 1.383 1_655 S
C179 C178 1.439 . S
C179 C197 1.392 . S
N180 Co164 2.302 . S
N180 C183 1.332 . S
N180 C185 1.332 . S
C181 C182 1.386 . S
C181 C184 1.388 . S
C182 C181 1.386 . S
C182 C183 1.382 . S
C182 H208 0.950 . S
C183 N180 1.332 . S
C183 C182 1.382 . S
C183 H194 0.952 . S
C184 C181 1.388 . S
C184 C185 1.382 . S
C184 H209 0.950 . S
C185 N180 1.332 . S
C185 C184 1.382 . S
C185 H195 0.948 . S
N186 Co164 2.263 1_655 S
N186 C190 1.332 . S
N186 C191 1.332 . S
C187 C188 1.388 . S
C187 C191 1.382 . S
C187 H210 0.950 . S
C188 C187 1.388 . S
C188 C189 1.386 . S
C189 C188 1.386 . S
C189 C190 1.382 . S
C189 H211 0.950 . S
C190 N186 1.332 . S
C190 C189 1.382 . S
C190 H192 0.952 . S
C191 N186 1.332 . S
C191 C187 1.382 . S
C191 H193 0.948 . S
H192 C190 0.952 . S
H193 C191 0.948 . S
H194 C183 0.952 . S
H195 C185 0.948 . S
C196 C162 1.395 . S
C196 C166 1.391 . S
C197 C159 1.389 . S
C197 C179 1.392 . S
C198 C169 1.392 . S
C198 C171 1.389 . S
C199 C174 1.395 . S
C199 C176 1.391 . S
H200 C160 0.951 . S
H201 C161 0.950 . S
H202 C167 0.949 . S
H203 C168 0.950 . S
H204 C172 0.951 . S
H205 C173 0.950 . S
H206 C177 0.949 . S
H207 C178 0.950 . S
H208 C182 0.950 . S
H209 C184 0.950 . S
H210 C187 0.950 . S
H211 C189 0.950 . S
C212 C213 1.443 . S
C212 N216 1.376 1_565 S
C212 C250 1.389 . S
C213 C212 1.443 . S
C213 C214 1.340 1_565 S
C213 H253 0.951 . S
C214 C213 1.340 1_545 S
C214 C215 1.439 . S
C214 H254 0.950 . S
C215 C214 1.439 . S
C215 N216 1.374 . S
C215 C249 1.395 . S
N216 C212 1.376 1_545 S
N216 C215 1.374 . S
N216 Co217 2.024 . S
Co217 N216 2.024 . S
Co217 N218 2.009 . S
Co217 N223 1.982 1_544 S
Co217 N228 1.981 1_544 S
Co217 N233 2.300 1_554 S
Co217 N239 2.266 1_545 S
N218 Co217 2.009 . S
N218 C219 1.376 . S
N218 C222 1.383 1_554 S
C219 N218 1.376 . S
C219 C220 1.446 . S
C219 C249 1.391 . S
C220 C219 1.446 . S
C220 C221 1.300 1_554 S
C220 H255 0.949 . S
C221 C220 1.300 1_556 S
C221 C222 1.456 . S
C221 H256 0.968 . S
C222 N218 1.383 1_556 S
C222 C221 1.456 . S
C222 C251 1.392 . S
N223 Co217 1.982 1_566 S
N223 C224 1.363 1_565 S
N223 C227 1.396 . S
C224 N223 1.363 1_545 S
C224 C225 1.443 . S
C224 C251 1.389 . S
C225 C224 1.443 . S
C225 C226 1.340 1_545 S
C225 H257 0.951 . S
C226 C225 1.340 1_565 S
C226 C227 1.439 . S
C226 H258 0.950 . S
C227 N223 1.396 . S
C227 C226 1.439 . S
C227 C252 1.395 . S
N228 Co217 1.981 1_566 S
N228 C229 1.376 . S
N228 C232 1.383 1_556 S
C229 N228 1.376 . S
C229 C230 1.446 . S
C229 C252 1.391 . S
C230 C229 1.446 . S
C230 C231 1.339 1_556 S
C230 H259 0.949 . S
C231 C230 1.339 1_554 S
C231 C232 1.439 . S
C231 H260 0.950 . S
C232 N228 1.383 1_554 S
C232 C231 1.439 . S
C232 C250 1.392 . S
N233 Co217 2.300 1_556 S
N233 C236 1.332 . S
N233 C238 1.332 . S
C234 C235 1.386 . S
C234 C237 1.388 . S
C235 C234 1.386 . S
C235 C236 1.382 . S
C235 H261 0.950 . S
C236 N233 1.332 . S
C236 C235 1.382 . S
C236 H247 0.924 1_545 S
C237 C234 1.388 . S
C237 C238 1.382 . S
C237 H262 0.950 . S
C238 N233 1.332 . S
C238 C237 1.382 . S
C238 H248 0.965 . S
N239 Co217 2.266 1_565 S
N239 C243 1.332 . S
N239 C244 1.332 . S
C240 C241 1.388 . S
C240 C244 1.382 . S
C240 H263 0.950 . S
C241 C240 1.388 . S
C241 C242 1.386 . S
C242 C241 1.386 . S
C242 C243 1.382 . S
C242 H264 0.950 . S
C243 N239 1.332 . S
C243 C242 1.382 . S
C243 H245 0.952 1_565 S
C244 N239 1.332 . S
C244 C240 1.382 . S
C244 H246 0.948 . S
H245 C243 0.952 1_545 S
H246 C244 0.948 . S
H247 C236 0.924 1_565 S
H248 C238 0.965 . S
C249 C215 1.395 . S
C249 C219 1.391 . S
C250 C212 1.389 . S
C250 C232 1.392 . S
C251 C222 1.392 . S
C251 C224 1.389 . S
C252 C227 1.395 . S
C252 C229 1.391 . S
H253 C213 0.951 . S
H254 C214 0.950 . S
H255 C220 0.949 . S
H256 C221 0.968 . S
H257 C225 0.951 . S
H258 C226 0.950 . S
H259 C230 0.949 . S
H260 C231 0.950 . S
H261 C235 0.950 . S
H262 C237 0.950 . S
H263 C240 0.950 . S
H264 C242 0.950 . S
C265 C266 1.443 . S
C265 N269 1.376 . S
C265 C303 1.389 . S
C266 C265 1.443 . S
C266 C267 1.340 . S
C266 H306 0.951 . S
C267 C266 1.340 . S
C267 C268 1.439 . S
C267 H307 0.950 . S
C268 C267 1.439 . S
C268 N269 1.374 . S
C268 C302 1.395 . S
N269 C265 1.376 . S
N269 C268 1.374 . S
N269 Co270 2.008 . S
Co270 N269 2.008 . S
Co270 N271 1.995 . S
Co270 N276 2.008 . S
Co270 N281 1.995 . S
Co270 N286 2.282 . S
Co270 N292 2.282 . S
N271 Co270 1.995 . S
N271 C272 1.376 . S
N271 C275 1.383 . S
C272 N271 1.376 . S
C272 C273 1.446 . S
C272 C302 1.391 . S
C273 C272 1.446 . S
C273 C274 1.339 . S
C273 H308 0.949 . S
C274 C273 1.339 . S
C274 C275 1.439 . S
C274 H309 0.950 . S
C275 N271 1.383 . S
C275 C274 1.439 . S
C275 C304 1.392 . S
N276 Co270 2.008 . S
N276 C277 1.376 . S
N276 C280 1.374 . S
C277 N276 1.376 . S
C277 C278 1.443 . S
C277 C304 1.389 . S
C278 C277 1.443 . S
C278 C279 1.340 . S
C278 H310 0.951 . S
C279 C278 1.340 . S
C279 C280 1.439 . S
C279 H311 0.950 . S
C280 N276 1.374 . S
C280 C279 1.439 . S
C280 C305 1.395 . S
N281 Co270 1.995 . S
N281 C282 1.376 . S
N281 C285 1.383 . S
C282 N281 1.376 . S
C282 C283 1.446 . S
C282 C305 1.391 . S
C283 C282 1.446 . S
C283 C284 1.339 . S
C283 H312 0.949 . S
C284 C283 1.339 . S
C284 C285 1.439 . S
C284 H313 0.950 . S
C285 N281 1.383 . S
C285 C284 1.439 . S
C285 C303 1.392 . S
N286 Co270 2.282 . S
N286 C289 1.332 . S
N286 C291 1.332 . S
C287 C288 1.386 . S
C287 C290 1.388 . S
C288 C287 1.386 . S
C288 C289 1.382 . S
C288 H314 0.950 . S
C289 N286 1.332 . S
C289 C288 1.382 . S
C289 H300 0.952 . S
C290 C287 1.388 . S
C290 C291 1.382 . S
C290 H315 0.950 . S
C291 N286 1.332 . S
C291 C290 1.382 . S
C291 H301 0.948 . S
N292 Co270 2.282 . S
N292 C296 1.332 . S
N292 C297 1.332 . S
C293 C294 1.388 . S
C293 C297 1.382 . S
C293 H316 0.950 . S
C294 C293 1.388 . S
C294 C295 1.386 . S
C295 C294 1.386 . S
C295 C296 1.382 . S
C295 H317 0.950 . S
C296 N292 1.332 . S
C296 C295 1.382 . S
C296 H298 0.952 . S
C297 N292 1.332 . S
C297 C293 1.382 . S
C297 H299 0.948 . S
H298 C296 0.952 . S
H299 C297 0.948 . S
H300 C289 0.952 . S
H301 C291 0.948 . S
C302 C268 1.395 . S
C302 C272 1.391 . S
C303 C265 1.389 . S
C303 C285 1.392 . S
C304 C275 1.392 . S
C304 C277 1.389 . S
C305 C280 1.395 . S
C305 C282 1.391 . S
H306 C266 0.951 . S
H307 C267 0.950 . S
H308 C273 0.949 . S
H309 C274 0.950 . S
H310 C278 0.951 . S
H311 C279 0.950 . S
H312 C283 0.949 . S
H313 C284 0.950 . S
H314 C288 0.950 . S
H315 C290 0.950 . S
H316 C293 0.950 . S
H317 C295 0.950 . S
H318 C337 0.949 . S
H319 C338 0.950 . S
H320 C340 0.950 . S
H321 C341 0.950 . S
H322 C343 0.950 . S
H323 C346 0.950 . S
H324 C347 0.950 . S
H325 C349 0.951 . S
H326 C350 0.949 . S
H327 C352 0.949 . S
H328 C353 0.950 . S
H329 C355 0.950 . S
H330 C356 0.950 . S
H331 C358 0.950 . S
H332 C361 0.950 . S
H333 C362 0.950 . S
H334 C364 0.951 . S
H335 C365 0.949 . S
C336 C337 1.376 . S
C336 C341 1.386 . S
C336 C342 1.483 . S
C337 H318 0.949 . S
C337 C336 1.376 . S
C337 C338 1.397 . S
C338 H319 0.950 . S
C338 C337 1.397 . S
C338 C339 1.391 . S
C339 C338 1.391 . S
C339 C340 1.405 . S
C340 H320 0.950 . S
C340 C339 1.405 . S
C340 C341 1.367 . S
C341 H321 0.950 . S
C341 C336 1.386 . S
C341 C340 1.367 . S
C342 C336 1.483 . S
C342 C343 1.382 . S
C342 C344 1.403 . S
C343 H322 0.950 . S
C343 C342 1.382 . S
C343 C359 1.411 . S
C344 C342 1.403 . S
C344 C345 1.489 . S
C344 C358 1.411 . S
C345 C344 1.489 . S
C345 C346 1.383 . S
C345 C350 1.382 . S
C346 H323 0.950 . S
C346 C345 1.383 . S
C346 C347 1.395 . S
C347 H324 0.950 . S
C347 C346 1.395 . S
C347 C348 1.288 . S
C348 C347 1.288 . S
C348 C349 1.392 . S
C349 H325 0.951 . S
C349 C348 1.392 . S
C349 C350 1.392 . S
C350 H326 0.949 . S
C350 C345 1.382 . S
C350 C349 1.392 . S
C351 C352 1.376 . S
C351 C356 1.386 . S
C351 C357 1.483 . S
C352 H327 0.949 . S
C352 C351 1.376 . S
C352 C353 1.397 . S
C353 H328 0.950 . S
C353 C352 1.397 . S
C353 C354 1.391 . S
C354 C353 1.391 . S
C354 C355 1.405 . S
C355 H329 0.950 . S
C355 C354 1.405 . S
C355 C356 1.367 . S
C356 H330 0.950 . S
C356 C351 1.386 . S
C356 C355 1.367 . S
C357 C351 1.483 . S
C357 C358 1.382 . S
C357 C359 1.403 . S
C358 H331 0.950 . S
C358 C344 1.411 . S
C358 C357 1.382 . S
C359 C343 1.411 . S
C359 C357 1.403 . S
C359 C360 1.489 . S
C360 C359 1.489 . S
C360 C361 1.383 . S
C360 C365 1.382 . S
C361 H332 0.950 . S
C361 C360 1.383 . S
C361 C362 1.395 . S
C362 H333 0.950 . S
C362 C361 1.395 . S
C362 C363 1.288 . S
C363 C362 1.288 . S
C363 C364 1.392 . S
C364 H334 0.951 . S
C364 C363 1.392 . S
C364 C365 1.392 . S
C365 H335 0.949 . S
C365 C360 1.382 . S
C365 C364 1.392 . S
H366 C385 0.949 . S
H367 C386 0.950 . S
H368 C388 0.950 . S
H369 C389 0.950 . S
H370 C391 0.950 . S
H371 C394 0.950 . S
H372 C395 0.950 . S
H373 C397 0.951 . S
H374 C398 0.949 . S
H375 C400 0.949 . S
H376 C401 0.950 . S
H377 C403 0.950 . S
H378 C404 0.950 . S
H379 C406 0.950 . S
H380 C409 0.950 . S
H381 C410 0.950 . S
H382 C412 0.951 . S
H383 C413 0.949 . S
C384 C385 1.376 . S
C384 C389 1.386 . S
C384 C390 1.483 . S
C385 H366 0.949 . S
C385 C384 1.376 . S
C385 C386 1.397 . S
C386 H367 0.950 . S
C386 C385 1.397 . S
C386 C387 1.391 . S
C387 C386 1.391 . S
C387 C388 1.405 . S
C388 H368 0.950 . S
C388 C387 1.405 . S
C388 C389 1.367 . S
C389 H369 0.950 . S
C389 C384 1.386 . S
C389 C388 1.367 . S
C390 C384 1.483 . S
C390 C391 1.382 . S
C390 C392 1.403 . S
C391 H370 0.950 . S
C391 C390 1.382 . S
C391 C407 1.411 . S
C392 C390 1.403 . S
C392 C393 1.489 . S
C392 C406 1.411 . S
C393 C392 1.489 . S
C393 C394 1.383 . S
C393 C398 1.382 . S
C394 H371 0.950 . S
C394 C393 1.383 . S
C394 C395 1.395 . S
C395 H372 0.950 . S
C395 C394 1.395 . S
C395 C396 1.288 . S
C396 C395 1.288 . S
C396 C397 1.392 . S
C397 H373 0.951 . S
C397 C396 1.392 . S
C397 C398 1.392 . S
C398 H374 0.949 . S
C398 C393 1.382 . S
C398 C397 1.392 . S
C399 C400 1.376 . S
C399 C404 1.386 . S
C399 C405 1.483 . S
C400 H375 0.949 . S
C400 C399 1.376 . S
C400 C401 1.397 . S
C401 H376 0.950 . S
C401 C400 1.397 . S
C401 C402 1.391 . S
C402 C401 1.391 . S
C402 C403 1.405 . S
C403 H377 0.950 . S
C403 C402 1.405 . S
C403 C404 1.367 . S
C404 H378 0.950 . S
C404 C399 1.386 . S
C404 C403 1.367 . S
C405 C399 1.483 . S
C405 C406 1.382 . S
C405 C407 1.403 . S
C406 H379 0.950 . S
C406 C392 1.411 . S
C406 C405 1.382 . S
C407 C391 1.411 . S
C407 C405 1.403 . S
C407 C408 1.489 . S
C408 C407 1.489 . S
C408 C409 1.383 . S
C408 C413 1.382 . S
C409 H380 0.950 . S
C409 C408 1.383 . S
C409 C410 1.395 . S
C410 H381 0.950 . S
C410 C409 1.395 . S
C410 C411 1.288 . S
C411 C410 1.288 . S
C411 C412 1.392 . S
C412 H382 0.951 . S
C412 C411 1.392 . S
C412 C413 1.392 . S
C413 H383 0.949 . S
C413 C408 1.382 . S
C413 C412 1.392 . S
H414 C433 0.949 . S
H415 C434 0.950 . S
H416 C436 0.950 . S
H417 C437 0.950 . S
H418 C439 0.950 . S
H419 C442 0.950 . S
H420 C443 0.950 . S
H421 C445 0.951 . S
H422 C446 0.949 . S
H423 C448 0.949 . S
H424 C449 0.950 . S
H425 C451 0.950 . S
H426 C452 0.950 . S
H427 C454 0.950 . S
H428 C457 0.950 . S
H429 C458 0.950 . S
H430 C460 0.951 . S
H431 C461 0.949 . S
C432 C433 1.376 . S
C432 C437 1.386 . S
C432 C438 1.483 . S
C433 H414 0.949 . S
C433 C432 1.376 . S
C433 C434 1.397 . S
C434 H415 0.950 . S
C434 C433 1.397 . S
C434 C435 1.391 . S
C435 C434 1.391 . S
C435 C436 1.405 . S
C436 H416 0.950 . S
C436 C435 1.405 . S
C436 C437 1.367 . S
C437 H417 0.950 . S
C437 C432 1.386 . S
C437 C436 1.367 . S
C438 C432 1.483 . S
C438 C439 1.382 . S
C438 C440 1.403 . S
C439 H418 0.950 . S
C439 C438 1.382 . S
C439 C455 1.411 . S
C440 C438 1.403 . S
C440 C441 1.489 . S
C440 C454 1.411 . S
C441 C440 1.489 . S
C441 C442 1.383 . S
C441 C446 1.382 . S
C442 H419 0.950 . S
C442 C441 1.383 . S
C442 C443 1.395 . S
C443 H420 0.950 . S
C443 C442 1.395 . S
C443 C444 1.288 . S
C444 C443 1.288 . S
C444 C445 1.392 . S
C445 H421 0.951 . S
C445 C444 1.392 . S
C445 C446 1.392 . S
C446 H422 0.949 . S
C446 C441 1.382 . S
C446 C445 1.392 . S
C447 C448 1.376 . S
C447 C452 1.386 . S
C447 C453 1.483 . S
C448 H423 0.949 . S
C448 C447 1.376 . S
C448 C449 1.397 . S
C449 H424 0.950 . S
C449 C448 1.397 . S
C449 C450 1.391 . S
C450 C449 1.391 . S
C450 C451 1.405 . S
C451 H425 0.950 . S
C451 C450 1.405 . S
C451 C452 1.367 . S
C452 H426 0.950 . S
C452 C447 1.386 . S
C452 C451 1.367 . S
C453 C447 1.483 . S
C453 C454 1.382 . S
C453 C455 1.403 . S
C454 H427 0.950 . S
C454 C440 1.411 . S
C454 C453 1.382 . S
C455 C439 1.411 . S
C455 C453 1.403 . S
C455 C456 1.489 . S
C456 C455 1.489 . S
C456 C457 1.383 . S
C456 C461 1.382 . S
C457 H428 0.950 . S
C457 C456 1.383 . S
C457 C458 1.395 . S
C458 H429 0.950 . S
C458 C457 1.395 . S
C458 C459 1.288 . S
C459 C458 1.288 . S
C459 C460 1.392 . S
C460 H430 0.951 . S
C460 C459 1.392 . S
C460 C461 1.392 . S
C461 H431 0.949 . S
C461 C456 1.382 . S
C461 C460 1.392 . S
H462 C481 0.949 . S
H463 C482 0.950 . S
H464 C484 0.950 . S
H465 C485 0.950 . S
H466 C487 0.950 . S
H467 C490 0.950 . S
H468 C491 0.950 . S
H469 C493 0.951 . S
H470 C494 0.949 . S
H471 C496 0.949 . S
H472 C497 0.950 . S
H473 C499 0.950 . S
H474 C500 0.950 . S
H475 C502 0.950 . S
H476 C505 0.950 . S
H477 C506 0.950 . S
H478 C508 0.951 . S
H479 C509 0.949 . S
C480 C481 1.376 . S
C480 C485 1.386 . S
C480 C486 1.483 . S
C481 H462 0.949 . S
C481 C480 1.376 . S
C481 C482 1.397 . S
C482 H463 0.950 . S
C482 C481 1.397 . S
C482 C483 1.391 . S
C483 C482 1.391 . S
C483 C484 1.405 . S
C484 H464 0.950 . S
C484 C483 1.405 . S
C484 C485 1.367 . S
C485 H465 0.950 . S
C485 C480 1.386 . S
C485 C484 1.367 . S
C486 C480 1.483 . S
C486 C487 1.382 . S
C486 C488 1.403 . S
C487 H466 0.950 . S
C487 C486 1.382 . S
C487 C503 1.411 . S
C488 C486 1.403 . S
C488 C489 1.489 . S
C488 C502 1.411 . S
C489 C488 1.489 . S
C489 C490 1.383 . S
C489 C494 1.382 . S
C490 H467 0.950 . S
C490 C489 1.383 . S
C490 C491 1.395 . S
C491 H468 0.950 . S
C491 C490 1.395 . S
C491 C492 1.288 . S
C492 C491 1.288 . S
C492 C493 1.392 . S
C493 H469 0.951 . S
C493 C492 1.392 . S
C493 C494 1.392 . S
C494 H470 0.949 . S
C494 C489 1.382 . S
C494 C493 1.392 . S
C495 C496 1.376 . S
C495 C500 1.386 . S
C495 C501 1.483 . S
C496 H471 0.949 . S
C496 C495 1.376 . S
C496 C497 1.397 . S
C497 H472 0.950 . S
C497 C496 1.397 . S
C497 C498 1.391 . S
C498 C497 1.391 . S
C498 C499 1.405 . S
C499 H473 0.950 . S
C499 C498 1.405 . S
C499 C500 1.367 . S
C500 H474 0.950 . S
C500 C495 1.386 . S
C500 C499 1.367 . S
C501 C495 1.483 . S
C501 C502 1.382 . S
C501 C503 1.403 . S
C502 H475 0.950 . S
C502 C488 1.411 . S
C502 C501 1.382 . S
C503 C487 1.411 . S
C503 C501 1.403 . S
C503 C504 1.489 . S
C504 C503 1.489 . S
C504 C505 1.383 . S
C504 C509 1.382 . S
C505 H476 0.950 . S
C505 C504 1.383 . S
C505 C506 1.395 . S
C506 H477 0.950 . S
C506 C505 1.395 . S
C506 C507 1.288 . S
C507 C506 1.288 . S
C507 C508 1.392 . S
C508 H478 0.951 . S
C508 C507 1.392 . S
C508 C509 1.392 . S
C509 H479 0.949 . S
C509 C504 1.382 . S
C509 C508 1.392 . S
H510 C529 0.949 . S
H511 C530 0.950 . S
H512 C532 0.950 . S
H513 C533 0.950 . S
H514 C535 0.950 . S
H515 C538 0.950 . S
H516 C539 0.950 . S
H517 C541 0.951 . S
H518 C542 0.949 . S
H519 C544 0.949 . S
H520 C545 0.950 . S
H521 C547 0.950 . S
H522 C548 0.950 . S
H523 C550 0.950 . S
H524 C553 0.950 . S
H525 C554 0.950 . S
H526 C556 0.951 . S
H527 C557 0.949 . S
C528 C529 1.376 . S
C528 C533 1.386 . S
C528 C534 1.483 . S
C529 H510 0.949 . S
C529 C528 1.376 . S
C529 C530 1.397 . S
C530 H511 0.950 . S
C530 C529 1.397 . S
C530 C531 1.391 . S
C531 C530 1.391 . S
C531 C532 1.405 . S
C532 H512 0.950 . S
C532 C531 1.405 . S
C532 C533 1.367 . S
C533 H513 0.950 . S
C533 C528 1.386 . S
C533 C532 1.367 . S
C534 C528 1.483 . S
C534 C535 1.382 . S
C534 C536 1.403 . S
C535 H514 0.950 . S
C535 C534 1.382 . S
C535 C551 1.411 . S
C536 C534 1.403 . S
C536 C537 1.489 . S
C536 C550 1.411 . S
C537 C536 1.489 . S
C537 C538 1.383 . S
C537 C542 1.382 . S
C538 H515 0.950 . S
C538 C537 1.383 . S
C538 C539 1.395 . S
C539 H516 0.950 . S
C539 C538 1.395 . S
C539 C540 1.288 . S
C540 C539 1.288 . S
C540 C541 1.392 . S
C541 H517 0.951 . S
C541 C540 1.392 . S
C541 C542 1.392 . S
C542 H518 0.949 . S
C542 C537 1.382 . S
C542 C541 1.392 . S
C543 C544 1.376 . S
C543 C548 1.386 . S
C543 C549 1.483 . S
C544 H519 0.949 . S
C544 C543 1.376 . S
C544 C545 1.397 . S
C545 H520 0.950 . S
C545 C544 1.397 . S
C545 C546 1.391 . S
C546 C545 1.391 . S
C546 C547 1.405 . S
C547 H521 0.950 . S
C547 C546 1.405 . S
C547 C548 1.367 . S
C548 H522 0.950 . S
C548 C543 1.386 . S
C548 C547 1.367 . S
C549 C543 1.483 . S
C549 C550 1.382 . S
C549 C551 1.403 . S
C550 H523 0.950 . S
C550 C536 1.411 . S
C550 C549 1.382 . S
C551 C535 1.411 . S
C551 C549 1.403 . S
C551 C552 1.489 . S
C552 C551 1.489 . S
C552 C553 1.383 . S
C552 C557 1.382 . S
C553 H524 0.950 . S
C553 C552 1.383 . S
C553 C554 1.395 . S
C554 H525 0.950 . S
C554 C553 1.395 . S
C554 C555 1.288 . S
C555 C554 1.288 . S
C555 C556 1.392 . S
C556 H526 0.951 . S
C556 C555 1.392 . S
C556 C557 1.392 . S
C557 H527 0.949 . S
C557 C552 1.382 . S
C557 C556 1.392 . S
H558 C577 0.949 . S
H559 C578 0.950 . S
H560 C580 0.950 . S
H561 C581 0.950 . S
H562 C583 0.950 . S
H563 C586 0.950 . S
H564 C587 0.950 . S
H565 C589 0.951 . S
H566 C590 0.949 . S
H567 C592 0.949 . S
H568 C593 0.950 . S
H569 C595 0.950 . S
H570 C596 0.950 . S
H571 C598 0.950 . S
H572 C601 0.950 . S
H573 C602 0.950 . S
H574 C604 0.951 . S
H575 C605 0.949 . S
C576 C577 1.376 . S
C576 C581 1.386 . S
C576 C582 1.483 . S
C577 H558 0.949 . S
C577 C576 1.376 . S
C577 C578 1.397 . S
C578 H559 0.950 . S
C578 C577 1.397 . S
C578 C579 1.391 . S
C579 C578 1.391 . S
C579 C580 1.405 . S
C580 H560 0.950 . S
C580 C579 1.405 . S
C580 C581 1.367 . S
C581 H561 0.950 . S
C581 C576 1.386 . S
C581 C580 1.367 . S
C582 C576 1.483 . S
C582 C583 1.382 . S
C582 C584 1.403 . S
C583 H562 0.950 . S
C583 C582 1.382 . S
C583 C599 1.411 . S
C584 C582 1.403 . S
C584 C585 1.489 . S
C584 C598 1.411 . S
C585 C584 1.489 . S
C585 C586 1.383 . S
C585 C590 1.382 . S
C586 H563 0.950 . S
C586 C585 1.383 . S
C586 C587 1.395 . S
C587 H564 0.950 . S
C587 C586 1.395 . S
C587 C588 1.288 . S
C588 C587 1.288 . S
C588 C589 1.392 . S
C589 H565 0.951 . S
C589 C588 1.392 . S
C589 C590 1.392 . S
C590 H566 0.949 . S
C590 C585 1.382 . S
C590 C589 1.392 . S
C591 C592 1.376 . S
C591 C596 1.386 . S
C591 C597 1.483 . S
C592 H567 0.949 . S
C592 C591 1.376 . S
C592 C593 1.397 . S
C593 H568 0.950 . S
C593 C592 1.397 . S
C593 C594 1.391 . S
C594 C593 1.391 . S
C594 C595 1.405 . S
C595 H569 0.950 . S
C595 C594 1.405 . S
C595 C596 1.367 . S
C596 H570 0.950 . S
C596 C591 1.386 . S
C596 C595 1.367 . S
C597 C591 1.483 . S
C597 C598 1.382 . S
C597 C599 1.403 . S
C598 H571 0.950 . S
C598 C584 1.411 . S
C598 C597 1.382 . S
C599 C583 1.411 . S
C599 C597 1.403 . S
C599 C600 1.489 . S
C600 C599 1.489 . S
C600 C601 1.383 . S
C600 C605 1.382 . S
C601 H572 0.950 . S
C601 C600 1.383 . S
C601 C602 1.395 . S
C602 H573 0.950 . S
C602 C601 1.395 . S
C602 C603 1.288 . S
C603 C602 1.288 . S
C603 C604 1.392 . S
C604 H574 0.951 . S
C604 C603 1.392 . S
C604 C605 1.392 . S
C605 H575 0.949 . S
C605 C600 1.382 . S
C605 C604 1.392 . S
C606 C607 1.349 . S
C606 C608 1.327 . S
C606 H631 0.950 . S
C607 C606 1.349 . S
C607 C623 1.349 . S
C608 C606 1.327 . S
C608 C627 1.429 . S
C608 H632 0.950 . S
C609 C626 1.574 . S
C609 C628 1.368 . S
C609 H633 0.949 . S
H610 C614 0.949 . S
C611 C612 1.349 . S
C611 C613 1.327 . S
C611 H634 0.950 . S
C612 C611 1.349 . S
C612 C624 1.349 . S
C613 C611 1.327 . S
C613 C629 1.429 . S
C613 H635 0.950 . S
C614 H610 0.949 . S
C614 C622 1.574 . S
C614 C630 1.368 . S
H615 C623 0.950 . S
H616 C621 0.950 . S
H617 C622 0.949 . S
H618 C624 0.950 . S
H619 C625 0.950 . S
H620 C626 0.949 . S
C621 H616 0.950 . S
C621 C623 1.327 . S
C621 C627 1.429 . S
C622 C614 1.574 . S
C622 H617 0.949 . S
C622 C628 1.368 . S
C623 C607 1.349 . S
C623 H615 0.950 . S
C623 C621 1.327 . S
C624 C612 1.349 . S
C624 H618 0.950 . S
C624 C625 1.327 . S
C625 H619 0.950 . S
C625 C624 1.327 . S
C625 C629 1.429 . S
C626 C609 1.574 . S
C626 H620 0.949 . S
C626 C630 1.368 . S
C627 C608 1.429 . S
C627 C621 1.429 . S
C627 C628 1.523 . S
C628 C609 1.368 . S
C628 C622 1.368 . S
C628 C627 1.523 . S
C629 C613 1.429 . S
C629 C625 1.429 . S
C629 C630 1.523 . S
C630 C614 1.368 . S
C630 C626 1.368 . S
C630 C629 1.523 . S
H631 C606 0.950 . S
H632 C608 0.950 . S
H633 C609 0.949 . S
H634 C611 0.950 . S
H635 C613 0.950 . S
C636 C637 1.349 . S
C636 C638 1.327 . S
C636 H661 0.950 . S
C637 C636 1.349 . S
C637 C653 1.349 . S
C638 C636 1.327 . S
C638 C657 1.429 . S
C638 H662 0.950 . S
C639 C656 1.574 . S
C639 C658 1.368 . S
C639 H663 0.949 . S
H640 C644 0.949 . S
C641 C642 1.349 . S
C641 C643 1.327 . S
C641 H664 0.950 . S
C642 C641 1.349 . S
C642 C654 1.349 . S
C643 C641 1.327 . S
C643 C659 1.429 . S
C643 H665 0.950 . S
C644 H640 0.949 . S
C644 C652 1.574 . S
C644 C660 1.368 . S
H645 C653 0.950 . S
H646 C651 0.950 . S
H647 C652 0.949 . S
H648 C654 0.950 . S
H649 C655 0.950 . S
H650 C656 0.949 . S
C651 H646 0.950 . S
C651 C653 1.327 . S
C651 C657 1.429 . S
C652 C644 1.574 . S
C652 H647 0.949 . S
C652 C658 1.368 . S
C653 C637 1.349 . S
C653 H645 0.950 . S
C653 C651 1.327 . S
C654 C642 1.349 . S
C654 H648 0.950 . S
C654 C655 1.327 . S
C655 H649 0.950 . S
C655 C654 1.327 . S
C655 C659 1.429 . S
C656 C639 1.574 . S
C656 H650 0.949 . S
C656 C660 1.368 . S
C657 C638 1.429 . S
C657 C651 1.429 . S
C657 C658 1.523 . S
C658 C639 1.368 . S
C658 C652 1.368 . S
C658 C657 1.523 . S
C659 C643 1.429 . S
C659 C655 1.429 . S
C659 C660 1.523 . S
C660 C644 1.368 . S
C660 C656 1.368 . S
C660 C659 1.523 . S
H661 C636 0.950 . S
H662 C638 0.950 . S
H663 C639 0.949 . S
H664 C641 0.950 . S
H665 C643 0.950 . S
C666 C667 1.349 . S
C666 C668 1.327 . S
C666 H691 0.950 . S
C667 C666 1.349 . S
C667 C683 1.349 . S
C668 C666 1.327 . S
C668 C687 1.429 . S
C668 H692 0.950 . S
C669 C686 1.574 . S
C669 C688 1.368 . S
C669 H693 0.949 . S
H670 C674 0.949 . S
C671 C672 1.349 . S
C671 C673 1.327 . S
C671 H694 0.950 . S
C672 C671 1.349 . S
C672 C684 1.349 . S
C673 C671 1.327 . S
C673 C689 1.429 . S
C673 H695 0.950 . S
C674 H670 0.949 . S
C674 C682 1.574 . S
C674 C690 1.368 . S
H675 C683 0.950 . S
H676 C681 0.950 . S
H677 C682 0.949 . S
H678 C684 0.950 . S
H679 C685 0.950 . S
H680 C686 0.949 . S
C681 H676 0.950 . S
C681 C683 1.327 . S
C681 C687 1.429 . S
C682 C674 1.574 . S
C682 H677 0.949 . S
C682 C688 1.368 . S
C683 C667 1.349 . S
C683 H675 0.950 . S
C683 C681 1.327 . S
C684 C672 1.349 . S
C684 H678 0.950 . S
C684 C685 1.327 . S
C685 H679 0.950 . S
C685 C684 1.327 . S
C685 C689 1.429 . S
C686 C669 1.574 . S
C686 H680 0.949 . S
C686 C690 1.368 . S
C687 C668 1.429 . S
C687 C681 1.429 . S
C687 C688 1.523 . S
C688 C669 1.368 . S
C688 C682 1.368 . S
C688 C687 1.523 . S
C689 C673 1.429 . S
C689 C685 1.429 . S
C689 C690 1.523 . S
C690 C674 1.368 . S
C690 C686 1.368 . S
C690 C689 1.523 . S
H691 C666 0.950 . S
H692 C668 0.950 . S
H693 C669 0.949 . S
H694 C671 0.950 . S
H695 C673 0.950 . S
C696 C697 1.349 . S
C696 C698 1.327 . S
C696 H721 0.950 . S
C697 C696 1.349 . S
C697 C713 1.349 . S
C698 C696 1.327 . S
C698 C717 1.429 . S
C698 H722 0.950 . S
C699 C716 1.574 . S
C699 C718 1.368 . S
C699 H723 0.949 . S
H700 C704 0.949 . S
C701 C702 1.349 . S
C701 C703 1.327 . S
C701 H724 0.950 . S
C702 C701 1.349 . S
C702 C714 1.349 . S
C703 C701 1.327 . S
C703 C719 1.429 . S
C703 H725 0.950 . S
C704 H700 0.949 . S
C704 C712 1.574 . S
C704 C720 1.368 . S
H705 C713 0.950 . S
H706 C711 0.950 . S
H707 C712 0.949 . S
H708 C714 0.950 . S
H709 C715 0.950 . S
H710 C716 0.949 . S
C711 H706 0.950 . S
C711 C713 1.327 . S
C711 C717 1.429 . S
C712 C704 1.574 . S
C712 H707 0.949 . S
C712 C718 1.368 . S
C713 C697 1.349 . S
C713 H705 0.950 . S
C713 C711 1.327 . S
C714 C702 1.349 . S
C714 H708 0.950 . S
C714 C715 1.327 . S
C715 H709 0.950 . S
C715 C714 1.327 . S
C715 C719 1.429 . S
C716 C699 1.574 . S
C716 H710 0.949 . S
C716 C720 1.368 . S
C717 C698 1.429 . S
C717 C711 1.429 . S
C717 C718 1.523 . S
C718 C699 1.368 . S
C718 C712 1.368 . S
C718 C717 1.523 . S
C719 C703 1.429 . S
C719 C715 1.429 . S
C719 C720 1.523 . S
C720 C704 1.368 . S
C720 C716 1.368 . S
C720 C719 1.523 . S
H721 C696 0.950 . S
H722 C698 0.950 . S
H723 C699 0.949 . S
H724 C701 0.950 . S
H725 C703 0.950 . S
C726 C727 1.349 . S
C726 C728 1.327 . S
C726 H751 0.950 . S
C727 C726 1.349 . S
C727 C743 1.349 . S
C728 C726 1.327 . S
C728 C747 1.429 . S
C728 H752 0.950 . S
C729 C746 1.574 . S
C729 C748 1.368 . S
C729 H753 0.949 . S
H730 C734 0.949 . S
C731 C732 1.349 . S
C731 C733 1.327 . S
C731 H754 0.950 . S
C732 C731 1.349 . S
C732 C744 1.349 . S
C733 C731 1.327 . S
C733 C749 1.429 . S
C733 H755 0.950 . S
C734 H730 0.949 . S
C734 C742 1.574 . S
C734 C750 1.368 . S
H735 C743 0.950 . S
H736 C741 0.950 . S
H737 C742 0.949 . S
H738 C744 0.950 . S
H739 C745 0.950 . S
H740 C746 0.949 . S
C741 H736 0.950 . S
C741 C743 1.327 . S
C741 C747 1.429 . S
C742 C734 1.574 . S
C742 H737 0.949 . S
C742 C748 1.368 . S
C743 C727 1.349 . S
C743 H735 0.950 . S
C743 C741 1.327 . S
C744 C732 1.349 . S
C744 H738 0.950 . S
C744 C745 1.327 . S
C745 H739 0.950 . S
C745 C744 1.327 . S
C745 C749 1.429 . S
C746 C729 1.574 . S
C746 H740 0.949 . S
C746 C750 1.368 . S
C747 C728 1.429 . S
C747 C741 1.429 . S
C747 C748 1.523 . S
C748 C729 1.368 . S
C748 C742 1.368 . S
C748 C747 1.523 . S
C749 C733 1.429 . S
C749 C745 1.429 . S
C749 C750 1.523 . S
C750 C734 1.368 . S
C750 C746 1.368 . S
C750 C749 1.523 . S
H751 C726 0.950 . S
H752 C728 0.950 . S
H753 C729 0.949 . S
H754 C731 0.950 . S
H755 C733 0.950 . S
C756 C757 1.349 . S
C756 C758 1.327 . S
C756 H781 0.950 . S
C757 C756 1.349 . S
C757 C773 1.349 . S
C758 C756 1.327 . S
C758 C777 1.429 . S
C758 H782 0.950 . S
C759 C776 1.574 . S
C759 C778 1.368 . S
C759 H783 0.949 . S
H760 C764 0.949 . S
C761 C762 1.349 . S
C761 C763 1.327 . S
C761 H784 0.950 . S
C762 C761 1.349 . S
C762 C774 1.349 . S
C763 C761 1.327 . S
C763 C779 1.429 . S
C763 H785 0.950 . S
C764 H760 0.949 . S
C764 C772 1.574 . S
C764 C780 1.368 . S
H765 C773 0.950 . S
H766 C771 0.950 . S
H767 C772 0.949 . S
H768 C774 0.950 . S
H769 C775 0.950 . S
H770 C776 0.949 . S
C771 H766 0.950 . S
C771 C773 1.327 . S
C771 C777 1.429 . S
C772 C764 1.574 . S
C772 H767 0.949 . S
C772 C778 1.368 . S
C773 C757 1.349 . S
C773 H765 0.950 . S
C773 C771 1.327 . S
C774 C762 1.349 . S
C774 H768 0.950 . S
C774 C775 1.327 . S
C775 H769 0.950 . S
C775 C774 1.327 . S
C775 C779 1.429 . S
C776 C759 1.574 . S
C776 H770 0.949 . S
C776 C780 1.368 . S
C777 C758 1.429 . S
C777 C771 1.429 . S
C777 C778 1.523 . S
C778 C759 1.368 . S
C778 C772 1.368 . S
C778 C777 1.523 . S
C779 C763 1.429 . S
C779 C775 1.429 . S
C779 C780 1.523 . S
C780 C764 1.368 . S
C780 C776 1.368 . S
C780 C779 1.523 . S
H781 C756 0.950 . S
H782 C758 0.950 . S
H783 C759 0.949 . S
H784 C761 0.950 . S
H785 C763 0.950 . S
C786 C787 1.349 . S
C786 C788 1.327 . S
C786 H811 0.950 . S
C787 C786 1.349 . S
C787 C803 1.349 . S
C788 C786 1.327 . S
C788 C807 1.429 . S
C788 H812 0.950 . S
C789 C806 1.574 . S
C789 C808 1.368 . S
C789 H813 0.949 . S
H790 C794 0.949 . S
C791 C792 1.349 . S
C791 C793 1.327 . S
C791 H814 0.950 . S
C792 C791 1.349 . S
C792 C804 1.349 . S
C793 C791 1.327 . S
C793 C809 1.429 . S
C793 H815 0.950 . S
C794 H790 0.949 . S
C794 C802 1.574 . S
C794 C810 1.368 . S
H795 C803 0.950 . S
H796 C801 0.950 . S
H797 C802 0.949 . S
H798 C804 0.950 . S
H799 C805 0.950 . S
H800 C806 0.949 . S
C801 H796 0.950 . S
C801 C803 1.327 . S
C801 C807 1.429 . S
C802 C794 1.574 . S
C802 H797 0.949 . S
C802 C808 1.368 . S
C803 C787 1.349 . S
C803 H795 0.950 . S
C803 C801 1.327 . S
C804 C792 1.349 . S
C804 H798 0.950 . S
C804 C805 1.327 . S
C805 H799 0.950 . S
C805 C804 1.327 . S
C805 C809 1.429 . S
C806 C789 1.574 . S
C806 H800 0.949 . S
C806 C810 1.368 . S
C807 C788 1.429 . S
C807 C801 1.429 . S
C807 C808 1.523 . S
C808 C789 1.368 . S
C808 C802 1.368 . S
C808 C807 1.523 . S
C809 C793 1.429 . S
C809 C805 1.429 . S
C809 C810 1.523 . S
C810 C794 1.368 . S
C810 C806 1.368 . S
C810 C809 1.523 . S
H811 C786 0.950 . S
H812 C788 0.950 . S
H813 C789 0.949 . S
H814 C791 0.950 . S
H815 C793 0.950 . S
C816 C817 1.349 . S
C816 C818 1.327 . S
C816 H841 0.950 . S
C817 C816 1.349 . S
C817 C833 1.349 . S
C818 C816 1.327 . S
C818 C837 1.429 . S
C818 H842 0.950 . S
C819 C836 1.574 . S
C819 C838 1.368 . S
C819 H843 0.949 . S
H820 C824 0.949 . S
C821 C822 1.349 . S
C821 C823 1.327 . S
C821 H844 0.950 . S
C822 C821 1.349 . S
C822 C834 1.349 . S
C823 C821 1.327 . S
C823 C839 1.429 . S
C823 H845 0.950 . S
C824 H820 0.949 . S
C824 C832 1.574 . S
C824 C840 1.368 . S
H825 C833 0.950 . S
H826 C831 0.950 . S
H827 C832 0.949 . S
H828 C834 0.950 . S
H829 C835 0.950 . S
H830 C836 0.949 . S
C831 H826 0.950 . S
C831 C833 1.327 . S
C831 C837 1.429 . S
C832 C824 1.574 . S
C832 H827 0.949 . S
C832 C838 1.368 . S
C833 C817 1.349 . S
C833 H825 0.950 . S
C833 C831 1.327 . S
C834 C822 1.349 . S
C834 H828 0.950 . S
C834 C835 1.327 . S
C835 H829 0.950 . S
C835 C834 1.327 . S
C835 C839 1.429 . S
C836 C819 1.574 . S
C836 H830 0.949 . S
C836 C840 1.368 . S
C837 C818 1.429 . S
C837 C831 1.429 . S
C837 C838 1.523 . S
C838 C819 1.368 . S
C838 C832 1.368 . S
C838 C837 1.523 . S
C839 C823 1.429 . S
C839 C835 1.429 . S
C839 C840 1.523 . S
C840 C824 1.368 . S
C840 C836 1.368 . S
C840 C839 1.523 . S
H841 C816 0.950 . S
H842 C818 0.950 . S
H843 C819 0.949 . S
H844 C821 0.950 . S
H845 C823 0.950 . S
C846 C847 1.349 . S
C846 C848 1.327 . S
C846 H871 0.950 . S
C847 C846 1.349 . S
C847 C863 1.349 . S
C848 C846 1.327 . S
C848 C867 1.429 . S
C848 H872 0.950 . S
C849 C866 1.574 . S
C849 C868 1.368 . S
C849 H873 0.949 . S
H850 C854 0.949 . S
C851 C852 1.349 . S
C851 C853 1.327 . S
C851 H874 0.950 . S
C852 C851 1.349 . S
C852 C864 1.349 . S
C853 C851 1.327 . S
C853 C869 1.429 . S
C853 H875 0.950 . S
C854 H850 0.949 . S
C854 C862 1.574 . S
C854 C870 1.368 . S
H855 C863 0.950 . S
H856 C861 0.950 . S
H857 C862 0.949 . S
H858 C864 0.950 . S
H859 C865 0.950 . S
H860 C866 0.949 . S
C861 H856 0.950 . S
C861 C863 1.327 . S
C861 C867 1.429 . S
C862 C854 1.574 . S
C862 H857 0.949 . S
C862 C868 1.368 . S
C863 C847 1.349 . S
C863 H855 0.950 . S
C863 C861 1.327 . S
C864 C852 1.349 . S
C864 H858 0.950 . S
C864 C865 1.327 . S
C865 H859 0.950 . S
C865 C864 1.327 . S
C865 C869 1.429 . S
C866 C849 1.574 . S
C866 H860 0.949 . S
C866 C870 1.368 . S
C867 C848 1.429 . S
C867 C861 1.429 . S
C867 C868 1.523 . S
C868 C849 1.368 . S
C868 C862 1.368 . S
C868 C867 1.523 . S
C869 C853 1.429 . S
C869 C865 1.429 . S
C869 C870 1.523 . S
C870 C854 1.368 . S
C870 C866 1.368 . S
C870 C869 1.523 . S
H871 C846 0.950 . S
H872 C848 0.950 . S
H873 C849 0.949 . S
H874 C851 0.950 . S
H875 C853 0.950 . S
C876 C877 1.349 . S
C876 C878 1.327 . S
C876 H901 0.950 . S
C877 C876 1.349 . S
C877 C893 1.349 . S
C878 C876 1.327 . S
C878 C897 1.429 . S
C878 H902 0.950 . S
C879 C896 1.574 . S
C879 C898 1.368 . S
C879 H903 0.949 . S
H880 C884 0.949 . S
C881 C882 1.349 . S
C881 C883 1.327 . S
C881 H904 0.950 . S
C882 C881 1.349 . S
C882 C894 1.349 . S
C883 C881 1.327 . S
C883 C899 1.429 . S
C883 H905 0.950 . S
C884 H880 0.949 . S
C884 C892 1.574 . S
C884 C900 1.368 . S
H885 C893 0.950 . S
H886 C891 0.950 . S
H887 C892 0.949 . S
H888 C894 0.950 . S
H889 C895 0.950 . S
H890 C896 0.949 . S
C891 H886 0.950 . S
C891 C893 1.327 . S
C891 C897 1.429 . S
C892 C884 1.574 . S
C892 H887 0.949 . S
C892 C898 1.368 . S
C893 C877 1.349 . S
C893 H885 0.950 . S
C893 C891 1.327 . S
C894 C882 1.349 . S
C894 H888 0.950 . S
C894 C895 1.327 . S
C895 H889 0.950 . S
C895 C894 1.327 . S
C895 C899 1.429 . S
C896 C879 1.574 . S
C896 H890 0.949 . S
C896 C900 1.368 . S
C897 C878 1.429 . S
C897 C891 1.429 . S
C897 C898 1.523 . S
C898 C879 1.368 . S
C898 C892 1.368 . S
C898 C897 1.523 . S
C899 C883 1.429 . S
C899 C895 1.429 . S
C899 C900 1.523 . S
C900 C884 1.368 . S
C900 C896 1.368 . S
C900 C899 1.523 . S
H901 C876 0.950 . S
H902 C878 0.950 . S
H903 C879 0.949 . S
H904 C881 0.950 . S
H905 C883 0.950 . S
C906 C907 1.349 . S
C906 C908 1.327 . S
C906 H931 0.950 . S
C907 C906 1.349 . S
C907 C923 1.349 . S
C908 C906 1.327 . S
C908 C927 1.429 . S
C908 H932 0.950 . S
C909 C926 1.574 . S
C909 C928 1.368 . S
C909 H933 0.949 . S
H910 C914 0.949 . S
C911 C912 1.349 . S
C911 C913 1.327 . S
C911 H934 0.950 . S
C912 C911 1.349 . S
C912 C924 1.349 . S
C913 C911 1.327 . S
C913 C929 1.429 . S
C913 H935 0.950 . S
C914 H910 0.949 . S
C914 C922 1.574 . S
C914 C930 1.368 . S
H915 C923 0.950 . S
H916 C921 0.950 . S
H917 C922 0.949 . S
H918 C924 0.950 . S
H919 C925 0.950 . S
H920 C926 0.949 . S
C921 H916 0.950 . S
C921 C923 1.327 . S
C921 C927 1.429 . S
C922 C914 1.574 . S
C922 H917 0.949 . S
C922 C928 1.368 . S
C923 C907 1.349 . S
C923 H915 0.950 . S
C923 C921 1.327 . S
C924 C912 1.349 . S
C924 H918 0.950 . S
C924 C925 1.327 . S
C925 H919 0.950 . S
C925 C924 1.327 . S
C925 C929 1.429 . S
C926 C909 1.574 . S
C926 H920 0.949 . S
C926 C930 1.368 . S
C927 C908 1.429 . S
C927 C921 1.429 . S
C927 C928 1.523 . S
C928 C909 1.368 . S
C928 C922 1.368 . S
C928 C927 1.523 . S
C929 C913 1.429 . S
C929 C925 1.429 . S
C929 C930 1.523 . S
C930 C914 1.368 . S
C930 C926 1.368 . S
C930 C929 1.523 . S
H931 C906 0.950 . S
H932 C908 0.950 . S
H933 C909 0.949 . S
H934 C911 0.950 . S
H935 C913 0.950 . S
C936 C937 1.349 . S
C936 C938 1.327 . S
C936 H961 0.950 . S
C937 C936 1.349 . S
C937 C953 1.349 . S
C938 C936 1.327 . S
C938 C957 1.429 . S
C938 H962 0.950 . S
C939 C956 1.574 . S
C939 C958 1.368 . S
C939 H963 0.949 . S
H940 C944 0.949 . S
C941 C942 1.349 . S
C941 C943 1.327 . S
C941 H964 0.950 . S
C942 C941 1.349 . S
C942 C954 1.349 . S
C943 C941 1.327 . S
C943 C959 1.429 . S
C943 H965 0.950 . S
C944 H940 0.949 . S
C944 C952 1.574 . S
C944 C960 1.368 . S
H945 C953 0.950 . S
H946 C951 0.950 . S
H947 C952 0.949 . S
H948 C954 0.950 . S
H949 C955 0.950 . S
H950 C956 0.949 . S
C951 H946 0.950 . S
C951 C953 1.327 . S
C951 C957 1.429 . S
C952 C944 1.574 . S
C952 H947 0.949 . S
C952 C958 1.368 . S
C953 C937 1.349 . S
C953 H945 0.950 . S
C953 C951 1.327 . S
C954 C942 1.349 . S
C954 H948 0.950 . S
C954 C955 1.327 . S
C955 H949 0.950 . S
C955 C954 1.327 . S
C955 C959 1.429 . S
C956 C939 1.574 . S
C956 H950 0.949 . S
C956 C960 1.368 . S
C957 C938 1.429 . S
C957 C951 1.429 . S
C957 C958 1.523 . S
C958 C939 1.368 . S
C958 C952 1.368 . S
C958 C957 1.523 . S
C959 C943 1.429 . S
C959 C955 1.429 . S
C959 C960 1.523 . S
C960 C944 1.368 . S
C960 C956 1.368 . S
C960 C959 1.523 . S
H961 C936 0.950 . S
H962 C938 0.950 . S
H963 C939 0.949 . S
H964 C941 0.950 . S
H965 C943 0.950 . S
C966 C967 1.349 . S
C966 C968 1.327 . S
C966 H991 0.950 . S
C967 C966 1.349 . S
C967 C983 1.349 . S
C968 C966 1.327 . S
C968 C987 1.429 . S
C968 H992 0.950 . S
C969 C986 1.574 . S
C969 C988 1.368 . S
C969 H993 0.949 . S
H970 C974 0.949 . S
C971 C972 1.349 . S
C971 C973 1.327 . S
C971 H994 0.950 . S
C972 C971 1.349 . S
C972 C984 1.349 . S
C973 C971 1.327 . S
C973 C989 1.429 . S
C973 H995 0.950 . S
C974 H970 0.949 . S
C974 C982 1.574 . S
C974 C990 1.368 . S
H975 C983 0.950 . S
H976 C981 0.950 . S
H977 C982 0.949 . S
H978 C984 0.950 . S
H979 C985 0.950 . S
H980 C986 0.949 . S
C981 H976 0.950 . S
C981 C983 1.327 . S
C981 C987 1.429 . S
C982 C974 1.574 . S
C982 H977 0.949 . S
C982 C988 1.368 . S
C983 C967 1.349 . S
C983 H975 0.950 . S
C983 C981 1.327 . S
C984 C972 1.349 . S
C984 H978 0.950 . S
C984 C985 1.327 . S
C985 H979 0.950 . S
C985 C984 1.327 . S
C985 C989 1.429 . S
C986 C969 1.574 . S
C986 H980 0.949 . S
C986 C990 1.368 . S
C987 C968 1.429 . S
C987 C981 1.429 . S
C987 C988 1.523 . S
C988 C969 1.368 . S
C988 C982 1.368 . S
C988 C987 1.523 . S
C989 C973 1.429 . S
C989 C985 1.429 . S
C989 C990 1.523 . S
C990 C974 1.368 . S
C990 C986 1.368 . S
C990 C989 1.523 . S
H991 C966 0.950 . S
H992 C968 0.950 . S
H993 C969 0.949 . S
H994 C971 0.950 . S
H995 C973 0.950 . S
C996 C997 1.349 . S
C996 C998 1.327 . S
C996 H1021 0.950 . S
C997 C996 1.349 . S
C997 C1013 1.349 . S
C998 C996 1.327 . S
C998 C1017 1.429 . S
C998 H1022 0.950 . S
C999 C1016 1.574 . S
C999 C1018 1.368 . S
C999 H1023 0.949 . S
H1000 C1004 0.949 . S
C1001 C1002 1.349 . S
C1001 C1003 1.327 . S
C1001 H1024 0.950 . S
C1002 C1001 1.349 . S
C1002 C1014 1.349 . S
C1003 C1001 1.327 . S
C1003 C1019 1.429 . S
C1003 H1025 0.950 . S
C1004 H1000 0.949 . S
C1004 C1012 1.574 . S
C1004 C1020 1.368 . S
H1005 C1013 0.950 . S
H1006 C1011 0.950 . S
H1007 C1012 0.949 . S
H1008 C1014 0.950 . S
H1009 C1015 0.950 . S
H1010 C1016 0.949 . S
C1011 H1006 0.950 . S
C1011 C1013 1.327 . S
C1011 C1017 1.429 . S
C1012 C1004 1.574 . S
C1012 H1007 0.949 . S
C1012 C1018 1.368 . S
C1013 C997 1.349 . S
C1013 H1005 0.950 . S
C1013 C1011 1.327 . S
C1014 C1002 1.349 . S
C1014 H1008 0.950 . S
C1014 C1015 1.327 . S
C1015 H1009 0.950 . S
C1015 C1014 1.327 . S
C1015 C1019 1.429 . S
C1016 C999 1.574 . S
C1016 H1010 0.949 . S
C1016 C1020 1.368 . S
C1017 C998 1.429 . S
C1017 C1011 1.429 . S
C1017 C1018 1.523 . S
C1018 C999 1.368 . S
C1018 C1012 1.368 . S
C1018 C1017 1.523 . S
C1019 C1003 1.429 . S
C1019 C1015 1.429 . S
C1019 C1020 1.523 . S
C1020 C1004 1.368 . S
C1020 C1016 1.368 . S
C1020 C1019 1.523 . S
H1021 C996 0.950 . S
H1022 C998 0.950 . S
H1023 C999 0.949 . S
H1024 C1001 0.950 . S
H1025 C1003 0.950 . S
C1026 C1027 1.349 . S
C1026 C1028 1.327 . S
C1026 H1051 0.950 . S
C1027 C1026 1.349 . S
C1027 C1043 1.349 . S
C1028 C1026 1.327 . S
C1028 C1047 1.429 . S
C1028 H1052 0.950 . S
C1029 C1046 1.574 . S
C1029 C1048 1.368 . S
C1029 H1053 0.949 . S
H1030 C1034 0.949 . S
C1031 C1032 1.349 . S
C1031 C1033 1.327 . S
C1031 H1054 0.950 . S
C1032 C1031 1.349 . S
C1032 C1044 1.349 . S
C1033 C1031 1.327 . S
C1033 C1049 1.429 . S
C1033 H1055 0.950 . S
C1034 H1030 0.949 . S
C1034 C1042 1.574 . S
C1034 C1050 1.368 . S
H1035 C1043 0.950 . S
H1036 C1041 0.950 . S
H1037 C1042 0.949 . S
H1038 C1044 0.950 . S
H1039 C1045 0.950 . S
H1040 C1046 0.949 . S
C1041 H1036 0.950 . S
C1041 C1043 1.327 . S
C1041 C1047 1.429 . S
C1042 C1034 1.574 . S
C1042 H1037 0.949 . S
C1042 C1048 1.368 . S
C1043 C1027 1.349 . S
C1043 H1035 0.950 . S
C1043 C1041 1.327 . S
C1044 C1032 1.349 . S
C1044 H1038 0.950 . S
C1044 C1045 1.327 . S
C1045 H1039 0.950 . S
C1045 C1044 1.327 . S
C1045 C1049 1.429 . S
C1046 C1029 1.574 . S
C1046 H1040 0.949 . S
C1046 C1050 1.368 . S
C1047 C1028 1.429 . S
C1047 C1041 1.429 . S
C1047 C1048 1.523 . S
C1048 C1029 1.368 . S
C1048 C1042 1.368 . S
C1048 C1047 1.523 . S
C1049 C1033 1.429 . S
C1049 C1045 1.429 . S
C1049 C1050 1.523 . S
C1050 C1034 1.368 . S
C1050 C1046 1.368 . S
C1050 C1049 1.523 . S
H1051 C1026 0.950 . S
H1052 C1028 0.950 . S
H1053 C1029 0.949 . S
H1054 C1031 0.950 . S
H1055 C1033 0.950 . S
C1056 C1057 1.349 . S
C1056 C1058 1.327 . S
C1056 H1081 0.950 . S
C1057 C1056 1.349 . S
C1057 C1073 1.349 . S
C1058 C1056 1.327 . S
C1058 C1077 1.429 . S
C1058 H1082 0.950 . S
C1059 C1076 1.574 . S
C1059 C1078 1.368 . S
C1059 H1083 0.949 . S
H1060 C1064 0.949 . S
C1061 C1062 1.349 . S
C1061 C1063 1.327 . S
C1061 H1084 0.950 . S
C1062 C1061 1.349 . S
C1062 C1074 1.349 . S
C1063 C1061 1.327 . S
C1063 C1079 1.429 . S
C1063 H1085 0.950 . S
C1064 H1060 0.949 . S
C1064 C1072 1.574 . S
C1064 C1080 1.368 . S
H1065 C1073 0.950 . S
H1066 C1071 0.950 . S
H1067 C1072 0.949 . S
H1068 C1074 0.950 . S
H1069 C1075 0.950 . S
H1070 C1076 0.949 . S
C1071 H1066 0.950 . S
C1071 C1073 1.327 . S
C1071 C1077 1.429 . S
C1072 C1064 1.574 . S
C1072 H1067 0.949 . S
C1072 C1078 1.368 . S
C1073 C1057 1.349 . S
C1073 H1065 0.950 . S
C1073 C1071 1.327 . S
C1074 C1062 1.349 . S
C1074 H1068 0.950 . S
C1074 C1075 1.327 . S
C1075 H1069 0.950 . S
C1075 C1074 1.327 . S
C1075 C1079 1.429 . S
C1076 C1059 1.574 . S
C1076 H1070 0.949 . S
C1076 C1080 1.368 . S
C1077 C1058 1.429 . S
C1077 C1071 1.429 . S
C1077 C1078 1.523 . S
C1078 C1059 1.368 . S
C1078 C1072 1.368 . S
C1078 C1077 1.523 . S
C1079 C1063 1.429 . S
C1079 C1075 1.429 . S
C1079 C1080 1.523 . S
C1080 C1064 1.368 . S
C1080 C1076 1.368 . S
C1080 C1079 1.523 . S
H1081 C1056 0.950 . S
H1082 C1058 0.950 . S
H1083 C1059 0.949 . S
H1084 C1061 0.950 . S
H1085 C1063 0.950 . S
C1086 C1087 1.349 . S
C1086 C1088 1.327 . S
C1086 H1111 0.950 . S
C1087 C1086 1.349 . S
C1087 C1103 1.349 . S
C1088 C1086 1.327 . S
C1088 C1107 1.429 . S
C1088 H1112 0.950 . S
C1089 C1106 1.574 . S
C1089 C1108 1.368 . S
C1089 H1113 0.949 . S
H1090 C1094 0.949 . S
C1091 C1092 1.349 . S
C1091 C1093 1.327 . S
C1091 H1114 0.950 . S
C1092 C1091 1.349 . S
C1092 C1104 1.349 . S
C1093 C1091 1.327 . S
C1093 C1109 1.429 . S
C1093 H1115 0.950 . S
C1094 H1090 0.949 . S
C1094 C1102 1.574 . S
C1094 C1110 1.368 . S
H1095 C1103 0.950 . S
H1096 C1101 0.950 . S
H1097 C1102 0.949 . S
H1098 C1104 0.950 . S
H1099 C1105 0.950 . S
H1100 C1106 0.949 . S
C1101 H1096 0.950 . S
C1101 C1103 1.327 . S
C1101 C1107 1.429 . S
C1102 C1094 1.574 . S
C1102 H1097 0.949 . S
C1102 C1108 1.368 . S
C1103 C1087 1.349 . S
C1103 H1095 0.950 . S
C1103 C1101 1.327 . S
C1104 C1092 1.349 . S
C1104 H1098 0.950 . S
C1104 C1105 1.327 . S
C1105 H1099 0.950 . S
C1105 C1104 1.327 . S
C1105 C1109 1.429 . S
C1106 C1089 1.574 . S
C1106 H1100 0.949 . S
C1106 C1110 1.368 . S
C1107 C1088 1.429 . S
C1107 C1101 1.429 . S
C1107 C1108 1.523 . S
C1108 C1089 1.368 . S
C1108 C1102 1.368 . S
C1108 C1107 1.523 . S
C1109 C1093 1.429 . S
C1109 C1105 1.429 . S
C1109 C1110 1.523 . S
C1110 C1094 1.368 . S
C1110 C1106 1.368 . S
C1110 C1109 1.523 . S
H1111 C1086 0.950 . S
H1112 C1088 0.950 . S
H1113 C1089 0.949 . S
H1114 C1091 0.950 . S
H1115 C1093 0.950 . S
C1116 C1117 1.349 . S
C1116 C1118 1.327 . S
C1116 H1141 0.950 . S
C1117 C1116 1.349 . S
C1117 C1133 1.349 . S
C1118 C1116 1.327 . S
C1118 C1137 1.429 . S
C1118 H1142 0.950 . S
C1119 C1136 1.574 . S
C1119 C1138 1.368 . S
C1119 H1143 0.949 . S
H1120 C1124 0.949 . S
C1121 C1122 1.349 . S
C1121 C1123 1.327 . S
C1121 H1144 0.950 . S
C1122 C1121 1.349 . S
C1122 C1134 1.349 . S
C1123 C1121 1.327 . S
C1123 C1139 1.429 . S
C1123 H1145 0.950 . S
C1124 H1120 0.949 . S
C1124 C1132 1.574 . S
C1124 C1140 1.368 . S
H1125 C1133 0.950 . S
H1126 C1131 0.950 . S
H1127 C1132 0.949 . S
H1128 C1134 0.950 . S
H1129 C1135 0.950 . S
H1130 C1136 0.949 . S
C1131 H1126 0.950 . S
C1131 C1133 1.327 . S
C1131 C1137 1.429 . S
C1132 C1124 1.574 . S
C1132 H1127 0.949 . S
C1132 C1138 1.368 . S
C1133 C1117 1.349 . S
C1133 H1125 0.950 . S
C1133 C1131 1.327 . S
C1134 C1122 1.349 . S
C1134 H1128 0.950 . S
C1134 C1135 1.327 . S
C1135 H1129 0.950 . S
C1135 C1134 1.327 . S
C1135 C1139 1.429 . S
C1136 C1119 1.574 . S
C1136 H1130 0.949 . S
C1136 C1140 1.368 . S
C1137 C1118 1.429 . S
C1137 C1131 1.429 . S
C1137 C1138 1.523 . S
C1138 C1119 1.368 . S
C1138 C1132 1.368 . S
C1138 C1137 1.523 . S
C1139 C1123 1.429 . S
C1139 C1135 1.429 . S
C1139 C1140 1.523 . S
C1140 C1124 1.368 . S
C1140 C1136 1.368 . S
C1140 C1139 1.523 . S
H1141 C1116 0.950 . S
H1142 C1118 0.950 . S
H1143 C1119 0.949 . S
H1144 C1121 0.950 . S
H1145 C1123 0.950 . S
C1146 C1147 1.349 . S
C1146 C1148 1.327 . S
C1146 H1171 0.950 . S
C1147 C1146 1.349 . S
C1147 C1163 1.349 . S
C1148 C1146 1.327 . S
C1148 C1167 1.429 . S
C1148 H1172 0.950 . S
C1149 C1166 1.574 . S
C1149 C1168 1.368 . S
C1149 H1173 0.949 . S
H1150 C1154 0.949 . S
C1151 C1152 1.349 . S
C1151 C1153 1.327 . S
C1151 H1174 0.950 . S
C1152 C1151 1.349 . S
C1152 C1164 1.349 . S
C1153 C1151 1.327 . S
C1153 C1169 1.429 . S
C1153 H1175 0.950 . S
C1154 H1150 0.949 . S
C1154 C1162 1.574 . S
C1154 C1170 1.368 . S
H1155 C1163 0.950 . S
H1156 C1161 0.950 . S
H1157 C1162 0.949 . S
H1158 C1164 0.950 . S
H1159 C1165 0.950 . S
H1160 C1166 0.949 . S
C1161 H1156 0.950 . S
C1161 C1163 1.327 . S
C1161 C1167 1.429 . S
C1162 C1154 1.574 . S
C1162 H1157 0.949 . S
C1162 C1168 1.368 . S
C1163 C1147 1.349 . S
C1163 H1155 0.950 . S
C1163 C1161 1.327 . S
C1164 C1152 1.349 . S
C1164 H1158 0.950 . S
C1164 C1165 1.327 . S
C1165 H1159 0.950 . S
C1165 C1164 1.327 . S
C1165 C1169 1.429 . S
C1166 C1149 1.574 . S
C1166 H1160 0.949 . S
C1166 C1170 1.368 . S
C1167 C1148 1.429 . S
C1167 C1161 1.429 . S
C1167 C1168 1.523 . S
C1168 C1149 1.368 . S
C1168 C1162 1.368 . S
C1168 C1167 1.523 . S
C1169 C1153 1.429 . S
C1169 C1165 1.429 . S
C1169 C1170 1.523 . S
C1170 C1154 1.368 . S
C1170 C1166 1.368 . S
C1170 C1169 1.523 . S
H1171 C1146 0.950 . S
H1172 C1148 0.950 . S
H1173 C1149 0.949 . S
H1174 C1151 0.950 . S
H1175 C1153 0.950 . S
C1176 C1177 1.349 . S
C1176 C1178 1.327 . S
C1176 H1201 0.950 . S
C1177 C1176 1.349 . S
C1177 C1193 1.349 . S
C1178 C1176 1.327 . S
C1178 C1197 1.429 . S
C1178 H1202 0.950 . S
C1179 C1196 1.574 . S
C1179 C1198 1.368 . S
C1179 H1203 0.949 . S
H1180 C1184 0.949 . S
C1181 C1182 1.349 . S
C1181 C1183 1.327 . S
C1181 H1204 0.950 . S
C1182 C1181 1.349 . S
C1182 C1194 1.349 . S
C1183 C1181 1.327 . S
C1183 C1199 1.429 . S
C1183 H1205 0.950 . S
C1184 H1180 0.949 . S
C1184 C1192 1.574 . S
C1184 C1200 1.368 . S
H1185 C1193 0.950 . S
H1186 C1191 0.950 . S
H1187 C1192 0.949 . S
H1188 C1194 0.950 . S
H1189 C1195 0.950 . S
H1190 C1196 0.949 . S
C1191 H1186 0.950 . S
C1191 C1193 1.327 . S
C1191 C1197 1.429 . S
C1192 C1184 1.574 . S
C1192 H1187 0.949 . S
C1192 C1198 1.368 . S
C1193 C1177 1.349 . S
C1193 H1185 0.950 . S
C1193 C1191 1.327 . S
C1194 C1182 1.349 . S
C1194 H1188 0.950 . S
C1194 C1195 1.327 . S
C1195 H1189 0.950 . S
C1195 C1194 1.327 . S
C1195 C1199 1.429 . S
C1196 C1179 1.574 . S
C1196 H1190 0.949 . S
C1196 C1200 1.368 . S
C1197 C1178 1.429 . S
C1197 C1191 1.429 . S
C1197 C1198 1.523 . S
C1198 C1179 1.368 . S
C1198 C1192 1.368 . S
C1198 C1197 1.523 . S
C1199 C1183 1.429 . S
C1199 C1195 1.429 . S
C1199 C1200 1.523 . S
C1200 C1184 1.368 . S
C1200 C1196 1.368 . S
C1200 C1199 1.523 . S
H1201 C1176 0.950 . S
H1202 C1178 0.950 . S
H1203 C1179 0.949 . S
H1204 C1181 0.950 . S
H1205 C1183 0.950 . S
C1206 C1207 1.349 . S
C1206 C1208 1.327 . S
C1206 H1231 0.950 . S
C1207 C1206 1.349 . S
C1207 C1223 1.349 . S
C1208 C1206 1.327 . S
C1208 C1227 1.429 . S
C1208 H1232 0.950 . S
C1209 C1226 1.574 . S
C1209 C1228 1.368 . S
C1209 H1233 0.949 . S
H1210 C1214 0.949 . S
C1211 C1212 1.349 . S
C1211 C1213 1.327 . S
C1211 H1234 0.950 . S
C1212 C1211 1.349 . S
C1212 C1224 1.349 . S
C1213 C1211 1.327 . S
C1213 C1229 1.429 . S
C1213 H1235 0.950 . S
C1214 H1210 0.949 . S
C1214 C1222 1.574 . S
C1214 C1230 1.368 . S
H1215 C1223 0.950 . S
H1216 C1221 0.950 . S
H1217 C1222 0.949 . S
H1218 C1224 0.950 . S
H1219 C1225 0.950 . S
H1220 C1226 0.949 . S
C1221 H1216 0.950 . S
C1221 C1223 1.327 . S
C1221 C1227 1.429 . S
C1222 C1214 1.574 . S
C1222 H1217 0.949 . S
C1222 C1228 1.368 . S
C1223 C1207 1.349 . S
C1223 H1215 0.950 . S
C1223 C1221 1.327 . S
C1224 C1212 1.349 . S
C1224 H1218 0.950 . S
C1224 C1225 1.327 . S
C1225 H1219 0.950 . S
C1225 C1224 1.327 . S
C1225 C1229 1.429 . S
C1226 C1209 1.574 . S
C1226 H1220 0.949 . S
C1226 C1230 1.368 . S
C1227 C1208 1.429 . S
C1227 C1221 1.429 . S
C1227 C1228 1.523 . S
C1228 C1209 1.368 . S
C1228 C1222 1.368 . S
C1228 C1227 1.523 . S
C1229 C1213 1.429 . S
C1229 C1225 1.429 . S
C1229 C1230 1.523 . S
C1230 C1214 1.368 . S
C1230 C1226 1.368 . S
C1230 C1229 1.523 . S
H1231 C1206 0.950 . S
H1232 C1208 0.950 . S
H1233 C1209 0.949 . S
H1234 C1211 0.950 . S
H1235 C1213 0.950 . S
C1236 C1237 1.349 . S
C1236 C1238 1.327 . S
C1236 H1261 0.950 . S
C1237 C1236 1.349 . S
C1237 C1253 1.349 . S
C1238 C1236 1.327 . S
C1238 C1257 1.429 . S
C1238 H1262 0.950 . S
C1239 C1256 1.574 . S
C1239 C1258 1.368 . S
C1239 H1263 0.949 . S
H1240 C1244 0.949 . S
C1241 C1242 1.349 . S
C1241 C1243 1.327 . S
C1241 H1264 0.950 . S
C1242 C1241 1.349 . S
C1242 C1254 1.349 . S
C1243 C1241 1.327 . S
C1243 C1259 1.429 . S
C1243 H1265 0.950 . S
C1244 H1240 0.949 . S
C1244 C1252 1.574 . S
C1244 C1260 1.368 . S
H1245 C1253 0.950 . S
H1246 C1251 0.950 . S
H1247 C1252 0.949 . S
H1248 C1254 0.950 . S
H1249 C1255 0.950 . S
H1250 C1256 0.949 . S
C1251 H1246 0.950 . S
C1251 C1253 1.327 . S
C1251 C1257 1.429 . S
C1252 C1244 1.574 . S
C1252 H1247 0.949 . S
C1252 C1258 1.368 . S
C1253 C1237 1.349 . S
C1253 H1245 0.950 . S
C1253 C1251 1.327 . S
C1254 C1242 1.349 . S
C1254 H1248 0.950 . S
C1254 C1255 1.327 . S
C1255 H1249 0.950 . S
C1255 C1254 1.327 . S
C1255 C1259 1.429 . S
C1256 C1239 1.574 . S
C1256 H1250 0.949 . S
C1256 C1260 1.368 . S
C1257 C1238 1.429 . S
C1257 C1251 1.429 . S
C1257 C1258 1.523 . S
C1258 C1239 1.368 . S
C1258 C1252 1.368 . S
C1258 C1257 1.523 . S
C1259 C1243 1.429 . S
C1259 C1255 1.429 . S
C1259 C1260 1.523 . S
C1260 C1244 1.368 . S
C1260 C1256 1.368 . S
C1260 C1259 1.523 . S
H1261 C1236 0.950 . S
H1262 C1238 0.950 . S
H1263 C1239 0.949 . S
H1264 C1241 0.950 . S
H1265 C1243 0.950 . S
C1266 C1267 1.349 . S
C1266 C1268 1.327 . S
C1266 H1291 0.950 . S
C1267 C1266 1.349 . S
C1267 C1283 1.349 . S
C1268 C1266 1.327 . S
C1268 C1287 1.429 . S
C1268 H1292 0.950 . S
C1269 C1286 1.574 . S
C1269 C1288 1.368 . S
C1269 H1293 0.949 . S
H1270 C1274 0.949 . S
C1271 C1272 1.349 . S
C1271 C1273 1.327 . S
C1271 H1294 0.950 . S
C1272 C1271 1.349 . S
C1272 C1284 1.349 . S
C1273 C1271 1.327 . S
C1273 C1289 1.429 . S
C1273 H1295 0.950 . S
C1274 H1270 0.949 . S
C1274 C1282 1.574 . S
C1274 C1290 1.368 . S
H1275 C1283 0.950 . S
H1276 C1281 0.950 . S
H1277 C1282 0.949 . S
H1278 C1284 0.950 . S
H1279 C1285 0.950 . S
H1280 C1286 0.949 . S
C1281 H1276 0.950 . S
C1281 C1283 1.327 . S
C1281 C1287 1.429 . S
C1282 C1274 1.574 . S
C1282 H1277 0.949 . S
C1282 C1288 1.368 . S
C1283 C1267 1.349 . S
C1283 H1275 0.950 . S
C1283 C1281 1.327 . S
C1284 C1272 1.349 . S
C1284 H1278 0.950 . S
C1284 C1285 1.327 . S
C1285 H1279 0.950 . S
C1285 C1284 1.327 . S
C1285 C1289 1.429 . S
C1286 C1269 1.574 . S
C1286 H1280 0.949 . S
C1286 C1290 1.368 . S
C1287 C1268 1.429 . S
C1287 C1281 1.429 . S
C1287 C1288 1.523 . S
C1288 C1269 1.368 . S
C1288 C1282 1.368 . S
C1288 C1287 1.523 . S
C1289 C1273 1.429 . S
C1289 C1285 1.429 . S
C1289 C1290 1.523 . S
C1290 C1274 1.368 . S
C1290 C1286 1.368 . S
C1290 C1289 1.523 . S
H1291 C1266 0.950 . S
H1292 C1268 0.950 . S
H1293 C1269 0.949 . S
H1294 C1271 0.950 . S
H1295 C1273 0.950 . S
C1296 C1297 1.349 . S
C1296 C1298 1.327 . S
C1296 H1321 0.950 . S
C1297 C1296 1.349 . S
C1297 C1313 1.349 . S
C1298 C1296 1.327 . S
C1298 C1317 1.429 . S
C1298 H1322 0.950 . S
C1299 C1316 1.574 . S
C1299 C1318 1.368 . S
C1299 H1323 0.949 . S
H1300 C1304 0.949 . S
C1301 C1302 1.349 . S
C1301 C1303 1.327 . S
C1301 H1324 0.950 . S
C1302 C1301 1.349 . S
C1302 C1314 1.349 . S
C1303 C1301 1.327 . S
C1303 C1319 1.429 . S
C1303 H1325 0.950 . S
C1304 H1300 0.949 . S
C1304 C1312 1.574 . S
C1304 C1320 1.368 . S
H1305 C1313 0.950 . S
H1306 C1311 0.950 . S
H1307 C1312 0.949 . S
H1308 C1314 0.950 . S
H1309 C1315 0.950 . S
H1310 C1316 0.949 . S
C1311 H1306 0.950 . S
C1311 C1313 1.327 . S
C1311 C1317 1.429 . S
C1312 C1304 1.574 . S
C1312 H1307 0.949 . S
C1312 C1318 1.368 . S
C1313 C1297 1.349 . S
C1313 H1305 0.950 . S
C1313 C1311 1.327 . S
C1314 C1302 1.349 . S
C1314 H1308 0.950 . S
C1314 C1315 1.327 . S
C1315 H1309 0.950 . S
C1315 C1314 1.327 . S
C1315 C1319 1.429 . S
C1316 C1299 1.574 . S
C1316 H1310 0.949 . S
C1316 C1320 1.368 . S
C1317 C1298 1.429 . S
C1317 C1311 1.429 . S
C1317 C1318 1.523 . S
C1318 C1299 1.368 . S
C1318 C1312 1.368 . S
C1318 C1317 1.523 . S
C1319 C1303 1.429 . S
C1319 C1315 1.429 . S
C1319 C1320 1.523 . S
C1320 C1304 1.368 . S
C1320 C1316 1.368 . S
C1320 C1319 1.523 . S
H1321 C1296 0.950 . S
H1322 C1298 0.950 . S
H1323 C1299 0.949 . S
H1324 C1301 0.950 . S
H1325 C1303 0.950 . S
C607 C39 1.765 . S
C612 C339 1.752 . S
C637 C91 1.723 . S
C642 C396 1.724 . S
C672 C450 1.568 . S
C667 C128 1.593 . S
C702 C507 1.504 . S
C697 C188 1.541 . S
C732 C531 1.638 . S
C727 C250 1.644 . S
C762 C588 1.721 . S
C757 C304 1.723 . S
C787 C75 1.652 . S
C792 C435 1.638 . S
C817 C144 1.748 . S
C822 C492 1.748 . S
C852 C546 1.677 . S
C847 C198 1.701 . S
C882 C603 1.520 . S
C877 C234 1.561 . S
C907 C294 1.536 . S
C912 C354 1.516 . S
C942 C411 1.531 . S
C937 C29 1.564 . S
C972 C498 1.752 . S
C967 C38 1.765 . S
C997 C92 1.723 . S
C1002 C540 1.686 . S
C1032 C579 1.568 . S
C1027 C135 1.593 . S
C1057 C181 1.541 . S
C1062 C348 1.504 . S
C1087 C251 1.644 . S
C1092 C387 1.624 . S
C1117 C303 1.723 . S
C1122 C459 1.721 . S
C1147 C82 1.652 . S
C1152 C594 1.638 . S
C1182 C363 1.748 . S
C1177 C145 1.748 . S
C1207 C197 1.701 . S
C1212 C402 1.691 . S
C1237 C241 1.561 . S
C1242 C444 1.520 . S
C1267 C287 1.536 . S
C1272 C483 1.516 . S
C1297 C22 1.564 . S
C1302 C555 1.565 . S
