# Generated by pormake.
# Topology zzz, (3,6)-cn, num edge types: 1
# Building blocks:
#     Node 0, Type 0, BuildingBlock: KAKCAD_clean_linker_0, # of connection points: 3
#     Node 1, Type 0, BuildingBlock: KAKCAD_clean_linker_0, # of connection points: 3
#     Node 2, Type 0, BuildingBlock: KAKCAD_clean_linker_0, # of connection points: 3
#     Node 3, Type 0, BuildingBlock: KAKCAD_clean_linker_0, # of connection points: 3
#     Node 4, Type 0, BuildingBlock: KAKCAD_clean_linker_0, # of connection points: 3
#     Node 5, Type 0, BuildingBlock: KAKCAD_clean_linker_0, # of connection points: 3
#     Node 6, Type 0, BuildingBlock: KAKCAD_clean_linker_0, # of connection points: 3
#     Node 7, Type 0, BuildingBlock: KAKCAD_clean_linker_0, # of connection points: 3
#     Node 8, Type 1, BuildingBlock: KUMJIN_clean_sbu_1, # of connection points: 6
#     Node 9, Type 1, BuildingBlock: KUMJIN_clean_sbu_1, # of connection points: 6
#     Node 10, Type 1, BuildingBlock: KUMJIN_clean_sbu_1, # of connection points: 6
#     Node 11, Type 1, BuildingBlock: KUMJIN_clean_sbu_1, # of connection points: 6
#     Edge 12, Type (0, 1), BuildingBlock: XUDNAN_clean_linker_2, # of connection points: 2
#     Edge 13, Type (0, 1), BuildingBlock: XUDNAN_clean_linker_2, # of connection points: 2
#     Edge 14, Type (0, 1), BuildingBlock: XUDNAN_clean_linker_2, # of connection points: 2
#     Edge 15, Type (0, 1), BuildingBlock: XUDNAN_clean_linker_2, # of connection points: 2
#     Edge 16, Type (0, 1), BuildingBlock: XUDNAN_clean_linker_2, # of connection points: 2
#     Edge 17, Type (0, 1), BuildingBlock: XUDNAN_clean_linker_2, # of connection points: 2
#     Edge 18, Type (0, 1), BuildingBlock: XUDNAN_clean_linker_2, # of connection points: 2
#     Edge 19, Type (0, 1), BuildingBlock: XUDNAN_clean_linker_2, # of connection points: 2
#     Edge 20, Type (0, 1), BuildingBlock: XUDNAN_clean_linker_2, # of connection points: 2
#     Edge 21, Type (0, 1), BuildingBlock: XUDNAN_clean_linker_2, # of connection points: 2
#     Edge 22, Type (0, 1), BuildingBlock: XUDNAN_clean_linker_2, # of connection points: 2
#     Edge 23, Type (0, 1), BuildingBlock: XUDNAN_clean_linker_2, # of connection points: 2
#     Edge 24, Type (0, 1), BuildingBlock: XUDNAN_clean_linker_2, # of connection points: 2
#     Edge 25, Type (0, 1), BuildingBlock: XUDNAN_clean_linker_2, # of connection points: 2
#     Edge 26, Type (0, 1), BuildingBlock: XUDNAN_clean_linker_2, # of connection points: 2
#     Edge 27, Type (0, 1), BuildingBlock: XUDNAN_clean_linker_2, # of connection points: 2
#     Edge 28, Type (0, 1), BuildingBlock: XUDNAN_clean_linker_2, # of connection points: 2
#     Edge 29, Type (0, 1), BuildingBlock: XUDNAN_clean_linker_2, # of connection points: 2
#     Edge 30, Type (0, 1), BuildingBlock: XUDNAN_clean_linker_2, # of connection points: 2
#     Edge 31, Type (0, 1), BuildingBlock: XUDNAN_clean_linker_2, # of connection points: 2
#     Edge 32, Type (0, 1), BuildingBlock: XUDNAN_clean_linker_2, # of connection points: 2
#     Edge 33, Type (0, 1), BuildingBlock: XUDNAN_clean_linker_2, # of connection points: 2
#     Edge 34, Type (0, 1), BuildingBlock: XUDNAN_clean_linker_2, # of connection points: 2
#     Edge 35, Type (0, 1), BuildingBlock: XUDNAN_clean_linker_2, # of connection points: 2
# Relax obj value: 0.310
# Max RMSD: 0.207
# Mean RMSD: 0.180
data_MOF--net-zzz--node1-KUMJIN_clean_sbu_1--node2-KAKCAD_clean_linker_0--edge1-XUDNAN_clean_linker_2
_symmetry_space_group_name_H-M    P1
_symmetry_Int_Tables_number       1
_symmetry_cell_setting            triclinic
loop_
_symmetry_equiv_pos_as_xyz
'x, y, z'
_cell_length_a     56.781311
_cell_length_b     56.756497
_cell_length_c     21.020964
_cell_angle_alpha  89.986759
_cell_angle_beta   90.114695
_cell_angle_gamma 90.215961
loop_
_atom_site_label
_atom_site_type_symbol
_atom_site_fract_x
_atom_site_fract_y
_atom_site_fract_z
_atom_type_partial_charge
C0 C 0.79391 0.63536 0.02198 0.0
C1 C 0.81794 0.62946 0.02316 0.0
C2 C 0.77857 0.62642 0.06838 0.0
C3 C 0.78694 0.61109 0.11606 0.0
C4 C 0.81141 0.60765 0.12099 0.0
C5 C 0.82664 0.61685 0.07569 0.0
C6 C 0.77071 0.59537 0.15279 0.0
C7 C 0.75033 0.58619 0.12391 0.0
C8 C 0.73824 0.56667 0.1496 0.0
C9 C 0.74723 0.55604 0.20571 0.0
C10 C 0.76728 0.56569 0.23662 0.0
C11 C 0.77788 0.58596 0.21136 0.0
C12 C 0.78034 0.55347 0.28874 0.0
C13 C 0.78707 0.56602 0.34365 0.0
C14 C 0.7913 0.5318 0.27654 0.0
C15 C 0.80962 0.52369 0.31578 0.0
C16 C 0.81742 0.53693 0.36876 0.0
C17 C 0.71687 0.5576 0.11492 0.0
C18 C 0.69589 0.55219 0.14721 0.0
C19 C 0.71653 0.55706 0.04786 0.0
C20 C 0.69558 0.55322 1.01412 0.0
C21 C 0.67416 0.54926 0.0461 0.0
C22 C 0.67486 0.54799 0.11332 0.0
C23 C 0.80524 0.55783 0.38325 0.0
H24 H 0.78669 0.64537 0.98268 0.0
H25 H 0.75997 0.63025 0.06417 0.0
H26 H 0.81891 0.59583 0.15587 0.0
H27 H 0.84493 0.61158 0.0784 0.0
H28 H 0.74433 0.59362 0.07939 0.0
H29 H 0.79325 0.59321 0.235 0.0
H30 H 0.7391 0.54018 0.22426 0.0
H31 H 0.77918 0.58295 0.35388 0.0
H32 H 0.787 0.52203 0.23376 0.0
H33 H 0.81856 0.50767 0.30207 0.0
H34 H 0.69544 0.55231 0.19872 0.0
H35 H 0.73244 0.56056 0.02104 0.0
H36 H 0.81019 0.56833 0.42416 0.0
H37 H 0.65904 0.54428 0.14017 0.0
H38 H 0.69615 0.55449 0.96279 0.0
C39 C 0.91196 0.79767 0.95553 0.0
C40 C 0.92116 0.82039 0.94576 0.0
C41 C 0.91593 0.78594 1.01317 0.0
C42 C 0.92952 0.7966 0.0615 0.0
C43 C 0.93602 0.82036 0.05433 0.0
C44 C 0.9318 0.83213 0.99739 0.0
C45 C 0.94107 0.78222 0.11202 0.0
C46 C 0.95029 0.76015 0.09631 0.0
C47 C 0.96652 0.74856 0.13584 0.0
C48 C 0.97303 0.75931 0.19438 0.0
C49 C 0.9631 0.78132 0.21244 0.0
C50 C 0.94687 0.79213 0.17107 0.0
C51 C 0.97105 0.79529 0.2694 0.0
C52 C 0.95448 0.80799 0.30558 0.0
C53 C 0.99506 0.79987 0.28024 0.0
C54 C 1.00218 0.81796 0.322 0.0
C55 C 0.9855 0.83211 0.35392 0.0
C56 C 0.97685 0.72601 0.11115 0.0
C57 C 0.97598 0.70497 0.14622 0.0
C58 C 0.98389 0.72473 0.04701 0.0
C59 C 0.98765 0.70306 0.01703 0.0
C60 C 0.98524 0.68166 0.05046 0.0
C61 C 0.9803 0.68311 0.11645 0.0
C62 C 0.96155 0.82614 0.3469 0.0
H63 H 0.90335 0.7883 0.91703 0.0
H64 H 0.90996 0.76788 0.01785 0.0
H65 H 0.94662 0.82929 0.08981 0.0
H66 H 0.93937 0.84955 0.99187 0.0
H67 H 0.94588 0.7524 0.05071 0.0
H68 H 0.93985 0.80929 0.18307 0.0
H69 H 0.98603 0.75099 0.22463 0.0
H70 H 0.9358 0.80486 0.29893 0.0
H71 H 1.00834 0.79058 0.25324 0.0
H72 H 0.02085 0.82139 0.32732 0.0
H73 H 0.97069 0.70524 0.19569 0.0
H74 H 0.98509 0.74061 0.01853 0.0
H75 H 0.94805 0.8364 0.37018 0.0
H76 H 0.97907 0.66736 0.1452 0.0
H77 H 0.99118 0.70334 0.96654 0.0
C78 C 0.72117 0.92461 1.00712 0.0
C79 C 0.69749 0.93117 0.0143 0.0
C80 C 0.73808 0.93176 0.0521 0.0
C81 C 0.73166 0.94616 0.10395 0.0
C82 C 0.70773 0.95198 0.11123 0.0
C83 C 0.69097 0.94436 0.06777 0.0
C84 C 0.74951 0.95727 0.14705 0.0
C85 C 0.77183 0.96409 0.1246 0.0
C86 C 0.78666 0.9788 0.16097 0.0
C87 C 0.77844 0.98763 0.21996 0.0
C88 C 0.75644 0.98004 0.24402 0.0
C89 C 0.74295 0.96406 0.20869 0.0
C90 C 0.74516 0.9898 0.30213 0.0
C91 C 0.74349 0.97581 0.3571 0.0
C92 C 0.73005 1.00925 0.29613 0.0
C93 C 0.71284 0.01387 0.34235 0.0
C94 C 0.71031 0.99916 0.39591 0.0
C95 C 0.80996 0.98553 0.13359 0.0
C96 C 0.82638 0.96798 0.11797 0.0
C97 C 0.8146 1.00878 0.11463 0.0
C98 C 0.83484 0.01422 0.07902 0.0
C99 C 0.85126 0.99661 0.06219 0.0
C100 C 0.84683 0.97345 0.08347 0.0
C101 C 0.72645 0.98055 0.40367 0.0
H102 H 0.72668 0.91466 0.96582 0.0
H103 H 0.75622 0.92661 0.04502 0.0
H104 H 0.70182 0.96375 0.14833 0.0
H105 H 0.67303 0.95045 0.07369 0.0
H106 H 0.77736 0.95912 0.07719 0.0
H107 H 0.72635 0.95807 0.22838 0.0
H108 H 0.78903 1.00006 0.2468 0.0
H109 H 0.7543 0.96022 0.36189 0.0
H110 H 0.73042 0.01988 0.2533 0.0
H111 H 0.70096 0.02852 0.33501 0.0
H112 H 0.82314 0.94984 0.13157 0.0
H113 H 0.802 0.02256 0.1247 0.0
H114 H 0.72496 0.96867 0.44379 0.0
H115 H 0.85904 0.95937 0.07322 0.0
H116 H 0.83705 0.03219 0.06287 0.0
C117 C 0.51163 0.72421 0.31435 0.0
C118 C 0.52727 0.71464 0.35989 0.0
C119 C 0.51872 0.74266 0.27374 0.0
C120 C 0.54162 0.75202 0.27749 0.0
C121 C 0.55678 0.74335 0.32506 0.0
C122 C 0.54972 0.72504 0.36571 0.0
C123 C 0.55159 0.76637 0.22413 0.0
C124 C 0.54246 0.78841 0.20419 0.0
C125 C 0.55249 0.80022 0.15117 0.0
C126 C 0.57102 0.78958 0.11787 0.0
C127 C 0.5796 0.76742 0.13577 0.0
C128 C 0.5701 0.75632 0.18956 0.0
C129 C 0.59543 0.75386 0.0932 0.0
C130 C 0.59069 0.75315 0.02761 0.0
C131 C 0.61194 0.73797 0.1186 0.0
C132 C 0.62058 0.71954 0.08137 0.0
C133 C 0.61295 0.71684 0.01815 0.0
C134 C 0.54385 0.82327 0.1267 0.0
C135 C 0.52797 0.82392 0.07533 0.0
C136 C 0.55541 0.8442 0.14422 0.0
C137 C 0.55156 0.8652 0.11043 0.0
C138 C 0.53615 0.86584 0.05767 0.0
C139 C 0.52409 0.84492 0.04142 0.0
C140 C 0.59944 0.73485 0.99038 0.0
H141 H 0.49427 0.71666 0.30768 0.0
H142 H 0.50682 0.74851 0.23667 0.0
H143 H 0.57463 0.75003 0.32877 0.0
H144 H 0.56214 0.71868 0.40083 0.0
H145 H 0.52784 0.79624 0.22946 0.0
H146 H 0.57602 0.7388 0.20238 0.0
H147 H 0.5783 0.79834 0.07644 0.0
H148 H 0.57811 0.76509 1.00627 0.0
H149 H 0.61648 0.7385 0.16865 0.0
H150 H 0.63133 0.70613 0.10371 0.0
H151 H 0.51932 0.80788 0.05964 0.0
H152 H 0.56835 0.84404 0.18217 0.0
H153 H 0.59314 0.73337 0.94187 0.0
H154 H 0.51189 0.84464 1.00177 0.0
H155 H 0.56153 0.88071 0.12404 0.0
C156 C 0.22401 0.45293 0.33142 0.0
C157 C 0.20533 0.43746 0.31657 0.0
C158 C 0.24074 0.45887 0.28593 0.0
C159 C 0.23924 0.4497 0.22408 0.0
C160 C 0.22207 0.43249 0.21071 0.0
C161 C 0.20536 0.42627 0.25676 0.0
C162 C 0.25303 0.46113 0.17265 0.0
C163 C 0.2762 0.46848 0.18405 0.0
C164 C 0.28754 0.48445 0.14342 0.0
C165 C 0.27552 0.49277 0.08871 0.0
C166 C 0.25244 0.48448 0.07493 0.0
C167 C 0.24163 0.46858 0.11706 0.0
C168 C 0.23754 0.49379 0.02206 0.0
C169 C 0.22823 0.51663 0.02605 0.0
C170 C 0.2277 0.47807 0.97739 0.0
C171 C 0.20806 0.4845 0.94058 0.0
C172 C 0.19747 0.50668 0.94845 0.0
C173 C 0.31126 0.49281 0.16389 0.0
C174 C 0.31307 0.50789 0.21681 0.0
C175 C 0.33144 0.48063 0.14423 0.0
C176 C 0.35252 0.48229 0.17916 0.0
C177 C 0.35388 0.496 0.2351 0.0
C178 C 0.33411 0.50956 0.25179 0.0
C179 C 0.20838 0.52297 0.98988 0.0
H180 H 0.22466 0.46237 0.37609 0.0
H181 H 0.25354 0.47239 0.2978 0.0
H182 H 0.22075 0.42483 0.16364 0.0
H183 H 0.1916 0.41387 0.24402 0.0
H184 H 0.28516 0.46262 0.22685 0.0
H185 H 0.22342 0.46355 0.10899 0.0
H186 H 0.28379 0.50569 0.05801 0.0
H187 H 0.23507 0.52895 0.0609 0.0
H188 H 0.2342 0.46019 0.97421 0.0
H189 H 0.20009 0.47146 0.90961 0.0
H190 H 0.2976 0.51696 0.23415 0.0
H191 H 0.33042 0.46845 0.10464 0.0
H192 H 0.20081 0.54026 0.99679 0.0
H193 H 0.33425 0.52015 0.29462 0.0
H194 H 0.36744 0.4719 0.16396 0.0
C195 C 0.08333 0.22857 0.34654 0.0
C196 C 0.10123 0.21222 0.33288 0.0
C197 C 0.07548 0.24424 0.30039 0.0
C198 C 0.08515 0.24396 0.23907 0.0
C199 C 0.10417 0.22892 0.22634 0.0
C200 C 0.11226 0.21329 0.27301 0.0
C201 C 0.07349 0.25755 0.18779 0.0
C202 C 0.06544 0.28037 0.19966 0.0
C203 C 0.05119 0.29228 0.15583 0.0
C204 C 0.04512 0.28102 0.09768 0.0
C205 C 0.05367 0.25802 0.08451 0.0
C206 C 0.06787 0.2467 0.12987 0.0
C207 C 0.04807 0.24449 0.02536 0.0
C208 C 0.02633 0.2328 0.01832 0.0
C209 C 0.06645 0.23853 0.98377 0.0
C210 C 0.06351 0.22088 0.93772 0.0
C211 C 0.04209 0.20838 0.93192 0.0
C212 C 0.04306 0.31618 0.17525 0.0
C213 C 0.02691 0.31819 0.22566 0.0
C214 C 0.05647 0.33609 0.15874 0.0
C215 C 0.05494 0.35698 0.19451 0.0
C216 C 0.04008 0.35845 0.24815 0.0
C217 C 0.02533 0.33905 0.2614 0.0
C218 C 0.02336 0.21498 0.97219 0.0
H219 H 0.07385 0.22812 0.39114 0.0
H220 H 0.0606 0.25538 0.31153 0.0
H221 H 0.11217 0.22862 0.17961 0.0
H222 H 0.1263 0.20122 0.26106 0.0
H223 H 0.06996 0.28888 0.24431 0.0
H224 H 0.07365 0.2288 0.12108 0.0
H225 H 0.03397 0.28992 0.06351 0.0
H226 H 0.01204 0.23652 0.05083 0.0
H227 H 0.08361 0.2467 0.98926 0.0
H228 H 0.07855 0.21623 0.90884 0.0
H229 H 0.01686 0.30292 0.24075 0.0
H230 H 0.0695 0.33493 0.12131 0.0
H231 H 1.00653 0.20602 0.96905 0.0
H232 H 0.0138 0.33926 0.30236 0.0
H233 H 0.06628 0.37162 0.18189 0.0
C234 C 0.30777 0.10108 0.27625 0.0
C235 C 0.32071 0.11877 0.24459 0.0
C236 C 0.28709 0.09211 0.24963 0.0
C237 C 0.27918 0.10039 0.19054 0.0
C238 C 0.29 0.12032 0.16375 0.0
C239 C 0.31043 0.1297 0.1912 0.0
C240 C 0.26493 0.08437 0.1505 0.0
C241 C 0.24412 0.07429 0.17349 0.0
C242 C 0.23416 0.05445 0.14382 0.0
C243 C 0.2457 0.04434 0.09051 0.0
C244 C 0.2663 0.05507 0.06533 0.0
C245 C 0.2753 0.07525 0.09547 0.0
C246 C 0.28097 0.04464 1.01324 0.0
C247 C 0.29003 0.02174 0.01881 0.0
C248 C 0.29038 0.05942 0.96561 0.0
C249 C 0.30969 0.05236 0.92876 0.0
C250 C 0.32022 0.03022 0.93818 0.0
C251 C 0.21313 0.04369 0.17474 0.0
C252 C 0.21593 0.02461 0.21636 0.0
C253 C 0.19142 0.05555 0.17409 0.0
C254 C 0.17302 0.04867 0.21483 0.0
C255 C 0.17599 0.03004 0.25851 0.0
C256 C 0.19773 0.01796 0.25783 0.0
C257 C 0.30935 0.01461 0.9817 0.0
H258 H 0.31483 0.0921 0.31744 0.0
H259 H 0.27908 0.07671 0.27122 0.0
H260 H 0.284 0.12715 0.11842 0.0
H261 H 0.31937 0.14397 0.16691 0.0
H262 H 0.2364 0.08109 0.21691 0.0
H263 H 0.29196 0.08259 0.0796 0.0
H264 H 0.23882 0.02834 0.06927 0.0
H265 H 0.28339 1.00995 0.05518 0.0
H266 H 0.28384 0.07722 0.96007 0.0
H267 H 0.31736 0.065 0.89616 0.0
H268 H 0.23274 0.01569 0.21951 0.0
H269 H 0.18899 0.07071 0.1435 0.0
H270 H 0.31646 0.99716 0.98937 0.0
H271 H 0.20127 1.00394 0.29133 0.0
H272 H 0.15661 0.05828 0.21264 0.0
C273 C 0.47662 0.32822 0.95189 0.0
C274 C 0.50025 0.33542 0.94542 0.0
C275 C 0.47043 0.30971 0.99293 0.0
C276 C 0.48759 0.29785 0.0293 0.0
C277 C 0.51136 0.30357 0.01883 0.0
C278 C 0.51761 0.32204 0.97734 0.0
C279 C 0.4803 0.28422 0.08724 0.0
C280 C 0.48963 0.26187 0.10422 0.0
C281 C 0.48294 0.25111 0.16248 0.0
C282 C 0.46872 0.2637 0.20498 0.0
C283 C 0.46001 0.28611 0.19 0.0
C284 C 0.46494 0.2955 0.12972 0.0
C285 C 0.44877 0.30091 0.24028 0.0
C286 C 0.43682 0.29063 0.29226 0.0
C287 C 0.45281 0.32541 0.24119 0.0
C288 C 0.4469 0.33878 0.29416 0.0
C289 C 0.43741 0.328 0.34839 0.0
C290 C 0.49078 0.2272 0.18351 0.0
C291 C 0.47368 0.21079 0.20368 0.0
C292 C 0.51456 0.22242 0.19674 0.0
C293 C 0.52089 0.20236 0.2324 0.0
C294 C 0.50356 0.18672 0.25596 0.0
C295 C 0.47994 0.19091 0.23931 0.0
C296 C 0.43166 0.30397 0.34645 0.0
H297 H 0.46262 0.33787 0.92868 0.0
H298 H 0.45192 0.30576 0.99973 0.0
H299 H 0.52503 0.29496 0.0462 0.0
H300 H 0.53608 0.32646 0.97247 0.0
H301 H 0.50153 0.25287 0.07228 0.0
H302 H 0.45783 0.31253 0.11689 0.0
H303 H 0.46553 0.25624 0.2516 0.0
H304 H 0.43261 0.27202 0.29278 0.0
H305 H 0.46231 0.33422 0.20348 0.0
H306 H 0.45193 0.35722 0.29491 0.0
H307 H 0.45518 0.21405 0.19463 0.0
H308 H 0.52808 0.23493 0.18307 0.0
H309 H 0.42437 0.29532 0.38794 0.0
H310 H 0.46613 0.17907 0.25511 0.0
H311 H 0.53926 0.19979 0.24427 0.0
Eu312 Eu 0.99576 0.02725 0.60595 0.0
C313 C 0.07662 0.03976 0.78618 0.0
N314 N 0.07417 0.0239 0.73805 0.0
C315 C 0.11207 0.03517 0.6973 0.0
C316 C 0.09647 0.05474 0.78988 0.0
C317 C 0.09227 0.02046 0.69634 0.0
C318 C 0.11398 0.05271 0.74353 0.0
C319 C 0.06243 0.0553 0.88658 0.0
C320 C 0.05985 0.04016 0.83392 0.0
C321 C 0.08169 0.07086 0.88919 0.0
C322 C 0.09861 0.07066 0.84077 0.0
Eu323 Eu 0.03879 1.0012 0.73831 0.0
N324 N 0.04104 0.02543 0.82919 0.0
C325 C 0.04575 0.05408 0.93545 0.0
C326 C 0.02498 0.02375 0.87718 0.0
C327 C 0.02697 0.03819 0.9308 0.0
H328 H 0.09193 1.00605 0.66305 0.0
H329 H 0.01408 0.03702 0.96854 0.0
H330 H 0.94438 1.00278 0.64828 0.0
H331 H 0.03683 0.02869 0.37036 0.0
H332 H 0.01058 1.01131 0.87373 0.0
H333 H 0.04732 0.06518 0.97718 0.0
H334 H 0.0278 0.04397 0.47735 0.0
H335 H 0.12606 0.03267 0.66309 0.0
H336 H 0.08385 0.08284 0.92891 0.0
H337 H 0.11363 0.08244 0.84404 0.0
H338 H 0.91656 0.97248 0.60776 0.0
H339 H 0.12948 0.0639 0.74463 0.0
H340 H 0.01521 0.99404 0.3286 0.0
N341 N 0.96745 0.99983 0.56928 0.0
C342 C 0.97122 0.99042 0.51082 0.0
C343 C 0.93195 0.97726 0.58025 0.0
C344 C 0.95596 0.97307 0.48595 0.0
C345 C 0.94761 0.99439 0.60297 0.0
C346 C 0.9363 0.96633 0.52187 0.0
N347 N 1.00333 0.01663 0.49891 0.0
C348 C 0.01903 0.0282 0.46082 0.0
C349 C 0.99389 0.98999 0.41324 0.0
C350 C 0.98995 0.99881 0.47502 0.0
C351 C 0.01159 1.00034 0.37624 0.0
C352 C 0.02387 0.01987 0.39965 0.0
H353 H 0.92412 0.95309 0.50436 0.0
H354 H 0.94912 0.94994 0.40591 0.0
H355 H 0.98245 0.96459 0.34252 0.0
O356 O 0.97839 0.05077 0.53865 0.0
O357 O 0.99352 0.98816 0.63235 0.0
O358 O 0.03157 0.97831 0.65127 0.0
O359 O 0.97202 0.05485 0.63903 0.0
O360 O 0.0353 0.03195 0.58586 0.0
O361 O 0.05173 0.99975 0.6355 0.0
O362 O 0.03252 0.97339 0.80728 0.0
O363 O 0.02292 0.03803 0.74885 0.0
O364 O 0.02496 0.0503 0.6466 0.0
O365 O 0.06774 0.97887 0.7717 0.0
O366 O 0.99966 0.99424 0.75671 0.0
O367 O 0.98101 0.02542 0.7066 0.0
C368 C 0.01102 0.97341 0.62568 0.0
C369 C 0.97711 0.08911 0.57946 0.0
C370 C 1.00806 0.11824 0.56113 0.0
C371 C 0.9918 0.1362 0.57512 0.0
C372 C 0.96117 0.1071 0.59345 0.0
C373 C 0.96858 0.13059 0.59155 0.0
C374 C 1.00053 0.09473 0.56467 0.0
C375 C 0.0518 0.01571 0.58981 0.0
C376 C 0.96999 0.06432 0.58301 0.0
C377 C 0.96052 0.96343 0.4257 0.0
C378 C 0.97951 0.97179 0.38956 0.0
C379 C 0.02579 0.05509 0.70756 0.0
C380 C 0.05538 0.93956 0.78846 0.0
C381 C 0.03587 0.90254 0.75982 0.0
C382 C 0.0571 0.89057 0.77214 0.0
C383 C 0.07628 0.92733 0.80062 0.0
C384 C 0.03569 0.92724 0.76496 0.0
C385 C 0.07722 0.90299 0.79127 0.0
C386 C 0.98215 1.00935 0.75181 0.0
C387 C 0.05372 0.9649 0.80293 0.0
H388 H 0.99673 0.1546 0.57172 0.0
H389 H 0.94312 0.10298 0.60594 0.0
H390 H 0.95621 0.14452 0.60202 0.0
H391 H 0.01289 0.08063 0.55564 0.0
H392 H 0.05803 0.87155 0.76985 0.0
H393 H 0.09173 0.93655 0.81811 0.0
H394 H 0.01983 0.93685 0.75319 0.0
H395 H 0.09335 0.89358 0.80127 0.0
Eu396 Eu 0.52659 0.05078 0.71731 0.0
C397 C 0.51773 0.94938 0.58438 0.0
N398 N 0.52439 0.97053 0.56004 0.0
C399 C 0.5556 0.9519 0.50218 0.0
C400 C 0.5304 0.92868 0.5704 0.0
C401 C 0.54229 0.97184 0.51682 0.0
C402 C 0.54989 0.93028 0.52994 0.0
C403 C 0.48892 0.92633 0.64272 0.0
C404 C 0.49728 0.94817 0.61995 0.0
C405 C 0.50203 0.90582 0.63134 0.0
C406 C 0.52276 0.90701 0.59539 0.0
Eu407 Eu 0.50223 1.00367 0.59321 0.0
N408 N 0.48505 0.96829 0.63023 0.0
C409 C 0.46743 0.92573 0.67524 0.0
C410 C 0.46347 0.96766 0.65872 0.0
C411 C 0.45451 0.94645 0.68257 0.0
H412 H 0.54626 0.98821 0.49302 0.0
H413 H 0.43763 0.94609 0.70641 0.0
H414 H 0.47503 0.07657 0.74747 0.0
H415 H 0.60643 0.08645 0.6056 0.0
H416 H 0.45335 0.9836 0.6639 0.0
H417 H 0.46043 0.9093 0.69363 0.0
H418 H 0.58301 0.05709 0.66333 0.0
H419 H 0.57009 0.95318 0.46895 0.0
H420 H 0.49604 0.88891 0.64904 0.0
H421 H 0.53239 0.89096 0.58572 0.0
H422 H 0.45635 0.1155 0.73258 0.0
H423 H 0.56009 0.9148 0.51806 0.0
H424 H 0.58944 0.12541 0.58073 0.0
N425 N 0.50675 0.08653 0.70114 0.0
C426 C 0.51951 0.10413 0.67375 0.0
C427 C 0.47405 0.11248 0.71552 0.0
C428 C 0.50964 0.12664 0.66494 0.0
C429 C 0.48457 0.09044 0.72346 0.0
C430 C 0.48661 0.13064 0.68599 0.0
N431 N 0.55175 0.0777 0.66409 0.0
C432 C 0.57472 0.07328 0.64936 0.0
C433 C 0.55569 0.11727 0.62331 0.0
C434 C 0.5424 0.09945 0.65354 0.0
C435 C 0.57872 0.11223 0.60433 0.0
C436 C 0.58834 0.09022 0.61799 0.0
H437 H 0.47842 0.14771 0.67998 0.0
H438 H 0.51579 0.16189 0.62904 0.0
H439 H 0.55582 0.15356 0.59118 0.0
O440 O 0.55158 0.06763 0.78197 0.0
O441 O 0.50533 0.06091 0.62827 0.0
O442 O 0.52174 0.0359 0.55883 0.0
O443 O 0.51773 0.05636 0.81729 0.0
O444 O 0.55503 0.0261 0.67948 0.0
O445 O 0.54086 0.01504 0.58069 0.0
O446 O 0.47265 0.01967 0.54291 0.0
O447 O 0.50502 0.99022 0.69528 0.0
O448 O 0.53558 0.01227 0.73637 0.0
O449 O 0.49073 0.99006 0.50098 0.0
O450 O 0.47443 0.02349 0.65242 0.0
O451 O 0.49234 0.03396 0.74727 0.0
C452 C 0.51378 0.05692 0.57133 0.0
C453 C 0.55043 0.04971 0.88239 0.0
C454 C 0.57426 0.01576 0.91273 0.0
C455 C 0.56899 0.02037 0.97699 0.0
C456 C 0.54527 0.05395 0.94643 0.0
C457 C 0.55465 0.03937 0.99354 0.0
C458 C 0.56507 0.03077 0.86588 0.0
C459 C 0.55833 0.01769 0.62168 0.0
C460 C 0.53887 0.06342 0.83217 0.0
C461 C 0.523 0.14441 0.63561 0.0
C462 C 0.54582 0.13967 0.61411 0.0
C463 C 0.52138 0.99389 0.7385 0.0
C464 C 0.4816 0.02238 0.43468 0.0
C465 C 0.46923 0.05388 0.36284 0.0
C466 C 0.49267 0.05611 0.34178 0.0
C467 C 0.50478 0.02471 0.41207 0.0
C468 C 0.46387 0.0367 0.40917 0.0
C469 C 0.51017 0.04136 0.36557 0.0
C470 C 0.47368 0.02774 0.71421 0.0
C471 C 0.47664 1.00777 0.49105 0.0
H472 H 0.5762 1.00953 0.01462 0.0
H473 H 0.53377 0.0683 0.95982 0.0
H474 H 0.55068 0.04271 0.04306 0.0
H475 H 0.56856 0.02721 0.81619 0.0
H476 H 0.49768 0.06955 0.30784 0.0
H477 H 0.51892 0.01426 0.43185 0.0
H478 H 0.44604 0.03463 0.42656 0.0
H479 H 0.52815 0.04334 0.34933 0.0
Eu480 Eu 0.53529 0.51067 0.59369 0.0
C481 C 0.43887 0.49945 0.71583 0.0
N482 N 0.44496 0.51903 0.68273 0.0
C483 C 0.40843 0.51724 0.62537 0.0
C484 C 0.41785 0.48711 0.70242 0.0
C485 C 0.42939 0.52893 0.64101 0.0
C486 C 0.40291 0.49589 0.65503 0.0
C487 C 0.44555 0.47464 0.80775 0.0
C488 C 0.45239 0.49338 0.76777 0.0
C489 C 0.42571 0.46101 0.79168 0.0
C490 C 0.41184 0.46725 0.73904 0.0
Eu491 Eu 0.48273 0.53531 0.70478 0.0
N492 N 0.47097 0.50734 0.78261 0.0
C493 C 0.45818 0.47095 0.86414 0.0
C494 C 0.48197 0.50523 0.84025 0.0
C495 C 0.47615 0.48664 0.88113 0.0
H496 H 0.43356 0.54553 0.61825 0.0
H497 H 0.48556 0.4844 0.92554 0.0
H498 H 0.58134 0.54593 0.61996 0.0
H499 H 0.50152 0.47918 0.36448 0.0
H500 H 0.49609 0.51721 0.8529 0.0
H501 H 0.45358 0.45667 0.89606 0.0
H502 H 0.50987 0.47695 0.47939 0.0
H503 H 0.39651 0.52474 0.59073 0.0
H504 H 0.42036 0.44628 0.82118 0.0
H505 H 0.39597 0.45728 0.72884 0.0
H506 H 0.60678 0.5736 0.56038 0.0
H507 H 0.38657 0.48696 0.64325 0.0
H508 H 0.51877 0.5114 0.30021 0.0
N509 N 0.55959 0.53798 0.5403 0.0
C510 C 0.55603 0.54064 0.47691 0.0
C511 C 0.59245 0.5646 0.53646 0.0
C512 C 0.57015 0.55616 0.44094 0.0
C513 C 0.57796 0.54903 0.57009 0.0
C514 C 0.58844 0.56831 0.47168 0.0
N515 N 0.52849 0.50952 0.48226 0.0
C516 C 0.51621 0.4919 0.4527 0.0
C517 C 0.53648 0.52752 0.38061 0.0
C518 C 0.5396 0.52629 0.44717 0.0
C519 C 0.5217 0.51101 0.35116 0.0
C520 C 0.51192 0.4928 0.38723 0.0
H521 H 0.59983 0.58022 0.4456 0.0
H522 H 0.57661 0.57047 0.34694 0.0
H523 H 0.54689 0.54558 0.29417 0.0
O524 O 0.56087 0.48837 0.54556 0.0
O525 O 0.53029 0.551 0.60028 0.0
O526 O 0.49034 0.55301 0.61052 0.0
O527 O 0.55913 0.48793 0.64781 0.0
O528 O 0.4976 0.49764 0.57347 0.0
O529 O 0.47428 0.52911 0.59953 0.0
O530 O 0.48617 0.57296 0.72039 0.0
O531 O 0.50688 0.50529 0.73322 0.0
O532 O 0.50941 0.48547 0.64117 0.0
O533 O 0.45902 0.55397 0.77003 0.0
O534 O 0.51899 0.54008 0.74994 0.0
O535 O 0.54958 0.52664 0.6855 0.0
C536 C 0.5104 0.56268 0.59355 0.0
C537 C 0.56672 0.45214 0.59524 0.0
C538 C 0.54257 0.41685 0.57831 0.0
C539 C 0.56347 0.40365 0.57213 0.0
C540 C 0.5872 0.43876 0.58927 0.0
C541 C 0.58553 0.4145 0.57872 0.0
C542 C 0.54471 0.44101 0.59226 0.0
C543 C 0.4785 0.51038 0.56456 0.0
C544 C 0.56787 0.47797 0.59734 0.0
C545 C 0.56618 0.55838 0.37524 0.0
C546 C 0.54923 0.54422 0.34522 0.0
C547 C 0.50758 0.48521 0.70308 0.0
C548 C 0.47853 0.58473 0.82567 0.0
C549 C 0.50962 0.60342 0.88914 0.0
C550 C 0.49319 0.60686 0.93839 0.0
C551 C 0.46251 0.58832 0.87532 0.0
C552 C 0.50205 0.5921 0.83328 0.0
C553 C 0.46989 0.59922 0.93152 0.0
C554 C 0.5416 0.53655 0.738 0.0
C555 C 0.47071 0.57364 0.76574 0.0
H556 H 0.56309 0.38515 0.55999 0.0
H557 H 0.60437 0.44711 0.59121 0.0
H558 H 0.6014 0.4042 0.5733 0.0
H559 H 0.52928 0.45161 0.59854 0.0
H560 H 0.49805 0.61603 0.98162 0.0
H561 H 0.44431 0.58281 0.8705 0.0
H562 H 0.5146 0.58894 0.79557 0.0
H563 H 0.4574 0.60209 0.96956 0.0
Eu564 Eu 0.02202 0.53995 0.60093 0.0
C565 C 0.01943 0.43991 0.73138 0.0
N566 N 1.0025 0.44917 0.69351 0.0
C567 C 0.9991 0.41247 0.63759 0.0
C568 C 0.02771 0.41679 0.72206 0.0
C569 C 0.99133 0.43543 0.64936 0.0
C570 C 0.01775 0.40328 0.67315 0.0
C571 C 0.04212 0.44292 0.8286 0.0
C572 C 0.02655 0.45274 0.78363 0.0
C573 C 0.0519 0.42062 0.81712 0.0
C574 C 0.04469 0.40755 0.76383 0.0
Eu575 Eu 0.99292 0.48936 0.7101 0.0
N576 N 0.01623 0.47384 0.79385 0.0
C577 C 0.04636 0.45526 0.88519 0.0
C578 C 0.01849 0.48484 0.8514 0.0
C579 C 0.03404 0.47605 0.89727 0.0
H580 H 0.97685 0.44251 0.62192 0.0
H581 H 0.03651 0.48532 0.9418 0.0
H582 H 0.99225 0.58913 0.63243 0.0
H583 H 0.03925 0.49966 0.36809 0.0
H584 H 1.00898 0.50096 0.86062 0.0
H585 H 0.05824 0.44836 0.92097 0.0
H586 H 0.04777 0.50942 0.47954 0.0
H587 H 0.99063 0.40184 0.60144 0.0
H588 H 0.06419 0.41289 0.85056 0.0
H589 H 0.05155 0.38995 0.75697 0.0
H590 H 0.96471 0.61614 0.57825 0.0
H591 H 0.02359 0.38542 0.66437 0.0
H592 H 1.00628 0.51921 0.31231 0.0
N593 N 0.99515 0.56604 0.55321 0.0
C594 C 0.98956 0.56194 0.49138 0.0
C595 C 0.97139 0.60084 0.55351 0.0
C596 C 0.97384 0.57685 0.45868 0.0
C597 C 0.98688 0.58546 0.58414 0.0
C598 C 0.96478 0.59648 0.49059 0.0
N599 N 0.01767 0.53127 0.49087 0.0
C600 C 0.03235 0.51681 0.45754 0.0
C601 C 0.99607 0.5397 0.39459 0.0
C602 C 1.00074 0.54368 0.45972 0.0
C603 C 1.00937 0.52283 0.36225 0.0
C604 C 0.02796 0.51173 0.39355 0.0
H605 H 0.953 0.6086 0.46676 0.0
H606 H 0.95595 0.58319 0.36918 0.0
H607 H 0.97523 0.55051 0.31321 0.0
O608 O 0.04454 0.56244 0.54295 0.0
O609 O 0.98164 0.53644 0.60848 0.0
O610 O 0.97965 0.4967 0.6109 0.0
O611 O 0.04718 0.56436 0.64506 0.0
O612 O 0.03515 0.50205 0.58528 0.0
O613 O 1.00282 0.47918 0.6083 0.0
O614 O 0.95618 0.49955 0.71644 0.0
O615 O 0.02484 0.50994 0.74489 0.0
O616 O 0.0463 0.51498 0.65495 0.0
O617 O 0.96817 0.46969 0.77029 0.0
O618 O 0.99189 0.52591 0.75538 0.0
O619 O 1.00886 0.55565 0.6939 0.0
C620 C 0.97037 0.51684 0.59438 0.0
C621 C 0.08226 0.56419 0.58648 0.0
C622 C 0.11278 0.53641 0.55492 0.0
C623 C 0.13 0.55319 0.57186 0.0
C624 C 0.09951 0.5807 0.60342 0.0
C625 C 0.12335 0.57508 0.59662 0.0
C626 C 0.08901 0.54195 0.56411 0.0
C627 C 0.02278 0.48251 0.57787 0.0
C628 C 0.05708 0.56961 0.59108 0.0
C629 C 0.96825 0.57214 0.39484 0.0
C630 C 0.9792 0.55349 0.36301 0.0
C631 C 0.04524 0.51266 0.71691 0.0
C632 C 0.94125 0.4961 0.81957 0.0
C633 C 0.92048 0.5295 0.86626 0.0
C634 C 0.92642 0.52121 0.92724 0.0
C635 C 0.94683 0.48798 0.88093 0.0
C636 C 0.92762 0.5166 0.81284 0.0
C637 C 0.93934 0.50047 0.93437 0.0
C638 C 0.99777 0.54819 0.74524 0.0
C639 C 0.95139 0.48501 0.7623 0.0
H640 H 0.14853 0.5496 0.56489 0.0
H641 H 0.09458 0.59786 0.62143 0.0
H642 H 0.13671 0.58789 0.60943 0.0
H643 H 0.07559 0.529 0.5528 0.0
H644 H 0.92086 0.5306 0.96942 0.0
H645 H 0.95738 0.47232 0.88769 0.0
H646 H 0.92337 0.52314 0.76572 0.0
H647 H 0.9438 0.49422 0.98151 0.0
H648 H 0.14199 0.05879 0.31595 0.0
H649 H 0.16605 0.98617 0.30837 0.0
H650 H 0.13759 0.97556 0.3912 0.0
H651 H 0.13068 0.06254 0.48137 0.0
H652 H 0.1037 0.07897 0.47449 0.0
H653 H 0.12595 0.08163 0.41398 0.0
H654 H 0.09545 0.07018 0.32895 0.0
H655 H 0.07276 0.06636 0.38803 0.0
H656 H 0.07988 0.04254 0.33508 0.0
H657 H 0.10871 0.97284 0.47971 0.0
H658 H 0.07815 0.97721 0.5612 0.0
H659 H 0.06908 0.05053 0.5077 0.0
C660 C 0.14115 0.04055 0.33074 0.0
C661 C 0.15699 0.0235 0.30563 0.0
C662 C 0.15498 0.9999 0.32754 0.0
C663 C 0.1386 0.99357 0.37447 0.0
C664 C 0.12375 1.01082 0.39879 0.0
C665 C 0.12449 0.03375 0.37707 0.0
C666 C 0.10589 0.04859 0.4106 0.0
C667 C 0.11725 0.06915 0.44728 0.0
C668 C 0.08741 0.05746 0.36281 0.0
C669 C 0.09519 0.03052 0.4558 0.0
C670 C 0.10588 1.00889 0.44791 0.0
C671 C 0.09992 0.98959 0.48549 0.0
C672 C 0.08244 0.9923 0.53183 0.0
C673 C 0.07058 0.01403 0.54015 0.0
C674 C 0.07728 0.03349 0.50162 0.0
H675 H 0.47978 0.17107 0.36293 0.0
H676 H 0.54143 0.15661 0.24792 0.0
H677 H 0.55138 0.12325 0.31861 0.0
H678 H 0.50588 0.15751 0.5138 0.0
H679 H 0.47998 0.14352 0.54684 0.0
H680 H 0.47704 0.16643 0.48812 0.0
H681 H 0.45251 0.13974 0.41809 0.0
H682 H 0.45496 0.1151 0.47185 0.0
H683 H 0.46443 0.1124 0.3902 0.0
H684 H 0.55376 0.09033 0.39944 0.0
H685 H 0.54876 0.06064 0.48405 0.0
H686 H 0.48584 0.09633 0.54905 0.0
C687 C 0.49536 0.16088 0.35233 0.0
C688 C 0.5098 0.16661 0.29935 0.0
C689 C 0.53018 0.15286 0.28822 0.0
C690 C 0.53594 0.13378 0.32812 0.0
C691 C 0.5213 0.12865 0.37965 0.0
C692 C 0.50149 0.14189 0.39203 0.0
C693 C 0.48851 0.13247 0.45 0.0
C694 C 0.48782 0.15107 0.50295 0.0
C695 C 0.46358 0.12443 0.43162 0.0
C696 C 0.50399 0.11166 0.46822 0.0
C697 C 0.52282 0.10985 0.42682 0.0
C698 C 0.53917 0.09171 0.43226 0.0
C699 C 0.53613 0.07485 0.4805 0.0
C700 C 0.51695 0.07611 0.5234 0.0
C701 C 0.50081 0.095 0.51746 0.0
H702 H 0.37527 0.53112 0.30799 0.0
H703 H 0.37932 0.45644 0.26472 0.0
H704 H 0.41165 0.4522 0.34212 0.0
H705 H 0.43845 0.54057 0.33085 0.0
H706 H 0.43445 0.56099 0.39555 0.0
H707 H 0.41229 0.55843 0.33442 0.0
H708 H 0.38104 0.54995 0.42055 0.0
H709 H 0.40301 0.55176 0.48233 0.0
H710 H 0.38512 0.5256 0.47439 0.0
H711 H 0.44242 0.45542 0.42898 0.0
H712 H 0.47028 0.46656 0.51449 0.0
H713 H 0.44717 0.53906 0.50093 0.0
C714 C 0.383 0.51388 0.31448 0.0
C715 C 0.37469 0.49417 0.27924 0.0
C716 C 0.38552 0.47198 0.2896 0.0
C717 C 0.40384 0.46931 0.33408 0.0
C718 C 0.4114 0.48899 0.36823 0.0
C719 C 0.40146 0.5109 0.35866 0.0
C720 C 0.41273 0.52913 0.40226 0.0
C721 C 0.42522 0.54842 0.36344 0.0
C722 C 0.39438 0.53974 0.44758 0.0
C723 C 0.43037 0.51401 0.43812 0.0
C724 C 0.42929 0.49089 0.41779 0.0
C725 C 0.44358 0.47355 0.44463 0.0
C726 C 0.45949 0.48004 0.49298 0.0
C727 C 0.46126 0.50369 0.51393 0.0
C728 C 0.44632 0.52081 0.48608 0.0
H729 H 1.00429 0.38062 0.31604 0.0
H730 H 0.07989 0.38242 0.28571 0.0
H731 H 0.08366 0.41412 0.36518 0.0
H732 H 0.99732 0.44407 0.33938 0.0
H733 H 0.97509 0.44063 0.39978 0.0
H734 H 0.97816 0.41866 0.33851 0.0
H735 H 0.98329 0.38632 0.42475 0.0
H736 H 0.98001 0.40836 0.48562 0.0
H737 H 1.00578 0.38988 0.48469 0.0
H738 H 0.07959 0.44466 0.45262 0.0
H739 H 0.06751 0.47316 0.53555 0.0
H740 H 0.99471 0.45178 0.50973 0.0
C741 C 0.02165 0.38768 0.3259 0.0
C742 C 0.04176 0.37891 0.29365 0.0
C743 C 0.06408 0.38895 0.30827 0.0
C744 C 0.06647 0.4069 0.354 0.0
C745 C 0.04638 0.4149 0.3852 0.0
C746 C 0.02436 0.40576 0.37139 0.0
C747 C 1.0056 0.41754 0.41185 0.0
C748 C 0.988 0.43102 0.36986 0.0
C749 C 0.99293 0.39944 0.45426 0.0
C750 C 0.02054 0.43439 0.45125 0.0
C751 C 0.04403 0.43263 0.43503 0.0
C752 C 0.06121 0.44635 0.46514 0.0
C753 C 0.0542 0.46247 0.51232 0.0
C754 C 0.03018 0.46479 0.52933 0.0
C755 C 0.01324 0.45036 0.49837 0.0
H756 H 0.87501 0.9679 0.97537 0.0
H757 H 0.87658 0.03829 0.05702 0.0
H758 H 0.90983 0.04855 0.98766 0.0
H759 H 0.93897 0.96206 0.9667 0.0
H760 H 0.93847 0.94596 0.89292 0.0
H761 H 0.91415 0.94343 0.94743 0.0
H762 H 0.88515 0.95609 0.8594 0.0
H763 H 0.90917 0.95826 0.80387 0.0
H764 H 0.89023 0.98321 0.8168 0.0
H765 H 0.94158 0.05225 0.90503 0.0
H766 H 0.97148 0.04802 0.82052 0.0
H767 H 0.95278 0.97434 0.79904 0.0
C768 C 0.88245 0.98539 0.97979 0.0
C769 C 0.87254 1.00231 0.0219 0.0
C770 C 0.88303 0.02506 0.02448 0.0
C771 C 0.90222 0.03106 0.98549 0.0
C772 C 0.91126 0.01408 0.94444 0.0
C773 C 0.90196 0.9916 0.94189 0.0
C774 C 0.91534 0.97659 0.89409 0.0
C775 C 0.92744 0.95577 0.92735 0.0
C776 C 0.89899 0.96804 0.84036 0.0
C777 C 0.93336 0.99426 0.86955 0.0
C778 C 0.93052 0.01584 0.89906 0.0
C779 C 0.94414 0.03536 0.88227 0.0
C780 C 0.96104 0.03282 0.83412 0.0
C781 C 0.96458 1.01084 0.80384 0.0
C782 C 0.95069 0.99124 0.82224 0.0
H783 H 0.53087 0.87069 0.92668 0.0
H784 H 0.53492 0.91165 0.10084 0.0
H785 H 0.5314 0.94824 0.03836 0.0
H786 H 0.56381 0.91075 0.82707 0.0
H787 H 0.54558 0.90564 0.75821 0.0
H788 H 0.54885 0.8829 0.81734 0.0
H789 H 0.50322 0.88129 0.82894 0.0
H790 H 0.50043 0.90432 0.77062 0.0
H791 H 0.48748 0.90789 0.8481 0.0
H792 H 0.52704 0.9807 0.95711 0.0
H793 H 0.52298 1.00637 0.86277 0.0
H794 H 0.52211 0.94506 0.74045 0.0
C795 C 0.53072 0.8873 0.95194 0.0
C796 C 0.53321 0.88804 0.01922 0.0
C797 C 0.53335 0.91037 0.04963 0.0
C798 C 0.53117 0.93135 0.01448 0.0
C799 C 0.52878 0.92993 0.94855 0.0
C800 C 0.52856 0.90849 0.91747 0.0
C801 C 0.5259 0.91196 0.84601 0.0
C802 C 0.54732 0.90222 0.81008 0.0
C803 C 0.50288 0.90069 0.82204 0.0
C804 C 0.52493 0.93868 0.8417 0.0
C805 C 0.52656 0.94866 0.90156 0.0
C806 C 0.526 0.97302 0.91007 0.0
C807 C 0.52405 0.98752 0.85616 0.0
C808 C 0.5229 0.97782 0.79427 0.0
C809 C 0.52299 0.95301 0.78714 0.0
H810 H 0.66579 0.53249 0.92295 0.0
H811 H 0.63 0.56363 0.08501 0.0
H812 H 0.5929 0.56332 0.02457 0.0
H813 H 0.63571 0.56675 0.8039 0.0
H814 H 0.63422 0.54308 0.74687 0.0
H815 H 0.65794 0.54416 0.80385 0.0
H816 H 0.64722 0.50214 0.84256 0.0
H817 H 0.62356 0.50089 0.78545 0.0
H818 H 0.6176 0.49596 0.86858 0.0
H819 H 0.5595 0.56088 0.94583 0.0
H820 H 0.53221 0.5546 0.85647 0.0
H821 H 0.58981 0.52813 0.74157 0.0
C822 C 0.65031 0.53951 0.94598 0.0
C823 C 0.65124 0.54797 1.00968 0.0
C824 C 0.63009 0.5565 0.03729 0.0
C825 C 0.60883 0.55674 1.00289 0.0
C826 C 0.60878 0.5488 0.94019 0.0
C827 C 0.62894 0.54028 0.91194 0.0
C828 C 0.62406 0.53293 0.84353 0.0
C829 C 0.63887 0.54761 0.79678 0.0
C830 C 0.62837 0.5064 0.83452 0.0
C831 C 0.59803 0.53877 0.83772 0.0
C832 C 0.58959 0.54784 0.89419 0.0
C833 C 0.56601 0.55399 0.90123 0.0
C834 C 0.55062 0.55057 0.84963 0.0
C835 C 0.55873 0.5414 0.7908 0.0
C836 C 0.58292 0.53552 0.78518 0.0
H837 H 1.00863 0.67037 0.93696 0.0
H838 H 0.9637 0.6392 0.08212 0.0
H839 H 0.9636 0.60194 0.02289 0.0
H840 H 0.97755 0.64432 0.80628 0.0
H841 H 1.00352 0.64024 0.75839 0.0
H842 H 1.00239 0.66392 0.81533 0.0
H843 H 0.04053 0.64861 0.86873 0.0
H844 H 0.04185 0.62495 0.81174 0.0
H845 H 0.04185 0.61848 0.89569 0.0
H846 H 0.96796 0.56757 0.94651 0.0
H847 H 0.97392 0.54033 0.85688 0.0
H848 H 0.01265 0.59478 0.75583 0.0
C849 C 0.99853 0.65596 0.95676 0.0
C850 C 0.98636 0.65828 0.01564 0.0
C851 C 0.97387 0.63826 0.03878 0.0
C852 C 0.97347 0.61687 1.00491 0.0
C853 C 0.98523 0.61554 0.94686 0.0
C854 C 0.99738 0.63463 0.92272 0.0
C855 C 1.00749 0.62898 0.85749 0.0
C856 C 0.99711 0.64534 0.80635 0.0
C857 C 0.03454 0.63034 0.8585 0.0
C858 C 0.999 0.60377 0.84852 0.0
C859 C 0.98642 0.59628 0.90102 0.0
C860 C 0.97735 0.57347 0.90468 0.0
C861 C 0.9809 0.55805 0.85326 0.0
C862 C 0.99351 0.5653 0.7983 0.0
C863 C 1.00266 0.5886 0.7964 0.0
H864 H 0.09907 0.21138 0.46324 0.0
H865 H 0.10922 0.16622 0.29944 0.0
H866 H 0.09763 0.13204 0.36253 0.0
H867 H 0.10576 0.1611 0.59581 0.0
H868 H 0.08214 0.17471 0.63928 0.0
H869 H 0.10307 0.19274 0.59676 0.0
H870 H 0.06855 0.21269 0.53731 0.0
H871 H 0.0477 0.19451 0.578 0.0
H872 H 0.04822 0.19472 0.49221 0.0
H873 H 0.07042 0.10772 0.42051 0.0
H874 H 0.03374 0.09486 0.47047 0.0
H875 H 0.03676 0.15497 0.59786 0.0
C876 C 0.09984 0.19409 0.4417 0.0
C877 C 0.10454 0.19167 0.37603 0.0
C878 C 0.10585 0.16876 0.34962 0.0
C879 C 0.09913 0.14907 0.38536 0.0
C880 C 0.09115 0.15252 0.44736 0.0
C881 C 0.09207 0.17446 0.47619 0.0
C882 C 0.07722 0.17491 0.53613 0.0
C883 C 0.093 0.17591 0.59551 0.0
C884 C 0.05937 0.19539 0.53573 0.0
C885 C 0.06512 0.15119 0.53093 0.0
C886 C 0.07441 0.13803 0.48166 0.0
C887 C 0.06368 0.1173 0.46099 0.0
C888 C 0.04265 0.11018 0.48974 0.0
C889 C 0.03225 0.1239 0.5385 0.0
C890 C 0.04421 0.14415 0.56067 0.0
H891 H 0.34415 0.11487 0.35971 0.0
H892 H 0.35592 0.12654 0.15791 0.0
H893 H 0.39765 0.1179 0.17211 0.0
H894 H 0.40637 0.13289 0.41627 0.0
H895 H 0.40638 0.10946 0.47416 0.0
H896 H 0.37926 0.12418 0.45416 0.0
H897 H 0.36027 0.08395 0.42661 0.0
H898 H 0.38726 0.06904 0.44507 0.0
H899 H 0.37394 0.06538 0.36777 0.0
H900 H 0.43454 0.09783 0.19953 0.0
H901 H 0.46531 0.07184 0.24173 0.0
H902 H 0.43051 0.07172 0.42579 0.0
C903 C 0.35563 0.11644 0.31889 0.0
C904 C 0.34643 0.12136 0.25769 0.0
C905 C 0.36224 0.12333 0.2057 0.0
C906 C 0.38616 0.11823 0.21312 0.0
C907 C 0.39418 0.11135 0.27282 0.0
C908 C 0.37954 0.11096 0.32531 0.0
C909 C 0.39161 0.09948 0.38173 0.0
C910 C 0.39618 0.11758 0.43472 0.0
C911 C 0.37742 0.07821 0.40668 0.0
C912 C 0.41442 0.0918 0.35109 0.0
C913 C 0.41582 0.09938 0.28881 0.0
C914 C 0.43409 0.09249 0.24894 0.0
C915 C 0.45152 0.07764 0.27347 0.0
C916 C 0.45061 0.06973 0.33742 0.0
C917 C 0.43175 0.07711 0.37654 0.0
H918 H 0.46283 0.31555 0.45095 0.0
H919 H 0.4179 0.3705 0.37708 0.0
H920 H 0.43466 0.39849 0.45448 0.0
H921 H 0.46872 0.34177 0.62557 0.0
H922 H 0.49916 0.33289 0.6278 0.0
H923 H 0.47757 0.31474 0.58778 0.0
H924 H 0.50237 0.316 0.48537 0.0
H925 H 0.52399 0.3343 0.52317 0.0
H926 H 0.51003 0.34409 0.45076 0.0
H927 H 0.46482 0.42213 0.50483 0.0
H928 H 0.50225 0.43936 0.53551 0.0
H929 H 0.5285 0.36983 0.58557 0.0
C930 C 0.45534 0.33301 0.45471 0.0
C931 C 0.43891 0.34091 0.4091 0.0
C932 C 0.43017 0.36413 0.41261 0.0
C933 C 0.43969 0.38013 0.45638 0.0
C934 C 0.4577 0.37248 0.49655 0.0
C935 C 0.46499 0.34922 0.4977 0.0
C936 C 0.48763 0.34656 0.53557 0.0
C937 C 0.483 0.3332 0.5979 0.0
C938 C 0.50712 0.33456 0.49631 0.0
C939 C 0.49339 0.37217 0.54853 0.0
C940 C 0.47552 0.3867 0.52759 0.0
C941 C 0.4784 0.41099 0.52461 0.0
C942 C 0.50004 0.42068 0.54277 0.0
C943 C 0.5188 0.40627 0.56493 0.0
C944 C 0.51493 0.38164 0.56897 0.0
H945 H 0.20309 0.44133 0.44691 0.0
H946 H 0.15902 0.43507 0.27887 0.0
H947 H 0.12571 0.45084 0.33824 0.0
H948 H 0.15242 0.43956 0.57471 0.0
H949 H 0.16757 0.46222 0.61896 0.0
H950 H 0.18416 0.44019 0.57661 0.0
H951 H 0.20669 0.47344 0.51793 0.0
H952 H 0.18988 0.4954 0.55848 0.0
H953 H 0.19034 0.49491 0.47271 0.0
H954 H 0.10264 0.47953 0.39716 0.0
H955 H 0.09053 0.515 0.45489 0.0
H956 H 0.15043 0.50741 0.58154 0.0
C957 C 0.18616 0.44241 0.42338 0.0
C958 C 0.18397 0.43735 0.35776 0.0
C959 C 0.16139 0.43856 0.32909 0.0
C960 C 0.14222 0.44771 0.36258 0.0
C961 C 0.14584 0.45557 0.42465 0.0
C962 C 0.16718 0.45253 0.45552 0.0
C963 C 0.16844 0.46719 0.51578 0.0
C964 C 0.16812 0.45133 0.57503 0.0
C965 C 0.19009 0.48371 0.51612 0.0
C966 C 0.14571 0.48084 0.51001 0.0
C967 C 0.13244 0.47311 0.45884 0.0
C968 C 0.11234 0.48505 0.43897 0.0
C969 C 0.10563 0.50529 0.4721 0.0
C970 C 0.11917 0.51377 0.52407 0.0
C971 C 0.13932 0.50114 0.54336 0.0
H972 H 0.91789 0.86599 0.90545 0.0
H973 H 0.93571 0.79587 0.84132 0.0
H974 H 0.9598 0.81265 0.75611 0.0
H975 H 0.92921 0.89949 0.74195 0.0
H976 H 0.94267 0.92325 0.7859 0.0
H977 H 0.91777 0.90766 0.81879 0.0
H978 H 0.94178 0.89904 0.92021 0.0
H979 H 0.9671 0.9137 0.88877 0.0
H980 H 0.96934 0.88348 0.91404 0.0
H981 H 0.99297 0.83442 0.71024 0.0
H982 H 0.02845 0.85928 0.70156 0.0
H983 H 0.99217 0.91518 0.80195 0.0
C984 C 0.92576 0.85431 0.87086 0.0
C985 C 0.92518 0.82973 0.88058 0.0
C986 C 0.93567 0.8148 0.83481 0.0
C987 C 0.9496 0.82425 0.78611 0.0
C988 C 0.95267 0.84862 0.78341 0.0
C989 C 0.94041 0.8636 0.82356 0.0
C990 C 0.95093 0.88818 0.82276 0.0
C991 C 0.93414 0.90567 0.7904 0.0
C992 C 0.95769 0.89654 0.89036 0.0
C993 C 0.97243 0.88397 0.78206 0.0
C994 C 0.97268 0.86139 0.75757 0.0
C995 C 0.99261 0.85238 0.72747 0.0
C996 C 0.01288 0.86654 0.72363 0.0
C997 C 0.0133 0.88935 0.75099 0.0
C998 C 0.99241 0.89828 0.77831 0.0
H999 H 0.65247 0.9155 0.02384 0.0
H1000 H 0.70297 0.94377 0.89044 0.0
H1001 H 0.67077 0.9589 0.8243 0.0
H1002 H 0.59862 0.9106 0.89878 0.0
H1003 H 0.57891 0.91987 0.96088 0.0
H1004 H 0.60318 0.90067 0.97925 0.0
H1005 H 0.61752 0.92977 0.06501 0.0
H1006 H 0.59371 0.94918 0.04751 0.0
H1007 H 0.6236 0.95997 0.04343 0.0
H1008 H 0.63801 0.98479 0.80199 0.0
H1009 H 0.60793 0.01492 0.81931 0.0
H1010 H 0.57629 0.97175 0.96655 0.0
C1011 C 0.65645 0.92342 0.97824 0.0
C1012 C 0.68003 0.92867 0.96231 0.0
C1013 C 0.68501 0.93935 0.90317 0.0
C1014 C 0.6667 0.94815 0.86541 0.0
C1015 C 0.64357 0.94579 0.8871 0.0
C1016 C 0.63826 0.93286 0.94125 0.0
C1017 C 0.6132 0.93744 0.96296 0.0
C1018 C 0.59755 0.91587 0.94961 0.0
C1019 C 0.612 0.94455 0.03382 0.0
C1020 C 0.60678 0.95769 0.91944 0.0
C1021 C 0.62395 0.96137 0.87379 0.0
C1022 C 0.62401 0.9815 0.83572 0.0
C1023 C 0.6068 0.99867 0.84614 0.0
C1024 C 0.58976 0.99578 0.89466 0.0
C1025 C 0.58918 0.97449 0.92942 0.0
H1026 H 0.60202 0.67539 0.07412 0.0
H1027 H 0.62126 0.70586 0.89264 0.0
H1028 H 0.60465 0.67122 0.83785 0.0
H1029 H 0.60515 0.60878 0.01935 0.0
H1030 H 0.57995 0.60251 0.06884 0.0
H1031 H 0.60165 0.62383 0.09414 0.0
H1032 H 0.56865 0.6546 0.10739 0.0
H1033 H 0.54694 0.63396 0.08052 0.0
H1034 H 0.55023 0.66181 0.04013 0.0
H1035 H 0.57444 0.64315 0.80397 0.0
H1036 H 0.53695 0.62218 0.79348 0.0
H1037 H 0.53749 0.60735 0.99611 0.0
C1038 C 0.60428 0.67399 0.02316 0.0
C1039 C 0.61293 0.69328 0.98761 0.0
C1040 C 0.61475 0.69123 0.92075 0.0
C1041 C 0.60537 0.67155 0.88928 0.0
C1042 C 0.59463 0.6539 0.92545 0.0
C1043 C 0.5947 0.65457 0.99129 0.0
C1044 C 0.57811 0.63624 0.01886 0.0
C1045 C 0.59205 0.61666 0.05225 0.0
C1046 C 0.55992 0.64735 0.06427 0.0
C1047 C 0.56663 0.62719 0.95858 0.0
C1048 C 0.57699 0.63696 0.90515 0.0
C1049 C 0.56686 0.63455 0.8451 0.0
C1050 C 0.54538 0.62251 0.83967 0.0
C1051 C 0.5341 0.61291 0.89404 0.0
C1052 C 0.54552 0.61453 0.95365 0.0
H1053 H 0.86503 0.63915 0.01447 0.0
H1054 H 0.8042 0.62009 0.90115 0.0
H1055 H 0.82978 0.60146 0.82284 0.0
H1056 H 0.91201 0.6362 0.87146 0.0
H1057 H 0.93285 0.62258 0.9243 0.0
H1058 H 0.9138 0.64554 0.9533 0.0
H1059 H 0.89872 0.61853 0.04256 0.0
H1060 H 0.91755 0.59541 0.01617 0.0
H1061 H 0.88631 0.59012 0.02283 0.0
H1062 H 0.85676 0.57148 0.78536 0.0
H1063 H 0.88299 0.53704 0.787 0.0
H1064 H 0.92654 0.57117 0.92921 0.0
C1065 C 0.85739 0.63228 0.97103 0.0
C1066 C 0.83267 0.63058 0.96477 0.0
C1067 C 0.82307 0.62172 0.90735 0.0
C1068 C 0.8376 0.61087 0.86242 0.0
C1069 C 0.86165 0.60926 0.87525 0.0
C1070 C 0.87172 0.62048 0.92735 0.0
C1071 C 0.89643 0.6114 0.93977 0.0
C1072 C 0.91485 0.63005 0.92111 0.0
C1073 C 0.89989 0.60337 1.00937 0.0
C1074 C 0.897 0.59089 0.89391 0.0
C1075 C 0.8775 0.59085 0.85434 0.0
C1076 C 0.87253 0.57183 0.81434 0.0
C1077 C 0.88744 0.55222 0.81591 0.0
C1078 C 0.90681 0.55151 0.85829 0.0
C1079 C 0.91197 0.5714 0.89608 0.0
H1080 H 0.01816 0.16574 0.94687 0.0
H1081 H 0.06135 0.20446 0.81211 0.0
H1082 H 0.06137 0.17003 0.74082 0.0
H1083 H 0.0441 0.10944 0.92763 0.0
H1084 H 0.01635 0.09386 0.9331 0.0
H1085 H 0.01988 0.12196 0.97129 0.0
H1086 H 0.98293 0.13629 0.90912 0.0
H1087 H 0.9806 0.10818 0.86962 0.0
H1088 H 0.98279 0.13485 0.82343 0.0
H1089 H 0.05847 0.13055 0.68556 0.0
H1090 H 0.05082 0.08988 0.64806 0.0
H1091 H 0.01 0.07607 0.81825 0.0
C1092 C 0.02731 0.1672 0.90192 0.0
C1093 C 0.03999 0.18803 0.88598 0.0
C1094 C 0.05188 0.18877 0.82662 0.0
C1095 C 0.0519 0.16926 0.78535 0.0
C1096 C 0.03977 0.14893 0.80326 0.0
C1097 C 0.02744 0.14783 0.85979 0.0
C1098 C 0.01595 0.12373 0.8677 0.0
C1099 C 0.02464 0.11152 0.92853 0.0
C1100 C 0.98897 0.1259 0.86745 0.0
C1101 C 0.02455 0.11116 0.80814 0.0
C1102 C 0.03794 0.12619 0.77112 0.0
C1103 C 0.04766 0.11877 0.71359 0.0
C1104 C 0.04329 0.09559 0.69276 0.0
C1105 C 0.02978 0.07976 0.72996 0.0
C1106 C 0.02044 0.08772 0.78871 0.0
H1107 H 0.33768 0.04241 0.81787 0.0
H1108 H 0.35695 1.00621 0.99244 0.0
H1109 H 0.39667 0.99961 0.95024 0.0
H1110 H 0.37309 1.0055 0.70972 0.0
H1111 H 0.38153 0.02995 0.65987 0.0
H1112 H 0.35372 0.03041 0.70112 0.0
H1113 H 0.3651 0.07022 0.75308 0.0
H1114 H 0.39292 0.06984 0.7121 0.0
H1115 H 0.3922 0.07251 0.79752 0.0
H1116 H 0.43537 0.99984 0.8948 0.0
H1117 H 0.47032 1.00548 0.82712 0.0
H1118 H 0.42743 0.04076 0.68548 0.0
C1119 C 0.35015 0.0329 0.8471 0.0
C1120 C 0.34373 0.02459 0.90864 0.0
C1121 C 0.36086 0.01226 0.94478 0.0
C1122 C 0.38369 1.00858 0.92136 0.0
C1123 C 0.38944 0.01719 0.86126 0.0
C1124 C 0.37318 0.02895 0.82422 0.0
C1125 C 0.3844 0.03701 0.76195 0.0
C1126 C 0.37247 0.025 0.70477 0.0
C1127 C 0.3836 0.064 0.75583 0.0
C1128 C 0.40958 0.02835 0.77051 0.0
C1129 C 0.41196 0.01696 0.82833 0.0
C1130 C 0.43364 1.00848 0.84914 0.0
C1131 C 0.45344 0.01185 0.81039 0.0
C1132 C 0.45164 0.02341 0.75085 0.0
C1133 C 0.42928 0.0315 0.73025 0.0
H1134 H 0.47915 0.35545 0.83775 0.0
H1135 H 0.53485 0.36755 0.97617 0.0
H1136 H 0.54373 0.40563 0.92579 0.0
H1137 H 0.50797 0.38267 0.70325 0.0
H1138 H 0.4814 0.39595 0.6726 0.0
H1139 H 0.47979 0.36899 0.71766 0.0
H1140 H 0.45066 0.38854 0.79541 0.0
H1141 H 0.45224 0.41557 0.75066 0.0
H1142 H 0.45887 0.41561 0.83455 0.0
H1143 H 0.54487 0.44399 0.8662 0.0
H1144 H 0.53941 0.47891 0.79748 0.0
H1145 H 0.48405 0.44252 0.69432 0.0
C1146 C 0.49327 0.36601 0.85761 0.0
C1147 C 0.50643 0.35797 0.91103 0.0
C1148 C 0.5248 0.37264 0.93461 0.0
C1149 C 0.52987 0.39457 0.90662 0.0
C1150 C 0.51647 0.40193 0.85472 0.0
C1151 C 0.49857 0.3881 0.83024 0.0
C1152 C 0.48658 0.40052 0.77475 0.0
C1153 C 0.4891 0.38617 0.71335 0.0
C1154 C 0.46054 0.40535 0.78976 0.0
C1155 C 0.50067 0.42336 0.77152 0.0
C1156 C 0.51764 0.42387 0.81879 0.0
C1157 C 0.53189 0.44362 0.82844 0.0
C1158 C 0.5287 0.46337 0.78915 0.0
C1159 C 0.51169 0.46323 0.73984 0.0
C1160 C 0.49762 0.44284 0.73058 0.0
H1161 H 0.18113 0.49886 0.82488 0.0
H1162 H 0.15945 0.52498 1.00963 0.0
H1163 H 0.11912 0.53062 0.96898 0.0
H1164 H 0.14483 0.54062 0.73742 0.0
H1165 H 0.13583 0.52119 0.67467 0.0
H1166 H 0.16434 0.51751 0.71143 0.0
H1167 H 0.1563 0.47476 0.74401 0.0
H1168 H 0.12895 0.47633 0.70077 0.0
H1169 H 0.12902 0.46731 0.78306 0.0
H1170 H 0.08058 0.53127 0.9112 0.0
H1171 H 0.04664 0.52869 0.83858 0.0
H1172 H 0.09229 0.50349 0.68807 0.0
C1173 C 0.1679 0.50587 0.85661 0.0
C1174 C 0.17362 0.51158 0.92062 0.0
C1175 C 0.15574 0.52082 0.96032 0.0
C1176 C 0.13267 0.52395 0.93774 0.0
C1177 C 0.12758 0.51803 0.87484 0.0
C1178 C 0.1447 0.50946 0.83447 0.0
C1179 C 0.13444 0.50518 0.76844 0.0
C1180 C 0.14562 0.52212 0.72015 0.0
C1181 C 0.13735 0.47935 0.74789 0.0
C1182 C 0.10867 0.51132 0.77904 0.0
C1183 C 0.10527 0.51897 0.84075 0.0
C1184 C 0.08308 0.52537 0.86274 0.0
C1185 C 0.06384 0.5237 0.82104 0.0
C1186 C 0.06663 0.51563 0.75765 0.0
C1187 C 0.08953 0.50974 0.73614 0.0
H1188 H 0.96552 0.85269 0.46241 0.0
H1189 H 0.0218 0.86243 0.32491 0.0
H1190 H 0.03337 0.89919 0.3783 0.0
H1191 H 0.9493 0.91396 0.47313 0.0
H1192 H 0.94365 0.91361 0.55753 0.0
H1193 H 0.93956 0.88723 0.51106 0.0
H1194 H 0.96778 0.86455 0.58418 0.0
H1195 H 0.97224 0.89054 0.63196 0.0
H1196 H 0.99715 0.87569 0.59724 0.0
H1197 H 0.03933 0.93501 0.44569 0.0
H1198 H 0.03948 0.9672 0.52444 0.0
H1199 H 0.97888 0.93635 0.61787 0.0
C1200 C 0.98022 0.86254 0.44316 0.0
C1201 C 0.99285 0.85412 0.38929 0.0
C1202 C 0.0121 0.86779 0.3667 0.0
C1203 C 0.0187 0.88899 0.39638 0.0
C1204 C 1.00588 0.89671 0.44878 0.0
C1205 C 0.98704 0.88396 0.47215 0.0
C1206 C 0.97644 0.89634 0.52974 0.0
C1207 C 0.95071 0.90321 0.51711 0.0
C1208 C 0.97851 0.88085 0.58935 0.0
C1209 C 0.99226 0.91801 0.53487 0.0
C1210 C 1.00914 0.91773 0.48758 0.0
C1211 C 0.02624 0.93532 0.48303 0.0
C1212 C 0.02637 0.95345 0.52837 0.0
C1213 C 1.0095 0.95415 0.57771 0.0
C1214 C 0.99198 0.93631 0.5805 0.0
H1215 H 0.66377 1.00948 0.36841 0.0
H1216 H 0.71091 0.99534 0.52649 0.0
H1217 H 0.67741 0.99828 0.60098 0.0
H1218 H 0.62667 0.05188 0.45021 0.0
H1219 H 0.59998 0.04173 0.41244 0.0
H1220 H 0.62775 0.03904 0.37183 0.0
H1221 H 0.62043 0.9942 0.3584 0.0
H1222 H 0.59275 0.99676 0.39949 0.0
H1223 H 0.61466 0.97638 0.4277 0.0
H1224 H 0.63832 1.00259 0.65891 0.0
H1225 H 0.59717 1.0079 0.69455 0.0
H1226 H 0.57551 0.01932 0.49899 0.0
C1227 C 0.66717 1.00734 0.41877 0.0
C1228 C 0.69017 1.00224 0.44137 0.0
C1229 C 0.69355 0.99908 0.50771 0.0
C1230 C 0.6746 1.0008 0.5505 0.0
C1231 C 0.65218 1.00562 0.52655 0.0
C1232 C 0.64839 1.00887 0.46218 0.0
C1233 C 0.6225 0.01345 0.44861 0.0
C1234 C 0.61903 0.03798 0.41902 0.0
C1235 C 0.61197 0.99404 0.40602 0.0
C1236 C 0.61233 0.01231 0.51529 0.0
C1237 C 0.62974 1.0078 0.55965 0.0
C1238 C 0.62459 1.0061 0.62442 0.0
C1239 C 0.60114 1.00915 0.64428 0.0
C1240 C 0.58298 0.01375 0.59966 0.0
C1241 C 0.58882 0.01533 0.5343 0.0
H1242 H 0.5554 0.67722 0.39838 0.0
H1243 H 0.48384 0.70351 0.41087 0.0
H1244 H 0.47243 0.66811 0.47175 0.0
H1245 H 0.53978 0.61641 0.37887 0.0
H1246 H 0.56448 0.60619 0.4247 0.0
H1247 H 0.56646 0.63372 0.3832 0.0
H1248 H 0.57772 0.65392 0.49007 0.0
H1249 H 0.57503 0.62618 0.53119 0.0
H1250 H 0.55817 0.65123 0.5572 0.0
H1251 H 0.4685 0.62956 0.53016 0.0
H1252 H 0.47194 0.59094 0.58167 0.0
H1253 H 0.54634 0.58906 0.53472 0.0
C1254 C 0.5374 0.67584 0.4148 0.0
C1255 C 0.52057 0.69346 0.39937 0.0
C1256 C 0.49709 0.69035 0.4209 0.0
C1257 C 0.49045 0.6703 0.45608 0.0
C1258 C 0.50743 0.65332 0.46994 0.0
C1259 C 0.53045 0.65592 0.45027 0.0
C1260 C 0.54505 0.63466 0.4698 0.0
C1261 C 0.55447 0.622 0.41056 0.0
C1262 C 0.56519 0.64194 0.51474 0.0
C1263 C 0.52674 0.61973 0.50429 0.0
C1264 C 0.50514 0.63092 0.50345 0.0
C1265 C 0.48535 0.62072 0.5312 0.0
C1266 C 0.48756 0.59861 0.5605 0.0
C1267 C 0.50945 0.58655 0.56255 0.0
C1268 C 0.52935 0.59752 0.53408 0.0
H1269 H 0.85155 0.56521 0.42653 0.0
H1270 H 0.83235 0.49185 0.39664 0.0
H1271 H 0.86891 0.47961 0.45006 0.0
H1272 H 0.91341 0.55932 0.40254 0.0
H1273 H 0.92059 0.5803 0.46397 0.0
H1274 H 0.89295 0.58234 0.42301 0.0
H1275 H 0.87238 0.58103 0.53378 0.0
H1276 H 0.90048 0.57787 0.57288 0.0
H1277 H 0.8776 0.55629 0.5857 0.0
H1278 H 0.90807 0.47503 0.50252 0.0
H1279 H 0.94645 0.47791 0.55528 0.0
H1280 H 0.94086 0.55425 0.55743 0.0
C1281 C 0.85468 0.54654 0.43219 0.0
C1282 C 0.83882 0.52957 0.40633 0.0
C1283 C 0.84418 0.50534 0.41435 0.0
C1284 C 0.86492 0.49816 0.44523 0.0
C1285 C 0.88024 0.51531 0.4689 0.0
C1286 C 0.87528 0.53899 0.46362 0.0
C1287 C 0.89497 0.55376 0.49289 0.0
C1288 C 0.90615 0.56985 0.44249 0.0
C1289 C 0.8858 0.56809 0.54969 0.0
C1290 C 0.912 0.53468 0.51463 0.0
C1291 C 0.90296 0.51266 0.5002 0.0
C1292 C 0.91522 0.49217 0.51445 0.0
C1293 C 0.93717 0.49408 0.54464 0.0
C1294 C 0.94699 0.51634 0.56097 0.0
C1295 C 0.93408 0.53698 0.54549 0.0
loop_
_geom_bond_atom_site_label_1
_geom_bond_atom_site_label_2
_geom_bond_distance
_geom_bond_site_symmetry_2
_ccdc_geom_bond_type
C0 C1 1.386 . S
C0 C2 1.397 . S
C0 H24 0.931 . S
C1 C0 1.386 . S
C1 C5 1.397 . S
C2 C0 1.397 . S
C2 C3 1.384 . S
C2 H25 0.930 . S
C3 C2 1.384 . S
C3 C4 1.377 . S
C3 C6 1.481 . S
C4 C3 1.377 . S
C4 C5 1.389 . S
C4 H26 0.929 . S
C5 C1 1.397 . S
C5 C4 1.389 . S
C5 H27 0.931 . S
C6 C3 1.481 . S
C6 C7 1.387 . S
C6 C11 1.390 . S
C7 C6 1.387 . S
C7 C8 1.401 . S
C7 H28 0.930 . S
C8 C7 1.401 . S
C8 C9 1.376 . S
C8 C17 1.511 . S
C9 C8 1.376 . S
C9 C10 1.392 . S
C9 H30 0.931 . S
C10 C9 1.392 . S
C10 C11 1.361 . S
C10 C12 1.500 . S
C11 C6 1.390 . S
C11 C10 1.361 . S
C11 H29 0.931 . S
C12 C10 1.500 . S
C12 C13 1.371 . S
C12 C14 1.365 . S
C13 C12 1.371 . S
C13 C23 1.386 . S
C13 H31 0.931 . S
C14 C12 1.365 . S
C14 C15 1.409 . S
C14 H32 0.929 . S
C15 C14 1.409 . S
C15 C16 1.380 . S
C15 H33 0.930 . S
C16 C15 1.380 . S
C16 C23 1.357 . S
C17 C8 1.511 . S
C17 C18 1.341 . S
C17 C19 1.371 . S
C18 C17 1.341 . S
C18 C22 1.394 . S
C18 H34 0.930 . S
C19 C17 1.371 . S
C19 C20 1.392 . S
C19 H35 0.931 . S
C20 C19 1.392 . S
C20 C21 1.331 . S
C20 H38 0.932 . S
C21 C20 1.331 . S
C21 C22 1.336 . S
C22 C18 1.394 . S
C22 C21 1.336 . S
C22 H37 0.929 . S
C23 C13 1.386 . S
C23 C16 1.357 . S
C23 H36 0.928 . S
H24 C0 0.931 . S
H25 C2 0.930 . S
H26 C4 0.929 . S
H27 C5 0.931 . S
H28 C7 0.930 . S
H29 C11 0.931 . S
H30 C9 0.931 . S
H31 C13 0.931 . S
H32 C14 0.929 . S
H33 C15 0.930 . S
H34 C18 0.930 . S
H35 C19 0.931 . S
H36 C23 0.928 . S
H37 C22 0.929 . S
H38 C20 0.932 . S
C39 C40 1.386 . S
C39 C41 1.397 . S
C39 H63 0.931 . S
C40 C39 1.386 . S
C40 C44 1.397 . S
C41 C39 1.397 . S
C41 C42 1.384 . S
C41 H64 0.930 . S
C42 C41 1.384 . S
C42 C43 1.377 . S
C42 C45 1.481 . S
C43 C42 1.377 . S
C43 C44 1.389 . S
C43 H65 0.929 . S
C44 C40 1.397 . S
C44 C43 1.389 . S
C44 H66 0.931 . S
C45 C42 1.481 . S
C45 C46 1.387 . S
C45 C50 1.390 . S
C46 C45 1.387 . S
C46 C47 1.401 . S
C46 H67 0.930 . S
C47 C46 1.401 . S
C47 C48 1.376 . S
C47 C56 1.511 . S
C48 C47 1.376 . S
C48 C49 1.392 . S
C48 H69 0.931 . S
C49 C48 1.392 . S
C49 C50 1.361 . S
C49 C51 1.500 . S
C50 C45 1.390 . S
C50 C49 1.361 . S
C50 H68 0.931 . S
C51 C49 1.500 . S
C51 C52 1.371 . S
C51 C53 1.365 . S
C52 C51 1.371 . S
C52 C62 1.386 . S
C52 H70 0.931 . S
C53 C51 1.365 . S
C53 C54 1.409 . S
C53 H71 0.929 . S
C54 C53 1.409 . S
C54 C55 1.380 . S
C54 H72 0.930 . S
C55 C54 1.380 . S
C55 C62 1.357 . S
C56 C47 1.511 . S
C56 C57 1.341 . S
C56 C58 1.371 . S
C57 C56 1.341 . S
C57 C61 1.394 . S
C57 H73 0.930 . S
C58 C56 1.371 . S
C58 C59 1.392 . S
C58 H74 0.931 . S
C59 C58 1.392 . S
C59 C60 1.331 . S
C59 H77 0.932 . S
C60 C59 1.331 . S
C60 C61 1.336 . S
C61 C57 1.394 . S
C61 C60 1.336 . S
C61 H76 0.929 . S
C62 C52 1.386 . S
C62 C55 1.357 . S
C62 H75 0.928 . S
H63 C39 0.931 . S
H64 C41 0.930 . S
H65 C43 0.929 . S
H66 C44 0.931 . S
H67 C46 0.930 . S
H68 C50 0.931 . S
H69 C48 0.931 . S
H70 C52 0.931 . S
H71 C53 0.929 . S
H72 C54 0.930 . S
H73 C57 0.930 . S
H74 C58 0.931 . S
H75 C62 0.928 . S
H76 C61 0.929 . S
H77 C59 0.932 . S
C78 C79 1.386 . S
C78 C80 1.397 . S
C78 H102 0.931 . S
C79 C78 1.386 . S
C79 C83 1.397 . S
C80 C78 1.397 . S
C80 C81 1.384 . S
C80 H103 0.930 . S
C81 C80 1.384 . S
C81 C82 1.377 . S
C81 C84 1.481 . S
C82 C81 1.377 . S
C82 C83 1.389 . S
C82 H104 0.929 . S
C83 C79 1.397 . S
C83 C82 1.389 . S
C83 H105 0.931 . S
C84 C81 1.481 . S
C84 C85 1.387 . S
C84 C89 1.390 . S
C85 C84 1.387 . S
C85 C86 1.401 . S
C85 H106 0.930 . S
C86 C85 1.401 . S
C86 C87 1.376 . S
C86 C95 1.511 . S
C87 C86 1.376 . S
C87 C88 1.392 . S
C87 H108 0.931 . S
C88 C87 1.392 . S
C88 C89 1.361 . S
C88 C90 1.500 . S
C89 C84 1.390 . S
C89 C88 1.361 . S
C89 H107 0.931 . S
C90 C88 1.500 . S
C90 C91 1.371 . S
C90 C92 1.365 . S
C91 C90 1.371 . S
C91 C101 1.386 . S
C91 H109 0.931 . S
C92 C90 1.365 . S
C92 C93 1.409 . S
C92 H110 0.929 . S
C93 C92 1.409 . S
C93 C94 1.380 . S
C93 H111 0.930 . S
C94 C93 1.380 . S
C94 C101 1.357 . S
C95 C86 1.511 . S
C95 C96 1.341 . S
C95 C97 1.371 . S
C96 C95 1.341 . S
C96 C100 1.394 . S
C96 H112 0.930 . S
C97 C95 1.371 . S
C97 C98 1.392 . S
C97 H113 0.931 . S
C98 C97 1.392 . S
C98 C99 1.331 . S
C98 H116 0.932 . S
C99 C98 1.331 . S
C99 C100 1.336 . S
C100 C96 1.394 . S
C100 C99 1.336 . S
C100 H115 0.929 . S
C101 C91 1.386 . S
C101 C94 1.357 . S
C101 H114 0.928 . S
H102 C78 0.931 . S
H103 C80 0.930 . S
H104 C82 0.929 . S
H105 C83 0.931 . S
H106 C85 0.930 . S
H107 C89 0.931 . S
H108 C87 0.931 . S
H109 C91 0.931 . S
H110 C92 0.929 . S
H111 C93 0.930 . S
H112 C96 0.930 . S
H113 C97 0.931 . S
H114 C101 0.928 . S
H115 C100 0.929 . S
H116 C98 0.932 . S
C117 C118 1.386 . S
C117 C119 1.397 . S
C117 H141 0.931 . S
C118 C117 1.386 . S
C118 C122 1.397 . S
C119 C117 1.397 . S
C119 C120 1.384 . S
C119 H142 0.930 . S
C120 C119 1.384 . S
C120 C121 1.377 . S
C120 C123 1.481 . S
C121 C120 1.377 . S
C121 C122 1.389 . S
C121 H143 0.929 . S
C122 C118 1.397 . S
C122 C121 1.389 . S
C122 H144 0.931 . S
C123 C120 1.481 . S
C123 C124 1.387 . S
C123 C128 1.390 . S
C124 C123 1.387 . S
C124 C125 1.401 . S
C124 H145 0.930 . S
C125 C124 1.401 . S
C125 C126 1.376 . S
C125 C134 1.511 . S
C126 C125 1.376 . S
C126 C127 1.392 . S
C126 H147 0.931 . S
C127 C126 1.392 . S
C127 C128 1.361 . S
C127 C129 1.500 . S
C128 C123 1.390 . S
C128 C127 1.361 . S
C128 H146 0.931 . S
C129 C127 1.500 . S
C129 C130 1.371 . S
C129 C131 1.365 . S
C130 C129 1.371 . S
C130 C140 1.386 . S
C130 H148 0.931 . S
C131 C129 1.365 . S
C131 C132 1.409 . S
C131 H149 0.929 . S
C132 C131 1.409 . S
C132 C133 1.380 . S
C132 H150 0.930 . S
C133 C132 1.380 . S
C133 C140 1.357 . S
C134 C125 1.511 . S
C134 C135 1.341 . S
C134 C136 1.371 . S
C135 C134 1.341 . S
C135 C139 1.394 . S
C135 H151 0.930 . S
C136 C134 1.371 . S
C136 C137 1.392 . S
C136 H152 0.931 . S
C137 C136 1.392 . S
C137 C138 1.331 . S
C137 H155 0.932 . S
C138 C137 1.331 . S
C138 C139 1.336 . S
C139 C135 1.394 . S
C139 C138 1.336 . S
C139 H154 0.929 . S
C140 C130 1.386 . S
C140 C133 1.357 . S
C140 H153 0.928 . S
H141 C117 0.931 . S
H142 C119 0.930 . S
H143 C121 0.929 . S
H144 C122 0.931 . S
H145 C124 0.930 . S
H146 C128 0.931 . S
H147 C126 0.931 . S
H148 C130 0.931 . S
H149 C131 0.929 . S
H150 C132 0.930 . S
H151 C135 0.930 . S
H152 C136 0.931 . S
H153 C140 0.928 . S
H154 C139 0.929 . S
H155 C137 0.932 . S
C156 C157 1.386 . S
C156 C158 1.397 . S
C156 H180 0.931 . S
C157 C156 1.386 . S
C157 C161 1.397 . S
C158 C156 1.397 . S
C158 C159 1.384 . S
C158 H181 0.930 . S
C159 C158 1.384 . S
C159 C160 1.377 . S
C159 C162 1.481 . S
C160 C159 1.377 . S
C160 C161 1.389 . S
C160 H182 0.929 . S
C161 C157 1.397 . S
C161 C160 1.389 . S
C161 H183 0.931 . S
C162 C159 1.481 . S
C162 C163 1.387 . S
C162 C167 1.390 . S
C163 C162 1.387 . S
C163 C164 1.401 . S
C163 H184 0.930 . S
C164 C163 1.401 . S
C164 C165 1.376 1_554 S
C164 C173 1.511 . S
C165 C164 1.376 1_556 S
C165 C166 1.392 . S
C165 H186 0.931 . S
C166 C165 1.392 . S
C166 C167 1.361 1_556 S
C166 C168 1.500 . S
C167 C162 1.390 . S
C167 C166 1.361 1_554 S
C167 H185 0.931 . S
C168 C166 1.500 . S
C168 C169 1.371 . S
C168 C170 1.365 . S
C169 C168 1.371 . S
C169 C179 1.386 . S
C169 H187 0.931 . S
C170 C168 1.365 . S
C170 C171 1.409 . S
C170 H188 0.929 . S
C171 C170 1.409 . S
C171 C172 1.380 . S
C171 H189 0.930 . S
C172 C171 1.380 . S
C172 C179 1.357 . S
C173 C164 1.511 . S
C173 C174 1.341 . S
C173 C175 1.371 . S
C174 C173 1.341 . S
C174 C178 1.394 . S
C174 H190 0.930 . S
C175 C173 1.371 . S
C175 C176 1.392 . S
C175 H191 0.931 1_554 S
C176 C175 1.392 . S
C176 C177 1.331 . S
C176 H194 0.932 . S
C177 C176 1.331 . S
C177 C178 1.336 . S
C178 C174 1.394 . S
C178 C177 1.336 . S
C178 H193 0.929 . S
C179 C169 1.386 . S
C179 C172 1.357 . S
C179 H192 0.928 . S
H180 C156 0.931 . S
H181 C158 0.930 . S
H182 C160 0.929 . S
H183 C161 0.931 . S
H184 C163 0.930 . S
H185 C167 0.931 . S
H186 C165 0.931 . S
H187 C169 0.931 . S
H188 C170 0.929 . S
H189 C171 0.930 . S
H190 C174 0.930 . S
H191 C175 0.931 1_556 S
H192 C179 0.928 . S
H193 C178 0.929 . S
H194 C176 0.932 . S
C195 C196 1.386 . S
C195 C197 1.397 . S
C195 H219 0.931 . S
C196 C195 1.386 . S
C196 C200 1.397 . S
C197 C195 1.397 . S
C197 C198 1.384 . S
C197 H220 0.930 . S
C198 C197 1.384 . S
C198 C199 1.377 . S
C198 C201 1.481 . S
C199 C198 1.377 . S
C199 C200 1.389 . S
C199 H221 0.929 . S
C200 C196 1.397 . S
C200 C199 1.389 . S
C200 H222 0.931 . S
C201 C198 1.481 . S
C201 C202 1.387 . S
C201 C206 1.390 . S
C202 C201 1.387 . S
C202 C203 1.401 . S
C202 H223 0.930 . S
C203 C202 1.401 . S
C203 C204 1.376 1_554 S
C203 C212 1.511 . S
C204 C203 1.376 1_556 S
C204 C205 1.392 . S
C204 H225 0.931 . S
C205 C204 1.392 . S
C205 C206 1.361 1_556 S
C205 C207 1.500 . S
C206 C201 1.390 . S
C206 C205 1.361 1_554 S
C206 H224 0.931 . S
C207 C205 1.500 . S
C207 C208 1.371 . S
C207 C209 1.365 . S
C208 C207 1.371 . S
C208 C218 1.386 . S
C208 H226 0.931 . S
C209 C207 1.365 . S
C209 C210 1.409 . S
C209 H227 0.929 . S
C210 C209 1.409 . S
C210 C211 1.380 . S
C210 H228 0.930 . S
C211 C210 1.380 . S
C211 C218 1.357 . S
C212 C203 1.511 . S
C212 C213 1.341 . S
C212 C214 1.371 . S
C213 C212 1.341 . S
C213 C217 1.394 . S
C213 H229 0.930 . S
C214 C212 1.371 . S
C214 C215 1.392 . S
C214 H230 0.931 1_554 S
C215 C214 1.392 . S
C215 C216 1.331 . S
C215 H233 0.932 . S
C216 C215 1.331 . S
C216 C217 1.336 . S
C217 C213 1.394 . S
C217 C216 1.336 . S
C217 H232 0.929 . S
C218 C208 1.386 . S
C218 C211 1.357 . S
C218 H231 0.928 . S
H219 C195 0.931 . S
H220 C197 0.930 . S
H221 C199 0.929 . S
H222 C200 0.931 . S
H223 C202 0.930 . S
H224 C206 0.931 . S
H225 C204 0.931 . S
H226 C208 0.931 . S
H227 C209 0.929 . S
H228 C210 0.930 . S
H229 C213 0.930 . S
H230 C214 0.931 1_556 S
H231 C218 0.928 . S
H232 C217 0.929 . S
H233 C215 0.932 . S
C234 C235 1.386 . S
C234 C236 1.397 . S
C234 H258 0.931 . S
C235 C234 1.386 . S
C235 C239 1.397 . S
C236 C234 1.397 . S
C236 C237 1.384 . S
C236 H259 0.930 . S
C237 C236 1.384 . S
C237 C238 1.377 . S
C237 C240 1.481 . S
C238 C237 1.377 . S
C238 C239 1.389 . S
C238 H260 0.929 . S
C239 C235 1.397 . S
C239 C238 1.389 . S
C239 H261 0.931 . S
C240 C237 1.481 . S
C240 C241 1.387 . S
C240 C245 1.390 . S
C241 C240 1.387 . S
C241 C242 1.401 . S
C241 H262 0.930 . S
C242 C241 1.401 . S
C242 C243 1.376 1_554 S
C242 C251 1.511 . S
C243 C242 1.376 1_556 S
C243 C244 1.392 . S
C243 H264 0.931 . S
C244 C243 1.392 . S
C244 C245 1.361 1_556 S
C244 C246 1.500 . S
C245 C240 1.390 . S
C245 C244 1.361 1_554 S
C245 H263 0.931 . S
C246 C244 1.500 . S
C246 C247 1.371 . S
C246 C248 1.365 . S
C247 C246 1.371 . S
C247 C257 1.386 . S
C247 H265 0.931 . S
C248 C246 1.365 . S
C248 C249 1.409 . S
C248 H266 0.929 . S
C249 C248 1.409 . S
C249 C250 1.380 . S
C249 H267 0.930 . S
C250 C249 1.380 . S
C250 C257 1.357 . S
C251 C242 1.511 . S
C251 C252 1.341 . S
C251 C253 1.371 . S
C252 C251 1.341 . S
C252 C256 1.394 . S
C252 H268 0.930 . S
C253 C251 1.371 . S
C253 C254 1.392 . S
C253 H269 0.931 1_554 S
C254 C253 1.392 . S
C254 C255 1.331 . S
C254 H272 0.932 . S
C255 C254 1.331 . S
C255 C256 1.336 . S
C256 C252 1.394 . S
C256 C255 1.336 . S
C256 H271 0.929 . S
C257 C247 1.386 . S
C257 C250 1.357 . S
C257 H270 0.928 . S
H258 C234 0.931 . S
H259 C236 0.930 . S
H260 C238 0.929 . S
H261 C239 0.931 . S
H262 C241 0.930 . S
H263 C245 0.931 . S
H264 C243 0.931 . S
H265 C247 0.931 . S
H266 C248 0.929 . S
H267 C249 0.930 . S
H268 C252 0.930 . S
H269 C253 0.931 1_556 S
H270 C257 0.928 . S
H271 C256 0.929 . S
H272 C254 0.932 . S
C273 C274 1.386 . S
C273 C275 1.397 . S
C273 H297 0.931 . S
C274 C273 1.386 . S
C274 C278 1.397 . S
C275 C273 1.397 . S
C275 C276 1.384 . S
C275 H298 0.930 . S
C276 C275 1.384 . S
C276 C277 1.377 . S
C276 C279 1.481 . S
C277 C276 1.377 . S
C277 C278 1.389 . S
C277 H299 0.929 . S
C278 C274 1.397 . S
C278 C277 1.389 . S
C278 H300 0.931 . S
C279 C276 1.481 . S
C279 C280 1.387 . S
C279 C284 1.390 1_556 S
C280 C279 1.387 . S
C280 C281 1.401 1_556 S
C280 H301 0.930 . S
C281 C280 1.401 1_554 S
C281 C282 1.376 . S
C281 C290 1.511 . S
C282 C281 1.376 . S
C282 C283 1.392 . S
C282 H303 0.931 . S
C283 C282 1.392 . S
C283 C284 1.361 . S
C283 C285 1.500 . S
C284 C279 1.390 1_554 S
C284 C283 1.361 . S
C284 H302 0.931 . S
C285 C283 1.500 . S
C285 C286 1.371 . S
C285 C287 1.365 . S
C286 C285 1.371 . S
C286 C296 1.386 . S
C286 H304 0.931 . S
C287 C285 1.365 . S
C287 C288 1.409 . S
C287 H305 0.929 . S
C288 C287 1.409 . S
C288 C289 1.380 . S
C288 H306 0.930 . S
C289 C288 1.380 . S
C289 C296 1.357 . S
C290 C281 1.511 . S
C290 C291 1.341 . S
C290 C292 1.371 . S
C291 C290 1.341 . S
C291 C295 1.394 . S
C291 H307 0.930 1_554 S
C292 C290 1.371 . S
C292 C293 1.392 . S
C292 H308 0.931 . S
C293 C292 1.392 . S
C293 C294 1.331 . S
C293 H311 0.932 . S
C294 C293 1.331 . S
C294 C295 1.336 . S
C295 C291 1.394 . S
C295 C294 1.336 . S
C295 H310 0.929 . S
C296 C286 1.386 . S
C296 C289 1.357 . S
C296 H309 0.928 . S
H297 C273 0.931 . S
H298 C275 0.930 . S
H299 C277 0.929 . S
H300 C278 0.931 . S
H301 C280 0.930 . S
H302 C284 0.931 . S
H303 C282 0.931 . S
H304 C286 0.931 . S
H305 C287 0.929 . S
H306 C288 0.930 . S
H307 C291 0.930 1_556 S
H308 C292 0.931 . S
H309 C296 0.928 . S
H310 C295 0.929 . S
H311 C293 0.932 . S
Eu312 N341 2.600 . S
Eu312 N347 2.562 . S
Eu312 O356 2.462 . S
Eu312 O357 2.373 1_545 S
Eu312 O359 2.432 . S
Eu312 O360 2.291 1_655 S
Eu312 O364 2.335 1_655 S
Eu312 O367 2.372 . S
Eu312 C376 2.787 . S
C313 N314 1.365 . S
C313 C316 1.405 . S
C313 C320 1.448 . S
N314 C313 1.365 . S
N314 C317 1.316 1_545 S
N314 Eu323 2.600 1_545 S
C315 C317 1.390 1_545 S
C315 C318 1.367 . S
C315 H335 0.931 . S
C316 C313 1.405 . S
C316 C318 1.403 . S
C316 C322 1.439 . S
C317 N314 1.316 1_565 S
C317 C315 1.390 1_565 S
C317 H328 0.941 . S
C318 C315 1.367 . S
C318 C316 1.403 . S
C318 H339 0.929 . S
C319 C320 1.430 . S
C319 C321 1.387 . S
C319 C325 1.404 . S
C320 C313 1.448 . S
C320 C319 1.430 . S
C320 N324 1.351 . S
C321 C319 1.387 . S
C321 C322 1.374 . S
C321 H336 0.931 . S
C322 C316 1.439 . S
C322 C321 1.374 . S
C322 H337 0.931 . S
Eu323 N314 2.600 1_565 S
Eu323 N324 2.562 1_565 S
Eu323 O358 2.335 . S
Eu323 O361 2.372 . S
Eu323 O362 2.462 . S
Eu323 O363 2.373 1_565 S
Eu323 O365 2.432 . S
Eu323 O366 2.291 1_465 S
Eu323 C387 2.787 . S
N324 C320 1.351 . S
N324 Eu323 2.562 1_545 S
N324 C326 1.325 . S
C325 C319 1.404 . S
C325 C327 1.366 . S
C325 H333 0.930 . S
C326 N324 1.325 . S
C326 C327 1.416 . S
C326 H332 0.905 1_455 S
C327 C325 1.366 . S
C327 C326 1.416 . S
C327 H329 0.930 . S
H328 C317 0.941 . S
H329 C327 0.930 . S
H330 C345 0.930 . S
H331 C352 0.930 1_455 S
H332 C326 0.905 1_655 S
H333 C325 0.930 . S
H334 C348 0.929 1_455 S
H335 C315 0.931 . S
H336 C321 0.931 . S
H337 C322 0.931 . S
H338 C343 0.931 . S
H339 C318 0.929 . S
H340 C351 0.930 . S
N341 Eu312 2.600 . S
N341 C342 1.365 . S
N341 C345 1.319 . S
C342 N341 1.365 . S
C342 C344 1.405 1_545 S
C342 C350 1.448 . S
C343 H338 0.931 . S
C343 C345 1.397 . S
C343 C346 1.377 . S
C344 C342 1.405 1_565 S
C344 C346 1.401 1_565 S
C344 C377 1.439 . S
C345 H330 0.930 . S
C345 N341 1.319 . S
C345 C343 1.397 . S
C346 C343 1.377 . S
C346 C344 1.401 1_545 S
C346 H353 0.923 1_545 S
N347 Eu312 2.562 . S
N347 C348 1.325 . S
N347 C350 1.351 . S
C348 H334 0.929 1_655 S
C348 N347 1.325 . S
C348 C352 1.416 1_545 S
C349 C350 1.430 1_565 S
C349 C351 1.404 . S
C349 C378 1.387 . S
C350 C342 1.448 . S
C350 N347 1.351 . S
C350 C349 1.430 1_545 S
C351 H340 0.930 . S
C351 C349 1.404 . S
C351 C352 1.366 . S
C352 H331 0.930 1_655 S
C352 C348 1.416 1_565 S
C352 C351 1.366 . S
H353 C346 0.923 1_565 S
H354 C377 0.931 . S
H355 C378 0.931 . S
O356 Eu312 2.462 . S
O356 C376 1.252 . S
O357 Eu312 2.373 1_565 S
O357 C368 1.249 . S
O358 Eu323 2.335 . S
O358 C368 1.264 1_455 S
O359 Eu312 2.432 . S
O359 C376 1.268 . S
O360 Eu312 2.291 1_455 S
O360 C375 1.255 . S
O361 Eu323 2.372 . S
O361 C375 1.257 1_565 S
O362 Eu323 2.462 . S
O362 C387 1.252 . S
O363 Eu323 2.373 1_545 S
O363 C379 1.249 . S
O364 Eu312 2.335 1_455 S
O364 C379 1.264 . S
O365 Eu323 2.432 . S
O365 C387 1.268 . S
O366 Eu323 2.291 1_645 S
O366 C386 1.255 . S
O367 Eu312 2.372 . S
O367 C386 1.257 . S
C368 O357 1.249 . S
C368 O358 1.264 1_655 S
C369 C372 1.382 . S
C369 C374 1.390 . S
C369 C376 1.506 . S
C370 C371 1.398 . S
C370 C374 1.392 . S
C371 C370 1.398 . S
C371 C373 1.372 . S
C371 H388 0.931 . S
C372 C369 1.382 . S
C372 C373 1.390 . S
C372 H389 0.931 . S
C373 C371 1.372 . S
C373 C372 1.390 . S
C373 H390 0.929 . S
C374 C369 1.390 . S
C374 C370 1.392 . S
C374 H391 0.930 1_655 S
C375 O360 1.255 . S
C375 O361 1.257 1_545 S
C376 Eu312 2.787 . S
C376 O356 1.252 . S
C376 O359 1.268 . S
C376 C369 1.506 . S
C377 C344 1.439 . S
C377 H354 0.931 . S
C377 C378 1.374 . S
C378 C349 1.387 . S
C378 H355 0.931 . S
C378 C377 1.374 . S
C379 O363 1.249 . S
C379 O364 1.264 . S
C380 C383 1.382 . S
C380 C384 1.390 . S
C380 C387 1.506 . S
C381 C382 1.398 . S
C381 C384 1.392 . S
C382 C381 1.398 . S
C382 C385 1.372 . S
C382 H392 0.931 . S
C383 C380 1.382 . S
C383 C385 1.390 . S
C383 H393 0.931 . S
C384 C380 1.390 . S
C384 C381 1.392 . S
C384 H394 0.930 . S
C385 C382 1.372 . S
C385 C383 1.390 . S
C385 H395 0.929 . S
C386 O366 1.255 . S
C386 O367 1.257 . S
C387 Eu323 2.787 . S
C387 O362 1.252 . S
C387 O365 1.268 . S
C387 C380 1.506 . S
H388 C371 0.931 . S
H389 C372 0.931 . S
H390 C373 0.929 . S
H391 C374 0.930 1_455 S
H392 C382 0.931 . S
H393 C383 0.931 . S
H394 C384 0.930 . S
H395 C385 0.929 . S
Eu396 N425 2.600 . S
Eu396 N431 2.562 . S
Eu396 O440 2.462 . S
Eu396 O441 2.373 . S
Eu396 O443 2.432 . S
Eu396 O444 2.291 . S
Eu396 O448 2.335 1_545 S
Eu396 O451 2.372 . S
Eu396 C460 2.787 . S
C397 N398 1.365 . S
C397 C400 1.405 . S
C397 C404 1.448 . S
N398 C397 1.365 . S
N398 C401 1.319 . S
N398 Eu407 2.600 . S
C399 C401 1.397 . S
C399 C402 1.367 . S
C399 H419 0.931 . S
C400 C397 1.405 . S
C400 C402 1.403 . S
C400 C406 1.439 . S
C401 N398 1.319 . S
C401 C399 1.397 . S
C401 H412 0.930 . S
C402 C399 1.367 . S
C402 C400 1.403 . S
C402 H423 0.929 . S
C403 C404 1.430 . S
C403 C405 1.387 . S
C403 C409 1.404 . S
C404 C397 1.448 . S
C404 C403 1.430 . S
C404 N408 1.351 . S
C405 C403 1.387 . S
C405 C406 1.374 . S
C405 H420 0.931 . S
C406 C400 1.439 . S
C406 C405 1.374 . S
C406 H421 0.931 . S
Eu407 N398 2.600 . S
Eu407 N408 2.562 . S
Eu407 O442 2.335 1_565 S
Eu407 O445 2.372 . S
Eu407 O446 2.462 . S
Eu407 O447 2.373 . S
Eu407 O449 2.432 . S
Eu407 O450 2.291 1_565 S
Eu407 C471 2.787 . S
N408 C404 1.351 . S
N408 Eu407 2.562 . S
N408 C410 1.325 . S
C409 C403 1.404 . S
C409 C411 1.366 . S
C409 H417 0.930 . S
C410 N408 1.325 . S
C410 C411 1.416 . S
C410 H416 0.929 . S
C411 C409 1.366 . S
C411 C410 1.416 . S
C411 H413 0.930 . S
H412 C401 0.930 . S
H413 C411 0.930 . S
H414 C429 0.930 . S
H415 C436 0.930 . S
H416 C410 0.929 . S
H417 C409 0.930 . S
H418 C432 0.929 . S
H419 C399 0.931 . S
H420 C405 0.931 . S
H421 C406 0.931 . S
H422 C427 0.931 . S
H423 C402 0.929 . S
H424 C435 0.930 . S
N425 Eu396 2.600 . S
N425 C426 1.365 . S
N425 C429 1.319 . S
C426 N425 1.365 . S
C426 C428 1.405 . S
C426 C434 1.448 . S
C427 H422 0.931 . S
C427 C429 1.397 . S
C427 C430 1.367 . S
C428 C426 1.405 . S
C428 C430 1.403 . S
C428 C461 1.439 . S
C429 H414 0.930 . S
C429 N425 1.319 . S
C429 C427 1.397 . S
C430 C427 1.367 . S
C430 C428 1.403 . S
C430 H437 0.929 . S
N431 Eu396 2.562 . S
N431 C432 1.325 . S
N431 C434 1.351 . S
C432 H418 0.929 . S
C432 N431 1.325 . S
C432 C436 1.416 . S
C433 C434 1.430 . S
C433 C435 1.404 . S
C433 C462 1.387 . S
C434 C426 1.448 . S
C434 N431 1.351 . S
C434 C433 1.430 . S
C435 H424 0.930 . S
C435 C433 1.404 . S
C435 C436 1.366 . S
C436 H415 0.930 . S
C436 C432 1.416 . S
C436 C435 1.366 . S
H437 C430 0.929 . S
H438 C461 0.931 . S
H439 C462 0.931 . S
O440 Eu396 2.462 . S
O440 C460 1.252 . S
O441 Eu396 2.373 . S
O441 C452 1.249 . S
O442 Eu407 2.335 1_545 S
O442 C452 1.264 . S
O443 Eu396 2.432 . S
O443 C460 1.268 . S
O444 Eu396 2.291 . S
O444 C459 1.251 1_545 S
O445 Eu407 2.372 . S
O445 C459 1.259 . S
O446 Eu407 2.462 . S
O446 C471 1.252 . S
O447 Eu407 2.373 . S
O447 C463 1.249 . S
O448 Eu396 2.335 1_565 S
O448 C463 1.264 . S
O449 Eu407 2.432 . S
O449 C471 1.268 . S
O450 Eu407 2.291 1_545 S
O450 C470 1.255 . S
O451 Eu396 2.372 . S
O451 C470 1.257 . S
C452 O441 1.249 . S
C452 O442 1.264 . S
C453 C456 1.382 . S
C453 C458 1.390 . S
C453 C460 1.506 . S
C454 C455 1.398 . S
C454 C458 1.392 . S
C455 C454 1.398 . S
C455 C457 1.372 . S
C455 H472 0.931 . S
C456 C453 1.382 . S
C456 C457 1.390 . S
C456 H473 0.931 . S
C457 C455 1.372 . S
C457 C456 1.390 . S
C457 H474 0.929 . S
C458 C453 1.390 . S
C458 C454 1.392 . S
C458 H475 0.930 . S
C459 O444 1.251 1_565 S
C459 O445 1.259 . S
C460 Eu396 2.787 . S
C460 O440 1.252 . S
C460 O443 1.268 . S
C460 C453 1.506 . S
C461 C428 1.439 . S
C461 H438 0.931 . S
C461 C462 1.374 . S
C462 C433 1.387 . S
C462 H439 0.931 . S
C462 C461 1.374 . S
C463 O447 1.249 . S
C463 O448 1.264 . S
C464 C467 1.382 . S
C464 C468 1.390 1_565 S
C464 C471 1.506 . S
C465 C466 1.398 1_545 S
C465 C468 1.392 . S
C466 C465 1.398 1_565 S
C466 C469 1.372 . S
C466 H476 0.931 . S
C467 C464 1.382 . S
C467 C469 1.390 . S
C467 H477 0.931 . S
C468 C464 1.390 1_545 S
C468 C465 1.392 . S
C468 H478 0.930 . S
C469 C466 1.372 . S
C469 C467 1.390 . S
C469 H479 0.929 . S
C470 O450 1.255 . S
C470 O451 1.257 . S
C471 Eu407 2.787 . S
C471 O446 1.252 . S
C471 O449 1.268 . S
C471 C464 1.506 . S
H472 C455 0.931 . S
H473 C456 0.931 . S
H474 C457 0.929 . S
H475 C458 0.930 . S
H476 C466 0.931 . S
H477 C467 0.931 . S
H478 C468 0.930 . S
H479 C469 0.929 . S
Eu480 N509 2.600 . S
Eu480 N515 2.562 . S
Eu480 O524 2.462 . S
Eu480 O525 2.373 . S
Eu480 O527 2.432 . S
Eu480 O528 2.291 . S
Eu480 O532 2.335 . S
Eu480 O535 2.372 . S
Eu480 C544 2.787 . S
C481 N482 1.365 . S
C481 C484 1.405 . S
C481 C488 1.448 . S
N482 C481 1.365 . S
N482 C485 1.319 . S
N482 Eu491 2.600 . S
C483 C485 1.397 . S
C483 C486 1.367 . S
C483 H503 0.931 . S
C484 C481 1.405 . S
C484 C486 1.403 . S
C484 C490 1.439 . S
C485 N482 1.319 . S
C485 C483 1.397 . S
C485 H496 0.930 . S
C486 C483 1.367 . S
C486 C484 1.403 . S
C486 H507 0.929 . S
C487 C488 1.430 . S
C487 C489 1.387 . S
C487 C493 1.404 . S
C488 C481 1.448 . S
C488 C487 1.430 . S
C488 N492 1.351 . S
C489 C487 1.387 . S
C489 C490 1.374 . S
C489 H504 0.931 . S
C490 C484 1.439 . S
C490 C489 1.374 . S
C490 H505 0.931 . S
Eu491 N482 2.600 . S
Eu491 N492 2.562 . S
Eu491 O526 2.335 . S
Eu491 O529 2.372 . S
Eu491 O530 2.462 . S
Eu491 O531 2.373 . S
Eu491 O533 2.432 . S
Eu491 O534 2.291 . S
Eu491 C555 2.787 . S
N492 C488 1.351 . S
N492 Eu491 2.562 . S
N492 C494 1.325 . S
C493 C487 1.404 . S
C493 C495 1.366 . S
C493 H501 0.930 . S
C494 N492 1.325 . S
C494 C495 1.416 . S
C494 H500 0.929 . S
C495 C493 1.366 . S
C495 C494 1.416 . S
C495 H497 0.930 . S
H496 C485 0.930 . S
H497 C495 0.930 . S
H498 C513 0.930 . S
H499 C520 0.930 . S
H500 C494 0.929 . S
H501 C493 0.930 . S
H502 C516 0.929 . S
H503 C483 0.931 . S
H504 C489 0.931 . S
H505 C490 0.931 . S
H506 C511 0.931 . S
H507 C486 0.929 . S
H508 C519 0.930 . S
N509 Eu480 2.600 . S
N509 C510 1.365 . S
N509 C513 1.319 . S
C510 N509 1.365 . S
C510 C512 1.405 . S
C510 C518 1.448 . S
C511 H506 0.931 . S
C511 C513 1.397 . S
C511 C514 1.367 . S
C512 C510 1.405 . S
C512 C514 1.403 . S
C512 C545 1.439 . S
C513 H498 0.930 . S
C513 N509 1.319 . S
C513 C511 1.397 . S
C514 C511 1.367 . S
C514 C512 1.403 . S
C514 H521 0.929 . S
N515 Eu480 2.562 . S
N515 C516 1.325 . S
N515 C518 1.351 . S
C516 H502 0.929 . S
C516 N515 1.325 . S
C516 C520 1.416 . S
C517 C518 1.430 . S
C517 C519 1.404 . S
C517 C546 1.387 . S
C518 C510 1.448 . S
C518 N515 1.351 . S
C518 C517 1.430 . S
C519 H508 0.930 . S
C519 C517 1.404 . S
C519 C520 1.366 . S
C520 H499 0.930 . S
C520 C516 1.416 . S
C520 C519 1.366 . S
H521 C514 0.929 . S
H522 C545 0.931 . S
H523 C546 0.931 . S
O524 Eu480 2.462 . S
O524 C544 1.252 . S
O525 Eu480 2.373 . S
O525 C536 1.249 . S
O526 Eu491 2.335 . S
O526 C536 1.264 . S
O527 Eu480 2.432 . S
O527 C544 1.268 . S
O528 Eu480 2.291 . S
O528 C543 1.255 . S
O529 Eu491 2.372 . S
O529 C543 1.257 . S
O530 Eu491 2.462 . S
O530 C555 1.252 . S
O531 Eu491 2.373 . S
O531 C547 1.249 . S
O532 Eu480 2.335 . S
O532 C547 1.264 . S
O533 Eu491 2.432 . S
O533 C555 1.268 . S
O534 Eu491 2.291 . S
O534 C554 1.255 . S
O535 Eu480 2.372 . S
O535 C554 1.257 . S
C536 O525 1.249 . S
C536 O526 1.264 . S
C537 C540 1.382 . S
C537 C542 1.390 . S
C537 C544 1.506 . S
C538 C539 1.398 . S
C538 C542 1.392 . S
C539 C538 1.398 . S
C539 C541 1.372 . S
C539 H556 0.931 . S
C540 C537 1.382 . S
C540 C541 1.390 . S
C540 H557 0.931 . S
C541 C539 1.372 . S
C541 C540 1.390 . S
C541 H558 0.929 . S
C542 C537 1.390 . S
C542 C538 1.392 . S
C542 H559 0.930 . S
C543 O528 1.255 . S
C543 O529 1.257 . S
C544 Eu480 2.787 . S
C544 O524 1.252 . S
C544 O527 1.268 . S
C544 C537 1.506 . S
C545 C512 1.439 . S
C545 H522 0.931 . S
C545 C546 1.374 . S
C546 C517 1.387 . S
C546 H523 0.931 . S
C546 C545 1.374 . S
C547 O531 1.249 . S
C547 O532 1.264 . S
C548 C551 1.382 . S
C548 C552 1.390 . S
C548 C555 1.506 . S
C549 C550 1.398 . S
C549 C552 1.392 . S
C550 C549 1.398 . S
C550 C553 1.372 . S
C550 H560 0.931 . S
C551 C548 1.382 . S
C551 C553 1.390 . S
C551 H561 0.931 . S
C552 C548 1.390 . S
C552 C549 1.392 . S
C552 H562 0.930 . S
C553 C550 1.372 . S
C553 C551 1.390 . S
C553 H563 0.929 . S
C554 O534 1.255 . S
C554 O535 1.257 . S
C555 Eu491 2.787 . S
C555 O530 1.252 . S
C555 O533 1.268 . S
C555 C548 1.506 . S
H556 C539 0.931 . S
H557 C540 0.931 . S
H558 C541 0.929 . S
H559 C542 0.930 . S
H560 C550 0.931 . S
H561 C551 0.931 . S
H562 C552 0.930 . S
H563 C553 0.929 . S
Eu564 N593 2.600 . S
Eu564 N599 2.562 . S
Eu564 O608 2.462 . S
Eu564 O609 2.373 1_455 S
Eu564 O611 2.432 . S
Eu564 O612 2.291 . S
Eu564 O616 2.335 . S
Eu564 O619 2.372 . S
Eu564 C628 2.787 . S
C565 N566 1.365 1_455 S
C565 C568 1.405 . S
C565 C572 1.448 . S
N566 C565 1.365 1_655 S
N566 C569 1.319 . S
N566 Eu575 2.600 . S
C567 C569 1.397 1_455 S
C567 C570 1.367 . S
C567 H587 0.933 . S
C568 C565 1.405 . S
C568 C570 1.403 . S
C568 C574 1.439 . S
C569 N566 1.319 . S
C569 C567 1.397 1_655 S
C569 H580 0.930 . S
C570 C567 1.367 . S
C570 C568 1.403 . S
C570 H591 0.929 . S
C571 C572 1.430 . S
C571 C573 1.387 . S
C571 C577 1.404 . S
C572 C565 1.448 . S
C572 C571 1.430 . S
C572 N576 1.351 . S
C573 C571 1.387 . S
C573 C574 1.374 . S
C573 H588 0.931 . S
C574 C568 1.439 . S
C574 C573 1.374 . S
C574 H589 0.931 . S
Eu575 N566 2.600 . S
Eu575 N576 2.562 1_655 S
Eu575 O610 2.335 . S
Eu575 O613 2.372 . S
Eu575 O614 2.462 . S
Eu575 O615 2.373 1_655 S
Eu575 O617 2.432 . S
Eu575 O618 2.302 . S
Eu575 C639 2.787 . S
N576 C572 1.351 . S
N576 Eu575 2.562 1_455 S
N576 C578 1.325 . S
C577 C571 1.404 . S
C577 C579 1.366 . S
C577 H585 0.930 . S
C578 N576 1.325 . S
C578 C579 1.416 . S
C578 H584 0.929 1_455 S
C579 C577 1.366 . S
C579 C578 1.416 . S
C579 H581 0.930 . S
H580 C569 0.930 . S
H581 C579 0.930 . S
H582 C597 0.930 . S
H583 C604 0.930 . S
H584 C578 0.929 1_655 S
H585 C577 0.930 . S
H586 C600 0.929 . S
H587 C567 0.933 . S
H588 C573 0.931 . S
H589 C574 0.931 . S
H590 C595 0.931 . S
H591 C570 0.929 . S
H592 C603 0.930 . S
N593 Eu564 2.600 . S
N593 C594 1.365 . S
N593 C597 1.319 . S
C594 N593 1.365 . S
C594 C596 1.405 1_455 S
C594 C602 1.450 . S
C595 H590 0.931 . S
C595 C597 1.397 . S
C595 C598 1.367 1_455 S
C596 C594 1.405 1_655 S
C596 C598 1.403 . S
C596 C629 1.439 . S
C597 H582 0.930 . S
C597 N593 1.319 . S
C597 C595 1.397 . S
C598 C595 1.367 1_655 S
C598 C596 1.403 . S
C598 H605 0.929 . S
N599 Eu564 2.562 . S
N599 C600 1.325 . S
N599 C602 1.361 . S
C600 H586 0.929 . S
C600 N599 1.325 . S
C600 C604 1.416 1_455 S
C601 C602 1.418 1_655 S
C601 C603 1.404 . S
C601 C630 1.387 . S
C602 C594 1.450 . S
C602 N599 1.361 . S
C602 C601 1.418 1_455 S
C603 H592 0.930 . S
C603 C601 1.404 . S
C603 C604 1.366 . S
C604 H583 0.930 . S
C604 C600 1.416 1_655 S
C604 C603 1.366 . S
H605 C598 0.929 . S
H606 C629 0.931 . S
H607 C630 0.931 . S
O608 Eu564 2.462 . S
O608 C628 1.252 . S
O609 Eu564 2.373 1_655 S
O609 C620 1.249 . S
O610 Eu575 2.335 . S
O610 C620 1.264 . S
O611 Eu564 2.432 . S
O611 C628 1.268 . S
O612 Eu564 2.291 . S
O612 C627 1.255 . S
O613 Eu575 2.372 . S
O613 C627 1.257 1_655 S
O614 Eu575 2.462 . S
O614 C639 1.252 . S
O615 Eu575 2.373 1_455 S
O615 C631 1.249 . S
O616 Eu564 2.335 . S
O616 C631 1.264 . S
O617 Eu575 2.432 . S
O617 C639 1.268 . S
O618 Eu575 2.302 . S
O618 C638 1.248 1_655 S
O619 Eu564 2.372 . S
O619 C638 1.257 . S
C620 O609 1.249 . S
C620 O610 1.264 . S
C621 C624 1.382 . S
C621 C626 1.390 . S
C621 C628 1.506 . S
C622 C623 1.398 . S
C622 C626 1.392 . S
C623 C622 1.398 . S
C623 C625 1.372 . S
C623 H640 0.931 . S
C624 C621 1.382 . S
C624 C625 1.390 . S
C624 H641 0.931 . S
C625 C623 1.372 . S
C625 C624 1.390 . S
C625 H642 0.929 . S
C626 C621 1.390 . S
C626 C622 1.392 . S
C626 H643 0.930 . S
C627 O612 1.255 . S
C627 O613 1.257 1_455 S
C628 Eu564 2.787 . S
C628 O608 1.252 . S
C628 O611 1.268 . S
C628 C621 1.506 . S
C629 C596 1.439 . S
C629 H606 0.931 . S
C629 C630 1.374 . S
C630 C601 1.387 . S
C630 H607 0.931 . S
C630 C629 1.374 . S
C631 O615 1.249 . S
C631 O616 1.264 . S
C632 C635 1.382 . S
C632 C636 1.390 . S
C632 C639 1.506 . S
C633 C634 1.398 . S
C633 C636 1.392 . S
C634 C633 1.398 . S
C634 C637 1.372 . S
C634 H644 0.931 . S
C635 C632 1.382 . S
C635 C637 1.390 . S
C635 H645 0.931 . S
C636 C632 1.390 . S
C636 C633 1.392 . S
C636 H646 0.930 . S
C637 C634 1.372 . S
C637 C635 1.390 . S
C637 H647 0.929 . S
C638 O618 1.248 1_455 S
C638 O619 1.257 . S
C639 Eu575 2.787 . S
C639 O614 1.252 . S
C639 O617 1.268 . S
C639 C632 1.506 . S
H640 C623 0.931 . S
H641 C624 0.931 . S
H642 C625 0.929 . S
H643 C626 0.930 . S
H644 C634 0.931 . S
H645 C635 0.931 . S
H646 C636 0.930 . S
H647 C637 0.929 . S
H648 C660 0.930 . S
H649 C662 0.930 . S
H650 C663 0.930 1_565 S
H651 C667 0.959 . S
H652 C667 0.959 . S
H653 C667 0.961 . S
H654 C668 0.960 . S
H655 C668 0.961 . S
H656 C668 0.959 . S
H657 C671 0.929 . S
H658 C672 0.966 . S
H659 C674 0.930 . S
C660 H648 0.930 . S
C660 C661 1.399 . S
C660 C665 1.399 . S
C661 C660 1.399 . S
C661 C662 1.376 . S
C662 H649 0.930 . S
C662 C661 1.376 . S
C662 C663 1.388 . S
C663 H650 0.930 1_545 S
C663 C662 1.388 . S
C663 C664 1.390 . S
C664 C663 1.390 . S
C664 C665 1.394 . S
C664 C670 1.465 . S
C665 C660 1.399 . S
C665 C664 1.394 . S
C665 C666 1.516 . S
C666 C665 1.516 . S
C666 C667 1.502 . S
C666 C668 1.561 . S
C666 C669 1.526 . S
C667 H651 0.959 . S
C667 H652 0.959 . S
C667 H653 0.961 . S
C667 C666 1.502 . S
C668 H654 0.960 . S
C668 H655 0.961 . S
C668 H656 0.959 . S
C668 C666 1.561 . S
C669 C666 1.526 . S
C669 C670 1.396 . S
C669 C674 1.390 . S
C670 C664 1.465 . S
C670 C669 1.396 . S
C670 C671 1.399 1_545 S
C671 H657 0.929 . S
C671 C670 1.399 1_565 S
C671 C672 1.386 . S
C672 H658 0.966 . S
C672 C671 1.386 . S
C672 C673 1.355 1_565 S
C673 C672 1.355 1_545 S
C673 C674 1.387 . S
C674 H659 0.930 . S
C674 C669 1.390 . S
C674 C673 1.387 . S
H675 C687 0.930 . S
H676 C689 0.930 . S
H677 C690 0.930 . S
H678 C694 0.959 . S
H679 C694 0.959 . S
H680 C694 0.961 . S
H681 C695 0.960 . S
H682 C695 0.961 . S
H683 C695 0.959 . S
H684 C698 0.929 . S
H685 C699 0.931 . S
H686 C701 0.930 . S
C687 H675 0.930 . S
C687 C688 1.399 . S
C687 C692 1.399 . S
C688 C687 1.399 . S
C688 C689 1.376 . S
C689 H676 0.930 . S
C689 C688 1.376 . S
C689 C690 1.388 . S
C690 H677 0.930 . S
C690 C689 1.388 . S
C690 C691 1.390 . S
C691 C690 1.390 . S
C691 C692 1.394 . S
C691 C697 1.465 . S
C692 C687 1.399 . S
C692 C691 1.394 . S
C692 C693 1.516 . S
C693 C692 1.516 . S
C693 C694 1.502 . S
C693 C695 1.561 . S
C693 C696 1.526 . S
C694 H678 0.959 . S
C694 H679 0.959 . S
C694 H680 0.961 . S
C694 C693 1.502 . S
C695 H681 0.960 . S
C695 H682 0.961 . S
C695 H683 0.959 . S
C695 C693 1.561 . S
C696 C693 1.526 . S
C696 C697 1.396 . S
C696 C701 1.390 . S
C697 C691 1.465 . S
C697 C696 1.396 . S
C697 C698 1.399 . S
C698 H684 0.929 . S
C698 C697 1.399 . S
C698 C699 1.385 . S
C699 H685 0.931 . S
C699 C698 1.385 . S
C699 C700 1.389 . S
C700 C699 1.389 . S
C700 C701 1.387 . S
C701 H686 0.930 . S
C701 C696 1.390 . S
C701 C700 1.387 . S
H702 C714 0.930 . S
H703 C716 0.930 . S
H704 C717 0.930 . S
H705 C721 0.959 . S
H706 C721 0.959 . S
H707 C721 0.961 . S
H708 C722 0.960 . S
H709 C722 0.961 . S
H710 C722 0.959 . S
H711 C725 0.929 . S
H712 C726 0.931 . S
H713 C728 0.930 . S
C714 H702 0.930 . S
C714 C715 1.399 . S
C714 C719 1.399 . S
C715 C714 1.399 . S
C715 C716 1.376 . S
C716 H703 0.930 . S
C716 C715 1.376 . S
C716 C717 1.388 . S
C717 H704 0.930 . S
C717 C716 1.388 . S
C717 C718 1.390 . S
C718 C717 1.390 . S
C718 C719 1.394 . S
C718 C724 1.465 . S
C719 C714 1.399 . S
C719 C718 1.394 . S
C719 C720 1.516 . S
C720 C719 1.516 . S
C720 C721 1.502 . S
C720 C722 1.561 . S
C720 C723 1.526 . S
C721 H705 0.959 . S
C721 H706 0.959 . S
C721 H707 0.961 . S
C721 C720 1.502 . S
C722 H708 0.960 . S
C722 H709 0.961 . S
C722 H710 0.959 . S
C722 C720 1.561 . S
C723 C720 1.526 . S
C723 C724 1.396 . S
C723 C728 1.390 . S
C724 C718 1.465 . S
C724 C723 1.396 . S
C724 C725 1.399 . S
C725 H711 0.929 . S
C725 C724 1.399 . S
C725 C726 1.385 . S
C726 H712 0.931 . S
C726 C725 1.385 . S
C726 C727 1.389 . S
C727 C726 1.389 . S
C727 C728 1.387 . S
C728 H713 0.930 . S
C728 C723 1.390 . S
C728 C727 1.387 . S
H729 C741 0.930 . S
H730 C743 0.930 . S
H731 C744 0.930 . S
H732 C748 0.959 . S
H733 C748 0.959 . S
H734 C748 0.961 . S
H735 C749 0.960 . S
H736 C749 0.961 . S
H737 C749 0.959 1_455 S
H738 C752 0.929 . S
H739 C753 0.931 . S
H740 C755 0.930 1_655 S
C741 H729 0.930 . S
C741 C742 1.399 . S
C741 C746 1.399 . S
C742 C741 1.399 . S
C742 C743 1.376 . S
C743 H730 0.930 . S
C743 C742 1.376 . S
C743 C744 1.388 . S
C744 H731 0.930 . S
C744 C743 1.388 . S
C744 C745 1.390 . S
C745 C744 1.390 . S
C745 C746 1.394 . S
C745 C751 1.465 . S
C746 C741 1.399 . S
C746 C745 1.394 . S
C746 C747 1.516 . S
C747 C746 1.516 . S
C747 C748 1.502 1_455 S
C747 C749 1.561 1_455 S
C747 C750 1.526 . S
C748 H732 0.959 . S
C748 H733 0.959 . S
C748 H734 0.961 . S
C748 C747 1.502 1_655 S
C749 H735 0.960 . S
C749 H736 0.961 . S
C749 H737 0.959 1_655 S
C749 C747 1.561 1_655 S
C750 C747 1.526 . S
C750 C751 1.396 . S
C750 C755 1.390 . S
C751 C745 1.465 . S
C751 C750 1.396 . S
C751 C752 1.399 . S
C752 H738 0.929 . S
C752 C751 1.399 . S
C752 C753 1.385 . S
C753 H739 0.931 . S
C753 C752 1.385 . S
C753 C754 1.389 . S
C754 C753 1.389 . S
C754 C755 1.387 . S
C755 H740 0.930 1_455 S
C755 C750 1.390 . S
C755 C754 1.387 . S
H756 C768 0.930 . S
H757 C770 0.930 . S
H758 C771 0.930 . S
H759 C775 0.959 . S
H760 C775 0.959 . S
H761 C775 0.961 . S
H762 C776 0.960 . S
H763 C776 0.961 . S
H764 C776 0.959 . S
H765 C779 0.929 . S
H766 C780 0.931 . S
H767 C782 0.930 . S
C768 H756 0.930 . S
C768 C769 1.399 . S
C768 C773 1.399 1_554 S
C769 C768 1.399 . S
C769 C770 1.376 1_565 S
C770 H757 0.930 . S
C770 C769 1.376 1_545 S
C770 C771 1.388 . S
C771 H758 0.930 . S
C771 C770 1.388 . S
C771 C772 1.390 1_544 S
C772 C771 1.390 1_566 S
C772 C773 1.394 . S
C772 C778 1.463 1_565 S
C773 C768 1.399 1_556 S
C773 C772 1.394 . S
C773 C774 1.516 . S
C774 C773 1.516 . S
C774 C775 1.502 . S
C774 C776 1.561 . S
C774 C777 1.526 . S
C775 H759 0.959 . S
C775 H760 0.959 . S
C775 H761 0.961 . S
C775 C774 1.502 . S
C776 H762 0.960 . S
C776 H763 0.961 . S
C776 H764 0.959 . S
C776 C774 1.561 . S
C777 C774 1.526 . S
C777 C778 1.386 1_565 S
C777 C782 1.390 . S
C778 C772 1.463 1_545 S
C778 C777 1.386 1_545 S
C778 C779 1.408 . S
C779 H765 0.929 . S
C779 C778 1.408 . S
C779 C780 1.385 . S
C780 H766 0.931 . S
C780 C779 1.385 . S
C780 C781 1.365 1_545 S
C781 C780 1.365 1_565 S
C781 C782 1.411 . S
C782 H767 0.930 . S
C782 C777 1.390 . S
C782 C781 1.411 . S
H783 C795 0.930 . S
H784 C797 0.930 . S
H785 C798 0.930 . S
H786 C802 0.959 . S
H787 C802 0.959 . S
H788 C802 0.961 . S
H789 C803 0.960 . S
H790 C803 0.961 . S
H791 C803 0.959 . S
H792 C806 0.929 . S
H793 C807 0.931 . S
H794 C809 0.930 . S
C795 H783 0.930 . S
C795 C796 1.399 . S
C795 C800 1.399 1_554 S
C796 C795 1.399 . S
C796 C797 1.376 . S
C797 H784 0.930 . S
C797 C796 1.376 . S
C797 C798 1.388 . S
C798 H785 0.930 . S
C798 C797 1.388 . S
C798 C799 1.390 1_554 S
C799 C798 1.390 1_556 S
C799 C800 1.394 . S
C799 C805 1.465 . S
C800 C795 1.399 1_556 S
C800 C799 1.394 . S
C800 C801 1.516 . S
C801 C800 1.516 . S
C801 C802 1.502 . S
C801 C803 1.561 . S
C801 C804 1.526 . S
C802 H786 0.959 . S
C802 H787 0.959 . S
C802 H788 0.961 . S
C802 C801 1.502 . S
C803 H789 0.960 . S
C803 H790 0.961 . S
C803 H791 0.959 . S
C803 C801 1.561 . S
C804 C801 1.526 . S
C804 C805 1.396 . S
C804 C809 1.390 . S
C805 C799 1.465 . S
C805 C804 1.396 . S
C805 C806 1.399 . S
C806 H792 0.929 . S
C806 C805 1.399 . S
C806 C807 1.385 . S
C807 H793 0.931 . S
C807 C806 1.385 . S
C807 C808 1.389 . S
C808 C807 1.389 . S
C808 C809 1.387 . S
C809 H794 0.930 . S
C809 C804 1.390 . S
C809 C808 1.387 . S
H810 C822 0.930 . S
H811 C824 0.930 . S
H812 C825 0.930 1_556 S
H813 C829 0.959 . S
H814 C829 0.959 . S
H815 C829 0.961 1_554 S
H816 C830 0.960 . S
H817 C830 0.961 1_556 S
H818 C830 0.959 . S
H819 C833 0.929 . S
H820 C834 0.931 . S
H821 C836 0.930 . S
C822 H810 0.930 . S
C822 C823 1.399 . S
C822 C827 1.399 . S
C823 C822 1.399 . S
C823 C824 1.376 . S
C824 H811 0.930 . S
C824 C823 1.376 . S
C824 C825 1.388 . S
C825 H812 0.930 1_554 S
C825 C824 1.388 . S
C825 C826 1.390 1_554 S
C826 C825 1.390 1_556 S
C826 C827 1.394 1_556 S
C826 C832 1.465 . S
C827 C822 1.399 . S
C827 C826 1.394 1_554 S
C827 C828 1.516 1_554 S
C828 C827 1.516 1_556 S
C828 C829 1.502 . S
C828 C830 1.561 1_556 S
C828 C831 1.526 . S
C829 H813 0.959 . S
C829 H814 0.959 . S
C829 H815 0.961 1_556 S
C829 C828 1.502 . S
C830 H816 0.960 . S
C830 H817 0.961 1_554 S
C830 H818 0.959 . S
C830 C828 1.561 1_554 S
C831 C828 1.526 . S
C831 C832 1.396 . S
C831 C836 1.390 . S
C832 C826 1.465 . S
C832 C831 1.396 . S
C832 C833 1.399 . S
C833 H819 0.929 . S
C833 C832 1.399 . S
C833 C834 1.385 . S
C834 H820 0.931 . S
C834 C833 1.385 . S
C834 C835 1.389 . S
C835 C834 1.389 . S
C835 C836 1.387 . S
C836 H821 0.930 . S
C836 C831 1.390 . S
C836 C835 1.387 . S
H837 C849 0.930 . S
H838 C851 0.930 . S
H839 C852 0.930 . S
H840 C856 0.959 . S
H841 C856 0.959 . S
H842 C856 0.961 1_554 S
H843 C857 0.979 . S
H844 C857 0.953 1_556 S
H845 C857 0.954 1_556 S
H846 C860 0.929 . S
H847 C861 0.931 . S
H848 C863 0.911 1_455 S
C849 H837 0.930 . S
C849 C850 1.399 . S
C849 C854 1.399 . S
C850 C849 1.399 . S
C850 C851 1.376 . S
C851 H838 0.930 . S
C851 C850 1.376 . S
C851 C852 1.388 1_554 S
C852 H839 0.930 . S
C852 C851 1.388 1_556 S
C852 C853 1.390 . S
C853 C852 1.390 . S
C853 C854 1.394 1_556 S
C853 C859 1.465 . S
C854 C849 1.399 . S
C854 C853 1.394 1_554 S
C854 C855 1.516 1_554 S
C855 C854 1.516 1_556 S
C855 C856 1.502 1_655 S
C855 C857 1.556 1_556 S
C855 C858 1.526 . S
C856 H840 0.959 . S
C856 H841 0.959 . S
C856 H842 0.961 1_556 S
C856 C855 1.502 1_455 S
C857 H843 0.979 . S
C857 H844 0.953 1_554 S
C857 H845 0.954 1_554 S
C857 C855 1.556 1_554 S
C858 C855 1.526 . S
C858 C859 1.396 . S
C858 C863 1.399 . S
C859 C853 1.465 . S
C859 C858 1.396 . S
C859 C860 1.399 . S
C860 H846 0.929 . S
C860 C859 1.399 . S
C860 C861 1.385 . S
C861 H847 0.931 . S
C861 C860 1.385 . S
C861 C862 1.389 . S
C862 C861 1.389 . S
C862 C863 1.396 . S
C863 H848 0.911 1_655 S
C863 C858 1.399 . S
C863 C862 1.396 . S
H864 C876 0.930 . S
H865 C878 0.930 . S
H866 C879 0.930 . S
H867 C883 0.959 . S
H868 C883 0.959 . S
H869 C883 0.961 . S
H870 C884 0.960 1_455 S
H871 C884 0.961 . S
H872 C884 0.959 . S
H873 C887 0.929 . S
H874 C888 0.941 . S
H875 C890 0.930 . S
C876 H864 0.930 . S
C876 C877 1.399 . S
C876 C881 1.399 . S
C877 C876 1.399 . S
C877 C878 1.376 . S
C878 H865 0.930 . S
C878 C877 1.376 . S
C878 C879 1.388 . S
C879 H866 0.930 . S
C879 C878 1.388 . S
C879 C880 1.390 . S
C880 C879 1.390 . S
C880 C881 1.394 . S
C880 C886 1.465 . S
C881 C876 1.399 . S
C881 C880 1.394 . S
C881 C882 1.516 . S
C882 C881 1.516 . S
C882 C883 1.502 . S
C882 C884 1.561 1_455 S
C882 C885 1.526 . S
C883 H867 0.959 . S
C883 H868 0.959 . S
C883 H869 0.961 . S
C883 C882 1.502 . S
C884 H870 0.960 1_655 S
C884 H871 0.961 . S
C884 H872 0.959 . S
C884 C882 1.561 1_655 S
C885 C882 1.526 . S
C885 C886 1.396 . S
C885 C890 1.390 . S
C886 C880 1.465 . S
C886 C885 1.396 . S
C886 C887 1.399 . S
C887 H873 0.929 . S
C887 C886 1.399 . S
C887 C888 1.374 1_455 S
C888 H874 0.941 . S
C888 C887 1.374 1_655 S
C888 C889 1.391 . S
C889 C888 1.391 . S
C889 C890 1.387 1_655 S
C890 H875 0.930 . S
C890 C885 1.390 . S
C890 C889 1.387 1_455 S
H891 C903 0.930 . S
H892 C905 0.930 . S
H893 C906 0.930 . S
H894 C910 0.959 . S
H895 C910 0.959 . S
H896 C910 0.961 . S
H897 C911 0.960 . S
H898 C911 0.961 . S
H899 C911 0.959 . S
H900 C914 0.918 1_565 S
H901 C915 0.931 . S
H902 C917 0.930 . S
C903 H891 0.930 . S
C903 C904 1.399 . S
C903 C908 1.399 . S
C904 C903 1.399 . S
C904 C905 1.376 . S
C905 H892 0.930 . S
C905 C904 1.376 . S
C905 C906 1.388 . S
C906 H893 0.930 . S
C906 C905 1.388 . S
C906 C907 1.390 . S
C907 C906 1.390 . S
C907 C908 1.394 . S
C907 C913 1.465 . S
C908 C903 1.399 . S
C908 C907 1.394 . S
C908 C909 1.516 . S
C909 C908 1.516 . S
C909 C910 1.502 . S
C909 C911 1.561 . S
C909 C912 1.526 . S
C910 H894 0.959 . S
C910 H895 0.959 . S
C910 H896 0.961 . S
C910 C909 1.502 . S
C911 H897 0.960 . S
C911 H898 0.961 . S
C911 H899 0.959 . S
C911 C909 1.561 . S
C912 C909 1.526 . S
C912 C913 1.396 . S
C912 C917 1.390 . S
C913 C907 1.465 . S
C913 C912 1.396 . S
C913 C914 1.421 . S
C914 H900 0.918 1_545 S
C914 C913 1.421 . S
C914 C915 1.376 1_545 S
C915 H901 0.931 . S
C915 C914 1.376 1_565 S
C915 C916 1.389 1_565 S
C916 C915 1.389 1_545 S
C916 C917 1.387 . S
C917 H902 0.930 . S
C917 C912 1.390 . S
C917 C916 1.387 . S
H918 C930 0.930 . S
H919 C932 0.930 . S
H920 C933 0.930 . S
H921 C937 0.959 . S
H922 C937 0.959 . S
H923 C937 0.961 . S
H924 C938 0.960 . S
H925 C938 0.961 . S
H926 C938 0.959 . S
H927 C941 0.929 . S
H928 C942 0.931 . S
H929 C944 0.930 . S
C930 H918 0.930 . S
C930 C931 1.399 . S
C930 C935 1.399 . S
C931 C930 1.399 . S
C931 C932 1.376 . S
C932 H919 0.930 . S
C932 C931 1.376 . S
C932 C933 1.388 . S
C933 H920 0.930 . S
C933 C932 1.388 . S
C933 C934 1.390 . S
C934 C933 1.390 . S
C934 C935 1.394 . S
C934 C940 1.465 . S
C935 C930 1.399 . S
C935 C934 1.394 . S
C935 C936 1.516 . S
C936 C935 1.516 . S
C936 C937 1.502 . S
C936 C938 1.561 . S
C936 C939 1.526 . S
C937 H921 0.959 . S
C937 H922 0.959 . S
C937 H923 0.961 . S
C937 C936 1.502 . S
C938 H924 0.960 . S
C938 H925 0.961 . S
C938 H926 0.959 . S
C938 C936 1.561 . S
C939 C936 1.526 . S
C939 C940 1.396 . S
C939 C944 1.390 . S
C940 C934 1.465 . S
C940 C939 1.396 . S
C940 C941 1.399 . S
C941 H927 0.929 . S
C941 C940 1.399 . S
C941 C942 1.385 . S
C942 H928 0.931 . S
C942 C941 1.385 . S
C942 C943 1.389 . S
C943 C942 1.389 . S
C943 C944 1.387 . S
C944 H929 0.930 . S
C944 C939 1.390 . S
C944 C943 1.387 . S
H945 C957 0.930 . S
H946 C959 0.930 . S
H947 C960 0.930 . S
H948 C964 0.959 . S
H949 C964 0.959 . S
H950 C964 0.961 . S
H951 C965 0.960 . S
H952 C965 0.961 . S
H953 C965 0.959 . S
H954 C968 0.929 . S
H955 C969 0.931 . S
H956 C971 0.930 . S
C957 H945 0.930 . S
C957 C958 1.399 . S
C957 C962 1.399 . S
C958 C957 1.399 . S
C958 C959 1.376 . S
C959 H946 0.930 . S
C959 C958 1.376 . S
C959 C960 1.388 . S
C960 H947 0.930 . S
C960 C959 1.388 . S
C960 C961 1.390 . S
C961 C960 1.390 . S
C961 C962 1.394 . S
C961 C967 1.465 . S
C962 C957 1.399 . S
C962 C961 1.394 . S
C962 C963 1.516 . S
C963 C962 1.516 . S
C963 C964 1.502 . S
C963 C965 1.561 . S
C963 C966 1.526 . S
C964 H948 0.959 . S
C964 H949 0.959 . S
C964 H950 0.961 . S
C964 C963 1.502 . S
C965 H951 0.960 . S
C965 H952 0.961 . S
C965 H953 0.959 . S
C965 C963 1.561 . S
C966 C963 1.526 . S
C966 C967 1.396 . S
C966 C971 1.390 . S
C967 C961 1.465 . S
C967 C966 1.396 . S
C967 C968 1.399 . S
C968 H954 0.929 . S
C968 C967 1.399 . S
C968 C969 1.385 . S
C969 H955 0.931 . S
C969 C968 1.385 . S
C969 C970 1.389 . S
C970 C969 1.389 . S
C970 C971 1.387 . S
C971 H956 0.930 . S
C971 C966 1.390 . S
C971 C970 1.387 . S
H972 C984 0.930 . S
H973 C986 0.930 . S
H974 C987 0.930 . S
H975 C991 0.959 1_556 S
H976 C991 0.959 . S
H977 C991 0.961 . S
H978 C992 0.946 1_655 S
H979 C992 0.968 . S
H980 C992 0.993 . S
H981 C995 0.929 . S
H982 C996 0.931 . S
H983 C998 0.927 1_655 S
C984 H972 0.930 . S
C984 C985 1.399 . S
C984 C989 1.399 . S
C985 C984 1.399 . S
C985 C986 1.376 1_554 S
C986 H973 0.930 . S
C986 C985 1.376 1_556 S
C986 C987 1.388 . S
C987 H974 0.930 . S
C987 C986 1.388 . S
C987 C988 1.390 . S
C988 C987 1.390 . S
C988 C989 1.394 1_556 S
C988 C994 1.465 . S
C989 C984 1.399 . S
C989 C988 1.394 1_554 S
C989 C990 1.516 . S
C990 C989 1.516 . S
C990 C991 1.502 . S
C990 C992 1.536 1_655 S
C990 C993 1.526 1_554 S
C991 H975 0.959 1_554 S
C991 H976 0.959 . S
C991 H977 0.961 . S
C991 C990 1.502 . S
C992 H978 0.946 1_455 S
C992 H979 0.968 . S
C992 H980 0.993 . S
C992 C990 1.536 1_455 S
C993 C990 1.526 1_556 S
C993 C994 1.396 . S
C993 C998 1.390 1_655 S
C994 C988 1.465 . S
C994 C993 1.396 . S
C994 C995 1.399 1_655 S
C995 H981 0.929 . S
C995 C994 1.399 1_455 S
C995 C996 1.385 . S
C996 H982 0.931 . S
C996 C995 1.385 . S
C996 C997 1.389 . S
C997 C996 1.389 . S
C997 C998 1.387 . S
C998 H983 0.927 1_455 S
C998 C993 1.390 1_455 S
C998 C997 1.387 . S
H999 C1011 0.930 . S
H1000 C1013 0.930 . S
H1001 C1014 0.913 1_545 S
H1002 C1018 0.959 . S
H1003 C1018 0.959 . S
H1004 C1018 0.961 . S
H1005 C1019 0.960 . S
H1006 C1019 0.961 . S
H1007 C1019 0.959 . S
H1008 C1022 0.929 1_554 S
H1009 C1023 0.931 . S
H1010 C1025 0.930 . S
C1011 H999 0.930 . S
C1011 C1012 1.399 1_556 S
C1011 C1016 1.399 . S
C1012 C1011 1.399 1_554 S
C1012 C1013 1.376 . S
C1013 H1000 0.930 . S
C1013 C1012 1.376 . S
C1013 C1014 1.400 . S
C1014 H1001 0.913 1_565 S
C1014 C1013 1.400 . S
C1014 C1015 1.396 1_554 S
C1015 C1014 1.396 1_556 S
C1015 C1016 1.394 . S
C1015 C1021 1.465 1_565 S
C1016 C1011 1.399 . S
C1016 C1015 1.394 . S
C1016 C1017 1.516 . S
C1017 C1016 1.516 . S
C1017 C1018 1.502 . S
C1017 C1019 1.561 . S
C1017 C1020 1.526 . S
C1018 H1002 0.959 . S
C1018 H1003 0.959 . S
C1018 H1004 0.961 . S
C1018 C1017 1.502 . S
C1019 H1005 0.960 . S
C1019 H1006 0.961 . S
C1019 H1007 0.959 . S
C1019 C1017 1.561 . S
C1020 C1017 1.526 . S
C1020 C1021 1.396 1_565 S
C1020 C1025 1.390 . S
C1021 C1015 1.465 1_545 S
C1021 C1020 1.396 1_545 S
C1021 C1022 1.399 . S
C1022 H1008 0.929 1_556 S
C1022 C1021 1.399 . S
C1022 C1023 1.385 . S
C1023 H1009 0.931 . S
C1023 C1022 1.385 . S
C1023 C1024 1.389 . S
C1024 C1023 1.389 . S
C1024 C1025 1.387 1_545 S
C1025 H1010 0.930 . S
C1025 C1020 1.390 . S
C1025 C1024 1.387 1_565 S
H1026 C1038 0.930 . S
H1027 C1040 0.930 . S
H1028 C1041 0.930 . S
H1029 C1045 0.959 . S
H1030 C1045 0.959 . S
H1031 C1045 0.961 1_554 S
H1032 C1046 0.960 . S
H1033 C1046 0.961 . S
H1034 C1046 0.959 . S
H1035 C1049 0.929 . S
H1036 C1050 0.931 . S
H1037 C1052 0.930 . S
C1038 H1026 0.930 . S
C1038 C1039 1.399 . S
C1038 C1043 1.399 1_554 S
C1039 C1038 1.399 . S
C1039 C1040 1.376 1_554 S
C1040 H1027 0.930 . S
C1040 C1039 1.376 1_556 S
C1040 C1041 1.388 . S
C1041 H1028 0.930 . S
C1041 C1040 1.388 . S
C1041 C1042 1.390 . S
C1042 C1041 1.390 . S
C1042 C1043 1.394 . S
C1042 C1048 1.465 . S
C1043 C1038 1.399 1_556 S
C1043 C1042 1.394 . S
C1043 C1044 1.516 . S
C1044 C1043 1.516 . S
C1044 C1045 1.502 . S
C1044 C1046 1.561 1_556 S
C1044 C1047 1.526 . S
C1045 H1029 0.959 . S
C1045 H1030 0.959 . S
C1045 H1031 0.961 1_556 S
C1045 C1044 1.502 . S
C1046 H1032 0.960 . S
C1046 H1033 0.961 . S
C1046 H1034 0.959 . S
C1046 C1044 1.561 1_554 S
C1047 C1044 1.526 . S
C1047 C1048 1.396 . S
C1047 C1052 1.390 . S
C1048 C1042 1.465 . S
C1048 C1047 1.396 . S
C1048 C1049 1.399 . S
C1049 H1035 0.929 . S
C1049 C1048 1.399 . S
C1049 C1050 1.385 . S
C1050 H1036 0.931 . S
C1050 C1049 1.385 . S
C1050 C1051 1.389 . S
C1051 C1050 1.389 . S
C1051 C1052 1.387 . S
C1052 H1037 0.930 . S
C1052 C1047 1.390 . S
C1052 C1051 1.387 . S
H1053 C1065 0.930 . S
H1054 C1067 0.930 . S
H1055 C1068 0.930 . S
H1056 C1072 0.959 . S
H1057 C1072 0.959 . S
H1058 C1072 0.961 . S
H1059 C1073 0.960 . S
H1060 C1073 0.961 . S
H1061 C1073 0.959 . S
H1062 C1076 0.929 . S
H1063 C1077 0.931 . S
H1064 C1079 0.930 . S
C1065 H1053 0.930 . S
C1065 C1066 1.399 . S
C1065 C1070 1.399 . S
C1066 C1065 1.399 . S
C1066 C1067 1.376 1_554 S
C1067 H1054 0.930 . S
C1067 C1066 1.376 1_556 S
C1067 C1068 1.388 . S
C1068 H1055 0.930 . S
C1068 C1067 1.388 . S
C1068 C1069 1.390 . S
C1069 C1068 1.390 . S
C1069 C1070 1.394 1_556 S
C1069 C1075 1.465 . S
C1070 C1065 1.399 . S
C1070 C1069 1.394 1_554 S
C1070 C1071 1.516 . S
C1071 C1070 1.516 . S
C1071 C1072 1.502 . S
C1071 C1073 1.561 . S
C1071 C1074 1.526 1_554 S
C1072 H1056 0.959 . S
C1072 H1057 0.959 . S
C1072 H1058 0.961 . S
C1072 C1071 1.502 . S
C1073 H1059 0.960 . S
C1073 H1060 0.961 . S
C1073 H1061 0.959 . S
C1073 C1071 1.561 . S
C1074 C1071 1.526 1_556 S
C1074 C1075 1.396 . S
C1074 C1079 1.390 . S
C1075 C1069 1.465 . S
C1075 C1074 1.396 . S
C1075 C1076 1.399 . S
C1076 H1062 0.929 . S
C1076 C1075 1.399 . S
C1076 C1077 1.385 . S
C1077 H1063 0.931 . S
C1077 C1076 1.385 . S
C1077 C1078 1.389 . S
C1078 C1077 1.389 . S
C1078 C1079 1.387 . S
C1079 H1064 0.930 . S
C1079 C1074 1.390 . S
C1079 C1078 1.387 . S
H1080 C1092 0.930 . S
H1081 C1094 0.930 . S
H1082 C1095 0.930 . S
H1083 C1099 0.959 . S
H1084 C1099 0.959 . S
H1085 C1099 0.961 . S
H1086 C1100 0.960 . S
H1087 C1100 0.961 . S
H1088 C1100 0.959 . S
H1089 C1103 0.929 . S
H1090 C1104 0.931 . S
H1091 C1106 0.930 . S
C1092 H1080 0.930 . S
C1092 C1093 1.399 . S
C1092 C1097 1.399 . S
C1093 C1092 1.399 . S
C1093 C1094 1.376 . S
C1094 H1081 0.930 . S
C1094 C1093 1.376 . S
C1094 C1095 1.388 . S
C1095 H1082 0.930 . S
C1095 C1094 1.388 . S
C1095 C1096 1.390 . S
C1096 C1095 1.390 . S
C1096 C1097 1.394 . S
C1096 C1102 1.465 . S
C1097 C1092 1.399 . S
C1097 C1096 1.394 . S
C1097 C1098 1.516 . S
C1098 C1097 1.516 . S
C1098 C1099 1.502 . S
C1098 C1100 1.561 1_455 S
C1098 C1101 1.526 . S
C1099 H1083 0.959 . S
C1099 H1084 0.959 . S
C1099 H1085 0.961 . S
C1099 C1098 1.502 . S
C1100 H1086 0.960 . S
C1100 H1087 0.961 . S
C1100 H1088 0.959 . S
C1100 C1098 1.561 1_655 S
C1101 C1098 1.526 . S
C1101 C1102 1.396 . S
C1101 C1106 1.390 . S
C1102 C1096 1.465 . S
C1102 C1101 1.396 . S
C1102 C1103 1.399 . S
C1103 H1089 0.929 . S
C1103 C1102 1.399 . S
C1103 C1104 1.385 . S
C1104 H1090 0.931 . S
C1104 C1103 1.385 . S
C1104 C1105 1.389 . S
C1105 C1104 1.389 . S
C1105 C1106 1.387 . S
C1106 H1091 0.930 . S
C1106 C1101 1.390 . S
C1106 C1105 1.387 . S
H1107 C1119 0.930 . S
H1108 C1121 0.930 . S
H1109 C1122 0.930 . S
H1110 C1126 0.996 . S
H1111 C1126 0.959 . S
H1112 C1126 0.961 . S
H1113 C1127 0.960 . S
H1114 C1127 0.961 . S
H1115 C1127 0.959 . S
H1116 C1130 0.929 . S
H1117 C1131 0.931 . S
H1118 C1133 0.930 . S
C1119 H1107 0.930 . S
C1119 C1120 1.399 . S
C1119 C1124 1.399 . S
C1120 C1119 1.399 . S
C1120 C1121 1.376 . S
C1121 H1108 0.930 . S
C1121 C1120 1.376 . S
C1121 C1122 1.388 . S
C1122 H1109 0.930 . S
C1122 C1121 1.388 . S
C1122 C1123 1.390 . S
C1123 C1122 1.390 . S
C1123 C1124 1.394 . S
C1123 C1129 1.465 . S
C1124 C1119 1.399 . S
C1124 C1123 1.394 . S
C1124 C1125 1.516 . S
C1125 C1124 1.516 . S
C1125 C1126 1.502 . S
C1125 C1127 1.561 . S
C1125 C1128 1.526 . S
C1126 H1110 0.996 . S
C1126 H1111 0.959 . S
C1126 H1112 0.961 . S
C1126 C1125 1.502 . S
C1127 H1113 0.960 . S
C1127 H1114 0.961 . S
C1127 H1115 0.959 . S
C1127 C1125 1.561 . S
C1128 C1125 1.526 . S
C1128 C1129 1.396 . S
C1128 C1133 1.390 . S
C1129 C1123 1.465 . S
C1129 C1128 1.396 . S
C1129 C1130 1.399 . S
C1130 H1116 0.929 . S
C1130 C1129 1.399 . S
C1130 C1131 1.385 . S
C1131 H1117 0.931 . S
C1131 C1130 1.385 . S
C1131 C1132 1.389 . S
C1132 C1131 1.389 . S
C1132 C1133 1.387 . S
C1133 H1118 0.930 . S
C1133 C1128 1.390 . S
C1133 C1132 1.387 . S
H1134 C1146 0.930 . S
H1135 C1148 0.930 . S
H1136 C1149 0.930 . S
H1137 C1153 0.959 . S
H1138 C1153 0.959 . S
H1139 C1153 0.961 . S
H1140 C1154 0.960 . S
H1141 C1154 0.961 . S
H1142 C1154 0.959 . S
H1143 C1157 0.929 . S
H1144 C1158 0.931 . S
H1145 C1160 0.930 . S
C1146 H1134 0.930 . S
C1146 C1147 1.399 . S
C1146 C1151 1.399 . S
C1147 C1146 1.399 . S
C1147 C1148 1.376 . S
C1148 H1135 0.930 . S
C1148 C1147 1.376 . S
C1148 C1149 1.388 . S
C1149 H1136 0.930 . S
C1149 C1148 1.388 . S
C1149 C1150 1.390 . S
C1150 C1149 1.390 . S
C1150 C1151 1.394 . S
C1150 C1156 1.465 . S
C1151 C1146 1.399 . S
C1151 C1150 1.394 . S
C1151 C1152 1.516 . S
C1152 C1151 1.516 . S
C1152 C1153 1.502 . S
C1152 C1154 1.561 . S
C1152 C1155 1.526 . S
C1153 H1137 0.959 . S
C1153 H1138 0.959 . S
C1153 H1139 0.961 . S
C1153 C1152 1.502 . S
C1154 H1140 0.960 . S
C1154 H1141 0.961 . S
C1154 H1142 0.959 . S
C1154 C1152 1.561 . S
C1155 C1152 1.526 . S
C1155 C1156 1.396 . S
C1155 C1160 1.390 . S
C1156 C1150 1.465 . S
C1156 C1155 1.396 . S
C1156 C1157 1.399 . S
C1157 H1143 0.929 . S
C1157 C1156 1.399 . S
C1157 C1158 1.385 . S
C1158 H1144 0.931 . S
C1158 C1157 1.385 . S
C1158 C1159 1.389 . S
C1159 C1158 1.389 . S
C1159 C1160 1.387 . S
C1160 H1145 0.930 . S
C1160 C1155 1.390 . S
C1160 C1159 1.387 . S
H1161 C1173 0.930 . S
H1162 C1175 0.930 . S
H1163 C1176 0.930 . S
H1164 C1180 0.959 . S
H1165 C1180 0.959 . S
H1166 C1180 0.961 . S
H1167 C1181 0.960 . S
H1168 C1181 0.961 . S
H1169 C1181 0.959 . S
H1170 C1184 0.929 . S
H1171 C1185 0.931 . S
H1172 C1187 0.930 . S
C1173 H1161 0.930 . S
C1173 C1174 1.399 . S
C1173 C1178 1.399 . S
C1174 C1173 1.399 . S
C1174 C1175 1.376 . S
C1175 H1162 0.930 . S
C1175 C1174 1.376 . S
C1175 C1176 1.388 . S
C1176 H1163 0.930 . S
C1176 C1175 1.388 . S
C1176 C1177 1.390 . S
C1177 C1176 1.390 . S
C1177 C1178 1.394 . S
C1177 C1183 1.465 . S
C1178 C1173 1.399 . S
C1178 C1177 1.394 . S
C1178 C1179 1.516 . S
C1179 C1178 1.516 . S
C1179 C1180 1.502 . S
C1179 C1181 1.561 . S
C1179 C1182 1.526 . S
C1180 H1164 0.959 . S
C1180 H1165 0.959 . S
C1180 H1166 0.961 . S
C1180 C1179 1.502 . S
C1181 H1167 0.960 . S
C1181 H1168 0.961 . S
C1181 H1169 0.959 . S
C1181 C1179 1.561 . S
C1182 C1179 1.526 . S
C1182 C1183 1.396 . S
C1182 C1187 1.390 . S
C1183 C1177 1.465 . S
C1183 C1182 1.396 . S
C1183 C1184 1.399 . S
C1184 H1170 0.929 . S
C1184 C1183 1.399 . S
C1184 C1185 1.385 . S
C1185 H1171 0.931 . S
C1185 C1184 1.385 . S
C1185 C1186 1.389 . S
C1186 C1185 1.389 . S
C1186 C1187 1.387 . S
C1187 H1172 0.930 . S
C1187 C1182 1.390 . S
C1187 C1186 1.387 . S
H1188 C1200 0.930 . S
H1189 C1202 0.930 . S
H1190 C1203 0.930 . S
H1191 C1207 0.959 . S
H1192 C1207 0.959 . S
H1193 C1207 0.961 . S
H1194 C1208 0.960 . S
H1195 C1208 0.961 . S
H1196 C1208 0.959 1_455 S
H1197 C1211 0.923 1_455 S
H1198 C1212 0.923 1_455 S
H1199 C1214 0.930 . S
C1200 H1188 0.930 . S
C1200 C1201 1.399 . S
C1200 C1205 1.399 . S
C1201 C1200 1.399 . S
C1201 C1202 1.376 . S
C1202 H1189 0.930 . S
C1202 C1201 1.376 . S
C1202 C1203 1.388 . S
C1203 H1190 0.930 . S
C1203 C1202 1.388 . S
C1203 C1204 1.390 . S
C1204 C1203 1.390 . S
C1204 C1205 1.394 . S
C1204 C1210 1.465 . S
C1205 C1200 1.399 . S
C1205 C1204 1.394 . S
C1205 C1206 1.516 . S
C1206 C1205 1.516 . S
C1206 C1207 1.502 . S
C1206 C1208 1.561 . S
C1206 C1209 1.526 . S
C1207 H1191 0.959 . S
C1207 H1192 0.959 . S
C1207 H1193 0.961 . S
C1207 C1206 1.502 . S
C1208 H1194 0.960 . S
C1208 H1195 0.961 . S
C1208 H1196 0.959 1_655 S
C1208 C1206 1.561 . S
C1209 C1206 1.526 . S
C1209 C1210 1.396 . S
C1209 C1214 1.390 . S
C1210 C1204 1.465 . S
C1210 C1209 1.396 . S
C1210 C1211 1.399 . S
C1211 H1197 0.923 1_655 S
C1211 C1210 1.399 . S
C1211 C1212 1.385 . S
C1212 H1198 0.923 1_655 S
C1212 C1211 1.385 . S
C1212 C1213 1.389 . S
C1213 C1212 1.389 . S
C1213 C1214 1.387 . S
C1214 H1199 0.930 . S
C1214 C1209 1.390 . S
C1214 C1213 1.387 . S
H1215 C1227 0.930 . S
H1216 C1229 0.930 . S
H1217 C1230 0.930 . S
H1218 C1234 0.959 . S
H1219 C1234 0.959 . S
H1220 C1234 0.961 . S
H1221 C1235 0.960 . S
H1222 C1235 0.961 . S
H1223 C1235 0.959 . S
H1224 C1238 0.929 1_545 S
H1225 C1239 0.930 . S
H1226 C1241 0.930 . S
C1227 H1215 0.930 . S
C1227 C1228 1.399 . S
C1227 C1232 1.399 . S
C1228 C1227 1.399 . S
C1228 C1229 1.376 . S
C1229 H1216 0.930 . S
C1229 C1228 1.376 . S
C1229 C1230 1.388 . S
C1230 H1217 0.930 . S
C1230 C1229 1.388 . S
C1230 C1231 1.390 . S
C1231 C1230 1.390 . S
C1231 C1232 1.394 . S
C1231 C1237 1.465 . S
C1232 C1227 1.399 . S
C1232 C1231 1.394 . S
C1232 C1233 1.516 . S
C1233 C1232 1.516 . S
C1233 C1234 1.502 . S
C1233 C1235 1.561 . S
C1233 C1236 1.526 . S
C1234 H1218 0.959 . S
C1234 H1219 0.959 . S
C1234 H1220 0.961 . S
C1234 C1233 1.502 . S
C1235 H1221 0.960 . S
C1235 H1222 0.961 . S
C1235 H1223 0.959 . S
C1235 C1233 1.561 . S
C1236 C1233 1.526 . S
C1236 C1237 1.396 . S
C1236 C1241 1.390 . S
C1237 C1231 1.465 . S
C1237 C1236 1.396 . S
C1237 C1238 1.399 . S
C1238 H1224 0.929 1_565 S
C1238 C1237 1.399 . S
C1238 C1239 1.385 1_565 S
C1239 H1225 0.930 . S
C1239 C1238 1.385 1_545 S
C1239 C1240 1.390 1_545 S
C1240 C1239 1.390 1_565 S
C1240 C1241 1.387 . S
C1241 H1226 0.930 . S
C1241 C1236 1.390 . S
C1241 C1240 1.387 . S
H1242 C1254 0.930 . S
H1243 C1256 0.930 . S
H1244 C1257 0.930 . S
H1245 C1261 0.959 . S
H1246 C1261 0.959 . S
H1247 C1261 0.961 . S
H1248 C1262 0.960 . S
H1249 C1262 0.961 . S
H1250 C1262 0.959 . S
H1251 C1265 0.929 . S
H1252 C1266 0.931 . S
H1253 C1268 0.930 . S
C1254 H1242 0.930 . S
C1254 C1255 1.399 . S
C1254 C1259 1.399 . S
C1255 C1254 1.399 . S
C1255 C1256 1.376 . S
C1256 H1243 0.930 . S
C1256 C1255 1.376 . S
C1256 C1257 1.388 . S
C1257 H1244 0.930 . S
C1257 C1256 1.388 . S
C1257 C1258 1.390 . S
C1258 C1257 1.390 . S
C1258 C1259 1.394 . S
C1258 C1264 1.465 . S
C1259 C1254 1.399 . S
C1259 C1258 1.394 . S
C1259 C1260 1.516 . S
C1260 C1259 1.516 . S
C1260 C1261 1.502 . S
C1260 C1262 1.561 . S
C1260 C1263 1.526 . S
C1261 H1245 0.959 . S
C1261 H1246 0.959 . S
C1261 H1247 0.961 . S
C1261 C1260 1.502 . S
C1262 H1248 0.960 . S
C1262 H1249 0.961 . S
C1262 H1250 0.959 . S
C1262 C1260 1.561 . S
C1263 C1260 1.526 . S
C1263 C1264 1.396 . S
C1263 C1268 1.390 . S
C1264 C1258 1.465 . S
C1264 C1263 1.396 . S
C1264 C1265 1.399 . S
C1265 H1251 0.929 . S
C1265 C1264 1.399 . S
C1265 C1266 1.385 . S
C1266 H1252 0.931 . S
C1266 C1265 1.385 . S
C1266 C1267 1.389 . S
C1267 C1266 1.389 . S
C1267 C1268 1.387 . S
C1268 H1253 0.930 . S
C1268 C1263 1.390 . S
C1268 C1267 1.387 . S
H1269 C1281 0.930 . S
H1270 C1283 0.930 . S
H1271 C1284 0.930 . S
H1272 C1288 0.959 . S
H1273 C1288 0.959 . S
H1274 C1288 0.961 . S
H1275 C1289 0.960 . S
H1276 C1289 0.961 . S
H1277 C1289 0.959 . S
H1278 C1292 0.929 . S
H1279 C1293 0.931 . S
H1280 C1295 0.930 . S
C1281 H1269 0.930 . S
C1281 C1282 1.399 . S
C1281 C1286 1.399 . S
C1282 C1281 1.399 . S
C1282 C1283 1.376 . S
C1283 H1270 0.930 . S
C1283 C1282 1.376 . S
C1283 C1284 1.388 . S
C1284 H1271 0.930 . S
C1284 C1283 1.388 . S
C1284 C1285 1.390 . S
C1285 C1284 1.390 . S
C1285 C1286 1.394 . S
C1285 C1291 1.465 . S
C1286 C1281 1.399 . S
C1286 C1285 1.394 . S
C1286 C1287 1.516 . S
C1287 C1286 1.516 . S
C1287 C1288 1.502 . S
C1287 C1289 1.561 . S
C1287 C1290 1.526 . S
C1288 H1272 0.959 . S
C1288 H1273 0.959 . S
C1288 H1274 0.961 . S
C1288 C1287 1.502 . S
C1289 H1275 0.960 . S
C1289 H1276 0.961 . S
C1289 H1277 0.959 . S
C1289 C1287 1.561 . S
C1290 C1287 1.526 . S
C1290 C1291 1.396 . S
C1290 C1295 1.390 . S
C1291 C1285 1.465 . S
C1291 C1290 1.396 . S
C1291 C1292 1.399 . S
C1292 H1278 0.929 . S
C1292 C1291 1.399 . S
C1292 C1293 1.385 . S
C1293 H1279 0.931 . S
C1293 C1292 1.385 . S
C1293 C1294 1.389 . S
C1294 C1293 1.389 . S
C1294 C1295 1.387 . S
C1295 H1280 0.930 . S
C1295 C1290 1.390 . S
C1295 C1294 1.387 . S
C661 C255 2.300 . S
C673 C375 2.422 . S
C700 C452 2.467 . S
C688 C294 2.279 . S
C727 C543 2.437 . S
C715 C177 2.296 . S
C754 C627 2.436 . S
C742 C216 2.268 . S
C781 C386 2.422 1_565 S
C769 C99 2.274 . S
C796 C138 2.282 . S
C808 C463 2.448 . S
C823 C21 2.296 . S
C835 C554 2.451 . S
C850 C60 2.263 . S
C862 C638 2.447 1_655 S
C889 C370 0.542 . S
C877 C196 0.405 . S
C916 C465 0.434 . S
C904 C235 0.365 . S
C943 C538 0.536 . S
C931 C289 0.405 . S
C958 C157 0.382 . S
C970 C622 0.431 . S
C985 C40 0.464 . S
C997 C381 0.408 . S
C1024 C454 0.449 . S
C1012 C79 0.384 . S
C1051 C549 0.391 . S
C1039 C133 0.428 . S
C1066 C1 0.478 . S
C1078 C633 0.417 . S
C1093 C211 2.644 . S
C1105 C379 2.895 . S
C1120 C250 2.570 . S
C1132 C470 2.959 . S
C1159 C547 2.947 . S
C1147 C274 2.597 . S
C1186 C631 2.942 . S
C1174 C172 2.597 . S
C1201 C55 2.576 . S
C1213 C368 2.926 . S
C1240 C459 2.955 . S
C1228 C94 2.639 . S
C1267 C536 2.916 . S
C1255 C118 2.665 . S
C1282 C16 2.631 . S
C1294 C620 2.928 . S
