# Generated by pormake.
# Topology pyr, (3,6)-cn, num edge types: 1
# Building blocks:
#     Node 0, Type 0, BuildingBlock: MIDCAF_clean_linker_0, # of connection points: 3
#     Node 1, Type 0, BuildingBlock: MIDCAF_clean_linker_0, # of connection points: 3
#     Node 2, Type 0, BuildingBlock: MIDCAF_clean_linker_0, # of connection points: 3
#     Node 3, Type 0, BuildingBlock: MIDCAF_clean_linker_0, # of connection points: 3
#     Node 4, Type 0, BuildingBlock: MIDCAF_clean_linker_0, # of connection points: 3
#     Node 5, Type 0, BuildingBlock: MIDCAF_clean_linker_0, # of connection points: 3
#     Node 6, Type 0, BuildingBlock: MIDCAF_clean_linker_0, # of connection points: 3
#     Node 7, Type 0, BuildingBlock: MIDCAF_clean_linker_0, # of connection points: 3
#     Node 8, Type 1, BuildingBlock: PAMTOO_clean_sbu_0, # of connection points: 6
#     Node 9, Type 1, BuildingBlock: PAMTOO_clean_sbu_0, # of connection points: 6
#     Node 10, Type 1, BuildingBlock: PAMTOO_clean_sbu_0, # of connection points: 6
#     Node 11, Type 1, BuildingBlock: PAMTOO_clean_sbu_0, # of connection points: 6
#     Edge 12, Type (0, 1), BuildingBlock: XUDNAN_clean_linker_2, # of connection points: 2
#     Edge 13, Type (0, 1), BuildingBlock: XUDNAN_clean_linker_2, # of connection points: 2
#     Edge 14, Type (0, 1), BuildingBlock: XUDNAN_clean_linker_2, # of connection points: 2
#     Edge 15, Type (0, 1), BuildingBlock: XUDNAN_clean_linker_2, # of connection points: 2
#     Edge 16, Type (0, 1), BuildingBlock: XUDNAN_clean_linker_2, # of connection points: 2
#     Edge 17, Type (0, 1), BuildingBlock: XUDNAN_clean_linker_2, # of connection points: 2
#     Edge 18, Type (0, 1), BuildingBlock: XUDNAN_clean_linker_2, # of connection points: 2
#     Edge 19, Type (0, 1), BuildingBlock: XUDNAN_clean_linker_2, # of connection points: 2
#     Edge 20, Type (0, 1), BuildingBlock: XUDNAN_clean_linker_2, # of connection points: 2
#     Edge 21, Type (0, 1), BuildingBlock: XUDNAN_clean_linker_2, # of connection points: 2
#     Edge 22, Type (0, 1), BuildingBlock: XUDNAN_clean_linker_2, # of connection points: 2
#     Edge 23, Type (0, 1), BuildingBlock: XUDNAN_clean_linker_2, # of connection points: 2
#     Edge 24, Type (0, 1), BuildingBlock: XUDNAN_clean_linker_2, # of connection points: 2
#     Edge 25, Type (0, 1), BuildingBlock: XUDNAN_clean_linker_2, # of connection points: 2
#     Edge 26, Type (0, 1), BuildingBlock: XUDNAN_clean_linker_2, # of connection points: 2
#     Edge 27, Type (0, 1), BuildingBlock: XUDNAN_clean_linker_2, # of connection points: 2
#     Edge 28, Type (0, 1), BuildingBlock: XUDNAN_clean_linker_2, # of connection points: 2
#     Edge 29, Type (0, 1), BuildingBlock: XUDNAN_clean_linker_2, # of connection points: 2
#     Edge 30, Type (0, 1), BuildingBlock: XUDNAN_clean_linker_2, # of connection points: 2
#     Edge 31, Type (0, 1), BuildingBlock: XUDNAN_clean_linker_2, # of connection points: 2
#     Edge 32, Type (0, 1), BuildingBlock: XUDNAN_clean_linker_2, # of connection points: 2
#     Edge 33, Type (0, 1), BuildingBlock: XUDNAN_clean_linker_2, # of connection points: 2
#     Edge 34, Type (0, 1), BuildingBlock: XUDNAN_clean_linker_2, # of connection points: 2
#     Edge 35, Type (0, 1), BuildingBlock: XUDNAN_clean_linker_2, # of connection points: 2
# Relax obj value: 0.092
# Max RMSD: 0.158
# Mean RMSD: 0.068
data_MOF--net-pyr--node1-PAMTOO_clean_sbu_0--node2-MIDCAF_clean_linker_0--edge1-XUDNAN_clean_linker_2
_symmetry_space_group_name_H-M    P1
_symmetry_Int_Tables_number       1
_symmetry_cell_setting            triclinic
loop_
_symmetry_equiv_pos_as_xyz
'x, y, z'
_cell_length_a     45.160603
_cell_length_b     47.206387
_cell_length_c     46.48899
_cell_angle_alpha  90.096112
_cell_angle_beta   89.867124
_cell_angle_gamma 102.99894
loop_
_atom_site_label
_atom_site_type_symbol
_atom_site_fract_x
_atom_site_fract_y
_atom_site_fract_z
_atom_type_partial_charge
C0 C 0.2882 0.26848 0.31743 0.0
C1 C 0.2816 0.23911 0.32593 0.0
C2 C 0.29175 0.21883 0.30838 0.0
C3 C 0.30689 0.22745 0.28253 0.0
H4 H 0.38043 0.21834 0.22718 0.0
H5 H 0.41287 0.1906 0.20396 0.0
H6 H 0.39725 0.22706 0.12176 0.0
H7 H 0.36424 0.25491 0.14499 0.0
H8 H 0.31808 0.29908 0.14287 0.0
H9 H 0.28702 0.32716 0.11721 0.0
H10 H 0.25806 0.35663 0.19829 0.0
H11 H 0.28872 0.32884 0.2239 0.0
H12 H 0.30638 0.29951 0.28476 0.0
H13 H 0.28156 0.28491 0.33065 0.0
H14 H 0.28675 0.19595 0.31378 0.0
H15 H 0.31331 0.21109 0.26901 0.0
N16 N 0.34133 0.24967 0.23036 0.0
N17 N 0.3385 0.27591 0.18794 0.0
N18 N 0.31246 0.28503 0.22941 0.0
C19 C 0.34956 0.25548 0.20245 0.0
C20 C 0.31999 0.29087 0.20142 0.0
C21 C 0.32293 0.26449 0.24398 0.0
C22 C 0.36968 0.23896 0.188 0.0
C23 C 0.38381 0.22058 0.20416 0.0
C24 C 0.40263 0.20477 0.19087 0.0
C25 C 0.40777 0.20681 0.16107 0.0
C26 C 0.39357 0.22498 0.14477 0.0
C27 C 0.37481 0.24103 0.15812 0.0
C28 C 0.30548 0.31126 0.18546 0.0
C29 C 0.30552 0.31196 0.1552 0.0
C30 C 0.28779 0.32805 0.14049 0.0
C31 C 0.26975 0.34358 0.15582 0.0
C32 C 0.27126 0.34432 0.18596 0.0
C33 C 0.28893 0.32841 0.2006 0.0
C34 C 0.31163 0.25641 0.27331 0.0
C35 C 0.30269 0.27695 0.29124 0.0
C36 C 0.09692 0.82723 0.70105 0.0
C37 C 0.09382 0.82188 0.67135 0.0
C38 C 0.10356 0.79799 0.65975 0.0
C39 C 0.11807 0.78112 0.67704 0.0
H40 H 0.17812 0.72774 0.66826 0.0
H41 H 0.21476 0.70561 0.64299 0.0
H42 H 0.26219 0.7011 0.72276 0.0
H43 H 0.22597 0.72313 0.74806 0.0
H44 H 0.20733 0.74928 0.80333 0.0
H45 H 0.22944 0.77199 0.84763 0.0
H46 H 0.17355 0.83489 0.84185 0.0
H47 H 0.1511 0.81213 0.79747 0.0
H48 H 0.1147 0.81596 0.74093 0.0
H49 H 0.0898 0.84556 0.71061 0.0
H50 H 0.10097 0.79301 0.63701 0.0
H51 H 0.12636 0.76363 0.66707 0.0
N52 N 0.15876 0.75525 0.71038 0.0
N53 N 0.18434 0.75114 0.75335 0.0
N54 N 0.14849 0.78002 0.75174 0.0
C55 C 0.17941 0.7441 0.72519 0.0
C56 C 0.16896 0.76892 0.76687 0.0
C57 C 0.14301 0.77306 0.72354 0.0
C58 C 0.19917 0.72753 0.71019 0.0
C59 C 0.19614 0.72173 0.6805 0.0
C60 C 0.21707 0.709 0.666 0.0
C61 C 0.24154 0.70202 0.68086 0.0
C62 C 0.24388 0.70676 0.71066 0.0
C63 C 0.22292 0.71925 0.72517 0.0
C64 C 0.17783 0.77922 0.79644 0.0
C65 C 0.19927 0.76763 0.81166 0.0
C66 C 0.21201 0.78064 0.83707 0.0
C67 C 0.20356 0.80545 0.84792 0.0
C68 C 0.18043 0.81571 0.83402 0.0
C69 C 0.16767 0.80272 0.80849 0.0
C70 C 0.12316 0.78772 0.70637 0.0
C71 C 0.11141 0.81031 0.71839 0.0
C72 C 0.64254 0.26474 0.90085 0.0
C73 C 0.61523 0.24856 0.88927 0.0
C74 C 0.60157 0.26093 0.86669 0.0
C75 C 0.61498 0.28867 0.85594 0.0
H76 H 0.61156 0.35197 0.78826 0.0
H77 H 0.58979 0.3783 0.75113 0.0
H78 H 0.65622 0.45665 0.77153 0.0
H79 H 0.67797 0.43089 0.80805 0.0
H80 H 0.72951 0.43214 0.85172 0.0
H81 H 0.77288 0.45921 0.87879 0.0
H82 H 0.77041 0.38438 0.93279 0.0
H83 H 0.72738 0.35704 0.90549 0.0
H84 H 0.67704 0.30382 0.89975 0.0
H85 H 0.65407 0.25586 0.91784 0.0
H86 H 0.58033 0.24927 0.85742 0.0
H87 H 0.60381 0.29748 0.83863 0.0
N88 N 0.6454 0.34701 0.8343 0.0
N89 N 0.68505 0.38867 0.83889 0.0
N90 N 0.68295 0.34919 0.86967 0.0
C91 C 0.65934 0.37432 0.82526 0.0
C92 C 0.69707 0.37627 0.86104 0.0
C93 C 0.65722 0.3343 0.85662 0.0
C94 C 0.64644 0.38923 0.80151 0.0
C95 C 0.62165 0.37476 0.78468 0.0
C96 C 0.60928 0.38976 0.76326 0.0
C97 C 0.62118 0.41959 0.75851 0.0
C98 C 0.64635 0.43374 0.77481 0.0
C99 C 0.65884 0.41884 0.79583 0.0
C100 C 0.72464 0.3924 0.87647 0.0
C101 C 0.73828 0.42131 0.86921 0.0
C102 C 0.76311 0.43692 0.88485 0.0
C103 C 0.77502 0.42406 0.90814 0.0
C104 C 0.76201 0.3949 0.91486 0.0
C105 C 0.73712 0.37929 0.89927 0.0
C106 C 0.64242 0.30474 0.86751 0.0
C107 C 0.65589 0.29233 0.89017 0.0
C108 C 0.79553 0.65341 0.44895 0.0
C109 C 0.76727 0.63964 0.43707 0.0
C110 C 0.76554 0.63546 0.40701 0.0
C111 C 0.79097 0.64613 0.38934 0.0
H112 H 0.84154 0.63259 0.31217 0.0
H113 H 0.85628 0.60796 0.27043 0.0
H114 H 0.94213 0.67059 0.26677 0.0
H115 H 0.92695 0.69591 0.30831 0.0
H116 H 0.90934 0.76588 0.34392 0.0
H117 H 0.9299 0.81537 0.36183 0.0
H118 H 0.91927 0.78381 0.44911 0.0
H119 H 0.89808 0.73466 0.43136 0.0
H120 H 0.84156 0.67582 0.44136 0.0
H121 H 0.7983 0.65619 0.47198 0.0
H122 H 0.74427 0.62505 0.39696 0.0
H123 H 0.78866 0.64356 0.36625 0.0
N124 N 0.85089 0.66546 0.35748 0.0
N125 N 0.89153 0.706 0.3504 0.0
N126 N 0.86167 0.7024 0.39219 0.0
C127 C 0.87476 0.67979 0.3411 0.0
C128 C 0.88501 0.71739 0.376 0.0
C129 C 0.84433 0.67664 0.38312 0.0
C130 C 0.8831 0.66617 0.31402 0.0
C131 C 0.86351 0.64133 0.30247 0.0
C132 C 0.8721 0.62703 0.27848 0.0
C133 C 0.9007 0.63686 0.26532 0.0
C134 C 0.91989 0.66237 0.27615 0.0
C135 C 0.9112 0.67685 0.30014 0.0
C136 C 0.90196 0.74638 0.38621 0.0
C137 C 0.91196 0.76943 0.36688 0.0
C138 C 0.92357 0.79776 0.37714 0.0
C139 C 0.92615 0.80345 0.40689 0.0
C140 C 0.91777 0.78009 0.42611 0.0
C141 C 0.9055 0.75197 0.41591 0.0
C142 C 0.81848 0.66156 0.40135 0.0
C143 C 0.82055 0.66451 0.43137 0.0
C144 C 0.6107 0.8232 0.88654 0.0
C145 C 0.60265 0.81495 0.91504 0.0
C146 C 0.60883 0.78897 0.92555 0.0
C147 C 0.62396 0.77234 0.90845 0.0
H148 H 0.6905 0.72294 0.91768 0.0
H149 H 0.722 0.69304 0.93973 0.0
H150 H 0.73671 0.65829 0.85629 0.0
H151 H 0.70544 0.6881 0.8342 0.0
H152 H 0.69817 0.72955 0.77699 0.0
H153 H 0.72517 0.74945 0.73353 0.0
H154 H 0.71359 0.83501 0.75706 0.0
H155 H 0.68524 0.81474 0.79952 0.0
H156 H 0.63241 0.81406 0.84783 0.0
H157 H 0.60656 0.84323 0.87785 0.0
H158 H 0.60245 0.78173 0.94726 0.0
H159 H 0.62895 0.75283 0.91755 0.0
N160 N 0.66269 0.74333 0.87535 0.0
N161 N 0.68834 0.73762 0.8326 0.0
N162 N 0.65993 0.77338 0.83572 0.0
C163 C 0.68089 0.7294 0.86012 0.0
C164 C 0.67802 0.75957 0.82026 0.0
C165 C 0.65176 0.7651 0.86316 0.0
C166 C 0.69565 0.70805 0.87415 0.0
C167 C 0.69993 0.70848 0.90411 0.0
C168 C 0.71811 0.69153 0.91673 0.0
C169 C 0.73191 0.67349 0.89969 0.0
C170 C 0.72619 0.67183 0.86999 0.0
C171 C 0.70841 0.68905 0.85733 0.0
C172 C 0.68984 0.77063 0.79179 0.0
C173 C 0.70088 0.75251 0.7725 0.0
C174 C 0.71657 0.76399 0.74769 0.0
C175 C 0.72214 0.79398 0.74191 0.0
C176 C 0.70954 0.81178 0.76047 0.0
C177 C 0.69334 0.80017 0.78499 0.0
C178 C 0.6332 0.78124 0.88036 0.0
C179 C 0.62576 0.80652 0.86938 0.0
C180 C 0.80377 0.22912 0.26935 0.0
C181 C 0.77941 0.23921 0.25761 0.0
C182 C 0.76841 0.26069 0.27244 0.0
C183 C 0.78033 0.27061 0.29926 0.0
H184 H 0.76609 0.32028 0.36774 0.0
H185 H 0.73203 0.34214 0.39623 0.0
H186 H 0.76784 0.31308 0.47414 0.0
H187 H 0.80186 0.29064 0.44554 0.0
H188 H 0.85594 0.25717 0.44002 0.0
H189 H 0.89059 0.23064 0.46202 0.0
H190 H 0.91099 0.20027 0.37817 0.0
H191 H 0.87702 0.22702 0.35612 0.0
H192 H 0.83382 0.23006 0.30493 0.0
H193 H 0.81301 0.21288 0.25818 0.0
H194 H 0.74953 0.26875 0.26404 0.0
H195 H 0.77048 0.28634 0.3106 0.0
N196 N 0.79828 0.28288 0.35823 0.0
N197 N 0.8261 0.27511 0.39884 0.0
N198 N 0.83447 0.25457 0.35442 0.0
C199 C 0.80469 0.28738 0.38662 0.0
C200 C 0.84128 0.25884 0.38278 0.0
C201 C 0.81304 0.26654 0.34195 0.0
C202 C 0.78657 0.30344 0.4043 0.0
C203 C 0.76701 0.31872 0.39095 0.0
C204 C 0.74759 0.33149 0.40731 0.0
C205 C 0.7472 0.32927 0.43744 0.0
C206 C 0.76745 0.31488 0.45093 0.0
C207 C 0.78706 0.30219 0.43453 0.0
C208 C 0.86357 0.24422 0.39626 0.0
C209 C 0.86802 0.24506 0.42623 0.0
C210 C 0.88773 0.22971 0.43889 0.0
C211 C 0.90352 0.21335 0.42185 0.0
C212 C 0.8995 0.21299 0.39189 0.0
C213 C 0.8798 0.22822 0.37925 0.0
C214 C 0.80354 0.25928 0.31182 0.0
C215 C 0.81576 0.23909 0.29612 0.0
C216 C 0.26472 0.62641 0.19869 0.0
C217 C 0.26354 0.63116 0.16882 0.0
C218 C 0.29047 0.64472 0.15455 0.0
C219 C 0.31712 0.65554 0.16987 0.0
H220 H 0.35316 0.7558 0.2182 0.0
H221 H 0.36869 0.80295 0.195 0.0
H222 H 0.45469 0.78327 0.17199 0.0
H223 H 0.43936 0.73634 0.19701 0.0
H224 H 0.43166 0.70028 0.28394 0.0
H225 H 0.4504 0.68404 0.3284 0.0
H226 H 0.37758 0.60715 0.32774 0.0
H227 H 0.35873 0.62326 0.28262 0.0
H228 H 0.29172 0.6346 0.23728 0.0
H229 H 0.24439 0.61601 0.21032 0.0
H230 H 0.29068 0.64801 0.13149 0.0
H231 H 0.33699 0.66709 0.15823 0.0
N232 N 0.3582 0.69626 0.20614 0.0
N233 N 0.39438 0.70159 0.2429 0.0
N234 N 0.35595 0.6586 0.23956 0.0
C235 C 0.38288 0.71249 0.21946 0.0
C236 C 0.38105 0.67459 0.25318 0.0
C237 C 0.34473 0.66931 0.21573 0.0
C238 C 0.39505 0.74253 0.20934 0.0
C239 C 0.37564 0.76187 0.20873 0.0
C240 C 0.38449 0.78878 0.19508 0.0
C241 C 0.41269 0.79679 0.1808 0.0
C242 C 0.43285 0.77796 0.18273 0.0
C243 C 0.42412 0.75108 0.19701 0.0
C244 C 0.39335 0.66335 0.27963 0.0
C245 C 0.41955 0.67983 0.29302 0.0
C246 C 0.43033 0.67052 0.31869 0.0
C247 C 0.4153 0.64444 0.33194 0.0
C248 C 0.38977 0.62729 0.3181 0.0
C249 C 0.37887 0.63666 0.29228 0.0
C250 C 0.31788 0.6527 0.19989 0.0
C251 C 0.29178 0.63704 0.21412 0.0
C252 C 0.12888 0.27941 0.68146 0.0
C253 C 0.10068 0.26409 0.69216 0.0
C254 C 0.08609 0.27776 0.7132 0.0
C255 C 0.09946 0.30578 0.72334 0.0
H256 H 0.09077 0.3743 0.78451 0.0
H257 H 0.07495 0.39665 0.82812 0.0
H258 H 0.16066 0.45932 0.82879 0.0
H259 H 0.17636 0.43762 0.78562 0.0
H260 H 0.2156 0.44814 0.72861 0.0
H261 H 0.26015 0.47475 0.70274 0.0
H262 H 0.25719 0.40055 0.64752 0.0
H263 H 0.21282 0.37366 0.67358 0.0
H264 H 0.16396 0.31815 0.68263 0.0
H265 H 0.1412 0.26961 0.66572 0.0
H266 H 0.06415 0.26692 0.72173 0.0
H267 H 0.08756 0.31552 0.7395 0.0
N268 N 0.1314 0.36321 0.74612 0.0
N269 N 0.17132 0.40464 0.74153 0.0
N270 N 0.16799 0.36575 0.70957 0.0
C271 C 0.14584 0.39024 0.75555 0.0
C272 C 0.18254 0.39265 0.71851 0.0
C273 C 0.1425 0.35079 0.72306 0.0
C274 C 0.13498 0.40393 0.78145 0.0
C275 C 0.10615 0.39296 0.79386 0.0
C276 C 0.09696 0.40587 0.81872 0.0
C277 C 0.1166 0.42971 0.83196 0.0
C278 C 0.14507 0.44089 0.81924 0.0
C279 C 0.15404 0.42837 0.79435 0.0
C280 C 0.21032 0.40872 0.70319 0.0
C281 C 0.22441 0.43737 0.71103 0.0
C282 C 0.24994 0.45274 0.69607 0.0
C283 C 0.2622 0.43989 0.67288 0.0
C284 C 0.24853 0.41106 0.66539 0.0
C285 C 0.2229 0.3957 0.68027 0.0
C286 C 0.12771 0.321 0.7126 0.0
C287 C 0.14211 0.30738 0.69143 0.0
Dy288 Dy 0.04459 0.03682 0.53959 0.0
Dy289 Dy 0.97794 0.0223 0.57152 0.0
C290 C 0.03075 0.07561 0.59178 0.0
O291 O 0.04812 1.00969 0.57787 0.0
O292 O 0.99872 0.9844 0.58061 0.0
O293 O 0.0933 0.05279 0.54261 0.0
O294 O 0.07265 0.03564 0.50228 0.0
O295 O 0.97149 0.99859 0.52939 0.0
O296 O 0.02021 0.99313 0.52268 0.0
O297 O 0.98013 0.06375 0.54748 0.0
O298 O 0.01514 0.05846 0.51316 0.0
O299 O 0.92911 1.01636 0.57046 0.0
O300 O 0.95207 1.01316 0.6108 0.0
C301 C 0.02777 0.98637 0.58513 0.0
O302 O 0.04311 0.0763 0.56611 0.0
O303 O 0.01001 0.05291 0.60017 0.0
C304 C 0.11545 0.07487 0.49996 0.0
C305 C 0.15086 0.12275 0.47023 0.0
C306 C 0.16459 0.10622 0.48904 0.0
C307 C 0.14702 0.08244 0.50371 0.0
C308 C 0.10154 0.09168 0.48176 0.0
C309 C 0.11908 0.11528 0.46692 0.0
C310 C 0.09735 0.04949 0.51514 0.0
C311 C 0.99099 0.98554 0.517 0.0
C312 C 0.99376 0.07088 0.52265 0.0
C313 C 0.90348 0.98328 0.60508 0.0
C314 C 0.86281 0.93203 0.62316 0.0
C315 C 0.88468 0.931 0.60178 0.0
C316 C 0.90493 0.95643 0.59287 0.0
C317 C 0.88132 0.98456 0.62582 0.0
C318 C 0.86115 0.95918 0.63481 0.0
C319 C 0.92601 1.00981 0.59771 0.0
H320 H 0.18893 0.11162 0.49245 0.0
H321 H 0.1581 0.06987 0.51789 0.0
H322 H 0.07715 0.08635 0.4787 0.0
H323 H 0.10773 0.12719 0.4523 0.0
H324 H 0.88638 0.91051 0.59218 0.0
H325 H 0.92205 0.95511 0.57687 0.0
H326 H 0.8801 1.00512 0.63559 0.0
H327 H 0.845 0.96075 0.65166 0.0
Dy328 Dy 0.48338 1.01544 1.0115 0.0
Dy329 Dy 0.54637 0.02571 0.04933 0.0
C330 C 0.48785 0.97596 0.06677 0.0
O331 O 0.48704 0.05767 1.03494 0.0
O332 O 0.51651 0.04937 0.07269 0.0
O333 O 0.43611 1.01678 1.00813 0.0
O334 O 0.46026 1.00586 0.97079 0.0
O335 O 0.55033 0.06502 1.02087 0.0
O336 O 0.52058 0.04161 0.98468 0.0
O337 O 0.55114 0.99605 1.01333 0.0
O338 O 0.50102 0.9752 1.00471 0.0
O339 O 0.59544 0.03628 0.04943 0.0
O340 O 0.57048 0.02645 0.08941 0.0
C341 C 0.49803 0.06378 0.06095 0.0
O342 O 0.471 0.98996 0.05181 0.0
O343 O 0.51776 0.98336 0.06571 0.0
C344 C 0.40786 0.98406 0.97399 0.0
C345 C 0.35715 0.94031 0.95792 0.0
C346 C 0.36417 0.94579 0.98713 0.0
C347 C 0.38944 0.9674 0.99513 0.0
C348 C 0.40079 0.97857 0.94488 0.0
C349 C 0.37577 0.95685 0.93691 0.0
C350 C 0.43404 1.00766 0.98154 0.0
C351 C 0.54116 0.06388 0.99398 0.0
C352 C 0.52989 0.97449 1.00374 0.0
C353 C 0.61696 0.06094 0.0909 0.0
C354 C 0.65533 0.10876 0.118 0.0
C355 C 0.62622 0.11056 0.10857 0.0
C356 C 0.60719 0.08683 0.09508 0.0
C357 C 0.64608 0.05917 0.09976 0.0
C358 C 0.66515 0.08288 0.11315 0.0
C359 C 0.59704 0.03564 0.07741 0.0
H360 H 0.35028 0.93322 1.00373 0.0
H361 H 0.39445 0.97111 1.01778 0.0
H362 H 0.41455 0.99126 0.92826 0.0
H363 H 0.37065 0.95337 0.91425 0.0
H364 H 0.61784 0.13003 0.11224 0.0
H365 H 0.58475 0.08853 0.08819 0.0
H366 H 0.65401 0.03939 0.09644 0.0
H367 H 0.6876 0.08095 0.11973 0.0
Dy368 Dy 0.51159 0.5129 0.53737 0.0
Dy369 Dy 0.5143 0.57282 0.5733 0.0
C370 C 0.53617 0.51915 0.60173 0.0
O371 O 0.46959 0.50519 0.56516 0.0
O372 O 0.46536 0.55228 0.56719 0.0
O373 O 0.50287 0.46598 0.53672 0.0
O374 O 0.51588 0.49049 0.49761 0.0
O375 O 0.50872 0.58331 0.52724 0.0
O376 O 0.48505 0.53837 0.51047 0.0
O377 O 0.5629 0.57463 0.56299 0.0
O378 O 0.55556 0.54327 0.52448 0.0
O379 O 0.52264 0.61967 0.57683 0.0
O380 O 0.50495 0.59256 0.61321 0.0
C381 C 0.45352 0.52456 0.57072 0.0
O382 O 0.54062 0.50946 0.57593 0.0
O383 O 0.52087 0.53948 0.60521 0.0
C384 C 0.53592 0.44925 0.50547 0.0
C385 C 0.58194 0.41811 0.49976 0.0
C386 C 0.58944 0.4485 0.50282 0.0
C387 C 0.56663 0.46393 0.50583 0.0
C388 C 0.52831 0.41897 0.50231 0.0
C389 C 0.55115 0.40347 0.49951 0.0
C390 C 0.51195 0.46523 0.51017 0.0
C391 C 0.49164 0.5669 0.50807 0.0
C392 C 0.57297 0.56414 0.53962 0.0
C393 C 0.48313 0.63193 0.60424 0.0
C394 C 0.42694 0.64774 0.61176 0.0
C395 C 0.43534 0.63871 0.58468 0.0
C396 C 0.46303 0.63067 0.58102 0.0
C397 C 0.47549 0.64209 0.63096 0.0
C398 C 0.44765 0.64992 0.63472 0.0
C399 C 0.50936 0.61839 0.60191 0.0
H400 H 0.61297 0.46031 0.50341 0.0
H401 H 0.57299 0.48729 0.50874 0.0
H402 H 0.50472 0.4073 0.50225 0.0
H403 H 0.54474 0.38008 0.49691 0.0
H404 H 0.42022 0.6372 0.56642 0.0
H405 H 0.46817 0.62241 0.56028 0.0
H406 H 0.49043 0.64268 0.64926 0.0
H407 H 0.44181 0.65637 0.65597 0.0
Dy408 Dy 0.00953 0.56464 1.03196 0.0
Dy409 Dy 0.01076 0.5038 0.06351 0.0
C410 C 0.98228 0.55077 0.09569 0.0
O411 O 0.05721 0.57201 0.04724 0.0
O412 O 0.05074 0.53632 0.08182 0.0
O413 O 1.00358 0.60889 1.03189 0.0
O414 O 0.01111 0.58821 0.99201 0.0
O415 O 0.04605 0.50991 1.0294 0.0
O416 O 0.02097 0.5334 0.99867 0.0
O417 O 0.97179 0.49438 1.03176 0.0
O418 O 0.96197 0.5395 1.03285 0.0
O419 O 0.00566 0.45743 0.05978 0.0
O420 O 0.01659 0.47858 0.10105 0.0
C421 C 0.06692 0.56018 0.06989 0.0
O422 O 0.99857 0.57072 0.07874 0.0
O423 O 0.97873 0.523 0.08969 0.0
C424 C 0.97349 0.61594 0.99188 0.0
C425 C 0.91595 0.62105 0.97161 0.0
C426 C 0.92645 0.63224 0.99868 0.0
C427 C 0.95492 0.62973 1.00871 0.0
C428 C 0.9635 0.60596 0.96427 0.0
C429 C 0.93503 0.60838 0.95431 0.0
C430 C 1.00166 0.60957 1.00395 0.0
C431 C 0.04069 0.51719 1.00316 0.0
C432 C 0.95363 0.51196 1.02639 0.0
C433 C 0.04197 0.44172 0.08869 0.0
C434 C 0.09584 0.42139 0.09493 0.0
C435 C 0.08502 0.42619 0.06745 0.0
C436 C 0.05848 0.43636 0.06435 0.0
C437 C 0.05227 0.43623 0.11611 0.0
C438 C 0.07899 0.42629 0.11922 0.0
C439 C 0.01555 0.45512 0.08584 0.0
H440 H 0.91225 0.6421 1.01253 0.0
H441 H 0.96196 0.63779 1.03003 0.0
H442 H 0.97733 0.59552 0.95058 0.0
H443 H 0.92787 0.60014 0.93308 0.0
H444 H 0.09711 0.42218 0.04827 0.0
H445 H 0.05127 0.4405 0.04286 0.0
H446 H 0.04008 0.4404 0.13518 0.0
H447 H 0.08685 0.42322 0.14074 0.0
H448 H 0.28414 0.19408 0.36308 0.0
H449 H 0.23402 0.26092 0.34653 0.0
H450 H 0.19897 0.24185 0.38599 0.0
H451 H 0.21967 0.1384 0.37217 0.0
H452 H 0.23571 0.11954 0.39966 0.0
H453 H 0.26015 0.14143 0.37365 0.0
H454 H 0.2913 0.17112 0.41481 0.0
H455 H 0.26688 0.14928 0.44101 0.0
H456 H 0.27214 0.18828 0.4415 0.0
H457 H 0.16632 0.2129 0.42402 0.0
H458 H 0.13763 0.17518 0.45645 0.0
H459 H 0.20627 0.12478 0.44483 0.0
C460 C 0.26601 0.20496 0.3678 0.0
C461 C 0.26226 0.2293 0.35167 0.0
C462 C 0.23814 0.2428 0.35891 0.0
C463 C 0.21787 0.232 0.38124 0.0
C464 C 0.22183 0.20757 0.39612 0.0
C465 C 0.24526 0.19417 0.38967 0.0
C466 C 0.24267 0.1665 0.40685 0.0
C467 C 0.23934 0.13991 0.38689 0.0
C468 C 0.26987 0.16896 0.42725 0.0
C469 C 0.21367 0.16604 0.42338 0.0
C470 C 0.2023 0.19018 0.41729 0.0
C471 C 0.17508 0.19397 0.42908 0.0
C472 C 0.15881 0.17228 0.44728 0.0
C473 C 0.16959 0.1469 0.45317 0.0
C474 C 0.19764 0.1441 0.44128 0.0
H475 H 0.26504 0.8207 0.85241 0.0
H476 H 0.18238 0.82997 0.89532 0.0
H477 H 0.21319 0.86229 0.93157 0.0
H478 H 0.31255 0.82267 0.91715 0.0
H479 H 0.34575 0.84342 0.89908 0.0
H480 H 0.3172 0.8184 0.87897 0.0
H481 H 0.31191 0.86006 0.84445 0.0
H482 H 0.34025 0.8852 0.8645 0.0
H483 H 0.30325 0.89268 0.85905 0.0
H484 H 0.25344 0.89644 0.96094 0.0
H485 H 0.29911 0.93104 0.9793 0.0
H486 H 0.35459 0.89922 0.91613 0.0
C487 C 0.2534 0.8288 0.86993 0.0
C488 C 0.22137 0.8225 0.87139 0.0
C489 C 0.20694 0.83445 0.89397 0.0
C490 C 0.22424 0.85267 0.91468 0.0
C491 C 0.25586 0.85873 0.91236 0.0
C492 C 0.27024 0.84711 0.8905 0.0
C493 C 0.30426 0.85882 0.89112 0.0
C494 C 0.32091 0.83437 0.89693 0.0
C495 C 0.31556 0.87516 0.86313 0.0
C496 C 0.30683 0.87936 0.91639 0.0
C497 C 0.27879 0.87876 0.92868 0.0
C498 C 0.27553 0.89685 0.95166 0.0
C499 C 0.30155 0.91634 0.962 0.0
C500 C 0.33029 0.91776 0.94908 0.0
C501 C 0.33287 0.89867 0.92632 0.0
H502 H 0.60534 0.40886 0.70093 0.0
H503 H 0.60402 0.46972 0.77072 0.0
H504 H 0.58222 0.5008 0.73824 0.0
H505 H 0.62699 0.46298 0.64557 0.0
H506 H 0.60355 0.44244 0.61795 0.0
H507 H 0.61788 0.4238 0.64673 0.0
H508 H 0.56307 0.39642 0.6594 0.0
H509 H 0.54861 0.41488 0.63055 0.0
H510 H 0.53461 0.41684 0.66667 0.0
H511 H 0.56134 0.52569 0.69911 0.0
H512 H 0.54246 0.54374 0.6549 0.0
H513 H 0.55775 0.46846 0.60822 0.0
C514 C 0.60012 0.42859 0.70934 0.0
C515 C 0.60645 0.4369 0.73844 0.0
C516 C 0.59961 0.46303 0.74854 0.0
C517 C 0.58714 0.48081 0.73026 0.0
C518 C 0.58164 0.47235 0.7017 0.0
C519 C 0.58785 0.44693 0.69114 0.0
C520 C 0.58031 0.44365 0.65917 0.0
C521 C 0.60889 0.4432 0.64131 0.0
C522 C 0.55515 0.41632 0.65363 0.0
C523 C 0.56903 0.47123 0.65358 0.0
C524 C 0.56991 0.48724 0.6786 0.0
C525 C 0.56052 0.51335 0.67937 0.0
C526 C 0.54975 0.52341 0.65402 0.0
C527 C 0.54852 0.50762 0.62789 0.0
C528 C 0.55851 0.48117 0.62773 0.0
H529 H 0.93487 0.65638 0.21609 0.0
H530 H 0.89017 0.57762 0.26095 0.0
H531 H 0.90547 0.54814 0.22246 0.0
H532 H 0.91608 0.62957 0.14395 0.0
H533 H 0.95217 0.64733 0.12862 0.0
H534 H 0.93757 0.66287 0.15953 0.0
H535 H 0.98698 0.66246 0.18748 0.0
H536 H 1.00175 0.64699 0.15663 0.0
H537 H 0.99937 0.6289 0.19095 0.0
H538 H 0.92512 0.52667 0.17966 0.0
H539 H 0.94888 0.5143 0.13523 0.0
H540 H 0.9826 0.60619 0.11701 0.0
C541 C 0.92842 0.63294 0.21791 0.0
C542 C 0.91081 0.61948 0.24162 0.0
C543 C 0.90289 0.58866 0.24288 0.0
C544 C 0.9117 0.57161 0.22115 0.0
C545 C 0.92868 0.58549 0.1981 0.0
C546 C 0.93711 0.61543 0.19627 0.0
C547 C 0.95564 0.62457 0.16904 0.0
C548 C 0.93939 0.64213 0.14911 0.0
C549 C 0.98785 0.64175 0.17648 0.0
C550 C 0.95625 0.59509 0.15599 0.0
C551 C 0.94046 0.57294 0.17323 0.0
C552 C 0.93758 0.54382 0.166 0.0
C553 C 0.95122 0.53703 0.14056 0.0
C554 C 0.96775 0.55917 0.12237 0.0
C555 C 0.97019 0.58868 0.13032 0.0
H556 H 0.39764 0.17447 0.11131 0.0
H557 H 0.46291 0.20024 0.1802 0.0
H558 H 0.49436 0.16846 0.1602 0.0
H559 H 0.40091 0.10101 0.10928 0.0
H560 H 0.39793 0.09717 0.07075 0.0
H561 H 0.38168 0.12385 0.08881 0.0
H562 H 0.41318 0.1644 0.05652 0.0
H563 H 0.4294 0.13777 1.0382 0.0
H564 H 0.45387 0.16904 0.05462 0.0
H565 H 0.5164 0.13138 0.13557 0.0
H566 H 0.52897 0.09197 0.10669 0.0
H567 H 0.45028 0.09042 0.05264 0.0
C568 C 0.41889 0.17389 0.12178 0.0
C569 C 0.42783 0.18976 0.14735 0.0
C570 C 0.45549 0.18802 0.16077 0.0
C571 C 0.47359 0.17018 0.14948 0.0
C572 C 0.46382 0.15435 0.12465 0.0
C573 C 0.43728 0.15615 0.11078 0.0
C574 C 0.43136 0.13569 0.08518 0.0
C575 C 0.40118 0.1131 0.08874 0.0
C576 C 0.432 0.15275 0.05696 0.0
C577 C 0.45838 0.1217 0.08726 0.0
C578 C 0.47684 0.13295 0.11013 0.0
C579 C 0.50234 0.12261 0.1174 0.0
C580 C 0.50918 0.10008 0.10093 0.0
C581 C 0.49062 0.08813 0.07737 0.0
C582 C 0.46505 0.09933 0.07032 0.0
H583 H 0.04653 0.84964 0.67905 0.0
H584 H 0.11997 0.84308 0.62075 0.0
H585 H 0.10814 0.88201 0.5909 0.0
H586 H 0.99453 0.86665 0.62286 0.0
H587 H 0.98083 0.89178 0.64579 0.0
H588 H 0.99288 0.86124 0.66127 0.0
H589 H 0.03069 0.89633 0.69404 0.0
H590 H 0.01894 0.92695 0.67854 0.0
H591 H 0.05848 0.92551 0.67799 0.0
H592 H 0.09338 0.92498 0.57095 0.0
H593 H 0.0732 0.96787 0.55916 0.0
H594 H 0.00729 0.94653 0.62829 0.0
C595 C 0.05976 0.85613 0.65975 0.0
C596 C 0.08401 0.84309 0.65209 0.0
C597 C 0.10091 0.85226 0.62674 0.0
C598 C 0.09449 0.8745 0.60972 0.0
C599 C 0.07089 0.88723 0.61812 0.0
C600 C 0.05344 0.87821 0.64225 0.0
C601 C 0.03016 0.89654 0.64689 0.0
C602 C 0.99767 0.87794 0.64402 0.0
C603 C 0.03487 0.91226 0.6761 0.0
C604 C 0.03801 0.91782 0.62211 0.0
C605 C 0.06161 0.91191 0.60587 0.0
C606 C 0.07457 0.92958 0.58316 0.0
C607 C 0.06313 0.95397 0.57679 0.0
C608 C 0.03877 0.96034 0.59284 0.0
C609 C 0.02572 0.94184 0.61555 0.0
H610 H 0.8252 0.40755 0.93101 0.0
H611 H 0.78069 0.47997 0.92666 0.0
H612 H 0.82077 0.50912 0.95715 0.0
H613 H 0.84932 0.41824 1.00526 0.0
H614 H 0.88534 0.40876 0.99928 0.0
H615 H 0.85323 0.3932 0.97692 0.0
H616 H 0.8845 0.41244 0.93142 0.0
H617 H 0.91673 0.42794 0.95362 0.0
H618 H 0.90211 0.45061 0.9287 0.0
H619 H 0.86472 0.53041 0.98794 0.0
H620 H 0.91155 0.54386 1.01611 0.0
H621 H 0.92903 0.45808 1.00154 0.0
C622 C 0.82382 0.42948 0.93662 0.0
C623 C 0.79978 0.44149 0.92625 0.0
C624 C 0.79904 0.4704 0.93387 0.0
C625 C 0.82158 0.48708 0.9514 0.0
C626 C 0.84482 0.4746 0.96126 0.0
C627 C 0.84628 0.44655 0.95411 0.0
C628 C 0.87416 0.43874 0.96736 0.0
C629 C 0.86495 0.41322 0.98846 0.0
C630 C 0.89564 0.43204 0.94387 0.0
C631 C 0.88806 0.46681 0.98307 0.0
C632 C 0.87056 0.48706 0.97924 0.0
C633 C 0.87857 0.51473 0.99118 0.0
C634 C 0.90534 0.52211 1.00723 0.0
C635 C 0.92413 0.50201 1.01126 0.0
C636 C 0.91512 0.47385 0.99913 0.0
H637 H 0.71757 0.59223 0.43287 0.0
H638 H 0.75358 0.6694 0.48406 0.0
H639 H 0.70975 0.65667 0.51648 0.0
H640 H 0.63911 0.59781 0.4381 0.0
H641 H 0.62404 0.55912 0.44008 0.0
H642 H 0.65916 0.5732 0.42125 0.0
H643 H 0.68612 0.54174 0.45307 0.0
H644 H 0.6511 0.52771 0.47212 0.0
H645 H 0.68476 0.54501 0.49167 0.0
H646 H 0.66252 0.63638 0.54369 0.0
H647 H 0.6125 0.61131 0.56227 0.0
H648 H 0.60421 0.54811 0.49298 0.0
C649 C 0.71625 0.60651 0.45083 0.0
C650 C 0.73974 0.63156 0.45607 0.0
C651 C 0.73673 0.64959 0.47989 0.0
C652 C 0.71167 0.64268 0.49843 0.0
C653 C 0.68931 0.61778 0.49291 0.0
C654 C 0.69107 0.60006 0.46959 0.0
C655 C 0.66306 0.57514 0.46822 0.0
C656 C 0.64529 0.57641 0.44025 0.0
C657 C 0.67179 0.54565 0.47147 0.0
C658 C 0.6454 0.58184 0.49433 0.0
C659 C 0.66122 0.60642 0.50831 0.0
C660 C 0.64985 0.61712 0.53291 0.0
C661 C 0.62135 0.60261 0.54336 0.0
C662 C 0.60418 0.57767 0.52918 0.0
C663 C 0.61665 0.56708 0.5044 0.0
H664 H 0.21034 0.33858 0.16983 0.0
H665 H 0.27907 0.37894 0.10814 0.0
H666 H 0.2416 0.40251 0.0846 0.0
H667 H 0.14716 0.32455 0.12032 0.0
H668 H 0.12063 0.33201 0.14675 0.0
H669 H 0.15274 0.31802 0.15791 0.0
H670 H 0.16942 0.3618 0.19253 0.0
H671 H 0.13742 0.37596 0.18143 0.0
H672 H 0.17536 0.39826 0.17855 0.0
H673 H 0.19684 0.42346 0.0697 0.0
H674 H 0.14847 0.43879 0.06349 0.0
H675 H 0.10914 0.3827 0.13421 0.0
C676 C 0.21756 0.35248 0.15142 0.0
C677 C 0.24761 0.35724 0.1409 0.0
C678 C 0.25609 0.37505 0.11644 0.0
C679 C 0.23501 0.38853 0.10304 0.0
C680 C 0.2056 0.38362 0.11424 0.0
C681 C 0.19687 0.36583 0.13776 0.0
C682 C 0.16404 0.36404 0.14578 0.0
C683 C 0.14503 0.3328 0.14248 0.0
C684 C 0.16143 0.37572 0.17638 0.0
C685 C 0.15566 0.38398 0.12336 0.0
C686 C 0.17987 0.39507 0.10534 0.0
C687 C 0.17765 0.41464 0.08349 0.0
C688 C 0.15 0.42307 0.08003 0.0
C689 C 0.12486 0.41186 0.09826 0.0
C690 C 0.12791 0.39193 0.12007 0.0
H691 H 0.61245 0.22841 0.9454 0.0
H692 H 0.58794 0.2005 0.85787 0.0
H693 H 0.56747 0.15061 0.87525 0.0
H694 H 0.63665 0.16391 0.96715 0.0
H695 H 0.62159 0.16371 1.00311 0.0
H696 H 0.63379 0.19758 0.9841 0.0
H697 H 0.58076 0.20882 0.99167 0.0
H698 H 0.56847 0.17507 1.01083 0.0
H699 H 0.54732 0.18275 0.98009 0.0
H700 H 0.55012 0.10373 0.90171 0.0
H701 H 0.53535 0.06303 0.93564 0.0
H702 H 0.57196 0.12034 1.00642 0.0
C703 C 0.60293 0.21181 0.92982 0.0
C704 C 0.60181 0.2186 0.90015 0.0
C705 C 0.5887 0.19615 0.88068 0.0
C706 C 0.57722 0.16762 0.89034 0.0
C707 C 0.57897 0.16171 0.91957 0.0
C708 C 0.59138 0.18314 0.93909 0.0
C709 C 0.59031 0.17089 0.9694 0.0
C710 C 0.6225 0.17422 0.98166 0.0
C711 C 0.57053 0.18524 0.98916 0.0
C712 C 0.57543 0.13918 0.96384 0.0
C713 C 0.56912 0.13446 0.93491 0.0
C714 C 0.55498 0.10716 0.92439 0.0
C715 C 0.54667 0.08414 0.94392 0.0
C716 C 0.55253 0.08835 0.97377 0.0
C717 C 0.56743 0.11628 0.98374 0.0
H718 H 0.96957 0.8264 0.44754 0.0
H719 H 0.90136 0.84881 0.39194 0.0
H720 H 0.91156 0.89813 0.41309 0.0
H721 H 0.95483 0.86501 0.5096 0.0
H722 H 0.99408 0.87742 0.51986 0.0
H723 H 0.98221 0.84412 0.49985 0.0
H724 H 0.02236 0.86371 0.4606 0.0
H725 H 0.03445 0.89704 0.48059 0.0
H726 H 0.02263 0.89811 0.44368 0.0
H727 H 0.92547 0.9432 0.44354 0.0
H728 H 0.94628 0.98312 0.47743 0.0
H729 H 0.00882 0.93375 0.51071 0.0
C730 C 0.95706 0.84186 0.43966 0.0
C731 C 0.93471 0.83383 0.41801 0.0
C732 C 0.9188 0.85461 0.40823 0.0
C733 C 0.92433 0.88261 0.42024 0.0
C734 C 0.94625 0.88977 0.44172 0.0
C735 C 0.96278 0.8702 0.45102 0.0
C736 C 0.98525 0.88363 0.47425 0.0
C737 C 0.97869 0.86652 0.50256 0.0
C738 C 0.01812 0.88575 0.46417 0.0
C739 C 0.97832 0.91356 0.47696 0.0
C740 C 0.95551 0.91649 0.45817 0.0
C741 C 0.94371 0.94136 0.45796 0.0
C742 C 0.95559 0.96388 0.47734 0.0
C743 C 0.97943 0.96169 0.49632 0.0
C744 C 0.99105 0.93624 0.49596 0.0
H745 H 0.30305 0.72009 0.68681 0.0
H746 H 0.23372 0.65896 0.63997 0.0
H747 H 0.27378 0.63964 0.61542 0.0
H748 H 0.35811 0.73496 0.62863 0.0
H749 H 0.39017 0.73756 0.65231 0.0
H750 H 0.35604 0.7471 0.66522 0.0
H751 H 0.35282 0.71017 0.70696 0.0
H752 H 0.38689 0.7005 0.69417 0.0
H753 H 0.3526 0.67275 0.69887 0.0
H754 H 0.32149 0.6252 0.5984 0.0
H755 H 0.37288 0.61754 0.58907 0.0
H756 H 0.41089 0.6897 0.64581 0.0
C757 C 0.29628 0.70259 0.67142 0.0
C758 C 0.26531 0.69086 0.66537 0.0
C759 C 0.25735 0.66832 0.64477 0.0
C760 C 0.27992 0.65719 0.63082 0.0
C761 C 0.31027 0.66909 0.63752 0.0
C762 C 0.31845 0.69144 0.65719 0.0
C763 C 0.35258 0.70025 0.66085 0.0
C764 C 0.36495 0.73184 0.65117 0.0
C765 C 0.36175 0.69563 0.69206 0.0
C766 C 0.36237 0.679 0.64055 0.0
C767 C 0.33767 0.66126 0.62724 0.0
C768 C 0.34103 0.63925 0.60837 0.0
C769 C 0.37039 0.63523 0.60305 0.0
C770 C 0.3961 0.6532 0.61646 0.0
C771 C 0.39182 0.67548 0.63529 0.0
H772 H 0.71976 0.84118 0.70759 0.0
H773 H 0.77374 0.77747 0.72401 0.0
H774 H 0.8122 0.8024 0.68965 0.0
H775 H 0.74132 0.85536 0.6307 0.0
H776 H 0.74304 0.89372 0.63439 0.0
H777 H 0.7169 0.86792 0.65613 0.0
H778 H 0.74009 0.89498 0.70221 0.0
H779 H 0.76633 0.92071 0.68068 0.0
H780 H 0.78039 0.90061 0.70844 0.0
H781 H 0.84809 0.83751 0.65899 0.0
H782 H 0.87887 0.88063 0.63477 0.0
H783 H 0.80257 0.92242 0.63884 0.0
C784 C 0.73941 0.83215 0.7037 0.0
C785 C 0.74337 0.80707 0.71844 0.0
C786 C 0.76956 0.79612 0.71256 0.0
C787 C 0.79174 0.81025 0.69313 0.0
C788 C 0.78751 0.83535 0.67967 0.0
C789 C 0.76196 0.84618 0.68459 0.0
C790 C 0.76441 0.87514 0.66971 0.0
C791 C 0.73996 0.87289 0.64634 0.0
C792 C 0.76271 0.89927 0.69157 0.0
C793 C 0.79582 0.8794 0.6566 0.0
C794 C 0.80854 0.85596 0.66217 0.0
C795 C 0.83817 0.85575 0.65397 0.0
C796 C 0.85545 0.88033 0.6401 0.0
C797 C 0.84312 0.90489 0.63471 0.0
C798 C 0.81268 0.90404 0.64265 0.0
H799 H 0.76335 0.1813 0.24544 0.0
H800 H 0.75868 0.26575 0.21156 0.0
H801 H 0.72823 0.24171 0.17044 0.0
H802 H 0.76856 0.14553 0.17623 0.0
H803 H 0.74522 0.11152 0.18843 0.0
H804 H 0.76855 0.13565 0.21367 0.0
H805 H 0.721 0.13577 0.245 0.0
H806 H 0.69752 0.11182 0.21981 0.0
H807 H 0.68864 0.14608 0.22902 0.0
H808 H 0.69581 0.20789 0.1345 0.0
H809 H 0.66445 0.16732 0.10672 0.0
H810 H 0.69025 0.10563 0.16538 0.0
C811 C 0.75662 0.19481 0.229 0.0
C812 C 0.76363 0.22539 0.23151 0.0
C813 C 0.75353 0.24226 0.21002 0.0
C814 C 0.73636 0.22881 0.18657 0.0
C815 C 0.72951 0.19853 0.18501 0.0
C816 C 0.73944 0.18179 0.20564 0.0
C817 C 0.72772 0.14968 0.2 0.0
C818 C 0.75409 0.13472 0.19423 0.0
C819 C 0.70752 0.13499 0.22494 0.0
C820 C 0.70932 0.1509 0.17311 0.0
C821 C 0.71072 0.17921 0.16466 0.0
C822 C 0.6947 0.18563 0.14085 0.0
C823 C 0.6768 0.16247 0.12533 0.0
C824 C 0.67499 0.13328 0.13378 0.0
C825 C 0.69161 0.12763 0.15797 0.0
H826 H 0.42163 0.59046 0.35211 0.0
H827 H 0.4316 0.68064 0.37764 0.0
H828 H 0.45046 0.66966 0.42493 0.0
H829 H 0.39696 0.55905 0.42292 0.0
H830 H 0.41763 0.53066 0.42001 0.0
H831 H 0.4038 0.54496 0.38806 0.0
H832 H 0.45827 0.55694 0.36694 0.0
H833 H 0.47227 0.54274 0.39883 0.0
H834 H 0.48869 0.57935 0.38729 0.0
H835 H 0.46991 0.65041 0.46835 0.0
H836 H 0.48866 0.62363 0.50672 0.0
H837 H 0.46623 0.54459 0.45553 0.0
C838 C 0.4275 0.60778 0.3678 0.0
C839 C 0.42539 0.63657 0.36091 0.0
C840 C 0.43351 0.6586 0.38205 0.0
C841 C 0.44408 0.65254 0.40912 0.0
C842 C 0.44636 0.62423 0.41505 0.0
C843 C 0.43826 0.60208 0.39517 0.0
C844 C 0.44374 0.57371 0.4073 0.0
C845 C 0.41374 0.55073 0.40972 0.0
C846 C 0.46714 0.56253 0.38899 0.0
C847 C 0.45644 0.58356 0.43691 0.0
C848 C 0.45759 0.61283 0.44072 0.0
C849 C 0.46902 0.62746 0.4657 0.0
C850 C 0.47976 0.61194 0.4874 0.0
C851 C 0.47908 0.58189 0.48432 0.0
C852 C 0.46695 0.56746 0.45869 0.0
H853 H 0.06491 0.44933 0.84724 0.0
H854 H 0.15125 0.43781 0.88011 0.0
H855 H 0.14131 0.45972 0.92628 0.0
H856 H 0.0685 0.51922 0.88095 0.0
H857 H 0.02849 0.51243 0.88918 0.0
H858 H 0.04147 0.49491 0.85868 0.0
H859 H 0.01435 0.44455 0.87858 0.0
H860 H 1.00112 0.46193 0.90904 0.0
H861 H 0.02258 0.43451 0.91459 0.0
H862 H 0.12249 0.48197 0.96887 0.0
H863 H 0.09591 0.50405 1.00598 0.0
H864 H 0.02197 0.50417 0.94652 0.0
C865 C 0.08153 0.45125 0.8643 0.0
C866 C 0.10895 0.44184 0.86003 0.0
C867 C 0.13026 0.44501 0.88278 0.0
C868 C 0.12478 0.45739 0.90912 0.0
C869 C 0.0979 0.46683 0.91254 0.0
C870 C 0.07656 0.46403 0.89085 0.0
C871 C 0.04984 0.47664 0.90036 0.0
C872 C 0.04691 0.50233 0.88115 0.0
C873 C 0.02022 0.45299 0.90066 0.0
C874 C 0.05954 0.4868 0.93075 0.0
C875 C 0.08731 0.4807 0.93719 0.0
C876 C 0.10082 0.48702 0.96403 0.0
C877 C 0.0855 0.4996 0.985 0.0
C878 C 0.05697 0.50615 0.97919 0.0
C879 C 0.04398 0.49991 0.95148 0.0
H880 H 0.55995 0.84696 0.90276 0.0
H881 H 0.61835 0.82823 0.97088 0.0
H882 H 0.60174 0.86376 1.00218 0.0
H883 H 0.57501 0.92222 0.91373 0.0
H884 H 0.53698 0.92626 0.9065 0.0
H885 H 0.55048 0.89687 0.89029 0.0
H886 H 0.50485 0.85973 0.91202 0.0
H887 H 0.49114 0.88906 0.92826 0.0
H888 H 0.49802 0.85979 0.95024 0.0
H889 H 0.58435 0.90477 1.0239 0.0
H890 H 0.56495 0.94816 1.03594 0.0
H891 H 0.51623 0.94058 0.95502 0.0
C892 C 0.56892 0.85008 0.92439 0.0
C893 C 0.59026 0.83455 0.93443 0.0
C894 C 0.60152 0.83933 0.96287 0.0
C895 C 0.59233 0.8596 0.9808 0.0
C896 C 0.57169 0.87482 0.97011 0.0
C897 C 0.55986 0.87021 0.9427 0.0
C898 C 0.53927 0.89075 0.93612 0.0
C899 C 0.55116 0.91017 0.91013 0.0
C900 C 0.50636 0.87381 0.93138 0.0
C901 C 0.54222 0.90822 0.96379 0.0
C902 C 0.56098 0.89846 0.98308 0.0
C903 C 0.56922 0.91231 1.00924 0.0
C904 C 0.55824 0.93697 1.0158 0.0
C905 C 0.53903 0.94739 0.99646 0.0
C906 C 0.53046 0.9326 0.97032 0.0
H907 H 0.89237 0.17945 0.47038 0.0
H908 H 0.95929 0.20735 0.40303 0.0
H909 H 0.9903 0.17501 0.42254 0.0
H910 H 0.94706 0.17357 0.52741 0.0
H911 H 0.92245 0.14193 0.54306 0.0
H912 H 0.90639 0.16857 0.52477 0.0
H913 H 0.87609 0.12822 0.49152 0.0
H914 H 0.89223 0.10152 0.50952 0.0
H915 H 0.89612 0.10592 0.47109 0.0
H916 H 0.01223 0.13757 0.44716 0.0
H917 H 0.02501 0.09872 0.47661 0.0
H918 H 0.94461 0.09588 0.529 0.0
C919 C 0.91386 0.17923 0.4601 0.0
C920 C 0.92339 0.19589 0.43513 0.0
C921 C 0.95137 0.19453 0.42197 0.0
C922 C 0.96922 0.17636 0.43298 0.0
C923 C 0.95888 0.15984 0.45727 0.0
C924 C 0.93201 0.16126 0.47085 0.0
C925 C 0.92564 0.14049 0.4961 0.0
C926 C 0.92538 0.15714 0.52452 0.0
C927 C 0.89575 0.11769 0.49178 0.0
C928 C 0.9529 0.12684 0.49428 0.0
C929 C 0.97178 0.13838 0.47175 0.0
C930 C 0.99779 0.12854 0.46504 0.0
C931 C 1.00476 0.10635 0.48185 0.0
C932 C 0.98585 0.09426 0.50518 0.0
C933 C 0.95965 0.10481 0.51147 0.0
H934 H 0.21551 0.58221 0.17115 0.0
H935 H 0.2449 0.66649 0.13012 0.0
H936 H 0.19836 0.65702 0.10112 0.0
H937 H 0.18119 0.54352 0.10842 0.0
H938 H 0.14938 0.52145 0.12736 0.0
H939 H 0.18494 0.53453 0.14571 0.0
H940 H 0.15746 0.55832 0.18476 0.0
H941 H 0.1218 0.5452 0.16657 0.0
H942 H 0.13476 0.58344 0.17417 0.0
H943 H 0.15029 0.63885 0.07548 0.0
H944 H 0.10133 0.61338 0.05539 0.0
H945 H 0.10032 0.54054 0.11277 0.0
C946 C 0.21198 0.5987 0.1562 0.0
C947 C 0.23425 0.62494 0.15263 0.0
C948 C 0.22868 0.64595 0.13281 0.0
C949 C 0.20216 0.64088 0.11632 0.0
C950 C 0.18105 0.61472 0.11989 0.0
C951 C 0.18537 0.59397 0.13939 0.0
C952 C 0.15869 0.56768 0.13859 0.0
C953 C 0.16919 0.54017 0.12947 0.0
C954 C 0.1422 0.56342 0.16776 0.0
C955 C 0.13898 0.57701 0.11552 0.0
C956 C 0.15252 0.60423 0.10513 0.0
C957 C 0.13934 0.61756 0.0835 0.0
C958 C 0.11146 0.60279 0.07215 0.0
C959 C 0.09675 0.57488 0.08242 0.0
C960 C 0.11083 0.56187 0.10449 0.0
H961 H 0.31236 0.42172 0.65198 0.0
H962 H 0.27153 0.4966 0.65558 0.0
H963 H 0.31486 0.52533 0.6283 0.0
H964 H 0.38937 0.46106 0.66074 0.0
H965 H 0.40504 0.43863 0.63624 0.0
H966 H 0.3704 0.42353 0.6554 0.0
H967 H 0.34305 0.40781 0.60712 0.0
H968 H 0.37761 0.42294 0.5878 0.0
H969 H 0.34324 0.43458 0.57947 0.0
H970 H 0.36278 0.5464 0.60165 0.0
H971 H 0.41294 0.55896 0.5783 0.0
H972 H 0.42337 0.47057 0.59104 0.0
C973 C 0.31238 0.44408 0.64678 0.0
C974 C 0.28847 0.4569 0.65609 0.0
C975 C 0.28968 0.48636 0.64912 0.0
C976 C 0.31412 0.50282 0.63341 0.0
C977 C 0.33728 0.48958 0.62469 0.0
C978 C 0.33672 0.46091 0.63112 0.0
C979 C 0.36503 0.45228 0.61976 0.0
C980 C 0.38355 0.44335 0.64451 0.0
C981 C 0.35673 0.42796 0.59719 0.0
C982 C 0.38164 0.48065 0.60611 0.0
C983 C 0.36508 0.50179 0.60914 0.0
C984 C 0.37587 0.52997 0.59901 0.0
C985 C 0.40448 0.53688 0.58574 0.0
C986 C 0.4222 0.51575 0.58263 0.0
C987 C 0.41034 0.48714 0.59275 0.0
H988 H 0.77917 0.69632 0.93545 0.0
H989 H 0.73581 0.61699 0.89108 0.0
H990 H 0.77661 0.59364 0.90761 0.0
H991 H 0.85345 0.69419 0.91722 0.0
H992 H 0.87013 0.70842 0.95093 0.0
H993 H 0.83579 0.71771 0.93863 0.0
H994 H 0.80863 0.69828 0.98616 0.0
H995 H 0.84302 0.68911 0.99874 0.0
H996 H 0.80811 0.66166 0.99748 0.0
H997 H 0.82403 0.58031 0.92593 0.0
H998 H 0.87458 0.57794 0.94456 0.0
H999 H 0.8875 0.66656 0.97585 0.0
C1000 C 0.77782 0.67376 0.92991 0.0
C1001 C 0.75421 0.65831 0.91225 0.0
C1002 C 0.7537 0.62914 0.90466 0.0
C1003 C 0.77669 0.61571 0.91402 0.0
C1004 C 0.8 0.63177 0.93092 0.0
C1005 C 0.80067 0.66013 0.93889 0.0
C1006 C 0.82936 0.67332 0.95538 0.0
C1007 C 0.84829 0.69997 0.93959 0.0
C1008 C 0.82182 0.68104 0.98628 0.0
C1009 C 0.84501 0.64815 0.95497 0.0
C1010 C 0.82759 0.62429 0.941 0.0
C1011 C 0.8378 0.59882 0.93702 0.0
C1012 C 0.86664 0.59777 0.94745 0.0
C1013 C 0.88504 0.62212 0.96154 0.0
C1014 C 0.87383 0.64748 0.96551 0.0
H1015 H 0.46809 0.83632 0.1713 0.0
H1016 H 0.37274 0.81732 0.14704 0.0
H1017 H 0.38194 0.86129 0.11739 0.0
H1018 H 0.4793 0.91454 0.17406 0.0
H1019 H 0.51672 0.92175 0.15826 0.0
H1020 H 0.50311 0.88892 0.1786 0.0
H1021 H 0.51329 0.85813 0.13507 0.0
H1022 H 0.52705 0.89087 0.11465 0.0
H1023 H 0.49659 0.86281 0.10071 0.0
H1024 H 0.40014 0.90702 0.09096 0.0
H1025 H 0.42727 0.95111 0.06631 0.0
H1026 H 0.5122 0.9412 0.10441 0.0
C1027 C 0.44917 0.84134 0.15968 0.0
C1028 C 0.41945 0.82344 0.16226 0.0
C1029 C 0.39548 0.83094 0.14644 0.0
C1030 C 0.4005 0.85585 0.12923 0.0
C1031 C 0.42975 0.87314 0.12756 0.0
C1032 C 0.45383 0.86622 0.14204 0.0
C1033 C 0.48313 0.88856 0.13567 0.0
C1034 C 0.49634 0.90438 0.16329 0.0
C1035 C 0.50639 0.87423 0.12063 0.0
C1036 C 0.47157 0.90897 0.11541 0.0
C1037 C 0.44064 0.89958 0.11131 0.0
C1038 C 0.4244 0.91459 0.09391 0.0
C1039 C 0.44014 0.93979 0.08003 0.0
C1040 C 0.472 0.94989 0.08333 0.0
C1041 C 0.48788 0.93417 0.10141 0.0
H1042 H 0.10241 0.24104 0.63735 0.0
H1043 H 0.0684 0.21794 0.72364 0.0
H1044 H 0.047 0.16785 0.70728 0.0
H1045 H 0.03966 0.19643 0.5989 0.0
H1046 H 0.06321 0.18626 0.57113 0.0
H1047 H 0.07519 0.22063 0.58934 0.0
H1048 H 0.12581 0.20721 0.60333 0.0
H1049 H 0.11395 0.17277 0.58521 0.0
H1050 H 0.1249 0.17387 0.62253 0.0
H1051 H 0.02941 0.11996 0.68173 0.0
H1052 H 0.01689 0.0779 0.64894 0.0
H1053 H 0.06392 0.13112 0.57944 0.0
C1054 C 0.09066 0.22548 0.65294 0.0
C1055 C 0.08708 0.23379 0.6819 0.0
C1056 C 0.07107 0.21256 0.70128 0.0
C1057 C 0.059 0.18388 0.69223 0.0
C1058 C 0.06313 0.17649 0.66369 0.0
C1059 C 0.07859 0.19666 0.64431 0.0
C1060 C 0.08005 0.18296 0.61487 0.0
C1061 C 0.06354 0.19743 0.59223 0.0
C1062 C 0.11315 0.18428 0.60597 0.0
C1063 C 0.06306 0.15191 0.62076 0.0
C1064 C 0.05343 0.14872 0.64905 0.0
C1065 C 0.0369 0.12222 0.65956 0.0
C1066 C 0.02989 0.0984 0.64069 0.0
C1067 C 0.03947 0.10102 0.61155 0.0
C1068 C 0.05644 0.12823 0.6016 0.0
H1069 H 0.72988 0.38089 0.43039 0.0
H1070 H 0.71207 0.30227 0.48188 0.0
H1071 H 0.66974 0.31807 0.50605 0.0
H1072 H 0.71012 0.42945 0.48598 0.0
H1073 H 0.69283 0.44916 0.46018 0.0
H1074 H 0.72381 0.43318 0.44941 0.0
H1075 H 0.69047 0.40511 0.40865 0.0
H1076 H 0.65937 0.42082 0.41939 0.0
H1077 H 0.65414 0.38187 0.41744 0.0
H1078 H 0.62606 0.33993 0.52078 0.0
H1079 H 0.58605 0.36767 0.52691 0.0
H1080 H 0.63234 0.43159 0.46537 0.0
C1081 C 0.71733 0.36718 0.44702 0.0
C1082 C 0.72431 0.34039 0.45433 0.0
C1083 C 0.70742 0.32309 0.47626 0.0
C1084 C 0.68323 0.33181 0.48999 0.0
C1085 C 0.67644 0.35797 0.48169 0.0
C1086 C 0.69321 0.37556 0.46094 0.0
C1087 C 0.68032 0.40188 0.45485 0.0
C1088 C 0.70313 0.43008 0.4631 0.0
C1089 C 0.67049 0.40243 0.42321 0.0
C1090 C 0.65321 0.39597 0.47488 0.0
C1091 C 0.65141 0.37063 0.49029 0.0
C1092 C 0.62742 0.35999 0.50909 0.0
C1093 C 0.60471 0.37573 0.51226 0.0
C1094 C 0.60621 0.40179 0.4967 0.0
C1095 C 0.6309 0.41201 0.47791 0.0
loop_
_geom_bond_atom_site_label_1
_geom_bond_atom_site_label_2
_geom_bond_distance
_geom_bond_site_symmetry_2
_ccdc_geom_bond_type
C0 C1 1.384 . S
C0 H13 0.947 . S
C0 C35 1.382 . S
C1 C0 1.384 . S
C1 C2 1.378 . S
C2 C1 1.378 . S
C2 C3 1.378 . S
C2 H14 0.952 . S
C3 C2 1.378 . S
C3 H15 0.950 . S
C3 C34 1.383 . S
H4 C23 0.947 . S
H5 C24 0.946 . S
H6 C26 0.953 . S
H7 C27 0.945 . S
H8 C29 0.952 . S
H9 C30 0.949 . S
H10 C32 0.950 . S
H11 C33 0.948 . S
H12 C35 0.951 . S
H13 C0 0.947 . S
H14 C2 0.952 . S
H15 C3 0.950 . S
N16 C19 1.382 . S
N16 C21 1.363 . S
N17 C19 1.371 . S
N17 C20 1.372 . S
N18 C20 1.361 . S
N18 C21 1.377 . S
C19 N16 1.382 . S
C19 N17 1.371 . S
C19 C22 1.480 . S
C20 N17 1.372 . S
C20 N18 1.361 . S
C20 C28 1.457 . S
C21 N16 1.363 . S
C21 N18 1.377 . S
C21 C34 1.479 . S
C22 C19 1.480 . S
C22 C23 1.383 . S
C22 C27 1.385 . S
C23 H4 0.947 . S
C23 C22 1.383 . S
C23 C24 1.388 . S
C24 H5 0.946 . S
C24 C23 1.388 . S
C24 C25 1.384 . S
C25 C24 1.384 . S
C25 C26 1.377 . S
C26 H6 0.953 . S
C26 C25 1.377 . S
C26 C27 1.369 . S
C27 H7 0.945 . S
C27 C22 1.385 . S
C27 C26 1.369 . S
C28 C20 1.457 . S
C28 C29 1.372 . S
C28 C33 1.364 . S
C29 H8 0.952 . S
C29 C28 1.372 . S
C29 C30 1.389 . S
C30 H9 0.949 . S
C30 C29 1.389 . S
C30 C31 1.387 . S
C31 C30 1.387 . S
C31 C32 1.372 . S
C32 H10 0.950 . S
C32 C31 1.372 . S
C32 C33 1.379 . S
C33 H11 0.948 . S
C33 C28 1.364 . S
C33 C32 1.379 . S
C34 C3 1.383 . S
C34 C21 1.479 . S
C34 C35 1.398 . S
C35 C0 1.382 . S
C35 H12 0.951 . S
C35 C34 1.398 . S
C36 C37 1.384 . S
C36 H49 0.947 . S
C36 C71 1.382 . S
C37 C36 1.384 . S
C37 C38 1.378 . S
C38 C37 1.378 . S
C38 C39 1.378 . S
C38 H50 0.952 . S
C39 C38 1.378 . S
C39 H51 0.950 . S
C39 C70 1.383 . S
H40 C59 0.947 . S
H41 C60 0.946 . S
H42 C62 0.953 . S
H43 C63 0.945 . S
H44 C65 0.952 . S
H45 C66 0.949 . S
H46 C68 0.950 . S
H47 C69 0.948 . S
H48 C71 0.951 . S
H49 C36 0.947 . S
H50 C38 0.952 . S
H51 C39 0.950 . S
N52 C55 1.382 . S
N52 C57 1.363 . S
N53 C55 1.371 . S
N53 C56 1.372 . S
N54 C56 1.361 . S
N54 C57 1.377 . S
C55 N52 1.382 . S
C55 N53 1.371 . S
C55 C58 1.480 . S
C56 N53 1.372 . S
C56 N54 1.361 . S
C56 C64 1.457 . S
C57 N52 1.363 . S
C57 N54 1.377 . S
C57 C70 1.479 . S
C58 C55 1.480 . S
C58 C59 1.383 . S
C58 C63 1.385 . S
C59 H40 0.947 . S
C59 C58 1.383 . S
C59 C60 1.388 . S
C60 H41 0.946 . S
C60 C59 1.388 . S
C60 C61 1.384 . S
C61 C60 1.384 . S
C61 C62 1.377 . S
C62 H42 0.953 . S
C62 C61 1.377 . S
C62 C63 1.369 . S
C63 H43 0.945 . S
C63 C58 1.385 . S
C63 C62 1.369 . S
C64 C56 1.457 . S
C64 C65 1.372 . S
C64 C69 1.364 . S
C65 H44 0.952 . S
C65 C64 1.372 . S
C65 C66 1.389 . S
C66 H45 0.949 . S
C66 C65 1.389 . S
C66 C67 1.387 . S
C67 C66 1.387 . S
C67 C68 1.372 . S
C68 H46 0.950 . S
C68 C67 1.372 . S
C68 C69 1.379 . S
C69 H47 0.948 . S
C69 C64 1.364 . S
C69 C68 1.379 . S
C70 C39 1.383 . S
C70 C57 1.479 . S
C70 C71 1.398 . S
C71 C36 1.382 . S
C71 H48 0.951 . S
C71 C70 1.398 . S
C72 C73 1.384 . S
C72 H85 0.947 . S
C72 C107 1.382 . S
C73 C72 1.384 . S
C73 C74 1.378 . S
C74 C73 1.378 . S
C74 C75 1.378 . S
C74 H86 0.952 . S
C75 C74 1.378 . S
C75 H87 0.950 . S
C75 C106 1.383 . S
H76 C95 0.947 . S
H77 C96 0.946 . S
H78 C98 0.953 . S
H79 C99 0.945 . S
H80 C101 0.952 . S
H81 C102 0.949 . S
H82 C104 0.950 . S
H83 C105 0.948 . S
H84 C107 0.951 . S
H85 C72 0.947 . S
H86 C74 0.952 . S
H87 C75 0.950 . S
N88 C91 1.382 . S
N88 C93 1.363 . S
N89 C91 1.371 . S
N89 C92 1.372 . S
N90 C92 1.361 . S
N90 C93 1.377 . S
C91 N88 1.382 . S
C91 N89 1.371 . S
C91 C94 1.480 . S
C92 N89 1.372 . S
C92 N90 1.361 . S
C92 C100 1.457 . S
C93 N88 1.363 . S
C93 N90 1.377 . S
C93 C106 1.479 . S
C94 C91 1.480 . S
C94 C95 1.383 . S
C94 C99 1.385 . S
C95 H76 0.947 . S
C95 C94 1.383 . S
C95 C96 1.388 . S
C96 H77 0.946 . S
C96 C95 1.388 . S
C96 C97 1.384 . S
C97 C96 1.384 . S
C97 C98 1.377 . S
C98 H78 0.953 . S
C98 C97 1.377 . S
C98 C99 1.369 . S
C99 H79 0.945 . S
C99 C94 1.385 . S
C99 C98 1.369 . S
C100 C92 1.457 . S
C100 C101 1.372 . S
C100 C105 1.364 . S
C101 H80 0.952 . S
C101 C100 1.372 . S
C101 C102 1.389 . S
C102 H81 0.949 . S
C102 C101 1.389 . S
C102 C103 1.387 . S
C103 C102 1.387 . S
C103 C104 1.372 . S
C104 H82 0.950 . S
C104 C103 1.372 . S
C104 C105 1.379 . S
C105 H83 0.948 . S
C105 C100 1.364 . S
C105 C104 1.379 . S
C106 C75 1.383 . S
C106 C93 1.479 . S
C106 C107 1.398 . S
C107 C72 1.382 . S
C107 H84 0.951 . S
C107 C106 1.398 . S
C108 C109 1.384 . S
C108 H121 0.947 . S
C108 C143 1.382 . S
C109 C108 1.384 . S
C109 C110 1.378 . S
C110 C109 1.378 . S
C110 C111 1.378 . S
C110 H122 0.952 . S
C111 C110 1.378 . S
C111 H123 0.950 . S
C111 C142 1.383 . S
H112 C131 0.947 . S
H113 C132 0.946 . S
H114 C134 0.953 . S
H115 C135 0.945 . S
H116 C137 0.952 . S
H117 C138 0.949 . S
H118 C140 0.950 . S
H119 C141 0.948 . S
H120 C143 0.951 . S
H121 C108 0.947 . S
H122 C110 0.952 . S
H123 C111 0.950 . S
N124 C127 1.382 . S
N124 C129 1.363 . S
N125 C127 1.371 . S
N125 C128 1.372 . S
N126 C128 1.361 . S
N126 C129 1.377 . S
C127 N124 1.382 . S
C127 N125 1.371 . S
C127 C130 1.480 . S
C128 N125 1.372 . S
C128 N126 1.361 . S
C128 C136 1.457 . S
C129 N124 1.363 . S
C129 N126 1.377 . S
C129 C142 1.479 . S
C130 C127 1.480 . S
C130 C131 1.383 . S
C130 C135 1.385 . S
C131 H112 0.947 . S
C131 C130 1.383 . S
C131 C132 1.388 . S
C132 H113 0.946 . S
C132 C131 1.388 . S
C132 C133 1.384 . S
C133 C132 1.384 . S
C133 C134 1.377 . S
C134 H114 0.953 . S
C134 C133 1.377 . S
C134 C135 1.369 . S
C135 H115 0.945 . S
C135 C130 1.385 . S
C135 C134 1.369 . S
C136 C128 1.457 . S
C136 C137 1.372 . S
C136 C141 1.364 . S
C137 H116 0.952 . S
C137 C136 1.372 . S
C137 C138 1.389 . S
C138 H117 0.949 . S
C138 C137 1.389 . S
C138 C139 1.387 . S
C139 C138 1.387 . S
C139 C140 1.372 . S
C140 H118 0.950 . S
C140 C139 1.372 . S
C140 C141 1.379 . S
C141 H119 0.948 . S
C141 C136 1.364 . S
C141 C140 1.379 . S
C142 C111 1.383 . S
C142 C129 1.479 . S
C142 C143 1.398 . S
C143 C108 1.382 . S
C143 H120 0.951 . S
C143 C142 1.398 . S
C144 C145 1.384 . S
C144 H157 0.947 . S
C144 C179 1.382 . S
C145 C144 1.384 . S
C145 C146 1.378 . S
C146 C145 1.378 . S
C146 C147 1.378 . S
C146 H158 0.952 . S
C147 C146 1.378 . S
C147 H159 0.950 . S
C147 C178 1.383 . S
H148 C167 0.947 . S
H149 C168 0.946 . S
H150 C170 0.953 . S
H151 C171 0.945 . S
H152 C173 0.952 . S
H153 C174 0.949 . S
H154 C176 0.950 . S
H155 C177 0.948 . S
H156 C179 0.951 . S
H157 C144 0.947 . S
H158 C146 0.952 . S
H159 C147 0.950 . S
N160 C163 1.382 . S
N160 C165 1.363 . S
N161 C163 1.371 . S
N161 C164 1.372 . S
N162 C164 1.361 . S
N162 C165 1.377 . S
C163 N160 1.382 . S
C163 N161 1.371 . S
C163 C166 1.480 . S
C164 N161 1.372 . S
C164 N162 1.361 . S
C164 C172 1.457 . S
C165 N160 1.363 . S
C165 N162 1.377 . S
C165 C178 1.479 . S
C166 C163 1.480 . S
C166 C167 1.383 . S
C166 C171 1.385 . S
C167 H148 0.947 . S
C167 C166 1.383 . S
C167 C168 1.388 . S
C168 H149 0.946 . S
C168 C167 1.388 . S
C168 C169 1.384 . S
C169 C168 1.384 . S
C169 C170 1.377 . S
C170 H150 0.953 . S
C170 C169 1.377 . S
C170 C171 1.369 . S
C171 H151 0.945 . S
C171 C166 1.385 . S
C171 C170 1.369 . S
C172 C164 1.457 . S
C172 C173 1.372 . S
C172 C177 1.364 . S
C173 H152 0.952 . S
C173 C172 1.372 . S
C173 C174 1.389 . S
C174 H153 0.949 . S
C174 C173 1.389 . S
C174 C175 1.387 . S
C175 C174 1.387 . S
C175 C176 1.372 . S
C176 H154 0.950 . S
C176 C175 1.372 . S
C176 C177 1.379 . S
C177 H155 0.948 . S
C177 C172 1.364 . S
C177 C176 1.379 . S
C178 C147 1.383 . S
C178 C165 1.479 . S
C178 C179 1.398 . S
C179 C144 1.382 . S
C179 H156 0.951 . S
C179 C178 1.398 . S
C180 C181 1.384 . S
C180 H193 0.947 . S
C180 C215 1.382 . S
C181 C180 1.384 . S
C181 C182 1.378 . S
C182 C181 1.378 . S
C182 C183 1.378 . S
C182 H194 0.952 . S
C183 C182 1.378 . S
C183 H195 0.950 . S
C183 C214 1.383 . S
H184 C203 0.947 . S
H185 C204 0.946 . S
H186 C206 0.953 . S
H187 C207 0.945 . S
H188 C209 0.952 . S
H189 C210 0.949 . S
H190 C212 0.950 . S
H191 C213 0.948 . S
H192 C215 0.951 . S
H193 C180 0.947 . S
H194 C182 0.952 . S
H195 C183 0.950 . S
N196 C199 1.382 . S
N196 C201 1.363 . S
N197 C199 1.371 . S
N197 C200 1.372 . S
N198 C200 1.361 . S
N198 C201 1.377 . S
C199 N196 1.382 . S
C199 N197 1.371 . S
C199 C202 1.480 . S
C200 N197 1.372 . S
C200 N198 1.361 . S
C200 C208 1.457 . S
C201 N196 1.363 . S
C201 N198 1.377 . S
C201 C214 1.479 . S
C202 C199 1.480 . S
C202 C203 1.383 . S
C202 C207 1.385 . S
C203 H184 0.947 . S
C203 C202 1.383 . S
C203 C204 1.388 . S
C204 H185 0.946 . S
C204 C203 1.388 . S
C204 C205 1.384 . S
C205 C204 1.384 . S
C205 C206 1.377 . S
C206 H186 0.953 . S
C206 C205 1.377 . S
C206 C207 1.369 . S
C207 H187 0.945 . S
C207 C202 1.385 . S
C207 C206 1.369 . S
C208 C200 1.457 . S
C208 C209 1.372 . S
C208 C213 1.364 . S
C209 H188 0.952 . S
C209 C208 1.372 . S
C209 C210 1.389 . S
C210 H189 0.949 . S
C210 C209 1.389 . S
C210 C211 1.387 . S
C211 C210 1.387 . S
C211 C212 1.372 . S
C212 H190 0.950 . S
C212 C211 1.372 . S
C212 C213 1.379 . S
C213 H191 0.948 . S
C213 C208 1.364 . S
C213 C212 1.379 . S
C214 C183 1.383 . S
C214 C201 1.479 . S
C214 C215 1.398 . S
C215 C180 1.382 . S
C215 H192 0.951 . S
C215 C214 1.398 . S
C216 C217 1.384 . S
C216 H229 0.947 . S
C216 C251 1.382 . S
C217 C216 1.384 . S
C217 C218 1.378 . S
C218 C217 1.378 . S
C218 C219 1.378 . S
C218 H230 0.952 . S
C219 C218 1.378 . S
C219 H231 0.950 . S
C219 C250 1.383 . S
H220 C239 0.947 . S
H221 C240 0.946 . S
H222 C242 0.953 . S
H223 C243 0.945 . S
H224 C245 0.952 . S
H225 C246 0.949 . S
H226 C248 0.950 . S
H227 C249 0.948 . S
H228 C251 0.951 . S
H229 C216 0.947 . S
H230 C218 0.952 . S
H231 C219 0.950 . S
N232 C235 1.382 . S
N232 C237 1.363 . S
N233 C235 1.371 . S
N233 C236 1.372 . S
N234 C236 1.361 . S
N234 C237 1.377 . S
C235 N232 1.382 . S
C235 N233 1.371 . S
C235 C238 1.480 . S
C236 N233 1.372 . S
C236 N234 1.361 . S
C236 C244 1.457 . S
C237 N232 1.363 . S
C237 N234 1.377 . S
C237 C250 1.479 . S
C238 C235 1.480 . S
C238 C239 1.383 . S
C238 C243 1.385 . S
C239 H220 0.947 . S
C239 C238 1.383 . S
C239 C240 1.388 . S
C240 H221 0.946 . S
C240 C239 1.388 . S
C240 C241 1.384 . S
C241 C240 1.384 . S
C241 C242 1.377 . S
C242 H222 0.953 . S
C242 C241 1.377 . S
C242 C243 1.369 . S
C243 H223 0.945 . S
C243 C238 1.385 . S
C243 C242 1.369 . S
C244 C236 1.457 . S
C244 C245 1.372 . S
C244 C249 1.364 . S
C245 H224 0.952 . S
C245 C244 1.372 . S
C245 C246 1.389 . S
C246 H225 0.949 . S
C246 C245 1.389 . S
C246 C247 1.387 . S
C247 C246 1.387 . S
C247 C248 1.372 . S
C248 H226 0.950 . S
C248 C247 1.372 . S
C248 C249 1.379 . S
C249 H227 0.948 . S
C249 C244 1.364 . S
C249 C248 1.379 . S
C250 C219 1.383 . S
C250 C237 1.479 . S
C250 C251 1.398 . S
C251 C216 1.382 . S
C251 H228 0.951 . S
C251 C250 1.398 . S
C252 C253 1.384 . S
C252 H265 0.947 . S
C252 C287 1.382 . S
C253 C252 1.384 . S
C253 C254 1.378 . S
C254 C253 1.378 . S
C254 C255 1.378 . S
C254 H266 0.952 . S
C255 C254 1.378 . S
C255 H267 0.950 . S
C255 C286 1.383 . S
H256 C275 0.947 . S
H257 C276 0.946 . S
H258 C278 0.953 . S
H259 C279 0.945 . S
H260 C281 0.952 . S
H261 C282 0.949 . S
H262 C284 0.950 . S
H263 C285 0.948 . S
H264 C287 0.951 . S
H265 C252 0.947 . S
H266 C254 0.952 . S
H267 C255 0.950 . S
N268 C271 1.382 . S
N268 C273 1.363 . S
N269 C271 1.371 . S
N269 C272 1.372 . S
N270 C272 1.361 . S
N270 C273 1.377 . S
C271 N268 1.382 . S
C271 N269 1.371 . S
C271 C274 1.480 . S
C272 N269 1.372 . S
C272 N270 1.361 . S
C272 C280 1.457 . S
C273 N268 1.363 . S
C273 N270 1.377 . S
C273 C286 1.479 . S
C274 C271 1.480 . S
C274 C275 1.383 . S
C274 C279 1.385 . S
C275 H256 0.947 . S
C275 C274 1.383 . S
C275 C276 1.388 . S
C276 H257 0.946 . S
C276 C275 1.388 . S
C276 C277 1.384 . S
C277 C276 1.384 . S
C277 C278 1.377 . S
C278 H258 0.953 . S
C278 C277 1.377 . S
C278 C279 1.369 . S
C279 H259 0.945 . S
C279 C274 1.385 . S
C279 C278 1.369 . S
C280 C272 1.457 . S
C280 C281 1.372 . S
C280 C285 1.364 . S
C281 H260 0.952 . S
C281 C280 1.372 . S
C281 C282 1.389 . S
C282 H261 0.949 . S
C282 C281 1.389 . S
C282 C283 1.387 . S
C283 C282 1.387 . S
C283 C284 1.372 . S
C284 H262 0.950 . S
C284 C283 1.372 . S
C284 C285 1.379 . S
C285 H263 0.948 . S
C285 C280 1.364 . S
C285 C284 1.379 . S
C286 C255 1.383 . S
C286 C273 1.479 . S
C286 C287 1.398 . S
C287 C252 1.382 . S
C287 H264 0.951 . S
C287 C286 1.398 . S
Dy288 O291 2.307 1_545 S
Dy288 O293 2.395 . S
Dy288 O294 2.379 . S
Dy288 O296 2.339 1_545 S
Dy288 O298 2.298 1_455 S
Dy288 O302 2.275 . S
Dy288 C310 2.738 . S
Dy289 O292 2.292 1_645 S
Dy289 O295 2.269 1_545 S
Dy289 O297 2.314 . S
Dy289 O299 2.386 1_545 S
Dy289 O300 2.377 1_545 S
Dy289 O303 2.347 . S
Dy289 C319 2.732 1_545 S
C290 O302 1.254 . S
C290 O303 1.257 1_455 S
O291 Dy288 2.307 1_565 S
O291 C301 1.266 . S
O292 Dy289 2.292 1_465 S
O292 C301 1.236 . S
O293 Dy288 2.395 . S
O293 C310 1.255 . S
O294 Dy288 2.379 . S
O294 C310 1.249 . S
O295 Dy289 2.269 1_565 S
O295 C311 1.254 . S
O296 Dy288 2.339 1_565 S
O296 C311 1.257 1_455 S
O297 Dy289 2.314 . S
O297 C312 1.266 . S
O298 Dy288 2.298 1_655 S
O298 C312 1.236 . S
O299 Dy289 2.386 1_565 S
O299 C319 1.255 . S
O300 Dy289 2.377 1_565 S
O300 C319 1.249 . S
C301 O291 1.266 . S
C301 O292 1.236 . S
O302 Dy288 2.275 . S
O302 C290 1.254 . S
O303 Dy289 2.347 . S
O303 C290 1.257 1_655 S
C304 C307 1.344 . S
C304 C308 1.328 . S
C304 C310 1.516 . S
C305 C306 1.304 . S
C305 C309 1.323 . S
C306 C305 1.304 . S
C306 C307 1.371 . S
C306 H320 0.930 . S
C307 C304 1.344 . S
C307 C306 1.371 . S
C307 H321 0.931 . S
C308 C304 1.328 . S
C308 C309 1.433 . S
C308 H322 0.931 . S
C309 C305 1.323 . S
C309 C308 1.433 . S
C309 H323 0.933 . S
C310 Dy288 2.738 . S
C310 O293 1.255 . S
C310 O294 1.249 . S
C310 C304 1.516 . S
C311 O295 1.254 . S
C311 O296 1.257 1_655 S
C312 O297 1.266 . S
C312 O298 1.236 . S
C313 C316 1.344 . S
C313 C317 1.328 . S
C313 C319 1.516 . S
C314 C315 1.304 . S
C314 C318 1.323 . S
C315 C314 1.304 . S
C315 C316 1.371 . S
C315 H324 0.930 . S
C316 C313 1.344 . S
C316 C315 1.371 . S
C316 H325 0.931 . S
C317 C313 1.328 . S
C317 C318 1.433 . S
C317 H326 0.931 . S
C318 C314 1.323 . S
C318 C317 1.433 . S
C318 H327 0.933 . S
C319 Dy289 2.732 1_565 S
C319 O299 1.255 . S
C319 O300 1.249 . S
C319 C313 1.516 . S
H320 C306 0.930 . S
H321 C307 0.931 . S
H322 C308 0.931 . S
H323 C309 0.933 . S
H324 C315 0.930 . S
H325 C316 0.931 . S
H326 C317 0.931 . S
H327 C318 0.933 . S
Dy328 O331 2.311 1_556 S
Dy328 O333 2.391 1_545 S
Dy328 O334 2.378 1_545 S
Dy328 O336 2.343 . S
Dy328 O338 2.295 1_545 S
Dy328 O342 2.272 1_546 S
Dy328 C350 2.735 1_545 S
Dy329 O332 2.298 . S
Dy329 O335 2.275 1_554 S
Dy329 O337 2.307 1_544 S
Dy329 O339 2.395 . S
Dy329 O340 2.379 . S
Dy329 O343 2.339 1_545 S
Dy329 C359 2.738 . S
C330 O342 1.254 . S
C330 O343 1.257 . S
O331 Dy328 2.311 1_554 S
O331 C341 1.266 . S
O332 Dy329 2.298 . S
O332 C341 1.236 . S
O333 Dy328 2.391 1_565 S
O333 C350 1.255 . S
O334 Dy328 2.378 1_565 S
O334 C350 1.249 . S
O335 Dy329 2.275 1_556 S
O335 C351 1.254 . S
O336 Dy328 2.343 . S
O336 C351 1.257 . S
O337 Dy329 2.307 1_566 S
O337 C352 1.266 . S
O338 Dy328 2.295 1_565 S
O338 C352 1.236 . S
O339 Dy329 2.395 . S
O339 C359 1.255 . S
O340 Dy329 2.379 . S
O340 C359 1.249 . S
C341 O331 1.266 . S
C341 O332 1.236 . S
O342 Dy328 2.272 1_564 S
O342 C330 1.254 . S
O343 Dy329 2.339 1_565 S
O343 C330 1.257 . S
C344 C347 1.344 . S
C344 C348 1.328 . S
C344 C350 1.516 . S
C345 C346 1.304 . S
C345 C349 1.323 . S
C346 C345 1.304 . S
C346 C347 1.371 . S
C346 H360 0.930 . S
C347 C344 1.344 . S
C347 C346 1.371 . S
C347 H361 0.931 . S
C348 C344 1.328 . S
C348 C349 1.433 . S
C348 H362 0.931 . S
C349 C345 1.323 . S
C349 C348 1.433 . S
C349 H363 0.933 . S
C350 Dy328 2.735 1_565 S
C350 O333 1.255 . S
C350 O334 1.249 . S
C350 C344 1.516 . S
C351 O335 1.254 . S
C351 O336 1.257 . S
C352 O337 1.266 . S
C352 O338 1.236 . S
C353 C356 1.344 . S
C353 C357 1.328 . S
C353 C359 1.516 . S
C354 C355 1.304 . S
C354 C358 1.323 . S
C355 C354 1.304 . S
C355 C356 1.371 . S
C355 H364 0.930 . S
C356 C353 1.344 . S
C356 C355 1.371 . S
C356 H365 0.931 . S
C357 C353 1.328 . S
C357 C358 1.433 . S
C357 H366 0.931 . S
C358 C354 1.323 . S
C358 C357 1.433 . S
C358 H367 0.933 . S
C359 Dy329 2.738 . S
C359 O339 1.255 . S
C359 O340 1.249 . S
C359 C353 1.516 . S
H360 C346 0.930 . S
H361 C347 0.931 . S
H362 C348 0.931 . S
H363 C349 0.933 . S
H364 C355 0.930 . S
H365 C356 0.931 . S
H366 C357 0.931 . S
H367 C358 0.933 . S
Dy368 O371 2.307 . S
Dy368 O373 2.395 . S
Dy368 O374 2.379 . S
Dy368 O376 2.339 . S
Dy368 O378 2.298 . S
Dy368 O382 2.275 . S
Dy368 C390 2.738 . S
Dy369 O372 2.298 . S
Dy369 O375 2.275 . S
Dy369 O377 2.307 . S
Dy369 O379 2.395 . S
Dy369 O380 2.379 . S
Dy369 O383 2.339 . S
Dy369 C399 2.738 . S
C370 O382 1.254 . S
C370 O383 1.257 . S
O371 Dy368 2.307 . S
O371 C381 1.266 . S
O372 Dy369 2.298 . S
O372 C381 1.236 . S
O373 Dy368 2.395 . S
O373 C390 1.255 . S
O374 Dy368 2.379 . S
O374 C390 1.249 . S
O375 Dy369 2.275 . S
O375 C391 1.254 . S
O376 Dy368 2.339 . S
O376 C391 1.257 . S
O377 Dy369 2.307 . S
O377 C392 1.266 . S
O378 Dy368 2.298 . S
O378 C392 1.236 . S
O379 Dy369 2.395 . S
O379 C399 1.255 . S
O380 Dy369 2.379 . S
O380 C399 1.249 . S
C381 O371 1.266 . S
C381 O372 1.236 . S
O382 Dy368 2.275 . S
O382 C370 1.254 . S
O383 Dy369 2.339 . S
O383 C370 1.257 . S
C384 C387 1.344 . S
C384 C388 1.328 . S
C384 C390 1.516 . S
C385 C386 1.304 . S
C385 C389 1.323 . S
C386 C385 1.304 . S
C386 C387 1.371 . S
C386 H400 0.930 . S
C387 C384 1.344 . S
C387 C386 1.371 . S
C387 H401 0.931 . S
C388 C384 1.328 . S
C388 C389 1.433 . S
C388 H402 0.931 . S
C389 C385 1.323 . S
C389 C388 1.433 . S
C389 H403 0.933 . S
C390 Dy368 2.738 . S
C390 O373 1.255 . S
C390 O374 1.249 . S
C390 C384 1.516 . S
C391 O375 1.254 . S
C391 O376 1.257 . S
C392 O377 1.266 . S
C392 O378 1.236 . S
C393 C396 1.344 . S
C393 C397 1.328 . S
C393 C399 1.516 . S
C394 C395 1.304 . S
C394 C398 1.323 . S
C395 C394 1.304 . S
C395 C396 1.371 . S
C395 H404 0.930 . S
C396 C393 1.344 . S
C396 C395 1.371 . S
C396 H405 0.931 . S
C397 C393 1.328 . S
C397 C398 1.433 . S
C397 H406 0.931 . S
C398 C394 1.323 . S
C398 C397 1.433 . S
C398 H407 0.933 . S
C399 Dy369 2.738 . S
C399 O379 1.255 . S
C399 O380 1.249 . S
C399 C393 1.516 . S
H400 C386 0.930 . S
H401 C387 0.931 . S
H402 C388 0.931 . S
H403 C389 0.933 . S
H404 C395 0.930 . S
H405 C396 0.931 . S
H406 C397 0.931 . S
H407 C398 0.933 . S
Dy408 O411 2.279 1_656 S
Dy408 O413 2.423 . S
Dy408 O414 2.394 . S
Dy408 O416 2.322 1_655 S
Dy408 O418 2.317 . S
Dy408 O422 2.282 1_556 S
Dy408 C430 2.762 . S
Dy409 O412 2.298 . S
Dy409 O415 2.275 1_554 S
Dy409 O417 2.307 1_455 S
Dy409 O419 2.395 . S
Dy409 O420 2.379 . S
Dy409 O423 2.339 1_455 S
Dy409 C439 2.738 . S
C410 O422 1.254 . S
C410 O423 1.257 . S
O411 Dy408 2.279 1_454 S
O411 C421 1.266 . S
O412 Dy409 2.298 . S
O412 C421 1.236 . S
O413 Dy408 2.423 . S
O413 C430 1.255 . S
O414 Dy408 2.394 . S
O414 C430 1.249 . S
O415 Dy409 2.275 1_556 S
O415 C431 1.254 . S
O416 Dy408 2.322 1_455 S
O416 C431 1.257 . S
O417 Dy409 2.307 1_655 S
O417 C432 1.266 1_554 S
O418 Dy408 2.317 . S
O418 C432 1.236 . S
O419 Dy409 2.395 . S
O419 C439 1.255 . S
O420 Dy409 2.379 . S
O420 C439 1.249 . S
C421 O411 1.266 . S
C421 O412 1.236 . S
O422 Dy408 2.282 1_554 S
O422 C410 1.254 . S
O423 Dy409 2.339 1_655 S
O423 C410 1.257 . S
C424 C427 1.344 . S
C424 C428 1.328 . S
C424 C430 1.516 . S
C425 C426 1.304 . S
C425 C429 1.323 . S
C426 C425 1.304 . S
C426 C427 1.371 . S
C426 H440 0.930 . S
C427 C424 1.344 . S
C427 C426 1.371 . S
C427 H441 0.931 . S
C428 C424 1.328 . S
C428 C429 1.433 . S
C428 H442 0.931 . S
C429 C425 1.323 . S
C429 C428 1.433 . S
C429 H443 0.933 . S
C430 Dy408 2.762 . S
C430 O413 1.255 . S
C430 O414 1.249 . S
C430 C424 1.516 . S
C431 O415 1.254 . S
C431 O416 1.257 . S
C432 O417 1.266 1_556 S
C432 O418 1.236 . S
C433 C436 1.344 . S
C433 C437 1.328 . S
C433 C439 1.516 . S
C434 C435 1.304 . S
C434 C438 1.323 . S
C435 C434 1.304 . S
C435 C436 1.371 . S
C435 H444 0.930 . S
C436 C433 1.344 . S
C436 C435 1.371 . S
C436 H445 0.931 . S
C437 C433 1.328 . S
C437 C438 1.433 . S
C437 H446 0.931 . S
C438 C434 1.323 . S
C438 C437 1.433 . S
C438 H447 0.933 . S
C439 Dy409 2.738 . S
C439 O419 1.255 . S
C439 O420 1.249 . S
C439 C433 1.516 . S
H440 C426 0.930 . S
H441 C427 0.931 . S
H442 C428 0.931 . S
H443 C429 0.933 . S
H444 C435 0.930 . S
H445 C436 0.931 . S
H446 C437 0.931 . S
H447 C438 0.933 . S
H448 C460 0.930 . S
H449 C462 0.930 . S
H450 C463 0.930 . S
H451 C467 0.959 . S
H452 C467 0.959 . S
H453 C467 0.961 . S
H454 C468 0.960 . S
H455 C468 0.961 . S
H456 C468 0.959 . S
H457 C471 0.929 . S
H458 C472 0.931 . S
H459 C474 0.930 . S
C460 H448 0.930 . S
C460 C461 1.399 . S
C460 C465 1.399 . S
C461 C460 1.399 . S
C461 C462 1.376 . S
C462 H449 0.930 . S
C462 C461 1.376 . S
C462 C463 1.388 . S
C463 H450 0.930 . S
C463 C462 1.388 . S
C463 C464 1.390 . S
C464 C463 1.390 . S
C464 C465 1.394 . S
C464 C470 1.465 . S
C465 C460 1.399 . S
C465 C464 1.394 . S
C465 C466 1.516 . S
C466 C465 1.516 . S
C466 C467 1.502 . S
C466 C468 1.561 . S
C466 C469 1.526 . S
C467 H451 0.959 . S
C467 H452 0.959 . S
C467 H453 0.961 . S
C467 C466 1.502 . S
C468 H454 0.960 . S
C468 H455 0.961 . S
C468 H456 0.959 . S
C468 C466 1.561 . S
C469 C466 1.526 . S
C469 C470 1.396 . S
C469 C474 1.390 . S
C470 C464 1.465 . S
C470 C469 1.396 . S
C470 C471 1.399 . S
C471 H457 0.929 . S
C471 C470 1.399 . S
C471 C472 1.385 . S
C472 H458 0.931 . S
C472 C471 1.385 . S
C472 C473 1.389 . S
C473 C472 1.389 . S
C473 C474 1.387 . S
C474 H459 0.930 . S
C474 C469 1.390 . S
C474 C473 1.387 . S
H475 C487 0.930 . S
H476 C489 0.930 . S
H477 C490 0.930 . S
H478 C494 0.959 . S
H479 C494 0.959 . S
H480 C494 0.961 . S
H481 C495 0.960 . S
H482 C495 0.961 . S
H483 C495 0.959 . S
H484 C498 0.929 . S
H485 C499 0.931 . S
H486 C501 0.930 . S
C487 H475 0.930 . S
C487 C488 1.399 . S
C487 C492 1.399 . S
C488 C487 1.399 . S
C488 C489 1.376 . S
C489 H476 0.930 . S
C489 C488 1.376 . S
C489 C490 1.388 . S
C490 H477 0.930 . S
C490 C489 1.388 . S
C490 C491 1.390 . S
C491 C490 1.390 . S
C491 C492 1.394 . S
C491 C497 1.465 . S
C492 C487 1.399 . S
C492 C491 1.394 . S
C492 C493 1.516 . S
C493 C492 1.516 . S
C493 C494 1.502 . S
C493 C495 1.561 . S
C493 C496 1.526 . S
C494 H478 0.959 . S
C494 H479 0.959 . S
C494 H480 0.961 . S
C494 C493 1.502 . S
C495 H481 0.960 . S
C495 H482 0.961 . S
C495 H483 0.959 . S
C495 C493 1.561 . S
C496 C493 1.526 . S
C496 C497 1.396 . S
C496 C501 1.390 . S
C497 C491 1.465 . S
C497 C496 1.396 . S
C497 C498 1.399 . S
C498 H484 0.929 . S
C498 C497 1.399 . S
C498 C499 1.385 . S
C499 H485 0.931 . S
C499 C498 1.385 . S
C499 C500 1.389 . S
C500 C499 1.389 . S
C500 C501 1.387 . S
C501 H486 0.930 . S
C501 C496 1.390 . S
C501 C500 1.387 . S
H502 C514 0.930 . S
H503 C516 0.930 . S
H504 C517 0.930 . S
H505 C521 0.959 . S
H506 C521 0.959 . S
H507 C521 0.961 . S
H508 C522 0.960 . S
H509 C522 0.961 . S
H510 C522 0.959 . S
H511 C525 0.929 . S
H512 C526 0.931 . S
H513 C528 0.930 . S
C514 H502 0.930 . S
C514 C515 1.399 . S
C514 C519 1.399 . S
C515 C514 1.399 . S
C515 C516 1.376 . S
C516 H503 0.930 . S
C516 C515 1.376 . S
C516 C517 1.388 . S
C517 H504 0.930 . S
C517 C516 1.388 . S
C517 C518 1.390 . S
C518 C517 1.390 . S
C518 C519 1.394 . S
C518 C524 1.465 . S
C519 C514 1.399 . S
C519 C518 1.394 . S
C519 C520 1.516 . S
C520 C519 1.516 . S
C520 C521 1.502 . S
C520 C522 1.561 . S
C520 C523 1.526 . S
C521 H505 0.959 . S
C521 H506 0.959 . S
C521 H507 0.961 . S
C521 C520 1.502 . S
C522 H508 0.960 . S
C522 H509 0.961 . S
C522 H510 0.959 . S
C522 C520 1.561 . S
C523 C520 1.526 . S
C523 C524 1.396 . S
C523 C528 1.390 . S
C524 C518 1.465 . S
C524 C523 1.396 . S
C524 C525 1.399 . S
C525 H511 0.929 . S
C525 C524 1.399 . S
C525 C526 1.385 . S
C526 H512 0.931 . S
C526 C525 1.385 . S
C526 C527 1.389 . S
C527 C526 1.389 . S
C527 C528 1.387 . S
C528 H513 0.930 . S
C528 C523 1.390 . S
C528 C527 1.387 . S
H529 C541 0.930 . S
H530 C543 0.930 . S
H531 C544 0.930 . S
H532 C548 0.959 . S
H533 C548 0.959 . S
H534 C548 0.961 . S
H535 C549 0.960 . S
H536 C549 0.961 . S
H537 C549 0.959 . S
H538 C552 0.929 . S
H539 C553 0.931 . S
H540 C555 0.930 . S
C541 H529 0.930 . S
C541 C542 1.399 . S
C541 C546 1.399 . S
C542 C541 1.399 . S
C542 C543 1.376 . S
C543 H530 0.930 . S
C543 C542 1.376 . S
C543 C544 1.388 . S
C544 H531 0.930 . S
C544 C543 1.388 . S
C544 C545 1.390 . S
C545 C544 1.390 . S
C545 C546 1.394 . S
C545 C551 1.465 . S
C546 C541 1.399 . S
C546 C545 1.394 . S
C546 C547 1.516 . S
C547 C546 1.516 . S
C547 C548 1.502 . S
C547 C549 1.561 . S
C547 C550 1.526 . S
C548 H532 0.959 . S
C548 H533 0.959 . S
C548 H534 0.961 . S
C548 C547 1.502 . S
C549 H535 0.960 . S
C549 H536 0.961 . S
C549 H537 0.959 . S
C549 C547 1.561 . S
C550 C547 1.526 . S
C550 C551 1.396 . S
C550 C555 1.390 . S
C551 C545 1.465 . S
C551 C550 1.396 . S
C551 C552 1.399 . S
C552 H538 0.929 . S
C552 C551 1.399 . S
C552 C553 1.385 . S
C553 H539 0.931 . S
C553 C552 1.385 . S
C553 C554 1.389 . S
C554 C553 1.389 . S
C554 C555 1.387 . S
C555 H540 0.930 . S
C555 C550 1.390 . S
C555 C554 1.387 . S
H556 C568 0.930 . S
H557 C570 0.930 . S
H558 C571 0.930 . S
H559 C575 0.959 . S
H560 C575 0.959 . S
H561 C575 0.961 . S
H562 C576 0.960 . S
H563 C576 0.961 . S
H564 C576 0.959 . S
H565 C579 0.929 . S
H566 C580 0.931 . S
H567 C582 0.930 . S
C568 H556 0.930 . S
C568 C569 1.399 . S
C568 C573 1.399 . S
C569 C568 1.399 . S
C569 C570 1.376 . S
C570 H557 0.930 . S
C570 C569 1.376 . S
C570 C571 1.388 . S
C571 H558 0.930 . S
C571 C570 1.388 . S
C571 C572 1.390 . S
C572 C571 1.390 . S
C572 C573 1.394 . S
C572 C578 1.465 . S
C573 C568 1.399 . S
C573 C572 1.394 . S
C573 C574 1.516 . S
C574 C573 1.516 . S
C574 C575 1.502 . S
C574 C576 1.561 . S
C574 C577 1.526 . S
C575 H559 0.959 . S
C575 H560 0.959 . S
C575 H561 0.961 . S
C575 C574 1.502 . S
C576 H562 0.960 . S
C576 H563 0.961 . S
C576 H564 0.959 . S
C576 C574 1.561 . S
C577 C574 1.526 . S
C577 C578 1.396 . S
C577 C582 1.390 . S
C578 C572 1.465 . S
C578 C577 1.396 . S
C578 C579 1.399 . S
C579 H565 0.929 . S
C579 C578 1.399 . S
C579 C580 1.385 . S
C580 H566 0.931 . S
C580 C579 1.385 . S
C580 C581 1.389 . S
C581 C580 1.389 . S
C581 C582 1.387 . S
C582 H567 0.930 . S
C582 C577 1.390 . S
C582 C581 1.387 . S
H583 C595 0.930 . S
H584 C597 0.930 . S
H585 C598 0.930 . S
H586 C602 0.951 1_655 S
H587 C602 0.959 . S
H588 C602 0.961 . S
H589 C603 0.960 . S
H590 C603 0.961 . S
H591 C603 0.959 . S
H592 C606 0.929 . S
H593 C607 0.931 . S
H594 C609 0.930 . S
C595 H583 0.930 . S
C595 C596 1.399 . S
C595 C600 1.399 . S
C596 C595 1.399 . S
C596 C597 1.376 . S
C597 H584 0.930 . S
C597 C596 1.376 . S
C597 C598 1.388 . S
C598 H585 0.930 . S
C598 C597 1.388 . S
C598 C599 1.390 . S
C599 C598 1.390 . S
C599 C600 1.394 . S
C599 C605 1.465 . S
C600 C595 1.399 . S
C600 C599 1.394 . S
C600 C601 1.516 . S
C601 C600 1.516 . S
C601 C602 1.502 . S
C601 C603 1.561 . S
C601 C604 1.526 . S
C602 H586 0.951 1_455 S
C602 H587 0.959 . S
C602 H588 0.961 . S
C602 C601 1.502 . S
C603 H589 0.960 . S
C603 H590 0.961 . S
C603 H591 0.959 . S
C603 C601 1.561 . S
C604 C601 1.526 . S
C604 C605 1.396 . S
C604 C609 1.390 . S
C605 C599 1.465 . S
C605 C604 1.396 . S
C605 C606 1.399 . S
C606 H592 0.929 . S
C606 C605 1.399 . S
C606 C607 1.385 . S
C607 H593 0.931 . S
C607 C606 1.385 . S
C607 C608 1.389 . S
C608 C607 1.389 . S
C608 C609 1.387 . S
C609 H594 0.930 . S
C609 C604 1.390 . S
C609 C608 1.387 . S
H610 C622 0.930 . S
H611 C624 0.930 . S
H612 C625 0.930 . S
H613 C629 0.959 . S
H614 C629 0.959 . S
H615 C629 0.961 . S
H616 C630 0.960 . S
H617 C630 0.961 . S
H618 C630 0.959 . S
H619 C633 0.929 . S
H620 C634 0.931 . S
H621 C636 0.930 . S
C622 H610 0.930 . S
C622 C623 1.399 . S
C622 C627 1.399 . S
C623 C622 1.399 . S
C623 C624 1.376 . S
C624 H611 0.930 . S
C624 C623 1.376 . S
C624 C625 1.388 . S
C625 H612 0.930 . S
C625 C624 1.388 . S
C625 C626 1.390 . S
C626 C625 1.390 . S
C626 C627 1.394 . S
C626 C632 1.465 . S
C627 C622 1.399 . S
C627 C626 1.394 . S
C627 C628 1.516 . S
C628 C627 1.516 . S
C628 C629 1.502 . S
C628 C630 1.561 . S
C628 C631 1.526 . S
C629 H613 0.959 . S
C629 H614 0.959 . S
C629 H615 0.961 . S
C629 C628 1.502 . S
C630 H616 0.960 . S
C630 H617 0.961 . S
C630 H618 0.959 . S
C630 C628 1.561 . S
C631 C628 1.526 . S
C631 C632 1.396 . S
C631 C636 1.390 . S
C632 C626 1.465 . S
C632 C631 1.396 . S
C632 C633 1.399 . S
C633 H619 0.929 . S
C633 C632 1.399 . S
C633 C634 1.385 . S
C634 H620 0.931 . S
C634 C633 1.385 . S
C634 C635 1.389 . S
C635 C634 1.389 . S
C635 C636 1.387 . S
C636 H621 0.930 . S
C636 C631 1.390 . S
C636 C635 1.387 . S
H637 C649 0.930 . S
H638 C651 0.930 . S
H639 C652 0.930 . S
H640 C656 0.959 . S
H641 C656 0.959 . S
H642 C656 0.961 . S
H643 C657 0.960 . S
H644 C657 0.961 . S
H645 C657 0.959 . S
H646 C660 0.929 . S
H647 C661 0.931 . S
H648 C663 0.930 . S
C649 H637 0.930 . S
C649 C650 1.399 . S
C649 C654 1.399 . S
C650 C649 1.399 . S
C650 C651 1.376 . S
C651 H638 0.930 . S
C651 C650 1.376 . S
C651 C652 1.388 . S
C652 H639 0.930 . S
C652 C651 1.388 . S
C652 C653 1.390 . S
C653 C652 1.390 . S
C653 C654 1.394 . S
C653 C659 1.465 . S
C654 C649 1.399 . S
C654 C653 1.394 . S
C654 C655 1.516 . S
C655 C654 1.516 . S
C655 C656 1.502 . S
C655 C657 1.561 . S
C655 C658 1.526 . S
C656 H640 0.959 . S
C656 H641 0.959 . S
C656 H642 0.961 . S
C656 C655 1.502 . S
C657 H643 0.960 . S
C657 H644 0.961 . S
C657 H645 0.959 . S
C657 C655 1.561 . S
C658 C655 1.526 . S
C658 C659 1.396 . S
C658 C663 1.390 . S
C659 C653 1.465 . S
C659 C658 1.396 . S
C659 C660 1.399 . S
C660 H646 0.929 . S
C660 C659 1.399 . S
C660 C661 1.385 . S
C661 H647 0.931 . S
C661 C660 1.385 . S
C661 C662 1.389 . S
C662 C661 1.389 . S
C662 C663 1.387 . S
C663 H648 0.930 . S
C663 C658 1.390 . S
C663 C662 1.387 . S
H664 C676 0.930 . S
H665 C678 0.930 . S
H666 C679 0.930 . S
H667 C683 0.959 . S
H668 C683 0.959 . S
H669 C683 0.961 . S
H670 C684 0.960 . S
H671 C684 0.961 . S
H672 C684 0.959 . S
H673 C687 0.929 . S
H674 C688 0.931 . S
H675 C690 0.930 . S
C676 H664 0.930 . S
C676 C677 1.399 . S
C676 C681 1.399 . S
C677 C676 1.399 . S
C677 C678 1.376 . S
C678 H665 0.930 . S
C678 C677 1.376 . S
C678 C679 1.388 . S
C679 H666 0.930 . S
C679 C678 1.388 . S
C679 C680 1.390 . S
C680 C679 1.390 . S
C680 C681 1.394 . S
C680 C686 1.465 . S
C681 C676 1.399 . S
C681 C680 1.394 . S
C681 C682 1.516 . S
C682 C681 1.516 . S
C682 C683 1.502 . S
C682 C684 1.561 . S
C682 C685 1.526 . S
C683 H667 0.959 . S
C683 H668 0.959 . S
C683 H669 0.961 . S
C683 C682 1.502 . S
C684 H670 0.960 . S
C684 H671 0.961 . S
C684 H672 0.959 . S
C684 C682 1.561 . S
C685 C682 1.526 . S
C685 C686 1.396 . S
C685 C690 1.390 . S
C686 C680 1.465 . S
C686 C685 1.396 . S
C686 C687 1.399 . S
C687 H673 0.929 . S
C687 C686 1.399 . S
C687 C688 1.385 . S
C688 H674 0.931 . S
C688 C687 1.385 . S
C688 C689 1.389 . S
C689 C688 1.389 . S
C689 C690 1.387 . S
C690 H675 0.930 . S
C690 C685 1.390 . S
C690 C689 1.387 . S
H691 C703 0.930 . S
H692 C705 0.930 . S
H693 C706 0.930 . S
H694 C710 0.959 . S
H695 C710 0.959 . S
H696 C710 0.961 . S
H697 C711 0.960 . S
H698 C711 0.961 . S
H699 C711 0.959 . S
H700 C714 0.929 . S
H701 C715 0.931 . S
H702 C717 0.930 . S
C703 H691 0.930 . S
C703 C704 1.399 . S
C703 C708 1.399 . S
C704 C703 1.399 . S
C704 C705 1.376 . S
C705 H692 0.930 . S
C705 C704 1.376 . S
C705 C706 1.388 . S
C706 H693 0.930 . S
C706 C705 1.388 . S
C706 C707 1.390 . S
C707 C706 1.390 . S
C707 C708 1.394 . S
C707 C713 1.465 . S
C708 C703 1.399 . S
C708 C707 1.394 . S
C708 C709 1.516 . S
C709 C708 1.516 . S
C709 C710 1.502 . S
C709 C711 1.561 . S
C709 C712 1.526 . S
C710 H694 0.959 . S
C710 H695 0.959 . S
C710 H696 0.961 . S
C710 C709 1.502 . S
C711 H697 0.960 . S
C711 H698 0.961 . S
C711 H699 0.959 . S
C711 C709 1.561 . S
C712 C709 1.526 . S
C712 C713 1.396 . S
C712 C717 1.390 . S
C713 C707 1.465 . S
C713 C712 1.396 . S
C713 C714 1.399 . S
C714 H700 0.929 . S
C714 C713 1.399 . S
C714 C715 1.385 . S
C715 H701 0.931 . S
C715 C714 1.385 . S
C715 C716 1.389 . S
C716 C715 1.389 . S
C716 C717 1.387 . S
C717 H702 0.930 . S
C717 C712 1.390 . S
C717 C716 1.387 . S
H718 C730 0.930 . S
H719 C732 0.930 . S
H720 C733 0.930 . S
H721 C737 0.959 . S
H722 C737 0.959 . S
H723 C737 0.961 . S
H724 C738 0.960 . S
H725 C738 0.961 . S
H726 C738 0.959 . S
H727 C741 0.929 . S
H728 C742 0.931 . S
H729 C744 0.930 . S
C730 H718 0.930 . S
C730 C731 1.399 . S
C730 C735 1.399 . S
C731 C730 1.399 . S
C731 C732 1.376 . S
C732 H719 0.930 . S
C732 C731 1.376 . S
C732 C733 1.388 . S
C733 H720 0.930 . S
C733 C732 1.388 . S
C733 C734 1.390 . S
C734 C733 1.390 . S
C734 C735 1.394 . S
C734 C740 1.465 . S
C735 C730 1.399 . S
C735 C734 1.394 . S
C735 C736 1.516 . S
C736 C735 1.516 . S
C736 C737 1.502 . S
C736 C738 1.561 1_655 S
C736 C739 1.526 . S
C737 H721 0.959 . S
C737 H722 0.959 . S
C737 H723 0.961 . S
C737 C736 1.502 . S
C738 H724 0.960 . S
C738 H725 0.961 . S
C738 H726 0.959 . S
C738 C736 1.561 1_455 S
C739 C736 1.526 . S
C739 C740 1.396 . S
C739 C744 1.390 . S
C740 C734 1.465 . S
C740 C739 1.396 . S
C740 C741 1.399 . S
C741 H727 0.929 . S
C741 C740 1.399 . S
C741 C742 1.385 . S
C742 H728 0.931 . S
C742 C741 1.385 . S
C742 C743 1.389 . S
C743 C742 1.389 . S
C743 C744 1.387 . S
C744 H729 0.930 . S
C744 C739 1.390 . S
C744 C743 1.387 . S
H745 C757 0.930 . S
H746 C759 0.930 . S
H747 C760 0.930 . S
H748 C764 0.959 . S
H749 C764 0.959 . S
H750 C764 0.961 . S
H751 C765 0.960 . S
H752 C765 0.961 . S
H753 C765 0.959 . S
H754 C768 0.929 . S
H755 C769 0.931 . S
H756 C771 0.930 . S
C757 H745 0.930 . S
C757 C758 1.399 . S
C757 C762 1.399 . S
C758 C757 1.399 . S
C758 C759 1.376 . S
C759 H746 0.930 . S
C759 C758 1.376 . S
C759 C760 1.388 . S
C760 H747 0.930 . S
C760 C759 1.388 . S
C760 C761 1.390 . S
C761 C760 1.390 . S
C761 C762 1.394 . S
C761 C767 1.465 . S
C762 C757 1.399 . S
C762 C761 1.394 . S
C762 C763 1.516 . S
C763 C762 1.516 . S
C763 C764 1.502 . S
C763 C765 1.561 . S
C763 C766 1.526 . S
C764 H748 0.959 . S
C764 H749 0.959 . S
C764 H750 0.961 . S
C764 C763 1.502 . S
C765 H751 0.960 . S
C765 H752 0.961 . S
C765 H753 0.959 . S
C765 C763 1.561 . S
C766 C763 1.526 . S
C766 C767 1.396 . S
C766 C771 1.390 . S
C767 C761 1.465 . S
C767 C766 1.396 . S
C767 C768 1.399 . S
C768 H754 0.929 . S
C768 C767 1.399 . S
C768 C769 1.385 . S
C769 H755 0.931 . S
C769 C768 1.385 . S
C769 C770 1.389 . S
C770 C769 1.389 . S
C770 C771 1.387 . S
C771 H756 0.930 . S
C771 C766 1.390 . S
C771 C770 1.387 . S
H772 C784 0.930 . S
H773 C786 0.930 . S
H774 C787 0.930 . S
H775 C791 0.959 . S
H776 C791 0.959 . S
H777 C791 0.961 . S
H778 C792 0.960 . S
H779 C792 0.961 . S
H780 C792 0.959 . S
H781 C795 0.929 . S
H782 C796 0.931 . S
H783 C798 0.930 . S
C784 H772 0.930 . S
C784 C785 1.399 . S
C784 C789 1.399 . S
C785 C784 1.399 . S
C785 C786 1.376 . S
C786 H773 0.930 . S
C786 C785 1.376 . S
C786 C787 1.388 . S
C787 H774 0.930 . S
C787 C786 1.388 . S
C787 C788 1.390 . S
C788 C787 1.390 . S
C788 C789 1.394 . S
C788 C794 1.465 . S
C789 C784 1.399 . S
C789 C788 1.394 . S
C789 C790 1.516 . S
C790 C789 1.516 . S
C790 C791 1.502 . S
C790 C792 1.561 . S
C790 C793 1.526 . S
C791 H775 0.959 . S
C791 H776 0.959 . S
C791 H777 0.961 . S
C791 C790 1.502 . S
C792 H778 0.960 . S
C792 H779 0.961 . S
C792 H780 0.959 . S
C792 C790 1.561 . S
C793 C790 1.526 . S
C793 C794 1.396 . S
C793 C798 1.390 . S
C794 C788 1.465 . S
C794 C793 1.396 . S
C794 C795 1.399 . S
C795 H781 0.929 . S
C795 C794 1.399 . S
C795 C796 1.385 . S
C796 H782 0.931 . S
C796 C795 1.385 . S
C796 C797 1.389 . S
C797 C796 1.389 . S
C797 C798 1.387 . S
C798 H783 0.930 . S
C798 C793 1.390 . S
C798 C797 1.387 . S
H799 C811 0.930 . S
H800 C813 0.930 . S
H801 C814 0.930 . S
H802 C818 0.959 . S
H803 C818 0.959 . S
H804 C818 0.961 . S
H805 C819 0.960 . S
H806 C819 0.961 . S
H807 C819 0.959 . S
H808 C822 0.929 . S
H809 C823 0.931 . S
H810 C825 0.930 . S
C811 H799 0.930 . S
C811 C812 1.399 . S
C811 C816 1.399 . S
C812 C811 1.399 . S
C812 C813 1.376 . S
C813 H800 0.930 . S
C813 C812 1.376 . S
C813 C814 1.388 . S
C814 H801 0.930 . S
C814 C813 1.388 . S
C814 C815 1.390 . S
C815 C814 1.390 . S
C815 C816 1.394 . S
C815 C821 1.465 . S
C816 C811 1.399 . S
C816 C815 1.394 . S
C816 C817 1.516 . S
C817 C816 1.516 . S
C817 C818 1.502 . S
C817 C819 1.561 . S
C817 C820 1.526 . S
C818 H802 0.959 . S
C818 H803 0.959 . S
C818 H804 0.961 . S
C818 C817 1.502 . S
C819 H805 0.960 . S
C819 H806 0.961 . S
C819 H807 0.959 . S
C819 C817 1.561 . S
C820 C817 1.526 . S
C820 C821 1.396 . S
C820 C825 1.390 . S
C821 C815 1.465 . S
C821 C820 1.396 . S
C821 C822 1.399 . S
C822 H808 0.929 . S
C822 C821 1.399 . S
C822 C823 1.385 . S
C823 H809 0.931 . S
C823 C822 1.385 . S
C823 C824 1.389 . S
C824 C823 1.389 . S
C824 C825 1.387 . S
C825 H810 0.930 . S
C825 C820 1.390 . S
C825 C824 1.387 . S
H826 C838 0.930 . S
H827 C840 0.930 . S
H828 C841 0.930 . S
H829 C845 0.959 . S
H830 C845 0.959 . S
H831 C845 0.961 . S
H832 C846 0.960 . S
H833 C846 0.961 . S
H834 C846 0.959 . S
H835 C849 0.929 . S
H836 C850 0.931 . S
H837 C852 0.930 . S
C838 H826 0.930 . S
C838 C839 1.399 . S
C838 C843 1.399 . S
C839 C838 1.399 . S
C839 C840 1.376 . S
C840 H827 0.930 . S
C840 C839 1.376 . S
C840 C841 1.388 . S
C841 H828 0.930 . S
C841 C840 1.388 . S
C841 C842 1.390 . S
C842 C841 1.390 . S
C842 C843 1.394 . S
C842 C848 1.465 . S
C843 C838 1.399 . S
C843 C842 1.394 . S
C843 C844 1.516 . S
C844 C843 1.516 . S
C844 C845 1.502 . S
C844 C846 1.561 . S
C844 C847 1.526 . S
C845 H829 0.959 . S
C845 H830 0.959 . S
C845 H831 0.961 . S
C845 C844 1.502 . S
C846 H832 0.960 . S
C846 H833 0.961 . S
C846 H834 0.959 . S
C846 C844 1.561 . S
C847 C844 1.526 . S
C847 C848 1.396 . S
C847 C852 1.390 . S
C848 C842 1.465 . S
C848 C847 1.396 . S
C848 C849 1.399 . S
C849 H835 0.929 . S
C849 C848 1.399 . S
C849 C850 1.385 . S
C850 H836 0.931 . S
C850 C849 1.385 . S
C850 C851 1.389 . S
C851 C850 1.389 . S
C851 C852 1.387 . S
C852 H837 0.930 . S
C852 C847 1.390 . S
C852 C851 1.387 . S
H853 C865 0.930 . S
H854 C867 0.930 . S
H855 C868 0.930 . S
H856 C872 0.959 . S
H857 C872 0.959 1_655 S
H858 C872 0.961 . S
H859 C873 0.960 . S
H860 C873 0.961 1_655 S
H861 C873 0.959 . S
H862 C876 0.929 . S
H863 C877 0.931 . S
H864 C879 0.930 . S
C865 H853 0.930 . S
C865 C866 1.399 . S
C865 C870 1.399 . S
C866 C865 1.399 . S
C866 C867 1.376 . S
C867 H854 0.930 . S
C867 C866 1.376 . S
C867 C868 1.388 . S
C868 H855 0.930 . S
C868 C867 1.388 . S
C868 C869 1.390 . S
C869 C868 1.390 . S
C869 C870 1.394 . S
C869 C875 1.465 . S
C870 C865 1.399 . S
C870 C869 1.394 . S
C870 C871 1.516 . S
C871 C870 1.516 . S
C871 C872 1.502 . S
C871 C873 1.561 . S
C871 C874 1.526 . S
C872 H856 0.959 . S
C872 H857 0.959 1_455 S
C872 H858 0.961 . S
C872 C871 1.502 . S
C873 H859 0.960 . S
C873 H860 0.961 1_455 S
C873 H861 0.959 . S
C873 C871 1.561 . S
C874 C871 1.526 . S
C874 C875 1.396 . S
C874 C879 1.390 . S
C875 C869 1.465 . S
C875 C874 1.396 . S
C875 C876 1.399 . S
C876 H862 0.929 . S
C876 C875 1.399 . S
C876 C877 1.385 . S
C877 H863 0.931 . S
C877 C876 1.385 . S
C877 C878 1.389 . S
C878 C877 1.389 . S
C878 C879 1.387 . S
C879 H864 0.930 . S
C879 C874 1.390 . S
C879 C878 1.387 . S
H880 C892 0.930 . S
H881 C894 0.930 . S
H882 C895 0.930 . S
H883 C899 0.959 . S
H884 C899 0.959 . S
H885 C899 0.961 . S
H886 C900 0.960 . S
H887 C900 0.961 . S
H888 C900 0.959 . S
H889 C903 0.929 . S
H890 C904 0.931 . S
H891 C906 0.930 . S
C892 H880 0.930 . S
C892 C893 1.399 . S
C892 C897 1.399 . S
C893 C892 1.399 . S
C893 C894 1.376 . S
C894 H881 0.930 . S
C894 C893 1.376 . S
C894 C895 1.388 . S
C895 H882 0.930 . S
C895 C894 1.388 . S
C895 C896 1.390 . S
C896 C895 1.390 . S
C896 C897 1.394 . S
C896 C902 1.465 . S
C897 C892 1.399 . S
C897 C896 1.394 . S
C897 C898 1.516 . S
C898 C897 1.516 . S
C898 C899 1.502 . S
C898 C900 1.561 . S
C898 C901 1.526 . S
C899 H883 0.959 . S
C899 H884 0.959 . S
C899 H885 0.961 . S
C899 C898 1.502 . S
C900 H886 0.960 . S
C900 H887 0.961 . S
C900 H888 0.959 . S
C900 C898 1.561 . S
C901 C898 1.526 . S
C901 C902 1.396 . S
C901 C906 1.390 . S
C902 C896 1.465 . S
C902 C901 1.396 . S
C902 C903 1.399 . S
C903 H889 0.929 . S
C903 C902 1.399 . S
C903 C904 1.385 . S
C904 H890 0.931 . S
C904 C903 1.385 . S
C904 C905 1.389 . S
C905 C904 1.389 . S
C905 C906 1.387 . S
C906 H891 0.930 . S
C906 C901 1.390 . S
C906 C905 1.387 . S
H907 C919 0.930 . S
H908 C921 0.930 . S
H909 C922 0.930 . S
H910 C926 0.959 . S
H911 C926 0.959 . S
H912 C926 0.961 . S
H913 C927 0.960 . S
H914 C927 0.961 . S
H915 C927 0.959 . S
H916 C930 0.929 . S
H917 C931 0.931 . S
H918 C933 0.930 . S
C919 H907 0.930 . S
C919 C920 1.399 . S
C919 C924 1.399 . S
C920 C919 1.399 . S
C920 C921 1.376 . S
C921 H908 0.930 . S
C921 C920 1.376 . S
C921 C922 1.388 . S
C922 H909 0.930 . S
C922 C921 1.388 . S
C922 C923 1.390 . S
C923 C922 1.390 . S
C923 C924 1.394 . S
C923 C929 1.465 . S
C924 C919 1.399 . S
C924 C923 1.394 . S
C924 C925 1.516 . S
C925 C924 1.516 . S
C925 C926 1.502 . S
C925 C927 1.561 . S
C925 C928 1.526 . S
C926 H910 0.959 . S
C926 H911 0.959 . S
C926 H912 0.961 . S
C926 C925 1.502 . S
C927 H913 0.960 . S
C927 H914 0.961 . S
C927 H915 0.959 . S
C927 C925 1.561 . S
C928 C925 1.526 . S
C928 C929 1.396 . S
C928 C933 1.390 . S
C929 C923 1.465 . S
C929 C928 1.396 . S
C929 C930 1.399 . S
C930 H916 0.929 . S
C930 C929 1.399 . S
C930 C931 1.385 . S
C931 H917 0.931 . S
C931 C930 1.385 . S
C931 C932 1.389 . S
C932 C931 1.389 . S
C932 C933 1.387 . S
C933 H918 0.930 . S
C933 C928 1.390 . S
C933 C932 1.387 . S
H934 C946 0.930 . S
H935 C948 0.930 . S
H936 C949 0.930 . S
H937 C953 0.959 . S
H938 C953 0.959 . S
H939 C953 0.961 . S
H940 C954 0.960 . S
H941 C954 0.961 . S
H942 C954 0.959 . S
H943 C957 0.929 . S
H944 C958 0.931 . S
H945 C960 0.930 . S
C946 H934 0.930 . S
C946 C947 1.399 . S
C946 C951 1.399 . S
C947 C946 1.399 . S
C947 C948 1.376 . S
C948 H935 0.930 . S
C948 C947 1.376 . S
C948 C949 1.388 . S
C949 H936 0.930 . S
C949 C948 1.388 . S
C949 C950 1.390 . S
C950 C949 1.390 . S
C950 C951 1.394 . S
C950 C956 1.465 . S
C951 C946 1.399 . S
C951 C950 1.394 . S
C951 C952 1.516 . S
C952 C951 1.516 . S
C952 C953 1.502 . S
C952 C954 1.561 . S
C952 C955 1.526 . S
C953 H937 0.959 . S
C953 H938 0.959 . S
C953 H939 0.961 . S
C953 C952 1.502 . S
C954 H940 0.960 . S
C954 H941 0.961 . S
C954 H942 0.959 . S
C954 C952 1.561 . S
C955 C952 1.526 . S
C955 C956 1.396 . S
C955 C960 1.390 . S
C956 C950 1.465 . S
C956 C955 1.396 . S
C956 C957 1.399 . S
C957 H943 0.929 . S
C957 C956 1.399 . S
C957 C958 1.385 . S
C958 H944 0.931 . S
C958 C957 1.385 . S
C958 C959 1.389 . S
C959 C958 1.389 . S
C959 C960 1.387 . S
C960 H945 0.930 . S
C960 C955 1.390 . S
C960 C959 1.387 . S
H961 C973 0.930 . S
H962 C975 0.930 . S
H963 C976 0.930 . S
H964 C980 0.959 . S
H965 C980 0.959 . S
H966 C980 0.961 . S
H967 C981 0.960 . S
H968 C981 0.961 . S
H969 C981 0.959 . S
H970 C984 0.929 . S
H971 C985 0.931 . S
H972 C987 0.930 . S
C973 H961 0.930 . S
C973 C974 1.399 . S
C973 C978 1.399 . S
C974 C973 1.399 . S
C974 C975 1.376 . S
C975 H962 0.930 . S
C975 C974 1.376 . S
C975 C976 1.388 . S
C976 H963 0.930 . S
C976 C975 1.388 . S
C976 C977 1.390 . S
C977 C976 1.390 . S
C977 C978 1.394 . S
C977 C983 1.465 . S
C978 C973 1.399 . S
C978 C977 1.394 . S
C978 C979 1.516 . S
C979 C978 1.516 . S
C979 C980 1.502 . S
C979 C981 1.561 . S
C979 C982 1.526 . S
C980 H964 0.959 . S
C980 H965 0.959 . S
C980 H966 0.961 . S
C980 C979 1.502 . S
C981 H967 0.960 . S
C981 H968 0.961 . S
C981 H969 0.959 . S
C981 C979 1.561 . S
C982 C979 1.526 . S
C982 C983 1.396 . S
C982 C987 1.390 . S
C983 C977 1.465 . S
C983 C982 1.396 . S
C983 C984 1.399 . S
C984 H970 0.929 . S
C984 C983 1.399 . S
C984 C985 1.385 . S
C985 H971 0.931 . S
C985 C984 1.385 . S
C985 C986 1.389 . S
C986 C985 1.389 . S
C986 C987 1.387 . S
C987 H972 0.930 . S
C987 C982 1.390 . S
C987 C986 1.387 . S
H988 C1000 0.930 . S
H989 C1002 0.930 . S
H990 C1003 0.930 . S
H991 C1007 0.959 . S
H992 C1007 0.959 . S
H993 C1007 0.961 . S
H994 C1008 0.960 . S
H995 C1008 0.961 . S
H996 C1008 0.959 . S
H997 C1011 0.929 . S
H998 C1012 0.931 . S
H999 C1014 0.930 . S
C1000 H988 0.930 . S
C1000 C1001 1.399 . S
C1000 C1005 1.399 . S
C1001 C1000 1.399 . S
C1001 C1002 1.376 . S
C1002 H989 0.930 . S
C1002 C1001 1.376 . S
C1002 C1003 1.388 . S
C1003 H990 0.930 . S
C1003 C1002 1.388 . S
C1003 C1004 1.390 . S
C1004 C1003 1.390 . S
C1004 C1005 1.394 . S
C1004 C1010 1.465 . S
C1005 C1000 1.399 . S
C1005 C1004 1.394 . S
C1005 C1006 1.516 . S
C1006 C1005 1.516 . S
C1006 C1007 1.502 . S
C1006 C1008 1.561 . S
C1006 C1009 1.526 . S
C1007 H991 0.959 . S
C1007 H992 0.959 . S
C1007 H993 0.961 . S
C1007 C1006 1.502 . S
C1008 H994 0.960 . S
C1008 H995 0.961 . S
C1008 H996 0.959 . S
C1008 C1006 1.561 . S
C1009 C1006 1.526 . S
C1009 C1010 1.396 . S
C1009 C1014 1.390 . S
C1010 C1004 1.465 . S
C1010 C1009 1.396 . S
C1010 C1011 1.399 . S
C1011 H997 0.929 . S
C1011 C1010 1.399 . S
C1011 C1012 1.385 . S
C1012 H998 0.931 . S
C1012 C1011 1.385 . S
C1012 C1013 1.389 . S
C1013 C1012 1.389 . S
C1013 C1014 1.387 . S
C1014 H999 0.930 . S
C1014 C1009 1.390 . S
C1014 C1013 1.387 . S
H1015 C1027 0.930 . S
H1016 C1029 0.930 . S
H1017 C1030 0.930 . S
H1018 C1034 0.959 . S
H1019 C1034 0.959 . S
H1020 C1034 0.961 . S
H1021 C1035 0.960 . S
H1022 C1035 0.961 . S
H1023 C1035 0.959 . S
H1024 C1038 0.929 . S
H1025 C1039 0.931 . S
H1026 C1041 0.930 . S
C1027 H1015 0.930 . S
C1027 C1028 1.399 . S
C1027 C1032 1.399 . S
C1028 C1027 1.399 . S
C1028 C1029 1.376 . S
C1029 H1016 0.930 . S
C1029 C1028 1.376 . S
C1029 C1030 1.388 . S
C1030 H1017 0.930 . S
C1030 C1029 1.388 . S
C1030 C1031 1.390 . S
C1031 C1030 1.390 . S
C1031 C1032 1.394 . S
C1031 C1037 1.465 . S
C1032 C1027 1.399 . S
C1032 C1031 1.394 . S
C1032 C1033 1.516 . S
C1033 C1032 1.516 . S
C1033 C1034 1.502 . S
C1033 C1035 1.561 . S
C1033 C1036 1.526 . S
C1034 H1018 0.959 . S
C1034 H1019 0.959 . S
C1034 H1020 0.961 . S
C1034 C1033 1.502 . S
C1035 H1021 0.960 . S
C1035 H1022 0.961 . S
C1035 H1023 0.959 . S
C1035 C1033 1.561 . S
C1036 C1033 1.526 . S
C1036 C1037 1.396 . S
C1036 C1041 1.390 . S
C1037 C1031 1.465 . S
C1037 C1036 1.396 . S
C1037 C1038 1.399 . S
C1038 H1024 0.929 . S
C1038 C1037 1.399 . S
C1038 C1039 1.385 . S
C1039 H1025 0.931 . S
C1039 C1038 1.385 . S
C1039 C1040 1.389 . S
C1040 C1039 1.389 . S
C1040 C1041 1.387 . S
C1041 H1026 0.930 . S
C1041 C1036 1.390 . S
C1041 C1040 1.387 . S
H1042 C1054 0.930 . S
H1043 C1056 0.930 . S
H1044 C1057 0.930 . S
H1045 C1061 0.959 . S
H1046 C1061 0.959 . S
H1047 C1061 0.961 . S
H1048 C1062 0.960 . S
H1049 C1062 0.961 . S
H1050 C1062 0.959 . S
H1051 C1065 0.929 . S
H1052 C1066 0.931 . S
H1053 C1068 0.930 . S
C1054 H1042 0.930 . S
C1054 C1055 1.399 . S
C1054 C1059 1.399 . S
C1055 C1054 1.399 . S
C1055 C1056 1.376 . S
C1056 H1043 0.930 . S
C1056 C1055 1.376 . S
C1056 C1057 1.388 . S
C1057 H1044 0.930 . S
C1057 C1056 1.388 . S
C1057 C1058 1.390 . S
C1058 C1057 1.390 . S
C1058 C1059 1.394 . S
C1058 C1064 1.465 . S
C1059 C1054 1.399 . S
C1059 C1058 1.394 . S
C1059 C1060 1.516 . S
C1060 C1059 1.516 . S
C1060 C1061 1.502 . S
C1060 C1062 1.561 . S
C1060 C1063 1.526 . S
C1061 H1045 0.959 . S
C1061 H1046 0.959 . S
C1061 H1047 0.961 . S
C1061 C1060 1.502 . S
C1062 H1048 0.960 . S
C1062 H1049 0.961 . S
C1062 H1050 0.959 . S
C1062 C1060 1.561 . S
C1063 C1060 1.526 . S
C1063 C1064 1.396 . S
C1063 C1068 1.390 . S
C1064 C1058 1.465 . S
C1064 C1063 1.396 . S
C1064 C1065 1.399 . S
C1065 H1051 0.929 . S
C1065 C1064 1.399 . S
C1065 C1066 1.385 . S
C1066 H1052 0.931 . S
C1066 C1065 1.385 . S
C1066 C1067 1.389 . S
C1067 C1066 1.389 . S
C1067 C1068 1.387 . S
C1068 H1053 0.930 . S
C1068 C1063 1.390 . S
C1068 C1067 1.387 . S
H1069 C1081 0.930 . S
H1070 C1083 0.930 . S
H1071 C1084 0.930 . S
H1072 C1088 0.959 . S
H1073 C1088 0.959 . S
H1074 C1088 0.961 . S
H1075 C1089 0.960 . S
H1076 C1089 0.961 . S
H1077 C1089 0.959 . S
H1078 C1092 0.929 . S
H1079 C1093 0.931 . S
H1080 C1095 0.930 . S
C1081 H1069 0.930 . S
C1081 C1082 1.399 . S
C1081 C1086 1.399 . S
C1082 C1081 1.399 . S
C1082 C1083 1.376 . S
C1083 H1070 0.930 . S
C1083 C1082 1.376 . S
C1083 C1084 1.388 . S
C1084 H1071 0.930 . S
C1084 C1083 1.388 . S
C1084 C1085 1.390 . S
C1085 C1084 1.390 . S
C1085 C1086 1.394 . S
C1085 C1091 1.465 . S
C1086 C1081 1.399 . S
C1086 C1085 1.394 . S
C1086 C1087 1.516 . S
C1087 C1086 1.516 . S
C1087 C1088 1.502 . S
C1087 C1089 1.561 . S
C1087 C1090 1.526 . S
C1088 H1072 0.959 . S
C1088 H1073 0.959 . S
C1088 H1074 0.961 . S
C1088 C1087 1.502 . S
C1089 H1075 0.960 . S
C1089 H1076 0.961 . S
C1089 H1077 0.959 . S
C1089 C1087 1.561 . S
C1090 C1087 1.526 . S
C1090 C1091 1.396 . S
C1090 C1095 1.390 . S
C1091 C1085 1.465 . S
C1091 C1090 1.396 . S
C1091 C1092 1.399 . S
C1092 H1078 0.929 . S
C1092 C1091 1.399 . S
C1092 C1093 1.385 . S
C1093 H1079 0.931 . S
C1093 C1092 1.385 . S
C1093 C1094 1.389 . S
C1094 C1093 1.389 . S
C1094 C1095 1.387 . S
C1095 H1080 0.930 . S
C1095 C1090 1.390 . S
C1095 C1094 1.387 . S
C461 C1 1.182 . S
C473 C305 1.266 . S
C488 C67 1.268 . S
C500 C345 1.201 . S
C527 C370 2.334 . S
C515 C97 2.412 . S
C542 C133 2.437 . S
C554 C410 2.364 . S
C581 C341 1.813 . S
C569 C25 1.783 . S
C608 C301 1.807 . S
C596 C37 1.732 . S
C635 C432 1.675 . S
C623 C103 1.707 . S
C662 C392 1.679 . S
C650 C109 1.678 . S
C677 C31 1.418 . S
C689 C434 1.362 . S
C716 C351 2.104 . S
C704 C73 2.170 . S
C731 C139 2.196 . S
C743 C311 2.154 . S
C758 C61 1.416 . S
C770 C394 1.356 . S
C797 C314 1.242 . S
C785 C175 1.144 . S
C812 C181 1.217 . S
C824 C354 1.189 . S
C839 C247 2.442 . S
C851 C391 2.393 . S
C866 C277 2.426 . S
C878 C431 2.388 . S
C893 C145 1.700 . S
C905 C352 1.803 . S
C932 C312 1.806 . S
C920 C211 1.746 . S
C959 C421 1.655 . S
C947 C217 1.678 . S
C986 C381 1.702 . S
C974 C283 1.687 . S
C1001 C169 1.358 . S
C1013 C425 1.386 . S
C1040 C330 2.153 . S
C1028 C241 2.176 . S
C1067 C290 2.128 . S
C1055 C253 2.186 . S
C1082 C205 1.357 . S
C1094 C385 1.431 . S
