# Generated by pormake.
# Topology tsx, (6,3)-cn, num edge types: 1
# Building blocks:
#     Node 0, Type 0, BuildingBlock: VOLQOD_clean_sbu_1, # of connection points: 6
#     Node 1, Type 0, BuildingBlock: VOLQOD_clean_sbu_1, # of connection points: 6
#     Node 2, Type 1, BuildingBlock: CUQRIR_clean_linker_1, # of connection points: 3
#     Node 3, Type 1, BuildingBlock: CUQRIR_clean_linker_1, # of connection points: 3
#     Node 4, Type 1, BuildingBlock: CUQRIR_clean_linker_1, # of connection points: 3
#     Node 5, Type 1, BuildingBlock: CUQRIR_clean_linker_1, # of connection points: 3
#     Edge 6, Type (0, 1), BuildingBlock: XUDNAN_clean_linker_2, # of connection points: 2
#     Edge 7, Type (0, 1), BuildingBlock: XUDNAN_clean_linker_2, # of connection points: 2
#     Edge 8, Type (0, 1), BuildingBlock: XUDNAN_clean_linker_2, # of connection points: 2
#     Edge 9, Type (0, 1), BuildingBlock: XUDNAN_clean_linker_2, # of connection points: 2
#     Edge 10, Type (0, 1), BuildingBlock: XUDNAN_clean_linker_2, # of connection points: 2
#     Edge 11, Type (0, 1), BuildingBlock: XUDNAN_clean_linker_2, # of connection points: 2
#     Edge 12, Type (0, 1), BuildingBlock: XUDNAN_clean_linker_2, # of connection points: 2
#     Edge 13, Type (0, 1), BuildingBlock: XUDNAN_clean_linker_2, # of connection points: 2
#     Edge 14, Type (0, 1), BuildingBlock: XUDNAN_clean_linker_2, # of connection points: 2
#     Edge 15, Type (0, 1), BuildingBlock: XUDNAN_clean_linker_2, # of connection points: 2
#     Edge 16, Type (0, 1), BuildingBlock: XUDNAN_clean_linker_2, # of connection points: 2
#     Edge 17, Type (0, 1), BuildingBlock: XUDNAN_clean_linker_2, # of connection points: 2
# Relax obj value: 0.077
# Max RMSD: 0.142
# Mean RMSD: 0.124
data_MOF--net-tsx--node1-VOLQOD_clean_sbu_1--node2-CUQRIR_clean_linker_1--edge1-XUDNAN_clean_linker_2
_symmetry_space_group_name_H-M    P1
_symmetry_Int_Tables_number       1
_symmetry_cell_setting            triclinic
loop_
_symmetry_equiv_pos_as_xyz
'x, y, z'
_cell_length_a     19.317565
_cell_length_b     20.060319
_cell_length_c     35.416908
_cell_angle_alpha  79.754597
_cell_angle_beta   90.098912
_cell_angle_gamma 90.207464
loop_
_atom_site_label
_atom_site_type_symbol
_atom_site_fract_x
_atom_site_fract_y
_atom_site_fract_z
_atom_type_partial_charge
O0 O 0.09603 0.97685 0.09304 0.0
Zn1 Zn 0.11134 0.98555 0.03608 0.0
O2 O 0.0273 0.01962 0.00889 0.0
Zn3 Zn 0.99527 0.95888 0.97553 0.0
Zn4 Zn 0.95272 0.02678 0.04456 0.0
Zn5 Zn 0.04803 0.10802 0.97867 0.0
O6 O 0.99949 0.00416 0.9199 0.0
O7 O 0.05826 0.09886 0.92288 0.0
O8 O 0.14166 0.89609 0.0222 0.0
O9 O 0.05972 0.87936 0.98071 0.0
O10 O 0.90078 0.91843 0.99056 0.0
O11 O 0.88669 0.94769 0.04768 0.0
O12 O 0.89823 0.11375 0.02635 0.0
O13 O 0.18953 0.05321 0.02545 0.0
O14 O 0.9686 0.17198 0.98258 0.0
O15 O 0.13773 0.14681 0.99594 0.0
C16 C 0.04836 0.99743 0.11299 0.0
C17 C 0.03189 0.05701 0.90365 0.0
C18 C 0.86877 0.91316 0.0224 0.0
C19 C 0.11463 0.86051 0.99952 0.0
C20 C 0.91236 0.16673 1.00175 0.0
C21 C 0.19078 0.11655 0.01218 0.0
O22 O 0.99197 0.02225 0.09782 0.0
O23 O 0.60632 0.50334 0.59268 0.0
Zn24 Zn 0.61662 0.5129 0.53499 0.0
O25 O 0.5282 0.53609 0.50938 0.0
Zn26 Zn 0.50327 0.46764 0.47909 0.0
Zn27 Zn 0.45663 0.53792 0.54747 0.0
Zn28 Zn 0.5346 0.62568 0.47646 0.0
O29 O 0.50449 0.50768 0.42272 0.0
O30 O 0.53731 0.61485 0.42037 0.0
O31 O 0.65682 0.42616 0.52246 0.0
O32 O 0.57352 0.3942 0.48618 0.0
O33 O 0.41334 0.41953 0.49611 0.0
O34 O 0.39106 0.46079 0.54895 0.0
O35 O 0.39598 0.61888 0.53239 0.0
O36 O 0.68456 0.58803 0.5194 0.0
O37 O 0.44793 0.68057 0.48193 0.0
O38 O 0.62264 0.6747 0.48873 0.0
C39 C 0.55601 0.51299 0.61431 0.0
C40 C 0.5218 0.5654 0.40367 0.0
C41 C 0.37737 0.42038 0.52612 0.0
C42 C 0.63148 0.38401 0.50317 0.0
C43 C 0.39729 0.66995 0.50532 0.0
C44 C 0.6793 0.65 0.50369 0.0
O45 O 0.49611 0.52955 0.60073 0.0
C46 C 0.97295 0.99907 0.43907 0.0
N47 N 0.01969 0.97951 0.41494 0.0
N48 N 0.9469 0.06033 0.42413 0.0
C49 C 0.94883 0.9563 0.47577 0.0
C50 C 0.9783 0.0769 0.38967 0.0
N51 N 0.02283 0.02759 0.38388 0.0
C52 C 0.95983 0.13772 0.36008 0.0
H53 H 0.99261 0.92762 0.49062 0.0
H54 H 0.91048 0.91907 0.46879 0.0
H55 H 0.92408 0.98728 0.49495 0.0
H56 H 0.99982 0.14792 0.3373 0.0
H57 H 0.95391 0.18302 0.37372 0.0
H58 H 0.90943 0.12829 0.34685 0.0
C59 C 0.06545 0.98723 0.57797 0.0
N60 N 0.08473 0.02398 0.60484 0.0
N61 N 0.02748 0.93296 0.59415 0.0
C62 C 0.0756 0.00825 0.53537 0.0
C63 C 0.02428 0.93771 0.63168 0.0
N64 N 0.05874 0.99355 0.63832 0.0
C65 C 0.99002 0.88556 0.66168 0.0
H66 H 0.02662 0.03032 0.52257 0.0
H67 H 0.08854 0.96348 0.5224 0.0
H68 H 0.1167 0.04673 0.52783 0.0
H69 H 0.99058 0.83512 0.65293 0.0
H70 H 0.93518 0.89993 0.66474 0.0
H71 H 0.01634 0.88197 0.68984 0.0
C72 C 0.47683 0.49139 0.94623 0.0
N73 N 0.52228 0.46944 0.92217 0.0
N74 N 0.42398 0.52518 0.92646 0.0
C75 C 0.48424 0.48043 0.9889 0.0
C76 C 0.43882 0.52334 0.88937 0.0
N77 N 0.49849 0.48908 0.88666 0.0
C78 C 0.39868 0.56103 0.85576 0.0
H79 H 0.43386 0.48585 1.00289 0.0
H80 H 0.52015 0.51928 0.99625 0.0
H81 H 0.50573 0.42942 0.99957 0.0
H82 H 0.3723 0.6058 0.86343 0.0
H83 H 0.35862 0.52683 0.8472 0.0
H84 H 0.43309 0.57815 0.83085 0.0
C85 C 0.56875 0.4673 0.08672 0.0
N86 N 0.57769 0.51714 0.10763 0.0
N87 N 0.51685 0.42504 0.10129 0.0
C88 C 0.61649 0.45601 0.05488 0.0
C89 C 0.49534 0.45006 0.13225 0.0
N90 N 0.53283 0.50551 0.13652 0.0
C91 C 0.43839 0.41929 0.15882 0.0
H92 H 0.62042 0.50209 0.03255 0.0
H93 H 0.60037 0.41231 0.0417 0.0
H94 H 0.6693 0.44612 0.0669 0.0
H95 H 0.45865 0.37368 0.17797 0.0
H96 H 0.39447 0.40288 0.14248 0.0
H97 H 0.41913 0.45562 0.17659 0.0
H98 H 0.20095 0.25309 0.01269 0.0
H99 H 0.32178 0.06826 0.02834 0.0
H100 H 0.42286 0.1304 0.04729 0.0
H101 H 0.34637 0.37392 0.97858 0.0
H102 H 0.31189 0.43587 0.00453 0.0
H103 H 0.25427 0.37886 0.98583 0.0
H104 H 0.204 0.34221 0.05459 0.0
H105 H 0.26358 0.3977 0.07299 0.0
H106 H 0.26157 0.30877 0.09345 0.0
H107 H 0.50752 0.20989 0.07077 0.0
H108 H 0.56812 0.30154 0.09686 0.0
H109 H 0.39095 0.43196 0.0686 0.0
C110 C 0.24924 0.22612 0.01902 0.0
C111 C 0.25354 0.15588 0.01872 0.0
C112 C 0.31724 0.12209 0.02824 0.0
C113 C 0.37507 0.157 0.03892 0.0
C114 C 0.36854 0.22577 0.04001 0.0
C115 C 0.30731 0.26012 0.03012 0.0
C116 C 0.31184 0.33239 0.0371 0.0
C117 C 0.30576 0.38321 0.99924 0.0
C118 C 0.257 0.34601 0.06627 0.0
C119 C 0.3842 0.33255 0.05357 0.0
C120 C 0.41665 0.27105 0.05438 0.0
C121 C 0.48297 0.25857 0.06975 0.0
C122 C 0.5169 0.31043 0.08457 0.0
C123 C 0.48388 0.37313 0.0844 0.0
C124 C 0.41698 0.38423 0.06867 0.0
H125 H 0.2506 0.82205 0.01288 0.0
H126 H 0.05488 0.7565 0.9711 0.0
H127 H 0.11186 0.65609 0.95437 0.0
H128 H 0.35168 0.7806 0.93972 0.0
H129 H 0.42578 0.75153 0.969 0.0
H130 H 0.36842 0.81303 0.98319 0.0
H131 H 0.34949 0.73478 0.04897 0.0
H132 H 0.40711 0.67312 0.03485 0.0
H133 H 0.32042 0.64885 0.05045 0.0
H134 H 0.19079 0.57001 0.93568 0.0
H135 H 0.28842 0.50415 0.91588 0.0
H136 H 0.4333 0.62495 0.96849 0.0
C137 C 0.21946 0.78561 1.00116 0.0
C138 C 0.14819 0.79699 0.99347 0.0
C139 C 0.10953 0.74892 0.97724 0.0
C140 C 0.14134 0.69148 0.96781 0.0
C141 C 0.2119 0.68256 0.97484 0.0
C142 C 0.25061 0.72802 0.99129 0.0
C143 C 0.32679 0.70953 0.99256 0.0
C144 C 0.37072 0.76709 0.96974 0.0
C145 C 0.35244 0.69043 0.03419 0.0
C146 C 0.3249 0.64817 0.97304 0.0
C147 C 0.25795 0.63286 0.96362 0.0
C148 C 0.24334 0.58087 0.94337 0.0
C149 C 0.29874 0.54405 0.9321 0.0
C150 C 0.36755 0.55959 0.94098 0.0
C151 C 0.38074 0.61165 0.9621 0.0
H152 H 0.84972 0.82098 0.08827 0.0
H153 H 0.7633 0.89051 0.97516 0.0
H154 H 0.67221 0.80227 0.9881 0.0
H155 H 0.83031 0.64714 0.08522 0.0
H156 H 0.81029 0.62158 0.13542 0.0
H157 H 0.86257 0.69576 0.11974 0.0
H158 H 0.77719 0.76774 0.15194 0.0
H159 H 0.7245 0.69366 0.16768 0.0
H160 H 0.68662 0.76828 0.13949 0.0
H161 H 0.5926 0.70627 0.01253 0.0
H162 H 0.5377 0.599 0.04339 0.0
H163 H 0.68229 0.58286 0.13806 0.0
C164 C 0.81056 0.81835 0.06665 0.0
C165 C 0.81231 0.86312 0.03098 0.0
C166 C 0.76208 0.85698 1.00274 0.0
C167 C 0.71015 0.80731 0.00994 0.0
C168 C 0.71011 0.76346 0.04525 0.0
C169 C 0.75947 0.76778 0.073 0.0
C170 C 0.75201 0.70982 0.10679 0.0
C171 C 0.8177 0.66599 0.11208 0.0
C172 C 0.73401 0.73649 0.14366 0.0
C173 C 0.69143 0.67168 0.09343 0.0
C174 C 0.66716 0.70465 0.05825 0.0
C175 C 0.61155 0.6798 0.03988 0.0
C176 C 0.58096 0.6189 0.05745 0.0
C177 C 0.60702 0.58247 0.09247 0.0
C178 C 0.66207 0.60977 0.11112 0.0
H179 H 0.77086 0.15711 0.9965 0.0
H180 H 0.93981 0.302 0.98682 0.0
H181 H 0.85693 0.39574 0.96798 0.0
H182 H 0.68265 0.23784 0.91344 0.0
H183 H 0.59672 0.21951 0.93232 0.0
H184 H 0.66733 0.16406 0.94973 0.0
H185 H 0.64118 0.17933 0.01955 0.0
H186 H 0.56988 0.23392 1.00206 0.0
H187 H 0.63685 0.2636 0.03055 0.0
H188 H 0.75596 0.47373 0.95009 0.0
H189 H 0.64467 0.52972 0.92888 0.0
H190 H 0.54293 0.33461 0.94339 0.0
C191 C 0.79 0.20875 0.99123 0.0
C192 C 0.86157 0.2226 0.99373 0.0
C193 C 0.88513 0.29051 0.9854 0.0
C194 C 0.83844 0.34401 0.97476 0.0
C195 C 0.76839 0.32872 0.97192 0.0
C196 C 0.74417 0.26275 0.97964 0.0
C197 C 0.66714 0.25993 0.9713 0.0
C198 C 0.65265 0.21784 0.93982 0.0
C199 C 0.62639 0.23257 0.00807 0.0
C200 C 0.65214 0.33439 0.95729 0.0
C201 C 0.71105 0.37329 0.95863 0.0
C202 C 0.70983 0.44367 0.94833 0.0
C203 C 0.64692 0.475 0.93606 0.0
C204 C 0.58685 0.43598 0.93304 0.0
C205 C 0.58918 0.36494 0.94427 0.0
H206 H 0.68309 0.7733 0.52632 0.0
H207 H 0.81237 0.62179 0.48857 0.0
H208 H 0.91715 0.68387 0.50296 0.0
H209 H 0.79572 0.92165 0.49495 0.0
H210 H 0.78127 0.95794 0.53727 0.0
H211 H 0.7143 0.90857 0.51968 0.0
H212 H 0.70624 0.8277 0.58443 0.0
H213 H 0.7711 0.87675 0.60381 0.0
H214 H 0.78334 0.7871 0.60603 0.0
H215 H 0.00729 0.75456 0.52808 0.0
H216 H 0.07664 0.83247 0.56055 0.0
H217 H 0.88934 0.93411 0.58511 0.0
C218 C 0.7335 0.75485 0.51977 0.0
C219 C 0.74007 0.69375 0.50562 0.0
C220 C 0.80668 0.66917 0.49891 0.0
C221 C 0.86633 0.70398 0.50703 0.0
C222 C 0.85837 0.76281 0.52231 0.0
C223 C 0.79367 0.78833 0.52851 0.0
C224 C 0.79945 0.84842 0.54891 0.0
C225 C 0.77109 0.91297 0.52371 0.0
C226 C 0.76287 0.83408 0.58811 0.0
C227 C 0.87724 0.85196 0.55366 0.0
C228 C 0.91036 0.80246 0.53788 0.0
C229 C 0.98206 0.79405 0.5401 0.0
C230 C 0.02095 0.83795 0.55863 0.0
C231 C 0.98775 0.88867 0.57487 0.0
C232 C 0.91525 0.89558 0.57253 0.0
H233 H 0.77212 0.36861 0.49914 0.0
H234 H 0.57692 0.26215 0.49593 0.0
H235 H 0.63884 0.16295 0.48072 0.0
H236 H 0.84271 0.31662 0.41939 0.0
H237 H 0.93041 0.30753 0.43696 0.0
H238 H 0.87305 0.36625 0.45387 0.0
H239 H 0.89456 0.30741 0.52419 0.0
H240 H 0.95274 0.24889 0.50749 0.0
H241 H 0.88038 0.21742 0.53758 0.0
H242 H 0.71928 0.08005 0.46004 0.0
H243 H 0.81478 0.01921 0.43412 0.0
H244 H 0.95713 0.17979 0.44833 0.0
C245 C 0.74286 0.32358 0.49637 0.0
C246 C 0.66998 0.32251 0.49904 0.0
C247 C 0.6329 0.26367 0.49408 0.0
C248 C 0.66757 0.20705 0.4856 0.0
C249 C 0.73927 0.21028 0.482 0.0
C250 C 0.77669 0.26685 0.4873 0.0
C251 C 0.85255 0.25959 0.47805 0.0
C252 C 0.87601 0.31584 0.44511 0.0
C253 C 0.89771 0.25823 0.51397 0.0
C254 C 0.85134 0.19113 0.4657 0.0
C255 C 0.78568 0.16308 0.46881 0.0
C256 C 0.77104 0.10118 0.45779 0.0
C257 C 0.82507 0.06717 0.44307 0.0
C258 C 0.89221 0.09553 0.43932 0.0
C259 C 0.9057 0.15784 0.45096 0.0
H260 H 0.37649 0.2868 0.51987 0.0
H261 H 0.25338 0.44284 0.55763 0.0
H262 H 0.16348 0.35781 0.58179 0.0
H263 H 0.23408 0.18464 0.49223 0.0
H264 H 0.27641 0.10563 0.51072 0.0
H265 H 0.32728 0.18002 0.49298 0.0
H266 H 0.39206 0.16562 0.55811 0.0
H267 H 0.34077 0.09173 0.57617 0.0
H268 H 0.34315 0.16174 0.60177 0.0
H269 H 0.08783 0.25543 0.60242 0.0
H270 H 0.03309 0.1418 0.61897 0.0
H271 H 0.21115 0.05186 0.57396 0.0
C272 C 0.32977 0.30312 0.5324 0.0
C273 C 0.3209 0.37124 0.53639 0.0
C274 C 0.26044 0.39076 0.55408 0.0
C275 C 0.2093 0.34293 0.56788 0.0
C276 C 0.22021 0.27574 0.56433 0.0
C277 C 0.27903 0.25573 0.54716 0.0
C278 C 0.28034 0.17973 0.54929 0.0
C279 C 0.27946 0.16146 0.5089 0.0
C280 C 0.34279 0.14786 0.57274 0.0
C281 C 0.21306 0.16027 0.57019 0.0
C282 C 0.17871 0.21638 0.57827 0.0
C283 C 0.11438 0.21108 0.59641 0.0
C284 C 0.08391 0.14672 0.6059 0.0
C285 C 0.11827 0.08901 0.59757 0.0
C286 C 0.18416 0.09576 0.58034 0.0
H287 H 0.38191 0.80603 0.47521 0.0
H288 H 0.26684 0.6204 0.51423 0.0
H289 H 0.15824 0.67825 0.49167 0.0
H290 H 0.24744 0.91657 0.50511 0.0
H291 H 0.26443 0.98411 0.46534 0.0
H292 H 0.3331 0.9277 0.48475 0.0
H293 H 0.35483 0.90032 0.41681 0.0
H294 H 0.28486 0.95524 0.39754 0.0
H295 H 0.28472 0.86786 0.3916 0.0
H296 H 0.06343 0.75294 0.46 0.0
H297 H 0.98509 0.84689 0.43254 0.0
H298 H 0.15801 0.98661 0.42108 0.0
C299 C 0.33367 0.77803 0.47937 0.0
C300 C 0.33272 0.70881 0.49641 0.0
C301 C 0.26865 0.67369 0.50158 0.0
C302 C 0.20673 0.70586 0.48853 0.0
C303 C 0.20945 0.77363 0.47111 0.0
C304 C 0.2708 0.81001 0.46756 0.0
C305 C 0.25833 0.88338 0.44961 0.0
C306 C 0.27692 0.93072 0.47789 0.0
C307 C 0.29807 0.9028 0.41164 0.0
C308 C 0.18094 0.88182 0.44276 0.0
C309 C 0.15391 0.81778 0.45485 0.0
C310 C 0.08386 0.8035 0.45076 0.0
C311 C 0.03991 0.85673 0.43498 0.0
C312 C 0.06616 0.92321 0.42411 0.0
C313 C 0.13748 0.93565 0.42784 0.0
H314 H 0.95021 0.99352 0.16891 0.0
H315 H 0.17233 0.99513 0.15072 0.0
H316 H 0.19133 0.99693 0.2196 0.0
H317 H 0.94687 0.1045 0.23537 0.0
H318 H 0.87952 0.05962 0.26473 0.0
H319 H 0.88377 0.05541 0.21446 0.0
H320 H 0.88806 0.92423 0.23093 0.0
H321 H 0.88364 0.92807 0.28131 0.0
H322 H 0.95375 0.88375 0.26323 0.0
H323 H 0.18513 0.01028 0.28954 0.0
H324 H 0.15341 0.026 0.35522 0.0
H325 H 0.93681 0.00527 0.32826 0.0
C326 C 0.00285 0.99378 0.17946 0.0
C327 C 0.05978 0.99445 0.15451 0.0
C328 C 0.12793 0.99432 0.16943 0.0
C329 C 0.13925 0.99546 0.20847 0.0
C330 C 0.08188 0.99546 0.23226 0.0
C331 C 0.01504 0.99366 0.21838 0.0
C332 C 0.96222 0.99453 0.24971 0.0
C333 C 0.91536 0.05725 0.24051 0.0
C334 C 0.91941 0.92872 0.25671 0.0
C335 C 0.00965 0.99879 0.28318 0.0
C336 C 0.07853 0.99949 0.27267 0.0
C337 C 0.13142 0.00816 0.29832 0.0
C338 C 0.11317 0.01656 0.3356 0.0
C339 C 0.04293 0.01529 0.34669 0.0
C340 C 0.99091 0.00551 0.32028 0.0
H341 H 0.94332 0.02999 0.84795 0.0
H342 H 0.15066 0.10157 0.86604 0.0
H343 H 0.17885 0.10055 0.798 0.0
H344 H 0.98403 0.91898 0.78696 0.0
H345 H 0.91071 0.93815 0.75542 0.0
H346 H 0.90486 0.94963 0.80455 0.0
H347 H 0.87019 0.07522 0.78237 0.0
H348 H 0.875 0.06389 0.73308 0.0
H349 H 0.92471 0.12998 0.74894 0.0
H350 H 0.18926 0.07356 0.73115 0.0
H351 H 0.17616 0.03764 0.66818 0.0
H352 H 0.9577 0.00083 0.6907 0.0
C353 C 0.99413 0.04677 0.83729 0.0
C354 C 0.04492 0.06583 0.86204 0.0
C355 C 0.11092 0.08741 0.84731 0.0
C356 C 0.12745 0.08672 0.80881 0.0
C357 C 0.07668 0.06616 0.78527 0.0
C358 C 0.01076 0.04836 0.79868 0.0
C359 C 0.96589 0.02764 0.76762 0.0
C360 C 0.93987 0.95425 0.77936 0.0
C361 C 0.90537 0.07715 0.75739 0.0
C362 C 0.01763 0.03382 0.73514 0.0
C363 C 0.0814 0.05563 0.74591 0.0
C364 C 0.13903 0.0584 0.722 0.0
C365 C 0.13112 0.0382 0.68625 0.0
C366 C 0.0659 0.01675 0.67449 0.0
C367 C 0.00835 0.01615 0.69906 0.0
H368 H 0.46324 0.46265 0.67004 0.0
H369 H 0.67251 0.54079 0.65294 0.0
H370 H 0.68726 0.52936 0.72336 0.0
H371 H 0.41796 0.54243 0.74595 0.0
H372 H 0.36894 0.47219 0.77164 0.0
H373 H 0.3776 0.48246 0.7204 0.0
H374 H 0.42746 0.3609 0.72763 0.0
H375 H 0.41941 0.3506 0.77905 0.0
H376 H 0.502 0.33807 0.75781 0.0
H377 H 0.67111 0.52616 0.79475 0.0
H378 H 0.6278 0.52538 0.86039 0.0
H379 H 0.43639 0.43345 0.83194 0.0
C380 C 0.51239 0.47674 0.68118 0.0
C381 C 0.56661 0.5031 0.65623 0.0
C382 C 0.63042 0.52043 0.67172 0.0
C383 C 0.63924 0.51397 0.71161 0.0
C384 C 0.58443 0.48823 0.7355 0.0
C385 C 0.52266 0.46883 0.72081 0.0
C386 C 0.47105 0.44445 0.75237 0.0
C387 C 0.40503 0.48799 0.74727 0.0
C388 C 0.454 0.36901 0.75432 0.0
C389 C 0.51228 0.45573 0.78704 0.0
C390 C 0.57756 0.48109 0.77684 0.0
C391 C 0.62119 0.50391 0.80334 0.0
C392 C 0.59665 0.50243 0.84082 0.0
C393 C 0.52973 0.47723 0.85154 0.0
C394 C 0.48839 0.45142 0.82457 0.0
H395 H 0.54385 0.46644 0.36157 0.0
H396 H 0.511 0.68284 0.35013 0.0
H397 H 0.51629 0.69404 0.27925 0.0
H398 H 0.6664 0.47659 0.2833 0.0
H399 H 0.6346 0.40004 0.26921 0.0
H400 H 0.62916 0.41039 0.31861 0.0
H401 H 0.4968 0.38824 0.318 0.0
H402 H 0.50187 0.37777 0.26868 0.0
H403 H 0.44368 0.43941 0.28225 0.0
H404 H 0.51677 0.67811 0.20827 0.0
H405 H 0.51694 0.63671 0.14598 0.0
H406 H 0.55967 0.43391 0.20615 0.0
C407 C 0.53774 0.51629 0.34422 0.0
C408 C 0.52637 0.57369 0.36132 0.0
C409 C 0.51969 0.63814 0.33758 0.0
C410 C 0.52262 0.64495 0.29733 0.0
C411 C 0.53359 0.58701 0.2814 0.0
C412 C 0.54184 0.52409 0.30432 0.0
C413 C 0.55318 0.46944 0.28068 0.0
C414 C 0.62512 0.43725 0.28841 0.0
C415 C 0.49544 0.41557 0.28783 0.0
C416 C 0.54861 0.51089 0.24077 0.0
C417 C 0.53707 0.57862 0.24143 0.0
C418 C 0.52677 0.62532 0.20754 0.0
C419 C 0.52721 0.60167 0.17234 0.0
C420 C 0.53833 0.53229 0.17156 0.0
C421 C 0.55081 0.48716 0.20616 0.0
loop_
_geom_bond_atom_site_label_1
_geom_bond_atom_site_label_2
_geom_bond_distance
_geom_bond_site_symmetry_2
_ccdc_geom_bond_type
O0 Zn1 1.953 . S
O0 C16 1.225 . S
Zn1 O0 1.953 . S
Zn1 O2 1.949 1_565 S
Zn1 O8 1.919 . S
Zn1 O13 1.924 1_565 S
O2 Zn1 1.949 1_545 S
O2 Zn3 1.923 1_544 S
O2 Zn4 1.950 1_455 S
O2 Zn5 1.945 1_554 S
Zn3 O2 1.923 1_566 S
Zn3 O6 1.933 . S
Zn3 O9 1.941 . S
Zn3 O10 1.965 1_455 S
Zn4 O2 1.950 1_655 S
Zn4 O11 1.938 1_545 S
Zn4 O12 1.906 . S
Zn4 O22 1.953 . S
Zn5 O2 1.945 1_556 S
Zn5 O7 1.932 . S
Zn5 O14 1.977 1_455 S
Zn5 O15 1.910 . S
O6 Zn3 1.933 . S
O6 C17 1.226 1_565 S
O7 Zn5 1.932 . S
O7 C17 1.307 . S
O8 Zn1 1.919 . S
O8 C19 1.253 . S
O9 Zn3 1.941 . S
O9 C19 1.283 1_556 S
O10 Zn3 1.965 1_655 S
O10 C18 1.303 1_556 S
O11 Zn4 1.938 1_565 S
O11 C18 1.247 . S
O12 Zn4 1.906 . S
O12 C20 1.304 1_554 S
O13 Zn1 1.924 1_545 S
O13 C21 1.311 . S
O14 Zn5 1.977 1_655 S
O14 C20 1.272 . S
O15 Zn5 1.910 . S
O15 C21 1.231 1_556 S
C16 O0 1.225 . S
C16 O22 1.298 1_465 S
C17 O6 1.226 1_545 S
C17 O7 1.307 . S
C18 O10 1.303 1_554 S
C18 O11 1.247 . S
C19 O8 1.253 . S
C19 O9 1.283 1_554 S
C20 O12 1.304 1_556 S
C20 O14 1.272 . S
C21 O13 1.311 . S
C21 O15 1.231 1_554 S
O22 Zn4 1.953 . S
O22 C16 1.298 1_645 S
O23 Zn24 1.953 . S
O23 C39 1.225 . S
Zn24 O23 1.953 . S
Zn24 O25 1.949 . S
Zn24 O31 1.919 . S
Zn24 O36 1.924 . S
O25 Zn24 1.949 . S
O25 Zn26 1.923 . S
O25 Zn27 1.950 . S
O25 Zn28 1.945 . S
Zn26 O25 1.923 . S
Zn26 O29 1.933 . S
Zn26 O32 1.941 . S
Zn26 O33 1.965 . S
Zn27 O25 1.950 . S
Zn27 O34 1.938 . S
Zn27 O35 1.906 . S
Zn27 O45 1.953 . S
Zn28 O25 1.945 . S
Zn28 O30 1.932 . S
Zn28 O37 1.977 . S
Zn28 O38 1.910 . S
O29 Zn26 1.933 . S
O29 C40 1.226 . S
O30 Zn28 1.932 . S
O30 C40 1.307 . S
O31 Zn24 1.919 . S
O31 C42 1.253 . S
O32 Zn26 1.941 . S
O32 C42 1.283 . S
O33 Zn26 1.965 . S
O33 C41 1.303 . S
O34 Zn27 1.938 . S
O34 C41 1.247 . S
O35 Zn27 1.906 . S
O35 C43 1.304 . S
O36 Zn24 1.924 . S
O36 C44 1.311 . S
O37 Zn28 1.977 . S
O37 C43 1.272 . S
O38 Zn28 1.910 . S
O38 C44 1.231 . S
C39 O23 1.225 . S
C39 O45 1.298 . S
C40 O29 1.226 . S
C40 O30 1.307 . S
C41 O33 1.303 . S
C41 O34 1.247 . S
C42 O31 1.253 . S
C42 O32 1.283 . S
C43 O35 1.304 . S
C43 O37 1.272 . S
C44 O36 1.311 . S
C44 O38 1.231 . S
O45 Zn27 1.953 . S
O45 C39 1.298 . S
C46 N47 1.317 1_545 S
C46 N48 1.348 1_455 S
C46 C49 1.485 1_545 S
N47 C46 1.317 1_565 S
N47 N51 1.370 1_565 S
N48 C46 1.348 1_655 S
N48 C50 1.346 . S
C49 C46 1.485 1_565 S
C49 H53 0.960 1_455 S
C49 H54 0.961 1_565 S
C49 H55 0.960 . S
C50 N48 1.346 . S
C50 N51 1.307 1_655 S
C50 C52 1.486 . S
N51 N47 1.370 1_545 S
N51 C50 1.307 1_455 S
C52 C50 1.486 . S
C52 H56 0.960 . S
C52 H57 0.960 . S
C52 H58 0.959 . S
H53 C49 0.960 1_655 S
H54 C49 0.961 1_545 S
H55 C49 0.960 . S
H56 C52 0.960 . S
H57 C52 0.960 . S
H58 C52 0.959 . S
C59 N60 1.317 . S
C59 N61 1.348 1_445 S
C59 C62 1.485 . S
N60 C59 1.317 . S
N60 N64 1.370 . S
N61 C59 1.348 1_665 S
N61 C63 1.346 . S
C62 C59 1.485 . S
C62 H66 0.960 . S
C62 H67 0.961 1_545 S
C62 H68 0.960 . S
C63 N61 1.346 . S
C63 N64 1.307 1_665 S
C63 C65 1.486 . S
N64 N60 1.370 . S
N64 C63 1.307 1_445 S
C65 C63 1.486 . S
C65 H69 0.960 . S
C65 H70 0.960 . S
C65 H71 0.959 . S
H66 C62 0.960 . S
H67 C62 0.961 1_565 S
H68 C62 0.960 . S
H69 C65 0.960 . S
H70 C65 0.960 . S
H71 C65 0.959 . S
C72 N73 1.317 . S
C72 N74 1.348 . S
C72 C75 1.485 . S
N73 C72 1.317 . S
N73 N77 1.370 . S
N74 C72 1.348 . S
N74 C76 1.346 . S
C75 C72 1.485 . S
C75 H79 0.960 . S
C75 H80 0.961 . S
C75 H81 0.960 . S
C76 N74 1.346 . S
C76 N77 1.307 . S
C76 C78 1.486 . S
N77 N73 1.370 . S
N77 C76 1.307 . S
C78 C76 1.486 . S
C78 H82 0.960 . S
C78 H83 0.960 . S
C78 H84 0.959 . S
H79 C75 0.960 . S
H80 C75 0.961 . S
H81 C75 0.960 . S
H82 C78 0.960 . S
H83 C78 0.960 . S
H84 C78 0.959 . S
C85 N86 1.317 . S
C85 N87 1.348 . S
C85 C88 1.485 . S
N86 C85 1.317 . S
N86 N90 1.370 . S
N87 C85 1.348 . S
N87 C89 1.346 . S
C88 C85 1.485 . S
C88 H92 0.960 . S
C88 H93 0.961 . S
C88 H94 0.960 . S
C89 N87 1.346 . S
C89 N90 1.307 . S
C89 C91 1.486 . S
N90 N86 1.370 . S
N90 C89 1.307 . S
C91 C89 1.486 . S
C91 H95 0.960 . S
C91 H96 0.960 . S
C91 H97 0.959 . S
H92 C88 0.960 . S
H93 C88 0.961 . S
H94 C88 0.960 . S
H95 C91 0.960 . S
H96 C91 0.960 . S
H97 C91 0.959 . S
H98 C110 0.930 1_556 S
H99 C112 0.930 . S
H100 C113 0.930 . S
H101 C117 0.959 . S
H102 C117 0.959 . S
H103 C117 0.961 . S
H104 C118 0.960 . S
H105 C118 0.961 . S
H106 C118 0.959 1_554 S
H107 C121 0.929 . S
H108 C122 0.931 . S
H109 C124 0.930 . S
C110 H98 0.930 1_554 S
C110 C111 1.399 . S
C110 C115 1.399 . S
C111 C110 1.399 . S
C111 C112 1.376 . S
C112 H99 0.930 . S
C112 C111 1.376 . S
C112 C113 1.388 . S
C113 H100 0.930 . S
C113 C112 1.388 . S
C113 C114 1.390 . S
C114 C113 1.390 . S
C114 C115 1.394 . S
C114 C120 1.465 . S
C115 C110 1.399 . S
C115 C114 1.394 . S
C115 C116 1.516 . S
C116 C115 1.516 . S
C116 C117 1.502 1_554 S
C116 C118 1.561 1_554 S
C116 C119 1.526 . S
C117 H101 0.959 . S
C117 H102 0.959 . S
C117 H103 0.961 . S
C117 C116 1.502 1_556 S
C118 H104 0.960 . S
C118 H105 0.961 . S
C118 H106 0.959 1_556 S
C118 C116 1.561 1_556 S
C119 C116 1.526 . S
C119 C120 1.396 . S
C119 C124 1.390 . S
C120 C114 1.465 . S
C120 C119 1.396 . S
C120 C121 1.399 . S
C121 H107 0.929 . S
C121 C120 1.399 . S
C121 C122 1.385 . S
C122 H108 0.931 . S
C122 C121 1.385 . S
C122 C123 1.389 . S
C123 C122 1.389 . S
C123 C124 1.387 . S
C124 H109 0.930 . S
C124 C119 1.390 . S
C124 C123 1.387 . S
H125 C137 0.930 . S
H126 C139 0.930 . S
H127 C140 0.930 . S
H128 C144 0.959 1_556 S
H129 C144 0.959 . S
H130 C144 0.961 . S
H131 C145 0.960 . S
H132 C145 0.961 . S
H133 C145 0.959 . S
H134 C148 0.929 . S
H135 C149 0.931 . S
H136 C151 0.930 . S
C137 H125 0.930 . S
C137 C138 1.399 1_554 S
C137 C142 1.399 1_554 S
C138 C137 1.399 1_556 S
C138 C139 1.376 . S
C139 H126 0.930 . S
C139 C138 1.376 . S
C139 C140 1.388 . S
C140 H127 0.930 . S
C140 C139 1.388 . S
C140 C141 1.390 . S
C141 C140 1.390 . S
C141 C142 1.394 . S
C141 C147 1.465 . S
C142 C137 1.399 1_556 S
C142 C141 1.394 . S
C142 C143 1.516 1_556 S
C143 C142 1.516 1_554 S
C143 C144 1.502 . S
C143 C145 1.561 . S
C143 C146 1.526 1_554 S
C144 H128 0.959 1_554 S
C144 H129 0.959 . S
C144 H130 0.961 . S
C144 C143 1.502 . S
C145 H131 0.960 . S
C145 H132 0.961 . S
C145 H133 0.959 . S
C145 C143 1.561 . S
C146 C143 1.526 1_556 S
C146 C147 1.396 . S
C146 C151 1.390 . S
C147 C141 1.465 . S
C147 C146 1.396 . S
C147 C148 1.399 . S
C148 H134 0.929 . S
C148 C147 1.399 . S
C148 C149 1.385 . S
C149 H135 0.931 . S
C149 C148 1.385 . S
C149 C150 1.389 . S
C150 C149 1.389 . S
C150 C151 1.387 . S
C151 H136 0.930 . S
C151 C146 1.390 . S
C151 C150 1.387 . S
H152 C164 0.930 . S
H153 C166 0.930 1_556 S
H154 C167 0.930 1_556 S
H155 C171 0.959 . S
H156 C171 0.959 . S
H157 C171 0.961 . S
H158 C172 0.960 . S
H159 C172 0.961 . S
H160 C172 0.959 . S
H161 C175 0.929 . S
H162 C176 0.931 . S
H163 C178 0.930 . S
C164 H152 0.930 . S
C164 C165 1.399 . S
C164 C169 1.399 . S
C165 C164 1.399 . S
C165 C166 1.376 . S
C166 H153 0.930 1_554 S
C166 C165 1.376 . S
C166 C167 1.388 . S
C167 H154 0.930 1_554 S
C167 C166 1.388 . S
C167 C168 1.390 . S
C168 C167 1.390 . S
C168 C169 1.394 . S
C168 C174 1.465 . S
C169 C164 1.399 . S
C169 C168 1.394 . S
C169 C170 1.516 . S
C170 C169 1.516 . S
C170 C171 1.502 . S
C170 C172 1.561 . S
C170 C173 1.526 . S
C171 H155 0.959 . S
C171 H156 0.959 . S
C171 H157 0.961 . S
C171 C170 1.502 . S
C172 H158 0.960 . S
C172 H159 0.961 . S
C172 H160 0.959 . S
C172 C170 1.561 . S
C173 C170 1.526 . S
C173 C174 1.396 . S
C173 C178 1.390 . S
C174 C168 1.465 . S
C174 C173 1.396 . S
C174 C175 1.399 . S
C175 H161 0.929 . S
C175 C174 1.399 . S
C175 C176 1.385 . S
C176 H162 0.931 . S
C176 C175 1.385 . S
C176 C177 1.389 . S
C177 C176 1.389 . S
C177 C178 1.387 . S
C178 H163 0.930 . S
C178 C173 1.390 . S
C178 C177 1.387 . S
H179 C191 0.930 1_554 S
H180 C193 0.930 . S
H181 C194 0.930 . S
H182 C198 0.959 1_556 S
H183 C198 0.959 . S
H184 C198 0.961 . S
H185 C199 0.960 . S
H186 C199 0.961 . S
H187 C199 0.959 . S
H188 C202 0.929 . S
H189 C203 0.931 . S
H190 C205 0.930 . S
C191 H179 0.930 1_556 S
C191 C192 1.399 . S
C191 C196 1.399 . S
C192 C191 1.399 . S
C192 C193 1.376 . S
C193 H180 0.930 . S
C193 C192 1.376 . S
C193 C194 1.388 . S
C194 H181 0.930 . S
C194 C193 1.388 . S
C194 C195 1.390 . S
C195 C194 1.390 . S
C195 C196 1.394 . S
C195 C201 1.465 . S
C196 C191 1.399 . S
C196 C195 1.394 . S
C196 C197 1.516 . S
C197 C196 1.516 . S
C197 C198 1.502 1_556 S
C197 C199 1.561 1_556 S
C197 C200 1.526 . S
C198 H182 0.959 1_554 S
C198 H183 0.959 . S
C198 H184 0.961 . S
C198 C197 1.502 1_554 S
C199 H185 0.960 . S
C199 H186 0.961 . S
C199 H187 0.959 . S
C199 C197 1.561 1_554 S
C200 C197 1.526 . S
C200 C201 1.396 . S
C200 C205 1.390 . S
C201 C195 1.465 . S
C201 C200 1.396 . S
C201 C202 1.399 . S
C202 H188 0.929 . S
C202 C201 1.399 . S
C202 C203 1.385 . S
C203 H189 0.931 . S
C203 C202 1.385 . S
C203 C204 1.389 . S
C204 C203 1.389 . S
C204 C205 1.387 . S
C205 H190 0.930 . S
C205 C200 1.390 . S
C205 C204 1.387 . S
H206 C218 0.930 . S
H207 C220 0.930 . S
H208 C221 0.930 . S
H209 C225 0.959 . S
H210 C225 0.959 . S
H211 C225 0.961 . S
H212 C226 0.960 . S
H213 C226 0.961 . S
H214 C226 0.959 . S
H215 C229 0.929 . S
H216 C230 0.931 1_455 S
H217 C232 0.930 . S
C218 H206 0.930 . S
C218 C219 1.399 . S
C218 C223 1.399 . S
C219 C218 1.399 . S
C219 C220 1.376 . S
C220 H207 0.930 . S
C220 C219 1.376 . S
C220 C221 1.388 . S
C221 H208 0.930 . S
C221 C220 1.388 . S
C221 C222 1.390 . S
C222 C221 1.390 . S
C222 C223 1.394 . S
C222 C228 1.465 . S
C223 C218 1.399 . S
C223 C222 1.394 . S
C223 C224 1.516 . S
C224 C223 1.516 . S
C224 C225 1.502 . S
C224 C226 1.561 . S
C224 C227 1.526 . S
C225 H209 0.959 . S
C225 H210 0.959 . S
C225 H211 0.961 . S
C225 C224 1.502 . S
C226 H212 0.960 . S
C226 H213 0.961 . S
C226 H214 0.959 . S
C226 C224 1.561 . S
C227 C224 1.526 . S
C227 C228 1.396 . S
C227 C232 1.390 . S
C228 C222 1.465 . S
C228 C227 1.396 . S
C228 C229 1.399 . S
C229 H215 0.929 . S
C229 C228 1.399 . S
C229 C230 1.385 . S
C230 H216 0.931 1_655 S
C230 C229 1.385 . S
C230 C231 1.389 . S
C231 C230 1.389 . S
C231 C232 1.387 . S
C232 H217 0.930 . S
C232 C227 1.390 . S
C232 C231 1.387 . S
H233 C245 0.930 . S
H234 C247 0.930 . S
H235 C248 0.930 . S
H236 C252 0.959 . S
H237 C252 0.959 . S
H238 C252 0.961 . S
H239 C253 0.960 . S
H240 C253 0.961 . S
H241 C253 0.959 . S
H242 C256 0.929 . S
H243 C257 0.931 . S
H244 C259 0.930 . S
C245 H233 0.930 . S
C245 C246 1.399 . S
C245 C250 1.399 . S
C246 C245 1.399 . S
C246 C247 1.376 . S
C247 H234 0.930 . S
C247 C246 1.376 . S
C247 C248 1.388 . S
C248 H235 0.930 . S
C248 C247 1.388 . S
C248 C249 1.390 . S
C249 C248 1.390 . S
C249 C250 1.394 . S
C249 C255 1.465 . S
C250 C245 1.399 . S
C250 C249 1.394 . S
C250 C251 1.516 . S
C251 C250 1.516 . S
C251 C252 1.502 . S
C251 C253 1.561 . S
C251 C254 1.526 . S
C252 H236 0.959 . S
C252 H237 0.959 . S
C252 H238 0.961 . S
C252 C251 1.502 . S
C253 H239 0.960 . S
C253 H240 0.961 . S
C253 H241 0.959 . S
C253 C251 1.561 . S
C254 C251 1.526 . S
C254 C255 1.396 . S
C254 C259 1.390 . S
C255 C249 1.465 . S
C255 C254 1.396 . S
C255 C256 1.399 . S
C256 H242 0.929 . S
C256 C255 1.399 . S
C256 C257 1.385 . S
C257 H243 0.931 . S
C257 C256 1.385 . S
C257 C258 1.389 . S
C258 C257 1.389 . S
C258 C259 1.387 . S
C259 H244 0.930 . S
C259 C254 1.390 . S
C259 C258 1.387 . S
H260 C272 0.930 . S
H261 C274 0.930 . S
H262 C275 0.930 . S
H263 C279 0.959 . S
H264 C279 0.959 . S
H265 C279 0.961 . S
H266 C280 0.960 . S
H267 C280 0.961 . S
H268 C280 0.959 . S
H269 C283 0.929 . S
H270 C284 0.931 . S
H271 C286 0.930 . S
C272 H260 0.930 . S
C272 C273 1.399 . S
C272 C277 1.399 . S
C273 C272 1.399 . S
C273 C274 1.376 . S
C274 H261 0.930 . S
C274 C273 1.376 . S
C274 C275 1.388 . S
C275 H262 0.930 . S
C275 C274 1.388 . S
C275 C276 1.390 . S
C276 C275 1.390 . S
C276 C277 1.394 . S
C276 C282 1.465 . S
C277 C272 1.399 . S
C277 C276 1.394 . S
C277 C278 1.516 . S
C278 C277 1.516 . S
C278 C279 1.502 . S
C278 C280 1.561 . S
C278 C281 1.526 . S
C279 H263 0.959 . S
C279 H264 0.959 . S
C279 H265 0.961 . S
C279 C278 1.502 . S
C280 H266 0.960 . S
C280 H267 0.961 . S
C280 H268 0.959 . S
C280 C278 1.561 . S
C281 C278 1.526 . S
C281 C282 1.396 . S
C281 C286 1.390 . S
C282 C276 1.465 . S
C282 C281 1.396 . S
C282 C283 1.399 . S
C283 H269 0.929 . S
C283 C282 1.399 . S
C283 C284 1.385 . S
C284 H270 0.931 . S
C284 C283 1.385 . S
C284 C285 1.389 . S
C285 C284 1.389 . S
C285 C286 1.387 . S
C286 H271 0.930 . S
C286 C281 1.390 . S
C286 C285 1.387 . S
H287 C299 0.930 . S
H288 C301 0.930 . S
H289 C302 0.930 . S
H290 C306 0.959 . S
H291 C306 0.959 . S
H292 C306 0.961 . S
H293 C307 0.960 . S
H294 C307 0.961 . S
H295 C307 0.959 . S
H296 C310 0.929 . S
H297 C311 0.931 . S
H298 C313 0.930 . S
C299 H287 0.930 . S
C299 C300 1.399 . S
C299 C304 1.399 . S
C300 C299 1.399 . S
C300 C301 1.376 . S
C301 H288 0.930 . S
C301 C300 1.376 . S
C301 C302 1.388 . S
C302 H289 0.930 . S
C302 C301 1.388 . S
C302 C303 1.390 . S
C303 C302 1.390 . S
C303 C304 1.394 . S
C303 C309 1.465 . S
C304 C299 1.399 . S
C304 C303 1.394 . S
C304 C305 1.516 . S
C305 C304 1.516 . S
C305 C306 1.502 . S
C305 C307 1.561 . S
C305 C308 1.526 . S
C306 H290 0.959 . S
C306 H291 0.959 . S
C306 H292 0.961 . S
C306 C305 1.502 . S
C307 H293 0.960 . S
C307 H294 0.961 . S
C307 H295 0.959 . S
C307 C305 1.561 . S
C308 C305 1.526 . S
C308 C309 1.396 . S
C308 C313 1.390 . S
C309 C303 1.465 . S
C309 C308 1.396 . S
C309 C310 1.399 . S
C310 H296 0.929 . S
C310 C309 1.399 . S
C310 C311 1.385 . S
C311 H297 0.931 . S
C311 C310 1.385 . S
C311 C312 1.389 . S
C312 C311 1.389 . S
C312 C313 1.387 . S
C313 H298 0.930 . S
C313 C308 1.390 . S
C313 C312 1.387 . S
H314 C326 0.930 1_655 S
H315 C328 0.930 . S
H316 C329 0.930 . S
H317 C333 0.959 . S
H318 C333 0.959 . S
H319 C333 0.961 . S
H320 C334 0.960 . S
H321 C334 0.961 . S
H322 C334 0.959 . S
H323 C337 0.929 . S
H324 C338 0.931 . S
H325 C340 0.930 . S
C326 H314 0.930 1_455 S
C326 C327 1.399 . S
C326 C331 1.399 . S
C327 C326 1.399 . S
C327 C328 1.376 1_565 S
C328 H315 0.930 . S
C328 C327 1.376 1_545 S
C328 C329 1.388 . S
C329 H316 0.930 . S
C329 C328 1.388 . S
C329 C330 1.390 . S
C330 C329 1.390 . S
C330 C331 1.394 1_545 S
C330 C336 1.465 . S
C331 C326 1.399 . S
C331 C330 1.394 1_565 S
C331 C332 1.516 1_455 S
C332 C331 1.516 1_655 S
C332 C333 1.502 . S
C332 C334 1.561 1_655 S
C332 C335 1.526 1_655 S
C333 H317 0.959 . S
C333 H318 0.959 . S
C333 H319 0.961 . S
C333 C332 1.502 . S
C334 H320 0.960 . S
C334 H321 0.961 . S
C334 H322 0.959 . S
C334 C332 1.561 1_455 S
C335 C332 1.526 1_455 S
C335 C336 1.396 1_565 S
C335 C340 1.390 1_455 S
C336 C330 1.465 . S
C336 C335 1.396 1_545 S
C336 C337 1.399 . S
C337 H323 0.929 . S
C337 C336 1.399 . S
C337 C338 1.385 . S
C338 H324 0.931 . S
C338 C337 1.385 . S
C338 C339 1.389 . S
C339 C338 1.389 . S
C339 C340 1.387 1_445 S
C340 H325 0.930 . S
C340 C335 1.390 1_655 S
C340 C339 1.387 1_665 S
H341 C353 0.930 1_655 S
H342 C355 0.930 . S
H343 C356 0.930 . S
H344 C360 0.959 . S
H345 C360 0.959 . S
H346 C360 0.961 . S
H347 C361 0.961 . S
H348 C361 0.961 1_655 S
H349 C361 0.959 . S
H350 C364 0.929 . S
H351 C365 0.931 . S
H352 C367 0.930 1_655 S
C353 H341 0.930 1_455 S
C353 C354 1.399 . S
C353 C358 1.399 . S
C354 C353 1.399 . S
C354 C355 1.376 1_545 S
C355 H342 0.930 . S
C355 C354 1.376 1_565 S
C355 C356 1.388 . S
C356 H343 0.930 . S
C356 C355 1.388 . S
C356 C357 1.390 1_565 S
C357 C356 1.390 1_545 S
C357 C358 1.394 . S
C357 C363 1.465 . S
C358 C353 1.399 . S
C358 C357 1.394 . S
C358 C359 1.516 1_455 S
C359 C358 1.516 1_655 S
C359 C360 1.502 . S
C359 C361 1.561 1_655 S
C359 C362 1.526 1_655 S
C360 H344 0.959 . S
C360 H345 0.959 . S
C360 H346 0.961 . S
C360 C359 1.502 . S
C361 H347 0.961 . S
C361 H348 0.961 1_455 S
C361 H349 0.959 . S
C361 C359 1.561 1_455 S
C362 C359 1.526 1_455 S
C362 C363 1.396 . S
C362 C367 1.390 . S
C363 C357 1.465 . S
C363 C362 1.396 . S
C363 C364 1.399 1_545 S
C364 H350 0.929 . S
C364 C363 1.399 1_565 S
C364 C365 1.385 . S
C365 H351 0.931 . S
C365 C364 1.385 . S
C365 C366 1.389 1_565 S
C366 C365 1.389 1_545 S
C366 C367 1.387 . S
C367 H352 0.930 1_455 S
C367 C362 1.390 . S
C367 C366 1.387 . S
H368 C380 0.930 . S
H369 C382 0.930 . S
H370 C383 0.930 . S
H371 C387 0.959 . S
H372 C387 0.959 . S
H373 C387 0.961 . S
H374 C388 0.960 . S
H375 C388 0.961 . S
H376 C388 0.959 . S
H377 C391 0.929 . S
H378 C392 0.931 . S
H379 C394 0.930 . S
C380 H368 0.930 . S
C380 C381 1.399 . S
C380 C385 1.399 . S
C381 C380 1.399 . S
C381 C382 1.376 . S
C382 H369 0.930 . S
C382 C381 1.376 . S
C382 C383 1.388 . S
C383 H370 0.930 . S
C383 C382 1.388 . S
C383 C384 1.390 . S
C384 C383 1.390 . S
C384 C385 1.394 . S
C384 C390 1.465 . S
C385 C380 1.399 . S
C385 C384 1.394 . S
C385 C386 1.516 . S
C386 C385 1.516 . S
C386 C387 1.502 . S
C386 C388 1.561 . S
C386 C389 1.526 . S
C387 H371 0.959 . S
C387 H372 0.959 . S
C387 H373 0.961 . S
C387 C386 1.502 . S
C388 H374 0.960 . S
C388 H375 0.961 . S
C388 H376 0.959 . S
C388 C386 1.561 . S
C389 C386 1.526 . S
C389 C390 1.396 . S
C389 C394 1.390 . S
C390 C384 1.465 . S
C390 C389 1.396 . S
C390 C391 1.399 . S
C391 H377 0.929 . S
C391 C390 1.399 . S
C391 C392 1.385 . S
C392 H378 0.931 . S
C392 C391 1.385 . S
C392 C393 1.389 . S
C393 C392 1.389 . S
C393 C394 1.387 . S
C394 H379 0.930 . S
C394 C389 1.390 . S
C394 C393 1.387 . S
H395 C407 0.930 . S
H396 C409 0.930 . S
H397 C410 0.930 . S
H398 C414 0.959 . S
H399 C414 0.959 . S
H400 C414 0.961 . S
H401 C415 0.960 . S
H402 C415 0.961 . S
H403 C415 0.959 . S
H404 C418 0.929 . S
H405 C419 0.931 . S
H406 C421 0.930 . S
C407 H395 0.930 . S
C407 C408 1.399 . S
C407 C412 1.399 . S
C408 C407 1.399 . S
C408 C409 1.376 . S
C409 H396 0.930 . S
C409 C408 1.376 . S
C409 C410 1.388 . S
C410 H397 0.930 . S
C410 C409 1.388 . S
C410 C411 1.390 . S
C411 C410 1.390 . S
C411 C412 1.394 . S
C411 C417 1.465 . S
C412 C407 1.399 . S
C412 C411 1.394 . S
C412 C413 1.516 . S
C413 C412 1.516 . S
C413 C414 1.502 . S
C413 C415 1.561 . S
C413 C416 1.526 . S
C414 H398 0.959 . S
C414 H399 0.959 . S
C414 H400 0.961 . S
C414 C413 1.502 . S
C415 H401 0.960 . S
C415 H402 0.961 . S
C415 H403 0.959 . S
C415 C413 1.561 . S
C416 C413 1.526 . S
C416 C417 1.396 . S
C416 C421 1.390 . S
C417 C411 1.465 . S
C417 C416 1.396 . S
C417 C418 1.399 . S
C418 H404 0.929 . S
C418 C417 1.399 . S
C418 C419 1.385 . S
C419 H405 0.931 . S
C419 C418 1.385 . S
C419 C420 1.389 . S
C420 C419 1.389 . S
C420 C421 1.387 . S
C421 H406 0.930 . S
C421 C416 1.390 . S
C421 C420 1.387 . S
C123 N87 1.376 . S
C111 C21 1.405 . S
C138 C19 1.384 1_556 S
C150 N74 1.384 . S
C165 C18 1.445 . S
C177 N86 1.501 . S
C192 C20 1.508 . S
C204 N73 1.509 . S
C219 C44 1.384 . S
C231 N61 1.396 . S
C246 C42 1.377 . S
C258 N48 1.410 . S
C285 N60 1.499 . S
C273 C41 1.447 . S
C312 N47 1.512 . S
C300 C43 1.503 . S
C327 C16 1.520 . S
C339 N51 1.501 . S
C354 C17 1.494 . S
C366 N64 1.477 . S
C393 N77 1.498 . S
C381 C39 1.519 . S
C408 C40 1.490 . S
C420 N90 1.483 . S
