# Generated by pormake.
# Topology eea, (3,6)-cn, num edge types: 1
# Building blocks:
#     Node 0, Type 0, BuildingBlock: QEWDON_clean_linker_0, # of connection points: 3
#     Node 1, Type 0, BuildingBlock: QEWDON_clean_linker_0, # of connection points: 3
#     Node 2, Type 0, BuildingBlock: QEWDON_clean_linker_0, # of connection points: 3
#     Node 3, Type 0, BuildingBlock: QEWDON_clean_linker_0, # of connection points: 3
#     Node 4, Type 0, BuildingBlock: QEWDON_clean_linker_0, # of connection points: 3
#     Node 5, Type 0, BuildingBlock: QEWDON_clean_linker_0, # of connection points: 3
#     Node 6, Type 0, BuildingBlock: QEWDON_clean_linker_0, # of connection points: 3
#     Node 7, Type 0, BuildingBlock: QEWDON_clean_linker_0, # of connection points: 3
#     Node 8, Type 0, BuildingBlock: QEWDON_clean_linker_0, # of connection points: 3
#     Node 9, Type 0, BuildingBlock: QEWDON_clean_linker_0, # of connection points: 3
#     Node 10, Type 0, BuildingBlock: QEWDON_clean_linker_0, # of connection points: 3
#     Node 11, Type 0, BuildingBlock: QEWDON_clean_linker_0, # of connection points: 3
#     Node 12, Type 0, BuildingBlock: QEWDON_clean_linker_0, # of connection points: 3
#     Node 13, Type 0, BuildingBlock: QEWDON_clean_linker_0, # of connection points: 3
#     Node 14, Type 0, BuildingBlock: QEWDON_clean_linker_0, # of connection points: 3
#     Node 15, Type 0, BuildingBlock: QEWDON_clean_linker_0, # of connection points: 3
#     Node 16, Type 0, BuildingBlock: QEWDON_clean_linker_0, # of connection points: 3
#     Node 17, Type 0, BuildingBlock: QEWDON_clean_linker_0, # of connection points: 3
#     Node 18, Type 1, BuildingBlock: KUMBOL_clean_sbu_0, # of connection points: 6
#     Node 19, Type 1, BuildingBlock: KUMBOL_clean_sbu_0, # of connection points: 6
#     Node 20, Type 1, BuildingBlock: KUMBOL_clean_sbu_0, # of connection points: 6
#     Node 21, Type 1, BuildingBlock: KUMBOL_clean_sbu_0, # of connection points: 6
#     Node 22, Type 1, BuildingBlock: KUMBOL_clean_sbu_0, # of connection points: 6
#     Node 23, Type 1, BuildingBlock: KUMBOL_clean_sbu_0, # of connection points: 6
#     Node 24, Type 1, BuildingBlock: KUMBOL_clean_sbu_0, # of connection points: 6
#     Node 25, Type 1, BuildingBlock: KUMBOL_clean_sbu_0, # of connection points: 6
#     Node 26, Type 1, BuildingBlock: KUMBOL_clean_sbu_0, # of connection points: 6
#     Edge 27, Type (0, 1), BuildingBlock: AJUNOK_clean_linker_0, # of connection points: 2
#     Edge 28, Type (0, 1), BuildingBlock: AJUNOK_clean_linker_0, # of connection points: 2
#     Edge 29, Type (0, 1), BuildingBlock: AJUNOK_clean_linker_0, # of connection points: 2
#     Edge 30, Type (0, 1), BuildingBlock: AJUNOK_clean_linker_0, # of connection points: 2
#     Edge 31, Type (0, 1), BuildingBlock: AJUNOK_clean_linker_0, # of connection points: 2
#     Edge 32, Type (0, 1), BuildingBlock: AJUNOK_clean_linker_0, # of connection points: 2
#     Edge 33, Type (0, 1), BuildingBlock: AJUNOK_clean_linker_0, # of connection points: 2
#     Edge 34, Type (0, 1), BuildingBlock: AJUNOK_clean_linker_0, # of connection points: 2
#     Edge 35, Type (0, 1), BuildingBlock: AJUNOK_clean_linker_0, # of connection points: 2
#     Edge 36, Type (0, 1), BuildingBlock: AJUNOK_clean_linker_0, # of connection points: 2
#     Edge 37, Type (0, 1), BuildingBlock: AJUNOK_clean_linker_0, # of connection points: 2
#     Edge 38, Type (0, 1), BuildingBlock: AJUNOK_clean_linker_0, # of connection points: 2
#     Edge 39, Type (0, 1), BuildingBlock: AJUNOK_clean_linker_0, # of connection points: 2
#     Edge 40, Type (0, 1), BuildingBlock: AJUNOK_clean_linker_0, # of connection points: 2
#     Edge 41, Type (0, 1), BuildingBlock: AJUNOK_clean_linker_0, # of connection points: 2
#     Edge 42, Type (0, 1), BuildingBlock: AJUNOK_clean_linker_0, # of connection points: 2
#     Edge 43, Type (0, 1), BuildingBlock: AJUNOK_clean_linker_0, # of connection points: 2
#     Edge 44, Type (0, 1), BuildingBlock: AJUNOK_clean_linker_0, # of connection points: 2
#     Edge 45, Type (0, 1), BuildingBlock: AJUNOK_clean_linker_0, # of connection points: 2
#     Edge 46, Type (0, 1), BuildingBlock: AJUNOK_clean_linker_0, # of connection points: 2
#     Edge 47, Type (0, 1), BuildingBlock: AJUNOK_clean_linker_0, # of connection points: 2
#     Edge 48, Type (0, 1), BuildingBlock: AJUNOK_clean_linker_0, # of connection points: 2
#     Edge 49, Type (0, 1), BuildingBlock: AJUNOK_clean_linker_0, # of connection points: 2
#     Edge 50, Type (0, 1), BuildingBlock: AJUNOK_clean_linker_0, # of connection points: 2
#     Edge 51, Type (0, 1), BuildingBlock: AJUNOK_clean_linker_0, # of connection points: 2
#     Edge 52, Type (0, 1), BuildingBlock: AJUNOK_clean_linker_0, # of connection points: 2
#     Edge 53, Type (0, 1), BuildingBlock: AJUNOK_clean_linker_0, # of connection points: 2
#     Edge 54, Type (0, 1), BuildingBlock: AJUNOK_clean_linker_0, # of connection points: 2
#     Edge 55, Type (0, 1), BuildingBlock: AJUNOK_clean_linker_0, # of connection points: 2
#     Edge 56, Type (0, 1), BuildingBlock: AJUNOK_clean_linker_0, # of connection points: 2
#     Edge 57, Type (0, 1), BuildingBlock: AJUNOK_clean_linker_0, # of connection points: 2
#     Edge 58, Type (0, 1), BuildingBlock: AJUNOK_clean_linker_0, # of connection points: 2
#     Edge 59, Type (0, 1), BuildingBlock: AJUNOK_clean_linker_0, # of connection points: 2
#     Edge 60, Type (0, 1), BuildingBlock: AJUNOK_clean_linker_0, # of connection points: 2
#     Edge 61, Type (0, 1), BuildingBlock: AJUNOK_clean_linker_0, # of connection points: 2
#     Edge 62, Type (0, 1), BuildingBlock: AJUNOK_clean_linker_0, # of connection points: 2
#     Edge 63, Type (0, 1), BuildingBlock: AJUNOK_clean_linker_0, # of connection points: 2
#     Edge 64, Type (0, 1), BuildingBlock: AJUNOK_clean_linker_0, # of connection points: 2
#     Edge 65, Type (0, 1), BuildingBlock: AJUNOK_clean_linker_0, # of connection points: 2
#     Edge 66, Type (0, 1), BuildingBlock: AJUNOK_clean_linker_0, # of connection points: 2
#     Edge 67, Type (0, 1), BuildingBlock: AJUNOK_clean_linker_0, # of connection points: 2
#     Edge 68, Type (0, 1), BuildingBlock: AJUNOK_clean_linker_0, # of connection points: 2
#     Edge 69, Type (0, 1), BuildingBlock: AJUNOK_clean_linker_0, # of connection points: 2
#     Edge 70, Type (0, 1), BuildingBlock: AJUNOK_clean_linker_0, # of connection points: 2
#     Edge 71, Type (0, 1), BuildingBlock: AJUNOK_clean_linker_0, # of connection points: 2
#     Edge 72, Type (0, 1), BuildingBlock: AJUNOK_clean_linker_0, # of connection points: 2
#     Edge 73, Type (0, 1), BuildingBlock: AJUNOK_clean_linker_0, # of connection points: 2
#     Edge 74, Type (0, 1), BuildingBlock: AJUNOK_clean_linker_0, # of connection points: 2
#     Edge 75, Type (0, 1), BuildingBlock: AJUNOK_clean_linker_0, # of connection points: 2
#     Edge 76, Type (0, 1), BuildingBlock: AJUNOK_clean_linker_0, # of connection points: 2
#     Edge 77, Type (0, 1), BuildingBlock: AJUNOK_clean_linker_0, # of connection points: 2
#     Edge 78, Type (0, 1), BuildingBlock: AJUNOK_clean_linker_0, # of connection points: 2
#     Edge 79, Type (0, 1), BuildingBlock: AJUNOK_clean_linker_0, # of connection points: 2
#     Edge 80, Type (0, 1), BuildingBlock: AJUNOK_clean_linker_0, # of connection points: 2
# Relax obj value: 0.046
# Max RMSD: 0.223
# Mean RMSD: 0.159
data_MOF--net-eea--node1-KUMBOL_clean_sbu_0--node2-QEWDON_clean_linker_0--edge1-AJUNOK_clean_linker_0
_symmetry_space_group_name_H-M    P1
_symmetry_Int_Tables_number       1
_symmetry_cell_setting            triclinic
loop_
_symmetry_equiv_pos_as_xyz
'x, y, z'
_cell_length_a     42.621311
_cell_length_b     44.065347
_cell_length_c     50.487368
_cell_angle_alpha  89.905751
_cell_angle_beta   90.223685
_cell_angle_gamma 119.99133
loop_
_atom_site_label
_atom_site_type_symbol
_atom_site_fract_x
_atom_site_fract_y
_atom_site_fract_z
_atom_type_partial_charge
H0 H 0.23912 0.13495 0.43207 0.0
C1 C 0.2374 0.11227 0.42232 0.0
C2 C 0.25856 0.09813 0.43167 0.0
C3 C 0.21289 0.09637 0.40117 0.0
H4 H 0.26918 0.05528 0.42746 0.0
C5 C 0.25475 0.06776 0.41959 0.0
C6 C 0.23131 0.05231 0.39801 0.0
C7 C 0.21079 0.06688 0.38866 0.0
C8 C 0.1869 0.1082 0.3939 0.0
H9 H 0.19196 0.05425 0.37242 0.0
C10 C 0.19811 0.14407 0.39139 0.0
C11 C 0.1726 0.15457 0.38585 0.0
C12 C 0.15 0.08322 0.3905 0.0
H13 H 0.14045 0.0555 0.39274 0.0
C14 C 0.12479 0.09373 0.38488 0.0
H15 H 0.22642 0.16371 0.39381 0.0
C16 C 0.13595 0.12922 0.38265 0.0
H17 H 0.11602 0.13696 0.37829 0.0
H18 H 0.09646 0.0743 0.38243 0.0
H19 H 0.89296 0.09992 0.42801 0.0
C20 C 0.91566 0.12242 0.41892 0.0
C21 C 0.93003 0.15546 0.4311 0.0
C22 C 0.93086 0.1181 0.39552 0.0
H23 H 0.97151 0.20981 0.42925 0.0
C24 C 0.95984 0.18456 0.41948 0.0
C25 C 0.97561 0.1812 0.39603 0.0
C26 C 0.9605 0.14794 0.384 0.0
C27 C 0.91793 0.08215 0.38446 0.0
H28 H 0.97193 0.14531 0.36561 0.0
C29 C 0.88093 0.05536 0.38517 0.0
C30 C 0.8703 0.02106 0.37641 0.0
C31 C 0.94353 0.07387 0.37441 0.0
H32 H 0.97211 0.09318 0.3741 0.0
C33 C 0.93291 0.0402 0.36541 0.0
H34 H 0.86058 0.06092 0.39272 0.0
C35 C 0.8967 0.01398 0.3665 0.0
H36 H 0.8892 0.98797 0.35951 0.0
H37 H 0.95299 0.03429 0.35784 0.0
H38 H 0.91987 0.78382 0.43217 0.0
C39 C 0.89823 0.78496 0.42167 0.0
C40 C 0.863 0.76729 0.43212 0.0
C41 C 0.90659 0.80718 0.3996 0.0
H42 H 0.8082 0.75639 0.42732 0.0
C43 C 0.83531 0.77008 0.41915 0.0
C44 C 0.8422 0.79096 0.39633 0.0
C45 C 0.87836 0.8103 0.38711 0.0
C46 C 0.94555 0.83339 0.39474 0.0
H47 H 0.88471 0.82825 0.37066 0.0
C48 C 0.97191 0.82431 0.38671 0.0
C49 C 1.0096 0.84989 0.38692 0.0
C50 C 0.95719 0.86791 0.40257 0.0
H51 H 0.93783 0.87544 0.40908 0.0
C52 C 0.99387 0.89237 0.40429 0.0
H53 H 0.96309 0.79773 0.38047 0.0
C54 C 0.01965 0.88325 0.3974 0.0
H55 H 0.04776 0.90263 0.40077 0.0
H56 H 1.00245 0.9184 0.41173 0.0
H57 H 0.14634 0.22962 0.61036 0.0
C58 C 0.12229 0.22781 0.61902 0.0
C59 C 0.10491 0.24358 0.60561 0.0
C60 C 0.10881 0.21002 0.64335 0.0
H61 H 0.05811 0.25019 0.60492 0.0
C62 C 0.07253 0.23983 0.61598 0.0
C63 C 0.05829 0.22279 0.6402 0.0
C64 C 0.07726 0.209 0.65401 0.0
C65 C 0.12616 0.19125 0.65725 0.0
H66 H 0.06731 0.19794 0.67337 0.0
C67 C 0.16298 0.19941 0.65334 0.0
C68 C 0.17684 0.17977 0.66644 0.0
C69 C 0.1045 0.16312 0.67438 0.0
H70 H 0.07601 0.1539 0.67709 0.0
C71 C 0.11861 0.14527 0.68812 0.0
H72 H 0.18059 0.22026 0.64007 0.0
C73 C 0.15424 0.1536 0.68438 0.0
H74 H 0.16395 0.13866 0.69517 0.0
H75 H 0.10145 0.12419 0.70144 0.0
H76 H 0.80027 0.9191 0.60085 0.0
C77 C 0.79984 0.89699 0.61063 0.0
C78 C 0.77785 0.86299 0.60047 0.0
C79 C 0.82288 0.90283 0.63239 0.0
H80 H 0.76267 0.80852 0.60451 0.0
C81 C 0.77928 0.8348 0.61228 0.0
C82 C 0.80181 0.84018 0.6342 0.0
C83 C 0.8233 0.87415 0.64427 0.0
C84 C 0.84866 0.93907 0.64136 0.0
H85 H 0.84116 0.87835 0.66092 0.0
C86 C 0.83747 0.964 0.64481 0.0
C87 C 0.86271 0.99855 0.65228 0.0
C88 C 0.88523 0.94918 0.64573 0.0
H89 H 0.89471 0.93073 0.64289 0.0
C90 C 0.9102 0.98345 0.65314 0.0
H91 H 0.80938 0.95665 0.64165 0.0
C92 C 0.89909 0.00808 0.65629 0.0
H93 H 0.91886 0.0346 0.66204 0.0
H94 H 0.93831 0.99099 0.65629 0.0
H95 H 0.0987 0.8743 0.60814 0.0
C96 C 0.12239 0.89645 0.61668 0.0
C97 C 0.15462 0.91329 0.60171 0.0
C98 C 0.12051 0.90889 0.64203 0.0
H99 H 0.20796 0.95834 0.5992 0.0
C100 C 0.18442 0.94418 0.61164 0.0
C101 C 0.18405 0.95669 0.63722 0.0
C102 C 0.15244 0.9377 0.65249 0.0
C103 C 0.08537 0.89391 0.65729 0.0
H104 H 0.15268 0.94584 0.67271 0.0
C105 C 0.05655 0.85859 0.65469 0.0
C106 C 0.02412 0.84606 0.66969 0.0
C107 C 0.08021 0.91623 0.6745 0.0
H108 H 0.10001 0.9438 0.67618 0.0
C109 C 0.04911 0.90385 0.6897 0.0
H110 H 0.05912 0.84119 0.64095 0.0
C111 C 0.02164 0.86924 0.68757 0.0
H112 H 0.99801 0.86081 0.6999 0.0
H113 H 0.04611 0.92139 0.70309 0.0
H114 H 0.89854 0.46382 0.76698 0.0
C115 C 0.89647 0.44102 0.75724 0.0
C116 C 0.91362 0.42364 0.76822 0.0
C117 C 0.87593 0.42856 0.73385 0.0
H118 H 0.9207 0.37872 0.76489 0.0
C119 C 0.90953 0.39342 0.75558 0.0
C120 C 0.89074 0.38164 0.73144 0.0
C121 C 0.87515 0.40032 0.72036 0.0
C122 C 0.85209 0.4422 0.72474 0.0
H123 H 0.86174 0.39273 0.70129 0.0
C124 C 0.86404 0.47838 0.72399 0.0
C125 C 0.84014 0.48995 0.71586 0.0
C126 C 0.81608 0.41814 0.71742 0.0
H127 H 0.80587 0.39018 0.71826 0.0
C128 C 0.79254 0.42975 0.70944 0.0
H129 H 0.89165 0.49735 0.72943 0.0
C130 C 0.80446 0.46546 0.70865 0.0
H131 H 0.78584 0.47407 0.70231 0.0
H132 H 0.76493 0.41099 0.70392 0.0
H133 H 0.55031 0.44392 0.75165 0.0
C134 C 0.57609 0.46524 0.74503 0.0
C135 C 0.59595 0.4941 0.76195 0.0
C136 C 0.58763 0.46478 0.71905 0.0
H137 H 0.64359 0.54544 0.76498 0.0
C138 C 0.62876 0.52232 0.75277 0.0
C139 C 0.6419 0.52197 0.7273 0.0
C140 C 0.6214 0.49296 0.71066 0.0
C141 C 0.5619 0.43757 0.69991 0.0
H142 H 0.63103 0.49319 0.69079 0.0
C143 C 0.53742 0.40254 0.70781 0.0
C144 C 0.51076 0.37874 0.69007 0.0
C145 C 0.55936 0.44765 0.67385 0.0
H146 H 0.57678 0.47428 0.66715 0.0
C147 C 0.53331 0.42395 0.6563 0.0
H148 H 0.53903 0.39374 0.72755 0.0
C149 C 0.5091 0.38983 0.66434 0.0
H150 H 0.48923 0.3718 0.65029 0.0
H151 H 0.53167 0.43221 0.63638 0.0
H152 H 0.58448 0.11093 0.76322 0.0
C153 C 0.56283 0.11269 0.75332 0.0
C154 C 0.52753 0.09458 0.76386 0.0
C155 C 0.57104 0.1356 0.73167 0.0
H156 H 0.47247 0.08384 0.75936 0.0
C157 C 0.49972 0.09793 0.75144 0.0
C158 C 0.50693 0.12032 0.72961 0.0
C159 C 0.54279 0.13932 0.72002 0.0
C160 C 0.60987 0.1605 0.72478 0.0
H161 H 0.54888 0.1576 0.70384 0.0
C162 C 0.63557 0.14962 0.71923 0.0
C163 C 0.6729 0.1748 0.7151 0.0
C164 C 0.62182 0.19647 0.72585 0.0
H165 H 0.6031 0.20563 0.73035 0.0
C166 C 0.65816 0.22113 0.72239 0.0
H167 H 0.62622 0.1219 0.71772 0.0
C168 C 0.68338 0.21057 0.71749 0.0
H169 H 0.71148 0.23089 0.71588 0.0
H170 H 0.66701 0.24876 0.72396 0.0
H171 H 0.81551 0.56091 0.93818 0.0
C172 C 0.79187 0.55966 0.94723 0.0
C173 C 0.78012 0.58268 0.93873 0.0
C174 C 0.77146 0.53266 0.96527 0.0
H175 H 0.74253 0.60031 0.94531 0.0
C176 C 0.74871 0.57994 0.95001 0.0
C177 C 0.7251 0.55114 0.96605 0.0
C178 C 0.73741 0.52782 0.97394 0.0
C179 C 0.78241 0.50558 0.96992 0.0
H180 H 0.72021 0.50522 0.98599 0.0
C181 C 0.81823 0.51417 0.97776 0.0
C182 C 0.82884 0.48816 0.97796 0.0
C183 C 0.75772 0.47096 0.96262 0.0
H184 H 0.73057 0.46368 0.95616 0.0
C185 C 0.7684 0.44592 0.9615 0.0
H186 H 0.83748 0.54078 0.98362 0.0
C187 C 0.80358 0.45456 0.96832 0.0
H188 H 0.81098 0.43458 0.96567 0.0
H189 H 0.74947 0.41972 0.95461 0.0
H190 H 0.46702 0.24998 0.9356 0.0
C191 C 0.46591 0.22717 0.94469 0.0
C192 C 0.44388 0.19388 0.9334 0.0
C193 C 0.48818 0.23153 0.96666 0.0
H194 H 0.42782 0.13907 0.93565 0.0
C195 C 0.44458 0.16482 0.94426 0.0
C196 C 0.46689 0.16869 0.96605 0.0
C197 C 0.48805 0.20196 0.97743 0.0
C198 C 0.51397 0.26726 0.97681 0.0
H199 H 0.50543 0.20499 0.99414 0.0
C200 C 0.50352 0.29283 0.97996 0.0
C201 C 0.52898 0.32698 0.98823 0.0
C202 C 0.55003 0.2764 0.98239 0.0
H203 H 0.55911 0.25762 0.97975 0.0
C204 C 0.57514 0.31019 0.99071 0.0
H205 H 0.47587 0.28634 0.97584 0.0
C206 C 0.56478 0.33541 0.99349 0.0
H207 H 0.58471 0.36157 0.99988 0.0
H208 H 0.60283 0.31694 0.99479 0.0
H209 H 0.76098 0.19944 0.94312 0.0
C210 C 0.78481 0.22066 0.95236 0.0
C211 C 0.81706 0.23879 0.93754 0.0
C212 C 0.78311 0.23083 0.97858 0.0
H213 H 0.87041 0.28385 0.93637 0.0
C214 C 0.84699 0.26853 0.94867 0.0
C215 C 0.84688 0.27835 0.9752 0.0
C216 C 0.81522 0.25806 0.9901 0.0
C217 C 0.74795 0.21564 0.9937 0.0
H218 H 0.81534 0.26403 0.01088 0.0
C219 C 0.71885 0.18066 0.99036 0.0
C220 C 0.68638 0.16806 1.00526 0.0
C221 C 0.74313 0.23755 0.01158 0.0
H222 H 0.76338 0.2649 0.0139 0.0
C223 C 0.71188 0.22503 0.02662 0.0
H224 H 0.72126 0.16358 0.97616 0.0
C225 C 0.68402 0.19071 0.02371 0.0
H226 H 0.66019 0.18204 0.03587 0.0
H227 H 0.70908 0.24224 0.0405 0.0
H228 H 0.56969 0.79563 0.10143 0.0
C229 C 0.56773 0.77309 0.0913 0.0
C230 C 0.58668 0.75684 0.10112 0.0
C231 C 0.54526 0.75958 0.06892 0.0
H232 H 0.59342 0.7117 0.09766 0.0
C233 C 0.58162 0.72608 0.08876 0.0
C234 C 0.56068 0.71314 0.06555 0.0
C235 C 0.54382 0.73113 0.05531 0.0
C236 C 0.51968 0.77188 0.0615 0.0
H237 H 0.52863 0.72269 0.03697 0.0
C238 C 0.53077 0.80778 0.0593 0.0
C239 C 0.50516 0.81814 0.05328 0.0
C240 C 0.48293 0.7468 0.05754 0.0
H241 H 0.47353 0.71907 0.05948 0.0
C242 C 0.45769 0.75714 0.05167 0.0
H243 H 0.55897 0.82744 0.06221 0.0
C244 C 0.46866 0.79256 0.04962 0.0
H245 H 0.44864 0.80007 0.04486 0.0
H246 H 0.42949 0.7376 0.04878 0.0
H247 H 0.2088 0.77018 0.08458 0.0
C248 C 0.23493 0.79078 0.0778 0.0
C249 C 0.25572 0.8199 0.09433 0.0
C250 C 0.24646 0.78907 0.05202 0.0
H251 H 0.3041 0.87085 0.09651 0.0
C252 C 0.28875 0.84739 0.08473 0.0
C253 C 0.30166 0.84573 0.05951 0.0
C254 C 0.28069 0.81628 0.04347 0.0
C255 C 0.22105 0.76141 0.03303 0.0
H256 H 0.29041 0.81544 0.02384 0.0
C257 C 0.19633 0.72652 0.04111 0.0
C258 C 0.17189 0.70179 0.02267 0.0
C259 C 0.22013 0.77073 1.00644 0.0
H260 H 0.23754 0.79729 0.99958 0.0
C261 C 0.19605 0.74629 0.98834 0.0
H262 H 0.1965 0.71841 0.06135 0.0
C263 C 0.17221 0.7121 0.99633 0.0
H264 H 0.15386 0.6935 0.98183 0.0
H265 H 0.19575 0.75395 0.968 0.0
H266 H 0.25301 0.44467 0.09592 0.0
C267 C 0.23082 0.44578 0.0863 0.0
C268 C 0.1963 0.42868 0.09801 0.0
C269 C 0.23767 0.46691 0.06372 0.0
H270 H 0.14139 0.41816 0.09529 0.0
C271 C 0.1679 0.43142 0.08614 0.0
C272 C 0.17336 0.45168 0.06317 0.0
C273 C 0.20859 0.46947 0.05214 0.0
C274 C 0.27616 0.49147 0.05575 0.0
H275 H 0.21368 0.48576 0.0348 0.0
C276 C 0.30225 0.48064 0.05163 0.0
C277 C 0.33954 0.50583 0.04732 0.0
C278 C 0.28765 0.52735 0.05504 0.0
H279 H 0.26868 0.53652 0.05845 0.0
C280 C 0.32394 0.55205 0.0515 0.0
H281 H 0.29321 0.45293 0.05144 0.0
C282 C 0.34954 0.5416 0.04819 0.0
H283 H 0.37757 0.56209 0.0466 0.0
H284 H 0.33246 0.57968 0.05184 0.0
H285 H 0.47416 0.88481 0.27666 0.0
C286 C 0.45169 0.88587 0.28555 0.0
C287 C 0.43549 0.9023 0.27147 0.0
C288 C 0.43844 0.86999 0.31046 0.0
H289 H 0.39146 0.91326 0.2712 0.0
C290 C 0.40443 0.90129 0.28208 0.0
C291 C 0.39009 0.88544 0.30671 0.0
C292 C 0.40768 0.87059 0.32087 0.0
C293 C 0.45532 0.85149 0.32515 0.0
H294 H 0.39736 0.86005 0.3403 0.0
C295 C 0.49216 0.8597 0.32173 0.0
C296 C 0.5059 0.84046 0.33544 0.0
C297 C 0.43346 0.82389 0.34258 0.0
H298 H 0.40498 0.81499 0.34508 0.0
C299 C 0.44742 0.80629 0.35686 0.0
H300 H 0.5099 0.88034 0.30834 0.0
C301 C 0.48311 0.81453 0.35346 0.0
H302 H 0.49275 0.7998 0.36461 0.0
H303 H 0.43013 0.7855 0.37035 0.0
H304 H 0.1354 0.5864 0.26932 0.0
C305 C 0.13459 0.56392 0.27874 0.0
C306 C 0.11275 0.53038 0.26783 0.0
C307 C 0.15672 0.56895 0.30093 0.0
H308 H 0.0974 0.4758 0.27066 0.0
C309 C 0.11404 0.50176 0.27896 0.0
C310 C 0.13666 0.50629 0.30072 0.0
C311 C 0.15725 0.53979 0.31195 0.0
C312 C 0.181 0.60498 0.3114 0.0
H313 H 0.17447 0.54323 0.32886 0.0
C314 C 0.16936 0.62988 0.31288 0.0
C315 C 0.19322 0.66419 0.3217 0.0
C316 C 0.21669 0.61509 0.31911 0.0
H317 H 0.22681 0.59698 0.31773 0.0
C318 C 0.24018 0.64905 0.32804 0.0
H319 H 0.14195 0.62273 0.30725 0.0
C320 C 0.22859 0.67352 0.32928 0.0
H321 H 0.24725 0.69982 0.33617 0.0
H322 H 0.26759 0.65653 0.33382 0.0
H323 H 0.42969 0.53877 0.27458 0.0
C324 C 0.45335 0.56096 0.28313 0.0
C325 C 0.48473 0.5795 0.26748 0.0
C326 C 0.45229 0.57199 0.30922 0.0
H327 H 0.53782 0.62489 0.26508 0.0
C328 C 0.51477 0.6098 0.27778 0.0
C329 C 0.51534 0.62055 0.30406 0.0
C330 C 0.48444 0.60044 0.31974 0.0
C331 C 0.41771 0.55631 0.32519 0.0
H332 H 0.48538 0.60748 0.34036 0.0
C333 C 0.3889 0.52105 0.32232 0.0
C334 C 0.35695 0.50807 0.33792 0.0
C335 C 0.41302 0.57801 0.34339 0.0
H336 H 0.43283 0.60554 0.34538 0.0
C337 C 0.38241 0.56508 0.35919 0.0
H338 H 0.39105 0.50403 0.30793 0.0
C339 C 0.3549 0.53054 0.3567 0.0
H340 H 0.33153 0.52156 0.36941 0.0
H341 H 0.37978 0.58215 0.37329 0.0
Gd342 Gd 0.50549 0.01588 0.05202 0.0
Gd343 Gd 0.48774 0.98303 0.98255 0.0
C344 C 0.37885 0.88436 0.967 0.0
C345 C 0.39724 0.84221 0.95483 0.0
C346 C 0.44256 0.90243 0.96501 0.0
C347 C 0.41559 0.91026 0.97005 0.0
C348 C 0.43377 0.86868 0.95638 0.0
C349 C 0.36981 0.85003 0.96021 0.0
C350 C 0.35243 0.89407 0.96996 0.0
C351 C 0.36305 0.92914 0.9746 0.0
N352 N 0.42535 0.94374 0.97633 0.0
C353 C 0.39987 0.95388 0.97734 0.0
H354 H 0.40762 0.9808 0.98117 0.0
C355 C 0.5047 0.9241 0.95676 0.0
N356 N 0.47747 0.92869 0.96649 0.0
C357 C 0.49741 0.89106 0.94808 0.0
C358 C 0.46186 0.86301 0.94845 0.0
H359 H 0.53222 0.94583 0.95655 0.0
H360 H 0.34173 0.82965 0.95815 0.0
H361 H 0.58473 0.01602 0.05453 0.0
H362 H 0.3239 0.87495 0.96788 0.0
H363 H 0.34289 0.93712 0.97626 0.0
H364 H 0.38993 0.81595 0.94862 0.0
H365 H 0.4609 0.05439 0.07483 0.0
H366 H 0.66868 0.11884 0.07558 0.0
H367 H 0.64891 0.05743 0.0637 0.0
H368 H 0.6042 0.17951 0.09403 0.0
H369 H 0.51917 0.88726 0.94108 0.0
H370 H 0.45625 0.83748 0.94161 0.0
H371 H 0.65176 0.16434 0.08664 0.0
H372 H 0.47427 0.11224 0.09204 0.0
N373 N 0.56773 0.05349 0.06059 0.0
C374 C 0.6403 0.1007 0.0716 0.0
C375 C 0.62922 0.06605 0.065 0.0
C376 C 0.61443 0.11122 0.07387 0.0
C377 C 0.57787 0.08662 0.06831 0.0
C378 C 0.59261 0.04256 0.0598 0.0
N379 N 0.51625 0.06998 0.06878 0.0
C380 C 0.55125 0.09521 0.07244 0.0
C381 C 0.49619 0.10789 0.08644 0.0
C382 C 0.53211 0.13486 0.08885 0.0
C383 C 0.48872 0.07522 0.07675 0.0
C384 C 0.56021 0.12848 0.08238 0.0
H385 H 0.53785 0.16006 0.09655 0.0
O386 O 0.471 0.99856 0.08699 0.0
O387 O 0.46697 0.97434 0.02427 0.0
O388 O 0.47105 0.02414 0.98939 0.0
O389 O 0.49953 0.05603 0.02781 0.0
O390 O 0.4455 0.99526 0.05028 0.0
O391 O 0.51861 0.99328 0.08575 0.0
O392 O 0.5203 1.00106 0.94667 0.0
O393 O 0.5255 0.02331 0.01065 0.0
O394 O 0.52247 0.97495 0.04584 0.0
O395 O 0.49969 0.94611 1.00525 0.0
O396 O 0.54911 0.00843 0.98198 0.0
O397 O 0.46976 1.00105 0.94872 0.0
C398 C 0.43755 0.97138 0.0326 0.0
C399 C 0.59672 0.15368 0.08665 0.0
C400 C 0.62379 0.14502 0.08247 0.0
C401 C 0.49141 0.98942 0.10002 0.0
C402 C 0.4994 1.00098 0.12798 0.0
C403 C 0.52104 0.03669 0.13385 0.0
C404 C 0.4855 0.97646 0.149 0.0
C405 C 0.49354 0.98777 0.17567 0.0
C406 C 0.52841 0.04805 0.16006 0.0
C407 C 0.5147 0.02393 0.18078 0.0
C408 C 0.48251 0.05205 1.00491 0.0
C409 C 0.55573 0.02937 1.00171 0.0
C410 C 0.49722 0.0069 0.93392 0.0
C411 C 0.48898 0.99435 0.90625 0.0
C412 C 0.46963 0.95835 0.90079 0.0
C413 C 0.5005 0.01846 0.88504 0.0
C414 C 0.49287 0.00657 0.85852 0.0
C415 C 0.46225 0.94645 0.87468 0.0
C416 C 0.47382 0.97027 0.85371 0.0
C417 C 0.51556 0.94976 0.02852 0.0
H418 H 0.53218 0.05586 0.1182 0.0
H419 H 0.46895 0.94877 0.14461 0.0
H420 H 0.54482 0.07575 0.16435 0.0
H421 H 0.52047 0.03366 0.20093 0.0
H422 H 0.46018 0.93942 0.91668 0.0
H423 H 0.51562 0.04632 0.88915 0.0
H424 H 0.44733 0.91859 0.87068 0.0
H425 H 0.46733 0.96029 0.83364 0.0
Gd426 Gd 0.99527 0.48169 0.05328 0.0
Gd427 Gd 0.02652 0.48932 0.98508 0.0
C428 C 0.13669 0.50027 0.96736 0.0
C429 C 0.1714 0.5606 0.95224 0.0
C430 C 0.10818 0.53587 0.96451 0.0
C431 C 0.10626 0.50445 0.97087 0.0
C432 C 0.14049 0.56405 0.95452 0.0
C433 C 0.16952 0.52878 0.95868 0.0
C434 C 0.1329 0.46726 0.97187 0.0
C435 C 0.09903 0.43917 0.97861 0.0
N436 N 0.074 0.47733 0.97891 0.0
C437 C 0.0696 0.44461 0.9817 0.0
H438 H 0.04372 0.42281 0.98724 0.0
C439 C 0.07701 0.56715 0.95779 0.0
N440 N 0.07773 0.53825 0.96689 0.0
C441 C 0.10849 0.59587 0.94789 0.0
C442 C 0.14049 0.59449 0.94656 0.0
H443 H 0.05243 0.56846 0.95892 0.0
H444 H 0.19331 0.52619 0.95617 0.0
H445 H 0.98587 0.55266 0.04502 0.0
H446 H 0.15566 0.46298 0.96949 0.0
H447 H 0.0956 0.41336 0.98161 0.0
H448 H 0.19663 0.58209 0.9449 0.0
H449 H 0.96219 0.40316 0.08158 0.0
H450 H 0.87913 0.52643 0.06863 0.0
H451 H 0.9394 0.56941 0.05112 0.0
H452 H 0.82869 0.40903 0.10119 0.0
H453 H 0.10807 0.61906 0.94136 0.0
H454 H 0.16481 0.61676 0.93884 0.0
H455 H 0.83794 0.46645 0.08716 0.0
H456 H 0.90552 0.35826 0.10262 0.0
N457 N 0.95236 0.5002 0.05832 0.0
C458 C 0.89951 0.51886 0.066 0.0
C459 C 0.93351 0.5432 0.05617 0.0
C460 C 0.89253 0.48532 0.07292 0.0
C461 C 0.91992 0.47673 0.06893 0.0
C462 C 0.9599 0.53354 0.0528 0.0
N463 N 0.94214 0.43776 0.07343 0.0
C464 C 0.91463 0.44444 0.07669 0.0
C465 C 0.90764 0.38231 0.0953 0.0
C466 C 0.87849 0.38819 0.0978 0.0
C467 C 0.93966 0.40776 0.0834 0.0
C468 C 0.88194 0.41978 0.08883 0.0
H469 H 0.85377 0.36853 0.10716 0.0
O470 O 0.0158 0.47355 0.09054 0.0
O471 O 0.03881 0.48433 0.0273 0.0
O472 O 0.99187 0.43172 0.99654 0.0
O473 O 0.95727 0.43029 0.03273 0.0
O474 O 0.02117 0.44794 0.05738 0.0
O475 O 0.01683 0.52244 0.08336 0.0
O476 O 1.00222 0.49403 0.94861 0.0
O477 O 0.98157 0.4842 0.01094 0.0
O478 O 0.03388 0.5394 0.04194 0.0
O479 O 0.06749 0.53739 1.00662 0.0
O480 O 0.99707 0.52027 0.98109 0.0
O481 O 0.01275 0.45112 0.95344 0.0
C482 C 0.04406 0.46129 0.0383 0.0
C483 C 0.85413 0.42774 0.09211 0.0
C484 C 0.8594 0.46043 0.08414 0.0
C485 C 0.02247 0.50344 0.10048 0.0
C486 C 1.00939 0.50227 0.12765 0.0
C487 C 0.97352 0.49392 0.13217 0.0
C488 C 0.03273 0.5089 0.14937 0.0
C489 C 0.02021 0.50703 0.17549 0.0
C490 C 0.96072 0.49121 0.15792 0.0
C491 C 0.98374 0.49741 0.17946 0.0
C492 C 0.96364 0.41486 0.01253 0.0
C493 C 0.97374 0.50542 0.99976 0.0
C494 C 1.0022 0.46748 0.93733 0.0
C495 C 0.01666 0.47383 0.9102 0.0
C496 C 0.05409 0.4924 0.9058 0.0
C497 C 0.99281 0.46306 0.88845 0.0
C498 C 1.00628 0.47192 0.8624 0.0
C499 C 0.06768 0.50139 0.88019 0.0
C500 C 0.04404 0.49159 0.85865 0.0
C501 C 0.06278 0.5543 0.02632 0.0
H502 H 0.95537 0.48942 0.11586 0.0
H503 H 0.06063 0.51585 0.14593 0.0
H504 H 0.93281 0.48419 0.16119 0.0
H505 H 0.97289 0.49447 0.19926 0.0
H506 H 0.07284 0.50016 0.92209 0.0
H507 H 0.96394 0.44756 0.89194 0.0
H508 H 0.09666 0.51616 0.87704 0.0
H509 H 0.05539 0.4994 0.839 0.0
Gd510 Gd 0.51497 0.51786 0.98177 0.0
Gd511 Gd 0.53761 0.51159 0.05037 0.0
C512 C 0.64399 0.51888 0.07638 0.0
C513 C 0.62317 0.46178 0.09639 0.0
C514 C 0.57985 0.47656 0.07765 0.0
C515 C 0.60777 0.50919 0.07048 0.0
C516 C 0.58711 0.45277 0.09129 0.0
C517 C 0.65156 0.49477 0.08892 0.0
C518 C 0.67144 0.55274 0.06995 0.0
C519 C 0.66238 0.57622 0.05854 0.0
N520 N 0.59945 0.53193 0.05855 0.0
C521 C 0.62607 0.56546 0.05318 0.0
H522 H 0.61969 0.58402 0.04439 0.0
C523 C 0.51681 0.43913 0.08281 0.0
N524 N 0.54536 0.46895 0.07279 0.0
C525 C 0.5226 0.41458 0.09626 0.0
C526 C 0.55791 0.42119 0.10019 0.0
H527 H 0.48943 0.43396 0.07997 0.0
H528 H 0.67922 0.50165 0.09343 0.0
H529 H 0.43871 0.43903 0.98609 0.0
H530 H 0.69959 0.56118 0.07411 0.0
H531 H 0.68336 0.60264 0.05382 0.0
H532 H 0.62932 0.44376 0.10665 0.0
H533 H 0.55374 0.59967 0.95836 0.0
H534 H 0.34948 0.45068 0.96093 0.0
H535 H 0.37347 0.41352 0.97782 0.0
H536 H 0.40531 0.57156 0.93587 0.0
H537 H 0.49985 0.39067 0.10367 0.0
H538 H 0.56235 0.40224 0.11076 0.0
H539 H 0.36157 0.50978 0.94558 0.0
H540 H 0.53508 0.64024 0.93967 0.0
N541 N 0.45207 0.49053 0.97425 0.0
C542 C 0.37831 0.46208 0.9644 0.0
C543 C 0.39175 0.44103 0.97393 0.0
C544 C 0.40226 0.49754 0.95925 0.0
C545 C 0.43951 0.51113 0.96424 0.0
C546 C 0.42892 0.45566 0.97854 0.0
N547 N 0.49971 0.55801 0.96366 0.0
C548 C 0.46401 0.54607 0.95922 0.0
C549 C 0.51481 0.6139 0.94523 0.0
C550 C 0.47804 0.60261 0.94186 0.0
C551 C 0.52527 0.59092 0.95576 0.0
C552 C 0.45214 0.56816 0.94843 0.0
H553 H 0.47001 0.62041 0.93357 0.0
O554 O 0.54712 0.53441 0.94594 0.0
O555 O 0.55756 0.51696 1.00797 0.0
O556 O 0.55759 0.56791 0.03762 0.0
O557 O 0.518 0.56349 1.00434 0.0
O558 O 0.5741 0.55796 0.98204 0.0
O559 O 0.50125 0.48197 0.9484 0.0
O560 O 0.50561 0.50449 0.08576 0.0
O561 O 0.49606 0.51068 0.02322 0.0
O562 O 0.50276 0.46225 0.99088 0.0
O563 O 0.5303 0.46246 0.03122 0.0
O564 O 0.47656 0.47497 0.05315 0.0
O565 O 0.55638 0.55247 0.08042 0.0
C566 C 0.58573 0.54242 0.99758 0.0
C567 C 0.415 0.55492 0.94393 0.0
C568 C 0.39012 0.51971 0.94936 0.0
C569 C 0.52711 0.50509 0.93344 0.0
C570 C 0.51764 0.50857 0.90591 0.0
C571 C 0.49148 0.51817 0.90072 0.0
C572 C 0.53609 0.50392 0.8846 0.0
C573 C 0.52909 0.50988 0.85826 0.0
C574 C 0.48468 0.52449 0.87492 0.0
C575 C 0.50354 0.52078 0.85388 0.0
C576 C 0.54069 0.58102 0.0238 0.0
C577 C 0.46688 0.48729 0.03361 0.0
C578 C 0.52924 0.53421 0.0963 0.0
C579 C 0.53792 0.53293 0.1245 0.0
C580 C 0.56399 0.52385 0.1316 0.0
C581 C 0.51944 0.53993 0.14459 0.0
C582 C 0.52686 0.53748 0.17158 0.0
C583 C 0.5712 0.52111 0.15817 0.0
C584 C 0.55275 0.52774 0.17802 0.0
C585 C 0.51315 0.44718 0.009 0.0
H586 H 0.47639 0.52096 0.91656 0.0
H587 H 0.55539 0.4953 0.88861 0.0
H588 H 0.46478 0.53243 0.87121 0.0
H589 H 0.49801 0.52642 0.83408 0.0
H590 H 0.57884 0.51891 0.11663 0.0
H591 H 0.49922 0.54695 0.13926 0.0
H592 H 0.59134 0.514 0.1634 0.0
H593 H 0.55929 0.52596 0.19851 0.0
Gd594 Gd 0.17749 0.35464 0.38678 0.0
Gd595 Gd 0.15886 0.32166 0.31751 0.0
C596 C 0.05127 0.22143 0.30263 0.0
C597 C 0.071 0.18017 0.29075 0.0
C598 C 0.1153 0.24089 0.30039 0.0
C599 C 0.08778 0.24796 0.30546 0.0
C600 C 0.10728 0.20724 0.29208 0.0
C601 C 0.04302 0.18725 0.29607 0.0
C602 C 0.02424 0.23035 0.30559 0.0
C603 C 0.03404 0.26525 0.31009 0.0
N604 N 0.09677 0.2813 0.31157 0.0
C605 C 0.07067 0.29064 0.31268 0.0
H606 H 0.07785 0.31743 0.31644 0.0
C607 C 0.17768 0.26368 0.2922 0.0
N608 N 0.14998 0.2677 0.30169 0.0
C609 C 0.17116 0.23073 0.28393 0.0
C610 C 0.13587 0.2022 0.28437 0.0
H611 H 0.20504 0.28571 0.29209 0.0
H612 H 0.01513 0.16639 0.29419 0.0
H613 H 0.2574 0.35605 0.38805 0.0
H614 H 0.99586 0.21073 0.30366 0.0
H615 H 0.0134 0.27259 0.31178 0.0
H616 H 0.06427 0.15398 0.28479 0.0
H617 H 0.13233 0.39226 0.41022 0.0
H618 H 0.34074 0.45936 0.40861 0.0
H619 H 0.3216 0.39814 0.39655 0.0
H620 H 0.2751 0.51842 0.42872 0.0
H621 H 0.19333 0.22734 0.27729 0.0
H622 H 0.13086 0.17674 0.27786 0.0
H623 H 0.32315 0.50418 0.42038 0.0
H624 H 0.1452 0.44984 0.42771 0.0
N625 N 0.23979 0.39295 0.39463 0.0
C626 C 0.31236 0.44092 0.40493 0.0
C627 C 0.30164 0.40637 0.39822 0.0
C628 C 0.28616 0.45093 0.40773 0.0
C629 C 0.2496 0.42594 0.40255 0.0
C630 C 0.26502 0.3825 0.39341 0.0
N631 N 0.18778 0.40838 0.40396 0.0
C632 C 0.22269 0.43394 0.40734 0.0
C633 C 0.16726 0.44579 0.42192 0.0
C634 C 0.20308 0.47302 0.4242 0.0
C635 C 0.16008 0.41327 0.4121 0.0
C636 C 0.23137 0.46709 0.41737 0.0
H637 H 0.2086 0.49813 0.43197 0.0
O638 O 0.14551 0.33888 0.42312 0.0
O639 O 0.13866 0.31308 0.35929 0.0
O640 O 0.14125 0.36204 0.32471 0.0
O641 O 0.17056 0.3944 0.36276 0.0
O642 O 0.11704 0.33268 0.38614 0.0
O643 O 0.19117 0.33076 0.41908 0.0
O644 O 0.19102 0.3401 0.2815 0.0
O645 O 0.19691 0.36246 0.34522 0.0
O646 O 0.19513 0.31418 0.38013 0.0
O647 O 0.17002 0.28443 0.34029 0.0
O648 O 0.22025 0.34742 0.31647 0.0
O649 O 0.13956 0.33837 0.2837 0.0
C650 C 0.10911 0.30929 0.36806 0.0
C651 C 0.26784 0.49268 0.42126 0.0
C652 C 0.29519 0.48456 0.41651 0.0
C653 C 0.16581 0.32843 0.43475 0.0
C654 C 0.17686 0.33992 0.46242 0.0
C655 C 0.20617 0.37348 0.46751 0.0
C656 C 0.1588 0.31719 0.48389 0.0
C657 C 0.16985 0.32832 0.51027 0.0
C658 C 0.21752 0.38435 0.49344 0.0
C659 C 0.19966 0.36202 0.51463 0.0
C660 C 0.15299 0.39014 0.34007 0.0
C661 C 0.22707 0.36863 0.33604 0.0
C662 C 0.1671 0.34476 0.2688 0.0
C663 C 0.15885 0.33157 0.24134 0.0
C664 C 0.1392 0.29548 0.2363 0.0
C665 C 0.17066 0.35526 0.21989 0.0
C666 C 0.16291 0.34287 0.19353 0.0
C667 C 0.13176 0.28306 0.21032 0.0
C668 C 0.14354 0.3065 0.18908 0.0
C669 C 0.18665 0.28819 0.36319 0.0
H670 H 0.22054 0.39117 0.45143 0.0
H671 H 0.13608 0.29123 0.48012 0.0
H672 H 0.24036 0.41022 0.49713 0.0
H673 H 0.2093 0.37109 0.53455 0.0
H674 H 0.12953 0.27688 0.2524 0.0
H675 H 0.18605 0.38318 0.22373 0.0
H676 H 0.1166 0.25514 0.20662 0.0
H677 H 0.13695 0.29615 0.16912 0.0
Gd678 Gd 0.66483 0.81834 0.38499 0.0
Gd679 Gd 0.69986 0.83392 0.31714 0.0
C680 C 0.80895 0.84152 0.30096 0.0
C681 C 0.84696 0.90313 0.28994 0.0
C682 C 0.78322 0.87959 0.30002 0.0
C683 C 0.77929 0.84695 0.30445 0.0
C684 C 0.81682 0.90786 0.29199 0.0
C685 C 0.84303 0.87 0.29443 0.0
C686 C 0.80312 0.80743 0.30317 0.0
C687 C 0.76813 0.77966 0.30759 0.0
N688 N 0.74587 0.81998 0.31035 0.0
C689 C 0.73958 0.78641 0.31078 0.0
H690 H 0.7128 0.76481 0.31451 0.0
C691 C 0.75455 0.91321 0.29373 0.0
N692 N 0.75341 0.88307 0.3019 0.0
C693 C 0.78733 0.94209 0.28579 0.0
C694 C 0.81875 0.93961 0.28536 0.0
H695 H 0.73034 0.91527 0.29412 0.0
H696 H 0.86624 0.86644 0.29198 0.0
H697 H 0.6588 0.89127 0.38902 0.0
H698 H 0.82519 0.80215 0.30072 0.0
H699 H 0.76314 0.75308 0.30876 0.0
H700 H 0.87313 0.92463 0.28409 0.0
H701 H 0.62848 0.73533 0.40559 0.0
H702 H 0.54913 0.8618 0.40665 0.0
H703 H 0.61243 0.90769 0.39786 0.0
H704 H 0.49233 0.7379 0.42036 0.0
H705 H 0.78834 0.96621 0.27999 0.0
H706 H 0.84406 0.96197 0.2791 0.0
H707 H 0.50436 0.79826 0.4147 0.0
H708 H 0.56883 0.6868 0.41968 0.0
N709 N 0.62221 0.83647 0.3925 0.0
C710 C 0.56942 0.8544 0.40287 0.0
C711 C 0.60515 0.88038 0.39802 0.0
C712 C 0.56063 0.8193 0.4038 0.0
C713 C 0.58806 0.81109 0.39873 0.0
C714 C 0.63139 0.87091 0.39298 0.0
N715 N 0.60947 0.77125 0.39978 0.0
C716 C 0.58144 0.77732 0.40238 0.0
C717 C 0.57196 0.71209 0.41477 0.0
C718 C 0.54238 0.71745 0.41634 0.0
C719 C 0.60569 0.73961 0.4069 0.0
C720 C 0.54706 0.75057 0.41069 0.0
H721 H 0.51635 0.69618 0.42271 0.0
O722 O 0.6808 0.80351 0.42151 0.0
O723 O 0.70936 0.82342 0.35884 0.0
O724 O 0.66243 0.77523 0.32524 0.0
O725 O 0.6254 0.77275 0.35989 0.0
O726 O 0.68928 0.78317 0.3859 0.0
O727 O 0.68536 0.85458 0.41811 0.0
O728 O 0.6785 0.84367 0.28106 0.0
O729 O 0.6558 0.82876 0.3435 0.0
O730 O 0.70545 0.87674 0.37847 0.0
O731 O 0.73943 0.88028 0.34117 0.0
O732 O 0.67231 0.86698 0.3154 0.0
O733 O 0.6845 0.79785 0.28382 0.0
C734 C 0.71342 0.79873 0.36786 0.0
C735 C 0.51901 0.75814 0.41417 0.0
C736 C 0.52585 0.79249 0.41091 0.0
C737 C 0.68838 0.83248 0.43364 0.0
C738 C 0.6739 0.82879 0.46056 0.0
C739 C 0.63699 0.81664 0.46469 0.0
C740 C 0.69729 0.83743 0.48244 0.0
C741 C 0.68395 0.83407 0.5084 0.0
C742 C 0.6235 0.81286 0.49035 0.0
C743 C 0.64674 0.82137 0.51211 0.0
C744 C 0.6325 0.75814 0.33964 0.0
C745 C 0.64954 0.852 0.33437 0.0
C746 C 0.67625 0.81679 0.2686 0.0
C747 C 0.69097 0.82358 0.24153 0.0
C748 C 0.72785 0.84693 0.23712 0.0
C749 C 0.66772 0.80775 0.21978 0.0
C750 C 0.68116 0.81563 0.19367 0.0
C751 C 0.74124 0.8553 0.21141 0.0
C752 C 0.71807 0.84016 0.18982 0.0
C753 C 0.73397 0.89383 0.36275 0.0
H754 H 0.61862 0.81004 0.44815 0.0
H755 H 0.72589 0.84707 0.47925 0.0
H756 H 0.59492 0.80317 0.49339 0.0
H757 H 0.63552 0.81762 0.53185 0.0
H758 H 0.74624 0.8591 0.25345 0.0
H759 H 0.63928 0.78934 0.2232 0.0
H760 H 0.76963 0.87388 0.2082 0.0
H761 H 0.72905 0.848 0.17008 0.0
Gd762 Gd 0.18528 0.85893 0.31424 0.0
Gd763 Gd 0.20256 0.8463 0.38371 0.0
C764 C 0.30791 0.84698 0.40189 0.0
C765 C 0.2859 0.78701 0.41625 0.0
C766 C 0.24339 0.80626 0.40403 0.0
C767 C 0.27183 0.83924 0.39814 0.0
C768 C 0.25005 0.78013 0.41403 0.0
C769 C 0.31479 0.82038 0.41013 0.0
C770 C 0.33588 0.88152 0.39832 0.0
C771 C 0.32742 0.90759 0.39248 0.0
N772 N 0.26416 0.86445 0.39074 0.0
C773 C 0.29118 0.89864 0.38917 0.0
H774 H 0.28515 0.91905 0.38446 0.0
C775 C 0.18059 0.77086 0.41204 0.0
N776 N 0.20914 0.80064 0.40194 0.0
C777 C 0.18579 0.74406 0.42203 0.0
C778 C 0.2206 0.74843 0.42254 0.0
H779 H 0.15361 0.76736 0.41139 0.0
H780 H 0.34233 0.82571 0.41278 0.0
H781 H 0.10576 0.78345 0.31844 0.0
H782 H 0.36396 0.88853 0.40091 0.0
H783 H 0.34879 0.93455 0.39034 0.0
H784 H 0.29158 0.76712 0.42355 0.0
H785 H 0.22903 0.93901 0.28785 0.0
H786 H 0.02089 0.80356 0.29646 0.0
H787 H 0.0409 0.76254 0.31171 0.0
H788 H 0.08481 0.92372 0.26894 0.0
H789 H 0.16297 0.72005 0.42923 0.0
H790 H 0.22458 0.72769 0.43038 0.0
H791 H 0.03752 0.86391 0.28079 0.0
H792 H 0.2148 0.9823 0.2683 0.0
N793 N 0.12265 0.83618 0.30778 0.0
C794 C 0.0495 0.81294 0.29938 0.0
C795 C 0.06069 0.7897 0.30793 0.0
C796 C 0.07543 0.84778 0.29401 0.0
C797 C 0.1123 0.85868 0.2983 0.0
C798 C 0.0976 0.80169 0.31168 0.0
N799 N 0.17394 0.90143 0.29546 0.0
C800 C 0.13878 0.89243 0.29201 0.0
C801 C 0.19316 0.95721 0.27504 0.0
C802 C 0.15711 0.94905 0.27267 0.0
C803 C 0.20111 0.9327 0.28609 0.0
C804 C 0.12935 0.91609 0.28074 0.0
H805 H 0.15099 0.968 0.26397 0.0
O806 O 0.21853 0.87241 0.2788 0.0
O807 O 0.22412 0.85514 0.34214 0.0
O808 O 0.22301 0.90374 0.37527 0.0
O809 O 0.1973 0.90856 0.33554 0.0
O810 O 0.24547 0.89531 0.31464 0.0
O811 O 0.16891 0.82264 0.28105 0.0
O812 O 0.16982 0.83578 0.41922 0.0
O813 O 0.16492 0.8517 0.35584 0.0
O814 O 0.16961 0.8019 0.32159 0.0
O815 O 0.19271 0.79761 0.36267 0.0
O816 O 0.14105 0.81374 0.38424 0.0
O817 O 0.22245 0.88248 0.41698 0.0
C818 C 0.25362 0.88021 0.33315 0.0
C819 C 0.09264 0.90579 0.27728 0.0
C820 C 0.06572 0.87172 0.28399 0.0
C821 C 0.19618 0.84382 0.26625 0.0
C822 C 0.18782 0.84817 0.23858 0.0
C823 C 0.16476 0.86149 0.23312 0.0
C824 C 0.20341 0.83954 0.2174 0.0
C825 C 0.19662 0.84509 0.1909 0.0
C826 C 0.15817 0.86733 0.20712 0.0
C827 C 0.17413 0.8595 0.18618 0.0
C828 C 0.21386 0.92118 0.35848 0.0
C829 C 0.1344 0.82961 0.36544 0.0
C830 C 0.19422 0.86343 0.43171 0.0
C831 C 0.20117 0.85841 0.45957 0.0
C832 C 0.22299 0.84388 0.4657 0.0
C833 C 0.18572 0.86805 0.48028 0.0
C834 C 0.19171 0.86268 0.50698 0.0
C835 C 0.22919 0.83873 0.49203 0.0
C836 C 0.21375 0.84805 0.51252 0.0
C837 C 0.17752 0.78464 0.33951 0.0
H838 H 0.15178 0.86738 0.24889 0.0
H839 H 0.22025 0.82813 0.22163 0.0
H840 H 0.14063 0.87804 0.20317 0.0
H841 H 0.16887 0.86483 0.1662 0.0
H842 H 0.23541 0.83669 0.45018 0.0
H843 H 0.16891 0.8794 0.47565 0.0
H844 H 0.24622 0.82764 0.49659 0.0
H845 H 0.2196 0.84438 0.53279 0.0
Gd846 Gd 0.84766 0.69233 0.72122 0.0
Gd847 Gd 0.82567 0.65939 0.6518 0.0
C848 C 0.7171 0.56004 0.63686 0.0
C849 C 0.73597 0.51865 0.62345 0.0
C850 C 0.78093 0.57893 0.63379 0.0
C851 C 0.75378 0.58622 0.63967 0.0
C852 C 0.77239 0.54544 0.6247 0.0
C853 C 0.70835 0.52594 0.62959 0.0
C854 C 0.69041 0.56929 0.64041 0.0
C855 C 0.70069 0.60421 0.64533 0.0
N856 N 0.76327 0.61958 0.64619 0.0
C857 C 0.73746 0.62927 0.64775 0.0
H858 H 0.74488 0.65605 0.65179 0.0
C859 C 0.84299 0.6015 0.62448 0.0
N860 N 0.81572 0.60556 0.63484 0.0
C861 C 0.83596 0.56869 0.61543 0.0
C862 C 0.80058 0.54033 0.61603 0.0
H863 H 0.87042 0.6234 0.62424 0.0
H864 H 0.68033 0.50536 0.62769 0.0
H865 H 0.92324 0.68544 0.71974 0.0
H866 H 0.66193 0.54994 0.63856 0.0
H867 H 0.68032 0.61185 0.64746 0.0
H868 H 0.72885 0.49258 0.61688 0.0
H869 H 0.81182 0.73644 0.74856 0.0
H870 H 0.01453 0.78569 0.73692 0.0
H871 H 0.98873 0.72294 0.72613 0.0
H872 H 0.96114 0.85563 0.75846 0.0
H873 H 0.85781 0.56528 0.60806 0.0
H874 H 0.79516 0.51499 0.60888 0.0
H875 H 1.00403 0.83528 0.74837 0.0
H876 H 0.83163 0.79611 0.76552 0.0
N877 N 0.91119 0.72628 0.7266 0.0
C878 C 0.98554 0.76926 0.73422 0.0
C879 C 0.97106 0.73385 0.72823 0.0
C880 C 0.96231 0.78277 0.73755 0.0
C881 C 0.92476 0.76026 0.73374 0.0
C882 C 0.93366 0.71257 0.72462 0.0
N883 N 0.86485 0.74838 0.73769 0.0
C884 C 0.90078 0.7718 0.73924 0.0
C885 C 0.85135 0.78979 0.75784 0.0
C886 C 0.88809 0.81508 0.75769 0.0
C887 C 0.84024 0.75616 0.7482 0.0
C888 C 0.91343 0.80596 0.74903 0.0
H889 H 0.89669 0.84101 0.76542 0.0
O890 O 0.81653 0.67918 0.75781 0.0
O891 O 0.80726 0.65132 0.69409 0.0
O892 O 0.80769 0.69888 0.66044 0.0
O893 O 0.83786 0.73122 0.69837 0.0
O894 O 0.78756 0.6717 0.72208 0.0
O895 O 0.86098 0.66916 0.75437 0.0
O896 O 0.8566 0.67778 0.61527 0.0
O897 O 0.86503 0.69992 0.67917 0.0
O898 O 0.86005 0.6483 0.71433 0.0
O899 O 0.83597 0.62083 0.67355 0.0
O900 O 0.88699 0.6846 0.64962 0.0
O901 O 0.8068 0.67887 0.61936 0.0
C902 C 0.77847 0.64854 0.70361 0.0
C903 C 0.95086 0.82914 0.75131 0.0
C904 C 0.97526 0.81751 0.74564 0.0
C905 C 0.83639 0.66863 0.76995 0.0
C906 C 0.84813 0.68174 0.79723 0.0
C907 C 0.87471 0.71677 0.80151 0.0
C908 C 0.83295 0.65921 0.81921 0.0
C909 C 0.84442 0.67171 0.84529 0.0
C910 C 0.88565 0.72943 0.82716 0.0
C911 C 0.87057 0.70722 0.84889 0.0
C912 C 0.819 0.72644 0.67622 0.0
C913 C 0.89473 0.70592 0.66923 0.0
C914 C 0.83319 0.68414 0.60358 0.0
C915 C 0.82312 0.67115 0.57613 0.0
C916 C 0.80174 0.63513 0.57121 0.0
C917 C 0.83529 0.69473 0.55458 0.0
C918 C 0.82644 0.68222 0.52828 0.0
C919 C 0.79306 0.62263 0.54531 0.0
C920 C 0.8054 0.64591 0.52399 0.0
C921 C 0.85169 0.62312 0.69665 0.0
H922 H 0.88706 0.73438 0.78506 0.0
H923 H 0.81266 0.632 0.816 0.0
H924 H 0.9059 0.75664 0.83023 0.0
H925 H 0.87914 0.71798 0.86859 0.0
H926 H 0.79176 0.61663 0.58737 0.0
H927 H 0.8519 0.72261 0.55825 0.0
H928 H 0.77661 0.59476 0.54173 0.0
H929 H 0.798 0.63554 0.50408 0.0
Gd930 Gd 0.33493 0.15671 0.71638 0.0
Gd931 Gd 0.36931 0.16983 0.6487 0.0
C932 C 0.47732 0.17719 0.62911 0.0
C933 C 0.51423 0.23817 0.61602 0.0
C934 C 0.45172 0.21542 0.62955 0.0
C935 C 0.44804 0.18281 0.63397 0.0
C936 C 0.48458 0.24327 0.61993 0.0
C937 C 0.51064 0.20523 0.62069 0.0
C938 C 0.47185 0.14329 0.63196 0.0
C939 C 0.43748 0.11582 0.63844 0.0
N940 N 0.41524 0.15609 0.64151 0.0
C941 C 0.40922 0.12267 0.64282 0.0
H942 H 0.38278 0.10128 0.64781 0.0
C943 C 0.42364 0.25006 0.62664 0.0
N944 N 0.42243 0.2194 0.63338 0.0
C945 C 0.4558 0.27855 0.61739 0.0
C946 C 0.48646 0.27522 0.61416 0.0
H947 H 0.40004 0.25284 0.62896 0.0
H948 H 0.53352 0.20147 0.61705 0.0
H949 H 0.3292 0.22984 0.71993 0.0
H950 H 0.49366 0.13789 0.62848 0.0
H951 H 0.43272 0.08936 0.64012 0.0
H952 H 0.53984 0.25936 0.60893 0.0
H953 H 0.29844 0.07418 0.7384 0.0
H954 H 0.21965 0.20105 0.73728 0.0
H955 H 0.28304 0.24662 0.72835 0.0
H956 H 0.16251 0.07736 0.75223 0.0
H957 H 0.45688 0.30302 0.61268 0.0
H958 H 0.51128 0.2973 0.60687 0.0
H959 H 0.17469 0.13767 0.74581 0.0
H960 H 0.23882 0.02606 0.75279 0.0
N961 N 0.29244 0.17511 0.72375 0.0
C962 C 0.23986 0.19348 0.73367 0.0
C963 C 0.27563 0.21929 0.72875 0.0
C964 C 0.23093 0.15836 0.73495 0.0
C965 C 0.25827 0.14995 0.73011 0.0
C966 C 0.30176 0.2096 0.72392 0.0
N967 N 0.27959 0.11012 0.73188 0.0
C968 C 0.25159 0.11627 0.73422 0.0
C969 C 0.24199 0.05126 0.74752 0.0
C970 C 0.21245 0.05671 0.74882 0.0
C971 C 0.27573 0.0786 0.73946 0.0
C972 C 0.2172 0.08974 0.74272 0.0
H973 H 0.18642 0.0356 0.75533 0.0
O974 O 0.35249 0.14366 0.753 0.0
O975 O 0.37859 0.15939 0.69054 0.0
O976 O 0.33131 0.11147 0.65728 0.0
O977 O 0.29476 0.11044 0.69184 0.0
O978 O 0.35774 0.12012 0.71823 0.0
O979 O 0.35612 0.19414 0.74882 0.0
O980 O 0.34689 0.17878 0.61287 0.0
O981 O 0.32544 0.1659 0.67475 0.0
O982 O 0.37499 0.21514 0.70711 0.0
O983 O 0.41107 0.21406 0.67319 0.0
O984 O 0.34278 0.20388 0.6465 0.0
O985 O 0.35566 0.13456 0.6149 0.0
C986 C 0.38174 0.13428 0.69995 0.0
C987 C 0.1892 0.09744 0.74592 0.0
C988 C 0.19613 0.13176 0.74222 0.0
C989 C 0.35977 0.17276 0.76472 0.0
C990 C 0.34523 0.16926 0.79167 0.0
C991 C 0.30855 0.15835 0.79555 0.0
C992 C 0.36804 0.17626 0.81378 0.0
C993 C 0.35427 0.17246 0.83968 0.0
C994 C 0.29464 0.15408 0.8211 0.0
C995 C 0.31723 0.1609 0.84304 0.0
C996 C 0.30144 0.09508 0.67183 0.0
C997 C 0.31973 0.18938 0.66536 0.0
C998 C 0.34618 0.15287 0.59998 0.0
C999 C 0.36103 0.16113 0.57289 0.0
C1000 C 0.3976 0.18583 0.56878 0.0
C1001 C 0.33813 0.14599 0.55083 0.0
C1002 C 0.35169 0.15595 0.52486 0.0
C1003 C 0.41104 0.19625 0.54328 0.0
C1004 C 0.38822 0.18183 0.52147 0.0
C1005 C 0.40531 0.23029 0.69285 0.0
H1006 H 0.29063 0.15298 0.77888 0.0
H1007 H 0.39646 0.18487 0.81082 0.0
H1008 H 0.26619 0.14529 0.8239 0.0
H1009 H 0.30558 0.15672 0.86266 0.0
H1010 H 0.41572 0.19764 0.58518 0.0
H1011 H 0.30989 0.12662 0.5539 0.0
H1012 H 0.43918 0.21592 0.54043 0.0
H1013 H 0.39917 0.19129 0.50193 0.0
Gd1014 Gd 0.84883 0.18795 0.64777 0.0
Gd1015 Gd 0.86969 0.18028 0.71741 0.0
C1016 C 0.97742 0.18586 0.73633 0.0
C1017 C 0.95764 0.12724 0.75295 0.0
C1018 C 0.91341 0.14391 0.73979 0.0
C1019 C 0.94091 0.17679 0.73279 0.0
C1020 C 0.92138 0.11914 0.75083 0.0
C1021 C 0.98563 0.16056 0.74564 0.0
C1022 C 1.00448 0.22039 0.73132 0.0
C1023 C 0.9947 0.24519 0.72422 0.0
N1024 N 0.9319 0.20063 0.72423 0.0
C1025 C 0.95807 0.23493 0.72117 0.0
H1026 H 0.95104 0.25437 0.7155 0.0
C1027 C 0.85105 0.10754 0.7486 0.0
N1028 N 0.87879 0.13716 0.73767 0.0
C1029 C 0.85755 0.08213 0.75982 0.0
C1030 C 0.89279 0.08761 0.76041 0.0
H1031 H 0.82372 0.10311 0.74796 0.0
H1032 H 0.01352 0.16687 0.74814 0.0
H1033 H 0.77061 0.11075 0.65126 0.0
H1034 H 0.03286 0.22841 0.73368 0.0
H1035 H 0.01537 0.27219 0.72095 0.0
H1036 H 0.96433 0.10838 0.76103 0.0
H1037 H 0.89113 0.26982 0.62454 0.0
H1038 H 0.68462 0.12653 0.62446 0.0
H1039 H 0.7059 0.08753 0.6421 0.0
H1040 H 0.7456 0.24738 0.59867 0.0
H1041 H 0.8354 0.05834 0.76793 0.0
H1042 H 0.89776 0.06792 0.76913 0.0
H1043 H 0.69964 0.18631 0.60849 0.0
H1044 H 0.87543 0.312 0.60482 0.0
N1045 N 0.78632 0.16282 0.6393 0.0
C1046 C 0.71321 0.13694 0.62836 0.0
C1047 C 0.72512 0.11484 0.6383 0.0
C1048 C 0.73839 0.17209 0.62325 0.0
C1049 C 0.77528 0.18436 0.62881 0.0
C1050 C 0.762 0.12818 0.64342 0.0
N1051 N 0.83628 0.22939 0.6286 0.0
C1052 C 0.80103 0.21876 0.62346 0.0
C1053 C 0.85423 0.28592 0.61008 0.0
C1054 C 0.81792 0.2759 0.60581 0.0
C1055 C 0.86302 0.26201 0.62117 0.0
C1056 C 0.79081 0.24182 0.61217 0.0
H1057 H 0.81116 0.29444 0.59715 0.0
O1058 O 0.88058 0.20295 0.61149 0.0
O1059 O 0.88972 0.1875 0.67551 0.0
O1060 O 0.88868 0.2368 0.7054 0.0
O1061 O 0.85185 0.23353 0.67011 0.0
O1062 O 0.909 0.22628 0.64718 0.0
O1063 O 0.83596 0.14994 0.61631 0.0
O1064 O 0.83716 0.17165 0.75276 0.0
O1065 O 0.82911 0.18002 0.68938 0.0
O1066 O 0.83417 0.13188 0.65706 0.0
O1067 O 0.86081 0.13096 0.69757 0.0
O1068 O 0.80879 0.14393 0.71924 0.0
O1069 O 0.88821 0.21955 0.74871 0.0
C1070 C 0.91857 0.21241 0.66574 0.0
C1071 C 0.75404 0.22998 0.60716 0.0
C1072 C 0.72788 0.1952 0.61271 0.0
C1073 C 0.86076 0.17245 0.60035 0.0
C1074 C 0.84956 0.17264 0.57268 0.0
C1075 C 0.81839 0.17461 0.56707 0.0
C1076 C 0.87003 0.17061 0.55161 0.0
C1077 C 0.85929 0.17047 0.52509 0.0
C1078 C 0.80787 0.17488 0.54094 0.0
C1079 C 0.8281 0.17284 0.52008 0.0
C1080 C 0.8732 0.25038 0.69038 0.0
C1081 C 0.79968 0.1565 0.69949 0.0
C1082 C 0.86087 0.20058 0.76421 0.0
C1083 C 0.86933 0.19734 0.79214 0.0
C1084 C 0.8942 0.18629 0.79813 0.0
C1085 C 0.85173 0.20419 0.81303 0.0
C1086 C 0.85855 0.19927 0.83965 0.0
C1087 C 0.90118 0.18162 0.82436 0.0
C1088 C 0.8835 0.18797 0.84497 0.0
C1089 C 0.844 0.11632 0.6751 0.0
H1090 H 0.80203 0.17571 0.58284 0.0
H1091 H 0.89432 0.16939 0.55588 0.0
H1092 H 0.78375 0.17641 0.53683 0.0
H1093 H 0.81901 0.17256 0.49996 0.0
H1094 H 0.90826 0.18127 0.78252 0.0
H1095 H 0.83253 0.21284 0.80859 0.0
H1096 H 0.92046 0.1731 0.82876 0.0
H1097 H 0.88977 0.18456 0.8652 0.0
C1098 C 0.33877 0.90972 0.04895 0.0
C1099 C 0.33564 0.8764 0.04939 0.0
C1100 C 0.37139 0.93976 0.04203 0.0
C1101 C 0.40242 0.93793 0.03527 0.0
H1102 H 0.31593 0.91269 0.05455 0.0
H1103 H 0.37262 0.96492 0.04267 0.0
S1104 S 0.40855 0.8568 0.03354 0.0
N1105 N 0.3661 0.84308 0.04195 0.0
N1106 N 0.42783 0.89969 0.02987 0.0
C1107 C 0.39952 0.90463 0.03518 0.0
C1108 C 0.36601 0.87386 0.04191 0.0
C1109 C 0.10705 0.425 0.05122 0.0
C1110 C 0.14203 0.45482 0.05215 0.0
C1111 C 0.07611 0.4275 0.04535 0.0
C1112 C 0.07843 0.4598 0.03949 0.0
H1113 H 0.10331 0.39941 0.05595 0.0
H1114 H 0.04984 0.40385 0.04603 0.0
S1115 S 0.16325 0.54596 0.03824 0.0
N1116 N 0.17692 0.51795 0.04589 0.0
N1117 N 0.11885 0.52239 0.03455 0.0
C1118 C 0.11324 0.48973 0.03921 0.0
C1119 C 0.14494 0.48727 0.04543 0.0
C1120 C 0.58415 0.67275 0.05277 0.0
C1121 C 0.55558 0.68024 0.05281 0.0
C1122 C 0.5794 0.64101 0.04278 0.0
C1123 C 0.54628 0.61586 0.03153 0.0
H1124 H 0.61045 0.69139 0.06081 0.0
H1125 H 0.60185 0.63608 0.04399 0.0
S1126 S 0.46287 0.62213 0.02599 0.0
N1127 N 0.49229 0.65859 0.04111 0.0
N1128 N 0.48492 0.60103 0.01995 0.0
C1129 C 0.51802 0.62353 0.03026 0.0
C1130 C 0.52226 0.65514 0.04145 0.0
C1131 C 0.87224 0.33121 1.00567 0.0
C1132 C 0.87846 0.311 0.98693 0.0
C1133 C 0.90046 0.36315 0.01541 0.0
C1134 C 0.936 0.3778 1.00577 0.0
H1135 H 0.84513 0.32309 0.01246 0.0
H1136 H 0.89394 0.37703 0.02997 0.0
S1137 S 0.96922 0.33285 0.96138 0.0
N1138 N 0.92525 0.30537 0.96352 0.0
N1139 N 0.97714 0.3671 0.9795 0.0
C1140 C 0.94328 0.35717 0.98832 0.0
C1141 C 0.91484 0.32365 0.97935 0.0
C1142 C 0.66868 0.52765 0.99628 0.0
C1143 C 0.68753 0.54538 0.97304 0.0
C1144 C 0.63487 0.52452 1.0033 0.0
C1145 C 0.61972 0.54171 0.98901 0.0
H1146 H 0.67997 0.51606 0.00936 0.0
H1147 H 0.6208 0.50863 0.02011 0.0
S1148 S 0.65108 0.58105 0.922 0.0
N1149 N 0.68082 0.56975 0.93144 0.0
N1150 N 0.62322 0.57103 0.94719 0.0
C1151 C 0.63707 0.55733 0.96477 0.0
C1152 C 0.66938 0.55759 0.95637 0.0
C1153 C 0.46576 0.12939 1.00279 0.0
C1154 C 0.47008 0.13844 0.97576 0.0
C1155 C 0.46951 0.10128 0.01216 0.0
C1156 C 0.47793 0.08135 0.99489 0.0
H1157 H 0.45912 0.14397 0.01674 0.0
H1158 H 0.46523 0.09484 0.03296 0.0
S1159 S 0.49579 0.09693 0.92277 0.0
N1160 N 0.48541 0.12669 0.93216 0.0
N1161 N 0.49303 0.07451 0.94973 0.0
C1162 C 0.48297 0.09067 0.96791 0.0
C1163 C 0.47895 0.11904 0.95837 0.0
C1164 C 0.61883 0.12806 1.00279 0.0
C1165 C 0.65387 0.1321 1.00193 0.0
C1166 C 0.58749 0.09495 1.00317 0.0
C1167 C 0.5895 0.06414 1.00229 0.0
H1168 H 0.61544 0.15082 1.00346 0.0
H1169 H 0.5615 0.09363 1.00389 0.0
S1170 S 0.67361 0.05917 0.99796 0.0
N1171 N 0.68815 0.10162 0.99937 0.0
N1172 N 0.62892 0.03937 0.99855 0.0
C1173 C 0.62398 0.06749 0.99991 0.0
C1174 C 0.65618 0.10137 1.00015 0.0
C1175 C 0.89824 0.52559 0.98055 0.0
C1176 C 0.8658 0.49477 0.98717 0.0
C1177 C 0.93269 0.52909 0.98567 0.0
C1178 C 0.93655 0.50191 0.99741 0.0
H1179 H 0.89711 0.54667 0.97037 0.0
H1180 H 0.95662 0.55307 0.97967 0.0
S1181 S 0.86011 0.41643 0.0195 0.0
N1182 N 0.84041 0.43814 0.00889 0.0
N1183 N 0.90389 0.44272 0.01474 0.0
C1184 C 0.9043 0.47127 1.00434 0.0
C1185 C 0.86947 0.46835 1.00032 0.0
C1186 C 0.53495 0.38407 0.97469 0.0
C1187 C 0.51911 0.35455 0.99133 0.0
C1188 C 0.5308 0.41316 0.97969 0.0
C1189 C 0.51129 0.41394 1.00181 0.0
H1190 H 0.55169 0.38511 0.95822 0.0
H1191 H 0.54456 0.43594 0.967 0.0
S1192 S 0.46232 0.34228 0.05016 0.0
N1193 N 0.48125 0.3269 0.02971 0.0
N1194 N 0.47386 0.38192 0.03933 0.0
C1195 C 0.49416 0.38412 0.01798 0.0
C1196 C 0.49792 0.35426 0.01266 0.0
C1197 C 0.15261 0.63877 0.01773 0.0
C1198 C 0.14687 0.6644 0.02947 0.0
C1199 C 0.12589 0.60333 0.01819 0.0
C1200 C 0.09184 0.59168 0.03011 0.0
H1201 H 0.17742 0.64641 1.00697 0.0
H1202 H 0.13175 0.58509 0.00817 0.0
S1203 S 0.06444 0.64843 0.06559 0.0
N1204 N 0.10577 0.67593 0.05493 0.0
N1205 N 0.05523 0.60901 0.05586 0.0
C1206 C 0.08652 0.61689 0.04332 0.0
C1207 C 0.11403 0.65329 0.0429 0.0
C1208 C 0.39901 0.51969 0.02609 0.0
C1209 C 0.36907 0.49682 0.0419 0.0
C1210 C 0.42989 0.51629 0.02376 0.0
C1211 C 0.43201 0.48831 0.03493 0.0
H1212 H 0.39932 0.54133 0.0157 0.0
H1213 H 0.45256 0.53614 0.01311 0.0
S1214 S 0.36096 0.41891 0.07701 0.0
N1215 N 0.34407 0.44434 0.06929 0.0
N1216 N 0.40061 0.43599 0.06206 0.0
C1217 C 0.40173 0.46393 0.04974 0.0
C1218 C 0.37061 0.46834 0.05349 0.0
C1219 C 0.49949 0.86967 0.06636 0.0
C1220 C 0.51554 0.85537 0.05007 0.0
C1221 C 0.5023 0.902 0.06033 0.0
C1222 C 0.52054 0.92063 0.03749 0.0
H1223 H 0.48314 0.85492 0.08312 0.0
H1224 H 0.48793 0.91122 0.07257 0.0
S1225 S 0.57104 0.8967 0.99042 0.0
N1226 N 0.55332 0.86389 0.01175 0.0
N1227 N 0.55826 0.92462 1.00026 0.0
C1228 C 0.53858 0.90773 0.022 0.0
C1229 C 0.5362 0.87507 0.02837 0.0
C1230 C 1.0105 0.24526 0.38389 0.0
C1231 C 1.00869 0.21247 0.38506 0.0
C1232 C 0.04265 0.27592 0.37699 0.0
C1233 C 0.07444 0.27527 0.37064 0.0
H1234 H 0.98704 0.24743 0.38902 0.0
H1235 H 0.04289 0.30062 0.37726 0.0
S1236 S 0.08435 0.1962 0.37034 0.0
N1237 N 0.04172 0.18126 0.37878 0.0
N1238 N 0.10191 0.23877 0.36593 0.0
C1239 C 0.07281 0.24255 0.37096 0.0
C1240 C 0.04001 0.21122 0.378 0.0
C1241 C 0.81324 0.82586 0.37905 0.0
C1242 C 0.81127 0.79329 0.38373 0.0
C1243 C 0.78209 0.82789 0.37199 0.0
C1244 C 0.74781 0.79742 0.36938 0.0
H1245 H 0.83855 0.84997 0.38229 0.0
H1246 H 0.78449 0.85344 0.37 0.0
S1247 S 0.72903 0.70594 0.37503 0.0
N1248 N 0.77276 0.73001 0.38152 0.0
N1249 N 0.71474 0.73394 0.36934 0.0
C1250 C 0.74607 0.76491 0.37245 0.0
C1251 C 0.77759 0.76281 0.37921 0.0
C1252 C 0.23401 0.01562 0.36092 0.0
C1253 C 0.22552 0.01866 0.38735 0.0
C1254 C 0.23014 0.98392 0.35136 0.0
C1255 C 0.21785 0.95458 0.36805 0.0
H1256 H 0.24429 0.03802 0.34778 0.0
H1257 H 0.23745 0.98258 0.33106 0.0
S1258 S 0.18642 0.94788 0.43742 0.0
N1259 N 0.20082 0.98897 0.42903 0.0
N1260 N 0.1929 0.92954 0.41112 0.0
C1261 C 0.20775 0.95708 0.39409 0.0
C1262 C 0.21176 0.98911 0.40374 0.0
C1263 C 0.54034 0.67546 0.33193 0.0
C1264 C 0.54681 0.65406 0.31464 0.0
C1265 C 0.56843 0.70798 0.34078 0.0
C1266 C 0.6043 0.72171 0.33193 0.0
H1267 H 0.51309 0.66768 0.33821 0.0
H1268 H 0.56147 0.72305 0.35395 0.0
S1269 S 0.63762 0.67442 0.29028 0.0
N1270 N 0.59356 0.64719 0.2924 0.0
N1271 N 0.64558 0.70957 0.30722 0.0
C1272 C 0.61166 0.70022 0.31553 0.0
C1273 C 0.58319 0.66632 0.30726 0.0
C1274 C 0.32573 0.85286 0.32495 0.0
C1275 C 0.35666 0.88466 0.31738 0.0
C1276 C 0.2927 0.85136 0.33169 0.0
C1277 C 0.28951 0.88172 0.33146 0.0
H1278 H 0.32654 0.8287 0.32444 0.0
H1279 H 0.2692 0.82612 0.33594 0.0
S1280 S 0.36352 0.97199 0.31692 0.0
N1281 N 0.38247 0.94753 0.3129 0.0
N1282 N 0.32111 0.94476 0.32537 0.0
C1283 C 0.32076 0.91375 0.32536 0.0
C1284 C 0.35409 0.91525 0.31847 0.0
C1285 C 0.1366 0.46777 0.33778 0.0
C1286 C 0.14039 0.4764 0.31066 0.0
C1287 C 0.14046 0.43974 0.34726 0.0
C1288 C 0.14835 0.4194 0.33 0.0
H1289 H 0.13024 0.48257 0.35171 0.0
H1290 H 0.13666 0.43367 0.36814 0.0
S1291 S 0.16504 0.43396 0.2577 0.0
N1292 N 0.15498 0.46395 0.26702 0.0
N1293 N 0.16263 0.41188 0.28478 0.0
C1294 C 0.15297 0.42837 0.30295 0.0
C1295 C 0.14892 0.45669 0.29331 0.0
C1296 C 0.28943 0.46752 0.33652 0.0
C1297 C 0.32459 0.47193 0.33497 0.0
C1298 C 0.25831 0.43424 0.33728 0.0
C1299 C 0.26064 0.40362 0.33614 0.0
H1300 H 0.28578 0.49012 0.33745 0.0
H1301 H 0.23222 0.43266 0.33853 0.0
S1302 S 0.34517 0.39961 0.33018 0.0
N1303 N 0.35932 0.442 0.33156 0.0
N1304 N 0.30049 0.37943 0.33151 0.0
C1305 C 0.29522 0.40733 0.33313 0.0
C1306 C 0.3272 0.44138 0.33295 0.0
C1307 C 0.5751 0.87737 0.33444 0.0
C1308 C 0.54298 0.84494 0.33108 0.0
C1309 C 0.60952 0.87963 0.33494 0.0
C1310 C 0.61301 0.84942 0.33328 0.0
H1311 H 0.57359 0.90088 0.33771 0.0
H1312 H 0.63345 0.90502 0.3379 0.0
S1313 S 0.53838 0.76026 0.31673 0.0
N1314 N 0.51803 0.78343 0.32044 0.0
N1315 N 0.58179 0.78754 0.32248 0.0
C1316 C 0.58139 0.8175 0.32782 0.0
C1317 C 0.54672 0.81534 0.32657 0.0
C1318 C 0.16577 0.69401 0.34651 0.0
C1319 C 0.18198 0.6909 0.3233 0.0
C1320 C 0.16183 0.7234 0.35081 0.0
C1321 C 0.17395 0.7506 0.33206 0.0
H1322 H 0.15782 0.67451 0.36201 0.0
H1323 H 0.15035 0.72542 0.36933 0.0
S1324 S 0.21633 0.75364 0.26738 0.0
N1325 N 0.20853 0.71626 0.28078 0.0
N1326 N 0.2011 0.7715 0.28879 0.0
C1327 C 0.18831 0.74673 0.30811 0.0
C1328 C 0.19247 0.71691 0.30381 0.0
C1329 C 0.82384 0.96108 0.39165 0.0
C1330 C 0.83208 0.99172 0.37742 0.0
C1331 C 0.79038 0.93009 0.38853 0.0
C1332 C 0.76399 0.92851 0.37094 0.0
H1333 H 0.84421 0.96059 0.40427 0.0
H1334 H 0.78604 0.90661 0.39867 0.0
S1335 S 0.77088 1.00172 0.33039 0.0
N1336 N 0.81008 0.0189 0.34626 0.0
N1337 N 0.74723 0.96055 0.34034 0.0
C1338 C 0.77104 0.95929 0.35762 0.0
C1339 C 0.80505 0.99097 0.36094 0.0
C1340 C 0.03825 0.81091 0.38265 0.0
C1341 C 0.03929 0.84291 0.37752 0.0
C1342 C 0.06847 0.80653 0.37753 0.0
C1343 C 0.10135 0.83393 0.36727 0.0
H1344 H 0.01454 0.78949 0.39174 0.0
H1345 H 0.06641 0.78166 0.38245 0.0
S1346 S 0.1181 0.92268 0.34947 0.0
N1347 N 0.07536 0.9013 0.35868 0.0
N1348 N 0.13258 0.89453 0.35301 0.0
C1349 C 0.1024 0.86574 0.36177 0.0
C1350 C 0.07132 0.86974 0.36574 0.0
C1351 C 0.20002 0.20979 0.35953 0.0
C1352 C 0.18347 0.19188 0.38301 0.0
C1353 C 0.20355 0.24258 0.354 0.0
C1354 C 0.19096 0.25851 0.37188 0.0
H1355 H 0.20834 0.1975 0.34472 0.0
H1356 H 0.21494 0.25491 0.3352 0.0
S1357 S 0.14778 0.22296 0.43686 0.0
N1358 N 0.15618 0.19291 0.42481 0.0
N1359 N 0.16313 0.25465 0.41462 0.0
C1360 C 0.17648 0.24175 0.39615 0.0
C1361 C 0.17251 0.20827 0.40162 0.0
C1362 C 0.70635 0.55172 0.71018 0.0
C1363 C 0.67551 0.55359 0.71766 0.0
C1364 C 0.73949 0.58231 0.70432 0.0
C1365 C 0.74268 0.61573 0.70534 0.0
H1366 H 0.70528 0.52664 0.70996 0.0
H1367 H 0.763 0.57989 0.69993 0.0
S1368 S 0.66896 0.63432 0.7208 0.0
N1369 N 0.64975 0.59134 0.72357 0.0
N1370 N 0.71149 0.64837 0.71256 0.0
C1371 C 0.71161 0.6176 0.71165 0.0
C1372 C 0.67816 0.58669 0.71768 0.0
C1373 C 0.44456 0.09675 0.70944 0.0
C1374 C 0.47719 0.12555 0.71848 0.0
C1375 C 0.41461 0.10038 0.70209 0.0
C1376 C 0.41609 0.13307 0.70287 0.0
H1377 H 0.44179 0.07095 0.70879 0.0
H1378 H 0.38969 0.07716 0.69625 0.0
S1379 S 0.4928 0.21507 0.72971 0.0
N1380 N 0.50773 0.187 0.73042 0.0
N1381 N 0.45166 0.19374 0.71673 0.0
C1382 C 0.44841 0.16195 0.7122 0.0
C1383 C 0.47888 0.15823 0.71983 0.0
C1384 C 0.91501 0.34158 0.71993 0.0
C1385 C 0.88658 0.34921 0.71858 0.0
C1386 C 0.91081 0.30996 0.71019 0.0
C1387 C 0.87849 0.28515 0.69782 0.0
H1388 H 0.9407 0.35995 0.72895 0.0
H1389 H 0.93303 0.30484 0.71251 0.0
S1390 S 0.79604 0.29224 0.68805 0.0
N1391 N 0.82443 0.32832 0.70406 0.0
N1392 N 0.81823 0.27096 0.68343 0.0
C1393 C 0.85053 0.29309 0.69502 0.0
C1394 C 0.85415 0.32457 0.70593 0.0
C1395 C 0.20877 0.01291 0.6637 0.0
C1396 C 0.21543 0.9906 0.64754 0.0
C1397 C 0.23688 0.04555 0.67245 0.0
C1398 C 0.27299 0.05855 0.66449 0.0
H1399 H 0.1814 0.0057 0.66923 0.0
H1400 H 0.22984 0.06128 0.68483 0.0
S1401 S 0.30681 0.00898 0.62614 0.0
N1402 N 0.26259 0.98228 0.62756 0.0
N1403 N 0.31462 0.04486 0.64195 0.0
C1404 C 0.2805 0.03623 0.64923 0.0
C1405 C 0.25201 1.0022 0.64116 0.0
C1406 C 0.01839 0.24906 0.64927 0.0
C1407 C 0.02362 0.2199 0.6506 0.0
C1408 C 0.98493 0.2464 0.65558 0.0
C1409 C 0.95485 0.21454 0.66374 0.0
H1410 H 0.04021 0.27417 0.64266 0.0
H1411 H 0.98231 0.2695 0.65337 0.0
S1412 S 0.95378 0.13017 0.67118 0.0
N1413 N 0.99552 0.15798 0.66152 0.0
N1414 N 0.9328 0.15306 0.67304 0.0
C1415 C 0.95985 0.18533 0.66598 0.0
C1416 C 0.99412 0.18804 0.65962 0.0
C1417 C 0.81501 0.79135 0.62912 0.0
C1418 C 0.80473 0.81063 0.64547 0.0
C1419 C 0.81923 0.76406 0.6394 0.0
C1420 C 0.81319 0.7549 0.66639 0.0
H1421 H 0.82049 0.79786 0.60831 0.0
H1422 H 0.82799 0.75045 0.62615 0.0
S1423 S 0.78137 0.79454 0.71663 0.0
N1424 N 0.78622 0.81737 0.68945 0.0
N1425 N 0.79299 0.76517 0.70858 0.0
C1426 C 0.80184 0.7733 0.68275 0.0
C1427 C 0.79788 0.80138 0.67233 0.0
C1428 C 0.95653 0.80489 0.66894 0.0
C1429 C 0.99184 0.80965 0.66708 0.0
C1430 C 0.9256 0.77149 0.67001 0.0
C1431 C 0.9282 0.74102 0.66869 0.0
H1432 H 0.95255 0.82728 0.66987 0.0
H1433 H 0.89941 0.76965 0.6717 0.0
S1434 S 0.01289 0.73767 0.6611 0.0
N1435 N 0.0268 0.77998 0.66284 0.0
N1436 N 0.96823 0.71726 0.66292 0.0
C1437 C 0.96279 0.74501 0.66504 0.0
C1438 C 0.99463 0.77919 0.66474 0.0
C1439 C 0.2462 0.21613 0.66523 0.0
C1440 C 0.21381 0.18396 0.66167 0.0
C1441 C 0.28042 0.2179 0.66576 0.0
C1442 C 0.28346 0.18743 0.66402 0.0
H1443 H 0.24504 0.23979 0.6687 0.0
H1444 H 0.30454 0.2431 0.66889 0.0
S1445 S 0.20813 0.09883 0.64703 0.0
N1446 N 0.18828 0.12246 0.65067 0.0
N1447 N 0.25158 0.12562 0.65302 0.0
C1448 C 0.25161 0.15581 0.65837 0.0
C1449 C 0.21717 0.15416 0.65697 0.0
C1450 C 0.86611 0.05462 0.63919 0.0
C1451 C 0.85187 0.02528 0.65598 0.0
C1452 C 0.86098 0.08301 0.64462 0.0
C1453 C 0.84226 0.08333 0.66738 0.0
H1454 H 0.88241 0.05612 0.62228 0.0
H1455 H 0.87368 0.10577 0.63182 0.0
S1456 S 0.7966 0.01139 0.716 0.0
N1457 N 0.81569 0.99689 0.69492 0.0
N1458 N 0.80665 0.05074 0.70541 0.0
C1459 C 0.82648 0.05353 0.68363 0.0
C1460 C 0.83112 0.02432 0.67782 0.0
C1461 C 0.44975 0.32913 0.70405 0.0
C1462 C 0.48605 0.3413 0.69684 0.0
C1463 C 0.42405 0.29294 0.70461 0.0
C1464 C 0.43357 0.26778 0.69719 0.0
H1465 H 0.44085 0.34777 0.70811 0.0
H1466 H 0.39615 0.28482 0.70926 0.0
S1467 S 0.52602 0.28672 0.67841 0.0
N1468 N 0.53072 0.32565 0.68401 0.0
N1469 N 0.48286 0.25829 0.68379 0.0
C1470 C 0.47025 0.27993 0.69089 0.0
C1471 C 0.49633 0.31649 0.691 0.0
C1472 C 0.73168 0.18883 0.69258 0.0
C1473 C 0.70201 0.16571 0.70852 0.0
C1474 C 0.76249 0.18537 0.68959 0.0
C1475 C 0.76473 0.15728 0.70049 0.0
H1476 H 0.73188 0.21078 0.68278 0.0
H1477 H 0.78511 0.20537 0.67892 0.0
S1478 S 0.69398 0.08704 0.74223 0.0
N1479 N 0.67711 0.11268 0.73522 0.0
N1480 N 0.73346 0.10438 0.72703 0.0
C1481 C 0.73452 0.13258 0.7152 0.0
C1482 C 0.70352 0.13694 0.71947 0.0
C1483 C 0.86585 0.54536 0.69019 0.0
C1484 C 0.85159 0.52746 0.71408 0.0
C1485 C 0.86827 0.57782 0.68537 0.0
C1486 C 0.85639 0.59327 0.70424 0.0
H1487 H 0.87318 0.53326 0.67456 0.0
H1488 H 0.87829 0.59028 0.66639 0.0
S1489 S 0.81925 0.55769 0.77064 0.0
N1490 N 0.82747 0.52812 0.75737 0.0
N1491 N 0.83201 0.58918 0.74839 0.0
C1492 C 0.84421 0.57658 0.72885 0.0
C1493 C 0.84166 0.54352 0.73371 0.0
C1494 C 0.42869 0.91793 0.22421 0.0
C1495 C 0.45129 0.9214 0.24592 0.0
C1496 C 0.44264 0.93807 0.20099 0.0
C1497 C 0.47978 0.96272 0.19853 0.0
H1498 H 0.3998 0.89987 0.22532 0.0
H1499 H 0.42398 0.93532 0.1853 0.0
S1500 S 0.55106 0.98038 0.24854 0.0
N1501 N 0.51314 0.95071 0.26267 0.0
N1502 N 0.53926 0.98751 0.21901 0.0
C1503 C 0.50285 0.96535 0.21957 0.0
C1504 C 0.48869 0.94499 0.24318 0.0
C1505 C 0.08881 0.5046 0.22279 0.0
C1506 C 0.08946 0.52535 0.24423 0.0
C1507 C 0.06693 0.49932 0.20045 0.0
C1508 C 0.04478 0.51454 0.19867 0.0
H1509 H 0.10547 0.49241 0.22321 0.0
H1510 H 0.06687 0.48266 0.18467 0.0
S1511 S 0.03738 0.57202 0.24896 0.0
N1512 N 0.06597 0.56125 0.26213 0.0
N1513 N 0.02613 0.55255 0.21977 0.0
C1514 C 0.04569 0.53586 0.21974 0.0
C1515 C 0.06772 0.54101 0.24255 0.0
C1516 C 0.48364 0.53305 0.23833 0.0
C1517 C 0.48774 0.56663 0.24082 0.0
C1518 C 0.49429 0.52301 0.21517 0.0
C1519 C 0.5091 0.54601 0.19347 0.0
H1520 H 0.47433 0.51522 0.25503 0.0
H1521 H 0.49239 0.49757 0.21468 0.0
S1522 S 0.52121 0.63524 0.18877 0.0
N1523 N 0.50423 0.62158 0.21863 0.0
N1524 N 0.52435 0.60278 0.17521 0.0
C1525 C 0.51089 0.5787 0.195 0.0
C1526 C 0.50025 0.589 0.21864 0.0
C1527 C 0.96935 0.43661 0.79375 0.0
C1528 C 0.93638 0.43667 0.79264 0.0
C1529 C 0.99125 0.44763 0.81639 0.0
C1530 C 0.98164 0.45994 0.8389 0.0
H1531 H 0.97852 0.42799 0.77689 0.0
H1532 H 0.01589 0.44622 0.81623 0.0
S1533 S 0.89828 0.46604 0.84629 0.0
N1534 N 0.89468 0.44934 0.81644 0.0
N1535 N 0.93717 0.47246 0.8584 0.0
C1536 C 0.94892 0.4606 0.83806 0.0
C1537 C 0.92613 0.44862 0.81506 0.0
C1538 C 0.54259 0.48509 0.78887 0.0
C1539 C 0.57986 0.49641 0.78769 0.0
C1540 C 0.52659 0.48843 0.81197 0.0
C1541 C 0.54711 0.50412 0.83498 0.0
H1542 H 0.52548 0.47428 0.77155 0.0
H1543 H 0.49775 0.47899 0.81159 0.0
S1544 S 0.64565 0.53714 0.84304 0.0
N1545 N 0.6366 0.52202 0.8124 0.0
N1546 N 0.60693 0.53067 0.85532 0.0
C1547 C 0.58437 0.51515 0.83438 0.0
C1548 C 0.60063 0.51097 0.81088 0.0
C1549 C 0.52972 0.04751 0.79081 0.0
C1550 C 0.52008 0.07365 0.78874 0.0
C1551 C 0.52162 0.0266 0.81365 0.0
C1552 C 0.50406 0.03131 0.83557 0.0
H1553 H 0.54287 0.04262 0.77438 0.0
H1554 H 0.52892 0.00632 0.81407 0.0
S1555 S 0.47524 0.09779 0.84089 0.0
N1556 N 0.49362 0.10429 0.81118 0.0
N1557 N 0.47838 0.06501 0.85395 0.0
C1558 C 0.4953 0.0581 0.83407 0.0
C1559 C 0.50323 0.07917 0.81072 0.0
C1560 C 0.13177 0.25193 0.55953 0.0
C1561 C 0.12068 0.26485 0.58095 0.0
C1562 C 0.14632 0.27186 0.53624 0.0
C1563 C 0.15074 0.30564 0.53362 0.0
H1564 H 0.12905 0.22618 0.56073 0.0
H1565 H 0.15506 0.26116 0.52048 0.0
S1566 S 0.12561 0.35138 0.58361 0.0
N1567 N 0.11524 0.31371 0.59773 0.0
N1568 N 0.14174 0.35051 0.55413 0.0
C1569 C 0.13929 0.31855 0.55472 0.0
C1570 C 0.12453 0.29838 0.57829 0.0
C1571 C 0.75473 0.83631 0.55571 0.0
C1572 C 0.75438 0.8569 0.57689 0.0
C1573 C 0.73237 0.82957 0.53347 0.0
C1574 C 0.70861 0.84297 0.53161 0.0
H1575 H 0.77253 0.82537 0.55628 0.0
H1576 H 0.7332 0.81318 0.51783 0.0
S1577 S 0.69801 0.89915 0.5813 0.0
N1578 N 0.72849 0.89089 0.59444 0.0
N1579 N 0.68705 0.87885 0.55241 0.0
C1580 C 0.70836 0.864 0.55246 0.0
C1581 C 0.73114 0.87087 0.5751 0.0
C1582 C 0.17427 0.92031 0.55387 0.0
C1583 C 0.15825 0.89841 0.57602 0.0
C1584 C 0.1831 0.90805 0.53095 0.0
C1585 C 0.17657 0.87348 0.52935 0.0
H1586 H 0.18104 0.94749 0.55455 0.0
H1587 H 0.19677 0.92627 0.5149 0.0
S1588 S 0.13196 0.80456 0.58059 0.0
N1589 N 0.13402 0.83969 0.59395 0.0
N1590 N 0.15013 0.81665 0.55089 0.0
C1591 C 0.15879 0.85082 0.55072 0.0
C1592 C 0.14969 0.86323 0.57399 0.0
C1593 C 0.60009 0.78302 0.14698 0.0
C1594 C 0.61088 0.77121 0.12477 0.0
C1595 C 0.6226 0.79676 0.16932 0.0
C1596 C 0.65678 0.79914 0.17041 0.0
H1597 H 0.57393 0.78151 0.14721 0.0
H1598 H 0.6134 0.80617 0.18567 0.0
S1599 S 0.69741 0.77077 0.11792 0.0
N1600 N 0.65833 0.76308 0.10532 0.0
N1601 N 0.69949 0.78681 0.1478 0.0
C1602 C 0.66756 0.78672 0.14858 0.0
C1603 C 0.64493 0.77327 0.1257 0.0
C1604 C 0.20429 0.8142 0.12212 0.0
C1605 C 0.24096 0.82342 0.1203 0.0
C1606 C 0.19015 0.81997 0.14533 0.0
C1607 C 0.21204 0.83579 0.16779 0.0
H1608 H 0.18642 0.80348 0.10517 0.0
H1609 H 0.16179 0.81256 0.14545 0.0
S1610 S 0.30935 0.8626 0.17423 0.0
N1611 N 0.2983 0.8465 0.14394 0.0
N1612 N 0.27218 0.85929 0.18706 0.0
C1613 C 0.24853 0.84415 0.16664 0.0
C1614 C 0.26287 0.83769 0.14303 0.0
C1615 C 0.19913 0.38241 0.12545 0.0
C1616 C 0.19001 0.40889 0.12331 0.0
C1617 C 0.19115 0.36186 0.14846 0.0
C1618 C 0.17417 0.36727 0.17042 0.0
H1619 H 0.2116 0.37685 0.10892 0.0
H1620 H 0.19797 0.34125 0.14896 0.0
S1621 S 0.14706 0.43501 0.17557 0.0
N1622 N 0.16494 0.44079 0.14573 0.0
N1623 N 0.14971 0.40206 0.18878 0.0
C1624 C 0.16605 0.39449 0.16887 0.0
C1625 C 0.17395 0.41525 0.14537 0.0
C1626 C 0.77579 0.60688 0.89453 0.0
C1627 C 0.79755 0.60641 0.91551 0.0
C1628 C 0.79107 0.62732 0.87173 0.0
C1629 C 0.82882 0.64838 0.86892 0.0
H1630 H 0.74656 0.59085 0.89554 0.0
H1631 H 0.77312 0.62705 0.85636 0.0
S1632 S 0.89802 0.65605 0.91761 0.0
N1633 N 0.85898 0.62884 0.93173 0.0
N1634 N 0.88772 0.6666 0.88877 0.0
C1635 C 0.85094 0.64793 0.88959 0.0
C1636 C 0.83536 0.62711 0.91283 0.0
C1637 C 0.422 0.16984 0.8877 0.0
C1638 C 0.42143 0.18955 0.90946 0.0
C1639 C 0.40084 0.16505 0.86502 0.0
C1640 C 0.37812 0.17964 0.86325 0.0
H1641 H 0.43905 0.15807 0.88815 0.0
H1642 H 0.40175 0.14921 0.84898 0.0
S1643 S 0.36751 0.23432 0.91433 0.0
N1644 N 0.39641 0.224 0.92761 0.0
N1645 N 0.35744 0.21579 0.88478 0.0
C1646 C 0.37774 0.19987 0.88466 0.0
C1647 C 0.39922 0.20469 0.90776 0.0
C1648 C 0.83649 0.25042 0.88962 0.0
C1649 C 0.82075 0.22646 0.91072 0.0
C1650 C 0.84635 0.24079 0.86583 0.0
C1651 C 0.8412 0.20693 0.86232 0.0
H1652 H 0.84249 0.27724 0.89191 0.0
H1653 H 0.85998 0.26055 0.85071 0.0
S1654 S 0.79787 0.13341 0.91014 0.0
N1655 N 0.79806 0.16656 0.92549 0.0
N1656 N 0.81643 0.14855 0.8809 0.0
C1657 C 0.82358 0.1822 0.88257 0.0
C1658 C 0.81334 0.1919 0.90669 0.0
C1659 C 0.27107 0.12331 0.47776 0.0
C1660 C 0.283 0.11353 0.45503 0.0
C1661 C 0.29311 0.13646 0.50038 0.0
C1662 C 0.32791 0.14023 0.50123 0.0
H1663 H 0.24429 0.12037 0.47823 0.0
H1664 H 0.28298 0.14417 0.5172 0.0
S1665 S 0.37175 0.11787 0.44718 0.0
N1666 N 0.3323 0.10924 0.43471 0.0
N1667 N 0.37264 0.13176 0.47765 0.0
C1668 C 0.33995 0.13011 0.47876 0.0
C1669 C 0.3178 0.11731 0.45562 0.0
C1670 C 0.90511 0.18652 0.45784 0.0
C1671 C 0.9139 0.15978 0.45599 0.0
C1672 C 0.88837 0.19029 0.48049 0.0
C1673 C 0.87994 0.16763 0.50235 0.0
H1674 H 0.91042 0.20422 0.44137 0.0
H1675 H 0.88165 0.21096 0.48078 0.0
S1676 S 0.89925 0.09458 0.50818 0.0
N1677 N 0.91468 0.11139 0.4786 0.0
N1678 N 0.88261 0.11805 0.52095 0.0
C1679 C 0.88947 0.14136 0.50108 0.0
C1680 C 0.90647 0.13747 0.47795 0.0
C1681 C 0.8641 0.72059 0.4602 0.0
C1682 C 0.85542 0.74732 0.45745 0.0
C1683 C 0.85548 0.70032 0.48341 0.0
C1684 C 0.83844 0.70637 0.50501 0.0
H1685 H 0.87678 0.71469 0.444 0.0
H1686 H 0.86189 0.67944 0.48437 0.0
S1687 S 0.81211 0.77476 0.50849 0.0
N1688 N 0.83032 0.77987 0.47882 0.0
N1689 N 0.81431 0.7419 0.52238 0.0
C1690 C 0.83071 0.73378 0.50284 0.0
C1691 C 0.83908 0.75415 0.4791 0.0
loop_
_geom_bond_atom_site_label_1
_geom_bond_atom_site_label_2
_geom_bond_distance
_geom_bond_site_symmetry_2
_ccdc_geom_bond_type
H0 C1 0.949 . S
C1 H0 0.949 . S
C1 C2 1.395 . S
C1 C3 1.391 . S
C2 C1 1.395 . S
C2 C5 1.390 . S
C3 C1 1.391 . S
C3 C7 1.387 . S
C3 C8 1.491 . S
H4 C5 0.950 . S
C5 C2 1.390 . S
C5 H4 0.950 . S
C5 C6 1.378 . S
C6 C5 1.378 . S
C6 C7 1.409 . S
C7 C3 1.387 . S
C7 C6 1.409 . S
C7 H9 0.951 . S
C8 C3 1.491 . S
C8 C10 1.382 . S
C8 C12 1.404 . S
H9 C7 0.951 . S
C10 C8 1.382 . S
C10 C11 1.390 . S
C10 H15 0.949 . S
C11 C10 1.390 . S
C11 C16 1.399 . S
C12 C8 1.404 . S
C12 H13 0.950 . S
C12 C14 1.375 . S
H13 C12 0.950 . S
C14 C12 1.375 . S
C14 C16 1.382 . S
C14 H18 0.950 . S
H15 C10 0.949 . S
C16 C11 1.399 . S
C16 C14 1.382 . S
C16 H17 0.952 . S
H17 C16 0.952 . S
H18 C14 0.950 . S
H19 C20 0.949 . S
C20 H19 0.949 . S
C20 C21 1.395 . S
C20 C22 1.391 . S
C21 C20 1.395 . S
C21 C24 1.390 . S
C22 C20 1.391 . S
C22 C26 1.387 . S
C22 C27 1.491 . S
H23 C24 0.950 . S
C24 C21 1.390 . S
C24 H23 0.950 . S
C24 C25 1.378 . S
C25 C24 1.378 . S
C25 C26 1.409 . S
C26 C22 1.387 . S
C26 C25 1.409 . S
C26 H28 0.951 . S
C27 C22 1.491 . S
C27 C29 1.382 . S
C27 C31 1.404 . S
H28 C26 0.951 . S
C29 C27 1.382 . S
C29 C30 1.390 1_545 S
C29 H34 0.949 . S
C30 C29 1.390 1_565 S
C30 C35 1.399 . S
C31 C27 1.404 . S
C31 H32 0.950 . S
C31 C33 1.375 . S
H32 C31 0.950 . S
C33 C31 1.375 . S
C33 C35 1.382 1_545 S
C33 H37 0.950 . S
H34 C29 0.949 . S
C35 C30 1.399 . S
C35 C33 1.382 1_565 S
C35 H36 0.952 . S
H36 C35 0.952 . S
H37 C33 0.950 . S
H38 C39 0.949 . S
C39 H38 0.949 . S
C39 C40 1.395 . S
C39 C41 1.391 . S
C40 C39 1.395 . S
C40 C43 1.390 . S
C41 C39 1.391 . S
C41 C45 1.387 . S
C41 C46 1.491 . S
H42 C43 0.950 . S
C43 C40 1.390 . S
C43 H42 0.950 . S
C43 C44 1.378 . S
C44 C43 1.378 . S
C44 C45 1.409 . S
C45 C41 1.387 . S
C45 C44 1.409 . S
C45 H47 0.951 . S
C46 C41 1.491 . S
C46 C48 1.382 . S
C46 C50 1.404 . S
H47 C45 0.951 . S
C48 C46 1.382 . S
C48 C49 1.390 1_655 S
C48 H53 0.949 . S
C49 C48 1.390 1_455 S
C49 C54 1.399 . S
C50 C46 1.404 . S
C50 H51 0.950 . S
C50 C52 1.375 1_655 S
H51 C50 0.950 . S
C52 C50 1.375 1_455 S
C52 C54 1.382 . S
C52 H56 0.950 . S
H53 C48 0.949 . S
C54 C49 1.399 . S
C54 C52 1.382 . S
C54 H55 0.952 . S
H55 C54 0.952 . S
H56 C52 0.950 . S
H57 C58 0.949 . S
C58 H57 0.949 . S
C58 C59 1.395 . S
C58 C60 1.391 . S
C59 C58 1.395 . S
C59 C62 1.390 . S
C60 C58 1.391 . S
C60 C64 1.387 . S
C60 C65 1.491 . S
H61 C62 0.950 . S
C62 C59 1.390 . S
C62 H61 0.950 . S
C62 C63 1.378 . S
C63 C62 1.378 . S
C63 C64 1.409 . S
C64 C60 1.387 . S
C64 C63 1.409 . S
C64 H66 0.951 . S
C65 C60 1.491 . S
C65 C67 1.382 . S
C65 C69 1.404 . S
H66 C64 0.951 . S
C67 C65 1.382 . S
C67 C68 1.390 . S
C67 H72 0.949 . S
C68 C67 1.390 . S
C68 C73 1.399 . S
C69 C65 1.404 . S
C69 H70 0.950 . S
C69 C71 1.375 . S
H70 C69 0.950 . S
C71 C69 1.375 . S
C71 C73 1.382 . S
C71 H75 0.950 . S
H72 C67 0.949 . S
C73 C68 1.399 . S
C73 C71 1.382 . S
C73 H74 0.952 . S
H74 C73 0.952 . S
H75 C71 0.950 . S
H76 C77 0.949 . S
C77 H76 0.949 . S
C77 C78 1.395 . S
C77 C79 1.391 . S
C78 C77 1.395 . S
C78 C81 1.390 . S
C79 C77 1.391 . S
C79 C83 1.387 . S
C79 C84 1.491 . S
H80 C81 0.950 . S
C81 C78 1.390 . S
C81 H80 0.950 . S
C81 C82 1.378 . S
C82 C81 1.378 . S
C82 C83 1.409 . S
C83 C79 1.387 . S
C83 C82 1.409 . S
C83 H85 0.951 . S
C84 C79 1.491 . S
C84 C86 1.382 . S
C84 C88 1.404 . S
H85 C83 0.951 . S
C86 C84 1.382 . S
C86 C87 1.390 1_565 S
C86 H91 0.949 . S
C87 C86 1.390 1_545 S
C87 C92 1.399 . S
C88 C84 1.404 . S
C88 H89 0.950 . S
C88 C90 1.375 . S
H89 C88 0.950 . S
C90 C88 1.375 . S
C90 C92 1.382 1_565 S
C90 H94 0.950 1_565 S
H91 C86 0.949 . S
C92 C87 1.399 . S
C92 C90 1.382 1_545 S
C92 H93 0.952 . S
H93 C92 0.952 . S
H94 C90 0.950 1_545 S
H95 C96 0.949 . S
C96 H95 0.949 . S
C96 C97 1.395 . S
C96 C98 1.391 . S
C97 C96 1.395 . S
C97 C100 1.390 . S
C98 C96 1.391 . S
C98 C102 1.387 . S
C98 C103 1.491 . S
H99 C100 0.950 . S
C100 C97 1.390 . S
C100 H99 0.950 . S
C100 C101 1.378 . S
C101 C100 1.378 . S
C101 C102 1.409 . S
C102 C98 1.387 . S
C102 C101 1.409 . S
C102 H104 0.951 . S
C103 C98 1.491 . S
C103 C105 1.382 . S
C103 C107 1.404 . S
H104 C102 0.951 . S
C105 C103 1.382 . S
C105 C106 1.390 1_455 S
C105 H110 0.949 . S
C106 C105 1.390 1_655 S
C106 C111 1.399 . S
C107 C103 1.404 . S
C107 H108 0.950 . S
C107 C109 1.375 . S
H108 C107 0.950 . S
C109 C107 1.375 . S
C109 C111 1.382 1_455 S
C109 H113 0.950 1_455 S
H110 C105 0.949 . S
C111 C106 1.399 . S
C111 C109 1.382 1_655 S
C111 H112 0.952 . S
H112 C111 0.952 . S
H113 C109 0.950 1_655 S
H114 C115 0.949 . S
C115 H114 0.949 . S
C115 C116 1.395 . S
C115 C117 1.391 . S
C116 C115 1.395 . S
C116 C119 1.390 . S
C117 C115 1.391 . S
C117 C121 1.387 . S
C117 C122 1.491 . S
H118 C119 0.950 . S
C119 C116 1.390 . S
C119 H118 0.950 . S
C119 C120 1.378 . S
C120 C119 1.378 . S
C120 C121 1.409 . S
C121 C117 1.387 . S
C121 C120 1.409 . S
C121 H123 0.951 . S
C122 C117 1.491 . S
C122 C124 1.382 . S
C122 C126 1.404 . S
H123 C121 0.951 . S
C124 C122 1.382 . S
C124 C125 1.390 . S
C124 H129 0.949 . S
C125 C124 1.390 . S
C125 C130 1.399 . S
C126 C122 1.404 . S
C126 H127 0.950 . S
C126 C128 1.375 . S
H127 C126 0.950 . S
C128 C126 1.375 . S
C128 C130 1.382 . S
C128 H132 0.950 . S
H129 C124 0.949 . S
C130 C125 1.399 . S
C130 C128 1.382 . S
C130 H131 0.952 . S
H131 C130 0.952 . S
H132 C128 0.950 . S
H133 C134 0.949 . S
C134 H133 0.949 . S
C134 C135 1.395 . S
C134 C136 1.391 . S
C135 C134 1.395 . S
C135 C138 1.390 . S
C136 C134 1.391 . S
C136 C140 1.387 . S
C136 C141 1.491 . S
H137 C138 0.950 . S
C138 C135 1.390 . S
C138 H137 0.950 . S
C138 C139 1.378 . S
C139 C138 1.378 . S
C139 C140 1.409 . S
C140 C136 1.387 . S
C140 C139 1.409 . S
C140 H142 0.951 . S
C141 C136 1.491 . S
C141 C143 1.382 . S
C141 C145 1.404 . S
H142 C140 0.951 . S
C143 C141 1.382 . S
C143 C144 1.390 . S
C143 H148 0.949 . S
C144 C143 1.390 . S
C144 C149 1.399 . S
C145 C141 1.404 . S
C145 H146 0.950 . S
C145 C147 1.375 . S
H146 C145 0.950 . S
C147 C145 1.375 . S
C147 C149 1.382 . S
C147 H151 0.950 . S
H148 C143 0.949 . S
C149 C144 1.399 . S
C149 C147 1.382 . S
C149 H150 0.952 . S
H150 C149 0.952 . S
H151 C147 0.950 . S
H152 C153 0.949 . S
C153 H152 0.949 . S
C153 C154 1.395 . S
C153 C155 1.391 . S
C154 C153 1.395 . S
C154 C157 1.390 . S
C155 C153 1.391 . S
C155 C159 1.387 . S
C155 C160 1.491 . S
H156 C157 0.950 . S
C157 C154 1.390 . S
C157 H156 0.950 . S
C157 C158 1.378 . S
C158 C157 1.378 . S
C158 C159 1.409 . S
C159 C155 1.387 . S
C159 C158 1.409 . S
C159 H161 0.951 . S
C160 C155 1.491 . S
C160 C162 1.382 . S
C160 C164 1.404 . S
H161 C159 0.951 . S
C162 C160 1.382 . S
C162 C163 1.390 . S
C162 H167 0.949 . S
C163 C162 1.390 . S
C163 C168 1.399 . S
C164 C160 1.404 . S
C164 H165 0.950 . S
C164 C166 1.375 . S
H165 C164 0.950 . S
C166 C164 1.375 . S
C166 C168 1.382 . S
C166 H170 0.950 . S
H167 C162 0.949 . S
C168 C163 1.399 . S
C168 C166 1.382 . S
C168 H169 0.952 . S
H169 C168 0.952 . S
H170 C166 0.950 . S
H171 C172 0.949 . S
C172 H171 0.949 . S
C172 C173 1.395 . S
C172 C174 1.391 . S
C173 C172 1.395 . S
C173 C176 1.390 . S
C174 C172 1.391 . S
C174 C178 1.387 . S
C174 C179 1.491 . S
H175 C176 0.950 . S
C176 C173 1.390 . S
C176 H175 0.950 . S
C176 C177 1.378 . S
C177 C176 1.378 . S
C177 C178 1.409 . S
C178 C174 1.387 . S
C178 C177 1.409 . S
C178 H180 0.951 . S
C179 C174 1.491 . S
C179 C181 1.382 . S
C179 C183 1.404 . S
H180 C178 0.951 . S
C181 C179 1.382 . S
C181 C182 1.390 . S
C181 H186 0.949 . S
C182 C181 1.390 . S
C182 C187 1.399 . S
C183 C179 1.404 . S
C183 H184 0.950 . S
C183 C185 1.375 . S
H184 C183 0.950 . S
C185 C183 1.375 . S
C185 C187 1.382 . S
C185 H189 0.950 1_556 S
H186 C181 0.949 . S
C187 C182 1.399 . S
C187 C185 1.382 . S
C187 H188 0.952 1_556 S
H188 C187 0.952 1_554 S
H189 C185 0.950 1_554 S
H190 C191 0.949 . S
C191 H190 0.949 . S
C191 C192 1.395 . S
C191 C193 1.391 . S
C192 C191 1.395 . S
C192 C195 1.390 . S
C193 C191 1.391 . S
C193 C197 1.387 . S
C193 C198 1.491 . S
H194 C195 0.950 . S
C195 C192 1.390 . S
C195 H194 0.950 . S
C195 C196 1.378 . S
C196 C195 1.378 . S
C196 C197 1.409 . S
C197 C193 1.387 . S
C197 C196 1.409 . S
C197 H199 0.951 . S
C198 C193 1.491 . S
C198 C200 1.382 . S
C198 C202 1.404 . S
H199 C197 0.951 . S
C200 C198 1.382 . S
C200 C201 1.390 . S
C200 H205 0.949 . S
C201 C200 1.390 . S
C201 C206 1.399 1_556 S
C202 C198 1.404 . S
C202 H203 0.950 . S
C202 C204 1.375 1_556 S
H203 C202 0.950 . S
C204 C202 1.375 1_554 S
C204 C206 1.382 . S
C204 H208 0.950 . S
H205 C200 0.949 . S
C206 C201 1.399 1_554 S
C206 C204 1.382 . S
C206 H207 0.952 . S
H207 C206 0.952 . S
H208 C204 0.950 . S
H209 C210 0.949 . S
C210 H209 0.949 . S
C210 C211 1.395 . S
C210 C212 1.391 . S
C211 C210 1.395 . S
C211 C214 1.390 . S
C212 C210 1.391 . S
C212 C216 1.387 . S
C212 C217 1.491 . S
H213 C214 0.950 . S
C214 C211 1.390 . S
C214 H213 0.950 . S
C214 C215 1.378 . S
C215 C214 1.378 . S
C215 C216 1.409 . S
C216 C212 1.387 . S
C216 C215 1.409 . S
C216 H218 0.951 . S
C217 C212 1.491 . S
C217 C219 1.382 . S
C217 C221 1.404 . S
H218 C216 0.951 . S
C219 C217 1.382 . S
C219 C220 1.390 . S
C219 H224 0.949 . S
C220 C219 1.390 . S
C220 C225 1.397 . S
C221 C217 1.404 . S
C221 H222 0.950 . S
C221 C223 1.375 1_556 S
H222 C221 0.950 . S
C223 C221 1.375 1_554 S
C223 C225 1.383 1_554 S
C223 H227 0.950 . S
H224 C219 0.949 . S
C225 C220 1.397 . S
C225 C223 1.383 1_556 S
C225 H226 0.954 1_556 S
H226 C225 0.954 1_554 S
H227 C223 0.950 . S
H228 C229 0.949 . S
C229 H228 0.949 . S
C229 C230 1.395 . S
C229 C231 1.391 . S
C230 C229 1.395 . S
C230 C233 1.390 . S
C231 C229 1.391 . S
C231 C235 1.387 . S
C231 C236 1.491 . S
H232 C233 0.950 . S
C233 C230 1.390 . S
C233 H232 0.950 . S
C233 C234 1.378 . S
C234 C233 1.378 . S
C234 C235 1.409 . S
C235 C231 1.387 . S
C235 C234 1.409 . S
C235 H237 0.951 . S
C236 C231 1.491 . S
C236 C238 1.382 . S
C236 C240 1.404 . S
H237 C235 0.951 . S
C238 C236 1.382 . S
C238 C239 1.390 . S
C238 H243 0.949 . S
C239 C238 1.390 . S
C239 C244 1.399 . S
C240 C236 1.404 . S
C240 H241 0.950 . S
C240 C242 1.375 . S
H241 C240 0.950 . S
C242 C240 1.375 . S
C242 C244 1.382 . S
C242 H246 0.950 . S
H243 C238 0.949 . S
C244 C239 1.399 . S
C244 C242 1.382 . S
C244 H245 0.952 . S
H245 C244 0.952 . S
H246 C242 0.950 . S
H247 C248 0.949 . S
C248 H247 0.949 . S
C248 C249 1.395 . S
C248 C250 1.391 . S
C249 C248 1.395 . S
C249 C252 1.390 . S
C250 C248 1.391 . S
C250 C254 1.387 . S
C250 C255 1.491 . S
H251 C252 0.950 . S
C252 C249 1.390 . S
C252 H251 0.950 . S
C252 C253 1.378 . S
C253 C252 1.378 . S
C253 C254 1.409 . S
C254 C250 1.387 . S
C254 C253 1.409 . S
C254 H256 0.951 . S
C255 C250 1.491 . S
C255 C257 1.382 . S
C255 C259 1.404 . S
H256 C254 0.951 . S
C257 C255 1.382 . S
C257 C258 1.390 . S
C257 H262 0.949 . S
C258 C257 1.390 . S
C258 C263 1.399 . S
C259 C255 1.404 . S
C259 H260 0.950 . S
C259 C261 1.375 . S
H260 C259 0.950 . S
C261 C259 1.375 . S
C261 C263 1.382 . S
C261 H265 0.950 . S
H262 C257 0.949 . S
C263 C258 1.399 . S
C263 C261 1.382 . S
C263 H264 0.952 . S
H264 C263 0.952 . S
H265 C261 0.950 . S
H266 C267 0.949 . S
C267 H266 0.949 . S
C267 C268 1.395 . S
C267 C269 1.391 . S
C268 C267 1.395 . S
C268 C271 1.390 . S
C269 C267 1.391 . S
C269 C273 1.387 . S
C269 C274 1.491 . S
H270 C271 0.950 . S
C271 C268 1.390 . S
C271 H270 0.950 . S
C271 C272 1.378 . S
C272 C271 1.378 . S
C272 C273 1.409 . S
C273 C269 1.387 . S
C273 C272 1.409 . S
C273 H275 0.951 . S
C274 C269 1.491 . S
C274 C276 1.382 . S
C274 C278 1.404 . S
H275 C273 0.951 . S
C276 C274 1.382 . S
C276 C277 1.390 . S
C276 H281 0.949 . S
C277 C276 1.390 . S
C277 C282 1.399 . S
C278 C274 1.404 . S
C278 H279 0.950 . S
C278 C280 1.375 . S
H279 C278 0.950 . S
C280 C278 1.375 . S
C280 C282 1.382 . S
C280 H284 0.950 . S
H281 C276 0.949 . S
C282 C277 1.399 . S
C282 C280 1.382 . S
C282 H283 0.952 . S
H283 C282 0.952 . S
H284 C280 0.950 . S
H285 C286 0.949 . S
C286 H285 0.949 . S
C286 C287 1.395 . S
C286 C288 1.391 . S
C287 C286 1.395 . S
C287 C290 1.390 . S
C288 C286 1.391 . S
C288 C292 1.387 . S
C288 C293 1.491 . S
H289 C290 0.950 . S
C290 C287 1.390 . S
C290 H289 0.950 . S
C290 C291 1.378 . S
C291 C290 1.378 . S
C291 C292 1.409 . S
C292 C288 1.387 . S
C292 C291 1.409 . S
C292 H294 0.951 . S
C293 C288 1.491 . S
C293 C295 1.382 . S
C293 C297 1.404 . S
H294 C292 0.951 . S
C295 C293 1.382 . S
C295 C296 1.390 . S
C295 H300 0.949 . S
C296 C295 1.390 . S
C296 C301 1.399 . S
C297 C293 1.404 . S
C297 H298 0.950 . S
C297 C299 1.375 . S
H298 C297 0.950 . S
C299 C297 1.375 . S
C299 C301 1.382 . S
C299 H303 0.950 . S
H300 C295 0.949 . S
C301 C296 1.399 . S
C301 C299 1.382 . S
C301 H302 0.952 . S
H302 C301 0.952 . S
H303 C299 0.950 . S
H304 C305 0.949 . S
C305 H304 0.949 . S
C305 C306 1.395 . S
C305 C307 1.391 . S
C306 C305 1.395 . S
C306 C309 1.390 . S
C307 C305 1.391 . S
C307 C311 1.387 . S
C307 C312 1.491 . S
H308 C309 0.950 . S
C309 C306 1.390 . S
C309 H308 0.950 . S
C309 C310 1.378 . S
C310 C309 1.378 . S
C310 C311 1.409 . S
C311 C307 1.387 . S
C311 C310 1.409 . S
C311 H313 0.951 . S
C312 C307 1.491 . S
C312 C314 1.382 . S
C312 C316 1.404 . S
H313 C311 0.951 . S
C314 C312 1.382 . S
C314 C315 1.390 . S
C314 H319 0.949 . S
C315 C314 1.390 . S
C315 C320 1.399 . S
C316 C312 1.404 . S
C316 H317 0.950 . S
C316 C318 1.375 . S
H317 C316 0.950 . S
C318 C316 1.375 . S
C318 C320 1.382 . S
C318 H322 0.950 . S
H319 C314 0.949 . S
C320 C315 1.399 . S
C320 C318 1.382 . S
C320 H321 0.952 . S
H321 C320 0.952 . S
H322 C318 0.950 . S
H323 C324 0.949 . S
C324 H323 0.949 . S
C324 C325 1.395 . S
C324 C326 1.391 . S
C325 C324 1.395 . S
C325 C328 1.390 . S
C326 C324 1.391 . S
C326 C330 1.387 . S
C326 C331 1.491 . S
H327 C328 0.950 . S
C328 C325 1.390 . S
C328 H327 0.950 . S
C328 C329 1.378 . S
C329 C328 1.378 . S
C329 C330 1.409 . S
C330 C326 1.387 . S
C330 C329 1.409 . S
C330 H332 0.951 . S
C331 C326 1.491 . S
C331 C333 1.382 . S
C331 C335 1.404 . S
H332 C330 0.951 . S
C333 C331 1.382 . S
C333 C334 1.390 . S
C333 H338 0.949 . S
C334 C333 1.390 . S
C334 C339 1.399 . S
C335 C331 1.404 . S
C335 H336 0.950 . S
C335 C337 1.375 . S
H336 C335 0.950 . S
C337 C335 1.375 . S
C337 C339 1.382 . S
C337 H341 0.950 . S
H338 C333 0.949 . S
C339 C334 1.399 . S
C339 C337 1.382 . S
C339 H340 0.952 . S
H340 C339 0.952 . S
H341 C337 0.950 . S
Gd342 N373 2.661 . S
Gd342 N379 2.601 . S
Gd342 O386 2.545 . S
Gd342 O387 2.606 1_545 S
Gd342 O389 2.429 . S
Gd342 O390 2.545 1_545 S
Gd342 O391 2.412 1_545 S
Gd342 O393 2.362 . S
Gd342 O394 2.324 1_545 S
Gd342 C401 2.828 1_545 S
Gd343 N352 2.661 . S
Gd343 N356 2.601 . S
Gd343 O387 2.362 1_556 S
Gd343 O388 2.324 1_565 S
Gd343 O392 2.545 . S
Gd343 O393 2.606 1_566 S
Gd343 O395 2.429 . S
Gd343 O396 2.545 1_565 S
Gd343 O397 2.412 1_565 S
Gd343 C410 2.828 1_565 S
C344 C347 1.417 . S
C344 C349 1.431 . S
C344 C350 1.412 . S
C345 C348 1.437 . S
C345 C349 1.317 . S
C345 H364 0.929 . S
C346 C347 1.426 . S
C346 C348 1.413 . S
C346 N356 1.359 . S
C347 C344 1.417 . S
C347 C346 1.426 . S
C347 N352 1.350 . S
C348 C345 1.437 . S
C348 C346 1.413 . S
C348 C358 1.391 . S
C349 C344 1.431 . S
C349 C345 1.317 . S
C349 H360 0.930 . S
C350 C344 1.412 . S
C350 C351 1.355 . S
C350 H362 0.930 . S
C351 C350 1.355 . S
C351 C353 1.402 . S
C351 H363 0.930 . S
N352 Gd343 2.661 . S
N352 C347 1.350 . S
N352 C353 1.307 . S
C353 C351 1.402 . S
C353 N352 1.307 . S
C353 H354 0.930 . S
H354 C353 0.930 . S
C355 N356 1.334 . S
C355 C357 1.394 . S
C355 H359 0.930 . S
N356 Gd343 2.601 . S
N356 C346 1.359 . S
N356 C355 1.334 . S
C357 C355 1.394 . S
C357 C358 1.359 . S
C357 H369 0.930 . S
C358 C348 1.391 . S
C358 C357 1.359 . S
C358 H370 0.929 . S
H359 C355 0.930 . S
H360 C349 0.930 . S
H361 C378 0.930 . S
H362 C350 0.930 . S
H363 C351 0.930 . S
H364 C345 0.929 . S
H365 C383 0.930 . S
H366 C374 0.930 . S
H367 C375 0.930 . S
H368 C399 0.929 . S
H369 C357 0.930 . S
H370 C358 0.929 . S
H371 C400 0.930 . S
H372 C381 0.930 . S
N373 Gd342 2.661 . S
N373 C377 1.350 . S
N373 C378 1.307 . S
C374 H366 0.930 . S
C374 C375 1.355 . S
C374 C376 1.412 . S
C375 H367 0.930 . S
C375 C374 1.355 . S
C375 C378 1.402 . S
C376 C374 1.412 . S
C376 C377 1.417 . S
C376 C400 1.431 . S
C377 N373 1.350 . S
C377 C376 1.417 . S
C377 C380 1.426 . S
C378 H361 0.930 . S
C378 N373 1.307 . S
C378 C375 1.402 . S
N379 Gd342 2.601 . S
N379 C380 1.359 . S
N379 C383 1.334 . S
C380 C377 1.426 . S
C380 N379 1.359 . S
C380 C384 1.413 . S
C381 H372 0.930 . S
C381 C382 1.359 . S
C381 C383 1.394 . S
C382 C381 1.359 . S
C382 C384 1.391 . S
C382 H385 0.929 . S
C383 H365 0.930 . S
C383 N379 1.334 . S
C383 C381 1.394 . S
C384 C380 1.413 . S
C384 C382 1.391 . S
C384 C399 1.437 . S
H385 C382 0.929 . S
O386 Gd342 2.545 . S
O386 C401 1.255 1_545 S
O387 Gd342 2.606 1_565 S
O387 Gd343 2.362 1_554 S
O387 C398 1.284 . S
O388 Gd343 2.324 1_545 S
O388 C408 1.254 1_556 S
O389 Gd342 2.429 . S
O389 C408 1.268 . S
O390 Gd342 2.545 1_565 S
O390 C398 1.250 . S
O391 Gd342 2.412 1_565 S
O391 C401 1.254 . S
O392 Gd343 2.545 . S
O392 C410 1.258 1_565 S
O393 Gd342 2.362 . S
O393 Gd343 2.606 1_544 S
O393 C409 1.284 1_554 S
O394 Gd342 2.324 1_565 S
O394 C417 1.254 . S
O395 Gd343 2.429 . S
O395 C417 1.268 1_556 S
O396 Gd343 2.545 1_545 S
O396 C409 1.250 . S
O397 Gd343 2.412 1_545 S
O397 C410 1.252 . S
C398 O387 1.284 . S
C398 O390 1.250 . S
C399 H368 0.929 . S
C399 C384 1.437 . S
C399 C400 1.317 . S
C400 H371 0.930 . S
C400 C376 1.431 . S
C400 C399 1.317 . S
C401 Gd342 2.828 1_565 S
C401 O386 1.255 1_565 S
C401 O391 1.254 . S
C401 C402 1.497 . S
C402 C401 1.497 . S
C402 C403 1.395 1_565 S
C402 C404 1.380 . S
C403 C402 1.395 1_545 S
C403 C406 1.398 1_545 S
C403 H418 0.930 . S
C404 C402 1.380 . S
C404 C405 1.391 . S
C404 H419 0.930 . S
C405 C404 1.391 . S
C405 C407 1.387 . S
C406 C403 1.398 1_565 S
C406 C407 1.380 . S
C406 H420 0.930 1_565 S
C407 C405 1.387 . S
C407 C406 1.380 . S
C407 H421 0.930 . S
C408 O388 1.254 1_554 S
C408 O389 1.268 . S
C409 O393 1.284 1_556 S
C409 O396 1.250 . S
C410 Gd343 2.828 1_545 S
C410 O392 1.258 1_545 S
C410 O397 1.252 . S
C410 C411 1.497 . S
C411 C410 1.497 . S
C411 C412 1.395 1_545 S
C411 C413 1.380 . S
C412 C411 1.395 1_565 S
C412 C415 1.398 1_565 S
C412 H422 0.930 . S
C413 C411 1.380 . S
C413 C414 1.391 . S
C413 H423 0.930 . S
C414 C413 1.391 . S
C414 C416 1.387 . S
C415 C412 1.398 1_545 S
C415 C416 1.380 . S
C415 H424 0.930 1_545 S
C416 C414 1.387 . S
C416 C415 1.380 . S
C416 H425 0.930 . S
C417 O394 1.254 . S
C417 O395 1.268 1_554 S
H418 C403 0.930 . S
H419 C404 0.930 . S
H420 C406 0.930 1_545 S
H421 C407 0.930 . S
H422 C412 0.930 . S
H423 C413 0.930 . S
H424 C415 0.930 1_565 S
H425 C416 0.930 . S
Gd426 N457 2.661 . S
Gd426 N463 2.601 . S
Gd426 O470 2.545 . S
Gd426 O471 2.606 1_655 S
Gd426 O473 2.429 . S
Gd426 O474 2.545 1_655 S
Gd426 O475 2.412 1_655 S
Gd426 O477 2.362 . S
Gd426 O478 2.324 1_655 S
Gd426 C485 2.828 1_655 S
Gd427 N436 2.661 . S
Gd427 N440 2.601 . S
Gd427 O471 2.362 1_556 S
Gd427 O472 2.324 1_455 S
Gd427 O476 2.545 . S
Gd427 O477 2.606 1_456 S
Gd427 O479 2.429 . S
Gd427 O480 2.545 1_455 S
Gd427 O481 2.412 1_455 S
Gd427 C494 2.828 . S
C428 C431 1.417 . S
C428 C433 1.431 . S
C428 C434 1.412 . S
C429 C432 1.437 . S
C429 C433 1.317 . S
C429 H448 0.929 . S
C430 C431 1.426 . S
C430 C432 1.413 . S
C430 N440 1.359 . S
C431 C428 1.417 . S
C431 C430 1.426 . S
C431 N436 1.350 . S
C432 C429 1.437 . S
C432 C430 1.413 . S
C432 C442 1.391 . S
C433 C428 1.431 . S
C433 C429 1.317 . S
C433 H444 0.930 . S
C434 C428 1.412 . S
C434 C435 1.355 . S
C434 H446 0.930 . S
C435 C434 1.355 . S
C435 C437 1.402 . S
C435 H447 0.930 . S
N436 Gd427 2.661 . S
N436 C431 1.350 . S
N436 C437 1.307 . S
C437 C435 1.402 . S
C437 N436 1.307 . S
C437 H438 0.930 . S
H438 C437 0.930 . S
C439 N440 1.334 . S
C439 C441 1.394 . S
C439 H443 0.930 . S
N440 Gd427 2.601 . S
N440 C430 1.359 . S
N440 C439 1.334 . S
C441 C439 1.394 . S
C441 C442 1.359 . S
C441 H453 0.930 . S
C442 C432 1.391 . S
C442 C441 1.359 . S
C442 H454 0.929 . S
H443 C439 0.930 . S
H444 C433 0.930 . S
H445 C462 0.930 . S
H446 C434 0.930 . S
H447 C435 0.930 . S
H448 C429 0.929 . S
H449 C467 0.930 . S
H450 C458 0.930 . S
H451 C459 0.930 . S
H452 C483 0.929 . S
H453 C441 0.930 . S
H454 C442 0.929 . S
H455 C484 0.930 . S
H456 C465 0.930 . S
N457 Gd426 2.661 . S
N457 C461 1.350 . S
N457 C462 1.307 . S
C458 H450 0.930 . S
C458 C459 1.355 . S
C458 C460 1.412 . S
C459 H451 0.930 . S
C459 C458 1.355 . S
C459 C462 1.402 . S
C460 C458 1.412 . S
C460 C461 1.417 . S
C460 C484 1.431 . S
C461 N457 1.350 . S
C461 C460 1.417 . S
C461 C464 1.426 . S
C462 H445 0.930 . S
C462 N457 1.307 . S
C462 C459 1.402 . S
N463 Gd426 2.601 . S
N463 C464 1.359 . S
N463 C467 1.334 . S
C464 C461 1.426 . S
C464 N463 1.359 . S
C464 C468 1.413 . S
C465 H456 0.930 . S
C465 C466 1.359 . S
C465 C467 1.394 . S
C466 C465 1.359 . S
C466 C468 1.391 . S
C466 H469 0.929 . S
C467 H449 0.930 . S
C467 N463 1.334 . S
C467 C465 1.394 . S
C468 C464 1.413 . S
C468 C466 1.391 . S
C468 C483 1.437 . S
H469 C466 0.929 . S
O470 Gd426 2.545 . S
O470 C485 1.258 1_655 S
O471 Gd426 2.606 1_455 S
O471 Gd427 2.362 1_554 S
O471 C482 1.284 . S
O472 Gd427 2.324 1_655 S
O472 C492 1.256 . S
O473 Gd426 2.429 . S
O473 C492 1.265 1_554 S
O474 Gd426 2.545 1_455 S
O474 C482 1.250 . S
O475 Gd426 2.412 1_455 S
O475 C485 1.252 . S
O476 Gd427 2.545 . S
O476 C494 1.258 . S
O477 Gd426 2.362 . S
O477 Gd427 2.606 1_654 S
O477 C493 1.284 1_554 S
O478 Gd426 2.324 1_455 S
O478 C501 1.254 . S
O479 Gd427 2.429 . S
O479 C501 1.268 1_556 S
O480 Gd427 2.545 1_655 S
O480 C493 1.250 . S
O481 Gd427 2.412 1_655 S
O481 C494 1.252 1_655 S
C482 O471 1.284 . S
C482 O474 1.250 . S
C483 H452 0.929 . S
C483 C468 1.437 . S
C483 C484 1.317 . S
C484 H455 0.930 . S
C484 C460 1.431 . S
C484 C483 1.317 . S
C485 Gd426 2.828 1_455 S
C485 O470 1.258 1_455 S
C485 O475 1.252 . S
C485 C486 1.497 . S
C486 C485 1.497 . S
C486 C487 1.395 1_455 S
C486 C488 1.380 . S
C487 C486 1.395 1_655 S
C487 C490 1.398 1_655 S
C487 H502 0.930 . S
C488 C486 1.380 . S
C488 C489 1.391 . S
C488 H503 0.930 . S
C489 C488 1.391 . S
C489 C491 1.387 . S
C490 C487 1.398 1_455 S
C490 C491 1.380 . S
C490 H504 0.930 1_455 S
C491 C489 1.387 . S
C491 C490 1.380 . S
C491 H505 0.930 . S
C492 O472 1.256 . S
C492 O473 1.265 1_556 S
C493 O477 1.284 1_556 S
C493 O480 1.250 . S
C494 Gd427 2.828 . S
C494 O476 1.258 . S
C494 O481 1.252 1_455 S
C494 C495 1.497 1_455 S
C495 C494 1.497 1_655 S
C495 C496 1.395 1_655 S
C495 C497 1.380 . S
C496 C495 1.395 1_455 S
C496 C499 1.398 . S
C496 H506 0.930 . S
C497 C495 1.380 . S
C497 C498 1.391 . S
C497 H507 0.930 . S
C498 C497 1.391 . S
C498 C500 1.387 . S
C499 C496 1.398 . S
C499 C500 1.380 1_455 S
C499 H508 0.930 . S
C500 C498 1.387 . S
C500 C499 1.380 1_655 S
C500 H509 0.930 . S
C501 O478 1.254 . S
C501 O479 1.268 1_554 S
H502 C487 0.930 . S
H503 C488 0.930 . S
H504 C490 0.930 1_655 S
H505 C491 0.930 . S
H506 C496 0.930 . S
H507 C497 0.930 . S
H508 C499 0.930 . S
H509 C500 0.930 . S
Gd510 N541 2.661 . S
Gd510 N547 2.601 . S
Gd510 O554 2.545 . S
Gd510 O555 2.606 1_556 S
Gd510 O557 2.429 . S
Gd510 O558 2.545 . S
Gd510 O559 2.412 . S
Gd510 O561 2.362 1_556 S
Gd510 O562 2.324 . S
Gd510 C569 2.828 . S
Gd511 N520 2.661 . S
Gd511 N524 2.601 . S
Gd511 O555 2.362 . S
Gd511 O556 2.324 . S
Gd511 O560 2.545 . S
Gd511 O561 2.606 . S
Gd511 O563 2.429 . S
Gd511 O564 2.545 . S
Gd511 O565 2.412 . S
Gd511 C578 2.828 . S
C512 C515 1.417 . S
C512 C517 1.431 . S
C512 C518 1.412 . S
C513 C516 1.437 . S
C513 C517 1.317 . S
C513 H532 0.929 . S
C514 C515 1.426 . S
C514 C516 1.413 . S
C514 N524 1.359 . S
C515 C512 1.417 . S
C515 C514 1.426 . S
C515 N520 1.350 . S
C516 C513 1.437 . S
C516 C514 1.413 . S
C516 C526 1.391 . S
C517 C512 1.431 . S
C517 C513 1.317 . S
C517 H528 0.930 . S
C518 C512 1.412 . S
C518 C519 1.355 . S
C518 H530 0.930 . S
C519 C518 1.355 . S
C519 C521 1.402 . S
C519 H531 0.930 . S
N520 Gd511 2.661 . S
N520 C515 1.350 . S
N520 C521 1.307 . S
C521 C519 1.402 . S
C521 N520 1.307 . S
C521 H522 0.930 . S
H522 C521 0.930 . S
C523 N524 1.334 . S
C523 C525 1.394 . S
C523 H527 0.930 . S
N524 Gd511 2.601 . S
N524 C514 1.359 . S
N524 C523 1.334 . S
C525 C523 1.394 . S
C525 C526 1.359 . S
C525 H537 0.930 . S
C526 C516 1.391 . S
C526 C525 1.359 . S
C526 H538 0.929 . S
H527 C523 0.930 . S
H528 C517 0.930 . S
H529 C546 0.930 . S
H530 C518 0.930 . S
H531 C519 0.930 . S
H532 C513 0.929 . S
H533 C551 0.930 . S
H534 C542 0.930 . S
H535 C543 0.930 . S
H536 C567 0.929 . S
H537 C525 0.930 . S
H538 C526 0.929 . S
H539 C568 0.930 . S
H540 C549 0.930 . S
N541 Gd510 2.661 . S
N541 C545 1.350 . S
N541 C546 1.307 . S
C542 H534 0.930 . S
C542 C543 1.355 . S
C542 C544 1.412 . S
C543 H535 0.930 . S
C543 C542 1.355 . S
C543 C546 1.402 . S
C544 C542 1.412 . S
C544 C545 1.417 . S
C544 C568 1.431 . S
C545 N541 1.350 . S
C545 C544 1.417 . S
C545 C548 1.426 . S
C546 H529 0.930 . S
C546 N541 1.307 . S
C546 C543 1.402 . S
N547 Gd510 2.601 . S
N547 C548 1.359 . S
N547 C551 1.334 . S
C548 C545 1.426 . S
C548 N547 1.359 . S
C548 C552 1.413 . S
C549 H540 0.930 . S
C549 C550 1.359 . S
C549 C551 1.394 . S
C550 C549 1.359 . S
C550 C552 1.391 . S
C550 H553 0.929 . S
C551 H533 0.930 . S
C551 N547 1.334 . S
C551 C549 1.394 . S
C552 C548 1.413 . S
C552 C550 1.391 . S
C552 C567 1.437 . S
H553 C550 0.929 . S
O554 Gd510 2.545 . S
O554 C569 1.258 . S
O555 Gd510 2.606 1_554 S
O555 Gd511 2.362 . S
O555 C566 1.284 1_554 S
O556 Gd511 2.324 . S
O556 C576 1.254 . S
O557 Gd510 2.429 . S
O557 C576 1.268 1_556 S
O558 Gd510 2.545 . S
O558 C566 1.250 . S
O559 Gd510 2.412 . S
O559 C569 1.252 . S
O560 Gd511 2.545 . S
O560 C578 1.258 . S
O561 Gd510 2.362 1_554 S
O561 Gd511 2.606 . S
O561 C577 1.284 . S
O562 Gd510 2.324 . S
O562 C585 1.254 1_556 S
O563 Gd511 2.429 . S
O563 C585 1.268 . S
O564 Gd511 2.545 . S
O564 C577 1.250 . S
O565 Gd511 2.412 . S
O565 C578 1.252 . S
C566 O555 1.284 1_556 S
C566 O558 1.250 . S
C567 H536 0.929 . S
C567 C552 1.437 . S
C567 C568 1.317 . S
C568 H539 0.930 . S
C568 C544 1.431 . S
C568 C567 1.317 . S
C569 Gd510 2.828 . S
C569 O554 1.258 . S
C569 O559 1.252 . S
C569 C570 1.497 . S
C570 C569 1.497 . S
C570 C571 1.395 . S
C570 C572 1.380 . S
C571 C570 1.395 . S
C571 C574 1.398 . S
C571 H586 0.930 . S
C572 C570 1.380 . S
C572 C573 1.391 . S
C572 H587 0.930 . S
C573 C572 1.391 . S
C573 C575 1.387 . S
C574 C571 1.398 . S
C574 C575 1.380 . S
C574 H588 0.930 . S
C575 C573 1.387 . S
C575 C574 1.380 . S
C575 H589 0.930 . S
C576 O556 1.254 . S
C576 O557 1.268 1_554 S
C577 O561 1.284 . S
C577 O564 1.250 . S
C578 Gd511 2.828 . S
C578 O560 1.258 . S
C578 O565 1.252 . S
C578 C579 1.497 . S
C579 C578 1.497 . S
C579 C580 1.395 . S
C579 C581 1.380 . S
C580 C579 1.395 . S
C580 C583 1.398 . S
C580 H590 0.930 . S
C581 C579 1.380 . S
C581 C582 1.391 . S
C581 H591 0.930 . S
C582 C581 1.391 . S
C582 C584 1.387 . S
C583 C580 1.398 . S
C583 C584 1.380 . S
C583 H592 0.930 . S
C584 C582 1.387 . S
C584 C583 1.380 . S
C584 H593 0.930 . S
C585 O562 1.254 1_554 S
C585 O563 1.268 . S
H586 C571 0.930 . S
H587 C572 0.930 . S
H588 C574 0.930 . S
H589 C575 0.930 . S
H590 C580 0.930 . S
H591 C581 0.930 . S
H592 C583 0.930 . S
H593 C584 0.930 . S
Gd594 N625 2.661 . S
Gd594 N631 2.601 . S
Gd594 O638 2.545 . S
Gd594 O639 2.606 . S
Gd594 O641 2.429 . S
Gd594 O642 2.545 . S
Gd594 O643 2.412 . S
Gd594 O645 2.362 . S
Gd594 O646 2.324 . S
Gd594 C653 2.828 . S
Gd595 N604 2.661 . S
Gd595 N608 2.601 . S
Gd595 O639 2.362 . S
Gd595 O640 2.324 . S
Gd595 O644 2.545 . S
Gd595 O645 2.606 . S
Gd595 O647 2.429 . S
Gd595 O648 2.545 . S
Gd595 O649 2.412 . S
Gd595 C662 2.828 . S
C596 C599 1.417 1_655 S
C596 C601 1.431 . S
C596 C602 1.412 . S
C597 C600 1.437 1_655 S
C597 C601 1.317 . S
C597 H616 0.929 . S
C598 C599 1.426 . S
C598 C600 1.413 . S
C598 N608 1.359 . S
C599 C596 1.417 1_455 S
C599 C598 1.426 . S
C599 N604 1.350 . S
C600 C597 1.437 1_455 S
C600 C598 1.413 . S
C600 C610 1.391 . S
C601 C596 1.431 . S
C601 C597 1.317 . S
C601 H612 0.930 . S
C602 C596 1.412 . S
C602 C603 1.355 . S
C602 H614 0.930 . S
C603 C602 1.355 . S
C603 C605 1.402 1_655 S
C603 H615 0.930 . S
N604 Gd595 2.661 . S
N604 C599 1.350 . S
N604 C605 1.307 . S
C605 C603 1.402 1_455 S
C605 N604 1.307 . S
C605 H606 0.930 . S
H606 C605 0.930 . S
C607 N608 1.334 . S
C607 C609 1.394 . S
C607 H611 0.930 . S
N608 Gd595 2.601 . S
N608 C598 1.359 . S
N608 C607 1.334 . S
C609 C607 1.394 . S
C609 C610 1.359 . S
C609 H621 0.930 . S
C610 C600 1.391 . S
C610 C609 1.359 . S
C610 H622 0.929 . S
H611 C607 0.930 . S
H612 C601 0.930 . S
H613 C630 0.930 . S
H614 C602 0.930 . S
H615 C603 0.930 . S
H616 C597 0.929 . S
H617 C635 0.930 . S
H618 C626 0.930 . S
H619 C627 0.930 . S
H620 C651 0.929 . S
H621 C609 0.930 . S
H622 C610 0.929 . S
H623 C652 0.930 . S
H624 C633 0.930 . S
N625 Gd594 2.661 . S
N625 C629 1.350 . S
N625 C630 1.307 . S
C626 H618 0.930 . S
C626 C627 1.355 . S
C626 C628 1.412 . S
C627 H619 0.930 . S
C627 C626 1.355 . S
C627 C630 1.402 . S
C628 C626 1.412 . S
C628 C629 1.417 . S
C628 C652 1.431 . S
C629 N625 1.350 . S
C629 C628 1.417 . S
C629 C632 1.426 . S
C630 H613 0.930 . S
C630 N625 1.307 . S
C630 C627 1.402 . S
N631 Gd594 2.601 . S
N631 C632 1.359 . S
N631 C635 1.334 . S
C632 C629 1.426 . S
C632 N631 1.359 . S
C632 C636 1.413 . S
C633 H624 0.930 . S
C633 C634 1.359 . S
C633 C635 1.394 . S
C634 C633 1.359 . S
C634 C636 1.391 . S
C634 H637 0.929 . S
C635 H617 0.930 . S
C635 N631 1.334 . S
C635 C633 1.394 . S
C636 C632 1.413 . S
C636 C634 1.391 . S
C636 C651 1.437 . S
H637 C634 0.929 . S
O638 Gd594 2.545 . S
O638 C653 1.258 . S
O639 Gd594 2.606 . S
O639 Gd595 2.362 . S
O639 C650 1.284 . S
O640 Gd595 2.324 . S
O640 C660 1.254 . S
O641 Gd594 2.429 . S
O641 C660 1.268 . S
O642 Gd594 2.545 . S
O642 C650 1.250 . S
O643 Gd594 2.412 . S
O643 C653 1.252 . S
O644 Gd595 2.545 . S
O644 C662 1.258 . S
O645 Gd594 2.362 . S
O645 Gd595 2.606 . S
O645 C661 1.284 . S
O646 Gd594 2.324 . S
O646 C669 1.254 . S
O647 Gd595 2.429 . S
O647 C669 1.268 . S
O648 Gd595 2.545 . S
O648 C661 1.250 . S
O649 Gd595 2.412 . S
O649 C662 1.252 . S
C650 O639 1.284 . S
C650 O642 1.250 . S
C651 H620 0.929 . S
C651 C636 1.437 . S
C651 C652 1.317 . S
C652 H623 0.930 . S
C652 C628 1.431 . S
C652 C651 1.317 . S
C653 Gd594 2.828 . S
C653 O638 1.258 . S
C653 O643 1.252 . S
C653 C654 1.497 . S
C654 C653 1.497 . S
C654 C655 1.395 . S
C654 C656 1.380 . S
C655 C654 1.395 . S
C655 C658 1.398 . S
C655 H670 0.930 . S
C656 C654 1.380 . S
C656 C657 1.391 . S
C656 H671 0.930 . S
C657 C656 1.391 . S
C657 C659 1.387 . S
C658 C655 1.398 . S
C658 C659 1.380 . S
C658 H672 0.930 . S
C659 C657 1.387 . S
C659 C658 1.380 . S
C659 H673 0.930 . S
C660 O640 1.254 . S
C660 O641 1.268 . S
C661 O645 1.284 . S
C661 O648 1.250 . S
C662 Gd595 2.828 . S
C662 O644 1.258 . S
C662 O649 1.252 . S
C662 C663 1.497 . S
C663 C662 1.497 . S
C663 C664 1.395 . S
C663 C665 1.380 . S
C664 C663 1.395 . S
C664 C667 1.398 . S
C664 H674 0.930 . S
C665 C663 1.380 . S
C665 C666 1.391 . S
C665 H675 0.930 . S
C666 C665 1.391 . S
C666 C668 1.387 . S
C667 C664 1.398 . S
C667 C668 1.380 . S
C667 H676 0.930 . S
C668 C666 1.387 . S
C668 C667 1.380 . S
C668 H677 0.930 . S
C669 O646 1.254 . S
C669 O647 1.268 . S
H670 C655 0.930 . S
H671 C656 0.930 . S
H672 C658 0.930 . S
H673 C659 0.930 . S
H674 C664 0.930 . S
H675 C665 0.930 . S
H676 C667 0.930 . S
H677 C668 0.930 . S
Gd678 N709 2.661 . S
Gd678 N715 2.601 . S
Gd678 O722 2.545 . S
Gd678 O723 2.606 . S
Gd678 O725 2.429 . S
Gd678 O726 2.545 . S
Gd678 O727 2.412 . S
Gd678 O729 2.362 . S
Gd678 O730 2.324 . S
Gd678 C737 2.828 . S
Gd679 N688 2.661 . S
Gd679 N692 2.601 . S
Gd679 O723 2.362 . S
Gd679 O724 2.324 . S
Gd679 O728 2.545 . S
Gd679 O729 2.606 . S
Gd679 O731 2.429 . S
Gd679 O732 2.545 . S
Gd679 O733 2.412 . S
Gd679 C746 2.828 . S
C680 C683 1.417 . S
C680 C685 1.431 . S
C680 C686 1.412 . S
C681 C684 1.437 . S
C681 C685 1.317 . S
C681 H700 0.929 . S
C682 C683 1.426 . S
C682 C684 1.413 . S
C682 N692 1.359 . S
C683 C680 1.417 . S
C683 C682 1.426 . S
C683 N688 1.350 . S
C684 C681 1.437 . S
C684 C682 1.413 . S
C684 C694 1.391 . S
C685 C680 1.431 . S
C685 C681 1.317 . S
C685 H696 0.930 . S
C686 C680 1.412 . S
C686 C687 1.355 . S
C686 H698 0.930 . S
C687 C686 1.355 . S
C687 C689 1.402 . S
C687 H699 0.930 . S
N688 Gd679 2.661 . S
N688 C683 1.350 . S
N688 C689 1.307 . S
C689 C687 1.402 . S
C689 N688 1.307 . S
C689 H690 0.930 . S
H690 C689 0.930 . S
C691 N692 1.334 . S
C691 C693 1.394 . S
C691 H695 0.930 . S
N692 Gd679 2.601 . S
N692 C682 1.359 . S
N692 C691 1.334 . S
C693 C691 1.394 . S
C693 C694 1.359 . S
C693 H705 0.930 . S
C694 C684 1.391 . S
C694 C693 1.359 . S
C694 H706 0.929 . S
H695 C691 0.930 . S
H696 C685 0.930 . S
H697 C714 0.930 . S
H698 C686 0.930 . S
H699 C687 0.930 . S
H700 C681 0.929 . S
H701 C719 0.930 . S
H702 C710 0.930 . S
H703 C711 0.930 . S
H704 C735 0.929 . S
H705 C693 0.930 . S
H706 C694 0.929 . S
H707 C736 0.930 . S
H708 C717 0.930 . S
N709 Gd678 2.661 . S
N709 C713 1.350 . S
N709 C714 1.307 . S
C710 H702 0.930 . S
C710 C711 1.355 . S
C710 C712 1.412 . S
C711 H703 0.930 . S
C711 C710 1.355 . S
C711 C714 1.402 . S
C712 C710 1.412 . S
C712 C713 1.417 . S
C712 C736 1.431 . S
C713 N709 1.350 . S
C713 C712 1.417 . S
C713 C716 1.426 . S
C714 H697 0.930 . S
C714 N709 1.307 . S
C714 C711 1.402 . S
N715 Gd678 2.601 . S
N715 C716 1.359 . S
N715 C719 1.334 . S
C716 C713 1.426 . S
C716 N715 1.359 . S
C716 C720 1.413 . S
C717 H708 0.930 . S
C717 C718 1.359 . S
C717 C719 1.394 . S
C718 C717 1.359 . S
C718 C720 1.391 . S
C718 H721 0.929 . S
C719 H701 0.930 . S
C719 N715 1.334 . S
C719 C717 1.394 . S
C720 C716 1.413 . S
C720 C718 1.391 . S
C720 C735 1.437 . S
H721 C718 0.929 . S
O722 Gd678 2.545 . S
O722 C737 1.258 . S
O723 Gd678 2.606 . S
O723 Gd679 2.362 . S
O723 C734 1.284 . S
O724 Gd679 2.324 . S
O724 C744 1.254 . S
O725 Gd678 2.429 . S
O725 C744 1.268 . S
O726 Gd678 2.545 . S
O726 C734 1.250 . S
O727 Gd678 2.412 . S
O727 C737 1.252 . S
O728 Gd679 2.545 . S
O728 C746 1.258 . S
O729 Gd678 2.362 . S
O729 Gd679 2.606 . S
O729 C745 1.284 . S
O730 Gd678 2.324 . S
O730 C753 1.254 . S
O731 Gd679 2.429 . S
O731 C753 1.268 . S
O732 Gd679 2.545 . S
O732 C745 1.250 . S
O733 Gd679 2.412 . S
O733 C746 1.252 . S
C734 O723 1.284 . S
C734 O726 1.250 . S
C735 H704 0.929 . S
C735 C720 1.437 . S
C735 C736 1.317 . S
C736 H707 0.930 . S
C736 C712 1.431 . S
C736 C735 1.317 . S
C737 Gd678 2.828 . S
C737 O722 1.258 . S
C737 O727 1.252 . S
C737 C738 1.497 . S
C738 C737 1.497 . S
C738 C739 1.395 . S
C738 C740 1.380 . S
C739 C738 1.395 . S
C739 C742 1.398 . S
C739 H754 0.930 . S
C740 C738 1.380 . S
C740 C741 1.391 . S
C740 H755 0.930 . S
C741 C740 1.391 . S
C741 C743 1.387 . S
C742 C739 1.398 . S
C742 C743 1.380 . S
C742 H756 0.930 . S
C743 C741 1.387 . S
C743 C742 1.380 . S
C743 H757 0.930 . S
C744 O724 1.254 . S
C744 O725 1.268 . S
C745 O729 1.284 . S
C745 O732 1.250 . S
C746 Gd679 2.828 . S
C746 O728 1.258 . S
C746 O733 1.252 . S
C746 C747 1.497 . S
C747 C746 1.497 . S
C747 C748 1.395 . S
C747 C749 1.380 . S
C748 C747 1.395 . S
C748 C751 1.398 . S
C748 H758 0.930 . S
C749 C747 1.380 . S
C749 C750 1.391 . S
C749 H759 0.930 . S
C750 C749 1.391 . S
C750 C752 1.387 . S
C751 C748 1.398 . S
C751 C752 1.380 . S
C751 H760 0.930 . S
C752 C750 1.387 . S
C752 C751 1.380 . S
C752 H761 0.930 . S
C753 O730 1.254 . S
C753 O731 1.268 . S
H754 C739 0.930 . S
H755 C740 0.930 . S
H756 C742 0.930 . S
H757 C743 0.930 . S
H758 C748 0.930 . S
H759 C749 0.930 . S
H760 C751 0.930 . S
H761 C752 0.930 . S
Gd762 N793 2.661 . S
Gd762 N799 2.601 . S
Gd762 O806 2.545 . S
Gd762 O807 2.606 . S
Gd762 O809 2.429 . S
Gd762 O810 2.545 . S
Gd762 O811 2.412 . S
Gd762 O813 2.362 . S
Gd762 O814 2.324 . S
Gd762 C821 2.828 . S
Gd763 N772 2.661 . S
Gd763 N776 2.601 . S
Gd763 O807 2.362 . S
Gd763 O808 2.324 . S
Gd763 O812 2.545 . S
Gd763 O813 2.606 . S
Gd763 O815 2.429 . S
Gd763 O816 2.545 . S
Gd763 O817 2.412 . S
Gd763 C830 2.828 . S
C764 C767 1.417 . S
C764 C769 1.431 . S
C764 C770 1.412 . S
C765 C768 1.437 . S
C765 C769 1.317 . S
C765 H784 0.929 . S
C766 C767 1.426 . S
C766 C768 1.413 . S
C766 N776 1.359 . S
C767 C764 1.417 . S
C767 C766 1.426 . S
C767 N772 1.350 . S
C768 C765 1.437 . S
C768 C766 1.413 . S
C768 C778 1.391 . S
C769 C764 1.431 . S
C769 C765 1.317 . S
C769 H780 0.930 . S
C770 C764 1.412 . S
C770 C771 1.355 . S
C770 H782 0.930 . S
C771 C770 1.355 . S
C771 C773 1.402 . S
C771 H783 0.930 . S
N772 Gd763 2.661 . S
N772 C767 1.350 . S
N772 C773 1.307 . S
C773 C771 1.402 . S
C773 N772 1.307 . S
C773 H774 0.930 . S
H774 C773 0.930 . S
C775 N776 1.334 . S
C775 C777 1.394 . S
C775 H779 0.930 . S
N776 Gd763 2.601 . S
N776 C766 1.359 . S
N776 C775 1.334 . S
C777 C775 1.394 . S
C777 C778 1.359 . S
C777 H789 0.930 . S
C778 C768 1.391 . S
C778 C777 1.359 . S
C778 H790 0.929 . S
H779 C775 0.930 . S
H780 C769 0.930 . S
H781 C798 0.930 . S
H782 C770 0.930 . S
H783 C771 0.930 . S
H784 C765 0.929 . S
H785 C803 0.930 . S
H786 C794 0.930 . S
H787 C795 0.930 . S
H788 C819 0.929 . S
H789 C777 0.930 . S
H790 C778 0.929 . S
H791 C820 0.930 . S
H792 C801 0.930 . S
N793 Gd762 2.661 . S
N793 C797 1.350 . S
N793 C798 1.307 . S
C794 H786 0.930 . S
C794 C795 1.355 . S
C794 C796 1.412 . S
C795 H787 0.930 . S
C795 C794 1.355 . S
C795 C798 1.402 . S
C796 C794 1.412 . S
C796 C797 1.417 . S
C796 C820 1.431 . S
C797 N793 1.350 . S
C797 C796 1.417 . S
C797 C800 1.426 . S
C798 H781 0.930 . S
C798 N793 1.307 . S
C798 C795 1.402 . S
N799 Gd762 2.601 . S
N799 C800 1.359 . S
N799 C803 1.334 . S
C800 C797 1.426 . S
C800 N799 1.359 . S
C800 C804 1.413 . S
C801 H792 0.930 . S
C801 C802 1.359 . S
C801 C803 1.394 . S
C802 C801 1.359 . S
C802 C804 1.391 . S
C802 H805 0.929 . S
C803 H785 0.930 . S
C803 N799 1.334 . S
C803 C801 1.394 . S
C804 C800 1.413 . S
C804 C802 1.391 . S
C804 C819 1.437 . S
H805 C802 0.929 . S
O806 Gd762 2.545 . S
O806 C821 1.258 . S
O807 Gd762 2.606 . S
O807 Gd763 2.362 . S
O807 C818 1.284 . S
O808 Gd763 2.324 . S
O808 C828 1.254 . S
O809 Gd762 2.429 . S
O809 C828 1.268 . S
O810 Gd762 2.545 . S
O810 C818 1.250 . S
O811 Gd762 2.412 . S
O811 C821 1.252 . S
O812 Gd763 2.545 . S
O812 C830 1.258 . S
O813 Gd762 2.362 . S
O813 Gd763 2.606 . S
O813 C829 1.284 . S
O814 Gd762 2.324 . S
O814 C837 1.254 . S
O815 Gd763 2.429 . S
O815 C837 1.268 . S
O816 Gd763 2.545 . S
O816 C829 1.250 . S
O817 Gd763 2.412 . S
O817 C830 1.252 . S
C818 O807 1.284 . S
C818 O810 1.250 . S
C819 H788 0.929 . S
C819 C804 1.437 . S
C819 C820 1.317 . S
C820 H791 0.930 . S
C820 C796 1.431 . S
C820 C819 1.317 . S
C821 Gd762 2.828 . S
C821 O806 1.258 . S
C821 O811 1.252 . S
C821 C822 1.497 . S
C822 C821 1.497 . S
C822 C823 1.395 . S
C822 C824 1.380 . S
C823 C822 1.395 . S
C823 C826 1.398 . S
C823 H838 0.930 . S
C824 C822 1.380 . S
C824 C825 1.391 . S
C824 H839 0.930 . S
C825 C824 1.391 . S
C825 C827 1.387 . S
C826 C823 1.398 . S
C826 C827 1.380 . S
C826 H840 0.930 . S
C827 C825 1.387 . S
C827 C826 1.380 . S
C827 H841 0.930 . S
C828 O808 1.254 . S
C828 O809 1.268 . S
C829 O813 1.284 . S
C829 O816 1.250 . S
C830 Gd763 2.828 . S
C830 O812 1.258 . S
C830 O817 1.252 . S
C830 C831 1.497 . S
C831 C830 1.497 . S
C831 C832 1.395 . S
C831 C833 1.380 . S
C832 C831 1.395 . S
C832 C835 1.398 . S
C832 H842 0.930 . S
C833 C831 1.380 . S
C833 C834 1.391 . S
C833 H843 0.930 . S
C834 C833 1.391 . S
C834 C836 1.387 . S
C835 C832 1.398 . S
C835 C836 1.380 . S
C835 H844 0.930 . S
C836 C834 1.387 . S
C836 C835 1.380 . S
C836 H845 0.930 . S
C837 O814 1.254 . S
C837 O815 1.268 . S
H838 C823 0.930 . S
H839 C824 0.930 . S
H840 C826 0.930 . S
H841 C827 0.930 . S
H842 C832 0.930 . S
H843 C833 0.930 . S
H844 C835 0.930 . S
H845 C836 0.930 . S
Gd846 N877 2.661 . S
Gd846 N883 2.601 . S
Gd846 O890 2.545 . S
Gd846 O891 2.606 . S
Gd846 O893 2.429 . S
Gd846 O894 2.545 . S
Gd846 O895 2.412 . S
Gd846 O897 2.362 . S
Gd846 O898 2.324 . S
Gd846 C905 2.828 . S
Gd847 N856 2.661 . S
Gd847 N860 2.601 . S
Gd847 O891 2.362 . S
Gd847 O892 2.324 . S
Gd847 O896 2.545 . S
Gd847 O897 2.606 . S
Gd847 O899 2.429 . S
Gd847 O900 2.545 . S
Gd847 O901 2.412 . S
Gd847 C914 2.828 . S
C848 C851 1.417 . S
C848 C853 1.431 . S
C848 C854 1.412 . S
C849 C852 1.437 . S
C849 C853 1.317 . S
C849 H868 0.929 . S
C850 C851 1.426 . S
C850 C852 1.413 . S
C850 N860 1.359 . S
C851 C848 1.417 . S
C851 C850 1.426 . S
C851 N856 1.350 . S
C852 C849 1.437 . S
C852 C850 1.413 . S
C852 C862 1.391 . S
C853 C848 1.431 . S
C853 C849 1.317 . S
C853 H864 0.930 . S
C854 C848 1.412 . S
C854 C855 1.355 . S
C854 H866 0.930 . S
C855 C854 1.355 . S
C855 C857 1.402 . S
C855 H867 0.930 . S
N856 Gd847 2.661 . S
N856 C851 1.350 . S
N856 C857 1.307 . S
C857 C855 1.402 . S
C857 N856 1.307 . S
C857 H858 0.930 . S
H858 C857 0.930 . S
C859 N860 1.334 . S
C859 C861 1.394 . S
C859 H863 0.930 . S
N860 Gd847 2.601 . S
N860 C850 1.359 . S
N860 C859 1.334 . S
C861 C859 1.394 . S
C861 C862 1.359 . S
C861 H873 0.930 . S
C862 C852 1.391 . S
C862 C861 1.359 . S
C862 H874 0.929 . S
H863 C859 0.930 . S
H864 C853 0.930 . S
H865 C882 0.930 . S
H866 C854 0.930 . S
H867 C855 0.930 . S
H868 C849 0.929 . S
H869 C887 0.930 . S
H870 C878 0.930 . S
H871 C879 0.930 . S
H872 C903 0.929 . S
H873 C861 0.930 . S
H874 C862 0.929 . S
H875 C904 0.930 . S
H876 C885 0.930 . S
N877 Gd846 2.661 . S
N877 C881 1.350 . S
N877 C882 1.307 . S
C878 H870 0.930 . S
C878 C879 1.355 . S
C878 C880 1.412 . S
C879 H871 0.930 . S
C879 C878 1.355 . S
C879 C882 1.402 . S
C880 C878 1.412 . S
C880 C881 1.417 . S
C880 C904 1.431 . S
C881 N877 1.350 . S
C881 C880 1.417 . S
C881 C884 1.426 . S
C882 H865 0.930 . S
C882 N877 1.307 . S
C882 C879 1.402 . S
N883 Gd846 2.601 . S
N883 C884 1.359 . S
N883 C887 1.334 . S
C884 C881 1.426 . S
C884 N883 1.359 . S
C884 C888 1.413 . S
C885 H876 0.930 . S
C885 C886 1.359 . S
C885 C887 1.394 . S
C886 C885 1.359 . S
C886 C888 1.391 . S
C886 H889 0.929 . S
C887 H869 0.930 . S
C887 N883 1.334 . S
C887 C885 1.394 . S
C888 C884 1.413 . S
C888 C886 1.391 . S
C888 C903 1.437 . S
H889 C886 0.929 . S
O890 Gd846 2.545 . S
O890 C905 1.258 . S
O891 Gd846 2.606 . S
O891 Gd847 2.362 . S
O891 C902 1.284 . S
O892 Gd847 2.324 . S
O892 C912 1.254 . S
O893 Gd846 2.429 . S
O893 C912 1.268 . S
O894 Gd846 2.545 . S
O894 C902 1.250 . S
O895 Gd846 2.412 . S
O895 C905 1.252 . S
O896 Gd847 2.545 . S
O896 C914 1.258 . S
O897 Gd846 2.362 . S
O897 Gd847 2.606 . S
O897 C913 1.284 . S
O898 Gd846 2.324 . S
O898 C921 1.254 . S
O899 Gd847 2.429 . S
O899 C921 1.268 . S
O900 Gd847 2.545 . S
O900 C913 1.250 . S
O901 Gd847 2.412 . S
O901 C914 1.252 . S
C902 O891 1.284 . S
C902 O894 1.250 . S
C903 H872 0.929 . S
C903 C888 1.437 . S
C903 C904 1.317 . S
C904 H875 0.930 . S
C904 C880 1.431 . S
C904 C903 1.317 . S
C905 Gd846 2.828 . S
C905 O890 1.258 . S
C905 O895 1.252 . S
C905 C906 1.497 . S
C906 C905 1.497 . S
C906 C907 1.395 . S
C906 C908 1.380 . S
C907 C906 1.395 . S
C907 C910 1.398 . S
C907 H922 0.930 . S
C908 C906 1.380 . S
C908 C909 1.391 . S
C908 H923 0.930 . S
C909 C908 1.391 . S
C909 C911 1.387 . S
C910 C907 1.398 . S
C910 C911 1.380 . S
C910 H924 0.930 . S
C911 C909 1.387 . S
C911 C910 1.380 . S
C911 H925 0.930 . S
C912 O892 1.254 . S
C912 O893 1.268 . S
C913 O897 1.284 . S
C913 O900 1.250 . S
C914 Gd847 2.828 . S
C914 O896 1.258 . S
C914 O901 1.252 . S
C914 C915 1.497 . S
C915 C914 1.497 . S
C915 C916 1.395 . S
C915 C917 1.380 . S
C916 C915 1.395 . S
C916 C919 1.398 . S
C916 H926 0.930 . S
C917 C915 1.380 . S
C917 C918 1.391 . S
C917 H927 0.930 . S
C918 C917 1.391 . S
C918 C920 1.387 . S
C919 C916 1.398 . S
C919 C920 1.380 . S
C919 H928 0.930 . S
C920 C918 1.387 . S
C920 C919 1.380 . S
C920 H929 0.930 . S
C921 O898 1.254 . S
C921 O899 1.268 . S
H922 C907 0.930 . S
H923 C908 0.930 . S
H924 C910 0.930 . S
H925 C911 0.930 . S
H926 C916 0.930 . S
H927 C917 0.930 . S
H928 C919 0.930 . S
H929 C920 0.930 . S
Gd930 N961 2.661 . S
Gd930 N967 2.601 . S
Gd930 O974 2.545 . S
Gd930 O975 2.606 . S
Gd930 O977 2.429 . S
Gd930 O978 2.545 . S
Gd930 O979 2.412 . S
Gd930 O981 2.362 . S
Gd930 O982 2.324 . S
Gd930 C989 2.828 . S
Gd931 N940 2.661 . S
Gd931 N944 2.601 . S
Gd931 O975 2.362 . S
Gd931 O976 2.324 . S
Gd931 O980 2.545 . S
Gd931 O981 2.606 . S
Gd931 O983 2.429 . S
Gd931 O984 2.545 . S
Gd931 O985 2.412 . S
Gd931 C998 2.828 . S
C932 C935 1.417 . S
C932 C937 1.431 . S
C932 C938 1.412 . S
C933 C936 1.437 . S
C933 C937 1.317 . S
C933 H952 0.929 . S
C934 C935 1.426 . S
C934 C936 1.413 . S
C934 N944 1.359 . S
C935 C932 1.417 . S
C935 C934 1.426 . S
C935 N940 1.350 . S
C936 C933 1.437 . S
C936 C934 1.413 . S
C936 C946 1.391 . S
C937 C932 1.431 . S
C937 C933 1.317 . S
C937 H948 0.930 . S
C938 C932 1.412 . S
C938 C939 1.355 . S
C938 H950 0.930 . S
C939 C938 1.355 . S
C939 C941 1.402 . S
C939 H951 0.930 . S
N940 Gd931 2.661 . S
N940 C935 1.350 . S
N940 C941 1.307 . S
C941 C939 1.402 . S
C941 N940 1.307 . S
C941 H942 0.930 . S
H942 C941 0.930 . S
C943 N944 1.334 . S
C943 C945 1.394 . S
C943 H947 0.930 . S
N944 Gd931 2.601 . S
N944 C934 1.359 . S
N944 C943 1.334 . S
C945 C943 1.394 . S
C945 C946 1.359 . S
C945 H957 0.930 . S
C946 C936 1.391 . S
C946 C945 1.359 . S
C946 H958 0.929 . S
H947 C943 0.930 . S
H948 C937 0.930 . S
H949 C966 0.930 . S
H950 C938 0.930 . S
H951 C939 0.930 . S
H952 C933 0.929 . S
H953 C971 0.930 . S
H954 C962 0.930 . S
H955 C963 0.930 . S
H956 C987 0.929 . S
H957 C945 0.930 . S
H958 C946 0.929 . S
H959 C988 0.930 . S
H960 C969 0.930 . S
N961 Gd930 2.661 . S
N961 C965 1.350 . S
N961 C966 1.307 . S
C962 H954 0.930 . S
C962 C963 1.355 . S
C962 C964 1.412 . S
C963 H955 0.930 . S
C963 C962 1.355 . S
C963 C966 1.402 . S
C964 C962 1.412 . S
C964 C965 1.417 . S
C964 C988 1.431 . S
C965 N961 1.350 . S
C965 C964 1.417 . S
C965 C968 1.426 . S
C966 H949 0.930 . S
C966 N961 1.307 . S
C966 C963 1.402 . S
N967 Gd930 2.601 . S
N967 C968 1.359 . S
N967 C971 1.334 . S
C968 C965 1.426 . S
C968 N967 1.359 . S
C968 C972 1.413 . S
C969 H960 0.930 . S
C969 C970 1.359 . S
C969 C971 1.394 . S
C970 C969 1.359 . S
C970 C972 1.391 . S
C970 H973 0.929 . S
C971 H953 0.930 . S
C971 N967 1.334 . S
C971 C969 1.394 . S
C972 C968 1.413 . S
C972 C970 1.391 . S
C972 C987 1.437 . S
H973 C970 0.929 . S
O974 Gd930 2.545 . S
O974 C989 1.258 . S
O975 Gd930 2.606 . S
O975 Gd931 2.362 . S
O975 C986 1.284 . S
O976 Gd931 2.324 . S
O976 C996 1.254 . S
O977 Gd930 2.429 . S
O977 C996 1.268 . S
O978 Gd930 2.545 . S
O978 C986 1.250 . S
O979 Gd930 2.412 . S
O979 C989 1.252 . S
O980 Gd931 2.545 . S
O980 C998 1.258 . S
O981 Gd930 2.362 . S
O981 Gd931 2.606 . S
O981 C997 1.284 . S
O982 Gd930 2.324 . S
O982 C1005 1.254 . S
O983 Gd931 2.429 . S
O983 C1005 1.268 . S
O984 Gd931 2.545 . S
O984 C997 1.250 . S
O985 Gd931 2.412 . S
O985 C998 1.252 . S
C986 O975 1.284 . S
C986 O978 1.250 . S
C987 H956 0.929 . S
C987 C972 1.437 . S
C987 C988 1.317 . S
C988 H959 0.930 . S
C988 C964 1.431 . S
C988 C987 1.317 . S
C989 Gd930 2.828 . S
C989 O974 1.258 . S
C989 O979 1.252 . S
C989 C990 1.497 . S
C990 C989 1.497 . S
C990 C991 1.395 . S
C990 C992 1.380 . S
C991 C990 1.395 . S
C991 C994 1.398 . S
C991 H1006 0.930 . S
C992 C990 1.380 . S
C992 C993 1.391 . S
C992 H1007 0.930 . S
C993 C992 1.391 . S
C993 C995 1.387 . S
C994 C991 1.398 . S
C994 C995 1.380 . S
C994 H1008 0.930 . S
C995 C993 1.387 . S
C995 C994 1.380 . S
C995 H1009 0.930 . S
C996 O976 1.254 . S
C996 O977 1.268 . S
C997 O981 1.284 . S
C997 O984 1.250 . S
C998 Gd931 2.828 . S
C998 O980 1.258 . S
C998 O985 1.252 . S
C998 C999 1.497 . S
C999 C998 1.497 . S
C999 C1000 1.395 . S
C999 C1001 1.380 . S
C1000 C999 1.395 . S
C1000 C1003 1.398 . S
C1000 H1010 0.930 . S
C1001 C999 1.380 . S
C1001 C1002 1.391 . S
C1001 H1011 0.930 . S
C1002 C1001 1.391 . S
C1002 C1004 1.387 . S
C1003 C1000 1.398 . S
C1003 C1004 1.380 . S
C1003 H1012 0.930 . S
C1004 C1002 1.387 . S
C1004 C1003 1.380 . S
C1004 H1013 0.930 . S
C1005 O982 1.254 . S
C1005 O983 1.268 . S
H1006 C991 0.930 . S
H1007 C992 0.930 . S
H1008 C994 0.930 . S
H1009 C995 0.930 . S
H1010 C1000 0.930 . S
H1011 C1001 0.930 . S
H1012 C1003 0.930 . S
H1013 C1004 0.930 . S
Gd1014 N1045 2.661 . S
Gd1014 N1051 2.601 . S
Gd1014 O1058 2.545 . S
Gd1014 O1059 2.606 . S
Gd1014 O1061 2.429 . S
Gd1014 O1062 2.545 . S
Gd1014 O1063 2.412 . S
Gd1014 O1065 2.362 . S
Gd1014 O1066 2.324 . S
Gd1014 C1073 2.828 . S
Gd1015 N1024 2.661 . S
Gd1015 N1028 2.601 . S
Gd1015 O1059 2.362 . S
Gd1015 O1060 2.324 . S
Gd1015 O1064 2.545 . S
Gd1015 O1065 2.606 . S
Gd1015 O1067 2.429 . S
Gd1015 O1068 2.545 . S
Gd1015 O1069 2.412 . S
Gd1015 C1082 2.828 . S
C1016 C1019 1.417 1_455 S
C1016 C1021 1.431 . S
C1016 C1022 1.412 . S
C1017 C1020 1.437 1_455 S
C1017 C1021 1.317 . S
C1017 H1036 0.929 . S
C1018 C1019 1.426 . S
C1018 C1020 1.413 . S
C1018 N1028 1.359 . S
C1019 C1016 1.417 1_655 S
C1019 C1018 1.426 . S
C1019 N1024 1.350 . S
C1020 C1017 1.437 1_655 S
C1020 C1018 1.413 . S
C1020 C1030 1.391 . S
C1021 C1016 1.431 . S
C1021 C1017 1.317 . S
C1021 H1032 0.930 . S
C1022 C1016 1.412 . S
C1022 C1023 1.355 . S
C1022 H1034 0.930 . S
C1023 C1022 1.355 . S
C1023 C1025 1.402 1_455 S
C1023 H1035 0.930 . S
N1024 Gd1015 2.661 . S
N1024 C1019 1.350 . S
N1024 C1025 1.307 . S
C1025 C1023 1.402 1_655 S
C1025 N1024 1.307 . S
C1025 H1026 0.930 . S
H1026 C1025 0.930 . S
C1027 N1028 1.334 . S
C1027 C1029 1.394 . S
C1027 H1031 0.930 . S
N1028 Gd1015 2.601 . S
N1028 C1018 1.359 . S
N1028 C1027 1.334 . S
C1029 C1027 1.394 . S
C1029 C1030 1.359 . S
C1029 H1041 0.930 . S
C1030 C1020 1.391 . S
C1030 C1029 1.359 . S
C1030 H1042 0.929 . S
H1031 C1027 0.930 . S
H1032 C1021 0.930 . S
H1033 C1050 0.930 . S
H1034 C1022 0.930 . S
H1035 C1023 0.930 . S
H1036 C1017 0.929 . S
H1037 C1055 0.930 . S
H1038 C1046 0.930 . S
H1039 C1047 0.930 . S
H1040 C1071 0.929 . S
H1041 C1029 0.930 . S
H1042 C1030 0.929 . S
H1043 C1072 0.930 . S
H1044 C1053 0.930 . S
N1045 Gd1014 2.661 . S
N1045 C1049 1.350 . S
N1045 C1050 1.307 . S
C1046 H1038 0.930 . S
C1046 C1047 1.355 . S
C1046 C1048 1.412 . S
C1047 H1039 0.930 . S
C1047 C1046 1.355 . S
C1047 C1050 1.402 . S
C1048 C1046 1.412 . S
C1048 C1049 1.417 . S
C1048 C1072 1.431 . S
C1049 N1045 1.350 . S
C1049 C1048 1.417 . S
C1049 C1052 1.426 . S
C1050 H1033 0.930 . S
C1050 N1045 1.307 . S
C1050 C1047 1.402 . S
N1051 Gd1014 2.601 . S
N1051 C1052 1.359 . S
N1051 C1055 1.334 . S
C1052 C1049 1.426 . S
C1052 N1051 1.359 . S
C1052 C1056 1.413 . S
C1053 H1044 0.930 . S
C1053 C1054 1.359 . S
C1053 C1055 1.394 . S
C1054 C1053 1.359 . S
C1054 C1056 1.391 . S
C1054 H1057 0.929 . S
C1055 H1037 0.930 . S
C1055 N1051 1.334 . S
C1055 C1053 1.394 . S
C1056 C1052 1.413 . S
C1056 C1054 1.391 . S
C1056 C1071 1.437 . S
H1057 C1054 0.929 . S
O1058 Gd1014 2.545 . S
O1058 C1073 1.258 . S
O1059 Gd1014 2.606 . S
O1059 Gd1015 2.362 . S
O1059 C1070 1.284 . S
O1060 Gd1015 2.324 . S
O1060 C1080 1.254 . S
O1061 Gd1014 2.429 . S
O1061 C1080 1.268 . S
O1062 Gd1014 2.545 . S
O1062 C1070 1.250 . S
O1063 Gd1014 2.412 . S
O1063 C1073 1.252 . S
O1064 Gd1015 2.545 . S
O1064 C1082 1.258 . S
O1065 Gd1014 2.362 . S
O1065 Gd1015 2.606 . S
O1065 C1081 1.284 . S
O1066 Gd1014 2.324 . S
O1066 C1089 1.254 . S
O1067 Gd1015 2.429 . S
O1067 C1089 1.268 . S
O1068 Gd1015 2.545 . S
O1068 C1081 1.250 . S
O1069 Gd1015 2.412 . S
O1069 C1082 1.252 . S
C1070 O1059 1.284 . S
C1070 O1062 1.250 . S
C1071 H1040 0.929 . S
C1071 C1056 1.437 . S
C1071 C1072 1.317 . S
C1072 H1043 0.930 . S
C1072 C1048 1.431 . S
C1072 C1071 1.317 . S
C1073 Gd1014 2.828 . S
C1073 O1058 1.258 . S
C1073 O1063 1.252 . S
C1073 C1074 1.497 . S
C1074 C1073 1.497 . S
C1074 C1075 1.395 . S
C1074 C1076 1.380 . S
C1075 C1074 1.395 . S
C1075 C1078 1.398 . S
C1075 H1090 0.930 . S
C1076 C1074 1.380 . S
C1076 C1077 1.391 . S
C1076 H1091 0.930 . S
C1077 C1076 1.391 . S
C1077 C1079 1.387 . S
C1078 C1075 1.398 . S
C1078 C1079 1.380 . S
C1078 H1092 0.930 . S
C1079 C1077 1.387 . S
C1079 C1078 1.380 . S
C1079 H1093 0.930 . S
C1080 O1060 1.254 . S
C1080 O1061 1.268 . S
C1081 O1065 1.284 . S
C1081 O1068 1.250 . S
C1082 Gd1015 2.828 . S
C1082 O1064 1.258 . S
C1082 O1069 1.252 . S
C1082 C1083 1.497 . S
C1083 C1082 1.497 . S
C1083 C1084 1.395 . S
C1083 C1085 1.380 . S
C1084 C1083 1.395 . S
C1084 C1087 1.398 . S
C1084 H1094 0.930 . S
C1085 C1083 1.380 . S
C1085 C1086 1.391 . S
C1085 H1095 0.930 . S
C1086 C1085 1.391 . S
C1086 C1088 1.387 . S
C1087 C1084 1.398 . S
C1087 C1088 1.380 . S
C1087 H1096 0.930 . S
C1088 C1086 1.387 . S
C1088 C1087 1.380 . S
C1088 H1097 0.930 . S
C1089 O1066 1.254 . S
C1089 O1067 1.268 . S
H1090 C1075 0.930 . S
H1091 C1076 0.930 . S
H1092 C1078 0.930 . S
H1093 C1079 0.930 . S
H1094 C1084 0.930 . S
H1095 C1085 0.930 . S
H1096 C1087 0.930 . S
H1097 C1088 0.930 . S
C1098 C1099 1.369 . S
C1098 C1100 1.419 . S
C1098 H1102 0.930 . S
C1099 C1098 1.369 . S
C1099 C1108 1.429 . S
C1100 C1098 1.419 . S
C1100 C1101 1.363 . S
C1100 H1103 0.929 . S
C1101 C1100 1.363 . S
C1101 C1107 1.428 . S
H1102 C1098 0.930 . S
H1103 C1100 0.929 . S
S1104 N1105 1.613 . S
S1104 N1106 1.610 . S
N1105 S1104 1.613 . S
N1105 C1108 1.350 . S
N1106 S1104 1.610 . S
N1106 C1107 1.351 . S
C1107 C1101 1.428 . S
C1107 N1106 1.351 . S
C1107 C1108 1.434 . S
C1108 C1099 1.429 . S
C1108 N1105 1.350 . S
C1108 C1107 1.434 . S
C1109 C1110 1.369 . S
C1109 C1111 1.419 . S
C1109 H1113 0.930 . S
C1110 C1109 1.369 . S
C1110 C1119 1.429 . S
C1111 C1109 1.419 . S
C1111 C1112 1.363 . S
C1111 H1114 0.929 . S
C1112 C1111 1.363 . S
C1112 C1118 1.428 . S
H1113 C1109 0.930 . S
H1114 C1111 0.929 . S
S1115 N1116 1.613 . S
S1115 N1117 1.610 . S
N1116 S1115 1.613 . S
N1116 C1119 1.350 . S
N1117 S1115 1.610 . S
N1117 C1118 1.351 . S
C1118 C1112 1.428 . S
C1118 N1117 1.351 . S
C1118 C1119 1.434 . S
C1119 C1110 1.429 . S
C1119 N1116 1.350 . S
C1119 C1118 1.434 . S
C1120 C1121 1.369 . S
C1120 C1122 1.419 . S
C1120 H1124 0.930 . S
C1121 C1120 1.369 . S
C1121 C1130 1.429 . S
C1122 C1120 1.419 . S
C1122 C1123 1.363 . S
C1122 H1125 0.929 . S
C1123 C1122 1.363 . S
C1123 C1129 1.428 . S
H1124 C1120 0.930 . S
H1125 C1122 0.929 . S
S1126 N1127 1.613 . S
S1126 N1128 1.610 . S
N1127 S1126 1.613 . S
N1127 C1130 1.350 . S
N1128 S1126 1.610 . S
N1128 C1129 1.351 . S
C1129 C1123 1.428 . S
C1129 N1128 1.351 . S
C1129 C1130 1.434 . S
C1130 C1121 1.429 . S
C1130 N1127 1.350 . S
C1130 C1129 1.434 . S
C1131 C1132 1.369 . S
C1131 C1133 1.419 1_556 S
C1131 H1135 0.930 1_556 S
C1132 C1131 1.369 . S
C1132 C1141 1.429 . S
C1133 C1131 1.419 1_554 S
C1133 C1134 1.363 1_554 S
C1133 H1136 0.929 . S
C1134 C1133 1.363 1_556 S
C1134 C1140 1.428 . S
H1135 C1131 0.930 1_554 S
H1136 C1133 0.929 . S
S1137 N1138 1.613 . S
S1137 N1139 1.610 . S
N1138 S1137 1.613 . S
N1138 C1141 1.350 . S
N1139 S1137 1.610 . S
N1139 C1140 1.351 . S
C1140 C1134 1.428 . S
C1140 N1139 1.351 . S
C1140 C1141 1.434 . S
C1141 C1132 1.429 . S
C1141 N1138 1.350 . S
C1141 C1140 1.434 . S
C1142 C1143 1.369 . S
C1142 C1144 1.419 1_556 S
C1142 H1146 0.930 1_556 S
C1143 C1142 1.369 . S
C1143 C1152 1.429 . S
C1144 C1142 1.419 1_554 S
C1144 C1145 1.363 1_554 S
C1144 H1147 0.929 . S
C1145 C1144 1.363 1_556 S
C1145 C1151 1.428 . S
H1146 C1142 0.930 1_554 S
H1147 C1144 0.929 . S
S1148 N1149 1.613 . S
S1148 N1150 1.610 . S
N1149 S1148 1.613 . S
N1149 C1152 1.350 . S
N1150 S1148 1.610 . S
N1150 C1151 1.351 . S
C1151 C1145 1.428 . S
C1151 N1150 1.351 . S
C1151 C1152 1.434 . S
C1152 C1143 1.429 . S
C1152 N1149 1.350 . S
C1152 C1151 1.434 . S
C1153 C1154 1.369 . S
C1153 C1155 1.419 . S
C1153 H1157 0.930 . S
C1154 C1153 1.369 . S
C1154 C1163 1.429 . S
C1155 C1153 1.419 . S
C1155 C1156 1.363 . S
C1155 H1158 0.929 1_556 S
C1156 C1155 1.363 . S
C1156 C1162 1.428 . S
H1157 C1153 0.930 . S
H1158 C1155 0.929 1_554 S
S1159 N1160 1.613 . S
S1159 N1161 1.610 . S
N1160 S1159 1.613 . S
N1160 C1163 1.350 . S
N1161 S1159 1.610 . S
N1161 C1162 1.351 . S
C1162 C1156 1.428 . S
C1162 N1161 1.351 . S
C1162 C1163 1.434 . S
C1163 C1154 1.429 . S
C1163 N1160 1.350 . S
C1163 C1162 1.434 . S
C1164 C1165 1.369 . S
C1164 C1166 1.419 . S
C1164 H1168 0.930 . S
C1165 C1164 1.369 . S
C1165 C1174 1.429 . S
C1166 C1164 1.419 . S
C1166 C1167 1.363 . S
C1166 H1169 0.929 . S
C1167 C1166 1.363 . S
C1167 C1173 1.428 . S
H1168 C1164 0.930 . S
H1169 C1166 0.929 . S
S1170 N1171 1.622 . S
S1170 N1172 1.610 . S
N1171 S1170 1.622 . S
N1171 C1174 1.344 1_554 S
N1172 S1170 1.610 . S
N1172 C1173 1.351 1_554 S
C1173 C1167 1.428 . S
C1173 N1172 1.351 1_556 S
C1173 C1174 1.434 . S
C1174 C1165 1.429 . S
C1174 N1171 1.344 1_556 S
C1174 C1173 1.434 . S
C1175 C1176 1.369 . S
C1175 C1177 1.419 . S
C1175 H1179 0.930 . S
C1176 C1175 1.369 . S
C1176 C1185 1.429 . S
C1177 C1175 1.419 . S
C1177 C1178 1.363 . S
C1177 H1180 0.929 . S
C1178 C1177 1.363 . S
C1178 C1184 1.428 1_556 S
H1179 C1175 0.930 . S
H1180 C1177 0.929 . S
S1181 N1182 1.613 . S
S1181 N1183 1.610 . S
N1182 S1181 1.613 . S
N1182 C1185 1.350 1_554 S
N1183 S1181 1.610 . S
N1183 C1184 1.351 . S
C1184 C1178 1.428 1_554 S
C1184 N1183 1.351 . S
C1184 C1185 1.434 1_554 S
C1185 C1176 1.429 . S
C1185 N1182 1.350 1_556 S
C1185 C1184 1.434 1_556 S
C1186 C1187 1.369 . S
C1186 C1188 1.419 . S
C1186 H1190 0.930 . S
C1187 C1186 1.369 . S
C1187 C1196 1.429 . S
C1188 C1186 1.419 . S
C1188 C1189 1.363 . S
C1188 H1191 0.929 . S
C1189 C1188 1.363 . S
C1189 C1195 1.428 . S
H1190 C1186 0.930 . S
H1191 C1188 0.929 . S
S1192 N1193 1.613 . S
S1192 N1194 1.610 . S
N1193 S1192 1.613 . S
N1193 C1196 1.350 . S
N1194 S1192 1.610 . S
N1194 C1195 1.351 . S
C1195 C1189 1.428 . S
C1195 N1194 1.351 . S
C1195 C1196 1.434 . S
C1196 C1187 1.429 . S
C1196 N1193 1.350 . S
C1196 C1195 1.434 . S
C1197 C1198 1.369 . S
C1197 C1199 1.419 . S
C1197 H1201 0.930 . S
C1198 C1197 1.369 . S
C1198 C1207 1.429 . S
C1199 C1197 1.419 . S
C1199 C1200 1.363 . S
C1199 H1202 0.929 . S
C1200 C1199 1.363 . S
C1200 C1206 1.428 . S
H1201 C1197 0.930 . S
H1202 C1199 0.929 . S
S1203 N1204 1.613 . S
S1203 N1205 1.610 . S
N1204 S1203 1.613 . S
N1204 C1207 1.350 . S
N1205 S1203 1.610 . S
N1205 C1206 1.351 . S
C1206 C1200 1.428 . S
C1206 N1205 1.351 . S
C1206 C1207 1.434 . S
C1207 C1198 1.429 . S
C1207 N1204 1.350 . S
C1207 C1206 1.434 . S
C1208 C1209 1.369 . S
C1208 C1210 1.419 . S
C1208 H1212 0.930 . S
C1209 C1208 1.369 . S
C1209 C1218 1.429 . S
C1210 C1208 1.419 . S
C1210 C1211 1.363 . S
C1210 H1213 0.929 1_554 S
C1211 C1210 1.363 . S
C1211 C1217 1.428 . S
H1212 C1208 0.930 . S
H1213 C1210 0.929 1_556 S
S1214 N1215 1.613 . S
S1214 N1216 1.610 . S
N1215 S1214 1.613 . S
N1215 C1218 1.350 . S
N1216 S1214 1.610 . S
N1216 C1217 1.351 . S
C1217 C1211 1.428 . S
C1217 N1216 1.351 . S
C1217 C1218 1.434 . S
C1218 C1209 1.429 . S
C1218 N1215 1.350 . S
C1218 C1217 1.434 . S
C1219 C1220 1.369 . S
C1219 C1221 1.419 . S
C1219 H1223 0.930 . S
C1220 C1219 1.369 . S
C1220 C1229 1.429 . S
C1221 C1219 1.419 . S
C1221 C1222 1.363 . S
C1221 H1224 0.929 . S
C1222 C1221 1.363 . S
C1222 C1228 1.428 . S
H1223 C1219 0.930 . S
H1224 C1221 0.929 . S
S1225 N1226 1.613 . S
S1225 N1227 1.610 . S
N1226 S1225 1.613 . S
N1226 C1229 1.350 1_556 S
N1227 S1225 1.610 . S
N1227 C1228 1.351 1_556 S
C1228 C1222 1.428 . S
C1228 N1227 1.351 1_554 S
C1228 C1229 1.434 . S
C1229 C1220 1.429 . S
C1229 N1226 1.350 1_554 S
C1229 C1228 1.434 . S
C1230 C1231 1.369 . S
C1230 C1232 1.419 1_655 S
C1230 H1234 0.930 . S
C1231 C1230 1.369 . S
C1231 C1240 1.429 . S
C1232 C1230 1.419 1_455 S
C1232 C1233 1.363 . S
C1232 H1235 0.929 . S
C1233 C1232 1.363 . S
C1233 C1239 1.428 . S
H1234 C1230 0.930 . S
H1235 C1232 0.929 . S
S1236 N1237 1.613 1_455 S
S1236 N1238 1.610 . S
N1237 S1236 1.613 1_655 S
N1237 C1240 1.350 . S
N1238 S1236 1.610 . S
N1238 C1239 1.351 . S
C1239 C1233 1.428 . S
C1239 N1238 1.351 . S
C1239 C1240 1.434 1_455 S
C1240 C1231 1.429 . S
C1240 N1237 1.350 . S
C1240 C1239 1.434 1_655 S
C1241 C1242 1.369 . S
C1241 C1243 1.419 . S
C1241 H1245 0.930 . S
C1242 C1241 1.369 . S
C1242 C1251 1.429 . S
C1243 C1241 1.419 . S
C1243 C1244 1.363 . S
C1243 H1246 0.929 . S
C1244 C1243 1.363 . S
C1244 C1250 1.428 . S
H1245 C1241 0.930 . S
H1246 C1243 0.929 . S
S1247 N1248 1.613 . S
S1247 N1249 1.610 . S
N1248 S1247 1.613 . S
N1248 C1251 1.350 . S
N1249 S1247 1.610 . S
N1249 C1250 1.351 . S
C1250 C1244 1.428 . S
C1250 N1249 1.351 . S
C1250 C1251 1.434 . S
C1251 C1242 1.429 . S
C1251 N1248 1.350 . S
C1251 C1250 1.434 . S
C1252 C1253 1.369 . S
C1252 C1254 1.419 . S
C1252 H1256 0.930 . S
C1253 C1252 1.369 . S
C1253 C1262 1.429 . S
C1254 C1252 1.419 . S
C1254 C1255 1.363 1_545 S
C1254 H1257 0.929 . S
C1255 C1254 1.363 1_565 S
C1255 C1261 1.428 . S
H1256 C1252 0.930 . S
H1257 C1254 0.929 . S
S1258 N1259 1.613 . S
S1258 N1260 1.610 . S
N1259 S1258 1.613 . S
N1259 C1262 1.350 1_565 S
N1260 S1258 1.610 . S
N1260 C1261 1.351 . S
C1261 C1255 1.428 . S
C1261 N1260 1.351 . S
C1261 C1262 1.434 1_565 S
C1262 C1253 1.429 . S
C1262 N1259 1.350 1_545 S
C1262 C1261 1.434 1_545 S
C1263 C1264 1.369 . S
C1263 C1265 1.419 . S
C1263 H1267 0.930 . S
C1264 C1263 1.369 . S
C1264 C1273 1.429 . S
C1265 C1263 1.419 . S
C1265 C1266 1.363 . S
C1265 H1268 0.929 . S
C1266 C1265 1.363 . S
C1266 C1272 1.428 . S
H1267 C1263 0.930 . S
H1268 C1265 0.929 . S
S1269 N1270 1.613 . S
S1269 N1271 1.610 . S
N1270 S1269 1.613 . S
N1270 C1273 1.350 . S
N1271 S1269 1.610 . S
N1271 C1272 1.351 . S
C1272 C1266 1.428 . S
C1272 N1271 1.351 . S
C1272 C1273 1.434 . S
C1273 C1264 1.429 . S
C1273 N1270 1.350 . S
C1273 C1272 1.434 . S
C1274 C1275 1.369 . S
C1274 C1276 1.419 . S
C1274 H1278 0.930 . S
C1275 C1274 1.369 . S
C1275 C1284 1.429 . S
C1276 C1274 1.419 . S
C1276 C1277 1.363 . S
C1276 H1279 0.929 . S
C1277 C1276 1.363 . S
C1277 C1283 1.428 . S
H1278 C1274 0.930 . S
H1279 C1276 0.929 . S
S1280 N1281 1.613 . S
S1280 N1282 1.610 . S
N1281 S1280 1.613 . S
N1281 C1284 1.350 . S
N1282 S1280 1.610 . S
N1282 C1283 1.351 . S
C1283 C1277 1.428 . S
C1283 N1282 1.351 . S
C1283 C1284 1.434 . S
C1284 C1275 1.429 . S
C1284 N1281 1.350 . S
C1284 C1283 1.434 . S
C1285 C1286 1.369 . S
C1285 C1287 1.419 . S
C1285 H1289 0.930 . S
C1286 C1285 1.369 . S
C1286 C1295 1.429 . S
C1287 C1285 1.419 . S
C1287 C1288 1.363 . S
C1287 H1290 0.929 . S
C1288 C1287 1.363 . S
C1288 C1294 1.428 . S
H1289 C1285 0.930 . S
H1290 C1287 0.929 . S
S1291 N1292 1.613 . S
S1291 N1293 1.610 . S
N1292 S1291 1.613 . S
N1292 C1295 1.350 . S
N1293 S1291 1.610 . S
N1293 C1294 1.351 . S
C1294 C1288 1.428 . S
C1294 N1293 1.351 . S
C1294 C1295 1.434 . S
C1295 C1286 1.429 . S
C1295 N1292 1.350 . S
C1295 C1294 1.434 . S
C1296 C1297 1.369 . S
C1296 C1298 1.419 . S
C1296 H1300 0.930 . S
C1297 C1296 1.369 . S
C1297 C1306 1.429 . S
C1298 C1296 1.419 . S
C1298 C1299 1.363 . S
C1298 H1301 0.929 . S
C1299 C1298 1.363 . S
C1299 C1305 1.428 . S
H1300 C1296 0.930 . S
H1301 C1298 0.929 . S
S1302 N1303 1.613 . S
S1302 N1304 1.610 . S
N1303 S1302 1.613 . S
N1303 C1306 1.350 . S
N1304 S1302 1.610 . S
N1304 C1305 1.351 . S
C1305 C1299 1.428 . S
C1305 N1304 1.351 . S
C1305 C1306 1.434 . S
C1306 C1297 1.429 . S
C1306 N1303 1.350 . S
C1306 C1305 1.434 . S
C1307 C1308 1.369 . S
C1307 C1309 1.419 . S
C1307 H1311 0.930 . S
C1308 C1307 1.369 . S
C1308 C1317 1.429 . S
C1309 C1307 1.419 . S
C1309 C1310 1.363 . S
C1309 H1312 0.929 . S
C1310 C1309 1.363 . S
C1310 C1316 1.428 . S
H1311 C1307 0.930 . S
H1312 C1309 0.929 . S
S1313 N1314 1.613 . S
S1313 N1315 1.610 . S
N1314 S1313 1.613 . S
N1314 C1317 1.350 . S
N1315 S1313 1.610 . S
N1315 C1316 1.351 . S
C1316 C1310 1.428 . S
C1316 N1315 1.351 . S
C1316 C1317 1.434 . S
C1317 C1308 1.429 . S
C1317 N1314 1.350 . S
C1317 C1316 1.434 . S
C1318 C1319 1.369 . S
C1318 C1320 1.419 . S
C1318 H1322 0.930 . S
C1319 C1318 1.369 . S
C1319 C1328 1.429 . S
C1320 C1318 1.419 . S
C1320 C1321 1.363 . S
C1320 H1323 0.929 . S
C1321 C1320 1.363 . S
C1321 C1327 1.428 . S
H1322 C1318 0.930 . S
H1323 C1320 0.929 . S
S1324 N1325 1.613 . S
S1324 N1326 1.610 . S
N1325 S1324 1.613 . S
N1325 C1328 1.350 . S
N1326 S1324 1.610 . S
N1326 C1327 1.351 . S
C1327 C1321 1.428 . S
C1327 N1326 1.351 . S
C1327 C1328 1.434 . S
C1328 C1319 1.429 . S
C1328 N1325 1.350 . S
C1328 C1327 1.434 . S
C1329 C1330 1.369 . S
C1329 C1331 1.419 . S
C1329 H1333 0.930 . S
C1330 C1329 1.369 . S
C1330 C1339 1.429 . S
C1331 C1329 1.419 . S
C1331 C1332 1.363 . S
C1331 H1334 0.929 . S
C1332 C1331 1.363 . S
C1332 C1338 1.428 . S
H1333 C1329 0.930 . S
H1334 C1331 0.929 . S
S1335 N1336 1.613 . S
S1335 N1337 1.610 . S
N1336 S1335 1.613 . S
N1336 C1339 1.350 . S
N1337 S1335 1.610 . S
N1337 C1338 1.351 . S
C1338 C1332 1.428 . S
C1338 N1337 1.351 . S
C1338 C1339 1.434 . S
C1339 C1330 1.429 . S
C1339 N1336 1.350 . S
C1339 C1338 1.434 . S
C1340 C1341 1.369 . S
C1340 C1342 1.419 . S
C1340 H1344 0.930 . S
C1341 C1340 1.369 . S
C1341 C1350 1.429 . S
C1342 C1340 1.419 . S
C1342 C1343 1.363 . S
C1342 H1345 0.929 . S
C1343 C1342 1.363 . S
C1343 C1349 1.428 . S
H1344 C1340 0.930 . S
H1345 C1342 0.929 . S
S1346 N1347 1.613 . S
S1346 N1348 1.610 . S
N1347 S1346 1.613 . S
N1347 C1350 1.350 . S
N1348 S1346 1.610 . S
N1348 C1349 1.351 . S
C1349 C1343 1.428 . S
C1349 N1348 1.351 . S
C1349 C1350 1.434 . S
C1350 C1341 1.429 . S
C1350 N1347 1.350 . S
C1350 C1349 1.434 . S
C1351 C1352 1.369 . S
C1351 C1353 1.419 . S
C1351 H1355 0.930 . S
C1352 C1351 1.369 . S
C1352 C1361 1.429 . S
C1353 C1351 1.419 . S
C1353 C1354 1.363 . S
C1353 H1356 0.929 . S
C1354 C1353 1.363 . S
C1354 C1360 1.428 . S
H1355 C1351 0.930 . S
H1356 C1353 0.929 . S
S1357 N1358 1.613 . S
S1357 N1359 1.610 . S
N1358 S1357 1.613 . S
N1358 C1361 1.350 . S
N1359 S1357 1.610 . S
N1359 C1360 1.351 . S
C1360 C1354 1.428 . S
C1360 N1359 1.351 . S
C1360 C1361 1.434 . S
C1361 C1352 1.429 . S
C1361 N1358 1.350 . S
C1361 C1360 1.434 . S
C1362 C1363 1.369 . S
C1362 C1364 1.419 . S
C1362 H1366 0.930 . S
C1363 C1362 1.369 . S
C1363 C1372 1.429 . S
C1364 C1362 1.419 . S
C1364 C1365 1.363 . S
C1364 H1367 0.929 . S
C1365 C1364 1.363 . S
C1365 C1371 1.428 . S
H1366 C1362 0.930 . S
H1367 C1364 0.929 . S
S1368 N1369 1.613 . S
S1368 N1370 1.610 . S
N1369 S1368 1.613 . S
N1369 C1372 1.350 . S
N1370 S1368 1.610 . S
N1370 C1371 1.351 . S
C1371 C1365 1.428 . S
C1371 N1370 1.351 . S
C1371 C1372 1.434 . S
C1372 C1363 1.429 . S
C1372 N1369 1.350 . S
C1372 C1371 1.434 . S
C1373 C1374 1.369 . S
C1373 C1375 1.419 . S
C1373 H1377 0.930 . S
C1374 C1373 1.369 . S
C1374 C1383 1.429 . S
C1375 C1373 1.419 . S
C1375 C1376 1.363 . S
C1375 H1378 0.929 . S
C1376 C1375 1.363 . S
C1376 C1382 1.428 . S
H1377 C1373 0.930 . S
H1378 C1375 0.929 . S
S1379 N1380 1.613 . S
S1379 N1381 1.610 . S
N1380 S1379 1.613 . S
N1380 C1383 1.350 . S
N1381 S1379 1.610 . S
N1381 C1382 1.351 . S
C1382 C1376 1.428 . S
C1382 N1381 1.351 . S
C1382 C1383 1.434 . S
C1383 C1374 1.429 . S
C1383 N1380 1.350 . S
C1383 C1382 1.434 . S
C1384 C1385 1.369 . S
C1384 C1386 1.419 . S
C1384 H1388 0.930 . S
C1385 C1384 1.369 . S
C1385 C1394 1.429 . S
C1386 C1384 1.419 . S
C1386 C1387 1.363 . S
C1386 H1389 0.929 . S
C1387 C1386 1.363 . S
C1387 C1393 1.428 . S
H1388 C1384 0.930 . S
H1389 C1386 0.929 . S
S1390 N1391 1.613 . S
S1390 N1392 1.610 . S
N1391 S1390 1.613 . S
N1391 C1394 1.350 . S
N1392 S1390 1.610 . S
N1392 C1393 1.351 . S
C1393 C1387 1.428 . S
C1393 N1392 1.351 . S
C1393 C1394 1.434 . S
C1394 C1385 1.429 . S
C1394 N1391 1.350 . S
C1394 C1393 1.434 . S
C1395 C1396 1.369 . S
C1395 C1397 1.419 1_565 S
C1395 H1399 0.930 . S
C1396 C1395 1.369 . S
C1396 C1405 1.429 . S
C1397 C1395 1.419 1_545 S
C1397 C1398 1.363 . S
C1397 H1400 0.929 . S
C1398 C1397 1.363 . S
C1398 C1404 1.428 . S
H1399 C1395 0.930 . S
H1400 C1397 0.929 . S
S1401 N1402 1.613 . S
S1401 N1403 1.610 1_565 S
N1402 S1401 1.613 . S
N1402 C1405 1.350 . S
N1403 S1401 1.610 1_545 S
N1403 C1404 1.351 . S
C1404 C1398 1.428 . S
C1404 N1403 1.351 . S
C1404 C1405 1.434 1_545 S
C1405 C1396 1.429 . S
C1405 N1402 1.350 . S
C1405 C1404 1.434 1_565 S
C1406 C1407 1.369 . S
C1406 C1408 1.419 1_455 S
C1406 H1410 0.930 . S
C1407 C1406 1.369 . S
C1407 C1416 1.429 . S
C1408 C1406 1.419 1_655 S
C1408 C1409 1.363 . S
C1408 H1411 0.929 . S
C1409 C1408 1.363 . S
C1409 C1415 1.428 . S
H1410 C1406 0.930 . S
H1411 C1408 0.929 . S
S1412 N1413 1.613 1_655 S
S1412 N1414 1.610 . S
N1413 S1412 1.613 1_455 S
N1413 C1416 1.350 . S
N1414 S1412 1.610 . S
N1414 C1415 1.351 . S
C1415 C1409 1.428 . S
C1415 N1414 1.351 . S
C1415 C1416 1.434 1_655 S
C1416 C1407 1.429 . S
C1416 N1413 1.350 . S
C1416 C1415 1.434 1_455 S
C1417 C1418 1.369 . S
C1417 C1419 1.419 . S
C1417 H1421 0.930 . S
C1418 C1417 1.369 . S
C1418 C1427 1.429 . S
C1419 C1417 1.419 . S
C1419 C1420 1.363 . S
C1419 H1422 0.929 . S
C1420 C1419 1.363 . S
C1420 C1426 1.428 . S
H1421 C1417 0.930 . S
H1422 C1419 0.929 . S
S1423 N1424 1.613 . S
S1423 N1425 1.610 . S
N1424 S1423 1.613 . S
N1424 C1427 1.350 . S
N1425 S1423 1.610 . S
N1425 C1426 1.351 . S
C1426 C1420 1.428 . S
C1426 N1425 1.351 . S
C1426 C1427 1.434 . S
C1427 C1418 1.429 . S
C1427 N1424 1.350 . S
C1427 C1426 1.434 . S
C1428 C1429 1.369 . S
C1428 C1430 1.419 . S
C1428 H1432 0.930 . S
C1429 C1428 1.369 . S
C1429 C1438 1.429 . S
C1430 C1428 1.419 . S
C1430 C1431 1.363 . S
C1430 H1433 0.929 . S
C1431 C1430 1.363 . S
C1431 C1437 1.428 . S
H1432 C1428 0.930 . S
H1433 C1430 0.929 . S
S1434 N1435 1.613 . S
S1434 N1436 1.610 . S
N1435 S1434 1.613 . S
N1435 C1438 1.350 . S
N1436 S1434 1.610 . S
N1436 C1437 1.351 . S
C1437 C1431 1.428 . S
C1437 N1436 1.351 . S
C1437 C1438 1.434 . S
C1438 C1429 1.429 . S
C1438 N1435 1.350 . S
C1438 C1437 1.434 . S
C1439 C1440 1.369 . S
C1439 C1441 1.419 . S
C1439 H1443 0.930 . S
C1440 C1439 1.369 . S
C1440 C1449 1.429 . S
C1441 C1439 1.419 . S
C1441 C1442 1.363 . S
C1441 H1444 0.929 . S
C1442 C1441 1.363 . S
C1442 C1448 1.428 . S
H1443 C1439 0.930 . S
H1444 C1441 0.929 . S
S1445 N1446 1.613 . S
S1445 N1447 1.610 . S
N1446 S1445 1.613 . S
N1446 C1449 1.350 . S
N1447 S1445 1.610 . S
N1447 C1448 1.351 . S
C1448 C1442 1.428 . S
C1448 N1447 1.351 . S
C1448 C1449 1.434 . S
C1449 C1440 1.429 . S
C1449 N1446 1.350 . S
C1449 C1448 1.434 . S
C1450 C1451 1.369 . S
C1450 C1452 1.419 . S
C1450 H1454 0.930 . S
C1451 C1450 1.369 . S
C1451 C1460 1.429 . S
C1452 C1450 1.419 . S
C1452 C1453 1.363 . S
C1452 H1455 0.929 . S
C1453 C1452 1.363 . S
C1453 C1459 1.428 . S
H1454 C1450 0.930 . S
H1455 C1452 0.929 . S
S1456 N1457 1.613 . S
S1456 N1458 1.610 . S
N1457 S1456 1.613 . S
N1457 C1460 1.350 . S
N1458 S1456 1.610 . S
N1458 C1459 1.351 . S
C1459 C1453 1.428 . S
C1459 N1458 1.351 . S
C1459 C1460 1.434 . S
C1460 C1451 1.429 . S
C1460 N1457 1.350 . S
C1460 C1459 1.434 . S
C1461 C1462 1.369 . S
C1461 C1463 1.419 . S
C1461 H1465 0.930 . S
C1462 C1461 1.369 . S
C1462 C1471 1.429 . S
C1463 C1461 1.419 . S
C1463 C1464 1.363 . S
C1463 H1466 0.929 . S
C1464 C1463 1.363 . S
C1464 C1470 1.428 . S
H1465 C1461 0.930 . S
H1466 C1463 0.929 . S
S1467 N1468 1.613 . S
S1467 N1469 1.610 . S
N1468 S1467 1.613 . S
N1468 C1471 1.350 . S
N1469 S1467 1.610 . S
N1469 C1470 1.351 . S
C1470 C1464 1.428 . S
C1470 N1469 1.351 . S
C1470 C1471 1.434 . S
C1471 C1462 1.429 . S
C1471 N1468 1.350 . S
C1471 C1470 1.434 . S
C1472 C1473 1.369 . S
C1472 C1474 1.419 . S
C1472 H1476 0.930 . S
C1473 C1472 1.369 . S
C1473 C1482 1.429 . S
C1474 C1472 1.419 . S
C1474 C1475 1.363 . S
C1474 H1477 0.929 . S
C1475 C1474 1.363 . S
C1475 C1481 1.428 . S
H1476 C1472 0.930 . S
H1477 C1474 0.929 . S
S1478 N1479 1.613 . S
S1478 N1480 1.610 . S
N1479 S1478 1.613 . S
N1479 C1482 1.350 . S
N1480 S1478 1.610 . S
N1480 C1481 1.351 . S
C1481 C1475 1.428 . S
C1481 N1480 1.351 . S
C1481 C1482 1.434 . S
C1482 C1473 1.429 . S
C1482 N1479 1.350 . S
C1482 C1481 1.434 . S
C1483 C1484 1.369 . S
C1483 C1485 1.419 . S
C1483 H1487 0.930 . S
C1484 C1483 1.369 . S
C1484 C1493 1.429 . S
C1485 C1483 1.419 . S
C1485 C1486 1.363 . S
C1485 H1488 0.929 . S
C1486 C1485 1.363 . S
C1486 C1492 1.428 . S
H1487 C1483 0.930 . S
H1488 C1485 0.929 . S
S1489 N1490 1.613 . S
S1489 N1491 1.610 . S
N1490 S1489 1.613 . S
N1490 C1493 1.350 . S
N1491 S1489 1.610 . S
N1491 C1492 1.351 . S
C1492 C1486 1.428 . S
C1492 N1491 1.351 . S
C1492 C1493 1.434 . S
C1493 C1484 1.429 . S
C1493 N1490 1.350 . S
C1493 C1492 1.434 . S
C1494 C1495 1.369 . S
C1494 C1496 1.419 . S
C1494 H1498 0.930 . S
C1495 C1494 1.369 . S
C1495 C1504 1.429 . S
C1496 C1494 1.419 . S
C1496 C1497 1.363 . S
C1496 H1499 0.929 . S
C1497 C1496 1.363 . S
C1497 C1503 1.428 . S
H1498 C1494 0.930 . S
H1499 C1496 0.929 . S
S1500 N1501 1.613 . S
S1500 N1502 1.610 . S
N1501 S1500 1.613 . S
N1501 C1504 1.350 . S
N1502 S1500 1.610 . S
N1502 C1503 1.351 . S
C1503 C1497 1.428 . S
C1503 N1502 1.351 . S
C1503 C1504 1.434 . S
C1504 C1495 1.429 . S
C1504 N1501 1.350 . S
C1504 C1503 1.434 . S
C1505 C1506 1.369 . S
C1505 C1507 1.419 . S
C1505 H1509 0.930 . S
C1506 C1505 1.369 . S
C1506 C1515 1.429 . S
C1507 C1505 1.419 . S
C1507 C1508 1.363 . S
C1507 H1510 0.929 . S
C1508 C1507 1.363 . S
C1508 C1514 1.428 . S
H1509 C1505 0.930 . S
H1510 C1507 0.929 . S
S1511 N1512 1.613 . S
S1511 N1513 1.610 . S
N1512 S1511 1.613 . S
N1512 C1515 1.350 . S
N1513 S1511 1.610 . S
N1513 C1514 1.351 . S
C1514 C1508 1.428 . S
C1514 N1513 1.351 . S
C1514 C1515 1.434 . S
C1515 C1506 1.429 . S
C1515 N1512 1.350 . S
C1515 C1514 1.434 . S
C1516 C1517 1.369 . S
C1516 C1518 1.419 . S
C1516 H1520 0.930 . S
C1517 C1516 1.369 . S
C1517 C1526 1.429 . S
C1518 C1516 1.419 . S
C1518 C1519 1.363 . S
C1518 H1521 0.929 . S
C1519 C1518 1.363 . S
C1519 C1525 1.428 . S
H1520 C1516 0.930 . S
H1521 C1518 0.929 . S
S1522 N1523 1.613 . S
S1522 N1524 1.610 . S
N1523 S1522 1.613 . S
N1523 C1526 1.350 . S
N1524 S1522 1.610 . S
N1524 C1525 1.351 . S
C1525 C1519 1.428 . S
C1525 N1524 1.351 . S
C1525 C1526 1.434 . S
C1526 C1517 1.429 . S
C1526 N1523 1.350 . S
C1526 C1525 1.434 . S
C1527 C1528 1.369 . S
C1527 C1529 1.419 . S
C1527 H1531 0.930 . S
C1528 C1527 1.369 . S
C1528 C1537 1.429 . S
C1529 C1527 1.419 . S
C1529 C1530 1.363 . S
C1529 H1532 0.929 . S
C1530 C1529 1.363 . S
C1530 C1536 1.428 . S
H1531 C1527 0.930 . S
H1532 C1529 0.929 . S
S1533 N1534 1.613 . S
S1533 N1535 1.610 . S
N1534 S1533 1.613 . S
N1534 C1537 1.350 . S
N1535 S1533 1.610 . S
N1535 C1536 1.351 . S
C1536 C1530 1.428 . S
C1536 N1535 1.351 . S
C1536 C1537 1.434 . S
C1537 C1528 1.429 . S
C1537 N1534 1.350 . S
C1537 C1536 1.434 . S
C1538 C1539 1.369 . S
C1538 C1540 1.419 . S
C1538 H1542 0.930 . S
C1539 C1538 1.369 . S
C1539 C1548 1.429 . S
C1540 C1538 1.419 . S
C1540 C1541 1.363 . S
C1540 H1543 0.929 . S
C1541 C1540 1.363 . S
C1541 C1547 1.428 . S
H1542 C1538 0.930 . S
H1543 C1540 0.929 . S
S1544 N1545 1.613 . S
S1544 N1546 1.610 . S
N1545 S1544 1.613 . S
N1545 C1548 1.350 . S
N1546 S1544 1.610 . S
N1546 C1547 1.351 . S
C1547 C1541 1.428 . S
C1547 N1546 1.351 . S
C1547 C1548 1.434 . S
C1548 C1539 1.429 . S
C1548 N1545 1.350 . S
C1548 C1547 1.434 . S
C1549 C1550 1.369 . S
C1549 C1551 1.419 . S
C1549 H1553 0.930 . S
C1550 C1549 1.369 . S
C1550 C1559 1.429 . S
C1551 C1549 1.419 . S
C1551 C1552 1.363 . S
C1551 H1554 0.929 . S
C1552 C1551 1.363 . S
C1552 C1558 1.428 . S
H1553 C1549 0.930 . S
H1554 C1551 0.929 . S
S1555 N1556 1.613 . S
S1555 N1557 1.610 . S
N1556 S1555 1.613 . S
N1556 C1559 1.350 . S
N1557 S1555 1.610 . S
N1557 C1558 1.351 . S
C1558 C1552 1.428 . S
C1558 N1557 1.351 . S
C1558 C1559 1.434 . S
C1559 C1550 1.429 . S
C1559 N1556 1.350 . S
C1559 C1558 1.434 . S
C1560 C1561 1.369 . S
C1560 C1562 1.419 . S
C1560 H1564 0.930 . S
C1561 C1560 1.369 . S
C1561 C1570 1.429 . S
C1562 C1560 1.419 . S
C1562 C1563 1.363 . S
C1562 H1565 0.929 . S
C1563 C1562 1.363 . S
C1563 C1569 1.428 . S
H1564 C1560 0.930 . S
H1565 C1562 0.929 . S
S1566 N1567 1.613 . S
S1566 N1568 1.610 . S
N1567 S1566 1.613 . S
N1567 C1570 1.350 . S
N1568 S1566 1.610 . S
N1568 C1569 1.351 . S
C1569 C1563 1.428 . S
C1569 N1568 1.351 . S
C1569 C1570 1.434 . S
C1570 C1561 1.429 . S
C1570 N1567 1.350 . S
C1570 C1569 1.434 . S
C1571 C1572 1.369 . S
C1571 C1573 1.419 . S
C1571 H1575 0.930 . S
C1572 C1571 1.369 . S
C1572 C1581 1.429 . S
C1573 C1571 1.419 . S
C1573 C1574 1.363 . S
C1573 H1576 0.929 . S
C1574 C1573 1.363 . S
C1574 C1580 1.428 . S
H1575 C1571 0.930 . S
H1576 C1573 0.929 . S
S1577 N1578 1.613 . S
S1577 N1579 1.610 . S
N1578 S1577 1.613 . S
N1578 C1581 1.350 . S
N1579 S1577 1.610 . S
N1579 C1580 1.351 . S
C1580 C1574 1.428 . S
C1580 N1579 1.351 . S
C1580 C1581 1.434 . S
C1581 C1572 1.429 . S
C1581 N1578 1.350 . S
C1581 C1580 1.434 . S
C1582 C1583 1.369 . S
C1582 C1584 1.419 . S
C1582 H1586 0.930 . S
C1583 C1582 1.369 . S
C1583 C1592 1.429 . S
C1584 C1582 1.419 . S
C1584 C1585 1.363 . S
C1584 H1587 0.929 . S
C1585 C1584 1.363 . S
C1585 C1591 1.428 . S
H1586 C1582 0.930 . S
H1587 C1584 0.929 . S
S1588 N1589 1.613 . S
S1588 N1590 1.610 . S
N1589 S1588 1.613 . S
N1589 C1592 1.350 . S
N1590 S1588 1.610 . S
N1590 C1591 1.351 . S
C1591 C1585 1.428 . S
C1591 N1590 1.351 . S
C1591 C1592 1.434 . S
C1592 C1583 1.429 . S
C1592 N1589 1.350 . S
C1592 C1591 1.434 . S
C1593 C1594 1.369 . S
C1593 C1595 1.419 . S
C1593 H1597 0.930 . S
C1594 C1593 1.369 . S
C1594 C1603 1.429 . S
C1595 C1593 1.419 . S
C1595 C1596 1.363 . S
C1595 H1598 0.929 . S
C1596 C1595 1.363 . S
C1596 C1602 1.428 . S
H1597 C1593 0.930 . S
H1598 C1595 0.929 . S
S1599 N1600 1.613 . S
S1599 N1601 1.610 . S
N1600 S1599 1.613 . S
N1600 C1603 1.350 . S
N1601 S1599 1.610 . S
N1601 C1602 1.351 . S
C1602 C1596 1.428 . S
C1602 N1601 1.351 . S
C1602 C1603 1.434 . S
C1603 C1594 1.429 . S
C1603 N1600 1.350 . S
C1603 C1602 1.434 . S
C1604 C1605 1.369 . S
C1604 C1606 1.419 . S
C1604 H1608 0.930 . S
C1605 C1604 1.369 . S
C1605 C1614 1.429 . S
C1606 C1604 1.419 . S
C1606 C1607 1.363 . S
C1606 H1609 0.929 . S
C1607 C1606 1.363 . S
C1607 C1613 1.428 . S
H1608 C1604 0.930 . S
H1609 C1606 0.929 . S
S1610 N1611 1.613 . S
S1610 N1612 1.610 . S
N1611 S1610 1.613 . S
N1611 C1614 1.350 . S
N1612 S1610 1.610 . S
N1612 C1613 1.351 . S
C1613 C1607 1.428 . S
C1613 N1612 1.351 . S
C1613 C1614 1.434 . S
C1614 C1605 1.429 . S
C1614 N1611 1.350 . S
C1614 C1613 1.434 . S
C1615 C1616 1.369 . S
C1615 C1617 1.419 . S
C1615 H1619 0.930 . S
C1616 C1615 1.369 . S
C1616 C1625 1.429 . S
C1617 C1615 1.419 . S
C1617 C1618 1.363 . S
C1617 H1620 0.929 . S
C1618 C1617 1.363 . S
C1618 C1624 1.428 . S
H1619 C1615 0.930 . S
H1620 C1617 0.929 . S
S1621 N1622 1.613 . S
S1621 N1623 1.610 . S
N1622 S1621 1.613 . S
N1622 C1625 1.350 . S
N1623 S1621 1.610 . S
N1623 C1624 1.351 . S
C1624 C1618 1.428 . S
C1624 N1623 1.351 . S
C1624 C1625 1.434 . S
C1625 C1616 1.429 . S
C1625 N1622 1.350 . S
C1625 C1624 1.434 . S
C1626 C1627 1.369 . S
C1626 C1628 1.419 . S
C1626 H1630 0.930 . S
C1627 C1626 1.369 . S
C1627 C1636 1.429 . S
C1628 C1626 1.419 . S
C1628 C1629 1.363 . S
C1628 H1631 0.929 . S
C1629 C1628 1.363 . S
C1629 C1635 1.428 . S
H1630 C1626 0.930 . S
H1631 C1628 0.929 . S
S1632 N1633 1.613 . S
S1632 N1634 1.610 . S
N1633 S1632 1.613 . S
N1633 C1636 1.350 . S
N1634 S1632 1.610 . S
N1634 C1635 1.351 . S
C1635 C1629 1.428 . S
C1635 N1634 1.351 . S
C1635 C1636 1.434 . S
C1636 C1627 1.429 . S
C1636 N1633 1.350 . S
C1636 C1635 1.434 . S
C1637 C1638 1.369 . S
C1637 C1639 1.419 . S
C1637 H1641 0.930 . S
C1638 C1637 1.369 . S
C1638 C1647 1.429 . S
C1639 C1637 1.419 . S
C1639 C1640 1.363 . S
C1639 H1642 0.929 . S
C1640 C1639 1.363 . S
C1640 C1646 1.428 . S
H1641 C1637 0.930 . S
H1642 C1639 0.929 . S
S1643 N1644 1.613 . S
S1643 N1645 1.610 . S
N1644 S1643 1.613 . S
N1644 C1647 1.350 . S
N1645 S1643 1.610 . S
N1645 C1646 1.351 . S
C1646 C1640 1.428 . S
C1646 N1645 1.351 . S
C1646 C1647 1.434 . S
C1647 C1638 1.429 . S
C1647 N1644 1.350 . S
C1647 C1646 1.434 . S
C1648 C1649 1.369 . S
C1648 C1650 1.419 . S
C1648 H1652 0.930 . S
C1649 C1648 1.369 . S
C1649 C1658 1.429 . S
C1650 C1648 1.419 . S
C1650 C1651 1.363 . S
C1650 H1653 0.929 . S
C1651 C1650 1.363 . S
C1651 C1657 1.428 . S
H1652 C1648 0.930 . S
H1653 C1650 0.929 . S
S1654 N1655 1.613 . S
S1654 N1656 1.610 . S
N1655 S1654 1.613 . S
N1655 C1658 1.350 . S
N1656 S1654 1.610 . S
N1656 C1657 1.351 . S
C1657 C1651 1.428 . S
C1657 N1656 1.351 . S
C1657 C1658 1.434 . S
C1658 C1649 1.429 . S
C1658 N1655 1.350 . S
C1658 C1657 1.434 . S
C1659 C1660 1.369 . S
C1659 C1661 1.419 . S
C1659 H1663 0.930 . S
C1660 C1659 1.369 . S
C1660 C1669 1.429 . S
C1661 C1659 1.419 . S
C1661 C1662 1.363 . S
C1661 H1664 0.929 . S
C1662 C1661 1.363 . S
C1662 C1668 1.428 . S
H1663 C1659 0.930 . S
H1664 C1661 0.929 . S
S1665 N1666 1.613 . S
S1665 N1667 1.610 . S
N1666 S1665 1.613 . S
N1666 C1669 1.350 . S
N1667 S1665 1.610 . S
N1667 C1668 1.351 . S
C1668 C1662 1.428 . S
C1668 N1667 1.351 . S
C1668 C1669 1.434 . S
C1669 C1660 1.429 . S
C1669 N1666 1.350 . S
C1669 C1668 1.434 . S
C1670 C1671 1.369 . S
C1670 C1672 1.419 . S
C1670 H1674 0.930 . S
C1671 C1670 1.369 . S
C1671 C1680 1.429 . S
C1672 C1670 1.419 . S
C1672 C1673 1.363 . S
C1672 H1675 0.929 . S
C1673 C1672 1.363 . S
C1673 C1679 1.428 . S
H1674 C1670 0.930 . S
H1675 C1672 0.929 . S
S1676 N1677 1.613 . S
S1676 N1678 1.610 . S
N1677 S1676 1.613 . S
N1677 C1680 1.350 . S
N1678 S1676 1.610 . S
N1678 C1679 1.351 . S
C1679 C1673 1.428 . S
C1679 N1678 1.351 . S
C1679 C1680 1.434 . S
C1680 C1671 1.429 . S
C1680 N1677 1.350 . S
C1680 C1679 1.434 . S
C1681 C1682 1.369 . S
C1681 C1683 1.419 . S
C1681 H1685 0.930 . S
C1682 C1681 1.369 . S
C1682 C1691 1.429 . S
C1683 C1681 1.419 . S
C1683 C1684 1.363 . S
C1683 H1686 0.929 . S
C1684 C1683 1.363 . S
C1684 C1690 1.428 . S
H1685 C1681 0.930 . S
H1686 C1683 0.929 . S
S1687 N1688 1.613 . S
S1687 N1689 1.610 . S
N1688 S1687 1.613 . S
N1688 C1691 1.350 . S
N1689 S1687 1.610 . S
N1689 C1690 1.351 . S
C1690 C1684 1.428 . S
C1690 N1689 1.351 . S
C1690 C1691 1.434 . S
C1691 C1682 1.429 . S
C1691 N1688 1.350 . S
C1691 C1690 1.434 . S
C1099 C253 1.503 . S
C1101 C398 1.438 . S
C1110 C272 1.536 . S
C1112 C482 1.472 . S
C1121 C234 1.492 . S
C1123 C576 1.506 . S
C1132 C215 1.493 . S
C1134 C492 1.511 . S
C1145 C566 1.436 . S
C1143 C177 1.505 . S
C1154 C196 1.464 . S
C1156 C408 1.477 1_556 S
C1167 C409 1.498 . S
C1165 C220 1.474 . S
C1178 C493 1.527 . S
C1176 C182 1.489 . S
C1187 C201 1.481 . S
C1189 C585 1.504 1_556 S
C1198 C258 1.461 . S
C1200 C501 1.486 . S
C1209 C277 1.455 . S
C1211 C577 1.475 . S
C1222 C417 1.468 . S
C1220 C239 1.431 . S
C1233 C650 1.435 . S
C1231 C25 1.499 . S
C1242 C44 1.534 . S
C1244 C734 1.475 . S
C1253 C6 1.491 . S
C1255 C828 1.506 . S
C1264 C329 1.493 . S
C1266 C744 1.509 . S
C1275 C291 1.506 . S
C1277 C818 1.438 . S
C1286 C310 1.462 . S
C1288 C660 1.476 . S
C1297 C334 1.472 . S
C1299 C661 1.501 . S
C1308 C296 1.491 . S
C1310 C745 1.523 . S
C1321 C837 1.511 . S
C1319 C315 1.471 . S
C1330 C30 1.456 . S
C1332 C753 1.485 . S
C1343 C829 1.480 . S
C1341 C49 1.454 . S
C1352 C11 1.428 . S
C1354 C669 1.472 . S
C1365 C902 1.443 . S
C1363 C139 1.503 . S
C1374 C158 1.535 . S
C1376 C986 1.471 . S
C1387 C1080 1.505 . S
C1385 C120 1.495 . S
C1398 C996 1.509 . S
C1396 C101 1.493 . S
C1409 C1070 1.440 . S
C1407 C63 1.510 . S
C1418 C82 1.465 . S
C1420 C912 1.476 . S
C1429 C106 1.473 . S
C1431 C913 1.497 . S
C1440 C68 1.489 . S
C1442 C997 1.525 . S
C1453 C1089 1.504 . S
C1451 C87 1.481 . S
C1462 C144 1.451 . S
C1464 C1005 1.489 . S
C1473 C163 1.455 . S
C1475 C1081 1.475 . S
C1484 C125 1.428 . S
C1486 C921 1.472 . S
C1495 C287 1.658 . S
C1497 C405 1.559 . S
C1508 C489 1.574 . S
C1506 C306 1.705 . S
C1517 C325 1.651 . S
C1519 C582 1.452 . S
C1528 C116 1.665 . S
C1530 C498 1.443 . S
C1539 C135 1.668 . S
C1541 C573 1.552 . S
C1552 C414 1.434 . S
C1550 C154 1.614 . S
C1561 C59 1.653 . S
C1563 C657 1.562 . S
C1572 C78 1.708 . S
C1574 C741 1.578 . S
C1583 C97 1.655 . S
C1585 C834 1.440 . S
C1594 C230 1.662 . S
C1596 C750 1.436 . S
C1607 C825 1.552 . S
C1605 C249 1.669 . S
C1616 C268 1.616 . S
C1618 C666 1.434 . S
C1627 C173 1.660 . S
C1629 C909 1.561 . S
C1638 C192 1.704 . S
C1640 C993 1.574 . S
C1651 C1086 1.440 . S
C1649 C211 1.653 . S
C1660 C2 1.660 . S
C1662 C1002 1.442 . S
C1671 C21 1.669 . S
C1673 C1077 1.551 . S
C1682 C40 1.616 . S
C1684 C918 1.434 . S
