# Generated by pormake.
# Topology pts, (4,4)-cn, num edge types: 1
# Building blocks:
#     Node 0, Type 0, BuildingBlock: AZAVOO_clean_linker_0, # of connection points: 4
#     Node 1, Type 0, BuildingBlock: AZAVOO_clean_linker_0, # of connection points: 4
#     Node 2, Type 1, BuildingBlock: QUQFOY_clean_sbu_1, # of connection points: 4
#     Node 3, Type 1, BuildingBlock: QUQFOY_clean_sbu_1, # of connection points: 4
#     Edge 4, Type (0, 1), BuildingBlock: FUNLAD_clean_linker_1, # of connection points: 2
#     Edge 5, Type (0, 1), BuildingBlock: FUNLAD_clean_linker_1, # of connection points: 2
#     Edge 6, Type (0, 1), BuildingBlock: FUNLAD_clean_linker_1, # of connection points: 2
#     Edge 7, Type (0, 1), BuildingBlock: FUNLAD_clean_linker_1, # of connection points: 2
#     Edge 8, Type (0, 1), BuildingBlock: FUNLAD_clean_linker_1, # of connection points: 2
#     Edge 9, Type (0, 1), BuildingBlock: FUNLAD_clean_linker_1, # of connection points: 2
#     Edge 10, Type (0, 1), BuildingBlock: FUNLAD_clean_linker_1, # of connection points: 2
#     Edge 11, Type (0, 1), BuildingBlock: FUNLAD_clean_linker_1, # of connection points: 2
# Relax obj value: 0.196
# Max RMSD: 0.245
# Mean RMSD: 0.235
data_MOF--net-pts--node1-QUQFOY_clean_sbu_1--node2-AZAVOO_clean_linker_0--edge1-FUNLAD_clean_linker_1
_symmetry_space_group_name_H-M    P1
_symmetry_Int_Tables_number       1
_symmetry_cell_setting            triclinic
loop_
_symmetry_equiv_pos_as_xyz
'x, y, z'
_cell_length_a     25.670425
_cell_length_b     28.932541
_cell_length_c     50.525766
_cell_angle_alpha  90.898787
_cell_angle_beta   92.803574
_cell_angle_gamma 90.139727
loop_
_atom_site_label
_atom_site_type_symbol
_atom_site_fract_x
_atom_site_fract_y
_atom_site_fract_z
_atom_type_partial_charge
H0 H 0.52249 0.08782 0.81744 0.0
H1 H 0.88632 0.98438 0.04944 0.0
H2 H 0.45945 0.12436 0.96254 0.0
H3 H 0.38117 0.12692 0.93322 0.0
H4 H 0.35823 0.98034 0.94368 0.0
H5 H 0.43633 0.97853 0.97358 0.0
H6 H 0.55955 0.11906 0.93154 0.0
H7 H 0.54761 0.1198 0.88316 0.0
H8 H 0.50254 0.97565 0.88318 0.0
H9 H 0.51484 0.97544 0.93154 0.0
H10 H 0.66457 0.11213 0.96079 0.0
H11 H 0.72646 0.1115 0.92547 0.0
H12 H 0.69218 0.96695 0.90979 0.0
H13 H 0.63071 0.96799 0.9454 0.0
H14 H 0.66804 0.1064 0.02893 0.0
H15 H 0.75762 0.10113 0.04763 0.0
H16 H 0.76745 0.96139 0.01663 0.0
H17 H 0.67766 0.96692 0.9984 0.0
H18 H 0.56226 0.10743 0.05708 0.0
H19 H 0.5999 0.1063 0.10233 0.0
H20 H 0.64567 0.96388 0.0906 0.0
H21 H 0.60607 0.96512 0.04564 0.0
H22 H 0.45535 0.11606 0.0219 0.0
H23 H 0.38649 0.11668 0.05362 0.0
H24 H 0.41555 0.97228 0.06937 0.0
H25 H 0.48393 0.97198 0.03718 0.0
O26 O 0.52564 0.08715 0.8366 0.0
O27 O 0.50931 0.01168 0.8376 0.0
O28 O 0.8451 0.06041 0.05626 0.0
O29 O 0.85085 0.98743 0.04229 0.0
C30 C 0.50747 0.04755 0.98147 0.0
C31 C 0.5488 0.04598 0.96406 0.0
C32 C 0.6007 0.04215 0.97416 0.0
C33 C 0.61159 0.03992 0.00168 0.0
C34 C 0.57012 0.04028 0.01915 0.0
C35 C 0.51798 0.04424 0.00906 0.0
C36 C 0.4535 0.05126 0.97004 0.0
C37 C 0.43656 0.09314 0.95909 0.0
C38 C 0.39234 0.09426 0.94191 0.0
C39 C 0.36475 0.05325 0.93523 0.0
C40 C 0.37922 0.01226 0.94817 0.0
C41 C 0.42347 0.0112 0.9654 0.0
C42 C 0.53794 0.04724 0.93494 0.0
C43 C 0.54673 0.08783 0.92103 0.0
C44 C 0.53993 0.08811 0.89343 0.0
C45 C 0.52439 0.0477 0.8793 0.0
C46 C 0.51474 0.0073 0.89344 0.0
C47 C 0.52148 0.00711 0.92104 0.0
C48 C 0.64328 0.04016 0.9555 0.0
C49 C 0.67108 0.08027 0.94991 0.0
C50 C 0.70577 0.07994 0.92945 0.0
C51 C 0.71292 0.03935 0.91432 0.0
C52 C 0.68693 0.99873 0.92097 0.0
C53 C 0.65209 0.99919 0.94129 0.0
C54 C 0.66652 0.03713 0.01222 0.0
C55 C 0.68968 0.07473 0.02618 0.0
C56 C 0.74083 0.07163 0.03682 0.0
C57 C 0.76975 0.03084 0.03356 0.0
C58 C 0.74634 0.9933 0.01947 0.0
C59 C 0.69516 0.99643 0.00892 0.0
C60 C 0.5823 0.03662 0.04802 0.0
C61 C 0.5792 0.07569 0.0646 0.0
C62 C 0.60155 0.07507 0.09038 0.0
C63 C 0.62786 0.03538 0.09975 0.0
C64 C 0.62636 0.99511 0.08383 0.0
C65 C 0.60382 0.99572 0.05817 0.0
C66 C 0.4747 0.04406 0.02739 0.0
C67 C 0.44665 0.08459 0.03218 0.0
C68 C 0.40774 0.08495 0.0506 0.0
C69 C 0.39646 0.04465 0.06458 0.0
C70 C 0.42378 0.00388 0.0591 0.0
C71 C 0.46274 0.00362 0.04077 0.0
C72 C 0.51918 0.04759 0.84993 0.0
C73 C 0.82411 0.0273 0.04477 0.0
H74 H 0.99752 0.52101 0.31372 0.0
H75 H 0.11047 0.86001 0.54602 0.0
H76 H 0.96386 0.48182 0.45377 0.0
H77 H 0.96354 0.40725 0.43031 0.0
H78 H 0.12471 0.38708 0.45673 0.0
H79 H 0.12415 0.46131 0.48012 0.0
H80 H 0.96761 0.57599 0.42383 0.0
H81 H 0.96543 0.55801 0.3763 0.0
H82 H 0.12295 0.50566 0.38472 0.0
H83 H 0.12479 0.52435 0.43217 0.0
H84 H 0.96916 0.66695 0.45749 0.0
H85 H 0.9691 0.73237 0.42733 0.0
H86 H 0.12847 0.70091 0.40947 0.0
H87 H 0.1276 0.63564 0.43933 0.0
H88 H 0.97129 0.66931 0.51659 0.0
H89 H 0.97684 0.74763 0.53557 0.0
H90 H 0.13949 0.75432 0.51728 0.0
H91 H 0.13359 0.67562 0.49882 0.0
H92 H 0.96516 0.58225 0.54544 0.0
H93 H 0.95605 0.63038 0.5852 0.0
H94 H 0.12157 0.65964 0.58716 0.0
H95 H 0.12991 0.61141 0.54792 0.0
H96 H 0.96938 0.47461 0.51476 0.0
H97 H 0.97068 0.41007 0.54519 0.0
H98 H 0.12921 0.44507 0.5711 0.0
H99 H 0.12713 0.51005 0.54054 0.0
O100 O -0.00065 0.52812 0.33252 0.0
O101 O 0.08027 0.5014 0.33795 0.0
O102 O 0.02559 0.82138 0.55081 0.0
O103 O 0.10711 0.82911 0.5385 0.0
C104 C 0.04655 0.5253 0.47863 0.0
C105 C 0.04721 0.5618 0.4603 0.0
C106 C 0.04861 0.60808 0.46947 0.0
C107 C 0.04975 0.61796 0.49687 0.0
C108 C 0.04946 0.58152 0.51524 0.0
C109 C 0.04792 0.53512 0.50617 0.0
C110 C 0.04406 0.47689 0.46855 0.0
C111 C 0.99862 0.46063 0.45496 0.0
C112 C 0.99858 0.4181 0.44157 0.0
C113 C 0.04386 0.39093 0.44157 0.0
C114 C 0.08869 0.40634 0.45643 0.0
C115 C 0.08863 0.44899 0.46986 0.0
C116 C 0.04634 0.55148 0.43139 0.0
C117 C 0.00168 0.56089 0.41532 0.0
C118 C 0.00051 0.55045 0.3882 0.0
C119 C 0.04401 0.53034 0.37671 0.0
C120 C 0.08878 0.5211 0.39293 0.0
C121 C 0.08993 0.53167 0.42003 0.0
C122 C 0.04828 0.64654 0.45042 0.0
C123 C 0.00383 0.67417 0.44685 0.0
C124 C 0.00392 0.71145 0.42967 0.0
C125 C 0.0483 0.72166 0.41562 0.0
C126 C 0.09296 0.69376 0.4193 0.0
C127 C 0.09277 0.65642 0.43652 0.0
C128 C 0.05211 0.66678 0.5065 0.0
C129 C 0.00804 0.68781 0.51669 0.0
C130 C 0.01134 0.73251 0.52752 0.0
C131 C 0.0587 0.75718 0.52803 0.0
C132 C 0.10247 0.73629 0.51723 0.0
C133 C 0.09919 0.69144 0.50658 0.0
C134 C 0.04815 0.59352 0.54382 0.0
C135 C -0.0002 0.59704 0.55539 0.0
C136 C 0.9946 0.62497 0.57791 0.0
C137 C 0.03776 0.64925 0.58933 0.0
C138 C 0.08732 0.64129 0.57934 0.0
C139 C 0.0924 0.61342 0.55681 0.0
C140 C 0.04821 0.49686 0.52537 0.0
C141 C 0.00443 0.46814 0.52694 0.0
C142 C 0.00555 0.43086 0.54423 0.0
C143 C 0.05075 0.42158 0.56021 0.0
C144 C 0.09408 0.45108 0.55888 0.0
C145 C 0.09292 0.48828 0.54155 0.0
C146 C 0.04251 0.51903 0.34792 0.0
C147 C 0.06259 0.80445 0.53982 0.0
O148 O 0.97613 0.04119 0.22338 0.0
Cd149 Cd 0.05022 0.0258 0.23815 0.0
Cd150 Cd 0.0533 0.11663 0.25076 0.0
O151 O 0.97842 0.11556 0.23386 0.0
O152 O 0.0532 0.95754 0.24253 0.0
O153 O 0.06076 0.0077 0.27615 0.0
C154 C 0.05931 0.96534 0.26767 0.0
C155 C 0.06574 0.14664 0.29359 0.0
C156 C 0.95444 0.08062 0.22375 0.0
C157 C 0.13217 0.083 0.21336 0.0
O158 O 0.11456 0.11769 0.22573 0.0
O159 O 0.11235 0.04308 0.21584 0.0
O160 O 0.0589 0.17337 0.27352 0.0
O161 O 0.06598 0.10255 0.28934 0.0
O162 O 0.9729 0.09989 0.74628 0.0
Cd163 Cd 0.04145 0.10025 0.72656 0.0
Cd164 Cd 0.03836 0.00675 0.73844 0.0
O165 O 0.96922 0.02514 0.75442 0.0
O166 O 0.04289 0.16268 0.71065 0.0
O167 O 0.0404 0.09817 0.68656 0.0
C168 C 0.04145 0.14277 0.68765 0.0
C169 C 0.04077 0.93758 0.71416 0.0
C170 C 0.95034 0.06558 0.75618 0.0
C171 C 0.12695 0.06397 0.76299 0.0
O172 O 0.10441 0.02486 0.76091 0.0
O173 O 0.10956 0.09829 0.74999 0.0
O174 O 0.03949 0.93796 0.73958 0.0
O175 O 0.04043 0.97671 0.70218 0.0
H176 H 0.34053 0.00984 0.08965 0.0
C177 C 0.35614 0.04342 0.08465 0.0
H178 H 0.35723 0.11469 0.09504 0.0
H179 H 0.1329 0.03843 0.13981 0.0
H180 H 0.10501 0.02888 0.09352 0.0
H181 H 0.16625 0.0422 0.05827 0.0
H182 H 0.2558 0.06493 0.06912 0.0
C183 C 0.33992 0.081 0.09788 0.0
C184 C 0.30168 0.07659 0.11891 0.0
C185 C 0.24924 0.0639 0.11219 0.0
C186 C 0.21379 0.05683 0.1325 0.0
C187 C 0.16164 0.04406 0.12522 0.0
C188 C 0.14501 0.0386 0.0987 0.0
C189 C 0.1795 0.04606 0.07886 0.0
C190 C 0.23095 0.05876 0.08539 0.0
H191 H 0.1891 0.12478 0.19256 0.0
C192 C 0.17439 0.08991 0.19501 0.0
H193 H 0.17734 0.02028 0.182 0.0
H194 H 0.39881 0.10296 0.13843 0.0
H195 H 0.42662 0.11328 0.18471 0.0
H196 H 0.36552 0.09985 0.22002 0.0
H197 H 0.27622 0.07626 0.20925 0.0
C198 C 0.1931 0.05498 0.18047 0.0
C199 C 0.23056 0.06327 0.15948 0.0
C200 C 0.28276 0.0768 0.16619 0.0
C201 C 0.31822 0.0839 0.14584 0.0
C202 C 0.37021 0.09716 0.15306 0.0
C203 C 0.38674 0.10311 0.17957 0.0
C204 C 0.35233 0.09561 0.19944 0.0
C205 C 0.30101 0.08237 0.19296 0.0
H206 H 0.08444 0.38409 0.5948 0.0
C207 C 0.05387 0.38266 0.57911 0.0
H208 H 0.99115 0.34203 0.56239 0.0
H209 H 0.12534 0.19422 0.63849 0.0
H210 H 0.18744 0.19525 0.60389 0.0
H211 H 0.17553 0.24768 0.56605 0.0
H212 H 0.1017 0.29993 0.56282 0.0
C213 C 0.02193 0.34566 0.57775 0.0
C214 C 0.02567 0.30978 0.59852 0.0
C215 C 0.06796 0.27832 0.59963 0.0
C216 C 0.07378 0.24694 0.62099 0.0
C217 C 0.11794 0.21768 0.62232 0.0
C218 C 0.15411 0.2181 0.60264 0.0
C219 C 0.14749 0.24771 0.58136 0.0
C220 C 0.10506 0.27762 0.5798 0.0
H221 H 0.03377 0.15274 0.64423 0.0
C222 C 0.03967 0.17038 0.66329 0.0
H223 H 0.04832 0.23443 0.6836 0.0
H224 H 0.93857 0.36366 0.60127 0.0
H225 H 0.87427 0.36069 0.63483 0.0
H226 H 0.88279 0.30486 0.67118 0.0
H227 H 0.95572 0.2518 0.67426 0.0
C228 C 0.04381 0.21673 0.66448 0.0
C229 C 0.03632 0.24623 0.64073 0.0
C230 C 0.99287 0.27645 0.63894 0.0
C231 C 0.98758 0.30825 0.61783 0.0
C232 C 0.94432 0.3386 0.61681 0.0
C233 C 0.9071 0.33727 0.63594 0.0
C234 C 0.91193 0.30588 0.65642 0.0
C235 C 0.95415 0.27572 0.65799 0.0
H236 H 0.67773 0.00253 0.13093 0.0
C237 C 0.66215 0.03559 0.12433 0.0
H238 H 0.67074 0.10816 0.1288 0.0
H239 H 0.81098 0.01815 0.23102 0.0
H240 H 0.72836 0.99338 0.24762 0.0
H241 H 0.64589 0.00522 0.22147 0.0
H242 H 0.64554 0.04171 0.17848 0.0
C243 C 0.68253 0.07433 0.13573 0.0
C244 C 0.73077 0.07184 0.15318 0.0
C245 C 0.73014 0.05113 0.1784 0.0
C246 C 0.77761 0.04486 0.19362 0.0
C247 C 0.77602 0.02372 0.21865 0.0
C248 C 0.72888 0.00944 0.22842 0.0
C249 C 0.68244 0.01606 0.21368 0.0
C250 C 0.6828 0.03677 0.18899 0.0
H251 H 0.8864 0.12182 0.21003 0.0
C252 C 0.9021 0.08698 0.21104 0.0
H253 H 0.8895 0.01664 0.2005 0.0
H254 H 0.74557 0.1143 0.10583 0.0
H255 H 0.82772 0.13975 0.08959 0.0
H256 H 0.91018 0.1277 0.11566 0.0
H257 H 0.9107 0.09078 0.15831 0.0
C258 C 0.87512 0.05187 0.19926 0.0
C259 C 0.82539 0.05998 0.18376 0.0
C260 C 0.82592 0.08149 0.15872 0.0
C261 C 0.77848 0.0878 0.14353 0.0
C262 C 0.78022 0.10889 0.11842 0.0
C263 C 0.82725 0.12352 0.10874 0.0
C264 C 0.87363 0.11681 0.12343 0.0
C265 C 0.87328 0.09582 0.14803 0.0
H266 H 0.98924 0.70261 0.60766 0.0
C267 C 0.02822 0.68786 0.60822 0.0
H268 H 0.10494 0.69441 0.62516 0.0
H269 H 0.10462 0.90914 0.64123 0.0
H270 H 0.16776 0.89871 0.60759 0.0
H271 H 0.18013 0.82245 0.58639 0.0
H272 H 0.12974 0.75612 0.5988 0.0
C273 C 0.06565 0.70816 0.62395 0.0
C274 C 0.05685 0.75406 0.63674 0.0
C275 C 0.08577 0.79287 0.62874 0.0
C276 C 0.07774 0.83711 0.64052 0.0
C277 C 0.10837 0.87489 0.63269 0.0
C278 C 0.14489 0.8694 0.61339 0.0
C279 C 0.15192 0.82646 0.60149 0.0
C280 C 0.12278 0.78858 0.60891 0.0
H281 H 0.0527 0.86254 0.71145 0.0
C282 C 0.04363 0.89304 0.69982 0.0
H283 H 0.02603 0.91883 0.66163 0.0
H284 H 0.99844 0.68642 0.65862 0.0
H285 H 0.93012 0.69783 0.68954 0.0
H286 H 0.9088 0.776 0.70586 0.0
H287 H 0.95676 0.84297 0.69197 0.0
C288 C 0.0346 0.88854 0.67351 0.0
C289 C 0.03998 0.84276 0.65988 0.0
C290 C 0.00918 0.80434 0.66687 0.0
C291 C 0.01901 0.75968 0.65607 0.0
C292 C 0.99073 0.72142 0.66512 0.0
C293 C 0.95165 0.72743 0.68302 0.0
C294 C 0.93983 0.7714 0.69231 0.0
C295 C 0.96805 0.80952 0.68438 0.0
H296 H 0.29672 0.02174 0.91309 0.0
C297 C 0.32326 0.05116 0.91371 0.0
H298 H 0.34936 0.10831 0.89224 0.0
H299 H 0.2689 0.03232 0.78042 0.0
H300 H 0.36263 0.03253 0.77646 0.0
H301 H 0.42181 0.05088 0.81502 0.0
H302 H 0.38799 0.06839 0.858 0.0
C303 C 0.32087 0.08074 0.89337 0.0
C304 C 0.28472 0.07248 0.86983 0.0
C305 C 0.30548 0.06242 0.84485 0.0
C306 C 0.27138 0.05221 0.82248 0.0
C307 C 0.29302 0.0411 0.79793 0.0
C308 C 0.34677 0.04087 0.79541 0.0
C309 C 0.38012 0.0511 0.81717 0.0
C310 C 0.36005 0.06139 0.8417 0.0
H311 H 0.19131 0.10395 0.78302 0.0
C312 C 0.17051 0.07115 0.78273 0.0
H313 H 0.15792 0.00906 0.80299 0.0
H314 H 0.23191 0.09708 0.91378 0.0
H315 H 0.1381 0.09803 0.9174 0.0
H316 H 0.07911 0.07775 0.87894 0.0
H317 H 0.11361 0.05688 0.83657 0.0
C318 C 0.18069 0.04067 0.80209 0.0
C319 C 0.21672 0.05236 0.82511 0.0
C320 C 0.19591 0.06333 0.84991 0.0
C321 C 0.22991 0.07404 0.87223 0.0
C322 C 0.20798 0.08703 0.89643 0.0
C323 C 0.15414 0.08812 0.89872 0.0
C324 C 0.12093 0.07678 0.87706 0.0
C325 C 0.1413 0.0647 0.85287 0.0
H326 H 0.01243 0.34738 0.40832 0.0
C327 C 0.0439 0.34986 0.42352 0.0
H328 H 0.11376 0.31806 0.43811 0.0
H329 H 0.98748 0.17815 0.34805 0.0
H330 H 0.92365 0.16833 0.3813 0.0
H331 H 0.93307 0.20955 0.42439 0.0
H332 H 0.00617 0.2616 0.43425 0.0
C333 C 0.08143 0.31746 0.4235 0.0
C334 C 0.08287 0.28367 0.40101 0.0
C335 C 0.04161 0.25153 0.39609 0.0
C336 C 0.03744 0.22634 0.37167 0.0
C337 C 0.99374 0.19699 0.36657 0.0
C338 C 0.95659 0.19118 0.38547 0.0
C339 C 0.9618 0.21449 0.4097 0.0
C340 C 0.0037 0.24442 0.41504 0.0
H341 H 0.0799 0.14229 0.33706 0.0
C342 C 0.07248 0.16583 0.32076 0.0
H343 H 0.06253 0.23521 0.30935 0.0
H344 H 0.1705 0.33816 0.40569 0.0
H345 H 0.23775 0.34403 0.37386 0.0
H346 H 0.23239 0.29806 0.33227 0.0
H347 H 0.15942 0.24615 0.3222 0.0
C348 C 0.06855 0.21142 0.32564 0.0
C349 C 0.07588 0.23202 0.35272 0.0
C350 C 0.11947 0.2612 0.35866 0.0
C351 C 0.12295 0.28715 0.38281 0.0
C352 C 0.16605 0.31726 0.38779 0.0
C353 C 0.20498 0.32099 0.36967 0.0
C354 C 0.20194 0.29515 0.34624 0.0
C355 C 0.15977 0.2656 0.34068 0.0
H356 H 0.76144 0.00457 0.88511 0.0
C357 C 0.74654 0.038 0.89132 0.0
H358 H 0.74103 0.109 0.88148 0.0
H359 H 0.95471 0.08016 0.82159 0.0
H360 H 0.98902 0.11737 0.86206 0.0
H361 H 0.93193 0.13417 0.89889 0.0
H362 H 0.84008 0.11349 0.89543 0.0
C363 C 0.75625 0.07511 0.87668 0.0
C364 C 0.78853 0.07042 0.85325 0.0
C365 C 0.84157 0.08403 0.85529 0.0
C366 C 0.87417 0.07503 0.83389 0.0
C367 C 0.92772 0.08706 0.83693 0.0
C368 C 0.94806 0.10826 0.86015 0.0
C369 C 0.91594 0.11768 0.88089 0.0
C370 C 0.86332 0.10563 0.87865 0.0
H371 H 0.89152 0.10945 0.7746 0.0
C372 C 0.90569 0.07421 0.77278 0.0
H373 H 0.90188 0.00621 0.78743 0.0
H374 H 0.68705 0.04457 0.84215 0.0
H375 H 0.65192 0.0087 0.80129 0.0
H376 H 0.70852 0.99293 0.7641 0.0
H377 H 0.80061 0.01311 0.76752 0.0
C378 C 0.88782 0.04154 0.78861 0.0
C379 C 0.85309 0.05345 0.81029 0.0
C380 C 0.79961 0.04128 0.80795 0.0
C381 C 0.76715 0.05001 0.82944 0.0
C382 C 0.71363 0.03804 0.82655 0.0
C383 C 0.69294 0.01762 0.80317 0.0
C384 C 0.7248 0.00877 0.78222 0.0
C385 C 0.77755 0.02044 0.78446 0.0
H386 H 0.01463 0.78662 0.40003 0.0
C387 C 0.0464 0.76221 0.3979 0.0
H388 H 0.11224 0.74643 0.37555 0.0
H389 H 0.97287 0.89138 0.29982 0.0
H390 H 0.91011 0.8288 0.29472 0.0
H391 H 0.92315 0.75638 0.31929 0.0
H392 H 0.99837 0.74668 0.34956 0.0
C393 C 0.07999 0.7696 0.37879 0.0
C394 C 0.07486 0.81097 0.36178 0.0
C395 C 0.03198 0.81508 0.34318 0.0
C396 C 0.02607 0.8557 0.32787 0.0
C397 C 0.98086 0.8603 0.31088 0.0
C398 C 0.94421 0.82479 0.30795 0.0
C399 C 0.95142 0.78411 0.32187 0.0
C400 C 0.99467 0.77913 0.33931 0.0
H401 H 0.06685 0.89172 0.27733 0.0
C402 C 0.06369 0.92625 0.2859 0.0
H403 H 0.05916 0.96587 0.32118 0.0
H404 H 0.16088 0.81424 0.39595 0.0
H405 H 0.22524 0.87583 0.40008 0.0
H406 H 0.21738 0.94466 0.37197 0.0
H407 H 0.14496 0.95253 0.33972 0.0
C408 C 0.06156 0.93155 0.31228 0.0
C409 C 0.06482 0.89089 0.32999 0.0
C410 C 0.10766 0.88672 0.34859 0.0
C411 C 0.1126 0.84676 0.36454 0.0
C412 C 0.15549 0.84367 0.38316 0.0
C413 C 0.1927 0.87878 0.38575 0.0
C414 C 0.18825 0.91755 0.36994 0.0
C415 C 0.14641 0.92164 0.35151 0.0
loop_
_geom_bond_atom_site_label_1
_geom_bond_atom_site_label_2
_geom_bond_distance
_geom_bond_site_symmetry_2
_ccdc_geom_bond_type
H0 O26 0.856 . S
H1 O29 0.854 . S
H2 C37 0.930 . S
H3 C38 0.930 . S
H4 C40 0.930 . S
H5 C41 0.930 . S
H6 C43 0.931 . S
H7 C44 0.930 . S
H8 C46 0.930 1_565 S
H9 C47 0.929 1_565 S
H10 C49 0.930 . S
H11 C50 0.931 . S
H12 C52 0.930 1_565 S
H13 C53 0.929 1_565 S
H14 C55 0.931 . S
H15 C56 0.930 . S
H16 C58 0.925 1_566 S
H17 C59 0.932 1_565 S
H18 C61 0.930 . S
H19 C62 0.929 . S
H20 C64 0.931 . S
H21 C65 0.930 . S
H22 C67 0.929 . S
H23 C68 0.931 . S
H24 C70 0.930 1_565 S
H25 C71 0.929 . S
O26 H0 0.856 . S
O26 C72 1.300 . S
O27 C72 1.209 . S
O28 C73 1.199 . S
O29 H1 0.854 . S
O29 C73 1.297 . S
C30 C31 1.404 . S
C30 C35 1.397 1_556 S
C30 C36 1.492 . S
C31 C30 1.404 . S
C31 C32 1.396 . S
C31 C42 1.492 . S
C32 C31 1.396 . S
C32 C33 1.397 . S
C32 C48 1.509 . S
C33 C32 1.397 . S
C33 C34 1.412 1_556 S
C33 C54 1.485 . S
C34 C33 1.412 1_554 S
C34 C35 1.388 . S
C34 C60 1.490 . S
C35 C30 1.397 1_554 S
C35 C34 1.388 . S
C35 C66 1.519 . S
C36 C30 1.492 . S
C36 C37 1.363 . S
C36 C41 1.390 . S
C37 H2 0.930 . S
C37 C36 1.363 . S
C37 C38 1.372 . S
C38 H3 0.930 . S
C38 C37 1.372 . S
C38 C39 1.383 . S
C39 C38 1.383 . S
C39 C40 1.395 . S
C40 H4 0.930 . S
C40 C39 1.395 . S
C40 C41 1.362 . S
C41 H5 0.930 . S
C41 C36 1.390 . S
C41 C40 1.362 . S
C42 C31 1.492 . S
C42 C43 1.377 . S
C42 C47 1.397 . S
C43 H6 0.931 . S
C43 C42 1.377 . S
C43 C44 1.376 . S
C44 H7 0.930 . S
C44 C43 1.376 . S
C44 C45 1.376 . S
C45 C44 1.376 . S
C45 C46 1.378 . S
C45 C72 1.486 . S
C46 H8 0.930 1_545 S
C46 C45 1.378 . S
C46 C47 1.376 . S
C47 H9 0.929 1_545 S
C47 C42 1.397 . S
C47 C46 1.376 . S
C48 C32 1.509 . S
C48 C49 1.391 . S
C48 C53 1.386 . S
C49 H10 0.930 . S
C49 C48 1.391 . S
C49 C50 1.375 . S
C50 H11 0.931 . S
C50 C49 1.375 . S
C50 C51 1.375 . S
C51 C50 1.375 . S
C51 C52 1.361 . S
C52 H12 0.930 1_545 S
C52 C51 1.361 . S
C52 C53 1.399 . S
C53 H13 0.929 1_545 S
C53 C48 1.386 . S
C53 C52 1.399 . S
C54 C33 1.485 . S
C54 C55 1.394 1_556 S
C54 C59 1.360 . S
C55 H14 0.931 . S
C55 C54 1.394 1_554 S
C55 C56 1.372 . S
C56 H15 0.930 . S
C56 C55 1.372 . S
C56 C57 1.397 . S
C57 C56 1.397 . S
C57 C58 1.390 . S
C57 C73 1.476 . S
C58 H16 0.925 1_544 S
C58 C57 1.390 . S
C58 C59 1.366 1_554 S
C59 H17 0.932 1_545 S
C59 C54 1.360 . S
C59 C58 1.366 1_556 S
C60 C34 1.490 . S
C60 C61 1.380 . S
C60 C65 1.386 . S
C61 H18 0.930 . S
C61 C60 1.380 . S
C61 C62 1.381 . S
C62 H19 0.929 . S
C62 C61 1.381 . S
C62 C63 1.371 . S
C63 C62 1.371 . S
C63 C64 1.380 . S
C64 H20 0.931 . S
C64 C63 1.380 . S
C64 C65 1.387 . S
C65 H21 0.930 . S
C65 C60 1.386 . S
C65 C64 1.387 . S
C66 C35 1.519 . S
C66 C67 1.377 . S
C66 C71 1.361 . S
C67 H22 0.929 . S
C67 C66 1.377 . S
C67 C68 1.386 . S
C68 H23 0.931 . S
C68 C67 1.386 . S
C68 C69 1.363 . S
C69 C68 1.363 . S
C69 C70 1.385 . S
C70 H24 0.930 1_545 S
C70 C69 1.385 . S
C70 C71 1.396 . S
C71 H25 0.929 . S
C71 C66 1.361 . S
C71 C70 1.396 . S
C72 O26 1.300 . S
C72 O27 1.209 . S
C72 C45 1.486 . S
C73 O28 1.199 . S
C73 O29 1.297 . S
C73 C57 1.476 . S
H74 O100 0.856 . S
H75 O103 0.854 . S
H76 C111 0.921 1_655 S
H77 C112 0.930 . S
H78 C114 0.930 . S
H79 C115 0.930 . S
H80 C117 0.931 1_655 S
H81 C118 0.930 1_655 S
H82 C120 0.930 . S
H83 C121 0.929 . S
H84 C123 0.930 1_655 S
H85 C124 0.929 1_655 S
H86 C126 0.930 . S
H87 C127 0.929 . S
H88 C129 0.931 1_655 S
H89 C130 0.930 1_655 S
H90 C132 0.930 . S
H91 C133 0.932 . S
H92 C135 0.930 1_655 S
H93 C136 0.929 . S
H94 C138 0.931 . S
H95 C139 0.930 . S
H96 C141 0.929 1_655 S
H97 C142 0.931 1_655 S
H98 C144 0.930 . S
H99 C145 0.929 . S
O100 H74 0.856 . S
O100 C146 1.300 . S
O101 C146 1.209 . S
O102 C147 1.199 . S
O103 H75 0.854 . S
O103 C147 1.297 . S
C104 C105 1.404 . S
C104 C109 1.397 . S
C104 C110 1.492 . S
C105 C104 1.404 . S
C105 C106 1.396 . S
C105 C116 1.492 . S
C106 C105 1.396 . S
C106 C107 1.397 . S
C106 C122 1.509 . S
C107 C106 1.397 . S
C107 C108 1.412 . S
C107 C128 1.485 . S
C108 C107 1.412 . S
C108 C109 1.388 . S
C108 C134 1.490 . S
C109 C104 1.397 . S
C109 C108 1.388 . S
C109 C140 1.519 . S
C110 C104 1.492 . S
C110 C111 1.374 . S
C110 C115 1.390 . S
C111 H76 0.921 1_455 S
C111 C110 1.374 . S
C111 C112 1.371 1_455 S
C112 H77 0.930 . S
C112 C111 1.371 1_655 S
C112 C113 1.383 1_655 S
C113 C112 1.383 1_455 S
C113 C114 1.395 . S
C114 H78 0.930 . S
C114 C113 1.395 . S
C114 C115 1.362 . S
C115 H79 0.930 . S
C115 C110 1.390 . S
C115 C114 1.362 . S
C116 C105 1.492 . S
C116 C117 1.377 . S
C116 C121 1.397 . S
C117 H80 0.931 1_455 S
C117 C116 1.377 . S
C117 C118 1.376 . S
C118 H81 0.930 1_455 S
C118 C117 1.376 . S
C118 C119 1.376 . S
C119 C118 1.376 . S
C119 C120 1.378 . S
C119 C146 1.486 . S
C120 H82 0.930 . S
C120 C119 1.378 . S
C120 C121 1.376 . S
C121 H83 0.929 . S
C121 C116 1.397 . S
C121 C120 1.376 . S
C122 C106 1.509 . S
C122 C123 1.391 . S
C122 C127 1.386 . S
C123 H84 0.930 1_455 S
C123 C122 1.391 . S
C123 C124 1.375 . S
C124 H85 0.929 1_455 S
C124 C123 1.375 . S
C124 C125 1.375 . S
C125 C124 1.375 . S
C125 C126 1.361 . S
C126 H86 0.930 . S
C126 C125 1.361 . S
C126 C127 1.399 . S
C127 H87 0.929 . S
C127 C122 1.386 . S
C127 C126 1.399 . S
C128 C107 1.485 . S
C128 C129 1.394 . S
C128 C133 1.360 . S
C129 H88 0.931 1_455 S
C129 C128 1.394 . S
C129 C130 1.372 . S
C130 H89 0.930 1_455 S
C130 C129 1.372 . S
C130 C131 1.397 . S
C131 C130 1.397 . S
C131 C132 1.390 . S
C131 C147 1.476 . S
C132 H90 0.930 . S
C132 C131 1.390 . S
C132 C133 1.366 . S
C133 H91 0.932 . S
C133 C128 1.360 . S
C133 C132 1.366 . S
C134 C108 1.490 . S
C134 C135 1.380 . S
C134 C139 1.386 . S
C135 H92 0.930 1_455 S
C135 C134 1.380 . S
C135 C136 1.381 1_455 S
C136 H93 0.929 . S
C136 C135 1.381 1_655 S
C136 C137 1.371 1_655 S
C137 C136 1.371 1_455 S
C137 C138 1.380 . S
C138 H94 0.931 . S
C138 C137 1.380 . S
C138 C139 1.387 . S
C139 H95 0.930 . S
C139 C134 1.386 . S
C139 C138 1.387 . S
C140 C109 1.519 . S
C140 C141 1.377 . S
C140 C145 1.361 . S
C141 H96 0.929 1_455 S
C141 C140 1.377 . S
C141 C142 1.386 . S
C142 H97 0.931 1_455 S
C142 C141 1.386 . S
C142 C143 1.363 . S
C143 C142 1.363 . S
C143 C144 1.385 . S
C144 H98 0.930 . S
C144 C143 1.385 . S
C144 C145 1.396 . S
C145 H99 0.929 . S
C145 C140 1.361 . S
C145 C144 1.396 . S
C146 O100 1.300 . S
C146 O101 1.209 . S
C146 C119 1.486 . S
C147 O102 1.199 . S
C147 O103 1.297 . S
C147 C131 1.476 . S
O148 Cd149 2.223 1_545 S
O148 C156 1.315 1_455 S
Cd149 O148 2.223 1_565 S
Cd149 O152 2.297 . S
Cd149 O153 2.439 . S
Cd149 O159 2.240 1_565 S
Cd150 O151 2.240 1_455 S
Cd150 O158 2.223 . S
Cd150 O160 2.297 . S
Cd150 O161 2.439 . S
O151 Cd150 2.240 1_655 S
O151 C156 1.279 . S
O152 Cd149 2.297 . S
O152 C154 1.247 . S
O153 Cd149 2.439 . S
O153 C154 1.208 . S
C154 O152 1.247 . S
C154 O153 1.208 . S
C155 O160 1.247 . S
C155 O161 1.208 . S
C156 O148 1.315 1_655 S
C156 O151 1.279 . S
C157 O158 1.315 . S
C157 O159 1.279 . S
O158 Cd150 2.223 . S
O158 C157 1.315 . S
O159 Cd149 2.240 1_545 S
O159 C157 1.279 . S
O160 Cd150 2.297 . S
O160 C155 1.247 . S
O161 Cd150 2.439 . S
O161 C155 1.208 . S
O162 Cd163 2.223 . S
O162 C170 1.315 1_455 S
Cd163 O162 2.223 . S
Cd163 O166 2.297 . S
Cd163 O167 2.439 . S
Cd163 O173 2.240 . S
Cd164 O165 2.240 1_465 S
Cd164 O172 2.223 . S
Cd164 O174 2.297 . S
Cd164 O175 2.439 . S
O165 Cd164 2.240 1_645 S
O165 C170 1.279 . S
O166 Cd163 2.297 . S
O166 C168 1.247 . S
O167 Cd163 2.439 . S
O167 C168 1.208 . S
C168 O166 1.247 . S
C168 O167 1.208 . S
C169 O174 1.247 . S
C169 O175 1.208 . S
C170 O162 1.315 1_655 S
C170 O165 1.279 . S
C171 O172 1.315 1_545 S
C171 O173 1.279 . S
O172 Cd164 2.223 . S
O172 C171 1.315 1_565 S
O173 Cd163 2.240 . S
O173 C171 1.279 . S
O174 Cd164 2.297 . S
O174 C169 1.247 . S
O175 Cd164 2.439 . S
O175 C169 1.208 . S
H176 C177 0.951 . S
C177 H176 0.951 . S
C177 C183 1.265 . S
H178 C183 0.950 . S
H179 C187 0.948 1_545 S
H180 C188 0.950 . S
H181 C189 0.951 . S
H182 C190 0.951 . S
C183 C177 1.265 . S
C183 H178 0.950 . S
C183 C184 1.478 . S
C184 C183 1.478 . S
C184 C185 1.397 . S
C184 C201 1.394 . S
C185 C184 1.397 . S
C185 C186 1.438 . S
C185 C190 1.429 1_545 S
C186 C185 1.438 . S
C186 C187 1.428 1_545 S
C186 C199 1.394 . S
C187 H179 0.948 1_565 S
C187 C186 1.428 1_565 S
C187 C188 1.345 . S
C188 H180 0.950 . S
C188 C187 1.345 . S
C188 C189 1.424 . S
C189 H181 0.951 . S
C189 C188 1.424 . S
C189 C190 1.347 . S
C190 H182 0.951 . S
C190 C185 1.429 1_565 S
C190 C189 1.347 . S
H191 C192 0.951 . S
C192 H191 0.951 . S
C192 C198 1.265 . S
H193 C198 0.950 . S
H194 C202 0.949 . S
H195 C203 0.950 . S
H196 C204 0.951 . S
H197 C205 0.951 . S
C198 C192 1.265 . S
C198 H193 0.950 . S
C198 C199 1.478 . S
C199 C186 1.394 . S
C199 C198 1.478 . S
C199 C200 1.397 . S
C200 C199 1.397 . S
C200 C201 1.438 . S
C200 C205 1.429 . S
C201 C184 1.394 . S
C201 C200 1.438 . S
C201 C202 1.428 . S
C202 H194 0.949 . S
C202 C201 1.428 . S
C202 C203 1.345 . S
C203 H195 0.950 . S
C203 C202 1.345 . S
C203 C204 1.424 . S
C204 H196 0.951 . S
C204 C203 1.424 . S
C204 C205 1.347 . S
C205 H197 0.951 . S
C205 C200 1.429 . S
C205 C204 1.347 . S
H206 C207 0.951 . S
C207 H206 0.951 . S
C207 C213 1.265 . S
H208 C213 0.950 1_655 S
H209 C217 0.949 . S
H210 C218 0.950 . S
H211 C219 0.951 1_655 S
H212 C220 0.951 . S
C213 C207 1.265 . S
C213 H208 0.950 1_455 S
C213 C214 1.478 . S
C214 C213 1.478 . S
C214 C215 1.397 . S
C214 C231 1.394 . S
C215 C214 1.397 . S
C215 C216 1.438 . S
C215 C220 1.429 . S
C216 C215 1.438 . S
C216 C217 1.428 . S
C216 C229 1.394 . S
C217 H209 0.949 . S
C217 C216 1.428 . S
C217 C218 1.345 . S
C218 H210 0.950 . S
C218 C217 1.345 . S
C218 C219 1.424 . S
C219 H211 0.951 1_455 S
C219 C218 1.424 . S
C219 C220 1.347 . S
C220 H212 0.951 . S
C220 C215 1.429 . S
C220 C219 1.347 . S
H221 C222 0.951 1_655 S
C222 H221 0.951 1_455 S
C222 C228 1.265 . S
H223 C228 0.950 . S
H224 C232 0.949 . S
H225 C233 0.950 . S
H226 C234 0.951 . S
H227 C235 0.951 . S
C228 C222 1.265 . S
C228 H223 0.950 . S
C228 C229 1.478 . S
C229 C216 1.394 . S
C229 C228 1.478 . S
C229 C230 1.397 . S
C230 C229 1.397 . S
C230 C231 1.438 . S
C230 C235 1.429 . S
C231 C214 1.394 . S
C231 C230 1.438 . S
C231 C232 1.428 . S
C232 H224 0.949 . S
C232 C231 1.428 . S
C232 C233 1.345 . S
C233 H225 0.950 . S
C233 C232 1.345 . S
C233 C234 1.424 . S
C234 H226 0.951 . S
C234 C233 1.424 . S
C234 C235 1.347 . S
C235 H227 0.951 . S
C235 C230 1.429 . S
C235 C234 1.347 . S
H236 C237 0.951 . S
C237 H236 0.951 . S
C237 C243 1.265 . S
H238 C243 0.950 . S
H239 C247 0.949 . S
H240 C248 0.950 . S
H241 C249 0.951 . S
H242 C250 0.950 1_545 S
C243 C237 1.265 . S
C243 H238 0.950 . S
C243 C244 1.478 . S
C244 C243 1.478 . S
C244 C245 1.397 . S
C244 C261 1.394 . S
C245 C244 1.397 . S
C245 C246 1.438 . S
C245 C250 1.422 1_545 S
C246 C245 1.438 . S
C246 C247 1.428 1_545 S
C246 C259 1.394 . S
C247 H239 0.949 . S
C247 C246 1.428 1_565 S
C247 C248 1.345 . S
C248 H240 0.950 . S
C248 C247 1.345 . S
C248 C249 1.424 . S
C249 H241 0.951 . S
C249 C248 1.424 . S
C249 C250 1.355 . S
C250 H242 0.950 1_565 S
C250 C245 1.422 1_565 S
C250 C249 1.355 . S
H251 C252 0.951 . S
C252 H251 0.951 . S
C252 C258 1.265 . S
H253 C258 0.950 . S
H254 C262 0.949 . S
H255 C263 0.950 . S
H256 C264 0.951 . S
H257 C265 0.951 . S
C258 C252 1.265 . S
C258 H253 0.950 . S
C258 C259 1.478 . S
C259 C246 1.394 . S
C259 C258 1.478 . S
C259 C260 1.397 . S
C260 C259 1.397 . S
C260 C261 1.438 . S
C260 C265 1.429 . S
C261 C244 1.394 . S
C261 C260 1.438 . S
C261 C262 1.428 . S
C262 H254 0.949 . S
C262 C261 1.428 . S
C262 C263 1.345 . S
C263 H255 0.950 . S
C263 C262 1.345 . S
C263 C264 1.424 . S
C264 H256 0.951 . S
C264 C263 1.424 . S
C264 C265 1.347 . S
C265 H257 0.951 . S
C265 C260 1.429 . S
C265 C264 1.347 . S
H266 C267 0.951 1_655 S
C267 H266 0.951 1_455 S
C267 C273 1.265 . S
H268 C273 0.950 . S
H269 C277 0.949 . S
H270 C278 0.950 . S
H271 C279 0.951 . S
H272 C280 0.951 . S
C273 C267 1.265 . S
C273 H268 0.950 . S
C273 C274 1.478 . S
C274 C273 1.478 . S
C274 C275 1.397 . S
C274 C291 1.394 . S
C275 C274 1.397 . S
C275 C276 1.438 . S
C275 C280 1.429 . S
C276 C275 1.438 . S
C276 C277 1.428 . S
C276 C289 1.394 . S
C277 H269 0.949 . S
C277 C276 1.428 . S
C277 C278 1.345 . S
C278 H270 0.950 . S
C278 C277 1.345 . S
C278 C279 1.424 . S
C279 H271 0.951 . S
C279 C278 1.424 . S
C279 C280 1.347 . S
C280 H272 0.951 . S
C280 C275 1.429 . S
C280 C279 1.347 . S
H281 C282 0.951 . S
C282 H281 0.951 . S
C282 C288 1.265 . S
H283 C288 0.950 . S
H284 C292 0.949 . S
H285 C293 0.950 . S
H286 C294 0.951 . S
H287 C295 0.951 . S
C288 C282 1.265 . S
C288 H283 0.950 . S
C288 C289 1.478 . S
C289 C276 1.394 . S
C289 C288 1.478 . S
C289 C290 1.397 . S
C290 C289 1.397 . S
C290 C291 1.438 . S
C290 C295 1.429 1_455 S
C291 C274 1.394 . S
C291 C290 1.438 . S
C291 C292 1.428 1_455 S
C292 H284 0.949 . S
C292 C291 1.428 1_655 S
C292 C293 1.345 . S
C293 H285 0.950 . S
C293 C292 1.345 . S
C293 C294 1.424 . S
C294 H286 0.951 . S
C294 C293 1.424 . S
C294 C295 1.347 . S
C295 H287 0.951 . S
C295 C290 1.429 1_655 S
C295 C294 1.347 . S
H296 C297 0.951 . S
C297 H296 0.951 . S
C297 C303 1.265 . S
H298 C303 0.950 . S
H299 C307 0.949 1_565 S
H300 C308 0.950 1_565 S
H301 C309 0.951 . S
H302 C310 0.951 . S
C303 C297 1.265 . S
C303 H298 0.950 . S
C303 C304 1.478 . S
C304 C303 1.478 . S
C304 C305 1.397 . S
C304 C321 1.394 . S
C305 C304 1.397 . S
C305 C306 1.438 . S
C305 C310 1.429 . S
C306 C305 1.438 . S
C306 C307 1.428 . S
C306 C319 1.394 . S
C307 H299 0.949 1_545 S
C307 C306 1.428 . S
C307 C308 1.345 . S
C308 H300 0.950 1_545 S
C308 C307 1.345 . S
C308 C309 1.424 . S
C309 H301 0.951 . S
C309 C308 1.424 . S
C309 C310 1.347 . S
C310 H302 0.951 . S
C310 C305 1.429 . S
C310 C309 1.347 . S
H311 C312 0.951 . S
C312 H311 0.951 . S
C312 C318 1.265 . S
H313 C318 0.950 1_565 S
H314 C322 0.949 . S
H315 C323 0.950 . S
H316 C324 0.951 . S
H317 C325 0.951 . S
C318 C312 1.265 . S
C318 H313 0.950 1_545 S
C318 C319 1.478 . S
C319 C306 1.394 . S
C319 C318 1.478 . S
C319 C320 1.397 . S
C320 C319 1.397 . S
C320 C321 1.438 . S
C320 C325 1.429 . S
C321 C304 1.394 . S
C321 C320 1.438 . S
C321 C322 1.428 . S
C322 H314 0.949 . S
C322 C321 1.428 . S
C322 C323 1.345 . S
C323 H315 0.950 . S
C323 C322 1.345 . S
C323 C324 1.424 . S
C324 H316 0.951 . S
C324 C323 1.424 . S
C324 C325 1.347 . S
C325 H317 0.951 . S
C325 C320 1.429 . S
C325 C324 1.347 . S
H326 C327 0.951 . S
C327 H326 0.951 . S
C327 C333 1.265 . S
H328 C333 0.950 . S
H329 C337 0.949 . S
H330 C338 0.950 . S
H331 C339 0.951 . S
H332 C340 0.951 . S
C333 C327 1.265 . S
C333 H328 0.950 . S
C333 C334 1.478 . S
C334 C333 1.478 . S
C334 C335 1.397 . S
C334 C351 1.394 . S
C335 C334 1.397 . S
C335 C336 1.438 . S
C335 C340 1.429 1_455 S
C336 C335 1.438 . S
C336 C337 1.428 1_455 S
C336 C349 1.394 . S
C337 H329 0.949 . S
C337 C336 1.428 1_655 S
C337 C338 1.345 . S
C338 H330 0.950 . S
C338 C337 1.345 . S
C338 C339 1.424 . S
C339 H331 0.951 . S
C339 C338 1.424 . S
C339 C340 1.347 . S
C340 H332 0.951 . S
C340 C335 1.429 1_655 S
C340 C339 1.347 . S
H341 C342 0.951 . S
C342 H341 0.951 . S
C342 C348 1.265 . S
H343 C348 0.950 . S
H344 C352 0.949 . S
H345 C353 0.950 . S
H346 C354 0.951 . S
H347 C355 0.951 . S
C348 C342 1.265 . S
C348 H343 0.950 . S
C348 C349 1.478 . S
C349 C336 1.394 . S
C349 C348 1.478 . S
C349 C350 1.397 . S
C350 C349 1.397 . S
C350 C351 1.438 . S
C350 C355 1.429 . S
C351 C334 1.394 . S
C351 C350 1.438 . S
C351 C352 1.428 . S
C352 H344 0.949 . S
C352 C351 1.428 . S
C352 C353 1.345 . S
C353 H345 0.950 . S
C353 C352 1.345 . S
C353 C354 1.424 . S
C354 H346 0.951 . S
C354 C353 1.424 . S
C354 C355 1.347 . S
C355 H347 0.951 . S
C355 C350 1.429 . S
C355 C354 1.347 . S
H356 C357 0.951 . S
C357 H356 0.951 . S
C357 C363 1.265 . S
H358 C363 0.950 . S
H359 C367 0.949 . S
H360 C368 0.950 . S
H361 C369 0.951 . S
H362 C370 0.951 . S
C363 C357 1.265 . S
C363 H358 0.950 . S
C363 C364 1.478 . S
C364 C363 1.478 . S
C364 C365 1.397 . S
C364 C381 1.394 . S
C365 C364 1.397 . S
C365 C366 1.438 . S
C365 C370 1.429 . S
C366 C365 1.438 . S
C366 C367 1.428 . S
C366 C379 1.394 . S
C367 H359 0.949 . S
C367 C366 1.428 . S
C367 C368 1.345 . S
C368 H360 0.950 . S
C368 C367 1.345 . S
C368 C369 1.424 . S
C369 H361 0.951 . S
C369 C368 1.424 . S
C369 C370 1.347 . S
C370 H362 0.951 . S
C370 C365 1.429 . S
C370 C369 1.347 . S
H371 C372 0.951 . S
C372 H371 0.951 . S
C372 C378 1.265 . S
H373 C378 0.950 . S
H374 C382 0.949 . S
H375 C383 0.950 . S
H376 C384 0.951 . S
H377 C385 0.951 . S
C378 C372 1.265 . S
C378 H373 0.950 . S
C378 C379 1.478 . S
C379 C366 1.394 . S
C379 C378 1.478 . S
C379 C380 1.397 . S
C380 C379 1.397 . S
C380 C381 1.438 . S
C380 C385 1.429 1_545 S
C381 C364 1.394 . S
C381 C380 1.438 . S
C381 C382 1.428 1_545 S
C382 H374 0.949 . S
C382 C381 1.428 1_565 S
C382 C383 1.345 . S
C383 H375 0.950 . S
C383 C382 1.345 . S
C383 C384 1.424 . S
C384 H376 0.951 . S
C384 C383 1.424 . S
C384 C385 1.347 . S
C385 H377 0.951 . S
C385 C380 1.429 1_565 S
C385 C384 1.347 . S
H386 C387 0.951 . S
C387 H386 0.951 . S
C387 C393 1.265 . S
H388 C393 0.950 . S
H389 C397 0.949 . S
H390 C398 0.950 . S
H391 C399 0.951 . S
H392 C400 0.951 . S
C393 C387 1.265 . S
C393 H388 0.950 . S
C393 C394 1.478 . S
C394 C393 1.478 . S
C394 C395 1.397 . S
C394 C411 1.394 . S
C395 C394 1.397 . S
C395 C396 1.438 . S
C395 C400 1.429 . S
C396 C395 1.438 . S
C396 C397 1.428 . S
C396 C409 1.394 . S
C397 H389 0.949 . S
C397 C396 1.428 . S
C397 C398 1.345 . S
C398 H390 0.950 . S
C398 C397 1.345 . S
C398 C399 1.424 . S
C399 H391 0.951 . S
C399 C398 1.424 . S
C399 C400 1.347 . S
C400 H392 0.951 . S
C400 C395 1.429 . S
C400 C399 1.347 . S
H401 C402 0.951 . S
C402 H401 0.951 . S
C402 C408 1.265 1_455 S
H403 C408 0.950 . S
H404 C412 0.949 . S
H405 C413 0.950 . S
H406 C414 0.951 . S
H407 C415 0.951 1_655 S
C408 C402 1.265 1_655 S
C408 H403 0.950 . S
C408 C409 1.478 1_655 S
C409 C396 1.394 . S
C409 C408 1.478 1_455 S
C409 C410 1.397 . S
C410 C409 1.397 . S
C410 C411 1.438 . S
C410 C415 1.429 . S
C411 C394 1.394 . S
C411 C410 1.438 . S
C411 C412 1.428 . S
C412 H404 0.949 . S
C412 C411 1.428 . S
C412 C413 1.345 . S
C413 H405 0.950 . S
C413 C412 1.345 . S
C413 C414 1.424 . S
C414 H406 0.951 . S
C414 C413 1.424 . S
C414 C415 1.347 . S
C415 H407 0.951 1_455 S
C415 C410 1.429 . S
C415 C414 1.347 . S
C192 C157 2.201 . S
C177 C69 2.188 . S
C222 C168 2.255 . S
C207 C143 2.311 . S
C252 C156 1.616 . S
C237 C63 1.456 . S
C282 C169 1.589 . S
C267 C137 1.521 . S
C312 C171 1.654 . S
C297 C39 1.544 . S
C342 C155 1.487 . S
C327 C113 1.393 . S
C372 C170 0.867 . S
C357 C51 0.891 . S
C387 C125 0.874 . S
C402 C154 0.812 . S
