# Generated by pormake.
# Topology zzz, (3,6)-cn, num edge types: 1
# Building blocks:
#     Node 0, Type 0, BuildingBlock: VETTIZ_charged_linker_0, # of connection points: 3
#     Node 1, Type 0, BuildingBlock: VETTIZ_charged_linker_0, # of connection points: 3
#     Node 2, Type 0, BuildingBlock: VETTIZ_charged_linker_0, # of connection points: 3
#     Node 3, Type 0, BuildingBlock: VETTIZ_charged_linker_0, # of connection points: 3
#     Node 4, Type 0, BuildingBlock: VETTIZ_charged_linker_0, # of connection points: 3
#     Node 5, Type 0, BuildingBlock: VETTIZ_charged_linker_0, # of connection points: 3
#     Node 6, Type 0, BuildingBlock: VETTIZ_charged_linker_0, # of connection points: 3
#     Node 7, Type 0, BuildingBlock: VETTIZ_charged_linker_0, # of connection points: 3
#     Node 8, Type 1, BuildingBlock: KUMJIN_clean_sbu_1, # of connection points: 6
#     Node 9, Type 1, BuildingBlock: KUMJIN_clean_sbu_1, # of connection points: 6
#     Node 10, Type 1, BuildingBlock: KUMJIN_clean_sbu_1, # of connection points: 6
#     Node 11, Type 1, BuildingBlock: KUMJIN_clean_sbu_1, # of connection points: 6
#     Edge 12, Type (0, 1), BuildingBlock: XIVTED_clean_linker_0, # of connection points: 2
#     Edge 13, Type (0, 1), BuildingBlock: XIVTED_clean_linker_0, # of connection points: 2
#     Edge 14, Type (0, 1), BuildingBlock: XIVTED_clean_linker_0, # of connection points: 2
#     Edge 15, Type (0, 1), BuildingBlock: XIVTED_clean_linker_0, # of connection points: 2
#     Edge 16, Type (0, 1), BuildingBlock: XIVTED_clean_linker_0, # of connection points: 2
#     Edge 17, Type (0, 1), BuildingBlock: XIVTED_clean_linker_0, # of connection points: 2
#     Edge 18, Type (0, 1), BuildingBlock: XIVTED_clean_linker_0, # of connection points: 2
#     Edge 19, Type (0, 1), BuildingBlock: XIVTED_clean_linker_0, # of connection points: 2
#     Edge 20, Type (0, 1), BuildingBlock: XIVTED_clean_linker_0, # of connection points: 2
#     Edge 21, Type (0, 1), BuildingBlock: XIVTED_clean_linker_0, # of connection points: 2
#     Edge 22, Type (0, 1), BuildingBlock: XIVTED_clean_linker_0, # of connection points: 2
#     Edge 23, Type (0, 1), BuildingBlock: XIVTED_clean_linker_0, # of connection points: 2
#     Edge 24, Type (0, 1), BuildingBlock: XIVTED_clean_linker_0, # of connection points: 2
#     Edge 25, Type (0, 1), BuildingBlock: XIVTED_clean_linker_0, # of connection points: 2
#     Edge 26, Type (0, 1), BuildingBlock: XIVTED_clean_linker_0, # of connection points: 2
#     Edge 27, Type (0, 1), BuildingBlock: XIVTED_clean_linker_0, # of connection points: 2
#     Edge 28, Type (0, 1), BuildingBlock: XIVTED_clean_linker_0, # of connection points: 2
#     Edge 29, Type (0, 1), BuildingBlock: XIVTED_clean_linker_0, # of connection points: 2
#     Edge 30, Type (0, 1), BuildingBlock: XIVTED_clean_linker_0, # of connection points: 2
#     Edge 31, Type (0, 1), BuildingBlock: XIVTED_clean_linker_0, # of connection points: 2
#     Edge 32, Type (0, 1), BuildingBlock: XIVTED_clean_linker_0, # of connection points: 2
#     Edge 33, Type (0, 1), BuildingBlock: XIVTED_clean_linker_0, # of connection points: 2
#     Edge 34, Type (0, 1), BuildingBlock: XIVTED_clean_linker_0, # of connection points: 2
#     Edge 35, Type (0, 1), BuildingBlock: XIVTED_clean_linker_0, # of connection points: 2
# Relax obj value: 0.319
# Max RMSD: 0.211
# Mean RMSD: 0.184
data_MOF--net-zzz--node1-KUMJIN_clean_sbu_1--node2-VETTIZ_charged_linker_0--edge1-XIVTED_clean_linker_0
_symmetry_space_group_name_H-M    P1
_symmetry_Int_Tables_number       1
_symmetry_cell_setting            triclinic
loop_
_symmetry_equiv_pos_as_xyz
'x, y, z'
_cell_length_a     56.105487
_cell_length_b     56.136797
_cell_length_c     20.865563
_cell_angle_alpha  89.881621
_cell_angle_beta   90.046826
_cell_angle_gamma 90.274026
loop_
_atom_site_label
_atom_site_type_symbol
_atom_site_fract_x
_atom_site_fract_y
_atom_site_fract_z
_atom_type_partial_charge
C0 C 0.80762 0.54769 0.321 0.0
C1 C 0.82707 0.55929 0.35231 0.0
C2 C 0.83168 0.58344 0.33817 0.0
C3 C 0.80269 0.58233 0.25345 0.0
C4 C 0.79491 0.56023 0.27263 0.0
C5 C 0.77179 0.55391 0.23724 0.0
H6 H 0.69549 0.58798 0.99169 0.0
C7 C 0.78884 0.59029 0.19878 0.0
C8 C 0.76923 0.57503 0.19029 0.0
H9 H 0.68472 0.52789 0.11774 0.0
H10 H 0.72198 0.53757 0.17375 0.0
H11 H 0.71571 0.62674 0.09534 0.0
H12 H 0.739 0.58056 0.95356 0.0
H13 H 0.76746 0.59108 0.97605 0.0
H14 H 0.74548 0.61109 0.94272 0.0
H15 H 0.71399 0.62863 1.00939 0.0
H16 H 0.73904 0.64091 0.05242 0.0
C17 C 0.75136 0.55315 0.28646 0.0
C18 C 0.77496 0.53013 0.20182 0.0
C19 C 0.83428 0.62554 1.01538 0.0
C20 C 0.82672 0.63183 0.95314 0.0
C21 C 0.80279 0.63887 0.94453 0.0
C22 C 0.78603 0.6353 0.99346 0.0
C23 C 0.79331 0.62431 0.05052 0.0
C24 C 0.81725 0.6219 0.06346 0.0
C25 C 0.82158 0.61207 0.12957 0.0
C26 C 0.79595 0.60622 0.15 0.0
C27 C 0.77984 0.61188 0.10122 0.0
C28 C 0.83371 0.63171 0.17015 0.0
C29 C 0.83716 0.58944 0.12554 0.0
C30 C 0.70062 0.57714 0.03241 0.0
C31 C 0.68663 0.55757 0.05104 0.0
C32 C 0.69493 0.54331 0.10254 0.0
C33 C 0.71642 0.54902 0.13536 0.0
C34 C 0.72997 0.569 0.11601 0.0
C35 C 0.72199 0.58228 0.0643 0.0
C36 C 0.73905 0.60153 0.0449 0.0
C37 C 0.75806 0.59895 0.09616 0.0
C38 C 0.75292 0.57988 0.13863 0.0
C39 C 0.72632 0.62582 0.05038 0.0
C40 C 0.7483 0.59595 0.97607 0.0
H41 H 0.8218 0.61391 0.28277 0.0
H42 H 0.80257 0.52968 0.33391 0.0
H43 H 0.79096 0.53089 0.17046 0.0
H44 H 0.75948 0.52593 0.17105 0.0
H45 H 0.7773 0.51527 0.23649 0.0
H46 H 0.7514 0.56963 0.31598 0.0
H47 H 0.75339 0.53766 0.31921 0.0
H48 H 0.7337 0.55201 0.26347 0.0
H49 H 0.85261 0.62093 0.02493 0.0
H50 H 0.79664 0.64527 0.89843 0.0
H51 H 0.76786 0.64006 0.98439 0.0
H52 H 0.84533 0.64339 0.14029 0.0
H53 H 0.84584 0.62407 0.20667 0.0
H54 H 0.82029 0.64325 0.19373 0.0
H55 H 0.82868 0.5759 0.09396 0.0
H56 H 0.83989 0.58132 0.17337 0.0
H57 H 0.85516 0.59366 0.10652 0.0
H58 H 0.84542 0.59316 0.3638 0.0
C59 C 0.81916 0.59511 0.28978 0.0
C60 C 0.90175 0.81266 0.96146 0.0
C61 C 0.89345 0.83611 0.97053 0.0
C62 C 0.88702 0.84307 0.03332 0.0
C63 C 0.90537 0.80757 0.07595 0.0
C64 C 0.90728 0.79862 1.01487 0.0
C65 C 0.9177 0.77401 1.01454 0.0
H66 H 0.99809 0.69979 0.10483 0.0
C67 C 0.91869 0.79188 0.11963 0.0
C68 C 0.92408 0.77118 0.08566 0.0
H69 H 0.93284 0.68292 1.0022 0.0
H70 H 0.91464 0.71838 0.04643 0.0
H71 H 0.99962 0.7626 0.09315 0.0
H72 H 0.96153 0.7206 0.23613 0.0
H73 H 0.98093 0.74296 0.26717 0.0
H74 H 0.99328 0.71761 0.22697 0.0
H75 H 0.01532 0.74152 0.14262 0.0
H76 H 1.00609 0.76965 0.17476 0.0
C77 C 0.94014 0.77343 0.97162 0.0
C78 C 0.89835 0.75653 0.99024 0.0
C79 C 0.95763 0.83367 0.3072 0.0
C80 C 0.97832 0.83015 0.34363 0.0
C81 C 0.99232 0.80979 0.33017 0.0
C82 C 0.9853 0.79316 0.28236 0.0
C83 C 0.96431 0.79709 0.24671 0.0
C84 C 0.95127 0.81749 0.25902 0.0
C85 C 0.93064 0.82059 0.21424 0.0
C86 C 0.93258 0.79814 0.17418 0.0
C87 C 0.95218 0.78392 0.19329 0.0
C88 C 0.93449 0.8439 0.17475 0.0
C89 C 0.90738 0.82052 0.25395 0.0
C90 C 0.98035 0.70438 0.08873 0.0
C91 C 0.96751 0.68897 0.04642 0.0
C92 C 0.94365 0.69466 0.03149 0.0
C93 C 0.9334 0.71566 0.05325 0.0
C94 C 0.94734 0.73193 0.08685 0.0
C95 C 0.9693 0.72569 0.11038 0.0
C96 C 0.97699 0.74361 0.16195 0.0
C97 C 0.95643 0.76182 0.16029 0.0
C98 C 0.94048 0.75494 0.11198 0.0
C99 C 1.00089 0.75501 0.14231 0.0
C100 C 0.97836 0.73056 0.2268 0.0
H101 H 0.88844 0.83497 0.13324 0.0
H102 H 0.90599 0.80597 0.91436 0.0
H103 H 0.88681 0.76491 0.95325 0.0
H104 H 0.88662 0.7505 0.03004 0.0
H105 H 0.9063 0.74096 0.96584 0.0
H106 H 0.95346 0.78687 0.98779 0.0
H107 H 0.93557 0.77713 0.92079 0.0
H108 H 0.94867 0.75566 0.97293 0.0
H109 H 0.94683 0.84939 0.31438 0.0
H110 H 1.00853 0.80664 0.35698 0.0
H111 H 0.99653 0.77806 0.274 0.0
H112 H 0.94916 0.85522 0.19384 0.0
H113 H 0.91853 0.85546 0.17541 0.0
H114 H 0.93941 0.8401 0.12426 0.0
H115 H 0.90773 0.80619 0.29087 0.0
H116 H 0.89149 0.81696 0.22404 0.0
H117 H 0.90497 0.83782 0.27887 0.0
H118 H 0.87887 0.86019 0.04211 0.0
C119 C 0.89296 0.8288 0.0862 0.0
C120 C 0.84294 0.99114 0.11902 0.0
C121 C 0.86023 0.97814 0.08353 0.0
C122 C 0.8573 0.95327 0.07748 0.0
C123 C 0.81857 0.95558 0.12599 0.0
C124 C 0.82239 0.979 0.14215 0.0
C125 C 0.80283 0.98729 0.18787 0.0
H126 H 0.69243 0.95904 0.31634 0.0
C127 C 0.79502 0.94813 0.14737 0.0
C128 C 0.78567 0.96577 0.18779 0.0
H129 H 0.73491 0.02032 0.36793 0.0
H130 H 0.76569 1.00802 0.2913 0.0
H131 H 0.69526 0.96429 0.18488 0.0
H132 H 0.73336 0.91957 0.30996 0.0
H133 H 0.72626 0.90263 0.24117 0.0
H134 H 0.70278 0.91713 0.28496 0.0
H135 H 0.68878 0.93332 0.18493 0.0
H136 H 0.70942 0.94624 0.12793 0.0
C137 C 0.79099 1.00986 0.16091 0.0
C138 C 0.81415 0.99125 0.25432 0.0
C139 C 0.74776 0.89868 0.9926 0.0
C140 C 0.72279 0.89599 0.9893 0.0
C141 C 0.71003 0.89503 0.04768 0.0
C142 C 0.72096 0.90178 0.10515 0.0
C143 C 0.74442 0.91042 0.10366 0.0
C144 C 0.7581 0.90697 0.04966 0.0
C145 C 0.78284 0.91713 0.05721 0.0
C146 C 0.7803 0.92995 0.12179 0.0
C147 C 0.75749 0.92653 0.14717 0.0
C148 C 0.78797 0.93476 1.00161 0.0
C149 C 0.80072 0.89618 0.05859 0.0
C150 C 0.70858 0.96963 0.31294 0.0
C151 C 0.7114 0.99024 0.35004 0.0
C152 C 0.73231 1.0041 0.34074 0.0
C153 C 0.75027 0.99682 0.29693 0.0
C154 C 0.74724 0.97556 0.26176 0.0
C155 C 0.72631 0.96276 0.26988 0.0
C156 C 0.7244 0.94179 0.2262 0.0
C157 C 0.74862 0.94247 0.1942 0.0
C158 C 0.76222 0.9624 0.21411 0.0
C159 C 0.70347 0.94644 0.17859 0.0
C160 C 0.72139 0.91899 0.26744 0.0
H161 H 0.83565 0.92291 0.09773 0.0
H162 H 0.84544 1.00994 0.12844 0.0
H163 H 0.82516 0.97565 0.26828 0.0
H164 H 0.80072 0.99345 0.29229 0.0
H165 H 0.82589 1.00726 0.25384 0.0
H166 H 0.7846 1.00668 0.11117 0.0
H167 H 0.80385 0.02496 0.15991 0.0
H168 H 0.77545 0.01524 0.18986 0.0
H169 H 0.75848 0.89746 0.94971 0.0
H170 H 0.69101 0.89187 0.04873 0.0
H171 H 0.71021 0.90191 0.14751 0.0
H172 H 0.77423 0.94897 0.99994 0.0
H173 H 0.78811 0.92547 0.95472 0.0
H174 H 0.80559 0.94342 1.00627 0.0
H175 H 0.7932 0.87977 0.03649 0.0
H176 H 0.80592 0.89155 0.10848 0.0
H177 H 0.81697 0.90023 0.03021 0.0
H178 H 0.87062 0.94259 0.05351 0.0
C179 C 0.83681 0.94194 0.09999 0.0
C180 C 0.53512 0.73266 0.33145 0.0
C181 C 0.54892 0.71611 0.36761 0.0
C182 C 0.57395 0.71663 0.36091 0.0
C183 C 0.57049 0.74413 0.27299 0.0
C184 C 0.54678 0.74754 0.28592 0.0
C185 C 0.5372 0.7679 0.24447 0.0
H186 H 0.5537 0.83454 0.97362 0.0
C187 C 0.57706 0.75734 0.21558 0.0
C188 C 0.55917 0.77419 0.20299 0.0
H189 H 0.52242 0.86416 0.14485 0.0
H190 H 0.53353 0.82782 0.2042 0.0
H191 H 0.59766 0.82614 0.03991 0.0
H192 H 0.54162 0.7766 0.99491 0.0
H193 H 0.56858 0.76267 0.97589 0.0
H194 H 0.56087 0.79007 0.93636 0.0
H195 H 0.59585 0.8122 0.96279 0.0
H196 H 0.61226 0.79901 0.02839 0.0
C197 C 0.5292 0.78849 0.2879 0.0
C198 C 0.51647 0.75888 0.20257 0.0
C199 C 0.62184 0.70761 0.05427 0.0
C200 C 0.62203 0.70924 0.98678 0.0
C201 C 0.61894 0.73199 0.95893 0.0
C202 C 0.6116 0.75129 0.99598 0.0
C203 C 0.60666 0.74783 0.06123 0.0
C204 C 0.61314 0.72676 0.09041 0.0
C205 C 0.6054 0.72576 0.15958 0.0
C206 C 0.5925 0.7497 0.16589 0.0
C207 C 0.59253 0.76184 0.10721 0.0
C208 C 0.62776 0.72375 0.20283 0.0
C209 C 0.58817 0.70431 0.1681 0.0
C210 C 0.54838 0.83338 0.0234 0.0
C211 C 0.53692 0.85248 0.05368 0.0
C212 C 0.53061 0.8496 0.11918 0.0
C213 C 0.53645 0.82841 0.15332 0.0
C214 C 0.54817 0.80974 0.12148 0.0
C215 C 0.55488 0.81318 0.05838 0.0
C216 C 0.57274 0.79528 0.03622 0.0
C217 C 0.57663 0.78107 0.09704 0.0
C218 C 0.56081 0.78818 0.14565 0.0
C219 C 0.59581 0.80868 1.01519 0.0
C220 C 0.56059 0.78036 0.9828 0.0
H221 H 0.6039 0.73136 0.31074 0.0
H222 H 0.51602 0.73374 0.33813 0.0
H223 H 0.52216 0.74345 0.17305 0.0
H224 H 0.5103 0.77319 0.1697 0.0
H225 H 0.50116 0.75321 0.23283 0.0
H226 H 0.54479 0.79879 0.30589 0.0
H227 H 0.51912 0.78161 0.32992 0.0
H228 H 0.51688 0.80056 0.2623 0.0
H229 H 0.62577 0.69095 0.07802 0.0
H230 H 0.61949 0.73462 0.90762 0.0
H231 H 0.60794 0.76753 0.97088 0.0
H232 H 0.64349 0.71704 0.1761 0.0
H233 H 0.62498 0.71082 0.24241 0.0
H234 H 0.63282 0.74131 0.22339 0.0
H235 H 0.57248 0.70609 0.13588 0.0
H236 H 0.58156 0.70251 0.21763 0.0
H237 H 0.5972 0.68725 0.15704 0.0
H238 H 0.58511 0.70511 0.38975 0.0
C239 C 0.5848 0.73091 0.31434 0.0
C240 C 0.33348 0.50027 0.21214 0.0
C241 C 0.35125 0.48801 0.24822 0.0
C242 C 0.35017 0.46294 0.25172 0.0
C243 C 0.31233 0.46305 0.19789 0.0
C244 C 0.31435 0.48696 0.18502 0.0
C245 C 0.29468 0.49442 0.13805 0.0
H246 H 0.19216 0.45644 0.98067 0.0
C247 C 0.29053 0.4538 0.1701 0.0
C248 C 0.28034 0.47106 0.13015 0.0
H249 H 0.22407 0.52622 0.96362 0.0
H250 H 0.25599 0.51421 0.03719 0.0
H251 H 0.24095 0.42413 0.98145 0.0
H252 H 0.18837 0.44976 0.09839 0.0
H253 H 0.20658 0.44037 0.16285 0.0
H254 H 0.19404 0.41917 0.10669 0.0
H255 H 0.21041 0.41557 0.99505 0.0
H256 H 0.23426 0.40247 0.04078 0.0
C257 C 0.3064 0.50232 0.07475 0.0
C258 C 0.27964 0.51417 0.16883 0.0
C259 C 0.23868 0.40242 0.30607 0.0
C260 C 0.21566 0.39327 0.2932 0.0
C261 C 0.21048 0.38639 0.22946 0.0
C262 C 0.22493 0.39438 0.17894 0.0
C263 C 0.24443 0.40906 0.19313 0.0
C264 C 0.25286 0.41021 0.25492 0.0
C265 C 0.27584 0.42405 0.25879 0.0
C266 C 0.2774 0.4337 0.19003 0.0
C267 C 0.25751 0.42664 0.15427 0.0
C268 C 0.29594 0.40659 0.2769 0.0
C269 C 0.27371 0.44436 0.30848 0.0
C270 C 0.20622 0.46914 0.99125 0.0
C271 C 0.20568 0.49211 0.9648 0.0
C272 C 0.224 0.50828 0.98275 0.0
C273 C 0.24257 0.50128 0.02513 0.0
C274 C 0.24266 0.47802 0.05084 0.0
C275 C 0.22426 0.46268 0.03422 0.0
C276 C 0.22528 0.43935 0.06889 0.0
C277 C 0.24812 0.44242 0.10718 0.0
C278 C 0.25865 0.46512 0.09671 0.0
C279 C 0.22774 0.41919 0.019 0.0
C280 C 0.20258 0.43692 0.11154 0.0
H281 H 0.33143 0.43127 0.2244 0.0
H282 H 0.33465 0.51934 0.20499 0.0
H283 H 0.27306 0.50837 0.21667 0.0
H284 H 0.26389 0.51863 0.13948 0.0
H285 H 0.29043 0.53064 0.1753 0.0
H286 H 0.31905 0.48852 0.0577 0.0
H287 H 0.3165 0.51921 0.08147 0.0
H288 H 0.29322 0.505 0.03622 0.0
H289 H 0.24436 0.40645 0.35427 0.0
H290 H 0.19402 0.37721 0.21793 0.0
H291 H 0.21978 0.39028 0.13062 0.0
H292 H 0.28952 0.39286 0.31142 0.0
H293 H 0.31078 0.41576 0.30195 0.0
H294 H 0.30282 0.39719 0.23393 0.0
H295 H 0.25842 0.45613 0.29676 0.0
H296 H 0.29011 0.45543 0.30984 0.0
H297 H 0.2712 0.43717 0.35762 0.0
H298 H 0.36407 0.45299 0.27576 0.0
C299 C 0.33103 0.45043 0.22536 0.0
C300 C 0.10667 0.23723 0.39718 0.0
C301 C 0.10545 0.21248 0.40734 0.0
C302 C 0.1057 0.1974 0.35322 0.0
C303 C 0.09987 0.2314 0.28358 0.0
C304 C 0.10283 0.24634 0.33546 0.0
C305 C 0.09744 0.27187 0.31921 0.0
H306 H 0.02058 0.34298 0.19681 0.0
C307 C 0.08974 0.24546 0.23022 0.0
C308 C 0.08866 0.26921 0.24998 0.0
H309 H 0.08345 0.36114 0.3076 0.0
H310 H 0.10178 0.32398 0.27487 0.0
H311 H 0.0642 0.31767 0.07896 0.0
H312 H 0.01436 0.28279 0.20921 0.0
H313 H 0.01203 0.27469 0.12642 0.0
H314 H 1.00391 0.30416 0.15119 0.0
H315 H 0.03271 0.32323 0.07286 0.0
H316 H 0.04527 0.29603 0.04333 0.0
C317 C 0.12079 0.28661 0.32524 0.0
C318 C 0.07754 0.28085 0.36456 0.0
C319 C 0.05851 0.20106 0.03717 0.0
C320 C 0.04337 0.20643 0.98571 0.0
C321 C 0.03206 0.22897 0.9854 0.0
C322 C 0.03677 0.24603 0.03423 0.0
C323 C 0.05283 0.24047 0.08407 0.0
C324 C 0.06286 0.21796 0.08508 0.0
C325 C 0.07751 0.21358 0.14378 0.0
C326 C 0.0774 0.23805 0.17416 0.0
C327 C 0.0626 0.25404 0.14024 0.0
C328 C 0.10298 0.20634 0.12316 0.0
C329 C 0.06429 0.19456 0.18522 0.0
C330 C 0.03791 0.33852 0.21605 0.0
C331 C 0.04988 0.35434 0.25892 0.0
C332 C 0.07335 0.34892 0.27785 0.0
C333 C 0.08367 0.32725 0.26145 0.0
C334 C 0.07015 0.31044 0.22823 0.0
C335 C 0.04914 0.31675 0.19913 0.0
C336 C 0.04247 0.29802 0.14884 0.0
C337 C 0.06073 0.27821 0.16261 0.0
C338 C 0.07573 0.28581 0.21266 0.0
C339 C 0.04625 0.30925 0.08215 0.0
C340 C 0.0167 0.28941 0.15933 0.0
H341 H 0.10283 0.19447 0.25233 0.0
H342 H 0.10794 0.24929 0.43743 0.0
H343 H 0.06142 0.26933 0.36079 0.0
H344 H 0.07214 0.2993 0.35403 0.0
H345 H 0.08359 0.28085 0.41521 0.0
H346 H 0.13496 0.27689 0.35174 0.0
H347 H 0.11796 0.30327 0.35273 0.0
H348 H 0.12825 0.29114 0.2774 0.0
H349 H 0.06667 0.18365 0.0408 0.0
H350 H 0.01991 0.23352 0.94699 0.0
H351 H 0.02756 0.26273 0.03229 0.0
H352 H 0.1094 0.2179 0.0833 0.0
H353 H 0.10336 0.18759 0.10632 0.0
H354 H 0.11618 0.20841 0.16215 0.0
H355 H 0.04581 0.19102 0.16815 0.0
H356 H 0.06202 0.20036 0.23557 0.0
H357 H 0.0737 0.17719 0.18458 0.0
H358 H 0.10534 0.17822 0.35843 0.0
C359 C 0.1034 0.20683 0.29134 0.0
C360 C 0.30449 0.03667 0.99407 0.0
C361 C 0.32365 0.04813 0.96126 0.0
C362 C 0.32552 0.07312 0.96385 0.0
C363 C 0.29424 0.07438 0.04242 0.0
C364 C 0.28933 0.05062 0.03342 0.0
C365 C 0.26636 0.04389 0.06876 0.0
H366 H 0.18218 0.08228 0.28786 0.0
C367 C 0.27832 0.08402 0.09068 0.0
C368 C 0.26046 0.06716 0.10437 0.0
H369 H 0.18114 0.0145 0.19085 0.0
H370 H 0.21769 0.02551 0.13337 0.0
H371 H 0.22614 0.08203 0.33107 0.0
H372 H 0.19889 0.11655 0.17001 0.0
H373 H 0.21978 0.13598 0.20642 0.0
H374 H 0.19587 0.12352 0.25369 0.0
H375 H 0.22711 0.11349 0.33032 0.0
H376 H 0.25279 0.09611 0.3073 0.0
C377 C 0.27147 0.02327 0.11544 0.0
C378 C 0.24722 0.03758 0.01854 0.0
C379 C 0.31488 0.13699 0.25654 0.0
C380 C 0.30548 0.14509 0.31516 0.0
C381 C 0.28067 0.14859 0.31982 0.0
C382 C 0.26543 0.14013 0.27165 0.0
C383 C 0.27514 0.12747 0.22007 0.0
C384 C 0.29938 0.12805 0.20972 0.0
C385 C 0.30626 0.11495 0.14967 0.0
C386 C 0.28221 0.10377 0.13129 0.0
C387 C 0.26456 0.11009 0.17532 0.0
C388 C 0.32515 0.0958 0.16557 0.0
C389 C 0.31573 0.13341 0.1006 0.0
C390 C 0.18924 0.06992 0.25294 0.0
C391 C 0.17822 0.0478 0.24291 0.0
C392 C 0.18904 0.03185 0.19922 0.0
C393 C 0.21014 0.03829 0.16559 0.0
C394 C 0.22076 0.06076 0.17644 0.0
C395 C 0.21026 0.07582 0.22054 0.0
C396 C 0.22449 0.09795 0.23243 0.0
C397 C 0.24455 0.09486 0.1846 0.0
C398 C 0.24263 0.073 0.15121 0.0
C399 C 0.23312 0.09756 0.30357 0.0
C400 C 0.20897 0.11977 0.21514 0.0
H401 H 0.31112 0.1054 1.0011 0.0
H402 H 0.3017 0.01765 0.98977 0.0
H403 H 0.24622 0.05171 0.9812 0.0
H404 H 0.22929 0.03605 0.03967 0.0
H405 H 0.25155 0.0205 0.99446 0.0
H406 H 0.28674 0.02787 0.14719 0.0
H407 H 0.27602 1.00679 0.08878 0.0
H408 H 0.25605 0.01934 0.1466 0.0
H409 H 0.33388 0.13486 0.25036 0.0
H410 H 0.27297 0.15586 0.36311 0.0
H411 H 0.24662 0.14237 0.27798 0.0
H412 H 0.31845 0.08341 0.20319 0.0
H413 H 0.34199 0.10407 0.18271 0.0
H414 H 0.32988 0.08515 0.12292 0.0
H415 H 0.32371 0.14923 0.12462 0.0
H416 H 0.30123 0.13991 0.06884 0.0
H417 H 0.33038 0.12605 0.07116 0.0
H418 H 0.33904 0.0824 0.93622 0.0
C419 C 0.31044 0.08632 1.00312 0.0
C420 C 0.48904 0.31336 0.98115 0.0
C421 C 0.47594 0.33161 0.94901 0.0
C422 C 0.45111 0.3328 0.95922 0.0
C423 C 0.45359 0.30266 0.04073 0.0
C424 C 0.477 0.29835 0.02585 0.0
C425 C 0.4852 0.27563 0.06025 0.0
H426 H 0.45592 0.19405 0.29784 0.0
C427 C 0.44589 0.28686 0.09188 0.0
C428 C 0.46336 0.26945 0.10221 0.0
H429 H 0.51845 0.19029 0.17792 0.0
H430 H 0.50576 0.22663 0.12185 0.0
H431 H 0.45633 0.23787 0.33554 0.0
H432 H 0.41817 0.20665 0.18724 0.0
H433 H 0.39918 0.22796 0.22227 0.0
H434 H 0.41319 0.20582 0.27232 0.0
H435 H 0.42495 0.23859 0.34132 0.0
H436 H 0.44154 0.26399 0.31136 0.0
C437 C 0.50739 0.28118 0.101 0.0
C438 C 0.48983 0.25636 1.00941 0.0
C439 C 0.39842 0.32326 0.26844 0.0
C440 C 0.39288 0.31389 0.32938 0.0
C441 C 0.38897 0.28914 0.33505 0.0
C442 C 0.39557 0.27387 0.28517 0.0
C443 C 0.40657 0.28357 0.23063 0.0
C444 C 0.40556 0.30774 0.21975 0.0
C445 C 0.41663 0.31455 0.15658 0.0
C446 C 0.4274 0.29059 0.13662 0.0
C447 C 0.42272 0.27312 0.18275 0.0
C448 C 0.43606 0.33384 0.167 0.0
C449 C 0.39653 0.32347 0.11188 0.0
C450 C 0.46679 0.20029 0.25831 0.0
C451 C 0.48787 0.18853 0.24165 0.0
C452 C 0.50191 0.19866 0.19187 0.0
C453 C 0.49445 0.2196 0.1589 0.0
C454 C 0.47278 0.2306 0.17584 0.0
C455 C 0.45966 0.22075 0.22549 0.0
C456 C 0.43766 0.23443 0.24085 0.0
C457 C 0.43866 0.25371 0.19005 0.0
C458 C 0.45937 0.25189 0.15154 0.0
C459 C 0.44006 0.24427 0.31052 0.0
C460 C 0.4158 0.21789 0.23062 0.0
H461 H 0.4208 0.31791 1.00642 0.0
H462 H 0.50778 0.31079 0.97118 0.0
H463 H 0.4743 0.25472 0.97653 0.0
H464 H 0.49261 0.23865 0.03094 0.0
H465 H 0.50576 0.261 0.98025 0.0
H466 H 0.50372 0.29611 0.13445 0.0
H467 H 0.52264 0.28639 0.06996 0.0
H468 H 0.51282 0.26565 0.13008 0.0
H469 H 0.40051 0.34224 0.26144 0.0
H470 H 0.38346 0.28147 0.38038 0.0
H471 H 0.39352 0.25507 0.29252 0.0
H472 H 0.44966 0.32759 0.20193 0.0
H473 H 0.42822 0.35065 0.18509 0.0
H474 H 0.44528 0.33847 0.12176 0.0
H475 H 0.38166 0.33158 0.13937 0.0
H476 H 0.38889 0.30865 0.08306 0.0
H477 H 0.40284 0.3379 0.07964 0.0
H478 H 0.44026 0.34558 0.93358 0.0
C479 C 0.43989 0.31794 1.00348 0.0
Eu480 Eu 0.9903 0.0295 0.60418 0.0
C481 C 0.08906 0.03404 0.75963 0.0
N482 N 0.0823 0.01913 0.71168 0.0
C483 C 0.12149 0.02117 0.66626 0.0
C484 C 0.1124 0.04345 0.76214 0.0
C485 C 0.09818 0.01226 0.66591 0.0
C486 C 0.12862 0.03693 0.7144 0.0
C487 C 0.07891 0.05551 0.85665 0.0
C488 C 0.07256 0.03998 0.80634 0.0
C489 C 0.1021 0.065 0.85917 0.0
C490 C 0.11879 0.059 0.81203 0.0
Eu491 Eu 0.04249 1.00535 0.71415 0.0
N492 N 0.05005 0.03108 0.80153 0.0
C493 C 0.06169 0.06119 0.90259 0.0
C494 C 0.03342 0.03596 0.84723 0.0
C495 C 0.03889 0.05126 0.89802 0.0
H496 H 0.093 0.99956 0.6297 0.0
H497 H 0.02552 0.05535 0.93365 0.0
H498 H 0.94068 1.01021 0.67691 0.0
H499 H 0.02374 1.00946 0.36318 0.0
H500 H 0.01589 0.02817 0.84462 0.0
H501 H 0.06584 0.07313 0.94183 0.0
H502 H 0.0207 0.03233 0.46294 0.0
H503 H 0.13399 0.01576 0.62965 0.0
H504 H 0.10729 0.07703 0.89731 0.0
H505 H 0.13662 0.06644 0.81464 0.0
H506 H 0.90833 0.98095 0.65837 0.0
H507 H 0.1467 0.04378 0.71461 0.0
H508 H 0.99551 0.97643 0.34208 0.0
N509 N 0.95835 1.00258 0.58946 0.0
C510 C 0.95815 0.99007 0.53372 0.0
C511 C 0.92227 0.98329 0.62305 0.0
C512 C 0.9401 0.97313 0.52126 0.0
C513 C 0.94062 0.99976 0.63357 0.0
C514 C 0.92206 0.96983 0.56682 0.0
N515 N 0.99362 1.01031 0.50322 0.0
C516 C 1.00948 0.01693 0.45686 0.0
C517 C 0.97684 0.9808 0.43205 0.0
C518 C 0.9765 0.99373 0.48999 0.0
C519 C 0.99463 0.98595 0.38714 0.0
C520 C 0.01071 1.00445 0.39906 0.0
H521 H 0.90791 0.95695 0.55904 0.0
H522 H 0.92722 0.94654 0.45432 0.0
H523 H 0.95929 0.95336 0.37606 0.0
O524 O 0.98542 0.0586 0.53597 0.0
O525 O 0.99155 0.98962 0.62901 0.0
O526 O 0.03135 0.98283 0.62871 0.0
O527 O 0.95671 0.04909 0.59946 0.0
O528 O 0.02902 0.03866 0.57545 0.0
O529 O 0.04954 1.0055 0.60749 0.0
O530 O 0.03912 0.98107 0.79484 0.0
O531 O 0.04083 0.04606 0.70425 0.0
O532 O 1.00125 0.05411 0.68581 0.0
O533 O 0.06771 0.97595 0.72698 0.0
O534 O 1.00426 1.00022 0.75178 0.0
O535 O 0.98085 0.03012 0.70943 0.0
C536 C 1.0096 0.97556 0.61683 0.0
C537 C 0.96512 0.08991 0.58826 0.0
C538 C 0.98723 0.12536 0.62303 0.0
C539 C 0.96674 0.1333 0.65522 0.0
C540 C 0.94481 0.09836 0.61999 0.0
C541 C 0.94565 0.11995 0.65313 0.0
C542 C 0.98606 0.10377 0.58907 0.0
C543 C 0.04731 0.02406 0.56971 0.0
C544 C 0.96551 0.06544 0.56209 0.0
C545 C 0.94081 0.95979 0.46444 0.0
C546 C 0.95914 0.96359 0.42002 0.0
C547 C 0.02237 0.06044 0.70723 0.0
C548 C 0.04658 0.94187 0.76169 0.0
C549 C 0.01322 0.91394 0.75031 0.0
C550 C 0.02968 0.89514 0.74609 0.0
C551 C 0.06266 0.92295 0.75771 0.0
C552 C 0.02204 0.93731 0.75504 0.0
C553 C 0.05421 0.89972 0.74889 0.0
C554 C 0.98526 0.01402 0.75366 0.0
C555 C 0.05505 0.96642 0.77261 0.0
H556 H 0.96703 0.14968 0.6825 0.0
H557 H 0.92852 0.08792 0.62068 0.0
H558 H 0.93001 0.12618 0.67822 0.0
H559 H 1.00162 0.09761 0.56344 0.0
H560 H 0.02372 0.8768 0.74328 0.0
H561 H 0.08167 0.92613 0.76169 0.0
H562 H 1.00965 0.95201 0.75545 0.0
H563 H 0.06668 0.8851 0.7462 0.0
Eu564 Eu 0.52985 0.04712 0.70941 0.0
C565 C 0.51771 0.95478 0.5073 0.0
N566 N 0.52106 0.97872 0.50638 0.0
C567 C 0.54534 0.97538 0.41238 0.0
C568 C 0.52829 0.94005 0.46077 0.0
C569 C 0.53434 0.98925 0.45937 0.0
C570 C 0.54241 0.95066 0.41323 0.0
C571 C 0.49849 0.92038 0.55545 0.0
C572 C 0.50308 0.94509 0.55397 0.0
C573 C 0.50935 0.90553 0.51002 0.0
C574 C 0.52423 0.91534 0.46279 0.0
Eu575 Eu 0.50348 1.00056 0.59039 0.0
N576 N 0.49278 0.95994 0.59683 0.0
C577 C 0.48289 0.91142 0.60205 0.0
C578 C 0.47708 0.95145 0.64135 0.0
C579 C 0.47202 0.92706 0.64493 0.0
H580 H 0.53682 1.00832 0.45851 0.0
H581 H 0.45976 0.92034 0.68076 0.0
H582 H 0.51056 0.04285 0.86002 0.0
H583 H 0.5555 0.12706 0.57582 0.0
H584 H 0.46866 0.96342 0.67474 0.0
H585 H 0.4789 0.89254 0.60485 0.0
H586 H 0.5555 0.08412 0.6022 0.0
H587 H 0.5561 0.98377 0.3756 0.0
H588 H 0.50615 0.88648 0.51055 0.0
H589 H 0.53229 0.90371 0.42763 0.0
H590 H 0.49202 0.0687 0.9422 0.0
H591 H 0.5509 0.93996 0.37668 0.0
H592 H 0.5339 0.15538 0.6453 0.0
N593 N 0.5145 0.07086 0.79243 0.0
C594 C 0.51255 0.0945 0.78034 0.0
C595 C 0.49761 0.07617 0.89674 0.0
C596 C 0.50237 0.10997 0.8257 0.0
C597 C 0.50803 0.0616 0.85032 0.0
C598 C 0.49447 0.10042 0.88407 0.0
N599 N 0.53325 0.08806 0.68389 0.0
C600 C 0.54593 0.09633 0.63258 0.0
C601 C 0.52204 0.12808 0.71166 0.0
C602 C 0.52225 0.1034 0.7242 0.0
C603 C 0.5337 0.13655 0.65679 0.0
C604 C 0.54598 0.12063 0.61756 0.0
H605 H 0.48652 0.1117 0.92021 0.0
H606 H 0.49311 0.14663 0.84609 0.0
H607 H 0.51033 0.1625 0.74611 0.0
O608 O 0.56116 0.02594 0.73162 0.0
O609 O 0.51039 0.0609 0.62023 0.0
O610 O 0.51903 0.03379 0.54231 0.0
O611 O 0.55774 0.06235 0.77056 0.0
O612 O 0.55377 0.03951 0.6232 0.0
O613 O 0.54417 1.00124 0.59287 0.0
O614 O 0.47651 0.02704 0.5706 0.0
O615 O 0.5144 0.98323 0.6844 0.0
O616 O 0.52015 0.01254 0.76181 0.0
O617 O 0.47613 0.99322 0.51846 0.0
O618 O 0.4779 1.00696 0.67367 0.0
O619 O 0.49173 0.03783 0.73857 0.0
C620 C 0.51485 0.05586 0.55986 0.0
C621 C 0.59399 0.04049 0.79691 0.0
C622 C 0.62915 0.0165 0.81886 0.0
C623 C 0.63975 0.03616 0.84948 0.0
C624 C 0.60473 0.05989 0.82815 0.0
C625 C 0.62752 0.05768 0.85431 0.0
C626 C 0.60622 0.01876 0.7929 0.0
C627 C 0.55956 0.01895 0.59722 0.0
C628 C 0.5707 0.04314 0.76539 0.0
C629 C 0.50108 0.13446 0.81214 0.0
C630 C 0.51089 0.1435 0.75519 0.0
C631 C 0.51844 0.99001 0.74393 0.0
C632 C 0.43922 0.01331 0.5363 0.0
C633 C 0.40244 0.0364 0.53559 0.0
C634 C 0.38956 0.0154 0.54927 0.0
C635 C 0.42617 0.99252 0.54976 0.0
C636 C 0.42735 0.03508 0.53025 0.0
C637 C 0.40142 0.99367 0.55656 0.0
C638 C 0.47506 0.02257 0.72029 0.0
C639 C 0.46525 0.01344 0.52962 0.0
H640 H 0.65735 0.03477 0.87053 0.0
H641 H 0.59568 0.07685 0.83163 0.0
H642 H 0.63575 0.07271 0.87822 0.0
H643 H 0.59814 1.00371 0.76855 0.0
H644 H 0.37032 0.01558 0.55278 0.0
H645 H 0.43504 0.97556 0.55549 0.0
H646 H 0.43774 0.05109 0.52146 0.0
H647 H 0.39134 0.97763 0.56688 0.0
Eu648 Eu 0.54105 0.50786 0.597 0.0
C649 C 0.4745 0.49943 0.82379 0.0
N650 N 0.4682 0.50764 0.76507 0.0
C651 C 0.43434 0.48144 0.76366 0.0
C652 C 0.4615 0.48096 0.85371 0.0
C653 C 0.44787 0.49973 0.73585 0.0
C654 C 0.44143 0.47171 0.82234 0.0
C655 C 0.49922 0.50356 0.91824 0.0
C656 C 0.49315 0.51051 0.85533 0.0
C657 C 0.48739 0.48414 0.94677 0.0
C658 C 0.46854 0.47285 0.91454 0.0
Eu659 Eu 0.49349 0.53653 0.71783 0.0
N660 N 0.5039 0.52946 0.82672 0.0
C661 C 0.51619 0.51704 0.95162 0.0
C662 C 0.51855 0.54403 0.86151 0.0
C663 C 0.52546 0.53771 0.92365 0.0
H664 H 0.44253 0.50707 0.69016 0.0
H665 H 0.53773 0.54892 0.95011 0.0
H666 H 0.5893 0.49027 0.68065 0.0
H667 H 0.5426 0.55362 0.36587 0.0
H668 H 0.52509 0.56051 0.84139 0.0
H669 H 0.52137 0.5123 1.00002 0.0
H670 H 0.52703 0.52595 0.44863 0.0
H671 H 0.41857 0.47476 0.73967 0.0
H672 H 0.49206 0.4783 0.99467 0.0
H673 H 0.45905 0.45841 0.93792 0.0
H674 H 0.63084 0.50364 0.69873 0.0
H675 H 0.43097 0.4575 0.84371 0.0
H676 H 0.58139 0.57393 0.38237 0.0
N677 N 0.58223 0.51665 0.60999 0.0
C678 C 0.59164 0.53354 0.57097 0.0
C679 C 0.61994 0.51241 0.66305 0.0
C680 C 0.6154 0.54139 0.57822 0.0
C681 C 0.59637 0.50502 0.65307 0.0
C682 C 0.62936 0.53104 0.62634 0.0
N683 N 0.55632 0.53133 0.51168 0.0
C684 C 0.54403 0.53469 0.45584 0.0
C685 C 0.58792 0.55686 0.47387 0.0
C686 C 0.57819 0.54112 0.51973 0.0
C687 C 0.57459 0.5619 0.41876 0.0
C688 C 0.55275 0.55038 0.40912 0.0
H689 H 0.64769 0.53657 0.63361 0.0
H690 H 0.64282 0.5649 0.5406 0.0
H691 H 0.61867 0.5785 0.44898 0.0
O692 O 0.5239 0.47499 0.56933 0.0
O693 O 0.52414 0.54362 0.57136 0.0
O694 O 0.52075 0.56083 0.66941 0.0
O695 O 0.56129 0.48072 0.54284 0.0
O696 O 0.50396 0.51186 0.55257 0.0
O697 O 0.47571 0.5271 0.62335 0.0
O698 O 0.47242 0.5594 0.7803 0.0
O699 O 0.49403 0.49686 0.69175 0.0
O700 O 0.53352 0.48957 0.69196 0.0
O701 O 0.46942 0.56324 0.67791 0.0
O702 O 0.53288 0.54645 0.73376 0.0
O703 O 0.55178 0.51242 0.70228 0.0
C704 C 0.52276 0.56276 0.60699 0.0
C705 C 0.54232 0.44281 0.51206 0.0
C706 C 0.51978 0.40686 0.48594 0.0
C707 C 0.54062 0.39666 0.46089 0.0
C708 C 0.56294 0.43255 0.48635 0.0
C709 C 0.56204 0.40952 0.46096 0.0
C710 C 0.52086 0.42987 0.51153 0.0
C711 C 0.48198 0.51841 0.56716 0.0
C712 C 0.54286 0.46648 0.54213 0.0
C713 C 0.62472 0.55838 0.53535 0.0
C714 C 0.61097 0.56611 0.48316 0.0
C715 C 0.51191 0.48307 0.70787 0.0
C716 C 0.47221 0.59802 0.73806 0.0
C717 C 0.50356 0.6273 0.75858 0.0
C718 C 0.48774 0.64553 0.74073 0.0
C719 C 0.45659 0.61628 0.72054 0.0
C720 C 0.49562 0.60363 0.75617 0.0
C721 C 0.46441 0.63998 0.72179 0.0
C722 C 0.55101 0.53169 0.7379 0.0
C723 C 0.46525 0.57289 0.73334 0.0
H724 H 0.54025 0.37896 0.44035 0.0
H725 H 0.57973 0.44217 0.48651 0.0
H726 H 0.57799 0.40162 0.44128 0.0
H727 H 0.5049 0.43756 0.53201 0.0
H728 H 0.4932 0.66404 0.7426 0.0
H729 H 0.43856 0.6122 0.70538 0.0
H730 H 0.50784 0.58938 0.76767 0.0
H731 H 0.45234 0.65411 0.70828 0.0
Eu732 Eu 0.0301 0.54593 0.59869 0.0
C733 C 0.03653 0.47754 0.82213 0.0
N734 N 0.02841 0.47235 0.76251 0.0
C735 C 0.05336 0.43784 0.75856 0.0
C736 C 0.05436 0.4636 0.8513 0.0
C737 C 0.03576 0.4523 0.73146 0.0
C738 C 0.06299 0.44374 0.81829 0.0
C739 C 0.03312 0.5012 0.91856 0.0
C740 C 0.02607 0.49611 0.85511 0.0
C741 C 0.05193 0.48837 0.94644 0.0
C742 C 0.06251 0.46958 0.91289 0.0
Eu743 Eu 0.99992 0.49853 0.71818 0.0
N744 N 1.00764 0.50781 0.82721 0.0
C745 C 0.0203 0.51822 0.95305 0.0
C746 C 0.99359 0.52247 0.86293 0.0
C747 C 1.00008 0.52848 0.9256 0.0
H748 H 0.02842 0.44778 0.68515 0.0
H749 H 0.98928 0.54071 0.95297 0.0
H750 H 0.04761 0.59489 0.67893 0.0
H751 H 0.98733 0.54466 0.36345 0.0
H752 H 0.97721 0.5294 0.84341 0.0
H753 H 0.02513 0.52265 1.0019 0.0
H754 H 0.0135 0.52992 0.45039 0.0
H755 H 0.05956 0.42225 0.73325 0.0
H756 H 0.05782 0.49225 0.99479 0.0
H757 H 0.07647 0.45933 0.93572 0.0
H758 H 0.03507 0.63686 0.69113 0.0
H759 H 0.07667 0.43256 0.83908 0.0
H760 H 0.96787 0.58398 0.37359 0.0
N761 N 0.02221 0.58732 0.60613 0.0
C762 C 1.00611 0.59641 0.56445 0.0
C763 C 0.02657 0.62561 0.6557 0.0
C764 C 0.99877 0.62034 0.56833 0.0
C765 C 0.03349 0.60182 0.64907 0.0
C766 C 1.00877 0.6348 0.61596 0.0
N767 N 1.00808 0.56018 0.50958 0.0
C768 C 1.00512 0.54713 0.45489 0.0
C769 C 0.98394 0.59159 0.46577 0.0
C770 C 0.99882 0.58232 0.51414 0.0
C771 C 0.97924 0.57754 0.41182 0.0
C772 C 0.99028 0.55539 0.40578 0.0
H773 H 1.00361 0.65329 0.62068 0.0
H774 H 0.97648 0.64752 0.52545 0.0
H775 H 0.96347 0.62227 0.43539 0.0
O776 O 0.06267 0.52791 0.57502 0.0
O777 O 0.99415 0.52945 0.57188 0.0
O778 O 0.9761 0.52579 0.66897 0.0
O779 O 0.05871 0.56529 0.54615 0.0
O780 O 0.02697 0.50865 0.55582 0.0
O781 O 1.00804 0.48108 0.6225 0.0
O782 O 0.97624 0.47889 0.78246 0.0
O783 O 0.03999 0.49975 0.69611 0.0
O784 O 0.04699 0.53933 0.69571 0.0
O785 O 0.97365 0.47333 0.68058 0.0
O786 O 0.99018 0.53781 0.73473 0.0
O787 O 0.02388 0.5579 0.70248 0.0
C788 C 0.97472 0.52821 0.60657 0.0
C789 C 0.09576 0.54446 0.51735 0.0
C790 C 0.12787 0.51902 0.47952 0.0
C791 C 0.14201 0.53934 0.46851 0.0
C792 C 0.10984 0.56467 0.50517 0.0
C793 C 0.13292 0.56205 0.4809 0.0
C794 C 0.10481 0.52177 0.50382 0.0
C795 C 0.01871 0.48704 0.56844 0.0
C796 C 0.07212 0.54636 0.54699 0.0
C797 C 0.9826 0.62927 0.52284 0.0
C798 C 0.97519 0.6149 0.47155 0.0
C799 C 0.0534 0.51792 0.71314 0.0
C800 C 0.93809 0.47493 0.73828 0.0
C801 C 0.90614 0.50407 0.74787 0.0
C802 C 0.8894 0.48556 0.7393 0.0
C803 C 0.92126 0.45675 0.72963 0.0
C804 C 0.93049 0.49847 0.74687 0.0
C805 C 0.89697 0.46211 0.73012 0.0
C806 C 1.00466 0.55636 0.7385 0.0
C807 C 0.96366 0.46983 0.73604 0.0
H808 H 0.15987 0.53768 0.44943 0.0
H809 H 0.10319 0.58234 0.51544 0.0
H810 H 0.14383 0.57766 0.47192 0.0
H811 H 0.09402 0.50606 0.51313 0.0
H812 H 0.87045 0.48906 0.74096 0.0
H813 H 0.9269 0.43853 0.72238 0.0
H814 H 0.9437 0.51245 0.75238 0.0
H815 H 0.88395 0.44802 0.72373 0.0
H816 H 0.16651 1.00581 0.3057 0.0
H817 H 0.05698 0.0643 0.49752 0.0
H818 H 0.13996 0.0765 0.26902 0.0
H819 H 0.07815 0.99103 0.52038 0.0
H820 H 0.08682 0.06882 0.41229 0.0
H821 H 0.13354 0.99934 0.38143 0.0
C822 C 0.15357 0.01982 0.31261 0.0
C823 C 0.15628 0.04182 0.28112 0.0
C824 C 0.08494 0.05173 0.43594 0.0
C825 C 0.11861 0.03473 0.369 0.0
C826 C 0.06788 0.04917 0.48473 0.0
C827 C 0.06514 0.02734 0.51699 0.0
C828 C 0.09953 0.03236 0.41906 0.0
C829 C 0.07982 1.00834 0.49789 0.0
C830 C 0.13483 0.01621 0.35639 0.0
C831 C 0.13894 0.05938 0.29285 0.0
N832 N 0.09636 1.01131 0.45066 0.0
N833 N 0.12111 0.05554 0.33596 0.0
H834 H 0.53269 0.17207 0.27977 0.0
H835 H 0.48415 0.09346 0.55974 0.0
H836 H 0.45796 0.15356 0.28798 0.0
H837 H 0.53998 0.06169 0.44726 0.0
H838 H 0.47938 0.1242 0.47687 0.0
H839 H 0.54103 0.13871 0.354 0.0
C840 C 0.51808 0.16099 0.29627 0.0
C841 C 0.49446 0.16628 0.27835 0.0
C842 C 0.49275 0.11055 0.47058 0.0
C843 C 0.50391 0.12867 0.36476 0.0
C844 C 0.49551 0.09303 0.5178 0.0
C845 C 0.51232 0.07482 0.51014 0.0
C846 C 0.50741 0.11045 0.41604 0.0
C847 C 0.5266 0.07526 0.45465 0.0
C848 C 0.52288 0.14206 0.33893 0.0
C849 C 0.47636 0.15106 0.30192 0.0
N850 N 0.524 0.09291 0.40989 0.0
N851 N 0.48138 0.13345 0.34463 0.0
H852 H 0.34829 0.51885 0.34999 0.0
H853 H 0.4861 0.50024 0.44493 0.0
H854 H 0.39918 0.4824 0.23159 0.0
H855 H 0.43483 0.5326 0.57148 0.0
H856 H 0.45533 0.49727 0.36235 0.0
H857 H 0.38052 0.52872 0.42579 0.0
C858 C 0.36638 0.51365 0.33881 0.0
C859 C 0.37106 0.50002 0.28391 0.0
C860 C 0.45078 0.50512 0.40806 0.0
C861 C 0.40801 0.51053 0.37156 0.0
C862 C 0.46842 0.50681 0.45555 0.0
C863 C 0.46324 0.51663 0.51591 0.0
C864 C 0.42757 0.51332 0.42036 0.0
C865 C 0.43982 0.5248 0.52607 0.0
C866 C 0.38475 0.51896 0.3826 0.0
C867 C 0.39479 0.49315 0.27293 0.0
N868 N 0.42294 0.52291 0.47907 0.0
N869 N 0.41223 0.49828 0.31636 0.0
H870 H 0.01151 0.3565 0.33997 0.0
H871 H 0.04423 0.48946 0.45576 0.0
H872 H 0.06484 0.4007 0.25026 0.0
H873 H 0.99833 0.44208 0.56294 0.0
H874 H 0.04805 0.45899 0.37293 0.0
H875 H 1.0017 0.38962 0.4123 0.0
C876 C 0.02053 0.37346 0.33389 0.0
C877 C 0.03879 0.37589 0.28829 0.0
C878 C 0.03703 0.45526 0.41437 0.0
C879 C 0.02826 0.41374 0.37248 0.0
C880 C 0.03482 0.47272 0.46196 0.0
C881 C 0.02095 0.4685 0.51705 0.0
C882 C 0.0252 0.43324 0.42108 0.0
C883 C 1.00932 0.44625 0.52177 0.0
C884 C 0.01521 0.39226 0.37593 0.0
C885 C 0.05043 0.39811 0.28409 0.0
N886 N 0.01171 0.42955 0.47466 0.0
N887 N 0.04511 0.416 0.32573 0.0
H888 H 0.90721 0.96544 0.08987 0.0
H889 H 0.94408 0.03931 0.7751 0.0
H890 H 0.86021 0.0151 0.99659 0.0
H891 H 0.98663 0.983 0.85661 0.0
H892 H 0.91533 0.03426 0.86214 0.0
H893 H 0.93867 0.97605 1.01379 0.0
C894 C 0.90369 0.97905 0.05425 0.0
C895 C 0.88095 0.98937 0.04971 0.0
C896 C 0.93098 0.02304 0.86114 0.0
C897 C 0.91697 1.00132 0.96097 0.0
C898 C 0.94746 0.02586 0.81122 0.0
C899 C 0.96786 1.01139 0.8077 0.0
C900 C 0.93482 1.00572 0.90868 0.0
C901 C 0.97117 0.99446 0.85665 0.0
C902 C 0.92164 0.98494 1.01035 0.0
C903 C 0.87748 1.00685 1.00236 0.0
N904 N 0.95485 0.99208 0.90477 0.0
N905 N 0.89516 0.01206 0.95943 0.0
H906 H 0.50003 0.8859 0.05796 0.0
H907 H 0.5347 0.94481 0.72756 0.0
H908 H 0.56746 0.87249 0.96551 0.0
H909 H 0.50624 0.99115 0.87293 0.0
H910 H 0.53869 0.91326 0.80784 0.0
H911 H 0.49477 0.9209 0.98705 0.0
C912 C 0.51375 0.89023 0.02334 0.0
C913 C 0.53388 0.87549 1.01688 0.0
C914 C 0.53151 0.93032 0.82219 0.0
C915 C 0.52764 0.91517 0.93488 0.0
C916 C 0.52915 0.94835 0.77634 0.0
C917 C 0.5203 0.97081 0.79343 0.0
C918 C 0.52438 0.93432 0.88575 0.0
C919 C 0.5134 0.97421 0.85773 0.0
C920 C 0.51067 0.91018 0.98279 0.0
C921 C 0.55108 0.88236 0.97097 0.0
N922 N 0.51539 0.9561 0.90152 0.0
N923 N 0.54735 0.90124 0.93139 0.0
H924 H 0.66939 0.5142 1.00705 0.0
H925 H 0.56535 0.57373 0.79431 0.0
H926 H 0.6527 0.58909 1.00913 0.0
H927 H 0.57972 0.49837 0.7955 0.0
H928 H 0.5964 0.57937 0.87582 0.0
H929 H 0.63554 0.50749 0.93412 0.0
C930 C 0.65844 0.52918 0.9931 0.0
C931 C 0.66417 0.55228 1.01414 0.0
C932 C 0.59279 0.56157 0.85834 0.0
C933 C 0.62546 0.5448 0.9295 0.0
C934 C 0.575 0.55835 0.81174 0.0
C935 C 0.56992 0.53556 0.7875 0.0
C936 C 0.60578 0.54186 0.88115 0.0
C937 C 0.58319 0.51633 0.81189 0.0
C938 C 0.6392 0.52538 0.95091 0.0
C939 C 0.64932 0.571 0.99357 0.0
N940 N 0.60045 0.51991 0.85705 0.0
N941 N 0.6309 0.56689 0.9524 0.0
H942 H 1.00988 0.68379 0.98011 0.0
H943 H 0.96271 0.56735 0.80003 0.0
H944 H 0.94758 0.6444 0.03967 0.0
H945 H 0.03657 0.58859 0.79014 0.0
H946 H 0.95626 0.59748 0.88288 0.0
H947 H 0.02035 0.65068 0.90798 0.0
C948 C 0.99876 0.66797 0.9794 0.0
C949 C 0.97771 0.66706 1.01588 0.0
C950 C 0.97392 0.59555 0.86268 0.0
C951 C 0.98909 0.62945 0.93165 0.0
C952 C 0.97761 0.57828 0.81526 0.0
C953 C 1.00024 0.57525 0.78777 0.0
C954 C 0.99285 0.61038 0.88237 0.0
C955 C 0.01873 0.59039 0.80904 0.0
C956 C 1.00458 0.64918 0.93761 0.0
C957 C 0.96381 0.64613 1.01197 0.0
N958 N 0.01462 0.60733 0.8546 0.0
N959 N 0.9695 0.62848 0.9701 0.0
H960 H 0.07724 0.23441 0.497 0.0
H961 H 0.03374 0.10956 0.62382 0.0
H962 H 0.11477 0.16851 0.46322 0.0
H963 H 0.9921 0.17408 0.62014 0.0
H964 H 0.06934 0.13294 0.60001 0.0
H965 H 0.05401 0.21488 0.57906 0.0
C966 C 0.08135 0.21603 0.50791 0.0
C967 C 0.09764 0.20295 0.47081 0.0
C968 C 0.05248 0.14201 0.60581 0.0
C969 C 0.06994 0.18019 0.56404 0.0
C970 C 0.03204 0.12867 0.61903 0.0
C971 C 1.00961 0.13972 0.62217 0.0
C972 C 0.05052 0.1666 0.59551 0.0
C973 C 1.00884 0.16464 0.61762 0.0
C974 C 0.06769 0.20479 0.55472 0.0
C975 C 0.10174 0.17912 0.48836 0.0
N976 N 0.0289 0.17716 0.60334 0.0
N977 N 0.08749 0.1683 0.53248 0.0
H978 H 0.35279 0.15728 0.33266 0.0
H979 H 0.36177 0.05412 0.59257 0.0
H980 H 0.29237 0.12652 0.43116 0.0
H981 H 0.41488 0.0714 0.44963 0.0
H982 H 0.33981 0.08997 0.56158 0.0
H983 H 0.37926 0.13694 0.4078 0.0
C984 C 0.34504 0.14695 0.37134 0.0
C985 C 0.32035 0.14283 0.37383 0.0
C986 C 0.35656 0.08607 0.53815 0.0
C987 C 0.35045 0.11945 0.45944 0.0
C988 C 0.36897 0.06547 0.5552 0.0
C989 C 0.39009 0.05939 0.52312 0.0
C990 C 0.3654 0.10075 0.48894 0.0
C991 C 0.39884 0.07524 0.47633 0.0
C992 C 0.36016 0.13524 0.41402 0.0
C993 C 0.31129 0.1299 0.42633 0.0
N994 N 0.38635 0.09499 0.46031 0.0
N995 N 0.32637 0.11808 0.46597 0.0
H996 H 0.3849 0.36163 0.3538 0.0
H997 H 0.51088 0.36036 0.51833 0.0
H998 H 0.41771 0.29894 0.43448 0.0
H999 H 0.47615 0.42417 0.45144 0.0
H1000 H 0.47298 0.33894 0.5095 0.0
H1001 H 0.41254 0.38632 0.41541 0.0
C1002 C 0.39729 0.35305 0.38622 0.0
C1003 C 0.39965 0.32815 0.38655 0.0
C1004 C 0.47354 0.35772 0.49763 0.0
C1005 C 0.43154 0.3562 0.45622 0.0
C1006 C 0.49524 0.36985 0.50198 0.0
C1007 C 0.49672 0.39392 0.48455 0.0
C1008 C 0.45325 0.36967 0.47467 0.0
C1009 C 0.4758 0.40556 0.46515 0.0
C1010 C 0.41322 0.36716 0.42108 0.0
C1011 C 0.41549 0.31804 0.43114 0.0
N1012 N 0.45502 0.39324 0.45979 0.0
N1013 N 0.43136 0.33208 0.46255 0.0
H1014 H 0.21689 0.39693 0.42667 0.0
H1015 H 0.10518 0.48377 0.41307 0.0
H1016 H 0.1683 0.40228 0.26617 0.0
H1017 H 0.17045 0.49921 0.51455 0.0
H1018 H 0.12074 0.4444 0.38571 0.0
H1019 H 0.19122 0.42384 0.48678 0.0
C1020 C 0.2007 0.40319 0.40419 0.0
C1021 C 0.19588 0.3985 0.33913 0.0
C1022 C 0.13147 0.45629 0.41481 0.0
C1023 C 0.16599 0.4284 0.40906 0.0
C1024 C 0.12268 0.47874 0.43021 0.0
C1025 C 0.13677 0.49485 0.46517 0.0
C1026 C 0.15439 0.44983 0.4351 0.0
C1027 C 0.15928 0.48745 0.48635 0.0
C1028 C 0.18603 0.41851 0.43887 0.0
C1029 C 0.17359 0.40583 0.31504 0.0
N1030 N 0.16748 0.46549 0.47063 0.0
N1031 N 0.15981 0.42091 0.34941 0.0
H1032 H 0.89251 0.83031 0.83768 0.0
H1033 H 0.98124 0.939 0.82325 0.0
H1034 H 0.90286 0.8841 0.98332 0.0
H1035 H 0.98535 0.87801 0.69763 0.0
H1036 H 0.94152 0.92701 0.85399 0.0
H1037 H 0.91483 0.85525 0.76259 0.0
C1038 C 0.89895 0.84746 0.85391 0.0
C1039 C 0.89697 0.85424 0.91869 0.0
C1040 C 0.95089 0.91645 0.81875 0.0
C1041 C 0.92171 0.8832 0.8319 0.0
C1042 C 0.9737 0.92341 0.80046 0.0
C1043 C 0.98721 0.90919 0.75869 0.0
C1044 C 0.94157 0.89476 0.79672 0.0
C1045 C 0.97608 0.88904 0.73191 0.0
C1046 C 0.91156 0.86177 0.81059 0.0
C1047 C 0.90433 0.87746 0.93492 0.0
N1048 N 0.95412 0.88208 0.7526 0.0
N1049 N 0.91685 0.89078 0.89234 0.0
H1050 H 0.67676 0.88355 0.95029 0.0
H1051 H 0.67495 1.00872 0.78087 0.0
H1052 H 0.7388 0.92325 0.88755 0.0
H1053 H 0.61207 0.97209 0.84848 0.0
H1054 H 0.6973 0.97167 0.79004 0.0
H1055 H 0.65211 0.90875 0.88198 0.0
C1056 C 0.6854 0.89709 0.92141 0.0
C1057 C 0.70986 0.90212 0.9287 0.0
C1058 C 0.67851 0.97156 0.80192 0.0
C1059 C 0.68172 0.93069 0.84934 0.0
C1060 C 0.66583 0.99276 0.79709 0.0
C1061 C 0.64185 0.99352 0.81546 0.0
C1062 C 0.66726 0.95108 0.8267 0.0
C1063 C 0.63066 0.97225 0.83457 0.0
C1064 C 0.67124 0.91145 0.88212 0.0
C1065 C 0.72003 0.9189 0.88629 0.0
N1066 N 0.64359 0.95197 0.84107 0.0
N1067 N 0.70584 0.933 0.85005 0.0
H1068 H 0.63129 0.7021 0.85659 0.0
H1069 H 0.5276 0.60565 0.85678 0.0
H1070 H 0.60355 0.66545 0.02353 0.0
H1071 H 0.53534 0.66111 0.71448 0.0
H1072 H 0.56634 0.61647 0.90067 0.0
H1073 H 0.60783 0.67537 0.78901 0.0
C1074 C 0.62077 0.68829 0.87944 0.0
C1075 C 0.6182 0.68745 0.94661 0.0
C1076 C 0.55975 0.62596 0.85905 0.0
C1077 C 0.59231 0.65612 0.86904 0.0
C1078 C 0.53762 0.6198 0.83379 0.0
C1079 C 0.52799 0.63269 0.78215 0.0
C1080 C 0.57237 0.6453 0.83304 0.0
C1081 C 0.54182 0.65103 0.75509 0.0
C1082 C 0.60752 0.67293 0.84051 0.0
C1083 C 0.60572 0.66781 0.97249 0.0
N1084 N 0.5632 0.657 0.78138 0.0
N1085 N 0.59279 0.65336 0.93372 0.0
H1086 H 0.81179 0.61395 0.8375 0.0
H1087 H 0.92685 0.53751 0.82687 0.0
H1088 H 0.87599 0.63294 0.94035 0.0
H1089 H 0.86775 0.52779 0.69648 0.0
H1090 H 0.91193 0.57684 0.85324 0.0
H1091 H 0.83506 0.58891 0.76762 0.0
C1092 C 0.8309 0.61363 0.8444 0.0
C1093 C 0.84168 0.62494 0.89718 0.0
C1094 C 0.90239 0.56629 0.81809 0.0
C1095 C 0.86839 0.59513 0.81814 0.0
C1096 C 0.91095 0.54373 0.80279 0.0
C1097 C 0.89832 0.52897 0.7601 0.0
C1098 C 0.88079 0.57407 0.79154 0.0
C1099 C 0.87767 0.53813 0.73126 0.0
C1100 C 0.84421 0.59893 0.80456 0.0
C1101 C 0.86664 0.62367 0.90241 0.0
N1102 N 0.86937 0.55991 0.74823 0.0
N1103 N 0.87905 0.60837 0.86482 0.0
H1104 H 0.07763 0.18064 0.92427 0.0
H1105 H 0.98696 0.09016 0.75112 0.0
H1106 H 1.00144 0.18966 0.93028 0.0
H1107 H 0.06349 0.0847 0.74043 0.0
H1108 H 0.99145 0.12748 0.81091 0.0
H1109 H 0.0724 0.1469 0.8519 0.0
C1110 C 0.05973 0.17564 0.90992 0.0
C1111 C 0.03995 0.18805 0.93407 0.0
C1112 C 1.00727 0.11813 0.79556 0.0
C1113 C 0.03374 0.14885 0.85063 0.0
C1114 C 1.00475 0.09675 0.76123 0.0
C1115 C 0.02489 0.08386 0.74125 0.0
C1116 C 0.03014 0.12685 0.81054 0.0
C1117 C 0.04741 0.09356 0.75578 0.0
C1118 C 0.05675 0.15628 0.86844 0.0
C1119 C 0.01723 0.18077 0.91288 0.0
N1120 N 0.04939 0.11427 0.78962 0.0
N1121 N 0.01474 0.16155 0.87303 0.0
H1122 H 0.3266 0.03743 0.83305 0.0
H1123 H 0.46827 0.03107 0.84859 0.0
H1124 H 0.36568 0.03282 1.01008 0.0
H1125 H 0.42975 0.01238 0.67727 0.0
H1126 H 0.43065 0.03223 0.9075 0.0
H1127 H 0.36327 0.02764 0.774 0.0
C1128 C 0.3427 0.03344 0.85958 0.0
C1129 C 0.34294 0.03528 0.92671 0.0
C1130 C 0.43035 0.02774 0.85706 0.0
C1131 C 0.38532 0.02535 0.85941 0.0
C1132 C 0.4519 0.0273 0.82317 0.0
C1133 C 0.45228 0.02189 0.7575 0.0
C1134 C 0.40873 0.02312 0.82512 0.0
C1135 C 0.43037 0.0166 0.72774 0.0
C1136 C 0.36371 0.02815 0.82586 0.0
C1137 C 0.36456 0.03096 0.95852 0.0
N1138 N 0.40951 0.01764 0.76142 0.0
N1139 N 0.38485 0.02652 0.92472 0.0
H1140 H 0.5148 0.36113 0.97028 0.0
H1141 H 0.47334 0.45297 0.69856 0.0
H1142 H 0.46086 0.34509 0.82951 0.0
H1143 H 0.54164 0.45975 0.79136 0.0
H1144 H 0.46742 0.41451 0.75235 0.0
H1145 H 0.52513 0.39748 0.90945 0.0
C1146 C 0.50557 0.36486 0.92579 0.0
C1147 C 0.48683 0.34998 0.90535 0.0
C1148 C 0.48377 0.42433 0.76091 0.0
C1149 C 0.49796 0.39203 0.83664 0.0
C1150 C 0.48705 0.44642 0.73052 0.0
C1151 C 0.50795 0.45969 0.74059 0.0
C1152 C 0.5014 0.41539 0.80248 0.0
C1153 C 0.52526 0.45008 0.78201 0.0
C1154 C 0.51127 0.38579 0.89146 0.0
C1155 C 0.47525 0.35608 0.84768 0.0
N1156 N 0.52155 0.42867 0.81177 0.0
N1157 N 0.48073 0.37665 0.81616 0.0
H1158 H 0.17874 0.53346 0.96071 0.0
H1159 H 0.08255 0.47866 0.71386 0.0
H1160 H 0.18577 0.46511 0.86891 0.0
H1161 H 0.07735 0.54974 0.78975 0.0
H1162 H 0.12027 0.47353 0.77142 0.0
H1163 H 0.14228 0.54051 0.89781 0.0
C1164 C 0.17288 0.52009 0.92676 0.0
C1165 C 0.18539 0.49854 0.92083 0.0
C1166 C 0.11095 0.4903 0.77559 0.0
C1167 C 0.14328 0.50633 0.84919 0.0
C1168 C 0.08925 0.49313 0.74304 0.0
C1169 C 0.07654 0.51453 0.74749 0.0
C1170 C 0.12024 0.50903 0.81304 0.0
C1171 C 0.0865 0.5329 0.78491 0.0
C1172 C 0.15191 0.52403 0.89119 0.0
C1173 C 0.17663 0.48182 0.87624 0.0
N1174 N 0.10762 0.52971 0.81634 0.0
N1175 N 0.1562 0.48598 0.84278 0.0
H1176 H 0.02228 0.8511 0.36751 0.0
H1177 H 0.96964 0.94686 0.61741 0.0
H1178 H 0.94933 0.85165 0.43207 0.0
H1179 H 0.04095 0.95071 0.54149 0.0
H1180 H 0.96301 0.90998 0.55699 0.0
H1181 H 0.03081 0.88501 0.43871 0.0
C1182 C 1.00815 0.85804 0.39735 0.0
C1183 C 0.985 0.84847 0.39319 0.0
C1184 C 0.98015 0.91882 0.55352 0.0
C1185 C 0.99457 0.88763 0.47461 0.0
C1186 C 0.98388 0.94001 0.58783 0.0
C1187 C 1.00571 0.95224 0.58368 0.0
C1188 C 0.99844 0.90954 0.5148 0.0
C1189 C 0.02376 0.94203 0.54597 0.0
C1190 C 0.01298 0.87758 0.43766 0.0
C1191 C 0.96738 0.85853 0.43281 0.0
N1192 N 0.01969 0.92145 0.51281 0.0
N1193 N 0.97248 0.87748 0.4713 0.0
H1194 H 0.68801 0.96021 0.43204 0.0
H1195 H 0.59242 0.05383 0.56421 0.0
H1196 H 0.69025 0.03407 0.37519 0.0
H1197 H 0.58118 0.97779 0.55787 0.0
H1198 H 0.63097 0.04842 0.50986 0.0
H1199 H 0.65236 0.96804 0.49493 0.0
C1200 C 0.6811 0.97819 0.43303 0.0
C1201 C 0.69208 0.9964 0.39702 0.0
C1202 C 0.62005 0.03296 0.52059 0.0
C1203 C 0.65084 1.00558 0.47021 0.0
C1204 C 0.59805 0.036 0.55182 0.0
C1205 C 0.58337 0.01624 0.56579 0.0
C1206 C 0.6277 1.00996 0.5041 0.0
C1207 C 0.59171 0.9936 0.54815 0.0
C1208 C 0.66063 0.98263 0.46905 0.0
C1209 C 0.68246 0.01945 0.40193 0.0
N1210 N 0.61321 0.99112 0.51867 0.0
N1211 N 0.6623 0.02336 0.43737 0.0
H1212 H 0.51687 0.68111 0.33456 0.0
H1213 H 0.53708 0.60554 0.65892 0.0
H1214 H 0.55858 0.70648 0.49397 0.0
H1215 H 0.51056 0.57482 0.4836 0.0
H1216 H 0.53945 0.64451 0.60528 0.0
H1217 H 0.50802 0.64445 0.3951 0.0
C1218 C 0.52354 0.67931 0.38306 0.0
C1219 C 0.53835 0.69703 0.4093 0.0
C1220 C 0.53295 0.62928 0.57868 0.0
C1221 C 0.52875 0.65478 0.47862 0.0
C1222 C 0.53152 0.60702 0.60939 0.0
C1223 C 0.52369 0.58677 0.57582 0.0
C1224 C 0.52623 0.63153 0.51392 0.0
C1225 C 0.517 0.58981 0.51129 0.0
C1226 C 0.51878 0.65821 0.41731 0.0
C1227 C 0.54699 0.69338 0.47192 0.0
N1228 N 0.51839 0.61166 0.48261 0.0
N1229 N 0.54218 0.67273 0.50414 0.0
H1230 H 0.85939 0.52433 0.32625 0.0
H1231 H 0.932 0.54386 0.6555 0.0
H1232 H 0.83447 0.56901 0.47937 0.0
H1233 H 0.96328 0.51551 0.48342 0.0
H1234 H 0.89362 0.54714 0.59914 0.0
H1235 H 0.89439 0.51395 0.39148 0.0
C1236 C 0.86082 0.53123 0.37456 0.0
C1237 C 0.84376 0.54727 0.39772 0.0
C1238 C 0.90883 0.54 0.57392 0.0
C1239 C 0.88422 0.53608 0.47218 0.0
C1240 C 0.93075 0.53808 0.60614 0.0
C1241 C 0.95099 0.52952 0.57416 0.0
C1242 C 0.90693 0.53297 0.50938 0.0
C1243 C 0.94829 0.52253 0.50984 0.0
C1244 C 0.88102 0.52562 0.41144 0.0
C1245 C 0.847 0.5563 0.46001 0.0
N1246 N 0.92677 0.52437 0.47974 0.0
N1247 N 0.86682 0.55072 0.4948 0.0
loop_
_geom_bond_atom_site_label_1
_geom_bond_atom_site_label_2
_geom_bond_distance
_geom_bond_site_symmetry_2
_ccdc_geom_bond_type
C0 C1 1.391 . S
C0 C4 1.391 . S
C0 H42 0.948 . S
C1 C0 1.391 . S
C1 C2 1.391 . S
C2 C1 1.391 . S
C2 H58 0.947 . S
C2 C59 1.392 . S
C3 C4 1.391 . S
C3 C7 1.397 . S
C3 C59 1.419 . S
C4 C0 1.391 . S
C4 C3 1.391 . S
C4 C5 1.399 . S
C5 C4 1.399 . S
C5 C8 1.396 . S
C5 C17 1.453 . S
C5 C18 1.684 . S
H6 C30 0.948 . S
C7 C3 1.397 . S
C7 C8 1.394 . S
C7 C26 1.723 . S
C8 C5 1.396 . S
C8 C7 1.394 . S
C8 C38 1.723 . S
H9 C32 0.947 . S
H10 C33 0.948 . S
H11 C39 0.982 . S
H12 C40 0.979 . S
H13 C40 0.980 . S
H14 C40 0.983 . S
H15 C39 0.979 . S
H16 C39 0.977 . S
C17 C5 1.453 . S
C17 H46 0.982 . S
C17 H47 0.979 . S
C17 H48 0.977 . S
C18 C5 1.684 . S
C18 H43 0.979 . S
C18 H44 0.980 . S
C18 H45 0.983 . S
C19 C20 1.391 . S
C19 C24 1.391 . S
C19 H49 0.948 . S
C20 C19 1.391 . S
C20 C21 1.391 . S
C21 C20 1.391 . S
C21 C22 1.392 . S
C21 H50 0.947 1_554 S
C22 C21 1.392 . S
C22 C23 1.419 . S
C22 H51 0.948 . S
C23 C22 1.419 . S
C23 C24 1.391 . S
C23 C27 1.397 . S
C24 C19 1.391 . S
C24 C23 1.391 . S
C24 C25 1.399 . S
C25 C24 1.399 . S
C25 C26 1.396 . S
C25 C28 1.453 . S
C25 C29 1.684 . S
C26 C7 1.723 . S
C26 C25 1.396 . S
C26 C27 1.394 . S
C27 C23 1.397 . S
C27 C26 1.394 . S
C27 C37 1.723 . S
C28 C25 1.453 . S
C28 H52 0.982 . S
C28 H53 0.979 . S
C28 H54 0.977 . S
C29 C25 1.684 . S
C29 H55 0.979 . S
C29 H56 0.980 . S
C29 H57 0.983 . S
C30 H6 0.948 . S
C30 C31 1.391 . S
C30 C35 1.391 . S
C31 C30 1.391 . S
C31 C32 1.391 . S
C32 H9 0.947 . S
C32 C31 1.391 . S
C32 C33 1.392 . S
C33 H10 0.948 . S
C33 C32 1.392 . S
C33 C34 1.419 . S
C34 C33 1.419 . S
C34 C35 1.391 . S
C34 C38 1.397 . S
C35 C30 1.391 . S
C35 C34 1.391 . S
C35 C36 1.399 . S
C36 C35 1.399 . S
C36 C37 1.396 . S
C36 C39 1.453 . S
C36 C40 1.684 . S
C37 C27 1.723 . S
C37 C36 1.396 . S
C37 C38 1.394 . S
C38 C8 1.723 . S
C38 C34 1.397 . S
C38 C37 1.394 . S
C39 H11 0.982 . S
C39 H15 0.979 . S
C39 H16 0.977 . S
C39 C36 1.453 . S
C40 H12 0.979 . S
C40 H13 0.980 . S
C40 H14 0.983 . S
C40 C36 1.684 . S
H41 C59 0.948 . S
H42 C0 0.948 . S
H43 C18 0.979 . S
H44 C18 0.980 . S
H45 C18 0.983 . S
H46 C17 0.982 . S
H47 C17 0.979 . S
H48 C17 0.977 . S
H49 C19 0.948 . S
H50 C21 0.947 1_556 S
H51 C22 0.948 . S
H52 C28 0.982 . S
H53 C28 0.979 . S
H54 C28 0.977 . S
H55 C29 0.979 . S
H56 C29 0.980 . S
H57 C29 0.983 . S
H58 C2 0.947 . S
C59 C2 1.392 . S
C59 C3 1.419 . S
C59 H41 0.948 . S
C60 C61 1.391 . S
C60 C64 1.391 . S
C60 H102 0.948 . S
C61 C60 1.391 . S
C61 C62 1.391 . S
C62 C61 1.391 . S
C62 H118 0.947 . S
C62 C119 1.392 . S
C63 C64 1.391 . S
C63 C67 1.397 . S
C63 C119 1.419 . S
C64 C60 1.391 . S
C64 C63 1.391 . S
C64 C65 1.399 . S
C65 C64 1.399 . S
C65 C68 1.396 . S
C65 C77 1.453 . S
C65 C78 1.684 . S
H66 C90 0.948 . S
C67 C63 1.397 . S
C67 C68 1.394 . S
C67 C86 1.723 . S
C68 C65 1.396 . S
C68 C67 1.394 . S
C68 C98 1.723 . S
H69 C92 0.947 . S
H70 C93 0.948 . S
H71 C99 0.982 . S
H72 C100 0.979 . S
H73 C100 0.980 . S
H74 C100 0.983 . S
H75 C99 0.979 . S
H76 C99 0.977 . S
C77 C65 1.453 . S
C77 H106 0.982 . S
C77 H107 0.979 . S
C77 H108 0.977 . S
C78 C65 1.684 . S
C78 H103 0.979 . S
C78 H104 0.980 . S
C78 H105 0.983 . S
C79 C80 1.391 . S
C79 C84 1.391 . S
C79 H109 0.948 . S
C80 C79 1.391 . S
C80 C81 1.391 . S
C81 C80 1.391 . S
C81 C82 1.392 . S
C81 H110 0.947 . S
C82 C81 1.392 . S
C82 C83 1.419 . S
C82 H111 0.948 . S
C83 C82 1.419 . S
C83 C84 1.391 . S
C83 C87 1.397 . S
C84 C79 1.391 . S
C84 C83 1.391 . S
C84 C85 1.399 . S
C85 C84 1.399 . S
C85 C86 1.396 . S
C85 C88 1.453 . S
C85 C89 1.684 . S
C86 C67 1.723 . S
C86 C85 1.396 . S
C86 C87 1.394 . S
C87 C83 1.397 . S
C87 C86 1.394 . S
C87 C97 1.723 . S
C88 C85 1.453 . S
C88 H112 0.982 . S
C88 H113 0.979 . S
C88 H114 0.977 . S
C89 C85 1.684 . S
C89 H115 0.979 . S
C89 H116 0.980 . S
C89 H117 0.983 . S
C90 H66 0.948 . S
C90 C91 1.391 . S
C90 C95 1.391 . S
C91 C90 1.391 . S
C91 C92 1.391 . S
C92 H69 0.947 . S
C92 C91 1.391 . S
C92 C93 1.392 . S
C93 H70 0.948 . S
C93 C92 1.392 . S
C93 C94 1.419 . S
C94 C93 1.419 . S
C94 C95 1.391 . S
C94 C98 1.397 . S
C95 C90 1.391 . S
C95 C94 1.391 . S
C95 C96 1.399 . S
C96 C95 1.399 . S
C96 C97 1.396 . S
C96 C99 1.453 . S
C96 C100 1.684 . S
C97 C87 1.723 . S
C97 C96 1.396 . S
C97 C98 1.394 . S
C98 C68 1.723 . S
C98 C94 1.397 . S
C98 C97 1.394 . S
C99 H71 0.982 . S
C99 H75 0.979 . S
C99 H76 0.977 . S
C99 C96 1.453 . S
C100 H72 0.979 . S
C100 H73 0.980 . S
C100 H74 0.983 . S
C100 C96 1.684 . S
H101 C119 0.948 . S
H102 C60 0.948 . S
H103 C78 0.979 . S
H104 C78 0.980 . S
H105 C78 0.983 . S
H106 C77 0.982 . S
H107 C77 0.979 . S
H108 C77 0.977 . S
H109 C79 0.948 . S
H110 C81 0.947 . S
H111 C82 0.948 . S
H112 C88 0.982 . S
H113 C88 0.979 . S
H114 C88 0.977 . S
H115 C89 0.979 . S
H116 C89 0.980 . S
H117 C89 0.983 . S
H118 C62 0.947 . S
C119 C62 1.392 . S
C119 C63 1.419 . S
C119 H101 0.948 . S
C120 C121 1.391 . S
C120 C124 1.391 . S
C120 H162 0.948 . S
C121 C120 1.391 . S
C121 C122 1.391 . S
C122 C121 1.391 . S
C122 H178 0.947 . S
C122 C179 1.392 . S
C123 C124 1.391 . S
C123 C127 1.397 . S
C123 C179 1.419 . S
C124 C120 1.391 . S
C124 C123 1.391 . S
C124 C125 1.399 . S
C125 C124 1.399 . S
C125 C128 1.396 . S
C125 C137 1.453 . S
C125 C138 1.684 . S
H126 C150 0.948 . S
C127 C123 1.397 . S
C127 C128 1.394 . S
C127 C146 1.723 . S
C128 C125 1.396 . S
C128 C127 1.394 . S
C128 C158 1.723 . S
H129 C152 0.947 . S
H130 C153 0.948 . S
H131 C159 0.956 1_545 S
H132 C160 0.979 . S
H133 C160 0.980 . S
H134 C160 0.983 . S
H135 C159 0.979 . S
H136 C159 0.977 . S
C137 C125 1.453 . S
C137 H166 0.955 1_565 S
C137 H167 0.979 . S
C137 H168 0.977 . S
C138 C125 1.684 . S
C138 H163 0.979 . S
C138 H164 0.980 . S
C138 H165 0.983 . S
C139 C140 1.391 . S
C139 C144 1.391 . S
C139 H169 0.948 . S
C140 C139 1.391 . S
C140 C141 1.391 . S
C141 C140 1.391 . S
C141 C142 1.392 . S
C141 H170 0.947 . S
C142 C141 1.392 . S
C142 C143 1.419 . S
C142 H171 0.948 . S
C143 C142 1.419 . S
C143 C144 1.391 . S
C143 C147 1.397 . S
C144 C139 1.391 . S
C144 C143 1.391 . S
C144 C145 1.399 . S
C145 C144 1.399 . S
C145 C146 1.396 . S
C145 C148 1.453 . S
C145 C149 1.684 . S
C146 C127 1.723 . S
C146 C145 1.396 . S
C146 C147 1.394 . S
C147 C143 1.397 . S
C147 C146 1.394 . S
C147 C157 1.723 . S
C148 C145 1.453 . S
C148 H172 0.955 1_565 S
C148 H173 0.979 . S
C148 H174 0.977 . S
C149 C145 1.684 . S
C149 H175 0.979 . S
C149 H176 0.980 . S
C149 H177 0.983 . S
C150 H126 0.948 . S
C150 C151 1.391 . S
C150 C155 1.391 . S
C151 C150 1.391 . S
C151 C152 1.391 . S
C152 H129 0.947 . S
C152 C151 1.391 . S
C152 C153 1.392 . S
C153 H130 0.948 . S
C153 C152 1.392 . S
C153 C154 1.419 . S
C154 C153 1.419 . S
C154 C155 1.391 . S
C154 C158 1.397 . S
C155 C150 1.391 . S
C155 C154 1.391 . S
C155 C156 1.399 . S
C156 C155 1.399 . S
C156 C157 1.396 . S
C156 C159 1.453 . S
C156 C160 1.684 . S
C157 C147 1.723 . S
C157 C156 1.396 . S
C157 C158 1.394 . S
C158 C128 1.723 . S
C158 C154 1.397 . S
C158 C157 1.394 . S
C159 H131 0.956 1_565 S
C159 H135 0.979 . S
C159 H136 0.977 . S
C159 C156 1.453 . S
C160 H132 0.979 . S
C160 H133 0.980 . S
C160 H134 0.983 . S
C160 C156 1.684 . S
H161 C179 0.948 . S
H162 C120 0.948 . S
H163 C138 0.979 . S
H164 C138 0.980 . S
H165 C138 0.983 . S
H166 C137 0.955 1_545 S
H167 C137 0.979 . S
H168 C137 0.977 . S
H169 C139 0.948 . S
H170 C141 0.947 . S
H171 C142 0.948 . S
H172 C148 0.955 1_545 S
H173 C148 0.979 . S
H174 C148 0.977 . S
H175 C149 0.979 . S
H176 C149 0.980 . S
H177 C149 0.983 . S
H178 C122 0.947 . S
C179 C122 1.392 . S
C179 C123 1.419 . S
C179 H161 0.948 . S
C180 C181 1.391 . S
C180 C184 1.391 . S
C180 H222 0.948 . S
C181 C180 1.391 . S
C181 C182 1.391 . S
C182 C181 1.391 . S
C182 H238 0.947 . S
C182 C239 1.392 . S
C183 C184 1.391 . S
C183 C187 1.397 . S
C183 C239 1.419 . S
C184 C180 1.391 . S
C184 C183 1.391 . S
C184 C185 1.399 . S
C185 C184 1.399 . S
C185 C188 1.396 . S
C185 C197 1.453 . S
C185 C198 1.684 . S
H186 C210 0.948 . S
C187 C183 1.397 . S
C187 C188 1.394 . S
C187 C206 1.723 . S
C188 C185 1.396 . S
C188 C187 1.394 . S
C188 C218 1.723 . S
H189 C212 0.947 . S
H190 C213 0.948 . S
H191 C219 0.982 . S
H192 C220 0.979 . S
H193 C220 0.980 . S
H194 C220 0.983 . S
H195 C219 0.979 . S
H196 C219 0.977 . S
C197 C185 1.453 . S
C197 H226 0.982 . S
C197 H227 0.979 . S
C197 H228 0.977 . S
C198 C185 1.684 . S
C198 H223 0.979 . S
C198 H224 0.980 . S
C198 H225 0.983 . S
C199 C200 1.391 . S
C199 C204 1.391 . S
C199 H229 0.948 . S
C200 C199 1.391 . S
C200 C201 1.391 . S
C201 C200 1.391 . S
C201 C202 1.392 . S
C201 H230 0.947 1_554 S
C202 C201 1.392 . S
C202 C203 1.419 . S
C202 H231 0.948 . S
C203 C202 1.419 . S
C203 C204 1.391 . S
C203 C207 1.397 . S
C204 C199 1.391 . S
C204 C203 1.391 . S
C204 C205 1.399 . S
C205 C204 1.399 . S
C205 C206 1.396 . S
C205 C208 1.453 . S
C205 C209 1.684 . S
C206 C187 1.723 . S
C206 C205 1.396 . S
C206 C207 1.394 . S
C207 C203 1.397 . S
C207 C206 1.394 . S
C207 C217 1.723 . S
C208 C205 1.453 . S
C208 H232 0.982 . S
C208 H233 0.979 . S
C208 H234 0.977 . S
C209 C205 1.684 . S
C209 H235 0.979 . S
C209 H236 0.980 . S
C209 H237 0.983 . S
C210 H186 0.948 . S
C210 C211 1.391 . S
C210 C215 1.391 . S
C211 C210 1.391 . S
C211 C212 1.391 . S
C212 H189 0.947 . S
C212 C211 1.391 . S
C212 C213 1.392 . S
C213 H190 0.948 . S
C213 C212 1.392 . S
C213 C214 1.419 . S
C214 C213 1.419 . S
C214 C215 1.391 . S
C214 C218 1.397 . S
C215 C210 1.391 . S
C215 C214 1.391 . S
C215 C216 1.399 . S
C216 C215 1.399 . S
C216 C217 1.396 . S
C216 C219 1.453 . S
C216 C220 1.684 . S
C217 C207 1.723 . S
C217 C216 1.396 . S
C217 C218 1.394 . S
C218 C188 1.723 . S
C218 C214 1.397 . S
C218 C217 1.394 . S
C219 H191 0.982 . S
C219 H195 0.979 . S
C219 H196 0.977 . S
C219 C216 1.453 . S
C220 H192 0.979 . S
C220 H193 0.980 . S
C220 H194 0.983 . S
C220 C216 1.684 . S
H221 C239 0.948 . S
H222 C180 0.948 . S
H223 C198 0.979 . S
H224 C198 0.980 . S
H225 C198 0.983 . S
H226 C197 0.982 . S
H227 C197 0.979 . S
H228 C197 0.977 . S
H229 C199 0.948 . S
H230 C201 0.947 1_556 S
H231 C202 0.948 . S
H232 C208 0.982 . S
H233 C208 0.979 . S
H234 C208 0.977 . S
H235 C209 0.979 . S
H236 C209 0.980 . S
H237 C209 0.983 . S
H238 C182 0.947 . S
C239 C182 1.392 . S
C239 C183 1.419 . S
C239 H221 0.948 . S
C240 C241 1.391 . S
C240 C244 1.391 . S
C240 H282 0.948 . S
C241 C240 1.391 . S
C241 C242 1.391 . S
C242 C241 1.391 . S
C242 H298 0.947 . S
C242 C299 1.392 . S
C243 C244 1.391 . S
C243 C247 1.397 . S
C243 C299 1.419 . S
C244 C240 1.391 . S
C244 C243 1.391 . S
C244 C245 1.399 1_554 S
C245 C244 1.399 1_556 S
C245 C248 1.396 1_556 S
C245 C257 1.453 . S
C245 C258 1.684 . S
H246 C270 0.948 . S
C247 C243 1.397 . S
C247 C248 1.394 . S
C247 C266 1.723 . S
C248 C245 1.396 1_554 S
C248 C247 1.394 . S
C248 C278 1.723 1_554 S
H249 C272 0.947 . S
H250 C273 0.948 . S
H251 C279 0.982 . S
H252 C280 0.979 . S
H253 C280 0.980 1_554 S
H254 C280 0.983 . S
H255 C279 0.979 . S
H256 C279 0.977 1_554 S
C257 C245 1.453 . S
C257 H286 0.982 . S
C257 H287 0.979 . S
C257 H288 0.977 . S
C258 C245 1.684 . S
C258 H283 0.979 . S
C258 H284 0.980 . S
C258 H285 0.983 . S
C259 C260 1.391 . S
C259 C264 1.391 . S
C259 H289 0.948 . S
C260 C259 1.391 . S
C260 C261 1.391 . S
C261 C260 1.391 . S
C261 C262 1.392 . S
C261 H290 0.947 . S
C262 C261 1.392 . S
C262 C263 1.419 . S
C262 H291 0.948 . S
C263 C262 1.419 . S
C263 C264 1.391 . S
C263 C267 1.397 . S
C264 C259 1.391 . S
C264 C263 1.391 . S
C264 C265 1.399 . S
C265 C264 1.399 . S
C265 C266 1.396 . S
C265 C268 1.453 . S
C265 C269 1.684 . S
C266 C247 1.723 . S
C266 C265 1.396 . S
C266 C267 1.394 . S
C267 C263 1.397 . S
C267 C266 1.394 . S
C267 C277 1.723 . S
C268 C265 1.453 . S
C268 H292 0.982 . S
C268 H293 0.979 . S
C268 H294 0.977 . S
C269 C265 1.684 . S
C269 H295 0.979 . S
C269 H296 0.980 . S
C269 H297 0.983 . S
C270 H246 0.948 . S
C270 C271 1.391 . S
C270 C275 1.391 . S
C271 C270 1.391 . S
C271 C272 1.391 . S
C272 H249 0.947 . S
C272 C271 1.391 . S
C272 C273 1.392 . S
C273 H250 0.948 . S
C273 C272 1.392 . S
C273 C274 1.419 . S
C274 C273 1.419 . S
C274 C275 1.391 . S
C274 C278 1.397 . S
C275 C270 1.391 . S
C275 C274 1.391 . S
C275 C276 1.399 . S
C276 C275 1.399 . S
C276 C277 1.396 1_556 S
C276 C279 1.453 . S
C276 C280 1.684 . S
C277 C267 1.723 . S
C277 C276 1.396 1_554 S
C277 C278 1.394 1_554 S
C278 C248 1.723 1_556 S
C278 C274 1.397 . S
C278 C277 1.394 1_556 S
C279 H251 0.982 . S
C279 H255 0.979 . S
C279 H256 0.977 1_556 S
C279 C276 1.453 . S
C280 H252 0.979 . S
C280 H253 0.980 1_556 S
C280 H254 0.983 . S
C280 C276 1.684 . S
H281 C299 0.948 . S
H282 C240 0.948 . S
H283 C258 0.979 . S
H284 C258 0.980 . S
H285 C258 0.983 . S
H286 C257 0.982 . S
H287 C257 0.979 . S
H288 C257 0.977 . S
H289 C259 0.948 . S
H290 C261 0.947 . S
H291 C262 0.948 . S
H292 C268 0.982 . S
H293 C268 0.979 . S
H294 C268 0.977 . S
H295 C269 0.979 . S
H296 C269 0.980 . S
H297 C269 0.983 . S
H298 C242 0.947 . S
C299 C242 1.392 . S
C299 C243 1.419 . S
C299 H281 0.948 . S
C300 C301 1.391 . S
C300 C304 1.391 . S
C300 H342 0.948 . S
C301 C300 1.391 . S
C301 C302 1.391 . S
C302 C301 1.391 . S
C302 H358 0.947 . S
C302 C359 1.392 . S
C303 C304 1.391 . S
C303 C307 1.397 . S
C303 C359 1.419 . S
C304 C300 1.391 . S
C304 C303 1.391 . S
C304 C305 1.399 . S
C305 C304 1.399 . S
C305 C308 1.396 . S
C305 C317 1.453 . S
C305 C318 1.684 . S
H306 C330 0.948 . S
C307 C303 1.397 . S
C307 C308 1.394 . S
C307 C326 1.723 . S
C308 C305 1.396 . S
C308 C307 1.394 . S
C308 C338 1.723 . S
H309 C332 0.947 . S
H310 C333 0.948 . S
H311 C339 0.982 . S
H312 C340 0.979 . S
H313 C340 0.980 . S
H314 C340 0.983 . S
H315 C339 0.979 . S
H316 C339 0.977 . S
C317 C305 1.453 . S
C317 H346 0.982 . S
C317 H347 0.979 . S
C317 H348 0.977 . S
C318 C305 1.684 . S
C318 H343 0.979 . S
C318 H344 0.980 . S
C318 H345 0.983 . S
C319 C320 1.391 . S
C319 C324 1.391 . S
C319 H349 0.948 . S
C320 C319 1.391 . S
C320 C321 1.391 . S
C321 C320 1.391 . S
C321 C322 1.392 . S
C321 H350 0.947 . S
C322 C321 1.392 . S
C322 C323 1.419 . S
C322 H351 0.948 . S
C323 C322 1.419 . S
C323 C324 1.391 . S
C323 C327 1.397 . S
C324 C319 1.391 . S
C324 C323 1.391 . S
C324 C325 1.399 . S
C325 C324 1.399 . S
C325 C326 1.396 1_556 S
C325 C328 1.453 . S
C325 C329 1.684 . S
C326 C307 1.723 . S
C326 C325 1.396 1_554 S
C326 C327 1.394 1_554 S
C327 C323 1.397 . S
C327 C326 1.394 1_556 S
C327 C337 1.723 1_556 S
C328 C325 1.453 . S
C328 H352 0.982 . S
C328 H353 0.979 . S
C328 H354 0.977 1_556 S
C329 C325 1.684 . S
C329 H355 0.979 . S
C329 H356 0.980 1_556 S
C329 H357 0.983 . S
C330 H306 0.948 . S
C330 C331 1.391 . S
C330 C335 1.391 . S
C331 C330 1.391 . S
C331 C332 1.391 . S
C332 H309 0.947 . S
C332 C331 1.391 . S
C332 C333 1.392 . S
C333 H310 0.948 . S
C333 C332 1.392 . S
C333 C334 1.419 . S
C334 C333 1.419 . S
C334 C335 1.391 . S
C334 C338 1.397 . S
C335 C330 1.391 . S
C335 C334 1.391 . S
C335 C336 1.399 1_554 S
C336 C335 1.399 1_556 S
C336 C337 1.396 1_556 S
C336 C339 1.453 . S
C336 C340 1.684 . S
C337 C327 1.723 1_554 S
C337 C336 1.396 1_554 S
C337 C338 1.394 . S
C338 C308 1.723 . S
C338 C334 1.397 . S
C338 C337 1.394 . S
C339 H311 0.982 . S
C339 H315 0.979 . S
C339 H316 0.977 . S
C339 C336 1.453 . S
C340 H312 0.979 . S
C340 H313 0.980 . S
C340 H314 0.983 . S
C340 C336 1.684 . S
H341 C359 0.948 . S
H342 C300 0.948 . S
H343 C318 0.979 . S
H344 C318 0.980 . S
H345 C318 0.983 . S
H346 C317 0.982 . S
H347 C317 0.979 . S
H348 C317 0.977 . S
H349 C319 0.948 . S
H350 C321 0.947 . S
H351 C322 0.948 . S
H352 C328 0.982 . S
H353 C328 0.979 . S
H354 C328 0.977 1_554 S
H355 C329 0.979 . S
H356 C329 0.980 1_554 S
H357 C329 0.983 . S
H358 C302 0.947 . S
C359 C302 1.392 . S
C359 C303 1.419 . S
C359 H341 0.948 . S
C360 C361 1.391 . S
C360 C364 1.391 . S
C360 H402 0.948 . S
C361 C360 1.391 . S
C361 C362 1.391 . S
C362 C361 1.391 . S
C362 H418 0.947 . S
C362 C419 1.392 . S
C363 C364 1.391 . S
C363 C367 1.397 . S
C363 C419 1.419 . S
C364 C360 1.391 . S
C364 C363 1.391 . S
C364 C365 1.399 . S
C365 C364 1.399 . S
C365 C368 1.396 . S
C365 C377 1.453 . S
C365 C378 1.684 . S
H366 C390 0.948 . S
C367 C363 1.397 . S
C367 C368 1.394 . S
C367 C386 1.723 1_556 S
C368 C365 1.396 . S
C368 C367 1.394 . S
C368 C398 1.723 1_556 S
H369 C392 0.947 . S
H370 C393 0.948 1_556 S
H371 C399 0.982 . S
H372 C400 0.979 . S
H373 C400 0.980 . S
H374 C400 0.983 . S
H375 C399 0.979 . S
H376 C399 0.977 . S
C377 C365 1.453 . S
C377 H406 0.982 . S
C377 H407 0.979 . S
C377 H408 0.977 . S
C378 C365 1.684 . S
C378 H403 0.979 . S
C378 H404 0.980 . S
C378 H405 0.983 . S
C379 C380 1.391 . S
C379 C384 1.391 . S
C379 H409 0.948 . S
C380 C379 1.391 . S
C380 C381 1.391 . S
C381 C380 1.391 . S
C381 C382 1.392 . S
C381 H410 0.947 . S
C382 C381 1.392 . S
C382 C383 1.419 . S
C382 H411 0.948 . S
C383 C382 1.419 . S
C383 C384 1.391 . S
C383 C387 1.397 . S
C384 C379 1.391 . S
C384 C383 1.391 . S
C384 C385 1.399 . S
C385 C384 1.399 . S
C385 C386 1.396 . S
C385 C388 1.453 . S
C385 C389 1.684 . S
C386 C367 1.723 1_554 S
C386 C385 1.396 . S
C386 C387 1.394 . S
C387 C383 1.397 . S
C387 C386 1.394 . S
C387 C397 1.723 . S
C388 C385 1.453 . S
C388 H412 0.982 . S
C388 H413 0.979 . S
C388 H414 0.977 1_554 S
C389 C385 1.684 . S
C389 H415 0.979 . S
C389 H416 0.980 1_554 S
C389 H417 0.983 . S
C390 H366 0.948 . S
C390 C391 1.391 . S
C390 C395 1.391 . S
C391 C390 1.391 . S
C391 C392 1.391 . S
C392 H369 0.947 . S
C392 C391 1.391 . S
C392 C393 1.392 . S
C393 H370 0.948 1_554 S
C393 C392 1.392 . S
C393 C394 1.419 . S
C394 C393 1.419 . S
C394 C395 1.391 . S
C394 C398 1.397 . S
C395 C390 1.391 . S
C395 C394 1.391 . S
C395 C396 1.399 . S
C396 C395 1.399 . S
C396 C397 1.396 . S
C396 C399 1.453 . S
C396 C400 1.684 . S
C397 C387 1.723 . S
C397 C396 1.396 . S
C397 C398 1.394 . S
C398 C368 1.723 1_554 S
C398 C394 1.397 . S
C398 C397 1.394 . S
C399 H371 0.982 . S
C399 H375 0.979 . S
C399 H376 0.977 . S
C399 C396 1.453 . S
C400 H372 0.979 . S
C400 H373 0.980 . S
C400 H374 0.983 . S
C400 C396 1.684 . S
H401 C419 0.948 . S
H402 C360 0.948 . S
H403 C378 0.979 . S
H404 C378 0.980 . S
H405 C378 0.983 . S
H406 C377 0.982 . S
H407 C377 0.979 . S
H408 C377 0.977 . S
H409 C379 0.948 . S
H410 C381 0.947 . S
H411 C382 0.948 . S
H412 C388 0.982 . S
H413 C388 0.979 . S
H414 C388 0.977 1_556 S
H415 C389 0.979 . S
H416 C389 0.980 1_556 S
H417 C389 0.983 . S
H418 C362 0.947 . S
C419 C362 1.392 . S
C419 C363 1.419 . S
C419 H401 0.948 . S
C420 C421 1.391 . S
C420 C424 1.391 . S
C420 H462 0.948 . S
C421 C420 1.391 . S
C421 C422 1.391 . S
C422 C421 1.391 . S
C422 H478 0.947 . S
C422 C479 1.392 . S
C423 C424 1.391 . S
C423 C427 1.397 . S
C423 C479 1.419 . S
C424 C420 1.391 . S
C424 C423 1.391 . S
C424 C425 1.399 . S
C425 C424 1.399 . S
C425 C428 1.396 . S
C425 C437 1.453 . S
C425 C438 1.684 . S
H426 C450 0.948 . S
C427 C423 1.397 . S
C427 C428 1.394 . S
C427 C446 1.723 1_556 S
C428 C425 1.396 . S
C428 C427 1.394 . S
C428 C458 1.723 1_556 S
H429 C452 0.947 1_556 S
H430 C453 0.948 1_556 S
H431 C459 0.982 . S
H432 C460 0.979 . S
H433 C460 0.980 . S
H434 C460 0.983 . S
H435 C459 0.979 . S
H436 C459 0.977 . S
C437 C425 1.453 . S
C437 H466 0.982 . S
C437 H467 0.979 . S
C437 H468 0.977 . S
C438 C425 1.684 . S
C438 H463 0.979 . S
C438 H464 0.980 . S
C438 H465 0.983 . S
C439 C440 1.391 . S
C439 C444 1.391 . S
C439 H469 0.948 . S
C440 C439 1.391 . S
C440 C441 1.391 . S
C441 C440 1.391 . S
C441 C442 1.392 . S
C441 H470 0.947 . S
C442 C441 1.392 . S
C442 C443 1.419 . S
C442 H471 0.948 . S
C443 C442 1.419 . S
C443 C444 1.391 . S
C443 C447 1.397 . S
C444 C439 1.391 . S
C444 C443 1.391 . S
C444 C445 1.399 . S
C445 C444 1.399 . S
C445 C446 1.396 . S
C445 C448 1.453 . S
C445 C449 1.684 . S
C446 C427 1.723 1_554 S
C446 C445 1.396 . S
C446 C447 1.394 . S
C447 C443 1.397 . S
C447 C446 1.394 . S
C447 C457 1.723 . S
C448 C445 1.453 . S
C448 H472 0.982 . S
C448 H473 0.979 . S
C448 H474 0.977 1_554 S
C449 C445 1.684 . S
C449 H475 0.979 . S
C449 H476 0.980 1_554 S
C449 H477 0.983 . S
C450 H426 0.948 . S
C450 C451 1.391 . S
C450 C455 1.391 . S
C451 C450 1.391 . S
C451 C452 1.391 . S
C452 H429 0.947 1_554 S
C452 C451 1.391 . S
C452 C453 1.392 . S
C453 H430 0.948 1_554 S
C453 C452 1.392 . S
C453 C454 1.419 . S
C454 C453 1.419 . S
C454 C455 1.391 . S
C454 C458 1.397 . S
C455 C450 1.391 . S
C455 C454 1.391 . S
C455 C456 1.399 . S
C456 C455 1.399 . S
C456 C457 1.396 . S
C456 C459 1.453 . S
C456 C460 1.684 . S
C457 C447 1.723 . S
C457 C456 1.396 . S
C457 C458 1.394 . S
C458 C428 1.723 1_554 S
C458 C454 1.397 . S
C458 C457 1.394 . S
C459 H431 0.982 . S
C459 H435 0.979 . S
C459 H436 0.977 . S
C459 C456 1.453 . S
C460 H432 0.979 . S
C460 H433 0.980 . S
C460 H434 0.983 . S
C460 C456 1.684 . S
H461 C479 0.948 . S
H462 C420 0.948 . S
H463 C438 0.979 . S
H464 C438 0.980 . S
H465 C438 0.983 . S
H466 C437 0.982 . S
H467 C437 0.979 . S
H468 C437 0.977 . S
H469 C439 0.948 . S
H470 C441 0.947 . S
H471 C442 0.948 . S
H472 C448 0.982 . S
H473 C448 0.979 . S
H474 C448 0.977 1_556 S
H475 C449 0.979 . S
H476 C449 0.980 1_556 S
H477 C449 0.983 . S
H478 C422 0.947 . S
C479 C422 1.392 . S
C479 C423 1.419 . S
C479 H461 0.948 . S
Eu480 N509 2.600 . S
Eu480 N515 2.562 . S
Eu480 O524 2.462 . S
Eu480 O525 2.373 1_545 S
Eu480 O527 2.432 . S
Eu480 O528 2.291 1_655 S
Eu480 O532 2.335 1_655 S
Eu480 O535 2.372 . S
Eu480 C544 2.787 . S
C481 N482 1.365 . S
C481 C484 1.405 . S
C481 C488 1.448 . S
N482 C481 1.365 . S
N482 C485 1.314 1_545 S
N482 Eu491 2.600 1_545 S
C483 C485 1.382 1_545 S
C483 C486 1.367 . S
C483 H503 0.931 . S
C484 C481 1.405 . S
C484 C486 1.403 . S
C484 C490 1.439 . S
C485 N482 1.314 1_565 S
C485 C483 1.382 1_565 S
C485 H496 0.953 . S
C486 C483 1.367 . S
C486 C484 1.403 . S
C486 H507 0.929 . S
C487 C488 1.430 . S
C487 C489 1.387 . S
C487 C493 1.404 . S
C488 C481 1.448 . S
C488 C487 1.430 . S
C488 N492 1.351 . S
C489 C487 1.387 . S
C489 C490 1.374 . S
C489 H504 0.931 . S
C490 C484 1.439 . S
C490 C489 1.374 . S
C490 H505 0.931 . S
Eu491 N482 2.600 1_565 S
Eu491 N492 2.562 1_565 S
Eu491 O526 2.335 . S
Eu491 O529 2.372 . S
Eu491 O530 2.462 . S
Eu491 O531 2.373 1_565 S
Eu491 O533 2.432 . S
Eu491 O534 2.291 1_465 S
Eu491 C555 2.787 . S
N492 C488 1.351 . S
N492 Eu491 2.562 1_545 S
N492 C494 1.325 . S
C493 C487 1.404 . S
C493 C495 1.366 . S
C493 H501 0.930 . S
C494 N492 1.325 . S
C494 C495 1.416 . S
C494 H500 0.911 1_455 S
C495 C493 1.366 . S
C495 C494 1.416 . S
C495 H497 0.930 . S
H496 C485 0.953 . S
H497 C495 0.930 . S
H498 C513 0.930 . S
H499 C520 0.930 1_455 S
H500 C494 0.911 1_655 S
H501 C493 0.930 . S
H502 C516 0.929 1_455 S
H503 C483 0.931 . S
H504 C489 0.931 . S
H505 C490 0.931 . S
H506 C511 0.931 . S
H507 C486 0.929 . S
H508 C519 0.930 . S
N509 Eu480 2.600 . S
N509 C510 1.365 . S
N509 C513 1.319 . S
C510 N509 1.365 . S
C510 C512 1.405 1_545 S
C510 C518 1.448 . S
C511 H506 0.931 . S
C511 C513 1.397 . S
C511 C514 1.365 . S
C512 C510 1.405 1_565 S
C512 C514 1.404 1_565 S
C512 C545 1.439 . S
C513 H498 0.930 . S
C513 N509 1.319 . S
C513 C511 1.397 . S
C514 C511 1.365 . S
C514 C512 1.404 1_545 S
C514 H521 0.931 1_545 S
N515 Eu480 2.562 . S
N515 C516 1.325 . S
N515 C518 1.351 . S
C516 H502 0.929 1_655 S
C516 N515 1.325 . S
C516 C520 1.416 1_545 S
C517 C518 1.430 1_565 S
C517 C519 1.404 . S
C517 C546 1.387 . S
C518 C510 1.448 . S
C518 N515 1.351 . S
C518 C517 1.430 1_545 S
C519 H508 0.930 . S
C519 C517 1.404 . S
C519 C520 1.366 . S
C520 H499 0.930 1_655 S
C520 C516 1.416 1_565 S
C520 C519 1.366 . S
H521 C514 0.931 1_565 S
H522 C545 0.931 . S
H523 C546 0.931 . S
O524 Eu480 2.462 . S
O524 C544 1.252 . S
O525 Eu480 2.373 1_565 S
O525 C536 1.249 . S
O526 Eu491 2.335 . S
O526 C536 1.264 1_455 S
O527 Eu480 2.432 . S
O527 C544 1.268 . S
O528 Eu480 2.291 1_455 S
O528 C543 1.255 . S
O529 Eu491 2.372 . S
O529 C543 1.257 1_565 S
O530 Eu491 2.462 . S
O530 C555 1.252 . S
O531 Eu491 2.373 1_545 S
O531 C547 1.249 . S
O532 Eu480 2.335 1_455 S
O532 C547 1.264 . S
O533 Eu491 2.432 . S
O533 C555 1.268 . S
O534 Eu491 2.291 1_645 S
O534 C554 1.255 . S
O535 Eu480 2.372 . S
O535 C554 1.257 . S
C536 O525 1.249 . S
C536 O526 1.264 1_655 S
C537 C540 1.382 . S
C537 C542 1.390 . S
C537 C544 1.506 . S
C538 C539 1.398 . S
C538 C542 1.392 . S
C539 C538 1.398 . S
C539 C541 1.372 . S
C539 H556 0.931 . S
C540 C537 1.382 . S
C540 C541 1.390 . S
C540 H557 0.931 . S
C541 C539 1.372 . S
C541 C540 1.390 . S
C541 H558 0.929 . S
C542 C537 1.390 . S
C542 C538 1.392 . S
C542 H559 0.930 1_655 S
C543 O528 1.255 . S
C543 O529 1.257 1_545 S
C544 Eu480 2.787 . S
C544 O524 1.252 . S
C544 O527 1.268 . S
C544 C537 1.506 . S
C545 C512 1.439 . S
C545 H522 0.931 . S
C545 C546 1.374 . S
C546 C517 1.387 . S
C546 H523 0.931 . S
C546 C545 1.374 . S
C547 O531 1.249 . S
C547 O532 1.264 . S
C548 C551 1.382 . S
C548 C552 1.390 . S
C548 C555 1.506 . S
C549 C550 1.398 . S
C549 C552 1.392 . S
C550 C549 1.398 . S
C550 C553 1.372 . S
C550 H560 0.931 . S
C551 C548 1.382 . S
C551 C553 1.390 . S
C551 H561 0.931 . S
C552 C548 1.390 . S
C552 C549 1.392 . S
C552 H562 0.930 . S
C553 C550 1.372 . S
C553 C551 1.390 . S
C553 H563 0.929 . S
C554 O534 1.255 . S
C554 O535 1.257 . S
C555 Eu491 2.787 . S
C555 O530 1.252 . S
C555 O533 1.268 . S
C555 C548 1.506 . S
H556 C539 0.931 . S
H557 C540 0.931 . S
H558 C541 0.929 . S
H559 C542 0.930 1_455 S
H560 C550 0.931 . S
H561 C551 0.931 . S
H562 C552 0.930 . S
H563 C553 0.929 . S
Eu564 N593 2.600 . S
Eu564 N599 2.562 . S
Eu564 O608 2.462 . S
Eu564 O609 2.373 . S
Eu564 O611 2.432 . S
Eu564 O612 2.291 . S
Eu564 O616 2.335 1_545 S
Eu564 O619 2.372 . S
Eu564 C628 2.787 . S
C565 N566 1.365 . S
C565 C568 1.405 . S
C565 C572 1.448 . S
N566 C565 1.365 . S
N566 C569 1.319 . S
N566 Eu575 2.600 . S
C567 C569 1.397 . S
C567 C570 1.367 . S
C567 H587 0.931 . S
C568 C565 1.405 . S
C568 C570 1.403 . S
C568 C574 1.439 . S
C569 N566 1.319 . S
C569 C567 1.397 . S
C569 H580 0.930 . S
C570 C567 1.367 . S
C570 C568 1.403 . S
C570 H591 0.929 . S
C571 C572 1.430 . S
C571 C573 1.387 . S
C571 C577 1.404 . S
C572 C565 1.448 . S
C572 C571 1.430 . S
C572 N576 1.351 . S
C573 C571 1.387 . S
C573 C574 1.374 . S
C573 H588 0.931 . S
C574 C568 1.439 . S
C574 C573 1.374 . S
C574 H589 0.931 . S
Eu575 N566 2.600 . S
Eu575 N576 2.562 . S
Eu575 O610 2.335 1_565 S
Eu575 O613 2.372 . S
Eu575 O614 2.462 . S
Eu575 O615 2.373 . S
Eu575 O617 2.432 . S
Eu575 O618 2.291 1_565 S
Eu575 C639 2.787 . S
N576 C572 1.351 . S
N576 Eu575 2.562 . S
N576 C578 1.325 . S
C577 C571 1.404 . S
C577 C579 1.366 . S
C577 H585 0.930 . S
C578 N576 1.325 . S
C578 C579 1.416 . S
C578 H584 0.929 . S
C579 C577 1.366 . S
C579 C578 1.416 . S
C579 H581 0.930 . S
H580 C569 0.930 . S
H581 C579 0.930 . S
H582 C597 0.930 . S
H583 C604 0.930 . S
H584 C578 0.929 . S
H585 C577 0.930 . S
H586 C600 0.929 . S
H587 C567 0.931 . S
H588 C573 0.931 . S
H589 C574 0.931 . S
H590 C595 0.931 . S
H591 C570 0.929 . S
H592 C603 0.930 . S
N593 Eu564 2.600 . S
N593 C594 1.365 . S
N593 C597 1.319 . S
C594 N593 1.365 . S
C594 C596 1.405 . S
C594 C602 1.448 . S
C595 H590 0.931 . S
C595 C597 1.397 . S
C595 C598 1.367 . S
C596 C594 1.405 . S
C596 C598 1.403 . S
C596 C629 1.439 . S
C597 H582 0.930 . S
C597 N593 1.319 . S
C597 C595 1.397 . S
C598 C595 1.367 . S
C598 C596 1.403 . S
C598 H605 0.929 . S
N599 Eu564 2.562 . S
N599 C600 1.325 . S
N599 C602 1.351 . S
C600 H586 0.929 . S
C600 N599 1.325 . S
C600 C604 1.416 . S
C601 C602 1.430 . S
C601 C603 1.404 . S
C601 C630 1.387 . S
C602 C594 1.448 . S
C602 N599 1.351 . S
C602 C601 1.430 . S
C603 H592 0.930 . S
C603 C601 1.404 . S
C603 C604 1.366 . S
C604 H583 0.930 . S
C604 C600 1.416 . S
C604 C603 1.366 . S
H605 C598 0.929 . S
H606 C629 0.931 . S
H607 C630 0.931 . S
O608 Eu564 2.462 . S
O608 C628 1.252 . S
O609 Eu564 2.373 . S
O609 C620 1.249 . S
O610 Eu575 2.335 1_545 S
O610 C620 1.264 . S
O611 Eu564 2.432 . S
O611 C628 1.268 . S
O612 Eu564 2.291 . S
O612 C627 1.233 1_545 S
O613 Eu575 2.372 . S
O613 C627 1.272 . S
O614 Eu575 2.462 . S
O614 C639 1.252 . S
O615 Eu575 2.373 . S
O615 C631 1.249 . S
O616 Eu564 2.335 1_565 S
O616 C631 1.264 . S
O617 Eu575 2.432 . S
O617 C639 1.268 . S
O618 Eu575 2.291 1_545 S
O618 C638 1.255 . S
O619 Eu564 2.372 . S
O619 C638 1.257 . S
C620 O609 1.249 . S
C620 O610 1.264 . S
C621 C624 1.382 . S
C621 C626 1.390 . S
C621 C628 1.506 . S
C622 C623 1.398 . S
C622 C626 1.392 . S
C623 C622 1.398 . S
C623 C625 1.372 . S
C623 H640 0.931 . S
C624 C621 1.382 . S
C624 C625 1.390 . S
C624 H641 0.931 . S
C625 C623 1.372 . S
C625 C624 1.390 . S
C625 H642 0.929 . S
C626 C621 1.390 . S
C626 C622 1.392 . S
C626 H643 0.930 . S
C627 O612 1.233 1_565 S
C627 O613 1.272 . S
C628 Eu564 2.787 . S
C628 O608 1.252 . S
C628 O611 1.268 . S
C628 C621 1.506 . S
C629 C596 1.439 . S
C629 H606 0.931 . S
C629 C630 1.374 . S
C630 C601 1.387 . S
C630 H607 0.931 . S
C630 C629 1.374 . S
C631 O615 1.249 . S
C631 O616 1.264 . S
C632 C635 1.382 . S
C632 C636 1.380 1_565 S
C632 C639 1.506 . S
C633 C634 1.386 1_545 S
C633 C636 1.392 . S
C634 C633 1.386 1_565 S
C634 C637 1.372 . S
C634 H644 0.931 . S
C635 C632 1.382 . S
C635 C637 1.390 . S
C635 H645 0.931 . S
C636 C632 1.380 1_545 S
C636 C633 1.392 . S
C636 H646 0.940 . S
C637 C634 1.372 . S
C637 C635 1.390 . S
C637 H647 0.929 . S
C638 O618 1.255 . S
C638 O619 1.257 . S
C639 Eu575 2.787 . S
C639 O614 1.252 . S
C639 O617 1.268 . S
C639 C632 1.506 . S
H640 C623 0.931 . S
H641 C624 0.931 . S
H642 C625 0.929 . S
H643 C626 0.930 . S
H644 C634 0.931 . S
H645 C635 0.931 . S
H646 C636 0.940 . S
H647 C637 0.929 . S
Eu648 N677 2.600 . S
Eu648 N683 2.562 . S
Eu648 O692 2.462 . S
Eu648 O693 2.373 . S
Eu648 O695 2.432 . S
Eu648 O696 2.291 . S
Eu648 O700 2.335 . S
Eu648 O703 2.372 . S
Eu648 C712 2.787 . S
C649 N650 1.365 . S
C649 C652 1.405 . S
C649 C656 1.448 . S
N650 C649 1.365 . S
N650 C653 1.319 . S
N650 Eu659 2.600 . S
C651 C653 1.397 . S
C651 C654 1.367 . S
C651 H671 0.931 . S
C652 C649 1.405 . S
C652 C654 1.403 . S
C652 C658 1.439 . S
C653 N650 1.319 . S
C653 C651 1.397 . S
C653 H664 0.930 . S
C654 C651 1.367 . S
C654 C652 1.403 . S
C654 H675 0.929 . S
C655 C656 1.430 . S
C655 C657 1.387 . S
C655 C661 1.404 . S
C656 C649 1.448 . S
C656 C655 1.430 . S
C656 N660 1.351 . S
C657 C655 1.387 . S
C657 C658 1.374 . S
C657 H672 0.931 . S
C658 C652 1.439 . S
C658 C657 1.374 . S
C658 H673 0.931 . S
Eu659 N650 2.600 . S
Eu659 N660 2.562 . S
Eu659 O694 2.335 . S
Eu659 O697 2.372 . S
Eu659 O698 2.462 . S
Eu659 O699 2.373 . S
Eu659 O701 2.432 . S
Eu659 O702 2.291 . S
Eu659 C723 2.787 . S
N660 C656 1.351 . S
N660 Eu659 2.562 . S
N660 C662 1.325 . S
C661 C655 1.404 . S
C661 C663 1.366 . S
C661 H669 0.930 . S
C662 N660 1.325 . S
C662 C663 1.416 . S
C662 H668 0.929 . S
C663 C661 1.366 . S
C663 C662 1.416 . S
C663 H665 0.930 . S
H664 C653 0.930 . S
H665 C663 0.930 . S
H666 C681 0.930 . S
H667 C688 0.930 . S
H668 C662 0.929 . S
H669 C661 0.930 . S
H670 C684 0.929 . S
H671 C651 0.931 . S
H672 C657 0.931 . S
H673 C658 0.931 . S
H674 C679 0.931 . S
H675 C654 0.929 . S
H676 C687 0.930 . S
N677 Eu648 2.600 . S
N677 C678 1.365 . S
N677 C681 1.319 . S
C678 N677 1.365 . S
C678 C680 1.405 . S
C678 C686 1.448 . S
C679 H674 0.931 . S
C679 C681 1.397 . S
C679 C682 1.367 . S
C680 C678 1.405 . S
C680 C682 1.403 . S
C680 C713 1.439 . S
C681 H666 0.930 . S
C681 N677 1.319 . S
C681 C679 1.397 . S
C682 C679 1.367 . S
C682 C680 1.403 . S
C682 H689 0.929 . S
N683 Eu648 2.562 . S
N683 C684 1.325 . S
N683 C686 1.351 . S
C684 H670 0.929 . S
C684 N683 1.325 . S
C684 C688 1.416 . S
C685 C686 1.430 . S
C685 C687 1.404 . S
C685 C714 1.387 . S
C686 C678 1.448 . S
C686 N683 1.351 . S
C686 C685 1.430 . S
C687 H676 0.930 . S
C687 C685 1.404 . S
C687 C688 1.366 . S
C688 H667 0.930 . S
C688 C684 1.416 . S
C688 C687 1.366 . S
H689 C682 0.929 . S
H690 C713 0.931 . S
H691 C714 0.931 . S
O692 Eu648 2.462 . S
O692 C712 1.252 . S
O693 Eu648 2.373 . S
O693 C704 1.249 . S
O694 Eu659 2.335 . S
O694 C704 1.264 . S
O695 Eu648 2.432 . S
O695 C712 1.268 . S
O696 Eu648 2.291 . S
O696 C711 1.255 . S
O697 Eu659 2.372 . S
O697 C711 1.257 . S
O698 Eu659 2.462 . S
O698 C723 1.252 . S
O699 Eu659 2.373 . S
O699 C715 1.249 . S
O700 Eu648 2.335 . S
O700 C715 1.264 . S
O701 Eu659 2.432 . S
O701 C723 1.268 . S
O702 Eu659 2.291 . S
O702 C722 1.255 . S
O703 Eu648 2.372 . S
O703 C722 1.257 . S
C704 O693 1.249 . S
C704 O694 1.264 . S
C705 C708 1.382 . S
C705 C710 1.390 . S
C705 C712 1.506 . S
C706 C707 1.398 . S
C706 C710 1.392 . S
C707 C706 1.398 . S
C707 C709 1.372 . S
C707 H724 0.931 . S
C708 C705 1.382 . S
C708 C709 1.390 . S
C708 H725 0.931 . S
C709 C707 1.372 . S
C709 C708 1.390 . S
C709 H726 0.929 . S
C710 C705 1.390 . S
C710 C706 1.392 . S
C710 H727 0.930 . S
C711 O696 1.255 . S
C711 O697 1.257 . S
C712 Eu648 2.787 . S
C712 O692 1.252 . S
C712 O695 1.268 . S
C712 C705 1.506 . S
C713 C680 1.439 . S
C713 H690 0.931 . S
C713 C714 1.374 . S
C714 C685 1.387 . S
C714 H691 0.931 . S
C714 C713 1.374 . S
C715 O699 1.249 . S
C715 O700 1.264 . S
C716 C719 1.382 . S
C716 C720 1.390 . S
C716 C723 1.506 . S
C717 C718 1.398 . S
C717 C720 1.392 . S
C718 C717 1.398 . S
C718 C721 1.372 . S
C718 H728 0.931 . S
C719 C716 1.382 . S
C719 C721 1.390 . S
C719 H729 0.931 . S
C720 C716 1.390 . S
C720 C717 1.392 . S
C720 H730 0.930 . S
C721 C718 1.372 . S
C721 C719 1.390 . S
C721 H731 0.929 . S
C722 O702 1.255 . S
C722 O703 1.257 . S
C723 Eu659 2.787 . S
C723 O698 1.252 . S
C723 O701 1.268 . S
C723 C716 1.506 . S
H724 C707 0.931 . S
H725 C708 0.931 . S
H726 C709 0.929 . S
H727 C710 0.930 . S
H728 C718 0.931 . S
H729 C719 0.931 . S
H730 C720 0.930 . S
H731 C721 0.929 . S
Eu732 N761 2.600 . S
Eu732 N767 2.562 . S
Eu732 O776 2.462 . S
Eu732 O777 2.373 1_455 S
Eu732 O779 2.432 . S
Eu732 O780 2.291 . S
Eu732 O784 2.335 . S
Eu732 O787 2.372 . S
Eu732 C796 2.787 . S
C733 N734 1.365 1_455 S
C733 C736 1.405 . S
C733 C740 1.448 . S
N734 C733 1.365 1_655 S
N734 C737 1.319 . S
N734 Eu743 2.600 . S
C735 C737 1.397 1_455 S
C735 C738 1.367 . S
C735 H755 0.931 . S
C736 C733 1.405 . S
C736 C738 1.403 . S
C736 C742 1.439 . S
C737 N734 1.319 . S
C737 C735 1.397 1_655 S
C737 H748 0.930 . S
C738 C735 1.367 . S
C738 C736 1.403 . S
C738 H759 0.929 . S
C739 C740 1.430 . S
C739 C741 1.387 . S
C739 C745 1.404 . S
C740 C733 1.448 . S
C740 C739 1.430 . S
C740 N744 1.351 . S
C741 C739 1.387 . S
C741 C742 1.374 . S
C741 H756 0.931 . S
C742 C736 1.439 . S
C742 C741 1.374 . S
C742 H757 0.931 . S
Eu743 N734 2.600 . S
Eu743 N744 2.562 1_655 S
Eu743 O778 2.335 . S
Eu743 O781 2.372 . S
Eu743 O782 2.462 . S
Eu743 O783 2.373 1_655 S
Eu743 O785 2.432 . S
Eu743 O786 2.291 . S
Eu743 C807 2.787 . S
N744 C740 1.351 . S
N744 Eu743 2.562 1_455 S
N744 C746 1.325 . S
C745 C739 1.404 . S
C745 C747 1.366 . S
C745 H753 0.930 . S
C746 N744 1.325 . S
C746 C747 1.416 . S
C746 H752 0.929 1_455 S
C747 C745 1.366 . S
C747 C746 1.416 . S
C747 H749 0.930 . S
H748 C737 0.930 . S
H749 C747 0.930 . S
H750 C765 0.930 . S
H751 C772 0.930 . S
H752 C746 0.929 1_655 S
H753 C745 0.930 . S
H754 C768 0.929 . S
H755 C735 0.931 . S
H756 C741 0.931 . S
H757 C742 0.931 . S
H758 C763 0.931 . S
H759 C738 0.929 . S
H760 C771 0.930 . S
N761 Eu732 2.600 . S
N761 C762 1.365 . S
N761 C765 1.319 . S
C762 N761 1.365 . S
C762 C764 1.405 1_455 S
C762 C770 1.449 . S
C763 H758 0.931 . S
C763 C765 1.397 . S
C763 C766 1.367 1_455 S
C764 C762 1.405 1_655 S
C764 C766 1.403 . S
C764 C797 1.439 . S
C765 H750 0.930 . S
C765 N761 1.319 . S
C765 C763 1.397 . S
C766 C763 1.367 1_655 S
C766 C764 1.403 . S
C766 H773 0.929 . S
N767 Eu732 2.562 . S
N767 C768 1.325 . S
N767 C770 1.355 . S
C768 H754 0.929 . S
C768 N767 1.325 . S
C768 C772 1.416 1_455 S
C769 C770 1.425 1_655 S
C769 C771 1.404 . S
C769 C798 1.387 . S
C770 C762 1.449 . S
C770 N767 1.355 . S
C770 C769 1.425 1_455 S
C771 H760 0.930 . S
C771 C769 1.404 . S
C771 C772 1.366 . S
C772 H751 0.930 . S
C772 C768 1.416 1_655 S
C772 C771 1.366 . S
H773 C766 0.929 . S
H774 C797 0.931 . S
H775 C798 0.931 . S
O776 Eu732 2.462 . S
O776 C796 1.252 . S
O777 Eu732 2.373 1_655 S
O777 C788 1.249 . S
O778 Eu743 2.335 . S
O778 C788 1.264 . S
O779 Eu732 2.432 . S
O779 C796 1.268 . S
O780 Eu732 2.291 . S
O780 C795 1.255 . S
O781 Eu743 2.372 . S
O781 C795 1.257 1_655 S
O782 Eu743 2.462 . S
O782 C807 1.252 . S
O783 Eu743 2.373 1_455 S
O783 C799 1.249 . S
O784 Eu732 2.335 . S
O784 C799 1.264 . S
O785 Eu743 2.432 . S
O785 C807 1.268 . S
O786 Eu743 2.291 . S
O786 C806 1.255 1_655 S
O787 Eu732 2.372 . S
O787 C806 1.257 . S
C788 O777 1.249 . S
C788 O778 1.264 . S
C789 C792 1.382 . S
C789 C794 1.390 . S
C789 C796 1.506 . S
C790 C791 1.398 . S
C790 C794 1.392 . S
C791 C790 1.398 . S
C791 C793 1.372 . S
C791 H808 0.931 . S
C792 C789 1.382 . S
C792 C793 1.390 . S
C792 H809 0.931 . S
C793 C791 1.372 . S
C793 C792 1.390 . S
C793 H810 0.929 . S
C794 C789 1.390 . S
C794 C790 1.392 . S
C794 H811 0.930 . S
C795 O780 1.255 . S
C795 O781 1.257 1_455 S
C796 Eu732 2.787 . S
C796 O776 1.252 . S
C796 O779 1.268 . S
C796 C789 1.506 . S
C797 C764 1.439 . S
C797 H774 0.931 . S
C797 C798 1.374 . S
C798 C769 1.387 . S
C798 H775 0.931 . S
C798 C797 1.374 . S
C799 O783 1.249 . S
C799 O784 1.264 . S
C800 C803 1.382 . S
C800 C804 1.390 . S
C800 C807 1.506 . S
C801 C802 1.398 . S
C801 C804 1.392 . S
C802 C801 1.398 . S
C802 C805 1.372 . S
C802 H812 0.931 . S
C803 C800 1.382 . S
C803 C805 1.390 . S
C803 H813 0.931 . S
C804 C800 1.390 . S
C804 C801 1.392 . S
C804 H814 0.930 . S
C805 C802 1.372 . S
C805 C803 1.390 . S
C805 H815 0.929 . S
C806 O786 1.255 1_455 S
C806 O787 1.257 . S
C807 Eu743 2.787 . S
C807 O782 1.252 . S
C807 O785 1.268 . S
C807 C800 1.506 . S
H808 C791 0.931 . S
H809 C792 0.931 . S
H810 C793 0.929 . S
H811 C794 0.930 . S
H812 C802 0.931 . S
H813 C803 0.931 . S
H814 C804 0.930 . S
H815 C805 0.929 . S
H816 C822 0.930 . S
H817 C826 0.930 . S
H818 C831 0.929 . S
H819 C829 0.914 1_565 S
H820 C824 0.929 . S
H821 C830 0.929 . S
C822 H816 0.930 . S
C822 C823 1.367 . S
C822 C830 1.378 . S
C823 C822 1.367 . S
C823 C831 1.433 . S
C824 H820 0.929 . S
C824 C826 1.378 . S
C824 C828 1.350 . S
C825 C828 1.463 . S
C825 C830 1.350 . S
C825 N833 1.427 . S
C826 H817 0.930 . S
C826 C824 1.378 . S
C826 C827 1.367 . S
C827 C826 1.367 . S
C827 C829 1.433 . S
C828 C824 1.350 . S
C828 C825 1.463 . S
C828 N832 1.427 . S
C829 H819 0.914 1_545 S
C829 C827 1.433 . S
C829 N832 1.384 . S
C830 H821 0.929 . S
C830 C822 1.378 . S
C830 C825 1.350 . S
C831 H818 0.929 . S
C831 C823 1.433 . S
C831 N833 1.384 . S
N832 C828 1.427 . S
N832 C829 1.384 . S
N833 C825 1.427 . S
N833 C831 1.384 . S
H834 C840 0.930 . S
H835 C844 0.930 . S
H836 C849 0.929 . S
H837 C847 0.929 . S
H838 C842 0.929 . S
H839 C848 0.929 . S
C840 H834 0.930 . S
C840 C841 1.367 . S
C840 C848 1.378 . S
C841 C840 1.367 . S
C841 C849 1.433 . S
C842 H838 0.929 . S
C842 C844 1.378 . S
C842 C846 1.350 . S
C843 C846 1.463 . S
C843 C848 1.350 . S
C843 N851 1.427 . S
C844 H835 0.930 . S
C844 C842 1.378 . S
C844 C845 1.367 . S
C845 C844 1.367 . S
C845 C847 1.433 . S
C846 C842 1.350 . S
C846 C843 1.463 . S
C846 N850 1.427 . S
C847 H837 0.929 . S
C847 C845 1.433 . S
C847 N850 1.384 . S
C848 H839 0.929 . S
C848 C840 1.378 . S
C848 C843 1.350 . S
C849 H836 0.929 . S
C849 C841 1.433 . S
C849 N851 1.384 . S
N850 C846 1.427 . S
N850 C847 1.384 . S
N851 C843 1.427 . S
N851 C849 1.384 . S
H852 C858 0.930 . S
H853 C862 0.930 . S
H854 C867 0.929 . S
H855 C865 0.929 . S
H856 C860 0.929 . S
H857 C866 0.929 . S
C858 H852 0.930 . S
C858 C859 1.367 . S
C858 C866 1.378 . S
C859 C858 1.367 . S
C859 C867 1.433 . S
C860 H856 0.929 . S
C860 C862 1.378 . S
C860 C864 1.350 . S
C861 C864 1.463 . S
C861 C866 1.350 . S
C861 N869 1.427 . S
C862 H853 0.930 . S
C862 C860 1.378 . S
C862 C863 1.367 . S
C863 C862 1.367 . S
C863 C865 1.433 . S
C864 C860 1.350 . S
C864 C861 1.463 . S
C864 N868 1.427 . S
C865 H855 0.929 . S
C865 C863 1.433 . S
C865 N868 1.384 . S
C866 H857 0.929 . S
C866 C858 1.378 . S
C866 C861 1.350 . S
C867 H854 0.929 . S
C867 C859 1.433 . S
C867 N869 1.384 . S
N868 C864 1.427 . S
N868 C865 1.384 . S
N869 C861 1.427 . S
N869 C867 1.384 . S
H870 C876 0.930 . S
H871 C880 0.930 . S
H872 C885 0.929 . S
H873 C883 0.929 1_655 S
H874 C878 0.929 . S
H875 C884 0.929 . S
C876 H870 0.930 . S
C876 C877 1.367 . S
C876 C884 1.378 . S
C877 C876 1.367 . S
C877 C885 1.433 . S
C878 H874 0.929 . S
C878 C880 1.378 . S
C878 C882 1.350 . S
C879 C882 1.463 . S
C879 C884 1.350 . S
C879 N887 1.427 . S
C880 H871 0.930 . S
C880 C878 1.378 . S
C880 C881 1.367 . S
C881 C880 1.367 . S
C881 C883 1.433 . S
C882 C878 1.350 . S
C882 C879 1.463 . S
C882 N886 1.427 . S
C883 H873 0.929 1_455 S
C883 C881 1.433 . S
C883 N886 1.384 . S
C884 H875 0.929 . S
C884 C876 1.378 . S
C884 C879 1.350 . S
C885 H872 0.929 . S
C885 C877 1.433 . S
C885 N887 1.384 . S
N886 C882 1.427 . S
N886 C883 1.384 . S
N887 C879 1.427 . S
N887 C885 1.384 . S
H888 C894 0.930 . S
H889 C898 0.930 . S
H890 C903 0.929 1_545 S
H891 C901 0.929 . S
H892 C896 0.929 . S
H893 C902 0.929 . S
C894 H888 0.930 . S
C894 C895 1.367 . S
C894 C902 1.378 1_554 S
C895 C894 1.367 . S
C895 C903 1.433 . S
C896 H892 0.929 . S
C896 C898 1.378 . S
C896 C900 1.350 1_545 S
C897 C900 1.463 . S
C897 C902 1.350 . S
C897 N905 1.427 1_566 S
C898 H889 0.930 . S
C898 C896 1.378 . S
C898 C899 1.367 1_545 S
C899 C898 1.367 1_565 S
C899 C901 1.433 . S
C900 C896 1.350 1_565 S
C900 C897 1.463 . S
C900 N904 1.427 . S
C901 H891 0.929 . S
C901 C899 1.433 . S
C901 N904 1.384 . S
C902 H893 0.929 . S
C902 C894 1.378 1_556 S
C902 C897 1.350 . S
C903 H890 0.929 1_565 S
C903 C895 1.433 . S
C903 N905 1.384 1_565 S
N904 C900 1.427 . S
N904 C901 1.384 . S
N905 C897 1.427 1_544 S
N905 C903 1.384 1_545 S
H906 C912 0.930 . S
H907 C916 0.930 . S
H908 C921 0.929 . S
H909 C919 0.929 . S
H910 C914 0.929 . S
H911 C920 0.929 . S
C912 H906 0.930 . S
C912 C913 1.367 . S
C912 C920 1.378 . S
C913 C912 1.367 . S
C913 C921 1.433 . S
C914 H910 0.929 . S
C914 C916 1.378 . S
C914 C918 1.350 . S
C915 C918 1.463 . S
C915 C920 1.350 1_556 S
C915 N923 1.427 . S
C916 H907 0.930 . S
C916 C914 1.378 . S
C916 C917 1.367 . S
C917 C916 1.367 . S
C917 C919 1.433 . S
C918 C914 1.350 . S
C918 C915 1.463 . S
C918 N922 1.427 . S
C919 H909 0.929 . S
C919 C917 1.433 . S
C919 N922 1.384 . S
C920 H911 0.929 . S
C920 C912 1.378 . S
C920 C915 1.350 1_554 S
C921 H908 0.929 . S
C921 C913 1.433 . S
C921 N923 1.384 1_554 S
N922 C918 1.427 . S
N922 C919 1.384 . S
N923 C915 1.427 . S
N923 C921 1.384 1_556 S
H924 C930 0.930 . S
H925 C934 0.930 . S
H926 C939 0.929 . S
H927 C937 0.929 . S
H928 C932 0.929 . S
H929 C938 0.929 . S
C930 H924 0.930 . S
C930 C931 1.367 . S
C930 C938 1.378 1_554 S
C931 C930 1.367 . S
C931 C939 1.433 . S
C932 H928 0.929 . S
C932 C934 1.378 . S
C932 C936 1.350 . S
C933 C936 1.463 . S
C933 C938 1.350 . S
C933 N941 1.427 1_556 S
C934 H925 0.930 . S
C934 C932 1.378 . S
C934 C935 1.367 . S
C935 C934 1.367 . S
C935 C937 1.433 . S
C936 C932 1.350 . S
C936 C933 1.463 . S
C936 N940 1.427 . S
C937 H927 0.929 . S
C937 C935 1.433 . S
C937 N940 1.384 . S
C938 H929 0.929 . S
C938 C930 1.378 1_556 S
C938 C933 1.350 . S
C939 H926 0.929 . S
C939 C931 1.433 . S
C939 N941 1.384 . S
N940 C936 1.427 . S
N940 C937 1.384 . S
N941 C933 1.427 1_554 S
N941 C939 1.384 . S
H942 C948 0.930 1_455 S
H943 C952 0.930 . S
H944 C957 0.929 . S
H945 C955 0.929 . S
H946 C950 0.929 . S
H947 C956 0.929 1_456 S
C948 H942 0.930 1_655 S
C948 C949 1.367 . S
C948 C956 1.378 . S
C949 C948 1.367 . S
C949 C957 1.433 . S
C950 H946 0.929 . S
C950 C952 1.378 . S
C950 C954 1.350 . S
C951 C954 1.463 . S
C951 C956 1.350 1_556 S
C951 N959 1.427 1_556 S
C952 H943 0.930 . S
C952 C950 1.378 . S
C952 C953 1.367 . S
C953 C952 1.367 . S
C953 C955 1.433 1_655 S
C954 C950 1.350 . S
C954 C951 1.463 . S
C954 N958 1.427 1_655 S
C955 H945 0.929 . S
C955 C953 1.433 1_455 S
C955 N958 1.384 . S
C956 H947 0.929 1_654 S
C956 C948 1.378 . S
C956 C951 1.350 1_554 S
C957 H944 0.929 . S
C957 C949 1.433 . S
C957 N959 1.384 . S
N958 C954 1.427 1_455 S
N958 C955 1.384 . S
N959 C951 1.427 1_554 S
N959 C957 1.384 . S
H960 C966 0.930 . S
H961 C970 0.930 . S
H962 C975 0.929 . S
H963 C973 0.929 . S
H964 C968 0.929 . S
H965 C974 0.929 . S
C966 H960 0.930 . S
C966 C967 1.367 . S
C966 C974 1.378 . S
C967 C966 1.367 . S
C967 C975 1.433 . S
C968 H964 0.929 . S
C968 C970 1.378 . S
C968 C972 1.350 . S
C969 C972 1.463 . S
C969 C974 1.350 . S
C969 N977 1.427 . S
C970 H961 0.930 . S
C970 C968 1.378 . S
C970 C971 1.367 1_455 S
C971 C970 1.367 1_655 S
C971 C973 1.433 . S
C972 C968 1.350 . S
C972 C969 1.463 . S
C972 N976 1.427 1_455 S
C973 H963 0.929 . S
C973 C971 1.433 . S
C973 N976 1.384 . S
C974 H965 0.929 . S
C974 C966 1.378 . S
C974 C969 1.350 . S
C975 H962 0.929 . S
C975 C967 1.433 . S
C975 N977 1.384 . S
N976 C972 1.427 1_655 S
N976 C973 1.384 . S
N977 C969 1.427 . S
N977 C975 1.384 . S
H978 C984 0.930 . S
H979 C988 0.930 . S
H980 C993 0.929 . S
H981 C991 0.929 . S
H982 C986 0.929 1_565 S
H983 C992 0.929 . S
C984 H978 0.930 . S
C984 C985 1.367 . S
C984 C992 1.378 . S
C985 C984 1.367 . S
C985 C993 1.433 . S
C986 H982 0.929 1_545 S
C986 C988 1.378 1_545 S
C986 C990 1.350 . S
C987 C990 1.463 . S
C987 C992 1.350 . S
C987 N995 1.427 . S
C988 H979 0.930 . S
C988 C986 1.378 1_565 S
C988 C989 1.367 1_565 S
C989 C988 1.367 1_545 S
C989 C991 1.433 . S
C990 C986 1.350 . S
C990 C987 1.463 . S
C990 N994 1.427 . S
C991 H981 0.929 . S
C991 C989 1.433 . S
C991 N994 1.384 . S
C992 H983 0.929 . S
C992 C984 1.378 . S
C992 C987 1.350 . S
C993 H980 0.929 . S
C993 C985 1.433 . S
C993 N995 1.384 . S
N994 C990 1.427 . S
N994 C991 1.384 . S
N995 C987 1.427 . S
N995 C993 1.384 . S
H996 C1002 0.930 . S
H997 C1006 0.930 . S
H998 C1011 0.929 . S
H999 C1009 0.929 . S
H1000 C1004 0.929 . S
H1001 C1010 0.929 . S
C1002 H996 0.930 . S
C1002 C1003 1.367 . S
C1002 C1010 1.378 . S
C1003 C1002 1.367 . S
C1003 C1011 1.433 . S
C1004 H1000 0.929 . S
C1004 C1006 1.378 . S
C1004 C1008 1.350 . S
C1005 C1008 1.463 . S
C1005 C1010 1.350 . S
C1005 N1013 1.427 . S
C1006 H997 0.930 . S
C1006 C1004 1.378 . S
C1006 C1007 1.367 . S
C1007 C1006 1.367 . S
C1007 C1009 1.433 . S
C1008 C1004 1.350 . S
C1008 C1005 1.463 . S
C1008 N1012 1.427 . S
C1009 H999 0.929 . S
C1009 C1007 1.433 . S
C1009 N1012 1.384 . S
C1010 H1001 0.929 . S
C1010 C1002 1.378 . S
C1010 C1005 1.350 . S
C1011 H998 0.929 . S
C1011 C1003 1.433 . S
C1011 N1013 1.384 . S
N1012 C1008 1.427 . S
N1012 C1009 1.384 . S
N1013 C1005 1.427 . S
N1013 C1011 1.384 . S
H1014 C1020 0.930 . S
H1015 C1024 0.930 . S
H1016 C1029 0.929 . S
H1017 C1027 0.929 . S
H1018 C1022 0.929 . S
H1019 C1028 0.929 . S
C1020 H1014 0.930 . S
C1020 C1021 1.367 . S
C1020 C1028 1.378 . S
C1021 C1020 1.367 . S
C1021 C1029 1.433 . S
C1022 H1018 0.929 . S
C1022 C1024 1.378 . S
C1022 C1026 1.350 . S
C1023 C1026 1.463 . S
C1023 C1028 1.350 . S
C1023 N1031 1.427 . S
C1024 H1015 0.930 . S
C1024 C1022 1.378 . S
C1024 C1025 1.367 . S
C1025 C1024 1.367 . S
C1025 C1027 1.433 . S
C1026 C1022 1.350 . S
C1026 C1023 1.463 . S
C1026 N1030 1.427 . S
C1027 H1017 0.929 . S
C1027 C1025 1.433 . S
C1027 N1030 1.384 . S
C1028 H1019 0.929 . S
C1028 C1020 1.378 . S
C1028 C1023 1.350 . S
C1029 H1016 0.929 . S
C1029 C1021 1.433 . S
C1029 N1031 1.384 . S
N1030 C1026 1.427 . S
N1030 C1027 1.384 . S
N1031 C1023 1.427 . S
N1031 C1029 1.384 . S
H1032 C1038 0.930 . S
H1033 C1042 0.930 . S
H1034 C1047 0.929 . S
H1035 C1045 0.929 . S
H1036 C1040 0.929 1_554 S
H1037 C1046 0.929 . S
C1038 H1032 0.930 . S
C1038 C1039 1.367 1_556 S
C1038 C1046 1.378 . S
C1039 C1038 1.367 1_554 S
C1039 C1047 1.433 . S
C1040 H1036 0.929 1_556 S
C1040 C1042 1.378 1_655 S
C1040 C1044 1.350 . S
C1041 C1044 1.463 . S
C1041 C1046 1.350 . S
C1041 N1049 1.427 1_556 S
C1042 H1033 0.930 . S
C1042 C1040 1.378 1_455 S
C1042 C1043 1.367 . S
C1043 C1042 1.367 . S
C1043 C1045 1.433 . S
C1044 C1040 1.350 . S
C1044 C1041 1.463 . S
C1044 N1048 1.427 . S
C1045 H1035 0.929 . S
C1045 C1043 1.433 . S
C1045 N1048 1.384 1_455 S
C1046 H1037 0.929 . S
C1046 C1038 1.378 . S
C1046 C1041 1.350 . S
C1047 H1034 0.929 . S
C1047 C1039 1.433 . S
C1047 N1049 1.384 . S
N1048 C1044 1.427 . S
N1048 C1045 1.384 1_655 S
N1049 C1041 1.427 1_554 S
N1049 C1047 1.384 . S
H1050 C1056 0.930 . S
H1051 C1060 0.930 . S
H1052 C1065 0.929 . S
H1053 C1063 0.929 . S
H1054 C1058 0.929 . S
H1055 C1064 0.929 . S
C1056 H1050 0.930 . S
C1056 C1057 1.367 . S
C1056 C1064 1.378 1_554 S
C1057 C1056 1.367 . S
C1057 C1065 1.433 . S
C1058 H1054 0.929 . S
C1058 C1060 1.378 . S
C1058 C1062 1.350 1_545 S
C1059 C1062 1.463 . S
C1059 C1064 1.350 . S
C1059 N1067 1.422 1_565 S
C1060 H1051 0.930 . S
C1060 C1058 1.378 . S
C1060 C1061 1.367 . S
C1061 C1060 1.367 . S
C1061 C1063 1.433 1_545 S
C1062 C1058 1.350 1_565 S
C1062 C1059 1.463 . S
C1062 N1066 1.427 . S
C1063 H1053 0.929 . S
C1063 C1061 1.433 1_565 S
C1063 N1066 1.384 . S
C1064 H1055 0.929 . S
C1064 C1056 1.378 1_556 S
C1064 C1059 1.350 . S
C1065 H1052 0.929 . S
C1065 C1057 1.433 . S
C1065 N1067 1.380 1_564 S
N1066 C1062 1.427 . S
N1066 C1063 1.384 . S
N1067 C1059 1.422 1_545 S
N1067 C1065 1.380 1_546 S
H1068 C1074 0.930 . S
H1069 C1078 0.930 . S
H1070 C1083 0.929 . S
H1071 C1081 0.929 . S
H1072 C1076 0.929 1_554 S
H1073 C1082 0.929 . S
C1074 H1068 0.930 . S
C1074 C1075 1.367 1_556 S
C1074 C1082 1.378 . S
C1075 C1074 1.367 1_554 S
C1075 C1083 1.433 . S
C1076 H1072 0.929 1_556 S
C1076 C1078 1.378 . S
C1076 C1080 1.350 . S
C1077 C1080 1.463 . S
C1077 C1082 1.350 . S
C1077 N1085 1.427 1_556 S
C1078 H1069 0.930 . S
C1078 C1076 1.378 . S
C1078 C1079 1.367 . S
C1079 C1078 1.367 . S
C1079 C1081 1.433 . S
C1080 C1076 1.350 . S
C1080 C1077 1.463 . S
C1080 N1084 1.427 . S
C1081 H1071 0.929 . S
C1081 C1079 1.433 . S
C1081 N1084 1.384 . S
C1082 H1073 0.929 . S
C1082 C1074 1.378 . S
C1082 C1077 1.350 . S
C1083 H1070 0.929 . S
C1083 C1075 1.433 . S
C1083 N1085 1.384 . S
N1084 C1080 1.427 . S
N1084 C1081 1.384 . S
N1085 C1077 1.427 1_554 S
N1085 C1083 1.384 . S
H1086 C1092 0.930 . S
H1087 C1096 0.930 . S
H1088 C1101 0.929 . S
H1089 C1099 0.929 . S
H1090 C1094 0.929 . S
H1091 C1100 0.929 . S
C1092 H1086 0.930 . S
C1092 C1093 1.367 1_556 S
C1092 C1100 1.378 . S
C1093 C1092 1.367 1_554 S
C1093 C1101 1.433 . S
C1094 H1090 0.929 . S
C1094 C1096 1.378 . S
C1094 C1098 1.350 . S
C1095 C1098 1.463 . S
C1095 C1100 1.350 . S
C1095 N1103 1.427 1_556 S
C1096 H1087 0.930 . S
C1096 C1094 1.378 . S
C1096 C1097 1.367 . S
C1097 C1096 1.367 . S
C1097 C1099 1.433 . S
C1098 C1094 1.350 . S
C1098 C1095 1.463 . S
C1098 N1102 1.427 . S
C1099 H1089 0.929 . S
C1099 C1097 1.433 . S
C1099 N1102 1.384 . S
C1100 H1091 0.929 . S
C1100 C1092 1.378 . S
C1100 C1095 1.350 . S
C1101 H1088 0.929 . S
C1101 C1093 1.433 . S
C1101 N1103 1.384 . S
N1102 C1098 1.427 . S
N1102 C1099 1.384 . S
N1103 C1095 1.427 1_554 S
N1103 C1101 1.384 . S
H1104 C1110 0.930 . S
H1105 C1114 0.903 1_655 S
H1106 C1119 0.929 . S
H1107 C1117 0.929 . S
H1108 C1112 0.929 . S
H1109 C1118 0.929 . S
C1110 H1104 0.930 . S
C1110 C1111 1.367 . S
C1110 C1118 1.378 . S
C1111 C1110 1.367 . S
C1111 C1119 1.433 . S
C1112 H1108 0.929 . S
C1112 C1114 1.378 . S
C1112 C1116 1.350 . S
C1113 C1116 1.463 . S
C1113 C1118 1.350 . S
C1113 N1121 1.427 . S
C1114 H1105 0.903 1_455 S
C1114 C1112 1.378 . S
C1114 C1115 1.367 . S
C1115 C1114 1.367 . S
C1115 C1117 1.433 . S
C1116 C1112 1.350 . S
C1116 C1113 1.463 . S
C1116 N1120 1.427 . S
C1117 H1107 0.929 . S
C1117 C1115 1.433 . S
C1117 N1120 1.384 . S
C1118 H1109 0.929 . S
C1118 C1110 1.378 . S
C1118 C1113 1.350 . S
C1119 H1106 0.929 . S
C1119 C1111 1.433 . S
C1119 N1121 1.384 . S
N1120 C1116 1.427 . S
N1120 C1117 1.384 . S
N1121 C1113 1.427 . S
N1121 C1119 1.384 . S
H1122 C1128 0.930 . S
H1123 C1132 0.930 . S
H1124 C1137 0.929 . S
H1125 C1135 0.929 . S
H1126 C1130 0.929 . S
H1127 C1136 0.929 . S
C1128 H1122 0.930 . S
C1128 C1129 1.367 . S
C1128 C1136 1.378 . S
C1129 C1128 1.367 . S
C1129 C1137 1.433 . S
C1130 H1126 0.929 . S
C1130 C1132 1.378 . S
C1130 C1134 1.350 . S
C1131 C1134 1.463 . S
C1131 C1136 1.350 . S
C1131 N1139 1.427 . S
C1132 H1123 0.930 . S
C1132 C1130 1.378 . S
C1132 C1133 1.367 . S
C1133 C1132 1.367 . S
C1133 C1135 1.433 . S
C1134 C1130 1.350 . S
C1134 C1131 1.463 . S
C1134 N1138 1.427 . S
C1135 H1125 0.929 . S
C1135 C1133 1.433 . S
C1135 N1138 1.384 . S
C1136 H1127 0.929 . S
C1136 C1128 1.378 . S
C1136 C1131 1.350 . S
C1137 H1124 0.929 . S
C1137 C1129 1.433 . S
C1137 N1139 1.384 . S
N1138 C1134 1.427 . S
N1138 C1135 1.384 . S
N1139 C1131 1.427 . S
N1139 C1137 1.384 . S
H1140 C1146 0.930 . S
H1141 C1150 0.930 . S
H1142 C1155 0.929 . S
H1143 C1153 0.929 . S
H1144 C1148 0.929 . S
H1145 C1154 0.929 . S
C1146 H1140 0.930 . S
C1146 C1147 1.367 . S
C1146 C1154 1.378 . S
C1147 C1146 1.367 . S
C1147 C1155 1.433 . S
C1148 H1144 0.929 . S
C1148 C1150 1.378 . S
C1148 C1152 1.350 . S
C1149 C1152 1.463 . S
C1149 C1154 1.350 . S
C1149 N1157 1.427 . S
C1150 H1141 0.930 . S
C1150 C1148 1.378 . S
C1150 C1151 1.367 . S
C1151 C1150 1.367 . S
C1151 C1153 1.433 . S
C1152 C1148 1.350 . S
C1152 C1149 1.463 . S
C1152 N1156 1.427 . S
C1153 H1143 0.929 . S
C1153 C1151 1.433 . S
C1153 N1156 1.384 . S
C1154 H1145 0.929 . S
C1154 C1146 1.378 . S
C1154 C1149 1.350 . S
C1155 H1142 0.929 . S
C1155 C1147 1.433 . S
C1155 N1157 1.384 . S
N1156 C1152 1.427 . S
N1156 C1153 1.384 . S
N1157 C1149 1.427 . S
N1157 C1155 1.384 . S
H1158 C1164 0.930 . S
H1159 C1168 0.930 . S
H1160 C1173 0.929 . S
H1161 C1171 0.929 . S
H1162 C1166 0.929 . S
H1163 C1172 0.929 . S
C1164 H1158 0.930 . S
C1164 C1165 1.367 . S
C1164 C1172 1.378 . S
C1165 C1164 1.367 . S
C1165 C1173 1.433 . S
C1166 H1162 0.929 . S
C1166 C1168 1.378 . S
C1166 C1170 1.350 . S
C1167 C1170 1.463 . S
C1167 C1172 1.350 . S
C1167 N1175 1.427 . S
C1168 H1159 0.930 . S
C1168 C1166 1.378 . S
C1168 C1169 1.367 . S
C1169 C1168 1.367 . S
C1169 C1171 1.433 . S
C1170 C1166 1.350 . S
C1170 C1167 1.463 . S
C1170 N1174 1.427 . S
C1171 H1161 0.929 . S
C1171 C1169 1.433 . S
C1171 N1174 1.384 . S
C1172 H1163 0.929 . S
C1172 C1164 1.378 . S
C1172 C1167 1.350 . S
C1173 H1160 0.929 . S
C1173 C1165 1.433 . S
C1173 N1175 1.384 . S
N1174 C1170 1.427 . S
N1174 C1171 1.384 . S
N1175 C1167 1.427 . S
N1175 C1173 1.384 . S
H1176 C1182 0.930 . S
H1177 C1186 0.930 . S
H1178 C1191 0.929 . S
H1179 C1189 0.954 . S
H1180 C1184 0.929 . S
H1181 C1190 0.929 1_455 S
C1182 H1176 0.930 . S
C1182 C1183 1.367 . S
C1182 C1190 1.378 . S
C1183 C1182 1.367 . S
C1183 C1191 1.433 . S
C1184 H1180 0.929 . S
C1184 C1186 1.378 . S
C1184 C1188 1.350 . S
C1185 C1188 1.463 . S
C1185 C1190 1.350 . S
C1185 N1193 1.427 . S
C1186 H1177 0.930 . S
C1186 C1184 1.378 . S
C1186 C1187 1.367 . S
C1187 C1186 1.367 . S
C1187 C1189 1.413 1_655 S
C1188 C1184 1.350 . S
C1188 C1185 1.463 . S
C1188 N1192 1.427 . S
C1189 H1179 0.954 . S
C1189 C1187 1.413 1_455 S
C1189 N1192 1.379 1_455 S
C1190 H1181 0.929 1_655 S
C1190 C1182 1.378 . S
C1190 C1185 1.350 . S
C1191 H1178 0.929 . S
C1191 C1183 1.433 . S
C1191 N1193 1.384 . S
N1192 C1188 1.427 . S
N1192 C1189 1.379 1_655 S
N1193 C1185 1.427 . S
N1193 C1191 1.384 . S
H1194 C1200 0.930 . S
H1195 C1204 0.931 1_545 S
H1196 C1209 0.929 . S
H1197 C1207 0.929 . S
H1198 C1202 0.929 1_545 S
H1199 C1208 0.929 . S
C1200 H1194 0.930 . S
C1200 C1201 1.367 . S
C1200 C1208 1.378 . S
C1201 C1200 1.367 . S
C1201 C1209 1.433 . S
C1202 H1198 0.929 1_565 S
C1202 C1204 1.378 . S
C1202 C1206 1.350 . S
C1203 C1206 1.463 . S
C1203 C1208 1.350 . S
C1203 N1211 1.427 . S
C1204 H1195 0.931 1_565 S
C1204 C1202 1.378 . S
C1204 C1205 1.366 . S
C1205 C1204 1.366 . S
C1205 C1207 1.433 . S
C1206 C1202 1.350 . S
C1206 C1203 1.463 . S
C1206 N1210 1.427 . S
C1207 H1197 0.929 . S
C1207 C1205 1.433 . S
C1207 N1210 1.384 . S
C1208 H1199 0.929 . S
C1208 C1200 1.378 . S
C1208 C1203 1.350 . S
C1209 H1196 0.929 . S
C1209 C1201 1.433 . S
C1209 N1211 1.384 . S
N1210 C1206 1.427 . S
N1210 C1207 1.384 . S
N1211 C1203 1.427 . S
N1211 C1209 1.384 . S
H1212 C1218 0.930 . S
H1213 C1222 0.930 . S
H1214 C1227 0.929 . S
H1215 C1225 0.929 . S
H1216 C1220 0.929 . S
H1217 C1226 0.929 . S
C1218 H1212 0.930 . S
C1218 C1219 1.367 . S
C1218 C1226 1.378 . S
C1219 C1218 1.367 . S
C1219 C1227 1.433 . S
C1220 H1216 0.929 . S
C1220 C1222 1.378 . S
C1220 C1224 1.350 . S
C1221 C1224 1.463 . S
C1221 C1226 1.350 . S
C1221 N1229 1.427 . S
C1222 H1213 0.930 . S
C1222 C1220 1.378 . S
C1222 C1223 1.367 . S
C1223 C1222 1.367 . S
C1223 C1225 1.433 . S
C1224 C1220 1.350 . S
C1224 C1221 1.463 . S
C1224 N1228 1.427 . S
C1225 H1215 0.929 . S
C1225 C1223 1.433 . S
C1225 N1228 1.384 . S
C1226 H1217 0.929 . S
C1226 C1218 1.378 . S
C1226 C1221 1.350 . S
C1227 H1214 0.929 . S
C1227 C1219 1.433 . S
C1227 N1229 1.384 . S
N1228 C1224 1.427 . S
N1228 C1225 1.384 . S
N1229 C1221 1.427 . S
N1229 C1227 1.384 . S
H1230 C1236 0.930 . S
H1231 C1240 0.930 . S
H1232 C1245 0.929 . S
H1233 C1243 0.929 . S
H1234 C1238 0.929 . S
H1235 C1244 0.929 . S
C1236 H1230 0.930 . S
C1236 C1237 1.367 . S
C1236 C1244 1.378 . S
C1237 C1236 1.367 . S
C1237 C1245 1.433 . S
C1238 H1234 0.929 . S
C1238 C1240 1.378 . S
C1238 C1242 1.350 . S
C1239 C1242 1.463 . S
C1239 C1244 1.350 . S
C1239 N1247 1.427 . S
C1240 H1231 0.930 . S
C1240 C1238 1.378 . S
C1240 C1241 1.367 . S
C1241 C1240 1.367 . S
C1241 C1243 1.433 . S
C1242 C1238 1.350 . S
C1242 C1239 1.463 . S
C1242 N1246 1.427 . S
C1243 H1233 0.929 . S
C1243 C1241 1.433 . S
C1243 N1246 1.384 . S
C1244 H1235 0.929 . S
C1244 C1236 1.378 . S
C1244 C1239 1.350 . S
C1245 H1232 0.929 . S
C1245 C1237 1.433 . S
C1245 N1247 1.384 . S
N1246 C1242 1.427 . S
N1246 C1243 1.384 . S
N1247 C1239 1.427 . S
N1247 C1245 1.384 . S
C823 C391 2.400 . S
C827 C543 2.441 . S
C845 C620 2.451 . S
C841 C451 2.415 . S
C863 C711 2.444 . S
C859 C241 2.087 . S
C881 C795 2.423 . S
C877 C331 2.063 . S
C899 C554 2.440 1_565 S
C895 C121 2.126 . S
C913 C211 2.376 . S
C917 C631 2.452 . S
C931 C31 2.362 . S
C935 C722 2.438 . S
C949 C91 2.106 . S
C953 C806 2.424 1_655 S
C971 C538 0.499 . S
C967 C301 0.543 . S
C989 C633 0.558 . S
C985 C380 0.429 . S
C1007 C706 0.477 . S
C1003 C440 0.463 . S
C1021 C260 0.560 . S
C1025 C790 0.501 . S
C1039 C61 0.527 . S
C1043 C549 0.504 . S
C1061 C622 0.542 . S
C1057 C140 0.492 . S
C1079 C717 0.502 . S
C1075 C200 0.528 . S
C1093 C20 0.525 . S
C1097 C801 0.470 . S
C1111 C320 2.738 . S
C1115 C547 2.912 . S
C1129 C361 2.424 . S
C1133 C638 2.964 . S
C1151 C715 2.932 . S
C1147 C421 2.428 . S
C1169 C799 2.937 . S
C1165 C271 2.761 . S
C1183 C80 2.773 . S
C1187 C536 2.916 . S
C1205 C627 2.970 . S
C1201 C151 2.765 . S
C1223 C704 2.931 . S
C1219 C181 2.391 . S
C1237 C1 2.397 . S
C1241 C788 2.934 . S
