# Generated by pormake.
# Topology rtl, (3,6)-cn, num edge types: 1
# Building blocks:
#     Node 0, Type 0, BuildingBlock: CUQRIR_clean_linker_1, # of connection points: 3
#     Node 1, Type 0, BuildingBlock: CUQRIR_clean_linker_1, # of connection points: 3
#     Node 2, Type 0, BuildingBlock: CUQRIR_clean_linker_1, # of connection points: 3
#     Node 3, Type 0, BuildingBlock: CUQRIR_clean_linker_1, # of connection points: 3
#     Node 4, Type 1, BuildingBlock: KUMBUR_clean_sbu_1, # of connection points: 6
#     Node 5, Type 1, BuildingBlock: KUMBUR_clean_sbu_1, # of connection points: 6
#     Edge 6, Type (0, 1), BuildingBlock: TEMPAE_clean_linker_10, # of connection points: 2
#     Edge 7, Type (0, 1), BuildingBlock: TEMPAE_clean_linker_10, # of connection points: 2
#     Edge 8, Type (0, 1), BuildingBlock: TEMPAE_clean_linker_10, # of connection points: 2
#     Edge 9, Type (0, 1), BuildingBlock: TEMPAE_clean_linker_10, # of connection points: 2
#     Edge 10, Type (0, 1), BuildingBlock: TEMPAE_clean_linker_10, # of connection points: 2
#     Edge 11, Type (0, 1), BuildingBlock: TEMPAE_clean_linker_10, # of connection points: 2
#     Edge 12, Type (0, 1), BuildingBlock: TEMPAE_clean_linker_10, # of connection points: 2
#     Edge 13, Type (0, 1), BuildingBlock: TEMPAE_clean_linker_10, # of connection points: 2
#     Edge 14, Type (0, 1), BuildingBlock: TEMPAE_clean_linker_10, # of connection points: 2
#     Edge 15, Type (0, 1), BuildingBlock: TEMPAE_clean_linker_10, # of connection points: 2
#     Edge 16, Type (0, 1), BuildingBlock: TEMPAE_clean_linker_10, # of connection points: 2
#     Edge 17, Type (0, 1), BuildingBlock: TEMPAE_clean_linker_10, # of connection points: 2
# Relax obj value: 0.064
# Max RMSD: 0.226
# Mean RMSD: 0.176
data_MOF--net-rtl--node1-KUMBUR_clean_sbu_1--node2-CUQRIR_clean_linker_1--edge1-TEMPAE_clean_linker_10
_symmetry_space_group_name_H-M    P1
_symmetry_Int_Tables_number       1
_symmetry_cell_setting            triclinic
loop_
_symmetry_equiv_pos_as_xyz
'x, y, z'
_cell_length_a     33.261006
_cell_length_b     33.592421
_cell_length_c     25.048372
_cell_angle_alpha  76.550982
_cell_angle_beta   98.474568
_cell_angle_gamma 91.128884
loop_
_atom_site_label
_atom_site_type_symbol
_atom_site_fract_x
_atom_site_fract_y
_atom_site_fract_z
_atom_type_partial_charge
C0 C 0.23795 0.8095 0.98727 0.0
N1 N 0.20864 0.8332 0.99702 0.0
N2 N 0.26334 0.79386 0.03457 0.0
C3 C 0.24403 0.80401 0.93097 0.0
C4 C 0.24897 0.80932 0.07349 0.0
N5 N 0.21589 0.8336 0.05054 0.0
C6 C 0.2654 0.79841 0.13436 0.0
H7 H 0.22621 0.77747 0.92195 0.0
H8 H 0.27652 0.79782 0.92988 0.0
H9 H 0.23369 0.83164 0.89811 0.0
H10 H 0.28137 0.76825 0.14624 0.0
H11 H 0.24062 0.7978 0.15973 0.0
H12 H 0.28742 0.82201 0.14359 0.0
C13 C 0.73063 0.72674 0.69567 0.0
N14 N 0.70677 0.69505 0.68613 0.0
N15 N 0.75428 0.73878 0.65528 0.0
C16 C 0.73358 0.74378 0.74657 0.0
C17 C 0.74418 0.71335 0.62095 0.0
N18 N 0.71567 0.68665 0.63982 0.0
C19 C 0.76136 0.71534 0.56803 0.0
H20 H 0.7105 0.76861 0.73923 0.0
H21 H 0.76402 0.75686 0.75567 0.0
H22 H 0.72777 0.71973 0.78315 0.0
H23 H 0.78843 0.69475 0.57735 0.0
H24 H 0.77083 0.74688 0.5501 0.0
H25 H 0.73899 0.70501 0.53682 0.0
C26 C 0.79281 0.22826 0.11688 0.0
N27 N 0.81889 0.20038 0.10862 0.0
N28 N 0.77381 0.25048 0.06803 0.0
C29 C 0.7885 0.23709 0.1721 0.0
C30 C 0.78955 0.23611 0.02937 0.0
N31 N 0.81731 0.20582 0.05384 0.0
C32 C 0.77605 0.25027 0.96791 0.0
H33 H 0.76321 0.21889 0.18929 0.0
H34 H 0.78097 0.26991 0.16713 0.0
H35 H 0.81688 0.2293 0.202 0.0
H36 H 0.79552 0.27589 0.95085 0.0
H37 H 0.7441 0.26162 0.95915 0.0
H38 H 0.77893 0.22517 0.94664 0.0
C39 C 0.31091 0.28109 0.42783 0.0
N40 N 0.33809 0.31001 0.43847 0.0
N41 N 0.2965 0.26143 0.47469 0.0
C42 C 0.29957 0.27054 0.37245 0.0
C43 C 0.3159 0.27923 0.51429 0.0
N44 N 0.34137 0.30841 0.49251 0.0
C45 C 0.30727 0.27132 0.5732 0.0
H46 H 0.27332 0.29 0.34878 0.0
H47 H 0.29046 0.23804 0.37786 0.0
H48 H 0.32528 0.27604 0.34814 0.0
H49 H 0.2885 0.2439 0.58437 0.0
H50 H 0.2909 0.29823 0.57866 0.0
H51 H 0.33633 0.26771 0.60213 0.0
Tb52 Tb 0.038 0.9738 0.5234 0.0
C53 C 0.9233 0.11848 0.50186 0.0
N54 N 0.96275 0.11436 0.52579 0.0
C55 C 0.97565 0.18305 0.47864 0.0
C56 C 0.90873 0.15455 0.46309 0.0
C57 C 0.98875 0.14635 0.51633 0.0
C58 C 0.93556 0.18703 0.45144 0.0
C59 C 0.85597 0.08994 0.49503 0.0
C60 C 0.89748 0.08669 0.51777 0.0
C61 C 0.84157 0.12481 0.45392 0.0
C62 C 0.86789 0.15715 0.43813 0.0
Tb63 Tb 0.98148 0.05414 0.58744 0.0
N64 N 0.91252 0.054 0.5585 0.0
C65 C 0.82993 0.05892 0.51602 0.0
C66 C 0.88633 0.02604 0.58293 0.0
C67 C 0.84505 0.02729 0.561 0.0
H68 H 0.01967 0.1433 0.53747 0.0
H69 H 0.82479 0.0043 0.57958 0.0
H70 H 0.97509 0.8939 0.53022 0.0
H71 H 0.19898 0.97529 0.59203 0.0
H72 H 0.89675 1.00303 0.62005 0.0
H73 H 0.79784 0.06018 0.49966 0.0
H74 H 0.13325 1.00257 0.53671 0.0
H75 H 0.99646 0.20817 0.47048 0.0
H76 H 0.80988 0.12763 0.43541 0.0
H77 H 0.85619 0.18432 0.40747 0.0
H78 H 0.97143 0.82527 0.59072 0.0
H79 H 0.92553 0.21537 0.42206 0.0
H80 H 0.2018 0.90797 0.65904 0.0
N81 N 0.03175 0.90797 0.57328 0.0
C82 C 0.06538 0.89176 0.60894 0.0
C83 C 0.99766 0.844 0.59732 0.0
C84 C 0.06567 0.85171 0.64245 0.0
C85 C 0.99936 0.88351 0.56404 0.0
C86 C 0.0306 0.82835 0.63771 0.0
N87 N 0.09944 0.95205 0.57399 0.0
C88 C 0.13429 0.97344 0.56634 0.0
C89 C 0.13738 0.89726 0.64047 0.0
C90 C 0.10075 0.91411 0.60815 0.0
C91 C 0.17298 0.91988 0.63503 0.0
C92 C 0.1715 0.95794 0.59732 0.0
H93 H 0.02951 0.79745 0.66271 0.0
H94 H 0.10219 0.80501 0.7038 0.0
H95 H 0.16507 0.84496 0.702 0.0
O96 O 0.06185 0.99259 0.44809 0.0
O97 O 0.06265 0.98733 0.60389 0.0
O98 O 1.00638 0.99698 0.64228 0.0
O99 O 0.04927 0.92961 0.48 0.0
O100 O 0.06087 0.03658 0.50722 0.0
O101 O 0.04564 0.06665 0.57743 0.0
O102 O 0.94956 0.07403 0.64374 0.0
O103 O 0.98612 0.0668 0.4982 0.0
O104 O 0.98115 0.00367 0.47772 0.0
O105 O 0.0126 0.08716 0.64205 0.0
O106 O 0.96376 0.98936 0.60631 0.0
O107 O 0.97272 0.96538 0.52934 0.0
C108 C 0.04362 0.98308 0.6472 0.0
C109 C 0.04265 0.95218 0.38331 0.0
C110 C 0.05009 0.93897 0.2934 0.0
C111 C 1.00776 0.94333 0.27781 0.0
C112 C 1.00042 0.95486 0.36779 0.0
C113 C 0.98312 0.95096 0.31502 0.0
C114 C 0.06741 0.94384 0.34628 0.0
C115 C 0.06719 0.06397 0.53784 0.0
C116 C 0.06098 0.95605 0.43893 0.0
C117 C 0.10151 0.83556 0.67729 0.0
C118 C 0.13736 0.85824 0.67612 0.0
C119 C 0.97478 0.04346 0.46333 0.0
C120 C 0.98992 0.0742 0.72958 0.0
C121 C 0.97391 0.07598 0.82162 0.0
C122 C 1.0044 0.04595 0.8455 0.0
C123 C 0.02097 0.04538 0.75494 0.0
C124 C 0.96662 0.08967 0.76311 0.0
C125 C 0.02786 0.03114 0.81238 0.0
C126 C 0.95427 0.96452 0.57274 0.0
C127 C 0.98188 0.08819 0.66839 0.0
H128 H 0.99362 0.93939 0.23759 0.0
H129 H 0.981 0.95914 0.39701 0.0
H130 H 0.95047 0.95295 0.30332 0.0
H131 H 0.10005 0.94075 0.35876 0.0
H132 H 1.01022 0.03376 0.88995 0.0
H133 H 0.04007 0.03397 0.7303 0.0
H134 H 0.94348 0.11285 0.74356 0.0
H135 H 0.05159 0.00859 0.83134 0.0
Tb136 Tb 0.47442 0.49897 1.00826 0.0
C137 C 0.62671 0.59626 0.09442 0.0
N138 N 0.61876 0.55572 0.10323 0.0
C139 C 0.6871 0.54155 0.09229 0.0
C140 C 0.66499 0.61138 0.0824 0.0
C141 C 0.64853 0.52815 0.10379 0.0
C142 C 0.69532 0.5834 0.08117 0.0
C143 C 0.60364 0.66467 0.0913 0.0
C144 C 0.59654 0.62234 0.09888 0.0
C145 C 0.64105 0.68033 0.07677 0.0
C146 C 0.67175 0.65369 0.07251 0.0
Tb147 Tb 0.556 0.53618 0.1248 0.0
N148 N 0.56132 0.60576 0.11451 0.0
C149 C 0.5736 0.68968 0.10078 0.0
C150 C 0.53378 0.62957 0.12897 0.0
C151 C 0.53881 0.6719 0.12068 0.0
H152 H 0.64238 0.49587 0.11289 0.0
H153 H 0.51629 0.69063 0.13089 0.0
H154 H 0.39894 0.56796 0.99171 0.0
H155 H 0.47 0.33444 0.06047 0.0
H156 H 0.50835 0.61602 0.14836 0.0
H157 H 0.57779 0.72237 0.09532 0.0
H158 H 0.49889 0.40227 0.02457 0.0
H159 H 0.71045 0.51961 0.09213 0.0
H160 H 0.64696 0.71281 0.07032 0.0
H161 H 0.70078 0.66602 0.06251 0.0
H162 H 0.33364 0.57083 0.02522 0.0
H163 H 0.72518 0.59373 0.07218 0.0
H164 H 0.40469 0.32999 0.09779 0.0
N165 N 0.41138 0.5055 0.03311 0.0
C166 C 0.3943 0.46999 0.0573 0.0
C167 C 0.35087 0.54242 0.03592 0.0
C168 C 0.35582 0.46963 0.07462 0.0
C169 C 0.38875 0.54093 0.01846 0.0
C170 C 0.33473 0.50677 0.06536 0.0
N171 N 0.45074 0.43536 0.04248 0.0
C172 C 0.47041 0.40044 0.04088 0.0
C173 C 0.39656 0.39574 0.08169 0.0
C174 C 0.41411 0.43355 0.06061 0.0
C175 C 0.41716 0.35971 0.08195 0.0
C176 C 0.45409 0.3621 0.06103 0.0
H177 H 0.30506 0.50789 0.07798 0.0
H178 H 0.30951 0.43128 0.1122 0.0
H179 H 0.34536 0.36649 0.11861 0.0
O180 O 0.48218 0.47223 0.94152 0.0
O181 O 0.4863 0.46372 0.0956 0.0
O182 O 0.49575 0.51499 0.14091 0.0
O183 O 0.43293 0.51381 0.93482 0.0
O184 O 0.53631 0.47458 0.01872 0.0
O185 O 0.56555 0.47527 0.10942 0.0
O186 O 0.57091 0.55214 0.20152 0.0
O187 O 0.57263 0.54637 0.04045 0.0
O188 O 0.51123 0.55295 0.9821 0.0
O189 O 0.58165 0.49097 0.19432 0.0
O190 O 0.49318 0.55973 0.10527 0.0
O191 O 0.47149 0.56369 1.01269 0.0
C192 C 0.48365 0.47799 0.13949 0.0
C193 C 0.4192 0.45999 0.88974 0.0
C194 C 0.39518 0.42214 0.81871 0.0
C195 C 0.36029 0.41141 0.84449 0.0
C196 C 0.38418 0.44839 0.91444 0.0
C197 C 0.35515 0.42413 0.89212 0.0
C198 C 0.42472 0.44662 0.84192 0.0
C199 C 0.5635 0.46177 0.0634 0.0
C200 C 0.44842 0.48802 0.91191 0.0
C201 C 0.33885 0.43213 0.09808 0.0
C202 C 0.35914 0.39522 0.10146 0.0
C203 C 0.55095 0.55686 0.99059 0.0
C204 C 0.62559 0.51644 0.26268 0.0
C205 C 0.66457 0.53616 0.34285 0.0
C206 C 0.70008 0.52086 0.33005 0.0
C207 C 0.66126 0.50055 0.25119 0.0
C208 C 0.62738 0.53366 0.30905 0.0
C209 C 0.6983 0.50289 0.28473 0.0
C210 C 0.47359 0.57893 0.05696 0.0
C211 C 0.58625 0.51637 0.22681 0.0
H212 H 0.33626 0.39388 0.82719 0.0
H213 H 0.37856 0.45896 0.95021 0.0
H214 H 0.32807 0.41584 0.9112 0.0
H215 H 0.45174 0.45548 0.82285 0.0
H216 H 0.72912 0.52243 0.35548 0.0
H217 H 0.66062 0.48643 0.21644 0.0
H218 H 0.59991 0.54598 0.31811 0.0
H219 H 0.72574 0.49083 0.27549 0.0
C220 C 0.27154 0.19324 0.5151 0.0
C221 C 0.26429 0.23218 0.48003 0.0
C222 C 0.23976 0.16541 0.52382 0.0
C223 C 0.19983 0.1769 0.49656 0.0
C224 C 0.19265 0.21599 0.45999 0.0
C225 C 0.22507 0.24317 0.45212 0.0
C226 C 0.24876 0.124 0.56289 0.0
C227 C 0.15062 0.22939 0.43003 0.0
C228 C 0.1231 0.09293 0.48366 0.0
C229 C 0.10089 0.0932 0.52716 0.0
C230 C 0.15527 0.11997 0.47322 0.0
C231 C 0.16553 0.14821 0.50688 0.0
C232 C 0.14316 0.14889 0.55062 0.0
C233 C 0.11119 0.12138 0.56029 0.0
C234 C 0.17838 0.11821 0.42623 0.0
C235 C 0.15311 0.17863 0.58737 0.0
H236 H 0.30209 0.18499 0.5363 0.0
H237 H 0.21973 0.27347 0.4252 0.0
H238 H 0.2313 0.1206 0.59813 0.0
H239 H 0.23894 0.0994 0.54119 0.0
H240 H 0.28159 0.11943 0.57969 0.0
H241 H 0.15035 0.26033 0.40192 0.0
H242 H 0.1384 0.20728 0.40524 0.0
H243 H 0.12974 0.22976 0.46062 0.0
H244 H 0.11547 0.07147 0.45756 0.0
H245 H 0.09437 0.12195 0.59402 0.0
H246 H 0.211 0.11147 0.44251 0.0
H247 H 0.17655 0.14836 0.39618 0.0
H248 H 0.16655 0.09453 0.40379 0.0
H249 H 0.18492 0.17361 0.60861 0.0
H250 H 0.13261 0.17554 0.6193 0.0
H251 H 0.15068 0.2105 0.56184 0.0
C252 C 0.28501 0.72631 0.02751 0.0
C253 C 0.29469 0.76345 0.04205 0.0
C254 C 0.31526 0.69706 0.03091 0.0
C255 C 0.35622 0.7053 0.04932 0.0
C256 C 0.36607 0.74269 0.06486 0.0
C257 C 0.335 0.77139 0.06118 0.0
C258 C 0.3033 0.65731 1.01503 0.0
C259 C 0.40941 0.75251 0.08458 0.0
C260 C 0.42697 0.61301 0.10236 0.0
C261 C 0.44544 0.61269 0.05562 0.0
C262 C 0.39863 0.64357 0.10134 0.0
C263 C 0.38851 0.67456 0.05235 0.0
C264 C 0.40756 0.67477 1.00526 0.0
C265 C 0.43575 0.64365 1.0074 0.0
C266 C 0.37872 0.64202 0.1522 0.0
C267 C 0.39741 0.70728 0.95225 0.0
H268 H 0.25359 0.7204 1.01321 0.0
H269 H 0.34214 0.80039 0.07204 0.0
H270 H 0.3217 0.65164 0.98396 0.0
H271 H 0.30945 0.63164 0.05222 0.0
H272 H 0.2706 0.65701 0.99768 0.0
H273 H 0.4119 0.78267 0.09579 0.0
H274 H 0.42222 0.7285 0.12129 0.0
H275 H 0.42839 0.75272 0.0516 0.0
H276 H 0.43398 0.58871 0.13948 0.0
H277 H 0.45002 0.64332 0.97128 0.0
H278 H 0.34566 0.63683 0.14267 0.0
H279 H 0.38219 0.67168 0.16456 0.0
H280 H 0.39173 0.61727 0.18797 0.0
H281 H 0.36501 0.70502 0.9348 0.0
H282 H 0.41653 0.70443 0.92047 0.0
H283 H 0.40158 0.73816 0.96085 0.0
C284 C 0.8235 0.76312 0.64465 0.0
C285 C 0.78324 0.77134 0.64926 0.0
C286 C 0.8514 0.79487 0.63432 0.0
C287 C 0.83857 0.83587 0.62816 0.0
C288 C 0.79805 0.84418 0.63413 0.0
C289 C 0.77086 0.8117 0.64479 0.0
C290 C 0.8943 0.78461 0.62863 0.0
C291 C 0.78319 0.88743 0.62779 0.0
C292 C 0.91985 0.91555 0.64225 0.0
C293 C 0.9236 0.93279 0.58664 0.0
C294 C 0.8921 0.8842 0.65641 0.0
C295 C 0.86724 0.87005 0.61388 0.0
C296 C 0.87045 0.88793 0.55757 0.0
C297 C 0.89868 0.91905 0.54463 0.0
C298 C 0.88995 0.86569 0.71689 0.0
C299 C 0.84433 0.87391 0.51099 0.0
H300 H 0.83287 0.73174 0.6485 0.0
H301 H 0.73956 0.81781 0.64804 0.0
H302 H 0.89975 0.7974 0.58536 0.0
H303 H 0.91646 0.79871 0.65615 0.0
H304 H 0.90029 0.75107 0.63892 0.0
H305 H 0.75125 0.88858 0.6356 0.0
H306 H 0.8028 0.90244 0.65693 0.0
H307 H 0.78519 0.90554 0.58517 0.0
H308 H 0.9393 0.92599 0.67483 0.0
H309 H 0.90138 0.93261 0.5016 0.0
H310 H 0.89812 0.83264 0.72688 0.0
H311 H 0.85844 0.86809 0.72557 0.0
H312 H 0.91069 0.8808 0.74489 0.0
H313 H 0.85071 0.84111 0.51397 0.0
H314 H 0.84966 0.89179 0.46946 0.0
H315 H 0.81171 0.87677 0.51457 0.0
C316 C 0.74944 0.32192 0.03958 0.0
C317 C 0.74209 0.28051 0.06021 0.0
C318 C 0.72005 0.3519 0.03766 0.0
C319 C 0.68237 0.3398 0.05606 0.0
C320 C 0.67447 0.29769 0.07509 0.0
C321 C 0.70469 0.26856 0.07745 0.0
C322 C 0.72982 0.3965 0.01788 0.0
C323 C 0.63451 0.28346 0.0942 0.0
C324 C 0.62256 0.41434 0.1083 0.0
C325 C 0.59344 0.42997 0.06185 0.0
C326 C 0.65203 0.38551 0.10661 0.0
C327 C 0.65186 0.37113 0.05774 0.0
C328 C 0.62216 0.38611 1.01107 0.0
C329 C 0.59349 0.41551 1.01354 0.0
C330 C 0.68345 0.37055 0.15713 0.0
C331 C 0.62059 0.37099 0.95856 0.0
H332 H 0.77874 0.33075 0.0269 0.0
H333 H 0.69951 0.23631 0.0935 0.0
H334 H 0.70616 0.41164 0.98355 0.0
H335 H 0.72979 0.41231 0.05217 0.0
H336 H 0.75991 0.40071 1.00327 0.0
H337 H 0.6322 0.24957 0.10415 0.0
H338 H 0.63102 0.29445 0.13177 0.0
H339 H 0.60883 0.29662 0.06166 0.0
H340 H 0.62265 0.42484 0.14608 0.0
H341 H 0.5711 0.42713 0.97742 0.0
H342 H 0.71446 0.37604 0.14585 0.0
H343 H 0.68065 0.33706 0.17293 0.0
H344 H 0.68033 0.38591 0.19112 0.0
H345 H 0.64962 0.37758 0.94161 0.0
H346 H 0.59527 0.38536 0.92613 0.0
H347 H 0.61685 0.33729 0.96784 0.0
C348 C 0.20749 0.88242 0.10754 0.0
C349 C 0.1909 0.85303 0.0796 0.0
C350 C 0.18451 0.89948 0.13961 0.0
C351 C 0.14427 0.88611 0.14455 0.0
C352 C 0.12716 0.85698 0.11521 0.0
C353 C 0.15069 0.841 0.08266 0.0
C354 C 0.20361 0.93102 0.16927 0.0
C355 C 0.08461 0.84152 0.11991 0.0
C356 C 0.10254 0.89347 0.27532 0.0
C357 C 0.07564 0.927 0.25569 0.0
C358 C 0.12499 0.87988 0.23953 0.0
C359 C 0.12097 0.90077 0.1829 0.0
C360 C 0.09449 0.93523 0.16309 0.0
C361 C 0.07182 0.9477 0.19964 0.0
C362 C 0.15241 0.84262 0.26211 0.0
C363 C 0.08999 0.95879 0.10328 0.0
H364 H 0.23864 0.89162 0.10458 0.0
H365 H 0.13828 0.81801 0.06109 0.0
H366 H 0.18357 0.95855 0.15974 0.0
H367 H 0.20721 0.91841 0.21478 0.0
H368 H 0.23391 0.94048 0.15756 0.0
H369 H 0.07524 0.82019 0.09262 0.0
H370 H 0.0828 0.82536 0.16347 0.0
H371 H 0.06259 0.86754 0.10892 0.0
H372 H 0.10512 0.87709 0.31845 0.0
H373 H 0.05116 0.97377 0.18449 0.0
H374 H 0.18413 0.85055 0.25564 0.0
H375 H 0.1428 0.81854 0.23936 0.0
H376 H 0.152 0.82975 0.30709 0.0
H377 H 0.12014 0.96945 0.09226 0.0
H378 H 0.06923 0.98574 0.09491 0.0
H379 H 0.078 0.93853 0.07559 0.0
C380 C 0.65047 0.6952 0.74009 0.0
C381 C 0.6785 0.67337 0.72082 0.0
C382 C 0.62724 0.67542 0.78076 0.0
C383 C 0.63112 0.63246 0.80137 0.0
C384 C 0.65734 0.6099 0.77916 0.0
C385 C 0.68118 0.63072 0.73975 0.0
C386 C 0.60031 0.70084 0.80388 0.0
C387 C 0.66164 0.56398 0.79881 0.0
C388 C 0.612 0.5883 0.94947 0.0
C389 C 0.57164 0.57548 0.942 0.0
C390 C 0.63148 0.60708 0.90422 0.0
C391 C 0.61066 0.61186 0.84952 0.0
C392 C 0.57034 0.59773 0.84132 0.0
C393 C 0.55115 0.58021 0.88759 0.0
C394 C 0.67426 0.62234 0.91506 0.0
C395 C 0.54751 0.60107 0.78369 0.0
H396 H 0.64795 0.7281 0.72476 0.0
H397 H 0.70322 0.61382 0.72569 0.0
H398 H 0.56897 0.68882 0.80167 0.0
H399 H 0.61194 0.69885 0.84831 0.0
H400 H 0.59905 0.73357 0.78142 0.0
H401 H 0.67842 0.55051 0.77187 0.0
H402 H 0.67835 0.55599 0.84169 0.0
H403 H 0.6313 0.54972 0.79982 0.0
H404 H 0.62844 0.58409 0.99075 0.0
H405 H 0.52015 0.5698 0.881 0.0
H406 H 0.67544 0.65543 0.89518 0.0
H407 H 0.69518 0.60604 0.89647 0.0
H408 H 0.6856 0.61788 0.96003 0.0
H409 H 0.54325 0.63373 0.76164 0.0
H410 H 0.51719 0.58662 0.78427 0.0
H411 H 0.56539 0.58625 0.75938 0.0
C412 C 0.82458 0.14934 0.19752 0.0
C413 C 0.84249 0.16995 0.15172 0.0
C414 C 0.84813 0.12678 0.24557 0.0
C415 C 0.89014 0.12078 0.24578 0.0
C416 C 0.90751 0.1371 0.197 0.0
C417 C 0.88389 0.16304 0.15132 0.0
C418 C 0.82832 0.11127 0.29695 0.0
C419 C 0.9513 0.12849 0.19368 0.0
C420 C 0.95771 0.10505 0.38523 0.0
C421 C 0.95559 0.06269 0.40593 0.0
C422 C 0.93712 0.1243 0.33283 0.0
C423 C 0.91589 0.10029 0.29855 0.0
C424 C 0.91579 0.05716 0.31775 0.0
C425 C 0.93462 0.03905 0.37177 0.0
C426 C 0.93595 0.17052 0.31602 0.0
C427 C 0.89624 0.03 0.28124 0.0
H428 H 0.79225 0.15297 0.19694 0.0
H429 H 0.89815 0.17869 0.11625 0.0
H430 H 0.82903 0.07734 0.30829 0.0
H431 H 0.84535 0.12193 0.33246 0.0
H432 H 0.79619 0.12182 0.29116 0.0
H433 H 0.95706 0.13446 0.14994 0.0
H434 H 0.97142 0.14846 0.2151 0.0
H435 H 0.9598 0.0962 0.21445 0.0
H436 H 0.97476 0.12345 0.41053 0.0
H437 H 0.93211 0.00644 0.38756 0.0
H438 H 0.90504 0.18157 0.3178 0.0
H439 H 0.94216 0.18181 0.2729 0.0
H440 H 0.95829 0.18435 0.34371 0.0
H441 H 0.89225 0.99832 0.30533 0.0
H442 H 0.91598 0.02873 0.24957 0.0
H443 H 0.86621 0.04222 0.25866 0.0
C444 C 0.39943 0.32797 0.55298 0.0
C445 C 0.36109 0.33743 0.52134 0.0
C446 C 0.41354 0.34786 0.59555 0.0
C447 C 0.3877 0.3763 0.60827 0.0
C448 C 0.35041 0.38841 0.57311 0.0
C449 C 0.33783 0.36909 0.52956 0.0
C450 C 0.4543 0.33541 0.63025 0.0
C451 C 0.3215 0.41803 0.58541 0.0
C452 C 0.38395 0.37044 0.76033 0.0
C453 C 0.39909 0.40861 0.76687 0.0
C454 C 0.38093 0.35944 0.7093 0.0
C455 C 0.39513 0.38643 0.66378 0.0
C456 C 0.41358 0.42354 0.6711 0.0
C457 C 0.41478 0.43452 0.72231 0.0
C458 C 0.36067 0.31965 0.70353 0.0
C459 C 0.43059 0.4524 0.62439 0.0
H460 H 0.41697 0.30287 0.54717 0.0
H461 H 0.30785 0.37561 0.50551 0.0
H462 H 0.46986 0.36217 0.64242 0.0
H463 H 0.44991 0.31269 0.66879 0.0
H464 H 0.47428 0.32126 0.60769 0.0
H465 H 0.29643 0.42815 0.55047 0.0
H466 H 0.30801 0.403 0.62289 0.0
H467 H 0.33781 0.44539 0.59429 0.0
H468 H 0.37315 0.34943 0.79489 0.0
H469 H 0.42661 0.46408 0.72659 0.0
H470 H 0.38175 0.29988 0.6904 0.0
H471 H 0.33355 0.32591 0.67101 0.0
H472 H 0.35086 0.30236 0.74284 0.0
H473 H 0.44681 0.43527 0.60089 0.0
H474 H 0.45182 0.47452 0.63989 0.0
H475 H 0.40536 0.47 0.59506 0.0
C476 C 0.66356 0.66889 0.56993 0.0
C477 C 0.69685 0.657 0.61151 0.0
C478 C 0.65289 0.64633 0.52933 0.0
C479 C 0.6759 0.61084 0.53115 0.0
C480 C 0.7072 0.5968 0.57626 0.0
C481 C 0.71774 0.62051 0.61538 0.0
C482 C 0.61972 0.66279 0.48168 0.0
C483 C 0.73195 0.55871 0.58058 0.0
C484 C 0.6413 0.54261 0.43135 0.0
C485 C 0.66655 0.55559 0.39062 0.0
C486 C 0.64382 0.56024 0.47747 0.0
C487 C 0.67163 0.59214 0.48217 0.0
C488 C 0.69654 0.60589 0.44039 0.0
C489 C 0.69398 0.58715 0.39547 0.0
C490 C 0.61738 0.54424 0.52163 0.0
C491 C 0.72604 0.64039 0.44316 0.0
H492 H 0.64827 0.69776 0.5665 0.0
H493 H 0.74406 0.61207 0.64699 0.0
H494 H 0.63366 0.67649 0.4441 0.0
H495 H 0.5997 0.63786 0.47195 0.0
H496 H 0.60082 0.68668 0.49064 0.0
H497 H 0.75012 0.54826 0.62236 0.0
H498 H 0.71195 0.53351 0.57168 0.0
H499 H 0.75313 0.56509 0.54939 0.0
H500 H 0.62022 0.51803 0.42769 0.0
H501 H 0.71317 0.59748 0.36364 0.0
H502 H 0.59891 0.56955 0.52763 0.0
H503 H 0.63681 0.53155 0.56181 0.0
H504 H 0.59663 0.51997 0.51117 0.0
H505 H 0.70973 0.66799 0.44658 0.0
H506 H 0.74193 0.64857 0.40616 0.0
H507 H 0.7492 0.63157 0.48069 0.0
C508 C 0.86444 0.20795 0.98646 0.0
C509 C 0.84162 0.18501 0.02526 0.0
C510 C 0.88577 0.18908 0.95455 0.0
C511 C 0.88493 0.14597 0.96236 0.0
C512 C 0.86294 0.12244 1.00291 0.0
C513 C 0.84122 0.14234 0.03365 0.0
C514 C 0.90864 0.2154 0.91178 0.0
C515 C 0.86197 0.07639 1.01329 0.0
C516 C 0.90907 0.10328 0.84219 0.0
C517 C 0.95056 0.09314 0.85807 0.0
C518 C 0.88716 0.11979 0.87616 0.0
C519 C 0.90699 0.12587 0.92768 0.0
C520 C 0.94859 0.11504 0.94447 0.0
C521 C 0.9699 0.09928 0.90933 0.0
C522 C 0.84292 0.13136 0.85649 0.0
C523 C 0.97084 0.1208 0.99919 0.0
H524 H 0.86504 0.24092 0.9807 0.0
H525 H 0.82339 0.12474 0.06357 0.0
H526 H 0.94128 0.20641 0.92062 0.0
H527 H 0.89676 0.21065 0.86998 0.0
H528 H 0.90607 0.24851 0.91074 0.0
H529 H 0.84501 0.06248 0.04792 0.0
H530 H 0.84745 0.06725 0.97523 0.0
H531 H 0.89341 0.06359 0.02318 0.0
H532 H 0.89355 0.09813 0.80327 0.0
H533 H 1.00207 0.09242 0.92181 0.0
H534 H 0.83852 0.16469 0.85207 0.0
H535 H 0.82405 0.11523 0.88763 0.0
H536 H 0.83167 0.12385 0.81603 0.0
H537 H 0.97263 0.15391 0.9986 0.0
H538 H 1.0022 0.10774 1.00827 0.0
H539 H 0.954 0.10615 0.03357 0.0
C540 C 0.4016 0.34058 0.40875 0.0
C541 C 0.35923 0.33764 0.39899 0.0
C542 C 0.4229 0.36465 0.36858 0.0
C543 C 0.40132 0.38548 0.31682 0.0
C544 C 0.35838 0.3832 0.30722 0.0
C545 C 0.33787 0.35975 0.34872 0.0
C546 C 0.46857 0.36697 0.38099 0.0
C547 C 0.33418 0.40414 0.25233 0.0
C548 C 0.45006 0.47331 0.22378 0.0
C549 C 0.4639 0.45387 0.18585 0.0
C550 C 0.4303 0.45132 0.26711 0.0
C551 C 0.42365 0.40893 0.27229 0.0
C552 C 0.43795 0.38905 0.23447 0.0
C553 C 0.4585 0.41164 0.19235 0.0
C554 C 0.41616 0.47356 0.30704 0.0
C555 C 0.43081 0.34409 0.23774 0.0
H556 H 0.4182 0.32293 0.44708 0.0
H557 H 0.30504 0.35793 0.34149 0.0
H558 H 0.48283 0.35236 0.35285 0.0
H559 H 0.47809 0.39941 0.3733 0.0
H560 H 0.48046 0.35151 0.42456 0.0
H561 H 0.3009 0.40281 0.2534 0.0
H562 H 0.34292 0.43665 0.24 0.0
H563 H 0.34098 0.38894 0.21976 0.0
H564 H 0.45428 0.50594 0.21936 0.0
H565 H 0.47021 0.39622 0.16431 0.0
H566 H 0.42888 0.45831 0.35032 0.0
H567 H 0.38256 0.47234 0.30389 0.0
H568 H 0.42529 0.50616 0.29889 0.0
H569 H 0.44195 0.32578 0.28008 0.0
H570 H 0.44607 0.33267 0.20751 0.0
H571 H 0.39769 0.33879 0.22919 0.0
C572 C 0.16992 0.89668 0.94995 0.0
C573 C 0.17629 0.85466 0.95651 0.0
C574 C 0.14355 0.91908 0.90427 0.0
C575 C 0.12427 0.899 0.86366 0.0
C576 C 0.12863 0.85605 0.87231 0.0
C577 C 0.15385 0.83434 0.91938 0.0
C578 C 0.13748 0.96437 0.89844 0.0
C579 C 0.10984 0.83339 0.82957 0.0
C580 C 0.04153 0.94721 0.74616 0.0
C581 C 0.06428 0.96277 0.7031 0.0
C582 C 0.0607 0.92815 0.79954 0.0
C583 C 0.10347 0.92307 0.80944 0.0
C584 C 0.12657 0.93904 0.76624 0.0
C585 C 0.10671 0.95954 0.71404 0.0
C586 C 0.03519 0.91317 0.84511 0.0
C587 C 0.17221 0.93354 0.77466 0.0
H588 H 0.18706 0.91231 0.97897 0.0
H589 H 0.15801 0.80159 0.92558 0.0
H590 H 0.14446 0.98199 0.85767 0.0
H591 H 0.10516 0.97058 0.90031 0.0
H592 H 0.15669 0.97576 0.9318 0.0
H593 H 0.11078 0.7997 0.84631 0.0
H594 H 0.07786 0.84326 0.81364 0.0
H595 H 0.12706 0.84045 0.79393 0.0
H596 H 1.00866 0.95008 0.73824 0.0
H597 H 0.12447 0.97292 0.68167 0.0
H598 H 0.04789 0.9239 0.88274 0.0
H599 H 0.03573 0.87923 0.85668 0.0
H600 H 1.00306 0.92389 0.83243 0.0
H601 H 0.18632 0.94462 0.81137 0.0
H602 H 0.1859 0.95013 0.73807 0.0
H603 H 0.17995 0.90048 0.78262 0.0
loop_
_geom_bond_atom_site_label_1
_geom_bond_atom_site_label_2
_geom_bond_distance
_geom_bond_site_symmetry_2
_ccdc_geom_bond_type
C0 N1 1.317 . S
C0 N2 1.348 1_556 S
C0 C3 1.485 . S
N1 C0 1.317 . S
N1 N5 1.370 1_556 S
N2 C0 1.348 1_554 S
N2 C4 1.346 . S
C3 C0 1.485 . S
C3 H7 0.960 . S
C3 H8 0.961 . S
C3 H9 0.960 . S
C4 N2 1.346 . S
C4 N5 1.307 . S
C4 C6 1.486 . S
N5 N1 1.370 1_554 S
N5 C4 1.307 . S
C6 C4 1.486 . S
C6 H10 0.960 . S
C6 H11 0.960 . S
C6 H12 0.959 . S
H7 C3 0.960 . S
H8 C3 0.961 . S
H9 C3 0.960 . S
H10 C6 0.960 . S
H11 C6 0.960 . S
H12 C6 0.959 . S
C13 N14 1.317 . S
C13 N15 1.348 . S
C13 C16 1.485 . S
N14 C13 1.317 . S
N14 N18 1.370 . S
N15 C13 1.348 . S
N15 C17 1.346 . S
C16 C13 1.485 . S
C16 H20 0.960 . S
C16 H21 0.961 . S
C16 H22 0.960 . S
C17 N15 1.346 . S
C17 N18 1.307 . S
C17 C19 1.486 . S
N18 N14 1.370 . S
N18 C17 1.307 . S
C19 C17 1.486 . S
C19 H23 0.960 . S
C19 H24 0.960 . S
C19 H25 0.959 . S
H20 C16 0.960 . S
H21 C16 0.961 . S
H22 C16 0.960 . S
H23 C19 0.960 . S
H24 C19 0.960 . S
H25 C19 0.959 . S
C26 N27 1.317 . S
C26 N28 1.348 . S
C26 C29 1.485 . S
N27 C26 1.317 . S
N27 N31 1.370 . S
N28 C26 1.348 . S
N28 C30 1.346 . S
C29 C26 1.485 . S
C29 H33 0.960 . S
C29 H34 0.961 . S
C29 H35 0.960 . S
C30 N28 1.346 . S
C30 N31 1.307 . S
C30 C32 1.486 1_554 S
N31 N27 1.370 . S
N31 C30 1.307 . S
C32 C30 1.486 1_556 S
C32 H36 0.960 . S
C32 H37 0.960 . S
C32 H38 0.959 . S
H33 C29 0.960 . S
H34 C29 0.961 . S
H35 C29 0.960 . S
H36 C32 0.960 . S
H37 C32 0.960 . S
H38 C32 0.959 . S
C39 N40 1.317 . S
C39 N41 1.348 . S
C39 C42 1.485 . S
N40 C39 1.317 . S
N40 N44 1.370 . S
N41 C39 1.348 . S
N41 C43 1.346 . S
C42 C39 1.485 . S
C42 H46 0.960 . S
C42 H47 0.961 . S
C42 H48 0.960 . S
C43 N41 1.346 . S
C43 N44 1.307 . S
C43 C45 1.486 . S
N44 N40 1.370 . S
N44 C43 1.307 . S
C45 C43 1.486 . S
C45 H49 0.960 . S
C45 H50 0.960 . S
C45 H51 0.959 . S
H46 C42 0.960 . S
H47 C42 0.961 . S
H48 C42 0.960 . S
H49 C45 0.960 . S
H50 C45 0.960 . S
H51 C45 0.959 . S
Tb52 N81 2.617 . S
Tb52 N87 2.572 . S
Tb52 O96 2.465 . S
Tb52 O97 2.387 . S
Tb52 O99 2.428 . S
Tb52 O100 2.308 1_565 S
Tb52 O104 2.349 1_465 S
Tb52 O107 2.393 1_455 S
Tb52 C116 2.802 . S
C53 N54 1.379 . S
C53 C56 1.416 . S
C53 C60 1.424 . S
N54 C53 1.379 . S
N54 C57 1.334 1_655 S
N54 Tb63 2.617 . S
C55 C57 1.390 . S
C55 C58 1.339 1_455 S
C55 H75 0.930 . S
C56 C53 1.416 . S
C56 C58 1.416 . S
C56 C62 1.448 . S
C57 N54 1.334 1_455 S
C57 C55 1.390 . S
C57 H68 0.930 . S
C58 C55 1.339 1_655 S
C58 C56 1.416 . S
C58 H79 0.930 . S
C59 C60 1.413 . S
C59 C61 1.427 . S
C59 C65 1.416 . S
C60 C53 1.424 . S
C60 C59 1.413 . S
C60 N64 1.361 . S
C61 C59 1.427 . S
C61 C62 1.328 . S
C61 H76 0.929 . S
C62 C56 1.448 . S
C62 C61 1.328 . S
C62 H77 0.930 . S
Tb63 N54 2.617 . S
Tb63 N64 2.572 . S
Tb63 O98 2.349 1_655 S
Tb63 O101 2.393 1_655 S
Tb63 O102 2.465 . S
Tb63 O103 2.387 . S
Tb63 O105 2.428 . S
Tb63 O106 2.308 1_545 S
Tb63 C127 2.802 . S
N64 C60 1.361 . S
N64 Tb63 2.572 . S
N64 C66 1.340 . S
C65 C59 1.416 . S
C65 C67 1.332 . S
C65 H73 0.931 . S
C66 N64 1.340 . S
C66 C67 1.407 . S
C66 H72 0.930 . S
C67 C65 1.332 . S
C67 C66 1.407 . S
C67 H69 0.929 . S
H68 C57 0.930 . S
H69 C67 0.929 . S
H70 C85 0.930 1_655 S
H71 C92 0.929 . S
H72 C66 0.930 . S
H73 C65 0.931 . S
H74 C88 0.930 . S
H75 C55 0.930 . S
H76 C61 0.929 . S
H77 C62 0.930 . S
H78 C83 0.930 1_655 S
H79 C58 0.930 . S
H80 C91 0.931 . S
N81 Tb52 2.617 . S
N81 C82 1.379 . S
N81 C85 1.334 . S
C82 N81 1.379 . S
C82 C84 1.416 . S
C82 C90 1.424 . S
C83 H78 0.930 1_455 S
C83 C85 1.390 . S
C83 C86 1.339 . S
C84 C82 1.416 . S
C84 C86 1.416 . S
C84 C117 1.448 . S
C85 H70 0.930 1_455 S
C85 N81 1.334 . S
C85 C83 1.390 . S
C86 C83 1.339 . S
C86 C84 1.416 . S
C86 H93 0.930 . S
N87 Tb52 2.572 . S
N87 C88 1.340 . S
N87 C90 1.361 . S
C88 H74 0.930 . S
C88 N87 1.340 . S
C88 C92 1.407 . S
C89 C90 1.413 . S
C89 C91 1.416 . S
C89 C118 1.427 . S
C90 C82 1.424 . S
C90 N87 1.361 . S
C90 C89 1.413 . S
C91 H80 0.931 . S
C91 C89 1.416 . S
C91 C92 1.332 . S
C92 H71 0.929 . S
C92 C88 1.407 . S
C92 C91 1.332 . S
H93 C86 0.930 . S
H94 C117 0.930 . S
H95 C118 0.929 . S
O96 Tb52 2.465 . S
O96 C116 1.264 . S
O97 Tb52 2.387 . S
O97 C108 1.264 . S
O98 Tb63 2.349 1_455 S
O98 C108 1.243 1_545 S
O99 Tb52 2.428 . S
O99 C116 1.256 . S
O100 Tb52 2.308 1_545 S
O100 C115 1.266 . S
O101 Tb63 2.393 1_455 S
O101 C115 1.248 . S
O102 Tb63 2.465 . S
O102 C127 1.264 . S
O103 Tb63 2.387 . S
O103 C119 1.264 . S
O104 Tb52 2.349 1_645 S
O104 C119 1.243 . S
O105 Tb63 2.428 . S
O105 C127 1.256 . S
O106 Tb63 2.308 1_565 S
O106 C126 1.266 . S
O107 Tb52 2.393 1_655 S
O107 C126 1.248 . S
C108 O97 1.264 . S
C108 O98 1.243 1_565 S
C109 C112 1.399 . S
C109 C114 1.383 . S
C109 C116 1.496 . S
C110 C111 1.399 . S
C110 C114 1.389 . S
C111 C110 1.399 . S
C111 C113 1.380 . S
C111 H128 0.929 . S
C112 C109 1.399 . S
C112 C113 1.392 . S
C112 H129 0.929 . S
C113 C111 1.380 . S
C113 C112 1.392 . S
C113 H130 0.929 . S
C114 C109 1.383 . S
C114 C110 1.389 . S
C114 H131 0.931 . S
C115 O100 1.266 . S
C115 O101 1.248 . S
C116 Tb52 2.802 . S
C116 O96 1.264 . S
C116 O99 1.256 . S
C116 C109 1.496 . S
C117 C84 1.448 . S
C117 H94 0.930 . S
C117 C118 1.328 . S
C118 C89 1.427 . S
C118 H95 0.929 . S
C118 C117 1.328 . S
C119 O103 1.264 . S
C119 O104 1.243 . S
C120 C123 1.399 . S
C120 C124 1.383 . S
C120 C127 1.496 . S
C121 C122 1.399 . S
C121 C124 1.389 . S
C122 C121 1.399 . S
C122 C125 1.380 . S
C122 H132 0.929 . S
C123 C120 1.399 . S
C123 C125 1.392 . S
C123 H133 0.929 . S
C124 C120 1.383 . S
C124 C121 1.389 . S
C124 H134 0.931 . S
C125 C122 1.380 . S
C125 C123 1.392 . S
C125 H135 0.929 . S
C126 O106 1.266 . S
C126 O107 1.248 . S
C127 Tb63 2.802 . S
C127 O102 1.264 . S
C127 O105 1.256 . S
C127 C120 1.496 . S
H128 C111 0.929 . S
H129 C112 0.929 . S
H130 C113 0.929 . S
H131 C114 0.931 . S
H132 C122 0.929 . S
H133 C123 0.929 . S
H134 C124 0.931 . S
H135 C125 0.929 . S
Tb136 N165 2.617 1_556 S
Tb136 N171 2.572 1_556 S
Tb136 O180 2.465 . S
Tb136 O181 2.387 1_556 S
Tb136 O183 2.428 . S
Tb136 O184 2.308 1_556 S
Tb136 O188 2.349 . S
Tb136 O191 2.393 1_556 S
Tb136 C200 2.802 . S
C137 N138 1.379 . S
C137 C140 1.416 . S
C137 C144 1.424 . S
N138 C137 1.379 . S
N138 C141 1.334 . S
N138 Tb147 2.617 . S
C139 C141 1.390 . S
C139 C142 1.339 . S
C139 H159 0.930 . S
C140 C137 1.416 . S
C140 C142 1.416 . S
C140 C146 1.448 . S
C141 N138 1.334 . S
C141 C139 1.390 . S
C141 H152 0.930 . S
C142 C139 1.339 . S
C142 C140 1.416 . S
C142 H163 0.930 . S
C143 C144 1.413 . S
C143 C145 1.427 . S
C143 C149 1.416 . S
C144 C137 1.424 . S
C144 C143 1.413 . S
C144 N148 1.361 . S
C145 C143 1.427 . S
C145 C146 1.328 . S
C145 H160 0.929 . S
C146 C140 1.448 . S
C146 C145 1.328 . S
C146 H161 0.930 . S
Tb147 N138 2.617 . S
Tb147 N148 2.572 . S
Tb147 O182 2.349 . S
Tb147 O185 2.393 . S
Tb147 O186 2.465 . S
Tb147 O187 2.387 . S
Tb147 O189 2.428 . S
Tb147 O190 2.308 . S
Tb147 C211 2.802 . S
N148 C144 1.361 . S
N148 Tb147 2.572 . S
N148 C150 1.340 . S
C149 C143 1.416 . S
C149 C151 1.332 . S
C149 H157 0.931 . S
C150 N148 1.340 . S
C150 C151 1.407 . S
C150 H156 0.930 . S
C151 C149 1.332 . S
C151 C150 1.407 . S
C151 H153 0.929 . S
H152 C141 0.930 . S
H153 C151 0.929 . S
H154 C169 0.930 . S
H155 C176 0.929 . S
H156 C150 0.930 . S
H157 C149 0.931 . S
H158 C172 0.930 . S
H159 C139 0.930 . S
H160 C145 0.929 . S
H161 C146 0.930 . S
H162 C167 0.930 . S
H163 C142 0.930 . S
H164 C175 0.931 . S
N165 Tb136 2.617 1_554 S
N165 C166 1.380 . S
N165 C169 1.335 1_554 S
C166 N165 1.380 . S
C166 C168 1.416 . S
C166 C174 1.424 . S
C167 H162 0.930 . S
C167 C169 1.390 . S
C167 C170 1.339 1_556 S
C168 C166 1.416 . S
C168 C170 1.416 . S
C168 C201 1.448 . S
C169 H154 0.930 . S
C169 N165 1.335 1_556 S
C169 C167 1.390 . S
C170 C167 1.339 1_554 S
C170 C168 1.416 . S
C170 H177 0.930 . S
N171 Tb136 2.572 1_554 S
N171 C172 1.340 . S
N171 C174 1.361 . S
C172 H158 0.930 . S
C172 N171 1.340 . S
C172 C176 1.407 . S
C173 C174 1.413 . S
C173 C175 1.416 . S
C173 C202 1.427 . S
C174 C166 1.424 . S
C174 N171 1.361 . S
C174 C173 1.413 . S
C175 H164 0.931 . S
C175 C173 1.416 . S
C175 C176 1.332 . S
C176 H155 0.929 . S
C176 C172 1.407 . S
C176 C175 1.332 . S
H177 C170 0.930 . S
H178 C201 0.930 . S
H179 C202 0.929 . S
O180 Tb136 2.465 . S
O180 C200 1.264 . S
O181 Tb136 2.387 1_554 S
O181 C192 1.264 . S
O182 Tb147 2.349 . S
O182 C192 1.243 . S
O183 Tb136 2.428 . S
O183 C200 1.256 . S
O184 Tb136 2.308 1_554 S
O184 C199 1.266 . S
O185 Tb147 2.393 . S
O185 C199 1.248 . S
O186 Tb147 2.465 . S
O186 C211 1.264 . S
O187 Tb147 2.387 . S
O187 C203 1.264 1_554 S
O188 Tb136 2.349 . S
O188 C203 1.243 . S
O189 Tb147 2.428 . S
O189 C211 1.256 . S
O190 Tb147 2.308 . S
O190 C210 1.266 . S
O191 Tb136 2.393 1_554 S
O191 C210 1.248 . S
C192 O181 1.264 . S
C192 O182 1.243 . S
C193 C196 1.399 . S
C193 C198 1.383 . S
C193 C200 1.496 . S
C194 C195 1.399 . S
C194 C198 1.389 . S
C195 C194 1.399 . S
C195 C197 1.380 . S
C195 H212 0.929 . S
C196 C193 1.399 . S
C196 C197 1.392 . S
C196 H213 0.929 . S
C197 C195 1.380 . S
C197 C196 1.392 . S
C197 H214 0.929 . S
C198 C193 1.383 . S
C198 C194 1.389 . S
C198 H215 0.931 . S
C199 O184 1.266 . S
C199 O185 1.248 . S
C200 Tb136 2.802 . S
C200 O180 1.264 . S
C200 O183 1.256 . S
C200 C193 1.496 . S
C201 C168 1.448 . S
C201 H178 0.930 . S
C201 C202 1.328 . S
C202 C173 1.427 . S
C202 H179 0.929 . S
C202 C201 1.328 . S
C203 O187 1.264 1_556 S
C203 O188 1.243 . S
C204 C207 1.399 . S
C204 C208 1.383 . S
C204 C211 1.496 . S
C205 C206 1.399 . S
C205 C208 1.389 . S
C206 C205 1.399 . S
C206 C209 1.380 . S
C206 H216 0.929 . S
C207 C204 1.399 . S
C207 C209 1.392 . S
C207 H217 0.929 . S
C208 C204 1.383 . S
C208 C205 1.389 . S
C208 H218 0.931 . S
C209 C206 1.380 . S
C209 C207 1.392 . S
C209 H219 0.929 . S
C210 O190 1.266 . S
C210 O191 1.248 . S
C211 Tb147 2.802 . S
C211 O186 1.264 . S
C211 O189 1.256 . S
C211 C204 1.496 . S
H212 C195 0.929 . S
H213 C196 0.929 . S
H214 C197 0.929 . S
H215 C198 0.931 . S
H216 C206 0.929 . S
H217 C207 0.929 . S
H218 C208 0.931 . S
H219 C209 0.929 . S
C220 C221 1.391 . S
C220 C222 1.394 . S
C220 H236 0.931 . S
C221 C220 1.391 . S
C221 C225 1.376 . S
C222 C220 1.394 . S
C222 C223 1.369 . S
C222 C226 1.531 . S
C223 C222 1.369 . S
C223 C224 1.410 . S
C223 C231 1.503 . S
C224 C223 1.410 . S
C224 C225 1.392 . S
C224 C227 1.511 . S
C225 C221 1.376 . S
C225 C224 1.392 . S
C225 H237 0.929 . S
C226 C222 1.531 . S
C226 H238 0.960 . S
C226 H239 0.962 . S
C226 H240 0.960 . S
C227 C224 1.511 . S
C227 H241 0.961 . S
C227 H242 0.961 . S
C227 H243 0.961 . S
C228 C229 1.370 . S
C228 C230 1.363 . S
C228 H244 0.931 . S
C229 C228 1.370 . S
C229 C233 1.408 . S
C230 C228 1.363 . S
C230 C231 1.370 . S
C230 C234 1.524 . S
C231 C223 1.503 . S
C231 C230 1.370 . S
C231 C232 1.403 . S
C232 C231 1.403 . S
C232 C233 1.404 . S
C232 C235 1.539 . S
C233 C229 1.408 . S
C233 C232 1.404 . S
C233 H245 0.930 . S
C234 C230 1.524 . S
C234 H246 0.956 . S
C234 H247 0.961 . S
C234 H248 0.961 . S
C235 C232 1.539 . S
C235 H249 0.958 . S
C235 H250 0.961 . S
C235 H251 0.960 . S
H236 C220 0.931 . S
H237 C225 0.929 . S
H238 C226 0.960 . S
H239 C226 0.962 . S
H240 C226 0.960 . S
H241 C227 0.961 . S
H242 C227 0.961 . S
H243 C227 0.961 . S
H244 C228 0.931 . S
H245 C233 0.930 . S
H246 C234 0.956 . S
H247 C234 0.961 . S
H248 C234 0.961 . S
H249 C235 0.958 . S
H250 C235 0.961 . S
H251 C235 0.960 . S
C252 C253 1.391 . S
C252 C254 1.394 . S
C252 H268 0.931 . S
C253 C252 1.391 . S
C253 C257 1.376 1_554 S
C254 C252 1.394 . S
C254 C255 1.369 . S
C254 C258 1.531 . S
C255 C254 1.369 . S
C255 C256 1.410 1_554 S
C255 C263 1.503 . S
C256 C255 1.410 1_556 S
C256 C257 1.392 . S
C256 C259 1.511 . S
C257 C253 1.376 1_556 S
C257 C256 1.392 . S
C257 H269 0.929 . S
C258 C254 1.531 . S
C258 H270 0.960 . S
C258 H271 0.962 . S
C258 H272 0.960 . S
C259 C256 1.511 . S
C259 H273 0.961 . S
C259 H274 0.961 . S
C259 H275 0.961 . S
C260 C261 1.370 . S
C260 C262 1.363 . S
C260 H276 0.931 . S
C261 C260 1.370 . S
C261 C265 1.408 . S
C262 C260 1.363 . S
C262 C263 1.370 . S
C262 C266 1.524 . S
C263 C255 1.503 . S
C263 C262 1.370 . S
C263 C264 1.403 . S
C264 C263 1.403 . S
C264 C265 1.404 . S
C264 C267 1.539 . S
C265 C261 1.408 . S
C265 C264 1.404 . S
C265 H277 0.930 . S
C266 C262 1.524 . S
C266 H278 0.956 . S
C266 H279 0.961 . S
C266 H280 0.961 . S
C267 C264 1.539 . S
C267 H281 0.958 . S
C267 H282 0.961 1_554 S
C267 H283 0.960 1_554 S
H268 C252 0.931 . S
H269 C257 0.929 . S
H270 C258 0.960 . S
H271 C258 0.962 . S
H272 C258 0.960 . S
H273 C259 0.961 . S
H274 C259 0.961 . S
H275 C259 0.961 . S
H276 C260 0.931 . S
H277 C265 0.930 . S
H278 C266 0.956 . S
H279 C266 0.961 . S
H280 C266 0.961 . S
H281 C267 0.958 . S
H282 C267 0.961 1_556 S
H283 C267 0.960 1_556 S
C284 C285 1.391 . S
C284 C286 1.394 . S
C284 H300 0.931 . S
C285 C284 1.391 . S
C285 C289 1.376 . S
C286 C284 1.394 . S
C286 C287 1.369 . S
C286 C290 1.531 . S
C287 C286 1.369 . S
C287 C288 1.410 . S
C287 C295 1.503 . S
C288 C287 1.410 . S
C288 C289 1.392 . S
C288 C291 1.511 . S
C289 C285 1.376 . S
C289 C288 1.392 . S
C289 H301 0.929 . S
C290 C286 1.531 . S
C290 H302 0.960 . S
C290 H303 0.962 . S
C290 H304 0.960 . S
C291 C288 1.511 . S
C291 H305 0.961 . S
C291 H306 0.961 . S
C291 H307 0.961 . S
C292 C293 1.370 . S
C292 C294 1.363 . S
C292 H308 0.931 . S
C293 C292 1.370 . S
C293 C297 1.408 . S
C294 C292 1.363 . S
C294 C295 1.370 . S
C294 C298 1.524 . S
C295 C287 1.503 . S
C295 C294 1.370 . S
C295 C296 1.403 . S
C296 C295 1.403 . S
C296 C297 1.404 . S
C296 C299 1.539 . S
C297 C293 1.408 . S
C297 C296 1.404 . S
C297 H309 0.930 . S
C298 C294 1.524 . S
C298 H310 0.956 . S
C298 H311 0.961 . S
C298 H312 0.961 . S
C299 C296 1.539 . S
C299 H313 0.958 . S
C299 H314 0.961 . S
C299 H315 0.960 . S
H300 C284 0.931 . S
H301 C289 0.929 . S
H302 C290 0.960 . S
H303 C290 0.962 . S
H304 C290 0.960 . S
H305 C291 0.961 . S
H306 C291 0.961 . S
H307 C291 0.961 . S
H308 C292 0.931 . S
H309 C297 0.930 . S
H310 C298 0.956 . S
H311 C298 0.961 . S
H312 C298 0.961 . S
H313 C299 0.958 . S
H314 C299 0.961 . S
H315 C299 0.960 . S
C316 C317 1.391 . S
C316 C318 1.394 . S
C316 H332 0.931 . S
C317 C316 1.391 . S
C317 C321 1.376 . S
C318 C316 1.394 . S
C318 C319 1.369 . S
C318 C322 1.531 . S
C319 C318 1.369 . S
C319 C320 1.410 . S
C319 C327 1.503 . S
C320 C319 1.410 . S
C320 C321 1.392 . S
C320 C323 1.511 1_554 S
C321 C317 1.376 . S
C321 C320 1.392 . S
C321 H333 0.929 . S
C322 C318 1.531 . S
C322 H334 0.960 . S
C322 H335 0.962 . S
C322 H336 0.960 . S
C323 C320 1.511 1_556 S
C323 H337 0.961 . S
C323 H338 0.961 1_556 S
C323 H339 0.961 . S
C324 C325 1.370 . S
C324 C326 1.363 . S
C324 H340 0.931 . S
C325 C324 1.370 . S
C325 C329 1.408 . S
C326 C324 1.363 . S
C326 C327 1.370 . S
C326 C330 1.524 . S
C327 C319 1.503 . S
C327 C326 1.370 . S
C327 C328 1.403 . S
C328 C327 1.403 . S
C328 C329 1.404 . S
C328 C331 1.539 1_554 S
C329 C325 1.408 . S
C329 C328 1.404 . S
C329 H341 0.930 1_554 S
C330 C326 1.524 . S
C330 H342 0.956 . S
C330 H343 0.961 . S
C330 H344 0.961 . S
C331 C328 1.539 1_556 S
C331 H345 0.958 . S
C331 H346 0.961 . S
C331 H347 0.960 . S
H332 C316 0.931 . S
H333 C321 0.929 . S
H334 C322 0.960 . S
H335 C322 0.962 . S
H336 C322 0.960 . S
H337 C323 0.961 . S
H338 C323 0.961 1_554 S
H339 C323 0.961 . S
H340 C324 0.931 . S
H341 C329 0.930 1_556 S
H342 C330 0.956 . S
H343 C330 0.961 . S
H344 C330 0.961 . S
H345 C331 0.958 . S
H346 C331 0.961 . S
H347 C331 0.960 . S
C348 C349 1.391 . S
C348 C350 1.394 . S
C348 H364 0.931 . S
C349 C348 1.391 . S
C349 C353 1.376 . S
C350 C348 1.394 . S
C350 C351 1.369 . S
C350 C354 1.531 . S
C351 C350 1.369 . S
C351 C352 1.410 . S
C351 C359 1.503 . S
C352 C351 1.410 . S
C352 C353 1.392 . S
C352 C355 1.511 . S
C353 C349 1.376 . S
C353 C352 1.392 . S
C353 H365 0.929 . S
C354 C350 1.531 . S
C354 H366 0.960 . S
C354 H367 0.962 . S
C354 H368 0.960 . S
C355 C352 1.511 . S
C355 H369 0.961 . S
C355 H370 0.961 . S
C355 H371 0.961 . S
C356 C357 1.370 . S
C356 C358 1.363 . S
C356 H372 0.931 . S
C357 C356 1.370 . S
C357 C361 1.408 . S
C358 C356 1.363 . S
C358 C359 1.370 . S
C358 C362 1.524 . S
C359 C351 1.503 . S
C359 C358 1.370 . S
C359 C360 1.403 . S
C360 C359 1.403 . S
C360 C361 1.404 . S
C360 C363 1.539 . S
C361 C357 1.408 . S
C361 C360 1.404 . S
C361 H373 0.930 1_565 S
C362 C358 1.524 . S
C362 H374 0.956 . S
C362 H375 0.961 . S
C362 H376 0.961 . S
C363 C360 1.539 . S
C363 H377 0.958 1_565 S
C363 H378 0.961 1_565 S
C363 H379 0.960 . S
H364 C348 0.931 . S
H365 C353 0.929 . S
H366 C354 0.960 . S
H367 C354 0.962 . S
H368 C354 0.960 . S
H369 C355 0.961 . S
H370 C355 0.961 . S
H371 C355 0.961 . S
H372 C356 0.931 . S
H373 C361 0.930 1_545 S
H374 C362 0.956 . S
H375 C362 0.961 . S
H376 C362 0.961 . S
H377 C363 0.958 1_545 S
H378 C363 0.961 1_545 S
H379 C363 0.960 . S
C380 C381 1.391 . S
C380 C382 1.394 . S
C380 H396 0.931 . S
C381 C380 1.391 . S
C381 C385 1.376 . S
C382 C380 1.394 . S
C382 C383 1.369 . S
C382 C386 1.531 . S
C383 C382 1.369 . S
C383 C384 1.410 . S
C383 C391 1.503 . S
C384 C383 1.410 . S
C384 C385 1.392 . S
C384 C387 1.511 . S
C385 C381 1.376 . S
C385 C384 1.392 . S
C385 H397 0.929 . S
C386 C382 1.531 . S
C386 H398 0.960 . S
C386 H399 0.962 . S
C386 H400 0.960 . S
C387 C384 1.511 . S
C387 H401 0.961 . S
C387 H402 0.961 . S
C387 H403 0.961 . S
C388 C389 1.370 . S
C388 C390 1.363 . S
C388 H404 0.931 . S
C389 C388 1.370 . S
C389 C393 1.408 . S
C390 C388 1.363 . S
C390 C391 1.370 . S
C390 C394 1.524 . S
C391 C383 1.503 . S
C391 C390 1.370 . S
C391 C392 1.403 . S
C392 C391 1.403 . S
C392 C393 1.404 . S
C392 C395 1.539 . S
C393 C389 1.408 . S
C393 C392 1.404 . S
C393 H405 0.930 . S
C394 C390 1.524 . S
C394 H406 0.956 . S
C394 H407 0.961 . S
C394 H408 0.961 . S
C395 C392 1.539 . S
C395 H409 0.958 . S
C395 H410 0.961 . S
C395 H411 0.960 . S
H396 C380 0.931 . S
H397 C385 0.929 . S
H398 C386 0.960 . S
H399 C386 0.962 . S
H400 C386 0.960 . S
H401 C387 0.961 . S
H402 C387 0.961 . S
H403 C387 0.961 . S
H404 C388 0.931 . S
H405 C393 0.930 . S
H406 C394 0.956 . S
H407 C394 0.961 . S
H408 C394 0.961 . S
H409 C395 0.958 . S
H410 C395 0.961 . S
H411 C395 0.960 . S
C412 C413 1.391 . S
C412 C414 1.394 . S
C412 H428 0.931 . S
C413 C412 1.391 . S
C413 C417 1.376 . S
C414 C412 1.394 . S
C414 C415 1.369 . S
C414 C418 1.531 . S
C415 C414 1.369 . S
C415 C416 1.410 . S
C415 C423 1.503 . S
C416 C415 1.410 . S
C416 C417 1.392 . S
C416 C419 1.511 . S
C417 C413 1.376 . S
C417 C416 1.392 . S
C417 H429 0.929 . S
C418 C414 1.531 . S
C418 H430 0.960 . S
C418 H431 0.962 . S
C418 H432 0.960 . S
C419 C416 1.511 . S
C419 H433 0.961 . S
C419 H434 0.961 . S
C419 H435 0.961 . S
C420 C421 1.370 . S
C420 C422 1.363 . S
C420 H436 0.931 . S
C421 C420 1.370 . S
C421 C425 1.408 . S
C422 C420 1.363 . S
C422 C423 1.370 . S
C422 C426 1.524 . S
C423 C415 1.503 . S
C423 C422 1.370 . S
C423 C424 1.403 . S
C424 C423 1.403 . S
C424 C425 1.404 . S
C424 C427 1.539 . S
C425 C421 1.408 . S
C425 C424 1.404 . S
C425 H437 0.930 . S
C426 C422 1.524 . S
C426 H438 0.956 . S
C426 H439 0.961 . S
C426 H440 0.961 . S
C427 C424 1.539 . S
C427 H441 0.979 . S
C427 H442 0.961 . S
C427 H443 0.960 . S
H428 C412 0.931 . S
H429 C417 0.929 . S
H430 C418 0.960 . S
H431 C418 0.962 . S
H432 C418 0.960 . S
H433 C419 0.961 . S
H434 C419 0.961 . S
H435 C419 0.961 . S
H436 C420 0.931 . S
H437 C425 0.930 . S
H438 C426 0.956 . S
H439 C426 0.961 . S
H440 C426 0.961 . S
H441 C427 0.979 . S
H442 C427 0.961 . S
H443 C427 0.960 . S
C444 C445 1.391 . S
C444 C446 1.394 . S
C444 H460 0.931 . S
C445 C444 1.391 . S
C445 C449 1.376 . S
C446 C444 1.394 . S
C446 C447 1.369 . S
C446 C450 1.531 . S
C447 C446 1.369 . S
C447 C448 1.410 . S
C447 C455 1.503 . S
C448 C447 1.410 . S
C448 C449 1.392 . S
C448 C451 1.511 . S
C449 C445 1.376 . S
C449 C448 1.392 . S
C449 H461 0.929 . S
C450 C446 1.531 . S
C450 H462 0.960 . S
C450 H463 0.962 . S
C450 H464 0.960 . S
C451 C448 1.511 . S
C451 H465 0.961 . S
C451 H466 0.961 . S
C451 H467 0.961 . S
C452 C453 1.370 . S
C452 C454 1.363 . S
C452 H468 0.931 . S
C453 C452 1.370 . S
C453 C457 1.408 . S
C454 C452 1.363 . S
C454 C455 1.370 . S
C454 C458 1.524 . S
C455 C447 1.503 . S
C455 C454 1.370 . S
C455 C456 1.403 . S
C456 C455 1.403 . S
C456 C457 1.404 . S
C456 C459 1.539 . S
C457 C453 1.408 . S
C457 C456 1.404 . S
C457 H469 0.930 . S
C458 C454 1.524 . S
C458 H470 0.956 . S
C458 H471 0.961 . S
C458 H472 0.961 . S
C459 C456 1.539 . S
C459 H473 0.958 . S
C459 H474 0.961 . S
C459 H475 0.960 . S
H460 C444 0.931 . S
H461 C449 0.929 . S
H462 C450 0.960 . S
H463 C450 0.962 . S
H464 C450 0.960 . S
H465 C451 0.961 . S
H466 C451 0.961 . S
H467 C451 0.961 . S
H468 C452 0.931 . S
H469 C457 0.930 . S
H470 C458 0.956 . S
H471 C458 0.961 . S
H472 C458 0.961 . S
H473 C459 0.958 . S
H474 C459 0.961 . S
H475 C459 0.960 . S
C476 C477 1.391 . S
C476 C478 1.394 . S
C476 H492 0.931 . S
C477 C476 1.391 . S
C477 C481 1.376 . S
C478 C476 1.394 . S
C478 C479 1.369 . S
C478 C482 1.531 . S
C479 C478 1.369 . S
C479 C480 1.410 . S
C479 C487 1.503 . S
C480 C479 1.410 . S
C480 C481 1.392 . S
C480 C483 1.511 . S
C481 C477 1.376 . S
C481 C480 1.392 . S
C481 H493 0.929 . S
C482 C478 1.531 . S
C482 H494 0.960 . S
C482 H495 0.962 . S
C482 H496 0.960 . S
C483 C480 1.511 . S
C483 H497 0.961 . S
C483 H498 0.961 . S
C483 H499 0.961 . S
C484 C485 1.370 . S
C484 C486 1.363 . S
C484 H500 0.931 . S
C485 C484 1.370 . S
C485 C489 1.408 . S
C486 C484 1.363 . S
C486 C487 1.370 . S
C486 C490 1.524 . S
C487 C479 1.503 . S
C487 C486 1.370 . S
C487 C488 1.403 . S
C488 C487 1.403 . S
C488 C489 1.404 . S
C488 C491 1.539 . S
C489 C485 1.408 . S
C489 C488 1.404 . S
C489 H501 0.930 . S
C490 C486 1.524 . S
C490 H502 0.956 . S
C490 H503 0.961 . S
C490 H504 0.961 . S
C491 C488 1.539 . S
C491 H505 0.958 . S
C491 H506 0.961 . S
C491 H507 0.960 . S
H492 C476 0.931 . S
H493 C481 0.929 . S
H494 C482 0.960 . S
H495 C482 0.962 . S
H496 C482 0.960 . S
H497 C483 0.961 . S
H498 C483 0.961 . S
H499 C483 0.961 . S
H500 C484 0.931 . S
H501 C489 0.930 . S
H502 C490 0.956 . S
H503 C490 0.961 . S
H504 C490 0.961 . S
H505 C491 0.958 . S
H506 C491 0.961 . S
H507 C491 0.960 . S
C508 C509 1.391 1_556 S
C508 C510 1.394 . S
C508 H524 0.931 . S
C509 C508 1.391 1_554 S
C509 C513 1.376 . S
C510 C508 1.394 . S
C510 C511 1.369 . S
C510 C514 1.531 . S
C511 C510 1.369 . S
C511 C512 1.410 . S
C511 C519 1.503 . S
C512 C511 1.410 . S
C512 C513 1.392 1_556 S
C512 C515 1.511 1_556 S
C513 C509 1.376 . S
C513 C512 1.392 1_554 S
C513 H525 0.929 . S
C514 C510 1.531 . S
C514 H526 0.960 . S
C514 H527 0.962 . S
C514 H528 0.960 . S
C515 C512 1.511 1_554 S
C515 H529 0.961 . S
C515 H530 0.961 1_554 S
C515 H531 0.961 . S
C516 C517 1.370 . S
C516 C518 1.363 . S
C516 H532 0.931 . S
C517 C516 1.370 . S
C517 C521 1.408 . S
C518 C516 1.363 . S
C518 C519 1.370 . S
C518 C522 1.524 . S
C519 C511 1.503 . S
C519 C518 1.370 . S
C519 C520 1.403 . S
C520 C519 1.403 . S
C520 C521 1.404 . S
C520 C523 1.539 . S
C521 C517 1.408 . S
C521 C520 1.404 . S
C521 H533 0.930 . S
C522 C518 1.524 . S
C522 H534 0.956 . S
C522 H535 0.961 . S
C522 H536 0.961 . S
C523 C520 1.539 . S
C523 H537 0.958 . S
C523 H538 0.961 . S
C523 H539 0.960 . S
H524 C508 0.931 . S
H525 C513 0.929 . S
H526 C514 0.960 . S
H527 C514 0.962 . S
H528 C514 0.960 . S
H529 C515 0.961 . S
H530 C515 0.961 1_556 S
H531 C515 0.961 . S
H532 C516 0.931 . S
H533 C521 0.930 . S
H534 C522 0.956 . S
H535 C522 0.961 . S
H536 C522 0.961 . S
H537 C523 0.958 . S
H538 C523 0.961 . S
H539 C523 0.960 . S
C540 C541 1.391 . S
C540 C542 1.394 . S
C540 H556 0.931 . S
C541 C540 1.391 . S
C541 C545 1.376 . S
C542 C540 1.394 . S
C542 C543 1.369 . S
C542 C546 1.531 . S
C543 C542 1.369 . S
C543 C544 1.410 . S
C543 C551 1.503 . S
C544 C543 1.410 . S
C544 C545 1.392 . S
C544 C547 1.511 . S
C545 C541 1.376 . S
C545 C544 1.392 . S
C545 H557 0.929 . S
C546 C542 1.531 . S
C546 H558 0.960 . S
C546 H559 0.962 . S
C546 H560 0.960 . S
C547 C544 1.511 . S
C547 H561 0.961 . S
C547 H562 0.961 . S
C547 H563 0.961 . S
C548 C549 1.370 . S
C548 C550 1.363 . S
C548 H564 0.931 . S
C549 C548 1.370 . S
C549 C553 1.408 . S
C550 C548 1.363 . S
C550 C551 1.370 . S
C550 C554 1.524 . S
C551 C543 1.503 . S
C551 C550 1.370 . S
C551 C552 1.403 . S
C552 C551 1.403 . S
C552 C553 1.404 . S
C552 C555 1.539 . S
C553 C549 1.408 . S
C553 C552 1.404 . S
C553 H565 0.930 . S
C554 C550 1.524 . S
C554 H566 0.956 . S
C554 H567 0.961 . S
C554 H568 0.961 . S
C555 C552 1.539 . S
C555 H569 0.958 . S
C555 H570 0.961 . S
C555 H571 0.960 . S
H556 C540 0.931 . S
H557 C545 0.929 . S
H558 C546 0.960 . S
H559 C546 0.962 . S
H560 C546 0.960 . S
H561 C547 0.961 . S
H562 C547 0.961 . S
H563 C547 0.961 . S
H564 C548 0.931 . S
H565 C553 0.930 . S
H566 C554 0.956 . S
H567 C554 0.961 . S
H568 C554 0.961 . S
H569 C555 0.958 . S
H570 C555 0.961 . S
H571 C555 0.960 . S
C572 C573 1.391 . S
C572 C574 1.394 . S
C572 H588 0.931 . S
C573 C572 1.391 . S
C573 C577 1.376 . S
C574 C572 1.394 . S
C574 C575 1.369 . S
C574 C578 1.531 . S
C575 C574 1.369 . S
C575 C576 1.410 . S
C575 C583 1.503 . S
C576 C575 1.410 . S
C576 C577 1.392 . S
C576 C579 1.511 . S
C577 C573 1.376 . S
C577 C576 1.392 . S
C577 H589 0.929 . S
C578 C574 1.531 . S
C578 H590 0.960 . S
C578 H591 0.962 . S
C578 H592 0.960 . S
C579 C576 1.511 . S
C579 H593 0.961 . S
C579 H594 0.961 . S
C579 H595 0.961 . S
C580 C581 1.370 . S
C580 C582 1.363 . S
C580 H596 0.931 . S
C581 C580 1.370 . S
C581 C585 1.408 . S
C582 C580 1.363 . S
C582 C583 1.370 . S
C582 C586 1.524 . S
C583 C575 1.503 . S
C583 C582 1.370 . S
C583 C584 1.403 . S
C584 C583 1.403 . S
C584 C585 1.404 . S
C584 C587 1.539 . S
C585 C581 1.408 . S
C585 C584 1.404 . S
C585 H597 0.930 . S
C586 C582 1.524 . S
C586 H598 0.956 . S
C586 H599 0.961 . S
C586 H600 0.961 . S
C587 C584 1.539 . S
C587 H601 0.958 . S
C587 H602 0.961 . S
C587 H603 0.960 . S
H588 C572 0.931 . S
H589 C577 0.929 . S
H590 C578 0.960 . S
H591 C578 0.962 . S
H592 C578 0.960 . S
H593 C579 0.961 . S
H594 C579 0.961 . S
H595 C579 0.961 . S
H596 C580 0.931 . S
H597 C585 0.930 . S
H598 C586 0.956 . S
H599 C586 0.961 . S
H600 C586 0.961 . S
H601 C587 0.958 . S
H602 C587 0.961 . S
H603 C587 0.960 . S
C229 C115 1.653 . S
C221 N41 1.682 . S
C253 N2 1.629 . S
C261 C210 1.622 . S
C285 N15 1.674 . S
C293 C126 1.653 . S
C317 N28 1.632 . S
C325 C199 1.633 . S
C357 C110 1.417 . S
C349 N5 1.602 . S
C389 C203 1.674 . S
C381 N14 1.670 . S
C413 N27 1.594 . S
C421 C119 1.614 . S
C445 N44 1.576 . S
C453 C194 1.399 . S
C485 C205 1.433 . S
C477 N18 1.568 . S
C517 C121 1.382 . S
C509 N31 1.585 . S
C549 C192 1.669 . S
C541 N40 1.658 . S
C573 N1 1.578 . S
C581 C108 1.612 . S
