# Generated by pormake.
# Topology pyr, (3,6)-cn, num edge types: 1
# Building blocks:
#     Node 0, Type 0, BuildingBlock: MIDCAF_clean_linker_0, # of connection points: 3
#     Node 1, Type 0, BuildingBlock: MIDCAF_clean_linker_0, # of connection points: 3
#     Node 2, Type 0, BuildingBlock: MIDCAF_clean_linker_0, # of connection points: 3
#     Node 3, Type 0, BuildingBlock: MIDCAF_clean_linker_0, # of connection points: 3
#     Node 4, Type 0, BuildingBlock: MIDCAF_clean_linker_0, # of connection points: 3
#     Node 5, Type 0, BuildingBlock: MIDCAF_clean_linker_0, # of connection points: 3
#     Node 6, Type 0, BuildingBlock: MIDCAF_clean_linker_0, # of connection points: 3
#     Node 7, Type 0, BuildingBlock: MIDCAF_clean_linker_0, # of connection points: 3
#     Node 8, Type 1, BuildingBlock: BETGAK_clean_sbu_0, # of connection points: 6
#     Node 9, Type 1, BuildingBlock: BETGAK_clean_sbu_0, # of connection points: 6
#     Node 10, Type 1, BuildingBlock: BETGAK_clean_sbu_0, # of connection points: 6
#     Node 11, Type 1, BuildingBlock: BETGAK_clean_sbu_0, # of connection points: 6
#     Edge 12, Type (0, 1), BuildingBlock: CIFDUS_clean_linker_0, # of connection points: 2
#     Edge 13, Type (0, 1), BuildingBlock: CIFDUS_clean_linker_0, # of connection points: 2
#     Edge 14, Type (0, 1), BuildingBlock: CIFDUS_clean_linker_0, # of connection points: 2
#     Edge 15, Type (0, 1), BuildingBlock: CIFDUS_clean_linker_0, # of connection points: 2
#     Edge 16, Type (0, 1), BuildingBlock: CIFDUS_clean_linker_0, # of connection points: 2
#     Edge 17, Type (0, 1), BuildingBlock: CIFDUS_clean_linker_0, # of connection points: 2
#     Edge 18, Type (0, 1), BuildingBlock: CIFDUS_clean_linker_0, # of connection points: 2
#     Edge 19, Type (0, 1), BuildingBlock: CIFDUS_clean_linker_0, # of connection points: 2
#     Edge 20, Type (0, 1), BuildingBlock: CIFDUS_clean_linker_0, # of connection points: 2
#     Edge 21, Type (0, 1), BuildingBlock: CIFDUS_clean_linker_0, # of connection points: 2
#     Edge 22, Type (0, 1), BuildingBlock: CIFDUS_clean_linker_0, # of connection points: 2
#     Edge 23, Type (0, 1), BuildingBlock: CIFDUS_clean_linker_0, # of connection points: 2
#     Edge 24, Type (0, 1), BuildingBlock: CIFDUS_clean_linker_0, # of connection points: 2
#     Edge 25, Type (0, 1), BuildingBlock: CIFDUS_clean_linker_0, # of connection points: 2
#     Edge 26, Type (0, 1), BuildingBlock: CIFDUS_clean_linker_0, # of connection points: 2
#     Edge 27, Type (0, 1), BuildingBlock: CIFDUS_clean_linker_0, # of connection points: 2
#     Edge 28, Type (0, 1), BuildingBlock: CIFDUS_clean_linker_0, # of connection points: 2
#     Edge 29, Type (0, 1), BuildingBlock: CIFDUS_clean_linker_0, # of connection points: 2
#     Edge 30, Type (0, 1), BuildingBlock: CIFDUS_clean_linker_0, # of connection points: 2
#     Edge 31, Type (0, 1), BuildingBlock: CIFDUS_clean_linker_0, # of connection points: 2
#     Edge 32, Type (0, 1), BuildingBlock: CIFDUS_clean_linker_0, # of connection points: 2
#     Edge 33, Type (0, 1), BuildingBlock: CIFDUS_clean_linker_0, # of connection points: 2
#     Edge 34, Type (0, 1), BuildingBlock: CIFDUS_clean_linker_0, # of connection points: 2
#     Edge 35, Type (0, 1), BuildingBlock: CIFDUS_clean_linker_0, # of connection points: 2
# Relax obj value: 0.112
# Max RMSD: 0.125
# Mean RMSD: 0.060
data_MOF--net-pyr--node1-BETGAK_clean_sbu_0--node2-MIDCAF_clean_linker_0--edge1-CIFDUS_clean_linker_0
_symmetry_space_group_name_H-M    P1
_symmetry_Int_Tables_number       1
_symmetry_cell_setting            triclinic
loop_
_symmetry_equiv_pos_as_xyz
'x, y, z'
_cell_length_a     41.446992
_cell_length_b     43.879925
_cell_length_c     39.919785
_cell_angle_alpha  90.277151
_cell_angle_beta   88.601225
_cell_angle_gamma 102.01781
loop_
_atom_site_label
_atom_site_type_symbol
_atom_site_fract_x
_atom_site_fract_y
_atom_site_fract_z
_atom_type_partial_charge
C0 C 0.2686 0.28152 0.3343 0.0
C1 C 0.27949 0.26074 0.35595 0.0
C2 C 0.31098 0.25416 0.34984 0.0
C3 C 0.32956 0.26565 0.32114 0.0
H4 H 0.40592 0.24884 0.25335 0.0
H5 H 0.43803 0.21194 0.23176 0.0
H6 H 0.40203 0.22136 0.13262 0.0
H7 H 0.37005 0.25853 0.15399 0.0
H8 H 0.29445 0.29579 0.15659 0.0
H9 H 0.25356 0.32236 0.13365 0.0
H10 H 0.29026 0.40229 0.19606 0.0
H11 H 0.32957 0.37482 0.22015 0.0
H12 H 0.27717 0.30808 0.28931 0.0
H13 H 0.24444 0.28701 0.33753 0.0
H14 H 0.32074 0.23902 0.36641 0.0
H15 H 0.35279 0.25869 0.31614 0.0
N16 N 0.35415 0.27442 0.25197 0.0
N17 N 0.35151 0.29629 0.19863 0.0
N18 N 0.32177 0.31141 0.24428 0.0
C19 C 0.36382 0.27688 0.21908 0.0
C20 C 0.33104 0.31411 0.2115 0.0
C21 C 0.33291 0.2915 0.26469 0.0
C22 C 0.38531 0.25653 0.2054 0.0
C23 C 0.40503 0.24326 0.22688 0.0
C24 C 0.42355 0.22225 0.21455 0.0
C25 C 0.42233 0.21372 0.18061 0.0
C26 C 0.40316 0.2274 0.15897 0.0
C27 C 0.38505 0.24881 0.17118 0.0
C28 C 0.31492 0.33334 0.19011 0.0
C29 C 0.29442 0.31947 0.1644 0.0
C30 C 0.27095 0.33471 0.15136 0.0
C31 C 0.26801 0.36419 0.16364 0.0
C32 C 0.2911 0.37922 0.1868 0.0
C33 C 0.31396 0.36375 0.20028 0.0
C34 C 0.31735 0.28453 0.29835 0.0
C35 C 0.28742 0.29351 0.30616 0.0
C36 C 0.17199 0.88882 0.6035 0.0
C37 C 0.17373 0.90055 0.57065 0.0
C38 C 0.19967 0.89603 0.5491 0.0
C39 C 0.22456 0.88209 0.56087 0.0
H40 H 0.2955 0.82158 0.53891 0.0
H41 H 0.333 0.79402 0.50903 0.0
H42 H 0.40515 0.82148 0.5858 0.0
H43 H 0.36842 0.84926 0.61487 0.0
H44 H 0.34708 0.87004 0.68471 0.0
H45 H 0.36021 0.88536 0.74197 0.0
H46 H 0.25718 0.88365 0.76406 0.0
H47 H 0.24421 0.86955 0.70605 0.0
H48 H 0.19583 0.86781 0.6413 0.0
H49 H 0.15186 0.89118 0.62046 0.0
H50 H 0.20192 0.90495 0.52372 0.0
H51 H 0.24511 0.88045 0.54415 0.0
N52 N 0.27608 0.85414 0.58834 0.0
N53 N 0.30989 0.85305 0.63435 0.0
N54 N 0.25914 0.86779 0.64193 0.0
C55 C 0.30438 0.84864 0.60113 0.0
C56 C 0.2874 0.8625 0.65494 0.0
C57 C 0.25336 0.86374 0.60868 0.0
C58 C 0.32869 0.83692 0.57969 0.0
C59 C 0.31974 0.82237 0.54884 0.0
C60 C 0.34119 0.80658 0.53174 0.0
C61 C 0.37195 0.80527 0.54513 0.0
C62 C 0.38186 0.8222 0.57444 0.0
C63 C 0.3605 0.8378 0.59149 0.0
C64 C 0.29462 0.86884 0.69069 0.0
C65 C 0.32711 0.8726 0.70181 0.0
C66 C 0.33463 0.88119 0.73484 0.0
C67 C 0.30978 0.88582 0.75775 0.0
C68 C 0.27703 0.88083 0.74695 0.0
C69 C 0.26956 0.87262 0.71373 0.0
C70 C 0.22418 0.87279 0.59452 0.0
C71 C 0.19709 0.8753 0.61539 0.0
C72 C 0.64072 0.26334 0.93667 0.0
C73 C 0.6122 0.24525 0.92256 0.0
C74 C 0.59805 0.25853 0.89583 0.0
C75 C 0.61214 0.28856 0.88346 0.0
H76 H 0.59361 0.37274 0.82928 0.0
H77 H 0.56951 0.39858 0.78478 0.0
H78 H 0.66643 0.44869 0.75436 0.0
H79 H 0.69058 0.4237 0.79964 0.0
H80 H 0.72787 0.44517 0.89377 0.0
H81 H 0.77729 0.46936 0.92427 0.0
H82 H 0.79792 0.37815 0.94135 0.0
H83 H 0.74793 0.35443 0.91306 0.0
H84 H 0.677 0.30596 0.93584 0.0
H85 H 0.65277 0.25413 0.9569 0.0
H86 H 0.57583 0.24576 0.88444 0.0
H87 H 0.60048 0.29766 0.86285 0.0
N88 N 0.64357 0.35224 0.85869 0.0
N89 N 0.688 0.39574 0.86036 0.0
N90 N 0.68613 0.35344 0.89675 0.0
C91 C 0.65893 0.38097 0.84659 0.0
C92 C 0.70175 0.3821 0.88554 0.0
C93 C 0.65709 0.33821 0.88382 0.0
C94 C 0.64417 0.39609 0.81846 0.0
C95 C 0.6099 0.38919 0.81314 0.0
C96 C 0.59602 0.40407 0.78755 0.0
C97 C 0.61596 0.4257 0.76571 0.0
C98 C 0.65029 0.43203 0.77042 0.0
C99 C 0.66411 0.4178 0.79663 0.0
C100 C 0.73354 0.39775 0.90118 0.0
C101 C 0.74311 0.43039 0.90403 0.0
C102 C 0.77169 0.44428 0.92152 0.0
C103 C 0.79193 0.42598 0.93622 0.0
C104 C 0.78283 0.39338 0.93184 0.0
C105 C 0.75407 0.37959 0.91512 0.0
C106 C 0.64098 0.30641 0.89728 0.0
C107 C 0.65485 0.29325 0.92426 0.0
C108 C 0.76601 0.67019 0.45206 0.0
C109 C 0.74803 0.6407 0.44263 0.0
C110 C 0.75862 0.62697 0.41344 0.0
C111 C 0.78703 0.64198 0.39498 0.0
H112 H 0.86693 0.62745 0.32983 0.0
H113 H 0.89125 0.60049 0.28541 0.0
H114 H 0.94689 0.68823 0.24818 0.0
H115 H 0.9231 0.71563 0.29358 0.0
H116 H 0.92938 0.7808 0.35616 0.0
H117 H 0.9536 0.83087 0.38327 0.0
H118 H 0.89163 0.80335 0.47083 0.0
H119 H 0.86784 0.75444 0.44451 0.0
H120 H 0.80691 0.70771 0.44241 0.0
H121 H 0.75845 0.68186 0.47396 0.0
H122 H 0.74549 0.60425 0.4054 0.0
H123 H 0.79475 0.63048 0.37305 0.0
N124 N 0.84976 0.67464 0.36018 0.0
N125 N 0.89339 0.71897 0.3557 0.0
N126 N 0.85197 0.71622 0.39749 0.0
C127 C 0.87822 0.68995 0.34431 0.0
C128 C 0.8803 0.73221 0.38266 0.0
C129 C 0.8363 0.68772 0.3867 0.0
C130 C 0.89294 0.67397 0.31577 0.0
C131 C 0.88418 0.64129 0.31222 0.0
C132 C 0.89815 0.62567 0.28658 0.0
C133 C 0.92091 0.64206 0.26288 0.0
C134 C 0.9292 0.67481 0.2657 0.0
C135 C 0.91571 0.69052 0.29197 0.0
C136 C 0.89652 0.76311 0.39789 0.0
C137 C 0.921 0.78547 0.3812 0.0
C138 C 0.93473 0.81432 0.39668 0.0
C139 C 0.92478 0.82131 0.42947 0.0
C140 C 0.90033 0.79893 0.44582 0.0
C141 C 0.88648 0.77064 0.43042 0.0
C142 C 0.80536 0.67128 0.40502 0.0
C143 C 0.79399 0.68516 0.43368 0.0
C144 C 0.61782 0.85457 0.8843 0.0
C145 C 0.63101 0.87335 0.91148 0.0
C146 C 0.6607 0.86862 0.92505 0.0
C147 C 0.67621 0.84547 0.91241 0.0
H148 H 0.74651 0.78454 0.93335 0.0
H149 H 0.7883 0.75993 0.95764 0.0
H150 H 0.75785 0.67993 0.8935 0.0
H151 H 0.71747 0.70532 0.86826 0.0
H152 H 0.73002 0.74141 0.78622 0.0
H153 H 0.76757 0.75463 0.73816 0.0
H154 H 0.74335 0.84561 0.73392 0.0
H155 H 0.70548 0.8323 0.78147 0.0
H156 H 0.62348 0.81821 0.84985 0.0
H157 H 0.59477 0.85682 0.87344 0.0
H158 H 0.67247 0.88304 0.94518 0.0
H159 H 0.69902 0.84247 0.92337 0.0
N160 N 0.69427 0.78565 0.89118 0.0
N161 N 0.71536 0.76365 0.84404 0.0
N162 N 0.68544 0.80276 0.837 0.0
C163 C 0.71105 0.76486 0.87773 0.0
C164 C 0.70303 0.78265 0.82346 0.0
C165 C 0.68057 0.804 0.87076 0.0
C166 C 0.72909 0.74689 0.89876 0.0
C167 C 0.74819 0.76131 0.92525 0.0
C168 C 0.77216 0.74718 0.9391 0.0
C169 C 0.77703 0.71825 0.92693 0.0
C170 C 0.75552 0.70265 0.90272 0.0
C171 C 0.73212 0.71698 0.8885 0.0
C172 C 0.71553 0.78617 0.78832 0.0
C173 C 0.73181 0.76384 0.77429 0.0
C174 C 0.75344 0.77143 0.74682 0.0
C175 C 0.75918 0.80146 0.73289 0.0
C176 C 0.73959 0.82226 0.7441 0.0
C177 C 0.71783 0.81463 0.77152 0.0
C178 C 0.66314 0.82722 0.88512 0.0
C179 C 0.63403 0.83213 0.87093 0.0
C180 C 0.81469 0.23109 0.28168 0.0
C181 C 0.79228 0.24683 0.26707 0.0
C182 C 0.78374 0.27217 0.28417 0.0
C183 C 0.79472 0.2796 0.31656 0.0
H184 H 0.74713 0.29938 0.39797 0.0
H185 H 0.70485 0.31852 0.42951 0.0
H186 H 0.75289 0.30684 0.52189 0.0
H187 H 0.7958 0.28716 0.49017 0.0
H188 H 0.82903 0.22202 0.48168 0.0
H189 H 0.85516 0.18292 0.50598 0.0
H190 H 0.91866 0.18664 0.41787 0.0
H191 H 0.89147 0.22483 0.39293 0.0
H192 H 0.84121 0.22459 0.32541 0.0
H193 H 0.82167 0.21137 0.26922 0.0
H194 H 0.76705 0.28513 0.27325 0.0
H195 H 0.78606 0.29811 0.32976 0.0
N196 N 0.7994 0.2793 0.38796 0.0
N197 N 0.8191 0.26176 0.43721 0.0
N198 N 0.8388 0.24816 0.38474 0.0
C199 C 0.7993 0.27818 0.42192 0.0
C200 C 0.83915 0.2469 0.41876 0.0
C201 C 0.81908 0.2645 0.36914 0.0
C202 C 0.77492 0.29164 0.44152 0.0
C203 C 0.74899 0.30089 0.42498 0.0
C204 C 0.72449 0.31158 0.44305 0.0
C205 C 0.72538 0.31359 0.47811 0.0
C206 C 0.75163 0.30522 0.49484 0.0
C207 C 0.77612 0.29403 0.47669 0.0
C208 C 0.858 0.22634 0.43525 0.0
C209 C 0.84885 0.2148 0.46764 0.0
C210 C 0.86394 0.19241 0.48165 0.0
C211 C 0.88884 0.18137 0.46377 0.0
C212 C 0.89902 0.19405 0.43201 0.0
C213 C 0.88361 0.21612 0.41781 0.0
C214 C 0.81451 0.26186 0.33248 0.0
C215 C 0.82579 0.23859 0.31406 0.0
C216 C 0.25899 0.63642 0.20084 0.0
C217 C 0.24817 0.6517 0.17354 0.0
C218 C 0.26853 0.67979 0.16239 0.0
C219 C 0.29805 0.6926 0.17831 0.0
H220 H 0.36711 0.76903 0.17486 0.0
H221 H 0.39251 0.82053 0.15415 0.0
H222 H 0.46677 0.82846 0.22946 0.0
H223 H 0.44075 0.77676 0.25086 0.0
H224 H 0.43002 0.71696 0.30952 0.0
H225 H 0.45135 0.68964 0.35485 0.0
H226 H 0.38178 0.60534 0.33067 0.0
H227 H 0.36052 0.63234 0.28577 0.0
H228 H 0.29592 0.63715 0.2381 0.0
H229 H 0.24407 0.61484 0.21037 0.0
H230 H 0.26171 0.69204 0.14107 0.0
H231 H 0.31252 0.71437 0.16871 0.0
N232 N 0.35652 0.72153 0.21304 0.0
N233 N 0.39641 0.72226 0.25399 0.0
N234 N 0.35205 0.67896 0.24934 0.0
C235 C 0.38462 0.73654 0.22783 0.0
C236 C 0.38031 0.69331 0.26495 0.0
C237 C 0.33991 0.69295 0.22335 0.0
C238 C 0.40158 0.7683 0.2149 0.0
C239 C 0.38891 0.78154 0.18719 0.0
C240 C 0.40374 0.81128 0.17495 0.0
C241 C 0.4319 0.82916 0.18987 0.0
C242 C 0.44488 0.81584 0.21739 0.0
C243 C 0.43001 0.78594 0.22966 0.0
C244 C 0.39345 0.67707 0.29345 0.0
C245 C 0.41917 0.6926 0.31384 0.0
C246 C 0.43134 0.67692 0.34014 0.0
C247 C 0.41858 0.64504 0.34665 0.0
C248 C 0.39271 0.6297 0.32642 0.0
C249 C 0.38031 0.64538 0.30054 0.0
C250 C 0.30865 0.67787 0.20608 0.0
C251 C 0.28876 0.64934 0.21691 0.0
C252 C 0.14454 0.26824 0.68784 0.0
C253 C 0.11007 0.25968 0.68501 0.0
C254 C 0.0909 0.27967 0.69945 0.0
C255 C 0.1058 0.30756 0.71571 0.0
H256 H 0.11487 0.36786 0.81732 0.0
H257 H 0.09185 0.39616 0.86235 0.0
H258 H 0.14777 0.48304 0.82317 0.0
H259 H 0.17137 0.45507 0.77901 0.0
H260 H 0.24389 0.44886 0.73737 0.0
H261 H 0.29368 0.47382 0.70519 0.0
H262 H 0.28112 0.39423 0.63934 0.0
H263 H 0.23202 0.36953 0.67088 0.0
H264 H 0.18611 0.30253 0.70389 0.0
H265 H 0.16018 0.25371 0.67691 0.0
H266 H 0.06427 0.27385 0.6979 0.0
H267 H 0.09028 0.32258 0.72585 0.0
N268 N 0.14372 0.3631 0.75563 0.0
N269 N 0.18842 0.40624 0.75037 0.0
N270 N 0.1861 0.36274 0.71546 0.0
C271 C 0.15942 0.39217 0.76612 0.0
C272 C 0.20201 0.39167 0.72502 0.0
C273 C 0.15708 0.34819 0.73022 0.0
C274 C 0.14505 0.40899 0.79412 0.0
C275 C 0.12243 0.39299 0.81837 0.0
C276 C 0.1094 0.40921 0.84445 0.0
C277 C 0.11798 0.44198 0.84663 0.0
C278 C 0.14059 0.45786 0.82245 0.0
C279 C 0.15415 0.4417 0.79698 0.0
C280 C 0.2334 0.40711 0.7068 0.0
C281 C 0.25181 0.43662 0.7161 0.0
C282 C 0.28053 0.45092 0.69773 0.0
C283 C 0.29141 0.43627 0.66934 0.0
C284 C 0.27336 0.40656 0.66064 0.0
C285 C 0.24504 0.39226 0.67898 0.0
C286 C 0.14038 0.31671 0.71722 0.0
C287 C 0.15943 0.29641 0.70328 0.0
La288 La 0.02565 0.06154 0.51973 0.0
La289 La 1.00869 1.02579 0.58333 0.0
C290 C 0.03483 0.10292 0.47509 0.0
C291 C 0.06252 0.12937 0.46963 0.0
C292 C 0.09185 0.13074 0.48696 0.0
C293 C 0.11957 0.15395 0.47951 0.0
C294 C 0.11825 0.17638 0.45491 0.0
C295 C 0.08831 0.17593 0.43885 0.0
C296 C 0.06061 0.15242 0.44607 0.0
C297 C 0.06988 1.03041 0.53874 0.0
C298 C 0.04633 0.09452 0.59083 0.0
C299 C 0.99698 0.9848 0.62816 0.0
C300 C 0.96703 0.9605 0.63459 0.0
C301 C 0.936 0.96851 0.6379 0.0
C302 C 0.9075 0.94553 0.64237 0.0
C303 C 0.90916 0.91389 0.64325 0.0
C304 C 0.94023 0.90581 0.63969 0.0
C305 C 0.96891 0.92895 0.63543 0.0
C306 C 0.96414 0.05648 0.56313 0.0
C307 C 0.99043 0.99191 0.5121 0.0
O308 O 0.04231 0.07559 0.47118 0.0
O309 O 1.01691 0.10419 0.50228 0.0
O310 O 0.06439 1.03575 0.50785 0.0
O311 O 0.05343 0.04476 0.5574 0.0
O312 O 0.03816 0.09791 0.55927 0.0
O313 O 0.04271 0.06623 0.60393 0.0
O314 O 0.99386 1.01359 0.63283 0.0
O315 O 1.01356 0.98168 0.60047 0.0
O316 O 0.96994 0.05218 0.59417 0.0
O317 O 0.98102 0.04192 0.54533 0.0
O318 O 0.99748 0.98916 0.54412 0.0
O319 O 0.99402 1.01995 0.49834 0.0
H320 H 0.09361 0.1132 0.50547 0.0
H321 H 0.14229 0.15394 0.49235 0.0
H322 H 0.08678 0.19283 0.41958 0.0
H323 H 0.03809 0.15171 0.4326 0.0
H324 H 0.93356 0.9926 0.637 0.0
H325 H 0.88417 0.95272 0.64575 0.0
H326 H 0.94236 0.88164 0.64001 0.0
H327 H 0.99252 0.9222 0.63248 0.0
La328 La 0.55004 0.04449 0.07844 0.0
La329 La 0.49571 1.02952 1.03323 0.0
C330 C 0.60665 0.06283 0.10203 0.0
C331 C 0.62653 0.09099 0.11662 0.0
C332 C 0.65797 0.09005 0.1279 0.0
C333 C 0.67702 0.11604 0.14325 0.0
C334 C 0.66495 0.14353 0.14752 0.0
C335 C 0.63355 0.14458 0.13545 0.0
C336 C 0.61443 0.11843 0.1201 0.0
C337 C 0.50505 0.99487 0.09855 0.0
C338 C 0.49123 0.07461 0.09494 0.0
C339 C 0.44009 1.01196 1.00705 0.0
C340 C 0.42552 0.99195 0.9792 0.0
C341 C 0.41216 1.00549 0.95253 0.0
C342 C 0.39774 0.98721 0.92603 0.0
C343 C 0.39597 0.95485 0.92579 0.0
C344 C 0.40931 0.94126 0.9526 0.0
C345 C 0.42399 0.95964 0.97906 0.0
C346 C 0.54149 0.07879 1.01343 0.0
C347 C 0.55421 0.99833 1.01642 0.0
O348 O 0.5809 0.04896 0.11981 0.0
O349 O 0.60014 0.06437 0.07026 0.0
O350 O 0.52167 1.01562 0.1182 0.0
O351 O 0.515 1.0018 0.06878 0.0
O352 O 0.52357 0.07915 0.09675 0.0
O353 O 0.47512 0.05285 0.07499 0.0
O354 O 0.46099 1.03753 0.99868 0.0
O355 O 0.44983 0.99835 1.03288 0.0
O356 O 0.52567 0.05754 0.99373 0.0
O357 O 0.53082 0.07219 1.04304 0.0
O358 O 0.52322 0.998 1.00954 0.0
O359 O 0.56929 1.01578 1.04081 0.0
H360 H 0.66756 0.06896 0.12542 0.0
H361 H 0.70075 0.11417 0.15285 0.0
H362 H 0.62365 0.16545 0.13819 0.0
H363 H 0.59012 0.11945 0.1114 0.0
H364 H 0.41297 1.03033 0.95213 0.0
H365 H 0.38835 0.99858 0.90549 0.0
H366 H 0.40809 0.91638 0.95333 0.0
H367 H 0.43397 0.94849 0.9994 0.0
La368 La 0.51617 0.51148 0.53535 0.0
La369 La 0.52444 0.56401 0.57847 0.0
C370 C 0.52277 0.46472 0.50073 0.0
C371 C 0.53861 0.43808 0.50436 0.0
C372 C 0.54297 0.42036 0.47605 0.0
C373 C 0.56003 0.39624 0.47831 0.0
C374 C 0.5732 0.38965 0.50894 0.0
C375 C 0.568 0.40693 0.53754 0.0
C376 C 0.55057 0.43086 0.5353 0.0
C377 C 0.4628 0.51263 0.57331 0.0
C378 C 0.54942 0.50846 0.60708 0.0
C379 C 0.51494 0.61084 0.61045 0.0
C380 C 0.50747 0.64008 0.59819 0.0
C381 C 0.52563 0.65656 0.57127 0.0
C382 C 0.51502 0.68149 0.55656 0.0
C383 C 0.48581 0.68973 0.56811 0.0
C384 C 0.46826 0.67385 0.59555 0.0
C385 C 0.4791 0.64933 0.61058 0.0
C386 C 0.57774 0.56357 0.54008 0.0
C387 C 0.49211 0.5682 0.50587 0.0
O388 O 0.49757 0.46527 0.52076 0.0
O389 O 0.54269 0.49197 0.49845 0.0
O390 O 0.46261 0.50528 0.54187 0.0
O391 O 0.49245 0.51911 0.58248 0.0
O392 O 0.54828 0.49945 0.57523 0.0
O393 O 0.53645 0.53236 0.61606 0.0
O394 O 0.54433 0.60583 0.60318 0.0
O395 O 0.49178 0.58616 0.60535 0.0
O396 O 0.57807 0.57174 0.5713 0.0
O397 O 0.54801 0.55652 0.53121 0.0
O398 O 0.49754 0.57985 0.53647 0.0
O399 O 0.50018 0.54141 0.49813 0.0
H400 H 0.53386 0.42565 0.452 0.0
H401 H 0.56412 0.38362 0.45575 0.0
H402 H 0.57778 0.40222 0.56144 0.0
H403 H 0.54694 0.44394 0.55757 0.0
H404 H 0.54735 0.64956 0.56085 0.0
H405 H 0.52887 0.69355 0.53545 0.0
H406 H 0.44586 0.68021 0.60511 0.0
H407 H 0.46462 0.63679 0.63106 0.0
La408 La 1.01808 0.51154 0.07077 0.0
La409 La 0.02032 0.57143 1.03919 0.0
C410 C 0.02094 0.45592 0.08279 0.0
C411 C 0.04953 0.44235 0.09055 0.0
C412 C 0.07556 0.45946 0.10908 0.0
C413 C 0.10392 0.44784 0.11414 0.0
C414 C 0.10691 0.41881 0.10083 0.0
C415 C 0.08079 0.40166 0.08226 0.0
C416 C 0.05234 0.41338 0.07715 0.0
C417 C 0.99524 0.55183 0.11045 0.0
C418 C 0.08091 0.56296 0.08409 0.0
C419 C 1.0179 0.62722 1.0272 0.0
C420 C 0.99038 0.64104 1.01654 0.0
C421 C 0.96593 0.62412 0.99602 0.0
C422 C 0.93828 0.63598 0.98832 0.0
C423 C 0.93443 0.66499 1.00102 0.0
C424 C 0.95903 0.68196 1.02148 0.0
C425 C 0.98679 0.67004 1.02918 0.0
C426 C 0.043 0.5311 0.99946 0.0
C427 C 0.95793 0.5195 1.02479 0.0
O428 O 1.01247 0.47475 0.10531 0.0
O429 O 0.02131 0.46722 0.05253 0.0
O430 O 1.01159 0.53155 0.12036 0.0
O431 O 0.99034 0.54774 0.07932 0.0
O432 O 0.06899 0.53264 0.08269 0.0
O433 O 0.06468 0.58265 0.07051 0.0
O434 O 0.02882 0.60909 1.00553 0.0
O435 O 1.01424 0.61501 0.05717 0.0
O436 O 0.02679 0.55151 0.98956 0.0
O437 O 0.04798 0.53523 1.03056 0.0
O438 O 0.97029 0.54981 1.02456 0.0
O439 O 0.97322 0.50014 1.04036 0.0
H440 H 0.07424 0.48208 0.1193 0.0
H441 H 0.12377 0.46191 0.12803 0.0
H442 H 0.08226 0.37913 0.0719 0.0
H443 H 0.03269 0.40002 0.06242 0.0
H444 H 0.9679 0.60147 0.98636 0.0
H445 H 0.91955 0.62207 0.97295 0.0
H446 H 0.95688 0.70448 1.03143 0.0
H447 H 1.00521 0.68325 0.0454 0.0
H448 H 0.23091 0.28066 0.39277 0.0
H449 H 0.27482 0.20042 0.37681 0.0
H450 H 0.23096 0.16867 0.41032 0.0
H451 H 0.17609 0.16149 0.4369 0.0
H452 H 0.12828 0.23952 0.44665 0.0
H453 H 0.17708 0.27403 0.42179 0.0
C454 C 0.23097 0.25623 0.39646 0.0
C455 C 0.25621 0.24312 0.38165 0.0
C456 C 0.20451 0.23746 0.41412 0.0
C457 C 0.25622 0.21156 0.38798 0.0
C458 C 0.23077 0.19311 0.40683 0.0
C459 C 0.17666 0.18619 0.43417 0.0
C460 C 0.14878 0.19805 0.44352 0.0
C461 C 0.20424 0.20554 0.41896 0.0
C462 C 0.14949 0.22994 0.43941 0.0
C463 C 0.17735 0.24961 0.42526 0.0
H464 H 0.35604 0.87083 0.79865 0.0
H465 H 0.28347 0.9284 0.79375 0.0
H466 H 0.30158 0.95233 0.84706 0.0
H467 H 0.34089 0.96015 0.89258 0.0
H468 H 0.41698 0.90637 0.89479 0.0
H469 H 0.39455 0.87774 0.8451 0.0
C470 C 0.34422 0.88868 0.80915 0.0
C471 C 0.31855 0.89787 0.79195 0.0
C472 C 0.35551 0.90319 0.83929 0.0
C473 C 0.303 0.9205 0.80647 0.0
C474 C 0.31357 0.93448 0.83686 0.0
C475 C 0.3527 0.94227 0.88213 0.0
C476 C 0.3808 0.93569 0.89724 0.0
C477 C 0.34027 0.92652 0.85305 0.0
C478 C 0.3952 0.91182 0.88386 0.0
C479 C 0.38254 0.89557 0.85528 0.0
H480 H 0.62947 0.43077 0.6974 0.0
H481 H 0.56774 0.459 0.77496 0.0
H482 H 0.54271 0.48755 0.73379 0.0
H483 H 0.53792 0.50479 0.67538 0.0
H484 H 0.59625 0.47318 0.59686 0.0
H485 H 0.62261 0.44594 0.63821 0.0
C486 C 0.61057 0.44322 0.70527 0.0
C487 C 0.60071 0.44272 0.73952 0.0
C488 C 0.59551 0.4591 0.68107 0.0
C489 C 0.57583 0.45877 0.74896 0.0
C490 C 0.56151 0.47523 0.72534 0.0
C491 C 0.55647 0.49202 0.66726 0.0
C492 C 0.56514 0.49144 0.63278 0.0
C493 C 0.57108 0.47562 0.69127 0.0
C494 C 0.58894 0.47423 0.623 0.0
C495 C 0.60415 0.4586 0.64677 0.0
H496 H 0.92262 0.64529 0.19307 0.0
H497 H 0.95653 0.5983 0.27558 0.0
H498 H 0.98271 0.56739 0.23644 0.0
H499 H 0.99563 0.55264 0.17881 0.0
H500 H 0.95899 0.59617 0.0954 0.0
H501 H 0.93457 0.62914 0.1343 0.0
C502 C 0.93592 0.62841 0.20242 0.0
C503 C 0.93763 0.62438 0.23753 0.0
C504 C 0.95046 0.60988 0.17943 0.0
C505 C 0.95469 0.60201 0.24894 0.0
C506 C 0.96972 0.58424 0.22647 0.0
C507 C 0.98232 0.56934 0.16901 0.0
C508 C 0.97957 0.57193 0.13393 0.0
C509 C 0.96768 0.58778 0.19167 0.0
C510 C 0.9619 0.59367 0.12206 0.0
C511 C 0.94781 0.61256 0.14444 0.0
H512 H 0.39718 0.16249 0.1443 0.0
H513 H 0.48679 0.21098 0.1895 0.0
H514 H 0.5159 0.17133 0.16838 0.0
H515 H 0.51609 0.12372 0.1355 0.0
H516 H 0.42569 0.07495 0.09139 0.0
H517 H 0.39668 0.11372 0.11387 0.0
C518 C 0.42313 0.1644 0.14935 0.0
C519 C 0.43996 0.1897 0.16806 0.0
C520 C 0.43951 0.14141 0.13747 0.0
C521 C 0.47339 0.19166 0.17509 0.0
C522 C 0.49 0.16904 0.163 0.0
C523 C 0.48998 0.1214 0.13105 0.0
C524 C 0.47319 0.09649 0.11162 0.0
C525 C 0.47334 0.14387 0.14402 0.0
C526 C 0.43932 0.09386 0.1062 0.0
C527 C 0.42266 0.1161 0.11894 0.0
H528 H 0.15111 0.94376 0.60803 0.0
H529 H 0.14561 0.90253 0.50933 0.0
H530 H 0.11328 0.93963 0.49062 0.0
H531 H 0.08837 0.98498 0.5019 0.0
H532 H 0.09176 1.02426 0.60131 0.0
H533 H 0.12288 0.98624 0.62041 0.0
C534 C 0.14222 0.94231 0.58263 0.0
C535 C 0.15085 0.92039 0.56011 0.0
C536 C 0.12356 0.96351 0.57214 0.0
C537 C 0.13968 0.91942 0.52707 0.0
C538 C 0.12115 0.94057 0.51637 0.0
C539 C 0.09605 0.98518 0.52771 0.0
C540 C 0.08836 1.00749 0.55014 0.0
C541 C 0.11341 0.96301 0.53856 0.0
C542 C 0.09775 1.00734 0.58364 0.0
C543 C 0.11544 0.98563 0.59453 0.0
H544 H 0.83398 0.48432 0.93023 0.0
H545 H 0.81764 0.40029 0.98984 0.0
H546 H 0.86687 0.42086 1.02106 0.0
H547 H 0.91554 0.46249 1.03198 0.0
H548 H 0.9296 0.54829 0.9761 0.0
H549 H 0.88041 0.52758 0.94399 0.0
C550 C 0.84074 0.4705 0.95026 0.0
C551 C 0.82181 0.44017 0.95662 0.0
C552 C 0.869 0.48292 0.96924 0.0
C553 C 0.83179 0.42308 0.98296 0.0
C554 C 0.86001 0.43502 1.00136 0.0
C555 C 0.90784 0.47675 1.01286 0.0
C556 C 0.92663 0.50699 1.00659 0.0
C557 C 0.87902 0.46481 0.99463 0.0
C558 C 0.91581 0.52503 0.98177 0.0
C559 C 0.8876 0.51311 0.9632 0.0
H560 H 0.68595 0.60847 0.42428 0.0
H561 H 0.7457 0.63609 0.51066 0.0
H562 H 0.69935 0.61387 0.54773 0.0
H563 H 0.64111 0.58857 0.55642 0.0
H564 H 0.58008 0.56094 0.47114 0.0
H565 H 0.62729 0.58066 0.43323 0.0
C566 C 0.6889 0.60932 0.45119 0.0
C567 C 0.71947 0.62443 0.46445 0.0
C568 C 0.66172 0.59649 0.47276 0.0
C569 C 0.72254 0.62526 0.49954 0.0
C570 C 0.69597 0.61239 0.52089 0.0
C571 C 0.63812 0.58665 0.52952 0.0
C572 C 0.60691 0.57332 0.51676 0.0
C573 C 0.66533 0.59833 0.50788 0.0
C574 C 0.60371 0.57105 0.48177 0.0
C575 C 0.63077 0.58243 0.46004 0.0
H576 H 0.23618 0.36322 0.10385 0.0
H577 H 0.23294 0.39404 0.20662 0.0
H578 H 0.18362 0.41372 0.19602 0.0
H579 H 0.14017 0.42071 0.15862 0.0
H580 H 0.14162 0.38946 0.0561 0.0
H581 H 0.1921 0.37046 0.06593 0.0
C582 C 0.22467 0.37419 0.12392 0.0
C583 C 0.23874 0.37746 0.15586 0.0
C584 C 0.19565 0.385 0.1179 0.0
C585 C 0.22341 0.3919 0.18152 0.0
C586 C 0.19486 0.40288 0.17563 0.0
C587 C 0.15168 0.41004 0.13829 0.0
C588 C 0.13718 0.40662 0.10667 0.0
C589 C 0.1807 0.39943 0.14403 0.0
C590 C 0.15208 0.39211 0.0808 0.0
C591 C 0.18108 0.38144 0.08634 0.0
H592 H 0.60774 0.22174 0.98738 0.0
H593 H 0.5848 0.19389 0.88537 0.0
H594 H 0.56212 0.14077 0.90402 0.0
H595 H 0.54831 0.10154 0.94918 0.0
H596 H 0.5706 0.12888 0.05125 0.0
H597 H 0.59438 0.18219 1.03269 0.0
C598 C 0.59803 0.20409 0.96909 0.0
C599 C 0.59802 0.21242 0.93479 0.0
C600 C 0.58494 0.17313 0.98004 0.0
C601 C 0.58478 0.18882 0.91189 0.0
C602 C 0.57197 0.15815 0.92254 0.0
C603 C 0.55853 0.11909 0.9674 0.0
C604 C 0.55765 0.11095 1.00169 0.0
C605 C 0.57183 0.14996 0.95653 0.0
C606 C 0.57093 0.13426 1.02478 0.0
C607 C 0.58449 0.16487 1.01413 0.0
H608 H 0.93736 0.88282 0.40737 0.0
H609 H 0.94642 0.82663 0.4936 0.0
H610 H 0.96683 0.87342 0.52631 0.0
H611 H 0.98115 0.93056 0.53156 0.0
H612 H 0.97213 0.98762 0.44604 0.0
H613 H 0.95291 0.9408 0.4125 0.0
C614 C 0.94414 0.88081 0.4332 0.0
C615 C 0.94003 0.85087 0.44783 0.0
C616 C 0.95574 0.90821 0.45233 0.0
C617 C 0.94882 0.84909 0.48156 0.0
C618 C 0.9606 0.87597 0.50041 0.0
C619 C 0.97496 0.93291 0.5056 0.0
C620 C 0.97809 0.96299 0.49166 0.0
C621 C 0.96387 0.90571 0.48627 0.0
C622 C 0.96996 0.96507 0.45777 0.0
C623 C 0.95897 0.93814 0.43842 0.0
H624 H 0.43886 0.81228 0.5389 0.0
H625 H 0.34761 0.74558 0.52515 0.0
H626 H 0.37724 0.70327 0.52429 0.0
H627 H 0.4263 0.6846 0.54086 0.0
H628 H 0.51668 0.75044 0.55963 0.0
H629 H 0.49038 0.79365 0.54532 0.0
C630 C 0.42561 0.78853 0.53495 0.0
C631 C 0.39098 0.78208 0.53301 0.0
C632 C 0.44257 0.76407 0.53627 0.0
C633 C 0.37423 0.75133 0.52683 0.0
C634 C 0.39111 0.72697 0.52683 0.0
C635 C 0.44032 0.70843 0.541 0.0
C636 C 0.47296 0.71467 0.55189 0.0
C637 C 0.42483 0.73296 0.53364 0.0
C638 C 0.49137 0.74535 0.55152 0.0
C639 C 0.47629 0.76997 0.54353 0.0
H640 H 0.76575 0.83914 0.67769 0.0
H641 H 0.82074 0.7909 0.7421 0.0
H642 H 0.87232 0.81869 0.71665 0.0
H643 H 0.90191 0.86248 0.68287 0.0
H644 H 0.84754 0.91141 0.61854 0.0
H645 H 0.7958 0.8779 0.63753 0.0
C646 C 0.78902 0.83436 0.68571 0.0
C647 C 0.78929 0.81315 0.71194 0.0
C648 C 0.8188 0.85103 0.67153 0.0
C649 C 0.81965 0.80686 0.72175 0.0
C650 C 0.84929 0.82304 0.70748 0.0
C651 C 0.87888 0.86531 0.67224 0.0
C652 C 0.87862 0.88991 0.64989 0.0
C653 C 0.84919 0.84601 0.68328 0.0
C654 C 0.8484 0.89322 0.63654 0.0
C655 C 0.81878 0.87398 0.64725 0.0
H656 H 0.72671 0.23889 0.25748 0.0
H657 H 0.81678 0.22425 0.20972 0.0
H658 H 0.78493 0.1938 0.16558 0.0
H659 H 0.73133 0.16658 0.14453 0.0
H660 H 0.64159 0.17919 0.19475 0.0
H661 H 0.67358 0.21628 0.23319 0.0
C662 C 0.73951 0.22986 0.23689 0.0
C663 C 0.77407 0.23371 0.23696 0.0
C664 C 0.72106 0.21191 0.21211 0.0
C665 C 0.79017 0.22132 0.2104 0.0
C666 C 0.77198 0.20392 0.1852 0.0
C667 C 0.71878 0.17763 0.16375 0.0
C668 C 0.68413 0.1698 0.16699 0.0
C669 C 0.73737 0.19821 0.18646 0.0
C670 C 0.66819 0.18487 0.19151 0.0
C671 C 0.68649 0.20588 0.21374 0.0
H672 H 0.43752 0.66302 0.41148 0.0
H673 H 0.43179 0.5865 0.34213 0.0
H674 H 0.45336 0.55642 0.38421 0.0
H675 H 0.47411 0.55114 0.44105 0.0
H676 H 0.47886 0.62694 0.51118 0.0
H677 H 0.45781 0.65744 0.46898 0.0
C678 C 0.44114 0.63984 0.40545 0.0
C679 C 0.43267 0.62726 0.37328 0.0
C680 C 0.45348 0.62224 0.43019 0.0
C681 C 0.43745 0.59691 0.36651 0.0
C682 C 0.45002 0.5796 0.39066 0.0
C683 C 0.47055 0.57431 0.44723 0.0
C684 C 0.47832 0.58645 0.47965 0.0
C685 C 0.45806 0.59188 0.42267 0.0
C686 C 0.47326 0.61666 0.48674 0.0
C687 C 0.46117 0.63429 0.46243 0.0
H688 H 0.11461 0.43731 0.91632 0.0
H689 H 0.08501 0.48791 0.83419 0.0
H690 H 0.0591 0.51886 0.87349 0.0
H691 H 0.04489 0.53235 0.93114 0.0
H692 H 0.07733 0.48523 1.01435 0.0
H693 H 0.10175 0.45246 0.9752 0.0
C694 C 0.10236 0.45503 0.90708 0.0
C695 C 0.10179 0.46006 0.87203 0.0
C696 C 0.08796 0.47354 0.93018 0.0
C697 C 0.08605 0.48347 0.86078 0.0
C698 C 0.07113 0.50123 0.88334 0.0
C699 C 0.0573 0.51493 0.94085 0.0
C700 C 0.05885 0.51125 0.97591 0.0
C701 C 0.07198 0.49662 0.91809 0.0
C702 C 0.07539 0.48859 0.98768 0.0
C703 C 0.08946 0.46981 0.96516 0.0
H704 H 0.63067 0.89385 0.97634 0.0
H705 H 0.59251 0.908 0.87908 0.0
H706 H 0.56404 0.94656 0.90301 0.0
H707 H 0.55059 0.97732 0.95177 0.0
H708 H 0.59522 0.9673 0.04649 0.0
H709 H 0.62147 0.92698 1.02294 0.0
C710 C 0.61686 0.90571 0.95992 0.0
C711 C 0.61395 0.89758 0.92578 0.0
C712 C 0.60179 0.92896 0.97341 0.0
C713 C 0.59483 0.91293 0.90559 0.0
C714 C 0.57873 0.93537 0.91918 0.0
C715 C 0.56621 0.96633 0.96706 0.0
C716 C 0.57103 0.97523 1.00074 0.0
C717 C 0.58206 0.94363 0.95308 0.0
C718 C 0.59142 0.96103 1.02037 0.0
C719 C 0.6063 0.93785 1.007 0.0
H720 H 0.90355 0.17222 0.52879 0.0
H721 H 0.90572 0.13258 0.42969 0.0
H722 H 0.92862 0.09027 0.45193 0.0
H723 H 0.94788 0.06434 0.49939 0.0
H724 H 0.94408 0.10255 0.59877 0.0
H725 H 0.92082 0.14509 0.5767 0.0
C726 C 0.90865 0.15416 0.51208 0.0
C727 C 0.90309 0.1558 0.47755 0.0
C728 C 0.92115 0.12945 0.52512 0.0
C729 C 0.91038 0.13237 0.45625 0.0
C730 C 0.92316 0.10793 0.46897 0.0
C731 C 0.94172 0.08191 0.51619 0.0
C732 C 0.94764 0.08052 0.55053 0.0
C733 C 0.92862 0.10625 0.50333 0.0
C734 C 0.93956 0.10321 0.57219 0.0
C735 C 0.92647 0.12758 0.55957 0.0
H736 H 0.21824 0.59064 0.15903 0.0
H737 H 0.20392 0.68493 0.15085 0.0
H738 H 0.15239 0.66641 0.12207 0.0
H739 H 0.11069 0.62352 0.09887 0.0
H740 H 0.12409 0.52903 0.10787 0.0
H741 H 0.17588 0.54746 0.13652 0.0
C742 C 0.20377 0.60716 0.15124 0.0
C743 C 0.2156 0.63934 0.15704 0.0
C744 C 0.17367 0.59629 0.1346 0.0
C745 C 0.1962 0.66017 0.14632 0.0
C746 C 0.16643 0.64955 0.12993 0.0
C747 C 0.12494 0.60691 0.10695 0.0
C748 C 0.11316 0.57481 0.10093 0.0
C749 C 0.15491 0.61769 0.12372 0.0
C750 C 0.13219 0.55382 0.11198 0.0
C751 C 0.16199 0.56438 0.12848 0.0
H752 H 0.35313 0.46897 0.68803 0.0
H753 H 0.2949 0.43899 0.60118 0.0
H754 H 0.34169 0.46083 0.56445 0.0
H755 H 0.39984 0.48668 0.55629 0.0
H756 H 0.45945 0.51629 0.64212 0.0
H757 H 0.41178 0.49688 0.67957 0.0
C758 C 0.35061 0.46749 0.66108 0.0
C759 C 0.32033 0.4519 0.6476 0.0
C760 C 0.37805 0.48006 0.63974 0.0
C761 C 0.31783 0.45023 0.61248 0.0
C762 C 0.34464 0.46288 0.59132 0.0
C763 C 0.40242 0.4891 0.5832 0.0
C764 C 0.43335 0.50293 0.59627 0.0
C765 C 0.37498 0.47752 0.60458 0.0
C766 C 0.43604 0.50579 0.63127 0.0
C767 C 0.40872 0.49459 0.65274 0.0
H768 H 0.80519 0.71941 0.98865 0.0
H769 H 0.81584 0.69023 0.88616 0.0
H770 H 0.86483 0.67124 0.90015 0.0
H771 H 0.90558 0.6639 0.94073 0.0
H772 H 0.89657 0.69358 1.04307 0.0
H773 H 0.84677 0.71232 1.02959 0.0
C774 C 0.81828 0.709 0.96937 0.0
C775 C 0.80638 0.70592 0.9365 0.0
C776 C 0.84704 0.69855 0.9774 0.0
C777 C 0.82372 0.6922 0.91189 0.0
C778 C 0.85205 0.68161 0.91974 0.0
C779 C 0.89258 0.67422 0.96018 0.0
C780 C 0.90472 0.67722 0.99285 0.0
C781 C 0.86395 0.6847 0.95234 0.0
C782 C 0.88793 0.69125 1.01761 0.0
C783 C 0.85932 0.70178 1.00998 0.0
H784 H 0.43803 0.85218 0.12482 0.0
H785 H 0.45934 0.8806 0.22701 0.0
H786 H 0.48278 0.93349 0.20814 0.0
H787 H 0.49743 0.97239 0.16279 0.0
H788 H 0.47641 0.94458 0.06058 0.0
H789 H 0.45223 0.8914 0.07932 0.0
C790 C 0.44754 0.8699 0.14312 0.0
C791 C 0.44683 0.8618 0.17754 0.0
C792 C 0.46097 0.90074 0.13204 0.0
C793 C 0.45988 0.88547 0.20042 0.0
C794 C 0.47313 0.91602 0.18964 0.0
C795 C 0.48743 0.95476 0.14456 0.0
C796 C 0.48876 0.96273 0.11021 0.0
C797 C 0.47384 0.924 0.15554 0.0
C798 C 0.47572 0.93934 0.08711 0.0
C799 C 0.46194 0.9088 0.09786 0.0
H800 H 0.12091 0.19982 0.68924 0.0
H801 H 0.06428 0.25508 0.63599 0.0
H802 H 0.04066 0.20995 0.60165 0.0
H803 H 0.03618 0.15437 0.58601 0.0
H804 H 0.08958 0.09813 0.64213 0.0
H805 H 0.11419 0.14356 0.67559 0.0
C806 C 0.10335 0.20198 0.67016 0.0
C807 C 0.09452 0.2311 0.66536 0.0
C808 C 0.08927 0.17556 0.65075 0.0
C809 C 0.07143 0.23312 0.6406 0.0
C810 C 0.05799 0.20725 0.62075 0.0
C811 C 0.05328 0.15207 0.6055 0.0
C812 C 0.06113 0.12268 0.61119 0.0
C813 C 0.06675 0.17831 0.62545 0.0
C814 C 0.08299 0.12026 0.63702 0.0
C815 C 0.09715 0.14634 0.65623 0.0
H816 H 0.65981 0.29332 0.4723 0.0
H817 H 0.73232 0.3607 0.52395 0.0
H818 H 0.68934 0.38787 0.54335 0.0
H819 H 0.63334 0.39733 0.53678 0.0
H820 H 0.56176 0.33119 0.48236 0.0
H821 H 0.60212 0.29845 0.4729 0.0
C822 C 0.66598 0.31361 0.48837 0.0
C823 C 0.69906 0.32541 0.49629 0.0
C824 C 0.64143 0.3295 0.49845 0.0
C825 C 0.70694 0.35133 0.51755 0.0
C826 C 0.68244 0.36697 0.52835 0.0
C827 C 0.62632 0.37529 0.52374 0.0
C828 C 0.59487 0.36684 0.50982 0.0
C829 C 0.64989 0.35702 0.51771 0.0
C830 C 0.58607 0.33834 0.49279 0.0
C831 C 0.60909 0.31967 0.48738 0.0
loop_
_geom_bond_atom_site_label_1
_geom_bond_atom_site_label_2
_geom_bond_distance
_geom_bond_site_symmetry_2
_ccdc_geom_bond_type
C0 C1 1.384 . S
C0 H13 0.947 . S
C0 C35 1.382 . S
C1 C0 1.384 . S
C1 C2 1.378 . S
C2 C1 1.378 . S
C2 C3 1.378 . S
C2 H14 0.952 . S
C3 C2 1.378 . S
C3 H15 0.950 . S
C3 C34 1.383 . S
H4 C23 0.947 . S
H5 C24 0.946 . S
H6 C26 0.953 . S
H7 C27 0.945 . S
H8 C29 0.952 . S
H9 C30 0.949 . S
H10 C32 0.950 . S
H11 C33 0.948 . S
H12 C35 0.951 . S
H13 C0 0.947 . S
H14 C2 0.952 . S
H15 C3 0.950 . S
N16 C19 1.382 . S
N16 C21 1.363 . S
N17 C19 1.371 . S
N17 C20 1.372 . S
N18 C20 1.361 . S
N18 C21 1.377 . S
C19 N16 1.382 . S
C19 N17 1.371 . S
C19 C22 1.480 . S
C20 N17 1.372 . S
C20 N18 1.361 . S
C20 C28 1.457 . S
C21 N16 1.363 . S
C21 N18 1.377 . S
C21 C34 1.479 . S
C22 C19 1.480 . S
C22 C23 1.383 . S
C22 C27 1.385 . S
C23 H4 0.947 . S
C23 C22 1.383 . S
C23 C24 1.388 . S
C24 H5 0.946 . S
C24 C23 1.388 . S
C24 C25 1.384 . S
C25 C24 1.384 . S
C25 C26 1.377 . S
C26 H6 0.953 . S
C26 C25 1.377 . S
C26 C27 1.369 . S
C27 H7 0.945 . S
C27 C22 1.385 . S
C27 C26 1.369 . S
C28 C20 1.457 . S
C28 C29 1.372 . S
C28 C33 1.364 . S
C29 H8 0.952 . S
C29 C28 1.372 . S
C29 C30 1.389 . S
C30 H9 0.949 . S
C30 C29 1.389 . S
C30 C31 1.387 . S
C31 C30 1.387 . S
C31 C32 1.372 . S
C32 H10 0.950 . S
C32 C31 1.372 . S
C32 C33 1.379 . S
C33 H11 0.948 . S
C33 C28 1.364 . S
C33 C32 1.379 . S
C34 C3 1.383 . S
C34 C21 1.479 . S
C34 C35 1.398 . S
C35 C0 1.382 . S
C35 H12 0.951 . S
C35 C34 1.398 . S
C36 C37 1.384 . S
C36 H49 0.947 . S
C36 C71 1.382 . S
C37 C36 1.384 . S
C37 C38 1.378 . S
C38 C37 1.378 . S
C38 C39 1.378 . S
C38 H50 0.952 . S
C39 C38 1.378 . S
C39 H51 0.950 . S
C39 C70 1.383 . S
H40 C59 0.947 . S
H41 C60 0.946 . S
H42 C62 0.953 . S
H43 C63 0.945 . S
H44 C65 0.952 . S
H45 C66 0.949 . S
H46 C68 0.950 . S
H47 C69 0.948 . S
H48 C71 0.951 . S
H49 C36 0.947 . S
H50 C38 0.952 . S
H51 C39 0.950 . S
N52 C55 1.382 . S
N52 C57 1.363 . S
N53 C55 1.371 . S
N53 C56 1.372 . S
N54 C56 1.361 . S
N54 C57 1.377 . S
C55 N52 1.382 . S
C55 N53 1.371 . S
C55 C58 1.480 . S
C56 N53 1.372 . S
C56 N54 1.361 . S
C56 C64 1.457 . S
C57 N52 1.363 . S
C57 N54 1.377 . S
C57 C70 1.479 . S
C58 C55 1.480 . S
C58 C59 1.383 . S
C58 C63 1.385 . S
C59 H40 0.947 . S
C59 C58 1.383 . S
C59 C60 1.388 . S
C60 H41 0.946 . S
C60 C59 1.388 . S
C60 C61 1.384 . S
C61 C60 1.384 . S
C61 C62 1.377 . S
C62 H42 0.953 . S
C62 C61 1.377 . S
C62 C63 1.369 . S
C63 H43 0.945 . S
C63 C58 1.385 . S
C63 C62 1.369 . S
C64 C56 1.457 . S
C64 C65 1.372 . S
C64 C69 1.364 . S
C65 H44 0.952 . S
C65 C64 1.372 . S
C65 C66 1.389 . S
C66 H45 0.949 . S
C66 C65 1.389 . S
C66 C67 1.387 . S
C67 C66 1.387 . S
C67 C68 1.372 . S
C68 H46 0.950 . S
C68 C67 1.372 . S
C68 C69 1.379 . S
C69 H47 0.948 . S
C69 C64 1.364 . S
C69 C68 1.379 . S
C70 C39 1.383 . S
C70 C57 1.479 . S
C70 C71 1.398 . S
C71 C36 1.382 . S
C71 H48 0.951 . S
C71 C70 1.398 . S
C72 C73 1.384 . S
C72 H85 0.947 . S
C72 C107 1.382 . S
C73 C72 1.384 . S
C73 C74 1.378 . S
C74 C73 1.378 . S
C74 C75 1.378 . S
C74 H86 0.952 . S
C75 C74 1.378 . S
C75 H87 0.950 . S
C75 C106 1.383 . S
H76 C95 0.947 . S
H77 C96 0.946 . S
H78 C98 0.953 . S
H79 C99 0.945 . S
H80 C101 0.952 . S
H81 C102 0.949 . S
H82 C104 0.950 . S
H83 C105 0.948 . S
H84 C107 0.951 . S
H85 C72 0.947 . S
H86 C74 0.952 . S
H87 C75 0.950 . S
N88 C91 1.382 . S
N88 C93 1.363 . S
N89 C91 1.371 . S
N89 C92 1.372 . S
N90 C92 1.361 . S
N90 C93 1.377 . S
C91 N88 1.382 . S
C91 N89 1.371 . S
C91 C94 1.480 . S
C92 N89 1.372 . S
C92 N90 1.361 . S
C92 C100 1.457 . S
C93 N88 1.363 . S
C93 N90 1.377 . S
C93 C106 1.479 . S
C94 C91 1.480 . S
C94 C95 1.383 . S
C94 C99 1.385 . S
C95 H76 0.947 . S
C95 C94 1.383 . S
C95 C96 1.388 . S
C96 H77 0.946 . S
C96 C95 1.388 . S
C96 C97 1.384 . S
C97 C96 1.384 . S
C97 C98 1.377 . S
C98 H78 0.953 . S
C98 C97 1.377 . S
C98 C99 1.369 . S
C99 H79 0.945 . S
C99 C94 1.385 . S
C99 C98 1.369 . S
C100 C92 1.457 . S
C100 C101 1.372 . S
C100 C105 1.364 . S
C101 H80 0.952 . S
C101 C100 1.372 . S
C101 C102 1.389 . S
C102 H81 0.949 . S
C102 C101 1.389 . S
C102 C103 1.387 . S
C103 C102 1.387 . S
C103 C104 1.372 . S
C104 H82 0.950 . S
C104 C103 1.372 . S
C104 C105 1.379 . S
C105 H83 0.948 . S
C105 C100 1.364 . S
C105 C104 1.379 . S
C106 C75 1.383 . S
C106 C93 1.479 . S
C106 C107 1.398 . S
C107 C72 1.382 . S
C107 H84 0.951 . S
C107 C106 1.398 . S
C108 C109 1.384 . S
C108 H121 0.947 . S
C108 C143 1.382 . S
C109 C108 1.384 . S
C109 C110 1.378 . S
C110 C109 1.378 . S
C110 C111 1.378 . S
C110 H122 0.952 . S
C111 C110 1.378 . S
C111 H123 0.950 . S
C111 C142 1.383 . S
H112 C131 0.947 . S
H113 C132 0.946 . S
H114 C134 0.953 . S
H115 C135 0.945 . S
H116 C137 0.952 . S
H117 C138 0.949 . S
H118 C140 0.950 . S
H119 C141 0.948 . S
H120 C143 0.951 . S
H121 C108 0.947 . S
H122 C110 0.952 . S
H123 C111 0.950 . S
N124 C127 1.382 . S
N124 C129 1.363 . S
N125 C127 1.371 . S
N125 C128 1.372 . S
N126 C128 1.361 . S
N126 C129 1.377 . S
C127 N124 1.382 . S
C127 N125 1.371 . S
C127 C130 1.480 . S
C128 N125 1.372 . S
C128 N126 1.361 . S
C128 C136 1.457 . S
C129 N124 1.363 . S
C129 N126 1.377 . S
C129 C142 1.479 . S
C130 C127 1.480 . S
C130 C131 1.383 . S
C130 C135 1.385 . S
C131 H112 0.947 . S
C131 C130 1.383 . S
C131 C132 1.388 . S
C132 H113 0.946 . S
C132 C131 1.388 . S
C132 C133 1.384 . S
C133 C132 1.384 . S
C133 C134 1.377 . S
C134 H114 0.953 . S
C134 C133 1.377 . S
C134 C135 1.369 . S
C135 H115 0.945 . S
C135 C130 1.385 . S
C135 C134 1.369 . S
C136 C128 1.457 . S
C136 C137 1.372 . S
C136 C141 1.364 . S
C137 H116 0.952 . S
C137 C136 1.372 . S
C137 C138 1.389 . S
C138 H117 0.949 . S
C138 C137 1.389 . S
C138 C139 1.387 . S
C139 C138 1.387 . S
C139 C140 1.372 . S
C140 H118 0.950 . S
C140 C139 1.372 . S
C140 C141 1.379 . S
C141 H119 0.948 . S
C141 C136 1.364 . S
C141 C140 1.379 . S
C142 C111 1.383 . S
C142 C129 1.479 . S
C142 C143 1.398 . S
C143 C108 1.382 . S
C143 H120 0.951 . S
C143 C142 1.398 . S
C144 C145 1.384 . S
C144 H157 0.947 . S
C144 C179 1.382 . S
C145 C144 1.384 . S
C145 C146 1.378 . S
C146 C145 1.378 . S
C146 C147 1.378 . S
C146 H158 0.952 . S
C147 C146 1.378 . S
C147 H159 0.950 . S
C147 C178 1.383 . S
H148 C167 0.947 . S
H149 C168 0.946 . S
H150 C170 0.953 . S
H151 C171 0.945 . S
H152 C173 0.952 . S
H153 C174 0.949 . S
H154 C176 0.950 . S
H155 C177 0.948 . S
H156 C179 0.951 . S
H157 C144 0.947 . S
H158 C146 0.952 . S
H159 C147 0.950 . S
N160 C163 1.382 . S
N160 C165 1.363 . S
N161 C163 1.371 . S
N161 C164 1.372 . S
N162 C164 1.361 . S
N162 C165 1.377 . S
C163 N160 1.382 . S
C163 N161 1.371 . S
C163 C166 1.480 . S
C164 N161 1.372 . S
C164 N162 1.361 . S
C164 C172 1.457 . S
C165 N160 1.363 . S
C165 N162 1.377 . S
C165 C178 1.479 . S
C166 C163 1.480 . S
C166 C167 1.383 . S
C166 C171 1.385 . S
C167 H148 0.947 . S
C167 C166 1.383 . S
C167 C168 1.388 . S
C168 H149 0.946 . S
C168 C167 1.388 . S
C168 C169 1.384 . S
C169 C168 1.384 . S
C169 C170 1.377 . S
C170 H150 0.953 . S
C170 C169 1.377 . S
C170 C171 1.369 . S
C171 H151 0.945 . S
C171 C166 1.385 . S
C171 C170 1.369 . S
C172 C164 1.457 . S
C172 C173 1.372 . S
C172 C177 1.364 . S
C173 H152 0.952 . S
C173 C172 1.372 . S
C173 C174 1.389 . S
C174 H153 0.949 . S
C174 C173 1.389 . S
C174 C175 1.387 . S
C175 C174 1.387 . S
C175 C176 1.372 . S
C176 H154 0.950 . S
C176 C175 1.372 . S
C176 C177 1.379 . S
C177 H155 0.948 . S
C177 C172 1.364 . S
C177 C176 1.379 . S
C178 C147 1.383 . S
C178 C165 1.479 . S
C178 C179 1.398 . S
C179 C144 1.382 . S
C179 H156 0.951 . S
C179 C178 1.398 . S
C180 C181 1.384 . S
C180 H193 0.947 . S
C180 C215 1.382 . S
C181 C180 1.384 . S
C181 C182 1.378 . S
C182 C181 1.378 . S
C182 C183 1.378 . S
C182 H194 0.952 . S
C183 C182 1.378 . S
C183 H195 0.950 . S
C183 C214 1.383 . S
H184 C203 0.947 . S
H185 C204 0.946 . S
H186 C206 0.953 . S
H187 C207 0.945 . S
H188 C209 0.952 . S
H189 C210 0.949 . S
H190 C212 0.950 . S
H191 C213 0.948 . S
H192 C215 0.951 . S
H193 C180 0.947 . S
H194 C182 0.952 . S
H195 C183 0.950 . S
N196 C199 1.382 . S
N196 C201 1.363 . S
N197 C199 1.371 . S
N197 C200 1.372 . S
N198 C200 1.361 . S
N198 C201 1.377 . S
C199 N196 1.382 . S
C199 N197 1.371 . S
C199 C202 1.480 . S
C200 N197 1.372 . S
C200 N198 1.361 . S
C200 C208 1.457 . S
C201 N196 1.363 . S
C201 N198 1.377 . S
C201 C214 1.479 . S
C202 C199 1.480 . S
C202 C203 1.383 . S
C202 C207 1.385 . S
C203 H184 0.947 . S
C203 C202 1.383 . S
C203 C204 1.388 . S
C204 H185 0.946 . S
C204 C203 1.388 . S
C204 C205 1.384 . S
C205 C204 1.384 . S
C205 C206 1.377 . S
C206 H186 0.953 . S
C206 C205 1.377 . S
C206 C207 1.369 . S
C207 H187 0.945 . S
C207 C202 1.385 . S
C207 C206 1.369 . S
C208 C200 1.457 . S
C208 C209 1.372 . S
C208 C213 1.364 . S
C209 H188 0.952 . S
C209 C208 1.372 . S
C209 C210 1.389 . S
C210 H189 0.949 . S
C210 C209 1.389 . S
C210 C211 1.387 . S
C211 C210 1.387 . S
C211 C212 1.372 . S
C212 H190 0.950 . S
C212 C211 1.372 . S
C212 C213 1.379 . S
C213 H191 0.948 . S
C213 C208 1.364 . S
C213 C212 1.379 . S
C214 C183 1.383 . S
C214 C201 1.479 . S
C214 C215 1.398 . S
C215 C180 1.382 . S
C215 H192 0.951 . S
C215 C214 1.398 . S
C216 C217 1.384 . S
C216 H229 0.947 . S
C216 C251 1.382 . S
C217 C216 1.384 . S
C217 C218 1.378 . S
C218 C217 1.378 . S
C218 C219 1.378 . S
C218 H230 0.952 . S
C219 C218 1.378 . S
C219 H231 0.950 . S
C219 C250 1.383 . S
H220 C239 0.947 . S
H221 C240 0.946 . S
H222 C242 0.953 . S
H223 C243 0.945 . S
H224 C245 0.952 . S
H225 C246 0.949 . S
H226 C248 0.950 . S
H227 C249 0.948 . S
H228 C251 0.951 . S
H229 C216 0.947 . S
H230 C218 0.952 . S
H231 C219 0.950 . S
N232 C235 1.382 . S
N232 C237 1.363 . S
N233 C235 1.371 . S
N233 C236 1.372 . S
N234 C236 1.361 . S
N234 C237 1.377 . S
C235 N232 1.382 . S
C235 N233 1.371 . S
C235 C238 1.480 . S
C236 N233 1.372 . S
C236 N234 1.361 . S
C236 C244 1.457 . S
C237 N232 1.363 . S
C237 N234 1.377 . S
C237 C250 1.479 . S
C238 C235 1.480 . S
C238 C239 1.383 . S
C238 C243 1.385 . S
C239 H220 0.947 . S
C239 C238 1.383 . S
C239 C240 1.388 . S
C240 H221 0.946 . S
C240 C239 1.388 . S
C240 C241 1.384 . S
C241 C240 1.384 . S
C241 C242 1.377 . S
C242 H222 0.953 . S
C242 C241 1.377 . S
C242 C243 1.369 . S
C243 H223 0.945 . S
C243 C238 1.385 . S
C243 C242 1.369 . S
C244 C236 1.457 . S
C244 C245 1.372 . S
C244 C249 1.364 . S
C245 H224 0.952 . S
C245 C244 1.372 . S
C245 C246 1.389 . S
C246 H225 0.949 . S
C246 C245 1.389 . S
C246 C247 1.387 . S
C247 C246 1.387 . S
C247 C248 1.372 . S
C248 H226 0.950 . S
C248 C247 1.372 . S
C248 C249 1.379 . S
C249 H227 0.948 . S
C249 C244 1.364 . S
C249 C248 1.379 . S
C250 C219 1.383 . S
C250 C237 1.479 . S
C250 C251 1.398 . S
C251 C216 1.382 . S
C251 H228 0.951 . S
C251 C250 1.398 . S
C252 C253 1.384 . S
C252 H265 0.947 . S
C252 C287 1.382 . S
C253 C252 1.384 . S
C253 C254 1.378 . S
C254 C253 1.378 . S
C254 C255 1.378 . S
C254 H266 0.952 . S
C255 C254 1.378 . S
C255 H267 0.950 . S
C255 C286 1.383 . S
H256 C275 0.947 . S
H257 C276 0.946 . S
H258 C278 0.953 . S
H259 C279 0.945 . S
H260 C281 0.952 . S
H261 C282 0.949 . S
H262 C284 0.950 . S
H263 C285 0.948 . S
H264 C287 0.951 . S
H265 C252 0.947 . S
H266 C254 0.952 . S
H267 C255 0.950 . S
N268 C271 1.382 . S
N268 C273 1.363 . S
N269 C271 1.371 . S
N269 C272 1.372 . S
N270 C272 1.361 . S
N270 C273 1.377 . S
C271 N268 1.382 . S
C271 N269 1.371 . S
C271 C274 1.480 . S
C272 N269 1.372 . S
C272 N270 1.361 . S
C272 C280 1.457 . S
C273 N268 1.363 . S
C273 N270 1.377 . S
C273 C286 1.479 . S
C274 C271 1.480 . S
C274 C275 1.383 . S
C274 C279 1.385 . S
C275 H256 0.947 . S
C275 C274 1.383 . S
C275 C276 1.388 . S
C276 H257 0.946 . S
C276 C275 1.388 . S
C276 C277 1.384 . S
C277 C276 1.384 . S
C277 C278 1.377 . S
C278 H258 0.953 . S
C278 C277 1.377 . S
C278 C279 1.369 . S
C279 H259 0.945 . S
C279 C274 1.385 . S
C279 C278 1.369 . S
C280 C272 1.457 . S
C280 C281 1.372 . S
C280 C285 1.364 . S
C281 H260 0.952 . S
C281 C280 1.372 . S
C281 C282 1.389 . S
C282 H261 0.949 . S
C282 C281 1.389 . S
C282 C283 1.387 . S
C283 C282 1.387 . S
C283 C284 1.372 . S
C284 H262 0.950 . S
C284 C283 1.372 . S
C284 C285 1.379 . S
C285 H263 0.948 . S
C285 C280 1.364 . S
C285 C284 1.379 . S
C286 C255 1.383 . S
C286 C273 1.479 . S
C286 C287 1.398 . S
C287 C252 1.382 . S
C287 H264 0.951 . S
C287 C286 1.398 . S
La288 C290 2.928 . S
La288 O308 2.521 . S
La288 O309 2.628 . S
La288 O310 2.554 1_545 S
La288 O311 2.757 1_545 S
La288 O312 2.470 . S
La288 O317 2.482 1_455 S
La288 O319 2.503 1_445 S
La289 C299 2.928 . S
La289 O311 2.482 1_655 S
La289 O313 2.503 1_665 S
La289 O314 2.521 . S
La289 O315 2.628 . S
La289 O316 2.554 1_565 S
La289 O317 2.757 1_565 S
La289 O318 2.470 . S
C290 La288 2.928 . S
C290 C291 1.503 . S
C290 O308 1.261 . S
C290 O309 1.243 . S
C291 C290 1.503 . S
C291 C292 1.394 . S
C291 C296 1.373 . S
C292 C291 1.394 . S
C292 C293 1.380 . S
C292 H320 0.930 . S
C293 C292 1.380 . S
C293 C294 1.376 . S
C293 H321 0.930 . S
C294 C293 1.376 . S
C294 C295 1.370 . S
C295 C294 1.370 . S
C295 C296 1.396 . S
C295 H322 0.929 . S
C296 C291 1.373 . S
C296 C295 1.396 . S
C296 H323 0.929 . S
C297 O310 1.240 . S
C297 O311 1.289 . S
C298 O312 1.258 . S
C298 O313 1.256 . S
C299 La289 2.928 . S
C299 C300 1.503 . S
C299 O314 1.261 . S
C299 O315 1.243 . S
C300 C299 1.503 . S
C300 C301 1.394 . S
C300 C305 1.373 . S
C301 C300 1.394 . S
C301 C302 1.380 . S
C301 H324 0.930 . S
C302 C301 1.380 . S
C302 C303 1.376 . S
C302 H325 0.930 . S
C303 C302 1.376 . S
C303 C304 1.370 . S
C304 C303 1.370 . S
C304 C305 1.396 . S
C304 H326 0.929 . S
C305 C300 1.373 . S
C305 C304 1.396 . S
C305 H327 0.929 . S
C306 O316 1.240 . S
C306 O317 1.289 . S
C307 O318 1.258 . S
C307 O319 1.256 . S
O308 La288 2.521 . S
O308 C290 1.261 . S
O309 La288 2.628 . S
O309 C290 1.243 . S
O310 La288 2.554 1_565 S
O310 C297 1.240 . S
O311 La288 2.757 1_565 S
O311 La289 2.482 1_455 S
O311 C297 1.289 . S
O312 La288 2.470 . S
O312 C298 1.258 . S
O313 La289 2.503 1_445 S
O313 C298 1.256 . S
O314 La289 2.521 . S
O314 C299 1.261 . S
O315 La289 2.628 . S
O315 C299 1.243 . S
O316 La289 2.554 1_545 S
O316 C306 1.240 . S
O317 La288 2.482 1_655 S
O317 La289 2.757 1_545 S
O317 C306 1.289 . S
O318 La289 2.470 . S
O318 C307 1.258 . S
O319 La288 2.503 1_665 S
O319 C307 1.256 . S
H320 C292 0.930 . S
H321 C293 0.930 . S
H322 C295 0.929 . S
H323 C296 0.929 . S
H324 C301 0.930 . S
H325 C302 0.930 . S
H326 C304 0.929 . S
H327 C305 0.929 . S
La328 C330 2.928 1_565 S
La328 O348 2.521 1_565 S
La328 O349 2.628 1_565 S
La328 O350 2.554 . S
La328 O351 2.757 . S
La328 O352 2.470 1_565 S
La328 O357 2.482 1_564 S
La328 O359 2.503 1_554 S
La329 C339 2.928 1_545 S
La329 O351 2.482 1_546 S
La329 O353 2.503 1_556 S
La329 O354 2.521 1_545 S
La329 O355 2.628 1_545 S
La329 O356 2.554 . S
La329 O357 2.757 . S
La329 O358 2.470 1_545 S
C330 La328 2.928 1_545 S
C330 C331 1.503 . S
C330 O348 1.261 . S
C330 O349 1.243 . S
C331 C330 1.503 . S
C331 C332 1.394 . S
C331 C336 1.373 . S
C332 C331 1.394 . S
C332 C333 1.380 . S
C332 H360 0.930 . S
C333 C332 1.380 . S
C333 C334 1.376 . S
C333 H361 0.930 . S
C334 C333 1.376 . S
C334 C335 1.370 . S
C335 C334 1.370 . S
C335 C336 1.396 . S
C335 H362 0.929 . S
C336 C331 1.373 . S
C336 C335 1.396 . S
C336 H363 0.929 . S
C337 O350 1.240 . S
C337 O351 1.289 . S
C338 O352 1.258 . S
C338 O353 1.256 . S
C339 La329 2.928 1_565 S
C339 C340 1.503 . S
C339 O354 1.261 . S
C339 O355 1.243 . S
C340 C339 1.503 . S
C340 C341 1.394 . S
C340 C345 1.373 . S
C341 C340 1.394 . S
C341 C342 1.380 . S
C341 H364 0.930 . S
C342 C341 1.380 . S
C342 C343 1.376 . S
C342 H365 0.930 . S
C343 C342 1.376 . S
C343 C344 1.370 . S
C344 C343 1.370 . S
C344 C345 1.396 . S
C344 H366 0.929 . S
C345 C340 1.373 . S
C345 C344 1.396 . S
C345 H367 0.929 . S
C346 O356 1.240 . S
C346 O357 1.289 . S
C347 O358 1.258 . S
C347 O359 1.256 . S
O348 La328 2.521 1_545 S
O348 C330 1.261 . S
O349 La328 2.628 1_545 S
O349 C330 1.243 . S
O350 La328 2.554 . S
O350 C337 1.240 . S
O351 La328 2.757 . S
O351 La329 2.482 1_564 S
O351 C337 1.289 . S
O352 La328 2.470 1_545 S
O352 C338 1.258 . S
O353 La329 2.503 1_554 S
O353 C338 1.256 . S
O354 La329 2.521 1_565 S
O354 C339 1.261 . S
O355 La329 2.628 1_565 S
O355 C339 1.243 . S
O356 La329 2.554 . S
O356 C346 1.240 . S
O357 La328 2.482 1_546 S
O357 La329 2.757 . S
O357 C346 1.289 . S
O358 La329 2.470 1_565 S
O358 C347 1.258 . S
O359 La328 2.503 1_556 S
O359 C347 1.256 . S
H360 C332 0.930 . S
H361 C333 0.930 . S
H362 C335 0.929 . S
H363 C336 0.929 . S
H364 C341 0.930 . S
H365 C342 0.930 . S
H366 C344 0.929 . S
H367 C345 0.929 . S
La368 C370 2.928 . S
La368 O388 2.521 . S
La368 O389 2.628 . S
La368 O390 2.554 . S
La368 O391 2.757 . S
La368 O392 2.470 . S
La368 O397 2.482 . S
La368 O399 2.503 . S
La369 C379 2.928 . S
La369 O391 2.482 . S
La369 O393 2.503 . S
La369 O394 2.521 . S
La369 O395 2.628 . S
La369 O396 2.554 . S
La369 O397 2.757 . S
La369 O398 2.470 . S
C370 La368 2.928 . S
C370 C371 1.503 . S
C370 O388 1.261 . S
C370 O389 1.243 . S
C371 C370 1.503 . S
C371 C372 1.394 . S
C371 C376 1.373 . S
C372 C371 1.394 . S
C372 C373 1.380 . S
C372 H400 0.930 . S
C373 C372 1.380 . S
C373 C374 1.376 . S
C373 H401 0.930 . S
C374 C373 1.376 . S
C374 C375 1.370 . S
C375 C374 1.370 . S
C375 C376 1.396 . S
C375 H402 0.929 . S
C376 C371 1.373 . S
C376 C375 1.396 . S
C376 H403 0.929 . S
C377 O390 1.240 . S
C377 O391 1.289 . S
C378 O392 1.258 . S
C378 O393 1.256 . S
C379 La369 2.928 . S
C379 C380 1.503 . S
C379 O394 1.261 . S
C379 O395 1.243 . S
C380 C379 1.503 . S
C380 C381 1.394 . S
C380 C385 1.373 . S
C381 C380 1.394 . S
C381 C382 1.380 . S
C381 H404 0.930 . S
C382 C381 1.380 . S
C382 C383 1.376 . S
C382 H405 0.930 . S
C383 C382 1.376 . S
C383 C384 1.370 . S
C384 C383 1.370 . S
C384 C385 1.396 . S
C384 H406 0.929 . S
C385 C380 1.373 . S
C385 C384 1.396 . S
C385 H407 0.929 . S
C386 O396 1.240 . S
C386 O397 1.289 . S
C387 O398 1.258 . S
C387 O399 1.256 . S
O388 La368 2.521 . S
O388 C370 1.261 . S
O389 La368 2.628 . S
O389 C370 1.243 . S
O390 La368 2.554 . S
O390 C377 1.240 . S
O391 La368 2.757 . S
O391 La369 2.482 . S
O391 C377 1.289 . S
O392 La368 2.470 . S
O392 C378 1.258 . S
O393 La369 2.503 . S
O393 C378 1.256 . S
O394 La369 2.521 . S
O394 C379 1.261 . S
O395 La369 2.628 . S
O395 C379 1.243 . S
O396 La369 2.554 . S
O396 C386 1.240 . S
O397 La368 2.482 . S
O397 La369 2.757 . S
O397 C386 1.289 . S
O398 La369 2.470 . S
O398 C387 1.258 . S
O399 La368 2.503 . S
O399 C387 1.256 . S
H400 C372 0.930 . S
H401 C373 0.930 . S
H402 C375 0.929 . S
H403 C376 0.929 . S
H404 C381 0.930 . S
H405 C382 0.930 . S
H406 C384 0.929 . S
H407 C385 0.929 . S
La408 C410 2.928 . S
La408 O428 2.521 . S
La408 O429 2.628 . S
La408 O430 2.554 1_455 S
La408 O431 2.757 1_455 S
La408 O432 2.470 . S
La408 O437 2.482 1_554 S
La408 O439 2.503 1_454 S
La409 C419 2.931 1_455 S
La409 O431 2.483 1_456 S
La409 O433 2.500 1_556 S
La409 O434 2.523 1_455 S
La409 O435 2.631 1_455 S
La409 O436 2.552 . S
La409 O437 2.755 . S
La409 O438 2.472 1_455 S
C410 La408 2.928 . S
C410 C411 1.503 . S
C410 O428 1.261 . S
C410 O429 1.243 . S
C411 C410 1.503 . S
C411 C412 1.394 . S
C411 C416 1.373 . S
C412 C411 1.394 . S
C412 C413 1.380 . S
C412 H440 0.930 . S
C413 C412 1.380 . S
C413 C414 1.376 . S
C413 H441 0.930 . S
C414 C413 1.376 . S
C414 C415 1.370 . S
C415 C414 1.370 . S
C415 C416 1.396 . S
C415 H442 0.929 . S
C416 C411 1.373 . S
C416 C415 1.396 . S
C416 H443 0.929 . S
C417 O430 1.240 . S
C417 O431 1.289 . S
C418 O432 1.258 . S
C418 O433 1.256 . S
C419 La409 2.931 1_655 S
C419 C420 1.503 . S
C419 O434 1.261 . S
C419 O435 1.243 . S
C420 C419 1.503 . S
C420 C421 1.394 . S
C420 C425 1.373 . S
C421 C420 1.394 . S
C421 C422 1.380 . S
C421 H444 0.930 . S
C422 C421 1.380 . S
C422 C423 1.376 . S
C422 H445 0.930 . S
C423 C422 1.376 . S
C423 C424 1.370 . S
C424 C423 1.370 . S
C424 C425 1.396 . S
C424 H446 0.929 . S
C425 C420 1.373 . S
C425 C424 1.396 . S
C425 H447 0.929 . S
C426 O436 1.240 . S
C426 O437 1.289 . S
C427 O438 1.258 . S
C427 O439 1.256 . S
O428 La408 2.521 . S
O428 C410 1.261 . S
O429 La408 2.628 . S
O429 C410 1.243 . S
O430 La408 2.554 1_655 S
O430 C417 1.240 . S
O431 La408 2.757 1_655 S
O431 La409 2.483 1_654 S
O431 C417 1.289 . S
O432 La408 2.470 . S
O432 C418 1.258 . S
O433 La409 2.500 1_554 S
O433 C418 1.256 . S
O434 La409 2.523 1_655 S
O434 C419 1.261 . S
O435 La409 2.631 1_655 S
O435 C419 1.243 . S
O436 La409 2.552 . S
O436 C426 1.240 . S
O437 La408 2.482 1_556 S
O437 La409 2.755 . S
O437 C426 1.289 . S
O438 La409 2.472 1_655 S
O438 C427 1.258 . S
O439 La408 2.503 1_656 S
O439 C427 1.256 . S
H440 C412 0.930 . S
H441 C413 0.930 . S
H442 C415 0.929 . S
H443 C416 0.929 . S
H444 C421 0.930 . S
H445 C422 0.930 . S
H446 C424 0.929 . S
H447 C425 0.929 . S
H448 C454 0.930 . S
H449 C457 0.930 . S
H450 C458 0.930 . S
H451 C459 0.930 . S
H452 C462 0.930 . S
H453 C463 0.930 . S
C454 H448 0.930 . S
C454 C455 1.355 . S
C454 C456 1.415 . S
C455 C454 1.355 . S
C455 C457 1.419 . S
C456 C454 1.415 . S
C456 C461 1.425 . S
C456 C463 1.409 . S
C457 H449 0.930 . S
C457 C455 1.419 . S
C457 C458 1.362 . S
C458 H450 0.930 . S
C458 C457 1.362 . S
C458 C461 1.409 . S
C459 H451 0.930 . S
C459 C460 1.355 . S
C459 C461 1.415 . S
C460 C459 1.355 . S
C460 C462 1.419 . S
C461 C456 1.425 . S
C461 C458 1.409 . S
C461 C459 1.415 . S
C462 H452 0.930 . S
C462 C460 1.419 . S
C462 C463 1.362 . S
C463 H453 0.930 . S
C463 C456 1.409 . S
C463 C462 1.362 . S
H464 C470 0.930 . S
H465 C473 0.930 . S
H466 C474 0.930 . S
H467 C475 0.930 . S
H468 C478 0.930 . S
H469 C479 0.930 . S
C470 H464 0.930 . S
C470 C471 1.355 . S
C470 C472 1.415 . S
C471 C470 1.355 . S
C471 C473 1.419 . S
C472 C470 1.415 . S
C472 C477 1.425 . S
C472 C479 1.409 . S
C473 H465 0.930 . S
C473 C471 1.419 . S
C473 C474 1.362 . S
C474 H466 0.930 . S
C474 C473 1.362 . S
C474 C477 1.409 . S
C475 H467 0.930 . S
C475 C476 1.355 . S
C475 C477 1.415 . S
C476 C475 1.355 . S
C476 C478 1.419 . S
C477 C472 1.425 . S
C477 C474 1.409 . S
C477 C475 1.415 . S
C478 H468 0.930 . S
C478 C476 1.419 . S
C478 C479 1.362 . S
C479 H469 0.930 . S
C479 C472 1.409 . S
C479 C478 1.362 . S
H480 C486 0.930 . S
H481 C489 0.930 . S
H482 C490 0.930 . S
H483 C491 0.930 . S
H484 C494 0.930 . S
H485 C495 0.930 . S
C486 H480 0.930 . S
C486 C487 1.355 . S
C486 C488 1.415 . S
C487 C486 1.355 . S
C487 C489 1.419 . S
C488 C486 1.415 . S
C488 C493 1.425 . S
C488 C495 1.409 . S
C489 H481 0.930 . S
C489 C487 1.419 . S
C489 C490 1.362 . S
C490 H482 0.930 . S
C490 C489 1.362 . S
C490 C493 1.409 . S
C491 H483 0.930 . S
C491 C492 1.355 . S
C491 C493 1.415 . S
C492 C491 1.355 . S
C492 C494 1.419 . S
C493 C488 1.425 . S
C493 C490 1.409 . S
C493 C491 1.415 . S
C494 H484 0.930 . S
C494 C492 1.419 . S
C494 C495 1.362 . S
C495 H485 0.930 . S
C495 C488 1.409 . S
C495 C494 1.362 . S
H496 C502 0.930 . S
H497 C505 0.930 . S
H498 C506 0.930 . S
H499 C507 0.930 . S
H500 C510 0.930 . S
H501 C511 0.930 . S
C502 H496 0.930 . S
C502 C503 1.355 . S
C502 C504 1.415 . S
C503 C502 1.355 . S
C503 C505 1.419 . S
C504 C502 1.415 . S
C504 C509 1.425 . S
C504 C511 1.409 . S
C505 H497 0.930 . S
C505 C503 1.419 . S
C505 C506 1.362 . S
C506 H498 0.930 . S
C506 C505 1.362 . S
C506 C509 1.409 . S
C507 H499 0.930 . S
C507 C508 1.355 . S
C507 C509 1.415 . S
C508 C507 1.355 . S
C508 C510 1.419 . S
C509 C504 1.425 . S
C509 C506 1.409 . S
C509 C507 1.415 . S
C510 H500 0.930 . S
C510 C508 1.419 . S
C510 C511 1.362 . S
C511 H501 0.930 . S
C511 C504 1.409 . S
C511 C510 1.362 . S
H512 C518 0.930 . S
H513 C521 0.930 . S
H514 C522 0.930 . S
H515 C523 0.930 . S
H516 C526 0.930 . S
H517 C527 0.930 . S
C518 H512 0.930 . S
C518 C519 1.355 . S
C518 C520 1.415 . S
C519 C518 1.355 . S
C519 C521 1.419 . S
C520 C518 1.415 . S
C520 C525 1.425 . S
C520 C527 1.409 . S
C521 H513 0.930 . S
C521 C519 1.419 . S
C521 C522 1.362 . S
C522 H514 0.930 . S
C522 C521 1.362 . S
C522 C525 1.409 . S
C523 H515 0.930 . S
C523 C524 1.355 . S
C523 C525 1.415 . S
C524 C523 1.355 . S
C524 C526 1.419 . S
C525 C520 1.425 . S
C525 C522 1.409 . S
C525 C523 1.415 . S
C526 H516 0.930 . S
C526 C524 1.419 . S
C526 C527 1.362 . S
C527 H517 0.930 . S
C527 C520 1.409 . S
C527 C526 1.362 . S
H528 C534 0.930 . S
H529 C537 0.930 . S
H530 C538 0.930 . S
H531 C539 0.930 . S
H532 C542 0.930 1_545 S
H533 C543 0.930 . S
C534 H528 0.930 . S
C534 C535 1.355 . S
C534 C536 1.415 . S
C535 C534 1.355 . S
C535 C537 1.419 . S
C536 C534 1.415 . S
C536 C541 1.425 . S
C536 C543 1.409 . S
C537 H529 0.930 . S
C537 C535 1.419 . S
C537 C538 1.362 . S
C538 H530 0.930 . S
C538 C537 1.362 . S
C538 C541 1.409 . S
C539 H531 0.930 . S
C539 C540 1.355 . S
C539 C541 1.415 . S
C540 C539 1.355 . S
C540 C542 1.419 . S
C541 C536 1.425 . S
C541 C538 1.409 . S
C541 C539 1.415 . S
C542 H532 0.930 1_565 S
C542 C540 1.419 . S
C542 C543 1.362 . S
C543 H533 0.930 . S
C543 C536 1.409 . S
C543 C542 1.362 . S
H544 C550 0.930 . S
H545 C553 0.930 . S
H546 C554 0.930 . S
H547 C555 0.930 . S
H548 C558 0.930 . S
H549 C559 0.930 . S
C550 H544 0.930 . S
C550 C551 1.355 . S
C550 C552 1.415 . S
C551 C550 1.355 . S
C551 C553 1.419 . S
C552 C550 1.415 . S
C552 C557 1.425 . S
C552 C559 1.409 . S
C553 H545 0.930 . S
C553 C551 1.419 . S
C553 C554 1.362 . S
C554 H546 0.930 . S
C554 C553 1.362 . S
C554 C557 1.409 . S
C555 H547 0.930 . S
C555 C556 1.355 . S
C555 C557 1.415 . S
C556 C555 1.355 . S
C556 C558 1.419 . S
C557 C552 1.425 . S
C557 C554 1.409 . S
C557 C555 1.415 . S
C558 H548 0.930 . S
C558 C556 1.419 . S
C558 C559 1.362 . S
C559 H549 0.930 . S
C559 C552 1.409 . S
C559 C558 1.362 . S
H560 C566 0.930 . S
H561 C569 0.930 . S
H562 C570 0.930 . S
H563 C571 0.930 . S
H564 C574 0.930 . S
H565 C575 0.930 . S
C566 H560 0.930 . S
C566 C567 1.355 . S
C566 C568 1.415 . S
C567 C566 1.355 . S
C567 C569 1.419 . S
C568 C566 1.415 . S
C568 C573 1.425 . S
C568 C575 1.409 . S
C569 H561 0.930 . S
C569 C567 1.419 . S
C569 C570 1.362 . S
C570 H562 0.930 . S
C570 C569 1.362 . S
C570 C573 1.409 . S
C571 H563 0.930 . S
C571 C572 1.355 . S
C571 C573 1.415 . S
C572 C571 1.355 . S
C572 C574 1.419 . S
C573 C568 1.425 . S
C573 C570 1.409 . S
C573 C571 1.415 . S
C574 H564 0.930 . S
C574 C572 1.419 . S
C574 C575 1.362 . S
C575 H565 0.930 . S
C575 C568 1.409 . S
C575 C574 1.362 . S
H576 C582 0.930 . S
H577 C585 0.930 . S
H578 C586 0.930 . S
H579 C587 0.930 . S
H580 C590 0.930 . S
H581 C591 0.930 . S
C582 H576 0.930 . S
C582 C583 1.355 . S
C582 C584 1.415 . S
C583 C582 1.355 . S
C583 C585 1.419 . S
C584 C582 1.415 . S
C584 C589 1.425 . S
C584 C591 1.409 . S
C585 H577 0.930 . S
C585 C583 1.419 . S
C585 C586 1.362 . S
C586 H578 0.930 . S
C586 C585 1.362 . S
C586 C589 1.409 . S
C587 H579 0.930 . S
C587 C588 1.355 . S
C587 C589 1.415 . S
C588 C587 1.355 . S
C588 C590 1.419 . S
C589 C584 1.425 . S
C589 C586 1.409 . S
C589 C587 1.415 . S
C590 H580 0.930 . S
C590 C588 1.419 . S
C590 C591 1.362 . S
C591 H581 0.930 . S
C591 C584 1.409 . S
C591 C590 1.362 . S
H592 C598 0.930 . S
H593 C601 0.930 . S
H594 C602 0.930 . S
H595 C603 0.930 . S
H596 C606 0.930 . S
H597 C607 0.930 . S
C598 H592 0.930 . S
C598 C599 1.355 . S
C598 C600 1.415 . S
C599 C598 1.355 . S
C599 C601 1.419 . S
C600 C598 1.415 . S
C600 C605 1.425 . S
C600 C607 1.409 . S
C601 H593 0.930 . S
C601 C599 1.419 . S
C601 C602 1.362 . S
C602 H594 0.930 . S
C602 C601 1.362 . S
C602 C605 1.409 . S
C603 H595 0.930 . S
C603 C604 1.355 . S
C603 C605 1.415 . S
C604 C603 1.355 . S
C604 C606 1.419 . S
C605 C600 1.425 . S
C605 C602 1.409 . S
C605 C603 1.415 . S
C606 H596 0.930 . S
C606 C604 1.419 . S
C606 C607 1.362 . S
C607 H597 0.930 . S
C607 C600 1.409 . S
C607 C606 1.362 . S
H608 C614 0.930 . S
H609 C617 0.930 . S
H610 C618 0.930 . S
H611 C619 0.930 . S
H612 C622 0.930 1_455 S
H613 C623 0.930 . S
C614 H608 0.930 . S
C614 C615 1.355 . S
C614 C616 1.415 . S
C615 C614 1.355 . S
C615 C617 1.419 . S
C616 C614 1.415 . S
C616 C621 1.425 . S
C616 C623 1.409 . S
C617 H609 0.930 . S
C617 C615 1.419 . S
C617 C618 1.362 . S
C618 H610 0.930 . S
C618 C617 1.362 . S
C618 C621 1.409 . S
C619 H611 0.930 . S
C619 C620 1.355 . S
C619 C621 1.415 . S
C620 C619 1.355 . S
C620 C622 1.419 . S
C621 C616 1.425 . S
C621 C618 1.409 . S
C621 C619 1.415 . S
C622 H612 0.930 1_655 S
C622 C620 1.419 . S
C622 C623 1.362 . S
C623 H613 0.930 . S
C623 C616 1.409 . S
C623 C622 1.362 . S
H624 C630 0.930 . S
H625 C633 0.930 . S
H626 C634 0.930 . S
H627 C635 0.930 . S
H628 C638 0.930 . S
H629 C639 0.930 . S
C630 H624 0.930 . S
C630 C631 1.355 . S
C630 C632 1.415 . S
C631 C630 1.355 . S
C631 C633 1.419 . S
C632 C630 1.415 . S
C632 C637 1.425 . S
C632 C639 1.409 . S
C633 H625 0.930 . S
C633 C631 1.419 . S
C633 C634 1.362 . S
C634 H626 0.930 . S
C634 C633 1.362 . S
C634 C637 1.409 . S
C635 H627 0.930 . S
C635 C636 1.355 . S
C635 C637 1.415 . S
C636 C635 1.355 . S
C636 C638 1.419 . S
C637 C632 1.425 . S
C637 C634 1.409 . S
C637 C635 1.415 . S
C638 H628 0.930 . S
C638 C636 1.419 . S
C638 C639 1.362 . S
C639 H629 0.930 . S
C639 C632 1.409 . S
C639 C638 1.362 . S
H640 C646 0.930 . S
H641 C649 0.930 . S
H642 C650 0.930 . S
H643 C651 0.930 . S
H644 C654 0.930 . S
H645 C655 0.930 . S
C646 H640 0.930 . S
C646 C647 1.355 . S
C646 C648 1.415 . S
C647 C646 1.355 . S
C647 C649 1.419 . S
C648 C646 1.415 . S
C648 C653 1.425 . S
C648 C655 1.409 . S
C649 H641 0.930 . S
C649 C647 1.419 . S
C649 C650 1.362 . S
C650 H642 0.930 . S
C650 C649 1.362 . S
C650 C653 1.409 . S
C651 H643 0.930 . S
C651 C652 1.355 . S
C651 C653 1.415 . S
C652 C651 1.355 . S
C652 C654 1.419 . S
C653 C648 1.425 . S
C653 C650 1.409 . S
C653 C651 1.415 . S
C654 H644 0.930 . S
C654 C652 1.419 . S
C654 C655 1.362 . S
C655 H645 0.930 . S
C655 C648 1.409 . S
C655 C654 1.362 . S
H656 C662 0.930 . S
H657 C665 0.930 . S
H658 C666 0.930 . S
H659 C667 0.930 . S
H660 C670 0.930 . S
H661 C671 0.930 . S
C662 H656 0.930 . S
C662 C663 1.355 . S
C662 C664 1.415 . S
C663 C662 1.355 . S
C663 C665 1.419 . S
C664 C662 1.415 . S
C664 C669 1.425 . S
C664 C671 1.409 . S
C665 H657 0.930 . S
C665 C663 1.419 . S
C665 C666 1.362 . S
C666 H658 0.930 . S
C666 C665 1.362 . S
C666 C669 1.409 . S
C667 H659 0.930 . S
C667 C668 1.355 . S
C667 C669 1.415 . S
C668 C667 1.355 . S
C668 C670 1.419 . S
C669 C664 1.425 . S
C669 C666 1.409 . S
C669 C667 1.415 . S
C670 H660 0.930 . S
C670 C668 1.419 . S
C670 C671 1.362 . S
C671 H661 0.930 . S
C671 C664 1.409 . S
C671 C670 1.362 . S
H672 C678 0.930 . S
H673 C681 0.930 . S
H674 C682 0.930 . S
H675 C683 0.930 . S
H676 C686 0.930 . S
H677 C687 0.930 . S
C678 H672 0.930 . S
C678 C679 1.355 . S
C678 C680 1.415 . S
C679 C678 1.355 . S
C679 C681 1.419 . S
C680 C678 1.415 . S
C680 C685 1.425 . S
C680 C687 1.409 . S
C681 H673 0.930 . S
C681 C679 1.419 . S
C681 C682 1.362 . S
C682 H674 0.930 . S
C682 C681 1.362 . S
C682 C685 1.409 . S
C683 H675 0.930 . S
C683 C684 1.355 . S
C683 C685 1.415 . S
C684 C683 1.355 . S
C684 C686 1.419 . S
C685 C680 1.425 . S
C685 C682 1.409 . S
C685 C683 1.415 . S
C686 H676 0.930 . S
C686 C684 1.419 . S
C686 C687 1.362 . S
C687 H677 0.930 . S
C687 C680 1.409 . S
C687 C686 1.362 . S
H688 C694 0.930 . S
H689 C697 0.930 . S
H690 C698 0.930 . S
H691 C699 0.930 . S
H692 C702 0.930 . S
H693 C703 0.930 . S
C694 H688 0.930 . S
C694 C695 1.355 . S
C694 C696 1.415 . S
C695 C694 1.355 . S
C695 C697 1.419 . S
C696 C694 1.415 . S
C696 C701 1.425 . S
C696 C703 1.409 . S
C697 H689 0.930 . S
C697 C695 1.419 . S
C697 C698 1.362 . S
C698 H690 0.930 . S
C698 C697 1.362 . S
C698 C701 1.409 . S
C699 H691 0.930 . S
C699 C700 1.355 . S
C699 C701 1.415 . S
C700 C699 1.355 . S
C700 C702 1.419 . S
C701 C696 1.425 . S
C701 C698 1.409 . S
C701 C699 1.415 . S
C702 H692 0.930 . S
C702 C700 1.419 . S
C702 C703 1.362 . S
C703 H693 0.930 . S
C703 C696 1.409 . S
C703 C702 1.362 . S
H704 C710 0.930 . S
H705 C713 0.930 . S
H706 C714 0.930 . S
H707 C715 0.930 . S
H708 C718 0.930 . S
H709 C719 0.930 . S
C710 H704 0.930 . S
C710 C711 1.355 . S
C710 C712 1.415 . S
C711 C710 1.355 . S
C711 C713 1.419 . S
C712 C710 1.415 . S
C712 C717 1.425 . S
C712 C719 1.409 . S
C713 H705 0.930 . S
C713 C711 1.419 . S
C713 C714 1.362 . S
C714 H706 0.930 . S
C714 C713 1.362 . S
C714 C717 1.409 . S
C715 H707 0.930 . S
C715 C716 1.355 . S
C715 C717 1.415 . S
C716 C715 1.355 . S
C716 C718 1.419 . S
C717 C712 1.425 . S
C717 C714 1.409 . S
C717 C715 1.415 . S
C718 H708 0.930 . S
C718 C716 1.419 . S
C718 C719 1.362 . S
C719 H709 0.930 . S
C719 C712 1.409 . S
C719 C718 1.362 . S
H720 C726 0.930 . S
H721 C729 0.930 . S
H722 C730 0.930 . S
H723 C731 0.930 . S
H724 C734 0.930 . S
H725 C735 0.930 . S
C726 H720 0.930 . S
C726 C727 1.355 . S
C726 C728 1.415 . S
C727 C726 1.355 . S
C727 C729 1.419 . S
C728 C726 1.415 . S
C728 C733 1.425 . S
C728 C735 1.409 . S
C729 H721 0.930 . S
C729 C727 1.419 . S
C729 C730 1.362 . S
C730 H722 0.930 . S
C730 C729 1.362 . S
C730 C733 1.409 . S
C731 H723 0.930 . S
C731 C732 1.355 . S
C731 C733 1.415 . S
C732 C731 1.355 . S
C732 C734 1.419 . S
C733 C728 1.425 . S
C733 C730 1.409 . S
C733 C731 1.415 . S
C734 H724 0.930 . S
C734 C732 1.419 . S
C734 C735 1.362 . S
C735 H725 0.930 . S
C735 C728 1.409 . S
C735 C734 1.362 . S
H736 C742 0.930 . S
H737 C745 0.930 . S
H738 C746 0.930 . S
H739 C747 0.930 . S
H740 C750 0.930 . S
H741 C751 0.930 . S
C742 H736 0.930 . S
C742 C743 1.355 . S
C742 C744 1.415 . S
C743 C742 1.355 . S
C743 C745 1.419 . S
C744 C742 1.415 . S
C744 C749 1.425 . S
C744 C751 1.409 . S
C745 H737 0.930 . S
C745 C743 1.419 . S
C745 C746 1.362 . S
C746 H738 0.930 . S
C746 C745 1.362 . S
C746 C749 1.409 . S
C747 H739 0.930 . S
C747 C748 1.355 . S
C747 C749 1.415 . S
C748 C747 1.355 . S
C748 C750 1.419 . S
C749 C744 1.425 . S
C749 C746 1.409 . S
C749 C747 1.415 . S
C750 H740 0.930 . S
C750 C748 1.419 . S
C750 C751 1.362 . S
C751 H741 0.930 . S
C751 C744 1.409 . S
C751 C750 1.362 . S
H752 C758 0.930 . S
H753 C761 0.930 . S
H754 C762 0.930 . S
H755 C763 0.930 . S
H756 C766 0.930 . S
H757 C767 0.930 . S
C758 H752 0.930 . S
C758 C759 1.355 . S
C758 C760 1.415 . S
C759 C758 1.355 . S
C759 C761 1.419 . S
C760 C758 1.415 . S
C760 C765 1.425 . S
C760 C767 1.409 . S
C761 H753 0.930 . S
C761 C759 1.419 . S
C761 C762 1.362 . S
C762 H754 0.930 . S
C762 C761 1.362 . S
C762 C765 1.409 . S
C763 H755 0.930 . S
C763 C764 1.355 . S
C763 C765 1.415 . S
C764 C763 1.355 . S
C764 C766 1.419 . S
C765 C760 1.425 . S
C765 C762 1.409 . S
C765 C763 1.415 . S
C766 H756 0.930 . S
C766 C764 1.419 . S
C766 C767 1.362 . S
C767 H757 0.930 . S
C767 C760 1.409 . S
C767 C766 1.362 . S
H768 C774 0.930 . S
H769 C777 0.930 . S
H770 C778 0.930 . S
H771 C779 0.930 . S
H772 C782 0.930 . S
H773 C783 0.930 . S
C774 H768 0.930 . S
C774 C775 1.355 . S
C774 C776 1.415 . S
C775 C774 1.355 . S
C775 C777 1.419 . S
C776 C774 1.415 . S
C776 C781 1.425 . S
C776 C783 1.409 . S
C777 H769 0.930 . S
C777 C775 1.419 . S
C777 C778 1.362 . S
C778 H770 0.930 . S
C778 C777 1.362 . S
C778 C781 1.409 . S
C779 H771 0.930 . S
C779 C780 1.355 . S
C779 C781 1.415 . S
C780 C779 1.355 . S
C780 C782 1.419 . S
C781 C776 1.425 . S
C781 C778 1.409 . S
C781 C779 1.415 . S
C782 H772 0.930 . S
C782 C780 1.419 . S
C782 C783 1.362 . S
C783 H773 0.930 . S
C783 C776 1.409 . S
C783 C782 1.362 . S
H784 C790 0.930 . S
H785 C793 0.930 . S
H786 C794 0.930 . S
H787 C795 0.930 . S
H788 C798 0.930 . S
H789 C799 0.930 . S
C790 H784 0.930 . S
C790 C791 1.355 . S
C790 C792 1.415 . S
C791 C790 1.355 . S
C791 C793 1.419 . S
C792 C790 1.415 . S
C792 C797 1.425 . S
C792 C799 1.409 . S
C793 H785 0.930 . S
C793 C791 1.419 . S
C793 C794 1.362 . S
C794 H786 0.930 . S
C794 C793 1.362 . S
C794 C797 1.409 . S
C795 H787 0.930 . S
C795 C796 1.355 . S
C795 C797 1.415 . S
C796 C795 1.355 . S
C796 C798 1.419 . S
C797 C792 1.425 . S
C797 C794 1.409 . S
C797 C795 1.415 . S
C798 H788 0.930 . S
C798 C796 1.419 . S
C798 C799 1.362 . S
C799 H789 0.930 . S
C799 C792 1.409 . S
C799 C798 1.362 . S
H800 C806 0.930 . S
H801 C809 0.930 . S
H802 C810 0.930 . S
H803 C811 0.930 . S
H804 C814 0.930 . S
H805 C815 0.930 . S
C806 H800 0.930 . S
C806 C807 1.355 . S
C806 C808 1.415 . S
C807 C806 1.355 . S
C807 C809 1.419 . S
C808 C806 1.415 . S
C808 C813 1.425 . S
C808 C815 1.409 . S
C809 H801 0.930 . S
C809 C807 1.419 . S
C809 C810 1.362 . S
C810 H802 0.930 . S
C810 C809 1.362 . S
C810 C813 1.409 . S
C811 H803 0.930 . S
C811 C812 1.355 . S
C811 C813 1.415 . S
C812 C811 1.355 . S
C812 C814 1.419 . S
C813 C808 1.425 . S
C813 C810 1.409 . S
C813 C811 1.415 . S
C814 H804 0.930 . S
C814 C812 1.419 . S
C814 C815 1.362 . S
C815 H805 0.930 . S
C815 C808 1.409 . S
C815 C814 1.362 . S
H816 C822 0.930 . S
H817 C825 0.930 . S
H818 C826 0.930 . S
H819 C827 0.930 . S
H820 C830 0.930 . S
H821 C831 0.930 . S
C822 H816 0.930 . S
C822 C823 1.355 . S
C822 C824 1.415 . S
C823 C822 1.355 . S
C823 C825 1.419 . S
C824 C822 1.415 . S
C824 C829 1.425 . S
C824 C831 1.409 . S
C825 H817 0.930 . S
C825 C823 1.419 . S
C825 C826 1.362 . S
C826 H818 0.930 . S
C826 C825 1.362 . S
C826 C829 1.409 . S
C827 H819 0.930 . S
C827 C828 1.355 . S
C827 C829 1.415 . S
C828 C827 1.355 . S
C828 C830 1.419 . S
C829 C824 1.425 . S
C829 C826 1.409 . S
C829 C827 1.415 . S
C830 H820 0.930 . S
C830 C828 1.419 . S
C830 C831 1.362 . S
C831 H821 0.930 . S
C831 C824 1.409 . S
C831 C830 1.362 . S
C455 C1 1.248 . S
C460 C294 1.305 . S
C471 C67 1.033 . S
C476 C343 1.032 . S
C492 C378 2.485 . S
C487 C97 2.528 . S
C503 C133 2.448 . S
C508 C417 2.403 . S
C524 C338 2.502 . S
C519 C25 2.404 . S
C540 C297 0.755 . S
C535 C37 0.810 . S
C556 C427 1.886 . S
C551 C103 1.958 . S
C572 C386 1.667 . S
C567 C109 1.683 . S
C583 C31 1.647 . S
C588 C414 1.722 . S
C604 C346 2.290 . S
C599 C73 2.408 . S
C615 C139 2.365 . S
C620 C307 2.351 . S
C631 C61 0.978 . S
C636 C383 0.972 . S
C652 C303 1.265 . S
C647 C175 1.177 . S
C663 C181 1.018 . S
C668 C334 1.019 . S
C679 C247 2.540 . S
C684 C387 2.495 . S
C695 C277 2.432 . S
C700 C426 2.393 . S
C711 C145 2.290 . S
C716 C347 2.490 . S
C732 C306 0.745 . S
C727 C211 0.771 . S
C748 C418 1.911 . S
C743 C217 1.945 . S
C764 C377 1.681 . S
C759 C283 1.691 . S
C775 C169 1.551 . S
C780 C423 1.713 . S
C796 C337 2.323 . S
C791 C241 2.425 . S
C812 C298 2.330 . S
C807 C253 2.358 . S
C823 C205 0.952 . S
C828 C374 0.981 . S
