# Generated by pormake.
# Topology pyr, (3,6)-cn, num edge types: 1
# Building blocks:
#     Node 0, Type 0, BuildingBlock: CUQRIR_clean_linker_1, # of connection points: 3
#     Node 1, Type 0, BuildingBlock: CUQRIR_clean_linker_1, # of connection points: 3
#     Node 2, Type 0, BuildingBlock: CUQRIR_clean_linker_1, # of connection points: 3
#     Node 3, Type 0, BuildingBlock: CUQRIR_clean_linker_1, # of connection points: 3
#     Node 4, Type 0, BuildingBlock: CUQRIR_clean_linker_1, # of connection points: 3
#     Node 5, Type 0, BuildingBlock: CUQRIR_clean_linker_1, # of connection points: 3
#     Node 6, Type 0, BuildingBlock: CUQRIR_clean_linker_1, # of connection points: 3
#     Node 7, Type 0, BuildingBlock: CUQRIR_clean_linker_1, # of connection points: 3
#     Node 8, Type 1, BuildingBlock: BETDEL_clean_sbu_0, # of connection points: 6
#     Node 9, Type 1, BuildingBlock: BETDEL_clean_sbu_0, # of connection points: 6
#     Node 10, Type 1, BuildingBlock: BETDEL_clean_sbu_0, # of connection points: 6
#     Node 11, Type 1, BuildingBlock: BETDEL_clean_sbu_0, # of connection points: 6
#     Edge 12, Type (0, 1), BuildingBlock: KIFKEQ_clean_linker_1, # of connection points: 2
#     Edge 13, Type (0, 1), BuildingBlock: KIFKEQ_clean_linker_1, # of connection points: 2
#     Edge 14, Type (0, 1), BuildingBlock: KIFKEQ_clean_linker_1, # of connection points: 2
#     Edge 15, Type (0, 1), BuildingBlock: KIFKEQ_clean_linker_1, # of connection points: 2
#     Edge 16, Type (0, 1), BuildingBlock: KIFKEQ_clean_linker_1, # of connection points: 2
#     Edge 17, Type (0, 1), BuildingBlock: KIFKEQ_clean_linker_1, # of connection points: 2
#     Edge 18, Type (0, 1), BuildingBlock: KIFKEQ_clean_linker_1, # of connection points: 2
#     Edge 19, Type (0, 1), BuildingBlock: KIFKEQ_clean_linker_1, # of connection points: 2
#     Edge 20, Type (0, 1), BuildingBlock: KIFKEQ_clean_linker_1, # of connection points: 2
#     Edge 21, Type (0, 1), BuildingBlock: KIFKEQ_clean_linker_1, # of connection points: 2
#     Edge 22, Type (0, 1), BuildingBlock: KIFKEQ_clean_linker_1, # of connection points: 2
#     Edge 23, Type (0, 1), BuildingBlock: KIFKEQ_clean_linker_1, # of connection points: 2
#     Edge 24, Type (0, 1), BuildingBlock: KIFKEQ_clean_linker_1, # of connection points: 2
#     Edge 25, Type (0, 1), BuildingBlock: KIFKEQ_clean_linker_1, # of connection points: 2
#     Edge 26, Type (0, 1), BuildingBlock: KIFKEQ_clean_linker_1, # of connection points: 2
#     Edge 27, Type (0, 1), BuildingBlock: KIFKEQ_clean_linker_1, # of connection points: 2
#     Edge 28, Type (0, 1), BuildingBlock: KIFKEQ_clean_linker_1, # of connection points: 2
#     Edge 29, Type (0, 1), BuildingBlock: KIFKEQ_clean_linker_1, # of connection points: 2
#     Edge 30, Type (0, 1), BuildingBlock: KIFKEQ_clean_linker_1, # of connection points: 2
#     Edge 31, Type (0, 1), BuildingBlock: KIFKEQ_clean_linker_1, # of connection points: 2
#     Edge 32, Type (0, 1), BuildingBlock: KIFKEQ_clean_linker_1, # of connection points: 2
#     Edge 33, Type (0, 1), BuildingBlock: KIFKEQ_clean_linker_1, # of connection points: 2
#     Edge 34, Type (0, 1), BuildingBlock: KIFKEQ_clean_linker_1, # of connection points: 2
#     Edge 35, Type (0, 1), BuildingBlock: KIFKEQ_clean_linker_1, # of connection points: 2
# Relax obj value: 0.100
# Max RMSD: 0.229
# Mean RMSD: 0.155
data_MOF--net-pyr--node1-BETDEL_clean_sbu_0--node2-CUQRIR_clean_linker_1--edge1-KIFKEQ_clean_linker_1
_symmetry_space_group_name_H-M    P1
_symmetry_Int_Tables_number       1
_symmetry_cell_setting            triclinic
loop_
_symmetry_equiv_pos_as_xyz
'x, y, z'
_cell_length_a     34.383879
_cell_length_b     35.757031
_cell_length_c     32.360263
_cell_angle_alpha  90.415626
_cell_angle_beta   90.400052
_cell_angle_gamma 99.267553
loop_
_atom_site_label
_atom_site_type_symbol
_atom_site_fract_x
_atom_site_fract_y
_atom_site_fract_z
_atom_type_partial_charge
C0 C 0.22696 0.27727 0.18826 0.0
N1 N 0.25038 0.25089 0.19461 0.0
N2 N 0.23707 0.29643 0.15301 0.0
C3 C 0.19067 0.28072 0.21307 0.0
C4 C 0.26713 0.28039 0.13788 0.0
N5 N 0.27509 0.25256 0.16314 0.0
C6 C 0.28866 0.29208 0.09862 0.0
H7 H 0.1657 0.2841 0.19228 0.0
H8 H 0.19695 0.30634 0.23306 0.0
H9 H 0.1815 0.25584 0.233 0.0
H10 H 0.28721 0.32217 0.09161 0.0
H11 H 0.27468 0.27427 0.07266 0.0
H12 H 0.31992 0.28801 0.10109 0.0
C13 C 0.28423 0.84242 0.65726 0.0
N14 N 0.27429 0.87037 0.68172 0.0
N15 N 0.31505 0.82828 0.67368 0.0
C16 C 0.26562 0.83045 0.61602 0.0
C17 C 0.32378 0.8486 0.70884 0.0
N18 N 0.29922 0.8743 0.71369 0.0
C19 C 0.35522 0.84254 0.73957 0.0
H20 H 0.239 0.80897 0.62097 0.0
H21 H 0.28619 0.81765 0.59611 0.0
H22 H 0.25657 0.85497 0.59985 0.0
H23 H 0.37202 0.82016 0.72958 0.0
H24 H 0.34143 0.83437 0.76976 0.0
H25 H 0.37576 0.86954 0.74442 0.0
C26 C 0.61345 0.34775 0.84769 0.0
N27 N 0.63604 0.34324 0.8812 0.0
N28 N 0.62122 0.38385 0.83393 0.0
C29 C 0.58233 0.31746 0.82977 0.0
C30 C 0.64924 0.40116 0.86038 0.0
N31 N 0.65778 0.37666 0.88954 0.0
C32 C 0.67127 0.44081 0.8551 0.0
H33 H 0.59623 0.30027 0.80723 0.0
H34 H 0.55907 0.33006 0.81359 0.0
H35 H 0.56865 0.29832 0.85434 0.0
H36 H 0.65717 0.46056 0.87438 0.0
H37 H 0.67075 0.4499 0.82244 0.0
H38 H 0.70243 0.44286 0.86528 0.0
C39 C 0.8322 0.67316 0.32635 0.0
N40 N 0.86628 0.69652 0.31732 0.0
N41 N 0.81682 0.68367 0.36225 0.0
C42 C 0.81547 0.63831 0.30173 0.0
C43 C 0.84285 0.71417 0.37496 0.0
N44 N 0.87316 0.72184 0.34806 0.0
C45 C 0.83773 0.73764 0.41276 0.0
H46 H 0.79757 0.64671 0.27576 0.0
H47 H 0.79639 0.61747 0.32101 0.0
H48 H 0.8394 0.62459 0.28855 0.0
H49 H 0.85439 0.72769 0.43886 0.0
H50 H 0.80625 0.73489 0.42146 0.0
H51 H 0.84949 0.76798 0.40758 0.0
C52 C 0.79321 0.8578 0.88555 0.0
N53 N 0.82437 0.85079 0.86342 0.0
N54 N 0.77538 0.88411 0.86654 0.0
C55 C 0.77967 0.83835 0.92518 0.0
C56 C 0.79679 0.89273 0.83198 0.0
N57 N 0.82633 0.872 0.82987 0.0
C58 C 0.79129 0.92403 0.8027 0.0
H59 H 0.7479 0.83891 0.93035 0.0
H60 H 0.79681 0.85322 0.95132 0.0
H61 H 0.78495 0.80854 0.92471 0.0
H62 H 0.81936 0.93607 0.78765 0.0
H63 H 0.77937 0.94707 0.81901 0.0
H64 H 0.76988 0.91229 0.77826 0.0
C65 C 0.77328 0.25452 0.41025 0.0
N66 N 0.78554 0.22769 0.38565 0.0
N67 N 0.74769 0.27294 0.38962 0.0
C68 C 0.78528 0.26238 0.45458 0.0
C69 C 0.74517 0.2568 0.35161 0.0
N70 N 0.76816 0.22947 0.34899 0.0
C71 C 0.7171 0.26517 0.31813 0.0
H72 H 0.76435 0.24416 0.47477 0.0
H73 H 0.7842 0.29236 0.46284 0.0
H74 H 0.81544 0.25622 0.46041 0.0
H75 H 0.70219 0.28948 0.32618 0.0
H76 H 0.6946 0.23969 0.31238 0.0
H77 H 0.73337 0.27197 0.28899 0.0
C78 C 0.34825 0.67782 0.17973 0.0
N79 N 0.38063 0.7012 0.19393 0.0
N80 N 0.32567 0.69711 0.15623 0.0
C81 C 0.33722 0.63681 0.19135 0.0
C82 C 0.34505 0.73304 0.15683 0.0
N83 N 0.37812 0.73578 0.18034 0.0
C84 C 0.33305 0.76494 0.13212 0.0
H85 H 0.35459 0.6196 0.17235 0.0
H86 H 0.30541 0.62641 0.18599 0.0
H87 H 0.34441 0.63266 0.22432 0.0
H88 H 0.31851 0.78315 0.15294 0.0
H89 H 0.31223 0.75416 0.10681 0.0
H90 H 0.35924 0.78272 0.11861 0.0
C91 C 0.13797 0.36787 0.70449 0.0
N92 N 0.16283 0.36227 0.67346 0.0
N93 N 0.14998 0.40162 0.72388 0.0
C94 C 0.10278 0.3396 0.71687 0.0
C95 C 0.1833 0.41619 0.70338 0.0
N96 N 0.19131 0.39227 0.6729 0.0
C97 C 0.2066 0.45499 0.71117 0.0
H98 H 0.0766 0.34533 0.69927 0.0
H99 H 0.09684 0.34192 0.75037 0.0
H100 H 0.10711 0.31019 0.70967 0.0
H101 H 0.23045 0.45274 0.73384 0.0
H102 H 0.18759 0.47451 0.72391 0.0
H103 H 0.22034 0.4671 0.68227 0.0
Dy104 Dy 0.06492 0.04895 0.46377 0.0
C105 C 0.99881 0.98863 0.613 0.0
C106 C 0.11011 0.08145 0.40098 0.0
Dy107 Dy 0.01782 0.02589 0.54131 0.0
O108 O 0.12261 0.07594 0.43791 0.0
O109 O 0.07236 0.06954 0.39809 0.0
O110 O 0.09826 1.0009 0.47772 0.0
O111 O 0.07952 0.03233 0.52614 0.0
C112 C 0.09686 1.00499 0.51747 0.0
C113 C 0.97036 0.05853 0.49174 0.0
O114 O 0.05275 0.08153 0.5629 0.0
O115 O 0.07062 0.10464 0.49782 0.0
O116 O 0.99651 0.02413 0.60684 0.0
O117 O 0.01155 0.97368 0.58011 0.0
O118 O 0.96008 0.04431 0.5276 0.0
O119 O 1.00533 0.05383 0.48374 0.0
O120 O 0.02591 0.99843 0.43714 0.0
O121 O 1.00646 0.97306 0.5008 0.0
C122 C 0.06808 0.10963 0.53831 0.0
C123 C 1.00865 0.96998 0.45992 0.0
Dy124 Dy 0.54969 0.05652 0.07922 0.0
C125 C 0.42083 0.9904 0.9662 0.0
C126 C 0.60441 0.09165 0.13404 0.0
Dy127 Dy 0.48215 0.02611 0.01351 0.0
O128 O 0.57002 0.0732 0.14374 0.0
O129 O 0.6086 0.09187 0.09409 0.0
O130 O 0.55365 0.99685 0.09532 0.0
O131 O 0.49891 1.00975 0.07623 0.0
C132 C 0.51738 0.98316 0.08613 0.0
C133 C 0.52461 0.09367 0.99094 0.0
O134 O 0.44864 0.0499 0.06318 0.0
O135 O 0.50115 0.08881 0.09568 0.0
O136 O 0.42557 0.02552 0.9784 0.0
O137 O 0.44917 0.97408 0.9811 0.0
O138 O 0.49699 0.07479 0.96811 0.0
O139 O 0.52685 0.07467 0.02286 0.0
O140 O 0.5836 0.04008 0.02548 0.0
O141 O 0.53283 0.99867 0.99316 0.0
C142 C 0.46284 0.07811 0.08866 0.0
C143 C 0.5707 1.01278 0.99836 0.0
Dy144 Dy 0.51043 0.50031 0.4815 0.0
C145 C 0.44924 0.61715 0.56933 0.0
C146 C 0.5541 0.44885 0.45026 0.0
Dy147 Dy 0.48907 0.56581 0.53286 0.0
O148 O 0.52069 0.44038 0.46917 0.0
O149 O 0.56271 0.48537 0.44684 0.0
O150 O 0.44612 0.4754 0.47456 0.0
O151 O 0.46604 0.50538 0.52858 0.0
C152 C 0.43573 0.48886 0.50965 0.0
C153 C 0.56382 0.57664 0.50546 0.0
O154 O 0.50158 0.52812 0.58388 0.0
O155 O 0.54013 0.49544 0.54344 0.0
O156 O 0.48657 0.6161 0.57437 0.0
O157 O 0.43358 0.58987 0.54477 0.0
O158 O 0.55331 0.59098 0.53987 0.0
O159 O 0.53351 0.5605 0.48653 0.0
O160 O 0.49215 0.53444 0.42857 0.0
O161 O 0.4674 0.57881 0.46967 0.0
C162 C 0.52773 0.50498 0.5802 0.0
C163 C 0.4742 0.56454 0.4329 0.0
Dy164 Dy 1.00094 0.5045 0.03765 0.0
C165 C 0.95159 0.63804 0.96494 0.0
C166 C 0.03819 0.44385 0.0467 0.0
Dy167 Dy 0.98031 0.57694 0.9945 0.0
O168 O 1.00751 0.44946 0.06784 0.0
O169 O 0.04785 0.47097 0.0205 0.0
O170 O 0.98697 0.51916 0.10392 0.0
O171 O 0.97976 0.55566 0.05635 0.0
C172 C 0.97667 0.55164 0.0949 0.0
C173 C 0.0227 0.53444 0.94992 0.0
O174 O 0.03603 0.60187 0.02744 0.0
O175 O 0.0577 0.54452 0.03926 0.0
O176 O 0.96062 0.61061 0.94239 0.0
O177 O 0.95771 0.63193 1.00376 0.0
O178 O 0.02744 0.57118 0.94848 0.0
O179 O 0.99441 0.52219 0.97362 0.0
O180 O 0.94125 0.48057 0.01447 0.0
O181 O 0.92175 0.53748 0.99444 0.0
C182 C 0.06371 0.582 0.03871 0.0
C183 C 0.9142 0.50026 1.00117 0.0
H184 H 0.26094 0.25424 0.27658 0.0
H185 H 0.2189 0.17946 0.17546 0.0
H186 H 0.23149 0.20649 0.32591 0.0
H187 H 0.18934 0.13113 0.22444 0.0
H188 H 0.089 0.09696 0.32222 0.0
H189 H 0.13094 0.13218 0.27013 0.0
H190 H 0.23039 0.14191 0.3541 0.0
H191 H 0.18846 0.10714 0.40613 0.0
C192 C 0.24658 0.22686 0.26527 0.0
C193 C 0.24208 0.22001 0.22277 0.0
C194 C 0.22969 0.1996 0.29323 0.0
C195 C 0.20781 0.16526 0.27889 0.0
C196 C 0.2057 0.15752 0.23623 0.0
C197 C 0.22286 0.18477 0.20833 0.0
C198 C 0.11991 0.10629 0.32923 0.0
C199 C 0.13547 0.09979 0.36818 0.0
C200 C 0.14398 0.12612 0.29939 0.0
C201 C 0.18391 0.13978 0.30818 0.0
C202 C 0.19967 0.13197 0.34667 0.0
C203 C 0.17568 0.11209 0.37637 0.0
H204 H 0.26607 0.8542 0.78639 0.0
H205 H 0.33645 0.94582 0.72248 0.0
H206 H 0.28779 0.88399 0.85301 0.0
H207 H 0.35726 0.97657 0.78869 0.0
H208 H 0.37466 0.0282 0.91877 0.0
H209 H 0.33417 1.00398 0.85895 0.0
H210 H 0.36136 0.8921 0.88086 0.0
H211 H 0.40273 0.91651 0.94023 0.0
C212 C 0.28435 0.88186 0.78674 0.0
C213 C 0.29893 0.89825 0.74951 0.0
C214 C 0.29727 0.89858 0.8247 0.0
C215 C 0.32444 0.93242 0.82599 0.0
C216 C 0.33604 0.95065 0.78864 0.0
C217 C 0.32374 0.93344 0.75073 0.0
C218 C 0.37147 0.99828 0.91126 0.0
C219 C 0.39195 0.97421 0.93409 0.0
C220 C 0.34836 0.98452 0.87696 0.0
C221 C 0.34455 0.94621 0.86532 0.0
C222 C 0.36342 0.92171 0.88942 0.0
C223 C 0.3872 0.93565 0.92328 0.0
H224 H 0.58987 0.44801 0.83084 0.0
H225 H 0.61785 0.35593 0.75613 0.0
H226 H 0.56792 0.47806 0.76929 0.0
H227 H 0.59378 0.38446 0.69453 0.0
H228 H 0.58958 0.46589 0.58756 0.0
H229 H 0.61135 0.43622 0.64925 0.0
H230 H 0.51744 0.47332 0.71884 0.0
H231 H 0.49672 0.50415 0.65765 0.0
C232 C 0.59083 0.4341 0.80112 0.0
C233 C 0.60548 0.39981 0.798 0.0
C234 C 0.57796 0.45103 0.76589 0.0
C235 C 0.57908 0.43376 0.72678 0.0
C236 C 0.59305 0.39892 0.72396 0.0
C237 C 0.60629 0.38223 0.75921 0.0
C238 C 0.5737 0.46782 0.6161 0.0
C239 C 0.54154 0.48753 0.61773 0.0
C240 C 0.58598 0.45054 0.65143 0.0
C241 C 0.56612 0.45222 0.68912 0.0
C242 C 0.53389 0.47193 0.69061 0.0
C243 C 0.52189 0.48953 0.65542 0.0
H244 H 0.93794 0.67524 0.32225 0.0
H245 H 0.85026 0.7008 0.23627 0.0
H246 H 0.97023 0.64524 0.2665 0.0
H247 H 0.88145 0.67029 0.18049 0.0
H248 H 0.95404 0.62143 0.0821 0.0
H249 H 0.93464 0.66498 0.13409 0.0
H250 H 0.95373 0.58639 0.23004 0.0
H251 H 0.97356 0.54369 0.17826 0.0
C252 C 0.92657 0.67575 0.291 0.0
C253 C 0.89192 0.6907 0.28344 0.0
C254 C 0.9445 0.65789 0.25911 0.0
C255 C 0.92813 0.6545 0.21883 0.0
C256 C 0.89523 0.67234 0.21078 0.0
C257 C 0.87739 0.6901 0.24269 0.0
C258 C 0.95424 0.61366 0.11427 0.0
C259 C 0.96522 0.57899 0.12586 0.0
C260 C 0.94304 0.63858 0.14423 0.0
C261 C 0.94271 0.62955 0.18664 0.0
C262 C 0.95426 0.59496 0.19801 0.0
C263 C 0.96529 0.57015 0.16813 0.0
H264 H 0.33165 0.23655 0.21458 0.0
H265 H 0.27705 0.2086 0.09576 0.0
H266 H 0.37675 0.1909 0.20242 0.0
H267 H 0.32234 0.16385 0.08275 0.0
H268 H 0.3825 0.06232 0.08592 0.0
H269 H 0.33616 0.1028 0.1084 0.0
H270 H 0.43258 0.18487 0.15549 0.0
H271 H 0.4792 0.14414 0.13352 0.0
C272 C 0.32963 0.22064 0.18583 0.0
C273 C 0.30172 0.22627 0.15571 0.0
C274 C 0.35532 0.19475 0.17879 0.0
C275 C 0.35303 0.17384 0.14166 0.0
C276 C 0.32456 0.17925 0.11184 0.0
C277 C 0.29908 0.20519 0.11888 0.0
C278 C 0.39391 0.08876 0.10151 0.0
C279 C 0.43464 0.10022 0.10743 0.0
C280 C 0.36731 0.11201 0.11422 0.0
C281 C 0.38083 0.14721 0.1331 0.0
C282 C 0.42133 0.1578 0.14113 0.0
C283 C 0.44802 0.1345 0.12841 0.0
H284 H 0.19749 0.84393 0.66909 0.0
H285 H 0.28294 0.94615 0.67112 0.0
H286 H 0.1503 0.87736 0.63347 0.0
H287 H 0.2352 0.98027 0.63706 0.0
H288 H 0.11941 0.02774 0.59602 0.0
H289 H 0.15933 0.99696 0.64448 0.0
H290 H 0.16225 0.90658 0.5561 0.0
H291 H 0.12355 0.93788 0.50717 0.0
C292 C 0.20553 0.87395 0.66327 0.0
C293 C 0.24375 0.89252 0.6728 0.0
C294 C 0.17872 0.89297 0.64273 0.0
C295 C 0.1893 0.93125 0.63218 0.0
C296 C 0.22628 0.95077 0.64502 0.0
C297 C 0.25344 0.93144 0.6649 0.0
C298 C 0.12846 1.0012 0.58708 0.0
C299 C 0.11857 0.98521 0.54778 0.0
C300 C 0.15132 0.98371 0.61475 0.0
C301 C 0.1637 0.94939 0.60404 0.0
C302 C 0.15281 0.9329 0.56522 0.0
C303 C 0.13083 0.95084 0.53719 0.0
H304 H 0.7237 0.34544 0.8916 0.0
H305 H 0.66374 0.4273 0.95158 0.0
H306 H 0.78535 0.37301 0.92624 0.0
H307 H 0.72499 0.45498 0.98686 0.0
H308 H 0.88872 0.4239 1.0072 0.0
H309 H 0.82387 0.3888 0.99009 0.0
H310 H 0.78397 0.49341 0.95784 0.0
H311 H 0.84867 0.52873 0.97543 0.0
C312 C 0.72352 0.36826 0.91375 0.0
C313 C 0.68937 0.38437 0.91918 0.0
C314 C 0.75874 0.38428 0.93338 0.0
C315 C 0.76021 0.4167 0.95868 0.0
C316 C 0.725 0.43053 0.96691 0.0
C317 C 0.6899 0.41445 0.94732 0.0
C318 C 0.8661 0.43957 0.99678 0.0
C319 C 0.87409 0.47925 0.9925 0.0
C320 C 0.82891 0.41933 0.98689 0.0
C321 C 0.79872 0.43825 0.9727 0.0
C322 C 0.8064 0.47799 0.96933 0.0
C323 C 0.84365 0.49825 0.97907 0.0
H324 H 0.81037 0.65773 0.4404 0.0
H325 H 0.74328 0.67027 0.33002 0.0
H326 H 0.75015 0.62916 0.47562 0.0
H327 H 0.68267 0.64229 0.36494 0.0
H328 H 0.58537 0.56123 0.42675 0.0
H329 H 0.64734 0.58472 0.39229 0.0
H330 H 0.69073 0.6451 0.50377 0.0
H331 H 0.62918 0.62054 0.53845 0.0
C332 C 0.78254 0.65445 0.42385 0.0
C333 C 0.7813 0.66619 0.38263 0.0
C334 C 0.748 0.63821 0.44394 0.0
C335 C 0.71131 0.63337 0.42326 0.0
C336 C 0.71033 0.64494 0.38176 0.0
C337 C 0.74493 0.66111 0.36172 0.0
C338 C 0.60837 0.57911 0.44403 0.0
C339 C 0.6024 0.58894 0.48537 0.0
C340 C 0.64381 0.59294 0.42414 0.0
C341 C 0.67418 0.61709 0.44504 0.0
C342 C 0.66835 0.62627 0.48672 0.0
C343 C 0.63293 0.61234 0.50661 0.0
H344 H 0.20417 0.28439 0.07739 0.0
H345 H 0.21596 0.36051 0.18223 0.0
H346 H 0.15423 0.31806 0.04718 0.0
H347 H 0.16505 0.39348 0.15291 0.0
H348 H 0.03786 0.40241 0.11672 0.0
H349 H 0.08914 0.36675 0.13928 0.0
H350 H 0.14797 0.38817 0.02238 0.0
H351 H 0.09702 0.42436 0.99997 0.0
C352 C 0.19681 0.30903 0.09326 0.0
C353 C 0.21379 0.32024 0.13188 0.0
C354 C 0.16805 0.32791 0.07632 0.0
C355 C 0.15555 0.35776 0.09821 0.0
C356 C 0.17388 0.37006 0.1359 0.0
C357 C 0.20303 0.35157 0.15245 0.0
C358 C 0.06127 0.39876 0.09557 0.0
C359 C 0.06379 0.41614 0.05679 0.0
C360 C 0.0907 0.37877 0.10858 0.0
C361 C 0.12259 0.37543 0.08269 0.0
C362 C 0.12366 0.39059 0.04282 0.0
C363 C 0.09456 0.41112 0.03006 0.0
H364 H 0.61338 0.33072 0.9601 0.0
H365 H 0.65517 0.27812 0.8528 0.0
H366 H 0.59449 0.26813 0.9917 0.0
H367 H 0.63707 0.21568 0.88405 0.0
H368 H 0.53097 0.12346 0.91474 0.0
H369 H 0.56829 0.18352 0.89324 0.0
H370 H 0.61243 0.20522 0.01787 0.0
H371 H 0.57464 0.14406 0.03953 0.0
C372 C 0.6199 0.30576 0.94415 0.0
C373 C 0.63533 0.3088 0.90409 0.0
C374 C 0.60911 0.27 0.96208 0.0
C375 C 0.61364 0.23691 0.94001 0.0
C376 C 0.63257 0.24057 0.90151 0.0
C377 C 0.64319 0.27616 0.88371 0.0
C378 C 0.54898 0.14077 0.93753 0.0
C379 C 0.54997 0.12914 0.97876 0.0
C380 C 0.57065 0.17512 0.92514 0.0
C381 C 0.59366 0.19905 0.95375 0.0
C382 C 0.59502 0.18733 0.99513 0.0
C383 C 0.57359 0.15239 1.00748 0.0
H384 H 0.93362 0.72978 0.40182 0.0
H385 H 0.87978 0.78746 0.30639 0.0
H386 H 0.97104 0.7901 0.42602 0.0
H387 H 0.9165 0.84833 0.33061 0.0
H388 H 1.00347 0.95262 0.37662 0.0
H389 H 0.97806 0.89173 0.34361 0.0
H390 H 0.95172 0.84248 0.46362 0.0
H391 H 0.97741 0.90291 0.4965 0.0
C392 C 0.93121 0.75535 0.38492 0.0
C393 C 0.90446 0.7539 0.35176 0.0
C394 C 0.95193 0.79008 0.39928 0.0
C395 C 0.94628 0.82445 0.38094 0.0
C396 C 0.92185 0.82261 0.34553 0.0
C397 C 0.9011 0.78771 0.33122 0.0
C398 C 0.99233 0.9288 0.39602 0.0
C399 C 0.99258 0.93295 0.43939 0.0
C400 C 0.97763 0.8938 0.377 0.0
C401 C 0.96306 0.86182 0.40078 0.0
C402 C 0.96338 0.86608 0.44413 0.0
C403 C 0.97782 0.90103 0.4631 0.0
H404 H 0.38996 0.83293 0.64874 0.0
H405 H 0.28135 0.75572 0.66331 0.0
H406 H 0.42217 0.78095 0.62349 0.0
H407 H 0.31328 0.70311 0.63916 0.0
H408 H 0.37349 0.62675 0.55421 0.0
H409 H 0.34043 0.67811 0.57876 0.0
H410 H 0.44511 0.72517 0.64802 0.0
H411 H 0.47838 0.6744 0.62236 0.0
C412 C 0.37322 0.8046 0.64656 0.0
C413 C 0.3335 0.7979 0.65796 0.0
C414 C 0.39153 0.77482 0.63245 0.0
C415 C 0.3704 0.73772 0.62957 0.0
C416 C 0.33034 0.73132 0.64056 0.0
C417 C 0.31206 0.76122 0.65449 0.0
C418 C 0.38928 0.64801 0.57484 0.0
C419 C 0.42846 0.64672 0.58636 0.0
C420 C 0.37032 0.67736 0.58906 0.0
C421 C 0.39014 0.70592 0.61524 0.0
C422 C 0.42919 0.70407 0.62731 0.0
C423 C 0.44817 0.67483 0.61292 0.0
H424 H 0.89964 0.90534 0.84867 0.0
H425 H 0.82512 0.8547 0.74918 0.0
H426 H 0.9513 0.92922 0.79896 0.0
H427 H 0.87664 0.87781 0.69923 0.0
H428 H 0.98449 0.9121 0.62118 0.0
H429 H 0.94976 0.87627 0.67777 0.0
H430 H 0.94478 0.98086 0.74357 0.0
H431 H 0.97888 0.0167 0.68677 0.0
C432 C 0.89514 0.89831 0.81619 0.0
C433 C 0.85897 0.87836 0.80223 0.0
C434 C 0.92435 0.91201 0.7879 0.0
C435 C 0.91778 0.90536 0.74541 0.0
C436 C 0.88255 0.88293 0.73189 0.0
C437 C 0.85317 0.86979 0.76017 0.0
C438 C 0.97665 0.92732 0.64814 0.0
C439 C 0.98389 0.9671 0.64964 0.0
C440 C 0.95681 0.90685 0.68037 0.0
C441 C 0.94466 0.92588 0.71484 0.0
C442 C 0.95423 0.96554 0.71747 0.0
C443 C 0.97347 0.98603 0.68494 0.0
H444 H 0.78627 0.23669 0.26843 0.0
H445 H 0.73511 0.157 0.35957 0.0
H446 H 0.75149 0.19734 0.21369 0.0
H447 H 0.70208 0.11586 0.30501 0.0
H448 H 0.5958 0.09857 0.21675 0.0
H449 H 0.64541 0.12413 0.26759 0.0
H450 H 0.7327 0.14368 0.17118 0.0
H451 H 0.68204 0.11936 0.11993 0.0
C452 C 0.7691 0.20962 0.27636 0.0
C453 C 0.76259 0.20007 0.31796 0.0
C454 C 0.74905 0.187 0.24507 0.0
C455 C 0.72272 0.15397 0.25497 0.0
C456 C 0.72092 0.14181 0.29635 0.0
C457 C 0.74049 0.16485 0.3276 0.0
C458 C 0.6256 0.10832 0.20644 0.0
C459 C 0.63502 0.10735 0.16442 0.0
C460 C 0.65432 0.12249 0.2357 0.0
C461 C 0.69342 0.13565 0.22375 0.0
C462 C 0.70292 0.13409 0.18156 0.0
C463 C 0.67394 0.12022 0.15217 0.0
H464 H 0.43407 0.65434 0.18682 0.0
H465 H 0.38189 0.7232 0.27306 0.0
H466 H 0.46265 0.62309 0.244 0.0
H467 H 0.4081 0.69114 0.33058 0.0
H468 H 0.47175 0.63985 0.43004 0.0
H469 H 0.45858 0.67767 0.37144 0.0
H470 H 0.44258 0.57733 0.29374 0.0
H471 H 0.45836 0.53975 0.35263 0.0
C472 C 0.42992 0.66353 0.21821 0.0
C473 C 0.40653 0.69153 0.2258 0.0
C474 C 0.44545 0.64511 0.25106 0.0
C475 C 0.43729 0.65388 0.29232 0.0
C476 C 0.41572 0.68369 0.29954 0.0
C477 C 0.40079 0.70241 0.26664 0.0
C478 C 0.46536 0.62573 0.40046 0.0
C479 C 0.46553 0.58658 0.39617 0.0
C480 C 0.45765 0.64755 0.36667 0.0
C481 C 0.44895 0.63082 0.32753 0.0
C482 C 0.44966 0.59158 0.32309 0.0
C483 C 0.4583 0.5698 0.35694 0.0
H484 H 0.07305 0.40896 0.73217 0.0
H485 H 0.18575 0.43145 0.79429 0.0
H486 H 0.04256 0.4371 0.79051 0.0
H487 H 0.15574 0.46119 0.85182 0.0
H488 H 0.09234 0.55591 0.91133 0.0
H489 H 0.12348 0.52122 0.85903 0.0
H490 H 0.02914 0.42644 0.86965 0.0
H491 H 0.99827 0.46107 0.923 0.0
C492 C 0.09122 0.41962 0.75846 0.0
C493 C 0.13184 0.418 0.75855 0.0
C494 C 0.0738 0.43578 0.79186 0.0
C495 C 0.0967 0.45139 0.82586 0.0
C496 C 0.13731 0.44967 0.82599 0.0
C497 C 0.15456 0.43286 0.79296 0.0
C498 C 0.07847 0.52746 0.90291 0.0
C499 C 0.04282 0.51125 0.92123 0.0
C500 C 0.09639 0.50755 0.87301 0.0
C501 C 0.07874 0.47113 0.85999 0.0
C502 C 0.04333 0.45456 0.87881 0.0
C503 C 0.02579 0.47425 0.90951 0.0
H504 H 0.77746 0.91967 0.93975 0.0
H505 H 0.70692 0.89242 0.82982 0.0
H506 H 0.72688 0.95261 0.96864 0.0
H507 H 0.65632 0.92661 0.85786 0.0
H508 H 0.55843 0.94933 0.94932 0.0
H509 H 0.60809 0.91943 0.91438 0.0
H510 H 0.69868 1.00985 0.95682 0.0
H511 H 0.64934 0.03937 0.99247 0.0
C512 C 0.75089 0.92081 0.92197 0.0
C513 C 0.74549 0.90341 0.883 0.0
C514 C 0.72225 0.94001 0.93811 0.0
C515 C 0.68778 0.94234 0.91536 0.0
C516 C 0.68249 0.92499 0.87615 0.0
C517 C 0.71128 0.9057 0.86004 0.0
C518 C 0.58889 0.96302 0.95089 0.0
C519 C 0.60004 0.99646 0.97409 0.0
C520 C 0.61728 0.94598 0.93069 0.0
C521 C 0.65724 0.96215 0.93326 0.0
C522 C 0.66814 0.99639 0.95502 0.0
C523 C 0.63985 1.01334 0.97532 0.0
H524 H 0.78095 0.18264 0.45291 0.0
H525 H 0.84809 0.21174 0.34267 0.0
H526 H 0.82662 0.14081 0.47372 0.0
H527 H 0.89318 0.16794 0.36203 0.0
H528 H 0.99015 0.11873 0.43863 0.0
H529 H 0.94494 0.1585 0.40937 0.0
H530 H 0.84613 0.08277 0.45953 0.0
H531 H 0.89115 0.04474 0.48993 0.0
C532 C 0.80564 0.18005 0.43315 0.0
C533 C 0.81143 0.20105 0.39664 0.0
C534 C 0.83161 0.15551 0.44464 0.0
C535 C 0.86386 0.15063 0.41957 0.0
C536 C 0.86913 0.17117 0.38246 0.0
C537 C 0.84313 0.19599 0.37112 0.0
C538 C 0.95869 0.11041 0.44261 0.0
C539 C 0.94416 0.07882 0.46677 0.0
C540 C 0.93269 0.13317 0.42592 0.0
C541 C 0.89168 0.1245 0.43277 0.0
C542 C 0.87741 0.09131 0.45465 0.0
C543 C 0.90326 0.06914 0.47173 0.0
H544 H 0.31291 0.64247 0.09833 0.0
H545 H 0.25647 0.72077 0.16883 0.0
H546 H 0.25002 0.61755 0.06457 0.0
H547 H 0.19302 0.69551 0.13619 0.0
H548 H 0.09009 0.65867 0.04679 0.0
H549 H 0.15505 0.68929 0.0715 0.0
H550 H 0.1901 0.57937 0.08641 0.0
H551 H 0.12656 0.54914 0.06103 0.0
C552 C 0.28677 0.65411 0.10649 0.0
C553 C 0.28893 0.68307 0.13611 0.0
C554 C 0.25089 0.64 0.08738 0.0
C555 C 0.21648 0.65444 0.09791 0.0
C556 C 0.21903 0.68413 0.12702 0.0
C557 C 0.25506 0.69836 0.14592 0.0
C558 C 0.11186 0.64118 0.05502 0.0
C559 C 0.10305 0.6015 0.05197 0.0
C560 C 0.14894 0.65867 0.06935 0.0
C561 C 0.17775 0.63673 0.08075 0.0
C562 C 0.16891 0.59716 0.07717 0.0
C563 C 0.13216 0.5798 0.06288 0.0
H564 H 0.26694 0.39918 0.69704 0.0
H565 H 0.19283 0.40084 0.5897 0.0
H566 H 0.32525 0.42135 0.65577 0.0
H567 H 0.25111 0.42379 0.54779 0.0
H568 H 0.37205 0.43911 0.47997 0.0
H569 H 0.31262 0.41174 0.51739 0.0
H570 H 0.35438 0.47945 0.62463 0.0
H571 H 0.41373 0.50609 0.58752 0.0
C572 C 0.26338 0.4037 0.66427 0.0
C573 C 0.22552 0.39809 0.64647 0.0
C574 C 0.29668 0.41693 0.64063 0.0
C575 C 0.29312 0.4252 0.59839 0.0
C576 C 0.25522 0.41769 0.5801 0.0
C577 C 0.22178 0.40434 0.60394 0.0
C578 C 0.36835 0.4483 0.51146 0.0
C579 C 0.39783 0.47466 0.53079 0.0
C580 C 0.33418 0.43263 0.53295 0.0
C581 C 0.32866 0.44283 0.5744 0.0
C582 C 0.3578 0.47006 0.59317 0.0
C583 C 0.39181 0.48569 0.57172 0.0
H584 H 0.83269 0.78813 0.8212 0.0
H585 H 0.87309 0.85485 0.92884 0.0
H586 H 0.86786 0.73777 0.84449 0.0
H587 H 0.91017 0.80572 0.95181 0.0
H588 H 0.91957 0.69065 1.00823 0.0
H589 H 0.89381 0.74515 0.98098 0.0
H590 H 0.92801 0.71641 0.85777 0.0
H591 H 0.95189 0.66082 0.88509 0.0
C592 C 0.85018 0.79216 0.84932 0.0
C593 C 0.85027 0.82465 0.87362 0.0
C594 C 0.87041 0.76359 0.86269 0.0
C595 C 0.89148 0.76746 0.90037 0.0
C596 C 0.89343 0.80136 0.92323 0.0
C597 C 0.87267 0.82958 0.91008 0.0
C598 C 0.92155 0.69613 0.97536 0.0
C599 C 0.93732 0.67157 0.94865 0.0
C600 C 0.9072 0.72755 0.95972 0.0
C601 C 0.90893 0.7353 0.91712 0.0
C602 C 0.92562 0.71099 0.89061 0.0
C603 C 0.93943 0.67925 0.90622 0.0
H604 H 0.44874 0.74415 0.14417 0.0
H605 H 0.37234 0.80215 0.21671 0.0
H606 H 0.48564 0.80507 0.12236 0.0
H607 H 0.40906 0.86334 0.19555 0.0
H608 H 0.43882 0.95551 0.09673 0.0
H609 H 0.41056 0.89495 0.12769 0.0
H610 H 0.52708 0.86552 0.14008 0.0
H611 H 0.55507 0.92558 0.10877 0.0
C612 C 0.44132 0.77007 0.15717 0.0
C613 C 0.40807 0.76874 0.18223 0.0
C614 C 0.46197 0.80497 0.14428 0.0
C615 C 0.44957 0.83907 0.15634 0.0
C616 C 0.41873 0.83759 0.18488 0.0
C617 C 0.39827 0.80271 0.19779 0.0
C618 C 0.45824 0.93589 0.1057 0.0
C619 C 0.49909 0.94525 0.10042 0.0
C620 C 0.4422 0.90144 0.12393 0.0
C621 C 0.46669 0.87564 0.13698 0.0
C622 C 0.50742 0.88468 0.13044 0.0
C623 C 0.52341 0.9191 0.11247 0.0
H624 H 0.12235 0.35066 0.60206 0.0
H625 H 0.19129 0.29795 0.68877 0.0
H626 H 0.10142 0.28942 0.56735 0.0
H627 H 0.17068 0.23636 0.65446 0.0
H628 H 0.08021 0.12956 0.62029 0.0
H629 H 0.10831 0.19137 0.64936 0.0
H630 H 0.12166 0.2376 0.52648 0.0
H631 H 0.09343 0.17597 0.49739 0.0
C632 C 0.13412 0.32604 0.6126 0.0
C633 C 0.15907 0.32898 0.64735 0.0
C634 C 0.12197 0.29089 0.59304 0.0
C635 C 0.13402 0.2577 0.60828 0.0
C636 C 0.1604 0.26113 0.64214 0.0
C637 C 0.1728 0.2964 0.66139 0.0
C638 C 0.08904 0.15288 0.59942 0.0
C639 C 0.08435 0.14758 0.55642 0.0
C640 C 0.10554 0.18832 0.6161 0.0
C641 C 0.11754 0.2196 0.59031 0.0
C642 C 0.1126 0.21433 0.54735 0.0
C643 C 0.09644 0.17883 0.53065 0.0
H644 H 0.67033 0.25297 0.40255 0.0
H645 H 0.7656 0.34673 0.41148 0.0
H646 H 0.62292 0.29512 0.41738 0.0
H647 H 0.71869 0.38937 0.42855 0.0
H648 H 0.62302 0.46231 0.4075 0.0
H649 H 0.6705 0.41935 0.3967 0.0
H650 H 0.59568 0.3325 0.46468 0.0
H651 H 0.5476 0.37502 0.47354 0.0
C652 C 0.68102 0.28262 0.409 0.0
C653 C 0.72139 0.29675 0.40615 0.0
C654 C 0.65396 0.30689 0.41755 0.0
C655 C 0.66668 0.34598 0.42392 0.0
C656 C 0.70754 0.35968 0.42296 0.0
C657 C 0.73457 0.33531 0.41392 0.0
C658 C 0.6166 0.43384 0.41963 0.0
C659 C 0.58144 0.42189 0.44099 0.0
C660 C 0.64408 0.40929 0.41398 0.0
C661 C 0.63734 0.37229 0.43004 0.0
C662 C 0.60187 0.36044 0.45126 0.0
C663 C 0.5742 0.38485 0.45643 0.0
loop_
_geom_bond_atom_site_label_1
_geom_bond_atom_site_label_2
_geom_bond_distance
_geom_bond_site_symmetry_2
_ccdc_geom_bond_type
C0 N1 1.317 . S
C0 N2 1.348 . S
C0 C3 1.485 . S
N1 C0 1.317 . S
N1 N5 1.370 . S
N2 C0 1.348 . S
N2 C4 1.346 . S
C3 C0 1.485 . S
C3 H7 0.960 . S
C3 H8 0.961 . S
C3 H9 0.960 . S
C4 N2 1.346 . S
C4 N5 1.307 . S
C4 C6 1.486 . S
N5 N1 1.370 . S
N5 C4 1.307 . S
C6 C4 1.486 . S
C6 H10 0.960 . S
C6 H11 0.960 . S
C6 H12 0.959 . S
H7 C3 0.960 . S
H8 C3 0.961 . S
H9 C3 0.960 . S
H10 C6 0.960 . S
H11 C6 0.960 . S
H12 C6 0.959 . S
C13 N14 1.317 . S
C13 N15 1.348 . S
C13 C16 1.485 . S
N14 C13 1.317 . S
N14 N18 1.370 . S
N15 C13 1.348 . S
N15 C17 1.346 . S
C16 C13 1.485 . S
C16 H20 0.960 . S
C16 H21 0.961 . S
C16 H22 0.960 . S
C17 N15 1.346 . S
C17 N18 1.307 . S
C17 C19 1.486 . S
N18 N14 1.370 . S
N18 C17 1.307 . S
C19 C17 1.486 . S
C19 H23 0.960 . S
C19 H24 0.960 . S
C19 H25 0.959 . S
H20 C16 0.960 . S
H21 C16 0.961 . S
H22 C16 0.960 . S
H23 C19 0.960 . S
H24 C19 0.960 . S
H25 C19 0.959 . S
C26 N27 1.317 . S
C26 N28 1.348 . S
C26 C29 1.485 . S
N27 C26 1.317 . S
N27 N31 1.370 . S
N28 C26 1.348 . S
N28 C30 1.346 . S
C29 C26 1.485 . S
C29 H33 0.960 . S
C29 H34 0.961 . S
C29 H35 0.960 . S
C30 N28 1.346 . S
C30 N31 1.307 . S
C30 C32 1.486 . S
N31 N27 1.370 . S
N31 C30 1.307 . S
C32 C30 1.486 . S
C32 H36 0.960 . S
C32 H37 0.960 . S
C32 H38 0.959 . S
H33 C29 0.960 . S
H34 C29 0.961 . S
H35 C29 0.960 . S
H36 C32 0.960 . S
H37 C32 0.960 . S
H38 C32 0.959 . S
C39 N40 1.317 . S
C39 N41 1.348 . S
C39 C42 1.485 . S
N40 C39 1.317 . S
N40 N44 1.370 . S
N41 C39 1.348 . S
N41 C43 1.346 . S
C42 C39 1.485 . S
C42 H46 0.960 . S
C42 H47 0.961 . S
C42 H48 0.960 . S
C43 N41 1.346 . S
C43 N44 1.307 . S
C43 C45 1.486 . S
N44 N40 1.370 . S
N44 C43 1.307 . S
C45 C43 1.486 . S
C45 H49 0.960 . S
C45 H50 0.960 . S
C45 H51 0.959 . S
H46 C42 0.960 . S
H47 C42 0.961 . S
H48 C42 0.960 . S
H49 C45 0.960 . S
H50 C45 0.960 . S
H51 C45 0.959 . S
C52 N53 1.317 . S
C52 N54 1.348 . S
C52 C55 1.485 . S
N53 C52 1.317 . S
N53 N57 1.370 . S
N54 C52 1.348 . S
N54 C56 1.346 . S
C55 C52 1.485 . S
C55 H59 0.960 . S
C55 H60 0.961 . S
C55 H61 0.960 . S
C56 N54 1.346 . S
C56 N57 1.307 . S
C56 C58 1.486 . S
N57 N53 1.370 . S
N57 C56 1.307 . S
C58 C56 1.486 . S
C58 H62 0.960 . S
C58 H63 0.960 . S
C58 H64 0.959 . S
H59 C55 0.960 . S
H60 C55 0.961 . S
H61 C55 0.960 . S
H62 C58 0.960 . S
H63 C58 0.960 . S
H64 C58 0.959 . S
C65 N66 1.317 . S
C65 N67 1.348 . S
C65 C68 1.485 . S
N66 C65 1.317 . S
N66 N70 1.370 . S
N67 C65 1.348 . S
N67 C69 1.346 . S
C68 C65 1.485 . S
C68 H72 0.960 . S
C68 H73 0.961 . S
C68 H74 0.960 . S
C69 N67 1.346 . S
C69 N70 1.307 . S
C69 C71 1.486 . S
N70 N66 1.370 . S
N70 C69 1.307 . S
C71 C69 1.486 . S
C71 H75 0.960 . S
C71 H76 0.960 . S
C71 H77 0.959 . S
H72 C68 0.960 . S
H73 C68 0.961 . S
H74 C68 0.960 . S
H75 C71 0.960 . S
H76 C71 0.960 . S
H77 C71 0.959 . S
C78 N79 1.317 . S
C78 N80 1.348 . S
C78 C81 1.485 . S
N79 C78 1.317 . S
N79 N83 1.370 . S
N80 C78 1.348 . S
N80 C82 1.346 . S
C81 C78 1.485 . S
C81 H85 0.960 . S
C81 H86 0.961 . S
C81 H87 0.960 . S
C82 N80 1.346 . S
C82 N83 1.307 . S
C82 C84 1.486 . S
N83 N79 1.370 . S
N83 C82 1.307 . S
C84 C82 1.486 . S
C84 H88 0.960 . S
C84 H89 0.960 . S
C84 H90 0.959 . S
H85 C81 0.960 . S
H86 C81 0.961 . S
H87 C81 0.960 . S
H88 C84 0.960 . S
H89 C84 0.960 . S
H90 C84 0.959 . S
C91 N92 1.317 . S
C91 N93 1.348 . S
C91 C94 1.485 . S
N92 C91 1.317 . S
N92 N96 1.370 . S
N93 C91 1.348 . S
N93 C95 1.346 . S
C94 C91 1.485 . S
C94 H98 0.960 . S
C94 H99 0.961 . S
C94 H100 0.960 . S
C95 N93 1.346 . S
C95 N96 1.307 . S
C95 C97 1.486 . S
N96 N92 1.370 . S
N96 C95 1.307 . S
C97 C95 1.486 . S
C97 H101 0.960 . S
C97 H102 0.960 . S
C97 H103 0.959 . S
H98 C94 0.960 . S
H99 C94 0.961 . S
H100 C94 0.960 . S
H101 C97 0.960 . S
H102 C97 0.960 . S
H103 C97 0.959 . S
Dy104 O108 2.398 . S
Dy104 O109 2.491 . S
Dy104 O110 2.404 . S
Dy104 O111 2.664 1_545 S
Dy104 O115 2.326 . S
Dy104 O119 2.310 . S
Dy104 O120 2.351 1_545 S
C105 O116 1.185 . S
C105 O117 1.355 1_655 S
C106 O108 1.185 . S
C106 O109 1.355 . S
Dy107 O111 2.310 1_545 S
Dy107 O114 2.351 . S
Dy107 O116 2.398 1_445 S
Dy107 O117 2.491 1_545 S
Dy107 O118 2.403 1_455 S
Dy107 O119 2.664 . S
Dy107 O121 2.326 1_445 S
O108 Dy104 2.398 . S
O108 C106 1.185 . S
O109 Dy104 2.491 . S
O109 C106 1.355 . S
O110 Dy104 2.404 . S
O110 C112 1.254 1_545 S
O111 Dy104 2.664 1_565 S
O111 Dy107 2.310 1_565 S
O111 C112 1.268 . S
C112 O110 1.254 1_565 S
C112 O111 1.268 . S
C113 O118 1.254 . S
C113 O119 1.268 1_655 S
O114 Dy107 2.351 . S
O114 C122 1.249 . S
O115 Dy104 2.326 . S
O115 C122 1.267 . S
O116 C105 1.185 . S
O116 Dy107 2.398 1_665 S
O117 C105 1.355 1_455 S
O117 Dy107 2.491 1_565 S
O118 Dy107 2.403 1_655 S
O118 C113 1.254 . S
O119 Dy104 2.310 . S
O119 Dy107 2.664 . S
O119 C113 1.268 1_455 S
O120 Dy104 2.351 1_565 S
O120 C123 1.245 1_455 S
O121 Dy107 2.326 1_665 S
O121 C123 1.270 . S
C122 O114 1.249 . S
C122 O115 1.267 . S
C123 O120 1.245 1_655 S
C123 O121 1.270 . S
Dy124 O128 2.398 . S
Dy124 O129 2.491 . S
Dy124 O130 2.403 1_545 S
Dy124 O131 2.664 1_545 S
Dy124 O135 2.326 . S
Dy124 O139 2.310 . S
Dy124 O140 2.351 1_545 S
C125 O136 1.185 1_565 S
C125 O137 1.355 . S
C126 O128 1.185 . S
C126 O129 1.355 . S
Dy127 O131 2.310 1_546 S
Dy127 O134 2.351 1_556 S
Dy127 O136 2.398 . S
Dy127 O137 2.491 1_545 S
Dy127 O138 2.403 . S
Dy127 O139 2.664 1_556 S
Dy127 O141 2.326 . S
O128 Dy124 2.398 . S
O128 C126 1.185 . S
O129 Dy124 2.491 . S
O129 C126 1.355 . S
O130 Dy124 2.403 1_565 S
O130 C132 1.254 . S
O131 Dy124 2.664 1_565 S
O131 Dy127 2.310 1_564 S
O131 C132 1.268 . S
C132 O130 1.254 . S
C132 O131 1.268 . S
C133 O138 1.254 . S
C133 O139 1.268 1_556 S
O134 Dy127 2.351 1_554 S
O134 C142 1.249 . S
O135 Dy124 2.326 . S
O135 C142 1.267 . S
O136 C125 1.185 1_545 S
O136 Dy127 2.398 . S
O137 C125 1.355 . S
O137 Dy127 2.491 1_565 S
O138 Dy127 2.403 . S
O138 C133 1.254 . S
O139 Dy124 2.310 . S
O139 Dy127 2.664 1_554 S
O139 C133 1.268 1_554 S
O140 Dy124 2.351 1_565 S
O140 C143 1.249 1_554 S
O141 Dy127 2.326 . S
O141 C143 1.267 1_545 S
C142 O134 1.249 . S
C142 O135 1.267 . S
C143 O140 1.249 1_556 S
C143 O141 1.267 1_565 S
Dy144 O148 2.398 . S
Dy144 O149 2.491 . S
Dy144 O150 2.403 . S
Dy144 O151 2.664 . S
Dy144 O155 2.326 . S
Dy144 O159 2.310 . S
Dy144 O160 2.351 . S
C145 O156 1.185 . S
C145 O157 1.355 . S
C146 O148 1.185 . S
C146 O149 1.355 . S
Dy147 O151 2.310 . S
Dy147 O154 2.351 . S
Dy147 O156 2.398 . S
Dy147 O157 2.491 . S
Dy147 O158 2.403 . S
Dy147 O159 2.664 . S
Dy147 O161 2.326 . S
O148 Dy144 2.398 . S
O148 C146 1.185 . S
O149 Dy144 2.491 . S
O149 C146 1.355 . S
O150 Dy144 2.403 . S
O150 C152 1.254 . S
O151 Dy144 2.664 . S
O151 Dy147 2.310 . S
O151 C152 1.268 . S
C152 O150 1.254 . S
C152 O151 1.268 . S
C153 O158 1.254 . S
C153 O159 1.268 . S
O154 Dy147 2.351 . S
O154 C162 1.249 . S
O155 Dy144 2.326 . S
O155 C162 1.267 . S
O156 C145 1.185 . S
O156 Dy147 2.398 . S
O157 C145 1.355 . S
O157 Dy147 2.491 . S
O158 Dy147 2.403 . S
O158 C153 1.254 . S
O159 Dy144 2.310 . S
O159 Dy147 2.664 . S
O159 C153 1.268 . S
O160 Dy144 2.351 . S
O160 C163 1.249 . S
O161 Dy147 2.326 . S
O161 C163 1.267 . S
C162 O154 1.249 . S
C162 O155 1.267 . S
C163 O160 1.249 . S
C163 O161 1.267 . S
Dy164 O168 2.398 . S
Dy164 O169 2.491 . S
Dy164 O170 2.403 1_455 S
Dy164 O171 2.664 1_455 S
Dy164 O175 2.326 . S
Dy164 O179 2.310 1_554 S
Dy164 O180 2.351 1_454 S
C165 O176 1.185 . S
C165 O177 1.355 . S
C166 O168 1.185 . S
C166 O169 1.355 . S
Dy167 O171 2.310 1_556 S
Dy167 O174 2.351 1_656 S
Dy167 O176 2.398 . S
Dy167 O177 2.491 . S
Dy167 O178 2.403 1_655 S
Dy167 O179 2.664 1_655 S
Dy167 O181 2.326 . S
O168 Dy164 2.398 . S
O168 C166 1.185 . S
O169 Dy164 2.491 . S
O169 C166 1.355 . S
O170 Dy164 2.403 1_655 S
O170 C172 1.254 . S
O171 Dy164 2.664 1_655 S
O171 Dy167 2.310 1_554 S
O171 C172 1.268 . S
C172 O170 1.254 . S
C172 O171 1.268 . S
C173 O178 1.254 . S
C173 O179 1.268 . S
O174 Dy167 2.351 1_454 S
O174 C182 1.249 . S
O175 Dy164 2.326 . S
O175 C182 1.267 . S
O176 C165 1.185 . S
O176 Dy167 2.398 . S
O177 C165 1.355 . S
O177 Dy167 2.491 . S
O178 Dy167 2.403 1_455 S
O178 C173 1.254 . S
O179 Dy164 2.310 1_556 S
O179 Dy167 2.664 1_455 S
O179 C173 1.268 . S
O180 Dy164 2.351 1_656 S
O180 C183 1.249 . S
O181 Dy167 2.326 . S
O181 C183 1.267 . S
C182 O174 1.249 . S
C182 O175 1.267 . S
C183 O180 1.249 . S
C183 O181 1.267 . S
H184 C192 0.950 . S
H185 C197 0.950 . S
H186 C194 0.950 . S
H187 C196 0.950 . S
H188 C198 0.950 . S
H189 C200 0.950 . S
H190 C202 0.950 . S
H191 C203 0.950 . S
C192 H184 0.950 . S
C192 C193 1.386 . S
C192 C194 1.391 . S
C193 C192 1.386 . S
C193 C197 1.393 . S
C194 H186 0.950 . S
C194 C192 1.391 . S
C194 C195 1.400 . S
C195 C194 1.400 . S
C195 C196 1.398 . S
C195 C201 1.491 . S
C196 H187 0.950 . S
C196 C195 1.398 . S
C196 C197 1.391 . S
C197 H185 0.950 . S
C197 C193 1.393 . S
C197 C196 1.391 . S
C198 H188 0.950 . S
C198 C199 1.386 . S
C198 C200 1.391 . S
C199 C198 1.386 . S
C199 C203 1.393 . S
C200 H189 0.950 . S
C200 C198 1.391 . S
C200 C201 1.400 . S
C201 C195 1.491 . S
C201 C200 1.400 . S
C201 C202 1.398 . S
C202 H190 0.950 . S
C202 C201 1.398 . S
C202 C203 1.391 . S
C203 H191 0.950 . S
C203 C199 1.393 . S
C203 C202 1.391 . S
H204 C212 0.950 . S
H205 C217 0.950 . S
H206 C214 0.950 . S
H207 C216 0.950 . S
H208 C218 0.950 1_545 S
H209 C220 0.950 . S
H210 C222 0.950 . S
H211 C223 0.950 . S
C212 H204 0.950 . S
C212 C213 1.386 . S
C212 C214 1.391 . S
C213 C212 1.386 . S
C213 C217 1.393 . S
C214 H206 0.950 . S
C214 C212 1.391 . S
C214 C215 1.400 . S
C215 C214 1.400 . S
C215 C216 1.398 . S
C215 C221 1.491 . S
C216 H207 0.950 . S
C216 C215 1.398 . S
C216 C217 1.391 . S
C217 H205 0.950 . S
C217 C213 1.393 . S
C217 C216 1.391 . S
C218 H208 0.950 1_565 S
C218 C219 1.386 . S
C218 C220 1.391 . S
C219 C218 1.386 . S
C219 C223 1.393 . S
C220 H209 0.950 . S
C220 C218 1.391 . S
C220 C221 1.400 . S
C221 C215 1.491 . S
C221 C220 1.400 . S
C221 C222 1.398 . S
C222 H210 0.950 . S
C222 C221 1.398 . S
C222 C223 1.391 . S
C223 H211 0.950 . S
C223 C219 1.393 . S
C223 C222 1.391 . S
H224 C232 0.950 . S
H225 C237 0.950 . S
H226 C234 0.950 . S
H227 C236 0.950 . S
H228 C238 0.950 . S
H229 C240 0.950 . S
H230 C242 0.950 . S
H231 C243 0.950 . S
C232 H224 0.950 . S
C232 C233 1.386 . S
C232 C234 1.391 . S
C233 C232 1.386 . S
C233 C237 1.393 . S
C234 H226 0.950 . S
C234 C232 1.391 . S
C234 C235 1.400 . S
C235 C234 1.400 . S
C235 C236 1.398 . S
C235 C241 1.491 . S
C236 H227 0.950 . S
C236 C235 1.398 . S
C236 C237 1.391 . S
C237 H225 0.950 . S
C237 C233 1.393 . S
C237 C236 1.391 . S
C238 H228 0.950 . S
C238 C239 1.386 . S
C238 C240 1.391 . S
C239 C238 1.386 . S
C239 C243 1.393 . S
C240 H229 0.950 . S
C240 C238 1.391 . S
C240 C241 1.400 . S
C241 C235 1.491 . S
C241 C240 1.400 . S
C241 C242 1.398 . S
C242 H230 0.950 . S
C242 C241 1.398 . S
C242 C243 1.391 . S
C243 H231 0.950 . S
C243 C239 1.393 . S
C243 C242 1.391 . S
H244 C252 0.950 . S
H245 C257 0.950 . S
H246 C254 0.950 . S
H247 C256 0.950 . S
H248 C258 0.950 . S
H249 C260 0.950 . S
H250 C262 0.950 . S
H251 C263 0.950 . S
C252 H244 0.950 . S
C252 C253 1.386 . S
C252 C254 1.391 . S
C253 C252 1.386 . S
C253 C257 1.393 . S
C254 H246 0.950 . S
C254 C252 1.391 . S
C254 C255 1.400 . S
C255 C254 1.400 . S
C255 C256 1.398 . S
C255 C261 1.491 . S
C256 H247 0.950 . S
C256 C255 1.398 . S
C256 C257 1.391 . S
C257 H245 0.950 . S
C257 C253 1.393 . S
C257 C256 1.391 . S
C258 H248 0.950 . S
C258 C259 1.386 . S
C258 C260 1.391 . S
C259 C258 1.386 . S
C259 C263 1.393 . S
C260 H249 0.950 . S
C260 C258 1.391 . S
C260 C261 1.400 . S
C261 C255 1.491 . S
C261 C260 1.400 . S
C261 C262 1.398 . S
C262 H250 0.950 . S
C262 C261 1.398 . S
C262 C263 1.391 . S
C263 H251 0.950 . S
C263 C259 1.393 . S
C263 C262 1.391 . S
H264 C272 0.950 . S
H265 C277 0.950 . S
H266 C274 0.950 . S
H267 C276 0.950 . S
H268 C278 0.950 . S
H269 C280 0.950 . S
H270 C282 0.950 . S
H271 C283 0.950 . S
C272 H264 0.950 . S
C272 C273 1.386 . S
C272 C274 1.391 . S
C273 C272 1.386 . S
C273 C277 1.393 . S
C274 H266 0.950 . S
C274 C272 1.391 . S
C274 C275 1.400 . S
C275 C274 1.400 . S
C275 C276 1.398 . S
C275 C281 1.491 . S
C276 H267 0.950 . S
C276 C275 1.398 . S
C276 C277 1.391 . S
C277 H265 0.950 . S
C277 C273 1.393 . S
C277 C276 1.391 . S
C278 H268 0.950 . S
C278 C279 1.386 . S
C278 C280 1.391 . S
C279 C278 1.386 . S
C279 C283 1.393 . S
C280 H269 0.950 . S
C280 C278 1.391 . S
C280 C281 1.400 . S
C281 C275 1.491 . S
C281 C280 1.400 . S
C281 C282 1.398 . S
C282 H270 0.950 . S
C282 C281 1.398 . S
C282 C283 1.391 . S
C283 H271 0.950 . S
C283 C279 1.393 . S
C283 C282 1.391 . S
H284 C292 0.950 . S
H285 C297 0.950 . S
H286 C294 0.950 . S
H287 C296 0.950 . S
H288 C298 0.950 1_545 S
H289 C300 0.950 . S
H290 C302 0.950 . S
H291 C303 0.950 . S
C292 H284 0.950 . S
C292 C293 1.386 . S
C292 C294 1.391 . S
C293 C292 1.386 . S
C293 C297 1.393 . S
C294 H286 0.950 . S
C294 C292 1.391 . S
C294 C295 1.400 . S
C295 C294 1.400 . S
C295 C296 1.398 . S
C295 C301 1.491 . S
C296 H287 0.950 . S
C296 C295 1.398 . S
C296 C297 1.391 . S
C297 H285 0.950 . S
C297 C293 1.393 . S
C297 C296 1.391 . S
C298 H288 0.950 1_565 S
C298 C299 1.386 . S
C298 C300 1.391 . S
C299 C298 1.386 . S
C299 C303 1.393 . S
C300 H289 0.950 . S
C300 C298 1.391 . S
C300 C301 1.400 . S
C301 C295 1.491 . S
C301 C300 1.400 . S
C301 C302 1.398 . S
C302 H290 0.950 . S
C302 C301 1.398 . S
C302 C303 1.391 . S
C303 H291 0.950 . S
C303 C299 1.393 . S
C303 C302 1.391 . S
H304 C312 0.950 . S
H305 C317 0.950 . S
H306 C314 0.950 . S
H307 C316 0.950 . S
H308 C318 0.950 1_554 S
H309 C320 0.950 . S
H310 C322 0.950 . S
H311 C323 0.950 . S
C312 H304 0.950 . S
C312 C313 1.386 . S
C312 C314 1.391 . S
C313 C312 1.386 . S
C313 C317 1.393 . S
C314 H306 0.950 . S
C314 C312 1.391 . S
C314 C315 1.400 . S
C315 C314 1.400 . S
C315 C316 1.398 . S
C315 C321 1.491 . S
C316 H307 0.950 . S
C316 C315 1.398 . S
C316 C317 1.391 . S
C317 H305 0.950 . S
C317 C313 1.393 . S
C317 C316 1.391 . S
C318 H308 0.950 1_556 S
C318 C319 1.386 . S
C318 C320 1.391 . S
C319 C318 1.386 . S
C319 C323 1.393 . S
C320 H309 0.950 . S
C320 C318 1.391 . S
C320 C321 1.400 . S
C321 C315 1.491 . S
C321 C320 1.400 . S
C321 C322 1.398 . S
C322 H310 0.950 . S
C322 C321 1.398 . S
C322 C323 1.391 . S
C323 H311 0.950 . S
C323 C319 1.393 . S
C323 C322 1.391 . S
H324 C332 0.950 . S
H325 C337 0.950 . S
H326 C334 0.950 . S
H327 C336 0.950 . S
H328 C338 0.950 . S
H329 C340 0.950 . S
H330 C342 0.950 . S
H331 C343 0.950 . S
C332 H324 0.950 . S
C332 C333 1.386 . S
C332 C334 1.391 . S
C333 C332 1.386 . S
C333 C337 1.393 . S
C334 H326 0.950 . S
C334 C332 1.391 . S
C334 C335 1.400 . S
C335 C334 1.400 . S
C335 C336 1.398 . S
C335 C341 1.491 . S
C336 H327 0.950 . S
C336 C335 1.398 . S
C336 C337 1.391 . S
C337 H325 0.950 . S
C337 C333 1.393 . S
C337 C336 1.391 . S
C338 H328 0.950 . S
C338 C339 1.386 . S
C338 C340 1.391 . S
C339 C338 1.386 . S
C339 C343 1.393 . S
C340 H329 0.950 . S
C340 C338 1.391 . S
C340 C341 1.400 . S
C341 C335 1.491 . S
C341 C340 1.400 . S
C341 C342 1.398 . S
C342 H330 0.950 . S
C342 C341 1.398 . S
C342 C343 1.391 . S
C343 H331 0.950 . S
C343 C339 1.393 . S
C343 C342 1.391 . S
H344 C352 0.950 . S
H345 C357 0.950 . S
H346 C354 0.950 . S
H347 C356 0.950 . S
H348 C358 0.950 . S
H349 C360 0.950 . S
H350 C362 0.950 . S
H351 C363 0.950 . S
C352 H344 0.950 . S
C352 C353 1.386 . S
C352 C354 1.391 . S
C353 C352 1.386 . S
C353 C357 1.393 . S
C354 H346 0.950 . S
C354 C352 1.391 . S
C354 C355 1.400 . S
C355 C354 1.400 . S
C355 C356 1.398 . S
C355 C361 1.491 . S
C356 H347 0.950 . S
C356 C355 1.398 . S
C356 C357 1.391 . S
C357 H345 0.950 . S
C357 C353 1.393 . S
C357 C356 1.391 . S
C358 H348 0.950 . S
C358 C359 1.386 . S
C358 C360 1.391 . S
C359 C358 1.386 . S
C359 C363 1.393 . S
C360 H349 0.950 . S
C360 C358 1.391 . S
C360 C361 1.400 . S
C361 C355 1.491 . S
C361 C360 1.400 . S
C361 C362 1.398 . S
C362 H350 0.950 . S
C362 C361 1.398 . S
C362 C363 1.391 . S
C363 H351 0.950 . S
C363 C359 1.393 . S
C363 C362 1.391 . S
H364 C372 0.950 . S
H365 C377 0.950 . S
H366 C374 0.950 . S
H367 C376 0.950 . S
H368 C378 0.950 . S
H369 C380 0.950 . S
H370 C382 0.950 . S
H371 C383 0.950 1_554 S
C372 H364 0.950 . S
C372 C373 1.386 . S
C372 C374 1.391 . S
C373 C372 1.386 . S
C373 C377 1.393 . S
C374 H366 0.950 . S
C374 C372 1.391 . S
C374 C375 1.400 . S
C375 C374 1.400 . S
C375 C376 1.398 . S
C375 C381 1.491 . S
C376 H367 0.950 . S
C376 C375 1.398 . S
C376 C377 1.391 . S
C377 H365 0.950 . S
C377 C373 1.393 . S
C377 C376 1.391 . S
C378 H368 0.950 . S
C378 C379 1.386 . S
C378 C380 1.391 . S
C379 C378 1.386 . S
C379 C383 1.393 . S
C380 H369 0.950 . S
C380 C378 1.391 . S
C380 C381 1.400 . S
C381 C375 1.491 . S
C381 C380 1.400 . S
C381 C382 1.398 . S
C382 H370 0.950 . S
C382 C381 1.398 . S
C382 C383 1.391 . S
C383 H371 0.950 1_556 S
C383 C379 1.393 . S
C383 C382 1.391 . S
H384 C392 0.950 . S
H385 C397 0.950 . S
H386 C394 0.950 . S
H387 C396 0.950 . S
H388 C398 0.950 . S
H389 C400 0.950 . S
H390 C402 0.950 . S
H391 C403 0.950 . S
C392 H384 0.950 . S
C392 C393 1.386 . S
C392 C394 1.391 . S
C393 C392 1.386 . S
C393 C397 1.393 . S
C394 H386 0.950 . S
C394 C392 1.391 . S
C394 C395 1.400 . S
C395 C394 1.400 . S
C395 C396 1.398 . S
C395 C401 1.491 . S
C396 H387 0.950 . S
C396 C395 1.398 . S
C396 C397 1.391 . S
C397 H385 0.950 . S
C397 C393 1.393 . S
C397 C396 1.391 . S
C398 H388 0.950 . S
C398 C399 1.386 . S
C398 C400 1.391 . S
C399 C398 1.386 . S
C399 C403 1.393 . S
C400 H389 0.950 . S
C400 C398 1.391 . S
C400 C401 1.400 . S
C401 C395 1.491 . S
C401 C400 1.400 . S
C401 C402 1.398 . S
C402 H390 0.950 . S
C402 C401 1.398 . S
C402 C403 1.391 . S
C403 H391 0.950 . S
C403 C399 1.393 . S
C403 C402 1.391 . S
H404 C412 0.950 . S
H405 C417 0.950 . S
H406 C414 0.950 . S
H407 C416 0.950 . S
H408 C418 0.950 . S
H409 C420 0.950 . S
H410 C422 0.950 . S
H411 C423 0.950 . S
C412 H404 0.950 . S
C412 C413 1.386 . S
C412 C414 1.391 . S
C413 C412 1.386 . S
C413 C417 1.393 . S
C414 H406 0.950 . S
C414 C412 1.391 . S
C414 C415 1.400 . S
C415 C414 1.400 . S
C415 C416 1.398 . S
C415 C421 1.491 . S
C416 H407 0.950 . S
C416 C415 1.398 . S
C416 C417 1.391 . S
C417 H405 0.950 . S
C417 C413 1.393 . S
C417 C416 1.391 . S
C418 H408 0.950 . S
C418 C419 1.386 . S
C418 C420 1.391 . S
C419 C418 1.386 . S
C419 C423 1.393 . S
C420 H409 0.950 . S
C420 C418 1.391 . S
C420 C421 1.400 . S
C421 C415 1.491 . S
C421 C420 1.400 . S
C421 C422 1.398 . S
C422 H410 0.950 . S
C422 C421 1.398 . S
C422 C423 1.391 . S
C423 H411 0.950 . S
C423 C419 1.393 . S
C423 C422 1.391 . S
H424 C432 0.950 . S
H425 C437 0.950 . S
H426 C434 0.950 . S
H427 C436 0.950 . S
H428 C438 0.950 . S
H429 C440 0.950 . S
H430 C442 0.950 . S
H431 C443 0.950 . S
C432 H424 0.950 . S
C432 C433 1.386 . S
C432 C434 1.391 . S
C433 C432 1.386 . S
C433 C437 1.393 . S
C434 H426 0.950 . S
C434 C432 1.391 . S
C434 C435 1.400 . S
C435 C434 1.400 . S
C435 C436 1.398 . S
C435 C441 1.491 . S
C436 H427 0.950 . S
C436 C435 1.398 . S
C436 C437 1.391 . S
C437 H425 0.950 . S
C437 C433 1.393 . S
C437 C436 1.391 . S
C438 H428 0.950 . S
C438 C439 1.386 . S
C438 C440 1.391 . S
C439 C438 1.386 . S
C439 C443 1.393 . S
C440 H429 0.950 . S
C440 C438 1.391 . S
C440 C441 1.400 . S
C441 C435 1.491 . S
C441 C440 1.400 . S
C441 C442 1.398 . S
C442 H430 0.950 . S
C442 C441 1.398 . S
C442 C443 1.391 . S
C443 H431 0.950 . S
C443 C439 1.393 . S
C443 C442 1.391 . S
H444 C452 0.950 . S
H445 C457 0.950 . S
H446 C454 0.950 . S
H447 C456 0.950 . S
H448 C458 0.950 . S
H449 C460 0.950 . S
H450 C462 0.950 . S
H451 C463 0.950 . S
C452 H444 0.950 . S
C452 C453 1.386 . S
C452 C454 1.391 . S
C453 C452 1.386 . S
C453 C457 1.393 . S
C454 H446 0.950 . S
C454 C452 1.391 . S
C454 C455 1.400 . S
C455 C454 1.400 . S
C455 C456 1.398 . S
C455 C461 1.491 . S
C456 H447 0.950 . S
C456 C455 1.398 . S
C456 C457 1.391 . S
C457 H445 0.950 . S
C457 C453 1.393 . S
C457 C456 1.391 . S
C458 H448 0.950 . S
C458 C459 1.386 . S
C458 C460 1.391 . S
C459 C458 1.386 . S
C459 C463 1.393 . S
C460 H449 0.950 . S
C460 C458 1.391 . S
C460 C461 1.400 . S
C461 C455 1.491 . S
C461 C460 1.400 . S
C461 C462 1.398 . S
C462 H450 0.950 . S
C462 C461 1.398 . S
C462 C463 1.391 . S
C463 H451 0.950 . S
C463 C459 1.393 . S
C463 C462 1.391 . S
H464 C472 0.950 . S
H465 C477 0.950 . S
H466 C474 0.950 . S
H467 C476 0.950 . S
H468 C478 0.950 . S
H469 C480 0.950 . S
H470 C482 0.950 . S
H471 C483 0.950 . S
C472 H464 0.950 . S
C472 C473 1.386 . S
C472 C474 1.391 . S
C473 C472 1.386 . S
C473 C477 1.393 . S
C474 H466 0.950 . S
C474 C472 1.391 . S
C474 C475 1.400 . S
C475 C474 1.400 . S
C475 C476 1.398 . S
C475 C481 1.491 . S
C476 H467 0.950 . S
C476 C475 1.398 . S
C476 C477 1.391 . S
C477 H465 0.950 . S
C477 C473 1.393 . S
C477 C476 1.391 . S
C478 H468 0.950 . S
C478 C479 1.386 . S
C478 C480 1.391 . S
C479 C478 1.386 . S
C479 C483 1.393 . S
C480 H469 0.950 . S
C480 C478 1.391 . S
C480 C481 1.400 . S
C481 C475 1.491 . S
C481 C480 1.400 . S
C481 C482 1.398 . S
C482 H470 0.950 . S
C482 C481 1.398 . S
C482 C483 1.391 . S
C483 H471 0.950 . S
C483 C479 1.393 . S
C483 C482 1.391 . S
H484 C492 0.950 . S
H485 C497 0.950 . S
H486 C494 0.950 . S
H487 C496 0.950 . S
H488 C498 0.950 . S
H489 C500 0.950 . S
H490 C502 0.950 . S
H491 C503 0.950 1_655 S
C492 H484 0.950 . S
C492 C493 1.386 . S
C492 C494 1.391 . S
C493 C492 1.386 . S
C493 C497 1.393 . S
C494 H486 0.950 . S
C494 C492 1.391 . S
C494 C495 1.400 . S
C495 C494 1.400 . S
C495 C496 1.398 . S
C495 C501 1.491 . S
C496 H487 0.950 . S
C496 C495 1.398 . S
C496 C497 1.391 . S
C497 H485 0.950 . S
C497 C493 1.393 . S
C497 C496 1.391 . S
C498 H488 0.950 . S
C498 C499 1.386 . S
C498 C500 1.391 . S
C499 C498 1.386 . S
C499 C503 1.393 . S
C500 H489 0.950 . S
C500 C498 1.391 . S
C500 C501 1.400 . S
C501 C495 1.491 . S
C501 C500 1.400 . S
C501 C502 1.398 . S
C502 H490 0.950 . S
C502 C501 1.398 . S
C502 C503 1.391 . S
C503 H491 0.950 1_455 S
C503 C499 1.393 . S
C503 C502 1.391 . S
H504 C512 0.950 . S
H505 C517 0.950 . S
H506 C514 0.950 . S
H507 C516 0.950 . S
H508 C518 0.950 . S
H509 C520 0.950 . S
H510 C522 0.950 . S
H511 C523 0.936 1_545 S
C512 H504 0.950 . S
C512 C513 1.386 . S
C512 C514 1.391 . S
C513 C512 1.386 . S
C513 C517 1.393 . S
C514 H506 0.950 . S
C514 C512 1.391 . S
C514 C515 1.400 . S
C515 C514 1.400 . S
C515 C516 1.398 . S
C515 C521 1.491 . S
C516 H507 0.950 . S
C516 C515 1.398 . S
C516 C517 1.391 . S
C517 H505 0.950 . S
C517 C513 1.393 . S
C517 C516 1.391 . S
C518 H508 0.950 . S
C518 C519 1.386 . S
C518 C520 1.391 . S
C519 C518 1.386 . S
C519 C523 1.393 . S
C520 H509 0.950 . S
C520 C518 1.391 . S
C520 C521 1.400 . S
C521 C515 1.491 . S
C521 C520 1.400 . S
C521 C522 1.398 . S
C522 H510 0.950 . S
C522 C521 1.398 . S
C522 C523 1.391 . S
C523 H511 0.936 1_565 S
C523 C519 1.393 . S
C523 C522 1.391 . S
H524 C532 0.950 . S
H525 C537 0.950 . S
H526 C534 0.950 . S
H527 C536 0.950 . S
H528 C538 0.950 . S
H529 C540 0.950 . S
H530 C542 0.950 . S
H531 C543 0.950 . S
C532 H524 0.950 . S
C532 C533 1.386 . S
C532 C534 1.391 . S
C533 C532 1.386 . S
C533 C537 1.393 . S
C534 H526 0.950 . S
C534 C532 1.391 . S
C534 C535 1.400 . S
C535 C534 1.400 . S
C535 C536 1.398 . S
C535 C541 1.491 . S
C536 H527 0.950 . S
C536 C535 1.398 . S
C536 C537 1.391 . S
C537 H525 0.950 . S
C537 C533 1.393 . S
C537 C536 1.391 . S
C538 H528 0.950 . S
C538 C539 1.386 . S
C538 C540 1.391 . S
C539 C538 1.386 . S
C539 C543 1.393 . S
C540 H529 0.950 . S
C540 C538 1.391 . S
C540 C541 1.400 . S
C541 C535 1.491 . S
C541 C540 1.400 . S
C541 C542 1.398 . S
C542 H530 0.950 . S
C542 C541 1.398 . S
C542 C543 1.391 . S
C543 H531 0.950 . S
C543 C539 1.393 . S
C543 C542 1.391 . S
H544 C552 0.950 . S
H545 C557 0.950 . S
H546 C554 0.950 . S
H547 C556 0.950 . S
H548 C558 0.950 . S
H549 C560 0.950 . S
H550 C562 0.950 . S
H551 C563 0.950 . S
C552 H544 0.950 . S
C552 C553 1.386 . S
C552 C554 1.391 . S
C553 C552 1.386 . S
C553 C557 1.393 . S
C554 H546 0.950 . S
C554 C552 1.391 . S
C554 C555 1.400 . S
C555 C554 1.400 . S
C555 C556 1.398 . S
C555 C561 1.491 . S
C556 H547 0.950 . S
C556 C555 1.398 . S
C556 C557 1.391 . S
C557 H545 0.950 . S
C557 C553 1.393 . S
C557 C556 1.391 . S
C558 H548 0.950 . S
C558 C559 1.386 . S
C558 C560 1.391 . S
C559 C558 1.386 . S
C559 C563 1.393 . S
C560 H549 0.950 . S
C560 C558 1.391 . S
C560 C561 1.400 . S
C561 C555 1.491 . S
C561 C560 1.400 . S
C561 C562 1.398 . S
C562 H550 0.950 . S
C562 C561 1.398 . S
C562 C563 1.391 . S
C563 H551 0.950 . S
C563 C559 1.393 . S
C563 C562 1.391 . S
H564 C572 0.950 . S
H565 C577 0.950 . S
H566 C574 0.950 . S
H567 C576 0.950 . S
H568 C578 0.950 . S
H569 C580 0.950 . S
H570 C582 0.950 . S
H571 C583 0.950 . S
C572 H564 0.950 . S
C572 C573 1.386 . S
C572 C574 1.391 . S
C573 C572 1.386 . S
C573 C577 1.393 . S
C574 H566 0.950 . S
C574 C572 1.391 . S
C574 C575 1.400 . S
C575 C574 1.400 . S
C575 C576 1.398 . S
C575 C581 1.491 . S
C576 H567 0.950 . S
C576 C575 1.398 . S
C576 C577 1.391 . S
C577 H565 0.950 . S
C577 C573 1.393 . S
C577 C576 1.391 . S
C578 H568 0.950 . S
C578 C579 1.386 . S
C578 C580 1.391 . S
C579 C578 1.386 . S
C579 C583 1.393 . S
C580 H569 0.950 . S
C580 C578 1.391 . S
C580 C581 1.400 . S
C581 C575 1.491 . S
C581 C580 1.400 . S
C581 C582 1.398 . S
C582 H570 0.950 . S
C582 C581 1.398 . S
C582 C583 1.391 . S
C583 H571 0.950 . S
C583 C579 1.393 . S
C583 C582 1.391 . S
H584 C592 0.950 . S
H585 C597 0.950 . S
H586 C594 0.950 . S
H587 C596 0.950 . S
H588 C598 0.950 . S
H589 C600 0.950 . S
H590 C602 0.950 . S
H591 C603 0.950 . S
C592 H584 0.950 . S
C592 C593 1.386 . S
C592 C594 1.391 . S
C593 C592 1.386 . S
C593 C597 1.393 . S
C594 H586 0.950 . S
C594 C592 1.391 . S
C594 C595 1.400 . S
C595 C594 1.400 . S
C595 C596 1.398 . S
C595 C601 1.491 . S
C596 H587 0.950 . S
C596 C595 1.398 . S
C596 C597 1.391 . S
C597 H585 0.950 . S
C597 C593 1.393 . S
C597 C596 1.391 . S
C598 H588 0.950 . S
C598 C599 1.386 . S
C598 C600 1.391 . S
C599 C598 1.386 . S
C599 C603 1.393 . S
C600 H589 0.950 . S
C600 C598 1.391 . S
C600 C601 1.400 . S
C601 C595 1.491 . S
C601 C600 1.400 . S
C601 C602 1.398 . S
C602 H590 0.950 . S
C602 C601 1.398 . S
C602 C603 1.391 . S
C603 H591 0.950 . S
C603 C599 1.393 . S
C603 C602 1.391 . S
H604 C612 0.950 . S
H605 C617 0.950 . S
H606 C614 0.950 . S
H607 C616 0.950 . S
H608 C618 0.950 . S
H609 C620 0.950 . S
H610 C622 0.950 . S
H611 C623 0.950 . S
C612 H604 0.950 . S
C612 C613 1.386 . S
C612 C614 1.391 . S
C613 C612 1.386 . S
C613 C617 1.393 . S
C614 H606 0.950 . S
C614 C612 1.391 . S
C614 C615 1.400 . S
C615 C614 1.400 . S
C615 C616 1.398 . S
C615 C621 1.491 . S
C616 H607 0.950 . S
C616 C615 1.398 . S
C616 C617 1.391 . S
C617 H605 0.950 . S
C617 C613 1.393 . S
C617 C616 1.391 . S
C618 H608 0.950 . S
C618 C619 1.386 . S
C618 C620 1.391 . S
C619 C618 1.386 . S
C619 C623 1.393 . S
C620 H609 0.950 . S
C620 C618 1.391 . S
C620 C621 1.400 . S
C621 C615 1.491 . S
C621 C620 1.400 . S
C621 C622 1.398 . S
C622 H610 0.950 . S
C622 C621 1.398 . S
C622 C623 1.391 . S
C623 H611 0.950 . S
C623 C619 1.393 . S
C623 C622 1.391 . S
H624 C632 0.950 . S
H625 C637 0.950 . S
H626 C634 0.950 . S
H627 C636 0.950 . S
H628 C638 0.950 . S
H629 C640 0.950 . S
H630 C642 0.950 . S
H631 C643 0.950 . S
C632 H624 0.950 . S
C632 C633 1.386 . S
C632 C634 1.391 . S
C633 C632 1.386 . S
C633 C637 1.393 . S
C634 H626 0.950 . S
C634 C632 1.391 . S
C634 C635 1.400 . S
C635 C634 1.400 . S
C635 C636 1.398 . S
C635 C641 1.491 . S
C636 H627 0.950 . S
C636 C635 1.398 . S
C636 C637 1.391 . S
C637 H625 0.950 . S
C637 C633 1.393 . S
C637 C636 1.391 . S
C638 H628 0.950 . S
C638 C639 1.386 . S
C638 C640 1.391 . S
C639 C638 1.386 . S
C639 C643 1.393 . S
C640 H629 0.950 . S
C640 C638 1.391 . S
C640 C641 1.400 . S
C641 C635 1.491 . S
C641 C640 1.400 . S
C641 C642 1.398 . S
C642 H630 0.950 . S
C642 C641 1.398 . S
C642 C643 1.391 . S
C643 H631 0.950 . S
C643 C639 1.393 . S
C643 C642 1.391 . S
H644 C652 0.950 . S
H645 C657 0.950 . S
H646 C654 0.950 . S
H647 C656 0.950 . S
H648 C658 0.950 . S
H649 C660 0.950 . S
H650 C662 0.950 . S
H651 C663 0.950 . S
C652 H644 0.950 . S
C652 C653 1.386 . S
C652 C654 1.391 . S
C653 C652 1.386 . S
C653 C657 1.393 . S
C654 H646 0.950 . S
C654 C652 1.391 . S
C654 C655 1.400 . S
C655 C654 1.400 . S
C655 C656 1.398 . S
C655 C661 1.491 . S
C656 H647 0.950 . S
C656 C655 1.398 . S
C656 C657 1.391 . S
C657 H645 0.950 . S
C657 C653 1.393 . S
C657 C656 1.391 . S
C658 H648 0.950 . S
C658 C659 1.386 . S
C658 C660 1.391 . S
C659 C658 1.386 . S
C659 C663 1.393 . S
C660 H649 0.950 . S
C660 C658 1.391 . S
C660 C661 1.400 . S
C661 C655 1.491 . S
C661 C660 1.400 . S
C661 C662 1.398 . S
C662 H650 0.950 . S
C662 C661 1.398 . S
C662 C663 1.391 . S
C663 H651 0.950 . S
C663 C659 1.393 . S
C663 C662 1.391 . S
C193 N1 1.335 . S
C199 C106 1.354 . S
C213 N18 1.538 . S
C219 C125 1.551 . S
C239 C162 1.375 . S
C233 N28 1.399 . S
C253 N40 1.843 . S
C259 C172 1.831 . S
C279 C142 2.157 . S
C273 N5 2.136 . S
C299 C112 1.433 . S
C293 N14 1.475 . S
C319 C183 1.585 . S
C313 N31 1.581 . S
C339 C153 1.128 . S
C333 N41 1.141 . S
C353 N2 1.503 . S
C359 C166 1.524 . S
C379 C133 1.790 . S
C373 N27 1.831 . S
C393 N44 1.803 . S
C399 C123 1.818 . S
C413 N15 1.091 . S
C419 C145 1.083 . S
C439 C105 1.644 . S
C433 N57 1.685 . S
C453 N70 1.241 . S
C459 C126 1.250 . S
C473 N79 1.633 . S
C479 C163 1.655 . S
C493 N93 1.630 . S
C499 C173 1.603 . S
C513 N54 1.681 . S
C519 C143 1.702 . S
C539 C113 1.832 . S
C533 N66 1.918 . S
C559 C182 1.038 . S
C553 N80 1.042 . S
C579 C152 1.468 . S
C573 N96 1.470 . S
C593 N53 1.522 . S
C599 C165 1.557 . S
C619 C132 1.621 . S
C613 N83 1.620 . S
C639 C122 1.950 . S
C633 N92 1.925 . S
C653 N67 1.187 . S
C659 C146 1.190 . S
