# Generated by pormake.
# Topology pyr, (3,6)-cn, num edge types: 1
# Building blocks:
#     Node 0, Type 0, BuildingBlock: BELTOD_clean_linker_0, # of connection points: 3
#     Node 1, Type 0, BuildingBlock: BELTOD_clean_linker_0, # of connection points: 3
#     Node 2, Type 0, BuildingBlock: BELTOD_clean_linker_0, # of connection points: 3
#     Node 3, Type 0, BuildingBlock: BELTOD_clean_linker_0, # of connection points: 3
#     Node 4, Type 0, BuildingBlock: BELTOD_clean_linker_0, # of connection points: 3
#     Node 5, Type 0, BuildingBlock: BELTOD_clean_linker_0, # of connection points: 3
#     Node 6, Type 0, BuildingBlock: BELTOD_clean_linker_0, # of connection points: 3
#     Node 7, Type 0, BuildingBlock: BELTOD_clean_linker_0, # of connection points: 3
#     Node 8, Type 1, BuildingBlock: BETGAK_clean_sbu_0, # of connection points: 6
#     Node 9, Type 1, BuildingBlock: BETGAK_clean_sbu_0, # of connection points: 6
#     Node 10, Type 1, BuildingBlock: BETGAK_clean_sbu_0, # of connection points: 6
#     Node 11, Type 1, BuildingBlock: BETGAK_clean_sbu_0, # of connection points: 6
#     Edge 12, Type (0, 1), BuildingBlock: UVAHIK_clean_linker_0, # of connection points: 2
#     Edge 13, Type (0, 1), BuildingBlock: UVAHIK_clean_linker_0, # of connection points: 2
#     Edge 14, Type (0, 1), BuildingBlock: UVAHIK_clean_linker_0, # of connection points: 2
#     Edge 15, Type (0, 1), BuildingBlock: UVAHIK_clean_linker_0, # of connection points: 2
#     Edge 16, Type (0, 1), BuildingBlock: UVAHIK_clean_linker_0, # of connection points: 2
#     Edge 17, Type (0, 1), BuildingBlock: UVAHIK_clean_linker_0, # of connection points: 2
#     Edge 18, Type (0, 1), BuildingBlock: UVAHIK_clean_linker_0, # of connection points: 2
#     Edge 19, Type (0, 1), BuildingBlock: UVAHIK_clean_linker_0, # of connection points: 2
#     Edge 20, Type (0, 1), BuildingBlock: UVAHIK_clean_linker_0, # of connection points: 2
#     Edge 21, Type (0, 1), BuildingBlock: UVAHIK_clean_linker_0, # of connection points: 2
#     Edge 22, Type (0, 1), BuildingBlock: UVAHIK_clean_linker_0, # of connection points: 2
#     Edge 23, Type (0, 1), BuildingBlock: UVAHIK_clean_linker_0, # of connection points: 2
#     Edge 24, Type (0, 1), BuildingBlock: UVAHIK_clean_linker_0, # of connection points: 2
#     Edge 25, Type (0, 1), BuildingBlock: UVAHIK_clean_linker_0, # of connection points: 2
#     Edge 26, Type (0, 1), BuildingBlock: UVAHIK_clean_linker_0, # of connection points: 2
#     Edge 27, Type (0, 1), BuildingBlock: UVAHIK_clean_linker_0, # of connection points: 2
#     Edge 28, Type (0, 1), BuildingBlock: UVAHIK_clean_linker_0, # of connection points: 2
#     Edge 29, Type (0, 1), BuildingBlock: UVAHIK_clean_linker_0, # of connection points: 2
#     Edge 30, Type (0, 1), BuildingBlock: UVAHIK_clean_linker_0, # of connection points: 2
#     Edge 31, Type (0, 1), BuildingBlock: UVAHIK_clean_linker_0, # of connection points: 2
#     Edge 32, Type (0, 1), BuildingBlock: UVAHIK_clean_linker_0, # of connection points: 2
#     Edge 33, Type (0, 1), BuildingBlock: UVAHIK_clean_linker_0, # of connection points: 2
#     Edge 34, Type (0, 1), BuildingBlock: UVAHIK_clean_linker_0, # of connection points: 2
#     Edge 35, Type (0, 1), BuildingBlock: UVAHIK_clean_linker_0, # of connection points: 2
# Relax obj value: 0.078
# Max RMSD: 0.118
# Mean RMSD: 0.054
data_MOF--net-pyr--node1-BETGAK_clean_sbu_0--node2-BELTOD_clean_linker_0--edge1-UVAHIK_clean_linker_0
_symmetry_space_group_name_H-M    P1
_symmetry_Int_Tables_number       1
_symmetry_cell_setting            triclinic
loop_
_symmetry_equiv_pos_as_xyz
'x, y, z'
_cell_length_a     54.00395
_cell_length_b     57.522615
_cell_length_c     51.752574
_cell_angle_alpha  90.914044
_cell_angle_beta   89.164497
_cell_angle_gamma 100.05676
loop_
_atom_site_label
_atom_site_type_symbol
_atom_site_fract_x
_atom_site_fract_y
_atom_site_fract_z
_atom_type_partial_charge
P0 P 0.33341 0.29161 0.24307 0.0
H1 H 0.38079 0.28959 0.21609 0.0
H2 H 0.3971 0.25775 0.19329 0.0
H3 H 0.32722 0.21043 0.20875 0.0
H4 H 0.31124 0.24221 0.23176 0.0
H5 H 0.32354 0.33962 0.24731 0.0
H6 H 0.29669 0.36101 0.22262 0.0
H7 H 0.28343 0.30325 0.16733 0.0
H8 H 0.31014 0.2819 0.19221 0.0
H9 H 0.33699 0.2757 0.29614 0.0
H10 H 0.27842 0.27975 0.24144 0.0
O11 O 0.35721 0.3087 0.25808 0.0
H12 H 0.30515 0.25815 0.32779 0.0
H13 H 0.24684 0.26223 0.27257 0.0
C14 C 0.34507 0.26812 0.2261 0.0
C15 C 0.36906 0.27232 0.21465 0.0
C16 C 0.37826 0.25415 0.20145 0.0
C17 C 0.36351 0.23149 0.19935 0.0
C18 C 0.33923 0.22754 0.21044 0.0
C19 C 0.33005 0.24574 0.22358 0.0
C20 C 0.31914 0.30937 0.22138 0.0
C21 C 0.31548 0.33189 0.22944 0.0
C22 C 0.3001 0.34409 0.21533 0.0
C23 C 0.28786 0.33375 0.19311 0.0
C24 C 0.29245 0.31156 0.1845 0.0
C25 C 0.30794 0.29945 0.19857 0.0
C26 C 0.31007 0.27957 0.26668 0.0
C27 C 0.31731 0.27303 0.29104 0.0
C28 C 0.29914 0.26289 0.30901 0.0
C29 C 0.27345 0.25909 0.30278 0.0
C30 C 0.2664 0.26546 0.27822 0.0
C31 C 0.28452 0.27548 0.26032 0.0
P32 P 0.3673 0.9273 0.5639 0.0
H33 H 0.4132 0.94069 0.59403 0.0
H34 H 0.42043 0.94679 0.64053 0.0
H35 H 0.3403 0.93009 0.65483 0.0
H36 H 0.33326 0.92413 0.60862 0.0
H37 H 0.39702 0.90154 0.52937 0.0
H38 H 0.39725 0.85938 0.5227 0.0
H39 H 0.33644 0.84306 0.57834 0.0
H40 H 0.33671 0.88516 0.58524 0.0
H41 H 0.34569 0.96925 0.57529 0.0
H42 H 0.32366 0.903 0.53452 0.0
O43 O 0.39008 0.94368 0.54671 0.0
H44 H 0.30362 0.97846 0.56943 0.0
H45 H 0.28152 0.91178 0.52922 0.0
C46 C 0.37269 0.93263 0.59785 0.0
C47 C 0.39722 0.93858 0.6072 0.0
C48 C 0.40133 0.94187 0.63374 0.0
C49 C 0.3809 0.93915 0.65127 0.0
C50 C 0.35637 0.9328 0.64176 0.0
C51 C 0.35234 0.92939 0.61533 0.0
C52 C 0.367 0.8964 0.55796 0.0
C53 C 0.38373 0.88887 0.54007 0.0
C54 C 0.38369 0.86476 0.53613 0.0
C55 C 0.3669 0.84788 0.55005 0.0
C56 C 0.34986 0.85561 0.56761 0.0
C57 C 0.34996 0.87966 0.57155 0.0
C58 C 0.3376 0.93523 0.55591 0.0
C59 C 0.33184 0.95676 0.56495 0.0
C60 C 0.30776 0.96191 0.56178 0.0
C61 C 0.28913 0.94566 0.54926 0.0
C62 C 0.29544 0.92466 0.53895 0.0
C63 C 0.31954 0.91954 0.54216 0.0
P64 P 0.6688 0.33812 0.83605 0.0
H65 H 0.71718 0.32749 0.85165 0.0
H66 H 0.75203 0.34896 0.87649 0.0
H67 H 0.71003 0.40546 0.89042 0.0
H68 H 0.67522 0.38384 0.86483 0.0
H69 H 0.62909 0.29926 0.82049 0.0
H70 H 0.60627 0.26501 0.84289 0.0
H71 H 0.64432 0.28996 0.91362 0.0
H72 H 0.66562 0.32499 0.89137 0.0
H73 H 0.68751 0.38159 0.80855 0.0
H74 H 0.61548 0.33735 0.82119 0.0
O75 O 0.68308 0.3237 0.81373 0.0
H76 H 0.66881 0.40454 0.77744 0.0
H77 H 0.59684 0.35931 0.78899 0.0
C78 C 0.69374 0.35421 0.85591 0.0
C79 C 0.71543 0.34452 0.85999 0.0
C80 C 0.73534 0.3568 0.87447 0.0
C81 C 0.73405 0.37909 0.88555 0.0
C82 C 0.71195 0.38855 0.88189 0.0
C83 C 0.69194 0.37616 0.86735 0.0
C84 C 0.64875 0.31513 0.85421 0.0
C85 C 0.63189 0.29779 0.84103 0.0
C86 C 0.61919 0.27782 0.85387 0.0
C87 C 0.62351 0.27421 0.88022 0.0
C88 C 0.64005 0.29199 0.89351 0.0
C89 C 0.65243 0.31219 0.88069 0.0
C90 C 0.65299 0.35778 0.8176 0.0
C91 C 0.66753 0.37699 0.80496 0.0
C92 C 0.65682 0.38991 0.78671 0.0
C93 C 0.63125 0.38371 0.78012 0.0
C94 C 0.61651 0.36489 0.79351 0.0
C95 C 0.62725 0.3521 0.81199 0.0
P96 P 0.83507 0.69208 0.32619 0.0
H97 H 0.82048 0.73635 0.3419 0.0
H98 H 0.84084 0.77065 0.36654 0.0
H99 H 0.90491 0.73655 0.37838 0.0
H100 H 0.88423 0.70205 0.35332 0.0
H101 H 0.82817 0.64171 0.31158 0.0
H102 H 0.85095 0.61969 0.28157 0.0
H103 H 0.90741 0.68204 0.27084 0.0
H104 H 0.88476 0.70373 0.30137 0.0
H105 H 0.78216 0.69548 0.33282 0.0
H106 H 0.83303 0.65333 0.36377 0.0
O107 O 0.82122 0.70387 0.30224 0.0
H108 H 0.74808 0.67474 0.35939 0.0
H109 H 0.79873 0.63242 0.391 0.0
C110 C 0.85101 0.71679 0.34526 0.0
C111 C 0.83895 0.73621 0.34973 0.0
C112 C 0.85057 0.75581 0.36407 0.0
C113 C 0.87461 0.75651 0.3745 0.0
C114 C 0.88656 0.7368 0.37035 0.0
C115 C 0.87475 0.71701 0.35605 0.0
C116 C 0.85517 0.67422 0.30966 0.0
C117 C 0.84593 0.65045 0.30356 0.0
C118 C 0.85881 0.63794 0.28592 0.0
C119 C 0.88108 0.64901 0.2735 0.0
C120 C 0.89062 0.6727 0.28021 0.0
C121 C 0.8777 0.68516 0.29788 0.0
C122 C 0.81009 0.67563 0.34581 0.0
C123 C 0.78601 0.6816 0.34524 0.0
C124 C 0.76649 0.66983 0.36072 0.0
C125 C 0.77054 0.65185 0.37744 0.0
C126 C 0.79481 0.64595 0.37813 0.0
C127 C 0.81447 0.65791 0.36262 0.0
P128 P 0.73985 0.80675 0.86512 0.0
H129 H 0.72423 0.81966 0.91638 0.0
H130 H 0.6884 0.83664 0.9321 0.0
H131 H 0.65596 0.82803 0.85592 0.0
H132 H 0.69214 0.81128 0.84027 0.0
H133 H 0.78186 0.78241 0.85828 0.0
H134 H 0.79012 0.74436 0.87251 0.0
H135 H 0.71573 0.72917 0.90689 0.0
H136 H 0.70756 0.76754 0.89245 0.0
H137 H 0.74562 0.84842 0.83351 0.0
H138 H 0.74048 0.77341 0.821 0.0
O139 O 0.7633 0.8257 0.8784 0.0
H140 H 0.75554 0.85515 0.78779 0.0
H141 H 0.75071 0.78006 0.77519 0.0
C142 C 0.71103 0.81467 0.87712 0.0
C143 C 0.70919 0.82108 0.90318 0.0
C144 C 0.6886 0.83065 0.91216 0.0
C145 C 0.66943 0.83392 0.89518 0.0
C146 C 0.67064 0.82611 0.86936 0.0
C147 C 0.69127 0.81647 0.86042 0.0
C148 C 0.74415 0.77774 0.87429 0.0
C149 C 0.76721 0.77077 0.86862 0.0
C150 C 0.77183 0.74895 0.87662 0.0
C151 C 0.7535 0.73369 0.89068 0.0
C152 C 0.73021 0.74061 0.89614 0.0
C153 C 0.72552 0.76249 0.88787 0.0
C154 C 0.74292 0.81053 0.83073 0.0
C155 C 0.74627 0.83337 0.82082 0.0
C156 C 0.75175 0.83716 0.79464 0.0
C157 C 0.75406 0.81811 0.77794 0.0
C158 C 0.74931 0.79507 0.78769 0.0
C159 C 0.74356 0.79128 0.81389 0.0
P160 P 0.77662 0.25354 0.41951 0.0
H161 H 0.77443 0.29137 0.45757 0.0
H162 H 0.74161 0.29897 0.48804 0.0
H163 H 0.69517 0.23322 0.46464 0.0
H164 H 0.72782 0.22604 0.43392 0.0
H165 H 0.82805 0.24736 0.40772 0.0
H166 H 0.85321 0.21857 0.4219 0.0
H167 H 0.7934 0.18952 0.47473 0.0
H168 H 0.76818 0.2175 0.45976 0.0
H169 H 0.73403 0.26355 0.39037 0.0
H170 H 0.78519 0.21374 0.38585 0.0
O171 O 0.79408 0.27928 0.41127 0.0
H172 H 0.71047 0.24343 0.35411 0.0
H173 H 0.76251 0.19425 0.34908 0.0
C174 C 0.75319 0.25853 0.44301 0.0
C175 C 0.75718 0.27862 0.45905 0.0
C176 C 0.73854 0.28277 0.47667 0.0
C177 C 0.71571 0.26675 0.47862 0.0
C178 C 0.71235 0.24608 0.46329 0.0
C179 C 0.73096 0.242 0.44567 0.0
C180 C 0.79639 0.23479 0.43288 0.0
C181 C 0.82057 0.23499 0.42263 0.0
C182 C 0.83492 0.21853 0.43078 0.0
C183 C 0.82526 0.20164 0.44937 0.0
C184 C 0.80124 0.20198 0.46004 0.0
C185 C 0.78686 0.21824 0.45169 0.0
C186 C 0.76105 0.2399 0.39118 0.0
C187 C 0.74033 0.24843 0.38142 0.0
C188 C 0.72698 0.23699 0.36056 0.0
C189 C 0.73441 0.21703 0.34882 0.0
C190 C 0.75587 0.20919 0.35805 0.0
C191 C 0.76903 0.2205 0.37904 0.0
P192 P 0.36697 0.68946 0.19456 0.0
H193 H 0.3418 0.69298 0.14583 0.0
H194 H 0.30028 0.67587 0.12943 0.0
H195 H 0.27979 0.6452 0.20401 0.0
H196 H 0.32134 0.66263 0.2204 0.0
H197 H 0.41612 0.71997 0.19235 0.0
H198 H 0.42992 0.76097 0.17974 0.0
H199 H 0.35237 0.77 0.17486 0.0
H200 H 0.33876 0.72881 0.18723 0.0
H201 H 0.36407 0.64183 0.21359 0.0
H202 H 0.38607 0.71236 0.24422 0.0
O203 O 0.38476 0.67724 0.17353 0.0
H204 H 0.37685 0.62555 0.25346 0.0
H205 H 0.39874 0.69616 0.28462 0.0
C206 C 0.33483 0.67914 0.18434 0.0
C207 C 0.32825 0.68288 0.1588 0.0
C208 C 0.30444 0.67308 0.14944 0.0
C209 C 0.28665 0.65902 0.16533 0.0
C210 C 0.29312 0.65568 0.19113 0.0
C211 C 0.31691 0.66574 0.20058 0.0
C212 C 0.37641 0.72114 0.19061 0.0
C213 C 0.40207 0.73088 0.18901 0.0
C214 C 0.40995 0.75444 0.18178 0.0
C215 C 0.39231 0.76894 0.17594 0.0
C216 C 0.36654 0.75934 0.17867 0.0
C217 C 0.35869 0.73575 0.18599 0.0
C218 C 0.37381 0.67832 0.22589 0.0
C219 C 0.37127 0.65384 0.22913 0.0
C220 C 0.37857 0.64452 0.25208 0.0
C221 C 0.38883 0.65945 0.27252 0.0
C222 C 0.39115 0.68407 0.26931 0.0
C223 C 0.3837 0.6934 0.24624 0.0
P224 P 0.17936 0.34518 0.72223 0.0
H225 H 0.19028 0.32388 0.67236 0.0
H226 H 0.16872 0.28979 0.64801 0.0
H227 H 0.10668 0.28291 0.70251 0.0
H228 H 0.12828 0.31725 0.72669 0.0
H229 H 0.23196 0.36345 0.73383 0.0
H230 H 0.26597 0.38764 0.71012 0.0
H231 H 0.2144 0.39604 0.64924 0.0
H232 H 0.18038 0.37102 0.67305 0.0
H233 H 0.15189 0.33233 0.7703 0.0
H234 H 0.16687 0.39344 0.72171 0.0
O235 O 0.19419 0.32909 0.74133 0.0
H236 H 0.13128 0.35442 0.80212 0.0
H237 H 0.14578 0.41571 0.75336 0.0
C238 C 0.16066 0.32376 0.70103 0.0
C239 C 0.17165 0.31564 0.67862 0.0
C240 C 0.15932 0.29595 0.66473 0.0
C241 C 0.13593 0.2835 0.67326 0.0
C242 C 0.12474 0.29195 0.69545 0.0
C243 C 0.13698 0.31181 0.70917 0.0
C244 C 0.20368 0.36498 0.70501 0.0
C245 C 0.22788 0.37046 0.71538 0.0
C246 C 0.24737 0.38456 0.70183 0.0
C247 C 0.24313 0.39384 0.67759 0.0
C248 C 0.21856 0.38891 0.6676 0.0
C249 C 0.19901 0.37471 0.68125 0.0
C250 C 0.16112 0.36119 0.74363 0.0
C251 C 0.15042 0.35045 0.76628 0.0
C252 C 0.13849 0.36315 0.78449 0.0
C253 C 0.13687 0.387 0.78053 0.0
C254 C 0.14698 0.39753 0.75735 0.0
C255 C 0.15891 0.38473 0.73907 0.0
La256 La 0.01169 0.02945 0.49817 0.0
La257 La 1.00441 1.00828 0.55056 0.0
C258 C 0.01399 0.05643 0.46001 0.0
C259 C 0.03302 0.07653 0.45211 0.0
C260 C 0.05504 0.08282 0.46651 0.0
C261 C 0.074 0.10092 0.45821 0.0
C262 C 0.07129 0.11301 0.43531 0.0
C263 C 0.04887 0.10703 0.42129 0.0
C264 C 0.02988 0.08887 0.42963 0.0
C265 C 0.04741 1.00664 0.51231 0.0
C266 C 0.03236 0.06015 0.54835 0.0
C267 C 1.00106 0.98175 0.58909 0.0
C268 C 0.9804 0.96344 0.59868 0.0
C269 C 0.96415 0.96936 0.6182 0.0
C270 C 0.94266 0.95348 0.62522 0.0
C271 C 0.93716 0.93117 0.61323 0.0
C272 C 0.95402 0.92462 0.59472 0.0
C273 C 0.97544 0.94069 0.58738 0.0
C274 C 0.96844 0.0307 0.53597 0.0
C275 C 0.98423 0.97738 0.50035 0.0
O276 O 0.02155 0.03605 0.45932 0.0
O277 O 1.00169 0.05949 0.48141 0.0
O278 O 0.04044 1.0082 0.48873 0.0
O279 O 0.03637 1.0195 0.5266 0.0
O280 O 0.0245 0.05995 0.52417 0.0
O281 O 0.03034 0.04029 0.56141 0.0
O282 O 0.99648 1.00333 0.58998 0.0
O283 O 0.01217 0.97727 0.56735 0.0
O284 O 0.97519 0.02941 0.55965 0.0
O285 O 0.97999 1.01802 0.52211 0.0
O286 O 0.99203 0.97769 0.52458 0.0
O287 O 0.98617 0.99719 0.48718 0.0
H288 H 0.05777 0.07341 0.48392 0.0
H289 H 0.09087 0.10533 0.46961 0.0
H290 H 0.04635 0.11586 0.40344 0.0
H291 H 0.013 0.08414 0.41829 0.0
H292 H 0.96761 0.9866 0.62753 0.0
H293 H 0.93016 0.95874 0.63991 0.0
H294 H 0.95019 0.90741 0.58535 0.0
H295 H 0.98769 0.9355 0.57242 0.0
La296 La 0.52749 0.03646 0.05121 0.0
La297 La 0.47584 1.01707 1.02077 0.0
C298 C 0.56801 0.06151 0.06514 0.0
C299 C 0.57863 0.07237 0.08941 0.0
C300 C 0.60264 0.06907 0.09678 0.0
C301 C 0.61337 0.07962 0.11941 0.0
C302 C 0.60033 0.09383 0.13495 0.0
C303 C 0.57618 0.09697 0.12767 0.0
C304 C 0.56535 0.08623 0.10516 0.0
C305 C 0.49966 0.99858 0.07342 0.0
C306 C 0.47669 0.05281 0.0688 0.0
C307 C 0.43575 0.99343 1.00404 0.0
C308 C 0.42639 0.9887 0.97752 0.0
C309 C 0.42717 1.00718 0.95993 0.0
C310 C 0.4213 1.00231 0.93403 0.0
C311 C 0.41479 0.97886 0.92506 0.0
C312 C 0.41314 0.96042 0.94289 0.0
C313 C 0.41888 0.96532 0.96889 0.0
C314 C 0.50459 0.05425 0.99807 0.0
C315 C 0.52631 0.99903 1.00546 0.0
O316 O 0.56465 0.03837 0.06369 0.0
O317 O 0.54918 0.07007 0.05554 0.0
O318 O 0.52125 1.00937 0.08187 0.0
O319 O 0.49505 1.0101 0.05421 0.0
O320 O 0.50165 0.05684 0.06938 0.0
O321 O 0.46324 0.03632 0.0539 0.0
O322 O 0.43765 1.01528 1.01266 0.0
O323 O 0.4555 0.98408 1.00958 0.0
O324 O 0.48355 0.04316 0.9888 0.0
O325 O 0.50791 0.04351 1.01818 0.0
O326 O 0.50137 0.99463 1.00579 0.0
O327 O 0.53983 1.0167 1.01862 0.0
H328 H 0.61319 0.05847 0.08488 0.0
H329 H 0.63211 0.07709 0.12446 0.0
H330 H 0.56563 0.10765 0.13945 0.0
H331 H 0.54669 0.08892 0.10005 0.0
H332 H 0.43299 0.02541 0.96596 0.0
H333 H 0.42228 1.01694 0.92092 0.0
H334 H 0.4084 0.94216 0.93658 0.0
H335 H 0.41833 0.9508 0.98209 0.0
La336 La 0.50957 0.50463 0.51163 0.0
La337 La 0.50527 0.54386 0.54724 0.0
C338 C 0.52547 0.47209 0.4871 0.0
C339 C 0.53477 0.45093 0.49593 0.0
C340 C 0.52064 0.42842 0.49117 0.0
C341 C 0.52845 0.40832 0.5007 0.0
C342 C 0.55069 0.41032 0.515 0.0
C343 C 0.56484 0.4329 0.51966 0.0
C344 C 0.55695 0.45297 0.51031 0.0
C345 C 0.46527 0.50108 0.53497 0.0
C346 C 0.52863 0.50316 0.5704 0.0
C347 C 0.48896 0.57488 0.57428 0.0
C348 C 0.47248 0.59215 0.56999 0.0
C349 C 0.47549 0.61285 0.58504 0.0
C350 C 0.46048 0.62981 0.58079 0.0
C351 C 0.44227 0.62637 0.56129 0.0
C352 C 0.43921 0.60551 0.54629 0.0
C353 C 0.45413 0.58846 0.5507 0.0
C354 C 0.54975 0.54708 0.52418 0.0
C355 C 0.4869 0.54533 0.48842 0.0
O356 O 0.50159 0.47226 0.49148 0.0
O357 O 0.53943 0.49257 0.49237 0.0
O358 O 0.46862 0.49468 0.51125 0.0
O359 O 0.48645 0.50817 0.54499 0.0
O360 O 0.52829 0.49449 0.54647 0.0
O361 O 0.51862 0.52201 0.57603 0.0
O362 O 0.51052 0.57863 0.56189 0.0
O363 O 0.47824 0.55267 0.57332 0.0
O364 O 0.5463 0.55343 0.54793 0.0
O365 O 0.52858 0.54027 0.51399 0.0
O366 O 0.4847 0.55237 0.51279 0.0
O367 O 0.49932 0.52804 0.48265 0.0
H368 H 0.50339 0.42638 0.48029 0.0
H369 H 0.51698 0.39123 0.49695 0.0
H370 H 0.58233 0.4351 0.53013 0.0
H371 H 0.56824 0.47007 0.51446 0.0
H372 H 0.48962 0.61598 0.59994 0.0
H373 H 0.4635 0.64587 0.5924 0.0
H374 H 0.4252 0.60232 0.53128 0.0
H375 H 0.45135 0.57246 0.53903 0.0
La376 La 0.01382 0.49533 0.03637 0.0
La377 La 1.00632 0.5436 1.01367 0.0
C378 C 0.03036 0.45725 0.0389 0.0
C379 C 0.04854 0.44774 0.05455 0.0
C380 C 0.05989 0.46036 0.07596 0.0
C381 C 0.07924 0.45224 0.08891 0.0
C382 C 0.08762 0.43156 0.08041 0.0
C383 C 0.07571 0.41875 0.05932 0.0
C384 C 0.05634 0.42679 0.04651 0.0
C385 C 0.99368 0.52098 0.07177 0.0
C386 C 0.05418 0.54243 0.04729 0.0
C387 C 0.99042 0.57997 0.99983 0.0
C388 C 0.96575 0.58612 0.99458 0.0
C389 C 0.96416 0.60355 0.97642 0.0
C390 C 0.94082 0.60884 0.96989 0.0
C391 C 0.91862 0.59678 0.98145 0.0
C392 C 0.92028 0.57948 0.99992 0.0
C393 C 0.9437 0.57408 1.00635 0.0
C394 C 0.03355 0.51811 0.98587 0.0
C395 C 0.96263 0.49792 1.00875 0.0
O396 O 1.00953 0.46082 0.05053 0.0
O397 O 0.04022 0.47485 0.0241 0.0
O398 O 0.99943 0.50037 0.07606 0.0
O399 O 0.9997 0.52559 0.04862 0.0
O400 O 0.0491 0.51895 0.04637 0.0
O401 O 0.03886 0.55578 0.03778 0.0
O402 O 0.99766 0.56471 0.98363 0.0
O403 O 0.99509 0.57566 0.02391 0.0
O404 O 0.03793 0.541 0.98721 0.0
O405 O 0.01406 0.51065 0.99903 0.0
O406 O 0.96921 0.52129 1.00799 0.0
O407 O 0.97793 0.48409 1.01724 0.0
H408 H 0.05426 0.47676 0.08218 0.0
H409 H 0.0882 0.46256 0.10497 0.0
H410 H 0.08156 0.4026 0.05257 0.0
H411 H 0.04786 0.41695 0.0299 0.0
H412 H 0.98099 0.61293 0.9671 0.0
H413 H 0.94016 0.62251 0.95589 0.0
H414 H 0.90347 0.56983 1.00901 0.0
H415 H 0.94455 0.56037 1.02026 0.0
C416 C 0.25748 0.22791 0.33529 0.0
C417 C 0.25394 0.24779 0.32131 0.0
C418 C 0.23808 0.21594 0.35077 0.0
C419 C 0.16925 0.20532 0.35605 0.0
H420 H 0.18041 0.17783 0.42187 0.0
C421 C 0.08764 0.15208 0.41477 0.0
C422 C 0.09227 0.13097 0.42547 0.0
C423 C 0.1074 0.16844 0.40452 0.0
C424 C 0.17703 0.18528 0.40343 0.0
H425 H 0.22788 0.27155 0.31381 0.0
H426 H 0.19405 0.25066 0.34079 0.0
H427 H 0.21529 0.20285 0.39981 0.0
H428 H 0.12126 0.11048 0.43376 0.0
H429 H 0.15563 0.13887 0.41576 0.0
H430 H 0.13121 0.18738 0.35926 0.0
C431 C 0.21162 0.24405 0.3394 0.0
C432 C 0.197 0.19962 0.39083 0.0
C433 C 0.23099 0.25601 0.32396 0.0
C434 C 0.11712 0.12675 0.42603 0.0
C435 C 0.13684 0.14305 0.41574 0.0
C436 C 0.14933 0.19096 0.36859 0.0
C437 C 0.21477 0.22362 0.35258 0.0
C438 C 0.19337 0.20961 0.36688 0.0
C439 C 0.1322 0.164 0.40467 0.0
C440 C 0.15303 0.18056 0.3923 0.0
H441 H 0.27485 0.22102 0.33345 0.0
H442 H 0.241 0.20012 0.36048 0.0
H443 H 0.16593 0.21244 0.33742 0.0
H444 H 0.06873 0.15596 0.41437 0.0
H445 H 0.10324 0.18457 0.39647 0.0
C446 C 0.40382 0.93326 0.69182 0.0
C447 C 0.38497 0.94277 0.67942 0.0
C448 C 0.40705 0.93611 0.7185 0.0
C449 C 0.37391 0.95033 0.77834 0.0
H450 H 0.44114 0.96359 0.80641 0.0
C451 C 0.39195 0.95557 0.88834 0.0
C452 C 0.41101 0.97374 0.89703 0.0
C453 C 0.38879 0.95073 0.86191 0.0
C454 C 0.42223 0.96004 0.79887 0.0
H455 H 0.35518 0.96326 0.68506 0.0
H456 H 0.36101 0.96853 0.7315 0.0
H457 H 0.43569 0.95783 0.76 0.0
H458 H 0.44199 1.00075 0.8847 0.0
H459 H 0.43598 0.99281 0.83877 0.0
H460 H 0.36047 0.95332 0.81712 0.0
C461 C 0.37292 0.95837 0.72078 0.0
C462 C 0.41911 0.95645 0.77228 0.0
C463 C 0.36962 0.95543 0.69416 0.0
C464 C 0.42686 0.98688 0.87869 0.0
C465 C 0.42366 0.98209 0.85233 0.0
C466 C 0.37704 0.954 0.80492 0.0
C467 C 0.39157 0.94864 0.73331 0.0
C468 C 0.39491 0.95172 0.76167 0.0
C469 C 0.40463 0.96394 0.84361 0.0
C470 C 0.40124 0.95907 0.81548 0.0
H471 H 0.41573 0.92318 0.68099 0.0
H472 H 0.4214 0.92814 0.72759 0.0
H473 H 0.355 0.94639 0.77084 0.0
H474 H 0.37933 0.94522 0.90196 0.0
H475 H 0.37409 0.93648 0.85584 0.0
C476 C 0.63516 0.40427 0.73687 0.0
C477 C 0.62043 0.39615 0.75871 0.0
C478 C 0.62515 0.41558 0.71667 0.0
C479 C 0.57125 0.44571 0.70027 0.0
H480 H 0.59446 0.43739 0.63007 0.0
C481 C 0.54317 0.50127 0.61632 0.0
C482 C 0.53957 0.49087 0.59156 0.0
C483 C 0.55299 0.48962 0.63639 0.0
C484 C 0.58748 0.43979 0.64947 0.0
H485 H 0.58326 0.39398 0.77597 0.0
H486 H 0.56564 0.41286 0.74051 0.0
H487 H 0.6106 0.4169 0.66509 0.0
H488 H 0.54355 0.45978 0.56871 0.0
H489 H 0.56004 0.43927 0.60367 0.0
H490 H 0.54744 0.46789 0.68454 0.0
C491 C 0.58518 0.41089 0.7392 0.0
C492 C 0.5971 0.42824 0.66977 0.0
C493 C 0.59525 0.3997 0.75952 0.0
C494 C 0.54617 0.46846 0.58744 0.0
C495 C 0.55581 0.45671 0.60758 0.0
C496 C 0.5615 0.45712 0.67995 0.0
C497 C 0.59996 0.41904 0.71739 0.0
C498 C 0.58927 0.43108 0.69557 0.0
C499 C 0.55934 0.46706 0.63246 0.0
C500 C 0.56953 0.45448 0.65418 0.0
H501 H 0.65446 0.40161 0.73508 0.0
H502 H 0.63739 0.42181 0.70055 0.0
H503 H 0.56484 0.44868 0.71976 0.0
H504 H 0.5385 0.51855 0.62026 0.0
H505 H 0.55585 0.49854 0.65496 0.0
C506 C 0.87893 0.62112 0.23494 0.0
C507 C 0.89347 0.63639 0.25268 0.0
C508 C 0.89035 0.60981 0.21499 0.0
C509 C 0.95128 0.59249 0.19495 0.0
H510 H 0.91985 0.58311 0.12782 0.0
C511 C 0.98301 0.52971 0.11763 0.0
C512 C 0.98322 0.53589 0.09145 0.0
C513 C 0.97285 0.543 0.13665 0.0
C514 C 0.92907 0.58575 0.14633 0.0
H515 H 0.93174 0.65139 0.26313 0.0
H516 H 0.95158 0.63204 0.2282 0.0
H517 H 0.901 0.6044 0.16184 0.0
H518 H 0.9722 0.56059 0.06472 0.0
H519 H 0.95483 0.58424 0.09793 0.0
H520 H 0.97953 0.57417 0.17937 0.0
C521 C 0.93127 0.62859 0.22986 0.0
C522 C 0.91804 0.59774 0.16604 0.0
C523 C 0.91984 0.63993 0.24982 0.0
C524 C 0.97283 0.55568 0.08472 0.0
C525 C 0.96256 0.56903 0.1038 0.0
C526 C 0.96228 0.5805 0.17527 0.0
C527 C 0.91671 0.61338 0.21207 0.0
C528 C 0.92887 0.60116 0.19074 0.0
C529 C 0.96245 0.56289 0.13011 0.0
C530 C 0.95125 0.57675 0.1507 0.0
H531 H 0.8586 0.61814 0.23614 0.0
H532 H 0.87843 0.59804 0.20198 0.0
H533 H 0.96015 0.59454 0.21367 0.0
H534 H 0.99069 0.51445 0.12348 0.0
H535 H 0.97274 0.53734 0.15652 0.0
C536 C 0.3695 0.18919 0.19624 0.0
C537 C 0.37351 0.21201 0.18587 0.0
C538 C 0.37951 0.17102 0.18396 0.0
C539 C 0.42986 0.1612 0.13833 0.0
H540 H 0.39224 0.09736 0.13401 0.0
C541 C 0.47675 0.08427 0.10279 0.0
C542 C 0.46335 0.06828 0.085 0.0
C543 C 0.46493 0.10058 0.11623 0.0
C544 C 0.40292 0.11512 0.13495 0.0
H545 H 0.39051 0.23344 0.15404 0.0
H546 H 0.40793 0.20176 0.13259 0.0
H547 H 0.37283 0.12858 0.15411 0.0
H548 H 0.42667 0.05638 0.06814 0.0
H549 H 0.40609 0.08506 0.09149 0.0
H550 H 0.45973 0.14797 0.11875 0.0
C551 C 0.39743 0.198 0.15048 0.0
C552 C 0.3919 0.13296 0.14668 0.0
C553 C 0.38745 0.21617 0.16276 0.0
C554 C 0.43756 0.06841 0.08172 0.0
C555 C 0.42573 0.08481 0.09516 0.0
C556 C 0.44085 0.1434 0.12666 0.0
C557 C 0.39375 0.17526 0.16103 0.0
C558 C 0.40525 0.15622 0.14847 0.0
C559 C 0.43942 0.10139 0.11218 0.0
C560 C 0.42756 0.12014 0.12486 0.0
H561 H 0.35911 0.18548 0.21419 0.0
H562 H 0.37661 0.1538 0.19278 0.0
H563 H 0.44078 0.17885 0.13965 0.0
H564 H 0.49656 0.08454 0.10606 0.0
H565 H 0.47589 0.11276 0.12962 0.0
C566 C 0.249 0.94481 0.52518 0.0
C567 C 0.26299 0.95015 0.54783 0.0
C568 C 0.22422 0.94865 0.5241 0.0
C569 C 0.18069 0.98363 0.55444 0.0
H570 H 0.13003 0.93889 0.51882 0.0
C571 C 0.07877 0.99953 0.54496 0.0
C572 C 0.06928 0.99637 0.51981 0.0
C573 C 0.10079 0.99134 0.55125 0.0
C574 C 0.144 0.95156 0.52878 0.0
H575 H 0.26178 0.96319 0.58732 0.0
H576 H 0.21854 0.97002 0.58537 0.0
H577 H 0.17213 0.92978 0.52412 0.0
H578 H 0.07448 0.98142 0.48184 0.0
H579 H 0.11295 0.96729 0.49269 0.0
H580 H 0.15276 1.00564 0.55861 0.0
C581 C 0.22686 0.96317 0.56834 0.0
C582 C 0.16809 0.94637 0.53176 0.0
C583 C 0.25164 0.95933 0.56942 0.0
C584 C 0.08151 0.98414 0.50135 0.0
C585 C 0.10342 0.9759 0.50763 0.0
C586 C 0.1566 0.98882 0.55145 0.0
C587 C 0.21289 0.95788 0.54567 0.0
C588 C 0.18682 0.96254 0.54422 0.0
C589 C 0.11354 0.97976 0.53251 0.0
C590 C 0.13814 0.97303 0.53818 0.0
H591 H 0.25732 0.93797 0.50814 0.0
H592 H 0.21407 0.94478 0.50621 0.0
H593 H 0.19478 0.99655 0.5639 0.0
H594 H 0.06953 1.00878 0.55958 0.0
H595 H 0.10801 0.99431 0.57066 0.0
C596 C 0.77032 0.38021 0.91617 0.0
C597 C 0.75587 0.39232 0.90042 0.0
C598 C 0.79169 0.39221 0.92879 0.0
C599 C 0.82406 0.45167 0.95048 0.0
H600 H 0.88291 0.42156 0.95029 0.0
C601 C 0.92209 0.50006 0.98574 0.0
C602 C 0.93765 0.48665 0.99835 0.0
C603 C 0.89937 0.48911 0.97459 0.0
C604 C 0.8666 0.43016 0.95094 0.0
H605 H 0.7527 0.42693 0.88619 0.0
H606 H 0.78983 0.44787 0.90839 0.0
H607 H 0.84456 0.40172 0.92986 0.0
H608 H 0.94082 0.45116 1.00969 0.0
H609 H 0.90125 0.43229 0.99088 0.0
H610 H 0.84614 0.48011 0.97169 0.0
C611 C 0.78449 0.42902 0.91105 0.0
C612 C 0.84451 0.41873 0.93911 0.0
C613 C 0.76311 0.41698 0.89832 0.0
C614 C 0.92953 0.46211 1.0 0.0
C615 C 0.90681 0.45121 0.98898 0.0
C616 C 0.84617 0.4631 0.96244 0.0
C617 C 0.79929 0.41675 0.92619 0.0
C618 C 0.82287 0.42924 0.93876 0.0
C619 C 0.8915 0.46446 0.97578 0.0
C620 C 0.86779 0.45247 0.96294 0.0
H621 H 0.76512 0.36135 0.91882 0.0
H622 H 0.80223 0.3822 0.94071 0.0
H623 H 0.80773 0.46025 0.95084 0.0
H624 H 0.92767 0.51899 0.98399 0.0
H625 H 0.88831 0.49997 0.96444 0.0
C626 C 0.74555 0.61506 0.39764 0.0
C627 C 0.74943 0.63965 0.39409 0.0
C628 C 0.72495 0.60368 0.41226 0.0
C629 C 0.67759 0.61528 0.4618 0.0
H630 H 0.63969 0.55549 0.43789 0.0
C631 C 0.59558 0.56468 0.52271 0.0
C632 C 0.57369 0.55439 0.5096 0.0
C633 C 0.61776 0.57343 0.50906 0.0
C634 C 0.64997 0.57223 0.4448 0.0
H635 H 0.73489 0.67154 0.40399 0.0
H636 H 0.69905 0.65182 0.42899 0.0
H637 H 0.67677 0.5742 0.41354 0.0
H638 H 0.55815 0.54453 0.47185 0.0
H639 H 0.5968 0.55997 0.44791 0.0
H640 H 0.65055 0.61372 0.49263 0.0
C641 C 0.71193 0.64123 0.42062 0.0
C642 C 0.67146 0.58285 0.43097 0.0
C643 C 0.7324 0.65255 0.40597 0.0
C644 C 0.57471 0.55237 0.48251 0.0
C645 C 0.59694 0.56115 0.46881 0.0
C646 C 0.65619 0.60466 0.47562 0.0
C647 C 0.70777 0.61661 0.42389 0.0
C648 C 0.68548 0.60464 0.43917 0.0
C649 C 0.6187 0.57216 0.48187 0.0
C650 C 0.64196 0.58303 0.4673 0.0
H651 H 0.75815 0.6045 0.38867 0.0
H652 H 0.72255 0.58473 0.41455 0.0
H653 H 0.688 0.63188 0.46894 0.0
H654 H 0.59547 0.56635 0.54359 0.0
H655 H 0.63419 0.58131 0.51988 0.0
C656 C 0.27299 0.36955 0.17601 0.0
C657 C 0.2687 0.34511 0.18036 0.0
C658 C 0.25417 0.38029 0.16548 0.0
C659 C 0.18552 0.37204 0.15859 0.0
H660 H 0.20016 0.41732 0.10334 0.0
C661 C 0.11108 0.42333 0.11987 0.0
C662 C 0.10927 0.42369 0.09283 0.0
C663 C 0.13124 0.41528 0.13137 0.0
C664 C 0.19581 0.40469 0.11877 0.0
H665 H 0.24132 0.3128 0.17719 0.0
H666 H 0.20864 0.33149 0.15864 0.0
H667 H 0.23413 0.39981 0.12141 0.0
H668 H 0.12754 0.4167 0.05665 0.0
H669 H 0.1626 0.40255 0.0767 0.0
H670 H 0.14716 0.37659 0.1557 0.0
C671 C 0.22649 0.34236 0.16344 0.0
C672 C 0.21527 0.39482 0.12923 0.0
C673 C 0.24532 0.33162 0.17375 0.0
C674 C 0.12827 0.41633 0.07754 0.0
C675 C 0.14848 0.40848 0.08902 0.0
C676 C 0.16612 0.38203 0.14828 0.0
C677 C 0.23062 0.36683 0.15938 0.0
C678 C 0.21027 0.37817 0.14903 0.0
C679 C 0.1501 0.4077 0.11604 0.0
C680 C 0.171 0.39826 0.12806 0.0
H681 H 0.29086 0.38037 0.18083 0.0
H682 H 0.25784 0.3992 0.16266 0.0
H683 H 0.18116 0.35945 0.17406 0.0
H684 H 0.09667 0.42884 0.13212 0.0
H685 H 0.1321 0.41503 0.15226 0.0
C686 C 0.6056 0.25118 0.91991 0.0
C687 C 0.61172 0.25165 0.89331 0.0
C688 C 0.59526 0.22995 0.93209 0.0
C689 C 0.58542 0.16388 0.92225 0.0
H690 H 0.5383 0.16398 0.97944 0.0
C691 C 0.52211 0.07881 0.96045 0.0
C692 C 0.51994 0.07599 0.98734 0.0
C693 C 0.53476 0.09997 0.94986 0.0
C694 C 0.55162 0.16366 0.96365 0.0
H695 H 0.61166 0.22935 0.85902 0.0
H696 H 0.59251 0.19308 0.87967 0.0
H697 H 0.55663 0.20114 0.9592 0.0
H698 H 0.52816 0.09361 0.02421 0.0
H699 H 0.55036 0.13066 1.00583 0.0
H700 H 0.57959 0.12623 0.92625 0.0
C701 C 0.59627 0.20898 0.89145 0.0
C702 C 0.56228 0.18506 0.95201 0.0
C703 C 0.6069 0.23011 0.87936 0.0
C704 C 0.53045 0.09491 1.00347 0.0
C705 C 0.54275 0.11629 0.9929 0.0
C706 C 0.57447 0.14249 0.93363 0.0
C707 C 0.59041 0.20843 0.91808 0.0
C708 C 0.57932 0.18557 0.931 0.0
C709 C 0.54503 0.11911 0.96592 0.0
C710 C 0.55737 0.14206 0.95444 0.0
H711 H 0.60863 0.26726 0.93144 0.0
H712 H 0.5914 0.23046 0.95265 0.0
H713 H 0.59887 0.16332 0.90664 0.0
H714 H 0.51383 0.06464 0.94755 0.0
H715 H 0.53586 0.10158 0.92904 0.0
C716 C 0.87283 0.78992 0.40636 0.0
C717 C 0.88698 0.77791 0.38932 0.0
C718 C 0.88389 0.81077 0.41908 0.0
C719 C 0.93811 0.86015 0.41463 0.0
H720 H 0.91866 0.87351 0.48499 0.0
C721 C 0.96556 0.95318 0.46201 0.0
C722 C 0.97268 0.95444 0.48811 0.0
C723 C 0.95546 0.93147 0.45034 0.0
C724 C 0.92448 0.87005 0.46539 0.0
H725 H 0.92417 0.77852 0.37274 0.0
H726 H 0.94357 0.81471 0.39519 0.0
H727 H 0.90139 0.83573 0.46467 0.0
H728 H 0.97453 0.93359 0.52238 0.0
H729 H 0.95706 0.89588 0.50208 0.0
H730 H 0.96143 0.89437 0.41547 0.0
C731 C 0.92376 0.8081 0.39847 0.0
C732 C 0.91434 0.84841 0.45361 0.0
C733 C 0.9127 0.78715 0.38581 0.0
C734 C 0.96922 0.93339 0.50226 0.0
C735 C 0.95905 0.9117 0.49062 0.0
C736 C 0.94819 0.88183 0.42639 0.0
C737 C 0.90947 0.82033 0.41515 0.0
C738 C 0.92093 0.84315 0.42802 0.0
C739 C 0.95211 0.91038 0.46444 0.0
C740 C 0.94148 0.88715 0.45193 0.0
H741 H 0.85307 0.78324 0.40984 0.0
H742 H 0.87217 0.8197 0.43155 0.0
H743 H 0.94347 0.85691 0.39484 0.0
H744 H 0.96791 0.96897 0.45047 0.0
H745 H 0.95003 0.93126 0.43026 0.0
C746 C 0.36616 0.80806 0.56914 0.0
C747 C 0.3679 0.82236 0.5472 0.0
C748 C 0.36853 0.78437 0.56685 0.0
C749 C 0.39768 0.74462 0.52527 0.0
H750 H 0.36093 0.69673 0.56999 0.0
C751 C 0.42376 0.65203 0.53091 0.0
C752 C 0.4271 0.64489 0.55628 0.0
C753 C 0.41154 0.67106 0.52642 0.0
C754 C 0.37129 0.70991 0.55734 0.0
H755 H 0.37252 0.82275 0.5055 0.0
H756 H 0.37681 0.78123 0.50151 0.0
H757 H 0.34836 0.73542 0.56799 0.0
H758 H 0.41904 0.6511 0.5967 0.0
H759 H 0.39802 0.68446 0.58895 0.0
H760 H 0.42114 0.71943 0.51528 0.0
C761 C 0.37386 0.7885 0.52051 0.0
C762 C 0.36413 0.73204 0.55621 0.0
C763 C 0.37147 0.81226 0.5228 0.0
C764 C 0.41701 0.65643 0.57697 0.0
C765 C 0.4047 0.67535 0.57249 0.0
C766 C 0.40481 0.72248 0.52637 0.0
C767 C 0.37271 0.77438 0.54256 0.0
C768 C 0.37772 0.74986 0.54075 0.0
C769 C 0.40229 0.68318 0.54722 0.0
C770 C 0.39216 0.70513 0.54299 0.0
H771 H 0.36383 0.81538 0.58825 0.0
H772 H 0.36806 0.77412 0.58428 0.0
H773 H 0.4087 0.75803 0.51336 0.0
H774 H 0.43145 0.6435 0.51459 0.0
H775 H 0.40977 0.6766 0.50673 0.0
C776 C 0.78441 0.81226 0.74252 0.0
C777 C 0.76423 0.8228 0.75142 0.0
C778 C 0.79768 0.82026 0.72008 0.0
C779 C 0.81393 0.87575 0.68592 0.0
H780 H 0.85077 0.83961 0.64017 0.0
C781 C 0.89066 0.92357 0.61957 0.0
C782 C 0.91354 0.91519 0.61996 0.0
C783 C 0.86866 0.90977 0.62896 0.0
C784 C 0.84061 0.84993 0.65282 0.0
H785 H 0.74048 0.84823 0.74249 0.0
H786 H 0.76344 0.86203 0.70308 0.0
H787 H 0.81748 0.81905 0.66832 0.0
H788 H 0.9313 0.88544 0.62904 0.0
H789 H 0.89294 0.86142 0.6463 0.0
H790 H 0.83756 0.90651 0.67157 0.0
C791 C 0.76941 0.84799 0.71377 0.0
C792 C 0.82152 0.83817 0.66887 0.0
C793 C 0.75624 0.84008 0.73629 0.0
C794 C 0.91383 0.89223 0.62856 0.0
C795 C 0.89183 0.87848 0.63829 0.0
C796 C 0.83295 0.88745 0.66999 0.0
C797 C 0.79096 0.83891 0.70607 0.0
C798 C 0.80834 0.85097 0.68601 0.0
C799 C 0.86914 0.88741 0.63931 0.0
C800 C 0.8469 0.87471 0.65363 0.0
H801 H 0.79113 0.79903 0.75387 0.0
H802 H 0.81428 0.81299 0.71485 0.0
H803 H 0.80458 0.88619 0.69924 0.0
H804 H 0.88994 0.9411 0.61259 0.0
H805 H 0.85142 0.91696 0.62887 0.0
C806 C 0.70885 0.21635 0.30847 0.0
C807 C 0.7196 0.2041 0.32744 0.0
C808 C 0.69486 0.20408 0.28848 0.0
C809 C 0.68685 0.1484 0.25195 0.0
H810 H 0.62258 0.16392 0.2328 0.0
C811 C 0.62454 0.09344 0.1758 0.0
C812 C 0.61218 0.1058 0.15834 0.0
C813 C 0.6365 0.10498 0.19735 0.0
C814 C 0.64063 0.15955 0.23769 0.0
H815 H 0.72347 0.16925 0.34053 0.0
H816 H 0.69957 0.14796 0.30531 0.0
H817 H 0.646 0.18532 0.26838 0.0
H818 H 0.60263 0.13985 0.14964 0.0
H819 H 0.62395 0.16017 0.18693 0.0
H820 H 0.68194 0.12306 0.22101 0.0
C821 C 0.70217 0.16706 0.30586 0.0
C822 C 0.65399 0.17178 0.2581 0.0
C823 C 0.71595 0.1793 0.32596 0.0
C824 C 0.61178 0.12985 0.16297 0.0
C825 C 0.62394 0.14145 0.18439 0.0
C826 C 0.67363 0.13633 0.23141 0.0
C827 C 0.69151 0.17933 0.28692 0.0
C828 C 0.67722 0.16632 0.26541 0.0
C829 C 0.63659 0.12919 0.20176 0.0
C830 C 0.65036 0.14175 0.224 0.0
H831 H 0.71156 0.23545 0.3088 0.0
H832 H 0.68707 0.21397 0.27394 0.0
H833 H 0.70488 0.14404 0.25699 0.0
H834 H 0.62484 0.0748 0.17284 0.0
H835 H 0.64563 0.09488 0.2106 0.0
C836 C 0.41986 0.65984 0.309 0.0
C837 C 0.39761 0.64917 0.29658 0.0
C838 C 0.42881 0.64933 0.33052 0.0
C839 C 0.4238 0.59116 0.3629 0.0
H840 H 0.45655 0.62855 0.41971 0.0
C841 C 0.47772 0.54984 0.44128 0.0
C842 C 0.47604 0.55753 0.46711 0.0
C843 C 0.46783 0.5613 0.42113 0.0
C844 C 0.44729 0.61777 0.40413 0.0
H845 H 0.36684 0.61941 0.29819 0.0
H846 H 0.38231 0.60124 0.33546 0.0
H847 H 0.43955 0.64809 0.38416 0.0
H848 H 0.46255 0.58364 0.49172 0.0
H849 H 0.44511 0.60346 0.45667 0.0
H850 H 0.43118 0.56085 0.38294 0.0
C851 C 0.39323 0.61749 0.32825 0.0
C852 C 0.43776 0.62904 0.38352 0.0
C853 C 0.3843 0.62798 0.30678 0.0
C854 C 0.46419 0.57711 0.47215 0.0
C855 C 0.45432 0.58863 0.45195 0.0
C856 C 0.43337 0.57992 0.38343 0.0
C857 C 0.41578 0.62782 0.3403 0.0
C858 C 0.42586 0.61591 0.36254 0.0
C859 C 0.45595 0.58088 0.42609 0.0
C860 C 0.44534 0.59302 0.40437 0.0
H861 H 0.43085 0.67597 0.30162 0.0
H862 H 0.44637 0.65776 0.33901 0.0
H863 H 0.41507 0.58037 0.34705 0.0
H864 H 0.48678 0.53492 0.43652 0.0
H865 H 0.46987 0.55497 0.40153 0.0
C866 C 0.13602 0.42453 0.80658 0.0
C867 C 0.12546 0.40087 0.80093 0.0
C868 C 0.12615 0.43709 0.82658 0.0
C869 C 0.06917 0.43656 0.86865 0.0
H870 H 0.11509 0.47917 0.91186 0.0
C871 C 0.0351 0.48005 0.96165 0.0
C872 C 0.04527 0.50391 0.96644 0.0
C873 C 0.04517 0.46721 0.94203 0.0
C874 C 0.10193 0.46753 0.89986 0.0
H875 H 0.09556 0.37226 0.81176 0.0
H876 H 0.07876 0.39387 0.84678 0.0
H877 H 0.1316 0.45783 0.87634 0.0
H878 H 0.0742 0.53288 0.95463 0.0
H879 H 0.0917 0.51063 0.92043 0.0
H880 H 0.03952 0.44623 0.89222 0.0
C881 C 0.09459 0.40286 0.83563 0.0
C882 C 0.11143 0.45528 0.87937 0.0
C883 C 0.10446 0.39032 0.81565 0.0
C884 C 0.066 0.5145 0.95149 0.0
C885 C 0.07611 0.50167 0.93193 0.0
C886 C 0.05968 0.44878 0.88916 0.0
C887 C 0.10538 0.4264 0.84156 0.0
C888 C 0.0952 0.43961 0.8634 0.0
C889 C 0.0657 0.47788 0.9267 0.0
C890 C 0.07591 0.46448 0.90508 0.0
H891 H 0.15233 0.43326 0.79593 0.0
H892 H 0.13482 0.45525 0.83023 0.0
H893 H 0.05598 0.42499 0.85661 0.0
H894 H 0.01908 0.47138 0.97279 0.0
H895 H 0.03684 0.44887 0.93889 0.0
C896 C 0.63908 0.84424 0.92892 0.0
C897 C 0.64964 0.84733 0.90396 0.0
C898 C 0.62318 0.85918 0.93845 0.0
C899 C 0.58476 0.90356 0.91998 0.0
H900 H 0.60078 0.92856 0.98894 0.0
C901 C 0.52627 0.96384 0.97616 0.0
C902 C 0.53972 0.98269 0.99064 0.0
C903 C 0.53873 0.9472 0.96406 0.0
C904 C 0.59618 0.92186 0.9696 0.0
H905 H 0.65096 0.86799 0.86909 0.0
H906 H 0.62309 0.89392 0.88567 0.0
H907 H 0.62291 0.89855 0.97082 0.0
H908 H 0.57702 0.99927 1.00289 0.0
H909 H 0.59868 0.97034 0.98168 0.0
H910 H 0.5583 0.92729 0.9187 0.0
C911 C 0.62696 0.87984 0.8978 0.0
C912 C 0.60861 0.90442 0.95935 0.0
C913 C 0.64291 0.86492 0.88828 0.0
C914 C 0.56601 0.98494 0.99203 0.0
C915 C 0.57844 0.96827 0.98001 0.0
C916 C 0.5722 0.92096 0.93031 0.0
C917 C 0.61745 0.87751 0.92322 0.0
C918 C 0.60314 0.89514 0.9344 0.0
C919 C 0.56489 0.94901 0.96627 0.0
C920 C 0.57794 0.93042 0.95517 0.0
H921 H 0.64357 0.83059 0.94131 0.0
H922 H 0.61574 0.85666 0.95795 0.0
H923 H 0.58006 0.89666 0.90074 0.0
H924 H 0.506 0.96156 0.97461 0.0
H925 H 0.52777 0.93249 0.95372 0.0
C926 C 0.86594 0.18869 0.46025 0.0
C927 C 0.83974 0.18325 0.4571 0.0
C928 C 0.87937 0.1713 0.46779 0.0
C929 C 0.8718 0.11568 0.50236 0.0
H930 H 0.93399 0.10769 0.46768 0.0
C931 C 0.94614 0.04657 0.5002 0.0
C932 C 0.9517 0.04619 0.52657 0.0
C933 C 0.93167 0.06253 0.49109 0.0
C934 C 0.91656 0.10965 0.47741 0.0
H935 H 0.80727 0.15505 0.45857 0.0
H936 H 0.83067 0.12496 0.47231 0.0
H937 H 0.91057 0.13753 0.45253 0.0
H938 H 0.94591 0.06138 0.56429 0.0
H939 H 0.92023 0.08903 0.54843 0.0
H940 H 0.87788 0.08796 0.52738 0.0
C941 C 0.84072 0.14272 0.46917 0.0
C942 C 0.90333 0.12682 0.46891 0.0
C943 C 0.82734 0.16 0.46141 0.0
C944 C 0.94188 0.06138 0.54384 0.0
C945 C 0.92717 0.07713 0.5348 0.0
C946 C 0.88517 0.0987 0.51104 0.0
C947 C 0.86683 0.14822 0.47251 0.0
C948 C 0.88083 0.12998 0.48133 0.0
C949 C 0.92221 0.07805 0.5083 0.0
C950 C 0.90768 0.09556 0.49865 0.0
H951 H 0.87603 0.20646 0.45737 0.0
H952 H 0.89949 0.17603 0.47048 0.0
H953 H 0.85459 0.11789 0.51238 0.0
H954 H 0.95328 0.0348 0.48655 0.0
H955 H 0.92785 0.06272 0.47061 0.0
C956 C 0.24827 0.65958 0.13816 0.0
C957 C 0.26185 0.64736 0.15468 0.0
C958 C 0.22561 0.64835 0.12722 0.0
C959 C 0.17518 0.59475 0.13297 0.0
H960 H 0.1599 0.61112 0.06331 0.0
C961 C 0.0928 0.54125 0.07386 0.0
C962 C 0.07798 0.55427 0.05967 0.0
C963 C 0.115 0.55248 0.08574 0.0
C964 C 0.16374 0.60647 0.08287 0.0
H965 H 0.26206 0.61358 0.17251 0.0
H966 H 0.22291 0.59387 0.15318 0.0
H967 H 0.19862 0.63072 0.08343 0.0
H968 H 0.07525 0.58945 0.04686 0.0
H969 H 0.11393 0.6089 0.06735 0.0
H970 H 0.14039 0.57015 0.13207 0.0
C971 C 0.22941 0.61233 0.14905 0.0
C972 C 0.18599 0.61781 0.09452 0.0
C973 C 0.25197 0.62365 0.16017 0.0
C974 C 0.08609 0.5788 0.05759 0.0
C975 C 0.10841 0.58997 0.06925 0.0
C976 C 0.15302 0.58327 0.12121 0.0
C977 C 0.21591 0.62445 0.13226 0.0
C978 C 0.19206 0.61222 0.11981 0.0
C979 C 0.12316 0.577 0.08354 0.0
C980 C 0.14694 0.58902 0.09602 0.0
H981 H 0.25511 0.67794 0.13377 0.0
H982 H 0.21563 0.65854 0.11492 0.0
H983 H 0.17883 0.59015 0.15258 0.0
H984 H 0.0872 0.52235 0.07596 0.0
H985 H 0.12598 0.54188 0.09638 0.0
C986 C 0.28374 0.42332 0.67555 0.0
C987 C 0.26449 0.40795 0.6627 0.0
C988 C 0.30465 0.43524 0.66194 0.0
C989 C 0.32791 0.45422 0.59639 0.0
H990 H 0.39369 0.45546 0.62594 0.0
C991 C 0.41996 0.48184 0.53707 0.0
C992 C 0.44151 0.49358 0.54973 0.0
C993 C 0.39796 0.47312 0.55102 0.0
C994 C 0.3755 0.45569 0.61752 0.0
H995 H 0.25229 0.39354 0.62508 0.0
H996 H 0.28855 0.41456 0.60136 0.0
H997 H 0.35618 0.43732 0.64966 0.0
H998 H 0.45668 0.50592 0.58697 0.0
H999 H 0.41813 0.49129 0.61134 0.0
H1000 H 0.34717 0.47265 0.56428 0.0
C1001 C 0.28736 0.41746 0.62203 0.0
C1002 C 0.35392 0.44518 0.63116 0.0
C1003 C 0.26648 0.40542 0.63568 0.0
C1004 C 0.44038 0.49695 0.57665 0.0
C1005 C 0.41831 0.48833 0.59063 0.0
C1006 C 0.34949 0.46486 0.58281 0.0
C1007 C 0.3069 0.4323 0.63503 0.0
C1008 C 0.32982 0.44416 0.62072 0.0
C1009 C 0.39683 0.47602 0.57807 0.0
C1010 C 0.37366 0.46561 0.59307 0.0
H1011 H 0.2827 0.42619 0.69624 0.0
H1012 H 0.31907 0.44686 0.67254 0.0
H1013 H 0.30967 0.45407 0.5879 0.0
H1014 H 0.42023 0.4789 0.51635 0.0
H1015 H 0.38206 0.4635 0.5406 0.0
C1016 C 0.77303 0.69749 0.8853 0.0
C1017 C 0.75963 0.71141 0.9008 0.0
C1018 C 0.78266 0.67885 0.89594 0.0
C1019 C 0.80567 0.66283 0.95795 0.0
H1020 H 0.8176 0.60747 0.91928 0.0
C1021 C 0.87618 0.60627 0.99318 0.0
C1022 C 0.89397 0.60255 0.97417 0.0
C1023 C 0.85411 0.61414 0.9863 0.0
C1024 C 0.81433 0.6228 0.93037 0.0
H1025 H 0.74431 0.71571 0.93919 0.0
H1026 H 0.76084 0.68281 0.95774 0.0
H1027 H 0.78761 0.6309 0.90324 0.0
H1028 H 0.9019 0.60262 0.93299 0.0
H1029 H 0.86368 0.6166 0.92101 0.0
H1030 H 0.83311 0.65534 0.9845 0.0
C1031 C 0.76421 0.68658 0.93743 0.0
C1032 C 0.79717 0.63622 0.92119 0.0
C1033 C 0.75454 0.70526 0.92675 0.0
C1034 C 0.88868 0.60567 0.94808 0.0
C1035 C 0.86662 0.61339 0.94121 0.0
C1036 C 0.82276 0.64939 0.96715 0.0
C1037 C 0.77908 0.67366 0.92233 0.0
C1038 C 0.79331 0.65685 0.93441 0.0
C1039 C 0.84935 0.61824 0.96026 0.0
C1040 C 0.82792 0.6297 0.953 0.0
H1041 H 0.77694 0.70163 0.86514 0.0
H1042 H 0.79417 0.66943 0.88376 0.0
H1043 H 0.80342 0.67876 0.96848 0.0
H1044 H 0.87979 0.60403 1.01344 0.0
H1045 H 0.84106 0.61756 1.00139 0.0
C1046 C 0.42258 0.80793 0.17595 0.0
C1047 C 0.40084 0.79355 0.16617 0.0
C1048 C 0.43116 0.83053 0.16606 0.0
C1049 C 0.42682 0.86795 0.10857 0.0
H1050 H 0.457 0.91846 0.15461 0.0
C1051 C 0.46255 0.96465 0.07352 0.0
C1052 C 0.48563 0.97592 0.08366 0.0
C1053 C 0.45036 0.94287 0.08341 0.0
C1054 C 0.44883 0.90454 0.14137 0.0
H1055 H 0.3712 0.79208 0.13804 0.0
H1056 H 0.38585 0.83156 0.12122 0.0
H1057 H 0.43948 0.88 0.17215 0.0
H1058 H 0.51384 0.97323 0.11229 0.0
H1059 H 0.49292 0.93569 0.12933 0.0
H1060 H 0.43637 0.89262 0.07775 0.0
C1061 C 0.39645 0.82524 0.13641 0.0
C1062 C 0.43877 0.88237 0.15148 0.0
C1063 C 0.38783 0.80264 0.14634 0.0
C1064 C 0.49604 0.9651 0.10404 0.0
C1065 C 0.48391 0.94354 0.11396 0.0
C1066 C 0.43688 0.8902 0.09843 0.0
C1067 C 0.41831 0.83954 0.14605 0.0
C1068 C 0.4279 0.86359 0.13524 0.0
C1069 C 0.46089 0.93202 0.10385 0.0
C1070 C 0.44838 0.90875 0.11465 0.0
H1071 H 0.43303 0.80176 0.19135 0.0
H1072 H 0.44821 0.84077 0.17387 0.0
H1073 H 0.41886 0.85395 0.09533 0.0
H1074 H 0.45389 0.97267 0.05807 0.0
H1075 H 0.43254 0.93468 0.07527 0.0
C1076 C 0.12394 0.25901 0.63284 0.0
C1077 C 0.12412 0.26104 0.65999 0.0
C1078 C 0.11383 0.23759 0.62053 0.0
C1079 C 0.09963 0.17317 0.63135 0.0
H1080 H 0.05678 0.17167 0.57172 0.0
C1081 C 0.04798 0.08467 0.58752 0.0
C1082 C 0.04399 0.083 0.56072 0.0
C1083 C 0.05789 0.10636 0.59934 0.0
C1084 C 0.06903 0.17168 0.58809 0.0
H1085 H 0.11383 0.24187 0.69538 0.0
H1086 H 0.09628 0.20462 0.67396 0.0
H1087 H 0.07354 0.20935 0.59253 0.0
H1088 H 0.04783 0.10297 0.52527 0.0
H1089 H 0.06579 0.1405 0.54561 0.0
H1090 H 0.09565 0.13567 0.62675 0.0
C1091 C 0.10396 0.21961 0.66217 0.0
C1092 C 0.07859 0.19338 0.60011 0.0
C1093 C 0.11379 0.24108 0.67446 0.0
C1094 C 0.05051 0.10356 0.54599 0.0
C1095 C 0.06067 0.12522 0.55775 0.0
C1096 C 0.09031 0.1515 0.6192 0.0
C1097 C 0.10393 0.21752 0.63503 0.0
C1098 C 0.09391 0.19443 0.62199 0.0
C1099 C 0.06438 0.12704 0.58468 0.0
C1100 C 0.07473 0.15034 0.59742 0.0
H1101 H 0.1316 0.27403 0.62107 0.0
H1102 H 0.11427 0.23662 0.59962 0.0
H1103 H 0.11169 0.17331 0.64791 0.0
H1104 H 0.04299 0.06928 0.59955 0.0
H1105 H 0.05997 0.10693 0.62012 0.0
C1106 C 0.69904 0.28356 0.51914 0.0
C1107 C 0.69469 0.27267 0.49472 0.0
C1108 C 0.67973 0.29219 0.53242 0.0
C1109 C 0.61095 0.29486 0.53009 0.0
H1110 H 0.63369 0.36049 0.54908 0.0
C1111 C 0.55824 0.369 0.50735 0.0
C1112 C 0.56007 0.38897 0.52366 0.0
C1113 C 0.57015 0.35024 0.51365 0.0
C1114 C 0.62693 0.34204 0.54458 0.0
H1115 H 0.66638 0.26127 0.46571 0.0
H1116 H 0.63305 0.27649 0.48849 0.0
H1117 H 0.66425 0.33464 0.54258 0.0
H1118 H 0.57398 0.40393 0.56057 0.0
H1119 H 0.59549 0.37134 0.57115 0.0
H1120 H 0.57371 0.30301 0.53008 0.0
C1121 C 0.65109 0.27799 0.4978 0.0
C1122 C 0.6445 0.32714 0.54087 0.0
C1123 C 0.67031 0.26931 0.48462 0.0
C1124 C 0.57274 0.38906 0.54726 0.0
C1125 C 0.58487 0.37035 0.55344 0.0
C1126 C 0.59338 0.30985 0.5336 0.0
C1127 C 0.65575 0.29021 0.52147 0.0
C1128 C 0.63683 0.30371 0.53227 0.0
C1129 C 0.58431 0.3511 0.53631 0.0
C1130 C 0.60137 0.33385 0.53964 0.0
H1131 H 0.71756 0.28602 0.5276 0.0
H1132 H 0.68383 0.30121 0.5508 0.0
H1133 H 0.60438 0.27674 0.52409 0.0
H1134 H 0.5489 0.3684 0.48891 0.0
H1135 H 0.56969 0.33582 0.49985 0.0
loop_
_geom_bond_atom_site_label_1
_geom_bond_atom_site_label_2
_geom_bond_distance
_geom_bond_site_symmetry_2
_ccdc_geom_bond_type
P0 O11 1.490 . S
P0 C14 1.812 . S
P0 C20 1.803 . S
P0 C26 1.819 . S
H1 C15 0.941 . S
H2 C16 0.939 . S
H3 C18 0.940 . S
H4 C19 0.940 . S
H5 C21 0.939 . S
H6 C22 0.942 . S
H7 C24 0.940 . S
H8 C25 0.939 . S
H9 C27 0.941 . S
H10 C31 0.939 . S
O11 P0 1.490 . S
H12 C28 0.939 . S
H13 C30 0.940 . S
C14 P0 1.812 . S
C14 C15 1.389 . S
C14 C19 1.391 . S
C15 H1 0.941 . S
C15 C14 1.389 . S
C15 C16 1.397 . S
C16 H2 0.939 . S
C16 C15 1.397 . S
C16 C17 1.378 . S
C17 C16 1.378 . S
C17 C18 1.378 . S
C18 H3 0.940 . S
C18 C17 1.378 . S
C18 C19 1.396 . S
C19 H4 0.940 . S
C19 C14 1.391 . S
C19 C18 1.396 . S
C20 P0 1.803 . S
C20 C21 1.378 . S
C20 C25 1.400 . S
C21 H5 0.939 . S
C21 C20 1.378 . S
C21 C22 1.361 . S
C22 H6 0.942 . S
C22 C21 1.361 . S
C22 C23 1.369 . S
C23 C22 1.369 . S
C23 C24 1.404 . S
C24 H7 0.940 . S
C24 C23 1.404 . S
C24 C25 1.389 . S
C25 H8 0.939 . S
C25 C20 1.400 . S
C25 C24 1.389 . S
C26 P0 1.819 . S
C26 C27 1.391 . S
C26 C31 1.391 . S
C27 H9 0.941 . S
C27 C26 1.391 . S
C27 C28 1.396 . S
C28 H12 0.939 . S
C28 C27 1.396 . S
C28 C29 1.397 . S
C29 C28 1.397 . S
C29 C30 1.385 . S
C30 H13 0.940 . S
C30 C29 1.385 . S
C30 C31 1.388 . S
C31 H10 0.939 . S
C31 C26 1.391 . S
C31 C30 1.388 . S
P32 O43 1.490 . S
P32 C46 1.812 . S
P32 C52 1.803 . S
P32 C58 1.819 . S
H33 C47 0.941 . S
H34 C48 0.939 . S
H35 C50 0.940 . S
H36 C51 0.940 . S
H37 C53 0.939 . S
H38 C54 0.942 . S
H39 C56 0.940 . S
H40 C57 0.939 . S
H41 C59 0.941 . S
H42 C63 0.939 . S
O43 P32 1.490 . S
H44 C60 0.939 . S
H45 C62 0.940 . S
C46 P32 1.812 . S
C46 C47 1.389 . S
C46 C51 1.391 . S
C47 H33 0.941 . S
C47 C46 1.389 . S
C47 C48 1.397 . S
C48 H34 0.939 . S
C48 C47 1.397 . S
C48 C49 1.378 . S
C49 C48 1.378 . S
C49 C50 1.378 . S
C50 H35 0.940 . S
C50 C49 1.378 . S
C50 C51 1.396 . S
C51 H36 0.940 . S
C51 C46 1.391 . S
C51 C50 1.396 . S
C52 P32 1.803 . S
C52 C53 1.378 . S
C52 C57 1.400 . S
C53 H37 0.939 . S
C53 C52 1.378 . S
C53 C54 1.361 . S
C54 H38 0.942 . S
C54 C53 1.361 . S
C54 C55 1.369 . S
C55 C54 1.369 . S
C55 C56 1.404 . S
C56 H39 0.940 . S
C56 C55 1.404 . S
C56 C57 1.389 . S
C57 H40 0.939 . S
C57 C52 1.400 . S
C57 C56 1.389 . S
C58 P32 1.819 . S
C58 C59 1.391 . S
C58 C63 1.391 . S
C59 H41 0.941 . S
C59 C58 1.391 . S
C59 C60 1.396 . S
C60 H44 0.939 . S
C60 C59 1.396 . S
C60 C61 1.397 . S
C61 C60 1.397 . S
C61 C62 1.385 . S
C62 H45 0.940 . S
C62 C61 1.385 . S
C62 C63 1.388 . S
C63 H42 0.939 . S
C63 C58 1.391 . S
C63 C62 1.388 . S
P64 O75 1.490 . S
P64 C78 1.812 . S
P64 C84 1.803 . S
P64 C90 1.819 . S
H65 C79 0.941 . S
H66 C80 0.939 . S
H67 C82 0.940 . S
H68 C83 0.940 . S
H69 C85 0.939 . S
H70 C86 0.942 . S
H71 C88 0.940 . S
H72 C89 0.939 . S
H73 C91 0.941 . S
H74 C95 0.939 . S
O75 P64 1.490 . S
H76 C92 0.939 . S
H77 C94 0.940 . S
C78 P64 1.812 . S
C78 C79 1.389 . S
C78 C83 1.391 . S
C79 H65 0.941 . S
C79 C78 1.389 . S
C79 C80 1.397 . S
C80 H66 0.939 . S
C80 C79 1.397 . S
C80 C81 1.378 . S
C81 C80 1.378 . S
C81 C82 1.378 . S
C82 H67 0.940 . S
C82 C81 1.378 . S
C82 C83 1.396 . S
C83 H68 0.940 . S
C83 C78 1.391 . S
C83 C82 1.396 . S
C84 P64 1.803 . S
C84 C85 1.378 . S
C84 C89 1.400 . S
C85 H69 0.939 . S
C85 C84 1.378 . S
C85 C86 1.361 . S
C86 H70 0.942 . S
C86 C85 1.361 . S
C86 C87 1.369 . S
C87 C86 1.369 . S
C87 C88 1.404 . S
C88 H71 0.940 . S
C88 C87 1.404 . S
C88 C89 1.389 . S
C89 H72 0.939 . S
C89 C84 1.400 . S
C89 C88 1.389 . S
C90 P64 1.819 . S
C90 C91 1.391 . S
C90 C95 1.391 . S
C91 H73 0.941 . S
C91 C90 1.391 . S
C91 C92 1.396 . S
C92 H76 0.939 . S
C92 C91 1.396 . S
C92 C93 1.397 . S
C93 C92 1.397 . S
C93 C94 1.385 . S
C94 H77 0.940 . S
C94 C93 1.385 . S
C94 C95 1.388 . S
C95 H74 0.939 . S
C95 C90 1.391 . S
C95 C94 1.388 . S
P96 O107 1.490 . S
P96 C110 1.812 . S
P96 C116 1.803 . S
P96 C122 1.819 . S
H97 C111 0.941 . S
H98 C112 0.939 . S
H99 C114 0.940 . S
H100 C115 0.940 . S
H101 C117 0.939 . S
H102 C118 0.942 . S
H103 C120 0.940 . S
H104 C121 0.939 . S
H105 C123 0.941 . S
H106 C127 0.939 . S
O107 P96 1.490 . S
H108 C124 0.939 . S
H109 C126 0.940 . S
C110 P96 1.812 . S
C110 C111 1.389 . S
C110 C115 1.391 . S
C111 H97 0.941 . S
C111 C110 1.389 . S
C111 C112 1.397 . S
C112 H98 0.939 . S
C112 C111 1.397 . S
C112 C113 1.378 . S
C113 C112 1.378 . S
C113 C114 1.378 . S
C114 H99 0.940 . S
C114 C113 1.378 . S
C114 C115 1.396 . S
C115 H100 0.940 . S
C115 C110 1.391 . S
C115 C114 1.396 . S
C116 P96 1.803 . S
C116 C117 1.378 . S
C116 C121 1.400 . S
C117 H101 0.939 . S
C117 C116 1.378 . S
C117 C118 1.361 . S
C118 H102 0.942 . S
C118 C117 1.361 . S
C118 C119 1.369 . S
C119 C118 1.369 . S
C119 C120 1.404 . S
C120 H103 0.940 . S
C120 C119 1.404 . S
C120 C121 1.389 . S
C121 H104 0.939 . S
C121 C116 1.400 . S
C121 C120 1.389 . S
C122 P96 1.819 . S
C122 C123 1.391 . S
C122 C127 1.391 . S
C123 H105 0.941 . S
C123 C122 1.391 . S
C123 C124 1.396 . S
C124 H108 0.939 . S
C124 C123 1.396 . S
C124 C125 1.397 . S
C125 C124 1.397 . S
C125 C126 1.385 . S
C126 H109 0.940 . S
C126 C125 1.385 . S
C126 C127 1.388 . S
C127 H106 0.939 . S
C127 C122 1.391 . S
C127 C126 1.388 . S
P128 O139 1.490 . S
P128 C142 1.812 . S
P128 C148 1.803 . S
P128 C154 1.819 . S
H129 C143 0.941 . S
H130 C144 0.939 . S
H131 C146 0.940 . S
H132 C147 0.940 . S
H133 C149 0.939 . S
H134 C150 0.942 . S
H135 C152 0.940 . S
H136 C153 0.939 . S
H137 C155 0.941 . S
H138 C159 0.939 . S
O139 P128 1.490 . S
H140 C156 0.939 . S
H141 C158 0.940 . S
C142 P128 1.812 . S
C142 C143 1.389 . S
C142 C147 1.391 . S
C143 H129 0.941 . S
C143 C142 1.389 . S
C143 C144 1.397 . S
C144 H130 0.939 . S
C144 C143 1.397 . S
C144 C145 1.378 . S
C145 C144 1.378 . S
C145 C146 1.378 . S
C146 H131 0.940 . S
C146 C145 1.378 . S
C146 C147 1.396 . S
C147 H132 0.940 . S
C147 C142 1.391 . S
C147 C146 1.396 . S
C148 P128 1.803 . S
C148 C149 1.378 . S
C148 C153 1.400 . S
C149 H133 0.939 . S
C149 C148 1.378 . S
C149 C150 1.361 . S
C150 H134 0.942 . S
C150 C149 1.361 . S
C150 C151 1.369 . S
C151 C150 1.369 . S
C151 C152 1.404 . S
C152 H135 0.940 . S
C152 C151 1.404 . S
C152 C153 1.389 . S
C153 H136 0.939 . S
C153 C148 1.400 . S
C153 C152 1.389 . S
C154 P128 1.819 . S
C154 C155 1.391 . S
C154 C159 1.391 . S
C155 H137 0.941 . S
C155 C154 1.391 . S
C155 C156 1.396 . S
C156 H140 0.939 . S
C156 C155 1.396 . S
C156 C157 1.397 . S
C157 C156 1.397 . S
C157 C158 1.385 . S
C158 H141 0.940 . S
C158 C157 1.385 . S
C158 C159 1.388 . S
C159 H138 0.939 . S
C159 C154 1.391 . S
C159 C158 1.388 . S
P160 O171 1.490 . S
P160 C174 1.812 . S
P160 C180 1.803 . S
P160 C186 1.819 . S
H161 C175 0.941 . S
H162 C176 0.939 . S
H163 C178 0.940 . S
H164 C179 0.940 . S
H165 C181 0.939 . S
H166 C182 0.942 . S
H167 C184 0.940 . S
H168 C185 0.939 . S
H169 C187 0.941 . S
H170 C191 0.939 . S
O171 P160 1.490 . S
H172 C188 0.939 . S
H173 C190 0.940 . S
C174 P160 1.812 . S
C174 C175 1.389 . S
C174 C179 1.391 . S
C175 H161 0.941 . S
C175 C174 1.389 . S
C175 C176 1.397 . S
C176 H162 0.939 . S
C176 C175 1.397 . S
C176 C177 1.378 . S
C177 C176 1.378 . S
C177 C178 1.378 . S
C178 H163 0.940 . S
C178 C177 1.378 . S
C178 C179 1.396 . S
C179 H164 0.940 . S
C179 C174 1.391 . S
C179 C178 1.396 . S
C180 P160 1.803 . S
C180 C181 1.378 . S
C180 C185 1.400 . S
C181 H165 0.939 . S
C181 C180 1.378 . S
C181 C182 1.361 . S
C182 H166 0.942 . S
C182 C181 1.361 . S
C182 C183 1.369 . S
C183 C182 1.369 . S
C183 C184 1.404 . S
C184 H167 0.940 . S
C184 C183 1.404 . S
C184 C185 1.389 . S
C185 H168 0.939 . S
C185 C180 1.400 . S
C185 C184 1.389 . S
C186 P160 1.819 . S
C186 C187 1.391 . S
C186 C191 1.391 . S
C187 H169 0.941 . S
C187 C186 1.391 . S
C187 C188 1.396 . S
C188 H172 0.939 . S
C188 C187 1.396 . S
C188 C189 1.397 . S
C189 C188 1.397 . S
C189 C190 1.385 . S
C190 H173 0.940 . S
C190 C189 1.385 . S
C190 C191 1.388 . S
C191 H170 0.939 . S
C191 C186 1.391 . S
C191 C190 1.388 . S
P192 O203 1.490 . S
P192 C206 1.812 . S
P192 C212 1.803 . S
P192 C218 1.819 . S
H193 C207 0.941 . S
H194 C208 0.939 . S
H195 C210 0.940 . S
H196 C211 0.940 . S
H197 C213 0.939 . S
H198 C214 0.942 . S
H199 C216 0.940 . S
H200 C217 0.939 . S
H201 C219 0.941 . S
H202 C223 0.939 . S
O203 P192 1.490 . S
H204 C220 0.939 . S
H205 C222 0.940 . S
C206 P192 1.812 . S
C206 C207 1.389 . S
C206 C211 1.391 . S
C207 H193 0.941 . S
C207 C206 1.389 . S
C207 C208 1.397 . S
C208 H194 0.939 . S
C208 C207 1.397 . S
C208 C209 1.378 . S
C209 C208 1.378 . S
C209 C210 1.378 . S
C210 H195 0.940 . S
C210 C209 1.378 . S
C210 C211 1.396 . S
C211 H196 0.940 . S
C211 C206 1.391 . S
C211 C210 1.396 . S
C212 P192 1.803 . S
C212 C213 1.378 . S
C212 C217 1.400 . S
C213 H197 0.939 . S
C213 C212 1.378 . S
C213 C214 1.361 . S
C214 H198 0.942 . S
C214 C213 1.361 . S
C214 C215 1.369 . S
C215 C214 1.369 . S
C215 C216 1.404 . S
C216 H199 0.940 . S
C216 C215 1.404 . S
C216 C217 1.389 . S
C217 H200 0.939 . S
C217 C212 1.400 . S
C217 C216 1.389 . S
C218 P192 1.819 . S
C218 C219 1.391 . S
C218 C223 1.391 . S
C219 H201 0.941 . S
C219 C218 1.391 . S
C219 C220 1.396 . S
C220 H204 0.939 . S
C220 C219 1.396 . S
C220 C221 1.397 . S
C221 C220 1.397 . S
C221 C222 1.385 . S
C222 H205 0.940 . S
C222 C221 1.385 . S
C222 C223 1.388 . S
C223 H202 0.939 . S
C223 C218 1.391 . S
C223 C222 1.388 . S
P224 O235 1.490 . S
P224 C238 1.812 . S
P224 C244 1.803 . S
P224 C250 1.819 . S
H225 C239 0.941 . S
H226 C240 0.939 . S
H227 C242 0.940 . S
H228 C243 0.940 . S
H229 C245 0.939 . S
H230 C246 0.942 . S
H231 C248 0.940 . S
H232 C249 0.939 . S
H233 C251 0.941 . S
H234 C255 0.939 . S
O235 P224 1.490 . S
H236 C252 0.939 . S
H237 C254 0.940 . S
C238 P224 1.812 . S
C238 C239 1.389 . S
C238 C243 1.391 . S
C239 H225 0.941 . S
C239 C238 1.389 . S
C239 C240 1.397 . S
C240 H226 0.939 . S
C240 C239 1.397 . S
C240 C241 1.378 . S
C241 C240 1.378 . S
C241 C242 1.378 . S
C242 H227 0.940 . S
C242 C241 1.378 . S
C242 C243 1.396 . S
C243 H228 0.940 . S
C243 C238 1.391 . S
C243 C242 1.396 . S
C244 P224 1.803 . S
C244 C245 1.378 . S
C244 C249 1.400 . S
C245 H229 0.939 . S
C245 C244 1.378 . S
C245 C246 1.361 . S
C246 H230 0.942 . S
C246 C245 1.361 . S
C246 C247 1.369 . S
C247 C246 1.369 . S
C247 C248 1.404 . S
C248 H231 0.940 . S
C248 C247 1.404 . S
C248 C249 1.389 . S
C249 H232 0.939 . S
C249 C244 1.400 . S
C249 C248 1.389 . S
C250 P224 1.819 . S
C250 C251 1.391 . S
C250 C255 1.391 . S
C251 H233 0.941 . S
C251 C250 1.391 . S
C251 C252 1.396 . S
C252 H236 0.939 . S
C252 C251 1.396 . S
C252 C253 1.397 . S
C253 C252 1.397 . S
C253 C254 1.385 . S
C254 H237 0.940 . S
C254 C253 1.385 . S
C254 C255 1.388 . S
C255 H234 0.939 . S
C255 C250 1.391 . S
C255 C254 1.388 . S
La256 C258 2.928 . S
La256 O276 2.521 . S
La256 O277 2.628 . S
La256 O278 2.554 1_545 S
La256 O279 2.757 1_545 S
La256 O280 2.470 . S
La256 O285 2.482 1_455 S
La256 O287 2.503 1_445 S
La257 C267 2.927 . S
La257 O279 2.481 1_655 S
La257 O281 2.504 1_665 S
La257 O282 2.520 . S
La257 O283 2.626 . S
La257 O284 2.554 1_565 S
La257 O285 2.757 1_565 S
La257 O286 2.469 . S
C258 La256 2.928 . S
C258 C259 1.503 . S
C258 O276 1.261 . S
C258 O277 1.243 . S
C259 C258 1.503 . S
C259 C260 1.394 . S
C259 C264 1.373 . S
C260 C259 1.394 . S
C260 C261 1.380 . S
C260 H288 0.930 . S
C261 C260 1.380 . S
C261 C262 1.376 . S
C261 H289 0.930 . S
C262 C261 1.376 . S
C262 C263 1.370 . S
C263 C262 1.370 . S
C263 C264 1.396 . S
C263 H290 0.929 . S
C264 C259 1.373 . S
C264 C263 1.396 . S
C264 H291 0.929 . S
C265 O278 1.240 . S
C265 O279 1.289 . S
C266 O280 1.258 . S
C266 O281 1.256 . S
C267 La257 2.927 . S
C267 C268 1.503 . S
C267 O282 1.261 . S
C267 O283 1.243 . S
C268 C267 1.503 . S
C268 C269 1.394 . S
C268 C273 1.373 . S
C269 C268 1.394 . S
C269 C270 1.380 . S
C269 H292 0.930 . S
C270 C269 1.380 . S
C270 C271 1.376 . S
C270 H293 0.930 . S
C271 C270 1.376 . S
C271 C272 1.370 . S
C272 C271 1.370 . S
C272 C273 1.396 . S
C272 H294 0.929 . S
C273 C268 1.373 . S
C273 C272 1.396 . S
C273 H295 0.929 . S
C274 O284 1.240 . S
C274 O285 1.289 . S
C275 O286 1.258 . S
C275 O287 1.256 . S
O276 La256 2.521 . S
O276 C258 1.261 . S
O277 La256 2.628 . S
O277 C258 1.243 . S
O278 La256 2.554 1_565 S
O278 C265 1.240 . S
O279 La256 2.757 1_565 S
O279 La257 2.481 1_455 S
O279 C265 1.289 . S
O280 La256 2.470 . S
O280 C266 1.258 . S
O281 La257 2.504 1_445 S
O281 C266 1.256 . S
O282 La257 2.520 . S
O282 C267 1.261 . S
O283 La257 2.626 . S
O283 C267 1.243 . S
O284 La257 2.554 1_545 S
O284 C274 1.240 . S
O285 La256 2.482 1_655 S
O285 La257 2.757 1_545 S
O285 C274 1.289 . S
O286 La257 2.469 . S
O286 C275 1.258 . S
O287 La256 2.503 1_665 S
O287 C275 1.256 . S
H288 C260 0.930 . S
H289 C261 0.930 . S
H290 C263 0.929 . S
H291 C264 0.929 . S
H292 C269 0.930 . S
H293 C270 0.930 . S
H294 C272 0.929 . S
H295 C273 0.929 . S
La296 C298 2.928 . S
La296 O316 2.521 . S
La296 O317 2.628 . S
La296 O318 2.554 1_545 S
La296 O319 2.757 1_545 S
La296 O320 2.470 . S
La296 O325 2.482 . S
La296 O327 2.503 1_544 S
La297 C307 2.928 1_545 S
La297 O319 2.482 1_546 S
La297 O321 2.503 1_556 S
La297 O322 2.521 . S
La297 O323 2.628 1_545 S
La297 O324 2.554 . S
La297 O325 2.757 1_556 S
La297 O326 2.470 1_545 S
C298 La296 2.928 . S
C298 C299 1.503 . S
C298 O316 1.261 . S
C298 O317 1.243 . S
C299 C298 1.503 . S
C299 C300 1.394 . S
C299 C304 1.373 . S
C300 C299 1.394 . S
C300 C301 1.380 . S
C300 H328 0.930 . S
C301 C300 1.380 . S
C301 C302 1.376 . S
C301 H329 0.930 . S
C302 C301 1.376 . S
C302 C303 1.370 . S
C303 C302 1.370 . S
C303 C304 1.396 . S
C303 H330 0.929 . S
C304 C299 1.373 . S
C304 C303 1.396 . S
C304 H331 0.929 . S
C305 O318 1.240 . S
C305 O319 1.289 . S
C306 O320 1.258 . S
C306 O321 1.256 . S
C307 La297 2.928 1_565 S
C307 C308 1.503 . S
C307 O322 1.261 1_565 S
C307 O323 1.243 . S
C308 C307 1.503 . S
C308 C309 1.394 . S
C308 C313 1.373 . S
C309 C308 1.394 . S
C309 C310 1.380 . S
C309 H332 0.930 . S
C310 C309 1.380 . S
C310 C311 1.376 . S
C310 H333 0.930 . S
C311 C310 1.376 . S
C311 C312 1.370 . S
C312 C311 1.370 . S
C312 C313 1.396 . S
C312 H334 0.929 . S
C313 C308 1.373 . S
C313 C312 1.396 . S
C313 H335 0.929 . S
C314 O324 1.240 . S
C314 O325 1.289 1_556 S
C315 O326 1.258 . S
C315 O327 1.256 . S
O316 La296 2.521 . S
O316 C298 1.261 . S
O317 La296 2.628 . S
O317 C298 1.243 . S
O318 La296 2.554 1_565 S
O318 C305 1.240 . S
O319 La296 2.757 1_565 S
O319 La297 2.482 1_564 S
O319 C305 1.289 . S
O320 La296 2.470 . S
O320 C306 1.258 . S
O321 La297 2.503 1_554 S
O321 C306 1.256 . S
O322 La297 2.521 . S
O322 C307 1.261 1_545 S
O323 La297 2.628 1_565 S
O323 C307 1.243 . S
O324 La297 2.554 . S
O324 C314 1.240 . S
O325 La296 2.482 . S
O325 La297 2.757 1_554 S
O325 C314 1.289 1_554 S
O326 La297 2.470 1_565 S
O326 C315 1.258 . S
O327 La296 2.503 1_566 S
O327 C315 1.256 . S
H328 C300 0.930 . S
H329 C301 0.930 . S
H330 C303 0.929 . S
H331 C304 0.929 . S
H332 C309 0.930 . S
H333 C310 0.930 . S
H334 C312 0.929 . S
H335 C313 0.929 . S
La336 C338 2.928 . S
La336 O356 2.521 . S
La336 O357 2.628 . S
La336 O358 2.554 . S
La336 O359 2.757 . S
La336 O360 2.470 . S
La336 O365 2.482 . S
La336 O367 2.503 . S
La337 C347 2.928 . S
La337 O359 2.482 . S
La337 O361 2.503 . S
La337 O362 2.521 . S
La337 O363 2.628 . S
La337 O364 2.554 . S
La337 O365 2.757 . S
La337 O366 2.470 . S
C338 La336 2.928 . S
C338 C339 1.503 . S
C338 O356 1.261 . S
C338 O357 1.243 . S
C339 C338 1.503 . S
C339 C340 1.394 . S
C339 C344 1.373 . S
C340 C339 1.394 . S
C340 C341 1.380 . S
C340 H368 0.930 . S
C341 C340 1.380 . S
C341 C342 1.376 . S
C341 H369 0.930 . S
C342 C341 1.376 . S
C342 C343 1.370 . S
C343 C342 1.370 . S
C343 C344 1.396 . S
C343 H370 0.929 . S
C344 C339 1.373 . S
C344 C343 1.396 . S
C344 H371 0.929 . S
C345 O358 1.240 . S
C345 O359 1.289 . S
C346 O360 1.258 . S
C346 O361 1.256 . S
C347 La337 2.928 . S
C347 C348 1.503 . S
C347 O362 1.261 . S
C347 O363 1.243 . S
C348 C347 1.503 . S
C348 C349 1.394 . S
C348 C353 1.373 . S
C349 C348 1.394 . S
C349 C350 1.380 . S
C349 H372 0.930 . S
C350 C349 1.380 . S
C350 C351 1.376 . S
C350 H373 0.930 . S
C351 C350 1.376 . S
C351 C352 1.370 . S
C352 C351 1.370 . S
C352 C353 1.396 . S
C352 H374 0.929 . S
C353 C348 1.373 . S
C353 C352 1.396 . S
C353 H375 0.929 . S
C354 O364 1.240 . S
C354 O365 1.289 . S
C355 O366 1.258 . S
C355 O367 1.256 . S
O356 La336 2.521 . S
O356 C338 1.261 . S
O357 La336 2.628 . S
O357 C338 1.243 . S
O358 La336 2.554 . S
O358 C345 1.240 . S
O359 La336 2.757 . S
O359 La337 2.482 . S
O359 C345 1.289 . S
O360 La336 2.470 . S
O360 C346 1.258 . S
O361 La337 2.503 . S
O361 C346 1.256 . S
O362 La337 2.521 . S
O362 C347 1.261 . S
O363 La337 2.628 . S
O363 C347 1.243 . S
O364 La337 2.554 . S
O364 C354 1.240 . S
O365 La336 2.482 . S
O365 La337 2.757 . S
O365 C354 1.289 . S
O366 La337 2.470 . S
O366 C355 1.258 . S
O367 La336 2.503 . S
O367 C355 1.256 . S
H368 C340 0.930 . S
H369 C341 0.930 . S
H370 C343 0.929 . S
H371 C344 0.929 . S
H372 C349 0.930 . S
H373 C350 0.930 . S
H374 C352 0.929 . S
H375 C353 0.929 . S
La376 C378 2.928 . S
La376 O396 2.521 . S
La376 O397 2.628 . S
La376 O398 2.554 1_455 S
La376 O399 2.757 1_455 S
La376 O400 2.470 . S
La376 O405 2.482 1_554 S
La376 O407 2.503 1_454 S
La377 C387 2.928 . S
La377 O399 2.482 1_556 S
La377 O401 2.503 1_656 S
La377 O402 2.521 . S
La377 O403 2.628 . S
La377 O404 2.554 1_655 S
La377 O405 2.757 1_655 S
La377 O406 2.470 . S
C378 La376 2.928 . S
C378 C379 1.503 . S
C378 O396 1.261 . S
C378 O397 1.243 . S
C379 C378 1.503 . S
C379 C380 1.394 . S
C379 C384 1.373 . S
C380 C379 1.394 . S
C380 C381 1.380 . S
C380 H408 0.930 . S
C381 C380 1.380 . S
C381 C382 1.376 . S
C381 H409 0.930 . S
C382 C381 1.376 . S
C382 C383 1.370 . S
C383 C382 1.370 . S
C383 C384 1.396 . S
C383 H410 0.929 . S
C384 C379 1.373 . S
C384 C383 1.396 . S
C384 H411 0.929 . S
C385 O398 1.240 . S
C385 O399 1.289 . S
C386 O400 1.258 . S
C386 O401 1.256 . S
C387 La377 2.928 . S
C387 C388 1.503 . S
C387 O402 1.261 . S
C387 O403 1.243 . S
C388 C387 1.503 . S
C388 C389 1.394 . S
C388 C393 1.373 . S
C389 C388 1.394 . S
C389 C390 1.380 . S
C389 H412 0.930 . S
C390 C389 1.380 . S
C390 C391 1.376 . S
C390 H413 0.930 . S
C391 C390 1.376 . S
C391 C392 1.370 . S
C392 C391 1.370 . S
C392 C393 1.396 . S
C392 H414 0.929 . S
C393 C388 1.373 . S
C393 C392 1.396 . S
C393 H415 0.929 . S
C394 O404 1.240 . S
C394 O405 1.289 . S
C395 O406 1.258 . S
C395 O407 1.256 . S
O396 La376 2.521 . S
O396 C378 1.261 . S
O397 La376 2.628 . S
O397 C378 1.243 . S
O398 La376 2.554 1_655 S
O398 C385 1.240 . S
O399 La376 2.757 1_655 S
O399 La377 2.482 1_554 S
O399 C385 1.289 . S
O400 La376 2.470 . S
O400 C386 1.258 . S
O401 La377 2.503 1_454 S
O401 C386 1.256 . S
O402 La377 2.521 . S
O402 C387 1.261 . S
O403 La377 2.628 . S
O403 C387 1.243 . S
O404 La377 2.554 1_455 S
O404 C394 1.240 . S
O405 La376 2.482 1_556 S
O405 La377 2.757 1_455 S
O405 C394 1.289 . S
O406 La377 2.470 . S
O406 C395 1.258 . S
O407 La376 2.503 1_656 S
O407 C395 1.256 . S
H408 C380 0.930 . S
H409 C381 0.930 . S
H410 C383 0.929 . S
H411 C384 0.929 . S
H412 C389 0.930 . S
H413 C390 0.930 . S
H414 C392 0.929 . S
H415 C393 0.929 . S
C416 C417 1.349 . S
C416 C418 1.327 . S
C416 H441 0.950 . S
C417 C416 1.349 . S
C417 C433 1.349 . S
C418 C416 1.327 . S
C418 C437 1.429 . S
C418 H442 0.950 . S
C419 C436 1.574 . S
C419 C438 1.368 . S
C419 H443 0.949 . S
H420 C424 0.949 . S
C421 C422 1.349 . S
C421 C423 1.327 . S
C421 H444 0.950 . S
C422 C421 1.349 . S
C422 C434 1.349 . S
C423 C421 1.327 . S
C423 C439 1.429 . S
C423 H445 0.950 . S
C424 H420 0.949 . S
C424 C432 1.574 . S
C424 C440 1.368 . S
H425 C433 0.950 . S
H426 C431 0.950 . S
H427 C432 0.949 . S
H428 C434 0.950 . S
H429 C435 0.950 . S
H430 C436 0.949 . S
C431 H426 0.950 . S
C431 C433 1.327 . S
C431 C437 1.429 . S
C432 C424 1.574 . S
C432 H427 0.949 . S
C432 C438 1.368 . S
C433 C417 1.349 . S
C433 H425 0.950 . S
C433 C431 1.327 . S
C434 C422 1.349 . S
C434 H428 0.950 . S
C434 C435 1.327 . S
C435 H429 0.950 . S
C435 C434 1.327 . S
C435 C439 1.429 . S
C436 C419 1.574 . S
C436 H430 0.949 . S
C436 C440 1.368 . S
C437 C418 1.429 . S
C437 C431 1.429 . S
C437 C438 1.523 . S
C438 C419 1.368 . S
C438 C432 1.368 . S
C438 C437 1.523 . S
C439 C423 1.429 . S
C439 C435 1.429 . S
C439 C440 1.523 . S
C440 C424 1.368 . S
C440 C436 1.368 . S
C440 C439 1.523 . S
H441 C416 0.950 . S
H442 C418 0.950 . S
H443 C419 0.949 . S
H444 C421 0.950 . S
H445 C423 0.950 . S
C446 C447 1.349 . S
C446 C448 1.327 . S
C446 H471 0.950 . S
C447 C446 1.349 . S
C447 C463 1.349 . S
C448 C446 1.327 . S
C448 C467 1.429 . S
C448 H472 0.950 . S
C449 C466 1.574 . S
C449 C468 1.368 . S
C449 H473 0.949 . S
H450 C454 0.949 . S
C451 C452 1.349 . S
C451 C453 1.327 . S
C451 H474 0.950 . S
C452 C451 1.349 . S
C452 C464 1.349 . S
C453 C451 1.327 . S
C453 C469 1.429 . S
C453 H475 0.950 . S
C454 H450 0.949 . S
C454 C462 1.574 . S
C454 C470 1.368 . S
H455 C463 0.950 . S
H456 C461 0.950 . S
H457 C462 0.949 . S
H458 C464 0.950 . S
H459 C465 0.950 . S
H460 C466 0.949 . S
C461 H456 0.950 . S
C461 C463 1.327 . S
C461 C467 1.429 . S
C462 C454 1.574 . S
C462 H457 0.949 . S
C462 C468 1.368 . S
C463 C447 1.349 . S
C463 H455 0.950 . S
C463 C461 1.327 . S
C464 C452 1.349 . S
C464 H458 0.950 . S
C464 C465 1.327 . S
C465 H459 0.950 . S
C465 C464 1.327 . S
C465 C469 1.429 . S
C466 C449 1.574 . S
C466 H460 0.949 . S
C466 C470 1.368 . S
C467 C448 1.429 . S
C467 C461 1.429 . S
C467 C468 1.523 . S
C468 C449 1.368 . S
C468 C462 1.368 . S
C468 C467 1.523 . S
C469 C453 1.429 . S
C469 C465 1.429 . S
C469 C470 1.523 . S
C470 C454 1.368 . S
C470 C466 1.368 . S
C470 C469 1.523 . S
H471 C446 0.950 . S
H472 C448 0.950 . S
H473 C449 0.949 . S
H474 C451 0.950 . S
H475 C453 0.950 . S
C476 C477 1.349 . S
C476 C478 1.327 . S
C476 H501 0.950 . S
C477 C476 1.349 . S
C477 C493 1.349 . S
C478 C476 1.327 . S
C478 C497 1.429 . S
C478 H502 0.950 . S
C479 C496 1.574 . S
C479 C498 1.368 . S
C479 H503 0.949 . S
H480 C484 0.949 . S
C481 C482 1.349 . S
C481 C483 1.327 . S
C481 H504 0.950 . S
C482 C481 1.349 . S
C482 C494 1.349 . S
C483 C481 1.327 . S
C483 C499 1.429 . S
C483 H505 0.950 . S
C484 H480 0.949 . S
C484 C492 1.574 . S
C484 C500 1.368 . S
H485 C493 0.950 . S
H486 C491 0.950 . S
H487 C492 0.949 . S
H488 C494 0.950 . S
H489 C495 0.950 . S
H490 C496 0.949 . S
C491 H486 0.950 . S
C491 C493 1.327 . S
C491 C497 1.429 . S
C492 C484 1.574 . S
C492 H487 0.949 . S
C492 C498 1.368 . S
C493 C477 1.349 . S
C493 H485 0.950 . S
C493 C491 1.327 . S
C494 C482 1.349 . S
C494 H488 0.950 . S
C494 C495 1.327 . S
C495 H489 0.950 . S
C495 C494 1.327 . S
C495 C499 1.429 . S
C496 C479 1.574 . S
C496 H490 0.949 . S
C496 C500 1.368 . S
C497 C478 1.429 . S
C497 C491 1.429 . S
C497 C498 1.523 . S
C498 C479 1.368 . S
C498 C492 1.368 . S
C498 C497 1.523 . S
C499 C483 1.429 . S
C499 C495 1.429 . S
C499 C500 1.523 . S
C500 C484 1.368 . S
C500 C496 1.368 . S
C500 C499 1.523 . S
H501 C476 0.950 . S
H502 C478 0.950 . S
H503 C479 0.949 . S
H504 C481 0.950 . S
H505 C483 0.950 . S
C506 C507 1.349 . S
C506 C508 1.327 . S
C506 H531 0.950 . S
C507 C506 1.349 . S
C507 C523 1.349 . S
C508 C506 1.327 . S
C508 C527 1.429 . S
C508 H532 0.950 . S
C509 C526 1.574 . S
C509 C528 1.368 . S
C509 H533 0.949 . S
H510 C514 0.949 . S
C511 C512 1.349 . S
C511 C513 1.327 . S
C511 H534 0.950 . S
C512 C511 1.349 . S
C512 C524 1.349 . S
C513 C511 1.327 . S
C513 C529 1.429 . S
C513 H535 0.950 . S
C514 H510 0.949 . S
C514 C522 1.574 . S
C514 C530 1.368 . S
H515 C523 0.950 . S
H516 C521 0.950 . S
H517 C522 0.949 . S
H518 C524 0.950 . S
H519 C525 0.950 . S
H520 C526 0.949 . S
C521 H516 0.950 . S
C521 C523 1.327 . S
C521 C527 1.429 . S
C522 C514 1.574 . S
C522 H517 0.949 . S
C522 C528 1.368 . S
C523 C507 1.349 . S
C523 H515 0.950 . S
C523 C521 1.327 . S
C524 C512 1.349 . S
C524 H518 0.950 . S
C524 C525 1.327 . S
C525 H519 0.950 . S
C525 C524 1.327 . S
C525 C529 1.429 . S
C526 C509 1.574 . S
C526 H520 0.949 . S
C526 C530 1.368 . S
C527 C508 1.429 . S
C527 C521 1.429 . S
C527 C528 1.523 . S
C528 C509 1.368 . S
C528 C522 1.368 . S
C528 C527 1.523 . S
C529 C513 1.429 . S
C529 C525 1.429 . S
C529 C530 1.523 . S
C530 C514 1.368 . S
C530 C526 1.368 . S
C530 C529 1.523 . S
H531 C506 0.950 . S
H532 C508 0.950 . S
H533 C509 0.949 . S
H534 C511 0.950 . S
H535 C513 0.950 . S
C536 C537 1.349 . S
C536 C538 1.327 . S
C536 H561 0.950 . S
C537 C536 1.349 . S
C537 C553 1.349 . S
C538 C536 1.327 . S
C538 C557 1.429 . S
C538 H562 0.950 . S
C539 C556 1.574 . S
C539 C558 1.368 . S
C539 H563 0.949 . S
H540 C544 0.949 . S
C541 C542 1.349 . S
C541 C543 1.327 . S
C541 H564 0.950 . S
C542 C541 1.349 . S
C542 C554 1.349 . S
C543 C541 1.327 . S
C543 C559 1.429 . S
C543 H565 0.950 . S
C544 H540 0.949 . S
C544 C552 1.574 . S
C544 C560 1.368 . S
H545 C553 0.950 . S
H546 C551 0.950 . S
H547 C552 0.949 . S
H548 C554 0.950 . S
H549 C555 0.950 . S
H550 C556 0.949 . S
C551 H546 0.950 . S
C551 C553 1.327 . S
C551 C557 1.429 . S
C552 C544 1.574 . S
C552 H547 0.949 . S
C552 C558 1.368 . S
C553 C537 1.349 . S
C553 H545 0.950 . S
C553 C551 1.327 . S
C554 C542 1.349 . S
C554 H548 0.950 . S
C554 C555 1.327 . S
C555 H549 0.950 . S
C555 C554 1.327 . S
C555 C559 1.429 . S
C556 C539 1.574 . S
C556 H550 0.949 . S
C556 C560 1.368 . S
C557 C538 1.429 . S
C557 C551 1.429 . S
C557 C558 1.523 . S
C558 C539 1.368 . S
C558 C552 1.368 . S
C558 C557 1.523 . S
C559 C543 1.429 . S
C559 C555 1.429 . S
C559 C560 1.523 . S
C560 C544 1.368 . S
C560 C556 1.368 . S
C560 C559 1.523 . S
H561 C536 0.950 . S
H562 C538 0.950 . S
H563 C539 0.949 . S
H564 C541 0.950 . S
H565 C543 0.950 . S
C566 C567 1.349 . S
C566 C568 1.327 . S
C566 H591 0.950 . S
C567 C566 1.349 . S
C567 C583 1.349 . S
C568 C566 1.327 . S
C568 C587 1.429 . S
C568 H592 0.950 . S
C569 C586 1.574 . S
C569 C588 1.368 . S
C569 H593 0.949 . S
H570 C574 0.949 . S
C571 C572 1.349 . S
C571 C573 1.327 . S
C571 H594 0.950 1_565 S
C572 C571 1.349 . S
C572 C584 1.349 . S
C573 C571 1.327 . S
C573 C589 1.429 . S
C573 H595 0.950 . S
C574 H570 0.949 . S
C574 C582 1.574 . S
C574 C590 1.368 . S
H575 C583 0.950 . S
H576 C581 0.950 . S
H577 C582 0.949 . S
H578 C584 0.950 . S
H579 C585 0.950 . S
H580 C586 0.949 . S
C581 H576 0.950 . S
C581 C583 1.327 . S
C581 C587 1.429 . S
C582 C574 1.574 . S
C582 H577 0.949 . S
C582 C588 1.368 . S
C583 C567 1.349 . S
C583 H575 0.950 . S
C583 C581 1.327 . S
C584 C572 1.349 . S
C584 H578 0.950 . S
C584 C585 1.327 . S
C585 H579 0.950 . S
C585 C584 1.327 . S
C585 C589 1.429 . S
C586 C569 1.574 . S
C586 H580 0.949 . S
C586 C590 1.368 . S
C587 C568 1.429 . S
C587 C581 1.429 . S
C587 C588 1.523 . S
C588 C569 1.368 . S
C588 C582 1.368 . S
C588 C587 1.523 . S
C589 C573 1.429 . S
C589 C585 1.429 . S
C589 C590 1.523 . S
C590 C574 1.368 . S
C590 C586 1.368 . S
C590 C589 1.523 . S
H591 C566 0.950 . S
H592 C568 0.950 . S
H593 C569 0.949 . S
H594 C571 0.950 1_545 S
H595 C573 0.950 . S
C596 C597 1.349 . S
C596 C598 1.327 . S
C596 H621 0.950 . S
C597 C596 1.349 . S
C597 C613 1.349 . S
C598 C596 1.327 . S
C598 C617 1.429 . S
C598 H622 0.950 . S
C599 C616 1.574 . S
C599 C618 1.368 . S
C599 H623 0.949 . S
H600 C604 0.949 . S
C601 C602 1.349 . S
C601 C603 1.327 . S
C601 H624 0.950 . S
C602 C601 1.349 . S
C602 C614 1.349 . S
C603 C601 1.327 . S
C603 C619 1.429 . S
C603 H625 0.950 . S
C604 H600 0.949 . S
C604 C612 1.574 . S
C604 C620 1.368 . S
H605 C613 0.950 . S
H606 C611 0.950 . S
H607 C612 0.949 . S
H608 C614 0.950 . S
H609 C615 0.950 . S
H610 C616 0.949 . S
C611 H606 0.950 . S
C611 C613 1.327 . S
C611 C617 1.429 . S
C612 C604 1.574 . S
C612 H607 0.949 . S
C612 C618 1.368 . S
C613 C597 1.349 . S
C613 H605 0.950 . S
C613 C611 1.327 . S
C614 C602 1.349 . S
C614 H608 0.950 . S
C614 C615 1.327 . S
C615 H609 0.950 . S
C615 C614 1.327 . S
C615 C619 1.429 . S
C616 C599 1.574 . S
C616 H610 0.949 . S
C616 C620 1.368 . S
C617 C598 1.429 . S
C617 C611 1.429 . S
C617 C618 1.523 . S
C618 C599 1.368 . S
C618 C612 1.368 . S
C618 C617 1.523 . S
C619 C603 1.429 . S
C619 C615 1.429 . S
C619 C620 1.523 . S
C620 C604 1.368 . S
C620 C616 1.368 . S
C620 C619 1.523 . S
H621 C596 0.950 . S
H622 C598 0.950 . S
H623 C599 0.949 . S
H624 C601 0.950 . S
H625 C603 0.950 . S
C626 C627 1.349 . S
C626 C628 1.327 . S
C626 H651 0.950 . S
C627 C626 1.349 . S
C627 C643 1.349 . S
C628 C626 1.327 . S
C628 C647 1.429 . S
C628 H652 0.950 . S
C629 C646 1.574 . S
C629 C648 1.368 . S
C629 H653 0.949 . S
H630 C634 0.949 . S
C631 C632 1.349 . S
C631 C633 1.327 . S
C631 H654 0.950 . S
C632 C631 1.349 . S
C632 C644 1.349 . S
C633 C631 1.327 . S
C633 C649 1.429 . S
C633 H655 0.950 . S
C634 H630 0.949 . S
C634 C642 1.574 . S
C634 C650 1.368 . S
H635 C643 0.950 . S
H636 C641 0.950 . S
H637 C642 0.949 . S
H638 C644 0.950 . S
H639 C645 0.950 . S
H640 C646 0.949 . S
C641 H636 0.950 . S
C641 C643 1.327 . S
C641 C647 1.429 . S
C642 C634 1.574 . S
C642 H637 0.949 . S
C642 C648 1.368 . S
C643 C627 1.349 . S
C643 H635 0.950 . S
C643 C641 1.327 . S
C644 C632 1.349 . S
C644 H638 0.950 . S
C644 C645 1.327 . S
C645 H639 0.950 . S
C645 C644 1.327 . S
C645 C649 1.429 . S
C646 C629 1.574 . S
C646 H640 0.949 . S
C646 C650 1.368 . S
C647 C628 1.429 . S
C647 C641 1.429 . S
C647 C648 1.523 . S
C648 C629 1.368 . S
C648 C642 1.368 . S
C648 C647 1.523 . S
C649 C633 1.429 . S
C649 C645 1.429 . S
C649 C650 1.523 . S
C650 C634 1.368 . S
C650 C646 1.368 . S
C650 C649 1.523 . S
H651 C626 0.950 . S
H652 C628 0.950 . S
H653 C629 0.949 . S
H654 C631 0.950 . S
H655 C633 0.950 . S
C656 C657 1.349 . S
C656 C658 1.327 . S
C656 H681 0.950 . S
C657 C656 1.349 . S
C657 C673 1.349 . S
C658 C656 1.327 . S
C658 C677 1.429 . S
C658 H682 0.950 . S
C659 C676 1.574 . S
C659 C678 1.368 . S
C659 H683 0.949 . S
H660 C664 0.949 . S
C661 C662 1.349 . S
C661 C663 1.327 . S
C661 H684 0.950 . S
C662 C661 1.349 . S
C662 C674 1.349 . S
C663 C661 1.327 . S
C663 C679 1.429 . S
C663 H685 0.950 . S
C664 H660 0.949 . S
C664 C672 1.574 . S
C664 C680 1.368 . S
H665 C673 0.950 . S
H666 C671 0.950 . S
H667 C672 0.949 . S
H668 C674 0.950 . S
H669 C675 0.950 . S
H670 C676 0.949 . S
C671 H666 0.950 . S
C671 C673 1.327 . S
C671 C677 1.429 . S
C672 C664 1.574 . S
C672 H667 0.949 . S
C672 C678 1.368 . S
C673 C657 1.349 . S
C673 H665 0.950 . S
C673 C671 1.327 . S
C674 C662 1.349 . S
C674 H668 0.950 . S
C674 C675 1.327 . S
C675 H669 0.950 . S
C675 C674 1.327 . S
C675 C679 1.429 . S
C676 C659 1.574 . S
C676 H670 0.949 . S
C676 C680 1.368 . S
C677 C658 1.429 . S
C677 C671 1.429 . S
C677 C678 1.523 . S
C678 C659 1.368 . S
C678 C672 1.368 . S
C678 C677 1.523 . S
C679 C663 1.429 . S
C679 C675 1.429 . S
C679 C680 1.523 . S
C680 C664 1.368 . S
C680 C676 1.368 . S
C680 C679 1.523 . S
H681 C656 0.950 . S
H682 C658 0.950 . S
H683 C659 0.949 . S
H684 C661 0.950 . S
H685 C663 0.950 . S
C686 C687 1.349 . S
C686 C688 1.327 . S
C686 H711 0.950 . S
C687 C686 1.349 . S
C687 C703 1.349 . S
C688 C686 1.327 . S
C688 C707 1.429 . S
C688 H712 0.950 . S
C689 C706 1.574 . S
C689 C708 1.368 . S
C689 H713 0.949 . S
H690 C694 0.949 . S
C691 C692 1.349 . S
C691 C693 1.327 . S
C691 H714 0.950 . S
C692 C691 1.349 . S
C692 C704 1.349 . S
C693 C691 1.327 . S
C693 C709 1.429 . S
C693 H715 0.950 . S
C694 H690 0.949 . S
C694 C702 1.574 . S
C694 C710 1.368 . S
H695 C703 0.950 . S
H696 C701 0.950 . S
H697 C702 0.949 . S
H698 C704 0.950 . S
H699 C705 0.950 . S
H700 C706 0.949 . S
C701 H696 0.950 . S
C701 C703 1.327 . S
C701 C707 1.429 . S
C702 C694 1.574 . S
C702 H697 0.949 . S
C702 C708 1.368 . S
C703 C687 1.349 . S
C703 H695 0.950 . S
C703 C701 1.327 . S
C704 C692 1.349 . S
C704 H698 0.950 . S
C704 C705 1.327 . S
C705 H699 0.950 . S
C705 C704 1.327 . S
C705 C709 1.429 . S
C706 C689 1.574 . S
C706 H700 0.949 . S
C706 C710 1.368 . S
C707 C688 1.429 . S
C707 C701 1.429 . S
C707 C708 1.523 . S
C708 C689 1.368 . S
C708 C702 1.368 . S
C708 C707 1.523 . S
C709 C693 1.429 . S
C709 C705 1.429 . S
C709 C710 1.523 . S
C710 C694 1.368 . S
C710 C706 1.368 . S
C710 C709 1.523 . S
H711 C686 0.950 . S
H712 C688 0.950 . S
H713 C689 0.949 . S
H714 C691 0.950 . S
H715 C693 0.950 . S
C716 C717 1.349 . S
C716 C718 1.327 . S
C716 H741 0.950 . S
C717 C716 1.349 . S
C717 C733 1.349 . S
C718 C716 1.327 . S
C718 C737 1.429 . S
C718 H742 0.950 . S
C719 C736 1.574 . S
C719 C738 1.368 . S
C719 H743 0.949 . S
H720 C724 0.949 . S
C721 C722 1.349 . S
C721 C723 1.327 . S
C721 H744 0.950 . S
C722 C721 1.349 . S
C722 C734 1.349 . S
C723 C721 1.327 . S
C723 C739 1.429 . S
C723 H745 0.950 . S
C724 H720 0.949 . S
C724 C732 1.574 . S
C724 C740 1.368 . S
H725 C733 0.950 . S
H726 C731 0.950 . S
H727 C732 0.949 . S
H728 C734 0.950 . S
H729 C735 0.950 . S
H730 C736 0.949 . S
C731 H726 0.950 . S
C731 C733 1.327 . S
C731 C737 1.429 . S
C732 C724 1.574 . S
C732 H727 0.949 . S
C732 C738 1.368 . S
C733 C717 1.349 . S
C733 H725 0.950 . S
C733 C731 1.327 . S
C734 C722 1.349 . S
C734 H728 0.950 . S
C734 C735 1.327 . S
C735 H729 0.950 . S
C735 C734 1.327 . S
C735 C739 1.429 . S
C736 C719 1.574 . S
C736 H730 0.949 . S
C736 C740 1.368 . S
C737 C718 1.429 . S
C737 C731 1.429 . S
C737 C738 1.523 . S
C738 C719 1.368 . S
C738 C732 1.368 . S
C738 C737 1.523 . S
C739 C723 1.429 . S
C739 C735 1.429 . S
C739 C740 1.523 . S
C740 C724 1.368 . S
C740 C736 1.368 . S
C740 C739 1.523 . S
H741 C716 0.950 . S
H742 C718 0.950 . S
H743 C719 0.949 . S
H744 C721 0.950 . S
H745 C723 0.950 . S
C746 C747 1.349 . S
C746 C748 1.327 . S
C746 H771 0.950 . S
C747 C746 1.349 . S
C747 C763 1.349 . S
C748 C746 1.327 . S
C748 C767 1.429 . S
C748 H772 0.950 . S
C749 C766 1.574 . S
C749 C768 1.368 . S
C749 H773 0.949 . S
H750 C754 0.949 . S
C751 C752 1.349 . S
C751 C753 1.327 . S
C751 H774 0.950 . S
C752 C751 1.349 . S
C752 C764 1.349 . S
C753 C751 1.327 . S
C753 C769 1.429 . S
C753 H775 0.950 . S
C754 H750 0.949 . S
C754 C762 1.574 . S
C754 C770 1.368 . S
H755 C763 0.950 . S
H756 C761 0.950 . S
H757 C762 0.949 . S
H758 C764 0.950 . S
H759 C765 0.950 . S
H760 C766 0.949 . S
C761 H756 0.950 . S
C761 C763 1.327 . S
C761 C767 1.429 . S
C762 C754 1.574 . S
C762 H757 0.949 . S
C762 C768 1.368 . S
C763 C747 1.349 . S
C763 H755 0.950 . S
C763 C761 1.327 . S
C764 C752 1.349 . S
C764 H758 0.950 . S
C764 C765 1.327 . S
C765 H759 0.950 . S
C765 C764 1.327 . S
C765 C769 1.429 . S
C766 C749 1.574 . S
C766 H760 0.949 . S
C766 C770 1.368 . S
C767 C748 1.429 . S
C767 C761 1.429 . S
C767 C768 1.523 . S
C768 C749 1.368 . S
C768 C762 1.368 . S
C768 C767 1.523 . S
C769 C753 1.429 . S
C769 C765 1.429 . S
C769 C770 1.523 . S
C770 C754 1.368 . S
C770 C766 1.368 . S
C770 C769 1.523 . S
H771 C746 0.950 . S
H772 C748 0.950 . S
H773 C749 0.949 . S
H774 C751 0.950 . S
H775 C753 0.950 . S
C776 C777 1.349 . S
C776 C778 1.327 . S
C776 H801 0.950 . S
C777 C776 1.349 . S
C777 C793 1.349 . S
C778 C776 1.327 . S
C778 C797 1.429 . S
C778 H802 0.950 . S
C779 C796 1.574 . S
C779 C798 1.368 . S
C779 H803 0.949 . S
H780 C784 0.949 . S
C781 C782 1.349 . S
C781 C783 1.327 . S
C781 H804 0.950 . S
C782 C781 1.349 . S
C782 C794 1.349 . S
C783 C781 1.327 . S
C783 C799 1.429 . S
C783 H805 0.950 . S
C784 H780 0.949 . S
C784 C792 1.574 . S
C784 C800 1.368 . S
H785 C793 0.950 . S
H786 C791 0.950 . S
H787 C792 0.949 . S
H788 C794 0.950 . S
H789 C795 0.950 . S
H790 C796 0.949 . S
C791 H786 0.950 . S
C791 C793 1.327 . S
C791 C797 1.429 . S
C792 C784 1.574 . S
C792 H787 0.949 . S
C792 C798 1.368 . S
C793 C777 1.349 . S
C793 H785 0.950 . S
C793 C791 1.327 . S
C794 C782 1.349 . S
C794 H788 0.950 . S
C794 C795 1.327 . S
C795 H789 0.950 . S
C795 C794 1.327 . S
C795 C799 1.429 . S
C796 C779 1.574 . S
C796 H790 0.949 . S
C796 C800 1.368 . S
C797 C778 1.429 . S
C797 C791 1.429 . S
C797 C798 1.523 . S
C798 C779 1.368 . S
C798 C792 1.368 . S
C798 C797 1.523 . S
C799 C783 1.429 . S
C799 C795 1.429 . S
C799 C800 1.523 . S
C800 C784 1.368 . S
C800 C796 1.368 . S
C800 C799 1.523 . S
H801 C776 0.950 . S
H802 C778 0.950 . S
H803 C779 0.949 . S
H804 C781 0.950 . S
H805 C783 0.950 . S
C806 C807 1.349 . S
C806 C808 1.327 . S
C806 H831 0.950 . S
C807 C806 1.349 . S
C807 C823 1.349 . S
C808 C806 1.327 . S
C808 C827 1.429 . S
C808 H832 0.950 . S
C809 C826 1.574 . S
C809 C828 1.368 . S
C809 H833 0.949 . S
H810 C814 0.949 . S
C811 C812 1.349 . S
C811 C813 1.327 . S
C811 H834 0.950 . S
C812 C811 1.349 . S
C812 C824 1.349 . S
C813 C811 1.327 . S
C813 C829 1.429 . S
C813 H835 0.950 . S
C814 H810 0.949 . S
C814 C822 1.574 . S
C814 C830 1.368 . S
H815 C823 0.950 . S
H816 C821 0.950 . S
H817 C822 0.949 . S
H818 C824 0.950 . S
H819 C825 0.950 . S
H820 C826 0.949 . S
C821 H816 0.950 . S
C821 C823 1.327 . S
C821 C827 1.429 . S
C822 C814 1.574 . S
C822 H817 0.949 . S
C822 C828 1.368 . S
C823 C807 1.349 . S
C823 H815 0.950 . S
C823 C821 1.327 . S
C824 C812 1.349 . S
C824 H818 0.950 . S
C824 C825 1.327 . S
C825 H819 0.950 . S
C825 C824 1.327 . S
C825 C829 1.429 . S
C826 C809 1.574 . S
C826 H820 0.949 . S
C826 C830 1.368 . S
C827 C808 1.429 . S
C827 C821 1.429 . S
C827 C828 1.523 . S
C828 C809 1.368 . S
C828 C822 1.368 . S
C828 C827 1.523 . S
C829 C813 1.429 . S
C829 C825 1.429 . S
C829 C830 1.523 . S
C830 C814 1.368 . S
C830 C826 1.368 . S
C830 C829 1.523 . S
H831 C806 0.950 . S
H832 C808 0.950 . S
H833 C809 0.949 . S
H834 C811 0.950 . S
H835 C813 0.950 . S
C836 C837 1.349 . S
C836 C838 1.327 . S
C836 H861 0.950 . S
C837 C836 1.349 . S
C837 C853 1.349 . S
C838 C836 1.327 . S
C838 C857 1.429 . S
C838 H862 0.950 . S
C839 C856 1.574 . S
C839 C858 1.368 . S
C839 H863 0.949 . S
H840 C844 0.949 . S
C841 C842 1.349 . S
C841 C843 1.327 . S
C841 H864 0.950 . S
C842 C841 1.349 . S
C842 C854 1.349 . S
C843 C841 1.327 . S
C843 C859 1.429 . S
C843 H865 0.950 . S
C844 H840 0.949 . S
C844 C852 1.574 . S
C844 C860 1.368 . S
H845 C853 0.950 . S
H846 C851 0.950 . S
H847 C852 0.949 . S
H848 C854 0.950 . S
H849 C855 0.950 . S
H850 C856 0.949 . S
C851 H846 0.950 . S
C851 C853 1.327 . S
C851 C857 1.429 . S
C852 C844 1.574 . S
C852 H847 0.949 . S
C852 C858 1.368 . S
C853 C837 1.349 . S
C853 H845 0.950 . S
C853 C851 1.327 . S
C854 C842 1.349 . S
C854 H848 0.950 . S
C854 C855 1.327 . S
C855 H849 0.950 . S
C855 C854 1.327 . S
C855 C859 1.429 . S
C856 C839 1.574 . S
C856 H850 0.949 . S
C856 C860 1.368 . S
C857 C838 1.429 . S
C857 C851 1.429 . S
C857 C858 1.523 . S
C858 C839 1.368 . S
C858 C852 1.368 . S
C858 C857 1.523 . S
C859 C843 1.429 . S
C859 C855 1.429 . S
C859 C860 1.523 . S
C860 C844 1.368 . S
C860 C856 1.368 . S
C860 C859 1.523 . S
H861 C836 0.950 . S
H862 C838 0.950 . S
H863 C839 0.949 . S
H864 C841 0.950 . S
H865 C843 0.950 . S
C866 C867 1.349 . S
C866 C868 1.327 . S
C866 H891 0.950 . S
C867 C866 1.349 . S
C867 C883 1.349 . S
C868 C866 1.327 . S
C868 C887 1.429 . S
C868 H892 0.950 . S
C869 C886 1.574 . S
C869 C888 1.368 . S
C869 H893 0.949 . S
H870 C874 0.949 . S
C871 C872 1.349 . S
C871 C873 1.327 . S
C871 H894 0.950 . S
C872 C871 1.349 . S
C872 C884 1.349 . S
C873 C871 1.327 . S
C873 C889 1.429 . S
C873 H895 0.950 . S
C874 H870 0.949 . S
C874 C882 1.574 . S
C874 C890 1.368 . S
H875 C883 0.950 . S
H876 C881 0.950 . S
H877 C882 0.949 . S
H878 C884 0.950 . S
H879 C885 0.950 . S
H880 C886 0.949 . S
C881 H876 0.950 . S
C881 C883 1.327 . S
C881 C887 1.429 . S
C882 C874 1.574 . S
C882 H877 0.949 . S
C882 C888 1.368 . S
C883 C867 1.349 . S
C883 H875 0.950 . S
C883 C881 1.327 . S
C884 C872 1.349 . S
C884 H878 0.950 . S
C884 C885 1.327 . S
C885 H879 0.950 . S
C885 C884 1.327 . S
C885 C889 1.429 . S
C886 C869 1.574 . S
C886 H880 0.949 . S
C886 C890 1.368 . S
C887 C868 1.429 . S
C887 C881 1.429 . S
C887 C888 1.523 . S
C888 C869 1.368 . S
C888 C882 1.368 . S
C888 C887 1.523 . S
C889 C873 1.429 . S
C889 C885 1.429 . S
C889 C890 1.523 . S
C890 C874 1.368 . S
C890 C886 1.368 . S
C890 C889 1.523 . S
H891 C866 0.950 . S
H892 C868 0.950 . S
H893 C869 0.949 . S
H894 C871 0.950 . S
H895 C873 0.950 . S
C896 C897 1.349 . S
C896 C898 1.327 . S
C896 H921 0.950 . S
C897 C896 1.349 . S
C897 C913 1.349 . S
C898 C896 1.327 . S
C898 C917 1.429 . S
C898 H922 0.950 . S
C899 C916 1.574 . S
C899 C918 1.368 . S
C899 H923 0.949 . S
H900 C904 0.949 . S
C901 C902 1.349 . S
C901 C903 1.327 . S
C901 H924 0.950 . S
C902 C901 1.349 . S
C902 C914 1.349 . S
C903 C901 1.327 . S
C903 C919 1.429 . S
C903 H925 0.950 . S
C904 H900 0.949 . S
C904 C912 1.574 . S
C904 C920 1.368 . S
H905 C913 0.950 . S
H906 C911 0.950 . S
H907 C912 0.949 . S
H908 C914 0.950 . S
H909 C915 0.950 . S
H910 C916 0.949 . S
C911 H906 0.950 . S
C911 C913 1.327 . S
C911 C917 1.429 . S
C912 C904 1.574 . S
C912 H907 0.949 . S
C912 C918 1.368 . S
C913 C897 1.349 . S
C913 H905 0.950 . S
C913 C911 1.327 . S
C914 C902 1.349 . S
C914 H908 0.950 . S
C914 C915 1.327 . S
C915 H909 0.950 . S
C915 C914 1.327 . S
C915 C919 1.429 . S
C916 C899 1.574 . S
C916 H910 0.949 . S
C916 C920 1.368 . S
C917 C898 1.429 . S
C917 C911 1.429 . S
C917 C918 1.523 . S
C918 C899 1.368 . S
C918 C912 1.368 . S
C918 C917 1.523 . S
C919 C903 1.429 . S
C919 C915 1.429 . S
C919 C920 1.523 . S
C920 C904 1.368 . S
C920 C916 1.368 . S
C920 C919 1.523 . S
H921 C896 0.950 . S
H922 C898 0.950 . S
H923 C899 0.949 . S
H924 C901 0.950 . S
H925 C903 0.950 . S
C926 C927 1.349 . S
C926 C928 1.327 . S
C926 H951 0.950 . S
C927 C926 1.349 . S
C927 C943 1.349 . S
C928 C926 1.327 . S
C928 C947 1.429 . S
C928 H952 0.950 . S
C929 C946 1.574 . S
C929 C948 1.368 . S
C929 H953 0.949 . S
H930 C934 0.949 . S
C931 C932 1.349 . S
C931 C933 1.327 . S
C931 H954 0.950 . S
C932 C931 1.349 . S
C932 C944 1.349 . S
C933 C931 1.327 . S
C933 C949 1.429 . S
C933 H955 0.950 . S
C934 H930 0.949 . S
C934 C942 1.574 . S
C934 C950 1.368 . S
H935 C943 0.950 . S
H936 C941 0.950 . S
H937 C942 0.949 . S
H938 C944 0.950 . S
H939 C945 0.950 . S
H940 C946 0.949 . S
C941 H936 0.950 . S
C941 C943 1.327 . S
C941 C947 1.429 . S
C942 C934 1.574 . S
C942 H937 0.949 . S
C942 C948 1.368 . S
C943 C927 1.349 . S
C943 H935 0.950 . S
C943 C941 1.327 . S
C944 C932 1.349 . S
C944 H938 0.950 . S
C944 C945 1.327 . S
C945 H939 0.950 . S
C945 C944 1.327 . S
C945 C949 1.429 . S
C946 C929 1.574 . S
C946 H940 0.949 . S
C946 C950 1.368 . S
C947 C928 1.429 . S
C947 C941 1.429 . S
C947 C948 1.523 . S
C948 C929 1.368 . S
C948 C942 1.368 . S
C948 C947 1.523 . S
C949 C933 1.429 . S
C949 C945 1.429 . S
C949 C950 1.523 . S
C950 C934 1.368 . S
C950 C946 1.368 . S
C950 C949 1.523 . S
H951 C926 0.950 . S
H952 C928 0.950 . S
H953 C929 0.949 . S
H954 C931 0.950 . S
H955 C933 0.950 . S
C956 C957 1.349 . S
C956 C958 1.327 . S
C956 H981 0.950 . S
C957 C956 1.349 . S
C957 C973 1.349 . S
C958 C956 1.327 . S
C958 C977 1.429 . S
C958 H982 0.950 . S
C959 C976 1.574 . S
C959 C978 1.368 . S
C959 H983 0.949 . S
H960 C964 0.949 . S
C961 C962 1.349 . S
C961 C963 1.327 . S
C961 H984 0.950 . S
C962 C961 1.349 . S
C962 C974 1.349 . S
C963 C961 1.327 . S
C963 C979 1.429 . S
C963 H985 0.950 . S
C964 H960 0.949 . S
C964 C972 1.574 . S
C964 C980 1.368 . S
H965 C973 0.950 . S
H966 C971 0.950 . S
H967 C972 0.949 . S
H968 C974 0.950 . S
H969 C975 0.950 . S
H970 C976 0.949 . S
C971 H966 0.950 . S
C971 C973 1.327 . S
C971 C977 1.429 . S
C972 C964 1.574 . S
C972 H967 0.949 . S
C972 C978 1.368 . S
C973 C957 1.349 . S
C973 H965 0.950 . S
C973 C971 1.327 . S
C974 C962 1.349 . S
C974 H968 0.950 . S
C974 C975 1.327 . S
C975 H969 0.950 . S
C975 C974 1.327 . S
C975 C979 1.429 . S
C976 C959 1.574 . S
C976 H970 0.949 . S
C976 C980 1.368 . S
C977 C958 1.429 . S
C977 C971 1.429 . S
C977 C978 1.523 . S
C978 C959 1.368 . S
C978 C972 1.368 . S
C978 C977 1.523 . S
C979 C963 1.429 . S
C979 C975 1.429 . S
C979 C980 1.523 . S
C980 C964 1.368 . S
C980 C976 1.368 . S
C980 C979 1.523 . S
H981 C956 0.950 . S
H982 C958 0.950 . S
H983 C959 0.949 . S
H984 C961 0.950 . S
H985 C963 0.950 . S
C986 C987 1.349 . S
C986 C988 1.327 . S
C986 H1011 0.950 . S
C987 C986 1.349 . S
C987 C1003 1.349 . S
C988 C986 1.327 . S
C988 C1007 1.429 . S
C988 H1012 0.950 . S
C989 C1006 1.574 . S
C989 C1008 1.368 . S
C989 H1013 0.949 . S
H990 C994 0.949 . S
C991 C992 1.349 . S
C991 C993 1.327 . S
C991 H1014 0.950 . S
C992 C991 1.349 . S
C992 C1004 1.349 . S
C993 C991 1.327 . S
C993 C1009 1.429 . S
C993 H1015 0.950 . S
C994 H990 0.949 . S
C994 C1002 1.574 . S
C994 C1010 1.368 . S
H995 C1003 0.950 . S
H996 C1001 0.950 . S
H997 C1002 0.949 . S
H998 C1004 0.950 . S
H999 C1005 0.950 . S
H1000 C1006 0.949 . S
C1001 H996 0.950 . S
C1001 C1003 1.327 . S
C1001 C1007 1.429 . S
C1002 C994 1.574 . S
C1002 H997 0.949 . S
C1002 C1008 1.368 . S
C1003 C987 1.349 . S
C1003 H995 0.950 . S
C1003 C1001 1.327 . S
C1004 C992 1.349 . S
C1004 H998 0.950 . S
C1004 C1005 1.327 . S
C1005 H999 0.950 . S
C1005 C1004 1.327 . S
C1005 C1009 1.429 . S
C1006 C989 1.574 . S
C1006 H1000 0.949 . S
C1006 C1010 1.368 . S
C1007 C988 1.429 . S
C1007 C1001 1.429 . S
C1007 C1008 1.523 . S
C1008 C989 1.368 . S
C1008 C1002 1.368 . S
C1008 C1007 1.523 . S
C1009 C993 1.429 . S
C1009 C1005 1.429 . S
C1009 C1010 1.523 . S
C1010 C994 1.368 . S
C1010 C1006 1.368 . S
C1010 C1009 1.523 . S
H1011 C986 0.950 . S
H1012 C988 0.950 . S
H1013 C989 0.949 . S
H1014 C991 0.950 . S
H1015 C993 0.950 . S
C1016 C1017 1.349 . S
C1016 C1018 1.327 . S
C1016 H1041 0.950 . S
C1017 C1016 1.349 . S
C1017 C1033 1.349 . S
C1018 C1016 1.327 . S
C1018 C1037 1.429 . S
C1018 H1042 0.950 . S
C1019 C1036 1.574 . S
C1019 C1038 1.368 . S
C1019 H1043 0.949 . S
H1020 C1024 0.949 . S
C1021 C1022 1.349 . S
C1021 C1023 1.327 . S
C1021 H1044 0.950 . S
C1022 C1021 1.349 . S
C1022 C1034 1.349 . S
C1023 C1021 1.327 . S
C1023 C1039 1.429 . S
C1023 H1045 0.950 . S
C1024 H1020 0.949 . S
C1024 C1032 1.574 . S
C1024 C1040 1.368 . S
H1025 C1033 0.950 . S
H1026 C1031 0.950 . S
H1027 C1032 0.949 . S
H1028 C1034 0.950 . S
H1029 C1035 0.950 . S
H1030 C1036 0.949 . S
C1031 H1026 0.950 . S
C1031 C1033 1.327 . S
C1031 C1037 1.429 . S
C1032 C1024 1.574 . S
C1032 H1027 0.949 . S
C1032 C1038 1.368 . S
C1033 C1017 1.349 . S
C1033 H1025 0.950 . S
C1033 C1031 1.327 . S
C1034 C1022 1.349 . S
C1034 H1028 0.950 . S
C1034 C1035 1.327 . S
C1035 H1029 0.950 . S
C1035 C1034 1.327 . S
C1035 C1039 1.429 . S
C1036 C1019 1.574 . S
C1036 H1030 0.949 . S
C1036 C1040 1.368 . S
C1037 C1018 1.429 . S
C1037 C1031 1.429 . S
C1037 C1038 1.523 . S
C1038 C1019 1.368 . S
C1038 C1032 1.368 . S
C1038 C1037 1.523 . S
C1039 C1023 1.429 . S
C1039 C1035 1.429 . S
C1039 C1040 1.523 . S
C1040 C1024 1.368 . S
C1040 C1036 1.368 . S
C1040 C1039 1.523 . S
H1041 C1016 0.950 . S
H1042 C1018 0.950 . S
H1043 C1019 0.949 . S
H1044 C1021 0.950 . S
H1045 C1023 0.950 . S
C1046 C1047 1.349 . S
C1046 C1048 1.327 . S
C1046 H1071 0.950 . S
C1047 C1046 1.349 . S
C1047 C1063 1.349 . S
C1048 C1046 1.327 . S
C1048 C1067 1.429 . S
C1048 H1072 0.950 . S
C1049 C1066 1.574 . S
C1049 C1068 1.368 . S
C1049 H1073 0.949 . S
H1050 C1054 0.949 . S
C1051 C1052 1.349 . S
C1051 C1053 1.327 . S
C1051 H1074 0.950 . S
C1052 C1051 1.349 . S
C1052 C1064 1.349 . S
C1053 C1051 1.327 . S
C1053 C1069 1.429 . S
C1053 H1075 0.950 . S
C1054 H1050 0.949 . S
C1054 C1062 1.574 . S
C1054 C1070 1.368 . S
H1055 C1063 0.950 . S
H1056 C1061 0.950 . S
H1057 C1062 0.949 . S
H1058 C1064 0.950 . S
H1059 C1065 0.950 . S
H1060 C1066 0.949 . S
C1061 H1056 0.950 . S
C1061 C1063 1.327 . S
C1061 C1067 1.429 . S
C1062 C1054 1.574 . S
C1062 H1057 0.949 . S
C1062 C1068 1.368 . S
C1063 C1047 1.349 . S
C1063 H1055 0.950 . S
C1063 C1061 1.327 . S
C1064 C1052 1.349 . S
C1064 H1058 0.950 . S
C1064 C1065 1.327 . S
C1065 H1059 0.950 . S
C1065 C1064 1.327 . S
C1065 C1069 1.429 . S
C1066 C1049 1.574 . S
C1066 H1060 0.949 . S
C1066 C1070 1.368 . S
C1067 C1048 1.429 . S
C1067 C1061 1.429 . S
C1067 C1068 1.523 . S
C1068 C1049 1.368 . S
C1068 C1062 1.368 . S
C1068 C1067 1.523 . S
C1069 C1053 1.429 . S
C1069 C1065 1.429 . S
C1069 C1070 1.523 . S
C1070 C1054 1.368 . S
C1070 C1066 1.368 . S
C1070 C1069 1.523 . S
H1071 C1046 0.950 . S
H1072 C1048 0.950 . S
H1073 C1049 0.949 . S
H1074 C1051 0.950 . S
H1075 C1053 0.950 . S
C1076 C1077 1.349 . S
C1076 C1078 1.327 . S
C1076 H1101 0.950 . S
C1077 C1076 1.349 . S
C1077 C1093 1.349 . S
C1078 C1076 1.327 . S
C1078 C1097 1.429 . S
C1078 H1102 0.950 . S
C1079 C1096 1.574 . S
C1079 C1098 1.368 . S
C1079 H1103 0.949 . S
H1080 C1084 0.949 . S
C1081 C1082 1.349 . S
C1081 C1083 1.327 . S
C1081 H1104 0.950 . S
C1082 C1081 1.349 . S
C1082 C1094 1.349 . S
C1083 C1081 1.327 . S
C1083 C1099 1.429 . S
C1083 H1105 0.950 . S
C1084 H1080 0.949 . S
C1084 C1092 1.574 . S
C1084 C1100 1.368 . S
H1085 C1093 0.950 . S
H1086 C1091 0.950 . S
H1087 C1092 0.949 . S
H1088 C1094 0.950 . S
H1089 C1095 0.950 . S
H1090 C1096 0.949 . S
C1091 H1086 0.950 . S
C1091 C1093 1.327 . S
C1091 C1097 1.429 . S
C1092 C1084 1.574 . S
C1092 H1087 0.949 . S
C1092 C1098 1.368 . S
C1093 C1077 1.349 . S
C1093 H1085 0.950 . S
C1093 C1091 1.327 . S
C1094 C1082 1.349 . S
C1094 H1088 0.950 . S
C1094 C1095 1.327 . S
C1095 H1089 0.950 . S
C1095 C1094 1.327 . S
C1095 C1099 1.429 . S
C1096 C1079 1.574 . S
C1096 H1090 0.949 . S
C1096 C1100 1.368 . S
C1097 C1078 1.429 . S
C1097 C1091 1.429 . S
C1097 C1098 1.523 . S
C1098 C1079 1.368 . S
C1098 C1092 1.368 . S
C1098 C1097 1.523 . S
C1099 C1083 1.429 . S
C1099 C1095 1.429 . S
C1099 C1100 1.523 . S
C1100 C1084 1.368 . S
C1100 C1096 1.368 . S
C1100 C1099 1.523 . S
H1101 C1076 0.950 . S
H1102 C1078 0.950 . S
H1103 C1079 0.949 . S
H1104 C1081 0.950 . S
H1105 C1083 0.950 . S
C1106 C1107 1.349 . S
C1106 C1108 1.327 . S
C1106 H1131 0.950 . S
C1107 C1106 1.349 . S
C1107 C1123 1.349 . S
C1108 C1106 1.327 . S
C1108 C1127 1.429 . S
C1108 H1132 0.950 . S
C1109 C1126 1.574 . S
C1109 C1128 1.368 . S
C1109 H1133 0.949 . S
H1110 C1114 0.949 . S
C1111 C1112 1.349 . S
C1111 C1113 1.327 . S
C1111 H1134 0.950 . S
C1112 C1111 1.349 . S
C1112 C1124 1.349 . S
C1113 C1111 1.327 . S
C1113 C1129 1.429 . S
C1113 H1135 0.950 . S
C1114 H1110 0.949 . S
C1114 C1122 1.574 . S
C1114 C1130 1.368 . S
H1115 C1123 0.950 . S
H1116 C1121 0.950 . S
H1117 C1122 0.949 . S
H1118 C1124 0.950 . S
H1119 C1125 0.950 . S
H1120 C1126 0.949 . S
C1121 H1116 0.950 . S
C1121 C1123 1.327 . S
C1121 C1127 1.429 . S
C1122 C1114 1.574 . S
C1122 H1117 0.949 . S
C1122 C1128 1.368 . S
C1123 C1107 1.349 . S
C1123 H1115 0.950 . S
C1123 C1121 1.327 . S
C1124 C1112 1.349 . S
C1124 H1118 0.950 . S
C1124 C1125 1.327 . S
C1125 H1119 0.950 . S
C1125 C1124 1.327 . S
C1125 C1129 1.429 . S
C1126 C1109 1.574 . S
C1126 H1120 0.949 . S
C1126 C1130 1.368 . S
C1127 C1108 1.429 . S
C1127 C1121 1.429 . S
C1127 C1128 1.523 . S
C1128 C1109 1.368 . S
C1128 C1122 1.368 . S
C1128 C1127 1.523 . S
C1129 C1113 1.429 . S
C1129 C1125 1.429 . S
C1129 C1130 1.523 . S
C1130 C1114 1.368 . S
C1130 C1126 1.368 . S
C1130 C1129 1.523 . S
H1131 C1106 0.950 . S
H1132 C1108 0.950 . S
H1133 C1109 0.949 . S
H1134 C1111 0.950 . S
H1135 C1113 0.950 . S
C417 C29 1.181 . S
C422 C262 1.181 . S
C447 C49 0.851 . S
C452 C311 0.856 . S
C482 C346 2.499 . S
C477 C93 2.509 . S
C507 C119 2.254 . S
C512 C385 2.243 . S
C542 C306 2.298 . S
C537 C17 2.294 . S
C572 C265 0.886 . S
C567 C61 0.907 . S
C602 C395 1.850 . S
C597 C81 1.879 . S
C632 C354 1.595 . S
C627 C125 1.588 . S
C657 C23 1.607 . S
C662 C382 1.609 . S
C692 C314 2.288 . S
C687 C87 2.335 . S
C717 C113 2.338 . S
C722 C275 2.365 . S
C747 C55 0.723 . S
C752 C351 0.719 . S
C782 C271 1.144 . S
C777 C157 1.045 . S
C807 C189 0.908 . S
C812 C302 0.919 . S
C837 C221 2.460 . S
C842 C355 2.452 . S
C867 C253 2.334 . S
C872 C394 2.335 . S
C897 C145 2.201 . S
C902 C315 2.389 . S
C932 C274 0.829 . S
C927 C183 0.836 . S
C962 C386 1.896 . S
C957 C209 1.907 . S
C992 C345 1.542 . S
C987 C247 1.536 . S
C1017 C151 1.498 . S
C1022 C391 1.623 . S
C1052 C305 2.286 . S
C1047 C215 2.328 . S
C1082 C266 2.316 . S
C1077 C241 2.282 . S
C1107 C177 0.716 . S
C1112 C342 0.714 . S
