# Generated by pormake.
# Topology pto, (3,4)-cn, num edge types: 1
# Building blocks:
#     Node 0, Type 0, BuildingBlock: QEWDON_clean_linker_0, # of connection points: 3
#     Node 1, Type 0, BuildingBlock: QEWDON_clean_linker_0, # of connection points: 3
#     Node 2, Type 0, BuildingBlock: QEWDON_clean_linker_0, # of connection points: 3
#     Node 3, Type 0, BuildingBlock: QEWDON_clean_linker_0, # of connection points: 3
#     Node 4, Type 0, BuildingBlock: QEWDON_clean_linker_0, # of connection points: 3
#     Node 5, Type 0, BuildingBlock: QEWDON_clean_linker_0, # of connection points: 3
#     Node 6, Type 0, BuildingBlock: QEWDON_clean_linker_0, # of connection points: 3
#     Node 7, Type 0, BuildingBlock: QEWDON_clean_linker_0, # of connection points: 3
#     Node 8, Type 1, BuildingBlock: KOZSID_clean_sbu_0, # of connection points: 4
#     Node 9, Type 1, BuildingBlock: KOZSID_clean_sbu_0, # of connection points: 4
#     Node 10, Type 1, BuildingBlock: KOZSID_clean_sbu_0, # of connection points: 4
#     Node 11, Type 1, BuildingBlock: KOZSID_clean_sbu_0, # of connection points: 4
#     Node 12, Type 1, BuildingBlock: KOZSID_clean_sbu_0, # of connection points: 4
#     Node 13, Type 1, BuildingBlock: KOZSID_clean_sbu_0, # of connection points: 4
#     Edge 14, Type (0, 1), BuildingBlock: XIVTED_clean_linker_0, # of connection points: 2
#     Edge 15, Type (0, 1), BuildingBlock: XIVTED_clean_linker_0, # of connection points: 2
#     Edge 16, Type (0, 1), BuildingBlock: XIVTED_clean_linker_0, # of connection points: 2
#     Edge 17, Type (0, 1), BuildingBlock: XIVTED_clean_linker_0, # of connection points: 2
#     Edge 18, Type (0, 1), BuildingBlock: XIVTED_clean_linker_0, # of connection points: 2
#     Edge 19, Type (0, 1), BuildingBlock: XIVTED_clean_linker_0, # of connection points: 2
#     Edge 20, Type (0, 1), BuildingBlock: XIVTED_clean_linker_0, # of connection points: 2
#     Edge 21, Type (0, 1), BuildingBlock: XIVTED_clean_linker_0, # of connection points: 2
#     Edge 22, Type (0, 1), BuildingBlock: XIVTED_clean_linker_0, # of connection points: 2
#     Edge 23, Type (0, 1), BuildingBlock: XIVTED_clean_linker_0, # of connection points: 2
#     Edge 24, Type (0, 1), BuildingBlock: XIVTED_clean_linker_0, # of connection points: 2
#     Edge 25, Type (0, 1), BuildingBlock: XIVTED_clean_linker_0, # of connection points: 2
#     Edge 26, Type (0, 1), BuildingBlock: XIVTED_clean_linker_0, # of connection points: 2
#     Edge 27, Type (0, 1), BuildingBlock: XIVTED_clean_linker_0, # of connection points: 2
#     Edge 28, Type (0, 1), BuildingBlock: XIVTED_clean_linker_0, # of connection points: 2
#     Edge 29, Type (0, 1), BuildingBlock: XIVTED_clean_linker_0, # of connection points: 2
#     Edge 30, Type (0, 1), BuildingBlock: XIVTED_clean_linker_0, # of connection points: 2
#     Edge 31, Type (0, 1), BuildingBlock: XIVTED_clean_linker_0, # of connection points: 2
#     Edge 32, Type (0, 1), BuildingBlock: XIVTED_clean_linker_0, # of connection points: 2
#     Edge 33, Type (0, 1), BuildingBlock: XIVTED_clean_linker_0, # of connection points: 2
#     Edge 34, Type (0, 1), BuildingBlock: XIVTED_clean_linker_0, # of connection points: 2
#     Edge 35, Type (0, 1), BuildingBlock: XIVTED_clean_linker_0, # of connection points: 2
#     Edge 36, Type (0, 1), BuildingBlock: XIVTED_clean_linker_0, # of connection points: 2
#     Edge 37, Type (0, 1), BuildingBlock: XIVTED_clean_linker_0, # of connection points: 2
# Relax obj value: 0.016
# Max RMSD: 0.202
# Mean RMSD: 0.076
data_MOF--net-pto--node1-KOZSID_clean_sbu_0--node2-QEWDON_clean_linker_0--edge1-XIVTED_clean_linker_0
_symmetry_space_group_name_H-M    P1
_symmetry_Int_Tables_number       1
_symmetry_cell_setting            triclinic
loop_
_symmetry_equiv_pos_as_xyz
'x, y, z'
_cell_length_a     33.836712
_cell_length_b     52.162942
_cell_length_c     47.208391
_cell_angle_alpha  92.440143
_cell_angle_beta   110.11184
_cell_angle_gamma 103.64254
loop_
_atom_site_label
_atom_site_type_symbol
_atom_site_fract_x
_atom_site_fract_y
_atom_site_fract_z
_atom_type_partial_charge
H0 H 0.32031 0.30537 0.28281 0.0
C1 C 0.31033 0.28643 0.29044 0.0
C2 C 0.30361 0.26255 0.27238 0.0
C3 C 0.30749 0.28599 0.31938 0.0
H4 H 0.28563 0.21976 0.26865 0.0
C5 C 0.29186 0.23818 0.28294 0.0
C6 C 0.28853 0.23742 0.31176 0.0
C7 C 0.29669 0.26153 0.3299 0.0
C8 C 0.31935 0.31104 0.33982 0.0
H9 H 0.29579 0.26141 0.35263 0.0
C10 C 0.29613 0.33031 0.33156 0.0
C11 C 0.3071 0.35385 0.35157 0.0
C12 C 0.35387 0.3155 0.36806 0.0
H13 H 0.37215 0.30086 0.37478 0.0
C14 C 0.3653 0.33895 0.38774 0.0
H15 H 0.26938 0.32682 0.30979 0.0
C16 C 0.3421 0.35801 0.37964 0.0
H17 H 0.35094 0.37576 0.39567 0.0
H18 H 0.39197 0.34227 0.40948 0.0
H19 H 0.2992 0.84166 0.74237 0.0
C20 C 0.27875 0.82141 0.73761 0.0
C21 C 0.29544 0.801 0.75186 0.0
C22 C 0.23478 0.81609 0.71832 0.0
H23 H 0.27895 0.75914 0.75672 0.0
C24 C 0.26764 0.77495 0.74505 0.0
C25 C 0.22398 0.7693 0.7251 0.0
C26 C 0.20768 0.79007 0.71206 0.0
C27 C 0.21561 0.83808 0.70731 0.0
H28 H 0.17368 0.7861 0.69728 0.0
C29 C 0.22807 0.8532 0.68637 0.0
C30 C 0.20877 0.87381 0.67572 0.0
C31 C 0.18402 0.8437 0.71774 0.0
H32 H 0.17403 0.8322 0.73387 0.0
C33 C 0.16529 0.86431 0.70762 0.0
H34 H 0.25238 0.84879 0.67825 0.0
C35 C 0.17749 0.87928 0.68674 0.0
H36 H 0.16172 0.89479 0.6787 0.0
H37 H 0.14097 0.86856 0.71578 0.0
H38 H 0.93691 0.79873 0.44678 0.0
C39 C 0.92251 0.80703 0.42626 0.0
C40 C 0.92349 0.79676 0.39859 0.0
C41 C 0.90259 0.82763 0.4277 0.0
H42 H 0.90501 0.79995 0.35064 0.0
C43 C 0.90595 0.80825 0.37238 0.0
C44 C 0.88651 0.82908 0.37338 0.0
C45 C 0.88473 0.83867 0.40109 0.0
C46 C 0.89821 0.8361 0.45671 0.0
H47 H 0.86841 0.85413 0.4017 0.0
C48 C 0.90674 0.86323 0.46752 0.0
C49 C 0.90477 0.8707 0.49594 0.0
C50 C 0.8861 0.81666 0.47416 0.0
H51 H 0.87838 0.79566 0.46616 0.0
C52 C 0.88356 0.82404 0.50205 0.0
H53 H 0.91632 0.87846 0.45445 0.0
C54 C 0.89311 0.85085 0.51302 0.0
H55 H 0.89089 0.8561 0.53477 0.0
H56 H 0.87423 0.8089 0.51526 0.0
H57 H 0.89398 0.35168 0.95355 0.0
C58 C 0.88554 0.33324 0.93865 0.0
C59 C 0.88556 0.33396 0.90898 0.0
C60 C 0.8745 0.30876 0.9492 0.0
H61 H 0.87425 0.31033 0.86701 0.0
C62 C 0.87435 0.30994 0.88998 0.0
C63 C 0.86375 0.28537 0.90028 0.0
C64 C 0.86379 0.28483 0.92999 0.0
C65 C 0.87273 0.30843 0.97998 0.0
H66 H 0.85547 0.26591 0.93812 0.0
C67 C 0.83284 0.29771 0.98349 0.0
C68 C 0.82944 0.29986 0.01237 0.0
C69 C 0.91 0.32046 0.00567 0.0
H70 H 0.94101 0.32895 0.00334 0.0
C71 C 0.90738 0.32172 0.03455 0.0
H72 H 0.80422 0.28847 0.96348 0.0
C73 C 0.86738 0.3117 0.03793 0.0
H74 H 0.86602 0.31406 0.06044 0.0
H75 H 0.93624 0.33107 0.0543 0.0
H76 H 0.9728 0.81496 0.85031 0.0
C77 C 0.9519 0.81789 0.86249 0.0
C78 C 0.92616 0.79581 0.86971 0.0
C79 C 0.95144 0.8438 0.87117 0.0
H80 H 0.88068 0.78296 0.89227 0.0
C81 C 0.90048 0.79993 0.88645 0.0
C82 C 0.89938 0.82582 0.89508 0.0
C83 C 0.92443 0.8477 0.8869 0.0
C84 C 0.98071 0.86667 0.8647 0.0
H85 H 0.92441 0.86776 0.89391 0.0
C86 C 0.96366 0.88507 0.84667 0.0
C87 C 0.99149 0.90595 0.83907 0.0
C88 C 0.02588 0.86946 0.8756 0.0
H89 H 0.03959 0.85543 0.88952 0.0
C90 C 0.05372 0.89043 0.86872 0.0
H91 H 0.92865 0.88244 0.83766 0.0
C92 C 0.03674 0.90855 0.85054 0.0
H93 H 0.05909 0.92469 0.8456 0.0
H94 H 0.08855 0.89257 0.87737 0.0
H95 H 0.89982 0.30361 0.41152 0.0
C96 C 0.8683 0.30037 0.39336 0.0
C97 C 0.8531 0.32224 0.38234 0.0
C98 C 0.84378 0.27432 0.38 0.0
H99 H 0.80166 0.33441 0.34875 0.0
C100 C 0.81255 0.31764 0.35826 0.0
C101 C 0.7877 0.29165 0.3447 0.0
C102 C 0.80355 0.2701 0.35593 0.0
C103 C 0.86142 0.25136 0.38917 0.0
H104 H 0.78484 0.2499 0.34573 0.0
C105 C 0.86983 0.24468 0.41881 0.0
C106 C 0.88376 0.22161 0.42664 0.0
C107 C 0.86812 0.23534 0.36753 0.0
H108 H 0.86181 0.24021 0.34458 0.0
C109 C 0.88286 0.21289 0.37529 0.0
H110 H 0.86464 0.25714 0.43544 0.0
C111 C 0.89037 0.20593 0.4045 0.0
H112 H 0.90021 0.18781 0.40944 0.0
H113 H 0.88777 0.20057 0.35843 0.0
H114 H 0.21411 0.26007 0.69857 0.0
C115 C 0.19382 0.27317 0.69919 0.0
C116 C 0.18812 0.27917 0.72658 0.0
C117 C 0.17529 0.28503 0.67329 0.0
H118 H 0.16211 0.30336 0.74982 0.0
C119 C 0.16456 0.29756 0.72826 0.0
C120 C 0.14696 0.31013 0.70313 0.0
C121 C 0.15089 0.30308 0.67542 0.0
C122 C 0.18494 0.28062 0.64514 0.0
H123 H 0.13683 0.31279 0.65605 0.0
C124 C 0.19019 0.25592 0.63588 0.0
C125 C 0.20222 0.25256 0.61047 0.0
C126 C 0.1912 0.30172 0.62809 0.0
H127 H 0.18892 0.32124 0.63485 0.0
C128 C 0.20185 0.29821 0.60244 0.0
H129 H 0.18572 0.23946 0.64869 0.0
C130 C 0.20742 0.27389 0.59368 0.0
H131 H 0.2158 0.27177 0.57369 0.0
H132 H 0.20643 0.31458 0.58952 0.0
H133 H 0.25285 0.82485 0.19158 0.0
C134 C 0.24733 0.80721 0.20254 0.0
C135 C 0.2429 0.80933 0.23097 0.0
C136 C 0.24129 0.78198 0.18731 0.0
H137 H 0.23175 0.7883 0.26682 0.0
C138 C 0.23447 0.78639 0.24464 0.0
C139 C 0.2284 0.76114 0.22984 0.0
C140 C 0.23206 0.75907 0.20116 0.0
C141 C 0.24082 0.77908 0.15586 0.0
H142 H 0.22643 0.7396 0.18913 0.0
C143 C 0.27696 0.79234 0.1489 0.0
C144 C 0.2771 0.78826 0.11918 0.0
C145 C 0.20419 0.76228 0.13275 0.0
H146 H 0.17592 0.752 0.13759 0.0
C147 C 0.20366 0.75864 0.1032 0.0
H148 H 0.30514 0.80535 0.16677 0.0
C149 C 0.23985 0.77135 0.09643 0.0
H150 H 0.239 0.7673 0.07352 0.0
H151 H 0.17534 0.74558 0.08555 0.0
C152 C 0.1499 0.6015 0.35995 0.0
C153 C 0.18843 0.61854 0.38014 0.0
C154 C 0.19238 0.61196 0.40848 0.0
C155 C 0.15614 0.59141 0.40398 0.0
N156 N 0.12962 0.58414 0.3744 0.0
Co157 Co 0.07175 0.55673 0.35794 0.0
N158 N 0.07789 0.54661 0.39951 0.0
C159 C 0.11183 0.55694 0.42593 0.0
C160 C 0.10832 0.54455 0.45033 0.0
C161 C 0.07034 0.52469 0.43868 0.0
C162 C 0.05286 0.52623 0.40778 0.0
N163 N 0.01298 0.53029 0.34171 0.0
C164 C 0.99291 0.51259 0.35593 0.0
C165 C 0.95197 0.49778 0.33619 0.0
C166 C 0.94629 0.50622 0.30846 0.0
C167 C 0.98385 0.52559 0.31278 0.0
N168 N 0.06664 0.56561 0.31613 0.0
C169 C 0.03357 0.55427 0.28961 0.0
C170 C 0.03953 0.56409 0.26449 0.0
C171 C 0.07866 0.58294 0.27561 0.0
C172 C 0.09427 0.58356 0.30704 0.0
N173 N 0.10008 0.52886 0.35193 0.0
C174 C 0.14229 0.49043 0.34307 0.0
C175 C 0.10094 0.49003 0.32247 0.0
C176 C 0.08058 0.50936 0.32726 0.0
C177 C 0.16166 0.51004 0.36842 0.0
C178 C 0.14015 0.52881 0.37243 0.0
N179 N 0.04369 0.58498 0.36394 0.0
C180 C 0.99836 0.61426 0.34284 0.0
C181 C 0.01247 0.62943 0.3713 0.0
C182 C 0.04082 0.62127 0.39622 0.0
C183 C 0.05591 0.59923 0.39208 0.0
C184 C 0.01382 0.59211 0.33976 0.0
H185 H 0.07819 0.59459 0.41199 0.0
H186 H 0.00164 0.58137 0.31747 0.0
H187 H 0.0492 0.50825 0.31066 0.0
H188 H 0.15663 0.5431 0.39232 0.0
C189 C 0.14676 0.578 0.42687 0.0
C190 C 0.13349 0.60304 0.32738 0.0
C191 C 0.01301 0.5075 0.38708 0.0
C192 C 0.99545 0.53658 0.28942 0.0
H193 H 0.2111 0.63422 0.37487 0.0
H194 H 0.21846 0.62114 0.42982 0.0
H195 H 0.13109 0.54906 0.47367 0.0
H196 H 0.0572 0.51042 0.45132 0.0
H197 H 0.92925 0.48177 0.34091 0.0
H198 H 0.91908 0.49813 0.2873 0.0
H199 H 0.01732 0.55887 0.24102 0.0
H200 H 0.09332 0.59542 0.26219 0.0
H201 H 0.08467 0.47518 0.30247 0.0
H202 H 0.19323 0.51079 0.3854 0.0
H203 H 0.97555 0.6195 0.32297 0.0
H204 H 0.05262 0.6324 0.41876 0.0
C205 C 0.08613 0.5843 0.77262 0.0
C206 C 0.13001 0.59711 0.78817 0.0
C207 C 0.14142 0.58867 0.81607 0.0
C208 C 0.10409 0.57132 0.81605 0.0
N209 N 0.06958 0.56785 0.78962 0.0
Co210 Co 0.00883 0.54479 0.77988 0.0
N211 N 0.02435 0.5351 0.82226 0.0
C212 C 0.063 0.54422 0.84577 0.0
C213 C 0.06365 0.53392 0.87209 0.0
C214 C 0.02317 0.51691 0.86489 0.0
C215 C 1.00022 0.51783 0.83445 0.0
N216 N 0.9484 0.52115 0.76997 0.0
C217 C 0.93231 0.50438 0.78691 0.0
C218 C 0.88927 0.49024 0.77099 0.0
C219 C 0.87787 0.49809 0.74272 0.0
C220 C 0.91451 0.51644 0.74303 0.0
N221 N 0.99306 0.55517 0.73777 0.0
C222 C 0.95392 0.54682 0.71459 0.0
C223 C 0.95245 0.55858 0.68895 0.0
C224 C 0.9928 0.57586 0.69637 0.0
C225 C 0.01654 0.5736 0.72621 0.0
N226 N 0.02634 0.51395 0.76661 0.0
C227 C 0.05114 0.46987 0.74836 0.0
C228 C 0.01467 0.47696 0.72922 0.0
C229 C 0.00287 0.4988 0.73877 0.0
C230 C 0.07469 0.48516 0.77687 0.0
C231 C 0.06202 0.50693 0.78536 0.0
N232 N 0.9913 0.57556 0.7931 0.0
C233 C 0.94017 0.60251 0.7848 0.0
C234 C 0.96799 0.62036 0.81073 0.0
C235 C 0.0074 0.61526 0.82788 0.0
C236 C 0.01839 0.59302 0.81866 0.0
C237 C 0.95225 0.58033 0.77656 0.0
H238 H 0.04926 0.59059 0.83239 0.0
H239 H 0.92964 0.56747 0.75659 0.0
H240 H 0.97463 0.50299 0.72318 0.0
H241 H 0.08156 0.51767 0.80732 0.0
C242 C 0.09922 0.56044 0.84156 0.0
C243 C 0.06065 0.59011 0.74294 0.0
C244 C 0.95719 0.5002 0.81747 0.0
C245 C 0.91866 0.52882 0.71813 0.0
H246 H 0.15131 0.61178 0.78067 0.0
H247 H 0.17268 0.59534 0.83466 0.0
H248 H 0.09084 0.53754 0.89359 0.0
H249 H 0.01221 0.50452 0.88 0.0
H250 H 0.86865 0.47541 0.77887 0.0
H251 H 0.84693 0.49079 0.72395 0.0
H252 H 0.92497 0.55546 0.66769 0.0
H253 H 0.00338 0.58906 0.68176 0.0
H254 H 0.99549 0.46595 0.70678 0.0
H255 H 0.10265 0.48024 0.79291 0.0
H256 H 0.90908 0.60555 0.77096 0.0
H257 H 0.03028 0.62876 0.84794 0.0
C258 C 0.28276 0.98735 0.50388 0.0
C259 C 0.32223 0.98468 0.52388 0.0
C260 C 0.3543 0.00189 0.51754 0.0
C261 C 0.33264 0.01402 0.49416 0.0
N262 N 0.28863 0.00535 0.48483 0.0
Co263 Co 0.24455 0.01848 0.4525 0.0
N264 N 0.29172 0.04553 0.44512 0.0
C265 C 0.33533 0.0489 0.45826 0.0
C266 C 0.35966 0.0694 0.44913 0.0
C267 C 0.3299 0.07983 0.42901 0.0
C268 C 0.28886 0.06492 0.42688 0.0
N269 N 0.20037 0.03218 0.42087 0.0
C270 C 0.20617 0.05312 0.40533 0.0
C271 C 0.16659 0.05626 0.38599 0.0
C272 C 0.1346 0.03687 0.3898 0.0
C273 C 0.15634 0.02303 0.41109 0.0
N274 N 0.19739 0.99104 0.45946 0.0
C275 C 0.15382 0.98565 0.44405 0.0
C276 C 0.12966 0.96584 0.45419 0.0
C277 C 0.15951 0.95823 0.47764 0.0
C278 C 0.20032 0.97392 0.48044 0.0
N279 N 0.24392 0.04461 0.48393 0.0
C280 C 0.24217 0.08621 0.52317 0.0
C281 C 0.20357 0.06795 0.50413 0.0
C282 C 0.2052 0.04739 0.48503 0.0
C283 C 0.2818 0.08226 0.52347 0.0
C284 C 0.28193 0.06144 0.50389 0.0
N285 N 0.24508 0.9924 0.42058 0.0
C286 C 0.20665 0.96199 0.37371 0.0
C287 C 0.24509 0.9561 0.37436 0.0
C288 C 0.28373 0.96892 0.39849 0.0
C289 C 0.283 0.98687 0.4211 0.0
C290 C 0.20733 0.97977 0.39684 0.0
H291 H 0.31355 0.99587 0.43876 0.0
H292 H 0.1767 0.9829 0.39481 0.0
H293 H 0.17464 0.03443 0.47068 0.0
H294 H 0.31309 0.05965 0.50473 0.0
C295 C 0.35259 0.03404 0.48098 0.0
C296 C 0.24067 0.97276 0.50429 0.0
C297 C 0.24829 0.07056 0.40813 0.0
C298 C 0.13641 0.00127 0.42224 0.0
H299 H 0.32726 0.9718 0.54145 0.0
H300 H 0.38923 0.00545 0.52894 0.0
H301 H 0.39489 0.07645 0.4569 0.0
H302 H 0.33774 0.09688 0.41774 0.0
H303 H 0.16136 0.07108 0.37075 0.0
H304 H 0.09966 0.03335 0.3785 0.0
H305 H 0.09445 0.95845 0.44618 0.0
H306 H 0.15202 0.94327 0.49158 0.0
H307 H 0.17197 0.07008 0.50292 0.0
H308 H 0.31267 0.09542 0.53838 0.0
H309 H 0.17586 0.95303 0.35528 0.0
H310 H 0.31439 0.96483 0.40033 0.0
C311 C 0.56829 0.86025 0.06218 0.0
C312 C 0.56109 0.88415 0.07037 0.0
C313 C 0.59874 0.90364 0.07513 0.0
C314 C 0.62675 0.89065 0.06959 0.0
N315 N 0.60883 0.86425 0.06125 0.0
Co316 Co 0.63863 0.83816 0.05226 0.0
N317 N 0.68427 0.86663 0.04633 0.0
C318 C 0.69453 0.89273 0.0564 0.0
C319 C 0.72776 0.90758 0.04874 0.0
C320 C 0.73906 0.88963 0.03294 0.0
C321 C 0.71188 0.86478 0.0318 0.0
N322 N 0.66886 0.81223 0.04362 0.0
C323 C 0.69759 0.81489 0.02918 0.0
C324 C 0.70962 0.79143 0.02682 0.0
C325 C 0.68822 0.77378 0.04087 0.0
C326 C 0.66408 0.78726 0.05073 0.0
N327 N 0.59304 0.80954 0.05814 0.0
C328 C 0.59585 0.78472 0.06331 0.0
C329 C 0.55933 0.76926 0.06673 0.0
C330 C 0.53208 0.78547 0.06391 0.0
C331 C 0.55369 0.81007 0.05903 0.0
N332 N 0.60315 0.8342 0.00899 0.0
C333 C 0.54822 0.82825 0.94757 0.0
C334 C 0.55931 0.80628 0.96137 0.0
C335 C 0.58603 0.80961 0.99206 0.0
C336 C 0.56668 0.85342 0.96533 0.0
C337 C 0.59449 0.85599 0.99565 0.0
N338 N 0.67393 0.84214 0.09566 0.0
C339 C 0.67877 0.84567 0.14778 0.0
C340 C 0.72332 0.84677 0.158 0.0
C341 C 0.74271 0.84595 0.13613 0.0
C342 C 0.71759 0.84386 0.10518 0.0
C343 C 0.65474 0.84306 0.11672 0.0
H344 H 0.7334 0.84332 0.08892 0.0
H345 H 0.62045 0.84171 0.10986 0.0
H346 H 0.5925 0.79217 0.00213 0.0
H347 H 0.60828 0.87562 0.00848 0.0
C348 C 0.66733 0.9028 0.06785 0.0
C349 C 0.53803 0.83406 0.05897 0.0
C350 C 0.71514 0.83968 0.0188 0.0
C351 C 0.63031 0.77565 0.06062 0.0
H352 H 0.532 0.88709 0.07323 0.0
H353 H 0.60459 0.9248 0.08124 0.0
H354 H 0.74099 0.92899 0.053 0.0
H355 H 0.76443 0.89424 0.02346 0.0
H356 H 0.73112 0.78725 0.01586 0.0
H357 H 0.68835 0.75313 0.04215 0.0
H358 H 0.55282 0.74852 0.07014 0.0
H359 H 0.50032 0.77996 0.06588 0.0
H360 H 0.54739 0.78646 0.94882 0.0
H361 H 0.55906 0.87113 0.9564 0.0
H362 H 0.66224 0.84686 0.16357 0.0
H363 H 0.77684 0.84638 0.14268 0.0
C364 C 0.94334 0.06736 0.71592 0.0
C365 C 0.98351 0.0696 0.7388 0.0
C366 C 0.00828 0.09517 0.74154 0.0
C367 C 0.98202 0.10711 0.72032 0.0
N368 N 0.94246 0.09054 0.70427 0.0
Co369 Co 0.89436 0.09993 0.67231 0.0
N370 N 0.93527 0.13129 0.66638 0.0
C371 C 0.97539 0.14386 0.68636 0.0
C372 C 0.99571 0.16531 0.67587 0.0
C373 C 0.96637 0.16624 0.64761 0.0
C374 C 0.92979 0.14517 0.64245 0.0
N375 N 0.84639 0.10963 0.64049 0.0
C376 C 0.84838 0.12517 0.61852 0.0
C377 C 0.80682 0.12597 0.6 0.0
C378 C 0.77816 0.11079 0.61134 0.0
C379 C 0.8036 0.10138 0.63587 0.0
N380 N 0.85331 0.0686 0.67837 0.0
C381 C 0.80978 0.06449 0.66978 0.0
C382 C 0.78993 0.04091 0.67702 0.0
C383 C 0.82313 0.02968 0.69129 0.0
C384 C 0.86158 0.0472 0.69212 0.0
N385 N 0.88623 0.12176 0.70347 0.0
C386 C 0.87326 0.15231 0.74802 0.0
C387 C 0.87971 0.12702 0.75241 0.0
C388 C 0.88613 0.11214 0.72995 0.0
C389 C 0.87356 0.16201 0.72081 0.0
C390 C 0.88011 0.14645 0.69887 0.0
N391 N 0.90233 0.07785 0.64134 0.0
C392 C 0.87176 0.04261 0.59921 0.0
C393 C 0.91366 0.04204 0.60081 0.0
C394 C 0.94972 0.06065 0.62229 0.0
C395 C 0.94334 0.07847 0.64221 0.0
C396 C 0.86683 0.0606 0.61964 0.0
H397 H 0.97164 0.09225 0.6589 0.0
H398 H 0.83425 0.05993 0.61851 0.0
H399 H 0.89081 0.09272 0.73406 0.0
H400 H 0.88023 0.15441 0.67817 0.0
C401 C 0.99531 0.13214 0.71172 0.0
C402 C 0.90547 0.04407 0.7082 0.0
C403 C 0.88931 0.13999 0.61578 0.0
C404 C 0.78839 0.08083 0.6508 0.0
H405 H 0.99363 0.05452 0.75247 0.0
H406 H 0.04179 0.10375 0.75662 0.0
H407 H 0.02852 0.17808 0.68687 0.0
H408 H 0.97119 0.1808 0.63261 0.0
H409 H 0.79783 0.13611 0.58021 0.0
H410 H 0.74286 0.10601 0.60178 0.0
H411 H 0.75535 0.03241 0.67161 0.0
H412 H 0.81944 0.01088 0.70026 0.0
H413 H 0.87923 0.11856 0.77288 0.0
H414 H 0.86934 0.18162 0.71661 0.0
H415 H 0.84294 0.02845 0.58323 0.0
H416 H 0.98268 0.06115 0.62407 0.0
C417 C 0.38939 0.29107 0.07136 0.0
C418 C 0.3796 0.31506 0.07512 0.0
C419 C 0.40088 0.33246 0.06064 0.0
C420 C 0.42259 0.31821 0.04906 0.0
N421 N 0.4161 0.29303 0.05542 0.0
Co422 Co 0.44276 0.26588 0.04504 0.0
N423 N 0.49013 0.29343 0.03996 0.0
C424 C 0.48939 0.31862 0.0352 0.0
C425 C 0.52714 0.33311 0.03249 0.0
C426 C 0.55286 0.31585 0.03545 0.0
C427 C 0.52919 0.29164 0.03972 0.0
N428 N 0.46913 0.23856 0.03466 0.0
C429 C 0.50994 0.24129 0.03481 0.0
C430 C 0.51478 0.21702 0.02536 0.0
C431 C 0.4753 0.19862 0.01889 0.0
C432 C 0.44861 0.2126 0.0247 0.0
N433 N 0.3951 0.2385 0.04984 0.0
C434 C 0.38152 0.21264 0.03812 0.0
C435 C 0.34813 0.19868 0.04633 0.0
C436 C 0.34059 0.21704 0.06429 0.0
C437 C 0.36995 0.24113 0.06599 0.0
N438 N 0.40781 0.26381 0.00195 0.0
C439 C 0.35875 0.26082 0.93992 0.0
C440 C 0.40279 0.26074 0.94982 0.0
C441 C 0.42668 0.26249 0.98075 0.0
C442 C 0.3397 0.26216 0.96189 0.0
C443 C 0.36471 0.26351 0.99274 0.0
N444 N 0.478 0.26785 0.08798 0.0
C445 C 0.50999 0.24581 0.13025 0.0
C446 C 0.53514 0.27039 0.14779 0.0
C447 C 0.52944 0.29371 0.13516 0.0
C448 C 0.50069 0.292 0.10527 0.0
C449 C 0.48169 0.24498 0.10048 0.0
H450 H 0.49777 0.31022 0.09582 0.0
H451 H 0.46357 0.22578 0.08729 0.0
H452 H 0.46058 0.26273 0.98746 0.0
H453 H 0.34929 0.26448 0.00918 0.0
C454 C 0.45639 0.32899 0.03871 0.0
C455 C 0.37267 0.2664 0.08218 0.0
C456 C 0.54298 0.26687 0.04081 0.0
C457 C 0.40706 0.20159 0.02575 0.0
H458 H 0.35986 0.31979 0.08729 0.0
H459 H 0.40251 0.35341 0.06031 0.0
H460 H 0.53567 0.35397 0.02982 0.0
H461 H 0.58515 0.32052 0.03433 0.0
H462 H 0.54359 0.21311 0.02299 0.0
H463 H 0.4675 0.17747 0.01171 0.0
H464 H 0.33282 0.17748 0.04138 0.0
H465 H 0.31672 0.2132 0.07514 0.0
H466 H 0.4189 0.2592 0.93383 0.0
H467 H 0.30596 0.26263 0.95548 0.0
H468 H 0.51265 0.22728 0.13927 0.0
H469 H 0.54833 0.31315 0.14778 0.0
H470 H 0.21802 0.3447 0.32707 0.0
H471 H 0.22849 0.49925 0.35103 0.0
H472 H 0.33742 0.4081 0.35924 0.0
H473 H 0.10874 0.43649 0.32494 0.0
H474 H 0.26766 0.46613 0.34817 0.0
H475 H 0.17629 0.37797 0.31982 0.0
C476 C 0.23543 0.36562 0.33218 0.0
C477 C 0.28128 0.37366 0.34404 0.0
C478 C 0.23278 0.45956 0.34289 0.0
C479 C 0.23381 0.41178 0.33612 0.0
C480 C 0.21042 0.47846 0.34464 0.0
C481 C 0.16538 0.47059 0.33861 0.0
C482 C 0.21005 0.43247 0.33514 0.0
C483 C 0.14346 0.44343 0.32975 0.0
C484 C 0.21161 0.38459 0.32822 0.0
C485 C 0.30214 0.40102 0.35053 0.0
N486 N 0.16609 0.4253 0.32855 0.0
N487 N 0.27828 0.41906 0.34666 0.0
H488 H 0.24054 0.72194 0.71309 0.0
H489 H 0.03485 0.6355 0.74341 0.0
H490 H 0.14139 0.75469 0.72629 0.0
H491 H 0.12442 0.60129 0.71869 0.0
H492 H 0.06942 0.67881 0.73244 0.0
H493 H 0.19536 0.67716 0.71069 0.0
C494 C 0.20906 0.71966 0.71522 0.0
C495 C 0.19482 0.74205 0.72012 0.0
C496 C 0.08123 0.66181 0.72899 0.0
C497 C 0.14299 0.69092 0.71752 0.0
C498 C 0.06143 0.63717 0.73517 0.0
C499 C 0.07734 0.61517 0.73217 0.0
C500 C 0.11739 0.66438 0.72003 0.0
C501 C 0.11169 0.61804 0.72145 0.0
C502 C 0.1832 0.69411 0.71373 0.0
C503 C 0.15354 0.73798 0.72235 0.0
N504 N 0.13104 0.64234 0.71613 0.0
N505 N 0.12931 0.71292 0.72138 0.0
H506 H 0.91309 0.75283 0.4281 0.0
H507 H 0.00935 0.66921 0.33532 0.0
H508 H 0.96958 0.78544 0.36379 0.0
H509 H 0.98536 0.64578 0.41574 0.0
H510 H 0.98944 0.71049 0.34272 0.0
H511 H 0.93553 0.71248 0.42206 0.0
C512 C 0.93075 0.75173 0.41302 0.0
C513 C 0.9395 0.77274 0.39649 0.0
C514 C 0.98856 0.69632 0.35875 0.0
C515 C 0.96424 0.72607 0.38886 0.0
C516 C 0.99953 0.67267 0.35439 0.0
C517 C 0.9989 0.65403 0.37492 0.0
C518 C 0.97643 0.70126 0.38365 0.0
C519 C 0.98658 0.65971 0.39951 0.0
C520 C 0.94323 0.72853 0.40941 0.0
C521 C 0.96155 0.7697 0.37671 0.0
N522 N 0.97568 0.68276 0.40313 0.0
N523 N 0.97294 0.74676 0.37333 0.0
H524 H 0.85905 0.37912 0.91508 0.0
H525 H 0.97793 0.4542 0.80966 0.0
H526 H 0.93839 0.3469 0.87631 0.0
H527 H 0.90662 0.4902 0.85221 0.0
H528 H 0.96097 0.41387 0.83269 0.0
H529 H 0.8749 0.41985 0.89226 0.0
C530 C 0.88011 0.38073 0.90202 0.0
C531 C 0.89717 0.35954 0.89738 0.0
C532 C 0.94874 0.43047 0.83694 0.0
C533 C 0.9149 0.40576 0.87094 0.0
C534 C 0.95821 0.45331 0.82365 0.0
C535 C 0.94323 0.47512 0.82903 0.0
C536 C 0.92425 0.42956 0.85584 0.0
C537 C 0.91829 0.47348 0.84751 0.0
C538 C 0.88887 0.40386 0.88882 0.0
C539 C 0.92393 0.36255 0.88003 0.0
N540 N 0.90957 0.45102 0.86037 0.0
N541 N 0.93182 0.38515 0.86739 0.0
H542 H 0.31759 0.19358 0.30454 0.0
H543 H 0.22612 0.11557 0.42014 0.0
H544 H 0.23826 0.22241 0.34637 0.0
H545 H 0.27399 0.07904 0.35976 0.0
H546 H 0.23222 0.15565 0.39474 0.0
H547 H 0.30382 0.15204 0.32566 0.0
C548 C 0.2968 0.1911 0.31784 0.0
C549 C 0.27901 0.21162 0.32361 0.0
C550 C 0.24116 0.13883 0.38691 0.0
C551 C 0.26397 0.16416 0.34849 0.0
C552 C 0.23771 0.11608 0.40139 0.0
C553 C 0.24994 0.09433 0.39202 0.0
C554 C 0.25731 0.13977 0.36313 0.0
C555 C 0.26464 0.09565 0.36765 0.0
C556 C 0.28918 0.16738 0.33005 0.0
C557 C 0.25321 0.20736 0.34166 0.0
N558 N 0.26828 0.11812 0.35416 0.0
N559 N 0.24666 0.18417 0.3536 0.0
H560 H 0.35199 0.76891 0.76692 0.0
H561 H 0.54128 0.86464 0.90593 0.0
H562 H 0.34111 0.84671 0.79301 0.0
H563 H 0.48124 0.78395 0.91507 0.0
H564 H 0.48432 0.85954 0.85571 0.0
H565 H 0.4176 0.77587 0.8126 0.0
C566 C 0.3633 0.78752 0.78195 0.0
C567 C 0.33988 0.80695 0.7762 0.0
C568 C 0.48431 0.84299 0.86882 0.0
C569 C 0.41629 0.81533 0.8277 0.0
C570 C 0.5165 0.84586 0.89771 0.0
C571 C 0.51634 0.82483 0.91552 0.0
C572 C 0.45256 0.81868 0.85712 0.0
C573 C 0.48382 0.80071 0.90251 0.0
C574 C 0.40097 0.79147 0.80786 0.0
C575 C 0.35771 0.83111 0.79611 0.0
N576 N 0.45343 0.7983 0.87414 0.0
N577 N 0.39476 0.83457 0.82104 0.0
H578 H 0.96144 0.89562 0.55194 0.0
H579 H 0.86679 0.02224 0.54045 0.0
H580 H 0.87021 0.90983 0.46844 0.0
H581 H 0.97317 0.01277 0.61838 0.0
H582 H 0.87092 0.98312 0.51216 0.0
H583 H 0.97017 0.94033 0.57511 0.0
C584 C 0.94361 0.90836 0.53841 0.0
C585 C 0.91478 0.89902 0.50837 0.0
C586 C 0.89375 0.98983 0.53531 0.0
C587 C 0.9241 0.95016 0.53481 0.0
C588 C 0.89128 0.01209 0.55151 0.0
C589 C 0.91945 0.02069 0.58193 0.0
C590 C 0.92429 0.97589 0.54972 0.0
C591 C 0.95096 0.007 0.59495 0.0
C592 C 0.94862 0.9339 0.5516 0.0
C593 C 0.89276 0.91635 0.49169 0.0
N594 N 0.95216 0.98513 0.57891 0.0
N595 N 0.89737 0.94099 0.50528 0.0
H596 H 0.75071 0.30423 0.97302 0.0
H597 H 0.62088 0.26582 0.08383 0.0
H598 H 0.80887 0.27713 0.05905 0.0
H599 H 0.55851 0.2695 0.98833 0.0
H600 H 0.69086 0.27082 0.0765 0.0
H601 H 0.68057 0.29256 0.97915 0.0
C602 C 0.74875 0.29543 0.99301 0.0
C603 C 0.78603 0.29155 0.01546 0.0
C604 C 0.66176 0.27025 0.05711 0.0
C605 C 0.70542 0.27882 0.02303 0.0
C606 C 0.62208 0.26742 0.06132 0.0
C607 C 0.5845 0.26742 0.03663 0.0
C608 C 0.66352 0.27339 0.02808 0.0
C609 C 0.58714 0.26954 0.00785 0.0
C610 C 0.70857 0.28893 0.99659 0.0
C611 C 0.78128 0.28081 0.04131 0.0
N612 N 0.62611 0.27269 0.00439 0.0
N613 N 0.74177 0.27498 0.04449 0.0
H614 H 0.22499 0.92758 0.67458 0.0
H615 H 0.22897 0.91933 0.50585 0.0
H616 H 0.21661 0.85466 0.62347 0.0
H617 H 0.24903 0.99269 0.5607 0.0
H618 H 0.22571 0.89511 0.54889 0.0
H619 H 0.23577 0.95186 0.63357 0.0
C620 C 0.2256 0.91671 0.65474 0.0
C621 C 0.21962 0.88904 0.65234 0.0
C622 C 0.23096 0.91651 0.5516 0.0
C623 C 0.23187 0.91669 0.6052 0.0
C624 C 0.23269 0.93022 0.52708 0.0
C625 C 0.23895 0.95783 0.53 0.0
C626 C 0.23545 0.93063 0.57907 0.0
C627 C 0.24391 0.97131 0.55777 0.0
C628 C 0.23188 0.93058 0.63136 0.0
C629 C 0.22135 0.876 0.62633 0.0
N630 N 0.24187 0.95756 0.58125 0.0
N631 N 0.22694 0.88991 0.60364 0.0
H632 H 0.80215 0.83207 0.35038 0.0
H633 H 0.8103 0.87207 0.1905 0.0
H634 H 0.92006 0.84647 0.33047 0.0
H635 H 0.69473 0.82431 0.20157 0.0
H636 H 0.85126 0.87233 0.24455 0.0
H637 H 0.76261 0.84019 0.29878 0.0
C638 C 0.81987 0.83756 0.33535 0.0
C639 C 0.8643 0.83853 0.34453 0.0
C640 C 0.81683 0.862 0.23503 0.0
C641 C 0.81944 0.84758 0.28565 0.0
C642 C 0.79342 0.86162 0.20411 0.0
C643 C 0.74878 0.84808 0.19113 0.0
C644 C 0.7954 0.8491 0.25327 0.0
C645 C 0.72873 0.83547 0.21037 0.0
C646 C 0.79728 0.84192 0.30589 0.0
C647 C 0.8857 0.84539 0.32409 0.0
N648 N 0.75214 0.83632 0.24038 0.0
N649 N 0.86303 0.84957 0.29552 0.0
H650 H 0.80672 0.27104 0.84163 0.0
H651 H 0.9148 0.15794 0.81004 0.0
H652 H 0.90178 0.24428 0.9124 0.0
H653 H 0.81638 0.18347 0.74025 0.0
H654 H 0.90492 0.18581 0.84861 0.0
H655 H 0.80327 0.23514 0.80519 0.0
C656 C 0.82631 0.25725 0.84954 0.0
C657 C 0.85487 0.26069 0.87992 0.0
C658 C 0.88526 0.18517 0.82488 0.0
C659 C 0.85175 0.21986 0.83834 0.0
C660 C 0.89078 0.16919 0.80282 0.0
C661 C 0.86661 0.1685 0.77179 0.0
C662 C 0.85543 0.20066 0.81589 0.0
C663 C 0.83634 0.18377 0.76382 0.0
C664 C 0.82446 0.23682 0.82875 0.0
C665 C 0.87932 0.24223 0.88915 0.0
N666 N 0.8318 0.19931 0.7857 0.0
N667 N 0.8777 0.2228 0.86831 0.0
H668 H 0.35183 0.23478 0.25474 0.0
H669 H 0.30611 0.28312 0.09115 0.0
H670 H 0.27638 0.29132 0.22531 0.0
H671 H 0.41193 0.24871 0.13484 0.0
H672 H 0.28875 0.28282 0.1376 0.0
H673 H 0.36771 0.23566 0.20809 0.0
C674 C 0.3383 0.24723 0.23828 0.0
C675 C 0.31253 0.26289 0.24377 0.0
C676 C 0.31597 0.27555 0.13708 0.0
C677 C 0.33086 0.26414 0.19038 0.0
C678 C 0.32605 0.27591 0.11074 0.0
C679 C 0.36116 0.26657 0.10968 0.0
C680 C 0.34069 0.26525 0.16214 0.0
C681 C 0.38487 0.25632 0.13505 0.0
C682 C 0.34766 0.24788 0.21178 0.0
C683 C 0.29649 0.27903 0.22194 0.0
N684 N 0.3742 0.25592 0.16027 0.0
N685 N 0.30574 0.27915 0.19606 0.0
H686 H 0.91932 0.77514 0.81363 0.0
H687 H 0.97663 0.64112 0.8675 0.0
H688 H 0.9348 0.75475 0.9037 0.0
H689 H 0.93438 0.6549 0.77358 0.0
H690 H 0.96218 0.68273 0.88154 0.0
H691 H 0.92529 0.73121 0.79867 0.0
C692 C 0.92389 0.76134 0.83022 0.0
C693 C 0.92683 0.76859 0.85998 0.0
C694 C 0.95575 0.67655 0.85783 0.0
C695 C 0.93375 0.71831 0.84308 0.0
C696 C 0.96421 0.65289 0.84984 0.0
C697 C 0.95683 0.64462 0.81935 0.0
C698 C 0.94025 0.69219 0.83521 0.0
C699 C 0.94021 0.66044 0.79732 0.0
C700 C 0.92708 0.73623 0.82165 0.0
C701 C 0.93217 0.74986 0.88049 0.0
N702 N 0.93282 0.68357 0.80572 0.0
N703 N 0.93586 0.72563 0.87174 0.0
H704 H 0.82969 0.36674 0.39596 0.0
H705 H 0.04687 0.46492 0.39236 0.0
H706 H 0.94023 0.34083 0.39264 0.0
H707 H 0.94025 0.49154 0.40163 0.0
H708 H 0.0127 0.41999 0.39967 0.0
H709 H 0.87338 0.41299 0.40516 0.0
C710 C 0.86337 0.3708 0.39759 0.0
C711 C 0.88121 0.34992 0.39322 0.0
C712 C 0.99699 0.43568 0.40057 0.0
C713 C 0.93135 0.4028 0.40351 0.0
C714 C 0.01657 0.46126 0.39649 0.0
C715 C 0.99591 0.48159 0.39614 0.0
C716 C 0.95631 0.43048 0.40405 0.0
C717 C 0.9568 0.47614 0.40157 0.0
C718 C 0.88833 0.3972 0.40289 0.0
C719 C 0.92517 0.35628 0.39597 0.0
N720 N 0.93789 0.45097 0.4049 0.0
N721 N 0.94853 0.38215 0.4005 0.0
H722 H 0.06836 0.31974 0.67008 0.0
H723 H 0.13436 0.46555 0.76046 0.0
H724 H 0.18927 0.35352 0.74563 0.0
H725 H 0.99932 0.42163 0.71429 0.0
H726 H 0.15652 0.42686 0.7477 0.0
H727 H 0.04369 0.35926 0.67882 0.0
C728 C 0.08958 0.33548 0.68843 0.0
C729 C 0.13061 0.33336 0.70742 0.0
C730 C 0.12202 0.4257 0.74034 0.0
C731 C 0.10327 0.37838 0.71712 0.0
C732 C 0.10927 0.44776 0.74776 0.0
C733 C 0.06481 0.44682 0.73889 0.0
C734 C 0.09023 0.40249 0.72358 0.0
C735 C 0.03396 0.42337 0.72153 0.0
C736 C 0.07555 0.35788 0.69344 0.0
C737 C 0.15712 0.35425 0.7308 0.0
N738 N 0.04724 0.40207 0.71449 0.0
N739 N 0.14308 0.37589 0.73491 0.0
H740 H 0.25718 0.71574 0.23276 0.0
H741 H 0.11689 0.65105 0.331 0.0
H742 H 0.16982 0.7517 0.25855 0.0
H743 H 0.18959 0.60888 0.29654 0.0
H744 H 0.1412 0.6897 0.30761 0.0
H745 H 0.23658 0.67724 0.25783 0.0
C746 C 0.23359 0.7155 0.24357 0.0
C747 C 0.21557 0.73711 0.24383 0.0
C748 C 0.15212 0.6721 0.30522 0.0
C749 C 0.19227 0.69341 0.27274 0.0
C750 C 0.13844 0.65019 0.31871 0.0
C751 C 0.15152 0.62708 0.31559 0.0
C752 C 0.17903 0.67078 0.28847 0.0
C753 C 0.17912 0.62658 0.29936 0.0
C754 C 0.22205 0.69362 0.258 0.0
C755 C 0.18532 0.7358 0.25832 0.0
N756 N 0.19194 0.64815 0.28626 0.0
N757 N 0.17477 0.71442 0.27221 0.0
H758 H 0.92539 0.9283 0.83836 0.0
H759 H 0.88468 0.03404 0.75801 0.0
H760 H 0.01598 0.92598 0.7931 0.0
H761 H 0.94065 0.00403 0.69875 0.0
H762 H 0.90061 0.99947 0.78996 0.0
H763 H 0.89713 0.95946 0.80518 0.0
C764 C 0.93943 0.93442 0.82148 0.0
C765 C 0.97352 0.92475 0.81882 0.0
C766 C 0.90829 0.99972 0.76955 0.0
C767 C 0.94242 0.96134 0.78132 0.0
C768 C 0.8993 0.01956 0.7514 0.0
C769 C 0.91057 0.0213 0.72552 0.0
C770 C 0.92895 0.98158 0.76176 0.0
C771 C 0.93086 0.00287 0.71831 0.0
C772 C 0.9237 0.95259 0.80277 0.0
C773 C 0.9904 0.93338 0.79649 0.0
N774 N 0.93962 0.9838 0.73646 0.0
N775 N 0.97473 0.95119 0.77868 0.0
H776 H 0.7229 0.31763 0.3331 0.0
H777 H 0.59094 0.23877 0.16484 0.0
H778 H 0.76048 0.25566 0.2934 0.0
H779 H 0.55744 0.30508 0.19988 0.0
H780 H 0.64925 0.24231 0.2138 0.0
H781 H 0.6589 0.3114 0.28625 0.0
C782 C 0.71767 0.30268 0.3146 0.0
C783 C 0.74718 0.28714 0.31727 0.0
C784 C 0.62907 0.25604 0.2109 0.0
C785 C 0.67388 0.27979 0.2637 0.0
C786 C 0.59545 0.25388 0.18297 0.0
C787 C 0.56912 0.27163 0.1782 0.0
C788 C 0.63668 0.27614 0.23438 0.0
C789 C 0.57724 0.29116 0.20243 0.0
C790 C 0.68105 0.29907 0.28792 0.0
C791 C 0.73839 0.26783 0.29267 0.0
N792 N 0.61037 0.29294 0.22946 0.0
N793 N 0.70269 0.26479 0.26696 0.0
H794 H 0.15496 0.20117 0.6082 0.0
H795 H 0.29467 0.13706 0.53328 0.0
H796 H 0.26865 0.24615 0.59289 0.0
H797 H 0.18604 0.09014 0.5529 0.0
H798 H 0.28809 0.1768 0.55822 0.0
H799 H 0.16783 0.15996 0.59095 0.0
C800 C 0.18282 0.20237 0.60147 0.0
C801 C 0.21047 0.22718 0.60166 0.0
C802 C 0.26584 0.1578 0.55729 0.0
C803 C 0.22522 0.18017 0.58172 0.0
C804 C 0.26983 0.13499 0.54324 0.0
C805 C 0.24079 0.11011 0.54084 0.0
C806 C 0.2324 0.1559 0.56895 0.0
C807 C 0.20872 0.10892 0.55374 0.0
C808 C 0.19005 0.17886 0.59152 0.0
C809 C 0.24592 0.22753 0.59251 0.0
N810 N 0.2052 0.1315 0.56705 0.0
N811 N 0.25211 0.20445 0.5828 0.0
H812 H 0.3632 0.79545 0.15529 0.0
H813 H 0.45324 0.82867 0.02207 0.0
H814 H 0.28152 0.80779 0.06672 0.0
H815 H 0.53651 0.83521 0.11597 0.0
H816 H 0.38951 0.82155 0.03761 0.0
H817 H 0.42706 0.81089 0.14149 0.0
C818 C 0.35863 0.8018 0.13311 0.0
C819 C 0.31667 0.80011 0.11211 0.0
C820 C 0.42177 0.82486 0.05487 0.0
C821 C 0.38992 0.81725 0.09584 0.0
C822 C 0.45792 0.82893 0.04597 0.0
C823 C 0.49968 0.83249 0.06787 0.0
C824 C 0.42771 0.82406 0.0858 0.0
C825 C 0.50455 0.83254 0.09855 0.0
C826 C 0.3952 0.81046 0.12515 0.0
C827 C 0.31303 0.80819 0.08347 0.0
N828 N 0.46892 0.82814 0.10661 0.0
N829 N 0.34909 0.81615 0.07608 0.0
H830 H 0.94555 0.19821 0.46133 0.0
H831 H 0.85263 0.18054 0.59574 0.0
H832 H 0.83405 0.22488 0.46146 0.0
H833 H 0.92881 0.13151 0.57636 0.0
H834 H 0.85399 0.20282 0.55117 0.0
H835 H 0.94875 0.17968 0.50845 0.0
C836 C 0.92175 0.20024 0.47122 0.0
C837 C 0.88912 0.2129 0.45707 0.0
C838 C 0.8702 0.18709 0.55657 0.0
C839 C 0.89319 0.19206 0.51139 0.0
C840 C 0.86914 0.17429 0.58177 0.0
C841 C 0.88939 0.15363 0.58889 0.0
C842 C 0.89259 0.17956 0.53889 0.0
C843 C 0.91206 0.147 0.57107 0.0
C844 C 0.92373 0.18971 0.49819 0.0
C845 C 0.85999 0.21552 0.47155 0.0
N846 N 0.91299 0.1599 0.54679 0.0
N847 N 0.86262 0.2051 0.49784 0.0
H848 H 0.15453 0.25639 0.76735 0.0
H849 H 0.38785 0.2842 0.89717 0.0
H850 H 0.27451 0.28068 0.75055 0.0
H851 H 0.27186 0.23602 0.90721 0.0
H852 H 0.34637 0.28312 0.84346 0.0
H853 H 0.19592 0.24812 0.81839 0.0
C854 C 0.18952 0.2595 0.77428 0.0
C855 C 0.21124 0.26928 0.75484 0.0
C856 C 0.33006 0.27257 0.85734 0.0
C857 C 0.25877 0.26043 0.81319 0.0
C858 C 0.35379 0.27308 0.8881 0.0
C859 C 0.33349 0.2601 0.90696 0.0
C860 C 0.2854 0.25936 0.84522 0.0
C861 C 0.28884 0.24668 0.89379 0.0
C862 C 0.2131 0.25481 0.80335 0.0
C863 C 0.25653 0.27298 0.76479 0.0
N864 N 0.26622 0.24681 0.86378 0.0
N865 N 0.27891 0.26893 0.79347 0.0
H866 H 0.30856 0.856 0.25278 0.0
H867 H 0.18178 0.90991 0.34664 0.0
H868 H 0.17567 0.81944 0.24339 0.0
H869 H 0.30643 0.9563 0.34785 0.0
H870 H 0.17958 0.87742 0.30752 0.0
H871 H 0.30891 0.89426 0.28555 0.0
C872 C 0.27926 0.85638 0.25712 0.0
C873 C 0.24212 0.83466 0.24569 0.0
C874 C 0.20738 0.89476 0.31611 0.0
C875 C 0.24238 0.87765 0.28317 0.0
C876 C 0.20856 0.91348 0.33846 0.0
C877 C 0.24419 0.9361 0.35052 0.0
C878 C 0.24231 0.8983 0.30577 0.0
C879 C 0.27848 0.93906 0.33946 0.0
C880 C 0.27951 0.87803 0.2759 0.0
C881 C 0.20503 0.83581 0.25203 0.0
N882 N 0.27678 0.92031 0.31777 0.0
N883 N 0.20624 0.85677 0.27053 0.0
H884 H 0.84057 0.85583 0.88508 0.0
H885 H 0.79572 0.83051 0.03836 0.0
H886 H 0.89907 0.80522 0.9471 0.0
H887 H 0.70194 0.85106 0.96091 0.0
H888 H 0.84211 0.82876 0.00864 0.0
H889 H 0.79683 0.86149 0.91594 0.0
C890 C 0.8443 0.84604 0.90527 0.0
C891 C 0.87319 0.82992 0.91354 0.0
C892 C 0.81138 0.83363 0.99811 0.0
C893 C 0.82395 0.83651 0.9489 0.0
C894 C 0.78502 0.83461 0.01501 0.0
C895 C 0.74464 0.84021 0.00162 0.0
C896 C 0.79767 0.8389 0.96783 0.0
C897 C 0.73262 0.84621 0.97169 0.0
C898 C 0.81929 0.84918 0.92273 0.0
C899 C 0.87679 0.81758 0.9398 0.0
N900 N 0.759 0.84532 0.95566 0.0
N901 N 0.8526 0.82123 0.95662 0.0
loop_
_geom_bond_atom_site_label_1
_geom_bond_atom_site_label_2
_geom_bond_distance
_geom_bond_site_symmetry_2
_ccdc_geom_bond_type
H0 C1 0.949 . S
C1 H0 0.949 . S
C1 C2 1.395 . S
C1 C3 1.391 . S
C2 C1 1.395 . S
C2 C5 1.390 . S
C3 C1 1.391 . S
C3 C7 1.387 . S
C3 C8 1.491 . S
H4 C5 0.950 . S
C5 C2 1.390 . S
C5 H4 0.950 . S
C5 C6 1.378 . S
C6 C5 1.378 . S
C6 C7 1.409 . S
C7 C3 1.387 . S
C7 C6 1.409 . S
C7 H9 0.951 . S
C8 C3 1.491 . S
C8 C10 1.382 . S
C8 C12 1.404 . S
H9 C7 0.951 . S
C10 C8 1.382 . S
C10 C11 1.390 . S
C10 H15 0.949 . S
C11 C10 1.390 . S
C11 C16 1.399 . S
C12 C8 1.404 . S
C12 H13 0.950 . S
C12 C14 1.375 . S
H13 C12 0.950 . S
C14 C12 1.375 . S
C14 C16 1.382 . S
C14 H18 0.950 . S
H15 C10 0.949 . S
C16 C11 1.399 . S
C16 C14 1.382 . S
C16 H17 0.952 . S
H17 C16 0.952 . S
H18 C14 0.950 . S
H19 C20 0.949 . S
C20 H19 0.949 . S
C20 C21 1.395 . S
C20 C22 1.391 . S
C21 C20 1.395 . S
C21 C24 1.390 . S
C22 C20 1.391 . S
C22 C26 1.387 . S
C22 C27 1.491 . S
H23 C24 0.950 . S
C24 C21 1.390 . S
C24 H23 0.950 . S
C24 C25 1.378 . S
C25 C24 1.378 . S
C25 C26 1.409 . S
C26 C22 1.387 . S
C26 C25 1.409 . S
C26 H28 0.951 . S
C27 C22 1.491 . S
C27 C29 1.382 . S
C27 C31 1.404 . S
H28 C26 0.951 . S
C29 C27 1.382 . S
C29 C30 1.390 . S
C29 H34 0.949 . S
C30 C29 1.390 . S
C30 C35 1.399 . S
C31 C27 1.404 . S
C31 H32 0.950 . S
C31 C33 1.375 . S
H32 C31 0.950 . S
C33 C31 1.375 . S
C33 C35 1.382 . S
C33 H37 0.950 . S
H34 C29 0.949 . S
C35 C30 1.399 . S
C35 C33 1.382 . S
C35 H36 0.952 . S
H36 C35 0.952 . S
H37 C33 0.950 . S
H38 C39 0.949 . S
C39 H38 0.949 . S
C39 C40 1.395 . S
C39 C41 1.391 . S
C40 C39 1.395 . S
C40 C43 1.390 . S
C41 C39 1.391 . S
C41 C45 1.387 . S
C41 C46 1.491 . S
H42 C43 0.950 . S
C43 C40 1.390 . S
C43 H42 0.950 . S
C43 C44 1.378 . S
C44 C43 1.378 . S
C44 C45 1.409 . S
C45 C41 1.387 . S
C45 C44 1.409 . S
C45 H47 0.951 . S
C46 C41 1.491 . S
C46 C48 1.382 . S
C46 C50 1.404 . S
H47 C45 0.951 . S
C48 C46 1.382 . S
C48 C49 1.390 . S
C48 H53 0.949 . S
C49 C48 1.390 . S
C49 C54 1.399 . S
C50 C46 1.404 . S
C50 H51 0.950 . S
C50 C52 1.375 . S
H51 C50 0.950 . S
C52 C50 1.375 . S
C52 C54 1.382 . S
C52 H56 0.950 . S
H53 C48 0.949 . S
C54 C49 1.399 . S
C54 C52 1.382 . S
C54 H55 0.952 . S
H55 C54 0.952 . S
H56 C52 0.950 . S
H57 C58 0.949 . S
C58 H57 0.949 . S
C58 C59 1.395 . S
C58 C60 1.391 . S
C59 C58 1.395 . S
C59 C62 1.390 . S
C60 C58 1.391 . S
C60 C64 1.387 . S
C60 C65 1.491 . S
H61 C62 0.950 . S
C62 C59 1.390 . S
C62 H61 0.950 . S
C62 C63 1.378 . S
C63 C62 1.378 . S
C63 C64 1.409 . S
C64 C60 1.387 . S
C64 C63 1.409 . S
C64 H66 0.951 . S
C65 C60 1.491 . S
C65 C67 1.382 . S
C65 C69 1.404 . S
H66 C64 0.951 . S
C67 C65 1.382 . S
C67 C68 1.390 . S
C67 H72 0.949 . S
C68 C67 1.390 . S
C68 C73 1.399 . S
C69 C65 1.404 . S
C69 H70 0.950 . S
C69 C71 1.375 . S
H70 C69 0.950 . S
C71 C69 1.375 . S
C71 C73 1.382 . S
C71 H75 0.950 1_556 S
H72 C67 0.949 . S
C73 C68 1.399 . S
C73 C71 1.382 . S
C73 H74 0.952 1_556 S
H74 C73 0.952 1_554 S
H75 C71 0.950 1_554 S
H76 C77 0.969 . S
C77 H76 0.969 . S
C77 C78 1.395 . S
C77 C79 1.391 . S
C78 C77 1.395 . S
C78 C81 1.390 . S
C79 C77 1.391 . S
C79 C83 1.387 . S
C79 C84 1.491 . S
H80 C81 0.950 . S
C81 C78 1.390 . S
C81 H80 0.950 . S
C81 C82 1.378 . S
C82 C81 1.378 . S
C82 C83 1.409 . S
C83 C79 1.387 . S
C83 C82 1.409 . S
C83 H85 0.951 . S
C84 C79 1.491 . S
C84 C86 1.382 . S
C84 C88 1.404 . S
H85 C83 0.951 . S
C86 C84 1.382 . S
C86 C87 1.390 . S
C86 H91 0.949 . S
C87 C86 1.390 . S
C87 C92 1.399 1_655 S
C88 C84 1.404 . S
C88 H89 0.950 . S
C88 C90 1.375 1_655 S
H89 C88 0.950 . S
C90 C88 1.375 1_455 S
C90 C92 1.382 . S
C90 H94 0.950 . S
H91 C86 0.949 . S
C92 C87 1.399 1_455 S
C92 C90 1.382 . S
C92 H93 0.952 . S
H93 C92 0.952 . S
H94 C90 0.950 . S
H95 C96 0.949 . S
C96 H95 0.949 . S
C96 C97 1.395 . S
C96 C98 1.391 . S
C97 C96 1.395 . S
C97 C100 1.390 . S
C98 C96 1.391 . S
C98 C102 1.387 . S
C98 C103 1.491 . S
H99 C100 0.950 . S
C100 C97 1.390 . S
C100 H99 0.950 . S
C100 C101 1.378 . S
C101 C100 1.378 . S
C101 C102 1.409 . S
C102 C98 1.387 . S
C102 C101 1.409 . S
C102 H104 0.951 . S
C103 C98 1.491 . S
C103 C105 1.382 . S
C103 C107 1.404 . S
H104 C102 0.951 . S
C105 C103 1.382 . S
C105 C106 1.390 . S
C105 H110 0.949 . S
C106 C105 1.390 . S
C106 C111 1.399 . S
C107 C103 1.404 . S
C107 H108 0.950 . S
C107 C109 1.375 . S
H108 C107 0.950 . S
C109 C107 1.375 . S
C109 C111 1.382 . S
C109 H113 0.950 . S
H110 C105 0.949 . S
C111 C106 1.399 . S
C111 C109 1.382 . S
C111 H112 0.952 . S
H112 C111 0.952 . S
H113 C109 0.950 . S
H114 C115 0.949 . S
C115 H114 0.949 . S
C115 C116 1.395 . S
C115 C117 1.391 . S
C116 C115 1.395 . S
C116 C119 1.390 . S
C117 C115 1.391 . S
C117 C121 1.387 . S
C117 C122 1.491 . S
H118 C119 0.950 . S
C119 C116 1.390 . S
C119 H118 0.950 . S
C119 C120 1.378 . S
C120 C119 1.378 . S
C120 C121 1.409 . S
C121 C117 1.387 . S
C121 C120 1.409 . S
C121 H123 0.951 . S
C122 C117 1.491 . S
C122 C124 1.382 . S
C122 C126 1.404 . S
H123 C121 0.951 . S
C124 C122 1.382 . S
C124 C125 1.390 . S
C124 H129 0.949 . S
C125 C124 1.390 . S
C125 C130 1.399 . S
C126 C122 1.404 . S
C126 H127 0.950 . S
C126 C128 1.375 . S
H127 C126 0.950 . S
C128 C126 1.375 . S
C128 C130 1.382 . S
C128 H132 0.950 . S
H129 C124 0.949 . S
C130 C125 1.399 . S
C130 C128 1.382 . S
C130 H131 0.952 . S
H131 C130 0.952 . S
H132 C128 0.950 . S
H133 C134 0.949 . S
C134 H133 0.949 . S
C134 C135 1.395 . S
C134 C136 1.391 . S
C135 C134 1.395 . S
C135 C138 1.390 . S
C136 C134 1.391 . S
C136 C140 1.387 . S
C136 C141 1.491 . S
H137 C138 0.950 . S
C138 C135 1.390 . S
C138 H137 0.950 . S
C138 C139 1.378 . S
C139 C138 1.378 . S
C139 C140 1.409 . S
C140 C136 1.387 . S
C140 C139 1.409 . S
C140 H142 0.951 . S
C141 C136 1.491 . S
C141 C143 1.382 . S
C141 C145 1.404 . S
H142 C140 0.951 . S
C143 C141 1.382 . S
C143 C144 1.390 . S
C143 H148 0.949 . S
C144 C143 1.390 . S
C144 C149 1.399 . S
C145 C141 1.404 . S
C145 H146 0.950 . S
C145 C147 1.375 . S
H146 C145 0.950 . S
C147 C145 1.375 . S
C147 C149 1.382 . S
C147 H151 0.950 . S
H148 C143 0.949 . S
C149 C144 1.399 . S
C149 C147 1.382 . S
C149 H150 0.952 . S
H150 C149 0.952 . S
H151 C147 0.950 . S
C152 C153 1.443 . S
C152 N156 1.376 . S
C152 C190 1.389 . S
C153 C152 1.443 . S
C153 C154 1.340 . S
C153 H193 0.951 . S
C154 C153 1.340 . S
C154 C155 1.439 . S
C154 H194 0.950 . S
C155 C154 1.439 . S
C155 N156 1.374 . S
C155 C189 1.395 . S
N156 C152 1.376 . S
N156 C155 1.374 . S
N156 Co157 2.008 . S
Co157 N156 2.008 . S
Co157 N158 1.995 . S
Co157 N163 2.008 1_455 S
Co157 N168 1.995 . S
Co157 N173 2.282 . S
Co157 N179 2.282 1_455 S
N158 Co157 1.995 . S
N158 C159 1.376 . S
N158 C162 1.383 1_455 S
C159 N158 1.376 . S
C159 C160 1.446 . S
C159 C189 1.391 . S
C160 C159 1.446 . S
C160 C161 1.339 . S
C160 H195 0.949 . S
C161 C160 1.339 . S
C161 C162 1.439 1_455 S
C161 H196 0.950 . S
C162 N158 1.383 1_655 S
C162 C161 1.439 1_655 S
C162 C191 1.392 . S
N163 Co157 2.008 1_655 S
N163 C164 1.376 . S
N163 C167 1.374 . S
C164 N163 1.376 . S
C164 C165 1.443 . S
C164 C191 1.389 . S
C165 C164 1.443 . S
C165 C166 1.340 . S
C165 H197 0.951 . S
C166 C165 1.340 . S
C166 C167 1.439 . S
C166 H198 0.950 . S
C167 N163 1.374 . S
C167 C166 1.439 . S
C167 C192 1.395 . S
N168 Co157 1.995 . S
N168 C169 1.377 1_455 S
N168 C172 1.383 . S
C169 N168 1.377 1_655 S
C169 C170 1.446 . S
C169 C192 1.391 . S
C170 C169 1.446 . S
C170 C171 1.339 1_655 S
C170 H199 0.949 . S
C171 C170 1.339 1_455 S
C171 C172 1.439 . S
C171 H200 0.950 . S
C172 N168 1.383 . S
C172 C171 1.439 . S
C172 C190 1.392 . S
N173 Co157 2.282 . S
N173 C176 1.332 . S
N173 C178 1.332 . S
C174 C175 1.386 . S
C174 C177 1.388 . S
C175 C174 1.386 . S
C175 C176 1.382 . S
C175 H201 0.950 . S
C176 N173 1.332 . S
C176 C175 1.382 . S
C176 H187 0.952 1_455 S
C177 C174 1.388 . S
C177 C178 1.382 . S
C177 H202 0.950 . S
C178 N173 1.332 . S
C178 C177 1.382 . S
C178 H188 0.948 . S
N179 Co157 2.282 1_655 S
N179 C183 1.332 1_655 S
N179 C184 1.332 . S
C180 C181 1.388 . S
C180 C184 1.382 . S
C180 H203 0.950 . S
C181 C180 1.388 . S
C181 C182 1.386 1_655 S
C182 C181 1.386 1_455 S
C182 C183 1.382 . S
C182 H204 0.950 . S
C183 N179 1.332 1_455 S
C183 C182 1.382 . S
C183 H185 0.952 . S
C184 N179 1.332 . S
C184 C180 1.382 . S
C184 H186 0.948 . S
H185 C183 0.952 . S
H186 C184 0.948 . S
H187 C176 0.952 1_655 S
H188 C178 0.948 . S
C189 C155 1.395 . S
C189 C159 1.391 . S
C190 C152 1.389 . S
C190 C172 1.392 . S
C191 C162 1.392 . S
C191 C164 1.389 . S
C192 C167 1.395 . S
C192 C169 1.391 . S
H193 C153 0.951 . S
H194 C154 0.950 . S
H195 C160 0.949 . S
H196 C161 0.950 . S
H197 C165 0.951 . S
H198 C166 0.950 . S
H199 C170 0.949 . S
H200 C171 0.950 . S
H201 C175 0.950 . S
H202 C177 0.950 . S
H203 C180 0.950 . S
H204 C182 0.950 . S
C205 C206 1.443 . S
C205 N209 1.376 . S
C205 C243 1.389 . S
C206 C205 1.443 . S
C206 C207 1.340 . S
C206 H246 0.951 . S
C207 C206 1.340 . S
C207 C208 1.439 . S
C207 H247 0.950 . S
C208 C207 1.439 . S
C208 N209 1.374 . S
C208 C242 1.395 . S
N209 C205 1.376 . S
N209 C208 1.374 . S
N209 Co210 2.008 . S
Co210 N209 2.008 . S
Co210 N211 1.995 . S
Co210 N216 2.008 1_455 S
Co210 N221 1.995 . S
Co210 N226 2.282 . S
Co210 N232 2.282 . S
N211 Co210 1.995 . S
N211 C212 1.376 . S
N211 C215 1.383 . S
C212 N211 1.376 . S
C212 C213 1.446 . S
C212 C242 1.391 . S
C213 C212 1.446 . S
C213 C214 1.339 . S
C213 H248 0.949 . S
C214 C213 1.339 . S
C214 C215 1.439 . S
C214 H249 0.950 . S
C215 N211 1.383 . S
C215 C214 1.439 . S
C215 C244 1.392 1_455 S
N216 Co210 2.008 1_655 S
N216 C217 1.376 . S
N216 C220 1.374 . S
C217 N216 1.376 . S
C217 C218 1.443 . S
C217 C244 1.389 . S
C218 C217 1.443 . S
C218 C219 1.340 . S
C218 H250 0.951 . S
C219 C218 1.340 . S
C219 C220 1.439 . S
C219 H251 0.950 . S
C220 N216 1.374 . S
C220 C219 1.439 . S
C220 C245 1.395 . S
N221 Co210 1.995 . S
N221 C222 1.376 1_455 S
N221 C225 1.383 . S
C222 N221 1.376 1_655 S
C222 C223 1.446 . S
C222 C245 1.391 . S
C223 C222 1.446 . S
C223 C224 1.339 1_655 S
C223 H252 0.949 . S
C224 C223 1.339 1_455 S
C224 C225 1.439 . S
C224 H253 0.950 . S
C225 N221 1.383 . S
C225 C224 1.439 . S
C225 C243 1.392 . S
N226 Co210 2.282 . S
N226 C229 1.332 . S
N226 C231 1.332 . S
C227 C228 1.386 . S
C227 C230 1.388 . S
C228 C227 1.386 . S
C228 C229 1.382 . S
C228 H254 0.950 . S
C229 N226 1.332 . S
C229 C228 1.382 . S
C229 H240 0.952 . S
C230 C227 1.388 . S
C230 C231 1.382 . S
C230 H255 0.950 . S
C231 N226 1.332 . S
C231 C230 1.382 . S
C231 H241 0.948 . S
N232 Co210 2.282 . S
N232 C236 1.332 . S
N232 C237 1.332 1_455 S
C233 C234 1.388 1_655 S
C233 C237 1.382 . S
C233 H256 0.950 . S
C234 C233 1.388 1_455 S
C234 C235 1.386 . S
C235 C234 1.386 . S
C235 C236 1.382 . S
C235 H257 0.950 . S
C236 N232 1.332 . S
C236 C235 1.382 . S
C236 H238 0.952 . S
C237 N232 1.332 1_655 S
C237 C233 1.382 . S
C237 H239 0.948 . S
H238 C236 0.952 . S
H239 C237 0.948 . S
H240 C229 0.952 . S
H241 C231 0.948 . S
C242 C208 1.395 . S
C242 C212 1.391 . S
C243 C205 1.389 . S
C243 C225 1.392 . S
C244 C215 1.392 1_655 S
C244 C217 1.389 . S
C245 C220 1.395 . S
C245 C222 1.391 . S
H246 C206 0.951 . S
H247 C207 0.950 . S
H248 C213 0.949 . S
H249 C214 0.950 . S
H250 C218 0.951 . S
H251 C219 0.950 . S
H252 C223 0.949 . S
H253 C224 0.950 . S
H254 C228 0.950 . S
H255 C230 0.950 . S
H256 C233 0.950 . S
H257 C235 0.950 . S
C258 C259 1.443 . S
C258 N262 1.376 1_565 S
C258 C296 1.389 . S
C259 C258 1.443 . S
C259 C260 1.340 1_565 S
C259 H299 0.951 . S
C260 C259 1.340 1_545 S
C260 C261 1.439 . S
C260 H300 0.950 . S
C261 C260 1.439 . S
C261 N262 1.374 . S
C261 C295 1.395 . S
N262 C258 1.376 1_545 S
N262 C261 1.374 . S
N262 Co263 2.008 . S
Co263 N262 2.008 . S
Co263 N264 1.995 . S
Co263 N269 2.008 . S
Co263 N274 1.995 1_545 S
Co263 N279 2.282 . S
Co263 N285 2.282 1_545 S
N264 Co263 1.995 . S
N264 C265 1.376 . S
N264 C268 1.383 . S
C265 N264 1.376 . S
C265 C266 1.446 . S
C265 C295 1.391 . S
C266 C265 1.446 . S
C266 C267 1.339 . S
C266 H301 0.949 . S
C267 C266 1.339 . S
C267 C268 1.439 . S
C267 H302 0.950 . S
C268 N264 1.383 . S
C268 C267 1.439 . S
C268 C297 1.392 . S
N269 Co263 2.008 . S
N269 C270 1.376 . S
N269 C273 1.374 . S
C270 N269 1.376 . S
C270 C271 1.443 . S
C270 C297 1.389 . S
C271 C270 1.443 . S
C271 C272 1.340 . S
C271 H303 0.951 . S
C272 C271 1.340 . S
C272 C273 1.439 . S
C272 H304 0.950 . S
C273 N269 1.374 . S
C273 C272 1.439 . S
C273 C298 1.395 1_545 S
N274 Co263 1.995 1_565 S
N274 C275 1.376 . S
N274 C278 1.383 . S
C275 N274 1.376 . S
C275 C276 1.446 . S
C275 C298 1.391 . S
C276 C275 1.446 . S
C276 C277 1.339 . S
C276 H305 0.949 . S
C277 C276 1.339 . S
C277 C278 1.439 . S
C277 H306 0.950 . S
C278 N274 1.383 . S
C278 C277 1.439 . S
C278 C296 1.392 . S
N279 Co263 2.282 . S
N279 C282 1.332 . S
N279 C284 1.332 . S
C280 C281 1.386 . S
C280 C283 1.388 . S
C281 C280 1.386 . S
C281 C282 1.382 . S
C281 H307 0.950 . S
C282 N279 1.332 . S
C282 C281 1.382 . S
C282 H293 0.952 . S
C283 C280 1.388 . S
C283 C284 1.382 . S
C283 H308 0.950 . S
C284 N279 1.332 . S
C284 C283 1.382 . S
C284 H294 0.948 . S
N285 Co263 2.282 1_565 S
N285 C289 1.332 . S
N285 C290 1.332 . S
C286 C287 1.388 . S
C286 C290 1.382 . S
C286 H309 0.950 . S
C287 C286 1.388 . S
C287 C288 1.386 . S
C288 C287 1.386 . S
C288 C289 1.382 . S
C288 H310 0.950 . S
C289 N285 1.332 . S
C289 C288 1.382 . S
C289 H291 0.952 1_565 S
C290 N285 1.332 . S
C290 C286 1.382 . S
C290 H292 0.948 . S
H291 C289 0.952 1_545 S
H292 C290 0.948 . S
H293 C282 0.952 . S
H294 C284 0.948 . S
C295 C261 1.395 . S
C295 C265 1.391 . S
C296 C258 1.389 . S
C296 C278 1.392 . S
C297 C268 1.392 . S
C297 C270 1.389 . S
C298 C273 1.395 1_565 S
C298 C275 1.391 . S
H299 C259 0.951 . S
H300 C260 0.950 . S
H301 C266 0.949 . S
H302 C267 0.950 . S
H303 C271 0.951 . S
H304 C272 0.950 . S
H305 C276 0.949 . S
H306 C277 0.950 . S
H307 C281 0.950 . S
H308 C283 0.950 . S
H309 C286 0.950 . S
H310 C288 0.950 . S
C311 C312 1.443 . S
C311 N315 1.376 . S
C311 C349 1.389 . S
C312 C311 1.443 . S
C312 C313 1.340 . S
C312 H352 0.951 . S
C313 C312 1.340 . S
C313 C314 1.439 . S
C313 H353 0.950 . S
C314 C313 1.439 . S
C314 N315 1.374 . S
C314 C348 1.395 . S
N315 C311 1.376 . S
N315 C314 1.374 . S
N315 Co316 2.008 . S
Co316 N315 2.008 . S
Co316 N317 2.005 . S
Co316 N322 2.008 1_554 S
Co316 N327 1.995 . S
Co316 N332 2.282 1_554 S
Co316 N338 2.282 . S
N317 Co316 2.005 . S
N317 C318 1.378 . S
N317 C321 1.368 1_554 S
C318 N317 1.378 . S
C318 C319 1.446 1_554 S
C318 C348 1.391 . S
C319 C318 1.446 1_556 S
C319 C320 1.339 . S
C319 H354 0.949 . S
C320 C319 1.339 . S
C320 C321 1.439 . S
C320 H355 0.950 . S
C321 N317 1.368 1_556 S
C321 C320 1.439 . S
C321 C350 1.392 . S
N322 Co316 2.008 1_556 S
N322 C323 1.376 . S
N322 C326 1.374 . S
C323 N322 1.376 . S
C323 C324 1.443 . S
C323 C350 1.389 . S
C324 C323 1.443 . S
C324 C325 1.340 . S
C324 H356 0.951 . S
C325 C324 1.340 . S
C325 C326 1.439 . S
C325 H357 0.950 . S
C326 N322 1.374 . S
C326 C325 1.439 . S
C326 C351 1.395 1_556 S
N327 Co316 1.995 . S
N327 C328 1.376 . S
N327 C331 1.383 . S
C328 N327 1.376 . S
C328 C329 1.446 . S
C328 C351 1.391 . S
C329 C328 1.446 . S
C329 C330 1.339 . S
C329 H358 0.949 . S
C330 C329 1.339 . S
C330 C331 1.439 . S
C330 H359 0.950 . S
C331 N327 1.383 . S
C331 C330 1.439 . S
C331 C349 1.392 . S
N332 Co316 2.282 1_556 S
N332 C335 1.332 . S
N332 C337 1.332 . S
C333 C334 1.386 . S
C333 C336 1.388 . S
C334 C333 1.386 . S
C334 C335 1.382 . S
C334 H360 0.950 . S
C335 N332 1.332 . S
C335 C334 1.382 . S
C335 H346 0.952 . S
C336 C333 1.388 . S
C336 C337 1.382 . S
C336 H361 0.950 . S
C337 N332 1.332 . S
C337 C336 1.382 . S
C337 H347 0.948 . S
N338 Co316 2.282 . S
N338 C342 1.332 . S
N338 C343 1.332 . S
C339 C340 1.388 . S
C339 C343 1.382 . S
C339 H362 0.950 . S
C340 C339 1.388 . S
C340 C341 1.386 . S
C341 C340 1.386 . S
C341 C342 1.382 . S
C341 H363 0.950 . S
C342 N338 1.332 . S
C342 C341 1.382 . S
C342 H344 0.952 . S
C343 N338 1.332 . S
C343 C339 1.382 . S
C343 H345 0.948 . S
H344 C342 0.952 . S
H345 C343 0.948 . S
H346 C335 0.952 . S
H347 C337 0.948 . S
C348 C314 1.395 . S
C348 C318 1.391 . S
C349 C311 1.389 . S
C349 C331 1.392 . S
C350 C321 1.392 . S
C350 C323 1.389 . S
C351 C326 1.395 1_554 S
C351 C328 1.391 . S
H352 C312 0.951 . S
H353 C313 0.950 . S
H354 C319 0.949 . S
H355 C320 0.950 . S
H356 C324 0.951 . S
H357 C325 0.950 . S
H358 C329 0.949 . S
H359 C330 0.950 . S
H360 C334 0.950 . S
H361 C336 0.950 . S
H362 C339 0.950 . S
H363 C341 0.950 . S
C364 C365 1.443 . S
C364 N368 1.376 . S
C364 C402 1.389 . S
C365 C364 1.443 . S
C365 C366 1.340 . S
C365 H405 0.951 . S
C366 C365 1.340 . S
C366 C367 1.439 . S
C366 H406 0.950 . S
C367 C366 1.439 . S
C367 N368 1.374 . S
C367 C401 1.395 . S
N368 C364 1.376 . S
N368 C367 1.374 . S
N368 Co369 2.008 1_455 S
Co369 N368 2.008 1_655 S
Co369 N370 1.995 1_655 S
Co369 N375 2.008 . S
Co369 N380 1.995 . S
Co369 N385 2.282 . S
Co369 N391 2.288 . S
N370 Co369 1.995 1_455 S
N370 C371 1.376 . S
N370 C374 1.383 . S
C371 N370 1.376 . S
C371 C372 1.446 . S
C371 C401 1.391 . S
C372 C371 1.446 . S
C372 C373 1.339 . S
C372 H407 0.949 . S
C373 C372 1.339 . S
C373 C374 1.439 . S
C373 H408 0.950 . S
C374 N370 1.383 . S
C374 C373 1.439 . S
C374 C403 1.392 1_455 S
N375 Co369 2.008 . S
N375 C376 1.376 . S
N375 C379 1.374 . S
C376 N375 1.376 . S
C376 C377 1.443 . S
C376 C403 1.389 . S
C377 C376 1.443 . S
C377 C378 1.340 . S
C377 H409 0.951 . S
C378 C377 1.340 . S
C378 C379 1.439 . S
C378 H410 0.950 . S
C379 N375 1.374 . S
C379 C378 1.439 . S
C379 C404 1.395 . S
N380 Co369 1.995 . S
N380 C381 1.376 . S
N380 C384 1.383 . S
C381 N380 1.376 . S
C381 C382 1.446 . S
C381 C404 1.391 . S
C382 C381 1.446 . S
C382 C383 1.339 . S
C382 H411 0.949 . S
C383 C382 1.339 . S
C383 C384 1.439 . S
C383 H412 0.950 . S
C384 N380 1.383 . S
C384 C383 1.439 . S
C384 C402 1.392 1_655 S
N385 Co369 2.282 . S
N385 C388 1.332 . S
N385 C390 1.332 1_655 S
C386 C387 1.386 . S
C386 C389 1.388 1_655 S
C387 C386 1.386 . S
C387 C388 1.382 . S
C387 H413 0.950 . S
C388 N385 1.332 . S
C388 C387 1.382 . S
C388 H399 0.952 . S
C389 C386 1.388 1_455 S
C389 C390 1.382 . S
C389 H414 0.950 . S
C390 N385 1.332 1_455 S
C390 C389 1.382 . S
C390 H400 0.948 . S
N391 Co369 2.288 . S
N391 C395 1.321 1_655 S
N391 C396 1.337 . S
C392 C393 1.388 1_655 S
C392 C396 1.382 . S
C392 H415 0.950 . S
C393 C392 1.388 1_455 S
C393 C394 1.386 . S
C394 C393 1.386 . S
C394 C395 1.382 . S
C394 H416 0.950 . S
C395 N391 1.321 1_455 S
C395 C394 1.382 . S
C395 H397 0.952 . S
C396 N391 1.337 . S
C396 C392 1.382 . S
C396 H398 0.948 . S
H397 C395 0.952 . S
H398 C396 0.948 . S
H399 C388 0.952 . S
H400 C390 0.948 . S
C401 C367 1.395 . S
C401 C371 1.391 . S
C402 C364 1.389 . S
C402 C384 1.392 1_455 S
C403 C374 1.392 1_655 S
C403 C376 1.389 . S
C404 C379 1.395 . S
C404 C381 1.391 . S
H405 C365 0.951 . S
H406 C366 0.950 . S
H407 C372 0.949 . S
H408 C373 0.950 . S
H409 C377 0.951 . S
H410 C378 0.950 . S
H411 C382 0.949 . S
H412 C383 0.950 . S
H413 C387 0.950 . S
H414 C389 0.950 . S
H415 C392 0.950 . S
H416 C394 0.950 . S
C417 C418 1.443 . S
C417 N421 1.376 . S
C417 C455 1.389 . S
C418 C417 1.443 . S
C418 C419 1.340 . S
C418 H458 0.951 . S
C419 C418 1.340 . S
C419 C420 1.439 . S
C419 H459 0.950 . S
C420 C419 1.439 . S
C420 N421 1.374 . S
C420 C454 1.395 . S
N421 C417 1.376 . S
N421 C420 1.374 . S
N421 Co422 2.008 . S
Co422 N421 2.008 . S
Co422 N423 1.995 . S
Co422 N428 2.008 . S
Co422 N433 1.995 . S
Co422 N438 2.282 . S
Co422 N444 2.282 . S
N423 Co422 1.995 . S
N423 C424 1.376 . S
N423 C427 1.383 . S
C424 N423 1.376 . S
C424 C425 1.446 . S
C424 C454 1.391 . S
C425 C424 1.446 . S
C425 C426 1.339 . S
C425 H460 0.949 . S
C426 C425 1.339 . S
C426 C427 1.439 . S
C426 H461 0.950 . S
C427 N423 1.383 . S
C427 C426 1.439 . S
C427 C456 1.392 . S
N428 Co422 2.008 . S
N428 C429 1.376 . S
N428 C432 1.374 . S
C429 N428 1.376 . S
C429 C430 1.443 . S
C429 C456 1.389 . S
C430 C429 1.443 . S
C430 C431 1.340 . S
C430 H462 0.951 . S
C431 C430 1.340 . S
C431 C432 1.439 . S
C431 H463 0.950 . S
C432 N428 1.374 . S
C432 C431 1.439 . S
C432 C457 1.395 . S
N433 Co422 1.995 . S
N433 C434 1.376 . S
N433 C437 1.383 . S
C434 N433 1.376 . S
C434 C435 1.446 . S
C434 C457 1.391 . S
C435 C434 1.446 . S
C435 C436 1.339 . S
C435 H464 0.949 . S
C436 C435 1.339 . S
C436 C437 1.439 . S
C436 H465 0.950 . S
C437 N433 1.383 . S
C437 C436 1.439 . S
C437 C455 1.392 . S
N438 Co422 2.282 . S
N438 C441 1.332 . S
N438 C443 1.332 . S
C439 C440 1.386 1_556 S
C439 C442 1.388 1_556 S
C440 C439 1.386 1_554 S
C440 C441 1.382 . S
C440 H466 0.950 1_554 S
C441 N438 1.332 . S
C441 C440 1.382 . S
C441 H452 0.952 . S
C442 C439 1.388 1_554 S
C442 C443 1.382 . S
C442 H467 0.950 1_554 S
C443 N438 1.332 . S
C443 C442 1.382 . S
C443 H453 0.948 . S
N444 Co422 2.282 . S
N444 C448 1.332 . S
N444 C449 1.332 . S
C445 C446 1.388 . S
C445 C449 1.382 . S
C445 H468 0.950 . S
C446 C445 1.388 . S
C446 C447 1.386 . S
C447 C446 1.386 . S
C447 C448 1.382 . S
C447 H469 0.950 . S
C448 N444 1.332 . S
C448 C447 1.382 . S
C448 H450 0.952 . S
C449 N444 1.332 . S
C449 C445 1.382 . S
C449 H451 0.948 . S
H450 C448 0.952 . S
H451 C449 0.948 . S
H452 C441 0.952 . S
H453 C443 0.948 . S
C454 C420 1.395 . S
C454 C424 1.391 . S
C455 C417 1.389 . S
C455 C437 1.392 . S
C456 C427 1.392 . S
C456 C429 1.389 . S
C457 C432 1.395 . S
C457 C434 1.391 . S
H458 C418 0.951 . S
H459 C419 0.950 . S
H460 C425 0.949 . S
H461 C426 0.950 . S
H462 C430 0.951 . S
H463 C431 0.950 . S
H464 C435 0.949 . S
H465 C436 0.950 . S
H466 C440 0.950 1_556 S
H467 C442 0.950 1_556 S
H468 C445 0.950 . S
H469 C447 0.950 . S
H470 C476 0.930 . S
H471 C480 0.930 . S
H472 C485 0.929 . S
H473 C483 0.929 1_655 S
H474 C478 0.929 . S
H475 C484 0.937 . S
C476 H470 0.930 . S
C476 C477 1.367 . S
C476 C484 1.378 . S
C477 C476 1.367 . S
C477 C485 1.433 . S
C478 H474 0.929 . S
C478 C480 1.378 . S
C478 C482 1.350 . S
C479 C482 1.463 . S
C479 C484 1.350 . S
C479 N487 1.427 . S
C480 H471 0.930 . S
C480 C478 1.378 . S
C480 C481 1.367 . S
C481 C480 1.367 . S
C481 C483 1.433 . S
C482 C478 1.350 . S
C482 C479 1.463 . S
C482 N486 1.427 . S
C483 H473 0.929 1_455 S
C483 C481 1.433 . S
C483 N486 1.384 . S
C484 H475 0.937 . S
C484 C476 1.378 . S
C484 C479 1.350 . S
C485 H472 0.929 . S
C485 C477 1.433 . S
C485 N487 1.384 . S
N486 C482 1.427 . S
N486 C483 1.384 . S
N487 C479 1.427 . S
N487 C485 1.384 . S
H488 C494 0.930 . S
H489 C498 0.930 . S
H490 C503 0.929 . S
H491 C501 0.929 . S
H492 C496 0.929 . S
H493 C502 0.929 . S
C494 H488 0.930 . S
C494 C495 1.367 . S
C494 C502 1.378 . S
C495 C494 1.367 . S
C495 C503 1.433 . S
C496 H492 0.929 . S
C496 C498 1.378 . S
C496 C500 1.350 . S
C497 C500 1.463 . S
C497 C502 1.350 . S
C497 N505 1.427 . S
C498 H489 0.930 . S
C498 C496 1.378 . S
C498 C499 1.367 . S
C499 C498 1.367 . S
C499 C501 1.433 . S
C500 C496 1.350 . S
C500 C497 1.463 . S
C500 N504 1.427 . S
C501 H491 0.929 . S
C501 C499 1.433 . S
C501 N504 1.384 . S
C502 H493 0.929 . S
C502 C494 1.378 . S
C502 C497 1.350 . S
C503 H490 0.929 . S
C503 C495 1.433 . S
C503 N505 1.384 . S
N504 C500 1.427 . S
N504 C501 1.384 . S
N505 C497 1.427 . S
N505 C503 1.384 . S
H506 C512 0.930 . S
H507 C516 0.930 . S
H508 C521 0.929 . S
H509 C519 0.929 . S
H510 C514 0.929 . S
H511 C520 0.929 . S
C512 H506 0.930 . S
C512 C513 1.367 . S
C512 C520 1.378 . S
C513 C512 1.367 . S
C513 C521 1.433 . S
C514 H510 0.929 . S
C514 C516 1.378 . S
C514 C518 1.350 . S
C515 C518 1.463 . S
C515 C520 1.350 . S
C515 N523 1.427 . S
C516 H507 0.930 . S
C516 C514 1.378 . S
C516 C517 1.367 . S
C517 C516 1.367 . S
C517 C519 1.433 . S
C518 C514 1.350 . S
C518 C515 1.463 . S
C518 N522 1.427 . S
C519 H509 0.929 . S
C519 C517 1.433 . S
C519 N522 1.384 . S
C520 H511 0.929 . S
C520 C512 1.378 . S
C520 C515 1.350 . S
C521 H508 0.929 . S
C521 C513 1.433 . S
C521 N523 1.384 . S
N522 C518 1.427 . S
N522 C519 1.384 . S
N523 C515 1.427 . S
N523 C521 1.384 . S
H524 C530 0.930 . S
H525 C534 0.930 1_455 S
H526 C539 0.929 . S
H527 C537 0.929 . S
H528 C532 0.929 . S
H529 C538 0.929 . S
C530 H524 0.930 . S
C530 C531 1.367 . S
C530 C538 1.378 . S
C531 C530 1.367 . S
C531 C539 1.433 . S
C532 H528 0.929 . S
C532 C534 1.378 . S
C532 C536 1.350 . S
C533 C536 1.463 . S
C533 C538 1.350 . S
C533 N541 1.427 . S
C534 H525 0.930 1_655 S
C534 C532 1.378 . S
C534 C535 1.367 . S
C535 C534 1.367 . S
C535 C537 1.433 . S
C536 C532 1.350 . S
C536 C533 1.463 . S
C536 N540 1.427 . S
C537 H527 0.929 . S
C537 C535 1.433 . S
C537 N540 1.384 . S
C538 H529 0.929 . S
C538 C530 1.378 . S
C538 C533 1.350 . S
C539 H526 0.929 . S
C539 C531 1.433 . S
C539 N541 1.384 . S
N540 C536 1.427 . S
N540 C537 1.384 . S
N541 C533 1.427 . S
N541 C539 1.384 . S
H542 C548 0.930 . S
H543 C552 0.930 . S
H544 C557 0.929 . S
H545 C555 0.929 . S
H546 C550 0.929 . S
H547 C556 0.929 . S
C548 H542 0.930 . S
C548 C549 1.367 . S
C548 C556 1.378 . S
C549 C548 1.367 . S
C549 C557 1.433 . S
C550 H546 0.929 . S
C550 C552 1.378 . S
C550 C554 1.350 . S
C551 C554 1.463 . S
C551 C556 1.350 . S
C551 N559 1.427 . S
C552 H543 0.930 . S
C552 C550 1.378 . S
C552 C553 1.367 . S
C553 C552 1.367 . S
C553 C555 1.433 . S
C554 C550 1.350 . S
C554 C551 1.463 . S
C554 N558 1.427 . S
C555 H545 0.929 . S
C555 C553 1.433 . S
C555 N558 1.384 . S
C556 H547 0.929 . S
C556 C548 1.378 . S
C556 C551 1.350 . S
C557 H544 0.929 . S
C557 C549 1.433 . S
C557 N559 1.384 . S
N558 C554 1.427 . S
N558 C555 1.384 . S
N559 C551 1.427 . S
N559 C557 1.384 . S
H560 C566 0.930 . S
H561 C570 0.930 . S
H562 C575 0.929 . S
H563 C573 0.929 . S
H564 C568 0.929 . S
H565 C574 0.929 . S
C566 H560 0.930 . S
C566 C567 1.367 . S
C566 C574 1.378 . S
C567 C566 1.367 . S
C567 C575 1.433 . S
C568 H564 0.929 . S
C568 C570 1.378 . S
C568 C572 1.350 . S
C569 C572 1.463 . S
C569 C574 1.350 . S
C569 N577 1.427 . S
C570 H561 0.930 . S
C570 C568 1.378 . S
C570 C571 1.367 . S
C571 C570 1.367 . S
C571 C573 1.433 . S
C572 C568 1.350 . S
C572 C569 1.463 . S
C572 N576 1.427 . S
C573 H563 0.929 . S
C573 C571 1.433 . S
C573 N576 1.384 . S
C574 H565 0.929 . S
C574 C566 1.378 . S
C574 C569 1.350 . S
C575 H562 0.929 . S
C575 C567 1.433 . S
C575 N577 1.384 . S
N576 C572 1.427 . S
N576 C573 1.384 . S
N577 C569 1.427 . S
N577 C575 1.384 . S
H578 C584 0.930 . S
H579 C588 0.930 . S
H580 C593 0.929 . S
H581 C591 0.929 . S
H582 C586 0.929 . S
H583 C592 0.929 1_455 S
C584 H578 0.930 . S
C584 C585 1.367 . S
C584 C592 1.378 . S
C585 C584 1.367 . S
C585 C593 1.433 . S
C586 H582 0.929 . S
C586 C588 1.378 . S
C586 C590 1.350 . S
C587 C590 1.463 1_565 S
C587 C592 1.350 . S
C587 N595 1.427 . S
C588 H579 0.930 . S
C588 C586 1.378 . S
C588 C589 1.367 1_655 S
C589 C588 1.367 1_455 S
C589 C591 1.433 . S
C590 C586 1.350 . S
C590 C587 1.463 1_545 S
C590 N594 1.427 1_655 S
C591 H581 0.929 . S
C591 C589 1.433 . S
C591 N594 1.384 . S
C592 H583 0.929 1_655 S
C592 C584 1.378 . S
C592 C587 1.350 . S
C593 H580 0.929 . S
C593 C585 1.433 . S
C593 N595 1.384 . S
N594 C590 1.427 1_455 S
N594 C591 1.384 . S
N595 C587 1.427 . S
N595 C593 1.384 . S
H596 C602 0.930 . S
H597 C606 0.930 . S
H598 C611 0.929 . S
H599 C609 0.929 . S
H600 C604 0.929 . S
H601 C610 0.929 . S
C602 H596 0.930 . S
C602 C603 1.367 . S
C602 C610 1.378 1_556 S
C603 C602 1.367 . S
C603 C611 1.433 . S
C604 H600 0.929 . S
C604 C606 1.378 . S
C604 C608 1.350 . S
C605 C608 1.463 . S
C605 C610 1.350 . S
C605 N613 1.427 . S
C606 H597 0.930 . S
C606 C604 1.378 . S
C606 C607 1.367 . S
C607 C606 1.367 . S
C607 C609 1.433 . S
C608 C604 1.350 . S
C608 C605 1.463 . S
C608 N612 1.427 . S
C609 H599 0.929 . S
C609 C607 1.433 . S
C609 N612 1.384 . S
C610 H601 0.929 . S
C610 C602 1.378 1_554 S
C610 C605 1.350 . S
C611 H598 0.929 . S
C611 C603 1.433 . S
C611 N613 1.384 1_556 S
N612 C608 1.427 . S
N612 C609 1.384 . S
N613 C605 1.427 . S
N613 C611 1.384 1_554 S
H614 C620 0.930 . S
H615 C624 0.930 . S
H616 C629 0.929 . S
H617 C627 0.929 . S
H618 C622 0.929 . S
H619 C628 0.929 . S
C620 H614 0.930 . S
C620 C621 1.367 . S
C620 C628 1.378 . S
C621 C620 1.367 . S
C621 C629 1.433 . S
C622 H618 0.929 . S
C622 C624 1.378 . S
C622 C626 1.350 . S
C623 C626 1.463 . S
C623 C628 1.350 . S
C623 N631 1.427 . S
C624 H615 0.930 . S
C624 C622 1.378 . S
C624 C625 1.367 . S
C625 C624 1.367 . S
C625 C627 1.433 . S
C626 C622 1.350 . S
C626 C623 1.463 . S
C626 N630 1.427 . S
C627 H617 0.929 . S
C627 C625 1.433 . S
C627 N630 1.384 . S
C628 H619 0.929 . S
C628 C620 1.378 . S
C628 C623 1.350 . S
C629 H616 0.929 . S
C629 C621 1.433 . S
C629 N631 1.384 . S
N630 C626 1.427 . S
N630 C627 1.384 . S
N631 C623 1.427 . S
N631 C629 1.384 . S
H632 C638 0.930 . S
H633 C642 0.930 . S
H634 C647 0.929 . S
H635 C645 0.929 . S
H636 C640 0.929 . S
H637 C646 0.929 . S
C638 H632 0.930 . S
C638 C639 1.367 . S
C638 C646 1.378 . S
C639 C638 1.367 . S
C639 C647 1.433 . S
C640 H636 0.929 . S
C640 C642 1.378 . S
C640 C644 1.350 . S
C641 C644 1.463 . S
C641 C646 1.350 . S
C641 N649 1.427 . S
C642 H633 0.930 . S
C642 C640 1.378 . S
C642 C643 1.367 . S
C643 C642 1.367 . S
C643 C645 1.433 . S
C644 C640 1.350 . S
C644 C641 1.463 . S
C644 N648 1.427 . S
C645 H635 0.929 . S
C645 C643 1.433 . S
C645 N648 1.384 . S
C646 H637 0.929 . S
C646 C638 1.378 . S
C646 C641 1.350 . S
C647 H634 0.929 . S
C647 C639 1.433 . S
C647 N649 1.384 . S
N648 C644 1.427 . S
N648 C645 1.384 . S
N649 C641 1.427 . S
N649 C647 1.384 . S
H650 C656 0.930 . S
H651 C660 0.930 . S
H652 C665 0.929 . S
H653 C663 0.929 . S
H654 C658 0.929 . S
H655 C664 0.929 . S
C656 H650 0.930 . S
C656 C657 1.367 . S
C656 C664 1.378 . S
C657 C656 1.367 . S
C657 C665 1.433 . S
C658 H654 0.929 . S
C658 C660 1.378 . S
C658 C662 1.350 . S
C659 C662 1.463 . S
C659 C664 1.350 . S
C659 N667 1.427 . S
C660 H651 0.930 . S
C660 C658 1.378 . S
C660 C661 1.367 . S
C661 C660 1.367 . S
C661 C663 1.433 . S
C662 C658 1.350 . S
C662 C659 1.463 . S
C662 N666 1.427 . S
C663 H653 0.929 . S
C663 C661 1.433 . S
C663 N666 1.384 . S
C664 H655 0.929 . S
C664 C656 1.378 . S
C664 C659 1.350 . S
C665 H652 0.929 . S
C665 C657 1.433 . S
C665 N667 1.384 . S
N666 C662 1.427 . S
N666 C663 1.384 . S
N667 C659 1.427 . S
N667 C665 1.384 . S
H668 C674 0.930 . S
H669 C678 0.930 . S
H670 C683 0.929 . S
H671 C681 0.929 . S
H672 C676 0.929 . S
H673 C682 0.929 . S
C674 H668 0.930 . S
C674 C675 1.367 . S
C674 C682 1.378 . S
C675 C674 1.367 . S
C675 C683 1.433 . S
C676 H672 0.929 . S
C676 C678 1.378 . S
C676 C680 1.350 . S
C677 C680 1.463 . S
C677 C682 1.350 . S
C677 N685 1.427 . S
C678 H669 0.930 . S
C678 C676 1.378 . S
C678 C679 1.367 . S
C679 C678 1.367 . S
C679 C681 1.433 . S
C680 C676 1.350 . S
C680 C677 1.463 . S
C680 N684 1.427 . S
C681 H671 0.929 . S
C681 C679 1.433 . S
C681 N684 1.384 . S
C682 H673 0.929 . S
C682 C674 1.378 . S
C682 C677 1.350 . S
C683 H670 0.929 . S
C683 C675 1.433 . S
C683 N685 1.384 . S
N684 C680 1.427 . S
N684 C681 1.384 . S
N685 C677 1.427 . S
N685 C683 1.384 . S
H686 C692 0.930 . S
H687 C696 0.930 . S
H688 C701 0.929 . S
H689 C699 0.929 . S
H690 C694 0.929 . S
H691 C700 0.929 . S
C692 H686 0.930 . S
C692 C693 1.367 . S
C692 C700 1.378 . S
C693 C692 1.367 . S
C693 C701 1.433 . S
C694 H690 0.929 . S
C694 C696 1.378 . S
C694 C698 1.350 . S
C695 C698 1.463 . S
C695 C700 1.350 . S
C695 N703 1.427 . S
C696 H687 0.930 . S
C696 C694 1.378 . S
C696 C697 1.367 . S
C697 C696 1.367 . S
C697 C699 1.433 . S
C698 C694 1.350 . S
C698 C695 1.463 . S
C698 N702 1.427 . S
C699 H689 0.929 . S
C699 C697 1.433 . S
C699 N702 1.384 . S
C700 H691 0.929 . S
C700 C692 1.378 . S
C700 C695 1.350 . S
C701 H688 0.929 . S
C701 C693 1.433 . S
C701 N703 1.384 . S
N702 C698 1.427 . S
N702 C699 1.384 . S
N703 C695 1.427 . S
N703 C701 1.384 . S
H704 C710 0.930 . S
H705 C714 0.930 . S
H706 C719 0.929 . S
H707 C717 0.929 . S
H708 C712 0.929 . S
H709 C718 0.929 . S
C710 H704 0.930 . S
C710 C711 1.367 . S
C710 C718 1.378 . S
C711 C710 1.367 . S
C711 C719 1.433 . S
C712 H708 0.929 . S
C712 C714 1.378 . S
C712 C716 1.350 . S
C713 C716 1.463 . S
C713 C718 1.350 . S
C713 N721 1.427 . S
C714 H705 0.930 . S
C714 C712 1.378 . S
C714 C715 1.367 . S
C715 C714 1.367 . S
C715 C717 1.433 . S
C716 C712 1.350 . S
C716 C713 1.463 . S
C716 N720 1.427 . S
C717 H707 0.929 . S
C717 C715 1.433 . S
C717 N720 1.384 . S
C718 H709 0.929 . S
C718 C710 1.378 . S
C718 C713 1.350 . S
C719 H706 0.929 . S
C719 C711 1.433 . S
C719 N721 1.384 . S
N720 C716 1.427 . S
N720 C717 1.384 . S
N721 C713 1.427 . S
N721 C719 1.384 . S
H722 C728 0.930 . S
H723 C732 0.930 . S
H724 C737 0.929 . S
H725 C735 0.929 . S
H726 C730 0.929 . S
H727 C736 0.929 . S
C728 H722 0.930 . S
C728 C729 1.367 . S
C728 C736 1.378 . S
C729 C728 1.367 . S
C729 C737 1.433 . S
C730 H726 0.929 . S
C730 C732 1.378 . S
C730 C734 1.350 . S
C731 C734 1.463 . S
C731 C736 1.350 . S
C731 N739 1.427 . S
C732 H723 0.930 . S
C732 C730 1.378 . S
C732 C733 1.367 . S
C733 C732 1.367 . S
C733 C735 1.433 . S
C734 C730 1.350 . S
C734 C731 1.463 . S
C734 N738 1.427 . S
C735 H725 0.929 . S
C735 C733 1.433 . S
C735 N738 1.384 . S
C736 H727 0.929 . S
C736 C728 1.378 . S
C736 C731 1.350 . S
C737 H724 0.929 . S
C737 C729 1.433 . S
C737 N739 1.384 . S
N738 C734 1.427 . S
N738 C735 1.384 . S
N739 C731 1.427 . S
N739 C737 1.384 . S
H740 C746 0.930 . S
H741 C750 0.930 . S
H742 C755 0.929 . S
H743 C753 0.929 . S
H744 C748 0.929 . S
H745 C754 0.929 . S
C746 H740 0.930 . S
C746 C747 1.367 . S
C746 C754 1.378 . S
C747 C746 1.367 . S
C747 C755 1.433 . S
C748 H744 0.929 . S
C748 C750 1.378 . S
C748 C752 1.350 . S
C749 C752 1.463 . S
C749 C754 1.350 . S
C749 N757 1.427 . S
C750 H741 0.930 . S
C750 C748 1.378 . S
C750 C751 1.367 . S
C751 C750 1.367 . S
C751 C753 1.433 . S
C752 C748 1.350 . S
C752 C749 1.463 . S
C752 N756 1.427 . S
C753 H743 0.929 . S
C753 C751 1.433 . S
C753 N756 1.384 . S
C754 H745 0.929 . S
C754 C746 1.378 . S
C754 C749 1.350 . S
C755 H742 0.929 . S
C755 C747 1.433 . S
C755 N757 1.384 . S
N756 C752 1.427 . S
N756 C753 1.384 . S
N757 C749 1.427 . S
N757 C755 1.384 . S
H758 C764 0.930 . S
H759 C768 0.930 . S
H760 C773 0.929 . S
H761 C771 0.929 . S
H762 C766 0.929 . S
H763 C772 0.929 . S
C764 H758 0.930 . S
C764 C765 1.367 1_655 S
C764 C772 1.378 . S
C765 C764 1.367 1_455 S
C765 C773 1.433 . S
C766 H762 0.929 . S
C766 C768 1.378 . S
C766 C770 1.350 . S
C767 C770 1.463 1_565 S
C767 C772 1.350 1_455 S
C767 N775 1.427 . S
C768 H759 0.930 . S
C768 C766 1.378 . S
C768 C769 1.367 . S
C769 C768 1.367 . S
C769 C771 1.433 1_455 S
C770 C766 1.350 . S
C770 C767 1.463 1_545 S
C770 N774 1.427 1_455 S
C771 H761 0.929 . S
C771 C769 1.433 1_655 S
C771 N774 1.384 . S
C772 H763 0.929 . S
C772 C764 1.378 . S
C772 C767 1.350 1_655 S
C773 H760 0.929 . S
C773 C765 1.433 . S
C773 N775 1.384 . S
N774 C770 1.427 1_655 S
N774 C771 1.384 . S
N775 C767 1.427 . S
N775 C773 1.384 . S
H776 C782 0.930 . S
H777 C786 0.930 . S
H778 C791 0.929 . S
H779 C789 0.929 . S
H780 C784 0.929 . S
H781 C790 0.929 . S
C782 H776 0.930 . S
C782 C783 1.367 . S
C782 C790 1.378 . S
C783 C782 1.367 . S
C783 C791 1.433 . S
C784 H780 0.929 . S
C784 C786 1.378 . S
C784 C788 1.350 . S
C785 C788 1.463 . S
C785 C790 1.350 . S
C785 N793 1.427 . S
C786 H777 0.930 . S
C786 C784 1.378 . S
C786 C787 1.367 . S
C787 C786 1.367 . S
C787 C789 1.433 . S
C788 C784 1.350 . S
C788 C785 1.463 . S
C788 N792 1.427 . S
C789 H779 0.929 . S
C789 C787 1.433 . S
C789 N792 1.384 . S
C790 H781 0.929 . S
C790 C782 1.378 . S
C790 C785 1.350 . S
C791 H778 0.929 . S
C791 C783 1.433 . S
C791 N793 1.384 . S
N792 C788 1.427 . S
N792 C789 1.384 . S
N793 C785 1.427 . S
N793 C791 1.384 . S
H794 C800 0.930 . S
H795 C804 0.930 . S
H796 C809 0.929 . S
H797 C807 0.929 . S
H798 C802 0.929 . S
H799 C808 0.929 . S
C800 H794 0.930 . S
C800 C801 1.367 . S
C800 C808 1.378 . S
C801 C800 1.367 . S
C801 C809 1.433 . S
C802 H798 0.929 . S
C802 C804 1.378 . S
C802 C806 1.350 . S
C803 C806 1.463 . S
C803 C808 1.350 . S
C803 N811 1.427 . S
C804 H795 0.930 . S
C804 C802 1.378 . S
C804 C805 1.367 . S
C805 C804 1.367 . S
C805 C807 1.433 . S
C806 C802 1.350 . S
C806 C803 1.463 . S
C806 N810 1.427 . S
C807 H797 0.929 . S
C807 C805 1.433 . S
C807 N810 1.384 . S
C808 H799 0.929 . S
C808 C800 1.378 . S
C808 C803 1.350 . S
C809 H796 0.929 . S
C809 C801 1.433 . S
C809 N811 1.384 . S
N810 C806 1.427 . S
N810 C807 1.384 . S
N811 C803 1.427 . S
N811 C809 1.384 . S
H812 C818 0.930 . S
H813 C822 0.930 . S
H814 C827 0.929 . S
H815 C825 0.929 . S
H816 C820 0.929 . S
H817 C826 0.929 . S
C818 H812 0.930 . S
C818 C819 1.367 . S
C818 C826 1.378 . S
C819 C818 1.367 . S
C819 C827 1.433 . S
C820 H816 0.929 . S
C820 C822 1.378 . S
C820 C824 1.350 . S
C821 C824 1.463 . S
C821 C826 1.350 . S
C821 N829 1.427 . S
C822 H813 0.930 . S
C822 C820 1.378 . S
C822 C823 1.367 . S
C823 C822 1.367 . S
C823 C825 1.433 . S
C824 C820 1.350 . S
C824 C821 1.463 . S
C824 N828 1.427 . S
C825 H815 0.929 . S
C825 C823 1.433 . S
C825 N828 1.384 . S
C826 H817 0.929 . S
C826 C818 1.378 . S
C826 C821 1.350 . S
C827 H814 0.929 . S
C827 C819 1.433 . S
C827 N829 1.384 . S
N828 C824 1.427 . S
N828 C825 1.384 . S
N829 C821 1.427 . S
N829 C827 1.384 . S
H830 C836 0.930 . S
H831 C840 0.930 . S
H832 C845 0.929 . S
H833 C843 0.929 . S
H834 C838 0.929 . S
H835 C844 0.929 . S
C836 H830 0.930 . S
C836 C837 1.367 . S
C836 C844 1.378 . S
C837 C836 1.367 . S
C837 C845 1.433 . S
C838 H834 0.929 . S
C838 C840 1.378 . S
C838 C842 1.350 . S
C839 C842 1.463 . S
C839 C844 1.350 . S
C839 N847 1.427 . S
C840 H831 0.930 . S
C840 C838 1.378 . S
C840 C841 1.367 . S
C841 C840 1.367 . S
C841 C843 1.433 . S
C842 C838 1.350 . S
C842 C839 1.463 . S
C842 N846 1.427 . S
C843 H833 0.929 . S
C843 C841 1.433 . S
C843 N846 1.384 . S
C844 H835 0.929 . S
C844 C836 1.378 . S
C844 C839 1.350 . S
C845 H832 0.929 . S
C845 C837 1.433 . S
C845 N847 1.384 . S
N846 C842 1.427 . S
N846 C843 1.384 . S
N847 C839 1.427 . S
N847 C845 1.384 . S
H848 C854 0.930 . S
H849 C858 0.930 . S
H850 C863 0.929 . S
H851 C861 0.929 . S
H852 C856 0.929 . S
H853 C862 0.929 . S
C854 H848 0.930 . S
C854 C855 1.367 . S
C854 C862 1.378 . S
C855 C854 1.367 . S
C855 C863 1.433 . S
C856 H852 0.929 . S
C856 C858 1.378 . S
C856 C860 1.350 . S
C857 C860 1.463 . S
C857 C862 1.350 . S
C857 N865 1.427 . S
C858 H849 0.930 . S
C858 C856 1.378 . S
C858 C859 1.367 . S
C859 C858 1.367 . S
C859 C861 1.433 . S
C860 C856 1.350 . S
C860 C857 1.463 . S
C860 N864 1.427 . S
C861 H851 0.929 . S
C861 C859 1.433 . S
C861 N864 1.384 . S
C862 H853 0.929 . S
C862 C854 1.378 . S
C862 C857 1.350 . S
C863 H850 0.929 . S
C863 C855 1.433 . S
C863 N865 1.384 . S
N864 C860 1.427 . S
N864 C861 1.384 . S
N865 C857 1.427 . S
N865 C863 1.384 . S
H866 C872 0.930 . S
H867 C876 0.930 . S
H868 C881 0.929 . S
H869 C879 0.929 . S
H870 C874 0.929 . S
H871 C880 0.929 . S
C872 H866 0.930 . S
C872 C873 1.367 . S
C872 C880 1.378 . S
C873 C872 1.367 . S
C873 C881 1.433 . S
C874 H870 0.929 . S
C874 C876 1.378 . S
C874 C878 1.350 . S
C875 C878 1.463 . S
C875 C880 1.350 . S
C875 N883 1.427 . S
C876 H867 0.930 . S
C876 C874 1.378 . S
C876 C877 1.367 . S
C877 C876 1.367 . S
C877 C879 1.433 . S
C878 C874 1.350 . S
C878 C875 1.463 . S
C878 N882 1.427 . S
C879 H869 0.929 . S
C879 C877 1.433 . S
C879 N882 1.384 . S
C880 H871 0.929 . S
C880 C872 1.378 . S
C880 C875 1.350 . S
C881 H868 0.929 . S
C881 C873 1.433 . S
C881 N883 1.384 . S
N882 C878 1.427 . S
N882 C879 1.384 . S
N883 C875 1.427 . S
N883 C881 1.384 . S
H884 C890 0.930 . S
H885 C894 0.930 . S
H886 C899 0.929 . S
H887 C897 0.929 . S
H888 C892 0.929 . S
H889 C898 0.929 . S
C890 H884 0.930 . S
C890 C891 1.367 . S
C890 C898 1.378 . S
C891 C890 1.367 . S
C891 C899 1.433 . S
C892 H888 0.929 . S
C892 C894 1.378 . S
C892 C896 1.350 . S
C893 C896 1.463 . S
C893 C898 1.350 . S
C893 N901 1.427 . S
C894 H885 0.930 . S
C894 C892 1.378 . S
C894 C895 1.367 . S
C895 C894 1.367 . S
C895 C897 1.433 . S
C896 C892 1.350 . S
C896 C893 1.463 . S
C896 N900 1.427 . S
C897 H887 0.929 . S
C897 C895 1.433 . S
C897 N900 1.384 . S
C898 H889 0.929 . S
C898 C890 1.378 . S
C898 C893 1.350 . S
C899 H886 0.929 . S
C899 C891 1.433 . S
C899 N901 1.384 . S
N900 C896 1.427 . S
N900 C897 1.384 . S
N901 C893 1.427 . S
N901 C899 1.384 . S
C481 C174 1.518 . S
C477 C11 1.367 . S
C499 C243 1.671 . S
C495 C25 1.633 . S
C517 C181 1.234 . S
C513 C40 1.203 . S
C535 C244 1.437 . S
C531 C59 1.389 . S
C553 C297 1.854 . S
C549 C6 1.835 . S
C571 C333 1.770 . S
C567 C21 1.703 . S
C585 C49 1.577 . S
C589 C393 1.628 . S
C607 C456 1.519 . S
C603 C68 1.430 . S
C625 C296 1.814 . S
C621 C30 1.595 . S
C639 C44 1.656 . S
C643 C340 1.666 . S
C661 C386 1.744 . S
C657 C63 1.752 . S
C679 C455 1.686 . S
C675 C2 1.659 . S
C693 C78 1.699 . S
C697 C234 1.737 1_655 S
C715 C191 1.555 . S
C711 C97 1.491 . S
C729 C120 1.667 . S
C733 C227 1.671 . S
C747 C139 1.688 . S
C751 C190 1.698 . S
C769 C402 1.582 . S
C765 C87 1.463 1_455 S
C787 C446 1.631 . S
C783 C101 1.603 . S
C805 C280 1.626 . S
C801 C125 1.489 . S
C819 C144 1.682 . S
C823 C349 1.770 . S
C841 C403 1.767 . S
C837 C106 1.523 . S
C859 C439 1.628 . S
C855 C116 1.596 . S
C877 C287 1.630 . S
C873 C135 1.606 . S
C891 C82 1.763 . S
C895 C350 1.753 . S
