# Generated by pormake.
# Topology ptr, (4,4)-cn, num edge types: 1
# Building blocks:
#     Node 0, Type 0, BuildingBlock: CEKHIL_clean_sbu_0, # of connection points: 4
#     Node 1, Type 0, BuildingBlock: CEKHIL_clean_sbu_0, # of connection points: 4
#     Node 2, Type 0, BuildingBlock: CEKHIL_clean_sbu_0, # of connection points: 4
#     Node 3, Type 0, BuildingBlock: CEKHIL_clean_sbu_0, # of connection points: 4
#     Node 4, Type 0, BuildingBlock: CEKHIL_clean_sbu_0, # of connection points: 4
#     Node 5, Type 0, BuildingBlock: CEKHIL_clean_sbu_0, # of connection points: 4
#     Node 6, Type 0, BuildingBlock: CEKHIL_clean_sbu_0, # of connection points: 4
#     Node 7, Type 0, BuildingBlock: CEKHIL_clean_sbu_0, # of connection points: 4
#     Node 8, Type 0, BuildingBlock: CEKHIL_clean_sbu_0, # of connection points: 4
#     Node 9, Type 0, BuildingBlock: CEKHIL_clean_sbu_0, # of connection points: 4
#     Node 10, Type 0, BuildingBlock: CEKHIL_clean_sbu_0, # of connection points: 4
#     Node 11, Type 0, BuildingBlock: CEKHIL_clean_sbu_0, # of connection points: 4
#     Node 12, Type 0, BuildingBlock: CEKHIL_clean_sbu_0, # of connection points: 4
#     Node 13, Type 0, BuildingBlock: CEKHIL_clean_sbu_0, # of connection points: 4
#     Node 14, Type 0, BuildingBlock: CEKHIL_clean_sbu_0, # of connection points: 4
#     Node 15, Type 0, BuildingBlock: CEKHIL_clean_sbu_0, # of connection points: 4
#     Node 16, Type 0, BuildingBlock: CEKHIL_clean_sbu_0, # of connection points: 4
#     Node 17, Type 0, BuildingBlock: CEKHIL_clean_sbu_0, # of connection points: 4
#     Node 18, Type 1, BuildingBlock: NAWXER_clean_linker_0, # of connection points: 4
#     Node 19, Type 1, BuildingBlock: NAWXER_clean_linker_0, # of connection points: 4
#     Node 20, Type 1, BuildingBlock: NAWXER_clean_linker_0, # of connection points: 4
#     Node 21, Type 1, BuildingBlock: NAWXER_clean_linker_0, # of connection points: 4
#     Node 22, Type 1, BuildingBlock: NAWXER_clean_linker_0, # of connection points: 4
#     Node 23, Type 1, BuildingBlock: NAWXER_clean_linker_0, # of connection points: 4
#     Node 24, Type 1, BuildingBlock: NAWXER_clean_linker_0, # of connection points: 4
#     Node 25, Type 1, BuildingBlock: NAWXER_clean_linker_0, # of connection points: 4
#     Node 26, Type 1, BuildingBlock: NAWXER_clean_linker_0, # of connection points: 4
#     Node 27, Type 1, BuildingBlock: NAWXER_clean_linker_0, # of connection points: 4
#     Node 28, Type 1, BuildingBlock: NAWXER_clean_linker_0, # of connection points: 4
#     Node 29, Type 1, BuildingBlock: NAWXER_clean_linker_0, # of connection points: 4
#     Node 30, Type 1, BuildingBlock: NAWXER_clean_linker_0, # of connection points: 4
#     Node 31, Type 1, BuildingBlock: NAWXER_clean_linker_0, # of connection points: 4
#     Node 32, Type 1, BuildingBlock: NAWXER_clean_linker_0, # of connection points: 4
#     Node 33, Type 1, BuildingBlock: NAWXER_clean_linker_0, # of connection points: 4
#     Node 34, Type 1, BuildingBlock: NAWXER_clean_linker_0, # of connection points: 4
#     Node 35, Type 1, BuildingBlock: NAWXER_clean_linker_0, # of connection points: 4
#     Edge 36, Type (0, 1), BuildingBlock: OJICUG_clean_linker_0, # of connection points: 2
#     Edge 37, Type (0, 1), BuildingBlock: OJICUG_clean_linker_0, # of connection points: 2
#     Edge 38, Type (0, 1), BuildingBlock: OJICUG_clean_linker_0, # of connection points: 2
#     Edge 39, Type (0, 1), BuildingBlock: OJICUG_clean_linker_0, # of connection points: 2
#     Edge 40, Type (0, 1), BuildingBlock: OJICUG_clean_linker_0, # of connection points: 2
#     Edge 41, Type (0, 1), BuildingBlock: OJICUG_clean_linker_0, # of connection points: 2
#     Edge 42, Type (0, 1), BuildingBlock: OJICUG_clean_linker_0, # of connection points: 2
#     Edge 43, Type (0, 1), BuildingBlock: OJICUG_clean_linker_0, # of connection points: 2
#     Edge 44, Type (0, 1), BuildingBlock: OJICUG_clean_linker_0, # of connection points: 2
#     Edge 45, Type (0, 1), BuildingBlock: OJICUG_clean_linker_0, # of connection points: 2
#     Edge 46, Type (0, 1), BuildingBlock: OJICUG_clean_linker_0, # of connection points: 2
#     Edge 47, Type (0, 1), BuildingBlock: OJICUG_clean_linker_0, # of connection points: 2
#     Edge 48, Type (0, 1), BuildingBlock: OJICUG_clean_linker_0, # of connection points: 2
#     Edge 49, Type (0, 1), BuildingBlock: OJICUG_clean_linker_0, # of connection points: 2
#     Edge 50, Type (0, 1), BuildingBlock: OJICUG_clean_linker_0, # of connection points: 2
#     Edge 51, Type (0, 1), BuildingBlock: OJICUG_clean_linker_0, # of connection points: 2
#     Edge 52, Type (0, 1), BuildingBlock: OJICUG_clean_linker_0, # of connection points: 2
#     Edge 53, Type (0, 1), BuildingBlock: OJICUG_clean_linker_0, # of connection points: 2
#     Edge 54, Type (0, 1), BuildingBlock: OJICUG_clean_linker_0, # of connection points: 2
#     Edge 55, Type (0, 1), BuildingBlock: OJICUG_clean_linker_0, # of connection points: 2
#     Edge 56, Type (0, 1), BuildingBlock: OJICUG_clean_linker_0, # of connection points: 2
#     Edge 57, Type (0, 1), BuildingBlock: OJICUG_clean_linker_0, # of connection points: 2
#     Edge 58, Type (0, 1), BuildingBlock: OJICUG_clean_linker_0, # of connection points: 2
#     Edge 59, Type (0, 1), BuildingBlock: OJICUG_clean_linker_0, # of connection points: 2
#     Edge 60, Type (0, 1), BuildingBlock: OJICUG_clean_linker_0, # of connection points: 2
#     Edge 61, Type (0, 1), BuildingBlock: OJICUG_clean_linker_0, # of connection points: 2
#     Edge 62, Type (0, 1), BuildingBlock: OJICUG_clean_linker_0, # of connection points: 2
#     Edge 63, Type (0, 1), BuildingBlock: OJICUG_clean_linker_0, # of connection points: 2
#     Edge 64, Type (0, 1), BuildingBlock: OJICUG_clean_linker_0, # of connection points: 2
#     Edge 65, Type (0, 1), BuildingBlock: OJICUG_clean_linker_0, # of connection points: 2
#     Edge 66, Type (0, 1), BuildingBlock: OJICUG_clean_linker_0, # of connection points: 2
#     Edge 67, Type (0, 1), BuildingBlock: OJICUG_clean_linker_0, # of connection points: 2
#     Edge 68, Type (0, 1), BuildingBlock: OJICUG_clean_linker_0, # of connection points: 2
#     Edge 69, Type (0, 1), BuildingBlock: OJICUG_clean_linker_0, # of connection points: 2
#     Edge 70, Type (0, 1), BuildingBlock: OJICUG_clean_linker_0, # of connection points: 2
#     Edge 71, Type (0, 1), BuildingBlock: OJICUG_clean_linker_0, # of connection points: 2
#     Edge 72, Type (0, 1), BuildingBlock: OJICUG_clean_linker_0, # of connection points: 2
#     Edge 73, Type (0, 1), BuildingBlock: OJICUG_clean_linker_0, # of connection points: 2
#     Edge 74, Type (0, 1), BuildingBlock: OJICUG_clean_linker_0, # of connection points: 2
#     Edge 75, Type (0, 1), BuildingBlock: OJICUG_clean_linker_0, # of connection points: 2
#     Edge 76, Type (0, 1), BuildingBlock: OJICUG_clean_linker_0, # of connection points: 2
#     Edge 77, Type (0, 1), BuildingBlock: OJICUG_clean_linker_0, # of connection points: 2
#     Edge 78, Type (0, 1), BuildingBlock: OJICUG_clean_linker_0, # of connection points: 2
#     Edge 79, Type (0, 1), BuildingBlock: OJICUG_clean_linker_0, # of connection points: 2
#     Edge 80, Type (0, 1), BuildingBlock: OJICUG_clean_linker_0, # of connection points: 2
#     Edge 81, Type (0, 1), BuildingBlock: OJICUG_clean_linker_0, # of connection points: 2
#     Edge 82, Type (0, 1), BuildingBlock: OJICUG_clean_linker_0, # of connection points: 2
#     Edge 83, Type (0, 1), BuildingBlock: OJICUG_clean_linker_0, # of connection points: 2
#     Edge 84, Type (0, 1), BuildingBlock: OJICUG_clean_linker_0, # of connection points: 2
#     Edge 85, Type (0, 1), BuildingBlock: OJICUG_clean_linker_0, # of connection points: 2
#     Edge 86, Type (0, 1), BuildingBlock: OJICUG_clean_linker_0, # of connection points: 2
#     Edge 87, Type (0, 1), BuildingBlock: OJICUG_clean_linker_0, # of connection points: 2
#     Edge 88, Type (0, 1), BuildingBlock: OJICUG_clean_linker_0, # of connection points: 2
#     Edge 89, Type (0, 1), BuildingBlock: OJICUG_clean_linker_0, # of connection points: 2
#     Edge 90, Type (0, 1), BuildingBlock: OJICUG_clean_linker_0, # of connection points: 2
#     Edge 91, Type (0, 1), BuildingBlock: OJICUG_clean_linker_0, # of connection points: 2
#     Edge 92, Type (0, 1), BuildingBlock: OJICUG_clean_linker_0, # of connection points: 2
#     Edge 93, Type (0, 1), BuildingBlock: OJICUG_clean_linker_0, # of connection points: 2
#     Edge 94, Type (0, 1), BuildingBlock: OJICUG_clean_linker_0, # of connection points: 2
#     Edge 95, Type (0, 1), BuildingBlock: OJICUG_clean_linker_0, # of connection points: 2
#     Edge 96, Type (0, 1), BuildingBlock: OJICUG_clean_linker_0, # of connection points: 2
#     Edge 97, Type (0, 1), BuildingBlock: OJICUG_clean_linker_0, # of connection points: 2
#     Edge 98, Type (0, 1), BuildingBlock: OJICUG_clean_linker_0, # of connection points: 2
#     Edge 99, Type (0, 1), BuildingBlock: OJICUG_clean_linker_0, # of connection points: 2
#     Edge 100, Type (0, 1), BuildingBlock: OJICUG_clean_linker_0, # of connection points: 2
#     Edge 101, Type (0, 1), BuildingBlock: OJICUG_clean_linker_0, # of connection points: 2
#     Edge 102, Type (0, 1), BuildingBlock: OJICUG_clean_linker_0, # of connection points: 2
#     Edge 103, Type (0, 1), BuildingBlock: OJICUG_clean_linker_0, # of connection points: 2
#     Edge 104, Type (0, 1), BuildingBlock: OJICUG_clean_linker_0, # of connection points: 2
#     Edge 105, Type (0, 1), BuildingBlock: OJICUG_clean_linker_0, # of connection points: 2
#     Edge 106, Type (0, 1), BuildingBlock: OJICUG_clean_linker_0, # of connection points: 2
#     Edge 107, Type (0, 1), BuildingBlock: OJICUG_clean_linker_0, # of connection points: 2
# Relax obj value: 0.032
# Max RMSD: 0.132
# Mean RMSD: 0.053
data_MOF--net-ptr--node1-CEKHIL_clean_sbu_0--node2-NAWXER_clean_linker_0--edge1-OJICUG_clean_linker_0
_symmetry_space_group_name_H-M    P1
_symmetry_Int_Tables_number       1
_symmetry_cell_setting            triclinic
loop_
_symmetry_equiv_pos_as_xyz
'x, y, z'
_cell_length_a     67.80468
_cell_length_b     67.06851
_cell_length_c     50.037987
_cell_angle_alpha  90.96054
_cell_angle_beta   89.444532
_cell_angle_gamma 120.99142
loop_
_atom_site_label
_atom_site_type_symbol
_atom_site_fract_x
_atom_site_fract_y
_atom_site_fract_z
_atom_type_partial_charge
Co0 Co 0.01088 0.34569 0.01119 0.0
O1 O 0.0195 0.33024 0.03626 0.0
O2 O 0.04398 0.36333 0.0165 0.0
C3 C 0.98697 0.31367 0.98708 0.0
O4 O 0.00771 0.36594 0.98335 0.0
Co5 Co 0.95956 0.33241 0.0092 0.0
O6 O 0.96986 0.35071 0.97595 0.0
C7 C 0.98922 0.36225 0.05307 0.0
C8 C 0.04056 0.347 0.03298 0.0
C9 C 0.9909 0.36496 0.97026 0.0
O10 O 0.00684 0.36371 0.04124 0.0
O11 O 0.9686 0.34907 0.04465 0.0
O12 O 0.009 0.32439 0.98269 0.0
O13 O 0.98064 0.32119 0.00731 0.0
Co14 Co 0.6574 0.66123 0.01001 0.0
O15 O 0.68005 0.67648 0.98244 0.0
O16 O 0.67192 0.64353 0.00167 0.0
C17 C 0.66758 0.69347 0.03483 0.0
O18 O 0.63619 0.64088 0.03983 0.0
Co19 Co 0.61952 0.67335 0.02163 0.0
O20 O 0.61427 0.65504 0.05435 0.0
C21 C 0.61455 0.643 0.97551 0.0
C22 C 0.68414 0.65966 0.98448 0.0
C23 C 0.62162 0.64106 0.0564 0.0
O24 O 0.63281 0.64297 0.9823 0.0
O25 O 0.60739 0.65505 0.98761 0.0
O26 O 0.67908 0.68291 0.03684 0.0
O27 O 0.65199 0.68549 0.01654 0.0
Co28 Co 0.33939 0.99696 0.00344 0.0
O29 O 0.32471 0.00566 0.97749 0.0
O30 O 0.35652 0.03059 0.99922 0.0
C31 C 0.30725 0.97246 0.02625 0.0
O32 O 0.35879 0.99354 0.03212 0.0
Co33 Co 0.32656 0.94534 0.00375 0.0
O34 O 0.34433 0.95519 0.03754 0.0
C35 C 0.35811 0.97636 0.96248 0.0
C36 C 0.341 0.027 0.98152 0.0
C37 C 0.35804 0.97636 0.04437 0.0
O38 O 0.35825 0.99362 0.97426 0.0
O39 O 0.3452 0.95528 0.96991 0.0
O40 O 0.31788 0.99469 0.03113 0.0
O41 O 0.31488 0.9662 0.00601 0.0
Co42 Co 0.99542 0.65943 0.01101 0.0
O43 O 0.98764 0.67493 0.98498 0.0
O44 O 0.96236 0.64254 0.00536 0.0
C45 C 0.01973 0.69134 0.03517 0.0
O46 O 0.99766 0.63905 0.03944 0.0
Co47 Co 0.0464 0.67155 0.01419 0.0
O48 O 0.0353 0.65358 0.04764 0.0
C49 C 0.01693 0.64211 0.96998 0.0
C50 C 0.9664 0.6585 0.98803 0.0
C51 C 0.0141 0.63971 0.05299 0.0
O52 O 0.99926 0.6408 0.98154 0.0
O53 O 0.0375 0.65514 0.97863 0.0
O54 O 0.99767 0.68126 0.0391 0.0
O55 O 0.02586 0.68341 0.01514 0.0
Co56 Co 0.34676 0.34171 0.01588 0.0
O57 O 0.32298 0.32518 0.04196 0.0
O58 O 0.33154 0.35874 0.02412 0.0
C59 C 0.33845 0.31093 0.98943 0.0
O60 O 0.36928 0.36332 0.98772 0.0
Co61 Co 0.38576 0.33067 0.0077 0.0
O62 O 0.39402 0.3516 0.9767 0.0
C63 C 0.38533 0.35603 0.05593 0.0
C64 C 0.31889 0.34203 0.04051 0.0
C65 C 0.38576 0.36468 0.97326 0.0
O66 O 0.36971 0.35888 0.04542 0.0
O67 O 0.39233 0.34332 0.04521 0.0
O68 O 0.32657 0.32108 0.98736 0.0
O69 O 0.35293 0.3181 0.00889 0.0
Co70 Co 0.66263 0.00272 0.01073 0.0
O71 O 0.67758 0.99414 0.03652 0.0
O72 O 0.64563 0.96913 0.01516 0.0
C73 C 0.69485 0.02725 0.98798 0.0
O74 O 0.64311 0.00582 0.98189 0.0
Co75 Co 0.67513 0.05431 0.00959 0.0
O76 O 0.65798 0.04411 0.9754 0.0
C77 C 0.64382 0.0235 0.05131 0.0
C78 C 0.66155 0.97273 0.03225 0.0
C79 C 0.64419 0.02287 0.96896 0.0
O80 O 0.64364 0.0061 0.03981 0.0
O81 O 0.65671 0.0445 0.04359 0.0
O82 O 0.68441 0.005 0.98331 0.0
O83 O 0.68692 0.03356 0.00787 0.0
Co84 Co 0.67473 0.67831 0.34227 0.0
O85 O 0.68357 0.66266 0.36686 0.0
O86 O 0.70757 0.69695 0.34917 0.0
C87 C 0.65242 0.64694 0.31627 0.0
O88 O 0.67152 0.69908 0.31528 0.0
Co89 Co 0.62289 0.66299 0.33797 0.0
O90 O 0.63384 0.68317 0.30616 0.0
C91 C 0.65002 0.69106 0.3842 0.0
C92 C 0.70439 0.68023 0.36486 0.0
C93 C 0.65495 0.69819 0.30178 0.0
O94 O 0.66859 0.69436 0.37289 0.0
O95 O 0.62993 0.67731 0.37467 0.0
O96 O 0.67459 0.65853 0.31277 0.0
O97 O 0.64511 0.65325 0.33665 0.0
Co98 Co 0.32615 0.99339 0.34206 0.0
O99 O 0.35101 0.00967 0.31722 0.0
O100 O 0.34115 0.97586 0.33547 0.0
C101 C 0.33399 0.02429 0.36806 0.0
O102 O 0.30231 0.97208 0.36934 0.0
Co103 Co 0.28769 0.00552 0.34697 0.0
O104 O 0.27907 0.98591 0.37923 0.0
C105 C 0.28856 0.97872 0.30031 0.0
C106 C 0.35466 0.99258 0.31949 0.0
C107 C 0.28624 0.97199 0.38341 0.0
O108 O 0.30425 0.97641 0.31158 0.0
O109 O 0.28121 0.99146 0.3101 0.0
O110 O 0.34535 0.01372 0.37132 0.0
O111 O 0.32039 0.01745 0.34773 0.0
Co112 Co 0.00789 0.33388 0.33957 0.0
O113 O 0.99365 0.3433 0.31379 0.0
O114 O 0.02532 0.36754 0.33615 0.0
C115 C 0.97512 0.30906 0.36127 0.0
O116 O 0.02675 0.32999 0.36855 0.0
Co117 Co 0.99509 0.28225 0.33975 0.0
O118 O 0.01148 0.29159 0.37446 0.0
C119 C 0.02743 0.31371 0.29914 0.0
C120 C 0.00983 0.36454 0.31873 0.0
C121 C 0.02533 0.31271 0.38131 0.0
O122 O 0.02724 0.3309 0.31068 0.0
O123 O 0.0145 0.2926 0.30648 0.0
O124 O 0.98573 0.33121 0.36664 0.0
O125 O 0.98333 0.30306 0.34137 0.0
Co126 Co 0.66135 0.99174 0.34375 0.0
O127 O 0.65288 0.00784 0.31935 0.0
O128 O 0.62836 0.97406 0.33779 0.0
C129 C 0.68495 0.02316 0.36902 0.0
O130 O 0.66408 0.97063 0.3707 0.0
Co131 Co 0.71251 0.00482 0.34644 0.0
O132 O 0.70169 0.98458 0.3782 0.0
C133 C 0.68373 0.97671 0.30114 0.0
C134 C 0.63186 0.99076 0.32188 0.0
C135 C 0.6805 0.97046 0.38335 0.0
O136 O 0.66589 0.97472 0.31296 0.0
O137 O 0.7042 0.98963 0.31013 0.0
O138 O 0.66287 0.0122 0.37313 0.0
O139 O 0.69153 0.01618 0.3485 0.0
Co140 Co 0.00718 0.67379 0.34475 0.0
O141 O 0.98207 0.65892 0.36942 0.0
O142 O 0.99387 0.69303 0.35073 0.0
C143 C 0.99726 0.64188 0.31972 0.0
O144 O 0.03168 0.69392 0.3175 0.0
Co145 Co 0.04328 0.65859 0.34008 0.0
O146 O 0.05312 0.67807 0.30762 0.0
C147 C 0.04509 0.68768 0.38593 0.0
C148 C 0.97965 0.67675 0.36675 0.0
C149 C 0.04719 0.69297 0.30345 0.0
O150 O 0.02928 0.69008 0.37519 0.0
O151 O 0.05179 0.6744 0.37608 0.0
O152 O 0.98759 0.654 0.3155 0.0
O153 O 0.01087 0.64826 0.34001 0.0
Co154 Co 0.3307 0.33662 0.34958 0.0
O155 O 0.3448 0.32773 0.37609 0.0
O156 O 0.3134 0.30298 0.35359 0.0
C157 C 0.36342 0.36105 0.32761 0.0
O158 O 0.3119 0.34018 0.32025 0.0
Co159 Co 0.34367 0.38821 0.34865 0.0
O160 O 0.32712 0.37854 0.31404 0.0
C161 C 0.31117 0.35726 0.3894 0.0
C162 C 0.32861 0.30642 0.37165 0.0
C163 C 0.31328 0.35737 0.30735 0.0
O164 O 0.31133 0.33997 0.3781 0.0
O165 O 0.32418 0.3783 0.38189 0.0
O166 O 0.35268 0.33884 0.32262 0.0
O167 O 0.35544 0.36738 0.34744 0.0
Co168 Co 0.33764 0.00708 0.67633 0.0
O169 O 0.3465 0.99165 0.70127 0.0
O170 O 0.37063 0.02519 0.68216 0.0
C171 C 0.31439 0.9752 0.6514 0.0
O172 O 0.33456 0.02753 0.64878 0.0
Co173 Co 0.28618 0.99303 0.67289 0.0
O174 O 0.29688 0.01239 0.6404 0.0
C175 C 0.31456 0.02223 0.71793 0.0
C176 C 0.36745 0.00877 0.69834 0.0
C177 C 0.31803 0.02688 0.63546 0.0
O178 O 0.33267 0.02438 0.70658 0.0
O179 O 0.29421 0.00882 0.70885 0.0
O180 O 0.33649 0.98637 0.64742 0.0
O181 O 0.30761 0.98224 0.67167 0.0
Co182 Co 0.99174 0.32909 0.67254 0.0
O183 O 0.01532 0.34505 0.64612 0.0
O184 O 0.00689 0.31187 0.66492 0.0
C185 C 1.00038 0.36044 0.69811 0.0
O186 O 0.96937 0.30814 0.70122 0.0
Co187 Co 0.95291 0.34037 0.68008 0.0
O188 O 0.94549 0.32092 0.7123 0.0
C189 C 0.95194 0.31263 0.63341 0.0
C190 C 0.01945 0.32825 0.64811 0.0
C191 C 0.9534 0.30756 0.71598 0.0
O192 O 0.96859 0.31125 0.64346 0.0
O193 O 0.9445 0.32508 0.64382 0.0
O194 O 0.0121 0.35016 0.70053 0.0
O195 O 0.98577 0.35299 0.67872 0.0
Co196 Co 0.6723 0.66606 0.67388 0.0
O197 O 0.65702 0.67182 0.64548 0.0
O198 O 0.68817 0.69903 0.6665 0.0
C199 C 0.6402 0.6423 0.69725 0.0
O200 O 0.69252 0.66669 0.70442 0.0
Co201 Co 0.66271 0.61625 0.68412 0.0
O202 O 0.67805 0.6301 0.71871 0.0
C203 C 0.69392 0.64395 0.64017 0.0
C204 C 0.67251 0.69367 0.64837 0.0
C205 C 0.69172 0.65196 0.72127 0.0
O206 O 0.69194 0.66143 0.64697 0.0
O207 O 0.68293 0.62418 0.65163 0.0
O208 O 0.64983 0.66472 0.69964 0.0
O209 O 0.64899 0.63505 0.67932 0.0
Co210 Co 0.32863 0.32446 0.6759 0.0
O211 O 0.31981 0.34032 0.65165 0.0
O212 O 0.29565 0.3063 0.66978 0.0
C213 C 0.35152 0.35582 0.70159 0.0
O214 O 0.33197 0.3036 0.70268 0.0
Co215 Co 0.38033 0.33912 0.67837 0.0
O216 O 0.36981 0.31841 0.70971 0.0
C217 C 0.35198 0.31095 0.63289 0.0
C218 C 0.29888 0.32307 0.65414 0.0
C219 C 0.34875 0.30388 0.71502 0.0
O220 O 0.33383 0.30799 0.64497 0.0
O221 O 0.37236 0.32457 0.64175 0.0
O222 O 0.32941 0.34444 0.70545 0.0
O223 O 0.35852 0.34936 0.681 0.0
Co224 Co 0.67862 0.00973 0.67796 0.0
O225 O 0.6569 0.99471 0.70642 0.0
O226 O 0.66358 0.0269 0.68654 0.0
C227 C 0.66846 0.97724 0.65381 0.0
O228 O 0.69894 0.02963 0.64721 0.0
Co229 Co 0.71696 0.99821 0.6663 0.0
O230 O 0.72076 0.01525 0.63291 0.0
C231 C 0.72221 0.02939 0.71149 0.0
C232 C 0.65218 0.01108 0.70437 0.0
C233 C 0.71314 0.02897 0.63041 0.0
O234 O 0.7037 0.02894 0.70477 0.0
O235 O 0.7295 0.01732 0.69971 0.0
O236 O 0.65645 0.98727 0.65208 0.0
O237 O 0.68447 0.98578 0.67162 0.0
Co238 Co 0.99525 0.66988 0.68299 0.0
O239 O 0.01056 0.66203 0.70923 0.0
O240 O 0.97833 0.63656 0.68862 0.0
C241 C 0.02727 0.69386 0.65953 0.0
O242 O 0.97506 0.67159 0.65407 0.0
Co243 Co 0.00679 0.72085 0.67752 0.0
O244 O 0.99051 0.70911 0.64285 0.0
C245 C 0.97677 0.69216 0.72162 0.0
C246 C 0.99442 0.64052 0.7056 0.0
C247 C 0.97632 0.68751 0.63882 0.0
O248 O 0.97672 0.67427 0.71179 0.0
O249 O 0.98899 0.71261 0.71202 0.0
O250 O 0.01678 0.6715 0.65561 0.0
O251 O 0.0193 0.7007 0.67885 0.0
C252 C 0.25283 0.35944 0.12434 0.0
C253 C 0.24776 0.34172 0.10541 0.0
C254 C 0.23526 0.35904 0.13963 0.0
C255 C 0.21235 0.34098 0.1361 0.0
C256 C 0.22482 0.32365 0.102 0.0
C257 C 0.20725 0.32343 0.11703 0.0
C258 C 0.19342 0.34098 0.15091 0.0
C259 C 0.23394 0.32713 0.21117 0.0
C260 C 0.24464 0.34502 0.23046 0.0
C261 C 0.21701 0.32606 0.19432 0.0
C262 C 0.21044 0.34279 0.19662 0.0
C263 C 0.23765 0.3614 0.23301 0.0
C264 C 0.22063 0.36018 0.21641 0.0
C265 C 0.19263 0.34212 0.17907 0.0
C266 C 0.09605 0.31936 0.19936 0.0
C267 C 0.0995 0.33304 0.22243 0.0
C268 C 0.11475 0.32262 0.18392 0.0
C269 C 0.1373 0.33981 0.19103 0.0
C270 C 0.12207 0.35046 0.22929 0.0
C271 C 0.14077 0.3537 0.21383 0.0
C272 C 0.15735 0.34188 0.1763 0.0
C273 C 0.12155 0.36221 0.11702 0.0
C274 C 0.11115 0.34612 0.09587 0.0
C275 C 0.13685 0.36068 0.13421 0.0
C276 C 0.14209 0.3431 0.13043 0.0
C277 C 0.11673 0.3288 0.09189 0.0
C278 C 0.13224 0.32746 0.10885 0.0
C279 C 0.15862 0.34156 0.1481 0.0
H280 H 0.27039 0.37352 0.1274 0.0
H281 H 0.2395 0.37301 0.15389 0.0
H282 H 0.22041 0.30992 0.08734 0.0
H283 H 0.18964 0.3095 0.11381 0.0
H284 H 0.23895 0.31425 0.20882 0.0
H285 H 0.209 0.31213 0.17959 0.0
H286 H 0.24531 0.37516 0.24799 0.0
H287 H 0.21565 0.37309 0.21877 0.0
H288 H 0.0789 0.30587 0.19345 0.0
H289 H 0.11156 0.31116 0.16692 0.0
H290 H 0.12538 0.36105 0.24716 0.0
H291 H 0.15801 0.36686 0.21993 0.0
H292 H 0.11746 0.37566 0.12061 0.0
H293 H 0.14468 0.37329 0.15037 0.0
H294 H 0.1091 0.3163 0.0756 0.0
H295 H 0.13627 0.31395 0.10537 0.0
N296 N 0.17643 0.34078 0.13653 0.0
N297 N 0.1746 0.3425 0.19067 0.0
C298 C 0.64836 0.88817 0.10992 0.0
C299 C 0.66528 0.90093 0.09065 0.0
C300 C 0.65067 0.87313 0.12687 0.0
C301 C 0.66992 0.87052 0.12482 0.0
C302 C 0.68414 0.89769 0.08806 0.0
C303 C 0.68631 0.88244 0.10482 0.0
C304 C 0.67289 0.85526 0.14337 0.0
C305 C 0.68604 0.91691 0.19453 0.0
C306 C 0.6713 0.91171 0.21665 0.0
C307 C 0.68543 0.89908 0.17905 0.0
C308 C 0.66986 0.87569 0.1852 0.0
C309 C 0.65519 0.8883 0.22215 0.0
C310 C 0.65457 0.87049 0.20665 0.0
C311 C 0.67111 0.8567 0.1714 0.0
C312 C 0.68889 0.78226 0.21105 0.0
C313 C 0.67043 0.77119 0.22909 0.0
C314 C 0.69052 0.79944 0.19402 0.0
C315 C 0.67374 0.80582 0.19483 0.0
C316 C 0.65417 0.77823 0.23044 0.0
C317 C 0.65588 0.79543 0.21361 0.0
C318 C 0.67441 0.82322 0.17636 0.0
C319 C 0.65873 0.76175 0.12366 0.0
C320 C 0.67686 0.76613 0.10626 0.0
C321 C 0.65908 0.77994 0.13797 0.0
C322 C 0.67753 0.80282 0.13502 0.0
C323 C 0.69566 0.78892 0.10391 0.0
C324 C 0.69585 0.80721 0.11799 0.0
C325 C 0.67686 0.82219 0.14841 0.0
H326 H 0.63371 0.89038 0.11245 0.0
H327 H 0.63753 0.86369 0.14178 0.0
H328 H 0.69733 0.90712 0.07319 0.0
H329 H 0.70113 0.88046 0.10267 0.0
H330 H 0.69855 0.93478 0.18969 0.0
H331 H 0.69782 0.90361 0.16304 0.0
H332 H 0.64384 0.88367 0.23927 0.0
H333 H 0.64255 0.85258 0.2119 0.0
H334 H 0.7017 0.77723 0.20964 0.0
H335 H 0.7048 0.80762 0.18015 0.0
H336 H 0.63999 0.77033 0.24448 0.0
H337 H 0.64289 0.80023 0.21483 0.0
H338 H 0.64402 0.7443 0.12567 0.0
H339 H 0.64462 0.77625 0.15074 0.0
H340 H 0.70966 0.79268 0.09033 0.0
H341 H 0.71014 0.82481 0.11537 0.0
N342 N 0.67598 0.8382 0.13293 0.0
N343 N 0.67167 0.84047 0.18675 0.0
C344 C 0.10306 0.75919 0.1194 0.0
C345 C 0.08789 0.76288 0.10426 0.0
C346 C 0.12097 0.77757 0.1337 0.0
C347 C 0.12409 0.7999 0.13277 0.0
C348 C 0.09081 0.78517 0.10381 0.0
C349 C 0.10895 0.80361 0.11773 0.0
C350 C 0.14341 0.81962 0.14684 0.0
C351 C 0.09129 0.77405 0.20897 0.0
C352 C 0.10061 0.76524 0.22704 0.0
C353 C 0.1057 0.79223 0.19191 0.0
C354 C 0.12964 0.80185 0.19269 0.0
C355 C 0.12459 0.77523 0.22801 0.0
C356 C 0.13894 0.7934 0.21112 0.0
C357 C 0.14544 0.82095 0.17491 0.0
C358 C 0.20892 0.90794 0.2202 0.0
C359 C 0.23229 0.91523 0.217 0.0
C360 C 0.19216 0.88956 0.20492 0.0
C361 C 0.19839 0.87821 0.18591 0.0
C362 C 0.23857 0.90392 0.19782 0.0
C363 C 0.22172 0.88553 0.18234 0.0
C364 C 0.18003 0.85783 0.17145 0.0
C365 C 0.22623 0.88237 0.09231 0.0
C366 C 0.23231 0.90586 0.09259 0.0
C367 C 0.20844 0.86622 0.10848 0.0
C368 C 0.19666 0.87323 0.12569 0.0
C369 C 0.22005 0.9127 0.10957 0.0
C370 C 0.20246 0.89655 0.12605 0.0
C371 C 0.17856 0.85597 0.14334 0.0
H372 H 0.10111 0.74213 0.12001 0.0
H373 H 0.13261 0.77446 0.14512 0.0
H374 H 0.07948 0.78846 0.09203 0.0
H375 H 0.11119 0.82079 0.11679 0.0
H376 H 0.07286 0.76671 0.2078 0.0
H377 H 0.09817 0.79883 0.17826 0.0
H378 H 0.13233 0.76914 0.24205 0.0
H379 H 0.15736 0.8007 0.21223 0.0
H380 H 0.20346 0.91596 0.23517 0.0
H381 H 0.17424 0.88401 0.20814 0.0
H382 H 0.25645 0.90916 0.19498 0.0
H383 H 0.22684 0.87668 0.1681 0.0
H384 H 0.23547 0.87646 0.07997 0.0
H385 H 0.20424 0.84829 0.10803 0.0
H386 H 0.22388 0.93049 0.10999 0.0
H387 H 0.19334 0.90222 0.13901 0.0
N388 N 0.16018 0.83701 0.13204 0.0
N389 N 0.16356 0.84015 0.18615 0.0
C390 C 0.34051 0.10059 0.81649 0.0
C391 C 0.32218 0.08834 0.79847 0.0
C392 C 0.34195 0.1187 0.83231 0.0
C393 C 0.32501 0.12476 0.83048 0.0
C394 C 0.30534 0.09455 0.7967 0.0
C395 C 0.30681 0.11263 0.81244 0.0
C396 C 0.32667 0.1445 0.84606 0.0
C397 C 0.31632 0.0908 0.90643 0.0
C398 C 0.33647 0.09761 0.92123 0.0
C399 C 0.31428 0.10684 0.89106 0.0
C400 C 0.33219 0.13012 0.89038 0.0
C401 C 0.35421 0.12114 0.92086 0.0
C402 C 0.35198 0.13726 0.90578 0.0
C403 C 0.33026 0.14714 0.87393 0.0
C404 C 0.31616 0.22788 0.89883 0.0
C405 C 0.33156 0.23768 0.92043 0.0
C406 C 0.31498 0.20957 0.88369 0.0
C407 C 0.32977 0.20125 0.88919 0.0
C408 C 0.34542 0.2284 0.92667 0.0
C409 C 0.34465 0.21057 0.91115 0.0
C410 C 0.32936 0.18225 0.87313 0.0
C411 C 0.34757 0.2393 0.81472 0.0
C412 C 0.3325 0.23359 0.79294 0.0
C413 C 0.34567 0.22208 0.83167 0.0
C414 C 0.3282 0.19876 0.82784 0.0
C415 C 0.31498 0.21023 0.78913 0.0
C416 C 0.31293 0.19299 0.80635 0.0
C417 C 0.32691 0.18023 0.84496 0.0
H418 H 0.35375 0.09623 0.8183 0.0
H419 H 0.35651 0.12823 0.84557 0.0
H420 H 0.29127 0.08582 0.78262 0.0
H421 H 0.29373 0.1172 0.81046 0.0
H422 H 0.30197 0.07305 0.90677 0.0
H423 H 0.29865 0.10109 0.87977 0.0
H424 H 0.37005 0.12706 0.93173 0.0
H425 H 0.36595 0.15523 0.90562 0.0
H426 H 0.30518 0.23446 0.89335 0.0
H427 H 0.30254 0.20203 0.86765 0.0
H428 H 0.35688 0.23477 0.94371 0.0
H429 H 0.35588 0.20416 0.91627 0.0
H430 H 0.36111 0.25711 0.81851 0.0
H431 H 0.35816 0.227 0.84754 0.0
H432 H 0.3033 0.20512 0.77236 0.0
H433 H 0.29952 0.17507 0.80271 0.0
N434 N 0.32523 0.16119 0.83265 0.0
N435 N 0.33132 0.1658 0.88639 0.0
C436 C 0.92461 0.22805 0.90034 0.0
C437 C 0.91892 0.2361 0.9236 0.0
C438 C 0.90754 0.20938 0.88549 0.0
C439 C 0.88428 0.19894 0.89293 0.0
C440 C 0.89575 0.22458 0.93188 0.0
C441 C 0.87867 0.20638 0.91663 0.0
C442 C 0.86566 0.18002 0.87669 0.0
C443 C 0.89976 0.24047 0.82023 0.0
C444 C 0.90871 0.23653 0.79656 0.0
C445 C 0.88616 0.22218 0.83744 0.0
C446 C 0.88166 0.19964 0.83173 0.0
C447 C 0.90437 0.21398 0.79104 0.0
C448 C 0.89091 0.19573 0.8084 0.0
C449 C 0.86544 0.17971 0.8484 0.0
C450 C 0.776 0.10709 0.80903 0.0
C451 C 0.78069 0.09135 0.79559 0.0
C452 C 0.79176 0.1233 0.82741 0.0
C453 C 0.81248 0.12413 0.83236 0.0
C454 C 0.80109 0.0917 0.80177 0.0
C455 C 0.81703 0.10825 0.81952 0.0
C456 C 0.8305 0.1429 0.84875 0.0
C457 C 0.78081 0.08607 0.90287 0.0
C458 C 0.77283 0.09347 0.92475 0.0
C459 C 0.79966 0.10208 0.88775 0.0
C460 C 0.81043 0.12605 0.8933 0.0
C461 C 0.78443 0.11741 0.93105 0.0
C462 C 0.80284 0.13345 0.91544 0.0
C463 C 0.8299 0.14368 0.87693 0.0
H464 H 0.94218 0.23635 0.89322 0.0
H465 H 0.91259 0.20332 0.86801 0.0
H466 H 0.89069 0.22959 0.95017 0.0
H467 H 0.86095 0.19831 0.92325 0.0
H468 H 0.90291 0.25763 0.82526 0.0
H469 H 0.87869 0.2256 0.85486 0.0
H470 H 0.91063 0.21021 0.77281 0.0
H471 H 0.88737 0.17842 0.80334 0.0
H472 H 0.76065 0.10756 0.80463 0.0
H473 H 0.7882 0.13572 0.83698 0.0
H474 H 0.80504 0.07945 0.79254 0.0
H475 H 0.833 0.10874 0.82317 0.0
H476 H 0.77247 0.06789 0.89711 0.0
H477 H 0.80583 0.09551 0.87195 0.0
H478 H 0.77947 0.12391 0.94819 0.0
H479 H 0.81106 0.15177 0.92062 0.0
N480 N 0.84766 0.16219 0.88975 0.0
N481 N 0.84808 0.16093 0.83564 0.0
C482 C 0.76619 0.67597 0.89966 0.0
C483 C 0.75561 0.65958 0.9201 0.0
C484 C 0.7841 0.67703 0.8846 0.0
C485 C 0.7913 0.66107 0.88869 0.0
C486 C 0.76317 0.6439 0.92457 0.0
C487 C 0.78078 0.64462 0.909 0.0
C488 C 0.8108 0.66253 0.87321 0.0
C489 C 0.75716 0.64737 0.81138 0.0
C490 C 0.76199 0.667 0.79637 0.0
C491 C 0.774 0.64755 0.8274 0.0
C492 C 0.79621 0.66721 0.82855 0.0
C493 C 0.78438 0.6867 0.79762 0.0
C494 C 0.80138 0.68666 0.81327 0.0
C495 C 0.81399 0.66731 0.84557 0.0
C496 C 0.89735 0.66092 0.81786 0.0
C497 C 0.90822 0.67973 0.80022 0.0
C498 C 0.87869 0.65757 0.83351 0.0
C499 C 0.87071 0.67316 0.83213 0.0
C500 C 0.90012 0.69525 0.79891 0.0
C501 C 0.88157 0.69195 0.81462 0.0
C502 C 0.85013 0.6693 0.84725 0.0
C503 C 0.9022 0.68086 0.91028 0.0
C504 C 0.89646 0.66035 0.92397 0.0
C505 C 0.88608 0.68192 0.89413 0.0
C506 C 0.86377 0.6626 0.89151 0.0
C507 C 0.87391 0.64112 0.92153 0.0
C508 C 0.85767 0.64234 0.90568 0.0
C509 C 0.84658 0.66373 0.87468 0.0
H510 H 0.76077 0.68817 0.89524 0.0
H511 H 0.79255 0.69069 0.87007 0.0
H512 H 0.75585 0.63134 0.94045 0.0
H513 H 0.78629 0.63239 0.91296 0.0
H514 H 0.74047 0.63156 0.81043 0.0
H515 H 0.76976 0.63218 0.83867 0.0
H516 H 0.78882 0.70226 0.78669 0.0
H517 H 0.81846 0.70202 0.81391 0.0
H518 H 0.90316 0.64866 0.81945 0.0
H519 H 0.87021 0.6425 0.8462 0.0
H520 H 0.90769 0.70963 0.78517 0.0
H521 H 0.87557 0.70405 0.81291 0.0
H522 H 0.91912 0.69628 0.91218 0.0
H523 H 0.89097 0.69791 0.88385 0.0
H524 H 0.86885 0.62496 0.93145 0.0
H525 H 0.84046 0.62729 0.90404 0.0
N526 N 0.82711 0.66063 0.88661 0.0
N527 N 0.83362 0.67079 0.83376 0.0
C528 C 0.7663 0.66323 0.45174 0.0
C529 C 0.7736 0.68083 0.43257 0.0
C530 C 0.78212 0.66211 0.46836 0.0
C531 C 0.80563 0.67906 0.46705 0.0
C532 C 0.7972 0.6977 0.43112 0.0
C533 C 0.81298 0.69681 0.44816 0.0
C534 C 0.82292 0.6774 0.48343 0.0
C535 C 0.77723 0.68074 0.54978 0.0
C536 C 0.7626 0.65847 0.56046 0.0
C537 C 0.79536 0.68479 0.53269 0.0
C538 C 0.79941 0.66678 0.52634 0.0
C539 C 0.76634 0.64032 0.55298 0.0
C540 C 0.7848 0.64456 0.53655 0.0
C541 C 0.81975 0.67122 0.51069 0.0
C542 C 0.91279 0.694 0.54613 0.0
C543 C 0.90801 0.67434 0.56108 0.0
C544 C 0.89611 0.6936 0.52957 0.0
C545 C 0.87409 0.67372 0.52787 0.0
C546 C 0.8859 0.65429 0.55891 0.0
C547 C 0.86904 0.65413 0.54281 0.0
C548 C 0.85611 0.67372 0.51134 0.0
C549 C 0.90203 0.66488 0.45415 0.0
C550 C 0.91193 0.68116 0.4335 0.0
C551 C 0.88512 0.66438 0.47066 0.0
C552 C 0.87822 0.68069 0.46767 0.0
C553 C 0.90502 0.6975 0.43046 0.0
C554 C 0.88831 0.69723 0.44737 0.0
C555 C 0.85901 0.67908 0.48385 0.0
H556 H 0.74829 0.65006 0.45385 0.0
H557 H 0.77587 0.6475 0.48162 0.0
H558 H 0.80363 0.71129 0.41639 0.0
H559 H 0.83106 0.70991 0.44634 0.0
H560 H 0.77524 0.69528 0.55528 0.0
H561 H 0.80669 0.70214 0.52518 0.0
H562 H 0.75516 0.62279 0.56 0.0
H563 H 0.78767 0.63044 0.53173 0.0
H564 H 0.92923 0.71005 0.54767 0.0
H565 H 0.90024 0.70906 0.51855 0.0
H566 H 0.88151 0.63864 0.5696 0.0
H567 H 0.85211 0.6386 0.54175 0.0
H568 H 0.90711 0.65223 0.45744 0.0
H569 H 0.87701 0.6507 0.48522 0.0
H570 H 0.91201 0.71009 0.41458 0.0
H571 H 0.88301 0.70976 0.44432 0.0
N572 N 0.84244 0.68099 0.4711 0.0
N573 N 0.83647 0.66972 0.52359 0.0
C574 C 0.31563 0.21176 0.4307 0.0
C575 C 0.33338 0.23529 0.43045 0.0
C576 C 0.31775 0.19561 0.44587 0.0
C577 C 0.33744 0.20273 0.46143 0.0
C578 C 0.35352 0.24202 0.44526 0.0
C579 C 0.35544 0.22596 0.46071 0.0
C580 C 0.33881 0.18595 0.47892 0.0
C581 C 0.36144 0.23973 0.55427 0.0
C582 C 0.34471 0.24598 0.5515 0.0
C583 C 0.35998 0.22126 0.53943 0.0
C584 C 0.34194 0.20878 0.52132 0.0
C585 C 0.32659 0.23348 0.53328 0.0
C586 C 0.32522 0.215 0.51828 0.0
C587 C 0.34033 0.18857 0.507 0.0
C588 C 0.35255 0.10966 0.54279 0.0
C589 C 0.33489 0.09981 0.56199 0.0
C590 C 0.35464 0.12721 0.52603 0.0
C591 C 0.33917 0.13521 0.52835 0.0
C592 C 0.31991 0.10839 0.56469 0.0
C593 C 0.32213 0.12597 0.54817 0.0
C594 C 0.34034 0.15317 0.51046 0.0
C595 C 0.31992 0.09044 0.4564 0.0
C596 C 0.33841 0.09459 0.4397 0.0
C597 C 0.32044 0.10873 0.47078 0.0
C598 C 0.33931 0.13142 0.46832 0.0
C599 C 0.35751 0.11723 0.43781 0.0
C600 C 0.35783 0.13558 0.4518 0.0
C601 C 0.33959 0.15099 0.48236 0.0
H602 H 0.29982 0.2059 0.4198 0.0
H603 H 0.30368 0.1777 0.44618 0.0
H604 H 0.36786 0.25978 0.44501 0.0
H605 H 0.37094 0.2317 0.47226 0.0
H606 H 0.37533 0.24868 0.56853 0.0
H607 H 0.37293 0.21661 0.54225 0.0
H608 H 0.31344 0.23789 0.53078 0.0
H609 H 0.31086 0.20527 0.50478 0.0
H610 H 0.36437 0.10343 0.54033 0.0
H611 H 0.36828 0.13446 0.51128 0.0
H612 H 0.3064 0.10143 0.57962 0.0
H613 H 0.31015 0.13203 0.55051 0.0
H614 H 0.305 0.07309 0.45807 0.0
H615 H 0.30597 0.10528 0.48339 0.0
H616 H 0.37182 0.12084 0.4248 0.0
H617 H 0.3725 0.15304 0.44971 0.0
N618 N 0.33866 0.16732 0.46758 0.0
N619 N 0.34082 0.17198 0.52171 0.0
C620 C 0.76791 0.09757 0.44905 0.0
C621 C 0.75178 0.09979 0.43403 0.0
C622 C 0.78528 0.11667 0.46295 0.0
C623 C 0.78688 0.13835 0.46196 0.0
C624 C 0.75322 0.12145 0.4333 0.0
C625 C 0.77084 0.14069 0.44696 0.0
C626 C 0.80564 0.15853 0.4762 0.0
C627 C 0.75372 0.11245 0.53793 0.0
C628 C 0.76245 0.10192 0.55425 0.0
C629 C 0.76855 0.13097 0.52149 0.0
C630 C 0.79229 0.1393 0.52139 0.0
C631 C 0.78624 0.11058 0.55435 0.0
C632 C 0.80101 0.12918 0.53824 0.0
C633 C 0.80843 0.15864 0.50411 0.0
C634 C 0.88812 0.25442 0.52736 0.0
C635 C 0.89799 0.24891 0.54843 0.0
C636 C 0.87116 0.23684 0.51125 0.0
C637 C 0.86392 0.21343 0.51578 0.0
C638 C 0.8912 0.22552 0.55235 0.0
C639 C 0.87426 0.20797 0.53626 0.0
C640 C 0.84414 0.19445 0.50112 0.0
C641 C 0.90002 0.22735 0.44022 0.0
C642 C 0.89733 0.24234 0.42342 0.0
C643 C 0.88185 0.21169 0.45634 0.0
C644 C 0.8606 0.21055 0.45572 0.0
C645 C 0.876 0.24111 0.4227 0.0
C646 C 0.85764 0.22508 0.43849 0.0
C647 C 0.84164 0.19407 0.47312 0.0
H648 H 0.76712 0.08104 0.44995 0.0
H649 H 0.79765 0.1146 0.47424 0.0
H650 H 0.7411 0.12361 0.42162 0.0
H651 H 0.77192 0.15735 0.44592 0.0
H652 H 0.73546 0.10611 0.53758 0.0
H653 H 0.76153 0.13883 0.50896 0.0
H654 H 0.79346 0.10302 0.56706 0.0
H655 H 0.81927 0.13543 0.53861 0.0
H656 H 0.89307 0.2723 0.52377 0.0
H657 H 0.86309 0.2415 0.49601 0.0
H658 H 0.8982 0.22065 0.56864 0.0
H659 H 0.86884 0.19002 0.54024 0.0
H660 H 0.91631 0.22804 0.44121 0.0
H661 H 0.88438 0.20042 0.46932 0.0
H662 H 0.8735 0.25242 0.40976 0.0
H663 H 0.84132 0.22434 0.43768 0.0
N664 N 0.82238 0.17621 0.46163 0.0
N665 N 0.82755 0.1766 0.51549 0.0
C666 C 0.98159 0.5554 0.14351 0.0
C667 C 1.00037 0.56818 0.12631 0.0
C668 C 0.98102 0.53845 0.16008 0.0
C669 C 0.9992 0.53405 0.15959 0.0
C670 C 0.01801 0.56303 0.12519 0.0
C671 C 0.01734 0.54605 0.14151 0.0
C672 C 0.99985 0.51727 0.17788 0.0
C673 C 0.00704 0.57649 0.22923 0.0
C674 C 0.9913 0.56975 0.25045 0.0
C675 C 0.00912 0.55979 0.2145 0.0
C676 C 0.99491 0.53602 0.22018 0.0
C677 C 0.97721 0.54606 0.25625 0.0
C678 C 0.97895 0.52934 0.24117 0.0
C679 C 0.99771 0.5181 0.20595 0.0
C680 C 0.02598 0.45105 0.24248 0.0
C681 C 0.00893 0.4384 0.26166 0.0
C682 C 0.02418 0.46663 0.22589 0.0
C683 C 0.00534 0.46987 0.22828 0.0
C684 C 0.99052 0.44229 0.26461 0.0
C685 C 0.98887 0.45805 0.24824 0.0
C686 C 0.00269 0.48554 0.21008 0.0
C687 C 0.98859 0.42407 0.15831 0.0
C688 C 0.00302 0.42917 0.13592 0.0
C689 C 0.9895 0.44195 0.17395 0.0
C690 C 0.00514 0.46532 0.16778 0.0
C691 C 0.01913 0.45256 0.13026 0.0
C692 C 0.02008 0.47045 0.14597 0.0
C693 C 0.00421 0.48433 0.182 0.0
H694 H 0.96773 0.55895 0.14467 0.0
H695 H 0.9666 0.52903 0.17352 0.0
H696 H 0.03247 0.5723 0.11175 0.0
H697 H 0.03139 0.54275 0.14056 0.0
H698 H 0.01843 0.59473 0.22486 0.0
H699 H 0.02229 0.56557 0.19924 0.0
H700 H 0.96508 0.54055 0.2727 0.0
H701 H 0.96801 0.51116 0.24616 0.0
H702 H 0.0403 0.44834 0.23971 0.0
H703 H 0.03737 0.47596 0.21099 0.0
H704 H 0.97726 0.43294 0.27943 0.0
H705 H 0.97434 0.46049 0.25064 0.0
H706 H 0.9761 0.40623 0.16329 0.0
H707 H 0.9773 0.43747 0.19016 0.0
H708 H 0.03024 0.4571 0.11293 0.0
H709 H 0.0321 0.48834 0.14066 0.0
N710 N 0.00304 0.50043 0.16704 0.0
N711 N 0.99919 0.50218 0.22093 0.0
C712 C 0.46551 0.42179 0.13843 0.0
C713 C 0.44245 0.41581 0.1412 0.0
C714 C 0.48266 0.43964 0.15392 0.0
C715 C 0.47714 0.45173 0.17268 0.0
C716 C 0.43684 0.42771 0.16034 0.0
C717 C 0.45409 0.44558 0.17598 0.0
C718 C 0.49597 0.4721 0.1866 0.0
C719 C 0.4492 0.45025 0.26502 0.0
C720 C 0.44217 0.42649 0.26495 0.0
C721 C 0.46767 0.46595 0.24925 0.0
C722 C 0.47923 0.45821 0.23267 0.0
C723 C 0.45437 0.41898 0.24886 0.0
C724 C 0.47264 0.43467 0.23278 0.0
C725 C 0.4975 0.47483 0.21465 0.0
C726 C 0.5707 0.57321 0.2338 0.0
C727 C 0.58692 0.57142 0.24922 0.0
C728 C 0.55305 0.55363 0.22082 0.0
C729 C 0.55128 0.53197 0.22325 0.0
C730 C 0.58534 0.54978 0.25122 0.0
C731 C 0.56748 0.53012 0.23852 0.0
C732 C 0.53247 0.51119 0.21 0.0
C733 C 0.58354 0.55703 0.14763 0.0
C734 C 0.57351 0.56566 0.13038 0.0
C735 C 0.56968 0.53825 0.16427 0.0
C736 C 0.54562 0.52783 0.16371 0.0
C737 C 0.54943 0.55472 0.12941 0.0
C738 C 0.53565 0.53592 0.14578 0.0
C739 C 0.53043 0.50888 0.18197 0.0
H740 H 0.47048 0.41331 0.12352 0.0
H741 H 0.50038 0.44434 0.15087 0.0
H742 H 0.41922 0.42346 0.1629 0.0
H743 H 0.44953 0.45505 0.18997 0.0
H744 H 0.44009 0.4567 0.27671 0.0
H745 H 0.47246 0.48405 0.24933 0.0
H746 H 0.44985 0.40097 0.24868 0.0
H747 H 0.48156 0.42843 0.22034 0.0
H748 H 0.57159 0.58973 0.23201 0.0
H749 H 0.54061 0.5553 0.20916 0.0
H750 H 0.59749 0.54795 0.26328 0.0
H751 H 0.5663 0.51348 0.24056 0.0
H752 H 0.60207 0.56512 0.14868 0.0
H753 H 0.57771 0.53201 0.17766 0.0
H754 H 0.54122 0.56075 0.11596 0.0
H755 H 0.51713 0.52805 0.14492 0.0
N756 N 0.51235 0.48932 0.17133 0.0
N757 N 0.51582 0.49424 0.22539 0.0
C758 C 0.43448 0.00713 0.23255 0.0
C759 C 0.42488 0.99144 0.25383 0.0
C760 C 0.45145 0.00742 0.21626 0.0
C761 C 0.4587 0.9915 0.22022 0.0
C762 C 0.43254 0.97583 0.25809 0.0
C763 C 0.44925 0.97587 0.24146 0.0
C764 C 0.47718 0.99202 0.20357 0.0
C765 C 0.42013 0.97573 0.14617 0.0
C766 C 0.42579 0.99106 0.12468 0.0
C767 C 0.43723 0.97707 0.16275 0.0
C768 C 0.46041 0.99428 0.15889 0.0
C769 C 0.44901 0.00833 0.12086 0.0
C770 C 0.46612 0.00987 0.13774 0.0
C771 C 0.47887 0.9951 0.17555 0.0
C772 C 0.56143 0.98794 0.14474 0.0
C773 C 0.57247 0.00713 0.12763 0.0
C774 C 0.54271 0.98439 0.16048 0.0
C775 C 0.53486 0.0001 0.15958 0.0
C776 C 0.56422 0.02252 0.12649 0.0
C777 C 0.54561 0.01899 0.1422 0.0
C778 C 0.51501 0.99681 0.17575 0.0
C779 C 0.56989 0.00768 0.2347 0.0
C780 C 0.56271 0.99071 0.25465 0.0
C781 C 0.55388 0.00848 0.21805 0.0
C782 C 0.53035 0.99181 0.22024 0.0
C783 C 0.53907 0.97429 0.25707 0.0
C784 C 0.52312 0.97484 0.24006 0.0
C785 C 0.51288 0.99283 0.20361 0.0
H786 H 0.42889 0.01924 0.22835 0.0
H787 H 0.45902 0.02029 0.2007 0.0
H788 H 0.42596 0.96382 0.27456 0.0
H789 H 0.45484 0.96368 0.24527 0.0
H790 H 0.40244 0.96237 0.14999 0.0
H791 H 0.4323 0.96431 0.1783 0.0
H792 H 0.45412 0.02019 0.1043 0.0
H793 H 0.48389 0.02312 0.13408 0.0
H794 H 0.56733 0.97575 0.1461 0.0
H795 H 0.53435 0.96936 0.17326 0.0
H796 H 0.57191 0.03715 0.11309 0.0
H797 H 0.53966 0.03116 0.14088 0.0
H798 H 0.58792 0.02047 0.23187 0.0
H799 H 0.55997 0.02237 0.20374 0.0
H800 H 0.53274 0.96126 0.27247 0.0
H801 H 0.50503 0.96203 0.24254 0.0
N802 N 0.49408 0.99069 0.2163 0.0
N803 N 0.49789 0.9977 0.16291 0.0
C804 C 0.58416 0.02702 0.78688 0.0
C805 C 0.57991 0.00942 0.76813 0.0
C806 C 0.56607 0.02589 0.80178 0.0
C807 C 0.54347 0.00726 0.79797 0.0
C808 C 0.55727 0.99082 0.76437 0.0
C809 C 0.53917 0.98989 0.77897 0.0
C810 C 0.52407 0.00631 0.81273 0.0
C811 C 0.56482 0.9923 0.87264 0.0
C812 C 0.57516 0.00992 0.89229 0.0
C813 C 0.54792 0.99124 0.85575 0.0
C814 C 0.54101 0.00769 0.85838 0.0
C815 C 0.56786 0.02603 0.89515 0.0
C816 C 0.55085 0.0248 0.87852 0.0
C817 C 0.52311 0.00694 0.84091 0.0
C818 C 0.42609 0.98232 0.86176 0.0
C819 C 0.42943 0.99606 0.88474 0.0
C820 C 0.44484 0.98588 0.84621 0.0
C821 C 0.4673 0.00341 0.85316 0.0
C822 C 0.4519 0.0138 0.89143 0.0
C823 C 0.47064 0.01734 0.87588 0.0
C824 C 0.48744 0.00589 0.83833 0.0
C825 C 0.45051 0.02562 0.78021 0.0
C826 C 0.43973 0.00926 0.75939 0.0
C827 C 0.46641 0.02453 0.7968 0.0
C828 C 0.47191 0.00716 0.79274 0.0
C829 C 0.44557 0.99215 0.75508 0.0
C830 C 0.4617 0.99128 0.77144 0.0
C831 C 0.48876 0.0059 0.81013 0.0
H832 H 0.60148 0.0415 0.79017 0.0
H833 H 0.56967 0.03969 0.81604 0.0
H834 H 0.55353 0.97717 0.74984 0.0
H835 H 0.5218 0.97552 0.77556 0.0
H836 H 0.5701 0.97965 0.87006 0.0
H837 H 0.54018 0.97753 0.84073 0.0
H838 H 0.57527 0.03958 0.91038 0.0
H839 H 0.5456 0.03749 0.88114 0.0
H840 H 0.409 0.96857 0.85601 0.0
H841 H 0.44179 0.97443 0.82924 0.0
H842 H 0.45512 0.02444 0.90924 0.0
H843 H 0.48782 0.03076 0.88184 0.0
H844 H 0.44625 0.03891 0.78404 0.0
H845 H 0.47444 0.03728 0.81279 0.0
H846 H 0.43766 0.97946 0.73902 0.0
H847 H 0.46589 0.97791 0.76777 0.0
N848 N 0.50688 0.00581 0.79841 0.0
N849 N 0.50482 0.0067 0.85262 0.0
C850 C 0.98079 0.55438 0.78103 0.0
C851 C 0.99805 0.568 0.76246 0.0
C852 C 0.98282 0.53858 0.79693 0.0
C853 C 0.00208 0.53604 0.79446 0.0
C854 C 0.01697 0.56491 0.75947 0.0
C855 C 0.01883 0.54889 0.77515 0.0
C856 C 0.00483 0.52016 0.81215 0.0
C857 C 0.01865 0.58112 0.8646 0.0
C858 C 0.00401 0.57578 0.88683 0.0
C859 C 0.01799 0.5634 0.84889 0.0
C860 C 0.0024 0.53997 0.85482 0.0
C861 C 0.98799 0.55234 0.89228 0.0
C862 C 0.98727 0.53461 0.87648 0.0
C863 C 0.0033 0.52108 0.84027 0.0
C864 C 0.02199 0.44665 0.87676 0.0
C865 C 0.00392 0.43537 0.89524 0.0
C866 C 0.02295 0.46363 0.85992 0.0
C867 C 0.00591 0.46964 0.86141 0.0
C868 C 0.98728 0.44189 0.89709 0.0
C869 C 0.98836 0.45893 0.88049 0.0
C870 C 0.00624 0.48727 0.84365 0.0
C871 C 0.9896 0.42675 0.78853 0.0
C872 C 0.00767 0.43143 0.77089 0.0
C873 C 0.99018 0.44467 0.80373 0.0
C874 C 0.00875 0.46755 0.80135 0.0
C875 C 0.02656 0.45422 0.76907 0.0
C876 C 0.02695 0.47224 0.78398 0.0
C877 C 0.00834 0.48672 0.81561 0.0
H878 H 0.96608 0.55645 0.78382 0.0
H879 H 0.96946 0.52852 0.8114 0.0
H880 H 0.0304 0.57502 0.74511 0.0
H881 H 0.0337 0.54702 0.77275 0.0
H882 H 0.03109 0.59901 0.85978 0.0
H883 H 0.03031 0.56805 0.83278 0.0
H884 H 0.97672 0.54762 0.90949 0.0
H885 H 0.97525 0.51667 0.88158 0.0
H886 H 0.03507 0.44201 0.87498 0.0
H887 H 0.03699 0.47206 0.84578 0.0
H888 H 0.97337 0.43378 0.91146 0.0
H889 H 0.97518 0.46345 0.88224 0.0
H890 H 0.97486 0.40929 0.79019 0.0
H891 H 0.97582 0.44078 0.81677 0.0
H892 H 0.04056 0.45822 0.75537 0.0
H893 H 0.04133 0.48985 0.78178 0.0
N894 N 0.00755 0.50315 0.80086 0.0
N895 N 0.00381 0.50446 0.8549 0.0
C896 C 0.55427 0.58572 0.78335 0.0
C897 C 0.56248 0.57794 0.76207 0.0
C898 C 0.53548 0.56992 0.79871 0.0
C899 C 0.52496 0.54586 0.79392 0.0
C900 C 0.55111 0.55388 0.75649 0.0
C901 C 0.53273 0.53809 0.7723 0.0
C902 C 0.50563 0.52846 0.8106 0.0
C903 C 0.55998 0.56544 0.87815 0.0
C904 C 0.55579 0.58179 0.89092 0.0
C905 C 0.544 0.54907 0.86006 0.0
C906 C 0.52356 0.54867 0.85472 0.0
C907 C 0.53568 0.58188 0.8843 0.0
C908 C 0.51952 0.56517 0.86685 0.0
C909 C 0.50527 0.52968 0.83877 0.0
C910 C 0.43823 0.43221 0.86924 0.0
C911 C 0.42911 0.43606 0.89281 0.0
C912 C 0.45126 0.45038 0.85168 0.0
C913 C 0.45499 0.47271 0.85693 0.0
C914 C 0.43266 0.45838 0.89788 0.0
C915 C 0.44556 0.47652 0.88016 0.0
C916 C 0.47069 0.49258 0.83988 0.0
C917 C 0.41179 0.4421 0.78875 0.0
C918 C 0.41778 0.43402 0.76572 0.0
C919 C 0.42857 0.46128 0.80327 0.0
C920 C 0.45185 0.47227 0.79572 0.0
C921 C 0.44093 0.44602 0.75736 0.0
C922 C 0.45773 0.46477 0.77226 0.0
C923 C 0.47024 0.4918 0.8116 0.0
H924 H 0.56244 0.60402 0.78844 0.0
H925 H 0.52917 0.57669 0.81412 0.0
H926 H 0.55626 0.54711 0.7398 0.0
H927 H 0.52469 0.51968 0.76771 0.0
H928 H 0.57507 0.56459 0.8829 0.0
H929 H 0.54717 0.53617 0.85106 0.0
H930 H 0.53212 0.59459 0.893 0.0
H931 H 0.50375 0.56502 0.86291 0.0
H932 H 0.43566 0.41521 0.86456 0.0
H933 H 0.45891 0.44708 0.83436 0.0
H934 H 0.42622 0.46207 0.91602 0.0
H935 H 0.44853 0.49369 0.88487 0.0
H936 H 0.39422 0.43343 0.7959 0.0
H937 H 0.4233 0.4673 0.82057 0.0
H938 H 0.4462 0.441 0.73924 0.0
H939 H 0.47545 0.47321 0.76557 0.0
N940 N 0.48796 0.5096 0.79817 0.0
N941 N 0.48798 0.51171 0.85226 0.0
C942 C 0.67117 0.76739 0.48342 0.0
C943 C 0.65322 0.75446 0.46518 0.0
C944 C 0.67141 0.78497 0.49908 0.0
C945 C 0.65363 0.78978 0.49686 0.0
C946 C 0.63555 0.75946 0.46294 0.0
C947 C 0.63582 0.77702 0.47855 0.0
C948 C 0.65392 0.80872 0.51259 0.0
C949 C 0.64412 0.75432 0.57188 0.0
C950 C 0.66434 0.76157 0.58675 0.0
C951 C 0.64149 0.7702 0.55689 0.0
C952 C 0.65885 0.79374 0.55672 0.0
C953 C 0.68159 0.78531 0.58661 0.0
C954 C 0.67873 0.80124 0.572 0.0
C955 C 0.65646 0.81063 0.54059 0.0
C956 C 0.64233 0.89147 0.5657 0.0
C957 C 0.65742 0.90081 0.5876 0.0
C958 C 0.64092 0.87304 0.55058 0.0
C959 C 0.65516 0.86416 0.55651 0.0
C960 C 0.67047 0.89077 0.59445 0.0
C961 C 0.66949 0.87284 0.57898 0.0
C962 C 0.655 0.84542 0.54021 0.0
C963 C 0.67568 0.90397 0.48309 0.0
C964 C 0.66135 0.89887 0.46069 0.0
C965 C 0.67303 0.8863 0.49982 0.0
C966 C 0.65553 0.86312 0.49512 0.0
C967 C 0.64381 0.87564 0.45601 0.0
C968 C 0.641 0.85795 0.47299 0.0
C969 C 0.65357 0.84413 0.51193 0.0
H970 H 0.68503 0.76396 0.48554 0.0
H971 H 0.68567 0.79502 0.51259 0.0
H972 H 0.62174 0.75017 0.44865 0.0
H973 H 0.62211 0.78067 0.4763 0.0
H974 H 0.63015 0.73638 0.57196 0.0
H975 H 0.62585 0.76414 0.54552 0.0
H976 H 0.69754 0.79161 0.59739 0.0
H977 H 0.69234 0.81937 0.57208 0.0
H978 H 0.63191 0.89863 0.55987 0.0
H979 H 0.62887 0.86597 0.53411 0.0
H980 H 0.68161 0.89678 0.61177 0.0
H981 H 0.68026 0.86598 0.58445 0.0
H982 H 0.68922 0.92164 0.48754 0.0
H983 H 0.68498 0.89077 0.5162 0.0
H984 H 0.6327 0.87099 0.43874 0.0
H985 H 0.62762 0.84017 0.46867 0.0
N986 N 0.65263 0.82554 0.49931 0.0
N987 N 0.65677 0.8288 0.55332 0.0
C988 C 0.11094 0.74689 0.49032 0.0
C989 C 0.10062 0.75215 0.46951 0.0
C990 C 0.12823 0.76465 0.50591 0.0
C991 C 0.13535 0.78801 0.50121 0.0
C992 C 0.10739 0.7755 0.46532 0.0
C993 C 0.12463 0.79323 0.48094 0.0
C994 C 0.15522 0.80715 0.51562 0.0
C995 C 0.10026 0.77373 0.57726 0.0
C996 C 0.10337 0.75904 0.59408 0.0
C997 C 0.11815 0.78943 0.56088 0.0
C998 C 0.13955 0.79088 0.56119 0.0
C999 C 0.12483 0.76053 0.59448 0.0
C1000 C 0.14292 0.77659 0.57838 0.0
C1001 C 0.15821 0.80744 0.54351 0.0
C1002 C 0.23257 0.90365 0.56828 0.0
C1003 C 0.24831 0.90075 0.58325 0.0
C1004 C 0.21518 0.88501 0.55381 0.0
C1005 C 0.21314 0.86311 0.55422 0.0
C1006 C 0.24651 0.87892 0.58327 0.0
C1007 C 0.22885 0.86014 0.56908 0.0
C1008 C 0.19402 0.84319 0.54001 0.0
C1009 C 0.24438 0.89016 0.47738 0.0
C1010 C 0.23492 0.89952 0.46032 0.0
C1011 C 0.23015 0.87189 0.49445 0.0
C1012 C 0.20626 0.86273 0.49469 0.0
C1013 C 0.21098 0.89003 0.46037 0.0
C1014 C 0.19683 0.87179 0.47727 0.0
C1015 C 0.19062 0.84329 0.51223 0.0
H1016 H 0.10603 0.72906 0.49413 0.0
H1017 H 0.1366 0.76014 0.52094 0.0
H1018 H 0.10008 0.7802 0.4492 0.0
H1019 H 0.12994 0.81113 0.47682 0.0
H1020 H 0.08387 0.77285 0.57652 0.0
H1021 H 0.1153 0.8005 0.54795 0.0
H1022 H 0.12767 0.74948 0.60746 0.0
H1023 H 0.15936 0.77757 0.57897 0.0
H1024 H 0.23364 0.92033 0.56796 0.0
H1025 H 0.20303 0.88756 0.5427 0.0
H1026 H 0.25832 0.87623 0.59491 0.0
H1027 H 0.22742 0.8433 0.56972 0.0
H1028 H 0.26276 0.89711 0.47773 0.0
H1029 H 0.23778 0.86482 0.50726 0.0
H1030 H 0.20312 0.89655 0.4471 0.0
H1031 H 0.17844 0.86487 0.47689 0.0
N1032 N 0.1714 0.82521 0.50113 0.0
N1033 N 0.17763 0.82532 0.55471 0.0
C1034 C 0.24245 0.35171 0.48903 0.0
C1035 C 0.23906 0.33804 0.46598 0.0
C1036 C 0.22373 0.34823 0.50459 0.0
C1037 C 0.20122 0.33085 0.49759 0.0
C1038 C 0.21654 0.32044 0.45921 0.0
C1039 C 0.19782 0.317 0.47476 0.0
C1040 C 0.18113 0.32848 0.51248 0.0
C1041 C 0.21747 0.30808 0.57079 0.0
C1042 C 0.22783 0.32397 0.59212 0.0
C1043 C 0.202 0.30962 0.55389 0.0
C1044 C 0.19657 0.32703 0.55812 0.0
C1045 C 0.22204 0.3411 0.59657 0.0
C1046 C 0.20639 0.34246 0.57989 0.0
C1047 C 0.17992 0.32859 0.54069 0.0
C1048 C 0.08553 0.31018 0.56504 0.0
C1049 C 0.09059 0.32794 0.58391 0.0
C1050 C 0.10311 0.3106 0.54973 0.0
C1051 C 0.12601 0.32872 0.5532 0.0
C1052 C 0.11353 0.34602 0.5873 0.0
C1053 C 0.1311 0.34627 0.57227 0.0
C1054 C 0.14494 0.32887 0.53823 0.0
C1055 C 0.10405 0.34257 0.47817 0.0
C1056 C 0.09354 0.3248 0.45871 0.0
C1057 C 0.12097 0.34367 0.49506 0.0
C1058 C 0.12772 0.32708 0.49263 0.0
C1059 C 0.10067 0.30854 0.45608 0.0
C1060 C 0.11768 0.30978 0.47271 0.0
C1061 C 0.14566 0.32787 0.51005 0.0
H1062 H 0.25958 0.36534 0.49485 0.0
H1063 H 0.22685 0.35964 0.52164 0.0
H1064 H 0.21328 0.30985 0.44135 0.0
H1065 H 0.18061 0.30369 0.46875 0.0
H1066 H 0.2217 0.29478 0.56683 0.0
H1067 H 0.19421 0.29717 0.53759 0.0
H1068 H 0.22963 0.35344 0.61302 0.0
H1069 H 0.20221 0.35581 0.58373 0.0
H1070 H 0.06798 0.29609 0.562 0.0
H1071 H 0.09888 0.29664 0.53546 0.0
H1072 H 0.11791 0.35978 0.60192 0.0
H1073 H 0.14869 0.36024 0.57544 0.0
H1074 H 0.09892 0.35535 0.48059 0.0
H1075 H 0.12887 0.35752 0.50988 0.0
H1076 H 0.09317 0.29488 0.44097 0.0
H1077 H 0.12281 0.29699 0.47025 0.0
N1078 N 0.16377 0.32776 0.49827 0.0
N1079 N 0.16205 0.32914 0.55245 0.0
C1080 C 0.97408 0.37666 0.08967 0.0
C1081 C 0.99296 0.37769 0.07642 0.0
H1082 H 0.96247 0.39213 0.11856 0.0
C1083 C 0.01533 0.39464 0.08458 0.0
H1084 H 0.9566 0.36381 0.08403 0.0
C1085 C 0.01868 0.41086 0.10464 0.0
C1086 C 0.99976 0.41041 0.11702 0.0
H1087 H 0.03028 0.39586 0.07495 0.0
H1088 H 0.03609 0.42404 0.11011 0.0
C1089 C 0.97744 0.39282 0.10969 0.0
C1090 C 0.59439 0.62223 0.09456 0.0
C1091 C 0.6114 0.62314 0.07742 0.0
H1092 H 0.56934 0.60349 0.12481 0.0
C1093 C 0.61724 0.60589 0.0795 0.0
H1094 H 0.58955 0.63528 0.09379 0.0
C1095 C 0.60558 0.5876 0.09748 0.0
C1096 C 0.5878 0.58618 0.11353 0.0
H1097 H 0.6303 0.60608 0.06669 0.0
H1098 H 0.60981 0.57409 0.09805 0.0
C1099 C 0.58271 0.60396 0.11232 0.0
C1100 C 0.37381 0.96185 0.07898 0.0
C1101 C 0.37454 0.98079 0.0663 0.0
H1102 H 0.3894 0.95015 0.10639 0.0
C1103 C 0.39182 0.00344 0.07384 0.0
H1104 H 0.36085 0.9441 0.07378 0.0
C1105 C 0.40825 0.00694 0.09315 0.0
C1106 C 0.40775 0.98786 0.10529 0.0
H1107 H 0.39291 0.01845 0.06454 0.0
H1108 H 0.42138 0.02458 0.09847 0.0
C1109 C 0.39018 0.96532 0.09801 0.0
C1110 C 0.3908 0.00437 0.93331 0.0
C1111 C 0.37485 0.9813 0.94053 0.0
H1112 H 0.42035 0.0271 0.90982 0.0
C1113 C 0.37607 0.96312 0.92778 0.0
H1114 H 0.39033 0.01883 0.94257 0.0
C1115 C 0.39334 0.96791 0.90907 0.0
C1116 C 0.40982 0.99099 0.90265 0.0
H1117 H 0.3641 0.94515 0.93278 0.0
H1118 H 0.3943 0.95352 0.90041 0.0
C1119 C 0.40811 0.00915 0.91463 0.0
C1120 C 0.0174 0.40189 0.9453 0.0
C1121 C 0.99554 0.38189 0.94879 0.0
H1122 H 0.03726 0.43468 0.92551 0.0
C1123 C 0.97725 0.37889 0.93274 0.0
H1124 H 0.03187 0.40473 0.95727 0.0
C1125 C 0.98032 0.39594 0.91482 0.0
C1126 C 0.00178 0.41645 0.91229 0.0
H1127 H 0.96024 0.36359 0.93448 0.0
H1128 H 0.9657 0.39324 0.90324 0.0
C1129 C 0.0205 0.41902 0.92712 0.0
C1130 C 0.60951 0.62132 0.93217 0.0
C1131 C 0.60008 0.62741 0.95365 0.0
H1132 H 0.60312 0.60286 0.89486 0.0
C1133 C 0.57626 0.61834 0.95444 0.0
H1134 H 0.62786 0.62814 0.93109 0.0
C1135 C 0.56209 0.60349 0.93427 0.0
C1136 C 0.57136 0.59769 0.91231 0.0
H1137 H 0.56843 0.62236 0.97102 0.0
H1138 H 0.54374 0.59628 0.93625 0.0
C1139 C 0.5953 0.60677 0.91152 0.0
C1140 C 0.99108 0.60977 0.93827 0.0
C1141 C 0.01336 0.62677 0.94661 0.0
H1142 H 0.97059 0.58047 0.91248 0.0
C1143 C 0.03238 0.62802 0.93345 0.0
H1144 H 0.97603 0.60839 0.94783 0.0
C1145 C 0.02924 0.61202 0.91335 0.0
C1146 C 0.00701 0.59437 0.90583 0.0
H1147 H 0.0498 0.64093 0.93921 0.0
H1148 H 0.04432 0.61288 0.90456 0.0
C1149 C 0.98794 0.5937 0.91811 0.0
C1150 C 0.41522 0.38533 0.93751 0.0
C1151 C 0.39616 0.38253 0.95215 0.0
H1152 H 0.44067 0.40448 0.90791 0.0
C1153 C 0.38759 0.39719 0.94666 0.0
H1154 H 0.42241 0.37448 0.9412 0.0
C1155 C 0.39801 0.41437 0.92717 0.0
C1156 C 0.41724 0.41728 0.91278 0.0
H1157 H 0.37288 0.39548 0.95746 0.0
H1158 H 0.39096 0.42532 0.92333 0.0
C1159 C 0.42564 0.40249 0.91819 0.0
C1160 C 0.63052 0.037 0.93162 0.0
C1161 C 0.62776 0.01829 0.9469 0.0
H1162 H 0.61623 0.0489 0.90244 0.0
C1163 C 0.60837 0.99607 0.94219 0.0
H1164 H 0.64535 0.05433 0.9343 0.0
C1165 C 0.59157 0.99299 0.92361 0.0
C1166 C 0.59386 0.0121 0.90961 0.0
H1167 H 0.60571 0.98127 0.95354 0.0
H1168 H 0.57636 0.97591 0.92106 0.0
C1169 C 0.61378 0.03396 0.91334 0.0
C1170 C 0.60912 0.99617 0.07853 0.0
C1171 C 0.62709 0.01896 0.07317 0.0
H1172 H 0.57767 0.97456 0.09963 0.0
C1173 C 0.62791 0.03755 0.08758 0.0
H1174 H 0.60792 0.98141 0.06782 0.0
C1175 C 0.61066 0.03358 0.10596 0.0
C1176 C 0.59207 0.01093 0.11033 0.0
H1177 H 0.64161 0.0553 0.08424 0.0
H1178 H 0.61171 0.04835 0.11644 0.0
C1179 C 0.59179 0.99221 0.09687 0.0
C1180 C 0.02647 0.62604 0.09193 0.0
C1181 C 0.00884 0.62262 0.07443 0.0
H1182 H 0.03742 0.61168 0.12209 0.0
C1183 C 0.98733 0.60188 0.07614 0.0
H1184 H 0.04314 0.64193 0.09156 0.0
C1185 C 0.98407 0.5844 0.09385 0.0
C1186 C 0.0023 0.5874 0.11001 0.0
H1187 H 0.97339 0.5987 0.06296 0.0
H1188 H 0.96771 0.56816 0.094 0.0
C1189 C 0.02325 0.60867 0.10942 0.0
C1190 C 0.41162 0.36396 0.09451 0.0
C1191 C 0.3971 0.36931 0.08049 0.0
H1192 H 0.43684 0.37411 0.12525 0.0
C1193 C 0.39543 0.38848 0.08898 0.0
H1194 H 0.41301 0.34908 0.08883 0.0
C1195 C 0.40925 0.40294 0.10983 0.0
C1196 C 0.42489 0.39841 0.12261 0.0
H1197 H 0.38432 0.39301 0.07868 0.0
H1198 H 0.40862 0.41837 0.11488 0.0
C1199 C 0.42531 0.37831 0.11537 0.0
C1200 C 0.67279 0.72546 0.4147 0.0
C1201 C 0.65179 0.70535 0.40793 0.0
H1202 H 0.68967 0.75696 0.43801 0.0
C1203 C 0.6319 0.70026 0.42243 0.0
H1204 H 0.68844 0.72988 0.40397 0.0
C1205 C 0.63265 0.71567 0.44199 0.0
C1206 C 0.65328 0.73656 0.44746 0.0
H1207 H 0.61551 0.68473 0.41804 0.0
H1208 H 0.6169 0.71156 0.45229 0.0
C1209 C 0.67351 0.74096 0.43427 0.0
C1210 C 0.25783 0.9548 0.42085 0.0
C1211 C 0.27466 0.95439 0.40459 0.0
H1212 H 0.23249 0.9381 0.45139 0.0
C1213 C 0.27948 0.93655 0.40815 0.0
H1214 H 0.25381 0.96839 0.41897 0.0
C1215 C 0.26711 0.91906 0.42686 0.0
C1216 C 0.24967 0.91906 0.44228 0.0
H1217 H 0.29238 0.93573 0.39604 0.0
H1218 H 0.27063 0.90511 0.42856 0.0
C1219 C 0.24551 0.93737 0.43943 0.0
C1220 C 0.03857 0.29806 0.41857 0.0
C1221 C 0.04148 0.31696 0.40355 0.0
H1222 H 0.05254 0.28584 0.44777 0.0
C1223 C 0.06081 0.33913 0.4087 0.0
H1224 H 0.02379 0.28076 0.41553 0.0
C1225 C 0.0774 0.34201 0.42744 0.0
C1226 C 0.07498 0.32274 0.44121 0.0
H1227 H 0.06358 0.35407 0.39756 0.0
H1228 H 0.09258 0.35907 0.43029 0.0
C1229 C 0.05511 0.30091 0.43705 0.0
C1230 C 0.06095 0.34175 0.27086 0.0
C1231 C 0.04451 0.31869 0.27756 0.0
H1232 H 0.09102 0.36438 0.24802 0.0
C1233 C 0.04552 0.30045 0.26463 0.0
H1234 H 0.06069 0.35627 0.28031 0.0
C1235 C 0.06296 0.30514 0.24621 0.0
C1236 C 0.07986 0.32819 0.24024 0.0
H1237 H 0.03318 0.28247 0.26922 0.0
H1238 H 0.06367 0.29066 0.2374 0.0
C1239 C 0.07844 0.34644 0.25247 0.0
C1240 C 0.64194 0.71409 0.26562 0.0
C1241 C 0.65998 0.71605 0.28134 0.0
H1242 H 0.63123 0.72973 0.2368 0.0
C1243 C 0.68212 0.73575 0.27829 0.0
H1244 H 0.62471 0.69908 0.26706 0.0
C1245 C 0.68583 0.75347 0.26071 0.0
C1246 C 0.66745 0.75183 0.24603 0.0
H1247 H 0.69641 0.73782 0.29002 0.0
H1248 H 0.70286 0.76879 0.25933 0.0
C1249 C 0.64562 0.73172 0.24828 0.0
C1250 C 0.2798 0.94596 0.26822 0.0
C1251 C 0.27703 0.96461 0.27608 0.0
H1252 H 0.26769 0.91558 0.2433 0.0
C1253 C 0.26154 0.96849 0.26188 0.0
H1254 H 0.29165 0.94253 0.27864 0.0
C1255 C 0.24801 0.95318 0.24156 0.0
C1256 C 0.24957 0.9336 0.235 0.0
H1257 H 0.25924 0.98291 0.26706 0.0
H1258 H 0.2357 0.95622 0.23158 0.0
C1259 C 0.26615 0.93056 0.24787 0.0
C1260 C 0.69952 0.96346 0.26401 0.0
C1261 C 0.68042 0.96207 0.27713 0.0
H1262 H 0.71159 0.94863 0.23482 0.0
C1263 C 0.65819 0.9454 0.26824 0.0
H1264 H 0.71689 0.97614 0.27018 0.0
C1265 C 0.65517 0.92966 0.24771 0.0
C1266 C 0.67428 0.93033 0.2356 0.0
H1267 H 0.64308 0.94394 0.27772 0.0
H1268 H 0.63785 0.91661 0.24178 0.0
C1269 C 0.69648 0.94777 0.24352 0.0
C1270 C 0.07715 0.71037 0.26752 0.0
C1271 C 0.05958 0.71056 0.28248 0.0
H1272 H 0.10358 0.72725 0.23811 0.0
C1273 C 0.05467 0.7282 0.27784 0.0
H1274 H 0.08133 0.69699 0.27033 0.0
C1275 C 0.06753 0.74564 0.25928 0.0
C1276 C 0.08561 0.74582 0.24508 0.0
H1277 H 0.04121 0.72886 0.28892 0.0
H1278 H 0.06382 0.75938 0.2567 0.0
C1279 C 0.09001 0.72779 0.2491 0.0
C1280 C 0.29994 0.37181 0.26995 0.0
C1281 C 0.29704 0.353 0.28515 0.0
H1282 H 0.28585 0.38391 0.24077 0.0
C1283 C 0.27758 0.33084 0.28034 0.0
H1284 H 0.31482 0.38908 0.27275 0.0
C1285 C 0.26087 0.32791 0.26175 0.0
C1286 C 0.26328 0.3471 0.24781 0.0
H1287 H 0.2748 0.31598 0.29164 0.0
H1288 H 0.2456 0.31088 0.25915 0.0
C1289 C 0.28328 0.3689 0.25163 0.0
C1290 C 0.2778 0.32936 0.41789 0.0
C1291 C 0.29406 0.3524 0.4109 0.0
H1292 H 0.24786 0.30677 0.44093 0.0
C1293 C 0.29287 0.37066 0.4235 0.0
H1294 H 0.2782 0.31483 0.40872 0.0
C1295 C 0.27542 0.36599 0.44191 0.0
C1296 C 0.2587 0.34295 0.44817 0.0
H1297 H 0.30508 0.38862 0.41867 0.0
H1298 H 0.27457 0.38045 0.45052 0.0
C1299 C 0.2603 0.3247 0.43626 0.0
C1300 C 0.65222 0.93554 0.41028 0.0
C1301 C 0.67504 0.95258 0.40396 0.0
H1302 H 0.62991 0.90537 0.43337 0.0
C1303 C 0.69305 0.95196 0.41689 0.0
H1304 H 0.63792 0.93546 0.40073 0.0
C1305 C 0.68849 0.9347 0.43525 0.0
C1306 C 0.66577 0.91754 0.44151 0.0
H1307 H 0.71087 0.96465 0.41255 0.0
H1308 H 0.70293 0.93454 0.44408 0.0
C1309 C 0.64764 0.9182 0.42886 0.0
C1310 C 0.05194 0.71841 0.42017 0.0
C1311 C 0.05735 0.70222 0.40966 0.0
H1312 H 0.06111 0.74664 0.44773 0.0
C1313 C 0.07576 0.7012 0.42085 0.0
H1314 H 0.03777 0.71956 0.41221 0.0
C1315 C 0.08916 0.71678 0.44107 0.0
C1316 C 0.08447 0.73372 0.45066 0.0
H1317 H 0.08041 0.68892 0.41336 0.0
H1318 H 0.10388 0.71622 0.44827 0.0
C1319 C 0.06537 0.73401 0.44045 0.0
C1320 C 0.33884 0.0568 0.7478 0.0
C1321 C 0.31726 0.03736 0.74126 0.0
H1322 H 0.35731 0.08832 0.77086 0.0
C1323 C 0.2978 0.03363 0.75577 0.0
H1324 H 0.35419 0.0602 0.73705 0.0
C1325 C 0.29964 0.04964 0.77522 0.0
C1326 C 0.32094 0.06982 0.78059 0.0
H1327 H 0.28096 0.01867 0.75157 0.0
H1328 H 0.28422 0.0465 0.7856 0.0
C1329 C 0.34065 0.0729 0.76725 0.0
C1330 C 0.95081 0.27481 0.74281 0.0
C1331 C 0.94295 0.2901 0.73749 0.0
H1332 H 0.94649 0.24621 0.76593 0.0
C1333 C 0.92437 0.2881 0.75247 0.0
H1334 H 0.96513 0.2759 0.73176 0.0
C1335 C 0.9136 0.27101 0.77182 0.0
C1336 C 0.92117 0.25548 0.7769 0.0
H1337 H 0.91775 0.29948 0.74896 0.0
H1338 H 0.89888 0.2696 0.78227 0.0
C1339 C 0.94004 0.25771 0.76231 0.0
C1340 C 0.73263 0.67489 0.73623 0.0
C1341 C 0.70934 0.65979 0.74236 0.0
H1342 H 0.76755 0.6884 0.74786 0.0
C1343 C 0.70341 0.64922 0.76745 0.0
H1344 H 0.73764 0.68298 0.71682 0.0
C1345 C 0.72048 0.65276 0.78561 0.0
C1346 C 0.74394 0.66635 0.77876 0.0
H1347 H 0.68552 0.63757 0.77267 0.0
H1348 H 0.71517 0.64419 0.8047 0.0
C1349 C 0.74978 0.67796 0.75412 0.0
C1350 C 0.71633 0.66345 0.59873 0.0
C1351 C 0.71065 0.64715 0.61905 0.0
H1352 H 0.73635 0.67915 0.56366 0.0
C1353 C 0.72176 0.63438 0.6197 0.0
H1354 H 0.70793 0.67347 0.59769 0.0
C1355 C 0.73854 0.63813 0.6008 0.0
C1356 C 0.74428 0.65433 0.58025 0.0
H1357 H 0.71801 0.62196 0.63538 0.0
H1358 H 0.74736 0.62862 0.60283 0.0
C1359 C 0.73277 0.66682 0.57935 0.0
C1360 C 0.30515 0.04337 0.59981 0.0
C1361 C 0.32324 0.04452 0.61465 0.0
H1362 H 0.29475 0.05971 0.57153 0.0
C1363 C 0.34574 0.06333 0.61044 0.0
H1364 H 0.28762 0.02908 0.60217 0.0
C1365 C 0.3498 0.08101 0.59263 0.0
C1366 C 0.33143 0.08026 0.57888 0.0
H1367 H 0.36009 0.06476 0.62146 0.0
H1368 H 0.36715 0.09568 0.59038 0.0
C1369 C 0.30918 0.061 0.58225 0.0
C1370 C 0.92139 0.2989 0.5983 0.0
C1371 C 0.93986 0.29807 0.60963 0.0
H1372 H 0.8937 0.284 0.57026 0.0
C1373 C 0.94572 0.28227 0.59894 0.0
H1374 H 0.91642 0.3109 0.60591 0.0
C1375 C 0.93271 0.26689 0.57829 0.0
C1376 C 0.91364 0.26706 0.56783 0.0
H1377 H 0.95995 0.28127 0.60701 0.0
H1378 H 0.93731 0.25456 0.57086 0.0
C1379 C 0.90844 0.28357 0.57767 0.0
C1380 C 0.32772 0.27701 0.60226 0.0
C1381 C 0.34928 0.29642 0.60898 0.0
H1382 H 0.30937 0.2457 0.5788 0.0
C1383 C 0.36871 0.30058 0.59412 0.0
H1384 H 0.31238 0.27333 0.61322 0.0
C1385 C 0.36693 0.28486 0.57432 0.0
C1386 C 0.34571 0.26458 0.56895 0.0
H1387 H 0.38553 0.31555 0.59843 0.0
H1388 H 0.38236 0.28816 0.56383 0.0
C1389 C 0.32596 0.26121 0.58244 0.0
C1390 C 0.7376 0.04467 0.58958 0.0
C1391 C 0.72288 0.04609 0.60852 0.0
H1392 H 0.76139 0.0611 0.5575 0.0
C1393 C 0.71933 0.06498 0.60748 0.0
H1394 H 0.74054 0.03025 0.58944 0.0
C1395 C 0.73134 0.08272 0.58892 0.0
C1396 C 0.74714 0.08187 0.57124 0.0
H1397 H 0.70806 0.06657 0.6217 0.0
H1398 H 0.72913 0.09761 0.58926 0.0
C1399 C 0.74962 0.06237 0.57125 0.0
C1400 C 0.96587 0.69294 0.59301 0.0
C1401 C 0.95923 0.68115 0.61735 0.0
H1402 H 0.95525 0.69906 0.55559 0.0
C1403 C 0.93582 0.66546 0.62218 0.0
H1404 H 0.98388 0.70503 0.58876 0.0
C1405 C 0.9192 0.66273 0.60367 0.0
C1406 C 0.9257 0.67525 0.5796 0.0
H1407 H 0.93025 0.65638 0.64098 0.0
H1408 H 0.90127 0.65164 0.60896 0.0
C1409 C 0.94936 0.68972 0.57417 0.0
C1410 C 0.94294 0.66634 0.75079 0.0
C1411 C 0.96077 0.68877 0.74392 0.0
H1412 H 0.91223 0.64588 0.77354 0.0
C1413 C 0.96218 0.70806 0.75734 0.0
H1414 H 0.94128 0.65108 0.74084 0.0
C1415 C 0.94565 0.70505 0.77633 0.0
C1416 C 0.92718 0.6827 0.78226 0.0
H1417 H 0.97581 0.72558 0.75282 0.0
H1418 H 0.94717 0.72032 0.78607 0.0
C1419 C 0.9263 0.66334 0.76967 0.0
C1420 C 0.32141 0.26908 0.74278 0.0
C1421 C 0.34397 0.28616 0.73559 0.0
H1422 H 0.29998 0.23923 0.76679 0.0
C1423 C 0.36245 0.28585 0.74772 0.0
H1424 H 0.30676 0.26877 0.73386 0.0
C1425 C 0.35859 0.26891 0.76622 0.0
C1426 C 0.33613 0.25179 0.77346 0.0
H1427 H 0.38011 0.29854 0.74268 0.0
H1428 H 0.37336 0.26901 0.77443 0.0
C1429 C 0.31753 0.25207 0.76154 0.0
C1430 C 0.72705 0.05094 0.75478 0.0
C1431 C 0.73666 0.04542 0.73299 0.0
H1432 H 0.73327 0.06908 0.79228 0.0
C1433 C 0.76058 0.05535 0.73169 0.0
H1434 H 0.70861 0.04345 0.75623 0.0
C1435 C 0.77469 0.07041 0.75176 0.0
C1436 C 0.76524 0.07553 0.7741 0.0
H1437 H 0.7685 0.05176 0.71484 0.0
H1438 H 0.7931 0.07823 0.74948 0.0
C1439 C 0.74121 0.06569 0.77533 0.0
C1440 C 0.05556 0.32633 0.05899 0.0
C1441 C 0.05937 0.3471 0.04777 0.0
H1442 H 0.06896 0.30982 0.08279 0.0
C1443 C 0.08067 0.36764 0.05185 0.0
H1444 H 0.03933 0.31019 0.05615 0.0
C1445 C 0.09764 0.36744 0.06747 0.0
C1446 C 0.09368 0.34662 0.07877 0.0
H1447 H 0.08402 0.3839 0.04351 0.0
H1448 H 0.11385 0.38352 0.07065 0.0
C1449 C 0.07256 0.32606 0.07414 0.0
C1450 C 0.65329 0.71789 0.05471 0.0
C1451 C 0.67033 0.71192 0.0536 0.0
H1452 H 0.64203 0.73953 0.07251 0.0
C1453 C 0.68972 0.72384 0.07022 0.0
H1454 H 0.63819 0.70915 0.04212 0.0
C1455 C 0.69208 0.74167 0.08741 0.0
C1456 C 0.67482 0.74735 0.08857 0.0
H1457 H 0.70314 0.71962 0.06967 0.0
H1458 H 0.70722 0.75087 0.09992 0.0
C1459 C 0.65542 0.73525 0.07217 0.0
C1460 C 0.2841 0.9622 0.06835 0.0
C1461 C 0.28814 0.95552 0.04312 0.0
H1462 H 0.26388 0.95175 0.10405 0.0
C1463 C 0.27371 0.93254 0.03411 0.0
H1464 H 0.29508 0.97979 0.07588 0.0
C1465 C 0.25545 0.91657 0.04995 0.0
C1466 C 0.25144 0.92309 0.07541 0.0
H1467 H 0.27633 0.92697 0.01464 0.0
H1468 H 0.24434 0.89916 0.04205 0.0
C1469 C 0.26607 0.94614 0.08441 0.0
C1470 C 0.35221 0.06878 0.97558 0.0
C1471 C 0.34155 0.04578 0.9659 0.0
H1472 H 0.3584 0.10312 0.96958 0.0
C1473 C 0.33023 0.04026 0.94115 0.0
H1474 H 0.36099 0.07347 0.99466 0.0
C1475 C 0.32915 0.05718 0.92654 0.0
C1476 C 0.33894 0.08006 0.93651 0.0
H1477 H 0.32214 0.02274 0.93297 0.0
H1478 H 0.32057 0.0522 0.90735 0.0
C1479 C 0.35077 0.08575 0.96111 0.0
C1480 C 0.94762 0.29011 0.96807 0.0
C1481 C 0.97014 0.29454 0.96987 0.0
H1482 H 0.91426 0.26916 0.95113 0.0
C1483 C 0.97613 0.28016 0.95579 0.0
H1484 H 0.9426 0.3011 0.97849 0.0
C1485 C 0.95958 0.26115 0.94081 0.0
C1486 C 0.93686 0.25651 0.93911 0.0
H1487 H 0.99341 0.28318 0.95703 0.0
H1488 H 0.96455 0.24985 0.93111 0.0
C1489 C 0.93128 0.27157 0.95257 0.0
C1490 C 0.70179 0.6385 0.96295 0.0
C1491 C 0.7023 0.65936 0.96833 0.0
H1492 H 0.71765 0.62197 0.94274 0.0
C1493 C 0.72044 0.6802 0.9582 0.0
H1494 H 0.6879 0.62216 0.97047 0.0
C1495 C 0.73784 0.68026 0.94304 0.0
C1496 C 0.73724 0.65937 0.937 0.0
H1497 H 0.72142 0.69659 0.96237 0.0
H1498 H 0.75189 0.69683 0.93633 0.0
C1499 C 0.71896 0.63846 0.94721 0.0
C1500 C 0.9249 0.64545 0.97948 0.0
C1501 C 0.9481 0.65804 0.97169 0.0
H1502 H 0.89045 0.63684 0.9711 0.0
C1503 C 0.95406 0.67076 0.94796 0.0
H1504 H 0.91984 0.63555 0.99774 0.0
C1505 C 0.93729 0.67109 0.93239 0.0
C1506 C 0.91408 0.65909 0.94037 0.0
H1507 H 0.97177 0.68037 0.94121 0.0
H1508 H 0.94262 0.68071 0.91394 0.0
C1509 C 0.90807 0.64612 0.96409 0.0
C1510 C 0.31571 0.27751 0.95788 0.0
C1511 C 0.3367 0.29331 0.97013 0.0
H1512 H 0.29725 0.24692 0.93339 0.0
C1513 C 0.35609 0.29158 0.96476 0.0
H1514 H 0.30049 0.27849 0.96183 0.0
C1515 C 0.35453 0.27415 0.94785 0.0
C1516 C 0.33331 0.25743 0.93655 0.0
H1517 H 0.37258 0.30374 0.97362 0.0
H1518 H 0.37004 0.27375 0.94383 0.0
C1519 C 0.31394 0.25952 0.94148 0.0
C1520 C 0.72875 0.03739 0.95896 0.0
C1521 C 0.71452 0.04408 0.97174 0.0
H1522 H 0.75881 0.04776 0.93543 0.0
C1523 C 0.71936 0.06694 0.96904 0.0
H1524 H 0.7255 0.01988 0.96098 0.0
C1525 C 0.73798 0.0828 0.95351 0.0
C1526 C 0.75265 0.07637 0.94097 0.0
H1527 H 0.70851 0.07247 0.97853 0.0
H1528 H 0.74063 0.10002 0.95117 0.0
C1529 C 0.74778 0.05341 0.94409 0.0
C1530 C 0.64269 0.93123 0.04766 0.0
C1531 C 0.66214 0.95373 0.04615 0.0
H1532 H 0.62835 0.89676 0.06316 0.0
C1533 C 0.6826 0.95839 0.05866 0.0
H1534 H 0.6267 0.92716 0.03823 0.0
C1535 C 0.68361 0.94108 0.07254 0.0
C1536 C 0.66413 0.91871 0.07456 0.0
H1537 H 0.69793 0.97552 0.05781 0.0
H1538 H 0.69956 0.9454 0.08227 0.0
C1539 C 0.64361 0.91391 0.06197 0.0
C1540 C 0.03048 0.72101 0.07192 0.0
C1541 C 0.03681 0.70926 0.05348 0.0
H1542 H 0.04192 0.74753 0.10249 0.0
C1543 C 0.05982 0.71486 0.05244 0.0
H1544 H 0.01286 0.71703 0.07311 0.0
C1545 C 0.07621 0.73186 0.06947 0.0
C1546 C 0.07003 0.74393 0.08754 0.0
H1547 H 0.06525 0.70613 0.03846 0.0
H1548 H 0.09388 0.73599 0.06806 0.0
C1549 C 0.04704 0.73842 0.08865 0.0
C1550 C 0.29954 0.36234 0.05984 0.0
C1551 C 0.30078 0.34213 0.05705 0.0
H1552 H 0.28182 0.37809 0.0776 0.0
C1553 C 0.28465 0.32193 0.07049 0.0
H1554 H 0.31179 0.37819 0.04979 0.0
C1555 C 0.26747 0.32184 0.08618 0.0
C1556 C 0.26625 0.34204 0.08906 0.0
H1557 H 0.28517 0.30609 0.06874 0.0
H1558 H 0.25524 0.30601 0.09629 0.0
C1559 C 0.28251 0.36234 0.07587 0.0
C1560 C 0.74267 0.70198 0.38815 0.0
C1561 C 0.72317 0.68087 0.38033 0.0
H1562 H 0.77354 0.71868 0.4115 0.0
C1563 C 0.72091 0.65993 0.38867 0.0
H1564 H 0.74475 0.71839 0.3821 0.0
C1565 C 0.73755 0.66 0.40491 0.0
C1566 C 0.75668 0.68106 0.41384 0.0
H1567 H 0.70619 0.64336 0.38265 0.0
H1568 H 0.73529 0.64342 0.41047 0.0
C1569 C 0.75918 0.70209 0.40494 0.0
C1570 C 0.3535 0.05349 0.40512 0.0
C1571 C 0.33499 0.04167 0.3873 0.0
H1572 H 0.36925 0.07994 0.4357 0.0
C1573 C 0.31736 0.04683 0.3876 0.0
H1574 H 0.36732 0.04985 0.40524 0.0
C1575 C 0.31823 0.06353 0.40527 0.0
C1576 C 0.33697 0.07576 0.4226 0.0
H1577 H 0.30286 0.03802 0.37415 0.0
H1578 H 0.30454 0.06737 0.40488 0.0
C1579 C 0.35463 0.07065 0.42245 0.0
C1580 C 0.94302 0.29922 0.39341 0.0
C1581 C 0.95512 0.29195 0.37695 0.0
H1582 H 0.91493 0.28906 0.42073 0.0
C1583 C 0.94786 0.26821 0.37555 0.0
H1584 H 0.94819 0.31741 0.3948 0.0
C1585 C 0.92905 0.25208 0.39063 0.0
C1586 C 0.91689 0.25935 0.40698 0.0
H1587 H 0.95687 0.26211 0.36304 0.0
H1588 H 0.92389 0.23388 0.3894 0.0
C1589 C 0.92393 0.28303 0.4081 0.0
C1590 C 0.0298 0.40629 0.30413 0.0
C1591 C 0.00996 0.38402 0.30513 0.0
H1592 H 0.04512 0.44109 0.28929 0.0
C1593 C 0.98986 0.38007 0.29235 0.0
H1594 H 0.04553 0.4098 0.31375 0.0
C1595 C 0.98955 0.39788 0.27875 0.0
C1596 C 0.00941 0.42004 0.27728 0.0
H1597 H 0.97426 0.36312 0.29281 0.0
H1598 H 0.97385 0.39414 0.26884 0.0
C1599 C 0.02958 0.42412 0.29008 0.0
C1600 C 0.61293 0.62175 0.2982 0.0
C1601 C 0.63628 0.6285 0.29776 0.0
H1602 H 0.57918 0.59859 0.2829 0.0
C1603 C 0.64361 0.61696 0.28034 0.0
H1604 H 0.60673 0.6303 0.31137 0.0
C1605 C 0.62764 0.59844 0.26424 0.0
C1606 C 0.60426 0.59164 0.26495 0.0
H1607 H 0.66151 0.62181 0.27969 0.0
H1608 H 0.63349 0.5894 0.2513 0.0
C1609 C 0.59714 0.60365 0.28181 0.0
C1610 C 0.39123 0.0129 0.29358 0.0
C1611 C 0.37306 0.99217 0.30397 0.0
H1612 H 0.42218 0.0291 0.27065 0.0
C1613 C 0.3723 0.97119 0.29855 0.0
H1614 H 0.39238 0.02938 0.29768 0.0
C1615 C 0.3891 0.97089 0.28236 0.0
C1616 C 0.40722 0.99164 0.27163 0.0
H1617 H 0.35837 0.95493 0.30618 0.0
H1618 H 0.38753 0.9543 0.27778 0.0
C1619 C 0.40821 0.01268 0.27785 0.0
C1620 C 0.61608 0.01143 0.29731 0.0
C1621 C 0.61323 0.99044 0.3065 0.0
H1622 H 0.60218 0.02809 0.27486 0.0
C1623 C 0.59324 0.96946 0.2995 0.0
H1624 H 0.63122 0.02791 0.30264 0.0
C1625 C 0.57678 0.96946 0.28277 0.0
C1626 C 0.57979 0.9905 0.27311 0.0
H1627 H 0.59072 0.95302 0.30615 0.0
H1628 H 0.56201 0.95291 0.27688 0.0
C1629 C 0.59948 0.01149 0.2811 0.0
C1630 C 0.98896 0.62227 0.27477 0.0
C1631 C 0.99411 0.62278 0.30198 0.0
H1632 H 0.98441 0.60502 0.23676 0.0
C1633 C 0.99734 0.6053 0.31218 0.0
H1634 H 0.98655 0.63568 0.26647 0.0
C1635 C 0.99565 0.58767 0.29546 0.0
C1636 C 0.9912 0.5875 0.26813 0.0
H1637 H 0.00128 0.60531 0.33311 0.0
H1638 H 0.9985 0.57454 0.30374 0.0
C1639 C 0.98783 0.60488 0.25784 0.0
C1640 C 0.38805 0.37108 0.28677 0.0
C1641 C 0.38335 0.37783 0.31159 0.0
H1642 H 0.40974 0.38119 0.25229 0.0
C1643 C 0.39804 0.4006 0.32109 0.0
H1644 H 0.37691 0.35367 0.27887 0.0
C1645 C 0.41725 0.41627 0.30618 0.0
C1646 C 0.42199 0.40964 0.28118 0.0
H1647 H 0.39492 0.40621 0.34027 0.0
H1648 H 0.42853 0.4335 0.31446 0.0
C1649 C 0.40703 0.38684 0.27165 0.0
C1650 C 0.31753 0.2646 0.37685 0.0
C1651 C 0.328 0.28746 0.38697 0.0
H1652 H 0.31158 0.23027 0.38215 0.0
C1653 C 0.33923 0.2927 0.41176 0.0
H1654 H 0.30884 0.26013 0.35772 0.0
C1655 C 0.34043 0.27567 0.42597 0.0
C1656 C 0.33084 0.25295 0.41555 0.0
H1657 H 0.34718 0.31011 0.42027 0.0
H1658 H 0.34894 0.28043 0.4452 0.0
C1659 C 0.31908 0.24752 0.39093 0.0
C1660 C 0.72504 0.04925 0.38512 0.0
C1661 C 0.70165 0.04221 0.38653 0.0
H1662 H 0.75913 0.0729 0.39922 0.0
C1663 C 0.69466 0.054 0.40406 0.0
H1664 H 0.73094 0.0405 0.3718 0.0
C1665 C 0.71093 0.07284 0.41953 0.0
C1666 C 0.73432 0.07982 0.41804 0.0
H1667 H 0.67672 0.04896 0.40544 0.0
H1668 H 0.70525 0.08187 0.43275 0.0
C1669 C 0.74118 0.06774 0.40086 0.0
C1670 C 0.964 0.69981 0.38835 0.0
C1671 C 0.96172 0.67827 0.38192 0.0
H1672 H 0.95041 0.71778 0.41036 0.0
C1673 C 0.94252 0.65783 0.39129 0.0
H1674 H 0.97874 0.71584 0.38143 0.0
C1675 C 0.92614 0.65884 0.40729 0.0
C1676 C 0.92877 0.68038 0.41485 0.0
H1677 H 0.94017 0.64095 0.38632 0.0
H1678 H 0.91141 0.64264 0.41381 0.0
C1679 C 0.94774 0.70088 0.40485 0.0
C1680 C 0.38312 0.9886 0.7243 0.0
C1681 C 0.3865 0.00918 0.713 0.0
H1682 H 0.39733 0.97254 0.7476 0.0
C1683 C 0.40779 0.02986 0.71653 0.0
H1684 H 0.36692 0.97236 0.72188 0.0
C1685 C 0.42519 0.02999 0.7316 0.0
C1686 C 0.4217 0.00935 0.74292 0.0
H1687 H 0.41084 0.04599 0.7081 0.0
H1688 H 0.44139 0.04618 0.73431 0.0
C1689 C 0.40056 0.98865 0.73892 0.0
C1690 C 0.98483 0.38362 0.71863 0.0
C1691 C 0.00234 0.37834 0.71721 0.0
H1692 H 0.97277 0.40439 0.7371 0.0
C1693 C 0.02163 0.39041 0.73394 0.0
H1694 H 0.96976 0.37461 0.70602 0.0
C1695 C 0.02351 0.4078 0.75147 0.0
C1696 C 0.00587 0.41291 0.75291 0.0
H1697 H 0.03539 0.38669 0.73317 0.0
H1698 H 0.03861 0.41714 0.76401 0.0
C1699 C 0.98648 0.40058 0.73648 0.0
C1700 C 0.60618 0.63298 0.72584 0.0
C1701 C 0.62072 0.62613 0.71422 0.0
H1702 H 0.57593 0.62303 0.74891 0.0
C1703 C 0.6163 0.6036 0.71861 0.0
H1704 H 0.60912 0.65023 0.72256 0.0
C1705 C 0.59773 0.58819 0.73447 0.0
C1706 C 0.58271 0.59471 0.74573 0.0
H1707 H 0.62738 0.59793 0.71008 0.0
H1708 H 0.59535 0.57121 0.73802 0.0
C1709 C 0.58722 0.61737 0.74114 0.0
C1710 C 0.68191 0.73457 0.64121 0.0
C1711 C 0.67174 0.71145 0.63212 0.0
H1712 H 0.68687 0.76828 0.63474 0.0
C1713 C 0.65979 0.70506 0.60776 0.0
H1714 H 0.69106 0.73992 0.66005 0.0
C1715 C 0.65785 0.72139 0.59286 0.0
C1716 C 0.66736 0.74445 0.60222 0.0
H1717 H 0.65196 0.68738 0.60013 0.0
H1718 H 0.64889 0.71584 0.57392 0.0
C1719 C 0.67956 0.75085 0.62657 0.0
C1720 C 0.27445 0.94945 0.63456 0.0
C1721 C 0.29786 0.95649 0.63338 0.0
H1722 H 0.24057 0.92645 0.61942 0.0
C1723 C 0.30504 0.94524 0.61526 0.0
H1724 H 0.26837 0.95776 0.64831 0.0
C1725 C 0.28897 0.92699 0.59894 0.0
C1726 C 0.26559 0.9201 0.60014 0.0
H1727 H 0.32298 0.95029 0.614 0.0
H1728 H 0.29479 0.91839 0.58526 0.0
C1729 C 0.25853 0.93159 0.61797 0.0
C1730 C 0.05367 0.348 0.61812 0.0
C1731 C 0.03753 0.32793 0.63176 0.0
H1732 H 0.08309 0.36367 0.59234 0.0
C1733 C 0.03877 0.3077 0.62935 0.0
H1734 H 0.05316 0.36386 0.61958 0.0
C1735 C 0.0558 0.30755 0.61347 0.0
C1736 C 0.07208 0.32773 0.6001 0.0
H1737 H 0.0265 0.29196 0.63956 0.0
H1738 H 0.05649 0.29179 0.612 0.0
C1739 C 0.07086 0.34794 0.6026 0.0
C1740 C 0.28353 0.34381 0.62884 0.0
C1741 C 0.28 0.32294 0.63946 0.0
H1742 H 0.26981 0.36042 0.60574 0.0
C1743 C 0.25885 0.30231 0.635 0.0
H1744 H 0.29963 0.36002 0.63197 0.0
C1745 C 0.24177 0.30253 0.61964 0.0
C1746 C 0.24545 0.32345 0.60895 0.0
H1747 H 0.2557 0.28597 0.64288 0.0
H1748 H 0.22568 0.28638 0.61619 0.0
C1749 C 0.26642 0.34409 0.61392 0.0
C1750 C 0.68424 0.95569 0.63015 0.0
C1751 C 0.6655 0.95855 0.63542 0.0
H1752 H 0.69674 0.93626 0.60989 0.0
C1753 C 0.64411 0.94303 0.62376 0.0
H1754 H 0.70102 0.96752 0.63853 0.0
C1755 C 0.64135 0.92431 0.60796 0.0
C1756 C 0.66009 0.92116 0.60316 0.0
H1757 H 0.62939 0.94489 0.62761 0.0
H1758 H 0.62442 0.91202 0.60018 0.0
C1759 C 0.68168 0.93751 0.61389 0.0
C1760 C 0.05861 0.70281 0.62642 0.0
C1761 C 0.04675 0.71043 0.64278 0.0
H1762 H 0.08616 0.71239 0.59842 0.0
C1763 C 0.05384 0.73415 0.64327 0.0
H1764 H 0.05356 0.68463 0.62574 0.0
C1765 C 0.07224 0.7499 0.62745 0.0
C1766 C 0.08419 0.74232 0.61121 0.0
H1767 H 0.04504 0.74054 0.65569 0.0
H1768 H 0.07728 0.76807 0.62807 0.0
C1769 C 0.07732 0.71866 0.61095 0.0
C1770 C 0.97571 0.59899 0.72048 0.0
C1771 C 0.995 0.62164 0.71979 0.0
H1772 H 0.96149 0.56416 0.7347 0.0
C1773 C 0.01524 0.62633 0.73285 0.0
H1774 H 0.95988 0.59487 0.71059 0.0
C1775 C 0.01624 0.6088 0.74628 0.0
C1776 C 0.99694 0.58622 0.74727 0.0
H1777 H 0.03044 0.64359 0.73264 0.0
H1778 H 0.03204 0.61304 0.75634 0.0
C1779 C 0.97661 0.58146 0.73431 0.0
C1780 C 0.36115 0.38879 0.7333 0.0
C1781 C 0.36775 0.37481 0.7194 0.0
H1782 H 0.37187 0.41901 0.75791 0.0
C1783 C 0.3904 0.3797 0.72169 0.0
H1784 H 0.34376 0.3854 0.73169 0.0
C1785 C 0.40633 0.39842 0.73733 0.0
C1786 C 0.40019 0.41319 0.75045 0.0
H1787 H 0.39586 0.369 0.71145 0.0
H1788 H 0.42349 0.40127 0.73905 0.0
C1789 C 0.37728 0.40798 0.74843 0.0
C1790 C 0.61876 0.99114 0.73543 0.0
C1791 C 0.63421 0.01115 0.7212 0.0
H1792 H 0.58944 0.97496 0.76134 0.0
C1793 C 0.63204 0.03087 0.72299 0.0
H1794 H 0.61997 0.97566 0.73443 0.0
C1795 C 0.61467 0.03051 0.73869 0.0
C1796 C 0.59897 0.01032 0.75246 0.0
H1797 H 0.64375 0.04654 0.71229 0.0
H1798 H 0.61318 0.04584 0.73961 0.0
C1799 C 0.60122 0.99068 0.75074 0.0
loop_
_geom_bond_atom_site_label_1
_geom_bond_atom_site_label_2
_geom_bond_distance
_geom_bond_site_symmetry_2
_ccdc_geom_bond_type
Co0 O1 2.216 . S
Co0 O2 2.091 . S
Co0 O4 2.004 1_554 S
Co0 O10 2.021 . S
Co0 O12 2.137 1_454 S
Co0 O13 2.244 1_455 S
O1 Co0 2.216 . S
O1 C8 1.247 . S
O2 Co0 2.091 . S
O2 C8 1.261 . S
C3 O12 1.247 . S
C3 O13 1.272 1_556 S
O4 Co0 2.004 1_556 S
O4 C9 1.259 . S
Co5 O6 2.061 1_554 S
Co5 O11 2.052 . S
Co5 O13 2.135 . S
O6 Co5 2.061 1_556 S
O6 C9 1.235 1_655 S
C7 O10 1.238 1_655 S
C7 O11 1.241 . S
C8 O1 1.247 . S
C8 O2 1.261 . S
C9 O4 1.259 . S
C9 O6 1.235 1_455 S
O10 Co0 2.021 . S
O10 C7 1.238 1_455 S
O11 Co5 2.052 . S
O11 C7 1.241 . S
O12 Co0 2.137 1_656 S
O12 C3 1.247 . S
O13 Co0 2.244 1_655 S
O13 C3 1.272 1_554 S
O13 Co5 2.135 . S
Co14 O15 2.216 1_554 S
Co14 O16 2.091 . S
Co14 O18 2.004 . S
Co14 O24 2.021 1_554 S
Co14 O26 2.137 . S
Co14 O27 2.244 . S
O15 Co14 2.216 1_556 S
O15 C22 1.247 . S
O16 Co14 2.091 . S
O16 C22 1.261 1_554 S
C17 O26 1.247 . S
C17 O27 1.272 . S
O18 Co14 2.004 . S
O18 C23 1.259 . S
Co19 O20 2.061 . S
Co19 O25 2.052 1_554 S
Co19 O27 2.135 . S
O20 Co19 2.061 . S
O20 C23 1.235 . S
C21 O24 1.238 . S
C21 O25 1.241 . S
C22 O15 1.247 . S
C22 O16 1.261 1_556 S
C23 O18 1.259 . S
C23 O20 1.235 . S
O24 Co14 2.021 1_556 S
O24 C21 1.238 . S
O25 Co19 2.052 1_556 S
O25 C21 1.241 . S
O26 Co14 2.137 . S
O26 C17 1.247 . S
O27 Co14 2.244 . S
O27 C17 1.272 . S
O27 Co19 2.135 . S
Co28 O29 2.216 1_554 S
Co28 O30 2.091 . S
Co28 O32 2.004 . S
Co28 O38 2.021 1_554 S
Co28 O40 2.137 1_545 S
Co28 O41 2.244 1_545 S
O29 Co28 2.216 1_556 S
O29 C36 1.247 . S
O30 Co28 2.091 . S
O30 C36 1.261 1_554 S
C31 O40 1.247 . S
C31 O41 1.272 . S
O32 Co28 2.004 . S
O32 C37 1.259 . S
Co33 O34 2.061 . S
Co33 O39 2.052 1_554 S
Co33 O41 2.135 . S
O34 Co33 2.061 . S
O34 C37 1.235 1_565 S
C35 O38 1.238 1_565 S
C35 O39 1.241 . S
C36 O29 1.247 . S
C36 O30 1.261 1_556 S
C37 O32 1.259 . S
C37 O34 1.235 1_545 S
O38 Co28 2.021 1_556 S
O38 C35 1.238 1_545 S
O39 Co33 2.052 1_556 S
O39 C35 1.241 . S
O40 Co28 2.137 1_565 S
O40 C31 1.247 . S
O41 Co28 2.244 1_565 S
O41 C31 1.272 . S
O41 Co33 2.135 . S
Co42 O43 2.216 1_554 S
Co42 O44 2.091 . S
Co42 O46 2.004 . S
Co42 O52 2.021 1_554 S
Co42 O54 2.137 1_655 S
Co42 O55 2.244 1_655 S
O43 Co42 2.216 1_556 S
O43 C50 1.247 . S
O44 Co42 2.091 . S
O44 C50 1.261 1_554 S
C45 O54 1.247 . S
C45 O55 1.272 . S
O46 Co42 2.004 . S
O46 C51 1.309 . S
Co47 O48 2.061 . S
Co47 O53 2.052 1_554 S
Co47 O55 2.135 . S
O48 Co47 2.061 . S
O48 C51 1.185 1_455 S
C49 O52 1.238 1_455 S
C49 O53 1.241 . S
C50 O43 1.247 . S
C50 O44 1.261 1_556 S
C51 O46 1.309 . S
C51 O48 1.185 1_655 S
O52 Co42 2.021 1_556 S
O52 C49 1.238 1_655 S
O53 Co47 2.052 1_556 S
O53 C49 1.241 . S
O54 Co42 2.137 1_455 S
O54 C45 1.247 . S
O55 Co42 2.244 1_455 S
O55 C45 1.272 . S
O55 Co47 2.135 . S
Co56 O57 2.216 . S
Co56 O58 2.091 . S
Co56 O60 2.004 1_554 S
Co56 O66 2.021 . S
Co56 O68 2.137 1_554 S
Co56 O69 2.244 1_554 S
O57 Co56 2.216 . S
O57 C64 1.247 . S
O58 Co56 2.091 . S
O58 C64 1.261 . S
C59 O68 1.247 . S
C59 O69 1.272 . S
O60 Co56 2.004 1_556 S
O60 C65 1.259 . S
Co61 O62 2.061 . S
Co61 O67 2.052 1_556 S
Co61 O69 2.135 . S
O62 Co61 2.061 . S
O62 C65 1.235 . S
C63 O66 1.238 . S
C63 O67 1.241 . S
C64 O57 1.247 . S
C64 O58 1.261 . S
C65 O60 1.259 . S
C65 O62 1.235 . S
O66 Co56 2.021 . S
O66 C63 1.238 . S
O67 Co61 2.052 1_554 S
O67 C63 1.241 . S
O68 Co56 2.137 1_556 S
O68 C59 1.247 . S
O69 Co56 2.244 1_556 S
O69 C59 1.272 . S
O69 Co61 2.135 . S
Co70 O71 2.216 . S
Co70 O72 2.091 . S
Co70 O74 2.004 1_554 S
Co70 O80 2.021 . S
Co70 O82 2.137 1_564 S
Co70 O83 2.244 1_565 S
O71 Co70 2.216 . S
O71 C78 1.247 . S
O72 Co70 2.091 . S
O72 C78 1.261 . S
C73 O82 1.247 . S
C73 O83 1.272 1_556 S
O74 Co70 2.004 1_556 S
O74 C79 1.310 . S
Co75 O76 2.061 1_554 S
Co75 O81 2.052 . S
Co75 O83 2.135 . S
O76 Co75 2.061 1_556 S
O76 C79 1.185 1_545 S
C77 O80 1.238 1_545 S
C77 O81 1.241 . S
C78 O71 1.247 . S
C78 O72 1.261 . S
C79 O74 1.310 . S
C79 O76 1.185 1_565 S
O80 Co70 2.021 . S
O80 C77 1.238 1_565 S
O81 Co75 2.052 . S
O81 C77 1.241 . S
O82 Co70 2.137 1_546 S
O82 C73 1.247 . S
O83 Co70 2.244 1_545 S
O83 C73 1.272 1_554 S
O83 Co75 2.135 . S
Co84 O85 2.216 . S
Co84 O86 2.091 . S
Co84 O88 2.004 . S
Co84 O94 2.021 . S
Co84 O96 2.137 . S
Co84 O97 2.244 . S
O85 Co84 2.216 . S
O85 C92 1.247 . S
O86 Co84 2.091 . S
O86 C92 1.261 . S
C87 O96 1.247 . S
C87 O97 1.272 . S
O88 Co84 2.004 . S
O88 C93 1.259 . S
Co89 O90 2.061 . S
Co89 O95 2.052 . S
Co89 O97 2.135 . S
O90 Co89 2.061 . S
O90 C93 1.235 . S
C91 O94 1.238 . S
C91 O95 1.241 . S
C92 O85 1.247 . S
C92 O86 1.261 . S
C93 O88 1.259 . S
C93 O90 1.235 . S
O94 Co84 2.021 . S
O94 C91 1.238 . S
O95 Co89 2.052 . S
O95 C91 1.241 . S
O96 Co84 2.137 . S
O96 C87 1.247 . S
O97 Co84 2.244 . S
O97 C87 1.272 . S
O97 Co89 2.135 . S
Co98 O99 2.216 1_565 S
Co98 O100 2.091 . S
Co98 O102 2.004 . S
Co98 O108 2.021 . S
Co98 O110 2.137 1_565 S
Co98 O111 2.244 1_565 S
O99 Co98 2.216 1_545 S
O99 C106 1.247 1_545 S
O100 Co98 2.091 . S
O100 C106 1.261 . S
C101 O110 1.247 . S
C101 O111 1.272 . S
O102 Co98 2.004 . S
O102 C107 1.259 . S
Co103 O104 2.061 . S
Co103 O109 2.052 . S
Co103 O111 2.135 1_565 S
O104 Co103 2.061 . S
O104 C107 1.235 . S
C105 O108 1.238 . S
C105 O109 1.241 . S
C106 O99 1.247 1_565 S
C106 O100 1.261 . S
C107 O102 1.259 . S
C107 O104 1.235 . S
O108 Co98 2.021 . S
O108 C105 1.238 . S
O109 Co103 2.052 . S
O109 C105 1.241 . S
O110 Co98 2.137 1_545 S
O110 C101 1.247 . S
O111 Co98 2.244 1_545 S
O111 C101 1.272 . S
O111 Co103 2.135 1_545 S
Co112 O113 2.204 1_455 S
Co112 O114 2.091 . S
Co112 O116 2.004 . S
Co112 O122 2.021 . S
Co112 O124 2.137 1_455 S
Co112 O125 2.244 1_455 S
O113 Co112 2.204 1_655 S
O113 C120 1.246 1_655 S
O114 Co112 2.091 . S
O114 C120 1.261 . S
C115 O124 1.247 . S
C115 O125 1.272 . S
O116 Co112 2.004 . S
O116 C121 1.259 . S
Co117 O118 2.061 . S
Co117 O123 2.052 . S
Co117 O125 2.135 1_455 S
O118 Co117 2.061 . S
O118 C121 1.235 . S
C119 O122 1.238 . S
C119 O123 1.241 . S
C120 O113 1.246 1_455 S
C120 O114 1.261 . S
C121 O116 1.259 . S
C121 O118 1.235 . S
O122 Co112 2.021 . S
O122 C119 1.238 . S
O123 Co117 2.052 . S
O123 C119 1.241 . S
O124 Co112 2.137 1_655 S
O124 C115 1.247 . S
O125 Co112 2.244 1_655 S
O125 C115 1.272 . S
O125 Co117 2.135 1_655 S
Co126 O127 2.216 1_565 S
Co126 O128 2.091 . S
Co126 O130 2.004 . S
Co126 O136 2.021 . S
Co126 O138 2.137 1_565 S
Co126 O139 2.244 1_565 S
O127 Co126 2.216 1_545 S
O127 C134 1.247 1_545 S
O128 Co126 2.091 . S
O128 C134 1.261 . S
C129 O138 1.247 . S
C129 O139 1.272 . S
O130 Co126 2.004 . S
O130 C135 1.259 . S
Co131 O132 2.061 . S
Co131 O137 2.052 . S
Co131 O139 2.135 1_565 S
O132 Co131 2.061 . S
O132 C135 1.235 . S
C133 O136 1.238 . S
C133 O137 1.241 . S
C134 O127 1.247 1_565 S
C134 O128 1.261 . S
C135 O130 1.259 . S
C135 O132 1.235 . S
O136 Co126 2.021 . S
O136 C133 1.238 . S
O137 Co131 2.052 . S
O137 C133 1.241 . S
O138 Co126 2.137 1_545 S
O138 C129 1.247 . S
O139 Co126 2.244 1_545 S
O139 C129 1.272 . S
O139 Co131 2.135 1_545 S
Co140 O141 2.216 1_455 S
Co140 O142 2.091 1_455 S
Co140 O144 2.004 . S
Co140 O150 2.021 . S
Co140 O152 2.137 1_455 S
Co140 O153 2.244 . S
O141 Co140 2.216 1_655 S
O141 C148 1.247 . S
O142 Co140 2.091 1_655 S
O142 C148 1.261 . S
C143 O152 1.247 1_455 S
C143 O153 1.272 . S
O144 Co140 2.004 . S
O144 C149 1.259 . S
Co145 O146 2.061 . S
Co145 O151 2.052 . S
Co145 O153 2.135 . S
O146 Co145 2.061 . S
O146 C149 1.235 . S
C147 O150 1.238 . S
C147 O151 1.241 . S
C148 O141 1.247 . S
C148 O142 1.261 . S
C149 O144 1.259 . S
C149 O146 1.235 . S
O150 Co140 2.021 . S
O150 C147 1.238 . S
O151 Co145 2.052 . S
O151 C147 1.241 . S
O152 Co140 2.137 1_655 S
O152 C143 1.247 1_655 S
O153 Co140 2.244 . S
O153 C143 1.272 . S
O153 Co145 2.135 . S
Co154 O155 2.216 . S
Co154 O156 2.091 . S
Co154 O158 2.004 . S
Co154 O164 2.021 . S
Co154 O166 2.137 . S
Co154 O167 2.244 . S
O155 Co154 2.216 . S
O155 C162 1.247 . S
O156 Co154 2.091 . S
O156 C162 1.261 . S
C157 O166 1.247 . S
C157 O167 1.272 . S
O158 Co154 2.004 . S
O158 C163 1.259 . S
Co159 O160 2.061 . S
Co159 O165 2.052 . S
Co159 O167 2.135 . S
O160 Co159 2.061 . S
O160 C163 1.235 . S
C161 O164 1.238 . S
C161 O165 1.241 . S
C162 O155 1.247 . S
C162 O156 1.261 . S
C163 O158 1.259 . S
C163 O160 1.235 . S
O164 Co154 2.021 . S
O164 C161 1.238 . S
O165 Co159 2.052 . S
O165 C161 1.241 . S
O166 Co154 2.137 . S
O166 C157 1.247 . S
O167 Co154 2.244 . S
O167 C157 1.272 . S
O167 Co159 2.135 . S
Co168 O169 2.216 1_545 S
Co168 O170 2.091 . S
Co168 O172 2.004 . S
Co168 O178 2.021 . S
Co168 O180 2.137 1_545 S
Co168 O181 2.244 1_545 S
O169 Co168 2.216 1_565 S
O169 C176 1.247 1_565 S
O170 Co168 2.091 . S
O170 C176 1.261 . S
C171 O180 1.247 . S
C171 O181 1.272 . S
O172 Co168 2.004 . S
O172 C177 1.259 . S
Co173 O174 2.061 . S
Co173 O179 2.052 . S
Co173 O181 2.135 1_545 S
O174 Co173 2.061 . S
O174 C177 1.235 . S
C175 O178 1.238 . S
C175 O179 1.241 . S
C176 O169 1.247 1_545 S
C176 O170 1.261 . S
C177 O172 1.259 . S
C177 O174 1.235 . S
O178 Co168 2.021 . S
O178 C175 1.238 . S
O179 Co173 2.052 . S
O179 C175 1.241 . S
O180 Co168 2.137 1_565 S
O180 C171 1.247 . S
O181 Co168 2.244 1_565 S
O181 C171 1.272 . S
O181 Co173 2.135 1_565 S
Co182 O183 2.216 1_655 S
Co182 O184 2.091 1_655 S
Co182 O186 2.004 . S
Co182 O192 2.021 . S
Co182 O194 2.137 1_655 S
Co182 O195 2.244 . S
O183 Co182 2.216 1_455 S
O183 C190 1.247 . S
O184 Co182 2.091 1_455 S
O184 C190 1.261 . S
C185 O194 1.247 1_655 S
C185 O195 1.272 . S
O186 Co182 2.004 . S
O186 C191 1.259 . S
Co187 O188 2.061 . S
Co187 O193 2.052 . S
Co187 O195 2.135 . S
O188 Co187 2.061 . S
O188 C191 1.235 . S
C189 O192 1.238 . S
C189 O193 1.241 . S
C190 O183 1.247 . S
C190 O184 1.261 . S
C191 O186 1.259 . S
C191 O188 1.235 . S
O192 Co182 2.021 . S
O192 C189 1.238 . S
O193 Co187 2.052 . S
O193 C189 1.241 . S
O194 Co182 2.137 1_455 S
O194 C185 1.247 1_455 S
O195 Co182 2.244 . S
O195 C185 1.272 . S
O195 Co187 2.135 . S
Co196 O197 2.216 . S
Co196 O198 2.091 . S
Co196 O200 2.004 . S
Co196 O206 2.021 . S
Co196 O208 2.137 . S
Co196 O209 2.244 . S
O197 Co196 2.216 . S
O197 C204 1.247 . S
O198 Co196 2.091 . S
O198 C204 1.261 . S
C199 O208 1.247 . S
C199 O209 1.272 . S
O200 Co196 2.004 . S
O200 C205 1.259 . S
Co201 O202 2.061 . S
Co201 O207 2.052 . S
Co201 O209 2.135 . S
O202 Co201 2.061 . S
O202 C205 1.235 . S
C203 O206 1.238 . S
C203 O207 1.241 . S
C204 O197 1.247 . S
C204 O198 1.261 . S
C205 O200 1.259 . S
C205 O202 1.235 . S
O206 Co196 2.021 . S
O206 C203 1.238 . S
O207 Co201 2.052 . S
O207 C203 1.241 . S
O208 Co196 2.137 . S
O208 C199 1.247 . S
O209 Co196 2.244 . S
O209 C199 1.272 . S
O209 Co201 2.135 . S
Co210 O211 2.216 . S
Co210 O212 2.091 . S
Co210 O214 2.004 . S
Co210 O220 2.021 . S
Co210 O222 2.137 . S
Co210 O223 2.244 . S
O211 Co210 2.216 . S
O211 C218 1.247 . S
O212 Co210 2.091 . S
O212 C218 1.261 . S
C213 O222 1.247 . S
C213 O223 1.272 . S
O214 Co210 2.004 . S
O214 C219 1.259 . S
Co215 O216 2.061 . S
Co215 O221 2.052 . S
Co215 O223 2.135 . S
O216 Co215 2.061 . S
O216 C219 1.235 . S
C217 O220 1.238 . S
C217 O221 1.241 . S
C218 O211 1.247 . S
C218 O212 1.261 . S
C219 O214 1.259 . S
C219 O216 1.235 . S
O220 Co210 2.021 . S
O220 C217 1.238 . S
O221 Co215 2.052 . S
O221 C217 1.241 . S
O222 Co210 2.137 . S
O222 C213 1.247 . S
O223 Co210 2.244 . S
O223 C213 1.272 . S
O223 Co215 2.135 . S
Co224 O225 2.216 1_545 S
Co224 O226 2.091 . S
Co224 O228 2.004 . S
Co224 O234 2.021 . S
Co224 O236 2.137 1_545 S
Co224 O237 2.244 1_545 S
O225 Co224 2.216 1_565 S
O225 C232 1.247 1_565 S
O226 Co224 2.091 . S
O226 C232 1.261 . S
C227 O236 1.247 . S
C227 O237 1.272 . S
O228 Co224 2.004 . S
O228 C233 1.259 . S
Co229 O230 2.061 . S
Co229 O235 2.052 . S
Co229 O237 2.135 1_545 S
O230 Co229 2.061 . S
O230 C233 1.235 . S
C231 O234 1.238 . S
C231 O235 1.241 . S
C232 O225 1.247 1_545 S
C232 O226 1.261 . S
C233 O228 1.259 . S
C233 O230 1.235 . S
O234 Co224 2.021 . S
O234 C231 1.238 . S
O235 Co229 2.052 . S
O235 C231 1.241 . S
O236 Co224 2.137 1_565 S
O236 C227 1.247 . S
O237 Co224 2.244 1_565 S
O237 C227 1.272 . S
O237 Co229 2.135 1_565 S
Co238 O239 2.181 1_655 S
Co238 O240 2.091 . S
Co238 O242 2.004 . S
Co238 O248 2.021 . S
Co238 O250 2.137 1_655 S
Co238 O251 2.244 1_655 S
O239 Co238 2.181 1_455 S
O239 C246 1.246 1_455 S
O240 Co238 2.091 . S
O240 C246 1.261 . S
C241 O250 1.247 . S
C241 O251 1.272 . S
O242 Co238 2.004 . S
O242 C247 1.259 . S
Co243 O244 2.061 . S
Co243 O249 2.052 . S
Co243 O251 2.135 1_655 S
O244 Co243 2.061 . S
O244 C247 1.235 . S
C245 O248 1.238 . S
C245 O249 1.241 . S
C246 O239 1.246 1_655 S
C246 O240 1.261 . S
C247 O242 1.259 . S
C247 O244 1.235 . S
O248 Co238 2.021 . S
O248 C245 1.238 . S
O249 Co243 2.052 . S
O249 C245 1.241 . S
O250 Co238 2.137 1_455 S
O250 C241 1.247 . S
O251 Co238 2.244 1_455 S
O251 C241 1.272 . S
O251 Co243 2.135 1_455 S
C252 C253 1.384 . S
C252 C254 1.384 . S
C252 H280 0.931 . S
C253 C252 1.384 . S
C253 C256 1.382 . S
C254 C252 1.384 . S
C254 C255 1.381 . S
C254 H281 0.930 . S
C255 C254 1.381 . S
C255 C257 1.381 . S
C255 C258 1.487 . S
C256 C253 1.382 . S
C256 C257 1.387 . S
C256 H282 0.930 . S
C257 C255 1.381 . S
C257 C256 1.387 . S
C257 H283 0.931 . S
C258 C255 1.487 . S
C258 C265 1.399 . S
C258 N296 1.343 . S
C259 C260 1.384 . S
C259 C261 1.384 . S
C259 H284 0.931 . S
C260 C259 1.384 . S
C260 C263 1.382 . S
C261 C259 1.384 . S
C261 C262 1.381 . S
C261 H285 0.930 . S
C262 C261 1.381 . S
C262 C264 1.381 . S
C262 C265 1.487 . S
C263 C260 1.382 . S
C263 C264 1.387 . S
C263 H286 0.930 . S
C264 C262 1.381 . S
C264 C263 1.387 . S
C264 H287 0.931 . S
C265 C258 1.399 . S
C265 C262 1.487 . S
C265 N297 1.343 . S
C266 C267 1.384 . S
C266 C268 1.384 . S
C266 H288 0.931 . S
C267 C266 1.384 . S
C267 C270 1.382 . S
C268 C266 1.384 . S
C268 C269 1.381 . S
C268 H289 0.930 . S
C269 C268 1.381 . S
C269 C271 1.381 . S
C269 C272 1.487 . S
C270 C267 1.382 . S
C270 C271 1.387 . S
C270 H290 0.930 . S
C271 C269 1.381 . S
C271 C270 1.387 . S
C271 H291 0.931 . S
C272 C269 1.487 . S
C272 C279 1.399 . S
C272 N297 1.343 . S
C273 C274 1.384 . S
C273 C275 1.384 . S
C273 H292 0.931 . S
C274 C273 1.384 . S
C274 C277 1.382 . S
C275 C273 1.384 . S
C275 C276 1.381 . S
C275 H293 0.930 . S
C276 C275 1.381 . S
C276 C278 1.381 . S
C276 C279 1.487 . S
C277 C274 1.382 . S
C277 C278 1.387 . S
C277 H294 0.930 . S
C278 C276 1.381 . S
C278 C277 1.387 . S
C278 H295 0.931 . S
C279 C272 1.399 . S
C279 C276 1.487 . S
C279 N296 1.343 . S
H280 C252 0.931 . S
H281 C254 0.930 . S
H282 C256 0.930 . S
H283 C257 0.931 . S
H284 C259 0.931 . S
H285 C261 0.930 . S
H286 C263 0.930 . S
H287 C264 0.931 . S
H288 C266 0.931 . S
H289 C268 0.930 . S
H290 C270 0.930 . S
H291 C271 0.931 . S
H292 C273 0.931 . S
H293 C275 0.930 . S
H294 C277 0.930 . S
H295 C278 0.931 . S
N296 C258 1.343 . S
N296 C279 1.343 . S
N297 C265 1.343 . S
N297 C272 1.343 . S
C298 C299 1.384 . S
C298 C300 1.384 . S
C298 H326 0.931 . S
C299 C298 1.384 . S
C299 C302 1.382 . S
C300 C298 1.384 . S
C300 C301 1.381 . S
C300 H327 0.930 . S
C301 C300 1.381 . S
C301 C303 1.381 . S
C301 C304 1.487 . S
C302 C299 1.382 . S
C302 C303 1.387 . S
C302 H328 0.930 . S
C303 C301 1.381 . S
C303 C302 1.387 . S
C303 H329 0.931 . S
C304 C301 1.487 . S
C304 C311 1.399 . S
C304 N342 1.343 . S
C305 C306 1.384 . S
C305 C307 1.384 . S
C305 H330 0.931 . S
C306 C305 1.384 . S
C306 C309 1.382 . S
C307 C305 1.384 . S
C307 C308 1.381 . S
C307 H331 0.930 . S
C308 C307 1.381 . S
C308 C310 1.381 . S
C308 C311 1.487 . S
C309 C306 1.382 . S
C309 C310 1.387 . S
C309 H332 0.930 . S
C310 C308 1.381 . S
C310 C309 1.387 . S
C310 H333 0.931 . S
C311 C304 1.399 . S
C311 C308 1.487 . S
C311 N343 1.343 . S
C312 C313 1.384 . S
C312 C314 1.384 . S
C312 H334 0.931 . S
C313 C312 1.384 . S
C313 C316 1.382 . S
C314 C312 1.384 . S
C314 C315 1.381 . S
C314 H335 0.930 . S
C315 C314 1.381 . S
C315 C317 1.381 . S
C315 C318 1.487 . S
C316 C313 1.382 . S
C316 C317 1.387 . S
C316 H336 0.930 . S
C317 C315 1.381 . S
C317 C316 1.387 . S
C317 H337 0.931 . S
C318 C315 1.487 . S
C318 C325 1.399 . S
C318 N343 1.343 . S
C319 C320 1.384 . S
C319 C321 1.384 . S
C319 H338 0.931 . S
C320 C319 1.384 . S
C320 C323 1.382 . S
C321 C319 1.384 . S
C321 C322 1.381 . S
C321 H339 0.930 . S
C322 C321 1.381 . S
C322 C324 1.381 . S
C322 C325 1.487 . S
C323 C320 1.382 . S
C323 C324 1.387 . S
C323 H340 0.930 . S
C324 C322 1.381 . S
C324 C323 1.387 . S
C324 H341 0.931 . S
C325 C318 1.399 . S
C325 C322 1.487 . S
C325 N342 1.343 . S
H326 C298 0.931 . S
H327 C300 0.930 . S
H328 C302 0.930 . S
H329 C303 0.931 . S
H330 C305 0.931 . S
H331 C307 0.930 . S
H332 C309 0.930 . S
H333 C310 0.931 . S
H334 C312 0.931 . S
H335 C314 0.930 . S
H336 C316 0.930 . S
H337 C317 0.931 . S
H338 C319 0.931 . S
H339 C321 0.930 . S
H340 C323 0.930 . S
H341 C324 0.931 . S
N342 C304 1.343 . S
N342 C325 1.343 . S
N343 C311 1.343 . S
N343 C318 1.343 . S
C344 C345 1.384 . S
C344 C346 1.384 . S
C344 H372 0.931 . S
C345 C344 1.384 . S
C345 C348 1.382 . S
C346 C344 1.384 . S
C346 C347 1.381 . S
C346 H373 0.930 . S
C347 C346 1.381 . S
C347 C349 1.381 . S
C347 C350 1.487 . S
C348 C345 1.382 . S
C348 C349 1.387 . S
C348 H374 0.930 . S
C349 C347 1.381 . S
C349 C348 1.387 . S
C349 H375 0.931 . S
C350 C347 1.487 . S
C350 C357 1.399 . S
C350 N388 1.343 . S
C351 C352 1.384 . S
C351 C353 1.384 . S
C351 H376 0.931 . S
C352 C351 1.384 . S
C352 C355 1.382 . S
C353 C351 1.384 . S
C353 C354 1.381 . S
C353 H377 0.930 . S
C354 C353 1.381 . S
C354 C356 1.381 . S
C354 C357 1.487 . S
C355 C352 1.382 . S
C355 C356 1.387 . S
C355 H378 0.930 . S
C356 C354 1.381 . S
C356 C355 1.387 . S
C356 H379 0.931 . S
C357 C350 1.399 . S
C357 C354 1.487 . S
C357 N389 1.343 . S
C358 C359 1.384 . S
C358 C360 1.384 . S
C358 H380 0.931 . S
C359 C358 1.384 . S
C359 C362 1.382 . S
C360 C358 1.384 . S
C360 C361 1.381 . S
C360 H381 0.930 . S
C361 C360 1.381 . S
C361 C363 1.381 . S
C361 C364 1.487 . S
C362 C359 1.382 . S
C362 C363 1.387 . S
C362 H382 0.930 . S
C363 C361 1.381 . S
C363 C362 1.387 . S
C363 H383 0.931 . S
C364 C361 1.487 . S
C364 C371 1.399 . S
C364 N389 1.343 . S
C365 C366 1.384 . S
C365 C367 1.384 . S
C365 H384 0.931 . S
C366 C365 1.384 . S
C366 C369 1.382 . S
C367 C365 1.384 . S
C367 C368 1.381 . S
C367 H385 0.930 . S
C368 C367 1.381 . S
C368 C370 1.381 . S
C368 C371 1.487 . S
C369 C366 1.382 . S
C369 C370 1.387 . S
C369 H386 0.930 . S
C370 C368 1.381 . S
C370 C369 1.387 . S
C370 H387 0.931 . S
C371 C364 1.399 . S
C371 C368 1.487 . S
C371 N388 1.343 . S
H372 C344 0.931 . S
H373 C346 0.930 . S
H374 C348 0.930 . S
H375 C349 0.931 . S
H376 C351 0.931 . S
H377 C353 0.930 . S
H378 C355 0.930 . S
H379 C356 0.931 . S
H380 C358 0.931 . S
H381 C360 0.930 . S
H382 C362 0.930 . S
H383 C363 0.931 . S
H384 C365 0.931 . S
H385 C367 0.930 . S
H386 C369 0.930 . S
H387 C370 0.931 . S
N388 C350 1.343 . S
N388 C371 1.343 . S
N389 C357 1.343 . S
N389 C364 1.343 . S
C390 C391 1.384 . S
C390 C392 1.384 . S
C390 H418 0.931 . S
C391 C390 1.384 . S
C391 C394 1.382 . S
C392 C390 1.384 . S
C392 C393 1.381 . S
C392 H419 0.930 . S
C393 C392 1.381 . S
C393 C395 1.381 . S
C393 C396 1.487 . S
C394 C391 1.382 . S
C394 C395 1.387 . S
C394 H420 0.930 . S
C395 C393 1.381 . S
C395 C394 1.387 . S
C395 H421 0.931 . S
C396 C393 1.487 . S
C396 C403 1.399 . S
C396 N434 1.343 . S
C397 C398 1.384 . S
C397 C399 1.384 . S
C397 H422 0.931 . S
C398 C397 1.384 . S
C398 C401 1.382 . S
C399 C397 1.384 . S
C399 C400 1.381 . S
C399 H423 0.930 . S
C400 C399 1.381 . S
C400 C402 1.381 . S
C400 C403 1.487 . S
C401 C398 1.382 . S
C401 C402 1.387 . S
C401 H424 0.930 . S
C402 C400 1.381 . S
C402 C401 1.387 . S
C402 H425 0.931 . S
C403 C396 1.399 . S
C403 C400 1.487 . S
C403 N435 1.343 . S
C404 C405 1.384 . S
C404 C406 1.384 . S
C404 H426 0.931 . S
C405 C404 1.384 . S
C405 C408 1.382 . S
C406 C404 1.384 . S
C406 C407 1.381 . S
C406 H427 0.930 . S
C407 C406 1.381 . S
C407 C409 1.381 . S
C407 C410 1.487 . S
C408 C405 1.382 . S
C408 C409 1.387 . S
C408 H428 0.930 . S
C409 C407 1.381 . S
C409 C408 1.387 . S
C409 H429 0.931 . S
C410 C407 1.487 . S
C410 C417 1.399 . S
C410 N435 1.343 . S
C411 C412 1.384 . S
C411 C413 1.384 . S
C411 H430 0.931 . S
C412 C411 1.384 . S
C412 C415 1.382 . S
C413 C411 1.384 . S
C413 C414 1.381 . S
C413 H431 0.930 . S
C414 C413 1.381 . S
C414 C416 1.381 . S
C414 C417 1.487 . S
C415 C412 1.382 . S
C415 C416 1.387 . S
C415 H432 0.930 . S
C416 C414 1.381 . S
C416 C415 1.387 . S
C416 H433 0.931 . S
C417 C410 1.399 . S
C417 C414 1.487 . S
C417 N434 1.343 . S
H418 C390 0.931 . S
H419 C392 0.930 . S
H420 C394 0.930 . S
H421 C395 0.931 . S
H422 C397 0.931 . S
H423 C399 0.930 . S
H424 C401 0.930 . S
H425 C402 0.931 . S
H426 C404 0.931 . S
H427 C406 0.930 . S
H428 C408 0.930 . S
H429 C409 0.931 . S
H430 C411 0.931 . S
H431 C413 0.930 . S
H432 C415 0.930 . S
H433 C416 0.931 . S
N434 C396 1.343 . S
N434 C417 1.343 . S
N435 C403 1.343 . S
N435 C410 1.343 . S
C436 C437 1.384 . S
C436 C438 1.384 . S
C436 H464 0.931 . S
C437 C436 1.384 . S
C437 C440 1.382 . S
C438 C436 1.384 . S
C438 C439 1.381 . S
C438 H465 0.930 . S
C439 C438 1.381 . S
C439 C441 1.381 . S
C439 C442 1.487 . S
C440 C437 1.382 . S
C440 C441 1.387 . S
C440 H466 0.930 . S
C441 C439 1.381 . S
C441 C440 1.387 . S
C441 H467 0.931 . S
C442 C439 1.487 . S
C442 C449 1.399 . S
C442 N480 1.343 . S
C443 C444 1.384 . S
C443 C445 1.384 . S
C443 H468 0.931 . S
C444 C443 1.384 . S
C444 C447 1.382 . S
C445 C443 1.384 . S
C445 C446 1.381 . S
C445 H469 0.930 . S
C446 C445 1.381 . S
C446 C448 1.381 . S
C446 C449 1.487 . S
C447 C444 1.382 . S
C447 C448 1.387 . S
C447 H470 0.930 . S
C448 C446 1.381 . S
C448 C447 1.387 . S
C448 H471 0.931 . S
C449 C442 1.399 . S
C449 C446 1.487 . S
C449 N481 1.343 . S
C450 C451 1.384 . S
C450 C452 1.384 . S
C450 H472 0.931 . S
C451 C450 1.384 . S
C451 C454 1.382 . S
C452 C450 1.384 . S
C452 C453 1.381 . S
C452 H473 0.930 . S
C453 C452 1.381 . S
C453 C455 1.381 . S
C453 C456 1.487 . S
C454 C451 1.382 . S
C454 C455 1.387 . S
C454 H474 0.930 . S
C455 C453 1.381 . S
C455 C454 1.387 . S
C455 H475 0.931 . S
C456 C453 1.487 . S
C456 C463 1.399 . S
C456 N481 1.343 . S
C457 C458 1.384 . S
C457 C459 1.384 . S
C457 H476 0.931 . S
C458 C457 1.384 . S
C458 C461 1.382 . S
C459 C457 1.384 . S
C459 C460 1.381 . S
C459 H477 0.930 . S
C460 C459 1.381 . S
C460 C462 1.381 . S
C460 C463 1.487 . S
C461 C458 1.382 . S
C461 C462 1.387 . S
C461 H478 0.930 . S
C462 C460 1.381 . S
C462 C461 1.387 . S
C462 H479 0.931 . S
C463 C456 1.399 . S
C463 C460 1.487 . S
C463 N480 1.343 . S
H464 C436 0.931 . S
H465 C438 0.930 . S
H466 C440 0.930 . S
H467 C441 0.931 . S
H468 C443 0.931 . S
H469 C445 0.930 . S
H470 C447 0.930 . S
H471 C448 0.931 . S
H472 C450 0.931 . S
H473 C452 0.930 . S
H474 C454 0.930 . S
H475 C455 0.931 . S
H476 C457 0.931 . S
H477 C459 0.930 . S
H478 C461 0.930 . S
H479 C462 0.931 . S
N480 C442 1.343 . S
N480 C463 1.343 . S
N481 C449 1.343 . S
N481 C456 1.343 . S
C482 C483 1.384 . S
C482 C484 1.384 . S
C482 H510 0.931 . S
C483 C482 1.384 . S
C483 C486 1.382 . S
C484 C482 1.384 . S
C484 C485 1.381 . S
C484 H511 0.930 . S
C485 C484 1.381 . S
C485 C487 1.381 . S
C485 C488 1.487 . S
C486 C483 1.382 . S
C486 C487 1.387 . S
C486 H512 0.930 . S
C487 C485 1.381 . S
C487 C486 1.387 . S
C487 H513 0.931 . S
C488 C485 1.487 . S
C488 C495 1.399 . S
C488 N526 1.343 . S
C489 C490 1.384 . S
C489 C491 1.384 . S
C489 H514 0.931 . S
C490 C489 1.384 . S
C490 C493 1.382 . S
C491 C489 1.384 . S
C491 C492 1.381 . S
C491 H515 0.930 . S
C492 C491 1.381 . S
C492 C494 1.381 . S
C492 C495 1.487 . S
C493 C490 1.382 . S
C493 C494 1.387 . S
C493 H516 0.930 . S
C494 C492 1.381 . S
C494 C493 1.387 . S
C494 H517 0.931 . S
C495 C488 1.399 . S
C495 C492 1.487 . S
C495 N527 1.343 . S
C496 C497 1.384 . S
C496 C498 1.384 . S
C496 H518 0.931 . S
C497 C496 1.384 . S
C497 C500 1.382 . S
C498 C496 1.384 . S
C498 C499 1.381 . S
C498 H519 0.930 . S
C499 C498 1.381 . S
C499 C501 1.381 . S
C499 C502 1.487 . S
C500 C497 1.382 . S
C500 C501 1.387 . S
C500 H520 0.930 . S
C501 C499 1.381 . S
C501 C500 1.387 . S
C501 H521 0.931 . S
C502 C499 1.487 . S
C502 C509 1.399 . S
C502 N527 1.343 . S
C503 C504 1.384 . S
C503 C505 1.384 . S
C503 H522 0.931 . S
C504 C503 1.384 . S
C504 C507 1.382 . S
C505 C503 1.384 . S
C505 C506 1.381 . S
C505 H523 0.930 . S
C506 C505 1.381 . S
C506 C508 1.381 . S
C506 C509 1.487 . S
C507 C504 1.382 . S
C507 C508 1.387 . S
C507 H524 0.930 . S
C508 C506 1.381 . S
C508 C507 1.387 . S
C508 H525 0.931 . S
C509 C502 1.399 . S
C509 C506 1.487 . S
C509 N526 1.343 . S
H510 C482 0.931 . S
H511 C484 0.930 . S
H512 C486 0.930 . S
H513 C487 0.931 . S
H514 C489 0.931 . S
H515 C491 0.930 . S
H516 C493 0.930 . S
H517 C494 0.931 . S
H518 C496 0.931 . S
H519 C498 0.930 . S
H520 C500 0.930 . S
H521 C501 0.931 . S
H522 C503 0.931 . S
H523 C505 0.930 . S
H524 C507 0.930 . S
H525 C508 0.931 . S
N526 C488 1.343 . S
N526 C509 1.343 . S
N527 C495 1.343 . S
N527 C502 1.343 . S
C528 C529 1.384 . S
C528 C530 1.384 . S
C528 H556 0.931 . S
C529 C528 1.384 . S
C529 C532 1.382 . S
C530 C528 1.384 . S
C530 C531 1.381 . S
C530 H557 0.930 . S
C531 C530 1.381 . S
C531 C533 1.381 . S
C531 C534 1.487 . S
C532 C529 1.382 . S
C532 C533 1.387 . S
C532 H558 0.930 . S
C533 C531 1.381 . S
C533 C532 1.387 . S
C533 H559 0.931 . S
C534 C531 1.487 . S
C534 C541 1.399 . S
C534 N572 1.343 . S
C535 C536 1.384 . S
C535 C537 1.384 . S
C535 H560 0.931 . S
C536 C535 1.384 . S
C536 C539 1.382 . S
C537 C535 1.384 . S
C537 C538 1.381 . S
C537 H561 0.930 . S
C538 C537 1.381 . S
C538 C540 1.381 . S
C538 C541 1.487 . S
C539 C536 1.382 . S
C539 C540 1.387 . S
C539 H562 0.930 . S
C540 C538 1.381 . S
C540 C539 1.387 . S
C540 H563 0.931 . S
C541 C534 1.399 . S
C541 C538 1.487 . S
C541 N573 1.343 . S
C542 C543 1.384 . S
C542 C544 1.384 . S
C542 H564 0.931 . S
C543 C542 1.384 . S
C543 C546 1.382 . S
C544 C542 1.384 . S
C544 C545 1.381 . S
C544 H565 0.930 . S
C545 C544 1.381 . S
C545 C547 1.381 . S
C545 C548 1.487 . S
C546 C543 1.382 . S
C546 C547 1.387 . S
C546 H566 0.930 . S
C547 C545 1.381 . S
C547 C546 1.387 . S
C547 H567 0.931 . S
C548 C545 1.487 . S
C548 C555 1.399 . S
C548 N573 1.343 . S
C549 C550 1.384 . S
C549 C551 1.384 . S
C549 H568 0.931 . S
C550 C549 1.384 . S
C550 C553 1.382 . S
C551 C549 1.384 . S
C551 C552 1.381 . S
C551 H569 0.930 . S
C552 C551 1.381 . S
C552 C554 1.381 . S
C552 C555 1.487 . S
C553 C550 1.382 . S
C553 C554 1.387 . S
C553 H570 0.930 . S
C554 C552 1.381 . S
C554 C553 1.387 . S
C554 H571 0.931 . S
C555 C548 1.399 . S
C555 C552 1.487 . S
C555 N572 1.343 . S
H556 C528 0.931 . S
H557 C530 0.930 . S
H558 C532 0.930 . S
H559 C533 0.931 . S
H560 C535 0.931 . S
H561 C537 0.930 . S
H562 C539 0.930 . S
H563 C540 0.931 . S
H564 C542 0.931 . S
H565 C544 0.930 . S
H566 C546 0.930 . S
H567 C547 0.931 . S
H568 C549 0.931 . S
H569 C551 0.930 . S
H570 C553 0.930 . S
H571 C554 0.931 . S
N572 C534 1.343 . S
N572 C555 1.343 . S
N573 C541 1.343 . S
N573 C548 1.343 . S
C574 C575 1.384 . S
C574 C576 1.384 . S
C574 H602 0.931 . S
C575 C574 1.384 . S
C575 C578 1.382 . S
C576 C574 1.384 . S
C576 C577 1.381 . S
C576 H603 0.930 . S
C577 C576 1.381 . S
C577 C579 1.381 . S
C577 C580 1.487 . S
C578 C575 1.382 . S
C578 C579 1.387 . S
C578 H604 0.930 . S
C579 C577 1.381 . S
C579 C578 1.387 . S
C579 H605 0.931 . S
C580 C577 1.487 . S
C580 C587 1.399 . S
C580 N618 1.343 . S
C581 C582 1.384 . S
C581 C583 1.384 . S
C581 H606 0.931 . S
C582 C581 1.384 . S
C582 C585 1.382 . S
C583 C581 1.384 . S
C583 C584 1.381 . S
C583 H607 0.930 . S
C584 C583 1.381 . S
C584 C586 1.381 . S
C584 C587 1.487 . S
C585 C582 1.382 . S
C585 C586 1.387 . S
C585 H608 0.930 . S
C586 C584 1.381 . S
C586 C585 1.387 . S
C586 H609 0.931 . S
C587 C580 1.399 . S
C587 C584 1.487 . S
C587 N619 1.343 . S
C588 C589 1.384 . S
C588 C590 1.384 . S
C588 H610 0.931 . S
C589 C588 1.384 . S
C589 C592 1.382 . S
C590 C588 1.384 . S
C590 C591 1.381 . S
C590 H611 0.930 . S
C591 C590 1.381 . S
C591 C593 1.381 . S
C591 C594 1.487 . S
C592 C589 1.382 . S
C592 C593 1.387 . S
C592 H612 0.930 . S
C593 C591 1.381 . S
C593 C592 1.387 . S
C593 H613 0.931 . S
C594 C591 1.487 . S
C594 C601 1.399 . S
C594 N619 1.343 . S
C595 C596 1.384 . S
C595 C597 1.384 . S
C595 H614 0.931 . S
C596 C595 1.384 . S
C596 C599 1.382 . S
C597 C595 1.384 . S
C597 C598 1.381 . S
C597 H615 0.930 . S
C598 C597 1.381 . S
C598 C600 1.381 . S
C598 C601 1.487 . S
C599 C596 1.382 . S
C599 C600 1.387 . S
C599 H616 0.930 . S
C600 C598 1.381 . S
C600 C599 1.387 . S
C600 H617 0.931 . S
C601 C594 1.399 . S
C601 C598 1.487 . S
C601 N618 1.343 . S
H602 C574 0.931 . S
H603 C576 0.930 . S
H604 C578 0.930 . S
H605 C579 0.931 . S
H606 C581 0.931 . S
H607 C583 0.930 . S
H608 C585 0.930 . S
H609 C586 0.931 . S
H610 C588 0.931 . S
H611 C590 0.930 . S
H612 C592 0.930 . S
H613 C593 0.931 . S
H614 C595 0.931 . S
H615 C597 0.930 . S
H616 C599 0.930 . S
H617 C600 0.931 . S
N618 C580 1.343 . S
N618 C601 1.343 . S
N619 C587 1.343 . S
N619 C594 1.343 . S
C620 C621 1.384 . S
C620 C622 1.384 . S
C620 H648 0.931 . S
C621 C620 1.384 . S
C621 C624 1.382 . S
C622 C620 1.384 . S
C622 C623 1.381 . S
C622 H649 0.930 . S
C623 C622 1.381 . S
C623 C625 1.381 . S
C623 C626 1.487 . S
C624 C621 1.382 . S
C624 C625 1.387 . S
C624 H650 0.930 . S
C625 C623 1.381 . S
C625 C624 1.387 . S
C625 H651 0.931 . S
C626 C623 1.487 . S
C626 C633 1.399 . S
C626 N664 1.343 . S
C627 C628 1.384 . S
C627 C629 1.384 . S
C627 H652 0.931 . S
C628 C627 1.384 . S
C628 C631 1.382 . S
C629 C627 1.384 . S
C629 C630 1.381 . S
C629 H653 0.930 . S
C630 C629 1.381 . S
C630 C632 1.381 . S
C630 C633 1.487 . S
C631 C628 1.382 . S
C631 C632 1.387 . S
C631 H654 0.930 . S
C632 C630 1.381 . S
C632 C631 1.387 . S
C632 H655 0.931 . S
C633 C626 1.399 . S
C633 C630 1.487 . S
C633 N665 1.343 . S
C634 C635 1.384 . S
C634 C636 1.384 . S
C634 H656 0.931 . S
C635 C634 1.384 . S
C635 C638 1.382 . S
C636 C634 1.384 . S
C636 C637 1.381 . S
C636 H657 0.930 . S
C637 C636 1.381 . S
C637 C639 1.381 . S
C637 C640 1.487 . S
C638 C635 1.382 . S
C638 C639 1.387 . S
C638 H658 0.930 . S
C639 C637 1.381 . S
C639 C638 1.387 . S
C639 H659 0.931 . S
C640 C637 1.487 . S
C640 C647 1.399 . S
C640 N665 1.343 . S
C641 C642 1.384 . S
C641 C643 1.384 . S
C641 H660 0.931 . S
C642 C641 1.384 . S
C642 C645 1.382 . S
C643 C641 1.384 . S
C643 C644 1.381 . S
C643 H661 0.930 . S
C644 C643 1.381 . S
C644 C646 1.381 . S
C644 C647 1.487 . S
C645 C642 1.382 . S
C645 C646 1.387 . S
C645 H662 0.930 . S
C646 C644 1.381 . S
C646 C645 1.387 . S
C646 H663 0.931 . S
C647 C640 1.399 . S
C647 C644 1.487 . S
C647 N664 1.343 . S
H648 C620 0.931 . S
H649 C622 0.930 . S
H650 C624 0.930 . S
H651 C625 0.931 . S
H652 C627 0.931 . S
H653 C629 0.930 . S
H654 C631 0.930 . S
H655 C632 0.931 . S
H656 C634 0.931 . S
H657 C636 0.930 . S
H658 C638 0.930 . S
H659 C639 0.931 . S
H660 C641 0.931 . S
H661 C643 0.930 . S
H662 C645 0.930 . S
H663 C646 0.931 . S
N664 C626 1.343 . S
N664 C647 1.343 . S
N665 C633 1.343 . S
N665 C640 1.343 . S
C666 C667 1.384 . S
C666 C668 1.384 . S
C666 H694 0.931 . S
C667 C666 1.384 . S
C667 C670 1.382 1_655 S
C668 C666 1.384 . S
C668 C669 1.408 . S
C668 H695 0.930 . S
C669 C668 1.408 . S
C669 C671 1.368 1_655 S
C669 C672 1.471 1_655 S
C670 C667 1.382 1_455 S
C670 C671 1.387 . S
C670 H696 0.930 . S
C671 C669 1.368 1_455 S
C671 C670 1.387 . S
C671 H697 0.931 . S
C672 C669 1.471 1_455 S
C672 C679 1.399 1_455 S
C672 N710 1.347 . S
C673 C674 1.384 . S
C673 C675 1.384 . S
C673 H698 0.931 . S
C674 C673 1.384 . S
C674 C677 1.382 1_455 S
C675 C673 1.384 . S
C675 C676 1.380 . S
C675 H699 0.930 . S
C676 C675 1.380 . S
C676 C678 1.385 1_455 S
C676 C679 1.492 1_455 S
C677 C674 1.382 1_655 S
C677 C678 1.387 . S
C677 H700 0.930 . S
C678 C676 1.385 1_655 S
C678 C677 1.387 . S
C678 H701 0.931 . S
C679 C672 1.399 1_655 S
C679 C676 1.492 1_655 S
C679 N711 1.362 . S
C680 C681 1.384 . S
C680 C682 1.384 . S
C680 H702 0.931 . S
C681 C680 1.384 . S
C681 C684 1.382 1_455 S
C682 C680 1.384 . S
C682 C683 1.421 . S
C682 H703 0.930 . S
C683 C682 1.421 . S
C683 C685 1.362 1_455 S
C683 C686 1.471 1_455 S
C684 C681 1.382 1_655 S
C684 C685 1.387 . S
C684 H704 0.930 . S
C685 C683 1.362 1_655 S
C685 C684 1.387 . S
C685 H705 0.931 . S
C686 C683 1.471 1_655 S
C686 C693 1.399 1_655 S
C686 N711 1.313 . S
C687 C688 1.384 . S
C687 C689 1.384 . S
C687 H706 0.931 . S
C688 C687 1.384 . S
C688 C691 1.382 1_655 S
C689 C687 1.384 . S
C689 C690 1.380 1_655 S
C689 H707 0.930 . S
C690 C689 1.380 1_455 S
C690 C692 1.385 . S
C690 C693 1.497 . S
C691 C688 1.382 1_455 S
C691 C692 1.387 . S
C691 H708 0.930 . S
C692 C690 1.385 . S
C692 C691 1.387 . S
C692 H709 0.931 . S
C693 C686 1.399 1_455 S
C693 C690 1.497 . S
C693 N710 1.330 . S
H694 C666 0.931 . S
H695 C668 0.930 . S
H696 C670 0.930 . S
H697 C671 0.931 . S
H698 C673 0.931 . S
H699 C675 0.930 . S
H700 C677 0.930 . S
H701 C678 0.931 . S
H702 C680 0.931 . S
H703 C682 0.930 . S
H704 C684 0.930 . S
H705 C685 0.931 . S
H706 C687 0.931 . S
H707 C689 0.930 . S
H708 C691 0.930 . S
H709 C692 0.931 . S
N710 C672 1.347 . S
N710 C693 1.330 . S
N711 C679 1.362 . S
N711 C686 1.313 . S
C712 C713 1.384 . S
C712 C714 1.384 . S
C712 H740 0.931 . S
C713 C712 1.384 . S
C713 C716 1.382 . S
C714 C712 1.384 . S
C714 C715 1.381 . S
C714 H741 0.930 . S
C715 C714 1.381 . S
C715 C717 1.381 . S
C715 C718 1.487 . S
C716 C713 1.382 . S
C716 C717 1.387 . S
C716 H742 0.930 . S
C717 C715 1.381 . S
C717 C716 1.387 . S
C717 H743 0.931 . S
C718 C715 1.487 . S
C718 C725 1.399 . S
C718 N756 1.343 . S
C719 C720 1.384 . S
C719 C721 1.384 . S
C719 H744 0.931 . S
C720 C719 1.384 . S
C720 C723 1.382 . S
C721 C719 1.384 . S
C721 C722 1.381 . S
C721 H745 0.930 . S
C722 C721 1.381 . S
C722 C724 1.381 . S
C722 C725 1.487 . S
C723 C720 1.382 . S
C723 C724 1.387 . S
C723 H746 0.930 . S
C724 C722 1.381 . S
C724 C723 1.387 . S
C724 H747 0.931 . S
C725 C718 1.399 . S
C725 C722 1.487 . S
C725 N757 1.343 . S
C726 C727 1.384 . S
C726 C728 1.384 . S
C726 H748 0.931 . S
C727 C726 1.384 . S
C727 C730 1.382 . S
C728 C726 1.384 . S
C728 C729 1.381 . S
C728 H749 0.930 . S
C729 C728 1.381 . S
C729 C731 1.381 . S
C729 C732 1.487 . S
C730 C727 1.382 . S
C730 C731 1.387 . S
C730 H750 0.930 . S
C731 C729 1.381 . S
C731 C730 1.387 . S
C731 H751 0.931 . S
C732 C729 1.487 . S
C732 C739 1.399 . S
C732 N757 1.343 . S
C733 C734 1.384 . S
C733 C735 1.384 . S
C733 H752 0.931 . S
C734 C733 1.384 . S
C734 C737 1.382 . S
C735 C733 1.384 . S
C735 C736 1.381 . S
C735 H753 0.930 . S
C736 C735 1.381 . S
C736 C738 1.381 . S
C736 C739 1.487 . S
C737 C734 1.382 . S
C737 C738 1.387 . S
C737 H754 0.930 . S
C738 C736 1.381 . S
C738 C737 1.387 . S
C738 H755 0.931 . S
C739 C732 1.399 . S
C739 C736 1.487 . S
C739 N756 1.343 . S
H740 C712 0.931 . S
H741 C714 0.930 . S
H742 C716 0.930 . S
H743 C717 0.931 . S
H744 C719 0.931 . S
H745 C721 0.930 . S
H746 C723 0.930 . S
H747 C724 0.931 . S
H748 C726 0.931 . S
H749 C728 0.930 . S
H750 C730 0.930 . S
H751 C731 0.931 . S
H752 C733 0.931 . S
H753 C735 0.930 . S
H754 C737 0.930 . S
H755 C738 0.931 . S
N756 C718 1.343 . S
N756 C739 1.343 . S
N757 C725 1.343 . S
N757 C732 1.343 . S
C758 C759 1.384 1_545 S
C758 C760 1.384 . S
C758 H786 0.931 . S
C759 C758 1.384 1_565 S
C759 C762 1.382 . S
C760 C758 1.384 . S
C760 C761 1.381 1_545 S
C760 H787 0.930 . S
C761 C760 1.381 1_565 S
C761 C763 1.381 . S
C761 C764 1.487 . S
C762 C759 1.382 . S
C762 C763 1.387 . S
C762 H788 0.930 . S
C763 C761 1.381 . S
C763 C762 1.387 . S
C763 H789 0.931 . S
C764 C761 1.487 . S
C764 C771 1.399 1_565 S
C764 N802 1.343 . S
C765 C766 1.384 1_565 S
C765 C767 1.384 . S
C765 H790 0.931 . S
C766 C765 1.384 1_545 S
C766 C769 1.382 . S
C767 C765 1.384 . S
C767 C768 1.381 1_565 S
C767 H791 0.930 . S
C768 C767 1.381 1_545 S
C768 C770 1.381 . S
C768 C771 1.487 . S
C769 C766 1.382 . S
C769 C770 1.387 . S
C769 H792 0.930 . S
C770 C768 1.381 . S
C770 C769 1.387 . S
C770 H793 0.931 . S
C771 C764 1.399 1_545 S
C771 C768 1.487 . S
C771 N803 1.343 . S
C772 C773 1.384 1_565 S
C772 C774 1.384 . S
C772 H794 0.931 . S
C773 C772 1.384 1_545 S
C773 C776 1.382 . S
C774 C772 1.384 . S
C774 C775 1.381 1_565 S
C774 H795 0.930 . S
C775 C774 1.381 1_545 S
C775 C777 1.381 . S
C775 C778 1.487 . S
C776 C773 1.382 . S
C776 C777 1.387 . S
C776 H796 0.930 . S
C777 C775 1.381 . S
C777 C776 1.387 . S
C777 H797 0.931 . S
C778 C775 1.487 . S
C778 C785 1.399 1_545 S
C778 N803 1.343 . S
C779 C780 1.384 1_545 S
C779 C781 1.384 . S
C779 H798 0.931 . S
C780 C779 1.384 1_565 S
C780 C783 1.382 . S
C781 C779 1.384 . S
C781 C782 1.381 1_545 S
C781 H799 0.930 . S
C782 C781 1.381 1_565 S
C782 C784 1.381 . S
C782 C785 1.487 . S
C783 C780 1.382 . S
C783 C784 1.387 . S
C783 H800 0.930 . S
C784 C782 1.381 . S
C784 C783 1.387 . S
C784 H801 0.931 . S
C785 C778 1.399 1_565 S
C785 C782 1.487 . S
C785 N802 1.343 . S
H786 C758 0.931 . S
H787 C760 0.930 . S
H788 C762 0.930 . S
H789 C763 0.931 . S
H790 C765 0.931 . S
H791 C767 0.930 . S
H792 C769 0.930 . S
H793 C770 0.931 . S
H794 C772 0.931 . S
H795 C774 0.930 . S
H796 C776 0.930 . S
H797 C777 0.931 . S
H798 C779 0.931 . S
H799 C781 0.930 . S
H800 C783 0.930 . S
H801 C784 0.931 . S
N802 C764 1.343 . S
N802 C785 1.343 . S
N803 C771 1.343 . S
N803 C778 1.343 . S
C804 C805 1.384 . S
C804 C806 1.384 . S
C804 H832 0.931 . S
C805 C804 1.384 . S
C805 C808 1.382 1_545 S
C806 C804 1.384 . S
C806 C807 1.380 . S
C806 H833 0.930 . S
C807 C806 1.380 . S
C807 C809 1.384 1_545 S
C807 C810 1.492 1_545 S
C808 C805 1.382 1_565 S
C808 C809 1.387 . S
C808 H834 0.930 . S
C809 C807 1.384 1_565 S
C809 C808 1.387 . S
C809 H835 0.931 . S
C810 C807 1.492 1_565 S
C810 C817 1.399 1_565 S
C810 N848 1.336 . S
C811 C812 1.384 . S
C811 C813 1.384 . S
C811 H836 0.931 . S
C812 C811 1.384 . S
C812 C815 1.382 1_565 S
C813 C811 1.384 . S
C813 C814 1.402 . S
C813 H837 0.930 . S
C814 C813 1.402 . S
C814 C816 1.371 1_565 S
C814 C817 1.472 1_565 S
C815 C812 1.382 1_545 S
C815 C816 1.387 . S
C815 H838 0.930 . S
C816 C814 1.371 1_545 S
C816 C815 1.387 . S
C816 H839 0.931 . S
C817 C810 1.399 1_545 S
C817 C814 1.472 1_545 S
C817 N849 1.348 . S
C818 C819 1.384 . S
C818 C820 1.384 . S
C818 H840 0.931 . S
C819 C818 1.384 . S
C819 C822 1.382 1_565 S
C820 C818 1.384 . S
C820 C821 1.380 1_565 S
C820 H841 0.930 . S
C821 C820 1.380 1_545 S
C821 C823 1.384 . S
C821 C824 1.497 . S
C822 C819 1.382 1_545 S
C822 C823 1.387 . S
C822 H842 0.930 . S
C823 C821 1.384 . S
C823 C822 1.387 . S
C823 H843 0.931 . S
C824 C821 1.497 . S
C824 C831 1.399 1_545 S
C824 N849 1.330 . S
C825 C826 1.384 . S
C825 C827 1.384 . S
C825 H844 0.931 . S
C826 C825 1.384 . S
C826 C829 1.382 1_545 S
C827 C825 1.384 . S
C827 C828 1.415 . S
C827 H845 0.930 . S
C828 C827 1.415 . S
C828 C830 1.365 1_545 S
C828 C831 1.472 1_545 S
C829 C826 1.382 1_565 S
C829 C830 1.387 . S
C829 H846 0.930 . S
C830 C828 1.365 1_565 S
C830 C829 1.387 . S
C830 H847 0.931 . S
C831 C824 1.399 1_565 S
C831 C828 1.472 1_565 S
C831 N848 1.342 . S
H832 C804 0.931 . S
H833 C806 0.930 . S
H834 C808 0.930 . S
H835 C809 0.931 . S
H836 C811 0.931 . S
H837 C813 0.930 . S
H838 C815 0.930 . S
H839 C816 0.931 . S
H840 C818 0.931 . S
H841 C820 0.930 . S
H842 C822 0.930 . S
H843 C823 0.931 . S
H844 C825 0.931 . S
H845 C827 0.930 . S
H846 C829 0.930 . S
H847 C830 0.931 . S
N848 C810 1.336 . S
N848 C831 1.342 . S
N849 C817 1.348 . S
N849 C824 1.330 . S
C850 C851 1.384 . S
C850 C852 1.384 . S
C850 H878 0.931 . S
C851 C850 1.384 . S
C851 C854 1.382 1_655 S
C852 C850 1.384 . S
C852 C853 1.427 . S
C852 H879 0.930 . S
C853 C852 1.427 . S
C853 C855 1.359 1_655 S
C853 C856 1.464 . S
C854 C851 1.382 1_455 S
C854 C855 1.387 . S
C854 H880 0.930 . S
C855 C853 1.359 1_455 S
C855 C854 1.387 . S
C855 H881 0.931 . S
C856 C853 1.464 . S
C856 C863 1.399 . S
C856 N894 1.320 1_655 S
C857 C858 1.384 . S
C857 C859 1.384 . S
C857 H882 0.931 . S
C858 C857 1.384 . S
C858 C861 1.382 1_455 S
C859 C857 1.384 . S
C859 C860 1.381 1_455 S
C859 H883 0.930 . S
C860 C859 1.381 1_655 S
C860 C862 1.381 . S
C860 C863 1.499 . S
C861 C858 1.382 1_655 S
C861 C862 1.387 . S
C861 H884 0.930 . S
C862 C860 1.381 . S
C862 C861 1.387 . S
C862 H885 0.931 . S
C863 C856 1.399 . S
C863 C860 1.499 . S
C863 N895 1.331 . S
C864 C865 1.384 . S
C864 C866 1.384 . S
C864 H886 0.931 . S
C865 C864 1.384 . S
C865 C868 1.382 1_455 S
C866 C864 1.384 . S
C866 C867 1.414 . S
C866 H887 0.930 . S
C867 C866 1.414 . S
C867 C869 1.365 1_455 S
C867 C870 1.469 1_455 S
C868 C865 1.382 1_655 S
C868 C869 1.387 . S
C868 H888 0.930 . S
C869 C867 1.365 1_655 S
C869 C868 1.387 . S
C869 H889 0.931 . S
C870 C867 1.469 1_655 S
C870 C877 1.399 1_655 S
C870 N895 1.345 . S
C871 C872 1.384 . S
C871 C873 1.384 . S
C871 H890 0.931 . S
C872 C871 1.384 . S
C872 C875 1.382 1_655 S
C873 C871 1.384 . S
C873 C874 1.381 . S
C873 H891 0.930 . S
C874 C873 1.381 . S
C874 C876 1.381 1_655 S
C874 C877 1.493 1_655 S
C875 C872 1.382 1_455 S
C875 C876 1.387 . S
C875 H892 0.930 . S
C876 C874 1.381 1_455 S
C876 C875 1.387 . S
C876 H893 0.931 . S
C877 C870 1.399 1_455 S
C877 C874 1.493 1_455 S
C877 N894 1.361 . S
H878 C850 0.931 . S
H879 C852 0.930 . S
H880 C854 0.930 . S
H881 C855 0.931 . S
H882 C857 0.931 . S
H883 C859 0.930 . S
H884 C861 0.930 . S
H885 C862 0.931 . S
H886 C864 0.931 . S
H887 C866 0.930 . S
H888 C868 0.930 . S
H889 C869 0.931 . S
H890 C871 0.931 . S
H891 C873 0.930 . S
H892 C875 0.930 . S
H893 C876 0.931 . S
N894 C856 1.320 1_455 S
N894 C877 1.361 . S
N895 C863 1.331 . S
N895 C870 1.345 . S
C896 C897 1.384 . S
C896 C898 1.384 . S
C896 H924 0.931 . S
C897 C896 1.384 . S
C897 C900 1.382 . S
C898 C896 1.384 . S
C898 C899 1.381 . S
C898 H925 0.930 . S
C899 C898 1.381 . S
C899 C901 1.381 . S
C899 C902 1.487 . S
C900 C897 1.382 . S
C900 C901 1.387 . S
C900 H926 0.930 . S
C901 C899 1.381 . S
C901 C900 1.387 . S
C901 H927 0.931 . S
C902 C899 1.487 . S
C902 C909 1.399 . S
C902 N940 1.343 . S
C903 C904 1.384 . S
C903 C905 1.384 . S
C903 H928 0.931 . S
C904 C903 1.384 . S
C904 C907 1.382 . S
C905 C903 1.384 . S
C905 C906 1.381 . S
C905 H929 0.930 . S
C906 C905 1.381 . S
C906 C908 1.381 . S
C906 C909 1.487 . S
C907 C904 1.382 . S
C907 C908 1.387 . S
C907 H930 0.930 . S
C908 C906 1.381 . S
C908 C907 1.387 . S
C908 H931 0.931 . S
C909 C902 1.399 . S
C909 C906 1.487 . S
C909 N941 1.343 . S
C910 C911 1.384 . S
C910 C912 1.384 . S
C910 H932 0.931 . S
C911 C910 1.384 . S
C911 C914 1.382 . S
C912 C910 1.384 . S
C912 C913 1.381 . S
C912 H933 0.930 . S
C913 C912 1.381 . S
C913 C915 1.381 . S
C913 C916 1.487 . S
C914 C911 1.382 . S
C914 C915 1.387 . S
C914 H934 0.930 . S
C915 C913 1.381 . S
C915 C914 1.387 . S
C915 H935 0.931 . S
C916 C913 1.487 . S
C916 C923 1.399 . S
C916 N941 1.343 . S
C917 C918 1.384 . S
C917 C919 1.384 . S
C917 H936 0.931 . S
C918 C917 1.384 . S
C918 C921 1.382 . S
C919 C917 1.384 . S
C919 C920 1.381 . S
C919 H937 0.930 . S
C920 C919 1.381 . S
C920 C922 1.381 . S
C920 C923 1.487 . S
C921 C918 1.382 . S
C921 C922 1.387 . S
C921 H938 0.930 . S
C922 C920 1.381 . S
C922 C921 1.387 . S
C922 H939 0.931 . S
C923 C916 1.399 . S
C923 C920 1.487 . S
C923 N940 1.343 . S
H924 C896 0.931 . S
H925 C898 0.930 . S
H926 C900 0.930 . S
H927 C901 0.931 . S
H928 C903 0.931 . S
H929 C905 0.930 . S
H930 C907 0.930 . S
H931 C908 0.931 . S
H932 C910 0.931 . S
H933 C912 0.930 . S
H934 C914 0.930 . S
H935 C915 0.931 . S
H936 C917 0.931 . S
H937 C919 0.930 . S
H938 C921 0.930 . S
H939 C922 0.931 . S
N940 C902 1.343 . S
N940 C923 1.343 . S
N941 C909 1.343 . S
N941 C916 1.343 . S
C942 C943 1.384 . S
C942 C944 1.384 . S
C942 H970 0.931 . S
C943 C942 1.384 . S
C943 C946 1.382 . S
C944 C942 1.384 . S
C944 C945 1.381 . S
C944 H971 0.930 . S
C945 C944 1.381 . S
C945 C947 1.381 . S
C945 C948 1.487 . S
C946 C943 1.382 . S
C946 C947 1.387 . S
C946 H972 0.930 . S
C947 C945 1.381 . S
C947 C946 1.387 . S
C947 H973 0.931 . S
C948 C945 1.487 . S
C948 C955 1.399 . S
C948 N986 1.343 . S
C949 C950 1.384 . S
C949 C951 1.384 . S
C949 H974 0.931 . S
C950 C949 1.384 . S
C950 C953 1.382 . S
C951 C949 1.384 . S
C951 C952 1.381 . S
C951 H975 0.930 . S
C952 C951 1.381 . S
C952 C954 1.381 . S
C952 C955 1.487 . S
C953 C950 1.382 . S
C953 C954 1.387 . S
C953 H976 0.930 . S
C954 C952 1.381 . S
C954 C953 1.387 . S
C954 H977 0.931 . S
C955 C948 1.399 . S
C955 C952 1.487 . S
C955 N987 1.343 . S
C956 C957 1.384 . S
C956 C958 1.384 . S
C956 H978 0.931 . S
C957 C956 1.384 . S
C957 C960 1.382 . S
C958 C956 1.384 . S
C958 C959 1.381 . S
C958 H979 0.930 . S
C959 C958 1.381 . S
C959 C961 1.381 . S
C959 C962 1.487 . S
C960 C957 1.382 . S
C960 C961 1.387 . S
C960 H980 0.930 . S
C961 C959 1.381 . S
C961 C960 1.387 . S
C961 H981 0.931 . S
C962 C959 1.487 . S
C962 C969 1.399 . S
C962 N987 1.343 . S
C963 C964 1.384 . S
C963 C965 1.384 . S
C963 H982 0.931 . S
C964 C963 1.384 . S
C964 C967 1.382 . S
C965 C963 1.384 . S
C965 C966 1.381 . S
C965 H983 0.930 . S
C966 C965 1.381 . S
C966 C968 1.381 . S
C966 C969 1.487 . S
C967 C964 1.382 . S
C967 C968 1.387 . S
C967 H984 0.930 . S
C968 C966 1.381 . S
C968 C967 1.387 . S
C968 H985 0.931 . S
C969 C962 1.399 . S
C969 C966 1.487 . S
C969 N986 1.343 . S
H970 C942 0.931 . S
H971 C944 0.930 . S
H972 C946 0.930 . S
H973 C947 0.931 . S
H974 C949 0.931 . S
H975 C951 0.930 . S
H976 C953 0.930 . S
H977 C954 0.931 . S
H978 C956 0.931 . S
H979 C958 0.930 . S
H980 C960 0.930 . S
H981 C961 0.931 . S
H982 C963 0.931 . S
H983 C965 0.930 . S
H984 C967 0.930 . S
H985 C968 0.931 . S
N986 C948 1.343 . S
N986 C969 1.343 . S
N987 C955 1.343 . S
N987 C962 1.343 . S
C988 C989 1.384 . S
C988 C990 1.384 . S
C988 H1016 0.931 . S
C989 C988 1.384 . S
C989 C992 1.382 . S
C990 C988 1.384 . S
C990 C991 1.381 . S
C990 H1017 0.930 . S
C991 C990 1.381 . S
C991 C993 1.381 . S
C991 C994 1.487 . S
C992 C989 1.382 . S
C992 C993 1.387 . S
C992 H1018 0.930 . S
C993 C991 1.381 . S
C993 C992 1.387 . S
C993 H1019 0.931 . S
C994 C991 1.487 . S
C994 C1001 1.399 . S
C994 N1032 1.343 . S
C995 C996 1.384 . S
C995 C997 1.384 . S
C995 H1020 0.931 . S
C996 C995 1.384 . S
C996 C999 1.382 . S
C997 C995 1.384 . S
C997 C998 1.381 . S
C997 H1021 0.930 . S
C998 C997 1.381 . S
C998 C1000 1.381 . S
C998 C1001 1.487 . S
C999 C996 1.382 . S
C999 C1000 1.387 . S
C999 H1022 0.930 . S
C1000 C998 1.381 . S
C1000 C999 1.387 . S
C1000 H1023 0.931 . S
C1001 C994 1.399 . S
C1001 C998 1.487 . S
C1001 N1033 1.343 . S
C1002 C1003 1.384 . S
C1002 C1004 1.384 . S
C1002 H1024 0.931 . S
C1003 C1002 1.384 . S
C1003 C1006 1.382 . S
C1004 C1002 1.384 . S
C1004 C1005 1.381 . S
C1004 H1025 0.930 . S
C1005 C1004 1.381 . S
C1005 C1007 1.381 . S
C1005 C1008 1.487 . S
C1006 C1003 1.382 . S
C1006 C1007 1.387 . S
C1006 H1026 0.930 . S
C1007 C1005 1.381 . S
C1007 C1006 1.387 . S
C1007 H1027 0.931 . S
C1008 C1005 1.487 . S
C1008 C1015 1.399 . S
C1008 N1033 1.343 . S
C1009 C1010 1.384 . S
C1009 C1011 1.384 . S
C1009 H1028 0.931 . S
C1010 C1009 1.384 . S
C1010 C1013 1.382 . S
C1011 C1009 1.384 . S
C1011 C1012 1.381 . S
C1011 H1029 0.930 . S
C1012 C1011 1.381 . S
C1012 C1014 1.381 . S
C1012 C1015 1.487 . S
C1013 C1010 1.382 . S
C1013 C1014 1.387 . S
C1013 H1030 0.930 . S
C1014 C1012 1.381 . S
C1014 C1013 1.387 . S
C1014 H1031 0.931 . S
C1015 C1008 1.399 . S
C1015 C1012 1.487 . S
C1015 N1032 1.343 . S
H1016 C988 0.931 . S
H1017 C990 0.930 . S
H1018 C992 0.930 . S
H1019 C993 0.931 . S
H1020 C995 0.931 . S
H1021 C997 0.930 . S
H1022 C999 0.930 . S
H1023 C1000 0.931 . S
H1024 C1002 0.931 . S
H1025 C1004 0.930 . S
H1026 C1006 0.930 . S
H1027 C1007 0.931 . S
H1028 C1009 0.931 . S
H1029 C1011 0.930 . S
H1030 C1013 0.930 . S
H1031 C1014 0.931 . S
N1032 C994 1.343 . S
N1032 C1015 1.343 . S
N1033 C1001 1.343 . S
N1033 C1008 1.343 . S
C1034 C1035 1.384 . S
C1034 C1036 1.384 . S
C1034 H1062 0.931 . S
C1035 C1034 1.384 . S
C1035 C1038 1.382 . S
C1036 C1034 1.384 . S
C1036 C1037 1.381 . S
C1036 H1063 0.930 . S
C1037 C1036 1.381 . S
C1037 C1039 1.381 . S
C1037 C1040 1.487 . S
C1038 C1035 1.382 . S
C1038 C1039 1.387 . S
C1038 H1064 0.930 . S
C1039 C1037 1.381 . S
C1039 C1038 1.387 . S
C1039 H1065 0.931 . S
C1040 C1037 1.487 . S
C1040 C1047 1.399 . S
C1040 N1078 1.343 . S
C1041 C1042 1.384 . S
C1041 C1043 1.384 . S
C1041 H1066 0.931 . S
C1042 C1041 1.384 . S
C1042 C1045 1.382 . S
C1043 C1041 1.384 . S
C1043 C1044 1.381 . S
C1043 H1067 0.930 . S
C1044 C1043 1.381 . S
C1044 C1046 1.381 . S
C1044 C1047 1.487 . S
C1045 C1042 1.382 . S
C1045 C1046 1.387 . S
C1045 H1068 0.930 . S
C1046 C1044 1.381 . S
C1046 C1045 1.387 . S
C1046 H1069 0.931 . S
C1047 C1040 1.399 . S
C1047 C1044 1.487 . S
C1047 N1079 1.343 . S
C1048 C1049 1.384 . S
C1048 C1050 1.384 . S
C1048 H1070 0.931 . S
C1049 C1048 1.384 . S
C1049 C1052 1.382 . S
C1050 C1048 1.384 . S
C1050 C1051 1.381 . S
C1050 H1071 0.930 . S
C1051 C1050 1.381 . S
C1051 C1053 1.381 . S
C1051 C1054 1.487 . S
C1052 C1049 1.382 . S
C1052 C1053 1.387 . S
C1052 H1072 0.930 . S
C1053 C1051 1.381 . S
C1053 C1052 1.387 . S
C1053 H1073 0.931 . S
C1054 C1051 1.487 . S
C1054 C1061 1.399 . S
C1054 N1079 1.343 . S
C1055 C1056 1.384 . S
C1055 C1057 1.384 . S
C1055 H1074 0.931 . S
C1056 C1055 1.384 . S
C1056 C1059 1.382 . S
C1057 C1055 1.384 . S
C1057 C1058 1.381 . S
C1057 H1075 0.930 . S
C1058 C1057 1.381 . S
C1058 C1060 1.381 . S
C1058 C1061 1.487 . S
C1059 C1056 1.382 . S
C1059 C1060 1.387 . S
C1059 H1076 0.930 . S
C1060 C1058 1.381 . S
C1060 C1059 1.387 . S
C1060 H1077 0.931 . S
C1061 C1054 1.399 . S
C1061 C1058 1.487 . S
C1061 N1078 1.343 . S
H1062 C1034 0.931 . S
H1063 C1036 0.930 . S
H1064 C1038 0.930 . S
H1065 C1039 0.931 . S
H1066 C1041 0.931 . S
H1067 C1043 0.930 . S
H1068 C1045 0.930 . S
H1069 C1046 0.931 . S
H1070 C1048 0.931 . S
H1071 C1050 0.930 . S
H1072 C1052 0.930 . S
H1073 C1053 0.931 . S
H1074 C1055 0.931 . S
H1075 C1057 0.930 . S
H1076 C1059 0.930 . S
H1077 C1060 0.931 . S
N1078 C1040 1.343 . S
N1078 C1061 1.343 . S
N1079 C1047 1.343 . S
N1079 C1054 1.343 . S
C1080 C1081 1.387 . S
C1080 H1084 0.950 . S
C1080 C1089 1.390 . S
C1081 C1080 1.387 . S
C1081 C1083 1.387 1_655 S
H1082 C1089 0.950 . S
C1083 C1081 1.387 1_455 S
C1083 C1085 1.390 . S
C1083 H1087 0.950 . S
H1084 C1080 0.950 . S
C1085 C1083 1.390 . S
C1085 C1086 1.387 1_455 S
C1085 H1088 0.950 . S
C1086 C1085 1.387 1_655 S
C1086 C1089 1.387 . S
H1087 C1083 0.950 . S
H1088 C1085 0.950 . S
C1089 C1080 1.390 . S
C1089 H1082 0.950 . S
C1089 C1086 1.387 . S
C1090 C1091 1.387 . S
C1090 H1094 0.950 . S
C1090 C1099 1.390 . S
C1091 C1090 1.387 . S
C1091 C1093 1.387 . S
H1092 C1099 0.950 . S
C1093 C1091 1.387 . S
C1093 C1095 1.390 . S
C1093 H1097 0.950 . S
H1094 C1090 0.950 . S
C1095 C1093 1.390 . S
C1095 C1096 1.387 . S
C1095 H1098 0.950 . S
C1096 C1095 1.387 . S
C1096 C1099 1.387 . S
H1097 C1093 0.950 . S
H1098 C1095 0.950 . S
C1099 C1090 1.390 . S
C1099 H1092 0.950 . S
C1099 C1096 1.387 . S
C1100 C1101 1.387 1_565 S
C1100 H1104 0.950 . S
C1100 C1109 1.390 . S
C1101 C1100 1.387 1_545 S
C1101 C1103 1.387 . S
H1102 C1109 0.950 . S
C1103 C1101 1.387 . S
C1103 C1105 1.390 . S
C1103 H1107 0.950 . S
H1104 C1100 0.950 . S
C1105 C1103 1.390 . S
C1105 C1106 1.387 . S
C1105 H1108 0.950 . S
C1106 C1105 1.387 . S
C1106 C1109 1.387 1_545 S
H1107 C1103 0.950 . S
H1108 C1105 0.950 . S
C1109 C1100 1.390 . S
C1109 H1102 0.950 . S
C1109 C1106 1.387 1_565 S
C1110 C1111 1.387 1_545 S
C1110 H1114 0.950 . S
C1110 C1119 1.390 . S
C1111 C1110 1.387 1_565 S
C1111 C1113 1.387 . S
H1112 C1119 0.950 . S
C1113 C1111 1.387 . S
C1113 C1115 1.390 . S
C1113 H1117 0.950 . S
H1114 C1110 0.950 . S
C1115 C1113 1.390 . S
C1115 C1116 1.387 . S
C1115 H1118 0.950 . S
C1116 C1115 1.387 . S
C1116 C1119 1.387 1_565 S
H1117 C1113 0.950 . S
H1118 C1115 0.950 . S
C1119 C1110 1.390 . S
C1119 H1112 0.950 . S
C1119 C1116 1.387 1_545 S
C1120 C1121 1.387 . S
C1120 H1124 0.950 . S
C1120 C1129 1.390 . S
C1121 C1120 1.387 . S
C1121 C1123 1.387 1_455 S
H1122 C1129 0.950 . S
C1123 C1121 1.387 1_655 S
C1123 C1125 1.390 . S
C1123 H1127 0.950 . S
H1124 C1120 0.950 . S
C1125 C1123 1.390 . S
C1125 C1126 1.387 1_655 S
C1125 H1128 0.950 . S
C1126 C1125 1.387 1_455 S
C1126 C1129 1.387 . S
H1127 C1123 0.950 . S
H1128 C1125 0.950 . S
C1129 C1120 1.390 . S
C1129 H1122 0.950 . S
C1129 C1126 1.387 . S
C1130 C1131 1.387 . S
C1130 H1134 0.950 . S
C1130 C1139 1.390 . S
C1131 C1130 1.387 . S
C1131 C1133 1.387 . S
H1132 C1139 0.950 . S
C1133 C1131 1.387 . S
C1133 C1135 1.390 . S
C1133 H1137 0.950 . S
H1134 C1130 0.950 . S
C1135 C1133 1.390 . S
C1135 C1136 1.387 . S
C1135 H1138 0.950 . S
C1136 C1135 1.387 . S
C1136 C1139 1.387 . S
H1137 C1133 0.950 . S
H1138 C1135 0.950 . S
C1139 C1130 1.390 . S
C1139 H1132 0.950 . S
C1139 C1136 1.387 . S
C1140 C1141 1.387 . S
C1140 H1144 0.950 . S
C1140 C1149 1.390 . S
C1141 C1140 1.387 . S
C1141 C1143 1.387 . S
H1142 C1149 0.950 . S
C1143 C1141 1.387 . S
C1143 C1145 1.371 . S
C1143 H1147 0.950 1_455 S
H1144 C1140 0.950 . S
C1145 C1143 1.371 . S
C1145 C1146 1.388 . S
C1145 H1148 0.972 1_455 S
C1146 C1145 1.388 . S
C1146 C1149 1.387 . S
H1147 C1143 0.950 1_655 S
H1148 C1145 0.972 1_655 S
C1149 C1140 1.390 . S
C1149 H1142 0.950 . S
C1149 C1146 1.387 . S
C1150 C1151 1.387 . S
C1150 H1154 0.950 . S
C1150 C1159 1.390 . S
C1151 C1150 1.387 . S
C1151 C1153 1.387 . S
H1152 C1159 0.950 . S
C1153 C1151 1.387 . S
C1153 C1155 1.390 . S
C1153 H1157 0.950 . S
H1154 C1150 0.950 . S
C1155 C1153 1.390 . S
C1155 C1156 1.387 . S
C1155 H1158 0.950 . S
C1156 C1155 1.387 . S
C1156 C1159 1.387 . S
H1157 C1153 0.950 . S
H1158 C1155 0.950 . S
C1159 C1150 1.390 . S
C1159 H1152 0.950 . S
C1159 C1156 1.387 . S
C1160 C1161 1.387 1_545 S
C1160 H1164 0.950 . S
C1160 C1169 1.390 . S
C1161 C1160 1.387 1_565 S
C1161 C1163 1.387 . S
H1162 C1169 0.950 . S
C1163 C1161 1.387 . S
C1163 C1165 1.390 . S
C1163 H1167 0.950 . S
H1164 C1160 0.950 . S
C1165 C1163 1.390 . S
C1165 C1166 1.387 . S
C1165 H1168 0.950 . S
C1166 C1165 1.387 . S
C1166 C1169 1.387 1_565 S
H1167 C1163 0.950 . S
H1168 C1165 0.950 . S
C1169 C1160 1.390 . S
C1169 H1162 0.950 . S
C1169 C1166 1.387 1_545 S
C1170 C1171 1.387 1_565 S
C1170 H1174 0.950 . S
C1170 C1179 1.390 . S
C1171 C1170 1.387 1_545 S
C1171 C1173 1.387 . S
H1172 C1179 0.950 . S
C1173 C1171 1.387 . S
C1173 C1175 1.390 . S
C1173 H1177 0.950 . S
H1174 C1170 0.950 . S
C1175 C1173 1.390 . S
C1175 C1176 1.387 . S
C1175 H1178 0.950 . S
C1176 C1175 1.387 . S
C1176 C1179 1.387 1_545 S
H1177 C1173 0.950 . S
H1178 C1175 0.950 . S
C1179 C1170 1.390 . S
C1179 H1172 0.950 . S
C1179 C1176 1.387 1_565 S
C1180 C1181 1.387 . S
C1180 H1184 0.950 . S
C1180 C1189 1.390 . S
C1181 C1180 1.387 . S
C1181 C1183 1.387 1_655 S
H1182 C1189 0.950 . S
C1183 C1181 1.387 1_455 S
C1183 C1185 1.390 . S
C1183 H1187 0.950 . S
H1184 C1180 0.950 . S
C1185 C1183 1.390 . S
C1185 C1186 1.387 1_455 S
C1185 H1188 0.950 . S
C1186 C1185 1.387 1_655 S
C1186 C1189 1.387 . S
H1187 C1183 0.950 . S
H1188 C1185 0.950 . S
C1189 C1180 1.390 . S
C1189 H1182 0.950 . S
C1189 C1186 1.387 . S
C1190 C1191 1.387 . S
C1190 H1194 0.950 . S
C1190 C1199 1.390 . S
C1191 C1190 1.387 . S
C1191 C1193 1.387 . S
H1192 C1199 0.950 . S
C1193 C1191 1.387 . S
C1193 C1195 1.390 . S
C1193 H1197 0.950 . S
H1194 C1190 0.950 . S
C1195 C1193 1.390 . S
C1195 C1196 1.387 . S
C1195 H1198 0.950 . S
C1196 C1195 1.387 . S
C1196 C1199 1.387 . S
H1197 C1193 0.950 . S
H1198 C1195 0.950 . S
C1199 C1190 1.390 . S
C1199 H1192 0.950 . S
C1199 C1196 1.387 . S
C1200 C1201 1.387 . S
C1200 H1204 0.950 . S
C1200 C1209 1.390 . S
C1201 C1200 1.387 . S
C1201 C1203 1.387 . S
H1202 C1209 0.950 . S
C1203 C1201 1.387 . S
C1203 C1205 1.390 . S
C1203 H1207 0.950 . S
H1204 C1200 0.950 . S
C1205 C1203 1.390 . S
C1205 C1206 1.387 . S
C1205 H1208 0.950 . S
C1206 C1205 1.387 . S
C1206 C1209 1.387 . S
H1207 C1203 0.950 . S
H1208 C1205 0.950 . S
C1209 C1200 1.390 . S
C1209 H1202 0.950 . S
C1209 C1206 1.387 . S
C1210 C1211 1.387 . S
C1210 H1214 0.950 . S
C1210 C1219 1.390 . S
C1211 C1210 1.387 . S
C1211 C1213 1.387 . S
H1212 C1219 0.950 . S
C1213 C1211 1.387 . S
C1213 C1215 1.390 . S
C1213 H1217 0.950 . S
H1214 C1210 0.950 . S
C1215 C1213 1.390 . S
C1215 C1216 1.387 . S
C1215 H1218 0.950 . S
C1216 C1215 1.387 . S
C1216 C1219 1.387 . S
H1217 C1213 0.950 . S
H1218 C1215 0.950 . S
C1219 C1210 1.390 . S
C1219 H1212 0.950 . S
C1219 C1216 1.387 . S
C1220 C1221 1.387 . S
C1220 H1224 0.950 . S
C1220 C1229 1.390 . S
C1221 C1220 1.387 . S
C1221 C1223 1.387 . S
H1222 C1229 0.950 . S
C1223 C1221 1.387 . S
C1223 C1225 1.390 . S
C1223 H1227 0.950 . S
H1224 C1220 0.950 . S
C1225 C1223 1.390 . S
C1225 C1226 1.387 . S
C1225 H1228 0.950 . S
C1226 C1225 1.387 . S
C1226 C1229 1.387 . S
H1227 C1223 0.950 . S
H1228 C1225 0.950 . S
C1229 C1220 1.390 . S
C1229 H1222 0.950 . S
C1229 C1226 1.387 . S
C1230 C1231 1.387 . S
C1230 H1234 0.950 . S
C1230 C1239 1.390 . S
C1231 C1230 1.387 . S
C1231 C1233 1.387 . S
H1232 C1239 0.950 . S
C1233 C1231 1.387 . S
C1233 C1235 1.390 . S
C1233 H1237 0.950 . S
H1234 C1230 0.950 . S
C1235 C1233 1.390 . S
C1235 C1236 1.387 . S
C1235 H1238 0.950 . S
C1236 C1235 1.387 . S
C1236 C1239 1.387 . S
H1237 C1233 0.950 . S
H1238 C1235 0.950 . S
C1239 C1230 1.390 . S
C1239 H1232 0.950 . S
C1239 C1236 1.387 . S
C1240 C1241 1.387 . S
C1240 H1244 0.950 . S
C1240 C1249 1.390 . S
C1241 C1240 1.387 . S
C1241 C1243 1.387 . S
H1242 C1249 0.950 . S
C1243 C1241 1.387 . S
C1243 C1245 1.390 . S
C1243 H1247 0.950 . S
H1244 C1240 0.950 . S
C1245 C1243 1.390 . S
C1245 C1246 1.387 . S
C1245 H1248 0.950 . S
C1246 C1245 1.387 . S
C1246 C1249 1.387 . S
H1247 C1243 0.950 . S
H1248 C1245 0.950 . S
C1249 C1240 1.390 . S
C1249 H1242 0.950 . S
C1249 C1246 1.387 . S
C1250 C1251 1.387 . S
C1250 H1254 0.950 . S
C1250 C1259 1.390 . S
C1251 C1250 1.387 . S
C1251 C1253 1.387 . S
H1252 C1259 0.950 . S
C1253 C1251 1.387 . S
C1253 C1255 1.390 . S
C1253 H1257 0.950 . S
H1254 C1250 0.950 . S
C1255 C1253 1.390 . S
C1255 C1256 1.387 . S
C1255 H1258 0.950 . S
C1256 C1255 1.387 . S
C1256 C1259 1.387 . S
H1257 C1253 0.950 . S
H1258 C1255 0.950 . S
C1259 C1250 1.390 . S
C1259 H1252 0.950 . S
C1259 C1256 1.387 . S
C1260 C1261 1.387 . S
C1260 H1264 0.950 . S
C1260 C1269 1.390 . S
C1261 C1260 1.387 . S
C1261 C1263 1.387 . S
H1262 C1269 0.950 . S
C1263 C1261 1.387 . S
C1263 C1265 1.390 . S
C1263 H1267 0.950 . S
H1264 C1260 0.950 . S
C1265 C1263 1.390 . S
C1265 C1266 1.387 . S
C1265 H1268 0.950 . S
C1266 C1265 1.387 . S
C1266 C1269 1.387 . S
H1267 C1263 0.950 . S
H1268 C1265 0.950 . S
C1269 C1260 1.390 . S
C1269 H1262 0.950 . S
C1269 C1266 1.387 . S
C1270 C1271 1.387 . S
C1270 H1274 0.950 . S
C1270 C1279 1.390 . S
C1271 C1270 1.387 . S
C1271 C1273 1.387 . S
H1272 C1279 0.950 . S
C1273 C1271 1.387 . S
C1273 C1275 1.390 . S
C1273 H1277 0.950 . S
H1274 C1270 0.950 . S
C1275 C1273 1.390 . S
C1275 C1276 1.387 . S
C1275 H1278 0.950 . S
C1276 C1275 1.387 . S
C1276 C1279 1.387 . S
H1277 C1273 0.950 . S
H1278 C1275 0.950 . S
C1279 C1270 1.390 . S
C1279 H1272 0.950 . S
C1279 C1276 1.387 . S
C1280 C1281 1.387 . S
C1280 H1284 0.950 . S
C1280 C1289 1.390 . S
C1281 C1280 1.387 . S
C1281 C1283 1.387 . S
H1282 C1289 0.950 . S
C1283 C1281 1.387 . S
C1283 C1285 1.390 . S
C1283 H1287 0.950 . S
H1284 C1280 0.950 . S
C1285 C1283 1.390 . S
C1285 C1286 1.387 . S
C1285 H1288 0.950 . S
C1286 C1285 1.387 . S
C1286 C1289 1.387 . S
H1287 C1283 0.950 . S
H1288 C1285 0.950 . S
C1289 C1280 1.390 . S
C1289 H1282 0.950 . S
C1289 C1286 1.387 . S
C1290 C1291 1.387 . S
C1290 H1294 0.950 . S
C1290 C1299 1.390 . S
C1291 C1290 1.387 . S
C1291 C1293 1.387 . S
H1292 C1299 0.950 . S
C1293 C1291 1.387 . S
C1293 C1295 1.390 . S
C1293 H1297 0.950 . S
H1294 C1290 0.950 . S
C1295 C1293 1.390 . S
C1295 C1296 1.387 . S
C1295 H1298 0.950 . S
C1296 C1295 1.387 . S
C1296 C1299 1.387 . S
H1297 C1293 0.950 . S
H1298 C1295 0.950 . S
C1299 C1290 1.390 . S
C1299 H1292 0.950 . S
C1299 C1296 1.387 . S
C1300 C1301 1.387 . S
C1300 H1304 0.950 . S
C1300 C1309 1.390 . S
C1301 C1300 1.387 . S
C1301 C1303 1.387 . S
H1302 C1309 0.950 . S
C1303 C1301 1.387 . S
C1303 C1305 1.390 . S
C1303 H1307 0.950 . S
H1304 C1300 0.950 . S
C1305 C1303 1.390 . S
C1305 C1306 1.387 . S
C1305 H1308 0.950 . S
C1306 C1305 1.387 . S
C1306 C1309 1.387 . S
H1307 C1303 0.950 . S
H1308 C1305 0.950 . S
C1309 C1300 1.390 . S
C1309 H1302 0.950 . S
C1309 C1306 1.387 . S
C1310 C1311 1.387 . S
C1310 H1314 0.950 . S
C1310 C1319 1.390 . S
C1311 C1310 1.387 . S
C1311 C1313 1.387 . S
H1312 C1319 0.950 . S
C1313 C1311 1.387 . S
C1313 C1315 1.390 . S
C1313 H1317 0.950 . S
H1314 C1310 0.950 . S
C1315 C1313 1.390 . S
C1315 C1316 1.387 . S
C1315 H1318 0.950 . S
C1316 C1315 1.387 . S
C1316 C1319 1.387 . S
H1317 C1313 0.950 . S
H1318 C1315 0.950 . S
C1319 C1310 1.390 . S
C1319 H1312 0.950 . S
C1319 C1316 1.387 . S
C1320 C1321 1.387 . S
C1320 H1324 0.950 . S
C1320 C1329 1.390 . S
C1321 C1320 1.387 . S
C1321 C1323 1.387 . S
H1322 C1329 0.950 . S
C1323 C1321 1.387 . S
C1323 C1325 1.390 . S
C1323 H1327 0.950 . S
H1324 C1320 0.950 . S
C1325 C1323 1.390 . S
C1325 C1326 1.387 . S
C1325 H1328 0.950 . S
C1326 C1325 1.387 . S
C1326 C1329 1.387 . S
H1327 C1323 0.950 . S
H1328 C1325 0.950 . S
C1329 C1320 1.390 . S
C1329 H1322 0.950 . S
C1329 C1326 1.387 . S
C1330 C1331 1.387 . S
C1330 H1334 0.950 . S
C1330 C1339 1.390 . S
C1331 C1330 1.387 . S
C1331 C1333 1.387 . S
H1332 C1339 0.950 . S
C1333 C1331 1.387 . S
C1333 C1335 1.390 . S
C1333 H1337 0.950 . S
H1334 C1330 0.950 . S
C1335 C1333 1.390 . S
C1335 C1336 1.387 . S
C1335 H1338 0.950 . S
C1336 C1335 1.387 . S
C1336 C1339 1.387 . S
H1337 C1333 0.950 . S
H1338 C1335 0.950 . S
C1339 C1330 1.390 . S
C1339 H1332 0.950 . S
C1339 C1336 1.387 . S
C1340 C1341 1.387 . S
C1340 H1344 0.950 . S
C1340 C1349 1.390 . S
C1341 C1340 1.387 . S
C1341 C1343 1.387 . S
H1342 C1349 0.950 . S
C1343 C1341 1.387 . S
C1343 C1345 1.390 . S
C1343 H1347 0.950 . S
H1344 C1340 0.950 . S
C1345 C1343 1.390 . S
C1345 C1346 1.387 . S
C1345 H1348 0.950 . S
C1346 C1345 1.387 . S
C1346 C1349 1.387 . S
H1347 C1343 0.950 . S
H1348 C1345 0.950 . S
C1349 C1340 1.390 . S
C1349 H1342 0.950 . S
C1349 C1346 1.387 . S
C1350 C1351 1.387 . S
C1350 H1354 0.950 . S
C1350 C1359 1.390 . S
C1351 C1350 1.387 . S
C1351 C1353 1.387 . S
H1352 C1359 0.950 . S
C1353 C1351 1.387 . S
C1353 C1355 1.390 . S
C1353 H1357 0.950 . S
H1354 C1350 0.950 . S
C1355 C1353 1.390 . S
C1355 C1356 1.387 . S
C1355 H1358 0.950 . S
C1356 C1355 1.387 . S
C1356 C1359 1.387 . S
H1357 C1353 0.950 . S
H1358 C1355 0.950 . S
C1359 C1350 1.390 . S
C1359 H1352 0.950 . S
C1359 C1356 1.387 . S
C1360 C1361 1.387 . S
C1360 H1364 0.950 . S
C1360 C1369 1.390 . S
C1361 C1360 1.387 . S
C1361 C1363 1.387 . S
H1362 C1369 0.950 . S
C1363 C1361 1.387 . S
C1363 C1365 1.390 . S
C1363 H1367 0.950 . S
H1364 C1360 0.950 . S
C1365 C1363 1.390 . S
C1365 C1366 1.387 . S
C1365 H1368 0.950 . S
C1366 C1365 1.387 . S
C1366 C1369 1.387 . S
H1367 C1363 0.950 . S
H1368 C1365 0.950 . S
C1369 C1360 1.390 . S
C1369 H1362 0.950 . S
C1369 C1366 1.387 . S
C1370 C1371 1.387 . S
C1370 H1374 0.950 . S
C1370 C1379 1.390 . S
C1371 C1370 1.387 . S
C1371 C1373 1.387 . S
H1372 C1379 0.950 . S
C1373 C1371 1.387 . S
C1373 C1375 1.390 . S
C1373 H1377 0.950 . S
H1374 C1370 0.950 . S
C1375 C1373 1.390 . S
C1375 C1376 1.387 . S
C1375 H1378 0.950 . S
C1376 C1375 1.387 . S
C1376 C1379 1.387 . S
H1377 C1373 0.950 . S
H1378 C1375 0.950 . S
C1379 C1370 1.390 . S
C1379 H1372 0.950 . S
C1379 C1376 1.387 . S
C1380 C1381 1.387 . S
C1380 H1384 0.950 . S
C1380 C1389 1.390 . S
C1381 C1380 1.387 . S
C1381 C1383 1.387 . S
H1382 C1389 0.950 . S
C1383 C1381 1.387 . S
C1383 C1385 1.390 . S
C1383 H1387 0.950 . S
H1384 C1380 0.950 . S
C1385 C1383 1.390 . S
C1385 C1386 1.387 . S
C1385 H1388 0.950 . S
C1386 C1385 1.387 . S
C1386 C1389 1.387 . S
H1387 C1383 0.950 . S
H1388 C1385 0.950 . S
C1389 C1380 1.390 . S
C1389 H1382 0.950 . S
C1389 C1386 1.387 . S
C1390 C1391 1.387 . S
C1390 H1394 0.950 . S
C1390 C1399 1.390 . S
C1391 C1390 1.387 . S
C1391 C1393 1.387 . S
H1392 C1399 0.950 . S
C1393 C1391 1.387 . S
C1393 C1395 1.390 . S
C1393 H1397 0.950 . S
H1394 C1390 0.950 . S
C1395 C1393 1.390 . S
C1395 C1396 1.387 . S
C1395 H1398 0.950 . S
C1396 C1395 1.387 . S
C1396 C1399 1.387 . S
H1397 C1393 0.950 . S
H1398 C1395 0.950 . S
C1399 C1390 1.390 . S
C1399 H1392 0.950 . S
C1399 C1396 1.387 . S
C1400 C1401 1.387 . S
C1400 H1404 0.950 . S
C1400 C1409 1.390 . S
C1401 C1400 1.387 . S
C1401 C1403 1.387 . S
H1402 C1409 0.950 . S
C1403 C1401 1.387 . S
C1403 C1405 1.390 . S
C1403 H1407 0.950 . S
H1404 C1400 0.950 . S
C1405 C1403 1.390 . S
C1405 C1406 1.387 . S
C1405 H1408 0.950 . S
C1406 C1405 1.387 . S
C1406 C1409 1.387 . S
H1407 C1403 0.950 . S
H1408 C1405 0.950 . S
C1409 C1400 1.390 . S
C1409 H1402 0.950 . S
C1409 C1406 1.387 . S
C1410 C1411 1.387 . S
C1410 H1414 0.950 . S
C1410 C1419 1.390 . S
C1411 C1410 1.387 . S
C1411 C1413 1.387 . S
H1412 C1419 0.950 . S
C1413 C1411 1.387 . S
C1413 C1415 1.390 . S
C1413 H1417 0.950 . S
H1414 C1410 0.950 . S
C1415 C1413 1.390 . S
C1415 C1416 1.387 . S
C1415 H1418 0.950 . S
C1416 C1415 1.387 . S
C1416 C1419 1.387 . S
H1417 C1413 0.950 . S
H1418 C1415 0.950 . S
C1419 C1410 1.390 . S
C1419 H1412 0.950 . S
C1419 C1416 1.387 . S
C1420 C1421 1.387 . S
C1420 H1424 0.950 . S
C1420 C1429 1.390 . S
C1421 C1420 1.387 . S
C1421 C1423 1.387 . S
H1422 C1429 0.950 . S
C1423 C1421 1.387 . S
C1423 C1425 1.390 . S
C1423 H1427 0.950 . S
H1424 C1420 0.950 . S
C1425 C1423 1.390 . S
C1425 C1426 1.387 . S
C1425 H1428 0.950 . S
C1426 C1425 1.387 . S
C1426 C1429 1.387 . S
H1427 C1423 0.950 . S
H1428 C1425 0.950 . S
C1429 C1420 1.390 . S
C1429 H1422 0.950 . S
C1429 C1426 1.387 . S
C1430 C1431 1.387 . S
C1430 H1434 0.950 . S
C1430 C1439 1.390 . S
C1431 C1430 1.387 . S
C1431 C1433 1.387 . S
H1432 C1439 0.950 . S
C1433 C1431 1.387 . S
C1433 C1435 1.390 . S
C1433 H1437 0.950 . S
H1434 C1430 0.950 . S
C1435 C1433 1.390 . S
C1435 C1436 1.387 . S
C1435 H1438 0.950 . S
C1436 C1435 1.387 . S
C1436 C1439 1.387 . S
H1437 C1433 0.950 . S
H1438 C1435 0.950 . S
C1439 C1430 1.390 . S
C1439 H1432 0.950 . S
C1439 C1436 1.387 . S
C1440 C1441 1.387 . S
C1440 H1444 0.950 . S
C1440 C1449 1.390 . S
C1441 C1440 1.387 . S
C1441 C1443 1.387 . S
H1442 C1449 0.950 . S
C1443 C1441 1.387 . S
C1443 C1445 1.390 . S
C1443 H1447 0.950 . S
H1444 C1440 0.950 . S
C1445 C1443 1.390 . S
C1445 C1446 1.387 . S
C1445 H1448 0.950 . S
C1446 C1445 1.387 . S
C1446 C1449 1.387 . S
H1447 C1443 0.950 . S
H1448 C1445 0.950 . S
C1449 C1440 1.390 . S
C1449 H1442 0.950 . S
C1449 C1446 1.387 . S
C1450 C1451 1.387 . S
C1450 H1454 0.950 . S
C1450 C1459 1.390 . S
C1451 C1450 1.387 . S
C1451 C1453 1.387 . S
H1452 C1459 0.950 . S
C1453 C1451 1.387 . S
C1453 C1455 1.390 . S
C1453 H1457 0.950 . S
H1454 C1450 0.950 . S
C1455 C1453 1.390 . S
C1455 C1456 1.387 . S
C1455 H1458 0.950 . S
C1456 C1455 1.387 . S
C1456 C1459 1.387 . S
H1457 C1453 0.950 . S
H1458 C1455 0.950 . S
C1459 C1450 1.390 . S
C1459 H1452 0.950 . S
C1459 C1456 1.387 . S
C1460 C1461 1.387 . S
C1460 H1464 0.950 . S
C1460 C1469 1.390 . S
C1461 C1460 1.387 . S
C1461 C1463 1.387 . S
H1462 C1469 0.950 . S
C1463 C1461 1.387 . S
C1463 C1465 1.390 . S
C1463 H1467 0.950 . S
H1464 C1460 0.950 . S
C1465 C1463 1.390 . S
C1465 C1466 1.387 . S
C1465 H1468 0.950 . S
C1466 C1465 1.387 . S
C1466 C1469 1.387 . S
H1467 C1463 0.950 . S
H1468 C1465 0.950 . S
C1469 C1460 1.390 . S
C1469 H1462 0.950 . S
C1469 C1466 1.387 . S
C1470 C1471 1.387 . S
C1470 H1474 0.950 . S
C1470 C1479 1.390 . S
C1471 C1470 1.387 . S
C1471 C1473 1.387 . S
H1472 C1479 0.950 . S
C1473 C1471 1.387 . S
C1473 C1475 1.390 . S
C1473 H1477 0.950 . S
H1474 C1470 0.950 . S
C1475 C1473 1.390 . S
C1475 C1476 1.387 . S
C1475 H1478 0.950 . S
C1476 C1475 1.387 . S
C1476 C1479 1.387 . S
H1477 C1473 0.950 . S
H1478 C1475 0.950 . S
C1479 C1470 1.390 . S
C1479 H1472 0.950 . S
C1479 C1476 1.387 . S
C1480 C1481 1.387 . S
C1480 H1484 0.950 . S
C1480 C1489 1.390 . S
C1481 C1480 1.387 . S
C1481 C1483 1.387 . S
H1482 C1489 0.950 . S
C1483 C1481 1.387 . S
C1483 C1485 1.390 . S
C1483 H1487 0.950 . S
H1484 C1480 0.950 . S
C1485 C1483 1.390 . S
C1485 C1486 1.387 . S
C1485 H1488 0.950 . S
C1486 C1485 1.387 . S
C1486 C1489 1.387 . S
H1487 C1483 0.950 . S
H1488 C1485 0.950 . S
C1489 C1480 1.390 . S
C1489 H1482 0.950 . S
C1489 C1486 1.387 . S
C1490 C1491 1.387 . S
C1490 H1494 0.950 . S
C1490 C1499 1.390 . S
C1491 C1490 1.387 . S
C1491 C1493 1.387 . S
H1492 C1499 0.950 . S
C1493 C1491 1.387 . S
C1493 C1495 1.390 . S
C1493 H1497 0.950 . S
H1494 C1490 0.950 . S
C1495 C1493 1.390 . S
C1495 C1496 1.387 . S
C1495 H1498 0.950 . S
C1496 C1495 1.387 . S
C1496 C1499 1.387 . S
H1497 C1493 0.950 . S
H1498 C1495 0.950 . S
C1499 C1490 1.390 . S
C1499 H1492 0.950 . S
C1499 C1496 1.387 . S
C1500 C1501 1.387 . S
C1500 H1504 0.950 1_556 S
C1500 C1509 1.390 . S
C1501 C1500 1.387 . S
C1501 C1503 1.387 . S
H1502 C1509 0.950 . S
C1503 C1501 1.387 . S
C1503 C1505 1.390 . S
C1503 H1507 0.950 . S
H1504 C1500 0.950 1_554 S
C1505 C1503 1.390 . S
C1505 C1506 1.387 . S
C1505 H1508 0.950 . S
C1506 C1505 1.387 . S
C1506 C1509 1.387 . S
H1507 C1503 0.950 . S
H1508 C1505 0.950 . S
C1509 C1500 1.390 . S
C1509 H1502 0.950 . S
C1509 C1506 1.387 . S
C1510 C1511 1.387 . S
C1510 H1514 0.950 . S
C1510 C1519 1.390 . S
C1511 C1510 1.387 . S
C1511 C1513 1.387 . S
H1512 C1519 0.950 . S
C1513 C1511 1.387 . S
C1513 C1515 1.390 . S
C1513 H1517 0.950 . S
H1514 C1510 0.950 . S
C1515 C1513 1.390 . S
C1515 C1516 1.387 . S
C1515 H1518 0.950 . S
C1516 C1515 1.387 . S
C1516 C1519 1.387 . S
H1517 C1513 0.950 . S
H1518 C1515 0.950 . S
C1519 C1510 1.390 . S
C1519 H1512 0.950 . S
C1519 C1516 1.387 . S
C1520 C1521 1.387 . S
C1520 H1524 0.950 . S
C1520 C1529 1.390 . S
C1521 C1520 1.387 . S
C1521 C1523 1.387 . S
H1522 C1529 0.950 . S
C1523 C1521 1.387 . S
C1523 C1525 1.390 . S
C1523 H1527 0.950 . S
H1524 C1520 0.950 . S
C1525 C1523 1.390 . S
C1525 C1526 1.387 . S
C1525 H1528 0.950 . S
C1526 C1525 1.387 . S
C1526 C1529 1.387 . S
H1527 C1523 0.950 . S
H1528 C1525 0.950 . S
C1529 C1520 1.390 . S
C1529 H1522 0.950 . S
C1529 C1526 1.387 . S
C1530 C1531 1.387 . S
C1530 H1534 0.950 . S
C1530 C1539 1.390 . S
C1531 C1530 1.387 . S
C1531 C1533 1.387 . S
H1532 C1539 0.950 . S
C1533 C1531 1.387 . S
C1533 C1535 1.390 . S
C1533 H1537 0.950 . S
H1534 C1530 0.950 . S
C1535 C1533 1.390 . S
C1535 C1536 1.387 . S
C1535 H1538 0.950 . S
C1536 C1535 1.387 . S
C1536 C1539 1.387 . S
H1537 C1533 0.950 . S
H1538 C1535 0.950 . S
C1539 C1530 1.390 . S
C1539 H1532 0.950 . S
C1539 C1536 1.387 . S
C1540 C1541 1.387 . S
C1540 H1544 0.950 . S
C1540 C1549 1.390 . S
C1541 C1540 1.387 . S
C1541 C1543 1.387 . S
H1542 C1549 0.950 . S
C1543 C1541 1.387 . S
C1543 C1545 1.390 . S
C1543 H1547 0.950 . S
H1544 C1540 0.950 . S
C1545 C1543 1.390 . S
C1545 C1546 1.387 . S
C1545 H1548 0.950 . S
C1546 C1545 1.387 . S
C1546 C1549 1.387 . S
H1547 C1543 0.950 . S
H1548 C1545 0.950 . S
C1549 C1540 1.390 . S
C1549 H1542 0.950 . S
C1549 C1546 1.387 . S
C1550 C1551 1.387 . S
C1550 H1554 0.950 . S
C1550 C1559 1.390 . S
C1551 C1550 1.387 . S
C1551 C1553 1.387 . S
H1552 C1559 0.950 . S
C1553 C1551 1.387 . S
C1553 C1555 1.390 . S
C1553 H1557 0.950 . S
H1554 C1550 0.950 . S
C1555 C1553 1.390 . S
C1555 C1556 1.387 . S
C1555 H1558 0.950 . S
C1556 C1555 1.387 . S
C1556 C1559 1.387 . S
H1557 C1553 0.950 . S
H1558 C1555 0.950 . S
C1559 C1550 1.390 . S
C1559 H1552 0.950 . S
C1559 C1556 1.387 . S
C1560 C1561 1.387 . S
C1560 H1564 0.950 . S
C1560 C1569 1.390 . S
C1561 C1560 1.387 . S
C1561 C1563 1.387 . S
H1562 C1569 0.950 . S
C1563 C1561 1.387 . S
C1563 C1565 1.390 . S
C1563 H1567 0.950 . S
H1564 C1560 0.950 . S
C1565 C1563 1.390 . S
C1565 C1566 1.387 . S
C1565 H1568 0.950 . S
C1566 C1565 1.387 . S
C1566 C1569 1.387 . S
H1567 C1563 0.950 . S
H1568 C1565 0.950 . S
C1569 C1560 1.390 . S
C1569 H1562 0.950 . S
C1569 C1566 1.387 . S
C1570 C1571 1.387 . S
C1570 H1574 0.950 . S
C1570 C1579 1.390 . S
C1571 C1570 1.387 . S
C1571 C1573 1.387 . S
H1572 C1579 0.950 . S
C1573 C1571 1.387 . S
C1573 C1575 1.390 . S
C1573 H1577 0.950 . S
H1574 C1570 0.950 . S
C1575 C1573 1.390 . S
C1575 C1576 1.387 . S
C1575 H1578 0.950 . S
C1576 C1575 1.387 . S
C1576 C1579 1.387 . S
H1577 C1573 0.950 . S
H1578 C1575 0.950 . S
C1579 C1570 1.390 . S
C1579 H1572 0.950 . S
C1579 C1576 1.387 . S
C1580 C1581 1.387 . S
C1580 H1584 0.950 . S
C1580 C1589 1.390 . S
C1581 C1580 1.387 . S
C1581 C1583 1.387 . S
H1582 C1589 0.950 . S
C1583 C1581 1.387 . S
C1583 C1585 1.390 . S
C1583 H1587 0.950 . S
H1584 C1580 0.950 . S
C1585 C1583 1.390 . S
C1585 C1586 1.387 . S
C1585 H1588 0.950 . S
C1586 C1585 1.387 . S
C1586 C1589 1.387 . S
H1587 C1583 0.950 . S
H1588 C1585 0.950 . S
C1589 C1580 1.390 . S
C1589 H1582 0.950 . S
C1589 C1586 1.387 . S
C1590 C1591 1.387 . S
C1590 H1594 0.952 . S
C1590 C1599 1.390 . S
C1591 C1590 1.387 . S
C1591 C1593 1.387 . S
H1592 C1599 0.950 1_655 S
C1593 C1591 1.387 . S
C1593 C1595 1.390 . S
C1593 H1597 0.950 . S
H1594 C1590 0.952 . S
C1595 C1593 1.390 . S
C1595 C1596 1.387 . S
C1595 H1598 0.950 . S
C1596 C1595 1.387 . S
C1596 C1599 1.387 . S
H1597 C1593 0.950 . S
H1598 C1595 0.950 . S
C1599 C1590 1.390 . S
C1599 H1592 0.950 1_455 S
C1599 C1596 1.387 . S
C1600 C1601 1.387 . S
C1600 H1604 0.950 . S
C1600 C1609 1.390 . S
C1601 C1600 1.387 . S
C1601 C1603 1.387 . S
H1602 C1609 0.950 . S
C1603 C1601 1.387 . S
C1603 C1605 1.390 . S
C1603 H1607 0.950 . S
H1604 C1600 0.950 . S
C1605 C1603 1.390 . S
C1605 C1606 1.387 . S
C1605 H1608 0.950 . S
C1606 C1605 1.387 . S
C1606 C1609 1.387 . S
H1607 C1603 0.950 . S
H1608 C1605 0.950 . S
C1609 C1600 1.390 . S
C1609 H1602 0.950 . S
C1609 C1606 1.387 . S
C1610 C1611 1.387 1_545 S
C1610 H1614 0.950 . S
C1610 C1619 1.390 . S
C1611 C1610 1.387 1_565 S
C1611 C1613 1.387 . S
H1612 C1619 0.950 . S
C1613 C1611 1.387 . S
C1613 C1615 1.390 . S
C1613 H1617 0.950 . S
H1614 C1610 0.950 . S
C1615 C1613 1.390 . S
C1615 C1616 1.387 . S
C1615 H1618 0.950 . S
C1616 C1615 1.387 . S
C1616 C1619 1.387 1_565 S
H1617 C1613 0.950 . S
H1618 C1615 0.950 . S
C1619 C1610 1.390 . S
C1619 H1612 0.950 . S
C1619 C1616 1.387 1_545 S
C1620 C1621 1.387 1_545 S
C1620 H1624 0.950 . S
C1620 C1629 1.390 . S
C1621 C1620 1.387 1_565 S
C1621 C1623 1.387 . S
H1622 C1629 0.950 . S
C1623 C1621 1.387 . S
C1623 C1625 1.390 . S
C1623 H1627 0.950 . S
H1624 C1620 0.950 . S
C1625 C1623 1.390 . S
C1625 C1626 1.387 . S
C1625 H1628 0.950 . S
C1626 C1625 1.387 . S
C1626 C1629 1.387 1_565 S
H1627 C1623 0.950 . S
H1628 C1625 0.950 . S
C1629 C1620 1.390 . S
C1629 H1622 0.950 . S
C1629 C1626 1.387 1_545 S
C1630 C1631 1.387 . S
C1630 H1634 0.950 . S
C1630 C1639 1.390 . S
C1631 C1630 1.387 . S
C1631 C1633 1.376 . S
H1632 C1639 0.950 . S
C1633 C1631 1.376 . S
C1633 C1635 1.408 . S
C1633 H1637 0.945 1_455 S
H1634 C1630 0.950 . S
C1635 C1633 1.408 . S
C1635 C1636 1.388 . S
C1635 H1638 0.950 1_455 S
C1636 C1635 1.388 . S
C1636 C1639 1.387 . S
H1637 C1633 0.945 1_655 S
H1638 C1635 0.950 1_655 S
C1639 C1630 1.390 . S
C1639 H1632 0.950 . S
C1639 C1636 1.387 . S
C1640 C1641 1.387 . S
C1640 H1644 0.950 . S
C1640 C1649 1.390 . S
C1641 C1640 1.387 . S
C1641 C1643 1.387 . S
H1642 C1649 0.950 . S
C1643 C1641 1.387 . S
C1643 C1645 1.390 . S
C1643 H1647 0.950 . S
H1644 C1640 0.950 . S
C1645 C1643 1.390 . S
C1645 C1646 1.387 . S
C1645 H1648 0.950 . S
C1646 C1645 1.387 . S
C1646 C1649 1.387 . S
H1647 C1643 0.950 . S
H1648 C1645 0.950 . S
C1649 C1640 1.390 . S
C1649 H1642 0.950 . S
C1649 C1646 1.387 . S
C1650 C1651 1.387 . S
C1650 H1654 0.950 . S
C1650 C1659 1.390 . S
C1651 C1650 1.387 . S
C1651 C1653 1.387 . S
H1652 C1659 0.950 . S
C1653 C1651 1.387 . S
C1653 C1655 1.390 . S
C1653 H1657 0.950 . S
H1654 C1650 0.950 . S
C1655 C1653 1.390 . S
C1655 C1656 1.387 . S
C1655 H1658 0.950 . S
C1656 C1655 1.387 . S
C1656 C1659 1.387 . S
H1657 C1653 0.950 . S
H1658 C1655 0.950 . S
C1659 C1650 1.390 . S
C1659 H1652 0.950 . S
C1659 C1656 1.387 . S
C1660 C1661 1.387 . S
C1660 H1664 0.950 . S
C1660 C1669 1.390 . S
C1661 C1660 1.387 . S
C1661 C1663 1.387 . S
H1662 C1669 0.950 . S
C1663 C1661 1.387 . S
C1663 C1665 1.390 . S
C1663 H1667 0.950 . S
H1664 C1660 0.950 . S
C1665 C1663 1.390 . S
C1665 C1666 1.387 . S
C1665 H1668 0.950 . S
C1666 C1665 1.387 . S
C1666 C1669 1.387 . S
H1667 C1663 0.950 . S
H1668 C1665 0.950 . S
C1669 C1660 1.390 . S
C1669 H1662 0.950 . S
C1669 C1666 1.387 . S
C1670 C1671 1.387 . S
C1670 H1674 0.950 . S
C1670 C1679 1.390 . S
C1671 C1670 1.387 . S
C1671 C1673 1.387 . S
H1672 C1679 0.950 . S
C1673 C1671 1.387 . S
C1673 C1675 1.390 . S
C1673 H1677 0.950 . S
H1674 C1670 0.950 . S
C1675 C1673 1.390 . S
C1675 C1676 1.387 . S
C1675 H1678 0.950 . S
C1676 C1675 1.387 . S
C1676 C1679 1.387 . S
H1677 C1673 0.950 . S
H1678 C1675 0.950 . S
C1679 C1670 1.390 . S
C1679 H1672 0.950 . S
C1679 C1676 1.387 . S
C1680 C1681 1.387 1_565 S
C1680 H1684 0.950 . S
C1680 C1689 1.390 . S
C1681 C1680 1.387 1_545 S
C1681 C1683 1.387 . S
H1682 C1689 0.950 . S
C1683 C1681 1.387 . S
C1683 C1685 1.390 . S
C1683 H1687 0.950 . S
H1684 C1680 0.950 . S
C1685 C1683 1.390 . S
C1685 C1686 1.387 . S
C1685 H1688 0.950 . S
C1686 C1685 1.387 . S
C1686 C1689 1.387 1_545 S
H1687 C1683 0.950 . S
H1688 C1685 0.950 . S
C1689 C1680 1.390 . S
C1689 H1682 0.950 . S
C1689 C1686 1.387 1_565 S
C1690 C1691 1.387 . S
C1690 H1694 0.950 . S
C1690 C1699 1.390 . S
C1691 C1690 1.387 . S
C1691 C1693 1.387 1_655 S
H1692 C1699 0.950 . S
C1693 C1691 1.387 1_455 S
C1693 C1695 1.390 . S
C1693 H1697 0.950 . S
H1694 C1690 0.950 . S
C1695 C1693 1.390 . S
C1695 C1696 1.387 1_455 S
C1695 H1698 0.950 . S
C1696 C1695 1.387 1_655 S
C1696 C1699 1.387 . S
H1697 C1693 0.950 . S
H1698 C1695 0.950 . S
C1699 C1690 1.390 . S
C1699 H1692 0.950 . S
C1699 C1696 1.387 . S
C1700 C1701 1.387 . S
C1700 H1704 0.950 . S
C1700 C1709 1.390 . S
C1701 C1700 1.387 . S
C1701 C1703 1.387 . S
H1702 C1709 0.950 . S
C1703 C1701 1.387 . S
C1703 C1705 1.390 . S
C1703 H1707 0.950 . S
H1704 C1700 0.950 . S
C1705 C1703 1.390 . S
C1705 C1706 1.387 . S
C1705 H1708 0.950 . S
C1706 C1705 1.387 . S
C1706 C1709 1.387 . S
H1707 C1703 0.950 . S
H1708 C1705 0.950 . S
C1709 C1700 1.390 . S
C1709 H1702 0.950 . S
C1709 C1706 1.387 . S
C1710 C1711 1.387 . S
C1710 H1714 0.950 . S
C1710 C1719 1.390 . S
C1711 C1710 1.387 . S
C1711 C1713 1.387 . S
H1712 C1719 0.950 . S
C1713 C1711 1.387 . S
C1713 C1715 1.390 . S
C1713 H1717 0.950 . S
H1714 C1710 0.950 . S
C1715 C1713 1.390 . S
C1715 C1716 1.387 . S
C1715 H1718 0.950 . S
C1716 C1715 1.387 . S
C1716 C1719 1.387 . S
H1717 C1713 0.950 . S
H1718 C1715 0.950 . S
C1719 C1710 1.390 . S
C1719 H1712 0.950 . S
C1719 C1716 1.387 . S
C1720 C1721 1.387 . S
C1720 H1724 0.950 . S
C1720 C1729 1.390 . S
C1721 C1720 1.387 . S
C1721 C1723 1.387 . S
H1722 C1729 0.950 . S
C1723 C1721 1.387 . S
C1723 C1725 1.390 . S
C1723 H1727 0.950 . S
H1724 C1720 0.950 . S
C1725 C1723 1.390 . S
C1725 C1726 1.387 . S
C1725 H1728 0.950 . S
C1726 C1725 1.387 . S
C1726 C1729 1.387 . S
H1727 C1723 0.950 . S
H1728 C1725 0.950 . S
C1729 C1720 1.390 . S
C1729 H1722 0.950 . S
C1729 C1726 1.387 . S
C1730 C1731 1.387 . S
C1730 H1734 0.950 . S
C1730 C1739 1.390 . S
C1731 C1730 1.387 . S
C1731 C1733 1.387 . S
H1732 C1739 0.950 . S
C1733 C1731 1.387 . S
C1733 C1735 1.390 . S
C1733 H1737 0.950 . S
H1734 C1730 0.950 . S
C1735 C1733 1.390 . S
C1735 C1736 1.387 . S
C1735 H1738 0.950 . S
C1736 C1735 1.387 . S
C1736 C1739 1.387 . S
H1737 C1733 0.950 . S
H1738 C1735 0.950 . S
C1739 C1730 1.390 . S
C1739 H1732 0.950 . S
C1739 C1736 1.387 . S
C1740 C1741 1.387 . S
C1740 H1744 0.950 . S
C1740 C1749 1.390 . S
C1741 C1740 1.387 . S
C1741 C1743 1.387 . S
H1742 C1749 0.950 . S
C1743 C1741 1.387 . S
C1743 C1745 1.390 . S
C1743 H1747 0.950 . S
H1744 C1740 0.950 . S
C1745 C1743 1.390 . S
C1745 C1746 1.387 . S
C1745 H1748 0.950 . S
C1746 C1745 1.387 . S
C1746 C1749 1.387 . S
H1747 C1743 0.950 . S
H1748 C1745 0.950 . S
C1749 C1740 1.390 . S
C1749 H1742 0.950 . S
C1749 C1746 1.387 . S
C1750 C1751 1.387 . S
C1750 H1754 0.950 . S
C1750 C1759 1.390 . S
C1751 C1750 1.387 . S
C1751 C1753 1.387 . S
H1752 C1759 0.950 . S
C1753 C1751 1.387 . S
C1753 C1755 1.390 . S
C1753 H1757 0.950 . S
H1754 C1750 0.950 . S
C1755 C1753 1.390 . S
C1755 C1756 1.387 . S
C1755 H1758 0.950 . S
C1756 C1755 1.387 . S
C1756 C1759 1.387 . S
H1757 C1753 0.950 . S
H1758 C1755 0.950 . S
C1759 C1750 1.390 . S
C1759 H1752 0.950 . S
C1759 C1756 1.387 . S
C1760 C1761 1.387 . S
C1760 H1764 0.950 . S
C1760 C1769 1.390 . S
C1761 C1760 1.387 . S
C1761 C1763 1.387 . S
H1762 C1769 0.950 . S
C1763 C1761 1.387 . S
C1763 C1765 1.390 . S
C1763 H1767 0.950 . S
H1764 C1760 0.950 . S
C1765 C1763 1.390 . S
C1765 C1766 1.387 . S
C1765 H1768 0.950 . S
C1766 C1765 1.387 . S
C1766 C1769 1.387 . S
H1767 C1763 0.950 . S
H1768 C1765 0.950 . S
C1769 C1760 1.390 . S
C1769 H1762 0.950 . S
C1769 C1766 1.387 . S
C1770 C1771 1.387 1_455 S
C1770 H1774 0.950 . S
C1770 C1779 1.390 . S
C1771 C1770 1.387 1_655 S
C1771 C1773 1.387 . S
H1772 C1779 0.950 . S
C1773 C1771 1.387 . S
C1773 C1775 1.390 . S
C1773 H1777 0.950 . S
H1774 C1770 0.950 . S
C1775 C1773 1.390 . S
C1775 C1776 1.387 . S
C1775 H1778 0.950 . S
C1776 C1775 1.387 . S
C1776 C1779 1.387 1_655 S
H1777 C1773 0.950 . S
H1778 C1775 0.950 . S
C1779 C1770 1.390 . S
C1779 H1772 0.950 . S
C1779 C1776 1.387 1_455 S
C1780 C1781 1.387 . S
C1780 H1784 0.950 . S
C1780 C1789 1.390 . S
C1781 C1780 1.387 . S
C1781 C1783 1.387 . S
H1782 C1789 0.950 . S
C1783 C1781 1.387 . S
C1783 C1785 1.390 . S
C1783 H1787 0.950 . S
H1784 C1780 0.950 . S
C1785 C1783 1.390 . S
C1785 C1786 1.387 . S
C1785 H1788 0.950 . S
C1786 C1785 1.387 . S
C1786 C1789 1.387 . S
H1787 C1783 0.950 . S
H1788 C1785 0.950 . S
C1789 C1780 1.390 . S
C1789 H1782 0.950 . S
C1789 C1786 1.387 . S
C1790 C1791 1.387 1_565 S
C1790 H1794 0.950 . S
C1790 C1799 1.390 . S
C1791 C1790 1.387 1_545 S
C1791 C1793 1.387 . S
H1792 C1799 0.950 . S
C1793 C1791 1.387 . S
C1793 C1795 1.390 . S
C1793 H1797 0.950 . S
H1794 C1790 0.950 . S
C1795 C1793 1.390 . S
C1795 C1796 1.387 . S
C1795 H1798 0.950 . S
C1796 C1795 1.387 . S
C1796 C1799 1.387 1_545 S
H1797 C1793 0.950 . S
H1798 C1795 0.950 . S
C1799 C1790 1.390 . S
C1799 H1792 0.950 . S
C1799 C1796 1.387 1_565 S
C1081 C7 1.456 . S
C1086 C688 1.478 . S
C1091 C23 1.631 . S
C1096 C734 1.595 . S
C1106 C766 1.490 . S
C1101 C37 1.450 . S
C1111 C35 1.456 . S
C1116 C819 1.478 . S
C1121 C9 1.459 . S
C1126 C865 1.497 . S
C1131 C21 1.593 . S
C1136 C904 1.623 . S
C1141 C49 1.455 . S
C1146 C858 1.474 . S
C1156 C911 1.609 . S
C1151 C65 1.631 . S
C1166 C812 1.500 . S
C1161 C79 1.454 . S
C1171 C77 1.446 . S
C1176 C773 1.466 . S
C1186 C667 1.499 . S
C1181 C51 1.457 . S
C1191 C63 1.593 . S
C1196 C713 1.607 . S
C1201 C91 1.658 . S
C1206 C943 1.687 . S
C1211 C107 1.704 . S
C1216 C1010 1.652 . S
C1226 C1056 1.649 . S
C1221 C121 1.705 . S
C1231 C119 1.623 . S
C1236 C267 1.629 . S
C1241 C93 1.703 . S
C1246 C313 1.653 . S
C1251 C105 1.647 . S
C1256 C359 1.647 . S
C1261 C133 1.581 . S
C1266 C306 1.590 . S
C1271 C149 1.681 . S
C1276 C352 1.632 . S
C1286 C260 1.650 . S
C1281 C163 1.698 . S
C1296 C1035 1.708 . S
C1291 C161 1.698 . S
C1306 C964 1.663 . S
C1301 C135 1.702 . S
C1316 C989 1.677 . S
C1311 C147 1.664 . S
C1321 C175 1.582 . S
C1326 C391 1.608 . S
C1331 C191 1.676 . S
C1336 C444 1.645 . S
C1341 C205 1.695 . S
C1346 C490 1.665 . S
C1351 C203 1.696 . S
C1356 C536 1.723 . S
C1366 C589 1.653 . S
C1361 C177 1.709 . S
C1376 C635 1.679 . S
C1371 C189 1.665 . S
C1386 C582 1.676 . S
C1381 C217 1.661 . S
C1396 C628 1.658 . S
C1391 C233 1.710 . S
C1401 C247 1.703 . S
C1406 C543 1.667 . S
C1416 C497 1.646 . S
C1411 C245 1.620 . S
C1421 C219 1.699 . S
C1426 C412 1.667 . S
C1436 C451 1.666 . S
C1431 C231 1.648 . S
C1446 C274 1.637 . S
C1441 C8 1.659 . S
C1451 C17 1.579 . S
C1456 C320 1.558 . S
C1466 C366 1.650 . S
C1461 C31 1.657 . S
C1476 C398 1.630 . S
C1471 C36 1.670 . S
C1486 C437 1.611 . S
C1481 C3 1.642 . S
C1496 C483 1.547 . S
C1491 C22 1.596 . S
C1501 C50 1.662 . S
C1506 C504 1.627 . S
C1511 C59 1.572 . S
C1516 C405 1.535 . S
C1521 C73 1.642 . S
C1526 C458 1.619 . S
C1531 C78 1.683 . S
C1536 C299 1.666 . S
C1546 C345 1.632 . S
C1541 C45 1.643 . S
C1551 C64 1.596 . S
C1556 C253 1.566 . S
C1566 C529 1.583 . S
C1561 C92 1.624 . S
C1571 C101 1.683 . S
C1576 C596 1.658 . S
C1581 C115 1.691 . S
C1586 C642 1.668 . S
C1596 C681 1.452 . S
C1591 C120 1.450 . S
C1601 C87 1.614 . S
C1606 C727 1.595 . S
C1611 C106 1.417 . S
C1616 C759 1.421 . S
C1621 C134 1.435 . S
C1626 C780 1.434 . S
C1631 C143 1.439 . S
C1636 C674 1.435 . S
C1646 C720 1.608 . S
C1641 C157 1.622 . S
C1651 C162 1.638 . S
C1656 C575 1.613 . S
C1661 C129 1.688 . S
C1666 C621 1.660 . S
C1676 C550 1.639 . S
C1671 C148 1.688 . S
C1686 C826 1.441 . S
C1681 C176 1.437 . S
C1691 C185 1.438 . S
C1696 C872 1.433 . S
C1701 C199 1.620 . S
C1706 C897 1.591 . S
C1716 C950 1.583 . S
C1711 C204 1.626 . S
C1726 C1003 1.659 . S
C1721 C171 1.687 . S
C1731 C190 1.689 . S
C1736 C1049 1.658 . S
C1741 C218 1.628 . S
C1746 C1042 1.603 . S
C1751 C227 1.679 . S
C1756 C957 1.638 . S
C1766 C996 1.656 . S
C1761 C241 1.680 . S
C1776 C851 1.446 . S
C1771 C246 1.443 . S
C1786 C918 1.583 . S
C1781 C213 1.618 . S
C1791 C232 1.422 . S
C1796 C805 1.423 . S
