# Generated by pormake.
# Topology tsx, (6,3)-cn, num edge types: 1
# Building blocks:
#     Node 0, Type 0, BuildingBlock: MIDCAF_clean_sbu_0, # of connection points: 6
#     Node 1, Type 0, BuildingBlock: MIDCAF_clean_sbu_0, # of connection points: 6
#     Node 2, Type 1, BuildingBlock: VETTIZ_charged_linker_0, # of connection points: 3
#     Node 3, Type 1, BuildingBlock: VETTIZ_charged_linker_0, # of connection points: 3
#     Node 4, Type 1, BuildingBlock: VETTIZ_charged_linker_0, # of connection points: 3
#     Node 5, Type 1, BuildingBlock: VETTIZ_charged_linker_0, # of connection points: 3
#     Edge 6, Type (0, 1), None
#     Edge 7, Type (0, 1), None
#     Edge 8, Type (0, 1), None
#     Edge 9, Type (0, 1), None
#     Edge 10, Type (0, 1), None
#     Edge 11, Type (0, 1), None
#     Edge 12, Type (0, 1), None
#     Edge 13, Type (0, 1), None
#     Edge 14, Type (0, 1), None
#     Edge 15, Type (0, 1), None
#     Edge 16, Type (0, 1), None
#     Edge 17, Type (0, 1), None
# Relax obj value: 0.121
# Max RMSD: 0.183
# Mean RMSD: 0.116
data_MOF--net-tsx--node1-MIDCAF_clean_sbu_0--node2-VETTIZ_charged_linker_0--edge1-none
_symmetry_space_group_name_H-M    P1
_symmetry_Int_Tables_number       1
_symmetry_cell_setting            triclinic
loop_
_symmetry_equiv_pos_as_xyz
'x, y, z'
_cell_length_a     12.062175
_cell_length_b     12.805024
_cell_length_c     27.634508
_cell_angle_alpha  90.298666
_cell_angle_beta   91.053127
_cell_angle_gamma 92.267179
loop_
_atom_site_label
_atom_site_type_symbol
_atom_site_fract_x
_atom_site_fract_y
_atom_site_fract_z
_atom_type_partial_charge
Zn0 Zn 0.86431 1.0078 0.91897 0.0
Zn1 Zn 0.23751 0.06526 -0.01601 0.0
Zn2 Zn 0.06275 0.02657 0.95291 0.0
C3 C 0.19709 0.25126 -0.03512 0.0
C4 C 0.29263 0.91851 0.92543 0.0
O5 O 0.94974 0.92909 0.00245 0.0
O6 O 0.78354 0.92757 -0.03242 0.0
C7 C 0.91299 0.21774 0.92002 0.0
O8 O 0.10411 0.19809 -0.03347 0.0
O9 O 0.2844 0.20334 -0.04223 0.0
O10 O 0.32787 0.9551 -0.03471 0.0
O11 O 0.19421 0.94074 0.91045 0.0
O12 O 0.82975 0.15699 0.91219 0.0
O13 O 1.00549 0.18143 0.93429 0.0
O14 O 0.09231 0.94834 0.88496 0.0
O15 O 0.91667 0.93328 0.86047 0.0
C16 C 1.01828 0.9193 0.85313 0.0
O17 O 0.04627 0.96791 0.02544 0.0
O18 O 0.19541 0.05675 0.05233 0.0
C19 C 0.84551 0.90056 0.00211 0.0
C20 C 0.10966 1.00054 0.06056 0.0
Zn21 Zn 0.73733 0.56542 0.48399 0.0
Zn22 Zn 0.36415 0.50764 0.41891 0.0
Zn23 Zn 0.56255 0.52657 0.45295 0.0
C24 C 0.51829 0.4193 0.35313 0.0
C25 C 0.41268 0.71761 0.42002 0.0
O26 O 0.54611 0.46781 0.52545 0.0
O27 O 0.69523 0.55668 0.55234 0.0
C28 C 0.79259 0.41873 0.42543 0.0
O29 O 0.59224 0.44841 0.38499 0.0
O30 O 0.41665 0.43316 0.36043 0.0
O31 O 0.32952 0.6568 0.41213 0.0
O32 O 0.50518 0.68137 0.43434 0.0
O33 O 0.82789 0.45547 0.46526 0.0
O34 O 0.69409 0.44081 0.41049 0.0
O35 O 0.60375 0.69814 0.46659 0.0
O36 O 0.78405 0.7036 0.45785 0.0
C37 C 0.69667 0.75141 0.46495 0.0
O38 O 0.44955 0.42902 0.50246 0.0
O39 O 0.2834 0.42737 0.46753 0.0
C40 C 0.60952 0.50041 0.56056 0.0
C41 C 0.34534 0.40043 0.50209 0.0
C42 C 0.33097 0.89251 0.42106 0.0
C43 C 0.40785 0.82433 0.40207 0.0
C44 C 0.4568 0.84647 0.35728 0.0
C45 C 0.32626 0.98111 0.34429 0.0
C46 C 0.29421 0.97388 0.39185 0.0
C47 C 0.20668 0.0506 0.4031 0.0
H48 H 0.75883 0.29359 0.34125 0.0
C49 C 0.24676 0.04437 0.31811 0.0
C50 C 0.18424 0.09456 0.35259 0.0
H51 H 1.01314 0.4152 0.44165 0.0
H52 H 0.14415 0.29785 0.40813 0.0
H53 H 0.95898 0.32277 0.26045 0.0
H54 H 0.82932 0.03594 0.32465 0.0
H55 H 0.83547 0.02525 0.26079 0.0
H56 H 0.74456 0.1168 0.28737 0.0
H57 H 0.82058 0.27242 0.24696 0.0
H58 H 0.93858 0.22521 0.21591 0.0
C59 C 0.25532 0.13209 0.43975 0.0
C60 C 0.10264 0.99319 0.42306 0.0
C61 C 0.16825 0.957 0.14254 0.0
C62 C 0.08177 0.98197 0.11089 0.0
C63 C 0.98182 1.01698 0.12936 0.0
C64 C 0.97378 0.0389 0.17897 0.0
C65 C 0.06709 0.02641 0.2093 0.0
C66 C 0.15972 0.97999 0.19152 0.0
C67 C 0.25153 0.97174 0.22851 0.0
C68 C 0.20124 0.02752 0.27086 0.0
C69 C 0.09371 0.06061 0.25915 0.0
C70 C 0.35621 0.03251 0.21063 0.0
C71 C 0.27057 0.85412 0.23789 0.0
C72 C 0.84033 0.29082 0.35809 0.0
C73 C 0.87063 0.35493 0.39833 0.0
C74 C 0.98287 0.35882 0.41468 0.0
C75 C 0.05802 0.28925 0.39729 0.0
C76 C 1.02126 0.2153 0.36338 0.0
C77 C 0.9202 0.22381 0.33988 0.0
C78 C 0.92067 0.16776 0.29137 0.0
C79 C 0.03636 0.12181 0.29278 0.0
C80 C 0.08826 0.14491 0.33711 0.0
C81 C 0.90846 0.25056 0.25126 0.0
C82 C 0.82726 0.08189 0.29061 0.0
H83 H 0.45152 0.93789 0.2932 0.0
H84 H 0.29427 0.87747 0.45593 0.0
H85 H 1.03438 0.04791 0.42599 0.0
H86 H 0.11923 0.96119 0.45967 0.0
H87 H 0.07392 0.92799 0.39859 0.0
H88 H 0.18896 0.17339 0.45816 0.0
H89 H 0.31221 0.18974 0.42188 0.0
H90 H 0.30283 0.09367 0.46908 0.0
H91 H 0.24549 0.92961 0.12867 0.0
H92 H 0.91425 0.03635 0.10507 0.0
H93 H 0.8978 0.06945 0.19142 0.0
H94 H 0.33313 0.10729 0.1939 0.0
H95 H 0.40003 0.98641 0.18326 0.0
H96 H 0.41511 0.05416 0.24046 0.0
H97 H 0.22944 0.82669 0.27143 0.0
H98 H 0.35984 0.83726 0.24033 0.0
H99 H 0.23701 0.80331 0.20785 0.0
H100 H 0.51805 0.79576 0.34274 0.0
C101 C 0.41587 0.92541 0.32804 0.0
C102 C 0.17892 0.3293 0.54455 0.0
C103 C 0.29535 0.33332 0.54017 0.0
C104 C 0.35826 0.26074 0.56588 0.0
C105 C 0.18907 0.1787 0.59675 0.0
C106 C 0.12703 0.24974 0.57151 0.0
C107 C 1.00657 0.21248 0.5678 0.0
H108 H 0.66656 0.77712 0.55807 0.0
C109 C 0.11508 0.08938 0.60886 0.0
C110 C 1.01792 0.09792 0.581 0.0
H111 H 0.78529 0.93453 0.4309 0.0
H112 H 0.90148 0.05045 0.48132 0.0
H113 H 0.88965 0.73801 0.57687 0.0
H114 H 0.70921 0.9738 0.65083 0.0
H115 H 0.78314 0.90213 0.6939 0.0
H116 H 0.67812 0.83616 0.65672 0.0
H117 H 0.79113 0.70457 0.62267 0.0
H118 H 0.93478 0.73864 0.63729 0.0
C119 C 0.95427 0.23313 0.51805 0.0
C120 C 0.94036 0.2677 0.60714 0.0
C121 C 0.1284 0.95045 0.77917 0.0
C122 C 0.04854 0.8891 0.80392 0.0
C123 C 0.9738 0.82292 0.77744 0.0
C124 C 0.96654 0.82996 0.72719 0.0
C125 C 1.03491 0.90348 0.70337 0.0
C126 C 0.11987 0.95714 0.72846 0.0
C127 C 0.18399 0.03199 0.69612 0.0
C128 C 0.11558 0.02086 0.64909 0.0
C129 C 1.02588 0.94835 0.65471 0.0
C130 C 0.30305 0.99418 0.69155 0.0
C131 C 0.18386 0.14429 0.71679 0.0
C132 C 0.7078 0.84434 0.54151 0.0
C133 C 0.71138 0.85121 0.49084 0.0
C134 C 0.77558 0.93231 0.4698 0.0
C135 C 0.84207 1.00036 0.49894 0.0
C136 C 0.8441 0.98795 0.54935 0.0
C137 C 0.78215 0.90683 0.56968 0.0
C138 C 0.83184 0.87404 0.61765 0.0
C139 C 0.93484 0.94633 0.62116 0.0
C140 C 0.93371 0.01885 0.5837 0.0
C141 C 0.86299 0.75765 0.61404 0.0
C142 C 0.74659 0.89685 0.65713 0.0
H143 H 0.35312 0.11847 0.60633 0.0
H144 H 0.12896 0.38223 0.52397 0.0
H145 H 0.97672 0.25548 0.64388 0.0
H146 H 0.8529 0.23685 0.60707 0.0
H147 H 0.94025 0.35329 0.60058 0.0
H148 H 1.00271 0.19748 0.48901 0.0
H149 H 0.95243 0.31835 0.51179 0.0
H150 H 0.86624 0.2049 0.51648 0.0
H151 H 0.18695 1.00131 0.7991 0.0
H152 H 0.91276 0.77402 0.79594 0.0
H153 H 0.90229 0.78353 0.70931 0.0
H154 H 0.30503 0.92415 0.66767 0.0
H155 H 0.33752 0.97341 0.72765 0.0
H156 H 0.36003 0.05616 0.67771 0.0
H157 H 0.09749 0.16986 0.72098 0.0
H158 H 0.22815 0.20033 0.69278 0.0
H159 H 0.22692 0.14941 0.75263 0.0
H160 H 0.44719 0.25933 0.56133 0.0
C161 C 0.30502 0.18165 0.59319 0.0
C162 C 0.8314 0.39269 0.92103 0.0
C163 C 0.90821 0.32444 0.90204 0.0
C164 C 0.95708 0.34649 0.85722 0.0
C165 C 0.82657 0.48116 0.84423 0.0
C166 C 0.79462 0.47403 0.89181 0.0
C167 C 0.70711 0.55077 0.90306 0.0
H168 H 0.25892 0.79332 0.84125 0.0
C169 C 0.747 0.54436 0.81806 0.0
C170 C 0.68454 0.59461 0.85254 0.0
H171 H 0.5132 0.91518 0.94161 0.0
H172 H 0.64432 0.79795 0.90807 0.0
H173 H 0.45886 0.82263 0.76043 0.0
H174 H 0.32959 0.53576 0.82472 0.0
H175 H 0.3357 0.52495 0.76086 0.0
H176 H 0.24474 0.61649 0.78742 0.0
H177 H 0.32057 0.77202 0.74691 0.0
H178 H 0.43871 0.725 0.7159 0.0
C179 C 0.75584 0.63236 0.93965 0.0
C180 C 0.60313 0.4934 0.92309 0.0
C181 C 0.66823 0.4568 0.64252 0.0
C182 C 0.58169 0.48176 0.6109 0.0
C183 C 0.48176 0.51674 0.62939 0.0
C184 C 0.47379 0.53867 0.679 0.0
C185 C 0.56715 0.52621 0.70931 0.0
C186 C 0.65976 0.4798 0.6915 0.0
C187 C 0.75164 0.47161 0.72847 0.0
C188 C 0.70141 0.52743 0.77082 0.0
C189 C 0.59385 0.56048 0.75914 0.0
C190 C 0.85629 0.53236 0.71055 0.0
C191 C 0.7707 0.354 0.73787 0.0
C192 C 0.34045 0.79063 0.85808 0.0
C193 C 0.37072 0.85477 0.89832 0.0
C194 C 0.48297 0.85876 0.91465 0.0
C195 C 0.55818 0.78927 0.89725 0.0
C196 C 0.52147 0.71528 0.86335 0.0
C197 C 0.42036 0.72368 0.83987 0.0
C198 C 0.42081 0.66758 0.79138 0.0
C199 C 0.53654 0.62172 0.79276 0.0
C200 C 0.58851 0.64491 0.83707 0.0
C201 C 0.40849 0.75033 0.75125 0.0
C202 C 0.32747 0.58164 0.79066 0.0
H203 H 0.9517 0.4378 0.7931 0.0
H204 H 0.79477 0.37773 0.95592 0.0
H205 H 0.53488 0.54813 0.92601 0.0
H206 H 0.6198 0.46152 -0.04029 0.0
H207 H 0.57436 0.42813 0.89868 0.0
H208 H 0.68951 0.67364 -0.04191 0.0
H209 H 0.81261 0.69001 0.92171 0.0
H210 H 0.80348 0.59401 -0.03104 0.0
H211 H 0.74545 0.42944 0.62863 0.0
H212 H 0.41415 0.53609 0.60512 0.0
H213 H 0.39783 0.56921 0.69147 0.0
H214 H 0.83318 0.60713 0.69381 0.0
H215 H 0.90006 0.48624 0.68317 0.0
H216 H 0.91523 0.55404 0.74036 0.0
H217 H 0.72967 0.32662 0.77144 0.0
H218 H 0.85997 0.33714 0.74026 0.0
H219 H 0.73705 0.30315 0.70787 0.0
H220 H 1.01827 0.29572 0.84267 0.0
C221 C 0.91611 0.4254 0.82797 0.0
C222 C 0.67913 0.82935 0.04458 0.0
C223 C 0.79556 0.83344 0.0402 0.0
C224 C 0.85852 0.76092 0.06592 0.0
C225 C 0.68937 0.67879 0.09679 0.0
C226 C 0.62729 0.74978 0.07153 0.0
C227 C 0.50686 0.71241 0.06779 0.0
H228 H 0.16717 0.27686 0.05801 0.0
C229 C 0.61545 0.58941 0.10888 0.0
C230 C 0.51831 0.59786 0.081 0.0
H231 H 0.28581 0.43438 0.93085 0.0
H232 H 0.40196 0.55032 -0.01871 0.0
H233 H 0.39046 0.23791 0.07681 0.0
H234 H 0.20957 0.47338 0.15076 0.0
H235 H 0.28363 0.40188 0.19385 0.0
H236 H 0.17874 0.3357 0.15667 0.0
H237 H 0.29186 0.20431 0.12255 0.0
H238 H 0.43544 0.23848 0.13725 0.0
C239 C 0.45462 0.73301 0.01802 0.0
C240 C 0.44054 0.76756 0.10712 0.0
C241 C 0.62854 0.45059 0.27921 0.0
C242 C 0.54871 0.38915 0.30393 0.0
C243 C 0.47413 0.32286 0.27742 0.0
C244 C 0.46701 0.32986 0.22717 0.0
C245 C 0.53533 0.40346 0.20337 0.0
C246 C 0.62015 0.45724 0.2285 0.0
C247 C 0.68424 0.53216 0.19618 0.0
C248 C 0.61596 0.52091 0.14912 0.0
C249 C 0.52634 0.4483 0.15471 0.0
C250 C 0.80338 0.49452 0.19167 0.0
C251 C 0.68387 0.64446 0.21683 0.0
C252 C 0.2084 0.34409 0.04146 0.0
C253 C 0.21193 0.35101 -0.00921 0.0
C254 C 0.27612 0.43212 -0.03025 0.0
C255 C 0.34259 0.50019 -0.0011 0.0
C256 C 0.34461 0.48776 0.04931 0.0
C257 C 0.28273 0.40659 0.06963 0.0
C258 C 0.33241 0.37382 0.11761 0.0
C259 C 0.43534 0.44619 0.12114 0.0
C260 C 0.43419 0.51871 0.08368 0.0
C261 C 0.3637 0.25747 0.11398 0.0
C262 C 0.24711 0.39651 0.15707 0.0
H263 H 0.85346 0.61867 0.1064 0.0
H264 H 0.62915 0.88225 0.02398 0.0
H265 H 0.47686 0.75538 0.14386 0.0
H266 H 0.3531 0.73663 0.10702 0.0
H267 H 0.44034 0.85315 0.10055 0.0
H268 H 0.50313 0.6974 -0.011 0.0
H269 H 0.45271 0.81823 0.01177 0.0
H270 H 0.36661 0.70472 0.01644 0.0
H271 H 0.68697 0.50154 0.29916 0.0
H272 H 0.41311 0.27389 0.2959 0.0
H273 H 0.40287 0.28334 0.20926 0.0
H274 H 0.80553 0.42447 0.16782 0.0
H275 H 0.83781 0.47386 0.22779 0.0
H276 H 0.86028 0.55657 0.17783 0.0
H277 H 0.59745 0.66991 0.22098 0.0
H278 H 0.72814 0.70055 0.19284 0.0
H279 H 0.72684 0.64967 0.25269 0.0
H280 H 0.94745 0.75956 0.06138 0.0
C281 C 0.80532 0.68181 0.09324 0.0
loop_
_geom_bond_atom_site_label_1
_geom_bond_atom_site_label_2
_geom_bond_distance
_geom_bond_site_symmetry_2
_ccdc_geom_bond_type
Zn0 O6 1.920 1_545 S
Zn0 O12 1.898 . S
Zn0 O15 1.905 1_545 S
Zn1 O9 1.905 . S
Zn1 O10 1.898 1_545 S
Zn1 O18 1.920 1_545 S
Zn2 O5 2.080 1_445 S
Zn2 O8 2.114 . S
Zn2 O11 2.120 1_545 S
Zn2 O13 2.120 1_455 S
Zn2 O14 2.114 1_554 S
Zn2 O17 2.080 . S
C3 O8 1.166 . S
C3 O9 1.182 . S
C4 O10 1.167 . S
C4 O11 1.299 . S
O5 Zn2 2.080 1_665 S
O5 C19 1.305 . S
O6 Zn0 1.920 1_565 S
O6 C19 1.234 1_556 S
C7 O12 1.167 . S
C7 O13 1.299 1_556 S
O8 Zn2 2.114 . S
O8 C3 1.166 . S
O9 Zn1 1.905 . S
O9 C3 1.182 . S
O10 Zn1 1.898 1_565 S
O10 C4 1.167 . S
O11 Zn2 2.120 1_565 S
O11 C4 1.299 . S
O12 Zn0 1.898 . S
O12 C7 1.167 . S
O13 Zn2 2.120 1_655 S
O13 C7 1.299 1_554 S
O14 Zn2 2.114 1_556 S
O14 C16 1.166 1_445 S
O15 Zn0 1.905 1_565 S
O15 C16 1.182 . S
C16 O14 1.166 1_665 S
C16 O15 1.182 . S
O17 Zn2 2.080 . S
O17 C20 1.305 1_545 S
O18 Zn1 1.920 1_565 S
O18 C20 1.234 . S
C19 O5 1.305 . S
C19 O6 1.234 1_554 S
C20 O17 1.305 1_565 S
C20 O18 1.234 . S
Zn21 O27 1.920 . S
Zn21 O33 1.898 . S
Zn21 O36 1.905 . S
Zn22 O30 1.905 . S
Zn22 O31 1.898 . S
Zn22 O39 1.920 . S
Zn23 O26 2.080 . S
Zn23 O29 2.114 . S
Zn23 O32 2.120 . S
Zn23 O34 2.120 . S
Zn23 O35 2.114 . S
Zn23 O38 2.080 . S
C24 O29 1.166 . S
C24 O30 1.182 . S
C25 O31 1.167 . S
C25 O32 1.299 . S
O26 Zn23 2.080 . S
O26 C40 1.305 . S
O27 Zn21 1.920 . S
O27 C40 1.234 . S
C28 O33 1.167 . S
C28 O34 1.299 . S
O29 Zn23 2.114 . S
O29 C24 1.166 . S
O30 Zn22 1.905 . S
O30 C24 1.182 . S
O31 Zn22 1.898 . S
O31 C25 1.167 . S
O32 Zn23 2.120 . S
O32 C25 1.299 . S
O33 Zn21 1.898 . S
O33 C28 1.167 . S
O34 Zn23 2.120 . S
O34 C28 1.299 . S
O35 Zn23 2.114 . S
O35 C37 1.166 . S
O36 Zn21 1.905 . S
O36 C37 1.182 . S
C37 O35 1.166 . S
C37 O36 1.182 . S
O38 Zn23 2.080 . S
O38 C41 1.305 . S
O39 Zn22 1.920 . S
O39 C41 1.234 . S
C40 O26 1.305 . S
C40 O27 1.234 . S
C41 O38 1.305 . S
C41 O39 1.234 . S
C42 C43 1.391 . S
C42 C46 1.391 . S
C42 H84 0.948 . S
C43 C42 1.391 . S
C43 C44 1.391 . S
C44 C43 1.391 . S
C44 H100 0.947 . S
C44 C101 1.392 . S
C45 C46 1.391 . S
C45 C49 1.397 . S
C45 C101 1.419 . S
C46 C42 1.391 . S
C46 C45 1.391 . S
C46 C47 1.399 . S
C47 C46 1.399 . S
C47 C50 1.396 1_565 S
C47 C59 1.453 1_565 S
C47 C60 1.684 . S
H48 C72 0.948 . S
C49 C45 1.397 . S
C49 C50 1.394 1_565 S
C49 C68 1.723 . S
C50 C47 1.396 1_545 S
C50 C49 1.394 1_545 S
C50 C80 1.723 . S
H51 C74 0.947 . S
H52 C75 0.948 . S
H53 C81 0.986 . S
H54 C82 0.979 . S
H55 C82 0.980 . S
H56 C82 0.983 . S
H57 C81 0.979 . S
H58 C81 0.977 . S
C59 C47 1.453 1_545 S
C59 H88 0.982 . S
C59 H89 0.979 . S
C59 H90 0.977 . S
C60 C47 1.684 . S
C60 H85 0.979 . S
C60 H86 0.980 . S
C60 H87 0.983 . S
C61 C62 1.391 1_565 S
C61 C66 1.391 . S
C61 H91 0.948 . S
C62 C61 1.391 1_545 S
C62 C63 1.391 1_455 S
C63 C62 1.391 1_655 S
C63 C64 1.392 . S
C63 H92 0.947 . S
C64 C63 1.392 . S
C64 C65 1.419 1_655 S
C64 H93 0.948 . S
C65 C64 1.419 1_455 S
C65 C66 1.391 1_545 S
C65 C69 1.397 . S
C66 C61 1.391 . S
C66 C65 1.391 1_565 S
C66 C67 1.399 . S
C67 C66 1.399 . S
C67 C68 1.396 . S
C67 C70 1.453 . S
C67 C71 1.684 . S
C68 C49 1.723 . S
C68 C67 1.396 . S
C68 C69 1.394 1_565 S
C69 C65 1.397 . S
C69 C68 1.394 1_545 S
C69 C79 1.723 1_455 S
C70 C67 1.453 . S
C70 H94 0.982 1_565 S
C70 H95 0.979 . S
C70 H96 0.977 . S
C71 C67 1.684 . S
C71 H97 0.979 . S
C71 H98 0.980 . S
C71 H99 0.983 . S
C72 H48 0.948 . S
C72 C73 1.391 . S
C72 C77 1.391 . S
C73 C72 1.391 . S
C73 C74 1.391 . S
C74 H51 0.947 . S
C74 C73 1.391 . S
C74 C75 1.392 . S
C75 H52 0.948 . S
C75 C74 1.392 . S
C75 C76 1.419 . S
C76 C75 1.419 . S
C76 C77 1.391 . S
C76 C80 1.397 1_655 S
C77 C72 1.391 . S
C77 C76 1.391 . S
C77 C78 1.399 . S
C78 C77 1.399 . S
C78 C79 1.396 . S
C78 C81 1.453 . S
C78 C82 1.684 . S
C79 C69 1.723 1_655 S
C79 C78 1.396 . S
C79 C80 1.394 1_655 S
C80 C50 1.723 . S
C80 C76 1.397 1_455 S
C80 C79 1.394 1_455 S
C81 H53 0.986 . S
C81 H57 0.979 . S
C81 H58 0.977 . S
C81 C78 1.453 . S
C82 H54 0.979 . S
C82 H55 0.980 . S
C82 H56 0.983 . S
C82 C78 1.684 . S
H83 C101 0.948 . S
H84 C42 0.948 . S
H85 C60 0.979 . S
H86 C60 0.980 . S
H87 C60 0.983 . S
H88 C59 0.982 . S
H89 C59 0.979 . S
H90 C59 0.977 . S
H91 C61 0.948 . S
H92 C63 0.947 . S
H93 C64 0.948 . S
H94 C70 0.982 1_545 S
H95 C70 0.979 . S
H96 C70 0.977 . S
H97 C71 0.979 . S
H98 C71 0.980 . S
H99 C71 0.983 . S
H100 C44 0.947 . S
C101 C44 1.392 . S
C101 C45 1.419 . S
C101 H83 0.948 . S
C102 C103 1.391 . S
C102 C106 1.391 . S
C102 H144 0.948 . S
C103 C102 1.391 . S
C103 C104 1.391 . S
C104 C103 1.391 . S
C104 H160 0.947 . S
C104 C161 1.392 . S
C105 C106 1.391 . S
C105 C109 1.397 . S
C105 C161 1.419 . S
C106 C102 1.391 . S
C106 C105 1.391 . S
C106 C107 1.399 . S
C107 C106 1.399 . S
C107 C110 1.396 . S
C107 C119 1.453 . S
C107 C120 1.684 1_455 S
H108 C132 0.948 . S
C109 C105 1.397 . S
C109 C110 1.394 . S
C109 C128 1.723 . S
C110 C107 1.396 . S
C110 C109 1.394 . S
C110 C140 1.723 1_445 S
H111 C134 0.947 . S
H112 C135 0.948 . S
H113 C141 0.982 . S
H114 C142 0.979 . S
H115 C142 0.980 . S
H116 C142 0.983 . S
H117 C141 0.979 . S
H118 C141 0.977 . S
C119 C107 1.453 . S
C119 H148 0.982 1_545 S
C119 H149 0.979 . S
C119 H150 0.977 1_545 S
C120 C107 1.684 1_655 S
C120 H145 0.979 . S
C120 H146 0.980 . S
C120 H147 0.983 1_655 S
C121 C122 1.391 1_455 S
C121 C126 1.391 . S
C121 H151 0.948 . S
C122 C121 1.391 1_655 S
C122 C123 1.391 1_545 S
C123 C122 1.391 1_565 S
C123 C124 1.392 . S
C123 H152 0.947 . S
C124 C123 1.392 . S
C124 C125 1.419 1_565 S
C124 H153 0.948 . S
C125 C124 1.419 1_545 S
C125 C126 1.391 1_655 S
C125 C129 1.397 . S
C126 C121 1.391 . S
C126 C125 1.391 1_455 S
C126 C127 1.399 . S
C127 C126 1.399 . S
C127 C128 1.396 . S
C127 C130 1.453 . S
C127 C131 1.684 . S
C128 C109 1.723 . S
C128 C127 1.396 . S
C128 C129 1.394 1_455 S
C129 C125 1.397 . S
C129 C128 1.394 1_655 S
C129 C139 1.723 1_545 S
C130 C127 1.453 . S
C130 H154 0.982 . S
C130 H155 0.979 . S
C130 H156 0.977 . S
C131 C127 1.684 . S
C131 H157 0.979 . S
C131 H158 0.980 . S
C131 H159 0.983 . S
C132 H108 0.948 . S
C132 C133 1.391 . S
C132 C137 1.391 . S
C133 C132 1.391 . S
C133 C134 1.391 . S
C134 H111 0.947 . S
C134 C133 1.391 . S
C134 C135 1.392 . S
C135 H112 0.948 . S
C135 C134 1.392 . S
C135 C136 1.419 . S
C136 C135 1.419 . S
C136 C137 1.391 . S
C136 C140 1.397 . S
C137 C132 1.391 . S
C137 C136 1.391 . S
C137 C138 1.399 . S
C138 C137 1.399 . S
C138 C139 1.396 . S
C138 C141 1.453 . S
C138 C142 1.684 . S
C139 C129 1.723 1_565 S
C139 C138 1.396 . S
C139 C140 1.394 . S
C140 C110 1.723 1_665 S
C140 C136 1.397 . S
C140 C139 1.394 . S
C141 H113 0.982 . S
C141 H117 0.979 . S
C141 H118 0.977 . S
C141 C138 1.453 . S
C142 H114 0.979 . S
C142 H115 0.980 . S
C142 H116 0.983 . S
C142 C138 1.684 . S
H143 C161 0.948 . S
H144 C102 0.948 . S
H145 C120 0.979 . S
H146 C120 0.980 . S
H147 C120 0.983 1_455 S
H148 C119 0.982 1_565 S
H149 C119 0.979 . S
H150 C119 0.977 1_565 S
H151 C121 0.948 . S
H152 C123 0.947 . S
H153 C124 0.948 . S
H154 C130 0.982 . S
H155 C130 0.979 . S
H156 C130 0.977 . S
H157 C131 0.979 . S
H158 C131 0.980 . S
H159 C131 0.983 . S
H160 C104 0.947 . S
C161 C104 1.392 . S
C161 C105 1.419 . S
C161 H143 0.948 . S
C162 C163 1.391 . S
C162 C166 1.391 1_554 S
C162 H204 0.948 . S
C163 C162 1.391 . S
C163 C164 1.391 1_554 S
C164 C163 1.391 1_556 S
C164 H220 0.947 . S
C164 C221 1.392 . S
C165 C166 1.391 . S
C165 C169 1.397 . S
C165 C221 1.419 . S
C166 C162 1.391 1_556 S
C166 C165 1.391 . S
C166 C167 1.399 1_556 S
C167 C166 1.399 1_554 S
C167 C170 1.396 1_554 S
C167 C179 1.453 . S
C167 C180 1.684 . S
H168 C192 0.948 . S
C169 C165 1.397 . S
C169 C170 1.394 . S
C169 C188 1.723 . S
C170 C167 1.396 1_556 S
C170 C169 1.394 . S
C170 C200 1.723 . S
H171 C194 0.947 . S
H172 C195 0.948 . S
H173 C201 0.982 . S
H174 C202 0.979 . S
H175 C202 0.980 . S
H176 C202 0.983 . S
H177 C201 0.979 . S
H178 C201 0.977 . S
C179 C167 1.453 . S
C179 H208 0.982 . S
C179 H209 0.979 . S
C179 H210 0.977 . S
C180 C167 1.684 . S
C180 H205 0.979 . S
C180 H206 0.980 . S
C180 H207 0.983 . S
C181 C182 1.391 . S
C181 C186 1.391 . S
C181 H211 0.948 . S
C182 C181 1.391 . S
C182 C183 1.391 . S
C183 C182 1.391 . S
C183 C184 1.392 . S
C183 H212 0.947 . S
C184 C183 1.392 . S
C184 C185 1.419 . S
C184 H213 0.948 . S
C185 C184 1.419 . S
C185 C186 1.391 . S
C185 C189 1.397 . S
C186 C181 1.391 . S
C186 C185 1.391 . S
C186 C187 1.399 . S
C187 C186 1.399 . S
C187 C188 1.396 . S
C187 C190 1.453 . S
C187 C191 1.684 . S
C188 C169 1.723 . S
C188 C187 1.396 . S
C188 C189 1.394 . S
C189 C185 1.397 . S
C189 C188 1.394 . S
C189 C199 1.723 . S
C190 C187 1.453 . S
C190 H214 0.982 . S
C190 H215 0.979 . S
C190 H216 0.977 . S
C191 C187 1.684 . S
C191 H217 0.979 . S
C191 H218 0.980 . S
C191 H219 0.983 . S
C192 H168 0.948 . S
C192 C193 1.391 1_556 S
C192 C197 1.391 . S
C193 C192 1.391 1_554 S
C193 C194 1.391 . S
C194 H171 0.947 . S
C194 C193 1.391 . S
C194 C195 1.392 . S
C195 H172 0.948 . S
C195 C194 1.392 . S
C195 C196 1.419 1_554 S
C196 C195 1.419 1_556 S
C196 C197 1.391 . S
C196 C200 1.397 . S
C197 C192 1.391 . S
C197 C196 1.391 . S
C197 C198 1.399 . S
C198 C197 1.399 . S
C198 C199 1.396 . S
C198 C201 1.453 . S
C198 C202 1.684 . S
C199 C189 1.723 . S
C199 C198 1.396 . S
C199 C200 1.394 . S
C200 C170 1.723 . S
C200 C196 1.397 . S
C200 C199 1.394 . S
C201 H173 0.982 . S
C201 H177 0.979 . S
C201 H178 0.977 . S
C201 C198 1.453 . S
C202 H174 0.979 . S
C202 H175 0.980 . S
C202 H176 0.983 . S
C202 C198 1.684 . S
H203 C221 0.948 . S
H204 C162 0.948 . S
H205 C180 0.979 . S
H206 C180 0.980 . S
H207 C180 0.983 . S
H208 C179 0.982 . S
H209 C179 0.979 . S
H210 C179 0.977 . S
H211 C181 0.948 . S
H212 C183 0.947 . S
H213 C184 0.948 . S
H214 C190 0.982 . S
H215 C190 0.979 . S
H216 C190 0.977 . S
H217 C191 0.979 . S
H218 C191 0.980 . S
H219 C191 0.983 . S
H220 C164 0.947 . S
C221 C164 1.392 . S
C221 C165 1.419 . S
C221 H203 0.948 . S
C222 C223 1.391 1_556 S
C222 C226 1.391 1_556 S
C222 H264 0.948 . S
C223 C222 1.391 1_554 S
C223 C224 1.391 . S
C224 C223 1.391 . S
C224 H280 0.947 . S
C224 C281 1.392 . S
C225 C226 1.391 . S
C225 C229 1.397 . S
C225 C281 1.419 . S
C226 C222 1.391 1_554 S
C226 C225 1.391 . S
C226 C227 1.399 . S
C227 C226 1.399 . S
C227 C230 1.396 . S
C227 C239 1.453 1_554 S
C227 C240 1.684 1_554 S
H228 C252 0.948 . S
C229 C225 1.397 . S
C229 C230 1.394 . S
C229 C248 1.723 . S
C230 C227 1.396 . S
C230 C229 1.394 . S
C230 C260 1.723 . S
H231 C254 0.947 . S
H232 C255 0.948 . S
H233 C261 0.982 . S
H234 C262 0.979 . S
H235 C262 0.980 . S
H236 C262 0.983 . S
H237 C261 0.979 . S
H238 C261 0.977 . S
C239 C227 1.453 1_556 S
C239 H268 0.982 . S
C239 H269 0.979 . S
C239 H270 0.977 . S
C240 C227 1.684 1_556 S
C240 H265 0.979 . S
C240 H266 0.980 . S
C240 H267 0.983 . S
C241 C242 1.391 . S
C241 C246 1.391 . S
C241 H271 0.948 . S
C242 C241 1.391 . S
C242 C243 1.391 . S
C243 C242 1.391 . S
C243 C244 1.392 . S
C243 H272 0.947 . S
C244 C243 1.392 . S
C244 C245 1.419 . S
C244 H273 0.948 . S
C245 C244 1.419 . S
C245 C246 1.391 . S
C245 C249 1.397 . S
C246 C241 1.391 . S
C246 C245 1.391 . S
C246 C247 1.399 . S
C247 C246 1.399 . S
C247 C248 1.396 . S
C247 C250 1.453 . S
C247 C251 1.684 . S
C248 C229 1.723 . S
C248 C247 1.396 . S
C248 C249 1.394 . S
C249 C245 1.397 . S
C249 C248 1.394 . S
C249 C259 1.723 . S
C250 C247 1.453 . S
C250 H274 0.982 . S
C250 H275 0.979 . S
C250 H276 0.977 . S
C251 C247 1.684 . S
C251 H277 0.979 . S
C251 H278 0.980 . S
C251 H279 0.983 . S
C252 H228 0.948 . S
C252 C253 1.391 1_554 S
C252 C257 1.391 . S
C253 C252 1.391 1_556 S
C253 C254 1.391 . S
C254 H231 0.947 . S
C254 C253 1.391 . S
C254 C255 1.392 . S
C255 H232 0.948 . S
C255 C254 1.392 . S
C255 C256 1.419 1_556 S
C256 C255 1.419 1_554 S
C256 C257 1.391 . S
C256 C260 1.397 . S
C257 C252 1.391 . S
C257 C256 1.391 . S
C257 C258 1.399 . S
C258 C257 1.399 . S
C258 C259 1.396 . S
C258 C261 1.453 . S
C258 C262 1.684 . S
C259 C249 1.723 . S
C259 C258 1.396 . S
C259 C260 1.394 . S
C260 C230 1.723 . S
C260 C256 1.397 . S
C260 C259 1.394 . S
C261 H233 0.982 . S
C261 H237 0.979 . S
C261 H238 0.977 . S
C261 C258 1.453 . S
C262 H234 0.979 . S
C262 H235 0.980 . S
C262 H236 0.983 . S
C262 C258 1.684 . S
H263 C281 0.948 . S
H264 C222 0.948 . S
H265 C240 0.979 . S
H266 C240 0.980 . S
H267 C240 0.983 . S
H268 C239 0.982 . S
H269 C239 0.979 . S
H270 C239 0.977 . S
H271 C241 0.948 . S
H272 C243 0.947 . S
H273 C244 0.948 . S
H274 C250 0.982 . S
H275 C250 0.979 . S
H276 C250 0.977 . S
H277 C251 0.979 . S
H278 C251 0.980 . S
H279 C251 0.983 . S
H280 C224 0.947 . S
C281 C224 1.392 . S
C281 C225 1.419 . S
C281 H263 0.948 . S
C253 C3 1.738 1_556 S
C4 C193 1.677 . S
C19 C223 1.466 . S
C7 C163 1.280 1_556 S
C37 C133 1.738 . S
C28 C73 1.677 . S
C103 C41 1.466 . S
C43 C25 1.280 . S
C20 C62 1.571 1_565 S
C16 C122 1.429 1_565 S
C182 C40 1.570 . S
C24 C242 1.429 . S
