# Generated by pormake.
# Topology anh, (6,3)-cn, num edge types: 1
# Building blocks:
#     Node 0, Type 0, BuildingBlock: BETFAJ_clean_sbu_0, # of connection points: 6
#     Node 1, Type 0, BuildingBlock: BETFAJ_clean_sbu_0, # of connection points: 6
#     Node 2, Type 0, BuildingBlock: BETFAJ_clean_sbu_0, # of connection points: 6
#     Node 3, Type 1, BuildingBlock: CUQRIR_clean_linker_1, # of connection points: 3
#     Node 4, Type 1, BuildingBlock: CUQRIR_clean_linker_1, # of connection points: 3
#     Node 5, Type 1, BuildingBlock: CUQRIR_clean_linker_1, # of connection points: 3
#     Node 6, Type 1, BuildingBlock: CUQRIR_clean_linker_1, # of connection points: 3
#     Node 7, Type 1, BuildingBlock: CUQRIR_clean_linker_1, # of connection points: 3
#     Node 8, Type 1, BuildingBlock: CUQRIR_clean_linker_1, # of connection points: 3
#     Edge 9, Type (0, 1), BuildingBlock: AJUNOK_clean_linker_0, # of connection points: 2
#     Edge 10, Type (0, 1), BuildingBlock: AJUNOK_clean_linker_0, # of connection points: 2
#     Edge 11, Type (0, 1), BuildingBlock: AJUNOK_clean_linker_0, # of connection points: 2
#     Edge 12, Type (0, 1), BuildingBlock: AJUNOK_clean_linker_0, # of connection points: 2
#     Edge 13, Type (0, 1), BuildingBlock: AJUNOK_clean_linker_0, # of connection points: 2
#     Edge 14, Type (0, 1), BuildingBlock: AJUNOK_clean_linker_0, # of connection points: 2
#     Edge 15, Type (0, 1), BuildingBlock: AJUNOK_clean_linker_0, # of connection points: 2
#     Edge 16, Type (0, 1), BuildingBlock: AJUNOK_clean_linker_0, # of connection points: 2
#     Edge 17, Type (0, 1), BuildingBlock: AJUNOK_clean_linker_0, # of connection points: 2
#     Edge 18, Type (0, 1), BuildingBlock: AJUNOK_clean_linker_0, # of connection points: 2
#     Edge 19, Type (0, 1), BuildingBlock: AJUNOK_clean_linker_0, # of connection points: 2
#     Edge 20, Type (0, 1), BuildingBlock: AJUNOK_clean_linker_0, # of connection points: 2
#     Edge 21, Type (0, 1), BuildingBlock: AJUNOK_clean_linker_0, # of connection points: 2
#     Edge 22, Type (0, 1), BuildingBlock: AJUNOK_clean_linker_0, # of connection points: 2
#     Edge 23, Type (0, 1), BuildingBlock: AJUNOK_clean_linker_0, # of connection points: 2
#     Edge 24, Type (0, 1), BuildingBlock: AJUNOK_clean_linker_0, # of connection points: 2
#     Edge 25, Type (0, 1), BuildingBlock: AJUNOK_clean_linker_0, # of connection points: 2
#     Edge 26, Type (0, 1), BuildingBlock: AJUNOK_clean_linker_0, # of connection points: 2
# Relax obj value: 0.277
# Max RMSD: 0.227
# Mean RMSD: 0.173
data_MOF--net-anh--node1-BETFAJ_clean_sbu_0--node2-CUQRIR_clean_linker_1--edge1-AJUNOK_clean_linker_0
_symmetry_space_group_name_H-M    P1
_symmetry_Int_Tables_number       1
_symmetry_cell_setting            triclinic
loop_
_symmetry_equiv_pos_as_xyz
'x, y, z'
_cell_length_a     20.763863
_cell_length_b     27.019753
_cell_length_c     33.280243
_cell_angle_alpha  86.120884
_cell_angle_beta   90.450919
_cell_angle_gamma 133.89279
loop_
_atom_site_label
_atom_site_type_symbol
_atom_site_fract_x
_atom_site_fract_y
_atom_site_fract_z
_atom_type_partial_charge
Sm0 Sm 0.23178 0.47964 0.17422 0.0
Sm1 Sm 1.12027 0.4924 0.15796 0.0
C2 C 0.361 0.48432 0.18706 0.0
C3 C 0.42317 0.51155 0.22005 0.0
C4 C 0.50734 0.57941 0.21601 0.0
C5 C 0.57347 0.60004 0.24217 0.0
C6 C 0.55782 0.5513 0.271 0.0
C7 C 0.46762 0.49082 0.28163 0.0
C8 C 0.4012 0.46957 0.25522 0.0
C9 C 0.15762 0.47129 0.24668 0.0
C10 C 0.32346 0.63819 0.16992 0.0
C11 C 1.00231 0.49829 0.1424 0.0
C12 C 0.92711 0.45571 0.11577 0.0
C13 C 0.83952 0.40565 0.13263 0.0
C14 C 0.76748 0.37035 0.10786 0.0
C15 C 0.78193 0.38737 0.06571 0.0
C16 C 0.86905 0.42748 0.04883 0.0
C17 C 0.94145 0.46249 0.07366 0.0
C18 C 0.15942 0.46594 0.08717 0.0
C19 C 1.03091 0.33821 0.17455 0.0
O20 O 0.37152 0.52919 0.16226 0.0
O21 O 0.27717 0.4291 0.19622 0.0
O22 O 0.18615 0.51468 0.21713 0.0
O23 O 0.16331 0.42882 0.23762 0.0
O24 O 0.33803 0.5981 0.17582 0.0
O25 O 0.24157 0.60987 0.16318 0.0
O26 O 0.99598 0.46581 0.17548 0.0
O27 O 1.08268 0.54247 0.12485 0.0
O28 O 0.21584 0.50866 0.11141 0.0
O29 O 1.08032 0.42961 0.10332 0.0
O30 O 1.02261 0.37931 0.18581 0.0
O31 O 1.10951 0.36776 0.15853 0.0
H32 H 0.52497 0.61478 0.1906 0.0
H33 H 0.63983 0.65022 0.23476 0.0
H34 H 0.45079 0.45442 0.30611 0.0
H35 H 0.33485 0.41835 0.26078 0.0
H36 H 0.82646 0.39672 0.16505 0.0
H37 H 0.70156 0.33751 0.12262 0.0
H38 H 0.8822 0.43917 0.01652 0.0
H39 H 1.00849 0.49774 0.05969 0.0
Sm40 Sm 0.80772 0.07821 0.48479 0.0
Sm41 Sm 0.68202 0.09275 0.46966 0.0
C42 C 0.88645 0.04031 0.51703 0.0
C43 C 0.85732 0.97436 0.53144 0.0
C44 C 0.77088 0.91945 0.54912 0.0
C45 C 0.74323 0.85649 0.56173 0.0
C46 C 0.80119 0.8471 0.5565 0.0
C47 C 0.88806 0.90252 0.53928 0.0
C48 C 0.91581 0.96559 0.52683 0.0
C49 C 0.78947 0.09191 0.40374 0.0
C50 C 0.59196 0.93712 0.47591 0.0
C51 C 0.60076 0.13296 0.44761 0.0
C52 C 0.61771 0.19227 0.45943 0.0
C53 C 0.68504 0.23557 0.48615 0.0
C54 C 0.70033 0.29072 0.49918 0.0
C55 C 0.64838 0.30353 0.48579 0.0
C56 C 0.58105 0.26022 0.45887 0.0
C57 C 0.56602 0.20496 0.44562 0.0
C58 C 0.7034 0.08046 0.5505 0.0
C59 C 0.90061 0.23542 0.46885 0.0
O60 O 0.85532 0.05973 0.53805 0.0
O61 O 0.88635 0.05087 0.47812 0.0
O62 O 0.72646 0.05568 0.43059 0.0
O63 O 0.8653 0.12047 0.41909 0.0
O64 O 0.66701 0.96358 0.49307 0.0
O65 O 0.58589 0.97871 0.458 0.0
O66 O 0.66529 0.14822 0.42559 0.0
O67 O 0.56931 0.08527 0.47685 0.0
O68 O 0.76561 0.11802 0.52339 0.0
O69 O 0.62666 0.04776 0.53522 0.0
O70 O 0.81993 0.20616 0.45823 0.0
O71 O 0.91415 0.19697 0.48402 0.0
H72 H 0.72454 0.92507 0.55305 0.0
H73 H 0.67651 0.81516 0.57555 0.0
H74 H 0.93392 0.89659 0.53463 0.0
H75 H 0.98265 1.0073 0.51319 0.0
H76 H 0.7248 0.22591 0.49754 0.0
H77 H 0.75105 0.32211 0.52071 0.0
H78 H 0.53984 0.26892 0.44833 0.0
H79 H 0.51352 0.17173 0.42513 0.0
Sm80 Sm 0.72762 0.65229 0.84847 0.0
Sm81 Sm 0.59409 0.50333 0.86766 0.0
C82 C 0.81371 0.77562 0.81127 0.0
C83 C 0.79684 0.81987 0.80078 0.0
C84 C 0.71815 0.79391 0.78261 0.0
C85 C 0.70466 0.83715 0.77202 0.0
C86 C 0.76939 0.90718 0.77939 0.0
C87 C 0.84749 0.93273 0.79802 0.0
C88 C 0.86118 0.8896 0.80842 0.0
C89 C 0.70263 0.61772 0.92929 0.0
C90 C 0.50616 0.57056 0.86571 0.0
C91 C 0.50904 0.37461 0.89186 0.0
C92 C 0.52838 0.33296 0.88193 0.0
C93 C 0.60452 0.34849 0.89582 0.0
C94 C 0.63029 0.31675 0.88101 0.0
C95 C 0.58036 0.26851 0.85214 0.0
C96 C 0.50133 0.24988 0.84015 0.0
C97 C 0.4757 0.28178 0.85484 0.0
C98 C 0.62629 0.54332 0.78623 0.0
C99 C 0.81567 0.5842 0.86106 0.0
O100 O 0.76871 0.71954 0.79253 0.0
O101 O 0.82174 0.7664 0.8494 0.0
O102 O 0.64031 0.58794 0.90512 0.0
O103 O 0.78063 0.66907 0.91136 0.0
O104 O 0.58913 0.62651 0.85026 0.0
O105 O 0.49173 0.51538 0.87863 0.0
O106 O 0.56576 0.42609 0.91399 0.0
O107 O 0.48344 0.39076 0.86205 0.0
O108 O 0.68474 0.56818 0.81186 0.0
O109 O 0.54687 0.49466 0.80327 0.0
O110 O 0.73004 0.52752 0.87193 0.0
O111 O 0.83356 0.64105 0.84813 0.0
H112 H 0.66702 0.74025 0.77647 0.0
H113 H 0.64377 0.81588 0.75778 0.0
H114 H 0.89761 0.98593 0.80511 0.0
H115 H 0.92215 0.91075 0.82254 0.0
H116 H 0.64613 0.38693 0.91711 0.0
H117 H 0.69033 0.33093 0.89158 0.0
H118 H 0.46126 0.21268 0.81807 0.0
H119 H 0.41644 0.26834 0.84374 0.0
C120 C 0.6764 0.98883 0.18032 0.0
N121 N 0.72697 0.04008 0.20578 0.0
N122 N 0.60821 0.92685 0.20107 0.0
C123 C 0.6906 0.99915 0.13526 0.0
C124 C 0.61931 0.94211 0.2399 0.0
N125 N 0.69038 1.01045 0.24279 0.0
C126 C 0.56344 0.88923 0.27528 0.0
H127 H 0.62555 0.96207 0.12098 0.0
H128 H 0.73198 0.9892 0.12647 0.0
H129 H 0.7257 0.05264 0.124 0.0
H130 H 0.6046 0.90367 0.30176 0.0
H131 H 0.53203 0.83732 0.2678 0.0
H132 H 0.50941 0.88656 0.28363 0.0
C133 C 0.71003 0.56304 0.55315 0.0
N134 N 0.70976 0.59205 0.58471 0.0
N135 N 0.69506 0.5072 0.56636 0.0
C136 C 0.72303 0.58812 0.5095 0.0
C137 C 0.68641 0.50353 0.60694 0.0
N138 N 0.69642 0.5556 0.61812 0.0
C139 C 0.66424 0.44742 0.63552 0.0
H140 H 0.75488 0.57628 0.4914 0.0
H141 H 0.76448 0.64443 0.506 0.0
H142 H 0.65665 0.56122 0.49745 0.0
H143 H 0.68278 0.42222 0.62171 0.0
H144 H 0.59114 0.40805 0.6432 0.0
H145 H 0.69917 0.46839 0.66389 0.0
C146 C 0.16528 0.58022 0.86351 0.0
N147 N 0.20529 0.56388 0.88752 0.0
N148 N 1.09567 0.5679 0.88378 0.0
C149 C 0.19019 0.60434 0.81968 0.0
C150 C 1.09688 0.5443 0.92095 0.0
N151 N 0.15987 0.54117 0.92311 0.0
C152 C 1.03752 0.52634 0.95652 0.0
H153 H 0.24148 0.66153 0.81641 0.0
H154 H 1.13095 0.58603 0.80344 0.0
H155 H 0.21852 0.58602 0.80617 0.0
H156 H 1.01954 0.55663 0.95397 0.0
H157 H 1.07042 0.53587 0.98531 0.0
H158 H 0.97516 0.47079 0.95746 0.0
C159 C 0.25344 0.5842 0.4677 0.0
N160 N 0.20113 0.53422 0.44176 0.0
N161 N 0.31555 0.64765 0.44722 0.0
C162 C 0.24113 0.57133 0.51276 0.0
C163 C 0.29897 0.63429 0.40807 0.0
N164 N 0.22907 0.56597 0.40471 0.0
C165 C 0.35496 0.68827 0.37315 0.0
H166 H 0.27664 0.61974 0.52729 0.0
H167 H 0.26824 0.54917 0.52315 0.0
H168 H 0.16879 0.53316 0.52208 0.0
H169 H 0.42526 0.7301 0.38141 0.0
H170 H 0.32821 0.71154 0.36539 0.0
H171 H 0.3539 0.66574 0.34621 0.0
C172 C 0.69558 0.10834 0.78317 0.0
N173 N 0.71343 0.0886 0.75218 0.0
N174 N 0.69177 0.15461 0.76957 0.0
C175 C 0.68446 0.08422 0.82683 0.0
C176 C 0.70759 0.16214 0.72916 0.0
N177 N 0.7217 0.1226 0.71859 0.0
C178 C 0.70246 0.20396 0.69971 0.0
H179 H 0.61375 0.03521 0.83381 0.0
H180 H 0.7009 0.12268 0.84671 0.0
H181 H 0.72771 0.07461 0.83321 0.0
H182 H 0.77129 0.25447 0.6915 0.0
H183 H 0.66312 0.21329 0.71293 0.0
H184 H 0.67207 0.1777 0.67168 0.0
C185 C 0.67074 0.47842 0.14276 0.0
N186 N 0.65523 0.48002 0.1033 0.0
N187 N 0.68198 0.52691 0.16118 0.0
C188 C 0.6878 0.43662 0.16189 0.0
C189 C 0.67218 0.55788 0.13137 0.0
N190 N 0.65805 0.53037 0.09612 0.0
C191 C 0.66915 0.61099 0.137 0.0
H192 H 0.62423 0.38144 0.16564 0.0
H193 H 0.71712 0.45383 0.19167 0.0
H194 H 0.73492 0.4419 0.14191 0.0
H195 H 0.7383 0.6627 0.13637 0.0
H196 H 0.63548 0.6 0.16645 0.0
H197 H 0.63319 0.61196 0.11262 0.0
C198 C 0.59495 0.48328 0.26713 0.0
C199 C 0.62744 0.54827 0.27403 0.0
C200 C 0.61722 0.47534 0.23012 0.0
C201 C 0.68393 0.53356 0.20379 0.0
H202 H 0.53689 0.43683 0.28429 0.0
H203 H 0.5758 0.42396 0.22041 0.0
S204 S 0.84496 0.71367 0.23106 0.0
N205 N 0.76632 0.66978 0.26806 0.0
N206 N 0.81608 0.65684 0.1997 0.0
C207 C 0.73982 0.59822 0.21931 0.0
C208 C 0.71336 0.60502 0.25628 0.0
C209 C 1.06343 0.34618 0.47529 0.0
C210 C 0.97669 0.31289 0.46339 0.0
C211 C 1.13593 0.41859 0.46945 0.0
C212 C 1.12493 0.46076 0.45134 0.0
H213 H 1.07591 0.3161 0.48887 0.0
H214 H 0.20163 0.44169 0.47817 0.0
S215 S 0.91303 0.40228 0.41675 0.0
N216 N 0.88522 0.33045 0.43387 0.0
N217 N 1.02111 0.46521 0.42325 0.0
C218 C 1.039 0.42886 0.44012 0.0
C219 C 0.96514 0.35547 0.44606 0.0
C220 C 0.6718 0.93091 0.78037 0.0
C221 C 0.75402 0.95282 0.76902 0.0
C222 C 0.65781 0.97467 0.77359 0.0
C223 C 0.72532 0.04183 0.75507 0.0
H224 H 0.61875 0.88033 0.79575 0.0
H225 H 0.5944 0.95646 0.78355 0.0
S226 S 0.9499 0.12296 0.71695 0.0
N227 N 0.90174 0.04515 0.7358 0.0
N228 N 0.87566 0.12759 0.72419 0.0
C229 C 0.80652 0.06373 0.74239 0.0
C230 C 0.82093 1.01929 0.74919 0.0
C231 C 0.76048 0.45585 0.02925 0.0
C232 C 0.71986 0.38911 0.04446 0.0
C233 C 0.73382 0.48578 0.04582 0.0
C234 C 0.65909 0.44644 0.0731 0.0
H235 H 0.82497 0.49049 0.01281 0.0
H236 H 0.77846 0.54115 0.04147 0.0
S237 S 0.49422 0.25732 0.09506 0.0
N238 N 0.57739 0.27629 0.06896 0.0
N239 N 0.52228 0.33105 0.09809 0.0
C240 C 0.60197 0.3747 0.07653 0.0
C241 C 0.63139 0.34524 0.06057 0.0
C242 C 0.52887 0.81563 0.48188 0.0
C243 C 0.51623 0.86046 0.47392 0.0
C244 C 0.46098 0.7447 0.47568 0.0
C245 C 0.37758 0.71574 0.4618 0.0
H246 H 0.59288 0.8359 0.49135 0.0
H247 H 0.47508 0.71296 0.48 0.0
S248 S 0.30581 0.80719 0.44017 0.0
N249 N 0.40948 0.86761 0.45409 0.0
N250 N 0.28395 0.7355 0.44277 0.0
C251 C 0.36258 0.75885 0.45567 0.0
C252 C 0.43116 0.83071 0.46168 0.0
C253 C 0.55306 0.16822 0.83011 0.0
C254 C 0.61212 0.23975 0.83311 0.0
C255 C 0.58024 0.14051 0.81023 0.0
C256 C 0.6669 0.18337 0.79218 0.0
H257 H 0.48522 0.13347 0.8431 0.0
H258 H 0.53277 0.08538 0.80808 0.0
S259 S 0.84731 0.37329 0.7914 0.0
N260 N 0.76193 0.35255 0.81636 0.0
N261 N 0.81201 0.29991 0.77895 0.0
C262 C 0.72681 0.25455 0.79523 0.0
C263 C 0.69972 0.28286 0.81576 0.0
C264 C 0.82633 0.77585 0.58961 0.0
C265 C 0.77099 0.77931 0.56771 0.0
C266 C 0.80334 0.71338 0.59711 0.0
C267 C 0.72469 0.65262 0.5828 0.0
H268 H 0.88878 0.82207 0.60025 0.0
H269 H 0.84902 0.71296 0.61261 0.0
S270 S 0.55429 0.63222 0.52634 0.0
N271 N 0.63189 0.71515 0.5333 0.0
N272 N 0.5887 0.59782 0.54829 0.0
C273 C 0.66692 0.65446 0.56255 0.0
C274 C 0.69005 0.71784 0.5548 0.0
C275 C 0.86906 0.51975 0.87541 0.0
C276 C 0.89074 0.58192 0.86364 0.0
C277 C 0.93445 0.5153 0.87945 0.0
C278 C 1.02878 0.57252 0.87193 0.0
H279 H 0.79962 0.47298 0.88227 0.0
H280 H 0.91024 0.46566 0.88956 0.0
S281 S 1.12743 0.74918 0.83987 0.0
N282 N 1.01903 0.70336 0.84387 0.0
N283 N 1.13861 0.69512 0.85172 0.0
C284 C 1.05202 0.63504 0.85952 0.0
C285 C 0.98498 0.63961 0.85536 0.0
C286 C 0.38054 0.75491 0.18089 0.0
C287 C 0.3986 0.71456 0.17349 0.0
C288 C 0.44978 0.82526 0.18788 0.0
C289 C 0.54016 0.85875 0.18683 0.0
H290 H 0.31208 0.73143 0.18286 0.0
H291 H 0.43247 0.85333 0.1954 0.0
S292 S 0.62541 0.77901 0.1673 0.0
N293 N 0.51593 0.71563 0.16447 0.0
N294 N 0.64434 0.84717 0.17715 0.0
C295 C 0.55962 0.82007 0.17825 0.0
C296 C 0.48943 0.74833 0.17167 0.0
C297 C 0.58691 0.34378 0.52026 0.0
C298 C 0.66077 0.35904 0.50235 0.0
C299 C 0.59835 0.39316 0.5404 0.0
C300 C 0.68368 0.45929 0.54286 0.0
H301 H 0.52036 0.29258 0.52007 0.0
H302 H 0.54068 0.37939 0.55491 0.0
S303 S 0.89756 0.52668 0.49927 0.0
N304 N 0.82162 0.44646 0.48676 0.0
N305 N 0.84239 0.53874 0.52516 0.0
C306 C 0.75753 0.47598 0.52423 0.0
C307 C 0.74623 0.42592 0.5038 0.0
C308 C 0.34061 0.51088 0.88589 0.0
C309 C 0.42871 0.56985 0.8694 0.0
C310 C 0.26951 0.50898 0.89039 0.0
C311 C 0.27887 0.56569 0.87864 0.0
H312 H 0.32579 0.46479 0.89594 0.0
H313 H 0.20551 0.46152 0.90346 0.0
S314 S 0.49428 0.73474 0.83448 0.0
N315 N 0.51832 0.68801 0.8415 0.0
N316 N 0.38839 0.68442 0.85006 0.0
C317 C 0.36624 0.625 0.86192 0.0
C318 C 0.439 0.62702 0.85738 0.0
C319 C 0.87248 0.2328 0.2004 0.0
C320 C 0.95328 0.26107 0.18074 0.0
C321 C 0.79894 0.16101 0.20782 0.0
C322 C 0.80204 0.11383 0.19564 0.0
H323 H 0.86593 0.26641 0.21063 0.0
H324 H 0.73894 0.14208 0.22337 0.0
S325 S 0.99649 0.15902 0.14395 0.0
N326 N 1.03087 0.23444 0.14961 0.0
N327 N 0.89282 0.10011 0.16371 0.0
C328 C 0.88163 0.14083 0.1758 0.0
C329 C 0.95701 0.21409 0.16838 0.0
C330 C 0.24532 0.54781 0.02444 0.0
C331 C 0.17357 0.48046 0.04235 0.0
C332 C 0.24552 0.5664 0.98368 0.0
C333 C 0.17458 0.5182 0.95946 0.0
H334 H 0.29797 0.58776 0.04273 0.0
H335 H 0.29767 0.61984 0.97194 0.0
S336 S 0.97818 0.3337 0.98977 0.0
N337 N 1.03514 0.36409 0.03092 0.0
N338 N 1.03644 0.39932 0.95483 0.0
C339 C 1.10701 0.44975 0.97599 0.0
C340 C 1.10633 0.43083 0.01726 0.0
C341 C 0.68983 0.05545 0.34675 0.0
C342 C 0.77297 0.08323 0.3602 0.0
C343 C 0.66584 0.03634 0.30728 0.0
C344 C 0.72354 0.04344 0.27996 0.0
H345 H 0.64151 0.04609 0.36731 0.0
H346 H 0.59997 1.01277 0.29851 0.0
S347 S 0.95114 0.11804 0.29883 0.0
N348 N 0.9161 0.12208 0.34176 0.0
N349 N 0.86885 0.0833 0.26807 0.0
C350 C 0.80854 0.07442 0.29219 0.0
C351 C 0.83378 0.09498 0.33224 0.0
C352 C 0.73288 0.59 0.72685 0.0
C353 C 0.64611 0.55502 0.74213 0.0
C354 C 0.75056 0.59377 0.68558 0.0
C355 C 0.68255 0.5638 0.65833 0.0
H356 H 0.78653 0.6118 0.74709 0.0
H357 H 0.8166 0.61751 0.67503 0.0
S358 S 0.44751 0.47321 0.68168 0.0
N359 N 0.49341 0.49462 0.72585 0.0
N360 N 0.52797 0.50264 0.64824 0.0
C361 C 0.59731 0.53236 0.67264 0.0
C362 C 0.57875 0.52779 0.71461 0.0
C363 C 0.64487 0.0366 0.62218 0.0
C364 C 0.71591 0.08866 0.59428 0.0
C365 C 0.64972 0.04626 0.66343 0.0
C366 C 0.72506 0.10869 0.67802 0.0
H367 H 0.58398 0.98877 0.61187 0.0
H368 H 0.59249 1.00621 0.68379 0.0
S369 S 0.93069 0.25976 0.61847 0.0
N370 N 0.86631 0.20348 0.58496 0.0
N371 N 0.87337 0.222 0.66233 0.0
C372 C 0.79766 0.16013 0.6509 0.0
C373 C 0.7937 0.14995 0.60904 0.0
C374 C 0.6062 0.53578 0.98921 0.0
C375 C 0.68773 0.60008 0.97318 0.0
C376 C 0.59441 0.51469 0.03031 0.0
C377 C 0.663 0.5578 0.05657 0.0
H378 H 0.55273 0.50026 0.96964 0.0
H379 H 0.53301 0.46334 0.04145 0.0
S380 S 0.88638 0.73237 0.03036 0.0
N381 N 0.83622 0.70804 0.98729 0.0
N382 N 0.81313 0.66795 0.06453 0.0
C383 C 0.74271 0.62346 0.04141 0.0
C384 C 0.7554 0.64467 0.9996 0.0
C385 C 0.18089 0.46185 0.31965 0.0
C386 C 0.15957 0.48631 0.28887 0.0
C387 C 0.19896 0.48528 0.35831 0.0
C388 C 0.19517 0.53313 0.36756 0.0
H389 H 0.18871 0.42742 0.31329 0.0
H390 H 0.2206 0.46877 0.38046 0.0
S391 S 1.1275 0.60366 0.30022 0.0
N392 N 1.12619 0.55516 0.27179 0.0
N393 N 0.15695 0.59697 0.345 0.0
C394 C 0.16702 0.55362 0.33818 0.0
C395 C 0.15003 0.53075 0.29867 0.0
loop_
_geom_bond_atom_site_label_1
_geom_bond_atom_site_label_2
_geom_bond_distance
_geom_bond_site_symmetry_2
_ccdc_geom_bond_type
Sm0 C2 2.846 . S
Sm0 O20 2.543 . S
Sm0 O21 2.450 . S
Sm0 O22 2.681 1_455 S
Sm0 O23 2.464 . S
Sm0 O24 2.396 . S
Sm0 O28 2.386 . S
Sm0 O31 2.408 1_455 S
Sm1 C11 2.846 . S
Sm1 O22 2.386 . S
Sm1 O25 2.408 1_655 S
Sm1 O26 2.543 . S
Sm1 O27 2.450 . S
Sm1 O28 2.681 1_655 S
Sm1 O29 2.464 . S
Sm1 O30 2.396 . S
C2 Sm0 2.846 . S
C2 C3 1.506 . S
C2 O20 1.261 . S
C2 O21 1.242 . S
C3 C2 1.506 . S
C3 C4 1.358 . S
C3 C8 1.382 . S
C4 C3 1.358 . S
C4 C5 1.385 . S
C4 H32 0.930 . S
C5 C4 1.385 . S
C5 C6 1.395 . S
C5 H33 0.929 . S
C6 C5 1.395 . S
C6 C7 1.335 . S
C7 C6 1.335 . S
C7 C8 1.398 . S
C7 H34 0.930 . S
C8 C3 1.382 . S
C8 C7 1.398 . S
C8 H35 0.929 . S
C9 O22 1.271 1_455 S
C9 O23 1.251 . S
C10 O24 1.252 . S
C10 O25 1.272 . S
C11 Sm1 2.846 . S
C11 C12 1.506 . S
C11 O26 1.261 . S
C11 O27 1.242 . S
C12 C11 1.506 . S
C12 C13 1.358 . S
C12 C17 1.382 . S
C13 C12 1.358 . S
C13 C14 1.385 . S
C13 H36 0.930 . S
C14 C13 1.385 . S
C14 C15 1.395 . S
C14 H37 0.929 . S
C15 C14 1.395 . S
C15 C16 1.335 . S
C16 C15 1.335 . S
C16 C17 1.398 . S
C16 H38 0.930 . S
C17 C12 1.382 . S
C17 C16 1.398 . S
C17 H39 0.929 . S
C18 O28 1.271 . S
C18 O29 1.251 1_455 S
C19 O30 1.252 . S
C19 O31 1.272 . S
O20 Sm0 2.543 . S
O20 C2 1.261 . S
O21 Sm0 2.450 . S
O21 C2 1.242 . S
O22 Sm0 2.681 1_655 S
O22 Sm1 2.386 . S
O22 C9 1.271 1_655 S
O23 Sm0 2.464 . S
O23 C9 1.251 . S
O24 Sm0 2.396 . S
O24 C10 1.252 . S
O25 Sm1 2.408 1_455 S
O25 C10 1.272 . S
O26 Sm1 2.543 . S
O26 C11 1.261 . S
O27 Sm1 2.450 . S
O27 C11 1.242 . S
O28 Sm0 2.386 . S
O28 Sm1 2.681 1_455 S
O28 C18 1.271 . S
O29 Sm1 2.464 . S
O29 C18 1.251 1_655 S
O30 Sm1 2.396 . S
O30 C19 1.252 . S
O31 Sm0 2.408 1_655 S
O31 C19 1.272 . S
H32 C4 0.930 . S
H33 C5 0.929 . S
H34 C7 0.930 . S
H35 C8 0.929 . S
H36 C13 0.930 . S
H37 C14 0.929 . S
H38 C16 0.930 . S
H39 C17 0.929 . S
Sm40 C42 2.846 1_545 S
Sm40 O60 2.543 1_545 S
Sm40 O61 2.450 1_545 S
Sm40 O62 2.681 . S
Sm40 O63 2.464 . S
Sm40 O64 2.396 1_545 S
Sm40 O68 2.386 . S
Sm40 O71 2.408 . S
Sm41 C51 2.846 . S
Sm41 O62 2.386 . S
Sm41 O65 2.408 1_545 S
Sm41 O66 2.543 . S
Sm41 O67 2.450 . S
Sm41 O68 2.681 . S
Sm41 O69 2.464 . S
Sm41 O70 2.396 . S
C42 Sm40 2.846 1_565 S
C42 C43 1.506 . S
C42 O60 1.261 . S
C42 O61 1.242 . S
C43 C42 1.506 . S
C43 C44 1.358 . S
C43 C48 1.382 . S
C44 C43 1.358 . S
C44 C45 1.385 . S
C44 H72 0.930 . S
C45 C44 1.385 . S
C45 C46 1.395 . S
C45 H73 0.929 . S
C46 C45 1.395 . S
C46 C47 1.335 . S
C47 C46 1.335 . S
C47 C48 1.398 . S
C47 H74 0.930 . S
C48 C43 1.382 . S
C48 C47 1.398 . S
C48 H75 0.929 . S
C49 O62 1.271 . S
C49 O63 1.251 . S
C50 O64 1.252 . S
C50 O65 1.272 . S
C51 Sm41 2.846 . S
C51 C52 1.506 . S
C51 O66 1.261 . S
C51 O67 1.242 . S
C52 C51 1.506 . S
C52 C53 1.358 . S
C52 C57 1.382 . S
C53 C52 1.358 . S
C53 C54 1.385 . S
C53 H76 0.930 . S
C54 C53 1.385 . S
C54 C55 1.395 . S
C54 H77 0.929 . S
C55 C54 1.395 . S
C55 C56 1.335 . S
C56 C55 1.335 . S
C56 C57 1.398 . S
C56 H78 0.930 . S
C57 C52 1.382 . S
C57 C56 1.398 . S
C57 H79 0.929 . S
C58 O68 1.271 . S
C58 O69 1.251 . S
C59 O70 1.252 . S
C59 O71 1.272 . S
O60 Sm40 2.543 1_565 S
O60 C42 1.261 . S
O61 Sm40 2.450 1_565 S
O61 C42 1.242 . S
O62 Sm40 2.681 . S
O62 Sm41 2.386 . S
O62 C49 1.271 . S
O63 Sm40 2.464 . S
O63 C49 1.251 . S
O64 Sm40 2.396 1_565 S
O64 C50 1.252 . S
O65 Sm41 2.408 1_565 S
O65 C50 1.272 . S
O66 Sm41 2.543 . S
O66 C51 1.261 . S
O67 Sm41 2.450 . S
O67 C51 1.242 . S
O68 Sm40 2.386 . S
O68 Sm41 2.681 . S
O68 C58 1.271 . S
O69 Sm41 2.464 . S
O69 C58 1.251 . S
O70 Sm41 2.396 . S
O70 C59 1.252 . S
O71 Sm40 2.408 . S
O71 C59 1.272 . S
H72 C44 0.930 . S
H73 C45 0.929 . S
H74 C47 0.930 . S
H75 C48 0.929 . S
H76 C53 0.930 . S
H77 C54 0.929 . S
H78 C56 0.930 . S
H79 C57 0.929 . S
Sm80 C82 2.846 . S
Sm80 O100 2.543 . S
Sm80 O101 2.450 . S
Sm80 O102 2.681 . S
Sm80 O103 2.464 . S
Sm80 O104 2.396 . S
Sm80 O108 2.386 . S
Sm80 O111 2.408 . S
Sm81 C91 2.846 . S
Sm81 O102 2.386 . S
Sm81 O105 2.408 . S
Sm81 O106 2.543 . S
Sm81 O107 2.450 . S
Sm81 O108 2.681 . S
Sm81 O109 2.464 . S
Sm81 O110 2.396 . S
C82 Sm80 2.846 . S
C82 C83 1.506 . S
C82 O100 1.261 . S
C82 O101 1.242 . S
C83 C82 1.506 . S
C83 C84 1.358 . S
C83 C88 1.382 . S
C84 C83 1.358 . S
C84 C85 1.385 . S
C84 H112 0.930 . S
C85 C84 1.385 . S
C85 C86 1.395 . S
C85 H113 0.929 . S
C86 C85 1.395 . S
C86 C87 1.335 . S
C87 C86 1.335 . S
C87 C88 1.398 . S
C87 H114 0.930 . S
C88 C83 1.382 . S
C88 C87 1.398 . S
C88 H115 0.929 . S
C89 O102 1.271 . S
C89 O103 1.251 . S
C90 O104 1.252 . S
C90 O105 1.272 . S
C91 Sm81 2.846 . S
C91 C92 1.506 . S
C91 O106 1.261 . S
C91 O107 1.242 . S
C92 C91 1.506 . S
C92 C93 1.358 . S
C92 C97 1.382 . S
C93 C92 1.358 . S
C93 C94 1.385 . S
C93 H116 0.930 . S
C94 C93 1.385 . S
C94 C95 1.395 . S
C94 H117 0.929 . S
C95 C94 1.395 . S
C95 C96 1.335 . S
C96 C95 1.335 . S
C96 C97 1.398 . S
C96 H118 0.930 . S
C97 C92 1.382 . S
C97 C96 1.398 . S
C97 H119 0.929 . S
C98 O108 1.271 . S
C98 O109 1.251 . S
C99 O110 1.252 . S
C99 O111 1.272 . S
O100 Sm80 2.543 . S
O100 C82 1.261 . S
O101 Sm80 2.450 . S
O101 C82 1.242 . S
O102 Sm80 2.681 . S
O102 Sm81 2.386 . S
O102 C89 1.271 . S
O103 Sm80 2.464 . S
O103 C89 1.251 . S
O104 Sm80 2.396 . S
O104 C90 1.252 . S
O105 Sm81 2.408 . S
O105 C90 1.272 . S
O106 Sm81 2.543 . S
O106 C91 1.261 . S
O107 Sm81 2.450 . S
O107 C91 1.242 . S
O108 Sm80 2.386 . S
O108 Sm81 2.681 . S
O108 C98 1.271 . S
O109 Sm81 2.464 . S
O109 C98 1.251 . S
O110 Sm81 2.396 . S
O110 C99 1.252 . S
O111 Sm80 2.408 . S
O111 C99 1.272 . S
H112 C84 0.930 . S
H113 C85 0.929 . S
H114 C87 0.930 . S
H115 C88 0.929 . S
H116 C93 0.930 . S
H117 C94 0.929 . S
H118 C96 0.930 . S
H119 C97 0.929 . S
C120 N121 1.317 1_565 S
C120 N122 1.348 . S
C120 C123 1.485 1_565 S
N121 C120 1.317 1_545 S
N121 N125 1.370 . S
N122 C120 1.348 . S
N122 C124 1.346 . S
C123 C120 1.485 1_545 S
C123 H127 0.960 . S
C123 H128 0.961 1_545 S
C123 H129 0.960 . S
C124 N122 1.346 . S
C124 N125 1.307 1_565 S
C124 C126 1.486 . S
N125 N121 1.370 . S
N125 C124 1.307 1_545 S
C126 C124 1.486 . S
C126 H130 0.960 . S
C126 H131 0.960 . S
C126 H132 0.959 . S
H127 C123 0.960 . S
H128 C123 0.961 1_565 S
H129 C123 0.960 . S
H130 C126 0.960 . S
H131 C126 0.960 . S
H132 C126 0.959 . S
C133 N134 1.317 . S
C133 N135 1.348 . S
C133 C136 1.485 . S
N134 C133 1.317 . S
N134 N138 1.370 . S
N135 C133 1.348 . S
N135 C137 1.346 . S
C136 C133 1.485 . S
C136 H140 0.960 . S
C136 H141 0.961 . S
C136 H142 0.960 . S
C137 N135 1.346 . S
C137 N138 1.307 . S
C137 C139 1.486 . S
N138 N134 1.370 . S
N138 C137 1.307 . S
C139 C137 1.486 . S
C139 H143 0.960 . S
C139 H144 0.960 . S
C139 H145 0.959 . S
H140 C136 0.960 . S
H141 C136 0.961 . S
H142 C136 0.960 . S
H143 C139 0.960 . S
H144 C139 0.960 . S
H145 C139 0.959 . S
C146 N147 1.317 . S
C146 N148 1.348 . S
C146 C149 1.485 . S
N147 C146 1.317 . S
N147 N151 1.370 . S
N148 C146 1.348 . S
N148 C150 1.346 . S
C149 C146 1.485 . S
C149 H153 0.960 . S
C149 H154 0.961 . S
C149 H155 0.960 . S
C150 N148 1.346 . S
C150 N151 1.307 . S
C150 C152 1.486 1_455 S
N151 N147 1.370 . S
N151 C150 1.307 . S
C152 C150 1.486 1_655 S
C152 H156 0.960 . S
C152 H157 0.960 . S
C152 H158 0.959 . S
H153 C149 0.960 . S
H154 C149 0.961 . S
H155 C149 0.960 . S
H156 C152 0.960 . S
H157 C152 0.960 . S
H158 C152 0.959 . S
C159 N160 1.317 . S
C159 N161 1.348 . S
C159 C162 1.485 . S
N160 C159 1.317 . S
N160 N164 1.370 . S
N161 C159 1.348 . S
N161 C163 1.346 . S
C162 C159 1.485 . S
C162 H166 0.960 . S
C162 H167 0.961 . S
C162 H168 0.960 . S
C163 N161 1.346 . S
C163 N164 1.307 . S
C163 C165 1.486 . S
N164 N160 1.370 . S
N164 C163 1.307 . S
C165 C163 1.486 . S
C165 H169 0.960 . S
C165 H170 0.960 . S
C165 H171 0.959 . S
H166 C162 0.960 . S
H167 C162 0.961 . S
H168 C162 0.960 . S
H169 C165 0.960 . S
H170 C165 0.960 . S
H171 C165 0.959 . S
C172 N173 1.317 . S
C172 N174 1.348 . S
C172 C175 1.485 . S
N173 C172 1.317 . S
N173 N177 1.370 . S
N174 C172 1.348 . S
N174 C176 1.346 . S
C175 C172 1.485 . S
C175 H179 0.960 . S
C175 H180 0.961 . S
C175 H181 0.960 . S
C176 N174 1.346 . S
C176 N177 1.307 . S
C176 C178 1.486 . S
N177 N173 1.370 . S
N177 C176 1.307 . S
C178 C176 1.486 . S
C178 H182 0.960 . S
C178 H183 0.960 . S
C178 H184 0.959 . S
H179 C175 0.960 . S
H180 C175 0.961 . S
H181 C175 0.960 . S
H182 C178 0.960 . S
H183 C178 0.960 . S
H184 C178 0.959 . S
C185 N186 1.317 . S
C185 N187 1.348 . S
C185 C188 1.485 . S
N186 C185 1.317 . S
N186 N190 1.370 . S
N187 C185 1.348 . S
N187 C189 1.346 . S
C188 C185 1.485 . S
C188 H192 0.960 . S
C188 H193 0.961 . S
C188 H194 0.960 . S
C189 N187 1.346 . S
C189 N190 1.307 . S
C189 C191 1.486 . S
N190 N186 1.370 . S
N190 C189 1.307 . S
C191 C189 1.486 . S
C191 H195 0.960 . S
C191 H196 0.960 . S
C191 H197 0.959 . S
H192 C188 0.960 . S
H193 C188 0.961 . S
H194 C188 0.960 . S
H195 C191 0.960 . S
H196 C191 0.960 . S
H197 C191 0.959 . S
C198 C199 1.369 . S
C198 C200 1.419 . S
C198 H202 0.930 . S
C199 C198 1.369 . S
C199 C208 1.429 . S
C200 C198 1.419 . S
C200 C201 1.363 . S
C200 H203 0.929 . S
C201 C200 1.363 . S
C201 C207 1.428 . S
H202 C198 0.930 . S
H203 C200 0.929 . S
S204 N205 1.613 . S
S204 N206 1.610 . S
N205 S204 1.613 . S
N205 C208 1.350 . S
N206 S204 1.610 . S
N206 C207 1.351 . S
C207 C201 1.428 . S
C207 N206 1.351 . S
C207 C208 1.434 . S
C208 C199 1.429 . S
C208 N205 1.350 . S
C208 C207 1.434 . S
C209 C210 1.369 . S
C209 C211 1.419 . S
C209 H213 0.930 . S
C210 C209 1.369 . S
C210 C219 1.429 . S
C211 C209 1.419 . S
C211 C212 1.363 . S
C211 H214 0.929 . S
C212 C211 1.363 . S
C212 C218 1.428 . S
H213 C209 0.930 . S
H214 C211 0.929 . S
S215 N216 1.613 . S
S215 N217 1.610 . S
N216 S215 1.613 . S
N216 C219 1.350 . S
N217 S215 1.610 . S
N217 C218 1.351 . S
C218 C212 1.428 . S
C218 N217 1.351 . S
C218 C219 1.434 . S
C219 C210 1.429 . S
C219 N216 1.350 . S
C219 C218 1.434 . S
C220 C221 1.369 . S
C220 C222 1.419 . S
C220 H224 0.930 . S
C221 C220 1.369 . S
C221 C230 1.429 . S
C222 C220 1.419 . S
C222 C223 1.363 . S
C222 H225 0.929 . S
C223 C222 1.363 . S
C223 C229 1.428 . S
H224 C220 0.930 . S
H225 C222 0.929 . S
S226 N227 1.613 1_545 S
S226 N228 1.610 . S
N227 S226 1.613 1_565 S
N227 C230 1.350 . S
N228 S226 1.610 . S
N228 C229 1.351 1_545 S
C229 C223 1.428 . S
C229 N228 1.351 1_565 S
C229 C230 1.434 . S
C230 C221 1.429 . S
C230 N227 1.350 . S
C230 C229 1.434 . S
C231 C232 1.369 . S
C231 C233 1.419 . S
C231 H235 0.930 . S
C232 C231 1.369 . S
C232 C241 1.429 . S
C233 C231 1.419 . S
C233 C234 1.363 . S
C233 H236 0.929 . S
C234 C233 1.363 . S
C234 C240 1.428 . S
H235 C231 0.930 . S
H236 C233 0.929 . S
S237 N238 1.613 . S
S237 N239 1.610 . S
N238 S237 1.613 . S
N238 C241 1.350 . S
N239 S237 1.610 . S
N239 C240 1.351 . S
C240 C234 1.428 . S
C240 N239 1.351 . S
C240 C241 1.434 . S
C241 C232 1.429 . S
C241 N238 1.350 . S
C241 C240 1.434 . S
C242 C243 1.369 . S
C242 C244 1.419 . S
C242 H246 0.930 . S
C243 C242 1.369 . S
C243 C252 1.429 . S
C244 C242 1.419 . S
C244 C245 1.363 . S
C244 H247 0.929 . S
C245 C244 1.363 . S
C245 C251 1.428 . S
H246 C242 0.930 . S
H247 C244 0.929 . S
S248 N249 1.613 . S
S248 N250 1.610 . S
N249 S248 1.613 . S
N249 C252 1.350 . S
N250 S248 1.610 . S
N250 C251 1.351 . S
C251 C245 1.428 . S
C251 N250 1.351 . S
C251 C252 1.434 . S
C252 C243 1.429 . S
C252 N249 1.350 . S
C252 C251 1.434 . S
C253 C254 1.369 . S
C253 C255 1.419 . S
C253 H257 0.930 . S
C254 C253 1.369 . S
C254 C263 1.429 . S
C255 C253 1.419 . S
C255 C256 1.363 . S
C255 H258 0.929 . S
C256 C255 1.363 . S
C256 C262 1.428 . S
H257 C253 0.930 . S
H258 C255 0.929 . S
S259 N260 1.613 . S
S259 N261 1.610 . S
N260 S259 1.613 . S
N260 C263 1.350 . S
N261 S259 1.610 . S
N261 C262 1.351 . S
C262 C256 1.428 . S
C262 N261 1.351 . S
C262 C263 1.434 . S
C263 C254 1.429 . S
C263 N260 1.350 . S
C263 C262 1.434 . S
C264 C265 1.369 . S
C264 C266 1.419 . S
C264 H268 0.930 . S
C265 C264 1.369 . S
C265 C274 1.429 . S
C266 C264 1.419 . S
C266 C267 1.363 . S
C266 H269 0.929 . S
C267 C266 1.363 . S
C267 C273 1.428 . S
H268 C264 0.930 . S
H269 C266 0.929 . S
S270 N271 1.613 . S
S270 N272 1.610 . S
N271 S270 1.613 . S
N271 C274 1.350 . S
N272 S270 1.610 . S
N272 C273 1.351 . S
C273 C267 1.428 . S
C273 N272 1.351 . S
C273 C274 1.434 . S
C274 C265 1.429 . S
C274 N271 1.350 . S
C274 C273 1.434 . S
C275 C276 1.369 . S
C275 C277 1.419 . S
C275 H279 0.930 . S
C276 C275 1.369 . S
C276 C285 1.429 . S
C277 C275 1.419 . S
C277 C278 1.363 . S
C277 H280 0.929 . S
C278 C277 1.363 . S
C278 C284 1.428 . S
H279 C275 0.930 . S
H280 C277 0.929 . S
S281 N282 1.613 . S
S281 N283 1.610 . S
N282 S281 1.613 . S
N282 C285 1.350 . S
N283 S281 1.610 . S
N283 C284 1.351 . S
C284 C278 1.428 . S
C284 N283 1.351 . S
C284 C285 1.434 . S
C285 C276 1.429 . S
C285 N282 1.350 . S
C285 C284 1.434 . S
C286 C287 1.369 . S
C286 C288 1.419 . S
C286 H290 0.930 . S
C287 C286 1.369 . S
C287 C296 1.429 . S
C288 C286 1.419 . S
C288 C289 1.363 . S
C288 H291 0.929 . S
C289 C288 1.363 . S
C289 C295 1.428 . S
H290 C286 0.930 . S
H291 C288 0.929 . S
S292 N293 1.613 . S
S292 N294 1.610 . S
N293 S292 1.613 . S
N293 C296 1.350 . S
N294 S292 1.610 . S
N294 C295 1.351 . S
C295 C289 1.428 . S
C295 N294 1.351 . S
C295 C296 1.434 . S
C296 C287 1.429 . S
C296 N293 1.350 . S
C296 C295 1.434 . S
C297 C298 1.369 . S
C297 C299 1.419 . S
C297 H301 0.930 . S
C298 C297 1.369 . S
C298 C307 1.429 . S
C299 C297 1.419 . S
C299 C300 1.363 . S
C299 H302 0.929 . S
C300 C299 1.363 . S
C300 C306 1.428 . S
H301 C297 0.930 . S
H302 C299 0.929 . S
S303 N304 1.613 . S
S303 N305 1.610 . S
N304 S303 1.613 . S
N304 C307 1.350 . S
N305 S303 1.610 . S
N305 C306 1.351 . S
C306 C300 1.428 . S
C306 N305 1.351 . S
C306 C307 1.434 . S
C307 C298 1.429 . S
C307 N304 1.350 . S
C307 C306 1.434 . S
C308 C309 1.369 . S
C308 C310 1.419 . S
C308 H312 0.930 . S
C309 C308 1.369 . S
C309 C318 1.429 . S
C310 C308 1.419 . S
C310 C311 1.363 . S
C310 H313 0.929 . S
C311 C310 1.363 . S
C311 C317 1.428 . S
H312 C308 0.930 . S
H313 C310 0.929 . S
S314 N315 1.613 . S
S314 N316 1.610 . S
N315 S314 1.613 . S
N315 C318 1.350 . S
N316 S314 1.610 . S
N316 C317 1.351 . S
C317 C311 1.428 . S
C317 N316 1.351 . S
C317 C318 1.434 . S
C318 C309 1.429 . S
C318 N315 1.350 . S
C318 C317 1.434 . S
C319 C320 1.369 . S
C319 C321 1.419 . S
C319 H323 0.930 . S
C320 C319 1.369 . S
C320 C329 1.429 . S
C321 C319 1.419 . S
C321 C322 1.363 . S
C321 H324 0.929 . S
C322 C321 1.363 . S
C322 C328 1.428 . S
H323 C319 0.930 . S
H324 C321 0.929 . S
S325 N326 1.613 . S
S325 N327 1.610 . S
N326 S325 1.613 . S
N326 C329 1.350 . S
N327 S325 1.610 . S
N327 C328 1.351 . S
C328 C322 1.428 . S
C328 N327 1.351 . S
C328 C329 1.434 . S
C329 C320 1.429 . S
C329 N326 1.350 . S
C329 C328 1.434 . S
C330 C331 1.369 . S
C330 C332 1.419 1_554 S
C330 H334 0.930 . S
C331 C330 1.369 . S
C331 C340 1.429 1_455 S
C332 C330 1.419 1_556 S
C332 C333 1.363 . S
C332 H335 0.929 . S
C333 C332 1.363 . S
C333 C339 1.428 1_455 S
H334 C330 0.930 . S
H335 C332 0.929 . S
S336 N337 1.613 1_556 S
S336 N338 1.610 . S
N337 S336 1.613 1_554 S
N337 C340 1.350 . S
N338 S336 1.610 . S
N338 C339 1.351 . S
C339 C333 1.428 1_655 S
C339 N338 1.351 . S
C339 C340 1.434 1_556 S
C340 C331 1.429 1_655 S
C340 N337 1.350 . S
C340 C339 1.434 1_554 S
C341 C342 1.369 . S
C341 C343 1.419 . S
C341 H345 0.930 1_545 S
C342 C341 1.369 . S
C342 C351 1.429 . S
C343 C341 1.419 . S
C343 C344 1.363 . S
C343 H346 0.929 1_545 S
C344 C343 1.363 . S
C344 C350 1.428 . S
H345 C341 0.930 1_565 S
H346 C343 0.929 1_565 S
S347 N348 1.613 . S
S347 N349 1.610 . S
N348 S347 1.613 . S
N348 C351 1.350 . S
N349 S347 1.610 . S
N349 C350 1.351 . S
C350 C344 1.428 . S
C350 N349 1.351 . S
C350 C351 1.434 . S
C351 C342 1.429 . S
C351 N348 1.350 . S
C351 C350 1.434 . S
C352 C353 1.369 . S
C352 C354 1.419 . S
C352 H356 0.930 . S
C353 C352 1.369 . S
C353 C362 1.429 . S
C354 C352 1.419 . S
C354 C355 1.363 . S
C354 H357 0.929 . S
C355 C354 1.363 . S
C355 C361 1.428 . S
H356 C352 0.930 . S
H357 C354 0.929 . S
S358 N359 1.613 . S
S358 N360 1.610 . S
N359 S358 1.613 . S
N359 C362 1.350 . S
N360 S358 1.610 . S
N360 C361 1.351 . S
C361 C355 1.428 . S
C361 N360 1.351 . S
C361 C362 1.434 . S
C362 C353 1.429 . S
C362 N359 1.350 . S
C362 C361 1.434 . S
C363 C364 1.369 1_565 S
C363 C365 1.419 . S
C363 H367 0.930 . S
C364 C363 1.369 1_545 S
C364 C373 1.429 . S
C365 C363 1.419 . S
C365 C366 1.363 1_565 S
C365 H368 0.929 . S
C366 C365 1.363 1_545 S
C366 C372 1.428 . S
H367 C363 0.930 . S
H368 C365 0.929 . S
S369 N370 1.613 . S
S369 N371 1.610 . S
N370 S369 1.613 . S
N370 C373 1.350 . S
N371 S369 1.610 . S
N371 C372 1.351 . S
C372 C366 1.428 . S
C372 N371 1.351 . S
C372 C373 1.434 . S
C373 C364 1.429 . S
C373 N370 1.350 . S
C373 C372 1.434 . S
C374 C375 1.369 . S
C374 C376 1.419 1_556 S
C374 H378 0.930 . S
C375 C374 1.369 . S
C375 C384 1.429 . S
C376 C374 1.419 1_554 S
C376 C377 1.363 . S
C376 H379 0.929 . S
C377 C376 1.363 . S
C377 C383 1.428 . S
H378 C374 0.930 . S
H379 C376 0.929 . S
S380 N381 1.613 . S
S380 N382 1.610 1_556 S
N381 S380 1.613 . S
N381 C384 1.350 . S
N382 S380 1.610 1_554 S
N382 C383 1.351 . S
C383 C377 1.428 . S
C383 N382 1.351 . S
C383 C384 1.434 1_554 S
C384 C375 1.429 . S
C384 N381 1.350 . S
C384 C383 1.434 1_556 S
C385 C386 1.360 1_455 S
C385 C387 1.419 . S
C385 H389 0.930 . S
C386 C385 1.360 1_655 S
C386 C395 1.438 . S
C387 C385 1.419 . S
C387 C388 1.363 . S
C387 H390 0.929 . S
C388 C387 1.363 . S
C388 C394 1.428 . S
H389 C385 0.930 . S
H390 C387 0.929 . S
S391 N392 1.613 . S
S391 N393 1.610 1_655 S
N392 S391 1.613 . S
N392 C395 1.350 . S
N393 S391 1.610 1_455 S
N393 C394 1.351 . S
C394 C388 1.428 . S
C394 N393 1.351 . S
C394 C395 1.434 1_455 S
C395 C386 1.438 . S
C395 N392 1.350 . S
C395 C394 1.434 1_655 S
C199 C6 0.791 . S
C201 N187 0.781 . S
C210 C59 1.862 . S
C212 N160 1.861 1_655 S
C221 C86 1.364 . S
C223 N173 1.359 1_565 S
C232 C15 1.037 . S
C234 N186 1.139 . S
C245 N161 1.987 . S
C243 C50 1.993 . S
C256 N174 1.499 . S
C254 C95 1.431 . S
C265 C46 1.181 . S
C267 N134 1.188 . S
C276 C99 2.942 . S
C278 N148 2.894 1_655 S
C287 C10 2.023 . S
C289 N122 2.036 . S
C300 N135 1.556 . S
C298 C55 1.477 . S
C311 N147 3.286 . S
C309 C90 3.242 . S
C320 C19 1.867 . S
C322 N121 1.901 . S
C333 N151 1.763 . S
C331 C18 1.773 . S
C342 C49 1.444 . S
C344 N125 1.456 . S
C353 C98 1.468 . S
C355 N138 1.578 . S
C366 N177 1.525 . S
C364 C58 1.439 . S
C377 N190 1.160 . S
C375 C89 1.181 . S
C386 C9 1.392 1_655 S
C388 N164 1.427 . S
